data_functionalizedCrystal
_audit_creation_method	'EQeq! by Chris Wilmer'
_symmetry_space_group_name_H-M	'P1'
_symmetry_Int_Tables_number	1
_symmetry_cell_setting	triclinic
loop_
_symmetry_equiv_pos_as_xyz
  x,y,z
_cell_length_a	36.6089
_cell_length_b	36.6089
_cell_length_c	15.3988
_cell_angle_alpha	90
_cell_angle_beta	90
_cell_angle_gamma	90
loop_
_atom_site_label
_atom_site_type_symbol
_atom_site_fract_x
_atom_site_fract_y
_atom_site_fract_z
_atom_site_charge
Mof_Mn	Mn	0.35204	0.14686	0.24885	0.968
Mof_N 	N 	0.26164	0.19985	0.1596	-0.208
Mof_N 	N 	0.4564	0.1359	0.3395	-0.212
Mof_N 	N 	0.31636	0.0442	0.3425	-0.214
Mof_O 	O 	0.31188	0.1621	0.1624	-0.289
Mof_O 	O 	0.33235	0.195	0.312	-0.368
Mof_O 	O 	0.28404	0.2314	0.3055	-0.592
Mof_O 	O 	0.39453	0.1394	0.3355	-0.314
Mof_O 	O 	0.39976	0.1719	0.1799	-0.295
Mof_O 	O 	0.46203	0.1714	0.1914	-0.34
Mof_O 	O 	0.36296	0.0971	0.1855	-0.318
Mof_O 	O 	0.31789	0.1072	0.3244	-0.275
Mof_O 	O 	0.3581	0.0347	0.2017	-0.364
Mof_C 	C 	0.2913	0.1877	0.1929	0.049
Mof_C 	C 	0.3024	0.2052	0.2777	0.323
Mof_C 	C 	0.2493	0.1848	0.077	-0.137
Mof_C 	C 	0.2257	0.1552	0.0784	0.248
Mof_C 	C 	0.2127	0.1385	0.1635	-0.559
Mof_H 	H 	0.2322	0.1403	0.207	0.181
Mof_H 	H 	0.2065	0.1127	0.1542	0.172
Mof_H 	H 	0.1911	0.1517	0.1841	0.158
Mof_C 	C 	0.4258	0.1452	0.3043	0.104
Mof_C 	C 	0.4289	0.1626	0.2155	0.218
Mof_C 	C 	0.4549	0.1147	0.4216	-0.179
Mof_C 	C 	0.4524	0.0776	0.4212	0.289
Mof_C 	C 	0.4499	0.0576	0.3342	-0.606
Mof_H 	H 	0.4266	0.0633	0.3061	0.2
Mof_H 	H 	0.4515	0.0312	0.3441	0.172
Mof_H 	H 	0.4701	0.0653	0.2967	0.179
Mof_C 	C 	0.3528	0.0675	0.2228	0.235
Mof_C 	C 	0.3257	0.0742	0.3039	0.087
Mof_C 	C 	0.296	0.0463	0.4221	-0.152
Mof_C 	C 	0.2581	0.0477	0.4205	0.233
Mof_C 	C 	0.2372	0.0497	0.3336	-0.536
Mof_H 	H 	0.2426	0.0729	0.3047	0.177
Mof_H 	H 	0.2109	0.048	0.3447	0.16
Mof_H 	H 	0.2448	0.0294	0.2962	0.149
Mof_H 	H 	0.3013	0.2313	0.9401	0.11
Mof_H 	H 	0.3149	0.2164	0.0323	0.15
Mof_H 	H 	0.2854	0.2486	0.0276	0.122
Mof_H 	H 	0.4537	0.1855	0.56	0.162
Mof_H 	H 	0.4322	0.1853	0.4695	0.175
Mof_H 	H 	0.4759	0.1857	0.4705	0.142
Mof_H 	H 	0.3664	0.0475	0.56	0.171
Mof_H 	H 	0.3654	0.0704	0.4714	0.186
Mof_H 	H 	0.3674	0.0267	0.4686	0.145
Mof_Mn	Mn	0.64796	0.85314	0.24885	0.969
Mof_N 	N 	0.73836	0.80015	0.1596	-0.207
Mof_N 	N 	0.5436	0.8641	0.3395	-0.212
Mof_N 	N 	0.68364	0.9558	0.3425	-0.21
Mof_O 	O 	0.68812	0.8379	0.1624	-0.289
Mof_O 	O 	0.66765	0.805	0.312	-0.368
Mof_O 	O 	0.71596	0.7686	0.3055	-0.592
Mof_O 	O 	0.60547	0.8606	0.3355	-0.314
Mof_O 	O 	0.60024	0.8281	0.1799	-0.294
Mof_O 	O 	0.53797	0.8286	0.1914	-0.34
Mof_O 	O 	0.63704	0.9029	0.1855	-0.316
Mof_O 	O 	0.68211	0.8928	0.3244	-0.275
Mof_O 	O 	0.6419	0.9653	0.2017	-0.355
Mof_C 	C 	0.7087	0.8123	0.1929	0.048
Mof_C 	C 	0.6976	0.7948	0.2777	0.323
Mof_C 	C 	0.7507	0.8152	0.077	-0.139
Mof_C 	C 	0.7743	0.8448	0.0784	0.252
Mof_C 	C 	0.7873	0.8615	0.1635	-0.565
Mof_H 	H 	0.7678	0.8597	0.207	0.182
Mof_H 	H 	0.7935	0.8873	0.1542	0.175
Mof_H 	H 	0.8089	0.8483	0.1841	0.161
Mof_C 	C 	0.5742	0.8548	0.3043	0.104
Mof_C 	C 	0.5711	0.8374	0.2155	0.219
Mof_C 	C 	0.5451	0.8853	0.4216	-0.184
Mof_C 	C 	0.5476	0.9224	0.4212	0.299
Mof_C 	C 	0.5501	0.9424	0.3342	-0.621
Mof_H 	H 	0.5734	0.9367	0.3061	0.206
Mof_H 	H 	0.5485	0.9688	0.3441	0.182
Mof_H 	H 	0.5299	0.9347	0.2967	0.185
Mof_C 	C 	0.6472	0.9325	0.2228	0.234
Mof_C 	C 	0.6743	0.9258	0.3039	0.087
Mof_C 	C 	0.704	0.9537	0.4221	-0.159
Mof_C 	C 	0.7419	0.9523	0.4205	0.247
Mof_C 	C 	0.7628	0.9503	0.3336	-0.554
Mof_H 	H 	0.7574	0.9271	0.3047	0.183
Mof_H 	H 	0.7891	0.952	0.3447	0.169
Mof_H 	H 	0.7552	0.9706	0.2962	0.16
Mof_H 	H 	0.6987	0.7687	0.9401	0.11
Mof_H 	H 	0.6851	0.7836	0.0323	0.15
Mof_H 	H 	0.7146	0.7514	0.0276	0.123
Mof_H 	H 	0.5463	0.8145	0.56	0.162
Mof_H 	H 	0.5678	0.8147	0.4695	0.175
Mof_H 	H 	0.5241	0.8143	0.4705	0.143
Mof_H 	H 	0.6336	0.9525	0.56	0.178
Mof_H 	H 	0.6346	0.9296	0.4714	0.192
Mof_H 	H 	0.6326	0.9733	0.4686	0.156
Mof_Mn	Mn	0.85314	0.35204	0.24885	0.969
Mof_N 	N 	0.80015	0.26164	0.1596	-0.207
Mof_N 	N 	0.8641	0.4564	0.3395	-0.212
Mof_N 	N 	0.9558	0.31636	0.3425	-0.21
Mof_O 	O 	0.8379	0.31188	0.1624	-0.289
Mof_O 	O 	0.805	0.33235	0.312	-0.368
Mof_O 	O 	0.7686	0.28404	0.3055	-0.592
Mof_O 	O 	0.8606	0.39453	0.3355	-0.314
Mof_O 	O 	0.8281	0.39976	0.1799	-0.294
Mof_O 	O 	0.8286	0.46203	0.1914	-0.34
Mof_O 	O 	0.9029	0.36296	0.1855	-0.316
Mof_O 	O 	0.8928	0.31789	0.3244	-0.275
Mof_O 	O 	0.9653	0.3581	0.2017	-0.355
Mof_C 	C 	0.8123	0.2913	0.1929	0.049
Mof_C 	C 	0.7948	0.3024	0.2777	0.323
Mof_C 	C 	0.8152	0.2493	0.077	-0.139
Mof_C 	C 	0.8448	0.2257	0.0784	0.251
Mof_C 	C 	0.8615	0.2127	0.1635	-0.563
Mof_H 	H 	0.8597	0.2322	0.207	0.182
Mof_H 	H 	0.8873	0.2065	0.1542	0.174
Mof_H 	H 	0.8483	0.1911	0.1841	0.16
Mof_C 	C 	0.8548	0.4258	0.3043	0.104
Mof_C 	C 	0.8374	0.4289	0.2155	0.219
Mof_C 	C 	0.8853	0.4549	0.4216	-0.184
Mof_C 	C 	0.9224	0.4524	0.4212	0.299
Mof_C 	C 	0.9424	0.4499	0.3342	-0.621
Mof_H 	H 	0.9367	0.4266	0.3061	0.206
Mof_H 	H 	0.9688	0.4515	0.3441	0.182
Mof_H 	H 	0.9347	0.4701	0.2967	0.185
Mof_C 	C 	0.9325	0.3528	0.2228	0.234
Mof_C 	C 	0.9258	0.3257	0.3039	0.087
Mof_C 	C 	0.9537	0.296	0.4221	-0.158
Mof_C 	C 	0.9523	0.2581	0.4205	0.246
Mof_C 	C 	0.9503	0.2372	0.3336	-0.552
Mof_H 	H 	0.9271	0.2426	0.3047	0.183
Mof_H 	H 	0.952	0.2109	0.3447	0.168
Mof_H 	H 	0.9706	0.2448	0.2962	0.159
Mof_H 	H 	0.7687	0.3013	0.9401	0.11
Mof_H 	H 	0.7836	0.3149	0.0323	0.15
Mof_H 	H 	0.7514	0.2854	0.0276	0.123
Mof_H 	H 	0.8145	0.4537	0.56	0.162
Mof_H 	H 	0.8147	0.4322	0.4695	0.175
Mof_H 	H 	0.8143	0.4759	0.4705	0.143
Mof_H 	H 	0.9525	0.3664	0.56	0.178
Mof_H 	H 	0.9296	0.3654	0.4714	0.192
Mof_H 	H 	0.9733	0.3674	0.4686	0.156
Mof_Mn	Mn	0.14686	0.64796	0.24885	0.969
Mof_N 	N 	0.19985	0.73836	0.1596	-0.208
Mof_N 	N 	0.1359	0.5436	0.3395	-0.212
Mof_N 	N 	0.0442	0.68364	0.3425	-0.214
Mof_O 	O 	0.1621	0.68812	0.1624	-0.289
Mof_O 	O 	0.195	0.66765	0.312	-0.368
Mof_O 	O 	0.2314	0.71596	0.3055	-0.592
Mof_O 	O 	0.1394	0.60547	0.3355	-0.314
Mof_O 	O 	0.1719	0.60024	0.1799	-0.295
Mof_O 	O 	0.1714	0.53797	0.1914	-0.34
Mof_O 	O 	0.0971	0.63704	0.1855	-0.318
Mof_O 	O 	0.1072	0.68211	0.3244	-0.275
Mof_O 	O 	0.0347	0.6419	0.2017	-0.364
Mof_C 	C 	0.1877	0.7087	0.1929	0.049
Mof_C 	C 	0.2052	0.6976	0.2777	0.323
Mof_C 	C 	0.1848	0.7507	0.077	-0.138
Mof_C 	C 	0.1552	0.7743	0.0784	0.249
Mof_C 	C 	0.1385	0.7873	0.1635	-0.561
Mof_H 	H 	0.1403	0.7678	0.207	0.181
Mof_H 	H 	0.1127	0.7935	0.1542	0.173
Mof_H 	H 	0.1517	0.8089	0.1841	0.159
Mof_C 	C 	0.1452	0.5742	0.3043	0.104
Mof_C 	C 	0.1626	0.5711	0.2155	0.218
Mof_C 	C 	0.1147	0.5451	0.4216	-0.179
Mof_C 	C 	0.0776	0.5476	0.4212	0.289
Mof_C 	C 	0.0576	0.5501	0.3342	-0.606
Mof_H 	H 	0.0633	0.5734	0.3061	0.2
Mof_H 	H 	0.0312	0.5485	0.3441	0.172
Mof_H 	H 	0.0653	0.5299	0.2967	0.179
Mof_C 	C 	0.0675	0.6472	0.2228	0.235
Mof_C 	C 	0.0742	0.6743	0.3039	0.087
Mof_C 	C 	0.0463	0.704	0.4221	-0.152
Mof_C 	C 	0.0477	0.7419	0.4205	0.234
Mof_C 	C 	0.0497	0.7628	0.3336	-0.537
Mof_H 	H 	0.0729	0.7574	0.3047	0.178
Mof_H 	H 	0.048	0.7891	0.3447	0.161
Mof_H 	H 	0.0294	0.7552	0.2962	0.149
Mof_H 	H 	0.2313	0.6987	0.9401	0.11
Mof_H 	H 	0.2164	0.6851	0.0323	0.15
Mof_H 	H 	0.2486	0.7146	0.0276	0.122
Mof_H 	H 	0.1855	0.5463	0.56	0.162
Mof_H 	H 	0.1853	0.5678	0.4695	0.175
Mof_H 	H 	0.1857	0.5241	0.4705	0.142
Mof_H 	H 	0.0475	0.6336	0.56	0.171
Mof_H 	H 	0.0704	0.6346	0.4714	0.186
Mof_H 	H 	0.0267	0.6326	0.4686	0.145
Mof_Mn	Mn	0.64796	0.14686	0.75115	0.964
Mof_N 	N 	0.73836	0.19985	0.8404	-0.206
Mof_N 	N 	0.5436	0.1359	0.6605	-0.213
Mof_N 	N 	0.68364	0.0442	0.6575	-0.214
Mof_O 	O 	0.68812	0.1621	0.8376	-0.299
Mof_O 	O 	0.66765	0.195	0.688	-0.369
Mof_O 	O 	0.71596	0.2314	0.6945	-0.591
Mof_O 	O 	0.60547	0.1394	0.6645	-0.313
Mof_O 	O 	0.60024	0.1719	0.8201	-0.308
Mof_O 	O 	0.53797	0.1714	0.8086	-0.354
Mof_O 	O 	0.63704	0.0971	0.8145	-0.33
Mof_O 	O 	0.68211	0.1072	0.6756	-0.274
Mof_O 	O 	0.6419	0.0347	0.7983	-0.375
Mof_C 	C 	0.7087	0.1877	0.8071	0.048
Mof_C 	C 	0.6976	0.2052	0.7223	0.322
Mof_C 	C 	0.7507	0.1848	0.923	-0.161
Mof_C 	C 	0.7743	0.1552	0.9216	0.212
Mof_C 	C 	0.7873	0.1385	0.8365	-0.532
Mof_H 	H 	0.7678	0.1403	0.793	0.172
Mof_H 	H 	0.7935	0.1127	0.8458	0.154
Mof_H 	H 	0.8089	0.1517	0.8159	0.147
Mof_C 	C 	0.5742	0.1452	0.6957	0.101
Mof_C 	C 	0.5711	0.1626	0.7845	0.218
Mof_C 	C 	0.5451	0.1147	0.5784	-0.179
Mof_C 	C 	0.5476	0.0776	0.5788	0.287
Mof_C 	C 	0.5501	0.0576	0.6658	-0.598
Mof_H 	H 	0.5734	0.0633	0.6939	0.195
Mof_H 	H 	0.5485	0.0312	0.6559	0.168
Mof_H 	H 	0.5299	0.0653	0.7033	0.174
Mof_C 	C 	0.6472	0.0675	0.7772	0.235
Mof_C 	C 	0.6743	0.0742	0.6961	0.085
Mof_C 	C 	0.704	0.0463	0.5779	-0.152
Mof_C 	C 	0.7419	0.0477	0.5795	0.232
Mof_C 	C 	0.7628	0.0497	0.6664	-0.529
Mof_H 	H 	0.7574	0.0729	0.6953	0.173
Mof_H 	H 	0.7891	0.048	0.6553	0.156
Mof_H 	H 	0.7552	0.0294	0.7038	0.143
Mof_H 	H 	0.6987	0.2313	0.0599	0.089
Mof_H 	H 	0.6851	0.2164	0.9677	0.09
Mof_H 	H 	0.7146	0.2486	0.9724	0.052
Mof_H 	H 	0.5463	0.1855	0.44	0.162
Mof_H 	H 	0.5678	0.1853	0.5305	0.174
Mof_H 	H 	0.5241	0.1857	0.5295	0.142
Mof_H 	H 	0.6336	0.0475	0.44	0.171
Mof_H 	H 	0.6346	0.0704	0.5286	0.186
Mof_H 	H 	0.6326	0.0267	0.5314	0.145
Mof_Mn	Mn	0.35204	0.85314	0.75115	0.964
Mof_N 	N 	0.26164	0.80015	0.8404	-0.206
Mof_N 	N 	0.4564	0.8641	0.6605	-0.212
Mof_N 	N 	0.31636	0.9558	0.6575	-0.21
Mof_O 	O 	0.31188	0.8379	0.8376	-0.298
Mof_O 	O 	0.33235	0.805	0.688	-0.369
Mof_O 	O 	0.28404	0.7686	0.6945	-0.591
Mof_O 	O 	0.39453	0.8606	0.6645	-0.313
Mof_O 	O 	0.39976	0.8281	0.8201	-0.307
Mof_O 	O 	0.46203	0.8286	0.8086	-0.353
Mof_O 	O 	0.36296	0.9029	0.8145	-0.328
Mof_O 	O 	0.31789	0.8928	0.6756	-0.275
Mof_O 	O 	0.3581	0.9653	0.7983	-0.367
Mof_C 	C 	0.2913	0.8123	0.8071	0.048
Mof_C 	C 	0.3024	0.7948	0.7223	0.322
Mof_C 	C 	0.2493	0.8152	0.923	-0.162
Mof_C 	C 	0.2257	0.8448	0.9216	0.214
Mof_C 	C 	0.2127	0.8615	0.8365	-0.534
Mof_H 	H 	0.2322	0.8597	0.793	0.173
Mof_H 	H 	0.2065	0.8873	0.8458	0.156
Mof_H 	H 	0.1911	0.8483	0.8159	0.148
Mof_C 	C 	0.4258	0.8548	0.6957	0.101
Mof_C 	C 	0.4289	0.8374	0.7845	0.218
Mof_C 	C 	0.4549	0.8853	0.5784	-0.184
Mof_C 	C 	0.4524	0.9224	0.5788	0.297
Mof_C 	C 	0.4499	0.9424	0.6658	-0.613
Mof_H 	H 	0.4266	0.9367	0.6939	0.201
Mof_H 	H 	0.4515	0.9688	0.6559	0.178
Mof_H 	H 	0.4701	0.9347	0.7033	0.18
Mof_C 	C 	0.3528	0.9325	0.7772	0.234
Mof_C 	C 	0.3257	0.9258	0.6961	0.085
Mof_C 	C 	0.296	0.9537	0.5779	-0.158
Mof_C 	C 	0.2581	0.9523	0.5795	0.244
Mof_C 	C 	0.2372	0.9503	0.6664	-0.543
Mof_H 	H 	0.2426	0.9271	0.6953	0.177
Mof_H 	H 	0.2109	0.952	0.6553	0.163
Mof_H 	H 	0.2448	0.9706	0.7038	0.153
Mof_H 	H 	0.3013	0.7687	0.0599	0.089
Mof_H 	H 	0.3149	0.7836	0.9677	0.091
Mof_H 	H 	0.2854	0.7514	0.9724	0.052
Mof_H 	H 	0.4537	0.8145	0.44	0.163
Mof_H 	H 	0.4322	0.8147	0.5305	0.175
Mof_H 	H 	0.4759	0.8143	0.5295	0.143
Mof_H 	H 	0.3664	0.9525	0.44	0.178
Mof_H 	H 	0.3654	0.9296	0.5286	0.192
Mof_H 	H 	0.3674	0.9733	0.5314	0.156
Mof_Mn	Mn	0.14686	0.35204	0.75115	0.964
Mof_N 	N 	0.19985	0.26164	0.8404	-0.206
Mof_N 	N 	0.1359	0.4564	0.6605	-0.213
Mof_N 	N 	0.0442	0.31636	0.6575	-0.214
Mof_O 	O 	0.1621	0.31188	0.8376	-0.299
Mof_O 	O 	0.195	0.33235	0.688	-0.369
Mof_O 	O 	0.2314	0.28404	0.6945	-0.591
Mof_O 	O 	0.1394	0.39453	0.6645	-0.313
Mof_O 	O 	0.1719	0.39976	0.8201	-0.308
Mof_O 	O 	0.1714	0.46203	0.8086	-0.354
Mof_O 	O 	0.0971	0.36296	0.8145	-0.33
Mof_O 	O 	0.1072	0.31789	0.6756	-0.274
Mof_O 	O 	0.0347	0.3581	0.7983	-0.375
Mof_C 	C 	0.1877	0.2913	0.8071	0.048
Mof_C 	C 	0.2052	0.3024	0.7223	0.322
Mof_C 	C 	0.1848	0.2493	0.923	-0.16
Mof_C 	C 	0.1552	0.2257	0.9216	0.211
Mof_C 	C 	0.1385	0.2127	0.8365	-0.531
Mof_H 	H 	0.1403	0.2322	0.793	0.171
Mof_H 	H 	0.1127	0.2065	0.8458	0.153
Mof_H 	H 	0.1517	0.1911	0.8159	0.147
Mof_C 	C 	0.1452	0.4258	0.6957	0.101
Mof_C 	C 	0.1626	0.4289	0.7845	0.218
Mof_C 	C 	0.1147	0.4549	0.5784	-0.179
Mof_C 	C 	0.0776	0.4524	0.5788	0.287
Mof_C 	C 	0.0576	0.4499	0.6658	-0.598
Mof_H 	H 	0.0633	0.4266	0.6939	0.195
Mof_H 	H 	0.0312	0.4515	0.6559	0.168
Mof_H 	H 	0.0653	0.4701	0.7033	0.174
Mof_C 	C 	0.0675	0.3528	0.7772	0.235
Mof_C 	C 	0.0742	0.3257	0.6961	0.085
Mof_C 	C 	0.0463	0.296	0.5779	-0.151
Mof_C 	C 	0.0477	0.2581	0.5795	0.231
Mof_C 	C 	0.0497	0.2372	0.6664	-0.527
Mof_H 	H 	0.0729	0.2426	0.6953	0.172
Mof_H 	H 	0.048	0.2109	0.6553	0.155
Mof_H 	H 	0.0294	0.2448	0.7038	0.142
Mof_H 	H 	0.2313	0.3013	0.0599	0.089
Mof_H 	H 	0.2164	0.3149	0.9677	0.09
Mof_H 	H 	0.2486	0.2854	0.9724	0.052
Mof_H 	H 	0.1855	0.4537	0.44	0.162
Mof_H 	H 	0.1853	0.4322	0.5305	0.175
Mof_H 	H 	0.1857	0.4759	0.5295	0.142
Mof_H 	H 	0.0475	0.3664	0.44	0.171
Mof_H 	H 	0.0704	0.3654	0.5286	0.186
Mof_H 	H 	0.0267	0.3674	0.5314	0.144
Mof_Mn	Mn	0.85314	0.64796	0.75115	0.964
Mof_N 	N 	0.80015	0.73836	0.8404	-0.206
Mof_N 	N 	0.8641	0.5436	0.6605	-0.212
Mof_N 	N 	0.9558	0.68364	0.6575	-0.21
Mof_O 	O 	0.8379	0.68812	0.8376	-0.298
Mof_O 	O 	0.805	0.66765	0.688	-0.369
Mof_O 	O 	0.7686	0.71596	0.6945	-0.591
Mof_O 	O 	0.8606	0.60547	0.6645	-0.314
Mof_O 	O 	0.8281	0.60024	0.8201	-0.307
Mof_O 	O 	0.8286	0.53797	0.8086	-0.353
Mof_O 	O 	0.9029	0.63704	0.8145	-0.328
Mof_O 	O 	0.8928	0.68211	0.6756	-0.275
Mof_O 	O 	0.9653	0.6419	0.7983	-0.367
Mof_C 	C 	0.8123	0.7087	0.8071	0.048
Mof_C 	C 	0.7948	0.6976	0.7223	0.322
Mof_C 	C 	0.8152	0.7507	0.923	-0.162
Mof_C 	C 	0.8448	0.7743	0.9216	0.215
Mof_C 	C 	0.8615	0.7873	0.8365	-0.536
Mof_H 	H 	0.8597	0.7678	0.793	0.173
Mof_H 	H 	0.8873	0.7935	0.8458	0.157
Mof_H 	H 	0.8483	0.8089	0.8159	0.149
Mof_C 	C 	0.8548	0.5742	0.6957	0.101
Mof_C 	C 	0.8374	0.5711	0.7845	0.218
Mof_C 	C 	0.8853	0.5451	0.5784	-0.184
Mof_C 	C 	0.9224	0.5476	0.5788	0.297
Mof_C 	C 	0.9424	0.5501	0.6658	-0.613
Mof_H 	H 	0.9367	0.5734	0.6939	0.201
Mof_H 	H 	0.9688	0.5485	0.6559	0.178
Mof_H 	H 	0.9347	0.5299	0.7033	0.18
Mof_C 	C 	0.9325	0.6472	0.7772	0.234
Mof_C 	C 	0.9258	0.6743	0.6961	0.085
Mof_C 	C 	0.9537	0.704	0.5779	-0.158
Mof_C 	C 	0.9523	0.7419	0.5795	0.245
Mof_C 	C 	0.9503	0.7628	0.6664	-0.545
Mof_H 	H 	0.9271	0.7574	0.6953	0.178
Mof_H 	H 	0.952	0.7891	0.6553	0.164
Mof_H 	H 	0.9706	0.7552	0.7038	0.154
Mof_H 	H 	0.7687	0.6987	0.0599	0.089
Mof_H 	H 	0.7836	0.6851	0.9677	0.091
Mof_H 	H 	0.7514	0.7146	0.9724	0.052
Mof_H 	H 	0.8145	0.5463	0.44	0.163
Mof_H 	H 	0.8147	0.5678	0.5305	0.175
Mof_H 	H 	0.8143	0.5241	0.5295	0.143
Mof_H 	H 	0.9525	0.6336	0.44	0.178
Mof_H 	H 	0.9296	0.6346	0.5286	0.192
Mof_H 	H 	0.9733	0.6326	0.5314	0.156
Mof_Mn	Mn	0.64796	0.85314	0.75115	0.964
Mof_N 	N 	0.73836	0.80015	0.8404	-0.206
Mof_N 	N 	0.5436	0.8641	0.6605	-0.212
Mof_N 	N 	0.68364	0.9558	0.6575	-0.21
Mof_O 	O 	0.68812	0.8379	0.8376	-0.298
Mof_O 	O 	0.66765	0.805	0.688	-0.369
Mof_O 	O 	0.71596	0.7686	0.6945	-0.591
Mof_O 	O 	0.60547	0.8606	0.6645	-0.314
Mof_O 	O 	0.60024	0.8281	0.8201	-0.307
Mof_O 	O 	0.53797	0.8286	0.8086	-0.353
Mof_O 	O 	0.63704	0.9029	0.8145	-0.328
Mof_O 	O 	0.68211	0.8928	0.6756	-0.275
Mof_O 	O 	0.6419	0.9653	0.7983	-0.367
Mof_C 	C 	0.7087	0.8123	0.8071	0.048
Mof_C 	C 	0.6976	0.7948	0.7223	0.322
Mof_C 	C 	0.7507	0.8152	0.923	-0.162
Mof_C 	C 	0.7743	0.8448	0.9216	0.215
Mof_C 	C 	0.7873	0.8615	0.8365	-0.536
Mof_H 	H 	0.7678	0.8597	0.793	0.173
Mof_H 	H 	0.7935	0.8873	0.8458	0.157
Mof_H 	H 	0.8089	0.8483	0.8159	0.149
Mof_C 	C 	0.5742	0.8548	0.6957	0.101
Mof_C 	C 	0.5711	0.8374	0.7845	0.218
Mof_C 	C 	0.5451	0.8853	0.5784	-0.184
Mof_C 	C 	0.5476	0.9224	0.5788	0.297
Mof_C 	C 	0.5501	0.9424	0.6658	-0.613
Mof_H 	H 	0.5734	0.9367	0.6939	0.201
Mof_H 	H 	0.5485	0.9688	0.6559	0.178
Mof_H 	H 	0.5299	0.9347	0.7033	0.18
Mof_C 	C 	0.6472	0.9325	0.7772	0.234
Mof_C 	C 	0.6743	0.9258	0.6961	0.085
Mof_C 	C 	0.704	0.9537	0.5779	-0.158
Mof_C 	C 	0.7419	0.9523	0.5795	0.245
Mof_C 	C 	0.7628	0.9503	0.6664	-0.545
Mof_H 	H 	0.7574	0.9271	0.6953	0.178
Mof_H 	H 	0.7891	0.952	0.6553	0.164
Mof_H 	H 	0.7552	0.9706	0.7038	0.154
Mof_H 	H 	0.6987	0.7687	0.0599	0.089
Mof_H 	H 	0.6851	0.7836	0.9677	0.091
Mof_H 	H 	0.7146	0.7514	0.9724	0.052
Mof_H 	H 	0.5463	0.8145	0.44	0.163
Mof_H 	H 	0.5678	0.8147	0.5305	0.175
Mof_H 	H 	0.5241	0.8143	0.5295	0.143
Mof_H 	H 	0.6336	0.9525	0.44	0.178
Mof_H 	H 	0.6346	0.9296	0.5286	0.192
Mof_H 	H 	0.6326	0.9733	0.5314	0.156
Mof_Mn	Mn	0.35204	0.14686	0.75115	0.964
Mof_N 	N 	0.26164	0.19985	0.8404	-0.206
Mof_N 	N 	0.4564	0.1359	0.6605	-0.213
Mof_N 	N 	0.31636	0.0442	0.6575	-0.214
Mof_O 	O 	0.31188	0.1621	0.8376	-0.299
Mof_O 	O 	0.33235	0.195	0.688	-0.369
Mof_O 	O 	0.28404	0.2314	0.6945	-0.591
Mof_O 	O 	0.39453	0.1394	0.6645	-0.313
Mof_O 	O 	0.39976	0.1719	0.8201	-0.308
Mof_O 	O 	0.46203	0.1714	0.8086	-0.354
Mof_O 	O 	0.36296	0.0971	0.8145	-0.33
Mof_O 	O 	0.31789	0.1072	0.6756	-0.274
Mof_O 	O 	0.3581	0.0347	0.7983	-0.375
Mof_C 	C 	0.2913	0.1877	0.8071	0.048
Mof_C 	C 	0.3024	0.2052	0.7223	0.322
Mof_C 	C 	0.2493	0.1848	0.923	-0.16
Mof_C 	C 	0.2257	0.1552	0.9216	0.211
Mof_C 	C 	0.2127	0.1385	0.8365	-0.531
Mof_H 	H 	0.2322	0.1403	0.793	0.171
Mof_H 	H 	0.2065	0.1127	0.8458	0.153
Mof_H 	H 	0.1911	0.1517	0.8159	0.147
Mof_C 	C 	0.4258	0.1452	0.6957	0.101
Mof_C 	C 	0.4289	0.1626	0.7845	0.218
Mof_C 	C 	0.4549	0.1147	0.5784	-0.179
Mof_C 	C 	0.4524	0.0776	0.5788	0.287
Mof_C 	C 	0.4499	0.0576	0.6658	-0.598
Mof_H 	H 	0.4266	0.0633	0.6939	0.195
Mof_H 	H 	0.4515	0.0312	0.6559	0.168
Mof_H 	H 	0.4701	0.0653	0.7033	0.174
Mof_C 	C 	0.3528	0.0675	0.7772	0.235
Mof_C 	C 	0.3257	0.0742	0.6961	0.085
Mof_C 	C 	0.296	0.0463	0.5779	-0.151
Mof_C 	C 	0.2581	0.0477	0.5795	0.231
Mof_C 	C 	0.2372	0.0497	0.6664	-0.527
Mof_H 	H 	0.2426	0.0729	0.6953	0.172
Mof_H 	H 	0.2109	0.048	0.6553	0.155
Mof_H 	H 	0.2448	0.0294	0.7038	0.142
Mof_H 	H 	0.3013	0.2313	0.0599	0.089
Mof_H 	H 	0.3149	0.2164	0.9677	0.09
Mof_H 	H 	0.2854	0.2486	0.9724	0.052
Mof_H 	H 	0.4537	0.1855	0.44	0.162
Mof_H 	H 	0.4322	0.1853	0.5305	0.175
Mof_H 	H 	0.4759	0.1857	0.5295	0.142
Mof_H 	H 	0.3664	0.0475	0.44	0.171
Mof_H 	H 	0.3654	0.0704	0.5286	0.186
Mof_H 	H 	0.3674	0.0267	0.5314	0.144
Mof_Mn	Mn	0.14686	0.64796	0.75115	0.964
Mof_N 	N 	0.19985	0.73836	0.8404	-0.206
Mof_N 	N 	0.1359	0.5436	0.6605	-0.213
Mof_N 	N 	0.0442	0.68364	0.6575	-0.214
Mof_O 	O 	0.1621	0.68812	0.8376	-0.299
Mof_O 	O 	0.195	0.66765	0.688	-0.369
Mof_O 	O 	0.2314	0.71596	0.6945	-0.591
Mof_O 	O 	0.1394	0.60547	0.6645	-0.313
Mof_O 	O 	0.1719	0.60024	0.8201	-0.308
Mof_O 	O 	0.1714	0.53797	0.8086	-0.354
Mof_O 	O 	0.0971	0.63704	0.8145	-0.33
Mof_O 	O 	0.1072	0.68211	0.6756	-0.274
Mof_O 	O 	0.0347	0.6419	0.7983	-0.375
Mof_C 	C 	0.1877	0.7087	0.8071	0.048
Mof_C 	C 	0.2052	0.6976	0.7223	0.322
Mof_C 	C 	0.1848	0.7507	0.923	-0.161
Mof_C 	C 	0.1552	0.7743	0.9216	0.212
Mof_C 	C 	0.1385	0.7873	0.8365	-0.532
Mof_H 	H 	0.1403	0.7678	0.793	0.172
Mof_H 	H 	0.1127	0.7935	0.8458	0.154
Mof_H 	H 	0.1517	0.8089	0.8159	0.147
Mof_C 	C 	0.1452	0.5742	0.6957	0.101
Mof_C 	C 	0.1626	0.5711	0.7845	0.218
Mof_C 	C 	0.1147	0.5451	0.5784	-0.179
Mof_C 	C 	0.0776	0.5476	0.5788	0.287
Mof_C 	C 	0.0576	0.5501	0.6658	-0.598
Mof_H 	H 	0.0633	0.5734	0.6939	0.195
Mof_H 	H 	0.0312	0.5485	0.6559	0.168
Mof_H 	H 	0.0653	0.5299	0.7033	0.174
Mof_C 	C 	0.0675	0.6472	0.7772	0.235
Mof_C 	C 	0.0742	0.6743	0.6961	0.085
Mof_C 	C 	0.0463	0.704	0.5779	-0.152
Mof_C 	C 	0.0477	0.7419	0.5795	0.232
Mof_C 	C 	0.0497	0.7628	0.6664	-0.529
Mof_H 	H 	0.0729	0.7574	0.6953	0.173
Mof_H 	H 	0.048	0.7891	0.6553	0.156
Mof_H 	H 	0.0294	0.7552	0.7038	0.143
Mof_H 	H 	0.2313	0.6987	0.0599	0.089
Mof_H 	H 	0.2164	0.6851	0.9677	0.09
Mof_H 	H 	0.2486	0.7146	0.9724	0.052
Mof_H 	H 	0.1855	0.5463	0.44	0.162
Mof_H 	H 	0.1853	0.5678	0.5305	0.174
Mof_H 	H 	0.1857	0.5241	0.5295	0.142
Mof_H 	H 	0.0475	0.6336	0.44	0.171
Mof_H 	H 	0.0704	0.6346	0.5286	0.186
Mof_H 	H 	0.0267	0.6326	0.5314	0.145
Mof_Mn	Mn	0.85314	0.35204	0.75115	0.964
Mof_N 	N 	0.80015	0.26164	0.8404	-0.206
Mof_N 	N 	0.8641	0.4564	0.6605	-0.212
Mof_N 	N 	0.9558	0.31636	0.6575	-0.21
Mof_O 	O 	0.8379	0.31188	0.8376	-0.298
Mof_O 	O 	0.805	0.33235	0.688	-0.369
Mof_O 	O 	0.7686	0.28404	0.6945	-0.591
Mof_O 	O 	0.8606	0.39453	0.6645	-0.313
Mof_O 	O 	0.8281	0.39976	0.8201	-0.307
Mof_O 	O 	0.8286	0.46203	0.8086	-0.353
Mof_O 	O 	0.9029	0.36296	0.8145	-0.328
Mof_O 	O 	0.8928	0.31789	0.6756	-0.275
Mof_O 	O 	0.9653	0.3581	0.7983	-0.367
Mof_C 	C 	0.8123	0.2913	0.8071	0.048
Mof_C 	C 	0.7948	0.3024	0.7223	0.322
Mof_C 	C 	0.8152	0.2493	0.923	-0.162
Mof_C 	C 	0.8448	0.2257	0.9216	0.214
Mof_C 	C 	0.8615	0.2127	0.8365	-0.534
Mof_H 	H 	0.8597	0.2322	0.793	0.173
Mof_H 	H 	0.8873	0.2065	0.8458	0.156
Mof_H 	H 	0.8483	0.1911	0.8159	0.148
Mof_C 	C 	0.8548	0.4258	0.6957	0.101
Mof_C 	C 	0.8374	0.4289	0.7845	0.218
Mof_C 	C 	0.8853	0.4549	0.5784	-0.184
Mof_C 	C 	0.9224	0.4524	0.5788	0.297
Mof_C 	C 	0.9424	0.4499	0.6658	-0.613
Mof_H 	H 	0.9367	0.4266	0.6939	0.201
Mof_H 	H 	0.9688	0.4515	0.6559	0.178
Mof_H 	H 	0.9347	0.4701	0.7033	0.18
Mof_C 	C 	0.9325	0.3528	0.7772	0.234
Mof_C 	C 	0.9258	0.3257	0.6961	0.085
Mof_C 	C 	0.9537	0.296	0.5779	-0.158
Mof_C 	C 	0.9523	0.2581	0.5795	0.244
Mof_C 	C 	0.9503	0.2372	0.6664	-0.543
Mof_H 	H 	0.9271	0.2426	0.6953	0.177
Mof_H 	H 	0.952	0.2109	0.6553	0.163
Mof_H 	H 	0.9706	0.2448	0.7038	0.153
Mof_H 	H 	0.7687	0.3013	0.0599	0.089
Mof_H 	H 	0.7836	0.3149	0.9677	0.091
Mof_H 	H 	0.7514	0.2854	0.9724	0.052
Mof_H 	H 	0.8145	0.4537	0.44	0.163
Mof_H 	H 	0.8147	0.4322	0.5305	0.175
Mof_H 	H 	0.8143	0.4759	0.5295	0.143
Mof_H 	H 	0.9525	0.3664	0.44	0.178
Mof_H 	H 	0.9296	0.3654	0.5286	0.192
Mof_H 	H 	0.9733	0.3674	0.5314	0.156
Mof_Mn	Mn	0.35204	0.85314	0.24885	0.969
Mof_N 	N 	0.26164	0.80015	0.1596	-0.207
Mof_N 	N 	0.4564	0.8641	0.3395	-0.212
Mof_N 	N 	0.31636	0.9558	0.3425	-0.21
Mof_O 	O 	0.31188	0.8379	0.1624	-0.289
Mof_O 	O 	0.33235	0.805	0.312	-0.368
Mof_O 	O 	0.28404	0.7686	0.3055	-0.592
Mof_O 	O 	0.39453	0.8606	0.3355	-0.314
Mof_O 	O 	0.39976	0.8281	0.1799	-0.294
Mof_O 	O 	0.46203	0.8286	0.1914	-0.34
Mof_O 	O 	0.36296	0.9029	0.1855	-0.316
Mof_O 	O 	0.31789	0.8928	0.3244	-0.275
Mof_O 	O 	0.3581	0.9653	0.2017	-0.355
Mof_C 	C 	0.2913	0.8123	0.1929	0.049
Mof_C 	C 	0.3024	0.7948	0.2777	0.323
Mof_C 	C 	0.2493	0.8152	0.077	-0.139
Mof_C 	C 	0.2257	0.8448	0.0784	0.251
Mof_C 	C 	0.2127	0.8615	0.1635	-0.563
Mof_H 	H 	0.2322	0.8597	0.207	0.182
Mof_H 	H 	0.2065	0.8873	0.1542	0.174
Mof_H 	H 	0.1911	0.8483	0.1841	0.16
Mof_C 	C 	0.4258	0.8548	0.3043	0.104
Mof_C 	C 	0.4289	0.8374	0.2155	0.219
Mof_C 	C 	0.4549	0.8853	0.4216	-0.184
Mof_C 	C 	0.4524	0.9224	0.4212	0.299
Mof_C 	C 	0.4499	0.9424	0.3342	-0.621
Mof_H 	H 	0.4266	0.9367	0.3061	0.206
Mof_H 	H 	0.4515	0.9688	0.3441	0.182
Mof_H 	H 	0.4701	0.9347	0.2967	0.185
Mof_C 	C 	0.3528	0.9325	0.2228	0.234
Mof_C 	C 	0.3257	0.9258	0.3039	0.087
Mof_C 	C 	0.296	0.9537	0.4221	-0.158
Mof_C 	C 	0.2581	0.9523	0.4205	0.246
Mof_C 	C 	0.2372	0.9503	0.3336	-0.552
Mof_H 	H 	0.2426	0.9271	0.3047	0.183
Mof_H 	H 	0.2109	0.952	0.3447	0.168
Mof_H 	H 	0.2448	0.9706	0.2962	0.159
Mof_H 	H 	0.3013	0.7687	0.9401	0.11
Mof_H 	H 	0.3149	0.7836	0.0323	0.15
Mof_H 	H 	0.2854	0.7514	0.0276	0.123
Mof_H 	H 	0.4537	0.8145	0.56	0.162
Mof_H 	H 	0.4322	0.8147	0.4695	0.175
Mof_H 	H 	0.4759	0.8143	0.4705	0.143
Mof_H 	H 	0.3664	0.9525	0.56	0.178
Mof_H 	H 	0.3654	0.9296	0.4714	0.192
Mof_H 	H 	0.3674	0.9733	0.4686	0.156
Mof_Mn	Mn	0.64796	0.14686	0.24885	0.969
Mof_N 	N 	0.73836	0.19985	0.1596	-0.208
Mof_N 	N 	0.5436	0.1359	0.3395	-0.212
Mof_N 	N 	0.68364	0.0442	0.3425	-0.214
Mof_O 	O 	0.68812	0.1621	0.1624	-0.289
Mof_O 	O 	0.66765	0.195	0.312	-0.368
Mof_O 	O 	0.71596	0.2314	0.3055	-0.592
Mof_O 	O 	0.60547	0.1394	0.3355	-0.314
Mof_O 	O 	0.60024	0.1719	0.1799	-0.295
Mof_O 	O 	0.53797	0.1714	0.1914	-0.34
Mof_O 	O 	0.63704	0.0971	0.1855	-0.318
Mof_O 	O 	0.68211	0.1072	0.3244	-0.275
Mof_O 	O 	0.6419	0.0347	0.2017	-0.364
Mof_C 	C 	0.7087	0.1877	0.1929	0.049
Mof_C 	C 	0.6976	0.2052	0.2777	0.323
Mof_C 	C 	0.7507	0.1848	0.077	-0.138
Mof_C 	C 	0.7743	0.1552	0.0784	0.249
Mof_C 	C 	0.7873	0.1385	0.1635	-0.561
Mof_H 	H 	0.7678	0.1403	0.207	0.181
Mof_H 	H 	0.7935	0.1127	0.1542	0.173
Mof_H 	H 	0.8089	0.1517	0.1841	0.159
Mof_C 	C 	0.5742	0.1452	0.3043	0.104
Mof_C 	C 	0.5711	0.1626	0.2155	0.218
Mof_C 	C 	0.5451	0.1147	0.4216	-0.179
Mof_C 	C 	0.5476	0.0776	0.4212	0.289
Mof_C 	C 	0.5501	0.0576	0.3342	-0.606
Mof_H 	H 	0.5734	0.0633	0.3061	0.2
Mof_H 	H 	0.5485	0.0312	0.3441	0.172
Mof_H 	H 	0.5299	0.0653	0.2967	0.179
Mof_C 	C 	0.6472	0.0675	0.2228	0.235
Mof_C 	C 	0.6743	0.0742	0.3039	0.087
Mof_C 	C 	0.704	0.0463	0.4221	-0.152
Mof_C 	C 	0.7419	0.0477	0.4205	0.234
Mof_C 	C 	0.7628	0.0497	0.3336	-0.537
Mof_H 	H 	0.7574	0.0729	0.3047	0.178
Mof_H 	H 	0.7891	0.048	0.3447	0.161
Mof_H 	H 	0.7552	0.0294	0.2962	0.149
Mof_H 	H 	0.6987	0.2313	0.9401	0.11
Mof_H 	H 	0.6851	0.2164	0.0323	0.15
Mof_H 	H 	0.7146	0.2486	0.0276	0.122
Mof_H 	H 	0.5463	0.1855	0.56	0.162
Mof_H 	H 	0.5678	0.1853	0.4695	0.175
Mof_H 	H 	0.5241	0.1857	0.4705	0.142
Mof_H 	H 	0.6336	0.0475	0.56	0.171
Mof_H 	H 	0.6346	0.0704	0.4714	0.186
Mof_H 	H 	0.6326	0.0267	0.4686	0.145
Mof_Mn	Mn	0.85314	0.64796	0.24885	0.969
Mof_N 	N 	0.80015	0.73836	0.1596	-0.207
Mof_N 	N 	0.8641	0.5436	0.3395	-0.212
Mof_N 	N 	0.9558	0.68364	0.3425	-0.21
Mof_O 	O 	0.8379	0.68812	0.1624	-0.289
Mof_O 	O 	0.805	0.66765	0.312	-0.368
Mof_O 	O 	0.7686	0.71596	0.3055	-0.592
Mof_O 	O 	0.8606	0.60547	0.3355	-0.314
Mof_O 	O 	0.8281	0.60024	0.1799	-0.294
Mof_O 	O 	0.8286	0.53797	0.1914	-0.34
Mof_O 	O 	0.9029	0.63704	0.1855	-0.316
Mof_O 	O 	0.8928	0.68211	0.3244	-0.275
Mof_O 	O 	0.9653	0.6419	0.2017	-0.355
Mof_C 	C 	0.8123	0.7087	0.1929	0.048
Mof_C 	C 	0.7948	0.6976	0.2777	0.323
Mof_C 	C 	0.8152	0.7507	0.077	-0.139
Mof_C 	C 	0.8448	0.7743	0.0784	0.252
Mof_C 	C 	0.8615	0.7873	0.1635	-0.565
Mof_H 	H 	0.8597	0.7678	0.207	0.182
Mof_H 	H 	0.8873	0.7935	0.1542	0.175
Mof_H 	H 	0.8483	0.8089	0.1841	0.161
Mof_C 	C 	0.8548	0.5742	0.3043	0.104
Mof_C 	C 	0.8374	0.5711	0.2155	0.219
Mof_C 	C 	0.8853	0.5451	0.4216	-0.184
Mof_C 	C 	0.9224	0.5476	0.4212	0.299
Mof_C 	C 	0.9424	0.5501	0.3342	-0.621
Mof_H 	H 	0.9367	0.5734	0.3061	0.206
Mof_H 	H 	0.9688	0.5485	0.3441	0.182
Mof_H 	H 	0.9347	0.5299	0.2967	0.185
Mof_C 	C 	0.9325	0.6472	0.2228	0.234
Mof_C 	C 	0.9258	0.6743	0.3039	0.087
Mof_C 	C 	0.9537	0.704	0.4221	-0.159
Mof_C 	C 	0.9523	0.7419	0.4205	0.247
Mof_C 	C 	0.9503	0.7628	0.3336	-0.554
Mof_H 	H 	0.9271	0.7574	0.3047	0.183
Mof_H 	H 	0.952	0.7891	0.3447	0.169
Mof_H 	H 	0.9706	0.7552	0.2962	0.16
Mof_H 	H 	0.7687	0.6987	0.9401	0.11
Mof_H 	H 	0.7836	0.6851	0.0323	0.15
Mof_H 	H 	0.7514	0.7146	0.0276	0.123
Mof_H 	H 	0.8145	0.5463	0.56	0.162
Mof_H 	H 	0.8147	0.5678	0.4695	0.175
Mof_H 	H 	0.8143	0.5241	0.4705	0.143
Mof_H 	H 	0.9525	0.6336	0.56	0.178
Mof_H 	H 	0.9296	0.6346	0.4714	0.192
Mof_H 	H 	0.9733	0.6326	0.4686	0.156
Mof_Mn	Mn	0.14686	0.35204	0.24885	0.969
Mof_N 	N 	0.19985	0.26164	0.1596	-0.208
Mof_N 	N 	0.1359	0.4564	0.3395	-0.212
Mof_N 	N 	0.0442	0.31636	0.3425	-0.214
Mof_O 	O 	0.1621	0.31188	0.1624	-0.289
Mof_O 	O 	0.195	0.33235	0.312	-0.368
Mof_O 	O 	0.2314	0.28404	0.3055	-0.592
Mof_O 	O 	0.1394	0.39453	0.3355	-0.314
Mof_O 	O 	0.1719	0.39976	0.1799	-0.295
Mof_O 	O 	0.1714	0.46203	0.1914	-0.34
Mof_O 	O 	0.0971	0.36296	0.1855	-0.318
Mof_O 	O 	0.1072	0.31789	0.3244	-0.275
Mof_O 	O 	0.0347	0.3581	0.2017	-0.364
Mof_C 	C 	0.1877	0.2913	0.1929	0.049
Mof_C 	C 	0.2052	0.3024	0.2777	0.323
Mof_C 	C 	0.1848	0.2493	0.077	-0.137
Mof_C 	C 	0.1552	0.2257	0.0784	0.248
Mof_C 	C 	0.1385	0.2127	0.1635	-0.559
Mof_H 	H 	0.1403	0.2322	0.207	0.181
Mof_H 	H 	0.1127	0.2065	0.1542	0.172
Mof_H 	H 	0.1517	0.1911	0.1841	0.158
Mof_C 	C 	0.1452	0.4258	0.3043	0.104
Mof_C 	C 	0.1626	0.4289	0.2155	0.218
Mof_C 	C 	0.1147	0.4549	0.4216	-0.179
Mof_C 	C 	0.0776	0.4524	0.4212	0.289
Mof_C 	C 	0.0576	0.4499	0.3342	-0.606
Mof_H 	H 	0.0633	0.4266	0.3061	0.2
Mof_H 	H 	0.0312	0.4515	0.3441	0.172
Mof_H 	H 	0.0653	0.4701	0.2967	0.179
Mof_C 	C 	0.0675	0.3528	0.2228	0.235
Mof_C 	C 	0.0742	0.3257	0.3039	0.087
Mof_C 	C 	0.0463	0.296	0.4221	-0.152
Mof_C 	C 	0.0477	0.2581	0.4205	0.233
Mof_C 	C 	0.0497	0.2372	0.3336	-0.536
Mof_H 	H 	0.0729	0.2426	0.3047	0.177
Mof_H 	H 	0.048	0.2109	0.3447	0.16
Mof_H 	H 	0.0294	0.2448	0.2962	0.149
Mof_H 	H 	0.2313	0.3013	0.9401	0.11
Mof_H 	H 	0.2164	0.3149	0.0323	0.15
Mof_H 	H 	0.2486	0.2854	0.0276	0.122
Mof_H 	H 	0.1855	0.4537	0.56	0.162
Mof_H 	H 	0.1853	0.4322	0.4695	0.175
Mof_H 	H 	0.1857	0.4759	0.4705	0.142
Mof_H 	H 	0.0475	0.3664	0.56	0.171
Mof_H 	H 	0.0704	0.3654	0.4714	0.186
Mof_H 	H 	0.0267	0.3674	0.4686	0.145
Mof_Cu	Cu	0.24093	0.24093	0.23031	0.857
Mof_Na	Na	0.2692	0.2692	0.4315	1.627
Mof_Cu	Cu	0.75907	0.75907	0.23031	0.857
Mof_Na	Na	0.7308	0.7308	0.4315	1.627
Mof_Cu	Cu	0.75907	0.24093	0.23031	0.857
Mof_Na	Na	0.7308	0.2692	0.4315	1.627
Mof_Cu	Cu	0.24093	0.75907	0.23031	0.857
Mof_Na	Na	0.2692	0.7308	0.4315	1.627
Mof_Cu	Cu	0.75907	0.24093	0.76969	0.856
Mof_Na	Na	0.7308	0.2692	0.5685	1.606
Mof_Cu	Cu	0.24093	0.75907	0.76969	0.856
Mof_Na	Na	0.2692	0.7308	0.5685	1.606
Mof_Cu	Cu	0.24093	0.24093	0.76969	0.856
Mof_Na	Na	0.2692	0.2692	0.5685	1.606
Mof_Cu	Cu	0.75907	0.75907	0.76969	0.856
Mof_Na	Na	0.7308	0.7308	0.5685	1.606
Mof_Cu	Cu	0.33201	1.22318e-33	0.27477	0.866
Mof_Cu	Cu	0.66799	1.22318e-33	0.27477	0.866
Mof_Cu	Cu	1.65652e-33	0.33201	0.27477	0.866
Mof_Cu	Cu	4.10288e-33	0.66799	0.27477	0.866
Mof_Cu	Cu	0.66799	0	0.72523	0.864
Mof_Cu	Cu	0.33201	0	0.72523	0.864
Mof_Cu	Cu	1.14377e-33	0.33201	0.72523	0.864
Mof_Cu	Cu	-6.19531e-33	0.66799	0.72523	0.864
Mof_Cu	Cu	0.5	0.15086	0.26973	0.869
Mof_Cu	Cu	0.5	0.84914	0.26973	0.869
Mof_Cu	Cu	0.84914	0.5	0.26973	0.869
Mof_Cu	Cu	0.15086	0.5	0.26973	0.869
Mof_Cu	Cu	0.5	0.15086	0.73027	0.867
Mof_Cu	Cu	0.5	0.84914	0.73027	0.867
Mof_Cu	Cu	0.15086	0.5	0.73027	0.867
Mof_Cu	Cu	0.84914	0.5	0.73027	0.867
Mof_C 	C 	0.214	0.1424	-0	-0.277
Mof_H 	H 	0.1965	0.1233	-0	0.117
Mof_C 	C 	0.2626	0.1975	-0	0.248
Mof_C 	C 	0.2939	0.2261	-0	-0.603
Mof_C 	C 	0.786	0.8576	-0	-0.281
Mof_H 	H 	0.8035	0.8767	-0	0.121
Mof_C 	C 	0.7374	0.8025	-0	0.249
Mof_C 	C 	0.7061	0.7739	-0	-0.605
Mof_C 	C 	0.8576	0.214	-0	-0.28
Mof_H 	H 	0.8767	0.1965	-0	0.12
Mof_C 	C 	0.8025	0.2626	-0	0.249
Mof_C 	C 	0.7739	0.2939	-0	-0.605
Mof_C 	C 	0.1424	0.786	-0	-0.278
Mof_H 	H 	0.1233	0.8035	-0	0.118
Mof_C 	C 	0.1975	0.7374	-0	0.248
Mof_C 	C 	0.2261	0.7061	-0	-0.603
Mof_C 	C 	0.786	0.1424	-0	-0.278
Mof_H 	H 	0.8035	0.1233	-0	0.118
Mof_C 	C 	0.7374	0.1975	-0	0.248
Mof_C 	C 	0.7061	0.2261	-0	-0.603
Mof_C 	C 	0.214	0.8576	-0	-0.28
Mof_H 	H 	0.1965	0.8767	-0	0.12
Mof_C 	C 	0.2626	0.8025	-0	0.249
Mof_C 	C 	0.2939	0.7739	-0	-0.605
Mof_C 	C 	0.1424	0.214	-0	-0.277
Mof_H 	H 	0.1233	0.1965	-0	0.117
Mof_C 	C 	0.1975	0.2626	-0	0.248
Mof_C 	C 	0.2261	0.2939	-0	-0.603
Mof_C 	C 	0.8576	0.786	-0	-0.281
Mof_H 	H 	0.8767	0.8035	-0	0.121
Mof_C 	C 	0.8025	0.7374	-0	0.249
Mof_C 	C 	0.7739	0.7061	-0	-0.605
Mof_C 	C 	0.4517	0.0609	0.5	-0.384
Mof_H 	H 	0.4506	0.0349	0.5	0.122
Mof_C 	C 	0.4544	0.1342	0.5	0.295
Mof_C 	C 	0.454	0.1766	0.5	-0.951
Mof_C 	C 	0.2399	0.0483	0.5	-0.299
Mof_H 	H 	0.2139	0.049	0.5	0.111
Mof_C 	C 	0.3156	0.0458	0.5	0.284
Mof_C 	C 	0.3575	0.0478	0.5	-0.979
Mof_O 	O 	0.2987	0.2143	0.5	-0.416
Mof_O 	O 	0.2451	0.2129	0.5	-0.365
Mof_C 	C 	0.5483	0.9391	0.5	-0.395
Mof_H 	H 	0.5494	0.9651	0.5	0.13
Mof_C 	C 	0.5456	0.8658	0.5	0.299
Mof_C 	C 	0.546	0.8234	0.5	-0.955
Mof_C 	C 	0.7601	0.9517	0.5	-0.308
Mof_H 	H 	0.7861	0.951	0.5	0.118
Mof_C 	C 	0.6844	0.9542	0.5	0.302
Mof_C 	C 	0.6425	0.9522	0.5	-1.019
Mof_O 	O 	0.7013	0.7857	0.5	-0.416
Mof_O 	O 	0.7549	0.7871	0.5	-0.365
Mof_C 	C 	0.9391	0.4517	0.5	-0.395
Mof_H 	H 	0.9651	0.4506	0.5	0.13
Mof_C 	C 	0.8658	0.4544	0.5	0.299
Mof_C 	C 	0.8234	0.454	0.5	-0.956
Mof_C 	C 	0.9517	0.2399	0.5	-0.307
Mof_H 	H 	0.951	0.2139	0.5	0.117
Mof_C 	C 	0.9542	0.3156	0.5	0.302
Mof_C 	C 	0.9522	0.3575	0.5	-1.018
Mof_O 	O 	0.7857	0.2987	0.5	-0.416
Mof_O 	O 	0.7871	0.2451	0.5	-0.365
Mof_C 	C 	0.0609	0.5483	0.5	-0.384
Mof_H 	H 	0.0349	0.5494	0.5	0.122
Mof_C 	C 	0.1342	0.5456	0.5	0.295
Mof_C 	C 	0.1766	0.546	0.5	-0.951
Mof_C 	C 	0.0483	0.7601	0.5	-0.3
Mof_H 	H 	0.049	0.7861	0.5	0.112
Mof_C 	C 	0.0458	0.6844	0.5	0.285
Mof_C 	C 	0.0478	0.6425	0.5	-0.98
Mof_O 	O 	0.2143	0.7013	0.5	-0.416
Mof_O 	O 	0.2129	0.7549	0.5	-0.365
Mof_C 	C 	0.5483	0.0609	0.5	-0.384
Mof_H 	H 	0.5494	0.0349	0.5	0.122
Mof_C 	C 	0.5456	0.1342	0.5	0.295
Mof_C 	C 	0.546	0.1766	0.5	-0.951
Mof_C 	C 	0.7601	0.0483	0.5	-0.3
Mof_H 	H 	0.7861	0.049	0.5	0.112
Mof_C 	C 	0.6844	0.0458	0.5	0.285
Mof_C 	C 	0.6425	0.0478	0.5	-0.98
Mof_O 	O 	0.7013	0.2143	0.5	-0.416
Mof_O 	O 	0.7549	0.2129	0.5	-0.365
Mof_C 	C 	0.4517	0.9391	0.5	-0.395
Mof_H 	H 	0.4506	0.9651	0.5	0.13
Mof_C 	C 	0.4544	0.8658	0.5	0.299
Mof_C 	C 	0.454	0.8234	0.5	-0.956
Mof_C 	C 	0.2399	0.9517	0.5	-0.307
Mof_H 	H 	0.2139	0.951	0.5	0.117
Mof_C 	C 	0.3156	0.9542	0.5	0.302
Mof_C 	C 	0.3575	0.9522	0.5	-1.018
Mof_O 	O 	0.2987	0.7857	0.5	-0.416
Mof_O 	O 	0.2451	0.7871	0.5	-0.365
Mof_C 	C 	0.0609	0.4517	0.5	-0.384
Mof_H 	H 	0.0349	0.4506	0.5	0.122
Mof_C 	C 	0.1342	0.4544	0.5	0.295
Mof_C 	C 	0.1766	0.454	0.5	-0.951
Mof_C 	C 	0.0483	0.2399	0.5	-0.299
Mof_H 	H 	0.049	0.2139	0.5	0.111
Mof_C 	C 	0.0458	0.3156	0.5	0.284
Mof_C 	C 	0.0478	0.3575	0.5	-0.979
Mof_O 	O 	0.2143	0.2987	0.5	-0.416
Mof_O 	O 	0.2129	0.2451	0.5	-0.365
Mof_C 	C 	0.9391	0.5483	0.5	-0.395
Mof_H 	H 	0.9651	0.5494	0.5	0.13
Mof_C 	C 	0.8658	0.5456	0.5	0.299
Mof_C 	C 	0.8234	0.546	0.5	-0.955
Mof_C 	C 	0.9517	0.7601	0.5	-0.308
Mof_H 	H 	0.951	0.7861	0.5	0.118
Mof_C 	C 	0.9542	0.6844	0.5	0.302
Mof_C 	C 	0.9522	0.6425	0.5	-1.019
Mof_O 	O 	0.7857	0.7013	0.5	-0.416
Mof_O 	O 	0.7871	0.7549	0.5	-0.365
Mof_O 	O 	0.3139	0.3139	0.5	-0.55
Mof_O 	O 	0.6861	0.6861	0.5	-0.551
Mof_O 	O 	0.6861	0.3139	0.5	-0.551
Mof_O 	O 	0.3139	0.6861	0.5	-0.551
_end
