data_functionalizedCrystal
_audit_creation_method	'EQeq! by Chris Wilmer'
_symmetry_space_group_name_H-M	'P1'
_symmetry_Int_Tables_number	1
_symmetry_cell_setting	triclinic
loop_
_symmetry_equiv_pos_as_xyz
  x,y,z
_cell_length_a	18.8028
_cell_length_b	18.8028
_cell_length_c	51.883
_cell_angle_alpha	90
_cell_angle_beta	90
_cell_angle_gamma	120
loop_
_atom_site_label
_atom_site_type_symbol
_atom_site_fract_x
_atom_site_fract_y
_atom_site_fract_z
_atom_site_charge
Mof_Cu	Cu	0.04586	0.52293	0.0212	0.902
Mof_Cu	Cu	0.52293	0.47707	0.5212	0.902
Mof_Cu	Cu	0.88018	0.94009	0.25	0.905
Mof_Cu	Cu	0.47707	0.52293	0.4788	0.902
Mof_Cu	Cu	0.94009	0.88018	0.75	0.905
Mof_Cu	Cu	0.47707	0.52293	0.0212	0.902
Mof_Cu	Cu	0.95414	0.47707	0.9788	0.901
Mof_Cu	Cu	0.52293	0.04586	0.5212	0.901
Mof_Cu	Cu	0.52293	0.47707	0.9788	0.901
Mof_Cu	Cu	0.05991	0.11982	0.25	0.904
Mof_Cu	Cu	0.94009	0.05991	0.75	0.901
Mof_Cu	Cu	0.04586	0.52293	0.4788	0.901
Mof_Cu	Cu	0.47707	0.95414	0.4788	0.901
Mof_Cu	Cu	0.95414	0.47707	0.5212	0.901
Mof_Cu	Cu	0.47707	0.95414	0.0212	0.901
Mof_Cu	Cu	0.05991	0.94009	0.25	0.901
Mof_Cu	Cu	0.11982	0.05991	0.75	0.904
Mof_Cu	Cu	0.52293	0.04586	0.9788	0.901
Mof_H 	H 	0.0867	0.3853	0.9359	0.064
Mof_H 	H 	0.2352	0.7648	0.5031	0.061
Mof_H 	H 	0.9965	0.7939	0.8164	0.002
Mof_H 	H 	0.3853	0.2986	0.0641	0.063
Mof_H 	H 	0.2381	0.2615	0.8573	0.096
Mof_H 	H 	0.2061	0.2026	0.6836	0.012
Mof_H 	H 	0.2615	0.2381	0.1427	0.096
Mof_H 	H 	0.9766	0.7385	0.3573	0.099
Mof_H 	H 	0.7014	0.6147	0.4359	0.063
Mof_H 	H 	0.6147	0.7014	0.5641	0.063
Mof_H 	H 	0.7385	0.7619	0.8573	0.096
Mof_H 	H 	0.2381	0.9766	0.8573	0.101
Mof_H 	H 	0.9133	0.2986	0.0641	0.064
Mof_H 	H 	0.2352	0.7648	0.9969	0.061
Mof_H 	H 	0.7939	0.7974	0.3164	0.012
Mof_H 	H 	0.0867	0.3853	0.5641	0.064
Mof_H 	H 	0.2615	0.2381	0.3573	0.096
Mof_H 	H 	0.9965	0.2026	0.8164	0.004
Mof_H 	H 	0.6147	0.9133	0.5641	0.064
Mof_H 	H 	0.9133	0.2986	0.4359	0.064
Mof_H 	H 	0.2986	0.3853	0.9359	0.063
Mof_H 	H 	0.2986	0.9133	0.5641	0.064
Mof_H 	H 	0.7014	0.6147	0.0641	0.063
Mof_H 	H 	0.2986	0.9133	0.9359	0.064
Mof_H 	H 	0.9766	0.7385	0.1427	0.099
Mof_H 	H 	0.0867	0.7014	0.9359	0.064
Mof_H 	H 	0.3853	0.2986	0.4359	0.063
Mof_H 	H 	0.7619	0.7385	0.3573	0.096
Mof_H 	H 	0.0035	0.7974	0.3164	0.004
Mof_H 	H 	0.0035	0.2061	0.1836	0.002
Mof_H 	H 	0.2986	0.3853	0.5641	0.063
Mof_H 	H 	0.7939	0.7974	0.1836	0.012
Mof_H 	H 	0.9965	0.7939	0.6836	0.002
Mof_H 	H 	0.7385	0.9766	0.8573	0.099
Mof_H 	H 	0.7974	0.7939	0.8164	0.012
Mof_H 	H 	0.7974	0.7939	0.6836	0.012
Mof_H 	H 	0.9965	0.2026	0.6836	0.004
Mof_H 	H 	0.7648	0.2352	0.4969	0.061
Mof_H 	H 	0.6147	0.9133	0.9359	0.064
Mof_H 	H 	0.7939	0.9965	0.3164	0.002
Mof_H 	H 	0.0234	0.2615	0.6427	0.099
Mof_H 	H 	0.3853	0.0867	0.0641	0.064
Mof_H 	H 	0.5296	0.7648	0.9969	0.061
Mof_H 	H 	0.2381	0.2615	0.6427	0.096
Mof_H 	H 	0.2615	0.0234	0.1427	0.099
Mof_H 	H 	0.9133	0.6147	0.0641	0.064
Mof_H 	H 	0.4704	0.2352	0.0031	0.061
Mof_H 	H 	0.9766	0.2381	0.3573	0.101
Mof_H 	H 	0.2381	0.9766	0.6427	0.101
Mof_H 	H 	0.7619	0.7385	0.1427	0.096
Mof_H 	H 	0.2026	0.9965	0.3164	0.004
Mof_H 	H 	0.7648	0.5296	0.4969	0.061
Mof_H 	H 	0.2061	0.0035	0.8164	0.002
Mof_H 	H 	0.2026	0.2061	0.3164	0.012
Mof_H 	H 	0.7385	0.7619	0.6427	0.096
Mof_H 	H 	0.7619	0.0234	0.3573	0.101
Mof_H 	H 	0.7014	0.0867	0.0641	0.064
Mof_H 	H 	0.0234	0.7619	0.6427	0.101
Mof_H 	H 	0.6147	0.7014	0.9359	0.063
Mof_H 	H 	0.7014	0.0867	0.4359	0.064
Mof_H 	H 	0.7619	0.0234	0.1427	0.101
Mof_H 	H 	0.2026	0.2061	0.1836	0.012
Mof_H 	H 	0.2352	0.4704	0.5031	0.061
Mof_H 	H 	0.5296	0.7648	0.5031	0.061
Mof_H 	H 	0.7648	0.5296	0.0031	0.061
Mof_H 	H 	0.2026	0.9965	0.1836	0.004
Mof_H 	H 	0.9766	0.2381	0.1427	0.101
Mof_H 	H 	0.4704	0.2352	0.4969	0.061
Mof_H 	H 	0.9133	0.6147	0.4359	0.064
Mof_H 	H 	0.2615	0.0234	0.3573	0.099
Mof_H 	H 	0.3853	0.0867	0.4359	0.064
Mof_H 	H 	0.2352	0.4704	0.9969	0.061
Mof_H 	H 	0.0234	0.2615	0.8573	0.099
Mof_H 	H 	0.7974	0.0035	0.8164	0.004
Mof_H 	H 	0.7939	0.9965	0.1836	0.002
Mof_H 	H 	0.7648	0.2352	0.0031	0.061
Mof_H 	H 	0.2061	0.2026	0.8164	0.012
Mof_H 	H 	0.2061	0.0035	0.6836	0.002
Mof_H 	H 	0.0234	0.7619	0.8573	0.101
Mof_H 	H 	0.0035	0.2061	0.3164	0.002
Mof_H 	H 	0.7974	0.0035	0.6836	0.004
Mof_H 	H 	0.0867	0.7014	0.5641	0.064
Mof_H 	H 	0.0035	0.7974	0.1836	0.004
Mof_H 	H 	0.7385	0.9766	0.6427	0.099
Mof_C 	C 	0.0455	0.8306	0.82446	0.121
Mof_C 	C 	0.17005	0.3401	0.5939	0.011
Mof_C 	C 	0.848	0.5682	0.46832	-0.059
Mof_C 	C 	0.7388	0.1353	0.05595	-0.036
Mof_C 	C 	0.17005	0.3401	0.9061	0.011
Mof_C 	C 	0.2798	0.4318	0.53168	-0.059
Mof_C 	C 	0.8647	0.6035	0.05595	-0.036
Mof_C 	C 	0.3613	0.9069	0.98136	0.346
Mof_C 	C 	0.15455	0.3091	0.6139	-0.058
Mof_C 	C 	0.07815	0.92185	0.71379	0.445
Mof_C 	C 	0.848	0.2798	0.46832	-0.059
Mof_C 	C 	0.804	0.902	0.8116	-0.185
Mof_C 	C 	0.9384	0.7482	0.15099	-0.176
Mof_C 	C 	0.6909	0.84545	0.8861	-0.058
Mof_C 	C 	0.902	0.804	0.3116	-0.185
Mof_C 	C 	0.8098	0.7482	0.34901	-0.172
Mof_C 	C 	0.0616	0.8098	0.65099	-0.181
Mof_C 	C 	0.152	0.4318	0.53168	-0.059
Mof_C 	C 	0.1353	0.3965	0.55595	-0.036
Mof_C 	C 	0.7851	0.8306	0.82446	0.103
Mof_C 	C 	0.0931	0.6387	0.98136	0.346
Mof_C 	C 	0.7482	0.9384	0.84901	-0.176
Mof_C 	C 	0.6387	0.5456	0.48136	0.346
Mof_C 	C 	0.7482	0.8098	0.65099	-0.172
Mof_C 	C 	0.1353	0.3965	0.94405	-0.036
Mof_C 	C 	0.7388	0.6035	0.44405	-0.036
Mof_C 	C 	0.8647	0.2612	0.05595	-0.036
Mof_C 	C 	0.77595	0.5519	0.01956	0.004
Mof_C 	C 	0.3613	0.4544	0.98136	0.346
Mof_C 	C 	0.84545	0.15455	0.1139	-0.06
Mof_C 	C 	0.0931	0.4544	0.51864	0.346
Mof_C 	C 	0.17005	0.82995	0.5939	0.013
Mof_C 	C 	0.22405	0.77595	0.51956	0.004
Mof_C 	C 	0.82995	0.17005	0.4061	0.013
Mof_C 	C 	0.77595	0.22405	0.48044	0.004
Mof_C 	C 	0.4318	0.2798	0.46832	-0.059
Mof_C 	C 	0.3965	0.1353	0.05595	-0.036
Mof_C 	C 	0.1694	0.2149	0.67554	0.103
Mof_C 	C 	0.8437	0.92185	0.71379	0.442
Mof_C 	C 	0.84545	0.6909	0.3861	-0.058
Mof_C 	C 	0.2733	0.13665	0.1394	0.123
Mof_C 	C 	0.7482	0.9384	0.65099	-0.176
Mof_C 	C 	0.196	0.098	0.1884	-0.185
Mof_C 	C 	0.196	0.098	0.3116	-0.185
Mof_C 	C 	0.8647	0.6035	0.44405	-0.036
Mof_C 	C 	0.13665	0.86335	0.6394	0.129
Mof_C 	C 	0.2733	0.13665	0.3606	0.123
Mof_C 	C 	0.84545	0.6909	0.1139	-0.058
Mof_C 	C 	0.07815	0.92185	0.78621	0.445
Mof_C 	C 	0.0931	0.6387	0.51864	0.346
Mof_C 	C 	0.3965	0.1353	0.44405	-0.036
Mof_C 	C 	0.6035	0.7388	0.55595	-0.036
Mof_C 	C 	0.18885	0.81115	0.93169	0.014
Mof_C 	C 	0.1353	0.7388	0.55595	-0.036
Mof_C 	C 	0.22405	0.4481	0.51956	0.004
Mof_C 	C 	0.4318	0.2798	0.03168	-0.059
Mof_C 	C 	0.77595	0.22405	0.01956	0.004
Mof_C 	C 	0.22405	0.4481	0.98044	0.004
Mof_C 	C 	0.22405	0.77595	0.98044	0.004
Mof_C 	C 	0.5456	0.6387	0.98136	0.346
Mof_C 	C 	0.5456	0.9069	0.51864	0.346
Mof_C 	C 	0.152	0.7202	0.96832	-0.059
Mof_C 	C 	0.098	0.902	0.8116	-0.191
Mof_C 	C 	0.77595	0.5519	0.48044	0.004
Mof_C 	C 	0.5519	0.77595	0.98044	0.004
Mof_C 	C 	0.8647	0.2612	0.44405	-0.036
Mof_C 	C 	0.7388	0.6035	0.05595	-0.036
Mof_C 	C 	0.0455	0.2149	0.82446	0.115
Mof_C 	C 	0.6387	0.5456	0.01864	0.346
Mof_C 	C 	0.3613	0.4544	0.51864	0.346
Mof_C 	C 	0.0616	0.2518	0.84901	-0.176
Mof_C 	C 	0.18885	0.81115	0.56831	0.014
Mof_C 	C 	0.7851	0.9545	0.82446	0.115
Mof_C 	C 	0.8098	0.7482	0.15099	-0.172
Mof_C 	C 	0.902	0.804	0.1884	-0.185
Mof_C 	C 	0.9384	0.7482	0.34901	-0.176
Mof_C 	C 	0.1694	0.9545	0.82446	0.121
Mof_C 	C 	0.848	0.2798	0.03168	-0.059
Mof_C 	C 	0.1902	0.2518	0.65099	-0.172
Mof_C 	C 	0.2149	0.0455	0.17554	0.115
Mof_C 	C 	0.7388	0.1353	0.44405	-0.036
Mof_C 	C 	0.6035	0.8647	0.94405	-0.036
Mof_C 	C 	0.6599	0.82995	0.5939	0.011
Mof_C 	C 	0.848	0.5682	0.03168	-0.059
Mof_C 	C 	0.9069	0.3613	0.48136	0.346
Mof_C 	C 	0.9545	0.7851	0.32446	0.115
Mof_C 	C 	0.2612	0.8647	0.55595	-0.036
Mof_C 	C 	0.1563	0.07815	0.28621	0.442
Mof_C 	C 	0.92185	0.8437	0.21379	0.442
Mof_C 	C 	0.6223	0.81115	0.93169	0.015
Mof_C 	C 	0.2518	0.0616	0.34901	-0.176
Mof_C 	C 	0.2798	0.848	0.96832	-0.059
Mof_C 	C 	0.0931	0.4544	0.98136	0.346
Mof_C 	C 	0.3091	0.15455	0.1139	-0.058
Mof_C 	C 	0.8306	0.7851	0.32446	0.103
Mof_C 	C 	0.8098	0.0616	0.34901	-0.181
Mof_C 	C 	0.7267	0.86335	0.6394	0.123
Mof_C 	C 	0.82995	0.17005	0.0939	0.013
Mof_C 	C 	0.13665	0.86335	0.8606	0.129
Mof_C 	C 	0.81115	0.18885	0.06831	0.014
Mof_C 	C 	0.81115	0.6223	0.43169	0.015
Mof_C 	C 	0.7267	0.86335	0.8606	0.123
Mof_C 	C 	0.9384	0.1902	0.34901	-0.181
Mof_C 	C 	0.86335	0.13665	0.1394	0.129
Mof_C 	C 	0.07815	0.1563	0.78621	0.442
Mof_C 	C 	0.07815	0.1563	0.71379	0.442
Mof_C 	C 	0.2518	0.1902	0.15099	-0.172
Mof_C 	C 	0.4544	0.0931	0.01864	0.346
Mof_C 	C 	0.6387	0.0931	0.01864	0.346
Mof_C 	C 	0.3965	0.2612	0.44405	-0.036
Mof_C 	C 	0.4481	0.22405	0.48044	0.004
Mof_C 	C 	0.1694	0.2149	0.82446	0.103
Mof_C 	C 	0.0455	0.2149	0.67554	0.115
Mof_C 	C 	0.2798	0.4318	0.96832	-0.059
Mof_C 	C 	0.2149	0.1694	0.17554	0.103
Mof_C 	C 	0.9545	0.1694	0.32446	0.121
Mof_C 	C 	0.13665	0.2733	0.6394	0.123
Mof_C 	C 	0.3777	0.18885	0.43169	0.015
Mof_C 	C 	0.82995	0.6599	0.4061	0.011
Mof_C 	C 	0.1902	0.9384	0.84901	-0.181
Mof_C 	C 	0.7202	0.152	0.46832	-0.059
Mof_C 	C 	0.7202	0.5682	0.03168	-0.059
Mof_C 	C 	0.15455	0.84545	0.8861	-0.06
Mof_C 	C 	0.92185	0.07815	0.21379	0.445
Mof_C 	C 	0.4318	0.152	0.03168	-0.059
Mof_C 	C 	0.8437	0.92185	0.78621	0.442
Mof_C 	C 	0.2798	0.848	0.53168	-0.059
Mof_C 	C 	0.2612	0.3965	0.55595	-0.036
Mof_C 	C 	0.5682	0.7202	0.96832	-0.059
Mof_C 	C 	0.6909	0.84545	0.6139	-0.058
Mof_C 	C 	0.4544	0.3613	0.01864	0.346
Mof_C 	C 	0.6035	0.8647	0.55595	-0.036
Mof_C 	C 	0.15455	0.3091	0.8861	-0.058
Mof_C 	C 	0.3613	0.9069	0.51864	0.346
Mof_C 	C 	0.9069	0.5456	0.01864	0.346
Mof_C 	C 	0.86335	0.7267	0.3606	0.123
Mof_C 	C 	0.84545	0.15455	0.3861	-0.06
Mof_C 	C 	0.18885	0.3777	0.93169	0.015
Mof_C 	C 	0.8306	0.0455	0.17554	0.121
Mof_C 	C 	0.3401	0.17005	0.4061	0.011
Mof_C 	C 	0.902	0.098	0.3116	-0.191
Mof_C 	C 	0.098	0.196	0.6884	-0.185
Mof_C 	C 	0.0616	0.2518	0.65099	-0.176
Mof_C 	C 	0.13665	0.2733	0.8606	0.123
Mof_C 	C 	0.5682	0.7202	0.53168	-0.059
Mof_C 	C 	0.152	0.4318	0.96832	-0.059
Mof_C 	C 	0.1353	0.7388	0.94405	-0.036
Mof_C 	C 	0.1694	0.9545	0.67554	0.121
Mof_C 	C 	0.5456	0.6387	0.51864	0.346
Mof_C 	C 	0.902	0.098	0.1884	-0.191
Mof_C 	C 	0.3401	0.17005	0.0939	0.011
Mof_C 	C 	0.098	0.196	0.8116	-0.185
Mof_C 	C 	0.8306	0.0455	0.32446	0.121
Mof_C 	C 	0.7851	0.9545	0.67554	0.115
Mof_C 	C 	0.86335	0.7267	0.1394	0.123
Mof_C 	C 	0.5682	0.848	0.96832	-0.059
Mof_C 	C 	0.9069	0.5456	0.48136	0.346
Mof_C 	C 	0.4318	0.152	0.46832	-0.059
Mof_C 	C 	0.92185	0.07815	0.28621	0.445
Mof_C 	C 	0.3091	0.15455	0.3861	-0.058
Mof_C 	C 	0.5456	0.9069	0.98136	0.346
Mof_C 	C 	0.17005	0.82995	0.9061	0.013
Mof_C 	C 	0.5519	0.77595	0.51956	0.004
Mof_C 	C 	0.15455	0.84545	0.6139	-0.06
Mof_C 	C 	0.7202	0.152	0.03168	-0.059
Mof_C 	C 	0.82995	0.6599	0.0939	0.011
Mof_C 	C 	0.3777	0.18885	0.06831	0.015
Mof_C 	C 	0.7482	0.8098	0.84901	-0.172
Mof_C 	C 	0.2612	0.3965	0.94405	-0.036
Mof_C 	C 	0.9545	0.1694	0.17554	0.121
Mof_C 	C 	0.2149	0.1694	0.32446	0.103
Mof_C 	C 	0.4481	0.22405	0.01956	0.004
Mof_C 	C 	0.6223	0.81115	0.56831	0.015
Mof_C 	C 	0.6599	0.82995	0.9061	0.011
Mof_C 	C 	0.3965	0.2612	0.05595	-0.036
Mof_C 	C 	0.6387	0.0931	0.48136	0.346
Mof_C 	C 	0.7851	0.8306	0.67554	0.103
Mof_C 	C 	0.4544	0.0931	0.48136	0.346
Mof_C 	C 	0.2518	0.1902	0.34901	-0.172
Mof_C 	C 	0.86335	0.13665	0.3606	0.129
Mof_C 	C 	0.9384	0.1902	0.15099	-0.181
Mof_C 	C 	0.81115	0.18885	0.43169	0.014
Mof_C 	C 	0.4544	0.3613	0.48136	0.346
Mof_C 	C 	0.81115	0.6223	0.06831	0.015
Mof_C 	C 	0.804	0.902	0.6884	-0.185
Mof_C 	C 	0.7202	0.5682	0.46832	-0.059
Mof_C 	C 	0.2612	0.8647	0.94405	-0.036
Mof_C 	C 	0.8098	0.0616	0.15099	-0.181
Mof_C 	C 	0.8306	0.7851	0.17554	0.103
Mof_C 	C 	0.152	0.7202	0.53168	-0.059
Mof_C 	C 	0.5682	0.848	0.53168	-0.059
Mof_C 	C 	0.1902	0.9384	0.65099	-0.181
Mof_C 	C 	0.098	0.902	0.6884	-0.191
Mof_C 	C 	0.1902	0.2518	0.84901	-0.172
Mof_C 	C 	0.0616	0.8098	0.84901	-0.181
Mof_C 	C 	0.0455	0.8306	0.67554	0.121
Mof_C 	C 	0.2518	0.0616	0.15099	-0.176
Mof_C 	C 	0.18885	0.3777	0.56831	0.015
Mof_C 	C 	0.2149	0.0455	0.32446	0.115
Mof_C 	C 	0.92185	0.8437	0.28621	0.442
Mof_C 	C 	0.1563	0.07815	0.21379	0.442
Mof_C 	C 	0.9545	0.7851	0.17554	0.115
Mof_C 	C 	0.9069	0.3613	0.01864	0.346
Mof_C 	C 	0.6035	0.7388	0.94405	-0.036
Mof_O 	O 	0.4832	0.3718	0.50332	-0.406
Mof_O 	O 	0.5896	0.5571	0.03258	-0.401
Mof_O 	O 	0.873	0.8623	0.22288	-0.434
Mof_O 	O 	0.873	0.0107	0.27712	-0.431
Mof_O 	O 	0.5896	0.0325	0.46742	-0.4
Mof_O 	O 	0.4429	0.4104	0.46742	-0.401
Mof_O 	O 	0.9893	0.8623	0.22288	-0.432
Mof_O 	O 	0.0107	0.1377	0.72288	-0.432
Mof_O 	O 	0.3718	0.8886	0.00332	-0.407
Mof_O 	O 	0.1377	0.127	0.22288	-0.434
Mof_O 	O 	0.8623	0.873	0.72288	-0.434
Mof_O 	O 	0.4832	0.1114	0.99668	-0.407
Mof_O 	O 	0.0325	0.4429	0.96742	-0.4
Mof_O 	O 	0.9675	0.4104	0.46742	-0.4
Mof_O 	O 	0.9675	0.4104	0.03258	-0.4
Mof_O 	O 	0.3718	0.8886	0.49668	-0.407
Mof_O 	O 	0.5571	0.5896	0.96742	-0.401
Mof_O 	O 	0.5571	0.9675	0.96742	-0.4
Mof_O 	O 	0.8886	0.3718	0.50332	-0.407
Mof_O 	O 	0.8623	0.9893	0.72288	-0.432
Mof_O 	O 	0.9893	0.8623	0.27712	-0.432
Mof_O 	O 	0.4429	0.4104	0.03258	-0.401
Mof_O 	O 	0.5896	0.0325	0.03258	-0.4
Mof_O 	O 	0.1377	0.127	0.27712	-0.434
Mof_O 	O 	0.873	0.0107	0.22288	-0.431
Mof_O 	O 	0.873	0.8623	0.27712	-0.434
Mof_O 	O 	0.127	0.1377	0.72288	-0.434
Mof_O 	O 	0.5896	0.5571	0.46742	-0.401
Mof_O 	O 	0.0325	0.4429	0.53258	-0.4
Mof_O 	O 	0.8623	0.873	0.77712	-0.434
Mof_O 	O 	0.9893	0.127	0.27712	-0.431
Mof_O 	O 	0.5168	0.6282	0.00332	-0.406
Mof_O 	O 	0.1114	0.4832	0.49668	-0.407
Mof_O 	O 	0.6282	0.1114	0.50332	-0.407
Mof_O 	O 	0.4104	0.9675	0.53258	-0.4
Mof_O 	O 	0.8886	0.5168	0.50332	-0.407
Mof_O 	O 	0.1377	0.0107	0.27712	-0.432
Mof_O 	O 	0.8886	0.5168	0.99668	-0.407
Mof_O 	O 	0.4429	0.0325	0.46742	-0.4
Mof_O 	O 	0.127	0.9893	0.72288	-0.431
Mof_O 	O 	0.0325	0.5896	0.96742	-0.4
Mof_O 	O 	0.9675	0.5571	0.03258	-0.4
Mof_O 	O 	0.4104	0.4429	0.96742	-0.401
Mof_O 	O 	0.4832	0.1114	0.50332	-0.407
Mof_O 	O 	0.1114	0.6282	0.49668	-0.407
Mof_O 	O 	0.5168	0.8886	0.00332	-0.407
Mof_O 	O 	0.5168	0.8886	0.49668	-0.407
Mof_O 	O 	0.5571	0.9675	0.53258	-0.4
Mof_O 	O 	0.1114	0.6282	0.00332	-0.407
Mof_O 	O 	0.5571	0.5896	0.53258	-0.401
Mof_O 	O 	0.3718	0.4832	0.49668	-0.406
Mof_O 	O 	0.9675	0.5571	0.46742	-0.4
Mof_O 	O 	0.127	0.9893	0.77712	-0.431
Mof_O 	O 	0.3718	0.4832	0.00332	-0.406
Mof_O 	O 	0.4429	0.0325	0.03258	-0.4
Mof_O 	O 	0.8623	0.9893	0.77712	-0.432
Mof_O 	O 	0.127	0.1377	0.77712	-0.434
Mof_O 	O 	0.8886	0.3718	0.99668	-0.407
Mof_O 	O 	0.1377	0.0107	0.22288	-0.432
Mof_O 	O 	0.6282	0.1114	0.99668	-0.407
Mof_O 	O 	0.0107	0.873	0.72288	-0.431
Mof_O 	O 	0.0325	0.5896	0.53258	-0.4
Mof_O 	O 	0.6282	0.5168	0.50332	-0.406
Mof_O 	O 	0.0107	0.1377	0.77712	-0.432
Mof_O 	O 	0.0107	0.873	0.77712	-0.431
Mof_O 	O 	0.1114	0.4832	0.00332	-0.407
Mof_O 	O 	0.4104	0.4429	0.53258	-0.401
Mof_O 	O 	0.5168	0.6282	0.49668	-0.406
Mof_O 	O 	0.9893	0.127	0.22288	-0.431
Mof_O 	O 	0.4832	0.3718	0.99668	-0.406
Mof_O 	O 	0.4104	0.9675	0.96742	-0.4
Mof_O 	O 	0.6282	0.5168	0.99668	-0.406
_end
