data_functionalizedCrystal
_audit_creation_method	'EQeq! by Chris Wilmer'
_symmetry_space_group_name_H-M	'P1'
_symmetry_Int_Tables_number	1
_symmetry_cell_setting	triclinic
loop_
_symmetry_equiv_pos_as_xyz
  x,y,z
_cell_length_a	25.381
_cell_length_b	25.381
_cell_length_c	25.381
_cell_angle_alpha	90
_cell_angle_beta	90
_cell_angle_gamma	90
loop_
_atom_site_label
_atom_site_type_symbol
_atom_site_fract_x
_atom_site_fract_y
_atom_site_fract_z
_atom_site_charge
Mof_N 	N 	0.6378	0.937	0.6964	-0.22
Mof_N 	N 	0.5623	0.892	0.7164	-0.193
Mof_H 	H 	0.5395	0.868	0.7091	0.094
Mof_N 	N 	0.5505	0.9281	0.7525	-0.183
Mof_C 	C 	0.6846	0.9379	0.6741	0.102
Mof_H 	H 	0.7053	0.9677	0.6785	-0.03
Mof_C 	C 	0.7053	0.8954	0.6435	-0.195
Mof_H 	H 	0.7371	0.8983	0.6256	0.087
Mof_C 	C 	0.6758	0.8502	0.6421	0.125
Mof_H 	H 	0.689	0.8203	0.6256	-0.034
Mof_C 	C 	0.6272	0.8492	0.6649	-0.239
Mof_H 	H 	0.6071	0.8188	0.662	0.096
Mof_C 	C 	0.6068	0.8918	0.6921	0.192
Mof_C 	C 	0.5026	0.9264	0.7692	0.29
Mof_C 	C 	0.4601	0.892	0.7465	-0.763
Mof_H 	H 	0.4747	0.8703	0.7191	0.239
Mof_H 	H 	0.4326	0.9137	0.7321	0.246
Mof_H 	H 	0.4458	0.87	0.7737	0.247
Mof_C 	C 	0.4875	0.96	0.8145	-0.243
Mof_C 	C 	0.4356	0.9773	0.8226	0.172
Mof_H 	H 	0.41	0.9674	0.7984	-0.048
Mof_C 	C 	0.4202	0.0087	0.8652	-0.316
Mof_H 	H 	0.3851	0.0169	0.8713	0.122
Mof_C 	C 	0.4573	0.0258	0.8957	0.239
Mof_C 	C 	0.5105	0.0131	0.889	-0.314
Mof_H 	H 	0.5362	0.0258	0.9118	0.138
Mof_C 	C 	0.5231	0.9818	0.8482	0.212
Mof_H 	H 	0.5586	0.9746	0.8425	-0.066
Mof_N 	N 	0.1378	0.437	0.1964	-0.222
Mof_N 	N 	0.0623	0.392	0.2164	-0.193
Mof_H 	H 	0.0395	0.368	0.2091	0.094
Mof_N 	N 	0.0505	0.4281	0.2525	-0.177
Mof_C 	C 	0.1846	0.4379	0.1741	0.101
Mof_H 	H 	0.2053	0.4677	0.1785	-0.033
Mof_C 	C 	0.2053	0.3954	0.1435	-0.195
Mof_H 	H 	0.2371	0.3983	0.1256	0.086
Mof_C 	C 	0.1758	0.3502	0.1421	0.125
Mof_H 	H 	0.189	0.3203	0.1256	-0.034
Mof_C 	C 	0.1272	0.3492	0.1649	-0.238
Mof_H 	H 	0.1071	0.3188	0.162	0.096
Mof_C 	C 	0.1068	0.3918	0.1921	0.191
Mof_C 	C 	0.0026	0.4264	0.2692	0.249
Mof_C 	C 	0.9601	0.392	0.2465	-0.709
Mof_H 	H 	0.9747	0.3703	0.2191	0.227
Mof_H 	H 	0.9326	0.4137	0.2321	0.231
Mof_H 	H 	0.9458	0.37	0.2737	0.233
Mof_C 	C 	0.9875	0.46	0.3145	-0.185
Mof_C 	C 	0.9356	0.4773	0.3226	0.12
Mof_H 	H 	0.91	0.4674	0.2984	-0.03
Mof_C 	C 	0.9202	0.5087	0.3652	-0.266
Mof_H 	H 	0.8851	0.5169	0.3713	0.109
Mof_C 	C 	0.9573	0.5258	0.3957	0.215
Mof_C 	C 	0.0105	0.5131	0.389	-0.268
Mof_H 	H 	0.0362	0.5258	0.4118	0.121
Mof_C 	C 	0.0231	0.4818	0.3482	0.144
Mof_H 	H 	0.0586	0.4746	0.3425	-0.048
Mof_N 	N 	0.8622	0.063	0.1964	-0.222
Mof_N 	N 	0.9377	0.108	0.2164	-0.193
Mof_H 	H 	0.9605	0.132	0.2091	0.097
Mof_N 	N 	0.9495	0.0719	0.2525	-0.184
Mof_C 	C 	0.8154	0.0621	0.1741	0.101
Mof_H 	H 	0.7947	0.0323	0.1785	-0.034
Mof_C 	C 	0.7947	0.1046	0.1435	-0.196
Mof_H 	H 	0.7629	0.1017	0.1256	0.086
Mof_C 	C 	0.8242	0.1498	0.1421	0.126
Mof_H 	H 	0.811	0.1797	0.1256	-0.035
Mof_C 	C 	0.8728	0.1508	0.1649	-0.239
Mof_H 	H 	0.8929	0.1812	0.162	0.097
Mof_C 	C 	0.8932	0.1082	0.1921	0.192
Mof_C 	C 	0.9974	0.0736	0.2692	0.291
Mof_C 	C 	0.0399	0.108	0.2465	-0.766
Mof_H 	H 	0.0253	0.1297	0.2191	0.238
Mof_H 	H 	0.0674	0.0863	0.2321	0.245
Mof_H 	H 	0.0542	0.13	0.2737	0.247
Mof_C 	C 	0.0125	0.04	0.3145	-0.22
Mof_C 	C 	0.0644	0.0227	0.3226	0.114
Mof_H 	H 	0.09	0.0326	0.2984	-0.032
Mof_C 	C 	0.0798	0.9913	0.3652	-0.248
Mof_H 	H 	0.1149	0.9831	0.3713	0.104
Mof_C 	C 	0.0427	0.9742	0.3957	0.192
Mof_C 	C 	0.9895	0.9869	0.389	-0.237
Mof_H 	H 	0.9638	0.9742	0.4118	0.117
Mof_C 	C 	0.9769	0.0182	0.3482	0.154
Mof_H 	H 	0.9414	0.0254	0.3425	-0.052
Mof_N 	N 	0.3622	0.563	0.6964	-0.222
Mof_N 	N 	0.4377	0.608	0.7164	-0.193
Mof_H 	H 	0.4605	0.632	0.7091	0.096
Mof_N 	N 	0.4495	0.5719	0.7525	-0.182
Mof_C 	C 	0.3154	0.5621	0.6741	0.102
Mof_H 	H 	0.2947	0.5323	0.6785	-0.032
Mof_C 	C 	0.2947	0.6046	0.6435	-0.195
Mof_H 	H 	0.2629	0.6017	0.6256	0.087
Mof_C 	C 	0.3242	0.6498	0.6421	0.126
Mof_H 	H 	0.311	0.6797	0.6256	-0.034
Mof_C 	C 	0.3728	0.6508	0.6649	-0.238
Mof_H 	H 	0.3929	0.6812	0.662	0.097
Mof_C 	C 	0.3932	0.6082	0.6921	0.192
Mof_C 	C 	0.4974	0.5736	0.7692	0.277
Mof_C 	C 	0.5399	0.608	0.7465	-0.747
Mof_H 	H 	0.5253	0.6297	0.7191	0.235
Mof_H 	H 	0.5674	0.5863	0.7321	0.241
Mof_H 	H 	0.5542	0.63	0.7737	0.243
Mof_C 	C 	0.5125	0.54	0.8145	-0.216
Mof_C 	C 	0.5644	0.5227	0.8226	0.136
Mof_H 	H 	0.59	0.5326	0.7984	-0.036
Mof_C 	C 	0.5798	0.4913	0.8652	-0.276
Mof_H 	H 	0.6149	0.4831	0.8713	0.112
Mof_C 	C 	0.5427	0.4742	0.8957	0.216
Mof_C 	C 	0.4895	0.4869	0.889	-0.273
Mof_H 	H 	0.4638	0.4742	0.9118	0.126
Mof_C 	C 	0.4769	0.5182	0.8482	0.171
Mof_H 	H 	0.4414	0.5254	0.8425	-0.056
Mof_N 	N 	0.3622	0.437	0.8036	-0.222
Mof_N 	N 	0.4377	0.392	0.7836	-0.193
Mof_H 	H 	0.4605	0.368	0.7909	0.096
Mof_N 	N 	0.4495	0.4281	0.7475	-0.182
Mof_C 	C 	0.3154	0.4379	0.8259	0.102
Mof_H 	H 	0.2947	0.4677	0.8215	-0.032
Mof_C 	C 	0.2947	0.3954	0.8565	-0.195
Mof_H 	H 	0.2629	0.3983	0.8744	0.088
Mof_C 	C 	0.3242	0.3502	0.8579	0.126
Mof_H 	H 	0.311	0.3203	0.8744	-0.033
Mof_C 	C 	0.3728	0.3492	0.8351	-0.238
Mof_H 	H 	0.3929	0.3188	0.838	0.097
Mof_C 	C 	0.3932	0.3918	0.8079	0.192
Mof_C 	C 	0.4974	0.4264	0.7308	0.277
Mof_C 	C 	0.5399	0.392	0.7535	-0.747
Mof_H 	H 	0.5253	0.3703	0.7809	0.235
Mof_H 	H 	0.5674	0.4137	0.7679	0.241
Mof_H 	H 	0.5542	0.37	0.7263	0.243
Mof_C 	C 	0.5125	0.46	0.6855	-0.217
Mof_C 	C 	0.5644	0.4773	0.6774	0.136
Mof_H 	H 	0.59	0.4674	0.7016	-0.036
Mof_C 	C 	0.5798	0.5087	0.6348	-0.277
Mof_H 	H 	0.6149	0.5169	0.6287	0.112
Mof_C 	C 	0.5427	0.5258	0.6043	0.216
Mof_C 	C 	0.4895	0.5131	0.611	-0.274
Mof_H 	H 	0.4638	0.5258	0.5882	0.125
Mof_C 	C 	0.4769	0.4818	0.6518	0.171
Mof_H 	H 	0.4414	0.4746	0.6575	-0.057
Mof_N 	N 	0.8622	0.937	0.3036	-0.22
Mof_N 	N 	0.9377	0.892	0.2836	-0.191
Mof_H 	H 	0.9605	0.868	0.2909	0.097
Mof_N 	N 	0.9495	0.9281	0.2475	-0.186
Mof_C 	C 	0.8154	0.9379	0.3259	0.103
Mof_H 	H 	0.7947	0.9677	0.3215	-0.029
Mof_C 	C 	0.7947	0.8954	0.3565	-0.194
Mof_H 	H 	0.7629	0.8983	0.3744	0.088
Mof_C 	C 	0.8242	0.8502	0.3579	0.127
Mof_H 	H 	0.811	0.8203	0.3744	-0.034
Mof_C 	C 	0.8728	0.8492	0.3351	-0.239
Mof_H 	H 	0.8929	0.8188	0.338	0.098
Mof_C 	C 	0.8932	0.8918	0.3079	0.193
Mof_C 	C 	0.9974	0.9264	0.2308	0.319
Mof_C 	C 	0.0399	0.892	0.2535	-0.798
Mof_H 	H 	0.0253	0.8703	0.2809	0.247
Mof_H 	H 	0.0674	0.9137	0.2679	0.257
Mof_H 	H 	0.0542	0.87	0.2263	0.257
Mof_C 	C 	0.0125	0.96	0.1855	-0.275
Mof_C 	C 	0.0644	0.9773	0.1774	0.188
Mof_H 	H 	0.09	0.9674	0.2016	-0.054
Mof_C 	C 	0.0798	0.0087	0.1348	-0.327
Mof_H 	H 	0.1149	0.0169	0.1287	0.127
Mof_C 	C 	0.0427	0.0258	0.1043	0.242
Mof_C 	C 	0.9895	0.0131	0.111	-0.321
Mof_H 	H 	0.9638	0.0258	0.0882	0.141
Mof_C 	C 	0.9769	0.9818	0.1518	0.239
Mof_H 	H 	0.9414	0.9746	0.1575	-0.076
Mof_N 	N 	0.1378	0.563	0.3036	-0.222
Mof_N 	N 	0.0623	0.608	0.2836	-0.193
Mof_H 	H 	0.0395	0.632	0.2909	0.094
Mof_N 	N 	0.0505	0.5719	0.2475	-0.177
Mof_C 	C 	0.1846	0.5621	0.3259	0.101
Mof_H 	H 	0.2053	0.5323	0.3215	-0.032
Mof_C 	C 	0.2053	0.6046	0.3565	-0.195
Mof_H 	H 	0.2371	0.6017	0.3744	0.087
Mof_C 	C 	0.1758	0.6498	0.3579	0.125
Mof_H 	H 	0.189	0.6797	0.3744	-0.033
Mof_C 	C 	0.1272	0.6508	0.3351	-0.238
Mof_H 	H 	0.1071	0.6812	0.338	0.096
Mof_C 	C 	0.1068	0.6082	0.3079	0.19
Mof_C 	C 	0.0026	0.5736	0.2308	0.249
Mof_C 	C 	0.9601	0.608	0.2535	-0.709
Mof_H 	H 	0.9747	0.6297	0.2809	0.227
Mof_H 	H 	0.9326	0.5863	0.2679	0.231
Mof_H 	H 	0.9458	0.63	0.2263	0.233
Mof_C 	C 	0.9875	0.54	0.1855	-0.185
Mof_C 	C 	0.9356	0.5227	0.1774	0.12
Mof_H 	H 	0.91	0.5326	0.2016	-0.03
Mof_C 	C 	0.9202	0.4913	0.1348	-0.267
Mof_H 	H 	0.8851	0.4831	0.1287	0.109
Mof_C 	C 	0.9573	0.4742	0.1043	0.215
Mof_C 	C 	0.0105	0.4869	0.111	-0.268
Mof_H 	H 	0.0362	0.4742	0.0882	0.12
Mof_C 	C 	0.0231	0.5182	0.1518	0.144
Mof_H 	H 	0.0586	0.5254	0.1575	-0.048
Mof_N 	N 	0.6378	0.063	0.8036	-0.222
Mof_N 	N 	0.5623	0.108	0.7836	-0.193
Mof_H 	H 	0.5395	0.132	0.7909	0.096
Mof_N 	N 	0.5505	0.0719	0.7475	-0.179
Mof_C 	C 	0.6846	0.0621	0.8259	0.102
Mof_H 	H 	0.7053	0.0323	0.8215	-0.032
Mof_C 	C 	0.7053	0.1046	0.8565	-0.195
Mof_H 	H 	0.7371	0.1017	0.8744	0.088
Mof_C 	C 	0.6758	0.1498	0.8579	0.126
Mof_H 	H 	0.689	0.1797	0.8744	-0.033
Mof_C 	C 	0.6272	0.1508	0.8351	-0.238
Mof_H 	H 	0.6071	0.1812	0.838	0.097
Mof_C 	C 	0.6068	0.1082	0.8079	0.191
Mof_C 	C 	0.5026	0.0736	0.7308	0.263
Mof_C 	C 	0.4601	0.108	0.7535	-0.731
Mof_H 	H 	0.4747	0.1297	0.7809	0.231
Mof_H 	H 	0.4326	0.0863	0.7679	0.235
Mof_H 	H 	0.4458	0.13	0.7263	0.238
Mof_C 	C 	0.4875	0.04	0.6855	-0.189
Mof_C 	C 	0.4356	0.0227	0.6774	0.098
Mof_H 	H 	0.41	0.0326	0.7016	-0.025
Mof_C 	C 	0.4202	0.9913	0.6348	-0.237
Mof_H 	H 	0.3851	0.9831	0.6287	0.101
Mof_C 	C 	0.4573	0.9742	0.6043	0.191
Mof_C 	C 	0.5105	0.9869	0.611	-0.232
Mof_H 	H 	0.5362	0.9742	0.5882	0.113
Mof_C 	C 	0.5231	0.0182	0.6518	0.128
Mof_H 	H 	0.5586	0.0254	0.6575	-0.044
Mof_N 	N 	0.6964	0.6378	0.937	-0.219
Mof_N 	N 	0.7164	0.5623	0.892	-0.192
Mof_H 	H 	0.7091	0.5395	0.868	0.095
Mof_N 	N 	0.7525	0.5505	0.9281	-0.182
Mof_C 	C 	0.6741	0.6846	0.9379	0.103
Mof_H 	H 	0.6785	0.7053	0.9677	-0.029
Mof_C 	C 	0.6435	0.7053	0.8954	-0.194
Mof_H 	H 	0.6256	0.7371	0.8983	0.088
Mof_C 	C 	0.6421	0.6758	0.8502	0.126
Mof_H 	H 	0.6256	0.689	0.8203	-0.033
Mof_C 	C 	0.6649	0.6272	0.8492	-0.238
Mof_H 	H 	0.662	0.6071	0.8188	0.097
Mof_C 	C 	0.6921	0.6068	0.8918	0.193
Mof_C 	C 	0.7692	0.5026	0.9264	0.291
Mof_C 	C 	0.7465	0.4601	0.892	-0.762
Mof_H 	H 	0.7191	0.4747	0.8703	0.24
Mof_H 	H 	0.7321	0.4326	0.9137	0.247
Mof_H 	H 	0.7737	0.4458	0.87	0.248
Mof_C 	C 	0.8145	0.4875	0.96	-0.242
Mof_C 	C 	0.8226	0.4356	0.9773	0.173
Mof_H 	H 	0.7984	0.41	0.9674	-0.047
Mof_C 	C 	0.8652	0.4202	0.0087	-0.315
Mof_H 	H 	0.8713	0.3851	0.0169	0.123
Mof_C 	C 	0.8957	0.4573	0.0258	0.24
Mof_C 	C 	0.889	0.5105	0.0131	-0.314
Mof_H 	H 	0.9118	0.5362	0.0258	0.138
Mof_C 	C 	0.8482	0.5231	0.9818	0.212
Mof_H 	H 	0.8425	0.5586	0.9746	-0.066
Mof_N 	N 	0.1964	0.1378	0.437	-0.222
Mof_N 	N 	0.2164	0.0623	0.392	-0.193
Mof_H 	H 	0.2091	0.0395	0.368	0.094
Mof_N 	N 	0.2525	0.0505	0.4281	-0.177
Mof_C 	C 	0.1741	0.1846	0.4379	0.101
Mof_H 	H 	0.1785	0.2053	0.4677	-0.033
Mof_C 	C 	0.1435	0.2053	0.3954	-0.195
Mof_H 	H 	0.1256	0.2371	0.3983	0.086
Mof_C 	C 	0.1421	0.1758	0.3502	0.125
Mof_H 	H 	0.1256	0.189	0.3203	-0.034
Mof_C 	C 	0.1649	0.1272	0.3492	-0.238
Mof_H 	H 	0.162	0.1071	0.3188	0.096
Mof_C 	C 	0.1921	0.1068	0.3918	0.191
Mof_C 	C 	0.2692	0.0026	0.4264	0.249
Mof_C 	C 	0.2465	0.9601	0.392	-0.709
Mof_H 	H 	0.2191	0.9747	0.3703	0.227
Mof_H 	H 	0.2321	0.9326	0.4137	0.231
Mof_H 	H 	0.2737	0.9458	0.37	0.233
Mof_C 	C 	0.3145	0.9875	0.46	-0.185
Mof_C 	C 	0.3226	0.9356	0.4773	0.12
Mof_H 	H 	0.2984	0.91	0.4674	-0.03
Mof_C 	C 	0.3652	0.9202	0.5087	-0.266
Mof_H 	H 	0.3713	0.8851	0.5169	0.109
Mof_C 	C 	0.3957	0.9573	0.5258	0.215
Mof_C 	C 	0.389	0.0105	0.5131	-0.268
Mof_H 	H 	0.4118	0.0362	0.5258	0.121
Mof_C 	C 	0.3482	0.0231	0.4818	0.144
Mof_H 	H 	0.3425	0.0586	0.4746	-0.048
Mof_N 	N 	0.1964	0.8622	0.063	-0.222
Mof_N 	N 	0.2164	0.9377	0.108	-0.193
Mof_H 	H 	0.2091	0.9605	0.132	0.097
Mof_N 	N 	0.2525	0.9495	0.0719	-0.184
Mof_C 	C 	0.1741	0.8154	0.0621	0.101
Mof_H 	H 	0.1785	0.7947	0.0323	-0.034
Mof_C 	C 	0.1435	0.7947	0.1046	-0.196
Mof_H 	H 	0.1256	0.7629	0.1017	0.086
Mof_C 	C 	0.1421	0.8242	0.1498	0.126
Mof_H 	H 	0.1256	0.811	0.1797	-0.035
Mof_C 	C 	0.1649	0.8728	0.1508	-0.239
Mof_H 	H 	0.162	0.8929	0.1812	0.097
Mof_C 	C 	0.1921	0.8932	0.1082	0.192
Mof_C 	C 	0.2692	0.9974	0.0736	0.291
Mof_C 	C 	0.2465	0.0399	0.108	-0.766
Mof_H 	H 	0.2191	0.0253	0.1297	0.238
Mof_H 	H 	0.2321	0.0674	0.0863	0.245
Mof_H 	H 	0.2737	0.0542	0.13	0.247
Mof_C 	C 	0.3145	0.0125	0.04	-0.22
Mof_C 	C 	0.3226	0.0644	0.0227	0.114
Mof_H 	H 	0.2984	0.09	0.0326	-0.032
Mof_C 	C 	0.3652	0.0798	0.9913	-0.248
Mof_H 	H 	0.3713	0.1149	0.9831	0.104
Mof_C 	C 	0.3957	0.0427	0.9742	0.192
Mof_C 	C 	0.389	0.9895	0.9869	-0.237
Mof_H 	H 	0.4118	0.9638	0.9742	0.117
Mof_C 	C 	0.3482	0.9769	0.0182	0.154
Mof_H 	H 	0.3425	0.9414	0.0254	-0.052
Mof_N 	N 	0.6964	0.3622	0.563	-0.222
Mof_N 	N 	0.7164	0.4377	0.608	-0.193
Mof_H 	H 	0.7091	0.4605	0.632	0.096
Mof_N 	N 	0.7525	0.4495	0.5719	-0.182
Mof_C 	C 	0.6741	0.3154	0.5621	0.102
Mof_H 	H 	0.6785	0.2947	0.5323	-0.032
Mof_C 	C 	0.6435	0.2947	0.6046	-0.195
Mof_H 	H 	0.6256	0.2629	0.6017	0.087
Mof_C 	C 	0.6421	0.3242	0.6498	0.126
Mof_H 	H 	0.6256	0.311	0.6797	-0.034
Mof_C 	C 	0.6649	0.3728	0.6508	-0.238
Mof_H 	H 	0.662	0.3929	0.6812	0.097
Mof_C 	C 	0.6921	0.3932	0.6082	0.192
Mof_C 	C 	0.7692	0.4974	0.5736	0.277
Mof_C 	C 	0.7465	0.5399	0.608	-0.747
Mof_H 	H 	0.7191	0.5253	0.6297	0.235
Mof_H 	H 	0.7321	0.5674	0.5863	0.241
Mof_H 	H 	0.7737	0.5542	0.63	0.243
Mof_C 	C 	0.8145	0.5125	0.54	-0.216
Mof_C 	C 	0.8226	0.5644	0.5227	0.136
Mof_H 	H 	0.7984	0.59	0.5326	-0.036
Mof_C 	C 	0.8652	0.5798	0.4913	-0.276
Mof_H 	H 	0.8713	0.6149	0.4831	0.112
Mof_C 	C 	0.8957	0.5427	0.4742	0.216
Mof_C 	C 	0.889	0.4895	0.4869	-0.273
Mof_H 	H 	0.9118	0.4638	0.4742	0.126
Mof_C 	C 	0.8482	0.4769	0.5182	0.171
Mof_H 	H 	0.8425	0.4414	0.5254	-0.056
Mof_N 	N 	0.8036	0.3622	0.437	-0.222
Mof_N 	N 	0.7836	0.4377	0.392	-0.193
Mof_H 	H 	0.7909	0.4605	0.368	0.096
Mof_N 	N 	0.7475	0.4495	0.4281	-0.182
Mof_C 	C 	0.8259	0.3154	0.4379	0.102
Mof_H 	H 	0.8215	0.2947	0.4677	-0.032
Mof_C 	C 	0.8565	0.2947	0.3954	-0.195
Mof_H 	H 	0.8744	0.2629	0.3983	0.088
Mof_C 	C 	0.8579	0.3242	0.3502	0.126
Mof_H 	H 	0.8744	0.311	0.3203	-0.033
Mof_C 	C 	0.8351	0.3728	0.3492	-0.238
Mof_H 	H 	0.838	0.3929	0.3188	0.097
Mof_C 	C 	0.8079	0.3932	0.3918	0.192
Mof_C 	C 	0.7308	0.4974	0.4264	0.277
Mof_C 	C 	0.7535	0.5399	0.392	-0.747
Mof_H 	H 	0.7809	0.5253	0.3703	0.235
Mof_H 	H 	0.7679	0.5674	0.4137	0.241
Mof_H 	H 	0.7263	0.5542	0.37	0.243
Mof_C 	C 	0.6855	0.5125	0.46	-0.217
Mof_C 	C 	0.6774	0.5644	0.4773	0.136
Mof_H 	H 	0.7016	0.59	0.4674	-0.036
Mof_C 	C 	0.6348	0.5798	0.5087	-0.277
Mof_H 	H 	0.6287	0.6149	0.5169	0.112
Mof_C 	C 	0.6043	0.5427	0.5258	0.216
Mof_C 	C 	0.611	0.4895	0.5131	-0.274
Mof_H 	H 	0.5882	0.4638	0.5258	0.125
Mof_C 	C 	0.6518	0.4769	0.4818	0.171
Mof_H 	H 	0.6575	0.4414	0.4746	-0.057
Mof_N 	N 	0.3036	0.8622	0.937	-0.22
Mof_N 	N 	0.2836	0.9377	0.892	-0.191
Mof_H 	H 	0.2909	0.9605	0.868	0.097
Mof_N 	N 	0.2475	0.9495	0.9281	-0.186
Mof_C 	C 	0.3259	0.8154	0.9379	0.103
Mof_H 	H 	0.3215	0.7947	0.9677	-0.029
Mof_C 	C 	0.3565	0.7947	0.8954	-0.194
Mof_H 	H 	0.3744	0.7629	0.8983	0.088
Mof_C 	C 	0.3579	0.8242	0.8502	0.127
Mof_H 	H 	0.3744	0.811	0.8203	-0.034
Mof_C 	C 	0.3351	0.8728	0.8492	-0.239
Mof_H 	H 	0.338	0.8929	0.8188	0.098
Mof_C 	C 	0.3079	0.8932	0.8918	0.193
Mof_C 	C 	0.2308	0.9974	0.9264	0.319
Mof_C 	C 	0.2535	0.0399	0.892	-0.798
Mof_H 	H 	0.2809	0.0253	0.8703	0.247
Mof_H 	H 	0.2679	0.0674	0.9137	0.257
Mof_H 	H 	0.2263	0.0542	0.87	0.257
Mof_C 	C 	0.1855	0.0125	0.96	-0.275
Mof_C 	C 	0.1774	0.0644	0.9773	0.188
Mof_H 	H 	0.2016	0.09	0.9674	-0.054
Mof_C 	C 	0.1348	0.0798	0.0087	-0.327
Mof_H 	H 	0.1287	0.1149	0.0169	0.127
Mof_C 	C 	0.1043	0.0427	0.0258	0.242
Mof_C 	C 	0.111	0.9895	0.0131	-0.321
Mof_H 	H 	0.0882	0.9638	0.0258	0.141
Mof_C 	C 	0.1518	0.9769	0.9818	0.239
Mof_H 	H 	0.1575	0.9414	0.9746	-0.076
Mof_N 	N 	0.3036	0.1378	0.563	-0.222
Mof_N 	N 	0.2836	0.0623	0.608	-0.193
Mof_H 	H 	0.2909	0.0395	0.632	0.094
Mof_N 	N 	0.2475	0.0505	0.5719	-0.177
Mof_C 	C 	0.3259	0.1846	0.5621	0.101
Mof_H 	H 	0.3215	0.2053	0.5323	-0.032
Mof_C 	C 	0.3565	0.2053	0.6046	-0.195
Mof_H 	H 	0.3744	0.2371	0.6017	0.087
Mof_C 	C 	0.3579	0.1758	0.6498	0.125
Mof_H 	H 	0.3744	0.189	0.6797	-0.033
Mof_C 	C 	0.3351	0.1272	0.6508	-0.238
Mof_H 	H 	0.338	0.1071	0.6812	0.096
Mof_C 	C 	0.3079	0.1068	0.6082	0.19
Mof_C 	C 	0.2308	0.0026	0.5736	0.249
Mof_C 	C 	0.2535	0.9601	0.608	-0.709
Mof_H 	H 	0.2809	0.9747	0.6297	0.227
Mof_H 	H 	0.2679	0.9326	0.5863	0.231
Mof_H 	H 	0.2263	0.9458	0.63	0.233
Mof_C 	C 	0.1855	0.9875	0.54	-0.185
Mof_C 	C 	0.1774	0.9356	0.5227	0.12
Mof_H 	H 	0.2016	0.91	0.5326	-0.03
Mof_C 	C 	0.1348	0.9202	0.4913	-0.267
Mof_H 	H 	0.1287	0.8851	0.4831	0.109
Mof_C 	C 	0.1043	0.9573	0.4742	0.215
Mof_C 	C 	0.111	0.0105	0.4869	-0.268
Mof_H 	H 	0.0882	0.0362	0.4742	0.12
Mof_C 	C 	0.1518	0.0231	0.5182	0.144
Mof_H 	H 	0.1575	0.0586	0.5254	-0.048
Mof_N 	N 	0.8036	0.6378	0.063	-0.222
Mof_N 	N 	0.7836	0.5623	0.108	-0.193
Mof_H 	H 	0.7909	0.5395	0.132	0.096
Mof_N 	N 	0.7475	0.5505	0.0719	-0.179
Mof_C 	C 	0.8259	0.6846	0.0621	0.102
Mof_H 	H 	0.8215	0.7053	0.0323	-0.032
Mof_C 	C 	0.8565	0.7053	0.1046	-0.195
Mof_H 	H 	0.8744	0.7371	0.1017	0.088
Mof_C 	C 	0.8579	0.6758	0.1498	0.126
Mof_H 	H 	0.8744	0.689	0.1797	-0.033
Mof_C 	C 	0.8351	0.6272	0.1508	-0.238
Mof_H 	H 	0.838	0.6071	0.1812	0.097
Mof_C 	C 	0.8079	0.6068	0.1082	0.191
Mof_C 	C 	0.7308	0.5026	0.0736	0.263
Mof_C 	C 	0.7535	0.4601	0.108	-0.731
Mof_H 	H 	0.7809	0.4747	0.1297	0.231
Mof_H 	H 	0.7679	0.4326	0.0863	0.235
Mof_H 	H 	0.7263	0.4458	0.13	0.238
Mof_C 	C 	0.6855	0.4875	0.04	-0.189
Mof_C 	C 	0.6774	0.4356	0.0227	0.098
Mof_H 	H 	0.7016	0.41	0.0326	-0.025
Mof_C 	C 	0.6348	0.4202	0.9913	-0.237
Mof_H 	H 	0.6287	0.3851	0.9831	0.101
Mof_C 	C 	0.6043	0.4573	0.9742	0.191
Mof_C 	C 	0.611	0.5105	0.9869	-0.232
Mof_H 	H 	0.5882	0.5362	0.9742	0.113
Mof_C 	C 	0.6518	0.5231	0.0182	0.128
Mof_H 	H 	0.6575	0.5586	0.0254	-0.044
Mof_N 	N 	0.937	0.6964	0.6378	-0.219
Mof_N 	N 	0.892	0.7164	0.5623	-0.192
Mof_H 	H 	0.868	0.7091	0.5395	0.095
Mof_N 	N 	0.9281	0.7525	0.5505	-0.182
Mof_C 	C 	0.9379	0.6741	0.6846	0.103
Mof_H 	H 	0.9677	0.6785	0.7053	-0.029
Mof_C 	C 	0.8954	0.6435	0.7053	-0.194
Mof_H 	H 	0.8983	0.6256	0.7371	0.088
Mof_C 	C 	0.8502	0.6421	0.6758	0.126
Mof_H 	H 	0.8203	0.6256	0.689	-0.033
Mof_C 	C 	0.8492	0.6649	0.6272	-0.238
Mof_H 	H 	0.8188	0.662	0.6071	0.097
Mof_C 	C 	0.8918	0.6921	0.6068	0.193
Mof_C 	C 	0.9264	0.7692	0.5026	0.291
Mof_C 	C 	0.892	0.7465	0.4601	-0.762
Mof_H 	H 	0.8703	0.7191	0.4747	0.24
Mof_H 	H 	0.9137	0.7321	0.4326	0.247
Mof_H 	H 	0.87	0.7737	0.4458	0.248
Mof_C 	C 	0.96	0.8145	0.4875	-0.242
Mof_C 	C 	0.9773	0.8226	0.4356	0.173
Mof_H 	H 	0.9674	0.7984	0.41	-0.047
Mof_C 	C 	0.0087	0.8652	0.4202	-0.315
Mof_H 	H 	0.0169	0.8713	0.3851	0.123
Mof_C 	C 	0.0258	0.8957	0.4573	0.24
Mof_C 	C 	0.0131	0.889	0.5105	-0.314
Mof_H 	H 	0.0258	0.9118	0.5362	0.138
Mof_C 	C 	0.9818	0.8482	0.5231	0.212
Mof_H 	H 	0.9746	0.8425	0.5586	-0.066
Mof_N 	N 	0.437	0.1964	0.1378	-0.222
Mof_N 	N 	0.392	0.2164	0.0623	-0.193
Mof_H 	H 	0.368	0.2091	0.0395	0.094
Mof_N 	N 	0.4281	0.2525	0.0505	-0.177
Mof_C 	C 	0.4379	0.1741	0.1846	0.101
Mof_H 	H 	0.4677	0.1785	0.2053	-0.033
Mof_C 	C 	0.3954	0.1435	0.2053	-0.195
Mof_H 	H 	0.3983	0.1256	0.2371	0.086
Mof_C 	C 	0.3502	0.1421	0.1758	0.125
Mof_H 	H 	0.3203	0.1256	0.189	-0.034
Mof_C 	C 	0.3492	0.1649	0.1272	-0.238
Mof_H 	H 	0.3188	0.162	0.1071	0.096
Mof_C 	C 	0.3918	0.1921	0.1068	0.191
Mof_C 	C 	0.4264	0.2692	0.0026	0.249
Mof_C 	C 	0.392	0.2465	0.9601	-0.709
Mof_H 	H 	0.3703	0.2191	0.9747	0.227
Mof_H 	H 	0.4137	0.2321	0.9326	0.231
Mof_H 	H 	0.37	0.2737	0.9458	0.233
Mof_C 	C 	0.46	0.3145	0.9875	-0.185
Mof_C 	C 	0.4773	0.3226	0.9356	0.12
Mof_H 	H 	0.4674	0.2984	0.91	-0.03
Mof_C 	C 	0.5087	0.3652	0.9202	-0.266
Mof_H 	H 	0.5169	0.3713	0.8851	0.109
Mof_C 	C 	0.5258	0.3957	0.9573	0.215
Mof_C 	C 	0.5131	0.389	0.0105	-0.268
Mof_H 	H 	0.5258	0.4118	0.0362	0.121
Mof_C 	C 	0.4818	0.3482	0.0231	0.144
Mof_H 	H 	0.4746	0.3425	0.0586	-0.048
Mof_N 	N 	0.063	0.1964	0.8622	-0.222
Mof_N 	N 	0.108	0.2164	0.9377	-0.193
Mof_H 	H 	0.132	0.2091	0.9605	0.097
Mof_N 	N 	0.0719	0.2525	0.9495	-0.184
Mof_C 	C 	0.0621	0.1741	0.8154	0.101
Mof_H 	H 	0.0323	0.1785	0.7947	-0.034
Mof_C 	C 	0.1046	0.1435	0.7947	-0.196
Mof_H 	H 	0.1017	0.1256	0.7629	0.086
Mof_C 	C 	0.1498	0.1421	0.8242	0.126
Mof_H 	H 	0.1797	0.1256	0.811	-0.035
Mof_C 	C 	0.1508	0.1649	0.8728	-0.239
Mof_H 	H 	0.1812	0.162	0.8929	0.097
Mof_C 	C 	0.1082	0.1921	0.8932	0.192
Mof_C 	C 	0.0736	0.2692	0.9974	0.291
Mof_C 	C 	0.108	0.2465	0.0399	-0.766
Mof_H 	H 	0.1297	0.2191	0.0253	0.238
Mof_H 	H 	0.0863	0.2321	0.0674	0.245
Mof_H 	H 	0.13	0.2737	0.0542	0.247
Mof_C 	C 	0.04	0.3145	0.0125	-0.22
Mof_C 	C 	0.0227	0.3226	0.0644	0.114
Mof_H 	H 	0.0326	0.2984	0.09	-0.032
Mof_C 	C 	0.9913	0.3652	0.0798	-0.248
Mof_H 	H 	0.9831	0.3713	0.1149	0.104
Mof_C 	C 	0.9742	0.3957	0.0427	0.192
Mof_C 	C 	0.9869	0.389	0.9895	-0.237
Mof_H 	H 	0.9742	0.4118	0.9638	0.117
Mof_C 	C 	0.0182	0.3482	0.9769	0.154
Mof_H 	H 	0.0254	0.3425	0.9414	-0.052
Mof_N 	N 	0.563	0.6964	0.3622	-0.222
Mof_N 	N 	0.608	0.7164	0.4377	-0.193
Mof_H 	H 	0.632	0.7091	0.4605	0.096
Mof_N 	N 	0.5719	0.7525	0.4495	-0.182
Mof_C 	C 	0.5621	0.6741	0.3154	0.102
Mof_H 	H 	0.5323	0.6785	0.2947	-0.032
Mof_C 	C 	0.6046	0.6435	0.2947	-0.195
Mof_H 	H 	0.6017	0.6256	0.2629	0.087
Mof_C 	C 	0.6498	0.6421	0.3242	0.126
Mof_H 	H 	0.6797	0.6256	0.311	-0.034
Mof_C 	C 	0.6508	0.6649	0.3728	-0.238
Mof_H 	H 	0.6812	0.662	0.3929	0.097
Mof_C 	C 	0.6082	0.6921	0.3932	0.192
Mof_C 	C 	0.5736	0.7692	0.4974	0.277
Mof_C 	C 	0.608	0.7465	0.5399	-0.747
Mof_H 	H 	0.6297	0.7191	0.5253	0.235
Mof_H 	H 	0.5863	0.7321	0.5674	0.241
Mof_H 	H 	0.63	0.7737	0.5542	0.243
Mof_C 	C 	0.54	0.8145	0.5125	-0.216
Mof_C 	C 	0.5227	0.8226	0.5644	0.136
Mof_H 	H 	0.5326	0.7984	0.59	-0.036
Mof_C 	C 	0.4913	0.8652	0.5798	-0.276
Mof_H 	H 	0.4831	0.8713	0.6149	0.112
Mof_C 	C 	0.4742	0.8957	0.5427	0.216
Mof_C 	C 	0.4869	0.889	0.4895	-0.273
Mof_H 	H 	0.4742	0.9118	0.4638	0.126
Mof_C 	C 	0.5182	0.8482	0.4769	0.171
Mof_H 	H 	0.5254	0.8425	0.4414	-0.056
Mof_N 	N 	0.437	0.8036	0.3622	-0.222
Mof_N 	N 	0.392	0.7836	0.4377	-0.193
Mof_H 	H 	0.368	0.7909	0.4605	0.096
Mof_N 	N 	0.4281	0.7475	0.4495	-0.182
Mof_C 	C 	0.4379	0.8259	0.3154	0.102
Mof_H 	H 	0.4677	0.8215	0.2947	-0.032
Mof_C 	C 	0.3954	0.8565	0.2947	-0.195
Mof_H 	H 	0.3983	0.8744	0.2629	0.088
Mof_C 	C 	0.3502	0.8579	0.3242	0.126
Mof_H 	H 	0.3203	0.8744	0.311	-0.033
Mof_C 	C 	0.3492	0.8351	0.3728	-0.238
Mof_H 	H 	0.3188	0.838	0.3929	0.097
Mof_C 	C 	0.3918	0.8079	0.3932	0.192
Mof_C 	C 	0.4264	0.7308	0.4974	0.277
Mof_C 	C 	0.392	0.7535	0.5399	-0.747
Mof_H 	H 	0.3703	0.7809	0.5253	0.235
Mof_H 	H 	0.4137	0.7679	0.5674	0.241
Mof_H 	H 	0.37	0.7263	0.5542	0.243
Mof_C 	C 	0.46	0.6855	0.5125	-0.217
Mof_C 	C 	0.4773	0.6774	0.5644	0.136
Mof_H 	H 	0.4674	0.7016	0.59	-0.036
Mof_C 	C 	0.5087	0.6348	0.5798	-0.277
Mof_H 	H 	0.5169	0.6287	0.6149	0.112
Mof_C 	C 	0.5258	0.6043	0.5427	0.216
Mof_C 	C 	0.5131	0.611	0.4895	-0.274
Mof_H 	H 	0.5258	0.5882	0.4638	0.125
Mof_C 	C 	0.4818	0.6518	0.4769	0.171
Mof_H 	H 	0.4746	0.6575	0.4414	-0.057
Mof_N 	N 	0.937	0.3036	0.8622	-0.22
Mof_N 	N 	0.892	0.2836	0.9377	-0.191
Mof_H 	H 	0.868	0.2909	0.9605	0.097
Mof_N 	N 	0.9281	0.2475	0.9495	-0.186
Mof_C 	C 	0.9379	0.3259	0.8154	0.103
Mof_H 	H 	0.9677	0.3215	0.7947	-0.029
Mof_C 	C 	0.8954	0.3565	0.7947	-0.194
Mof_H 	H 	0.8983	0.3744	0.7629	0.088
Mof_C 	C 	0.8502	0.3579	0.8242	0.127
Mof_H 	H 	0.8203	0.3744	0.811	-0.034
Mof_C 	C 	0.8492	0.3351	0.8728	-0.239
Mof_H 	H 	0.8188	0.338	0.8929	0.098
Mof_C 	C 	0.8918	0.3079	0.8932	0.193
Mof_C 	C 	0.9264	0.2308	0.9974	0.319
Mof_C 	C 	0.892	0.2535	0.0399	-0.798
Mof_H 	H 	0.8703	0.2809	0.0253	0.247
Mof_H 	H 	0.9137	0.2679	0.0674	0.257
Mof_H 	H 	0.87	0.2263	0.0542	0.257
Mof_C 	C 	0.96	0.1855	0.0125	-0.275
Mof_C 	C 	0.9773	0.1774	0.0644	0.188
Mof_H 	H 	0.9674	0.2016	0.09	-0.054
Mof_C 	C 	0.0087	0.1348	0.0798	-0.327
Mof_H 	H 	0.0169	0.1287	0.1149	0.127
Mof_C 	C 	0.0258	0.1043	0.0427	0.242
Mof_C 	C 	0.0131	0.111	0.9895	-0.321
Mof_H 	H 	0.0258	0.0882	0.9638	0.141
Mof_C 	C 	0.9818	0.1518	0.9769	0.239
Mof_H 	H 	0.9746	0.1575	0.9414	-0.076
Mof_N 	N 	0.563	0.3036	0.1378	-0.222
Mof_N 	N 	0.608	0.2836	0.0623	-0.193
Mof_H 	H 	0.632	0.2909	0.0395	0.094
Mof_N 	N 	0.5719	0.2475	0.0505	-0.177
Mof_C 	C 	0.5621	0.3259	0.1846	0.101
Mof_H 	H 	0.5323	0.3215	0.2053	-0.032
Mof_C 	C 	0.6046	0.3565	0.2053	-0.195
Mof_H 	H 	0.6017	0.3744	0.2371	0.087
Mof_C 	C 	0.6498	0.3579	0.1758	0.125
Mof_H 	H 	0.6797	0.3744	0.189	-0.033
Mof_C 	C 	0.6508	0.3351	0.1272	-0.238
Mof_H 	H 	0.6812	0.338	0.1071	0.096
Mof_C 	C 	0.6082	0.3079	0.1068	0.19
Mof_C 	C 	0.5736	0.2308	0.0026	0.249
Mof_C 	C 	0.608	0.2535	0.9601	-0.709
Mof_H 	H 	0.6297	0.2809	0.9747	0.227
Mof_H 	H 	0.5863	0.2679	0.9326	0.231
Mof_H 	H 	0.63	0.2263	0.9458	0.233
Mof_C 	C 	0.54	0.1855	0.9875	-0.185
Mof_C 	C 	0.5227	0.1774	0.9356	0.12
Mof_H 	H 	0.5326	0.2016	0.91	-0.03
Mof_C 	C 	0.4913	0.1348	0.9202	-0.267
Mof_H 	H 	0.4831	0.1287	0.8851	0.109
Mof_C 	C 	0.4742	0.1043	0.9573	0.215
Mof_C 	C 	0.4869	0.111	0.0105	-0.268
Mof_H 	H 	0.4742	0.0882	0.0362	0.12
Mof_C 	C 	0.5182	0.1518	0.0231	0.144
Mof_H 	H 	0.5254	0.1575	0.0586	-0.048
Mof_N 	N 	0.063	0.8036	0.6378	-0.222
Mof_N 	N 	0.108	0.7836	0.5623	-0.193
Mof_H 	H 	0.132	0.7909	0.5395	0.096
Mof_N 	N 	0.0719	0.7475	0.5505	-0.179
Mof_C 	C 	0.0621	0.8259	0.6846	0.102
Mof_H 	H 	0.0323	0.8215	0.7053	-0.032
Mof_C 	C 	0.1046	0.8565	0.7053	-0.195
Mof_H 	H 	0.1017	0.8744	0.7371	0.088
Mof_C 	C 	0.1498	0.8579	0.6758	0.126
Mof_H 	H 	0.1797	0.8744	0.689	-0.033
Mof_C 	C 	0.1508	0.8351	0.6272	-0.238
Mof_H 	H 	0.1812	0.838	0.6071	0.097
Mof_C 	C 	0.1082	0.8079	0.6068	0.191
Mof_C 	C 	0.0736	0.7308	0.5026	0.263
Mof_C 	C 	0.108	0.7535	0.4601	-0.731
Mof_H 	H 	0.1297	0.7809	0.4747	0.231
Mof_H 	H 	0.0863	0.7679	0.4326	0.235
Mof_H 	H 	0.13	0.7263	0.4458	0.238
Mof_C 	C 	0.04	0.6855	0.4875	-0.189
Mof_C 	C 	0.0227	0.6774	0.4356	0.098
Mof_H 	H 	0.0326	0.7016	0.41	-0.025
Mof_C 	C 	0.9913	0.6348	0.4202	-0.237
Mof_H 	H 	0.9831	0.6287	0.3851	0.101
Mof_C 	C 	0.9742	0.6043	0.4573	0.191
Mof_C 	C 	0.9869	0.611	0.5105	-0.232
Mof_H 	H 	0.9742	0.5882	0.5362	0.113
Mof_C 	C 	0.0182	0.6518	0.5231	0.128
Mof_H 	H 	0.0254	0.6575	0.5586	-0.044
Mof_Ag	Ag	0.61225	-6.17567e-33	0.75	0.618
Mof_Ag	Ag	0.88775	-3.08784e-33	0.25	0.621
Mof_Ag	Ag	0.38775	0.5	0.75	0.631
Mof_Ag	Ag	0.11225	0.5	0.25	0.627
Mof_Ag	Ag	0.75	0.61225	-0	0.618
Mof_Ag	Ag	0.25	0.88775	-0	0.621
Mof_Ag	Ag	0.75	0.38775	0.5	0.631
Mof_Ag	Ag	0.25	0.11225	0.5	0.627
Mof_Ag	Ag	-3.8801e-33	0.75	0.61225	0.618
Mof_Ag	Ag	-2.84714e-33	0.25	0.88775	0.621
Mof_Ag	Ag	0.5	0.75	0.38775	0.631
Mof_Ag	Ag	0.5	0.25	0.11225	0.627
Mof_N 	N 	0.4435	0.0565	0.9435	-0.202
Mof_N 	N 	0.9435	0.5565	0.4435	-0.198
Mof_N 	N 	0.0565	0.9435	0.4435	-0.202
Mof_N 	N 	0.5565	0.4435	0.9435	-0.198
Mof_N 	N 	0.5565	0.5565	0.5565	-0.202
Mof_N 	N 	0.0565	0.0565	0.0565	-0.215
Mof_N 	N 	0.9435	0.4435	0.0565	-0.202
Mof_N 	N 	0.4435	0.9435	0.5565	-0.198
_end
