data_functionalizedCrystal
_audit_creation_method	'EQeq! by Chris Wilmer'
_symmetry_space_group_name_H-M	'P1'
_symmetry_Int_Tables_number	1
_symmetry_cell_setting	triclinic
loop_
_symmetry_equiv_pos_as_xyz
  x,y,z
_cell_length_a	10.959
_cell_length_b	16.565
_cell_length_c	19.75
_cell_angle_alpha	90
_cell_angle_beta	90
_cell_angle_gamma	90
loop_
_atom_site_label
_atom_site_type_symbol
_atom_site_fract_x
_atom_site_fract_y
_atom_site_fract_z
_atom_site_charge
Mof_Eu	Eu	0.70744	0.75	0.29601	2.104
Mof_Eu	Eu	0.79256	0.25	0.79601	2.104
Mof_Eu	Eu	0.20744	0.75	0.20399	2.104
Mof_Eu	Eu	0.29256	0.25	0.70399	2.104
Mof_H 	H 	0.1873	0.5694	0.4672	0.095
Mof_H 	H 	0.5693	0.3186	0.0134	0.089
Mof_H 	H 	0.476	0.5081	0.1728	-0.006
Mof_H 	H 	0.3153	0.25	0.9065	0.013
Mof_H 	H 	0.9307	0.8186	0.5134	0.089
Mof_H 	H 	0.4831	0.75	0.5716	0.061
Mof_H 	H 	0.0279	0.829	0.4557	0.076
Mof_H 	H 	0.024	0.4919	0.6728	-0.006
Mof_H 	H 	0.3127	0.4306	0.9672	0.094
Mof_H 	H 	0.1873	0.9306	0.4672	0.095
Mof_H 	H 	0.4583	0.6079	0.879	0.108
Mof_H 	H 	0.3493	0.25	0.191	0.283
Mof_H 	H 	0.9721	0.329	0.5443	0.076
Mof_H 	H 	0.5417	0.3921	0.121	0.108
Mof_H 	H 	0.4641	0.25	0.5417	0.024
Mof_H 	H 	0.5279	0.829	0.0443	0.075
Mof_H 	H 	0.524	0.4919	0.8272	-0.006
Mof_H 	H 	0.2461	0.9516	0.0181	0.01
Mof_H 	H 	0.0693	0.1814	0.4866	0.089
Mof_H 	H 	0.1507	0.75	0.691	0.282
Mof_H 	H 	0.976	0.5081	0.3272	-0.006
Mof_H 	H 	0.1847	0.75	0.4065	0.011
Mof_H 	H 	0.5417	0.1079	0.121	0.108
Mof_H 	H 	0.9583	0.8921	0.621	0.108
Mof_H 	H 	0.6507	0.75	0.809	0.283
Mof_H 	H 	0.6873	0.9306	0.0328	0.092
Mof_H 	H 	0.976	0.9919	0.3272	-0.009
Mof_H 	H 	0.0279	0.671	0.4557	0.076
Mof_H 	H 	0.9307	0.6814	0.5134	0.089
Mof_H 	H 	0.8493	0.25	0.309	0.282
Mof_H 	H 	0.9831	0.75	0.9284	0.058
Mof_H 	H 	0.7539	0.0484	0.9819	0.01
Mof_H 	H 	0.4721	0.329	0.9557	0.075
Mof_H 	H 	0.3127	0.0694	0.9672	0.092
Mof_H 	H 	0.524	0.0081	0.8272	-0.007
Mof_H 	H 	0.9721	0.171	0.5443	0.076
Mof_H 	H 	0.4721	0.171	0.9557	0.075
Mof_H 	H 	0.024	0.0081	0.6728	-0.009
Mof_H 	H 	0.4307	0.8186	0.9866	0.089
Mof_H 	H 	0.2461	0.5484	0.0181	0.009
Mof_H 	H 	0.0693	0.3186	0.4866	0.089
Mof_H 	H 	0.5169	0.25	0.4284	0.061
Mof_H 	H 	0.6847	0.75	0.0935	0.013
Mof_H 	H 	0.8153	0.25	0.5935	0.011
Mof_H 	H 	0.0417	0.1079	0.379	0.108
Mof_H 	H 	0.6873	0.5694	0.0328	0.094
Mof_H 	H 	0.0417	0.3921	0.379	0.108
Mof_H 	H 	0.5359	0.75	0.4583	0.024
Mof_H 	H 	0.5693	0.1814	0.0134	0.089
Mof_H 	H 	0.2539	0.4516	0.5181	0.008
Mof_H 	H 	0.0169	0.25	0.0716	0.058
Mof_H 	H 	0.7461	0.9516	0.4819	0.008
Mof_H 	H 	0.9641	0.25	0.9583	0.028
Mof_H 	H 	0.8127	0.0694	0.5328	0.095
Mof_H 	H 	0.7539	0.4516	0.9819	0.009
Mof_H 	H 	0.5279	0.671	0.0443	0.075
Mof_H 	H 	0.4307	0.6814	0.9866	0.089
Mof_H 	H 	0.476	0.9919	0.1728	-0.007
Mof_H 	H 	0.4583	0.8921	0.879	0.108
Mof_H 	H 	0.8127	0.4306	0.5328	0.095
Mof_H 	H 	0.0359	0.75	0.0417	0.028
Mof_H 	H 	0.2539	0.0484	0.5181	0.008
Mof_H 	H 	0.7461	0.5484	0.4819	0.008
Mof_H 	H 	0.9583	0.6079	0.621	0.108
Mof_C 	C 	0.4827	0.3239	0.0043	-0.178
Mof_C 	C 	0.1539	0.5536	0.5084	-0.191
Mof_C 	C 	0.8058	0.5173	0.4609	0.095
Mof_C 	C 	0.943	0.0068	0.3688	0.106
Mof_C 	C 	0.3654	0.75	0.4221	-0.179
Mof_C 	C 	0.7908	0.25	0.4911	0.072
Mof_C 	C 	0.6874	0.1177	0.8664	0.345
Mof_C 	C 	0.2092	0.75	0.5089	0.072
Mof_C 	C 	0.0459	0.25	0.9708	0.034
Mof_C 	C 	0.443	0.4932	0.1312	0.1
Mof_C 	C 	0.4352	0.3994	0.0385	0.167
Mof_C 	C 	0.8003	0.75	0.9416	-0.095
Mof_C 	C 	0.3126	0.8823	0.1336	0.345
Mof_C 	C 	0.6874	0.3823	0.8664	0.345
Mof_C 	C 	0.8126	0.8823	0.3664	0.346
Mof_C 	C 	0.1942	0.4827	0.5391	0.095
Mof_C 	C 	0.1346	0.25	0.9221	-0.173
Mof_C 	C 	0.6462	0.0421	0.8991	-0.161
Mof_C 	C 	0.5173	0.6761	0.9957	-0.178
Mof_C 	C 	0.3538	0.9579	0.1009	-0.161
Mof_C 	C 	0.1462	0.0421	0.6009	-0.164
Mof_C 	C 	0.5173	0.8239	0.9957	-0.176
Mof_C 	C 	0.8976	0.75	0.1529	0.589
Mof_C 	C 	0.0173	0.8239	0.5043	-0.178
Mof_C 	C 	0.6539	0.9464	0.9916	-0.186
Mof_C 	C 	0.9352	0.3994	0.4615	0.168
Mof_C 	C 	0.5459	0.25	0.5292	0.045
Mof_C 	C 	0.6462	0.4579	0.8991	-0.16
Mof_C 	C 	0.1462	0.4579	0.6009	-0.161
Mof_C 	C 	0.8058	0.9827	0.4609	0.096
Mof_C 	C 	0.7269	0.25	0.367	0.392
Mof_C 	C 	0.4823	0.0764	0.1001	-0.195
Mof_C 	C 	0.7731	0.75	0.867	0.393
Mof_C 	C 	0.057	0.5068	0.6312	0.1
Mof_C 	C 	0.0648	0.6006	0.5385	0.168
Mof_C 	C 	0.8538	0.9579	0.3991	-0.164
Mof_C 	C 	0.3461	0.0536	0.0084	-0.186
Mof_C 	C 	0.0177	0.9236	0.6001	-0.197
Mof_C 	C 	0.943	0.4932	0.3688	0.1
Mof_C 	C 	0.3976	0.75	0.3471	0.592
Mof_C 	C 	0.1024	0.25	0.8471	0.589
Mof_C 	C 	0.6346	0.25	0.5779	-0.179
Mof_C 	C 	0.0777	0.25	0.0388	-0.038
Mof_C 	C 	0.4541	0.75	0.4708	0.045
Mof_C 	C 	0.9541	0.75	0.0292	0.034
Mof_C 	C 	0.9823	0.4236	0.3999	-0.195
Mof_C 	C 	0.3058	0.9827	0.0391	0.092
Mof_C 	C 	0.3461	0.4464	0.0084	-0.19
Mof_C 	C 	0.4823	0.4236	0.1001	-0.195
Mof_C 	C 	0.057	0.9932	0.6312	0.106
Mof_C 	C 	0.3058	0.5173	0.0391	0.094
Mof_C 	C 	0.9352	0.1006	0.4615	0.169
Mof_C 	C 	0.557	0.5068	0.8688	0.1
Mof_C 	C 	0.1942	0.0173	0.5391	0.096
Mof_C 	C 	0.7092	0.75	0.9911	0.076
Mof_C 	C 	0.5777	0.25	0.4612	-0.045
Mof_C 	C 	0.5648	0.6006	0.9615	0.167
Mof_C 	C 	0.1874	0.1177	0.6336	0.346
Mof_C 	C 	0.5177	0.9236	0.8999	-0.195
Mof_C 	C 	0.1874	0.3823	0.6336	0.345
Mof_C 	C 	0.6539	0.5536	0.9916	-0.19
Mof_C 	C 	0.8654	0.75	0.0779	-0.173
Mof_C 	C 	0.6942	0.4827	0.9609	0.094
Mof_C 	C 	0.5177	0.5764	0.8999	-0.195
Mof_C 	C 	0.0177	0.5764	0.6001	-0.195
Mof_C 	C 	0.3003	0.75	0.5584	-0.092
Mof_C 	C 	0.9223	0.75	0.9612	-0.038
Mof_C 	C 	0.7557	0.25	0.5599	-0.009
Mof_C 	C 	0.7443	0.75	0.0599	-0.014
Mof_C 	C 	0.3538	0.5421	0.1009	-0.16
Mof_C 	C 	0.8538	0.5421	0.3991	-0.161
Mof_C 	C 	0.0173	0.6761	0.5043	-0.179
Mof_C 	C 	0.6942	0.0173	0.9609	0.092
Mof_C 	C 	0.4352	0.1006	0.0385	0.166
Mof_C 	C 	0.9827	0.3239	0.4957	-0.179
Mof_C 	C 	0.9827	0.1761	0.4957	-0.178
Mof_C 	C 	0.8461	0.4464	0.4916	-0.191
Mof_C 	C 	0.0648	0.8994	0.5385	0.169
Mof_C 	C 	0.4827	0.1761	0.0043	-0.176
Mof_C 	C 	0.9823	0.0764	0.3999	-0.197
Mof_C 	C 	0.2731	0.75	0.633	0.392
Mof_C 	C 	0.2557	0.25	0.9401	-0.014
Mof_C 	C 	0.6024	0.25	0.6529	0.592
Mof_C 	C 	0.3126	0.6177	0.1336	0.345
Mof_C 	C 	0.1539	0.9464	0.5084	-0.191
Mof_C 	C 	0.8461	0.0536	0.4916	-0.191
Mof_C 	C 	0.1997	0.25	0.0584	-0.095
Mof_C 	C 	0.557	0.9932	0.8688	0.102
Mof_C 	C 	0.2908	0.25	0.0089	0.076
Mof_C 	C 	0.5648	0.8994	0.9615	0.166
Mof_C 	C 	0.6997	0.25	0.4416	-0.092
Mof_C 	C 	0.4223	0.75	0.5388	-0.045
Mof_C 	C 	0.2443	0.75	0.4401	-0.009
Mof_C 	C 	0.8126	0.6177	0.3664	0.345
Mof_C 	C 	0.2269	0.25	0.133	0.393
Mof_C 	C 	0.443	0.0068	0.1312	0.102
Mof_N 	N 	0.5818	0.75	0.9716	-0.062
Mof_N 	N 	0.0818	0.75	0.5284	-0.061
Mof_N 	N 	0.4182	0.25	0.0284	-0.062
Mof_N 	N 	0.9182	0.25	0.4716	-0.061
Mof_O 	O 	0.1861	0.25	0.8054	-0.634
Mof_O 	O 	0.3428	0.25	0.1497	-0.473
Mof_O 	O 	0.2228	0.6547	0.1096	-0.459
Mof_O 	O 	0.1358	0.3561	0.6863	-0.478
Mof_O 	O 	0.6572	0.75	0.8503	-0.473
Mof_O 	O 	0.6476	0.25	0.3259	-0.297
Mof_O 	O 	0.3139	0.75	0.3054	-0.635
Mof_O 	O 	0.7772	0.3453	0.8904	-0.459
Mof_O 	O 	0.1358	0.1439	0.6863	-0.478
Mof_O 	O 	0.6358	0.3561	0.8137	-0.478
Mof_O 	O 	0.4924	0.25	0.6672	-0.625
Mof_O 	O 	0.6358	0.1439	0.8137	-0.478
Mof_O 	O 	0.7772	0.1547	0.8904	-0.459
Mof_O 	O 	0.7228	0.8453	0.3904	-0.459
Mof_O 	O 	0.0076	0.75	0.1672	-0.624
Mof_O 	O 	0.2228	0.8453	0.1096	-0.459
Mof_O 	O 	0.2772	0.3453	0.6096	-0.459
Mof_O 	O 	0.3642	0.6439	0.1863	-0.478
Mof_O 	O 	0.1476	0.25	0.1741	-0.297
Mof_O 	O 	0.7228	0.6547	0.3904	-0.459
Mof_O 	O 	0.9924	0.25	0.8328	-0.624
Mof_O 	O 	0.3524	0.75	0.6741	-0.297
Mof_O 	O 	0.3642	0.8561	0.1863	-0.478
Mof_O 	O 	0.1572	0.75	0.6497	-0.472
Mof_O 	O 	0.8524	0.75	0.8259	-0.297
Mof_O 	O 	0.5076	0.75	0.3328	-0.625
Mof_O 	O 	0.8428	0.25	0.3503	-0.472
Mof_O 	O 	0.8642	0.6439	0.3137	-0.478
Mof_O 	O 	0.8642	0.8561	0.3137	-0.478
Mof_O 	O 	0.2772	0.1547	0.6096	-0.459
Mof_O 	O 	0.6861	0.25	0.6946	-0.635
Mof_O 	O 	0.8139	0.75	0.1946	-0.634
_end
