data_functionalizedCrystal
_audit_creation_method	'EQeq! by Chris Wilmer'
_symmetry_space_group_name_H-M	'P1'
_symmetry_Int_Tables_number	1
_symmetry_cell_setting	triclinic
loop_
_symmetry_equiv_pos_as_xyz
  x,y,z
_cell_length_a	13.69
_cell_length_b	27.596
_cell_length_c	45.419
_cell_angle_alpha	90
_cell_angle_beta	90
_cell_angle_gamma	90
loop_
_atom_site_label
_atom_site_type_symbol
_atom_site_fract_x
_atom_site_fract_y
_atom_site_fract_z
_atom_site_charge
Mof_Zn	Zn	0.34739	0.54947	0.9245	1.164
Mof_Zn	Zn	0.63734	0.47238	0.40951	1.163
Mof_Zn	Zn	0.84367	0.25239	0.31417	1.164
Mof_Zn	Zn	0.15633	0.24761	0.81417	1.164
Mof_Zn	Zn	0.65633	0.75239	0.68583	1.164
Mof_Zn	Zn	0.86266	0.97238	0.59049	1.163
Mof_Zn	Zn	0.36266	0.02762	0.90951	1.163
Mof_Zn	Zn	0.15261	0.04947	0.0755	1.164
Mof_Zn	Zn	0.13734	0.52762	0.09049	1.163
Mof_Zn	Zn	0.84739	0.45053	0.5755	1.164
Mof_Zn	Zn	0.34367	0.74761	0.18583	1.164
Mof_Zn	Zn	0.65261	0.95053	0.4245	1.164
Mof_H 	H 	0.5857	0.8327	0.724	-0.006
Mof_H 	H 	0.8882	0.3843	0.4739	0.078
Mof_H 	H 	0.6473	0.0807	0.9708	0.087
Mof_H 	H 	0.5178	0.8013	0.2768	0.08
Mof_H 	H 	0.9249	0.4198	0.6344	-0.011
Mof_H 	H 	0.8577	0.1944	0.8696	0.073
Mof_H 	H 	0.0857	0.1673	0.776	-0.006
Mof_H 	H 	0.5987	0.6523	0.4058	0.081
Mof_H 	H 	0.4473	0.7683	0.6679	-0.012
Mof_H 	H 	0.3136	0.4006	0.3842	0.1
Mof_H 	H 	0.6945	0.8112	0.6326	-0.01
Mof_H 	H 	0.4523	0.6498	0.8382	0.081
Mof_H 	H 	0.5418	0.6915	0.7289	0.002
Mof_H 	H 	0.9689	0.569	0.1236	-0.011
Mof_H 	H 	0.3882	0.6157	0.0261	0.078
Mof_H 	H 	0.6255	0.771	0.4094	0.079
Mof_H 	H 	0.9013	0.1523	0.5942	0.081
Mof_H 	H 	0.9473	0.2317	0.8321	-0.012
Mof_H 	H 	0.1532	0.1567	0.0655	-0.015
Mof_H 	H 	0.6864	0.0994	0.8842	0.1
Mof_H 	H 	0.1864	0.9006	0.6158	0.1
Mof_H 	H 	0.5311	0.069	0.8764	-0.011
Mof_H 	H 	0.5585	0.5882	0.3271	0.081
Mof_H 	H 	0.3577	0.8056	0.6304	0.073
Mof_H 	H 	0.1228	0.4234	0.0735	-0.011
Mof_H 	H 	0.4415	0.9118	0.8271	0.081
Mof_H 	H 	0.1473	0.9193	0.5292	0.088
Mof_H 	H 	0.8468	0.3433	0.5655	-0.015
Mof_H 	H 	0.5076	0.4481	0.4616	-0.009
Mof_H 	H 	0.1934	0.0915	0.0157	-0.006
Mof_H 	H 	0.4755	0.6559	0.2711	0.078
Mof_H 	H 	0.3527	0.4193	0.4708	0.087
Mof_H 	H 	0.9924	0.9481	0.5384	-0.01
Mof_H 	H 	0.3468	0.6567	0.9345	-0.015
Mof_H 	H 	0.8772	0.0766	0.5735	-0.011
Mof_H 	H 	0.9523	0.3502	0.6618	0.081
Mof_H 	H 	0.6132	0.8483	0.5938	0.081
Mof_H 	H 	0.0076	0.5519	0.0384	-0.009
Mof_H 	H 	0.4822	0.6987	0.7768	0.08
Mof_H 	H 	0.8643	0.0605	0.0081	0.089
Mof_H 	H 	0.5829	0.5135	0.3501	-0.008
Mof_H 	H 	0.8066	0.4085	0.5157	-0.006
Mof_H 	H 	0.1132	0.1517	0.9062	0.081
Mof_H 	H 	0.9415	0.0882	0.6729	0.081
Mof_H 	H 	0.3772	0.9234	0.9265	-0.011
Mof_H 	H 	0.9755	0.3441	0.2289	0.078
Mof_H 	H 	0.8055	0.3112	0.3674	-0.01
Mof_H 	H 	0.0245	0.1559	0.7289	0.078
Mof_H 	H 	0.4143	0.6673	0.224	-0.006
Mof_H 	H 	0.8745	0.271	0.5906	0.079
Mof_H 	H 	0.0751	0.0802	0.1344	-0.011
Mof_H 	H 	0.0829	0.4865	0.1499	-0.008
Mof_H 	H 	0.0477	0.1498	0.1618	0.081
Mof_H 	H 	0.8527	0.5807	0.0292	0.087
Mof_H 	H 	0.9143	0.3327	0.276	-0.006
Mof_H 	H 	0.4582	0.8085	0.2289	0.002
Mof_H 	H 	0.0418	0.3085	0.7711	0.002
Mof_H 	H 	0.4249	0.5802	0.8656	-0.011
Mof_H 	H 	0.1118	0.1157	0.9739	0.079
Mof_H 	H 	0.3055	0.6888	0.1326	-0.01
Mof_H 	H 	0.4013	0.8477	0.9058	0.081
Mof_H 	H 	0.0311	0.931	0.6236	-0.012
Mof_H 	H 	0.4515	0.9637	0.4512	-0.008
Mof_H 	H 	0.4924	0.0519	0.9616	-0.009
Mof_H 	H 	0.6118	0.8843	0.5261	0.078
Mof_H 	H 	0.3868	0.6517	0.0938	0.081
Mof_H 	H 	0.6423	0.6944	0.1304	0.073
Mof_H 	H 	0.3066	0.5915	0.9843	-0.006
Mof_H 	H 	0.6934	0.9085	0.4843	-0.006
Mof_H 	H 	0.9582	0.1915	0.2711	0.002
Mof_H 	H 	0.6357	0.5605	0.9919	0.089
Mof_H 	H 	0.0178	0.1987	0.2232	0.079
Mof_H 	H 	0.9822	0.3013	0.7232	0.08
Mof_H 	H 	0.6532	0.8433	0.4345	-0.015
Mof_H 	H 	0.9171	0.0135	0.6499	-0.008
Mof_H 	H 	0.8868	0.3483	0.4062	0.081
Mof_H 	H 	0.0585	0.4118	0.1729	0.081
Mof_H 	H 	0.5751	0.9198	0.3656	-0.011
Mof_H 	H 	0.4171	0.9865	0.8501	-0.008
Mof_H 	H 	0.4689	0.431	0.3764	-0.011
Mof_H 	H 	0.5245	0.8441	0.7711	0.078
Mof_H 	H 	0.5485	0.5363	0.9512	-0.009
Mof_H 	H 	0.3745	0.729	0.9094	0.079
Mof_H 	H 	0.1357	0.4395	0.5081	0.089
Mof_H 	H 	0.6228	0.5766	0.4265	-0.011
Mof_H 	H 	0.8136	0.5994	0.1158	0.1
Mof_H 	H 	0.0485	0.4637	0.5488	-0.008
Mof_H 	H 	0.9515	0.0363	0.0488	-0.009
Mof_H 	H 	0.5477	0.8502	0.3382	0.081
Mof_H 	H 	0.0527	0.2683	0.3321	-0.012
Mof_H 	H 	0.1423	0.3056	0.3696	0.073
Mof_H 	H 	0.3643	0.9395	0.4919	0.089
Mof_H 	H 	0.1945	0.1888	0.8674	-0.01
Mof_H 	H 	0.1255	0.229	0.0906	0.078
Mof_H 	H 	0.5527	0.7317	0.1679	-0.012
Mof_H 	H 	0.0987	0.3477	0.0942	0.081
Mof_C 	C 	0.1152	0.19884	0.10013	-0.117
Mof_C 	C 	0.6254	0.9148	0.48579	0.066
Mof_C 	C 	0.5774	0.83215	0.60878	-0.112
Mof_C 	C 	0.9763	0.16948	0.89215	0.057
Mof_C 	C 	0.8524	0.5895	0.09954	-0.137
Mof_C 	C 	0.9231	0.14498	0.91638	0.105
Mof_C 	C 	0.9129	0.0423	0.63846	0.067
Mof_C 	C 	0.0722	0.41322	0.15241	-0.117
Mof_C 	C 	0.1254	0.0852	0.01421	0.066
Mof_C 	C 	0.817	0.59289	0.07145	0.063
Mof_C 	C 	0.9962	0.22652	0.23363	-0.107
Mof_C 	C 	0.568	0.56762	0.99066	-0.123
Mof_C 	C 	0.6252	0.80989	0.63194	0.073
Mof_C 	C 	0.5772	0.8999	0.51063	-0.113
Mof_C 	C 	0.6476	0.0895	0.90046	-0.137
Mof_C 	C 	0.9358	0.17649	0.64985	0.101
Mof_C 	C 	0.0729	0.30683	0.36969	-0.111
Mof_C 	C 	0.9271	0.19317	0.86969	-0.112
Mof_C 	C 	0.9228	0.3999	0.48937	-0.112
Mof_C 	C 	0.9222	0.12842	0.63596	0.055
Mof_C 	C 	0.9351	0.30533	0.26493	0.057
Mof_C 	C 	0.4998	0.7276	0.27937	0.046
Mof_C 	C 	0.4226	0.66785	0.10878	-0.112
Mof_C 	C 	0.5038	0.72652	0.76637	-0.107
Mof_C 	C 	0.404	0.87585	0.89373	-0.118
Mof_C 	C 	0.596	0.62415	0.39373	-0.118
Mof_C 	C 	0.5192	0.715	0.15264	0.063
Mof_C 	C 	0.9998	0.2724	0.22063	0.046
Mof_C 	C 	0.5677	0.75796	0.35384	0.103
Mof_C 	C 	0.4962	0.77348	0.26637	-0.107
Mof_C 	C 	0.5862	0.88912	0.3745	0.069
Mof_C 	C 	0.6244	0.0786	0.95107	-0.133
Mof_C 	C 	0.5397	0.72259	0.73788	0.06
Mof_C 	C 	0.932	0.06762	0.00934	-0.123
Mof_C 	C 	0.4308	0.65217	0.85801	-0.119
Mof_C 	C 	0.4763	0.83052	0.60785	0.056
Mof_C 	C 	0.0309	0.27752	0.18933	0.105
Mof_C 	C 	0.2143	0.38992	0.43366	0.092
Mof_C 	C 	0.0292	0.18756	0.73689	-0.109
Mof_C 	C 	0.183	0.90711	0.57145	0.064
Mof_C 	C 	0.4323	0.74204	0.85384	0.103
Mof_C 	C 	0.9234	0.10857	0.9603	0.101
Mof_C 	C 	0.4278	0.91322	0.84759	-0.117
Mof_C 	C 	0.4675	0.4387	0.44553	0.081
Mof_C 	C 	0.3746	0.5852	0.98579	0.066
Mof_C 	C 	0.904	0.12415	0.60627	-0.118
Mof_C 	C 	0.683	0.09289	0.92855	0.064
Mof_C 	C 	0.0692	0.15217	0.14199	-0.119
Mof_C 	C 	0.4271	0.80683	0.63031	-0.112
Mof_C 	C 	0.9278	0.08678	0.65241	-0.117
Mof_C 	C 	0.0769	0.35502	0.41638	0.106
Mof_C 	C 	0.0397	0.27741	0.76212	0.06
Mof_C 	C 	0.9138	0.38912	0.6255	0.069
Mof_C 	C 	0.5551	0.0715	0.896	0.079
Mof_C 	C 	0.084	0.1971	0.12908	0.053
Mof_C 	C 	0.8746	0.4148	0.51421	0.066
Mof_C 	C 	0.9226	0.33215	0.39122	-0.112
Mof_C 	C 	0.9308	0.34783	0.64199	-0.119
Mof_C 	C 	0.4138	0.61088	0.8745	0.069
Mof_C 	C 	0.8756	0.5786	0.04893	-0.133
Mof_C 	C 	0.0871	0.4577	0.13846	0.067
Mof_C 	C 	0.8898	0.07887	0.59403	0.074
Mof_C 	C 	0.0002	0.2276	0.72063	0.045
Mof_C 	C 	0.3687	0.65559	0.9147	0.066
Mof_C 	C 	0.3748	0.69011	0.13194	0.073
Mof_C 	C 	0.9603	0.22259	0.26212	0.06
Mof_C 	C 	0.0192	0.285	0.34736	0.062
Mof_C 	C 	0.4603	0.77741	0.23788	0.06
Mof_C 	C 	0.5766	0.60857	0.0397	0.101
Mof_C 	C 	0.4708	0.68756	0.26311	-0.109
Mof_C 	C 	0.584	0.8029	0.37092	0.053
Mof_C 	C 	0.9808	0.215	0.84736	0.063
Mof_C 	C 	0.0231	0.40771	0.48694	0.051
Mof_C 	C 	0.5871	0.5423	0.36154	0.067
Mof_C 	C 	0.0237	0.33052	0.39215	0.056
Mof_C 	C 	0.4231	0.85502	0.58362	0.106
Mof_C 	C 	0.5692	0.84783	0.35801	-0.119
Mof_C 	C 	0.3848	0.69884	0.89987	-0.117
Mof_C 	C 	0.9708	0.31244	0.23689	-0.109
Mof_C 	C 	0.0642	0.32351	0.14985	0.101
Mof_C 	C 	0.5778	0.62842	0.36404	0.055
Mof_C 	C 	0.9675	0.5613	0.05447	0.08
Mof_C 	C 	0.8748	0.30989	0.36806	0.073
Mof_C 	C 	0.9691	0.22248	0.68933	0.106
Mof_C 	C 	0.0551	0.9285	0.604	0.08
Mof_C 	C 	0.0774	0.16785	0.89122	-0.113
Mof_C 	C 	0.4691	0.77752	0.81067	0.106
Mof_C 	C 	0.432	0.93238	0.49066	-0.123
Mof_C 	C 	0.5231	0.59229	0.01306	0.051
Mof_C 	C 	0.916	0.3029	0.62908	0.053
Mof_C 	C 	0.5325	0.0613	0.94553	0.081
Mof_C 	C 	0.096	0.37585	0.10627	-0.118
Mof_C 	C 	0.416	0.6971	0.87092	0.053
Mof_C 	C 	0.6313	0.84441	0.4147	0.066
Mof_C 	C 	0.4222	0.87158	0.86404	0.055
Mof_C 	C 	0.8687	0.34441	0.5853	0.066
Mof_C 	C 	0.9449	0.5715	0.104	0.079
Mof_C 	C 	0.6102	0.57887	0.40597	0.074
Mof_C 	C 	0.5729	0.69317	0.13031	-0.112
Mof_C 	C 	0.4845	0.94679	0.46645	0.069
Mof_C 	C 	0.4358	0.82351	0.85015	0.101
Mof_C 	C 	0.3756	0.4214	0.45107	-0.133
Mof_C 	C 	0.0649	0.19467	0.76493	0.057
Mof_C 	C 	0.4449	0.4285	0.396	0.079
Mof_C 	C 	0.317	0.40711	0.42855	0.064
Mof_C 	C 	0.7857	0.11008	0.93366	0.092
Mof_C 	C 	0.9845	0.05321	0.03355	0.069
Mof_C 	C 	0.3524	0.4105	0.40046	-0.137
Mof_C 	C 	0.0862	0.11088	0.1255	0.069
Mof_C 	C 	0.5649	0.80533	0.73507	0.057
Mof_C 	C 	0.4769	0.90771	0.51306	0.051
Mof_C 	C 	0.3898	0.92113	0.90597	0.074
Mof_C 	C 	0.9323	0.25796	0.64616	0.103
Mof_C 	C 	0.5292	0.81244	0.76311	-0.109
Mof_C 	C 	0.1313	0.15559	0.0853	0.066
Mof_C 	C 	0.9769	0.09229	0.98694	0.052
Mof_C 	C 	0.5237	0.66948	0.10785	0.056
Mof_C 	C 	0.2857	0.88992	0.56634	0.092
Mof_C 	C 	0.5642	0.67649	0.35015	0.101
Mof_C 	C 	0.4351	0.69467	0.23507	0.057
Mof_C 	C 	0.0325	0.9387	0.55447	0.083
Mof_C 	C 	0.8848	0.30116	0.60013	-0.117
Mof_C 	C 	0.4234	0.89143	0.5397	0.101
Mof_C 	C 	0.0766	0.39143	0.4603	0.101
Mof_C 	C 	0.5155	0.55321	0.96645	0.068
Mof_C 	C 	0.4808	0.785	0.65264	0.063
Mof_C 	C 	0.5002	0.7724	0.77937	0.046
Mof_C 	C 	0.1252	0.19011	0.86806	0.073
Mof_C 	C 	0.1244	0.9214	0.54893	-0.134
Mof_C 	C 	0.7143	0.61008	0.06634	0.092
Mof_C 	C 	0.0155	0.44679	0.53355	0.068
Mof_C 	C 	0.1476	0.9105	0.59954	-0.138
Mof_C 	C 	0.0038	0.27348	0.73363	-0.108
Mof_C 	C 	0.5309	0.72248	0.31067	0.106
Mof_C 	C 	0.068	0.43238	0.50934	-0.122
Mof_C 	C 	0.0677	0.24204	0.14616	0.103
Mof_C 	C 	0.0778	0.37158	0.13596	0.055
Mof_C 	C 	0.4129	0.9577	0.86154	0.067
Mof_C 	C 	0.1102	0.42113	0.09403	0.074
Mof_C 	C 	0.5722	0.58678	0.34759	-0.117
Mof_C 	C 	0.6152	0.80116	0.39987	-0.117
Mof_C 	C 	0.0772	0.1001	0.98937	-0.114
Mof_C 	C 	0.5769	0.64498	0.08362	0.106
Mof_C 	C 	0.4228	0.6001	0.01063	-0.113
Mof_I 	I 	0.22009	0.51215	0.04101	-0.388
Mof_I 	I 	0.78392	0.92148	0.63076	-0.365
Mof_I 	I 	0.71608	0.42148	0.36923	-0.365
Mof_I 	I 	0.43159	0.48165	0.89644	-0.364
Mof_I 	I 	0.93159	0.51835	0.60356	-0.364
Mof_I 	I 	0.06841	0.98165	0.10356	-0.364
Mof_I 	I 	0.21608	0.57852	0.13077	-0.365
Mof_I 	I 	0.16356	0.55502	0.93259	-0.382
Mof_I 	I 	0.80876	0.80363	0.69555	-0.367
Mof_I 	I 	0.56841	0.01835	0.39644	-0.364
Mof_I 	I 	0.72009	0.48785	0.45899	-0.388
Mof_I 	I 	0.66356	0.44498	0.56741	-0.382
Mof_I 	I 	0.30876	0.19637	0.80445	-0.367
Mof_I 	I 	0.83644	0.94498	0.43259	-0.382
Mof_I 	I 	0.32721	0.83767	0.17447	-0.374
Mof_I 	I 	0.19124	0.69637	0.19555	-0.367
Mof_I 	I 	0.82721	0.16233	0.32553	-0.374
Mof_I 	I 	0.33644	0.05502	0.06741	-0.382
Mof_I 	I 	0.17279	0.33767	0.82553	-0.374
Mof_I 	I 	0.67279	0.66233	0.67447	-0.374
Mof_I 	I 	0.77991	0.98785	0.54101	-0.388
Mof_I 	I 	0.69124	0.30363	0.30445	-0.367
Mof_I 	I 	0.27991	0.01215	0.95899	-0.388
Mof_I 	I 	0.28392	0.07852	0.86924	-0.365
Mof_N 	N 	0.974	0.13221	0.94018	-0.138
Mof_N 	N 	0.9212	0.28686	0.34679	-0.273
Mof_N 	N 	0.5713	0.76084	0.72265	-0.269
Mof_N 	N 	0.607	0.53851	0.39028	-0.272
Mof_N 	N 	0.9287	0.26084	0.27735	-0.269
Mof_N 	N 	0.1713	0.40327	0.4588	-0.144
Mof_N 	N 	0.1171	0.11212	0.09799	-0.273
Mof_N 	N 	0.3287	0.90327	0.5412	-0.144
Mof_N 	N 	0.0021	0.55745	0.08175	-0.275
Mof_N 	N 	0.3275	0.8651	0.58816	-0.132
Mof_N 	N 	0.526	0.63221	0.05982	-0.139
Mof_N 	N 	0.0408	0.32201	0.17842	-0.14
Mof_N 	N 	0.9213	0.21524	0.63265	-0.139
Mof_N 	N 	0.0439	0.23642	0.17435	-0.141
Mof_N 	N 	0.8829	0.38788	0.59799	-0.273
Mof_N 	N 	0.5787	0.71524	0.36735	-0.139
Mof_N 	N 	0.4213	0.78476	0.86735	-0.139
Mof_N 	N 	0.026	0.36779	0.44018	-0.139
Mof_N 	N 	0.5439	0.76358	0.32565	-0.141
Mof_N 	N 	0.6725	0.6349	0.08816	-0.132
Mof_N 	N 	0.393	0.96149	0.89028	-0.272
Mof_N 	N 	0.3829	0.61212	0.90201	-0.273
Mof_N 	N 	0.9592	0.17799	0.67842	-0.14
Mof_N 	N 	0.4979	0.05745	0.91825	-0.276
Mof_N 	N 	0.474	0.86779	0.55982	-0.139
Mof_N 	N 	0.5812	0.93798	0.46338	-0.274
Mof_N 	N 	0.4561	0.73642	0.82565	-0.141
Mof_N 	N 	0.9979	0.94255	0.58175	-0.277
Mof_N 	N 	0.1725	0.3651	0.41184	-0.132
Mof_N 	N 	0.6171	0.88788	0.40201	-0.273
Mof_N 	N 	0.5021	0.44255	0.41825	-0.276
Mof_N 	N 	0.4212	0.71314	0.15321	-0.274
Mof_N 	N 	0.893	0.03851	0.60972	-0.272
Mof_N 	N 	0.0787	0.28476	0.13265	-0.139
Mof_N 	N 	0.8275	0.1349	0.91184	-0.132
Mof_N 	N 	0.4592	0.82201	0.82158	-0.14
Mof_N 	N 	0.6713	0.59673	0.0412	-0.144
Mof_N 	N 	0.4287	0.73916	0.22265	-0.269
Mof_N 	N 	0.0812	0.06202	0.03662	-0.275
Mof_N 	N 	0.107	0.46149	0.10972	-0.272
Mof_N 	N 	0.0788	0.21314	0.84679	-0.274
Mof_N 	N 	0.0713	0.23916	0.77735	-0.27
Mof_N 	N 	0.4188	0.56202	0.96338	-0.274
Mof_N 	N 	0.5788	0.78686	0.65321	-0.274
Mof_N 	N 	0.9561	0.26358	0.67435	-0.141
Mof_N 	N 	0.8287	0.09673	0.9588	-0.144
Mof_N 	N 	0.9188	0.43798	0.53662	-0.274
Mof_N 	N 	0.5408	0.67799	0.32158	-0.14
Mof_Zn	Zn	0.34739	0.04947	0.5755	1.164
Mof_Zn	Zn	0.34367	0.24761	0.31417	1.164
Mof_Zn	Zn	0.65633	0.25239	0.81417	1.164
Mof_Zn	Zn	0.84739	0.95053	0.9245	1.164
Mof_Zn	Zn	0.15633	0.74761	0.68583	1.164
Mof_Zn	Zn	0.65261	0.45053	0.0755	1.164
Mof_Zn	Zn	0.86266	0.47238	0.90951	1.164
Mof_Zn	Zn	0.15261	0.54947	0.4245	1.164
Mof_Zn	Zn	0.36266	0.52762	0.59049	1.164
Mof_Zn	Zn	0.84367	0.75239	0.18583	1.164
Mof_Zn	Zn	0.13734	0.02762	0.40951	1.163
Mof_Zn	Zn	0.63734	0.97238	0.09049	1.163
Mof_H 	H 	0.8772	0.5766	0.9265	-0.011
Mof_H 	H 	0.9924	0.4481	0.9616	-0.009
Mof_H 	H 	0.0418	0.8085	0.7289	0.002
Mof_H 	H 	0.0485	0.9637	0.9512	-0.009
Mof_H 	H 	0.8055	0.8112	0.1326	-0.01
Mof_H 	H 	0.9689	0.069	0.3764	-0.012
Mof_H 	H 	0.3868	0.1517	0.4062	0.081
Mof_H 	H 	0.5485	0.0363	0.5488	-0.008
Mof_H 	H 	0.1423	0.8056	0.1304	0.073
Mof_H 	H 	0.5829	0.0135	0.1499	-0.008
Mof_H 	H 	0.1532	0.6567	0.4345	-0.015
Mof_H 	H 	0.8643	0.5605	0.4919	0.089
Mof_H 	H 	0.9013	0.6523	0.9058	0.081
Mof_H 	H 	0.5477	0.3502	0.1618	0.081
Mof_H 	H 	0.5418	0.1915	0.7711	0.002
Mof_H 	H 	0.9515	0.5363	0.4512	-0.008
Mof_H 	H 	0.5076	0.9481	0.0384	-0.009
Mof_H 	H 	0.8745	0.771	0.9094	0.078
Mof_H 	H 	0.6532	0.3433	0.0655	-0.015
Mof_H 	H 	0.5311	0.569	0.6236	-0.011
Mof_H 	H 	0.1473	0.4193	0.9708	0.087
Mof_H 	H 	0.4415	0.4118	0.6729	0.081
Mof_H 	H 	0.5245	0.3441	0.7289	0.078
Mof_H 	H 	0.1132	0.6517	0.5938	0.081
Mof_H 	H 	0.3577	0.3056	0.8696	0.073
Mof_H 	H 	0.5751	0.4198	0.1344	-0.011
Mof_H 	H 	0.0076	0.0519	0.4616	-0.01
Mof_H 	H 	0.8527	0.0807	0.4708	0.088
Mof_H 	H 	0.6132	0.3483	0.9062	0.081
Mof_H 	H 	0.0751	0.5802	0.3656	-0.011
Mof_H 	H 	0.9523	0.8502	0.8382	0.081
Mof_H 	H 	0.6945	0.3112	0.8674	-0.01
Mof_H 	H 	0.3745	0.229	0.5906	0.079
Mof_H 	H 	0.4582	0.3085	0.2711	0.002
Mof_H 	H 	0.8066	0.9085	0.9843	-0.006
Mof_H 	H 	0.0245	0.6559	0.7711	0.078
Mof_H 	H 	0.1228	0.9234	0.4265	-0.011
Mof_H 	H 	0.9822	0.8013	0.7768	0.079
Mof_H 	H 	0.9582	0.6915	0.2289	0.002
Mof_H 	H 	0.4523	0.1498	0.6618	0.081
Mof_H 	H 	0.0311	0.431	0.8764	-0.011
Mof_H 	H 	0.5178	0.3013	0.2232	0.08
Mof_H 	H 	0.9171	0.5135	0.8501	-0.008
Mof_H 	H 	0.0857	0.6673	0.724	-0.006
Mof_H 	H 	0.9415	0.5882	0.8271	0.081
Mof_H 	H 	0.1864	0.4006	0.8842	0.1
Mof_H 	H 	0.9473	0.7317	0.6679	-0.012
Mof_H 	H 	0.6864	0.5994	0.6158	0.1
Mof_H 	H 	0.4755	0.1559	0.2289	0.078
Mof_H 	H 	0.8136	0.0994	0.3842	0.1
Mof_H 	H 	0.4249	0.0802	0.6344	-0.011
Mof_H 	H 	0.3136	0.9006	0.1158	0.1
Mof_H 	H 	0.1118	0.6157	0.5261	0.078
Mof_H 	H 	0.4143	0.1673	0.276	-0.006
Mof_H 	H 	0.6473	0.5807	0.5292	0.087
Mof_H 	H 	0.4924	0.5519	0.5384	-0.009
Mof_H 	H 	0.9755	0.8441	0.2711	0.078
Mof_H 	H 	0.4689	0.931	0.1236	-0.011
Mof_H 	H 	0.8468	0.8433	0.9345	-0.015
Mof_H 	H 	0.4171	0.4865	0.6499	-0.008
Mof_H 	H 	0.5585	0.0882	0.1729	0.081
Mof_H 	H 	0.6118	0.3843	0.9739	0.078
Mof_H 	H 	0.3643	0.4395	0.0081	0.089
Mof_H 	H 	0.1945	0.6888	0.6326	-0.01
Mof_H 	H 	0.3055	0.1888	0.3674	-0.01
Mof_H 	H 	0.6228	0.0766	0.0735	-0.011
Mof_H 	H 	0.1255	0.729	0.4094	0.079
Mof_H 	H 	0.5527	0.2317	0.3321	-0.012
Mof_H 	H 	0.6357	0.0605	0.5081	0.089
Mof_H 	H 	0.0987	0.8477	0.4058	0.081
Mof_H 	H 	0.8577	0.6944	0.6304	0.073
Mof_H 	H 	0.3066	0.0915	0.5157	-0.006
Mof_H 	H 	0.3882	0.1157	0.4739	0.078
Mof_H 	H 	0.9143	0.8327	0.224	-0.006
Mof_H 	H 	0.4515	0.4637	0.0488	-0.009
Mof_H 	H 	0.0477	0.6498	0.3382	0.081
Mof_H 	H 	0.0585	0.9118	0.3271	0.081
Mof_H 	H 	0.8882	0.8843	0.0261	0.079
Mof_H 	H 	0.1357	0.9395	0.9919	0.089
Mof_H 	H 	0.5857	0.3327	0.776	-0.006
Mof_H 	H 	0.5987	0.1523	0.0942	0.081
Mof_H 	H 	0.3527	0.9193	0.0292	0.087
Mof_H 	H 	0.0527	0.7683	0.1679	-0.012
Mof_H 	H 	0.8868	0.8483	0.0938	0.081
Mof_H 	H 	0.9249	0.9198	0.8656	-0.011
Mof_H 	H 	0.4473	0.2683	0.8321	-0.012
Mof_H 	H 	0.0829	0.9865	0.3501	-0.008
Mof_H 	H 	0.6934	0.4085	0.0157	-0.006
Mof_H 	H 	0.6255	0.271	0.0906	0.079
Mof_H 	H 	0.4822	0.1987	0.7232	0.08
Mof_H 	H 	0.1934	0.5915	0.4843	-0.006
Mof_H 	H 	0.3468	0.1567	0.5655	-0.015
Mof_H 	H 	0.3772	0.4234	0.5735	-0.011
Mof_H 	H 	0.6423	0.1944	0.3696	0.073
Mof_H 	H 	0.4013	0.3477	0.5942	0.081
Mof_H 	H 	0.0178	0.6987	0.2768	0.08
Mof_C 	C 	0.0325	0.4387	0.94553	0.08
Mof_C 	C 	0.317	0.90711	0.07145	0.064
Mof_C 	C 	0.7857	0.61008	0.56634	0.092
Mof_C 	C 	0.9675	0.0613	0.44553	0.083
Mof_C 	C 	0.932	0.56762	0.49066	-0.122
Mof_C 	C 	0.7143	0.11008	0.43366	0.092
Mof_C 	C 	0.8746	0.9148	0.98579	0.066
Mof_C 	C 	0.4845	0.44679	0.03355	0.068
Mof_C 	C 	0.0397	0.77741	0.73788	0.06
Mof_C 	C 	0.5772	0.3999	0.98937	-0.113
Mof_C 	C 	0.4603	0.27741	0.26212	0.06
Mof_C 	C 	0.0774	0.66785	0.60878	-0.112
Mof_C 	C 	0.9769	0.59229	0.51306	0.051
Mof_C 	C 	0.0551	0.4285	0.896	0.079
Mof_C 	C 	0.0772	0.6001	0.51063	-0.112
Mof_C 	C 	0.0231	0.90771	0.01306	0.052
Mof_C 	C 	0.1254	0.5852	0.48579	0.066
Mof_C 	C 	0.904	0.62415	0.89373	-0.118
Mof_C 	C 	0.9308	0.84783	0.85801	-0.119
Mof_C 	C 	0.8687	0.84441	0.9147	0.066
Mof_C 	C 	0.6476	0.5895	0.59954	-0.137
Mof_C 	C 	0.4228	0.1001	0.48937	-0.113
Mof_C 	C 	0.8848	0.80116	0.89987	-0.117
Mof_C 	C 	0.9231	0.64498	0.58362	0.106
Mof_C 	C 	0.9271	0.69317	0.63031	-0.111
Mof_C 	C 	0.0038	0.77348	0.76637	-0.107
Mof_C 	C 	0.5325	0.5613	0.55447	0.081
Mof_C 	C 	0.0309	0.77752	0.31067	0.106
Mof_C 	C 	0.4808	0.285	0.84736	0.063
Mof_C 	C 	0.0766	0.89143	0.0397	0.101
Mof_C 	C 	0.9691	0.72248	0.81067	0.105
Mof_C 	C 	0.6244	0.5786	0.54893	-0.133
Mof_C 	C 	0.4222	0.37158	0.63596	0.055
Mof_C 	C 	0.5862	0.38912	0.1255	0.069
Mof_C 	C 	0.5871	0.0423	0.13846	0.067
Mof_C 	C 	0.3687	0.15559	0.5853	0.066
Mof_C 	C 	0.4675	0.9387	0.05447	0.081
Mof_C 	C 	0.1102	0.92113	0.40597	0.074
Mof_C 	C 	0.5397	0.22259	0.76212	0.06
Mof_C 	C 	0.9962	0.72652	0.26637	-0.108
Mof_C 	C 	0.3848	0.19884	0.60013	-0.117
Mof_C 	C 	0.0769	0.85502	0.08362	0.105
Mof_C 	C 	0.5677	0.25796	0.14616	0.103
Mof_C 	C 	0.9323	0.75796	0.85384	0.103
Mof_C 	C 	0.0692	0.65217	0.35801	-0.119
Mof_C 	C 	0.0292	0.68756	0.76311	-0.109
Mof_C 	C 	0.5551	0.5715	0.604	0.079
Mof_C 	C 	0.3748	0.19011	0.36806	0.073
Mof_C 	C 	0.9351	0.80533	0.23507	0.057
Mof_C 	C 	0.0722	0.91322	0.34759	-0.117
Mof_C 	C 	0.0871	0.9577	0.36154	0.067
Mof_C 	C 	0.4691	0.27752	0.68933	0.106
Mof_C 	C 	0.4138	0.11088	0.6255	0.069
Mof_C 	C 	0.4234	0.39143	0.9603	0.101
Mof_C 	C 	0.596	0.12415	0.10627	-0.118
Mof_C 	C 	0.5778	0.12842	0.13596	0.055
Mof_C 	C 	0.3756	0.9214	0.04893	-0.133
Mof_C 	C 	0.5002	0.2724	0.72063	0.046
Mof_C 	C 	0.9222	0.62842	0.86404	0.055
Mof_C 	C 	0.1313	0.65559	0.4147	0.066
Mof_C 	C 	0.0192	0.785	0.15264	0.063
Mof_C 	C 	0.8524	0.0895	0.40046	-0.138
Mof_C 	C 	0.3524	0.9105	0.09954	-0.137
Mof_C 	C 	0.0649	0.69467	0.73507	0.057
Mof_C 	C 	0.8898	0.57887	0.90597	0.074
Mof_C 	C 	0.0002	0.7276	0.77937	0.046
Mof_C 	C 	0.9129	0.5423	0.86154	0.067
Mof_C 	C 	0.6313	0.34441	0.0853	0.066
Mof_C 	C 	0.5722	0.08678	0.15241	-0.117
Mof_C 	C 	0.5766	0.10857	0.4603	0.101
Mof_C 	C 	0.4278	0.41322	0.65241	-0.117
Mof_C 	C 	0.068	0.93238	0.99066	-0.123
Mof_C 	C 	0.1252	0.69011	0.63194	0.073
Mof_C 	C 	0.4323	0.24204	0.64616	0.103
Mof_C 	C 	0.432	0.43238	0.00934	-0.123
Mof_C 	C 	0.4351	0.19467	0.26493	0.057
Mof_C 	C 	0.584	0.3029	0.12908	0.053
Mof_C 	C 	0.0642	0.82351	0.35015	0.101
Mof_C 	C 	0.9998	0.7724	0.27937	0.045
Mof_C 	C 	0.568	0.06762	0.50934	-0.123
Mof_C 	C 	0.4763	0.33052	0.89215	0.056
Mof_C 	C 	0.0677	0.74204	0.35384	0.103
Mof_C 	C 	0.5292	0.31244	0.73689	-0.109
Mof_C 	C 	0.5729	0.19317	0.36969	-0.112
Mof_C 	C 	0.5769	0.14498	0.41638	0.106
Mof_C 	C 	0.4998	0.2276	0.22063	0.046
Mof_C 	C 	0.817	0.09289	0.42855	0.064
Mof_C 	C 	0.916	0.8029	0.87092	0.053
Mof_C 	C 	0.0729	0.80683	0.13031	-0.112
Mof_C 	C 	0.5237	0.16948	0.39215	0.056
Mof_C 	C 	0.9234	0.60857	0.5397	0.101
Mof_C 	C 	0.2143	0.88992	0.06634	0.092
Mof_C 	C 	0.5774	0.33215	0.89122	-0.112
Mof_C 	C 	0.4308	0.15217	0.64199	-0.119
Mof_C 	C 	0.5231	0.09229	0.48694	0.051
Mof_C 	C 	0.183	0.40711	0.92855	0.063
Mof_C 	C 	0.4231	0.35502	0.91638	0.106
Mof_C 	C 	0.6252	0.30989	0.86806	0.073
Mof_C 	C 	0.9603	0.72259	0.23788	0.06
Mof_C 	C 	0.9226	0.83215	0.10878	-0.113
Mof_C 	C 	0.1476	0.4105	0.90046	-0.137
Mof_C 	C 	0.5192	0.215	0.34736	0.063
Mof_C 	C 	0.4358	0.32351	0.64985	0.101
Mof_C 	C 	0.3746	0.0852	0.51421	0.066
Mof_C 	C 	0.9763	0.66948	0.60785	0.056
Mof_C 	C 	0.096	0.87585	0.39373	-0.118
Mof_C 	C 	0.5309	0.22248	0.18933	0.106
Mof_C 	C 	0.1244	0.4214	0.95107	-0.133
Mof_C 	C 	0.8756	0.0786	0.45107	-0.134
Mof_C 	C 	0.404	0.37585	0.60627	-0.118
Mof_C 	C 	0.4449	0.9285	0.104	0.079
Mof_C 	C 	0.5692	0.34783	0.14199	-0.119
Mof_C 	C 	0.6102	0.07887	0.09403	0.074
Mof_C 	C 	0.0237	0.83052	0.10785	0.057
Mof_C 	C 	0.5649	0.30533	0.76493	0.057
Mof_C 	C 	0.4226	0.16785	0.39122	-0.112
Mof_C 	C 	0.9845	0.55321	0.46645	0.068
Mof_C 	C 	0.1152	0.69884	0.39987	-0.117
Mof_C 	C 	0.9278	0.58678	0.84759	-0.117
Mof_C 	C 	0.9808	0.715	0.65264	0.062
Mof_C 	C 	0.683	0.59289	0.57145	0.064
Mof_C 	C 	0.5155	0.05321	0.53355	0.069
Mof_C 	C 	0.6254	0.4148	0.01421	0.066
Mof_C 	C 	0.4129	0.4577	0.63846	0.067
Mof_C 	C 	0.6152	0.30116	0.10013	-0.117
Mof_C 	C 	0.8748	0.80989	0.13194	0.073
Mof_C 	C 	0.0155	0.94679	0.96645	0.069
Mof_C 	C 	0.9138	0.88912	0.8745	0.069
Mof_C 	C 	0.0862	0.61088	0.3745	0.069
Mof_C 	C 	0.9358	0.67649	0.85015	0.101
Mof_C 	C 	0.084	0.6971	0.37092	0.053
Mof_C 	C 	0.5642	0.17649	0.14985	0.101
Mof_C 	C 	0.3898	0.42113	0.59403	0.074
Mof_C 	C 	0.2857	0.38992	0.93366	0.092
Mof_C 	C 	0.9449	0.0715	0.396	0.08
Mof_C 	C 	0.4769	0.40771	0.98694	0.051
Mof_C 	C 	0.4271	0.30683	0.86969	-0.112
Mof_C 	C 	0.4962	0.27348	0.23363	-0.107
Mof_C 	C 	0.9228	0.8999	0.01063	-0.114
Mof_C 	C 	0.5038	0.22652	0.73363	-0.107
Mof_C 	C 	0.9708	0.81244	0.26311	-0.109
Mof_C 	C 	0.4708	0.18756	0.23689	-0.109
Mof_C 	C 	0.0778	0.87158	0.36404	0.055
Mof_C 	C 	0.416	0.1971	0.62908	0.053
Mof_I 	I 	0.16356	0.05502	0.56741	-0.382
Mof_I 	I 	0.66356	0.94498	0.93259	-0.382
Mof_I 	I 	0.43159	0.98165	0.60356	-0.364
Mof_I 	I 	0.82721	0.66233	0.17447	-0.374
Mof_I 	I 	0.28392	0.57852	0.63076	-0.365
Mof_I 	I 	0.21608	0.07852	0.36923	-0.365
Mof_I 	I 	0.83644	0.44498	0.06741	-0.382
Mof_I 	I 	0.32721	0.33767	0.32553	-0.374
Mof_I 	I 	0.67279	0.16233	0.82553	-0.374
Mof_I 	I 	0.78392	0.42148	0.86924	-0.365
Mof_I 	I 	0.69124	0.80363	0.19555	-0.367
Mof_I 	I 	0.77991	0.48785	0.95899	-0.388
Mof_I 	I 	0.93159	0.01835	0.89644	-0.364
Mof_I 	I 	0.33644	0.55502	0.43259	-0.382
Mof_I 	I 	0.19124	0.19637	0.30445	-0.367
Mof_I 	I 	0.80876	0.30363	0.80445	-0.367
Mof_I 	I 	0.17279	0.83767	0.67447	-0.374
Mof_I 	I 	0.56841	0.51835	0.10356	-0.364
Mof_I 	I 	0.22009	0.01215	0.45899	-0.388
Mof_I 	I 	0.72009	0.98785	0.04101	-0.388
Mof_I 	I 	0.30876	0.69637	0.69555	-0.367
Mof_I 	I 	0.27991	0.51215	0.54101	-0.388
Mof_I 	I 	0.71608	0.92148	0.13077	-0.365
Mof_I 	I 	0.06841	0.48165	0.39644	-0.364
Mof_N 	N 	0.5787	0.21524	0.13265	-0.139
Mof_N 	N 	0.6171	0.38788	0.09799	-0.273
Mof_N 	N 	0.3287	0.40327	0.9588	-0.144
Mof_N 	N 	0.526	0.13221	0.44018	-0.139
Mof_N 	N 	0.9592	0.67799	0.82158	-0.14
Mof_N 	N 	0.5812	0.43798	0.03662	-0.274
Mof_N 	N 	0.1725	0.8651	0.08816	-0.132
Mof_N 	N 	0.0408	0.82201	0.32158	-0.14
Mof_N 	N 	0.9212	0.78686	0.15321	-0.274
Mof_N 	N 	0.5408	0.17799	0.17842	-0.14
Mof_N 	N 	0.1171	0.61212	0.40201	-0.273
Mof_N 	N 	0.393	0.46149	0.60972	-0.272
Mof_N 	N 	0.0812	0.56202	0.46338	-0.274
Mof_N 	N 	0.4212	0.21314	0.34679	-0.274
Mof_N 	N 	0.607	0.03851	0.10972	-0.272
Mof_N 	N 	0.4287	0.23916	0.27735	-0.269
Mof_N 	N 	0.3275	0.3651	0.91184	-0.132
Mof_N 	N 	0.1713	0.90327	0.0412	-0.144
Mof_N 	N 	0.8275	0.6349	0.58816	-0.132
Mof_N 	N 	0.0787	0.78476	0.36735	-0.139
Mof_N 	N 	0.974	0.63221	0.55982	-0.139
Mof_N 	N 	0.107	0.96149	0.39028	-0.272
Mof_N 	N 	0.5439	0.26358	0.17435	-0.141
Mof_N 	N 	0.9188	0.93798	0.96338	-0.275
Mof_N 	N 	0.5788	0.28686	0.84679	-0.274
Mof_N 	N 	0.0788	0.71314	0.65321	-0.273
Mof_N 	N 	0.9287	0.76084	0.22265	-0.27
Mof_N 	N 	0.4188	0.06202	0.53662	-0.274
Mof_N 	N 	0.4213	0.28476	0.63265	-0.139
Mof_N 	N 	0.5021	0.94255	0.08175	-0.276
Mof_N 	N 	0.4979	0.55745	0.58175	-0.276
Mof_N 	N 	0.0439	0.73642	0.32565	-0.141
Mof_N 	N 	0.026	0.86779	0.05982	-0.138
Mof_N 	N 	0.4561	0.23642	0.67435	-0.141
Mof_N 	N 	0.8829	0.88788	0.90201	-0.273
Mof_N 	N 	0.9213	0.71524	0.86735	-0.139
Mof_N 	N 	0.6713	0.09673	0.4588	-0.144
Mof_N 	N 	0.3829	0.11212	0.59799	-0.273
Mof_N 	N 	0.9979	0.44255	0.91825	-0.275
Mof_N 	N 	0.474	0.36779	0.94018	-0.139
Mof_N 	N 	0.4592	0.32201	0.67842	-0.14
Mof_N 	N 	0.5713	0.26084	0.77735	-0.269
Mof_N 	N 	0.893	0.53851	0.89028	-0.272
Mof_N 	N 	0.9561	0.76358	0.82565	-0.141
Mof_N 	N 	0.0021	0.05745	0.41825	-0.277
Mof_N 	N 	0.0713	0.73916	0.72265	-0.269
Mof_N 	N 	0.8287	0.59673	0.5412	-0.144
Mof_N 	N 	0.6725	0.1349	0.41184	-0.132
_end
