data_functionalizedCrystal
_audit_creation_method	'EQeq! by Chris Wilmer'
_symmetry_space_group_name_H-M	'P1'
_symmetry_Int_Tables_number	1
_symmetry_cell_setting	triclinic
loop_
_symmetry_equiv_pos_as_xyz
  x,y,z
_cell_length_a	11.6714
_cell_length_b	11.9186
_cell_length_c	12.1094
_cell_angle_alpha	65.096
_cell_angle_beta	79.897
_cell_angle_gamma	72.275
loop_
_atom_site_label
_atom_site_type_symbol
_atom_site_fract_x
_atom_site_fract_y
_atom_site_fract_z
_atom_site_charge
Mof_O 	O 	0.9476	0.0959	0.1255	-0.27
Mof_O 	O 	0.958	0.0724	0.3144	-0.284
Mof_O 	O 	0.9495	0.6431	0.5806	-0.265
Mof_O 	O 	0.9132	0.8489	0.5449	-0.263
Mof_N 	N 	0.0106	0.8451	0.1801	-0.175
Mof_N 	N 	0.0243	0.7201	0.2274	-0.069
Mof_N 	N 	0.0035	0.6808	0.3469	-0.192
Mof_N 	N 	0.1949	0.9996	0.0071	-0.11
Mof_N 	N 	0.7971	0.5411	0.4812	-0.16
Mof_N 	N 	0.1805	0.8678	0.4705	-0.182
Mof_C 	C 	0.979	0.888	0.2731	0.079
Mof_C 	C 	0.9741	0.7828	0.3773	0.054
Mof_C 	C 	0.9597	0.0292	0.2378	0.28
Mof_C 	C 	0.9443	0.7578	0.5116	0.311
Mof_C 	C 	0.2837	0.895	0.027	-0.049
Mof_H 	H 	0.2648	0.8189	0.0433	0.051
Mof_C 	C 	0.4016	0.892	0.025	0.128
Mof_H 	H 	0.4599	0.8149	0.0395	-0.018
Mof_C 	C 	0.4363	0.0007	0.0022	-0.297
Mof_C 	C 	0.3434	0.1084	0.9844	0.107
Mof_H 	H 	0.3592	0.185	0.9717	-0.015
Mof_C 	C 	0.2269	0.104	0.9851	-0.074
Mof_H 	H 	0.1666	0.18	0.969	0.043
Mof_C 	C 	0.7251	0.5254	0.5805	0.098
Mof_H 	H 	0.7594	0.4751	0.6554	0.017
Mof_C 	C 	0.6031	0.5783	0.5807	-0.137
Mof_H 	H 	0.5573	0.5637	0.6541	0.085
Mof_C 	C 	0.5485	0.6531	0.4718	0.062
Mof_C 	C 	0.6237	0.6663	0.3668	-0.138
Mof_H 	H 	0.5921	0.714	0.2904	0.081
Mof_C 	C 	0.7454	0.6083	0.3767	0.095
Mof_H 	H 	0.7937	0.6172	0.3053	0.026
Mof_C 	C 	0.4191	0.7232	0.4674	0.067
Mof_C 	C 	0.3379	0.6803	0.5634	-0.138
Mof_H 	H 	0.3623	0.6023	0.6283	0.081
Mof_C 	C 	0.2213	0.7535	0.5623	0.085
Mof_H 	H 	0.1681	0.7233	0.6276	0.004
Mof_C 	C 	0.257	0.9054	0.3788	0.102
Mof_H 	H 	0.23	0.9825	0.3138	0.009
Mof_C 	C 	0.3759	0.8372	0.373	-0.145
Mof_H 	H 	0.4263	0.8685	0.3052	0.091
Mof_O 	O 	0.0524	0.9041	0.8745	-0.333
Mof_O 	O 	0.042	0.9276	0.6856	-0.355
Mof_O 	O 	0.0505	0.3569	0.4194	-0.36
Mof_O 	O 	0.0868	0.1511	0.4551	-0.36
Mof_N 	N 	0.9894	0.1549	0.8199	-0.033
Mof_N 	N 	0.9757	0.2799	0.7726	-0.025
Mof_N 	N 	0.9965	0.3192	0.6531	-0.048
Mof_N 	N 	0.8051	0.0004	0.9929	-0.215
Mof_N 	N 	0.2029	0.4589	0.5188	-0.195
Mof_N 	N 	0.8195	0.1322	0.5295	-0.151
Mof_C 	C 	0.021	0.112	0.7269	-0.152
Mof_C 	C 	0.0259	0.2172	0.6227	-0.084
Mof_C 	C 	0.0403	0.9708	0.7622	0.393
Mof_C 	C 	0.0557	0.2422	0.4884	0.318
Mof_C 	C 	0.7163	0.105	0.973	0.228
Mof_H 	H 	0.7352	0.1811	0.9567	-0.03
Mof_C 	C 	0.5984	0.108	0.975	-0.393
Mof_H 	H 	0.5401	0.1851	0.9605	0.169
Mof_C 	C 	0.5637	0.9993	0.9978	0.391
Mof_C 	C 	0.6566	0.8916	0.0156	-0.369
Mof_H 	H 	0.6408	0.815	0.0283	0.167
Mof_C 	C 	0.7731	0.896	0.0149	0.244
Mof_H 	H 	0.8334	0.82	0.031	-0.012
Mof_C 	C 	0.2749	0.4746	0.4195	0.1
Mof_H 	H 	0.2406	0.5249	0.3446	-0.003
Mof_C 	C 	0.3969	0.4217	0.4193	-0.152
Mof_H 	H 	0.4427	0.4363	0.3459	0.082
Mof_C 	C 	0.4515	0.3469	0.5282	0.068
Mof_C 	C 	0.3763	0.3337	0.6332	-0.154
Mof_H 	H 	0.4079	0.286	0.7096	0.081
Mof_C 	C 	0.2546	0.3917	0.6233	0.097
Mof_H 	H 	0.2063	0.3828	0.6947	-0.017
Mof_C 	C 	0.5809	0.2768	0.5326	0.055
Mof_C 	C 	0.6621	0.3197	0.4366	-0.126
Mof_H 	H 	0.6377	0.3977	0.3717	0.079
Mof_C 	C 	0.7787	0.2465	0.4377	0.082
Mof_H 	H 	0.8319	0.2767	0.3724	0.042
Mof_C 	C 	0.743	0.0946	0.6212	0.096
Mof_H 	H 	0.77	0.0175	0.6862	0.017
Mof_C 	C 	0.6241	0.1628	0.627	-0.137
Mof_H 	H 	0.5737	0.1315	0.6948	0.079
Mof_Mn	Mn	-0	0	-0	0.569
Mof_Mn	Mn	4.88964e-17	0.5	0.5	0.669
Mof_Mn	Mn	9.77927e-18	0	0.5	0.703
_end
