data_functionalizedCrystal
_audit_creation_method	'EQeq! by Chris Wilmer'
_symmetry_space_group_name_H-M	'P1'
_symmetry_Int_Tables_number	1
_symmetry_cell_setting	triclinic
loop_
_symmetry_equiv_pos_as_xyz
  x,y,z
_cell_length_a	15.5259
_cell_length_b	11.867
_cell_length_c	9.4129
_cell_angle_alpha	90
_cell_angle_beta	113.089
_cell_angle_gamma	90
loop_
_atom_site_label
_atom_site_type_symbol
_atom_site_fract_x
_atom_site_fract_y
_atom_site_fract_z
_atom_site_charge
Mof_O 	O 	0.7843	0.8742	0.8686	-0.323
Mof_O 	O 	0.9232	0.8791	0.8485	-0.289
Mof_O 	O 	0.7537	0.6165	0.8528	-0.337
Mof_O 	O 	0.6077	0.6718	0.7172	-0.274
Mof_H 	H 	0.9216	0.0571	0.1841	0.492
Mof_C 	C 	0.8218	0.827	0.5315	-0.011
Mof_H 	H 	0.8705	0.8784	0.5528	0.077
Mof_C 	C 	0.7949	0.7935	0.6493	-0.024
Mof_C 	C 	0.7228	0.7152	0.6189	-0.033
Mof_C 	C 	0.838	0.8535	0.8028	0.356
Mof_C 	C 	0.6934	0.6661	0.7414	0.33
Mof_O 	O 	0.2843	0.3742	0.8686	-0.354
Mof_O 	O 	0.4232	0.3791	0.8485	-0.341
Mof_O 	O 	0.2537	0.1165	0.8528	-0.36
Mof_O 	O 	0.1077	0.1718	0.7172	-0.307
Mof_H 	H 	0.4216	0.5571	0.1841	0.452
Mof_C 	C 	0.3218	0.327	0.5315	-0.013
Mof_H 	H 	0.3705	0.3784	0.5528	0.056
Mof_C 	C 	0.2949	0.2935	0.6493	-0.04
Mof_C 	C 	0.2228	0.2152	0.6189	-0.049
Mof_C 	C 	0.338	0.3535	0.8028	0.361
Mof_C 	C 	0.1934	0.1661	0.7414	0.333
Mof_O 	O 	0.2157	0.8742	0.1314	-0.427
Mof_O 	O 	0.0768	0.8791	0.1515	-0.407
Mof_O 	O 	0.2463	0.6165	0.1472	-0.406
Mof_O 	O 	0.3923	0.6718	0.2828	-0.301
Mof_H 	H 	0.0784	0.0571	0.8159	0.461
Mof_C 	C 	0.1782	0.827	0.4685	0.003
Mof_H 	H 	0.1295	0.8784	0.4472	0.054
Mof_C 	C 	0.2051	0.7935	0.3507	-0.06
Mof_C 	C 	0.2772	0.7152	0.3811	-0.033
Mof_C 	C 	0.162	0.8535	0.1972	0.385
Mof_C 	C 	0.3066	0.6661	0.2586	0.333
Mof_O 	O 	0.7157	0.3742	0.1314	-0.45
Mof_O 	O 	0.5768	0.3791	0.1515	-0.417
Mof_O 	O 	0.7463	0.1165	0.1472	-0.415
Mof_O 	O 	0.8923	0.1718	0.2828	-0.299
Mof_H 	H 	0.5784	0.5571	0.8159	0.437
Mof_C 	C 	0.6782	0.327	0.4685	0.001
Mof_H 	H 	0.6295	0.3784	0.4472	0.05
Mof_C 	C 	0.7051	0.2935	0.3507	-0.063
Mof_C 	C 	0.7772	0.2152	0.3811	-0.033
Mof_C 	C 	0.662	0.3535	0.1972	0.383
Mof_C 	C 	0.8066	0.1661	0.2586	0.328
Mof_O 	O 	0.2157	0.1258	0.1314	-0.466
Mof_O 	O 	0.0768	0.1209	0.1515	-0.443
Mof_O 	O 	0.2463	0.3835	0.1472	-0.406
Mof_O 	O 	0.3923	0.3282	0.2828	-0.311
Mof_H 	H 	0.0784	0.9429	0.8159	0.515
Mof_C 	C 	0.1782	0.173	0.4685	0.008
Mof_H 	H 	0.1295	0.1216	0.4472	0.026
Mof_C 	C 	0.2051	0.2065	0.3507	-0.078
Mof_C 	C 	0.2772	0.2848	0.3811	-0.032
Mof_C 	C 	0.162	0.1465	0.1972	0.385
Mof_C 	C 	0.3066	0.3339	0.2586	0.33
Mof_O 	O 	0.7157	0.6258	0.1314	-0.449
Mof_O 	O 	0.5768	0.6209	0.1515	-0.412
Mof_O 	O 	0.7463	0.8835	0.1472	-0.372
Mof_O 	O 	0.8923	0.8282	0.2828	-0.287
Mof_H 	H 	0.5784	0.4429	0.8159	0.436
Mof_C 	C 	0.6782	0.673	0.4685	0.01
Mof_H 	H 	0.6295	0.6216	0.4472	0.05
Mof_C 	C 	0.7051	0.7065	0.3507	-0.063
Mof_C 	C 	0.7772	0.7848	0.3811	-0.016
Mof_C 	C 	0.662	0.6465	0.1972	0.387
Mof_C 	C 	0.8066	0.8339	0.2586	0.326
Mof_O 	O 	0.7843	0.1258	0.8686	-0.355
Mof_O 	O 	0.9232	0.1209	0.8485	-0.316
Mof_O 	O 	0.7537	0.3835	0.8528	-0.336
Mof_O 	O 	0.6077	0.3282	0.7172	-0.283
Mof_H 	H 	0.9216	0.9429	0.1841	0.542
Mof_C 	C 	0.8218	0.173	0.5315	-0.008
Mof_H 	H 	0.8705	0.1216	0.5528	0.052
Mof_C 	C 	0.7949	0.2065	0.6493	-0.04
Mof_C 	C 	0.7228	0.2848	0.6189	-0.033
Mof_C 	C 	0.838	0.1465	0.8028	0.355
Mof_C 	C 	0.6934	0.3339	0.7414	0.328
Mof_O 	O 	0.2843	0.6258	0.8686	-0.355
Mof_O 	O 	0.4232	0.6209	0.8485	-0.337
Mof_O 	O 	0.2537	0.8835	0.8528	-0.319
Mof_O 	O 	0.1077	0.8282	0.7172	-0.293
Mof_H 	H 	0.4216	0.4429	0.1841	0.451
Mof_C 	C 	0.3218	0.673	0.5315	-0.003
Mof_H 	H 	0.3705	0.6216	0.5528	0.055
Mof_C 	C 	0.2949	0.7065	0.6493	-0.042
Mof_C 	C 	0.2228	0.7848	0.6189	-0.03
Mof_C 	C 	0.338	0.6465	0.8028	0.366
Mof_C 	C 	0.1934	0.8339	0.7414	0.332
Mof_Ni	Ni	0.77296	0	0.00569	1.064
Mof_O 	O 	0.9169	0	0.13	-1.189
Mof_Ni	Ni	0.27296	0.5	0.00569	1.084
Mof_O 	O 	0.4169	0.5	0.13	-1.081
Mof_Ni	Ni	0.22704	7.91152e-33	0.99431	1.148
Mof_O 	O 	0.0831	0	0.87	-1.116
Mof_Ni	Ni	0.72704	0.5	0.99431	1.172
Mof_O 	O 	0.5831	0.5	0.87	-0.985
Mof_Ni	Ni	-0	0	-0	1.084
Mof_Ni	Ni	0.5	0.5	-0	1.124
_end
