data_functionalizedCrystal
_audit_creation_method	'EQeq! by Chris Wilmer'
_symmetry_space_group_name_H-M	'P1'
_symmetry_Int_Tables_number	1
_symmetry_cell_setting	triclinic
loop_
_symmetry_equiv_pos_as_xyz
  x,y,z
_cell_length_a	9.812
_cell_length_b	25.793
_cell_length_c	11.777
_cell_angle_alpha	90
_cell_angle_beta	104.68
_cell_angle_gamma	90
loop_
_atom_site_label
_atom_site_type_symbol
_atom_site_fract_x
_atom_site_fract_y
_atom_site_fract_z
_atom_site_charge
Mof_Y 	Y 	0.20567	0.10155	0.29793	0.637
Mof_Fe	Fe	0.32022	0.89422	0.33805	0.765
Mof_O 	O 	0.5097	0.9052	0.1988	-0.127
Mof_N 	N 	0.4338	0.8995	0.2547	-0.206
Mof_N 	N 	0.2677	0.0115	0.3376	-0.168
Mof_N 	N 	0.5614	0.896	0.5641	-0.199
Mof_N 	N 	0.3085	0.7744	0.34	-0.321
Mof_N 	N 	0.0569	0.8868	0.1336	-0.245
Mof_C 	C 	0.291	0.9677	0.3404	-0.123
Mof_C 	C 	0.4684	0.8958	0.4825	-0.158
Mof_C 	C 	0.3174	0.8186	0.3421	-0.24
Mof_C 	C 	0.1555	0.8901	0.2104	-0.204
Mof_N 	N 	0.0216	0.1692	0.2718	-0.275
Mof_C 	C 	0.9681	0.202	0.3129	-0.248
Mof_Rb	Rb	0.5445	0.72278	0.51481	2.754
Mof_Fe	Fe	0.11229	0.74474	0.61109	0.768
Mof_O 	O 	0.0178	0.7869	0.3877	-0.187
Mof_N 	N 	0.0617	0.7714	0.4787	-0.217
Mof_N 	N 	0.2451	0.6509	0.5178	-0.2
Mof_N 	N 	0.8342	0.6841	0.5517	-0.291
Mof_C 	C 	0.1963	0.6848	0.5552	-0.233
Mof_C 	C 	0.9364	0.7065	0.5783	-0.162
Mof_N 	N 	0.1074	0.8936	0.4911	-0.1
Mof_C 	C 	0.189	0.8929	0.4358	-0.138
Mof_N 	N 	0.4081	0.7944	0.6855	-0.218
Mof_C 	C 	0.2991	0.7769	0.6593	-0.248
Mof_N 	N 	0.6843	0.8088	0.3532	-0.194
Mof_C 	C 	0.659	0.7889	0.2644	-0.206
Mof_Y 	Y 	0.29433	0.60155	0.20207	0.631
Mof_Fe	Fe	0.17978	0.39422	0.16195	0.764
Mof_O 	O 	0.9903	0.4052	0.3012	-0.126
Mof_N 	N 	0.0662	0.3995	0.2453	-0.206
Mof_N 	N 	0.2323	0.5115	0.1624	-0.169
Mof_N 	N 	0.9386	0.396	0.9359	-0.203
Mof_N 	N 	0.1915	0.2744	0.16	-0.318
Mof_N 	N 	0.4431	0.3868	0.3664	-0.245
Mof_C 	C 	0.209	0.4677	0.1596	-0.122
Mof_C 	C 	0.0316	0.3958	0.0175	-0.155
Mof_C 	C 	0.1826	0.3186	0.1579	-0.238
Mof_C 	C 	0.3445	0.3901	0.2896	-0.204
Mof_N 	N 	0.4784	0.6692	0.2282	-0.278
Mof_C 	C 	0.5319	0.702	0.1871	-0.249
Mof_Rb	Rb	0.9555	0.22278	0.98519	2.705
Mof_Fe	Fe	0.38771	0.24474	0.88891	0.769
Mof_O 	O 	0.4822	0.2869	0.1123	-0.184
Mof_N 	N 	0.4383	0.2714	0.0213	-0.215
Mof_N 	N 	0.2549	0.1509	0.9822	-0.196
Mof_N 	N 	0.6658	0.1841	0.9483	-0.289
Mof_C 	C 	0.3037	0.1848	0.9448	-0.23
Mof_C 	C 	0.5636	0.2065	0.9217	-0.167
Mof_N 	N 	0.3926	0.3936	0.0089	-0.099
Mof_C 	C 	0.311	0.3929	0.0642	-0.138
Mof_N 	N 	0.0919	0.2944	0.8145	-0.213
Mof_C 	C 	0.2009	0.2769	0.8407	-0.245
Mof_N 	N 	0.8157	0.3088	0.1468	-0.191
Mof_C 	C 	0.841	0.2889	0.2356	-0.205
Mof_Y 	Y 	0.79433	0.89845	0.70207	0.637
Mof_Fe	Fe	0.67978	0.10578	0.66195	0.765
Mof_O 	O 	0.4903	0.0948	0.8012	-0.127
Mof_N 	N 	0.5662	0.1005	0.7453	-0.206
Mof_N 	N 	0.7323	0.9885	0.6624	-0.168
Mof_N 	N 	0.4386	0.104	0.4359	-0.199
Mof_N 	N 	0.6915	0.2256	0.66	-0.321
Mof_N 	N 	0.9431	0.1132	0.8664	-0.245
Mof_C 	C 	0.709	0.0323	0.6596	-0.123
Mof_C 	C 	0.5316	0.1042	0.5175	-0.158
Mof_C 	C 	0.6826	0.1814	0.6579	-0.24
Mof_C 	C 	0.8445	0.1099	0.7896	-0.204
Mof_N 	N 	0.9784	0.8308	0.7282	-0.275
Mof_C 	C 	0.0319	0.798	0.6871	-0.248
Mof_Rb	Rb	0.4555	0.27722	0.48519	2.754
Mof_Fe	Fe	0.88771	0.25526	0.38891	0.768
Mof_O 	O 	0.9822	0.2131	0.6123	-0.187
Mof_N 	N 	0.9383	0.2286	0.5213	-0.217
Mof_N 	N 	0.7549	0.3491	0.4822	-0.2
Mof_N 	N 	0.1658	0.3159	0.4483	-0.291
Mof_C 	C 	0.8037	0.3152	0.4448	-0.233
Mof_C 	C 	0.0636	0.2935	0.4217	-0.162
Mof_N 	N 	0.8926	0.1064	0.5089	-0.1
Mof_C 	C 	0.811	0.1071	0.5642	-0.138
Mof_N 	N 	0.5919	0.2056	0.3145	-0.218
Mof_C 	C 	0.7009	0.2231	0.3407	-0.248
Mof_N 	N 	0.3157	0.1912	0.6468	-0.194
Mof_C 	C 	0.341	0.2111	0.7356	-0.206
Mof_Y 	Y 	0.70567	0.39845	0.79793	0.631
Mof_Fe	Fe	0.82022	0.60578	0.83805	0.764
Mof_O 	O 	0.0097	0.5948	0.6988	-0.126
Mof_N 	N 	0.9338	0.6005	0.7547	-0.206
Mof_N 	N 	0.7677	0.4885	0.8376	-0.169
Mof_N 	N 	0.0614	0.604	0.0641	-0.203
Mof_N 	N 	0.8085	0.7256	0.84	-0.318
Mof_N 	N 	0.5569	0.6132	0.6336	-0.245
Mof_C 	C 	0.791	0.5323	0.8404	-0.122
Mof_C 	C 	0.9684	0.6042	0.9825	-0.155
Mof_C 	C 	0.8174	0.6814	0.8421	-0.238
Mof_C 	C 	0.6555	0.6099	0.7104	-0.204
Mof_N 	N 	0.5216	0.3308	0.7718	-0.278
Mof_C 	C 	0.4681	0.298	0.8129	-0.249
Mof_Rb	Rb	0.0445	0.77722	0.01481	2.705
Mof_Fe	Fe	0.61229	0.75526	0.11109	0.769
Mof_O 	O 	0.5178	0.7131	0.8877	-0.184
Mof_N 	N 	0.5617	0.7286	0.9787	-0.215
Mof_N 	N 	0.7451	0.8491	0.0178	-0.196
Mof_N 	N 	0.3342	0.8159	0.0517	-0.289
Mof_C 	C 	0.6963	0.8152	0.0552	-0.23
Mof_C 	C 	0.4364	0.7935	0.0783	-0.167
Mof_N 	N 	0.6074	0.6064	0.9911	-0.099
Mof_C 	C 	0.689	0.6071	0.9358	-0.138
Mof_N 	N 	0.9081	0.7056	0.1855	-0.213
Mof_C 	C 	0.7991	0.7231	0.1593	-0.245
Mof_N 	N 	0.1843	0.6912	0.8532	-0.191
Mof_C 	C 	0.159	0.7111	0.7644	-0.205
_end
