data_functionalizedCrystal
_audit_creation_method	'EQeq! by Chris Wilmer'
_symmetry_space_group_name_H-M	'P1'
_symmetry_Int_Tables_number	1
_symmetry_cell_setting	triclinic
loop_
_symmetry_equiv_pos_as_xyz
  x,y,z
_cell_length_a	11.8013
_cell_length_b	5.5827
_cell_length_c	22.723
_cell_angle_alpha	90
_cell_angle_beta	100.092
_cell_angle_gamma	90
loop_
_atom_site_label
_atom_site_type_symbol
_atom_site_fract_x
_atom_site_fract_y
_atom_site_fract_z
_atom_site_charge
Mof_Ca	Ca	0.63783	0.24423	0.22287	1.554
Mof_S 	S 	0.40115	0.0364	0.10805	0.317
Mof_O 	O 	0.26576	0.4753	0.82829	-0.511
Mof_O 	O 	0.26177	0.0841	0.8092	-0.579
Mof_O 	O 	0.41854	0.7816	0.11215	-0.249
Mof_O 	O 	0.49592	0.1958	0.13092	-0.357
Mof_O 	O 	0.98569	0.4762	0.24494	-0.474
Mof_O 	O 	0.95642	0.0815	0.2539	-0.484
Mof_C 	C 	0.27611	0.2609	0.84485	0.438
Mof_C 	C 	0.30225	0.2075	0.9109	-0.153
Mof_C 	C 	0.35575	0.3805	0.95024	0.054
Mof_H 	H 	0.3731	0.5328	0.9354	0.02
Mof_C 	C 	0.38409	0.3329	0.01096	-0.09
Mof_H 	H 	0.4211	0.4507	0.0378	0.082
Mof_C 	C 	0.35719	0.1088	0.03165	-0.002
Mof_C 	C 	0.2998	0.9367	0.99329	-0.083
Mof_H 	H 	0.2794	0.7873	0.0085	0.065
Mof_C 	C 	0.27283	0.986	0.93246	0.049
Mof_H 	H 	0.2345	0.8694	0.9057	0.011
Mof_C 	C 	0.2838	0.1089	0.14322	-0.017
Mof_C 	C 	0.28144	0.3287	0.17217	-0.077
Mof_H 	H 	0.3413	0.4426	0.1723	0.069
Mof_C 	C 	0.18884	0.3764	0.20083	0.039
Mof_H 	H 	0.1847	0.526	0.2203	0.029
Mof_C 	C 	0.10213	0.2075	0.20137	-0.154
Mof_C 	C 	0.00597	0.2597	0.23614	0.459
Mof_C 	C 	0.10561	0.9894	0.1719	0.05
Mof_H 	H 	0.0463	0.8746	0.1723	0.01
Mof_C 	C 	0.19604	0.9401	0.14189	-0.08
Mof_H 	H 	0.1981	0.7938	0.1208	0.064
Mof_Ca	Ca	0.86217	0.74423	0.27713	1.554
Mof_S 	S 	0.09885	0.5364	0.39195	0.318
Mof_O 	O 	0.23424	0.9753	0.67171	-0.511
Mof_O 	O 	0.23823	0.5841	0.6908	-0.579
Mof_O 	O 	0.08146	0.2816	0.38785	-0.252
Mof_O 	O 	0.00408	0.6958	0.36908	-0.356
Mof_O 	O 	0.51431	0.9762	0.25506	-0.475
Mof_O 	O 	0.54358	0.5815	0.2461	-0.487
Mof_C 	C 	0.22389	0.7609	0.65515	0.439
Mof_C 	C 	0.19775	0.7075	0.5891	-0.156
Mof_C 	C 	0.14425	0.8805	0.54976	0.059
Mof_H 	H 	0.1269	0.0328	0.5646	0.016
Mof_C 	C 	0.11591	0.8329	0.48904	-0.093
Mof_H 	H 	0.0789	0.9507	0.4622	0.084
Mof_C 	C 	0.14281	0.6088	0.46835	0.002
Mof_C 	C 	0.2002	0.4367	0.50671	-0.088
Mof_H 	H 	0.2206	0.2873	0.4915	0.066
Mof_C 	C 	0.22717	0.486	0.56754	0.051
Mof_H 	H 	0.2655	0.3694	0.5943	0.01
Mof_C 	C 	0.2162	0.6089	0.35678	-0.012
Mof_C 	C 	0.21856	0.8287	0.32783	-0.082
Mof_H 	H 	0.1587	0.9426	0.3277	0.072
Mof_C 	C 	0.31116	0.8764	0.29917	0.046
Mof_H 	H 	0.3153	0.026	0.2797	0.025
Mof_C 	C 	0.39787	0.7075	0.29863	-0.154
Mof_C 	C 	0.49403	0.7597	0.26386	0.464
Mof_C 	C 	0.39439	0.4894	0.3281	0.048
Mof_H 	H 	0.4537	0.3746	0.3277	0.009
Mof_C 	C 	0.30396	0.4401	0.35811	-0.084
Mof_H 	H 	0.3019	0.2938	0.3792	0.065
Mof_Ca	Ca	0.36217	0.75577	0.77713	1.555
Mof_S 	S 	0.59885	0.9636	0.89195	0.318
Mof_O 	O 	0.73424	0.5247	0.17171	-0.511
Mof_O 	O 	0.73823	0.9159	0.1908	-0.579
Mof_O 	O 	0.58146	0.2184	0.88785	-0.249
Mof_O 	O 	0.50408	0.8042	0.86908	-0.357
Mof_O 	O 	0.01431	0.5238	0.75506	-0.474
Mof_O 	O 	0.04358	0.9185	0.7461	-0.484
Mof_C 	C 	0.72389	0.7391	0.15515	0.438
Mof_C 	C 	0.69775	0.7925	0.0891	-0.153
Mof_C 	C 	0.64425	0.6195	0.04976	0.054
Mof_H 	H 	0.6269	0.4672	0.0646	0.02
Mof_C 	C 	0.61591	0.6671	0.98904	-0.09
Mof_H 	H 	0.5789	0.5493	0.9622	0.082
Mof_C 	C 	0.64281	0.8912	0.96835	-0.002
Mof_C 	C 	0.7002	0.0633	0.00671	-0.083
Mof_H 	H 	0.7206	0.2127	0.9915	0.065
Mof_C 	C 	0.72717	0.014	0.06754	0.049
Mof_H 	H 	0.7655	0.1306	0.0943	0.011
Mof_C 	C 	0.7162	0.8911	0.85678	-0.017
Mof_C 	C 	0.71856	0.6713	0.82783	-0.077
Mof_H 	H 	0.6587	0.5574	0.8277	0.069
Mof_C 	C 	0.81116	0.6236	0.79917	0.039
Mof_H 	H 	0.8153	0.474	0.7797	0.029
Mof_C 	C 	0.89787	0.7925	0.79863	-0.154
Mof_C 	C 	0.99403	0.7403	0.76386	0.459
Mof_C 	C 	0.89439	0.0106	0.8281	0.05
Mof_H 	H 	0.9537	0.1254	0.8277	0.01
Mof_C 	C 	0.80396	0.0599	0.85811	-0.08
Mof_H 	H 	0.8019	0.2062	0.8792	0.064
Mof_Ca	Ca	0.13783	0.25577	0.72287	1.554
Mof_S 	S 	0.90115	0.4636	0.60805	0.318
Mof_O 	O 	0.76576	0.0247	0.32829	-0.511
Mof_O 	O 	0.76177	0.4159	0.3092	-0.579
Mof_O 	O 	0.91854	0.7184	0.61215	-0.252
Mof_O 	O 	0.99592	0.3042	0.63092	-0.356
Mof_O 	O 	0.48569	0.0238	0.74494	-0.475
Mof_O 	O 	0.45642	0.4185	0.7539	-0.487
Mof_C 	C 	0.77611	0.2391	0.34485	0.439
Mof_C 	C 	0.80225	0.2925	0.4109	-0.156
Mof_C 	C 	0.85575	0.1195	0.45024	0.059
Mof_H 	H 	0.8731	0.9672	0.4354	0.016
Mof_C 	C 	0.88409	0.1671	0.51096	-0.093
Mof_H 	H 	0.9211	0.0493	0.5378	0.084
Mof_C 	C 	0.85719	0.3912	0.53165	0.002
Mof_C 	C 	0.7998	0.5633	0.49329	-0.088
Mof_H 	H 	0.7794	0.7127	0.5085	0.066
Mof_C 	C 	0.77283	0.514	0.43246	0.051
Mof_H 	H 	0.7345	0.6306	0.4057	0.01
Mof_C 	C 	0.7838	0.3911	0.64322	-0.012
Mof_C 	C 	0.78144	0.1713	0.67217	-0.082
Mof_H 	H 	0.8413	0.0574	0.6723	0.072
Mof_C 	C 	0.68884	0.1236	0.70083	0.046
Mof_H 	H 	0.6847	0.974	0.7203	0.025
Mof_C 	C 	0.60213	0.2925	0.70137	-0.154
Mof_C 	C 	0.50597	0.2403	0.73614	0.464
Mof_C 	C 	0.60561	0.5106	0.6719	0.048
Mof_H 	H 	0.5463	0.6254	0.6723	0.009
Mof_C 	C 	0.69604	0.5599	0.64189	-0.084
Mof_H 	H 	0.6981	0.7062	0.6208	0.065
_end
