data_functionalizedCrystal
_audit_creation_method	'EQeq! by Chris Wilmer'
_symmetry_space_group_name_H-M	'P1'
_symmetry_Int_Tables_number	1
_symmetry_cell_setting	triclinic
loop_
_symmetry_equiv_pos_as_xyz
  x,y,z
_cell_length_a	18.777
_cell_length_b	23.3593
_cell_length_c	30.4231
_cell_angle_alpha	90
_cell_angle_beta	90
_cell_angle_gamma	90
loop_
_atom_site_label
_atom_site_type_symbol
_atom_site_fract_x
_atom_site_fract_y
_atom_site_fract_z
_atom_site_charge
Mof_Cu	Cu	0.23583	0.36023	0.12145	0.823
Mof_N 	N 	0.2878	0.40542	0.1673	-0.259
Mof_N 	N 	0.4371	0.58827	0.32842	-0.26
Mof_N 	N 	0.2292	0.27642	0.1217	-0.265
Mof_C 	C 	0.3266	0.4513	0.15647	0.08
Mof_H 	H 	0.3336	0.459	0.1268	-0.041
Mof_C 	C 	0.3564	0.4875	0.18631	-0.161
Mof_H 	H 	0.3822	0.5191	0.1767	0.079
Mof_C 	C 	0.2809	0.3951	0.21022	0.088
Mof_H 	H 	0.2555	0.3628	0.2187	-0.027
Mof_C 	C 	0.309	0.4291	0.24246	-0.149
Mof_H 	H 	0.3019	0.42	0.2719	0.077
Mof_C 	C 	0.3484	0.4774	0.23094	0.065
Mof_C 	C 	0.3795	0.5151	0.26475	0.042
Mof_C 	C 	0.4042	0.4946	0.30455	-0.136
Mof_H 	H 	0.402	0.4557	0.3107	0.069
Mof_C 	C 	0.4321	0.5315	0.33479	0.059
Mof_H 	H 	0.4484	0.5166	0.3613	-0.016
Mof_C 	C 	0.3856	0.5741	0.25745	-0.132
Mof_H 	H 	0.3709	0.5898	0.2309	0.067
Mof_C 	C 	0.4136	0.6085	0.28969	0.046
Mof_H 	H 	0.4164	0.6477	0.2845	-0.029
Mof_C 	C 	0.2499	0.2454	0.08708	0.073
Mof_H 	H 	0.2644	0.2644	0.0618	-0.037
Mof_C 	C 	0.2506	0.1863	0.08723	-0.145
Mof_H 	H 	0.2651	0.1664	0.0623	0.069
Mof_C 	C 	0.2077	0.2476	0.15745	0.074
Mof_H 	H 	0.1918	0.2684	0.1816	-0.032
Mof_C 	C 	0.2079	0.1889	0.15999	-0.142
Mof_H 	H 	0.1935	0.1709	0.1857	0.071
Mof_C 	C 	0.2296	0.1568	0.12447	0.054
Mof_Cu	Cu	0.23583	0.86023	0.62145	0.822
Mof_N 	N 	0.2878	0.90542	0.6673	-0.26
Mof_N 	N 	0.4371	0.08827	0.82842	-0.262
Mof_N 	N 	0.2292	0.77642	0.6217	-0.266
Mof_C 	C 	0.3266	0.9513	0.65647	0.079
Mof_H 	H 	0.3336	0.959	0.6268	-0.042
Mof_C 	C 	0.3564	0.9875	0.68631	-0.161
Mof_H 	H 	0.3822	0.0191	0.6767	0.08
Mof_C 	C 	0.2809	0.8951	0.71022	0.088
Mof_H 	H 	0.2555	0.8628	0.7187	-0.027
Mof_C 	C 	0.309	0.9291	0.74246	-0.149
Mof_H 	H 	0.3019	0.92	0.7719	0.077
Mof_C 	C 	0.3484	0.9774	0.73094	0.064
Mof_C 	C 	0.3795	0.0151	0.76475	0.043
Mof_C 	C 	0.4042	0.9946	0.80455	-0.138
Mof_H 	H 	0.402	0.9557	0.8107	0.069
Mof_C 	C 	0.4321	0.0315	0.83479	0.06
Mof_H 	H 	0.4484	0.0166	0.8613	-0.017
Mof_C 	C 	0.3856	0.0741	0.75745	-0.133
Mof_H 	H 	0.3709	0.0898	0.7309	0.068
Mof_C 	C 	0.4136	0.1085	0.78969	0.047
Mof_H 	H 	0.4164	0.1477	0.7845	-0.029
Mof_C 	C 	0.2499	0.7454	0.58708	0.073
Mof_H 	H 	0.2644	0.7644	0.5618	-0.036
Mof_C 	C 	0.2506	0.6863	0.58723	-0.145
Mof_H 	H 	0.2651	0.6664	0.5623	0.069
Mof_C 	C 	0.2077	0.7476	0.65745	0.074
Mof_H 	H 	0.1918	0.7684	0.6816	-0.032
Mof_C 	C 	0.2079	0.6889	0.65999	-0.142
Mof_H 	H 	0.1935	0.6709	0.6857	0.071
Mof_C 	C 	0.2296	0.6568	0.62447	0.055
Mof_Cu	Cu	0.73583	0.36023	0.62145	0.822
Mof_N 	N 	0.7878	0.40542	0.6673	-0.26
Mof_N 	N 	0.9371	0.58827	0.82842	-0.261
Mof_N 	N 	0.7292	0.27642	0.6217	-0.267
Mof_C 	C 	0.8266	0.4513	0.65647	0.079
Mof_H 	H 	0.8336	0.459	0.6268	-0.042
Mof_C 	C 	0.8564	0.4875	0.68631	-0.161
Mof_H 	H 	0.8822	0.5191	0.6767	0.079
Mof_C 	C 	0.7809	0.3951	0.71022	0.088
Mof_H 	H 	0.7555	0.3628	0.7187	-0.027
Mof_C 	C 	0.809	0.4291	0.74246	-0.149
Mof_H 	H 	0.8019	0.42	0.7719	0.077
Mof_C 	C 	0.8484	0.4774	0.73094	0.065
Mof_C 	C 	0.8795	0.5151	0.76475	0.042
Mof_C 	C 	0.9042	0.4946	0.80455	-0.136
Mof_H 	H 	0.902	0.4557	0.8107	0.069
Mof_C 	C 	0.9321	0.5315	0.83479	0.059
Mof_H 	H 	0.9484	0.5166	0.8613	-0.016
Mof_C 	C 	0.8856	0.5741	0.75745	-0.132
Mof_H 	H 	0.8709	0.5898	0.7309	0.067
Mof_C 	C 	0.9136	0.6085	0.78969	0.047
Mof_H 	H 	0.9164	0.6477	0.7845	-0.029
Mof_C 	C 	0.7499	0.2454	0.58708	0.073
Mof_H 	H 	0.7644	0.2644	0.5618	-0.037
Mof_C 	C 	0.7506	0.1863	0.58723	-0.145
Mof_H 	H 	0.7651	0.1664	0.5623	0.069
Mof_C 	C 	0.7077	0.2476	0.65745	0.074
Mof_H 	H 	0.6918	0.2684	0.6816	-0.032
Mof_C 	C 	0.7079	0.1889	0.65999	-0.142
Mof_H 	H 	0.6935	0.1709	0.6857	0.071
Mof_C 	C 	0.7296	0.1568	0.62447	0.055
Mof_Cu	Cu	0.73583	0.86023	0.12145	0.822
Mof_N 	N 	0.7878	0.90542	0.1673	-0.26
Mof_N 	N 	0.9371	0.08827	0.32842	-0.261
Mof_N 	N 	0.7292	0.77642	0.1217	-0.266
Mof_C 	C 	0.8266	0.9513	0.15647	0.079
Mof_H 	H 	0.8336	0.959	0.1268	-0.042
Mof_C 	C 	0.8564	0.9875	0.18631	-0.16
Mof_H 	H 	0.8822	0.0191	0.1767	0.079
Mof_C 	C 	0.7809	0.8951	0.21022	0.088
Mof_H 	H 	0.7555	0.8628	0.2187	-0.027
Mof_C 	C 	0.809	0.9291	0.24246	-0.15
Mof_H 	H 	0.8019	0.92	0.2719	0.077
Mof_C 	C 	0.8484	0.9774	0.23094	0.066
Mof_C 	C 	0.8795	0.0151	0.26475	0.039
Mof_C 	C 	0.9042	0.9946	0.30455	-0.132
Mof_H 	H 	0.902	0.9557	0.3107	0.068
Mof_C 	C 	0.9321	0.0315	0.33479	0.056
Mof_H 	H 	0.9484	0.0166	0.3613	-0.016
Mof_C 	C 	0.8856	0.0741	0.25745	-0.13
Mof_H 	H 	0.8709	0.0898	0.2309	0.067
Mof_C 	C 	0.9136	0.1085	0.28969	0.045
Mof_H 	H 	0.9164	0.1477	0.2845	-0.028
Mof_C 	C 	0.7499	0.7454	0.08708	0.073
Mof_H 	H 	0.7644	0.7644	0.0618	-0.036
Mof_C 	C 	0.7506	0.6863	0.08723	-0.145
Mof_H 	H 	0.7651	0.6664	0.0623	0.069
Mof_C 	C 	0.7077	0.7476	0.15745	0.074
Mof_H 	H 	0.6918	0.7684	0.1816	-0.032
Mof_C 	C 	0.7079	0.6889	0.15999	-0.142
Mof_H 	H 	0.6935	0.6709	0.1857	0.071
Mof_C 	C 	0.7296	0.6568	0.12447	0.055
Mof_Cu	Cu	0.23583	0.38977	0.62855	0.822
Mof_N 	N 	0.2878	0.34458	0.5827	-0.26
Mof_N 	N 	0.4371	0.16173	0.42158	-0.261
Mof_N 	N 	0.2292	0.47358	0.6283	-0.266
Mof_C 	C 	0.3266	0.2987	0.59353	0.079
Mof_H 	H 	0.3336	0.291	0.6232	-0.042
Mof_C 	C 	0.3564	0.2625	0.56369	-0.161
Mof_H 	H 	0.3822	0.2309	0.5733	0.079
Mof_C 	C 	0.2809	0.3549	0.53978	0.088
Mof_H 	H 	0.2555	0.3872	0.5313	-0.027
Mof_C 	C 	0.309	0.3209	0.50754	-0.149
Mof_H 	H 	0.3019	0.33	0.4781	0.077
Mof_C 	C 	0.3484	0.2726	0.51906	0.065
Mof_C 	C 	0.3795	0.2349	0.48525	0.042
Mof_C 	C 	0.4042	0.2554	0.44545	-0.136
Mof_H 	H 	0.402	0.2943	0.4393	0.069
Mof_C 	C 	0.4321	0.2185	0.41521	0.059
Mof_H 	H 	0.4484	0.2334	0.3887	-0.016
Mof_C 	C 	0.3856	0.1759	0.49255	-0.132
Mof_H 	H 	0.3709	0.1602	0.5191	0.067
Mof_C 	C 	0.4136	0.1415	0.46031	0.047
Mof_H 	H 	0.4164	0.1023	0.4655	-0.029
Mof_C 	C 	0.2499	0.5046	0.66292	0.073
Mof_H 	H 	0.2644	0.4856	0.6882	-0.036
Mof_C 	C 	0.2506	0.5637	0.66277	-0.145
Mof_H 	H 	0.2651	0.5836	0.6877	0.069
Mof_C 	C 	0.2077	0.5024	0.59255	0.074
Mof_H 	H 	0.1918	0.4816	0.5684	-0.032
Mof_C 	C 	0.2079	0.5611	0.59001	-0.142
Mof_H 	H 	0.1935	0.5791	0.5643	0.071
Mof_C 	C 	0.2296	0.5932	0.62553	0.055
Mof_Cu	Cu	0.23583	0.88977	0.12855	0.822
Mof_N 	N 	0.2878	0.84458	0.0827	-0.26
Mof_N 	N 	0.4371	0.66173	0.92158	-0.261
Mof_N 	N 	0.2292	0.97358	0.1283	-0.267
Mof_C 	C 	0.3266	0.7987	0.09353	0.079
Mof_H 	H 	0.3336	0.791	0.1232	-0.042
Mof_C 	C 	0.3564	0.7625	0.06369	-0.161
Mof_H 	H 	0.3822	0.7309	0.0733	0.079
Mof_C 	C 	0.2809	0.8549	0.03978	0.088
Mof_H 	H 	0.2555	0.8872	0.0313	-0.027
Mof_C 	C 	0.309	0.8209	0.00754	-0.149
Mof_H 	H 	0.3019	0.83	0.9781	0.077
Mof_C 	C 	0.3484	0.7726	0.01906	0.065
Mof_C 	C 	0.3795	0.7349	0.98525	0.042
Mof_C 	C 	0.4042	0.7554	0.94545	-0.135
Mof_H 	H 	0.402	0.7943	0.9393	0.069
Mof_C 	C 	0.4321	0.7185	0.91521	0.058
Mof_H 	H 	0.4484	0.7334	0.8887	-0.016
Mof_C 	C 	0.3856	0.6759	0.99255	-0.132
Mof_H 	H 	0.3709	0.6602	0.0191	0.067
Mof_C 	C 	0.4136	0.6415	0.96031	0.046
Mof_H 	H 	0.4164	0.6023	0.9655	-0.029
Mof_C 	C 	0.2499	0.0046	0.16292	0.073
Mof_H 	H 	0.2644	0.9856	0.1882	-0.037
Mof_C 	C 	0.2506	0.0637	0.16277	-0.146
Mof_H 	H 	0.2651	0.0836	0.1877	0.069
Mof_C 	C 	0.2077	0.0024	0.09255	0.074
Mof_H 	H 	0.1918	0.9816	0.0684	-0.033
Mof_C 	C 	0.2079	0.0611	0.09001	-0.142
Mof_H 	H 	0.1935	0.0791	0.0643	0.071
Mof_C 	C 	0.2296	0.0932	0.12553	0.055
Mof_Cu	Cu	0.73583	0.38977	0.12855	0.822
Mof_N 	N 	0.7878	0.34458	0.0827	-0.26
Mof_N 	N 	0.9371	0.16173	0.92158	-0.262
Mof_N 	N 	0.7292	0.47358	0.1283	-0.266
Mof_C 	C 	0.8266	0.2987	0.09353	0.079
Mof_H 	H 	0.8336	0.291	0.1232	-0.042
Mof_C 	C 	0.8564	0.2625	0.06369	-0.161
Mof_H 	H 	0.8822	0.2309	0.0733	0.079
Mof_C 	C 	0.7809	0.3549	0.03978	0.088
Mof_H 	H 	0.7555	0.3872	0.0313	-0.027
Mof_C 	C 	0.809	0.3209	0.00754	-0.149
Mof_H 	H 	0.8019	0.33	0.9781	0.076
Mof_C 	C 	0.8484	0.2726	0.01906	0.065
Mof_C 	C 	0.8795	0.2349	0.98525	0.042
Mof_C 	C 	0.9042	0.2554	0.94545	-0.136
Mof_H 	H 	0.902	0.2943	0.9393	0.069
Mof_C 	C 	0.9321	0.2185	0.91521	0.059
Mof_H 	H 	0.9484	0.2334	0.8887	-0.016
Mof_C 	C 	0.8856	0.1759	0.99255	-0.133
Mof_H 	H 	0.8709	0.1602	0.0191	0.068
Mof_C 	C 	0.9136	0.1415	0.96031	0.047
Mof_H 	H 	0.9164	0.1023	0.9655	-0.029
Mof_C 	C 	0.7499	0.5046	0.16292	0.073
Mof_H 	H 	0.7644	0.4856	0.1882	-0.036
Mof_C 	C 	0.7506	0.5637	0.16277	-0.145
Mof_H 	H 	0.7651	0.5836	0.1877	0.069
Mof_C 	C 	0.7077	0.5024	0.09255	0.074
Mof_H 	H 	0.6918	0.4816	0.0684	-0.032
Mof_C 	C 	0.7079	0.5611	0.09001	-0.142
Mof_H 	H 	0.6935	0.5791	0.0643	0.071
Mof_C 	C 	0.7296	0.5932	0.12553	0.055
Mof_Cu	Cu	0.73583	0.88977	0.62855	0.822
Mof_N 	N 	0.7878	0.84458	0.5827	-0.26
Mof_N 	N 	0.9371	0.66173	0.42158	-0.261
Mof_N 	N 	0.7292	0.97358	0.6283	-0.266
Mof_C 	C 	0.8266	0.7987	0.59353	0.079
Mof_H 	H 	0.8336	0.791	0.6232	-0.042
Mof_C 	C 	0.8564	0.7625	0.56369	-0.161
Mof_H 	H 	0.8822	0.7309	0.5733	0.079
Mof_C 	C 	0.7809	0.8549	0.53978	0.088
Mof_H 	H 	0.7555	0.8872	0.5313	-0.027
Mof_C 	C 	0.809	0.8209	0.50754	-0.149
Mof_H 	H 	0.8019	0.83	0.4781	0.077
Mof_C 	C 	0.8484	0.7726	0.51906	0.065
Mof_C 	C 	0.8795	0.7349	0.48525	0.042
Mof_C 	C 	0.9042	0.7554	0.44545	-0.136
Mof_H 	H 	0.902	0.7943	0.4393	0.069
Mof_C 	C 	0.9321	0.7185	0.41521	0.059
Mof_H 	H 	0.9484	0.7334	0.3887	-0.016
Mof_C 	C 	0.8856	0.6759	0.49255	-0.132
Mof_H 	H 	0.8709	0.6602	0.5191	0.067
Mof_C 	C 	0.9136	0.6415	0.46031	0.047
Mof_H 	H 	0.9164	0.6023	0.4655	-0.029
Mof_C 	C 	0.7499	0.0046	0.66292	0.071
Mof_H 	H 	0.7644	0.9856	0.6882	-0.036
Mof_C 	C 	0.7506	0.0637	0.66277	-0.144
Mof_H 	H 	0.7651	0.0836	0.6877	0.069
Mof_C 	C 	0.7077	0.0024	0.59255	0.072
Mof_H 	H 	0.6918	0.9816	0.5684	-0.032
Mof_C 	C 	0.7079	0.0611	0.59001	-0.141
Mof_H 	H 	0.6935	0.0791	0.5643	0.07
Mof_C 	C 	0.7296	0.0932	0.62553	0.054
Mof_Cu	Cu	0.48583	0.61023	0.87855	0.822
Mof_N 	N 	0.5378	0.65542	0.8327	-0.26
Mof_N 	N 	0.6871	0.83827	0.67158	-0.261
Mof_N 	N 	0.4792	0.52642	0.8783	-0.266
Mof_C 	C 	0.5766	0.7013	0.84353	0.079
Mof_H 	H 	0.5836	0.709	0.8732	-0.042
Mof_C 	C 	0.6064	0.7375	0.81369	-0.161
Mof_H 	H 	0.6322	0.7691	0.8233	0.079
Mof_C 	C 	0.5309	0.6451	0.78978	0.088
Mof_H 	H 	0.5055	0.6128	0.7813	-0.027
Mof_C 	C 	0.559	0.6791	0.75754	-0.149
Mof_H 	H 	0.5519	0.67	0.7281	0.077
Mof_C 	C 	0.5984	0.7274	0.76906	0.065
Mof_C 	C 	0.6295	0.7651	0.73525	0.042
Mof_C 	C 	0.6542	0.7446	0.69545	-0.136
Mof_H 	H 	0.652	0.7057	0.6893	0.069
Mof_C 	C 	0.6821	0.7815	0.66521	0.059
Mof_H 	H 	0.6984	0.7666	0.6387	-0.016
Mof_C 	C 	0.6356	0.8241	0.74255	-0.132
Mof_H 	H 	0.6209	0.8398	0.7691	0.067
Mof_C 	C 	0.6636	0.8585	0.71031	0.046
Mof_H 	H 	0.6664	0.8977	0.7155	-0.029
Mof_C 	C 	0.4999	0.4954	0.91292	0.073
Mof_H 	H 	0.5144	0.5144	0.9382	-0.036
Mof_C 	C 	0.5006	0.4363	0.91277	-0.145
Mof_H 	H 	0.5151	0.4164	0.9377	0.069
Mof_C 	C 	0.4577	0.4976	0.84255	0.074
Mof_H 	H 	0.4418	0.5184	0.8184	-0.032
Mof_C 	C 	0.4579	0.4389	0.84001	-0.142
Mof_H 	H 	0.4435	0.4209	0.8143	0.071
Mof_C 	C 	0.4796	0.4068	0.87553	0.055
Mof_Cu	Cu	0.48583	0.11023	0.37855	0.822
Mof_N 	N 	0.5378	0.15542	0.3327	-0.26
Mof_N 	N 	0.6871	0.33827	0.17158	-0.261
Mof_N 	N 	0.4792	0.02642	0.3783	-0.266
Mof_C 	C 	0.5766	0.2013	0.34353	0.079
Mof_H 	H 	0.5836	0.209	0.3732	-0.042
Mof_C 	C 	0.6064	0.2375	0.31369	-0.161
Mof_H 	H 	0.6322	0.2691	0.3233	0.079
Mof_C 	C 	0.5309	0.1451	0.28978	0.088
Mof_H 	H 	0.5055	0.1128	0.2813	-0.027
Mof_C 	C 	0.559	0.1791	0.25754	-0.149
Mof_H 	H 	0.5519	0.17	0.2281	0.077
Mof_C 	C 	0.5984	0.2274	0.26906	0.065
Mof_C 	C 	0.6295	0.2651	0.23525	0.042
Mof_C 	C 	0.6542	0.2446	0.19545	-0.136
Mof_H 	H 	0.652	0.2057	0.1893	0.069
Mof_C 	C 	0.6821	0.2815	0.16521	0.059
Mof_H 	H 	0.6984	0.2666	0.1387	-0.016
Mof_C 	C 	0.6356	0.3241	0.24255	-0.132
Mof_H 	H 	0.6209	0.3398	0.2691	0.067
Mof_C 	C 	0.6636	0.3585	0.21031	0.046
Mof_H 	H 	0.6664	0.3977	0.2155	-0.029
Mof_C 	C 	0.4999	0.9954	0.41292	0.073
Mof_H 	H 	0.5144	0.0144	0.4382	-0.037
Mof_C 	C 	0.5006	0.9363	0.41277	-0.145
Mof_H 	H 	0.5151	0.9164	0.4377	0.069
Mof_C 	C 	0.4577	0.9976	0.34255	0.073
Mof_H 	H 	0.4418	0.0184	0.3184	-0.032
Mof_C 	C 	0.4579	0.9389	0.34001	-0.142
Mof_H 	H 	0.4435	0.9209	0.3143	0.071
Mof_C 	C 	0.4796	0.9068	0.37553	0.055
Mof_Cu	Cu	0.98583	0.61023	0.37855	0.822
Mof_N 	N 	0.0378	0.65542	0.3327	-0.26
Mof_N 	N 	0.1871	0.83827	0.17158	-0.262
Mof_N 	N 	0.9792	0.52642	0.3783	-0.267
Mof_C 	C 	0.0766	0.7013	0.34353	0.079
Mof_H 	H 	0.0836	0.709	0.3732	-0.042
Mof_C 	C 	0.1064	0.7375	0.31369	-0.161
Mof_H 	H 	0.1322	0.7691	0.3233	0.079
Mof_C 	C 	0.0309	0.6451	0.28978	0.088
Mof_H 	H 	0.0055	0.6128	0.2813	-0.027
Mof_C 	C 	0.059	0.6791	0.25754	-0.149
Mof_H 	H 	0.0519	0.67	0.2281	0.077
Mof_C 	C 	0.0984	0.7274	0.26906	0.065
Mof_C 	C 	0.1295	0.7651	0.23525	0.042
Mof_C 	C 	0.1542	0.7446	0.19545	-0.136
Mof_H 	H 	0.152	0.7057	0.1893	0.069
Mof_C 	C 	0.1821	0.7815	0.16521	0.059
Mof_H 	H 	0.1984	0.7666	0.1387	-0.016
Mof_C 	C 	0.1356	0.8241	0.24255	-0.132
Mof_H 	H 	0.1209	0.8398	0.2691	0.067
Mof_C 	C 	0.1636	0.8585	0.21031	0.046
Mof_H 	H 	0.1664	0.8977	0.2155	-0.029
Mof_C 	C 	0.9999	0.4954	0.41292	0.073
Mof_H 	H 	0.0144	0.5144	0.4382	-0.037
Mof_C 	C 	0.0006	0.4363	0.41277	-0.145
Mof_H 	H 	0.0151	0.4164	0.4377	0.069
Mof_C 	C 	0.9577	0.4976	0.34255	0.074
Mof_H 	H 	0.9418	0.5184	0.3184	-0.032
Mof_C 	C 	0.9579	0.4389	0.34001	-0.142
Mof_H 	H 	0.9435	0.4209	0.3143	0.071
Mof_C 	C 	0.9796	0.4068	0.37553	0.055
Mof_Cu	Cu	0.98583	0.11023	0.87855	0.822
Mof_N 	N 	0.0378	0.15542	0.8327	-0.259
Mof_N 	N 	0.1871	0.33827	0.67158	-0.261
Mof_N 	N 	0.9792	0.02642	0.8783	-0.267
Mof_C 	C 	0.0766	0.2013	0.84353	0.079
Mof_H 	H 	0.0836	0.209	0.8732	-0.042
Mof_C 	C 	0.1064	0.2375	0.81369	-0.161
Mof_H 	H 	0.1322	0.2691	0.8233	0.079
Mof_C 	C 	0.0309	0.1451	0.78978	0.088
Mof_H 	H 	0.0055	0.1128	0.7813	-0.027
Mof_C 	C 	0.059	0.1791	0.75754	-0.149
Mof_H 	H 	0.0519	0.17	0.7281	0.077
Mof_C 	C 	0.0984	0.2274	0.76906	0.065
Mof_C 	C 	0.1295	0.2651	0.73525	0.042
Mof_C 	C 	0.1542	0.2446	0.69545	-0.136
Mof_H 	H 	0.152	0.2057	0.6893	0.069
Mof_C 	C 	0.1821	0.2815	0.66521	0.059
Mof_H 	H 	0.1984	0.2666	0.6387	-0.016
Mof_C 	C 	0.1356	0.3241	0.74255	-0.132
Mof_H 	H 	0.1209	0.3398	0.7691	0.068
Mof_C 	C 	0.1636	0.3585	0.71031	0.047
Mof_H 	H 	0.1664	0.3977	0.7155	-0.029
Mof_C 	C 	0.9999	0.9954	0.91292	0.073
Mof_H 	H 	0.0144	0.0144	0.9382	-0.036
Mof_C 	C 	0.0006	0.9363	0.91277	-0.146
Mof_H 	H 	0.0151	0.9164	0.9377	0.069
Mof_C 	C 	0.9577	0.9976	0.84255	0.076
Mof_H 	H 	0.9418	0.0184	0.8184	-0.033
Mof_C 	C 	0.9579	0.9389	0.84001	-0.143
Mof_H 	H 	0.9435	0.9209	0.8143	0.071
Mof_C 	C 	0.9796	0.9068	0.87553	0.056
Mof_Cu	Cu	0.48583	0.63977	0.37145	0.822
Mof_N 	N 	0.5378	0.59458	0.4173	-0.26
Mof_N 	N 	0.6871	0.41173	0.57842	-0.261
Mof_N 	N 	0.4792	0.72358	0.3717	-0.266
Mof_C 	C 	0.5766	0.5487	0.40647	0.079
Mof_H 	H 	0.5836	0.541	0.3768	-0.042
Mof_C 	C 	0.6064	0.5125	0.43631	-0.161
Mof_H 	H 	0.6322	0.4809	0.4267	0.079
Mof_C 	C 	0.5309	0.6049	0.46022	0.088
Mof_H 	H 	0.5055	0.6372	0.4687	-0.027
Mof_C 	C 	0.559	0.5709	0.49246	-0.149
Mof_H 	H 	0.5519	0.58	0.5219	0.077
Mof_C 	C 	0.5984	0.5226	0.48094	0.065
Mof_C 	C 	0.6295	0.4849	0.51475	0.042
Mof_C 	C 	0.6542	0.5054	0.55455	-0.136
Mof_H 	H 	0.652	0.5443	0.5607	0.069
Mof_C 	C 	0.6821	0.4685	0.58479	0.059
Mof_H 	H 	0.6984	0.4834	0.6113	-0.016
Mof_C 	C 	0.6356	0.4259	0.50745	-0.132
Mof_H 	H 	0.6209	0.4102	0.4809	0.067
Mof_C 	C 	0.6636	0.3915	0.53969	0.046
Mof_H 	H 	0.6664	0.3523	0.5345	-0.029
Mof_C 	C 	0.4999	0.7546	0.33708	0.073
Mof_H 	H 	0.5144	0.7356	0.3118	-0.036
Mof_C 	C 	0.5006	0.8137	0.33723	-0.145
Mof_H 	H 	0.5151	0.8336	0.3123	0.069
Mof_C 	C 	0.4577	0.7524	0.40745	0.074
Mof_H 	H 	0.4418	0.7316	0.4316	-0.032
Mof_C 	C 	0.4579	0.8111	0.40999	-0.142
Mof_H 	H 	0.4435	0.8291	0.4357	0.071
Mof_C 	C 	0.4796	0.8432	0.37447	0.055
Mof_Cu	Cu	0.48583	0.13977	0.87145	0.822
Mof_N 	N 	0.5378	0.09458	0.9173	-0.26
Mof_N 	N 	0.6871	0.91173	0.07842	-0.262
Mof_N 	N 	0.4792	0.22358	0.8717	-0.266
Mof_C 	C 	0.5766	0.0487	0.90647	0.079
Mof_H 	H 	0.5836	0.041	0.8768	-0.042
Mof_C 	C 	0.6064	0.0125	0.93631	-0.16
Mof_H 	H 	0.6322	0.9809	0.9267	0.079
Mof_C 	C 	0.5309	0.1049	0.96022	0.087
Mof_H 	H 	0.5055	0.1372	0.9687	-0.027
Mof_C 	C 	0.559	0.0709	0.99246	-0.148
Mof_H 	H 	0.5519	0.08	0.0219	0.076
Mof_C 	C 	0.5984	0.0226	0.98094	0.064
Mof_C 	C 	0.6295	0.9849	0.01475	0.044
Mof_C 	C 	0.6542	0.0054	0.05455	-0.138
Mof_H 	H 	0.652	0.0443	0.0607	0.069
Mof_C 	C 	0.6821	0.9685	0.08479	0.06
Mof_H 	H 	0.6984	0.9834	0.1113	-0.017
Mof_C 	C 	0.6356	0.9259	0.00745	-0.132
Mof_H 	H 	0.6209	0.9102	0.9809	0.067
Mof_C 	C 	0.6636	0.8915	0.03969	0.047
Mof_H 	H 	0.6664	0.8523	0.0345	-0.029
Mof_C 	C 	0.4999	0.2546	0.83708	0.073
Mof_H 	H 	0.5144	0.2356	0.8118	-0.036
Mof_C 	C 	0.5006	0.3137	0.83723	-0.145
Mof_H 	H 	0.5151	0.3336	0.8123	0.069
Mof_C 	C 	0.4577	0.2524	0.90745	0.074
Mof_H 	H 	0.4418	0.2316	0.9316	-0.032
Mof_C 	C 	0.4579	0.3111	0.90999	-0.142
Mof_H 	H 	0.4435	0.3291	0.9357	0.071
Mof_C 	C 	0.4796	0.3432	0.87447	0.055
Mof_Cu	Cu	0.98583	0.63977	0.87145	0.822
Mof_N 	N 	0.0378	0.59458	0.9173	-0.26
Mof_N 	N 	0.1871	0.41173	0.07842	-0.262
Mof_N 	N 	0.9792	0.72358	0.8717	-0.267
Mof_C 	C 	0.0766	0.5487	0.90647	0.079
Mof_H 	H 	0.0836	0.541	0.8768	-0.042
Mof_C 	C 	0.1064	0.5125	0.93631	-0.16
Mof_H 	H 	0.1322	0.4809	0.9267	0.079
Mof_C 	C 	0.0309	0.6049	0.96022	0.087
Mof_H 	H 	0.0055	0.6372	0.9687	-0.027
Mof_C 	C 	0.059	0.5709	0.99246	-0.148
Mof_H 	H 	0.0519	0.58	0.0219	0.076
Mof_C 	C 	0.0984	0.5226	0.98094	0.065
Mof_C 	C 	0.1295	0.4849	0.01475	0.042
Mof_C 	C 	0.1542	0.5054	0.05455	-0.136
Mof_H 	H 	0.152	0.5443	0.0607	0.069
Mof_C 	C 	0.1821	0.4685	0.08479	0.059
Mof_H 	H 	0.1984	0.4834	0.1113	-0.016
Mof_C 	C 	0.1356	0.4259	0.00745	-0.133
Mof_H 	H 	0.1209	0.4102	0.9809	0.068
Mof_C 	C 	0.1636	0.3915	0.03969	0.047
Mof_H 	H 	0.1664	0.3523	0.0345	-0.029
Mof_C 	C 	0.9999	0.7546	0.83708	0.073
Mof_H 	H 	0.0144	0.7356	0.8118	-0.037
Mof_C 	C 	0.0006	0.8137	0.83723	-0.145
Mof_H 	H 	0.0151	0.8336	0.8123	0.069
Mof_C 	C 	0.9577	0.7524	0.90745	0.074
Mof_H 	H 	0.9418	0.7316	0.9316	-0.032
Mof_C 	C 	0.9579	0.8111	0.90999	-0.142
Mof_H 	H 	0.9435	0.8291	0.9357	0.071
Mof_C 	C 	0.9796	0.8432	0.87447	0.055
Mof_Cu	Cu	0.98583	0.13977	0.37145	0.822
Mof_N 	N 	0.0378	0.09458	0.4173	-0.26
Mof_N 	N 	0.1871	0.91173	0.57842	-0.261
Mof_N 	N 	0.9792	0.22358	0.3717	-0.266
Mof_C 	C 	0.0766	0.0487	0.40647	0.079
Mof_H 	H 	0.0836	0.041	0.3768	-0.042
Mof_C 	C 	0.1064	0.0125	0.43631	-0.16
Mof_H 	H 	0.1322	0.9809	0.4267	0.079
Mof_C 	C 	0.0309	0.1049	0.46022	0.088
Mof_H 	H 	0.0055	0.1372	0.4687	-0.027
Mof_C 	C 	0.059	0.0709	0.49246	-0.15
Mof_H 	H 	0.0519	0.08	0.5219	0.077
Mof_C 	C 	0.0984	0.0226	0.48094	0.066
Mof_C 	C 	0.1295	0.9849	0.51475	0.039
Mof_C 	C 	0.1542	0.0054	0.55455	-0.133
Mof_H 	H 	0.152	0.0443	0.5607	0.068
Mof_C 	C 	0.1821	0.9685	0.58479	0.057
Mof_H 	H 	0.1984	0.9834	0.6113	-0.016
Mof_C 	C 	0.1356	0.9259	0.50745	-0.131
Mof_H 	H 	0.1209	0.9102	0.4809	0.067
Mof_C 	C 	0.1636	0.8915	0.53969	0.046
Mof_H 	H 	0.1664	0.8523	0.5345	-0.029
Mof_C 	C 	0.9999	0.2546	0.33708	0.072
Mof_H 	H 	0.0144	0.2356	0.3118	-0.036
Mof_C 	C 	0.0006	0.3137	0.33723	-0.144
Mof_H 	H 	0.0151	0.3336	0.3123	0.069
Mof_C 	C 	0.9577	0.2524	0.40745	0.073
Mof_H 	H 	0.9418	0.2316	0.4316	-0.032
Mof_C 	C 	0.9579	0.3111	0.40999	-0.141
Mof_H 	H 	0.9435	0.3291	0.4357	0.071
Mof_C 	C 	0.9796	0.3432	0.37447	0.054
Mof_Cu	Cu	0.51417	0.38977	0.12145	0.822
Mof_N 	N 	0.4622	0.34458	0.1673	-0.26
Mof_N 	N 	0.3129	0.16173	0.32842	-0.261
Mof_N 	N 	0.5208	0.47358	0.1217	-0.266
Mof_C 	C 	0.4234	0.2987	0.15647	0.079
Mof_H 	H 	0.4164	0.291	0.1268	-0.042
Mof_C 	C 	0.3936	0.2625	0.18631	-0.161
Mof_H 	H 	0.3678	0.2309	0.1767	0.079
Mof_C 	C 	0.4691	0.3549	0.21022	0.088
Mof_H 	H 	0.4945	0.3872	0.2187	-0.027
Mof_C 	C 	0.441	0.3209	0.24246	-0.149
Mof_H 	H 	0.4481	0.33	0.2719	0.077
Mof_C 	C 	0.4016	0.2726	0.23094	0.065
Mof_C 	C 	0.3705	0.2349	0.26475	0.042
Mof_C 	C 	0.3458	0.2554	0.30455	-0.136
Mof_H 	H 	0.348	0.2943	0.3107	0.069
Mof_C 	C 	0.3179	0.2185	0.33479	0.059
Mof_H 	H 	0.3016	0.2334	0.3613	-0.016
Mof_C 	C 	0.3644	0.1759	0.25745	-0.132
Mof_H 	H 	0.3791	0.1602	0.2309	0.067
Mof_C 	C 	0.3364	0.1415	0.28969	0.046
Mof_H 	H 	0.3336	0.1023	0.2845	-0.029
Mof_C 	C 	0.5001	0.5046	0.08708	0.073
Mof_H 	H 	0.4856	0.4856	0.0618	-0.036
Mof_C 	C 	0.4994	0.5637	0.08723	-0.145
Mof_H 	H 	0.4849	0.5836	0.0623	0.069
Mof_C 	C 	0.5423	0.5024	0.15745	0.074
Mof_H 	H 	0.5582	0.4816	0.1816	-0.032
Mof_C 	C 	0.5421	0.5611	0.15999	-0.142
Mof_H 	H 	0.5565	0.5791	0.1857	0.071
Mof_C 	C 	0.5204	0.5932	0.12447	0.055
Mof_Cu	Cu	0.51417	0.88977	0.62145	0.822
Mof_N 	N 	0.4622	0.84458	0.6673	-0.26
Mof_N 	N 	0.3129	0.66173	0.82842	-0.261
Mof_N 	N 	0.5208	0.97358	0.6217	-0.266
Mof_C 	C 	0.4234	0.7987	0.65647	0.079
Mof_H 	H 	0.4164	0.791	0.6268	-0.042
Mof_C 	C 	0.3936	0.7625	0.68631	-0.161
Mof_H 	H 	0.3678	0.7309	0.6767	0.079
Mof_C 	C 	0.4691	0.8549	0.71022	0.088
Mof_H 	H 	0.4945	0.8872	0.7187	-0.027
Mof_C 	C 	0.441	0.8209	0.74246	-0.149
Mof_H 	H 	0.4481	0.83	0.7719	0.077
Mof_C 	C 	0.4016	0.7726	0.73094	0.065
Mof_C 	C 	0.3705	0.7349	0.76475	0.042
Mof_C 	C 	0.3458	0.7554	0.80455	-0.136
Mof_H 	H 	0.348	0.7943	0.8107	0.069
Mof_C 	C 	0.3179	0.7185	0.83479	0.059
Mof_H 	H 	0.3016	0.7334	0.8613	-0.016
Mof_C 	C 	0.3644	0.6759	0.75745	-0.132
Mof_H 	H 	0.3791	0.6602	0.7309	0.067
Mof_C 	C 	0.3364	0.6415	0.78969	0.046
Mof_H 	H 	0.3336	0.6023	0.7845	-0.029
Mof_C 	C 	0.5001	0.0046	0.58708	0.073
Mof_H 	H 	0.4856	0.9856	0.5618	-0.037
Mof_C 	C 	0.4994	0.0637	0.58723	-0.145
Mof_H 	H 	0.4849	0.0836	0.5623	0.069
Mof_C 	C 	0.5423	0.0024	0.65745	0.073
Mof_H 	H 	0.5582	0.9816	0.6816	-0.032
Mof_C 	C 	0.5421	0.0611	0.65999	-0.142
Mof_H 	H 	0.5565	0.0791	0.6857	0.071
Mof_C 	C 	0.5204	0.0932	0.62447	0.055
Mof_Cu	Cu	0.01417	0.38977	0.62145	0.822
Mof_N 	N 	0.9622	0.34458	0.6673	-0.26
Mof_N 	N 	0.8129	0.16173	0.82842	-0.262
Mof_N 	N 	0.0208	0.47358	0.6217	-0.267
Mof_C 	C 	0.9234	0.2987	0.65647	0.079
Mof_H 	H 	0.9164	0.291	0.6268	-0.042
Mof_C 	C 	0.8936	0.2625	0.68631	-0.161
Mof_H 	H 	0.8678	0.2309	0.6767	0.079
Mof_C 	C 	0.9691	0.3549	0.71022	0.088
Mof_H 	H 	0.9945	0.3872	0.7187	-0.027
Mof_C 	C 	0.941	0.3209	0.74246	-0.149
Mof_H 	H 	0.9481	0.33	0.7719	0.077
Mof_C 	C 	0.9016	0.2726	0.73094	0.065
Mof_C 	C 	0.8705	0.2349	0.76475	0.042
Mof_C 	C 	0.8458	0.2554	0.80455	-0.136
Mof_H 	H 	0.848	0.2943	0.8107	0.069
Mof_C 	C 	0.8179	0.2185	0.83479	0.059
Mof_H 	H 	0.8016	0.2334	0.8613	-0.016
Mof_C 	C 	0.8644	0.1759	0.75745	-0.132
Mof_H 	H 	0.8791	0.1602	0.7309	0.067
Mof_C 	C 	0.8364	0.1415	0.78969	0.046
Mof_H 	H 	0.8336	0.1023	0.7845	-0.029
Mof_C 	C 	0.0001	0.5046	0.58708	0.073
Mof_H 	H 	0.9856	0.4856	0.5618	-0.037
Mof_C 	C 	0.9994	0.5637	0.58723	-0.145
Mof_H 	H 	0.9849	0.5836	0.5623	0.069
Mof_C 	C 	0.0423	0.5024	0.65745	0.074
Mof_H 	H 	0.0582	0.4816	0.6816	-0.032
Mof_C 	C 	0.0421	0.5611	0.65999	-0.142
Mof_H 	H 	0.0565	0.5791	0.6857	0.071
Mof_C 	C 	0.0204	0.5932	0.62447	0.055
Mof_Cu	Cu	0.01417	0.88977	0.12145	0.822
Mof_N 	N 	0.9622	0.84458	0.1673	-0.259
Mof_N 	N 	0.8129	0.66173	0.32842	-0.261
Mof_N 	N 	0.0208	0.97358	0.1217	-0.267
Mof_C 	C 	0.9234	0.7987	0.15647	0.079
Mof_H 	H 	0.9164	0.791	0.1268	-0.042
Mof_C 	C 	0.8936	0.7625	0.18631	-0.161
Mof_H 	H 	0.8678	0.7309	0.1767	0.079
Mof_C 	C 	0.9691	0.8549	0.21022	0.088
Mof_H 	H 	0.9945	0.8872	0.2187	-0.027
Mof_C 	C 	0.941	0.8209	0.24246	-0.149
Mof_H 	H 	0.9481	0.83	0.2719	0.077
Mof_C 	C 	0.9016	0.7726	0.23094	0.065
Mof_C 	C 	0.8705	0.7349	0.26475	0.042
Mof_C 	C 	0.8458	0.7554	0.30455	-0.136
Mof_H 	H 	0.848	0.7943	0.3107	0.069
Mof_C 	C 	0.8179	0.7185	0.33479	0.059
Mof_H 	H 	0.8016	0.7334	0.3613	-0.016
Mof_C 	C 	0.8644	0.6759	0.25745	-0.132
Mof_H 	H 	0.8791	0.6602	0.2309	0.068
Mof_C 	C 	0.8364	0.6415	0.28969	0.047
Mof_H 	H 	0.8336	0.6023	0.2845	-0.029
Mof_C 	C 	0.0001	0.0046	0.08708	0.073
Mof_H 	H 	0.9856	0.9856	0.0618	-0.036
Mof_C 	C 	0.9994	0.0637	0.08723	-0.146
Mof_H 	H 	0.9849	0.0836	0.0623	0.069
Mof_C 	C 	0.0423	0.0024	0.15745	0.076
Mof_H 	H 	0.0582	0.9816	0.1816	-0.033
Mof_C 	C 	0.0421	0.0611	0.15999	-0.143
Mof_H 	H 	0.0565	0.0791	0.1857	0.071
Mof_C 	C 	0.0204	0.0932	0.12447	0.056
Mof_Cu	Cu	0.51417	0.36023	0.62855	0.822
Mof_N 	N 	0.4622	0.40542	0.5827	-0.26
Mof_N 	N 	0.3129	0.58827	0.42158	-0.261
Mof_N 	N 	0.5208	0.27642	0.6283	-0.266
Mof_C 	C 	0.4234	0.4513	0.59353	0.079
Mof_H 	H 	0.4164	0.459	0.6232	-0.042
Mof_C 	C 	0.3936	0.4875	0.56369	-0.161
Mof_H 	H 	0.3678	0.5191	0.5733	0.079
Mof_C 	C 	0.4691	0.3951	0.53978	0.088
Mof_H 	H 	0.4945	0.3628	0.5313	-0.027
Mof_C 	C 	0.441	0.4291	0.50754	-0.149
Mof_H 	H 	0.4481	0.42	0.4781	0.077
Mof_C 	C 	0.4016	0.4774	0.51906	0.065
Mof_C 	C 	0.3705	0.5151	0.48525	0.042
Mof_C 	C 	0.3458	0.4946	0.44545	-0.136
Mof_H 	H 	0.348	0.4557	0.4393	0.069
Mof_C 	C 	0.3179	0.5315	0.41521	0.059
Mof_H 	H 	0.3016	0.5166	0.3887	-0.016
Mof_C 	C 	0.3644	0.5741	0.49255	-0.132
Mof_H 	H 	0.3791	0.5898	0.5191	0.067
Mof_C 	C 	0.3364	0.6085	0.46031	0.046
Mof_H 	H 	0.3336	0.6477	0.4655	-0.029
Mof_C 	C 	0.5001	0.2454	0.66292	0.073
Mof_H 	H 	0.4856	0.2644	0.6882	-0.036
Mof_C 	C 	0.4994	0.1863	0.66277	-0.145
Mof_H 	H 	0.4849	0.1664	0.6877	0.069
Mof_C 	C 	0.5423	0.2476	0.59255	0.074
Mof_H 	H 	0.5582	0.2684	0.5684	-0.032
Mof_C 	C 	0.5421	0.1889	0.59001	-0.142
Mof_H 	H 	0.5565	0.1709	0.5643	0.071
Mof_C 	C 	0.5204	0.1568	0.62553	0.055
Mof_Cu	Cu	0.51417	0.86023	0.12855	0.822
Mof_N 	N 	0.4622	0.90542	0.0827	-0.26
Mof_N 	N 	0.3129	0.08827	0.92158	-0.262
Mof_N 	N 	0.5208	0.77642	0.1283	-0.266
Mof_C 	C 	0.4234	0.9513	0.09353	0.079
Mof_H 	H 	0.4164	0.959	0.1232	-0.042
Mof_C 	C 	0.3936	0.9875	0.06369	-0.16
Mof_H 	H 	0.3678	0.0191	0.0733	0.079
Mof_C 	C 	0.4691	0.8951	0.03978	0.087
Mof_H 	H 	0.4945	0.8628	0.0313	-0.027
Mof_C 	C 	0.441	0.9291	0.00754	-0.148
Mof_H 	H 	0.4481	0.92	0.9781	0.076
Mof_C 	C 	0.4016	0.9774	0.01906	0.064
Mof_C 	C 	0.3705	0.0151	0.98525	0.044
Mof_C 	C 	0.3458	0.9946	0.94545	-0.138
Mof_H 	H 	0.348	0.9557	0.9393	0.069
Mof_C 	C 	0.3179	0.0315	0.91521	0.06
Mof_H 	H 	0.3016	0.0166	0.8887	-0.017
Mof_C 	C 	0.3644	0.0741	0.99255	-0.132
Mof_H 	H 	0.3791	0.0898	0.0191	0.067
Mof_C 	C 	0.3364	0.1085	0.96031	0.047
Mof_H 	H 	0.3336	0.1477	0.9655	-0.029
Mof_C 	C 	0.5001	0.7454	0.16292	0.073
Mof_H 	H 	0.4856	0.7644	0.1882	-0.036
Mof_C 	C 	0.4994	0.6863	0.16277	-0.145
Mof_H 	H 	0.4849	0.6664	0.1877	0.069
Mof_C 	C 	0.5423	0.7476	0.09255	0.074
Mof_H 	H 	0.5582	0.7684	0.0684	-0.032
Mof_C 	C 	0.5421	0.6889	0.09001	-0.142
Mof_H 	H 	0.5565	0.6709	0.0643	0.071
Mof_C 	C 	0.5204	0.6568	0.12553	0.055
Mof_Cu	Cu	0.01417	0.36023	0.12855	0.822
Mof_N 	N 	0.9622	0.40542	0.0827	-0.26
Mof_N 	N 	0.8129	0.58827	0.92158	-0.262
Mof_N 	N 	0.0208	0.27642	0.1283	-0.267
Mof_C 	C 	0.9234	0.4513	0.09353	0.079
Mof_H 	H 	0.9164	0.459	0.1232	-0.042
Mof_C 	C 	0.8936	0.4875	0.06369	-0.16
Mof_H 	H 	0.8678	0.5191	0.0733	0.079
Mof_C 	C 	0.9691	0.3951	0.03978	0.087
Mof_H 	H 	0.9945	0.3628	0.0313	-0.027
Mof_C 	C 	0.941	0.4291	0.00754	-0.148
Mof_H 	H 	0.9481	0.42	0.9781	0.076
Mof_C 	C 	0.9016	0.4774	0.01906	0.065
Mof_C 	C 	0.8705	0.5151	0.98525	0.042
Mof_C 	C 	0.8458	0.4946	0.94545	-0.136
Mof_H 	H 	0.848	0.4557	0.9393	0.069
Mof_C 	C 	0.8179	0.5315	0.91521	0.059
Mof_H 	H 	0.8016	0.5166	0.8887	-0.016
Mof_C 	C 	0.8644	0.5741	0.99255	-0.133
Mof_H 	H 	0.8791	0.5898	0.0191	0.068
Mof_C 	C 	0.8364	0.6085	0.96031	0.047
Mof_H 	H 	0.8336	0.6477	0.9655	-0.029
Mof_C 	C 	0.0001	0.2454	0.16292	0.073
Mof_H 	H 	0.9856	0.2644	0.1882	-0.037
Mof_C 	C 	0.9994	0.1863	0.16277	-0.145
Mof_H 	H 	0.9849	0.1664	0.1877	0.069
Mof_C 	C 	0.0423	0.2476	0.09255	0.074
Mof_H 	H 	0.0582	0.2684	0.0684	-0.032
Mof_C 	C 	0.0421	0.1889	0.09001	-0.142
Mof_H 	H 	0.0565	0.1709	0.0643	0.071
Mof_C 	C 	0.0204	0.1568	0.12553	0.055
Mof_Cu	Cu	0.01417	0.86023	0.62855	0.822
Mof_N 	N 	0.9622	0.90542	0.5827	-0.26
Mof_N 	N 	0.8129	0.08827	0.42158	-0.261
Mof_N 	N 	0.0208	0.77642	0.6283	-0.266
Mof_C 	C 	0.9234	0.9513	0.59353	0.079
Mof_H 	H 	0.9164	0.959	0.6232	-0.042
Mof_C 	C 	0.8936	0.9875	0.56369	-0.16
Mof_H 	H 	0.8678	0.0191	0.5733	0.079
Mof_C 	C 	0.9691	0.8951	0.53978	0.088
Mof_H 	H 	0.9945	0.8628	0.5313	-0.027
Mof_C 	C 	0.941	0.9291	0.50754	-0.15
Mof_H 	H 	0.9481	0.92	0.4781	0.077
Mof_C 	C 	0.9016	0.9774	0.51906	0.066
Mof_C 	C 	0.8705	0.0151	0.48525	0.039
Mof_C 	C 	0.8458	0.9946	0.44545	-0.133
Mof_H 	H 	0.848	0.9557	0.4393	0.068
Mof_C 	C 	0.8179	0.0315	0.41521	0.057
Mof_H 	H 	0.8016	0.0166	0.3887	-0.016
Mof_C 	C 	0.8644	0.0741	0.49255	-0.131
Mof_H 	H 	0.8791	0.0898	0.5191	0.067
Mof_C 	C 	0.8364	0.1085	0.46031	0.046
Mof_H 	H 	0.8336	0.1477	0.4655	-0.029
Mof_C 	C 	0.0001	0.7454	0.66292	0.072
Mof_H 	H 	0.9856	0.7644	0.6882	-0.036
Mof_C 	C 	0.9994	0.6863	0.66277	-0.144
Mof_H 	H 	0.9849	0.6664	0.6877	0.069
Mof_C 	C 	0.0423	0.7476	0.59255	0.073
Mof_H 	H 	0.0582	0.7684	0.5684	-0.032
Mof_C 	C 	0.0421	0.6889	0.59001	-0.141
Mof_H 	H 	0.0565	0.6709	0.5643	0.071
Mof_C 	C 	0.0204	0.6568	0.62553	0.054
Mof_Cu	Cu	0.76417	0.63977	0.87855	0.822
Mof_N 	N 	0.7122	0.59458	0.8327	-0.26
Mof_N 	N 	0.5629	0.41173	0.67158	-0.261
Mof_N 	N 	0.7708	0.72358	0.8783	-0.266
Mof_C 	C 	0.6734	0.5487	0.84353	0.079
Mof_H 	H 	0.6664	0.541	0.8732	-0.042
Mof_C 	C 	0.6436	0.5125	0.81369	-0.161
Mof_H 	H 	0.6178	0.4809	0.8233	0.079
Mof_C 	C 	0.7191	0.6049	0.78978	0.088
Mof_H 	H 	0.7445	0.6372	0.7813	-0.027
Mof_C 	C 	0.691	0.5709	0.75754	-0.149
Mof_H 	H 	0.6981	0.58	0.7281	0.077
Mof_C 	C 	0.6516	0.5226	0.76906	0.065
Mof_C 	C 	0.6205	0.4849	0.73525	0.042
Mof_C 	C 	0.5958	0.5054	0.69545	-0.136
Mof_H 	H 	0.598	0.5443	0.6893	0.069
Mof_C 	C 	0.5679	0.4685	0.66521	0.059
Mof_H 	H 	0.5516	0.4834	0.6387	-0.016
Mof_C 	C 	0.6144	0.4259	0.74255	-0.132
Mof_H 	H 	0.6291	0.4102	0.7691	0.067
Mof_C 	C 	0.5864	0.3915	0.71031	0.046
Mof_H 	H 	0.5836	0.3523	0.7155	-0.029
Mof_C 	C 	0.7501	0.7546	0.91292	0.073
Mof_H 	H 	0.7356	0.7356	0.9382	-0.037
Mof_C 	C 	0.7494	0.8137	0.91277	-0.145
Mof_H 	H 	0.7349	0.8336	0.9377	0.069
Mof_C 	C 	0.7923	0.7524	0.84255	0.074
Mof_H 	H 	0.8082	0.7316	0.8184	-0.032
Mof_C 	C 	0.7921	0.8111	0.84001	-0.142
Mof_H 	H 	0.8065	0.8291	0.8143	0.071
Mof_C 	C 	0.7704	0.8432	0.87553	0.054
Mof_Cu	Cu	0.76417	0.13977	0.37855	0.822
Mof_N 	N 	0.7122	0.09458	0.3327	-0.26
Mof_N 	N 	0.5629	0.91173	0.17158	-0.262
Mof_N 	N 	0.7708	0.22358	0.3783	-0.266
Mof_C 	C 	0.6734	0.0487	0.34353	0.079
Mof_H 	H 	0.6664	0.041	0.3732	-0.042
Mof_C 	C 	0.6436	0.0125	0.31369	-0.161
Mof_H 	H 	0.6178	0.9809	0.3233	0.08
Mof_C 	C 	0.7191	0.1049	0.28978	0.088
Mof_H 	H 	0.7445	0.1372	0.2813	-0.027
Mof_C 	C 	0.691	0.0709	0.25754	-0.149
Mof_H 	H 	0.6981	0.08	0.2281	0.077
Mof_C 	C 	0.6516	0.0226	0.26906	0.064
Mof_C 	C 	0.6205	0.9849	0.23525	0.043
Mof_C 	C 	0.5958	0.0054	0.19545	-0.138
Mof_H 	H 	0.598	0.0443	0.1893	0.069
Mof_C 	C 	0.5679	0.9685	0.16521	0.06
Mof_H 	H 	0.5516	0.9834	0.1387	-0.017
Mof_C 	C 	0.6144	0.9259	0.24255	-0.133
Mof_H 	H 	0.6291	0.9102	0.2691	0.068
Mof_C 	C 	0.5864	0.8915	0.21031	0.047
Mof_H 	H 	0.5836	0.8523	0.2155	-0.029
Mof_C 	C 	0.7501	0.2546	0.41292	0.073
Mof_H 	H 	0.7356	0.2356	0.4382	-0.036
Mof_C 	C 	0.7494	0.3137	0.41277	-0.145
Mof_H 	H 	0.7349	0.3336	0.4377	0.069
Mof_C 	C 	0.7923	0.2524	0.34255	0.074
Mof_H 	H 	0.8082	0.2316	0.3184	-0.032
Mof_C 	C 	0.7921	0.3111	0.34001	-0.142
Mof_H 	H 	0.8065	0.3291	0.3143	0.071
Mof_C 	C 	0.7704	0.3432	0.37553	0.055
Mof_Cu	Cu	0.26417	0.63977	0.37855	0.822
Mof_N 	N 	0.2122	0.59458	0.3327	-0.26
Mof_N 	N 	0.0629	0.41173	0.17158	-0.261
Mof_N 	N 	0.2708	0.72358	0.3783	-0.267
Mof_C 	C 	0.1734	0.5487	0.34353	0.079
Mof_H 	H 	0.1664	0.541	0.3732	-0.042
Mof_C 	C 	0.1436	0.5125	0.31369	-0.161
Mof_H 	H 	0.1178	0.4809	0.3233	0.079
Mof_C 	C 	0.2191	0.6049	0.28978	0.088
Mof_H 	H 	0.2445	0.6372	0.2813	-0.027
Mof_C 	C 	0.191	0.5709	0.25754	-0.149
Mof_H 	H 	0.1981	0.58	0.2281	0.077
Mof_C 	C 	0.1516	0.5226	0.26906	0.065
Mof_C 	C 	0.1205	0.4849	0.23525	0.042
Mof_C 	C 	0.0958	0.5054	0.19545	-0.136
Mof_H 	H 	0.098	0.5443	0.1893	0.069
Mof_C 	C 	0.0679	0.4685	0.16521	0.059
Mof_H 	H 	0.0516	0.4834	0.1387	-0.016
Mof_C 	C 	0.1144	0.4259	0.24255	-0.132
Mof_H 	H 	0.1291	0.4102	0.2691	0.067
Mof_C 	C 	0.0864	0.3915	0.21031	0.047
Mof_H 	H 	0.0836	0.3523	0.2155	-0.029
Mof_C 	C 	0.2501	0.7546	0.41292	0.073
Mof_H 	H 	0.2356	0.7356	0.4382	-0.037
Mof_C 	C 	0.2494	0.8137	0.41277	-0.145
Mof_H 	H 	0.2349	0.8336	0.4377	0.069
Mof_C 	C 	0.2923	0.7524	0.34255	0.074
Mof_H 	H 	0.3082	0.7316	0.3184	-0.032
Mof_C 	C 	0.2921	0.8111	0.34001	-0.142
Mof_H 	H 	0.3065	0.8291	0.3143	0.071
Mof_C 	C 	0.2704	0.8432	0.37553	0.055
Mof_Cu	Cu	0.26417	0.13977	0.87855	0.822
Mof_N 	N 	0.2122	0.09458	0.8327	-0.26
Mof_N 	N 	0.0629	0.91173	0.67158	-0.261
Mof_N 	N 	0.2708	0.22358	0.8783	-0.266
Mof_C 	C 	0.1734	0.0487	0.84353	0.079
Mof_H 	H 	0.1664	0.041	0.8732	-0.042
Mof_C 	C 	0.1436	0.0125	0.81369	-0.16
Mof_H 	H 	0.1178	0.9809	0.8233	0.079
Mof_C 	C 	0.2191	0.1049	0.78978	0.088
Mof_H 	H 	0.2445	0.1372	0.7813	-0.027
Mof_C 	C 	0.191	0.0709	0.75754	-0.15
Mof_H 	H 	0.1981	0.08	0.7281	0.077
Mof_C 	C 	0.1516	0.0226	0.76906	0.066
Mof_C 	C 	0.1205	0.9849	0.73525	0.039
Mof_C 	C 	0.0958	0.0054	0.69545	-0.132
Mof_H 	H 	0.098	0.0443	0.6893	0.068
Mof_C 	C 	0.0679	0.9685	0.66521	0.056
Mof_H 	H 	0.0516	0.9834	0.6387	-0.016
Mof_C 	C 	0.1144	0.9259	0.74255	-0.13
Mof_H 	H 	0.1291	0.9102	0.7691	0.067
Mof_C 	C 	0.0864	0.8915	0.71031	0.045
Mof_H 	H 	0.0836	0.8523	0.7155	-0.028
Mof_C 	C 	0.2501	0.2546	0.91292	0.073
Mof_H 	H 	0.2356	0.2356	0.9382	-0.036
Mof_C 	C 	0.2494	0.3137	0.91277	-0.145
Mof_H 	H 	0.2349	0.3336	0.9377	0.069
Mof_C 	C 	0.2923	0.2524	0.84255	0.074
Mof_H 	H 	0.3082	0.2316	0.8184	-0.032
Mof_C 	C 	0.2921	0.3111	0.84001	-0.142
Mof_H 	H 	0.3065	0.3291	0.8143	0.071
Mof_C 	C 	0.2704	0.3432	0.87553	0.055
Mof_Cu	Cu	0.76417	0.61023	0.37145	0.822
Mof_N 	N 	0.7122	0.65542	0.4173	-0.26
Mof_N 	N 	0.5629	0.83827	0.57842	-0.261
Mof_N 	N 	0.7708	0.52642	0.3717	-0.266
Mof_C 	C 	0.6734	0.7013	0.40647	0.079
Mof_H 	H 	0.6664	0.709	0.3768	-0.042
Mof_C 	C 	0.6436	0.7375	0.43631	-0.161
Mof_H 	H 	0.6178	0.7691	0.4267	0.079
Mof_C 	C 	0.7191	0.6451	0.46022	0.088
Mof_H 	H 	0.7445	0.6128	0.4687	-0.027
Mof_C 	C 	0.691	0.6791	0.49246	-0.149
Mof_H 	H 	0.6981	0.67	0.5219	0.077
Mof_C 	C 	0.6516	0.7274	0.48094	0.065
Mof_C 	C 	0.6205	0.7651	0.51475	0.042
Mof_C 	C 	0.5958	0.7446	0.55455	-0.136
Mof_H 	H 	0.598	0.7057	0.5607	0.069
Mof_C 	C 	0.5679	0.7815	0.58479	0.059
Mof_H 	H 	0.5516	0.7666	0.6113	-0.016
Mof_C 	C 	0.6144	0.8241	0.50745	-0.132
Mof_H 	H 	0.6291	0.8398	0.4809	0.067
Mof_C 	C 	0.5864	0.8585	0.53969	0.047
Mof_H 	H 	0.5836	0.8977	0.5345	-0.029
Mof_C 	C 	0.7501	0.4954	0.33708	0.073
Mof_H 	H 	0.7356	0.5144	0.3118	-0.036
Mof_C 	C 	0.7494	0.4363	0.33723	-0.145
Mof_H 	H 	0.7349	0.4164	0.3123	0.069
Mof_C 	C 	0.7923	0.4976	0.40745	0.074
Mof_H 	H 	0.8082	0.5184	0.4316	-0.032
Mof_C 	C 	0.7921	0.4389	0.40999	-0.142
Mof_H 	H 	0.8065	0.4209	0.4357	0.071
Mof_C 	C 	0.7704	0.4068	0.37447	0.055
Mof_Cu	Cu	0.76417	0.11023	0.87145	0.822
Mof_N 	N 	0.7122	0.15542	0.9173	-0.26
Mof_N 	N 	0.5629	0.33827	0.07842	-0.261
Mof_N 	N 	0.7708	0.02642	0.8717	-0.267
Mof_C 	C 	0.6734	0.2013	0.90647	0.079
Mof_H 	H 	0.6664	0.209	0.8768	-0.042
Mof_C 	C 	0.6436	0.2375	0.93631	-0.161
Mof_H 	H 	0.6178	0.2691	0.9267	0.079
Mof_C 	C 	0.7191	0.1451	0.96022	0.088
Mof_H 	H 	0.7445	0.1128	0.9687	-0.027
Mof_C 	C 	0.691	0.1791	0.99246	-0.149
Mof_H 	H 	0.6981	0.17	0.0219	0.077
Mof_C 	C 	0.6516	0.2274	0.98094	0.065
Mof_C 	C 	0.6205	0.2651	0.01475	0.042
Mof_C 	C 	0.5958	0.2446	0.05455	-0.135
Mof_H 	H 	0.598	0.2057	0.0607	0.069
Mof_C 	C 	0.5679	0.2815	0.08479	0.058
Mof_H 	H 	0.5516	0.2666	0.1113	-0.016
Mof_C 	C 	0.6144	0.3241	0.00745	-0.132
Mof_H 	H 	0.6291	0.3398	0.9809	0.067
Mof_C 	C 	0.5864	0.3585	0.03969	0.046
Mof_H 	H 	0.5836	0.3977	0.0345	-0.029
Mof_C 	C 	0.7501	0.9954	0.83708	0.073
Mof_H 	H 	0.7356	0.0144	0.8118	-0.037
Mof_C 	C 	0.7494	0.9363	0.83723	-0.146
Mof_H 	H 	0.7349	0.9164	0.8123	0.069
Mof_C 	C 	0.7923	0.9976	0.90745	0.074
Mof_H 	H 	0.8082	0.0184	0.9316	-0.033
Mof_C 	C 	0.7921	0.9389	0.90999	-0.142
Mof_H 	H 	0.8065	0.9209	0.9357	0.071
Mof_C 	C 	0.7704	0.9068	0.87447	0.055
Mof_Cu	Cu	0.26417	0.61023	0.87145	0.822
Mof_N 	N 	0.2122	0.65542	0.9173	-0.26
Mof_N 	N 	0.0629	0.83827	0.07842	-0.262
Mof_N 	N 	0.2708	0.52642	0.8717	-0.266
Mof_C 	C 	0.1734	0.7013	0.90647	0.079
Mof_H 	H 	0.1664	0.709	0.8768	-0.042
Mof_C 	C 	0.1436	0.7375	0.93631	-0.161
Mof_H 	H 	0.1178	0.7691	0.9267	0.079
Mof_C 	C 	0.2191	0.6451	0.96022	0.088
Mof_H 	H 	0.2445	0.6128	0.9687	-0.027
Mof_C 	C 	0.191	0.6791	0.99246	-0.149
Mof_H 	H 	0.1981	0.67	0.0219	0.076
Mof_C 	C 	0.1516	0.7274	0.98094	0.065
Mof_C 	C 	0.1205	0.7651	0.01475	0.042
Mof_C 	C 	0.0958	0.7446	0.05455	-0.136
Mof_H 	H 	0.098	0.7057	0.0607	0.069
Mof_C 	C 	0.0679	0.7815	0.08479	0.059
Mof_H 	H 	0.0516	0.7666	0.1113	-0.016
Mof_C 	C 	0.1144	0.8241	0.00745	-0.133
Mof_H 	H 	0.1291	0.8398	0.9809	0.068
Mof_C 	C 	0.0864	0.8585	0.03969	0.047
Mof_H 	H 	0.0836	0.8977	0.0345	-0.029
Mof_C 	C 	0.2501	0.4954	0.83708	0.073
Mof_H 	H 	0.2356	0.5144	0.8118	-0.036
Mof_C 	C 	0.2494	0.4363	0.83723	-0.145
Mof_H 	H 	0.2349	0.4164	0.8123	0.069
Mof_C 	C 	0.2923	0.4976	0.90745	0.074
Mof_H 	H 	0.3082	0.5184	0.9316	-0.032
Mof_C 	C 	0.2921	0.4389	0.90999	-0.142
Mof_H 	H 	0.3065	0.4209	0.9357	0.071
Mof_C 	C 	0.2704	0.4068	0.87447	0.055
Mof_Cu	Cu	0.26417	0.11023	0.37145	0.822
Mof_N 	N 	0.2122	0.15542	0.4173	-0.26
Mof_N 	N 	0.0629	0.33827	0.57842	-0.261
Mof_N 	N 	0.2708	0.02642	0.3717	-0.266
Mof_C 	C 	0.1734	0.2013	0.40647	0.079
Mof_H 	H 	0.1664	0.209	0.3768	-0.042
Mof_C 	C 	0.1436	0.2375	0.43631	-0.161
Mof_H 	H 	0.1178	0.2691	0.4267	0.079
Mof_C 	C 	0.2191	0.1451	0.46022	0.088
Mof_H 	H 	0.2445	0.1128	0.4687	-0.027
Mof_C 	C 	0.191	0.1791	0.49246	-0.149
Mof_H 	H 	0.1981	0.17	0.5219	0.077
Mof_C 	C 	0.1516	0.2274	0.48094	0.065
Mof_C 	C 	0.1205	0.2651	0.51475	0.042
Mof_C 	C 	0.0958	0.2446	0.55455	-0.136
Mof_H 	H 	0.098	0.2057	0.5607	0.069
Mof_C 	C 	0.0679	0.2815	0.58479	0.059
Mof_H 	H 	0.0516	0.2666	0.6113	-0.016
Mof_C 	C 	0.1144	0.3241	0.50745	-0.132
Mof_H 	H 	0.1291	0.3398	0.4809	0.067
Mof_C 	C 	0.0864	0.3585	0.53969	0.047
Mof_H 	H 	0.0836	0.3977	0.5345	-0.029
Mof_C 	C 	0.2501	0.9954	0.33708	0.071
Mof_H 	H 	0.2356	0.0144	0.3118	-0.036
Mof_C 	C 	0.2494	0.9363	0.33723	-0.144
Mof_H 	H 	0.2349	0.9164	0.3123	0.069
Mof_C 	C 	0.2923	0.9976	0.40745	0.072
Mof_H 	H 	0.3082	0.0184	0.4316	-0.032
Mof_C 	C 	0.2921	0.9389	0.40999	-0.141
Mof_H 	H 	0.3065	0.9209	0.4357	0.07
Mof_C 	C 	0.2704	0.9068	0.37447	0.054
_end
