data_functionalizedCrystal
_audit_creation_method	'EQeq! by Chris Wilmer'
_symmetry_space_group_name_H-M	'P1'
_symmetry_Int_Tables_number	1
_symmetry_cell_setting	triclinic
loop_
_symmetry_equiv_pos_as_xyz
  x,y,z
_cell_length_a	8.7047
_cell_length_b	11.2366
_cell_length_c	17.7293
_cell_angle_alpha	84.5437
_cell_angle_beta	75.7896
_cell_angle_gamma	67.211
loop_
_atom_site_label
_atom_site_type_symbol
_atom_site_fract_x
_atom_site_fract_y
_atom_site_fract_z
_atom_site_charge
Mof_Sc	Sc	0.63573	0.25	0.72854	1.983
Mof_Sc	Sc	0.11427	0.25	0.77146	1.982
Mof_Sc	Sc	0.36427	0.75	0.27146	1.984
Mof_Sc	Sc	0.88573	0.75	0.22854	1.983
Mof_C 	C 	0.01956	0.68238	0.75038	0.019
Mof_C 	C 	0.90077	0.3597	0.63296	0.587
Mof_C 	C 	0.95257	0.43518	0.56408	-0.173
Mof_C 	C 	0.85497	0.46814	0.50852	0.014
Mof_C 	C 	0.09842	0.4597	0.55506	0.027
Mof_C 	C 	0.23006	0.81762	0.75038	0.021
Mof_C 	C 	0.46627	0.1403	0.63296	0.587
Mof_C 	C 	0.48335	0.06482	0.56408	-0.173
Mof_C 	C 	0.63651	0.03186	0.50852	0.014
Mof_C 	C 	0.34652	0.0403	0.55506	0.026
Mof_C 	C 	0.29806	0.68238	0.74962	0.02
Mof_C 	C 	0.73953	0.3597	0.86704	0.587
Mof_C 	C 	0.61225	0.43518	0.93592	-0.173
Mof_C 	C 	0.67689	0.46814	0.99148	0.014
Mof_C 	C 	0.44188	0.4597	0.94494	0.027
Mof_C 	C 	0.95232	0.81762	0.74962	0.021
Mof_C 	C 	0.39343	0.1403	0.86704	0.587
Mof_C 	C 	0.45183	0.06482	0.93592	-0.173
Mof_C 	C 	0.33163	0.03186	0.99148	0.014
Mof_C 	C 	0.61318	0.0403	0.94494	0.028
Mof_C 	C 	0.98044	0.31762	0.24962	0.019
Mof_C 	C 	0.09923	0.6403	0.36704	0.587
Mof_C 	C 	0.04743	0.56482	0.43592	-0.173
Mof_C 	C 	0.14503	0.53186	0.49148	0.014
Mof_C 	C 	0.90158	0.5403	0.44494	0.027
Mof_C 	C 	0.76994	0.18238	0.24962	0.021
Mof_C 	C 	0.53373	0.8597	0.36704	0.587
Mof_C 	C 	0.51665	0.93518	0.43592	-0.173
Mof_C 	C 	0.36349	0.96814	0.49148	0.016
Mof_C 	C 	0.65348	0.9597	0.44494	0.027
Mof_C 	C 	0.70194	0.31762	0.25038	0.02
Mof_C 	C 	0.26047	0.6403	0.13296	0.587
Mof_C 	C 	0.38775	0.56482	0.06408	-0.173
Mof_C 	C 	0.32311	0.53186	0.00852	0.014
Mof_C 	C 	0.55812	0.5403	0.05506	0.027
Mof_C 	C 	0.04768	0.18238	0.25038	0.021
Mof_C 	C 	0.60657	0.8597	0.13296	0.587
Mof_C 	C 	0.54817	0.93518	0.06408	-0.173
Mof_C 	C 	0.66837	0.96814	0.00852	0.013
Mof_C 	C 	0.38682	0.9597	0.05506	0.027
Mof_C 	C 	0.26234	0.47532	0.75	0.564
Mof_C 	C 	0.19115	0.6177	0.75	-0.169
Mof_C 	C 	0.98766	0.02468	0.75	0.567
Mof_C 	C 	0.05885	0.8823	0.75	-0.171
Mof_C 	C 	0.73766	0.52468	0.25	0.564
Mof_C 	C 	0.80885	0.3823	0.25	-0.169
Mof_C 	C 	0.01234	0.97532	0.25	0.567
Mof_C 	C 	0.94115	0.1177	0.25	-0.171
Mof_O 	O 	0.42044	0.41644	0.72908	-0.578
Mof_O 	O 	0.77769	0.33092	0.6417	-0.583
Mof_O 	O 	0.98653	0.3314	0.68434	-0.593
Mof_O 	O 	0.85048	0.08356	0.72908	-0.579
Mof_O 	O 	0.58061	0.16908	0.6417	-0.583
Mof_O 	O 	0.32913	0.1686	0.68434	-0.593
Mof_O 	O 	0.16312	0.41644	0.77092	-0.579
Mof_O 	O 	0.89139	0.33092	0.8583	-0.582
Mof_O 	O 	0.68207	0.3314	0.81566	-0.593
Mof_O 	O 	0.06596	0.08356	0.77092	-0.58
Mof_O 	O 	0.25031	0.16908	0.8583	-0.583
Mof_O 	O 	0.50227	0.1686	0.81566	-0.593
Mof_O 	O 	0.57956	0.58356	0.27092	-0.578
Mof_O 	O 	0.22231	0.66908	0.3583	-0.583
Mof_O 	O 	0.01347	0.6686	0.31566	-0.593
Mof_O 	O 	0.14952	0.91644	0.27092	-0.579
Mof_O 	O 	0.41939	0.83092	0.3583	-0.583
Mof_O 	O 	0.67087	0.8314	0.31566	-0.593
Mof_O 	O 	0.83688	0.58356	0.22908	-0.579
Mof_O 	O 	0.10861	0.66908	0.1417	-0.582
Mof_O 	O 	0.31793	0.6686	0.18434	-0.593
Mof_O 	O 	0.93404	0.91644	0.22908	-0.58
Mof_O 	O 	0.74969	0.83092	0.1417	-0.583
Mof_O 	O 	0.49773	0.8314	0.18434	-0.593
Mof_H 	H 	0.9332	0.62737	0.7513	0.031
Mof_H 	H 	0.74261	0.43635	0.51605	0.037
Mof_H 	H 	0.18143	0.42121	0.59941	0.023
Mof_H 	H 	0.31551	0.87263	0.7513	0.03
Mof_H 	H 	0.74134	0.06365	0.51605	0.037
Mof_H 	H 	0.21916	0.07879	0.59941	0.023
Mof_H 	H 	0.43943	0.62737	0.7487	0.03
Mof_H 	H 	0.82105	0.43635	0.98395	0.037
Mof_H 	H 	0.39736	0.42121	0.90059	0.023
Mof_H 	H 	0.81186	0.87263	0.7487	0.03
Mof_H 	H 	0.195	0.06365	0.98395	0.037
Mof_H 	H 	0.70205	0.07879	0.90059	0.023
Mof_H 	H 	0.0668	0.37263	0.2487	0.031
Mof_H 	H 	0.25739	0.56365	0.48395	0.037
Mof_H 	H 	0.81857	0.57879	0.40059	0.023
Mof_H 	H 	0.68449	0.12737	0.2487	0.03
Mof_H 	H 	0.25431	0.93902	0.48698	0.036
Mof_H 	H 	0.78099	0.92134	0.40068	0.023
Mof_H 	H 	0.56057	0.37263	0.2513	0.03
Mof_H 	H 	0.17895	0.56365	0.01605	0.037
Mof_H 	H 	0.60301	0.57866	0.09932	0.023
Mof_H 	H 	0.18814	0.12737	0.2513	0.03
Mof_H 	H 	0.805	0.93635	0.01605	0.037
Mof_H 	H 	0.29767	0.92134	0.09932	0.023
_end
