data_functionalizedCrystal
_audit_creation_method	'EQeq! by Chris Wilmer'
_symmetry_space_group_name_H-M	'P1'
_symmetry_Int_Tables_number	1
_symmetry_cell_setting	triclinic
loop_
_symmetry_equiv_pos_as_xyz
  x,y,z
_cell_length_a	11.6182
_cell_length_b	15.5887
_cell_length_c	13.1134
_cell_angle_alpha	90
_cell_angle_beta	90
_cell_angle_gamma	90
loop_
_atom_site_label
_atom_site_type_symbol
_atom_site_fract_x
_atom_site_fract_y
_atom_site_fract_z
_atom_site_charge
Mof_Ce	Ce	0.75	0.71365	0.06121	2.183
Mof_Ce	Ce	0.25	0.78635	0.56121	2.196
Mof_Ce	Ce	0.25	0.28635	0.93879	2.189
Mof_Ce	Ce	0.75	0.21365	0.43879	2.195
Mof_U 	U 	0.75	0.753	0.34295	0.011
Mof_U 	U 	0.25	0.747	0.84295	0.011
Mof_U 	U 	0.25	0.247	0.65705	0.011
Mof_U 	U 	0.75	0.253	0.15705	0.012
Mof_U 	U 	-0	0	-0	0.024
Mof_U 	U 	2.11596e-33	0.5	0.5	0.021
Mof_U 	U 	0.5	0	-0	0.023
Mof_U 	U 	0.5	0.5	0.5	0.022
Mof_C 	C 	0.8702	0.7686	0.7189	-0.053
Mof_C 	C 	0.0008	0.7661	0.7195	0.376
Mof_C 	C 	0.8102	0.8092	0.7971	-0.081
Mof_C 	C 	0.8734	0.855	0.8812	0.356
Mof_C 	C 	0.8741	0.6728	0.5663	0.276
Mof_C 	C 	0.8098	0.7277	0.6404	-0.027
Mof_C 	C 	0.1298	0.7314	0.2189	-0.057
Mof_C 	C 	0.9992	0.7339	0.2195	0.38
Mof_C 	C 	0.1898	0.6908	0.2971	-0.081
Mof_C 	C 	0.1266	0.645	0.3812	0.356
Mof_C 	C 	0.1259	0.8272	0.0663	0.272
Mof_C 	C 	0.1902	0.7723	0.1404	-0.027
Mof_C 	C 	0.3702	0.2314	0.2811	-0.058
Mof_C 	C 	0.5008	0.2339	0.2805	0.38
Mof_C 	C 	0.3102	0.1908	0.2029	-0.081
Mof_C 	C 	0.3734	0.145	0.1188	0.356
Mof_C 	C 	0.3741	0.3272	0.4337	0.275
Mof_C 	C 	0.3098	0.2723	0.3596	-0.026
Mof_C 	C 	0.6298	0.2686	0.7811	-0.058
Mof_C 	C 	0.4992	0.2661	0.7805	0.38
Mof_C 	C 	0.6898	0.3092	0.7029	-0.08
Mof_C 	C 	0.6266	0.355	0.6188	0.356
Mof_C 	C 	0.6259	0.1728	0.9337	0.274
Mof_C 	C 	0.6902	0.2277	0.8596	-0.026
Mof_C 	C 	0.1298	0.2314	0.2811	-0.057
Mof_C 	C 	0.9992	0.2339	0.2805	0.379
Mof_C 	C 	0.1898	0.1908	0.2029	-0.081
Mof_C 	C 	0.1266	0.145	0.1188	0.356
Mof_C 	C 	0.1259	0.3272	0.4337	0.276
Mof_C 	C 	0.1902	0.2723	0.3596	-0.027
Mof_C 	C 	0.8702	0.2686	0.7811	-0.053
Mof_C 	C 	0.0008	0.2661	0.7805	0.376
Mof_C 	C 	0.8102	0.3092	0.7029	-0.082
Mof_C 	C 	0.8734	0.355	0.6188	0.357
Mof_C 	C 	0.8741	0.1728	0.9337	0.277
Mof_C 	C 	0.8098	0.2277	0.8596	-0.028
Mof_C 	C 	0.6298	0.7686	0.7189	-0.058
Mof_C 	C 	0.4992	0.7661	0.7195	0.381
Mof_C 	C 	0.6898	0.8092	0.7971	-0.079
Mof_C 	C 	0.6266	0.855	0.8812	0.355
Mof_C 	C 	0.6259	0.6728	0.5663	0.275
Mof_C 	C 	0.6902	0.7277	0.6404	-0.026
Mof_C 	C 	0.3702	0.7314	0.2189	-0.058
Mof_C 	C 	0.5008	0.7339	0.2195	0.38
Mof_C 	C 	0.3102	0.6908	0.2971	-0.081
Mof_C 	C 	0.3734	0.645	0.3812	0.356
Mof_C 	C 	0.3741	0.8272	0.0663	0.27
Mof_C 	C 	0.3098	0.7723	0.1404	-0.025
Mof_O 	O 	0.9253	0.9232	0.8574	-0.201
Mof_O 	O 	0.8708	0.8262	0.9697	-0.422
Mof_O 	O 	0.9311	0.6123	0.6048	-0.183
Mof_O 	O 	0.8681	0.6855	0.4724	-0.168
Mof_O 	O 	0.047	0.7386	0.8007	-0.243
Mof_O 	O 	0.0514	0.791	0.641	-0.471
Mof_O 	O 	0.0747	0.5768	0.3574	-0.206
Mof_O 	O 	0.1292	0.6738	0.4697	-0.43
Mof_O 	O 	0.0689	0.8877	0.1048	-0.186
Mof_O 	O 	0.1319	0.8145	0.9724	-0.166
Mof_O 	O 	0.953	0.7614	0.3007	-0.242
Mof_O 	O 	0.9486	0.709	0.141	-0.471
Mof_O 	O 	0.4253	0.0768	0.1426	-0.206
Mof_O 	O 	0.3708	0.1738	0.0303	-0.427
Mof_O 	O 	0.4311	0.3877	0.3952	-0.184
Mof_O 	O 	0.3681	0.3145	0.5276	-0.169
Mof_O 	O 	0.547	0.2614	0.1993	-0.242
Mof_O 	O 	0.5514	0.209	0.359	-0.471
Mof_O 	O 	0.5747	0.4232	0.6426	-0.206
Mof_O 	O 	0.6292	0.3262	0.5303	-0.429
Mof_O 	O 	0.5689	0.1123	0.8952	-0.187
Mof_O 	O 	0.6319	0.1855	0.0276	-0.167
Mof_O 	O 	0.453	0.2386	0.6993	-0.243
Mof_O 	O 	0.4486	0.291	0.859	-0.47
Mof_O 	O 	0.0747	0.0768	0.1426	-0.205
Mof_O 	O 	0.1292	0.1738	0.0303	-0.426
Mof_O 	O 	0.0689	0.3877	0.3952	-0.185
Mof_O 	O 	0.1319	0.3145	0.5276	-0.169
Mof_O 	O 	0.953	0.2614	0.1993	-0.243
Mof_O 	O 	0.9486	0.209	0.359	-0.471
Mof_O 	O 	0.9253	0.4232	0.6426	-0.205
Mof_O 	O 	0.8708	0.3262	0.5303	-0.429
Mof_O 	O 	0.9311	0.1123	0.8952	-0.187
Mof_O 	O 	0.8681	0.1855	0.0276	-0.169
Mof_O 	O 	0.047	0.2386	0.6993	-0.243
Mof_O 	O 	0.0514	0.291	0.859	-0.471
Mof_O 	O 	0.5747	0.9232	0.8574	-0.203
Mof_O 	O 	0.6292	0.8262	0.9697	-0.424
Mof_O 	O 	0.5689	0.6123	0.6048	-0.184
Mof_O 	O 	0.6319	0.6855	0.4724	-0.169
Mof_O 	O 	0.453	0.7386	0.8007	-0.242
Mof_O 	O 	0.4486	0.791	0.641	-0.471
Mof_O 	O 	0.4253	0.5768	0.3574	-0.206
Mof_O 	O 	0.3708	0.6738	0.4697	-0.429
Mof_O 	O 	0.4311	0.8877	0.1048	-0.185
Mof_O 	O 	0.3681	0.8145	0.9724	-0.163
Mof_O 	O 	0.547	0.7614	0.3007	-0.243
Mof_O 	O 	0.5514	0.709	0.141	-0.471
Mof_O 	O 	0.75	0.6589	0.2664	-0.21
Mof_O 	O 	0.75	0.8221	0.1923	-0.309
Mof_O 	O 	0.25	0.8411	0.7664	-0.211
Mof_O 	O 	0.25	0.6779	0.6923	-0.309
Mof_O 	O 	0.25	0.3411	0.7336	-0.211
Mof_O 	O 	0.25	0.1779	0.8077	-0.31
Mof_O 	O 	0.75	0.1589	0.2336	-0.212
Mof_O 	O 	0.75	0.3221	0.3077	-0.308
_end
