data_functionalizedCrystal
_audit_creation_method	'EQeq! by Chris Wilmer'
_symmetry_space_group_name_H-M	'P1'
_symmetry_Int_Tables_number	1
_symmetry_cell_setting	triclinic
loop_
_symmetry_equiv_pos_as_xyz
  x,y,z
_cell_length_a	25.7369
_cell_length_b	25.7369
_cell_length_c	61.601
_cell_angle_alpha	90
_cell_angle_beta	90
_cell_angle_gamma	120
loop_
_atom_site_label
_atom_site_type_symbol
_atom_site_fract_x
_atom_site_fract_y
_atom_site_fract_z
_atom_site_charge
Mof_Cd	Cd	0.24407	0.59597	0.94355	0.484
Mof_Cd	Cd	0.26759	0.56816	0.88828	0.489
Mof_O 	O 	0.65665	0.39475	0.85217	-0.29
Mof_O 	O 	0.60403	0.37125	0.88211	-0.287
Mof_O 	O 	0.61467	0.3653	0.636	-0.258
Mof_O 	O 	0.52297	0.29781	0.62402	-0.266
Mof_O 	O 	0.86833	0.86585	0.71969	-0.272
Mof_O 	O 	0.87941	0.94171	0.74003	-0.289
Mof_O 	O 	0.72052	0.31296	0.80026	-0.283
Mof_O 	O 	0.69021	0.25909	0.76982	-0.279
Mof_O 	O 	0.16618	0.49611	0.94281	-0.261
Mof_O 	O 	0.24477	0.51937	0.92203	-0.274
Mof_O 	O 	0.643	0.1606	0.03938	-0.268
Mof_O 	O 	0.6664	0.2349	0.01751	-0.242
Mof_O 	O 	0.56945	0.48936	0.80322	-0.258
Mof_O 	O 	0.66717	0.69533	0.74759	-0.27
Mof_O 	O 	0.56115	0.45348	0.69899	-0.253
Mof_O 	O 	0.79174	0.20298	0.84903	-0.263
Mof_O 	O 	0.7464	0.18565	0.95146	-0.26
Mof_O 	O 	0.00142	0.30196	0.90689	-0.266
Mof_C 	C 	0.61526	0.39364	0.86363	0.276
Mof_C 	C 	0.58231	0.42239	0.8546	0.002
Mof_C 	C 	0.5433	0.4324	0.86745	-0.1
Mof_H 	H 	0.5357	0.4189	0.8821	0.06
Mof_C 	C 	0.5154	0.4625	0.85857	0.047
Mof_H 	H 	0.4896	0.4702	0.8674	0.013
Mof_C 	C 	0.5247	0.4807	0.83758	-0.185
Mof_H 	H 	0.5061	0.5016	0.8318	0.1
Mof_C 	C 	0.5623	0.4686	0.82431	0.203
Mof_C 	C 	0.59137	0.441	0.83313	-0.169
Mof_H 	H 	0.6181	0.4347	0.8244	0.103
Mof_C 	C 	0.6103	0.4799	0.78944	0.108
Mof_H 	H 	0.595	0.4365	0.7873	0.007
Mof_H 	H 	0.6506	0.4981	0.7961	0.004
Mof_C 	C 	0.61283	0.50994	0.76787	-0.225
Mof_C 	C 	0.5731	0.4775	0.75159	0.291
Mof_C 	C 	0.57489	0.5063	0.73195	-0.219
Mof_C 	C 	0.6177	0.567	0.72898	0.272
Mof_C 	C 	0.65712	0.5989	0.74577	-0.226
Mof_C 	C 	0.65471	0.5722	0.76591	0.288
Mof_C 	C 	0.6942	0.6079	0.78442	-0.666
Mof_H 	H 	0.7336	0.611	0.7829	0.224
Mof_H 	H 	0.6759	0.5879	0.7981	0.229
Mof_H 	H 	0.699	0.6481	0.7843	0.226
Mof_C 	C 	0.5284	0.4113	0.75461	-0.664
Mof_H 	H 	0.5445	0.3874	0.7482	0.238
Mof_H 	H 	0.4905	0.4015	0.7474	0.231
Mof_H 	H 	0.5212	0.4023	0.7701	0.231
Mof_C 	C 	0.6223	0.5976	0.70702	-0.626
Mof_H 	H 	0.6506	0.5933	0.6976	0.216
Mof_H 	H 	0.6365	0.6403	0.7094	0.213
Mof_H 	H 	0.5828	0.5787	0.7001	0.219
Mof_C 	C 	0.7007	0.6665	0.74289	0.13
Mof_H 	H 	0.735	0.6804	0.753	-0.009
Mof_H 	H 	0.7162	0.6754	0.7278	-0.01
Mof_C 	C 	0.6972	0.756	0.74576	0.21
Mof_C 	C 	0.6638	0.7844	0.75096	-0.18
Mof_H 	H 	0.6225	0.7609	0.7547	0.09
Mof_C 	C 	0.6912	0.846	0.75062	0.06
Mof_H 	H 	0.6689	0.8648	0.7545	0.006
Mof_C 	C 	0.7509	0.8811	0.74465	-0.093
Mof_H 	H 	0.7694	0.9236	0.7448	0.082
Mof_C 	C 	0.78369	0.8536	0.73846	0.014
Mof_C 	C 	0.75615	0.79069	0.73909	-0.159
Mof_H 	H 	0.7783	0.7718	0.7349	0.095
Mof_C 	C 	0.5314	0.4727	0.71365	0.131
Mof_H 	H 	0.4948	0.4377	0.7195	-0.004
Mof_H 	H 	0.5197	0.4993	0.7061	-0.001
Mof_C 	C 	0.5303	0.4255	0.68036	0.232
Mof_C 	C 	0.4741	0.4154	0.67529	-0.222
Mof_H 	H 	0.4544	0.4293	0.6847	0.111
Mof_C 	C 	0.4464	0.385	0.65649	0.091
Mof_H 	H 	0.4085	0.3801	0.6526	-0.012
Mof_C 	C 	0.4731	0.3617	0.64329	-0.126
Mof_H 	H 	0.4528	0.3392	0.6307	0.085
Mof_C 	C 	0.5292	0.3713	0.64842	0.041
Mof_C 	C 	0.5594	0.4043	0.66653	-0.173
Mof_H 	H 	0.599	0.4127	0.6696	0.117
Mof_C 	C 	0.5572	0.3429	0.63512	0.256
Mof_C 	C 	0.71312	0.2686	0.78884	0.256
Mof_C 	C 	0.734	0.2278	0.79762	0.013
Mof_C 	C 	0.75216	0.23576	0.81944	-0.171
Mof_H 	H 	0.7513	0.2658	0.8281	0.105
Mof_C 	C 	0.7717	0.1979	0.82811	0.208
Mof_C 	C 	0.7758	0.1557	0.81517	-0.189
Mof_H 	H 	0.7908	0.1316	0.821	0.102
Mof_C 	C 	0.7572	0.1493	0.79346	0.048
Mof_H 	H 	0.7594	0.1202	0.7846	0.015
Mof_C 	C 	0.7356	0.1847	0.78458	-0.106
Mof_H 	H 	0.7224	0.1794	0.7699	0.07
Mof_C 	C 	0.7914	0.2496	0.8622	0.107
Mof_H 	H 	0.7499	0.2415	0.8642	0.007
Mof_H 	H 	0.8153	0.2892	0.8551	0.003
Mof_C 	C 	0.81864	0.24872	0.88364	-0.206
Mof_C 	C 	0.78098	0.2066	0.89993	0.261
Mof_C 	C 	0.8064	0.2049	0.91999	-0.213
Mof_C 	C 	0.8672	0.246	0.92454	0.264
Mof_C 	C 	0.9033	0.2873	0.90866	-0.222
Mof_C 	C 	0.8801	0.28665	0.88797	0.262
Mof_C 	C 	0.9202	0.3259	0.86968	-0.627
Mof_H 	H 	0.9251	0.3661	0.8709	0.213
Mof_H 	H 	0.9017	0.3082	0.8557	0.214
Mof_H 	H 	0.9595	0.3288	0.8707	0.218
Mof_C 	C 	0.7155	0.1656	0.89477	-0.643
Mof_H 	H 	0.7023	0.1257	0.9008	0.22
Mof_H 	H 	0.7099	0.1625	0.879	0.224
Mof_H 	H 	0.6917	0.1819	0.9011	0.222
Mof_C 	C 	0.8922	0.2486	0.94705	-0.631
Mof_H 	H 	0.9333	0.2559	0.9459	0.213
Mof_H 	H 	0.8671	0.2104	0.9545	0.224
Mof_H 	H 	0.8923	0.2812	0.9553	0.211
Mof_C 	C 	0.7686	0.1579	0.93654	0.116
Mof_H 	H 	0.7347	0.123	0.9293	0
Mof_H 	H 	0.7929	0.144	0.9444	0.004
Mof_C 	C 	0.7177	0.1525	0.9697	0.216
Mof_C 	C 	0.703	0.1821	0.98505	-0.174
Mof_H 	H 	0.7112	0.2219	0.9825	0.111
Mof_C 	C 	0.6754	0.1518	0.00466	0.031
Mof_C 	C 	0.6611	0.0948	0.00778	-0.124
Mof_H 	H 	0.6395	0.0742	0.0204	0.084
Mof_C 	C 	0.6771	0.0663	0.99324	0.077
Mof_H 	H 	0.672	0.028	0.9967	-0.006
Mof_C 	C 	0.7014	0.0925	0.9729	-0.202
Mof_H 	H 	0.7064	0.07	0.9617	0.102
Mof_C 	C 	0.6612	0.1848	0.02141	0.264
Mof_C 	C 	0.9681	0.3311	0.91338	0.125
Mof_H 	H 	0.9817	0.3686	0.905	-0.006
Mof_H 	H 	0.974	0.341	0.929	-0.01
Mof_C 	C 	0.0631	0.3366	0.9077	0.218
Mof_C 	C 	0.0942	0.39103	0.91856	-0.171
Mof_H 	H 	0.0734	0.4068	0.9264	0.098
Mof_C 	C 	0.1574	0.4223	0.91773	0.027
Mof_C 	C 	0.187	0.3983	0.90642	-0.106
Mof_H 	H 	0.2296	0.42	0.9055	0.079
Mof_C 	C 	0.1556	0.3437	0.89657	0.073
Mof_H 	H 	0.1765	0.3268	0.8895	0.006
Mof_C 	C 	0.0934	0.3128	0.89683	-0.198
Mof_H 	H 	0.0716	0.2754	0.8895	0.106
Mof_C 	C 	0.191	0.4822	0.92854	0.258
Mof_C 	C 	0.8482	0.8899	0.73231	0.291
Mof_O 	O 	0.6797	0.3295	0.9188	-0.109
Mof_C 	C 	0.7209	0.3749	0.9275	0.132
Mof_H 	H 	0.7145	0.4069	0.9316	0.001
Mof_N 	N 	0.78	0.3798	0.93142	-0.052
Mof_C 	C 	0.7857	0.326	0.931	-0.305
Mof_H 	H 	0.756	0.2958	0.9409	0.13
Mof_H 	H 	0.8261	0.3363	0.9358	0.122
Mof_H 	H 	0.7788	0.3098	0.9163	0.131
Mof_C 	C 	0.8319	0.4387	0.9355	-0.301
Mof_H 	H 	0.8596	0.4346	0.9454	0.119
Mof_H 	H 	0.8188	0.4648	0.9422	0.126
Mof_H 	H 	0.8524	0.4564	0.9218	0.114
Mof_Cd	Cd	0.91074	0.9293	0.27689	0.488
Mof_Cd	Cd	0.93425	0.90149	0.22161	0.494
Mof_O 	O 	0.32332	0.72808	0.1855	-0.289
Mof_O 	O 	0.2707	0.70458	0.21544	-0.286
Mof_O 	O 	0.28134	0.69863	0.96933	-0.257
Mof_O 	O 	0.18964	0.63114	0.95735	-0.265
Mof_O 	O 	0.535	0.19918	0.05302	-0.271
Mof_O 	O 	0.54608	0.27504	0.07336	-0.291
Mof_O 	O 	0.38719	0.64629	0.13359	-0.282
Mof_O 	O 	0.35688	0.59242	0.10315	-0.278
Mof_O 	O 	0.83285	0.82944	0.27614	-0.261
Mof_O 	O 	0.91144	0.8527	0.25536	-0.273
Mof_O 	O 	0.30967	0.49393	0.37271	-0.267
Mof_O 	O 	0.33307	0.56823	0.35084	-0.241
Mof_O 	O 	0.23612	0.82269	0.13655	-0.259
Mof_O 	O 	0.33384	0.02866	0.08092	-0.283
Mof_O 	O 	0.22782	0.78681	0.03232	-0.254
Mof_O 	O 	0.45841	0.53631	0.18236	-0.263
Mof_O 	O 	0.41307	0.51898	0.28479	-0.26
Mof_O 	O 	0.66809	0.63529	0.24022	-0.265
Mof_C 	C 	0.28193	0.72697	0.19696	0.276
Mof_C 	C 	0.24898	0.75572	0.18793	0.002
Mof_C 	C 	0.20997	0.76573	0.20078	-0.1
Mof_H 	H 	0.20237	0.75223	0.21543	0.06
Mof_C 	C 	0.18207	0.79583	0.1919	0.048
Mof_H 	H 	0.15627	0.80353	0.20073	0.013
Mof_C 	C 	0.19137	0.81403	0.17091	-0.185
Mof_H 	H 	0.17277	0.83493	0.16513	0.1
Mof_C 	C 	0.22897	0.80193	0.15764	0.203
Mof_C 	C 	0.25804	0.77433	0.16646	-0.169
Mof_H 	H 	0.28477	0.76803	0.15773	0.103
Mof_C 	C 	0.27697	0.81323	0.12277	0.11
Mof_H 	H 	0.26167	0.76983	0.12063	0.007
Mof_H 	H 	0.31727	0.83143	0.12943	0.003
Mof_C 	C 	0.2795	0.84327	0.1012	-0.23
Mof_C 	C 	0.23977	0.81083	0.08492	0.295
Mof_C 	C 	0.24156	0.83963	0.06528	-0.224
Mof_C 	C 	0.28437	0.90033	0.06231	0.28
Mof_C 	C 	0.32379	0.93223	0.0791	-0.239
Mof_C 	C 	0.32138	0.90553	0.09924	0.297
Mof_C 	C 	0.36087	0.94123	0.11775	-0.677
Mof_H 	H 	0.40027	0.94433	0.11623	0.229
Mof_H 	H 	0.34257	0.92123	0.13143	0.232
Mof_H 	H 	0.36567	0.98143	0.11763	0.231
Mof_C 	C 	0.19507	0.74463	0.08794	-0.668
Mof_H 	H 	0.21117	0.72073	0.08153	0.239
Mof_H 	H 	0.15717	0.73483	0.08073	0.232
Mof_H 	H 	0.18787	0.73563	0.10343	0.232
Mof_C 	C 	0.28897	0.93093	0.04035	-0.635
Mof_H 	H 	0.31727	0.92663	0.03093	0.22
Mof_H 	H 	0.30317	0.97363	0.04273	0.218
Mof_H 	H 	0.24947	0.91203	0.03343	0.222
Mof_C 	C 	0.36737	0.99983	0.07622	0.169
Mof_H 	H 	0.40167	0.01373	0.08633	-0.025
Mof_H 	H 	0.38287	0.00873	0.06113	-0.025
Mof_C 	C 	0.36387	0.08933	0.07909	0.214
Mof_C 	C 	0.33047	0.11773	0.08429	-0.184
Mof_H 	H 	0.28917	0.09423	0.08803	0.09
Mof_C 	C 	0.35787	0.17933	0.08395	0.062
Mof_H 	H 	0.33557	0.19813	0.08783	0.005
Mof_C 	C 	0.41757	0.21443	0.07798	-0.094
Mof_H 	H 	0.43607	0.25693	0.07813	0.081
Mof_C 	C 	0.45036	0.18693	0.07179	0.015
Mof_C 	C 	0.42282	0.12402	0.07242	-0.162
Mof_H 	H 	0.44497	0.10513	0.06823	0.096
Mof_C 	C 	0.19807	0.80603	0.04698	0.133
Mof_H 	H 	0.16147	0.77103	0.05283	-0.005
Mof_H 	H 	0.18637	0.83263	0.03943	-0.002
Mof_C 	C 	0.19697	0.75883	0.01369	0.232
Mof_C 	C 	0.14077	0.74873	0.00862	-0.222
Mof_H 	H 	0.12107	0.76263	0.01803	0.111
Mof_C 	C 	0.11307	0.71833	0.98982	0.091
Mof_H 	H 	0.07517	0.71343	0.98593	-0.012
Mof_C 	C 	0.13977	0.69503	0.97662	-0.126
Mof_H 	H 	0.11947	0.67253	0.96403	0.085
Mof_C 	C 	0.19587	0.70463	0.98175	0.041
Mof_C 	C 	0.22607	0.73763	0.99986	-0.173
Mof_H 	H 	0.26567	0.74603	0.00293	0.117
Mof_C 	C 	0.22387	0.67623	0.96845	0.256
Mof_C 	C 	0.37979	0.60193	0.12217	0.256
Mof_C 	C 	0.40067	0.56113	0.13095	0.013
Mof_C 	C 	0.41883	0.56909	0.15277	-0.171
Mof_H 	H 	0.41797	0.59913	0.16143	0.105
Mof_C 	C 	0.43837	0.53123	0.16144	0.208
Mof_C 	C 	0.44247	0.48903	0.1485	-0.189
Mof_H 	H 	0.45747	0.46493	0.15433	0.102
Mof_C 	C 	0.42387	0.48263	0.12679	0.048
Mof_H 	H 	0.42607	0.45353	0.11793	0.016
Mof_C 	C 	0.40227	0.51803	0.11791	-0.106
Mof_H 	H 	0.38907	0.51273	0.10323	0.07
Mof_C 	C 	0.45807	0.58293	0.19553	0.107
Mof_H 	H 	0.41657	0.57483	0.19753	0.007
Mof_H 	H 	0.48197	0.62253	0.18843	0.003
Mof_C 	C 	0.48531	0.58205	0.21697	-0.206
Mof_C 	C 	0.44765	0.53993	0.23326	0.261
Mof_C 	C 	0.47307	0.53823	0.25332	-0.213
Mof_C 	C 	0.53387	0.57933	0.25787	0.264
Mof_C 	C 	0.56997	0.62063	0.24199	-0.222
Mof_C 	C 	0.54677	0.61998	0.2213	0.261
Mof_C 	C 	0.58687	0.65923	0.20301	-0.627
Mof_H 	H 	0.59177	0.69943	0.20423	0.213
Mof_H 	H 	0.56837	0.64153	0.18903	0.214
Mof_H 	H 	0.62617	0.66213	0.20403	0.218
Mof_C 	C 	0.38217	0.49893	0.2281	-0.644
Mof_H 	H 	0.36897	0.45903	0.23413	0.221
Mof_H 	H 	0.37657	0.49583	0.21233	0.224
Mof_H 	H 	0.35837	0.51523	0.23443	0.222
Mof_C 	C 	0.55887	0.58193	0.28038	-0.63
Mof_H 	H 	0.59997	0.58923	0.27923	0.213
Mof_H 	H 	0.53377	0.54373	0.28783	0.224
Mof_H 	H 	0.55897	0.61453	0.28863	0.211
Mof_C 	C 	0.43527	0.49123	0.26987	0.116
Mof_H 	H 	0.40137	0.45633	0.26263	0.001
Mof_H 	H 	0.45957	0.47733	0.27773	0.004
Mof_C 	C 	0.38437	0.48583	0.30303	0.216
Mof_C 	C 	0.36967	0.51543	0.31838	-0.174
Mof_H 	H 	0.37787	0.55523	0.31583	0.111
Mof_C 	C 	0.34207	0.48513	0.33799	0.031
Mof_C 	C 	0.32777	0.42813	0.34111	-0.124
Mof_H 	H 	0.30617	0.40753	0.35373	0.085
Mof_C 	C 	0.34377	0.39963	0.32657	0.077
Mof_H 	H 	0.33867	0.36133	0.33003	-0.004
Mof_C 	C 	0.36807	0.42583	0.30623	-0.201
Mof_H 	H 	0.37307	0.40333	0.29503	0.103
Mof_C 	C 	0.32787	0.51813	0.35474	0.264
Mof_C 	C 	0.63477	0.66443	0.24671	0.124
Mof_H 	H 	0.64837	0.70193	0.23833	-0.006
Mof_H 	H 	0.64067	0.67433	0.26233	-0.01
Mof_C 	C 	0.72977	0.66993	0.24103	0.218
Mof_C 	C 	0.76087	0.72436	0.25189	-0.171
Mof_H 	H 	0.74007	0.74013	0.25973	0.099
Mof_C 	C 	0.82407	0.75563	0.25106	0.027
Mof_C 	C 	0.85367	0.73163	0.23975	-0.106
Mof_H 	H 	0.89627	0.75333	0.23883	0.079
Mof_C 	C 	0.82227	0.67703	0.2299	0.073
Mof_H 	H 	0.84317	0.66013	0.22283	0.006
Mof_C 	C 	0.76007	0.64613	0.23016	-0.197
Mof_H 	H 	0.73827	0.60873	0.22283	0.106
Mof_C 	C 	0.85767	0.81553	0.26187	0.258
Mof_C 	C 	0.51487	0.22323	0.06564	0.291
Mof_O 	O 	0.34637	0.66283	0.25213	-0.109
Mof_C 	C 	0.38757	0.70823	0.26083	0.132
Mof_H 	H 	0.38117	0.74023	0.26493	0.001
Mof_N 	N 	0.44667	0.71313	0.26475	-0.052
Mof_C 	C 	0.45237	0.65933	0.26433	-0.305
Mof_H 	H 	0.42267	0.62913	0.27423	0.13
Mof_H 	H 	0.49277	0.66963	0.26913	0.122
Mof_H 	H 	0.44547	0.64313	0.24963	0.131
Mof_C 	C 	0.49857	0.77203	0.26883	-0.301
Mof_H 	H 	0.52627	0.76793	0.27873	0.119
Mof_H 	H 	0.48547	0.79813	0.27553	0.126
Mof_H 	H 	0.51907	0.78973	0.25513	0.114
Mof_Cd	Cd	0.57741	0.26264	0.61022	0.485
Mof_Cd	Cd	0.60092	0.23482	0.55494	0.491
Mof_O 	O 	0.98998	0.06142	0.51884	-0.288
Mof_O 	O 	0.93736	0.03792	0.54878	-0.286
Mof_O 	O 	0.948	0.03197	0.30267	-0.256
Mof_O 	O 	0.8563	0.96448	0.29069	-0.258
Mof_O 	O 	0.20166	0.53252	0.38636	-0.272
Mof_O 	O 	0.21274	0.60838	0.4067	-0.291
Mof_O 	O 	0.05385	0.97963	0.46693	-0.277
Mof_O 	O 	0.02354	0.92576	0.43649	-0.275
Mof_O 	O 	0.49951	0.16278	0.60948	-0.264
Mof_O 	O 	0.5781	0.18604	0.5887	-0.275
Mof_O 	O 	0.97633	0.82727	0.70605	-0.268
Mof_O 	O 	0.99973	0.90157	0.68418	-0.24
Mof_O 	O 	0.90278	0.15603	0.46989	-0.258
Mof_O 	O 	0.0005	0.362	0.41426	-0.27
Mof_O 	O 	0.89448	0.12015	0.36566	-0.254
Mof_O 	O 	0.12507	0.86965	0.5157	-0.263
Mof_O 	O 	0.07973	0.85232	0.61813	-0.259
Mof_O 	O 	0.33475	0.96863	0.57356	-0.258
Mof_C 	C 	0.94859	0.06031	0.5303	0.275
Mof_C 	C 	0.91564	0.08906	0.52127	0.002
Mof_C 	C 	0.87663	0.09907	0.53412	-0.1
Mof_H 	H 	0.86903	0.08557	0.54877	0.06
Mof_C 	C 	0.84873	0.12917	0.52524	0.047
Mof_H 	H 	0.82293	0.13687	0.53407	0.013
Mof_C 	C 	0.85803	0.14737	0.50425	-0.185
Mof_H 	H 	0.83943	0.16827	0.49847	0.1
Mof_C 	C 	0.89563	0.13527	0.49098	0.203
Mof_C 	C 	0.9247	0.10767	0.4998	-0.169
Mof_H 	H 	0.95143	0.10137	0.49107	0.103
Mof_C 	C 	0.94363	0.14657	0.45611	0.108
Mof_H 	H 	0.92833	0.10317	0.45397	0.007
Mof_H 	H 	0.98393	0.16477	0.46277	0.004
Mof_C 	C 	0.94616	0.17661	0.43454	-0.225
Mof_C 	C 	0.90643	0.14417	0.41826	0.289
Mof_C 	C 	0.90822	0.17297	0.39862	-0.219
Mof_C 	C 	0.95103	0.23367	0.39565	0.272
Mof_C 	C 	0.99045	0.26557	0.41244	-0.225
Mof_C 	C 	0.98804	0.23887	0.43258	0.289
Mof_C 	C 	0.02753	0.27457	0.45109	-0.668
Mof_H 	H 	0.06693	0.27767	0.44957	0.225
Mof_H 	H 	0.00923	0.25457	0.46477	0.229
Mof_H 	H 	0.03233	0.31477	0.45097	0.226
Mof_C 	C 	0.86173	0.07797	0.42128	-0.66
Mof_H 	H 	0.87783	0.05407	0.41487	0.235
Mof_H 	H 	0.82383	0.06817	0.41407	0.228
Mof_H 	H 	0.85453	0.06897	0.43677	0.229
Mof_C 	C 	0.95563	0.26427	0.37369	-0.626
Mof_H 	H 	0.98393	0.25997	0.36427	0.217
Mof_H 	H 	0.96983	0.30697	0.37607	0.214
Mof_H 	H 	0.91613	0.24537	0.36677	0.219
Mof_C 	C 	0.03403	0.33317	0.40956	0.129
Mof_H 	H 	0.06833	0.34707	0.41967	-0.009
Mof_H 	H 	0.04953	0.34207	0.39447	-0.009
Mof_C 	C 	0.03053	0.42267	0.41243	0.206
Mof_C 	C 	0.99713	0.45107	0.41763	-0.175
Mof_H 	H 	0.95583	0.42757	0.42137	0.088
Mof_C 	C 	0.02453	0.51267	0.41729	0.055
Mof_H 	H 	0.00223	0.53147	0.42117	0.007
Mof_C 	C 	0.08423	0.54777	0.41132	-0.09
Mof_H 	H 	0.10273	0.59027	0.41147	0.079
Mof_C 	C 	0.11702	0.52027	0.40513	0.011
Mof_C 	C 	0.08948	0.45736	0.40576	-0.156
Mof_H 	H 	0.11163	0.43847	0.40157	0.094
Mof_C 	C 	0.86473	0.13937	0.38032	0.131
Mof_H 	H 	0.82813	0.10437	0.38617	-0.005
Mof_H 	H 	0.85303	0.16597	0.37277	-0.001
Mof_C 	C 	0.86363	0.09217	0.34703	0.232
Mof_C 	C 	0.80743	0.08207	0.34196	-0.223
Mof_H 	H 	0.78773	0.09597	0.35137	0.112
Mof_C 	C 	0.77973	0.05167	0.32316	0.092
Mof_H 	H 	0.74183	0.04677	0.31927	-0.014
Mof_C 	C 	0.80643	0.02837	0.30996	-0.129
Mof_H 	H 	0.78613	0.00587	0.29737	0.083
Mof_C 	C 	0.86253	0.03797	0.31509	0.043
Mof_C 	C 	0.89273	0.07097	0.3332	-0.175
Mof_H 	H 	0.93233	0.07937	0.33627	0.117
Mof_C 	C 	0.89053	0.00957	0.30179	0.248
Mof_C 	C 	0.04645	0.93527	0.45551	0.255
Mof_C 	C 	0.06733	0.89447	0.46429	0.015
Mof_C 	C 	0.08549	0.90243	0.48611	-0.172
Mof_H 	H 	0.08463	0.93247	0.49477	0.106
Mof_C 	C 	0.10503	0.86457	0.49478	0.209
Mof_C 	C 	0.10913	0.82237	0.48184	-0.189
Mof_H 	H 	0.12413	0.79827	0.48767	0.103
Mof_C 	C 	0.09053	0.81597	0.46013	0.049
Mof_H 	H 	0.09273	0.78687	0.45127	0.015
Mof_C 	C 	0.06893	0.85137	0.45125	-0.107
Mof_H 	H 	0.05573	0.84607	0.43657	0.071
Mof_C 	C 	0.12473	0.91627	0.52887	0.105
Mof_H 	H 	0.08323	0.90817	0.53087	0.008
Mof_H 	H 	0.14863	0.95587	0.52177	0.005
Mof_C 	C 	0.15197	0.91539	0.55031	-0.204
Mof_C 	C 	0.11431	0.87327	0.5666	0.262
Mof_C 	C 	0.13973	0.87157	0.58666	-0.214
Mof_C 	C 	0.20053	0.91267	0.59121	0.268
Mof_C 	C 	0.23663	0.95397	0.57533	-0.226
Mof_C 	C 	0.21343	0.95332	0.55464	0.259
Mof_C 	C 	0.25353	0.99257	0.53635	-0.607
Mof_H 	H 	0.25843	0.03277	0.53757	0.203
Mof_H 	H 	0.23503	0.97487	0.52237	0.21
Mof_H 	H 	0.29283	0.99547	0.53737	0.214
Mof_C 	C 	0.04883	0.83227	0.56144	-0.643
Mof_H 	H 	0.03563	0.79237	0.56747	0.221
Mof_H 	H 	0.04323	0.82917	0.54567	0.224
Mof_H 	H 	0.02503	0.84857	0.56777	0.222
Mof_C 	C 	0.22553	0.91527	0.61372	-0.635
Mof_H 	H 	0.26663	0.92257	0.61257	0.215
Mof_H 	H 	0.20043	0.87707	0.62117	0.225
Mof_H 	H 	0.22563	0.94787	0.62197	0.215
Mof_C 	C 	0.10193	0.82457	0.60321	0.116
Mof_H 	H 	0.06803	0.78967	0.59597	0.001
Mof_H 	H 	0.12623	0.81067	0.61107	0.004
Mof_C 	C 	0.05103	0.81917	0.63637	0.215
Mof_C 	C 	0.03633	0.84877	0.65172	-0.171
Mof_H 	H 	0.04453	0.88857	0.64917	0.111
Mof_C 	C 	0.00873	0.81847	0.67133	0.028
Mof_C 	C 	0.99443	0.76147	0.67445	-0.118
Mof_H 	H 	0.97283	0.74087	0.68707	0.083
Mof_C 	C 	0.01043	0.73297	0.65991	0.073
Mof_H 	H 	0.00533	0.69467	0.66337	-0.003
Mof_C 	C 	0.03473	0.75917	0.63957	-0.199
Mof_H 	H 	0.03973	0.73667	0.62837	0.102
Mof_C 	C 	0.99453	0.85147	0.68808	0.265
Mof_C 	C 	0.30143	0.99777	0.58005	0.146
Mof_H 	H 	0.31503	0.03527	0.57167	-0.016
Mof_H 	H 	0.30733	0.00767	0.59567	-0.02
Mof_C 	C 	0.39643	0.00327	0.57437	0.185
Mof_C 	C 	0.42753	0.0577	0.58523	-0.149
Mof_H 	H 	0.40673	0.07347	0.59307	0.091
Mof_C 	C 	0.49073	0.08897	0.5844	0.007
Mof_C 	C 	0.52033	0.06497	0.57309	-0.074
Mof_H 	H 	0.56293	0.08667	0.57217	0.068
Mof_C 	C 	0.48893	0.01037	0.56324	0.021
Mof_H 	H 	0.50983	0.99347	0.55617	0.028
Mof_C 	C 	0.42673	0.97947	0.5635	-0.15
Mof_H 	H 	0.40493	0.94207	0.55617	0.091
Mof_C 	C 	0.52433	0.14887	0.59521	0.265
Mof_C 	C 	0.18153	0.55657	0.39898	0.292
Mof_O 	O 	0.01303	0.99617	0.58547	-0.057
Mof_C 	C 	0.05423	0.04157	0.59417	0.154
Mof_H 	H 	0.04783	0.07357	0.59827	0.001
Mof_N 	N 	0.11333	0.04647	0.59809	-0.063
Mof_C 	C 	0.11903	0.99267	0.59767	-0.273
Mof_H 	H 	0.08933	0.96247	0.60757	0.12
Mof_H 	H 	0.15943	0.00297	0.60247	0.108
Mof_H 	H 	0.11213	0.97647	0.58297	0.123
Mof_C 	C 	0.16523	0.10537	0.60217	-0.295
Mof_H 	H 	0.19293	0.10127	0.61207	0.117
Mof_H 	H 	0.15213	0.13147	0.60887	0.123
Mof_H 	H 	0.18573	0.12307	0.58847	0.112
Mof_Cd	Cd	0.40403	0.6481	0.94355	0.485
Mof_Cd	Cd	0.43184	0.69943	0.88828	0.49
Mof_O 	O 	0.60525	0.2619	0.85217	-0.289
Mof_O 	O 	0.62875	0.23278	0.88211	-0.286
Mof_O 	O 	0.6347	0.24937	0.636	-0.257
Mof_O 	O 	0.70219	0.22516	0.62402	-0.265
Mof_O 	O 	0.13415	0.00248	0.71969	-0.279
Mof_O 	O 	0.05829	0.9377	0.74003	-0.293
Mof_O 	O 	0.68704	0.40756	0.80026	-0.282
Mof_O 	O 	0.74091	0.43112	0.76982	-0.278
Mof_O 	O 	0.50389	0.67007	0.94281	-0.261
Mof_O 	O 	0.48063	0.7254	0.92203	-0.274
Mof_O 	O 	0.8394	0.4824	0.03938	-0.267
Mof_O 	O 	0.7651	0.4315	0.01751	-0.241
Mof_O 	O 	0.51064	0.08009	0.80322	-0.26
Mof_O 	O 	0.30467	0.97184	0.74759	-0.263
Mof_O 	O 	0.54652	0.10767	0.69899	-0.254
Mof_O 	O 	0.79702	0.58876	0.84903	-0.263
Mof_O 	O 	0.81435	0.56075	0.95146	-0.26
Mof_O 	O 	0.69804	0.69946	0.90689	-0.265
Mof_C 	C 	0.60636	0.22162	0.86363	0.276
Mof_C 	C 	0.57761	0.15992	0.8546	0.002
Mof_C 	C 	0.5676	0.1109	0.86745	-0.1
Mof_H 	H 	0.5811	0.1168	0.8821	0.06
Mof_C 	C 	0.5375	0.0529	0.85857	0.047
Mof_H 	H 	0.5298	0.0194	0.8674	0.012
Mof_C 	C 	0.5193	0.044	0.83758	-0.185
Mof_H 	H 	0.4984	0.0045	0.8318	0.098
Mof_C 	C 	0.5314	0.0937	0.82431	0.203
Mof_C 	C 	0.559	0.15037	0.83313	-0.169
Mof_H 	H 	0.5653	0.1834	0.8244	0.103
Mof_C 	C 	0.5201	0.1304	0.78944	0.108
Mof_H 	H 	0.5635	0.1585	0.7873	0.007
Mof_H 	H 	0.5019	0.1525	0.7961	0.004
Mof_C 	C 	0.49006	0.10289	0.76787	-0.226
Mof_C 	C 	0.5225	0.0956	0.75159	0.291
Mof_C 	C 	0.4937	0.06859	0.73195	-0.223
Mof_C 	C 	0.433	0.0507	0.72898	0.276
Mof_C 	C 	0.4011	0.05822	0.74577	-0.228
Mof_C 	C 	0.4278	0.08251	0.76591	0.287
Mof_C 	C 	0.3921	0.0863	0.78442	-0.664
Mof_H 	H 	0.389	0.1226	0.7829	0.224
Mof_H 	H 	0.4121	0.088	0.7981	0.228
Mof_H 	H 	0.3519	0.0509	0.7843	0.224
Mof_C 	C 	0.5887	0.1171	0.75461	-0.665
Mof_H 	H 	0.6126	0.1571	0.7482	0.238
Mof_H 	H 	0.5985	0.089	0.7474	0.23
Mof_H 	H 	0.5977	0.1189	0.7701	0.231
Mof_C 	C 	0.4024	0.0247	0.70702	-0.647
Mof_H 	H 	0.4067	0.0573	0.6976	0.221
Mof_H 	H 	0.3597	0.9962	0.7094	0.224
Mof_H 	H 	0.4213	0.0041	0.7001	0.223
Mof_C 	C 	0.3335	0.0342	0.74289	0.122
Mof_H 	H 	0.3196	0.0546	0.753	-0.008
Mof_H 	H 	0.3246	0.0408	0.7278	-0.009
Mof_C 	C 	0.244	0.9412	0.74576	0.201
Mof_C 	C 	0.2156	0.8794	0.75096	-0.173
Mof_H 	H 	0.2391	0.8616	0.7547	0.087
Mof_C 	C 	0.154	0.8452	0.75062	0.052
Mof_H 	H 	0.1352	0.8041	0.7545	0.009
Mof_C 	C 	0.1189	0.8698	0.74465	-0.084
Mof_H 	H 	0.0764	0.8458	0.7448	0.077
Mof_C 	C 	0.1464	0.93009	0.73846	0.003
Mof_C 	C 	0.20931	0.96546	0.73909	-0.139
Mof_H 	H 	0.2282	0.0065	0.7349	0.084
Mof_C 	C 	0.5273	0.0587	0.71365	0.134
Mof_H 	H 	0.5623	0.0571	0.7195	-0.006
Mof_H 	H 	0.5007	0.0204	0.7061	-0.004
Mof_C 	C 	0.5745	0.1048	0.68036	0.231
Mof_C 	C 	0.5846	0.0587	0.67529	-0.222
Mof_H 	H 	0.5707	0.0251	0.6847	0.11
Mof_C 	C 	0.615	0.0614	0.65649	0.091
Mof_H 	H 	0.6199	0.0284	0.6526	-0.014
Mof_C 	C 	0.6383	0.1114	0.64329	-0.127
Mof_H 	H 	0.6608	0.1136	0.6307	0.084
Mof_C 	C 	0.6287	0.1579	0.64842	0.041
Mof_C 	C 	0.5957	0.1551	0.66653	-0.173
Mof_H 	H 	0.5873	0.1863	0.6696	0.117
Mof_C 	C 	0.6571	0.2143	0.63512	0.256
Mof_C 	C 	0.7314	0.44452	0.78884	0.256
Mof_C 	C 	0.7722	0.5062	0.79762	0.013
Mof_C 	C 	0.76424	0.5164	0.81944	-0.171
Mof_H 	H 	0.7342	0.4855	0.8281	0.105
Mof_C 	C 	0.8021	0.5738	0.82811	0.208
Mof_C 	C 	0.8443	0.6201	0.81517	-0.189
Mof_H 	H 	0.8684	0.6592	0.821	0.103
Mof_C 	C 	0.8507	0.6079	0.79346	0.048
Mof_H 	H 	0.8798	0.6392	0.7846	0.016
Mof_C 	C 	0.8153	0.5509	0.78458	-0.106
Mof_H 	H 	0.8206	0.543	0.7699	0.07
Mof_C 	C 	0.7504	0.5418	0.8622	0.107
Mof_H 	H 	0.7585	0.5084	0.8642	0.007
Mof_H 	H 	0.7108	0.5261	0.8551	0.003
Mof_C 	C 	0.75128	0.56992	0.88364	-0.206
Mof_C 	C 	0.7934	0.57438	0.89993	0.262
Mof_C 	C 	0.7951	0.6015	0.91999	-0.213
Mof_C 	C 	0.754	0.6212	0.92454	0.264
Mof_C 	C 	0.7127	0.616	0.90866	-0.222
Mof_C 	C 	0.71335	0.59345	0.88797	0.261
Mof_C 	C 	0.6741	0.5943	0.86968	-0.627
Mof_H 	H 	0.6339	0.559	0.8709	0.213
Mof_H 	H 	0.6918	0.5935	0.8557	0.214
Mof_H 	H 	0.6712	0.6307	0.8707	0.218
Mof_C 	C 	0.8344	0.5499	0.89477	-0.644
Mof_H 	H 	0.8743	0.5766	0.9008	0.221
Mof_H 	H 	0.8375	0.5474	0.879	0.224
Mof_H 	H 	0.8181	0.5098	0.9011	0.222
Mof_C 	C 	0.7514	0.6436	0.94705	-0.63
Mof_H 	H 	0.7441	0.6774	0.9459	0.213
Mof_H 	H 	0.7896	0.6567	0.9545	0.223
Mof_H 	H 	0.7188	0.6111	0.9553	0.211
Mof_C 	C 	0.8421	0.6107	0.93654	0.116
Mof_H 	H 	0.877	0.6117	0.9293	0.001
Mof_H 	H 	0.856	0.6489	0.9444	0.004
Mof_C 	C 	0.8475	0.5652	0.9697	0.216
Mof_C 	C 	0.8179	0.5209	0.98505	-0.174
Mof_H 	H 	0.7781	0.4893	0.9825	0.111
Mof_C 	C 	0.8482	0.5236	0.00466	0.031
Mof_C 	C 	0.9052	0.5663	0.00778	-0.124
Mof_H 	H 	0.9258	0.5653	0.0204	0.085
Mof_C 	C 	0.9337	0.6108	0.99324	0.077
Mof_H 	H 	0.972	0.644	0.9967	-0.004
Mof_C 	C 	0.9075	0.6089	0.9729	-0.201
Mof_H 	H 	0.93	0.6364	0.9617	0.103
Mof_C 	C 	0.8152	0.4764	0.02141	0.264
Mof_C 	C 	0.6689	0.637	0.91338	0.124
Mof_H 	H 	0.6314	0.6131	0.905	-0.006
Mof_H 	H 	0.659	0.633	0.929	-0.01
Mof_C 	C 	0.6634	0.7265	0.9077	0.217
Mof_C 	C 	0.60897	0.70317	0.91856	-0.171
Mof_H 	H 	0.5932	0.6666	0.9264	0.098
Mof_C 	C 	0.5777	0.7351	0.91773	0.027
Mof_C 	C 	0.6017	0.7887	0.90642	-0.105
Mof_H 	H 	0.58	0.8096	0.9055	0.079
Mof_C 	C 	0.6563	0.8119	0.89657	0.073
Mof_H 	H 	0.6732	0.8497	0.8895	0.007
Mof_C 	C 	0.6872	0.7806	0.89683	-0.197
Mof_H 	H 	0.7246	0.7962	0.8895	0.106
Mof_C 	C 	0.5178	0.7088	0.92854	0.258
Mof_C 	C 	0.1101	0.9583	0.73231	0.303
Mof_O 	O 	0.6705	0.3502	0.9188	-0.109
Mof_C 	C 	0.6251	0.346	0.9275	0.132
Mof_H 	H 	0.5931	0.3076	0.9316	0.001
Mof_N 	N 	0.6202	0.4002	0.93142	-0.052
Mof_C 	C 	0.674	0.4597	0.931	-0.305
Mof_H 	H 	0.7042	0.4602	0.9409	0.13
Mof_H 	H 	0.6637	0.4898	0.9358	0.122
Mof_H 	H 	0.6902	0.469	0.9163	0.131
Mof_C 	C 	0.5613	0.3932	0.9355	-0.301
Mof_H 	H 	0.5654	0.425	0.9454	0.119
Mof_H 	H 	0.5352	0.354	0.9422	0.126
Mof_H 	H 	0.5436	0.396	0.9218	0.114
Mof_Cd	Cd	0.0707	0.98144	0.27689	0.492
Mof_Cd	Cd	0.09851	0.03276	0.22161	0.487
Mof_O 	O 	0.27192	0.59523	0.1855	-0.289
Mof_O 	O 	0.29542	0.56611	0.21544	-0.286
Mof_O 	O 	0.30137	0.5827	0.96933	-0.257
Mof_O 	O 	0.36886	0.55849	0.95735	-0.265
Mof_O 	O 	0.80082	0.33581	0.05302	-0.272
Mof_O 	O 	0.72496	0.27103	0.07336	-0.291
Mof_O 	O 	0.35371	0.74089	0.13359	-0.282
Mof_O 	O 	0.40758	0.76445	0.10315	-0.278
Mof_O 	O 	0.17056	0.0034	0.27614	-0.265
Mof_O 	O 	0.1473	0.05873	0.25536	-0.275
Mof_O 	O 	0.50607	0.81573	0.37271	-0.267
Mof_O 	O 	0.43177	0.76483	0.35084	-0.241
Mof_O 	O 	0.17731	0.41342	0.13655	-0.258
Mof_O 	O 	0.97134	0.30517	0.08092	-0.268
Mof_O 	O 	0.21319	0.441	0.03232	-0.253
Mof_O 	O 	0.46369	0.92209	0.18236	-0.262
Mof_O 	O 	0.48102	0.89408	0.28479	-0.26
Mof_O 	O 	0.36471	0.03279	0.24022	-0.272
Mof_C 	C 	0.27303	0.55495	0.19696	0.276
Mof_C 	C 	0.24428	0.49325	0.18793	0.002
Mof_C 	C 	0.23427	0.44423	0.20078	-0.1
Mof_H 	H 	0.24777	0.45013	0.21543	0.06
Mof_C 	C 	0.20417	0.38623	0.1919	0.047
Mof_H 	H 	0.19647	0.35273	0.20073	0.013
Mof_C 	C 	0.18597	0.37733	0.17091	-0.185
Mof_H 	H 	0.16507	0.33783	0.16513	0.1
Mof_C 	C 	0.19807	0.42703	0.15764	0.203
Mof_C 	C 	0.22567	0.4837	0.16646	-0.169
Mof_H 	H 	0.23197	0.51673	0.15773	0.103
Mof_C 	C 	0.18677	0.46373	0.12277	0.108
Mof_H 	H 	0.23017	0.49183	0.12063	0.007
Mof_H 	H 	0.16857	0.48583	0.12943	0.004
Mof_C 	C 	0.15673	0.43622	0.1012	-0.224
Mof_C 	C 	0.18917	0.42893	0.08492	0.29
Mof_C 	C 	0.16037	0.40192	0.06528	-0.219
Mof_C 	C 	0.09967	0.38403	0.06231	0.27
Mof_C 	C 	0.06777	0.39155	0.0791	-0.224
Mof_C 	C 	0.09447	0.41584	0.09924	0.286
Mof_C 	C 	0.05877	0.41963	0.11775	-0.664
Mof_H 	H 	0.05567	0.45593	0.11623	0.223
Mof_H 	H 	0.07877	0.42133	0.13143	0.228
Mof_H 	H 	0.01857	0.38423	0.11763	0.225
Mof_C 	C 	0.25537	0.45043	0.08794	-0.664
Mof_H 	H 	0.27927	0.49043	0.08153	0.238
Mof_H 	H 	0.26517	0.42233	0.08073	0.23
Mof_H 	H 	0.26437	0.45223	0.10343	0.231
Mof_C 	C 	0.06907	0.35803	0.04035	-0.624
Mof_H 	H 	0.07337	0.39063	0.03093	0.216
Mof_H 	H 	0.02637	0.32953	0.04273	0.212
Mof_H 	H 	0.08797	0.33743	0.03343	0.219
Mof_C 	C 	0.00017	0.36753	0.07622	0.123
Mof_H 	H 	0.98627	0.38793	0.08633	-0.006
Mof_H 	H 	0.99127	0.37413	0.06113	-0.007
Mof_C 	C 	0.91067	0.27453	0.07909	0.209
Mof_C 	C 	0.88227	0.21273	0.08429	-0.179
Mof_H 	H 	0.90577	0.19493	0.08803	0.09
Mof_C 	C 	0.82067	0.17853	0.08395	0.059
Mof_H 	H 	0.80187	0.13743	0.08783	0.006
Mof_C 	C 	0.78557	0.20313	0.07798	-0.092
Mof_H 	H 	0.74307	0.17913	0.07813	0.08
Mof_C 	C 	0.81307	0.26342	0.07179	0.013
Mof_C 	C 	0.87598	0.29879	0.07242	-0.158
Mof_H 	H 	0.89487	0.33983	0.06823	0.094
Mof_C 	C 	0.19397	0.39203	0.04698	0.131
Mof_H 	H 	0.22897	0.39043	0.05283	-0.004
Mof_H 	H 	0.16737	0.35373	0.03943	-0.001
Mof_C 	C 	0.24117	0.43813	0.01369	0.232
Mof_C 	C 	0.25127	0.39203	0.00862	-0.221
Mof_H 	H 	0.23737	0.35843	0.01803	0.111
Mof_C 	C 	0.28167	0.39473	0.98982	0.091
Mof_H 	H 	0.28657	0.36173	0.98593	-0.012
Mof_C 	C 	0.30497	0.44473	0.97662	-0.126
Mof_H 	H 	0.32747	0.44693	0.96403	0.085
Mof_C 	C 	0.29537	0.49123	0.98175	0.041
Mof_C 	C 	0.26237	0.48843	0.99986	-0.173
Mof_H 	H 	0.25397	0.51963	0.00293	0.117
Mof_C 	C 	0.32377	0.54763	0.96845	0.256
Mof_C 	C 	0.39807	0.77785	0.12217	0.256
Mof_C 	C 	0.43887	0.83953	0.13095	0.013
Mof_C 	C 	0.43091	0.84973	0.15277	-0.171
Mof_H 	H 	0.40087	0.81883	0.16143	0.105
Mof_C 	C 	0.46877	0.90713	0.16144	0.208
Mof_C 	C 	0.51097	0.95343	0.1485	-0.188
Mof_H 	H 	0.53507	0.99253	0.15433	0.104
Mof_C 	C 	0.51737	0.94123	0.12679	0.048
Mof_H 	H 	0.54647	0.97253	0.11793	0.018
Mof_C 	C 	0.48197	0.88423	0.11791	-0.106
Mof_H 	H 	0.48727	0.87633	0.10323	0.071
Mof_C 	C 	0.41707	0.87513	0.19553	0.107
Mof_H 	H 	0.42517	0.84173	0.19753	0.007
Mof_H 	H 	0.37747	0.85943	0.18843	0.003
Mof_C 	C 	0.41795	0.90325	0.21697	-0.205
Mof_C 	C 	0.46007	0.90771	0.23326	0.261
Mof_C 	C 	0.46177	0.93483	0.25332	-0.209
Mof_C 	C 	0.42067	0.95453	0.25787	0.259
Mof_C 	C 	0.37937	0.94933	0.24199	-0.22
Mof_C 	C 	0.38002	0.92678	0.2213	0.262
Mof_C 	C 	0.34077	0.92763	0.20301	-0.629
Mof_H 	H 	0.30057	0.89233	0.20423	0.214
Mof_H 	H 	0.35847	0.92683	0.18903	0.216
Mof_H 	H 	0.33787	0.96403	0.20403	0.221
Mof_C 	C 	0.50107	0.88323	0.2281	-0.643
Mof_H 	H 	0.54097	0.90993	0.23413	0.221
Mof_H 	H 	0.50417	0.88073	0.21233	0.225
Mof_H 	H 	0.48477	0.84313	0.23443	0.222
Mof_C 	C 	0.41807	0.97693	0.28038	-0.608
Mof_H 	H 	0.41077	0.01073	0.27923	0.202
Mof_H 	H 	0.45627	0.99003	0.28783	0.219
Mof_H 	H 	0.38547	0.94443	0.28863	0.206
Mof_C 	C 	0.50877	0.94403	0.26987	0.113
Mof_H 	H 	0.54367	0.94503	0.26263	0.002
Mof_H 	H 	0.52267	0.98223	0.27773	0.007
Mof_C 	C 	0.51417	0.89853	0.30303	0.217
Mof_C 	C 	0.48457	0.85423	0.31838	-0.173
Mof_H 	H 	0.44477	0.82263	0.31583	0.111
Mof_C 	C 	0.51487	0.85693	0.33799	0.032
Mof_C 	C 	0.57187	0.89963	0.34111	-0.123
Mof_H 	H 	0.59247	0.89863	0.35373	0.085
Mof_C 	C 	0.60037	0.94413	0.32657	0.078
Mof_H 	H 	0.63867	0.97733	0.33003	-0.002
Mof_C 	C 	0.57417	0.94223	0.30623	-0.2
Mof_H 	H 	0.59667	0.96973	0.29503	0.104
Mof_C 	C 	0.48187	0.80973	0.35474	0.264
Mof_C 	C 	0.33557	0.97033	0.24671	0.131
Mof_H 	H 	0.29807	0.94643	0.23833	-0.007
Mof_H 	H 	0.32567	0.96633	0.26233	-0.01
Mof_C 	C 	0.33007	0.05983	0.24103	0.225
Mof_C 	C 	0.27564	0.0365	0.25189	-0.188
Mof_H 	H 	0.25987	0.99993	0.25973	0.109
Mof_C 	C 	0.24437	0.06843	0.25106	0.034
Mof_C 	C 	0.26837	0.12203	0.23975	-0.112
Mof_H 	H 	0.24667	0.14293	0.23883	0.081
Mof_C 	C 	0.32297	0.14523	0.2299	0.079
Mof_H 	H 	0.33987	0.18303	0.22283	0.003
Mof_C 	C 	0.35387	0.11393	0.23016	-0.204
Mof_H 	H 	0.39127	0.12953	0.22283	0.108
Mof_C 	C 	0.18447	0.04213	0.26187	0.255
Mof_C 	C 	0.77677	0.29163	0.06564	0.292
Mof_O 	O 	0.33717	0.68353	0.25213	-0.109
Mof_C 	C 	0.29177	0.67933	0.26083	0.132
Mof_H 	H 	0.25977	0.64093	0.26493	0.001
Mof_N 	N 	0.28687	0.73353	0.26475	-0.052
Mof_C 	C 	0.34067	0.79303	0.26433	-0.305
Mof_H 	H 	0.37087	0.79353	0.27423	0.13
Mof_H 	H 	0.33037	0.82313	0.26913	0.122
Mof_H 	H 	0.35687	0.80233	0.24963	0.131
Mof_C 	C 	0.22797	0.72653	0.26883	-0.301
Mof_H 	H 	0.23207	0.75833	0.27873	0.119
Mof_H 	H 	0.20187	0.68733	0.27553	0.126
Mof_H 	H 	0.21027	0.72933	0.25513	0.114
Mof_Cd	Cd	0.73736	0.31477	0.61022	0.485
Mof_Cd	Cd	0.76518	0.36609	0.55494	0.49
Mof_O 	O 	0.93858	0.92857	0.51884	-0.286
Mof_O 	O 	0.96208	0.89945	0.54878	-0.284
Mof_O 	O 	0.96803	0.91604	0.30267	-0.256
Mof_O 	O 	0.03552	0.89183	0.29069	-0.265
Mof_O 	O 	0.46748	0.66915	0.38636	-0.272
Mof_O 	O 	0.39162	0.60437	0.4067	-0.291
Mof_O 	O 	0.02037	0.07423	0.46693	-0.283
Mof_O 	O 	0.07424	0.09779	0.43649	-0.278
Mof_O 	O 	0.83722	0.33674	0.60948	-0.261
Mof_O 	O 	0.81396	0.39207	0.5887	-0.273
Mof_O 	O 	0.17273	0.14907	0.70605	-0.267
Mof_O 	O 	0.09843	0.09817	0.68418	-0.243
Mof_O 	O 	0.84397	0.74676	0.46989	-0.258
Mof_O 	O 	0.638	0.63851	0.41426	-0.27
Mof_O 	O 	0.87985	0.77434	0.36566	-0.253
Mof_O 	O 	0.13035	0.25543	0.5157	-0.263
Mof_O 	O 	0.14768	0.22742	0.61813	-0.26
Mof_O 	O 	0.03137	0.36613	0.57356	-0.266
Mof_C 	C 	0.93969	0.88829	0.5303	0.275
Mof_C 	C 	0.91094	0.82659	0.52127	0.003
Mof_C 	C 	0.90093	0.77757	0.53412	-0.1
Mof_H 	H 	0.91443	0.78347	0.54877	0.061
Mof_C 	C 	0.87083	0.71957	0.52524	0.048
Mof_H 	H 	0.86313	0.68607	0.53407	0.013
Mof_C 	C 	0.85263	0.71067	0.50425	-0.185
Mof_H 	H 	0.83173	0.67117	0.49847	0.1
Mof_C 	C 	0.86473	0.76037	0.49098	0.203
Mof_C 	C 	0.89233	0.81704	0.4998	-0.169
Mof_H 	H 	0.89863	0.85007	0.49107	0.104
Mof_C 	C 	0.85343	0.79707	0.45611	0.108
Mof_H 	H 	0.89683	0.82517	0.45397	0.007
Mof_H 	H 	0.83523	0.81917	0.46277	0.004
Mof_C 	C 	0.82339	0.76956	0.43454	-0.225
Mof_C 	C 	0.85583	0.76227	0.41826	0.291
Mof_C 	C 	0.82703	0.73526	0.39862	-0.22
Mof_C 	C 	0.76633	0.71737	0.39565	0.272
Mof_C 	C 	0.73443	0.72489	0.41244	-0.226
Mof_C 	C 	0.76113	0.74918	0.43258	0.288
Mof_C 	C 	0.72543	0.75297	0.45109	-0.666
Mof_H 	H 	0.72233	0.78927	0.44957	0.224
Mof_H 	H 	0.74543	0.75467	0.46477	0.229
Mof_H 	H 	0.68523	0.71757	0.45097	0.226
Mof_C 	C 	0.92203	0.78377	0.42128	-0.665
Mof_H 	H 	0.94593	0.82377	0.41487	0.239
Mof_H 	H 	0.93183	0.75567	0.41407	0.231
Mof_H 	H 	0.93103	0.78557	0.43677	0.232
Mof_C 	C 	0.73573	0.69137	0.37369	-0.626
Mof_H 	H 	0.74003	0.72397	0.36427	0.216
Mof_H 	H 	0.69303	0.66287	0.37607	0.213
Mof_H 	H 	0.75463	0.67077	0.36677	0.219
Mof_C 	C 	0.66683	0.70087	0.40956	0.13
Mof_H 	H 	0.65293	0.72127	0.41967	-0.009
Mof_H 	H 	0.65793	0.70747	0.39447	-0.01
Mof_C 	C 	0.57733	0.60787	0.41243	0.21
Mof_C 	C 	0.54893	0.54607	0.41763	-0.18
Mof_H 	H 	0.57243	0.52827	0.42137	0.09
Mof_C 	C 	0.48733	0.51187	0.41729	0.059
Mof_H 	H 	0.46853	0.47077	0.42117	0.006
Mof_C 	C 	0.45223	0.53647	0.41132	-0.092
Mof_H 	H 	0.40973	0.51247	0.41147	0.08
Mof_C 	C 	0.47973	0.59676	0.40513	0.013
Mof_C 	C 	0.54264	0.63213	0.40576	-0.158
Mof_H 	H 	0.56153	0.67317	0.40157	0.094
Mof_C 	C 	0.86063	0.72537	0.38032	0.131
Mof_H 	H 	0.89563	0.72377	0.38617	-0.004
Mof_H 	H 	0.83403	0.68707	0.37277	-0.001
Mof_C 	C 	0.90783	0.77147	0.34703	0.232
Mof_C 	C 	0.91793	0.72537	0.34196	-0.221
Mof_H 	H 	0.90403	0.69177	0.35137	0.111
Mof_C 	C 	0.94833	0.72807	0.32316	0.091
Mof_H 	H 	0.95323	0.69507	0.31927	-0.012
Mof_C 	C 	0.97163	0.77807	0.30996	-0.126
Mof_H 	H 	0.99413	0.78027	0.29737	0.085
Mof_C 	C 	0.96203	0.82457	0.31509	0.042
Mof_C 	C 	0.92903	0.82177	0.3332	-0.173
Mof_H 	H 	0.92063	0.85297	0.33627	0.117
Mof_C 	C 	0.99043	0.88097	0.30179	0.257
Mof_C 	C 	0.06473	0.11119	0.45551	0.256
Mof_C 	C 	0.10553	0.17287	0.46429	0.013
Mof_C 	C 	0.09757	0.18307	0.48611	-0.171
Mof_H 	H 	0.06753	0.15217	0.49477	0.104
Mof_C 	C 	0.13543	0.24047	0.49478	0.208
Mof_C 	C 	0.17763	0.28677	0.48184	-0.189
Mof_H 	H 	0.20173	0.32587	0.48767	0.102
Mof_C 	C 	0.18403	0.27457	0.46013	0.048
Mof_H 	H 	0.21313	0.30587	0.45127	0.016
Mof_C 	C 	0.14863	0.21757	0.45125	-0.106
Mof_H 	H 	0.15393	0.20967	0.43657	0.07
Mof_C 	C 	0.08373	0.20847	0.52887	0.108
Mof_H 	H 	0.09183	0.17507	0.53087	0.007
Mof_H 	H 	0.04413	0.19277	0.52177	0.002
Mof_C 	C 	0.08461	0.23659	0.55031	-0.206
Mof_C 	C 	0.12673	0.24105	0.5666	0.262
Mof_C 	C 	0.12843	0.26817	0.58666	-0.213
Mof_C 	C 	0.08733	0.28787	0.59121	0.263
Mof_C 	C 	0.04603	0.28267	0.57533	-0.221
Mof_C 	C 	0.04668	0.26012	0.55464	0.262
Mof_C 	C 	0.00743	0.26097	0.53635	-0.63
Mof_H 	H 	0.96723	0.22567	0.53757	0.215
Mof_H 	H 	0.02513	0.26017	0.52237	0.215
Mof_H 	H 	0.00453	0.29737	0.53737	0.219
Mof_C 	C 	0.16773	0.21657	0.56144	-0.644
Mof_H 	H 	0.20763	0.24327	0.56747	0.221
Mof_H 	H 	0.17083	0.21407	0.54567	0.225
Mof_H 	H 	0.15143	0.17647	0.56777	0.222
Mof_C 	C 	0.08473	0.31027	0.61372	-0.629
Mof_H 	H 	0.07743	0.34407	0.61257	0.212
Mof_H 	H 	0.12293	0.32337	0.62117	0.223
Mof_H 	H 	0.05213	0.27777	0.62197	0.21
Mof_C 	C 	0.17543	0.27737	0.60321	0.116
Mof_H 	H 	0.21033	0.27837	0.59597	0.001
Mof_H 	H 	0.18933	0.31557	0.61107	0.004
Mof_C 	C 	0.18083	0.23187	0.63637	0.216
Mof_C 	C 	0.15123	0.18757	0.65172	-0.173
Mof_H 	H 	0.11143	0.15597	0.64917	0.11
Mof_C 	C 	0.18153	0.19027	0.67133	0.031
Mof_C 	C 	0.23853	0.23297	0.67445	-0.124
Mof_H 	H 	0.25913	0.23197	0.68707	0.084
Mof_C 	C 	0.26703	0.27747	0.65991	0.077
Mof_H 	H 	0.30533	0.31067	0.66337	-0.004
Mof_C 	C 	0.24083	0.27557	0.63957	-0.201
Mof_H 	H 	0.26333	0.30307	0.62837	0.103
Mof_C 	C 	0.14853	0.14307	0.68808	0.264
Mof_C 	C 	0.00223	0.30367	0.58005	0.12
Mof_H 	H 	0.96473	0.27977	0.57167	-0.004
Mof_H 	H 	0.99233	0.29967	0.59567	-0.008
Mof_C 	C 	0.99673	0.39317	0.57437	0.223
Mof_C 	C 	0.9423	0.36984	0.58523	-0.175
Mof_H 	H 	0.92653	0.33327	0.59307	0.1
Mof_C 	C 	0.91103	0.40177	0.5844	0.031
Mof_C 	C 	0.93503	0.45537	0.57309	-0.111
Mof_H 	H 	0.91333	0.47627	0.57217	0.081
Mof_C 	C 	0.98963	0.47857	0.56324	0.082
Mof_H 	H 	0.00653	0.51637	0.55617	0.002
Mof_C 	C 	0.02053	0.44727	0.5635	-0.206
Mof_H 	H 	0.05793	0.46287	0.55617	0.108
Mof_C 	C 	0.85113	0.37547	0.59521	0.257
Mof_C 	C 	0.44343	0.62497	0.39898	0.292
Mof_O 	O 	0.00383	0.01687	0.58547	-0.235
Mof_C 	C 	0.95843	0.01267	0.59417	0.152
Mof_H 	H 	0.92643	0.97427	0.59827	-0.007
Mof_N 	N 	0.95353	0.06687	0.59809	-0.053
Mof_C 	C 	0.00733	0.12637	0.59767	-0.308
Mof_H 	H 	0.03753	0.12687	0.60757	0.131
Mof_H 	H 	0.99703	0.15647	0.60247	0.124
Mof_H 	H 	0.02353	0.13567	0.58297	0.133
Mof_C 	C 	0.89463	0.05987	0.60217	-0.298
Mof_H 	H 	0.89873	0.09167	0.61207	0.118
Mof_H 	H 	0.86853	0.02067	0.60887	0.122
Mof_H 	H 	0.87693	0.06267	0.58847	0.112
Mof_Cd	Cd	0.3519	0.75593	0.94355	0.485
Mof_Cd	Cd	0.30057	0.73241	0.88828	0.49
Mof_O 	O 	0.7381	0.34335	0.85217	-0.289
Mof_O 	O 	0.76722	0.39597	0.88211	-0.286
Mof_O 	O 	0.75063	0.38533	0.636	-0.257
Mof_O 	O 	0.77484	0.47703	0.62402	-0.265
Mof_O 	O 	0.99752	0.13167	0.71969	-0.27
Mof_O 	O 	0.0623	0.12059	0.74003	-0.29
Mof_O 	O 	0.59244	0.27948	0.80026	-0.282
Mof_O 	O 	0.56888	0.30979	0.76982	-0.278
Mof_O 	O 	0.32993	0.83382	0.94281	-0.261
Mof_O 	O 	0.2746	0.75523	0.92203	-0.274
Mof_O 	O 	0.5176	0.357	0.03938	-0.267
Mof_O 	O 	0.5685	0.3336	0.01751	-0.242
Mof_O 	O 	0.91991	0.43055	0.80322	-0.258
Mof_O 	O 	0.02816	0.33283	0.74759	-0.272
Mof_O 	O 	0.89233	0.43885	0.69899	-0.253
Mof_O 	O 	0.41124	0.20826	0.84903	-0.263
Mof_O 	O 	0.43925	0.2536	0.95146	-0.26
Mof_O 	O 	0.30054	0.99858	0.90689	-0.258
Mof_C 	C 	0.77838	0.38474	0.86363	0.276
Mof_C 	C 	0.84008	0.41769	0.8546	0.002
Mof_C 	C 	0.8891	0.4567	0.86745	-0.1
Mof_H 	H 	0.8832	0.4643	0.8821	0.06
Mof_C 	C 	0.9471	0.4846	0.85857	0.048
Mof_H 	H 	0.9806	0.5104	0.8674	0.014
Mof_C 	C 	0.956	0.4753	0.83758	-0.185
Mof_H 	H 	0.9955	0.4939	0.8318	0.1
Mof_C 	C 	0.9063	0.4377	0.82431	0.203
Mof_C 	C 	0.84963	0.40863	0.83313	-0.169
Mof_H 	H 	0.8166	0.3819	0.8244	0.103
Mof_C 	C 	0.8696	0.3897	0.78944	0.108
Mof_H 	H 	0.8415	0.405	0.7873	0.007
Mof_H 	H 	0.8475	0.3494	0.7961	0.004
Mof_C 	C 	0.89711	0.38717	0.76787	-0.225
Mof_C 	C 	0.9044	0.4269	0.75159	0.291
Mof_C 	C 	0.93141	0.42511	0.73195	-0.219
Mof_C 	C 	0.9493	0.3823	0.72898	0.271
Mof_C 	C 	0.94178	0.34288	0.74577	-0.226
Mof_C 	C 	0.91749	0.34529	0.76591	0.288
Mof_C 	C 	0.9137	0.3058	0.78442	-0.667
Mof_H 	H 	0.8774	0.2664	0.7829	0.224
Mof_H 	H 	0.912	0.3241	0.7981	0.229
Mof_H 	H 	0.9491	0.301	0.7843	0.226
Mof_C 	C 	0.8829	0.4716	0.75461	-0.664
Mof_H 	H 	0.8429	0.4555	0.7482	0.238
Mof_H 	H 	0.911	0.5095	0.7474	0.231
Mof_H 	H 	0.8811	0.4788	0.7701	0.231
Mof_C 	C 	0.9753	0.3777	0.70702	-0.621
Mof_H 	H 	0.9427	0.3494	0.6976	0.215
Mof_H 	H 	0.0038	0.3635	0.7094	0.211
Mof_H 	H 	0.9959	0.4172	0.7001	0.219
Mof_C 	C 	0.9658	0.2993	0.74289	0.132
Mof_H 	H 	0.9454	0.265	0.753	-0.01
Mof_H 	H 	0.9592	0.2838	0.7278	-0.01
Mof_C 	C 	0.0588	0.3028	0.74576	0.211
Mof_C 	C 	0.1206	0.3362	0.75096	-0.181
Mof_H 	H 	0.1384	0.3775	0.7547	0.09
Mof_C 	C 	0.1548	0.3088	0.75062	0.061
Mof_H 	H 	0.1959	0.3311	0.7545	0.006
Mof_C 	C 	0.1302	0.2491	0.74465	-0.094
Mof_H 	H 	0.1542	0.2306	0.7448	0.081
Mof_C 	C 	0.06991	0.21631	0.73846	0.015
Mof_C 	C 	0.03454	0.24385	0.73909	-0.162
Mof_H 	H 	0.9935	0.2217	0.7349	0.096
Mof_C 	C 	0.9413	0.4686	0.71365	0.131
Mof_H 	H 	0.9429	0.5052	0.7195	-0.004
Mof_H 	H 	0.9796	0.4803	0.7061	-0
Mof_C 	C 	0.8952	0.4697	0.68036	0.232
Mof_C 	C 	0.9413	0.5259	0.67529	-0.221
Mof_H 	H 	0.9749	0.5456	0.6847	0.112
Mof_C 	C 	0.9386	0.5536	0.65649	0.091
Mof_H 	H 	0.9716	0.5915	0.6526	-0.012
Mof_C 	C 	0.8886	0.5269	0.64329	-0.126
Mof_H 	H 	0.8864	0.5472	0.6307	0.085
Mof_C 	C 	0.8421	0.4708	0.64842	0.041
Mof_C 	C 	0.8449	0.4406	0.66653	-0.173
Mof_H 	H 	0.8137	0.401	0.6696	0.117
Mof_C 	C 	0.7857	0.4428	0.63512	0.256
Mof_C 	C 	0.55548	0.28688	0.78884	0.256
Mof_C 	C 	0.4938	0.266	0.79762	0.013
Mof_C 	C 	0.4836	0.24784	0.81944	-0.171
Mof_H 	H 	0.5145	0.2487	0.8281	0.105
Mof_C 	C 	0.4262	0.2283	0.82811	0.208
Mof_C 	C 	0.3799	0.2242	0.81517	-0.189
Mof_H 	H 	0.3408	0.2092	0.821	0.102
Mof_C 	C 	0.3921	0.2428	0.79346	0.048
Mof_H 	H 	0.3608	0.2406	0.7846	0.016
Mof_C 	C 	0.4491	0.2644	0.78458	-0.106
Mof_H 	H 	0.457	0.2776	0.7699	0.07
Mof_C 	C 	0.4582	0.2086	0.8622	0.107
Mof_H 	H 	0.4916	0.2501	0.8642	0.007
Mof_H 	H 	0.4739	0.1847	0.8551	0.003
Mof_C 	C 	0.43008	0.18136	0.88364	-0.204
Mof_C 	C 	0.42562	0.21902	0.89993	0.26
Mof_C 	C 	0.3985	0.1936	0.91999	-0.212
Mof_C 	C 	0.3788	0.1328	0.92454	0.261
Mof_C 	C 	0.384	0.0967	0.90866	-0.219
Mof_C 	C 	0.40655	0.1199	0.88797	0.258
Mof_C 	C 	0.4057	0.0798	0.86968	-0.622
Mof_H 	H 	0.441	0.0749	0.8709	0.211
Mof_H 	H 	0.4065	0.0983	0.8557	0.212
Mof_H 	H 	0.3693	0.0405	0.8707	0.215
Mof_C 	C 	0.4501	0.2845	0.89477	-0.643
Mof_H 	H 	0.4234	0.2977	0.9008	0.221
Mof_H 	H 	0.4526	0.2901	0.879	0.224
Mof_H 	H 	0.4902	0.3083	0.9011	0.222
Mof_C 	C 	0.3564	0.1078	0.94705	-0.626
Mof_H 	H 	0.3226	0.0667	0.9459	0.21
Mof_H 	H 	0.3433	0.1329	0.9545	0.222
Mof_H 	H 	0.3889	0.1077	0.9553	0.209
Mof_C 	C 	0.3893	0.2314	0.93654	0.115
Mof_H 	H 	0.3883	0.2653	0.9293	0.001
Mof_H 	H 	0.3511	0.2071	0.9444	0.005
Mof_C 	C 	0.4348	0.2823	0.9697	0.216
Mof_C 	C 	0.4791	0.297	0.98505	-0.174
Mof_H 	H 	0.5107	0.2888	0.9825	0.11
Mof_C 	C 	0.4764	0.3246	0.00466	0.031
Mof_C 	C 	0.4337	0.3389	0.00778	-0.124
Mof_H 	H 	0.4347	0.3605	0.0204	0.085
Mof_C 	C 	0.3892	0.3229	0.99324	0.077
Mof_H 	H 	0.356	0.328	0.9967	-0.004
Mof_C 	C 	0.3911	0.2986	0.9729	-0.201
Mof_H 	H 	0.3636	0.2936	0.9617	0.103
Mof_C 	C 	0.5236	0.3388	0.02141	0.264
Mof_C 	C 	0.363	0.0319	0.91338	0.116
Mof_H 	H 	0.3869	0.0183	0.905	-0.006
Mof_H 	H 	0.367	0.026	0.929	-0.009
Mof_C 	C 	0.2735	0.9369	0.9077	0.217
Mof_C 	C 	0.29683	0.9058	0.91856	-0.17
Mof_H 	H 	0.3334	0.9266	0.9264	0.1
Mof_C 	C 	0.2649	0.8426	0.91773	0.027
Mof_C 	C 	0.2113	0.813	0.90642	-0.105
Mof_H 	H 	0.1904	0.7704	0.9055	0.079
Mof_C 	C 	0.1881	0.8444	0.89657	0.073
Mof_H 	H 	0.1503	0.8235	0.8895	0.006
Mof_C 	C 	0.2194	0.9066	0.89683	-0.197
Mof_H 	H 	0.2038	0.9284	0.8895	0.107
Mof_C 	C 	0.2912	0.809	0.92854	0.258
Mof_C 	C 	0.0417	0.1518	0.73231	0.289
Mof_O 	O 	0.6498	0.3203	0.9188	-0.109
Mof_C 	C 	0.654	0.2791	0.9275	0.132
Mof_H 	H 	0.6924	0.2855	0.9316	0.001
Mof_N 	N 	0.5998	0.22	0.93142	-0.052
Mof_C 	C 	0.5403	0.2143	0.931	-0.305
Mof_H 	H 	0.5398	0.244	0.9409	0.13
Mof_H 	H 	0.5102	0.1739	0.9358	0.122
Mof_H 	H 	0.531	0.2212	0.9163	0.131
Mof_C 	C 	0.6068	0.1681	0.9355	-0.3
Mof_H 	H 	0.575	0.1404	0.9454	0.118
Mof_H 	H 	0.646	0.1812	0.9422	0.125
Mof_H 	H 	0.604	0.1476	0.9218	0.113
Mof_Cd	Cd	0.01856	0.08926	0.27689	0.483
Mof_Cd	Cd	0.96724	0.06575	0.22161	0.491
Mof_O 	O 	0.40477	0.67668	0.1855	-0.289
Mof_O 	O 	0.43389	0.7293	0.21544	-0.286
Mof_O 	O 	0.4173	0.71866	0.96933	-0.257
Mof_O 	O 	0.44151	0.81036	0.95735	-0.265
Mof_O 	O 	0.66419	0.465	0.05302	-0.272
Mof_O 	O 	0.72897	0.45392	0.07336	-0.291
Mof_O 	O 	0.25911	0.61281	0.13359	-0.282
Mof_O 	O 	0.23555	0.64312	0.10315	-0.278
Mof_O 	O 	0.9966	0.16715	0.27614	-0.261
Mof_O 	O 	0.94127	0.08856	0.25536	-0.274
Mof_O 	O 	0.18427	0.69033	0.37271	-0.267
Mof_O 	O 	0.23517	0.66693	0.35084	-0.241
Mof_O 	O 	0.58658	0.76388	0.13655	-0.258
Mof_O 	O 	0.69483	0.66616	0.08092	-0.27
Mof_O 	O 	0.559	0.77218	0.03232	-0.253
Mof_O 	O 	0.07791	0.54159	0.18236	-0.263
Mof_O 	O 	0.10592	0.58693	0.28479	-0.26
Mof_O 	O 	0.96721	0.33191	0.24022	-0.264
Mof_C 	C 	0.44505	0.71807	0.19696	0.276
Mof_C 	C 	0.50675	0.75102	0.18793	0.003
Mof_C 	C 	0.55577	0.79003	0.20078	-0.1
Mof_H 	H 	0.54987	0.79763	0.21543	0.06
Mof_C 	C 	0.61377	0.81793	0.1919	0.048
Mof_H 	H 	0.64727	0.84373	0.20073	0.013
Mof_C 	C 	0.62267	0.80863	0.17091	-0.185
Mof_H 	H 	0.66217	0.82723	0.16513	0.1
Mof_C 	C 	0.57297	0.77103	0.15764	0.203
Mof_C 	C 	0.5163	0.74196	0.16646	-0.169
Mof_H 	H 	0.48327	0.71523	0.15773	0.103
Mof_C 	C 	0.53627	0.72303	0.12277	0.108
Mof_H 	H 	0.50817	0.73833	0.12063	0.007
Mof_H 	H 	0.51417	0.68273	0.12943	0.004
Mof_C 	C 	0.56378	0.7205	0.1012	-0.225
Mof_C 	C 	0.57107	0.76023	0.08492	0.291
Mof_C 	C 	0.59808	0.75844	0.06528	-0.219
Mof_C 	C 	0.61597	0.71563	0.06231	0.272
Mof_C 	C 	0.60845	0.67621	0.0791	-0.226
Mof_C 	C 	0.58416	0.67862	0.09924	0.288
Mof_C 	C 	0.58037	0.63913	0.11775	-0.666
Mof_H 	H 	0.54407	0.59973	0.11623	0.224
Mof_H 	H 	0.57867	0.65743	0.13143	0.229
Mof_H 	H 	0.61577	0.63433	0.11763	0.226
Mof_C 	C 	0.54957	0.80493	0.08794	-0.664
Mof_H 	H 	0.50957	0.78883	0.08153	0.238
Mof_H 	H 	0.57767	0.84283	0.08073	0.231
Mof_H 	H 	0.54777	0.81213	0.10343	0.231
Mof_C 	C 	0.64197	0.71103	0.04035	-0.625
Mof_H 	H 	0.60937	0.68273	0.03093	0.216
Mof_H 	H 	0.67047	0.69683	0.04273	0.213
Mof_H 	H 	0.66257	0.75053	0.03343	0.219
Mof_C 	C 	0.63247	0.63263	0.07622	0.13
Mof_H 	H 	0.61207	0.59833	0.08633	-0.009
Mof_H 	H 	0.62587	0.61713	0.06113	-0.01
Mof_C 	C 	0.72547	0.63613	0.07909	0.21
Mof_C 	C 	0.78727	0.66953	0.08429	-0.18
Mof_H 	H 	0.80507	0.71083	0.08803	0.09
Mof_C 	C 	0.82147	0.64213	0.08395	0.059
Mof_H 	H 	0.86257	0.66443	0.08783	0.006
Mof_C 	C 	0.79687	0.58243	0.07798	-0.092
Mof_H 	H 	0.82087	0.56393	0.07813	0.08
Mof_C 	C 	0.73658	0.54964	0.07179	0.013
Mof_C 	C 	0.70121	0.57718	0.07242	-0.158
Mof_H 	H 	0.66017	0.55503	0.06823	0.094
Mof_C 	C 	0.60797	0.80193	0.04698	0.131
Mof_H 	H 	0.60957	0.83853	0.05283	-0.004
Mof_H 	H 	0.64627	0.81363	0.03943	-0.001
Mof_C 	C 	0.56187	0.80303	0.01369	0.232
Mof_C 	C 	0.60797	0.85923	0.00862	-0.221
Mof_H 	H 	0.64157	0.87893	0.01803	0.111
Mof_C 	C 	0.60527	0.88693	0.98982	0.091
Mof_H 	H 	0.63827	0.92483	0.98593	-0.011
Mof_C 	C 	0.55527	0.86023	0.97662	-0.126
Mof_H 	H 	0.55307	0.88053	0.96403	0.085
Mof_C 	C 	0.50877	0.80413	0.98175	0.041
Mof_C 	C 	0.51157	0.77393	0.99986	-0.173
Mof_H 	H 	0.48037	0.73433	0.00293	0.117
Mof_C 	C 	0.45237	0.77613	0.96845	0.256
Mof_C 	C 	0.22215	0.62021	0.12217	0.256
Mof_C 	C 	0.16047	0.59933	0.13095	0.013
Mof_C 	C 	0.15027	0.58117	0.15277	-0.171
Mof_H 	H 	0.18117	0.58203	0.16143	0.105
Mof_C 	C 	0.09287	0.56163	0.16144	0.208
Mof_C 	C 	0.04657	0.55753	0.1485	-0.189
Mof_H 	H 	0.00747	0.54253	0.15433	0.102
Mof_C 	C 	0.05877	0.57613	0.12679	0.048
Mof_H 	H 	0.02747	0.57393	0.11793	0.015
Mof_C 	C 	0.11577	0.59773	0.11791	-0.107
Mof_H 	H 	0.12367	0.61093	0.10323	0.07
Mof_C 	C 	0.12487	0.54193	0.19553	0.107
Mof_H 	H 	0.15827	0.58343	0.19753	0.007
Mof_H 	H 	0.14057	0.51803	0.18843	0.003
Mof_C 	C 	0.09675	0.51469	0.21697	-0.206
Mof_C 	C 	0.09229	0.55235	0.23326	0.262
Mof_C 	C 	0.06517	0.52693	0.25332	-0.214
Mof_C 	C 	0.04547	0.46613	0.25787	0.265
Mof_C 	C 	0.05067	0.43003	0.24199	-0.222
Mof_C 	C 	0.07322	0.45323	0.2213	0.261
Mof_C 	C 	0.07237	0.41313	0.20301	-0.626
Mof_H 	H 	0.10767	0.40823	0.20423	0.213
Mof_H 	H 	0.07317	0.43163	0.18903	0.214
Mof_H 	H 	0.03597	0.37383	0.20403	0.217
Mof_C 	C 	0.11677	0.61783	0.2281	-0.644
Mof_H 	H 	0.09007	0.63103	0.23413	0.221
Mof_H 	H 	0.11927	0.62343	0.21233	0.224
Mof_H 	H 	0.15687	0.64163	0.23443	0.222
Mof_C 	C 	0.02307	0.44113	0.28038	-0.634
Mof_H 	H 	0.98927	0.40003	0.27923	0.215
Mof_H 	H 	0.00997	0.46623	0.28783	0.224
Mof_H 	H 	0.05557	0.44103	0.28863	0.212
Mof_C 	C 	0.05597	0.56473	0.26987	0.116
Mof_H 	H 	0.05497	0.59863	0.26263	0
Mof_H 	H 	0.01777	0.54043	0.27773	0.004
Mof_C 	C 	0.10147	0.61563	0.30303	0.216
Mof_C 	C 	0.14577	0.63033	0.31838	-0.174
Mof_H 	H 	0.17737	0.62213	0.31583	0.111
Mof_C 	C 	0.14307	0.65793	0.33799	0.031
Mof_C 	C 	0.10037	0.67223	0.34111	-0.124
Mof_H 	H 	0.10137	0.69383	0.35373	0.085
Mof_C 	C 	0.05587	0.65623	0.32657	0.077
Mof_H 	H 	0.02267	0.66133	0.33003	-0.004
Mof_C 	C 	0.05777	0.63193	0.30623	-0.201
Mof_H 	H 	0.03027	0.62693	0.29503	0.102
Mof_C 	C 	0.19027	0.67213	0.35474	0.264
Mof_C 	C 	0.02967	0.36523	0.24671	0.123
Mof_H 	H 	0.05357	0.35163	0.23833	-0.006
Mof_H 	H 	0.03367	0.35933	0.26233	-0.01
Mof_C 	C 	0.94017	0.27023	0.24103	0.216
Mof_C 	C 	0.9635	0.23913	0.25189	-0.167
Mof_H 	H 	7e-05	0.25993	0.25973	0.097
Mof_C 	C 	0.93157	0.17593	0.25106	0.026
Mof_C 	C 	0.87797	0.14633	0.23975	-0.105
Mof_H 	H 	0.85707	0.10373	0.23883	0.078
Mof_C 	C 	0.85477	0.17773	0.2299	0.072
Mof_H 	H 	0.81697	0.15683	0.22283	0.006
Mof_C 	C 	0.88607	0.23993	0.23016	-0.196
Mof_H 	H 	0.87047	0.26173	0.22283	0.105
Mof_C 	C 	0.95787	0.14233	0.26187	0.259
Mof_C 	C 	0.70837	0.48513	0.06564	0.292
Mof_O 	O 	0.31647	0.65363	0.25213	-0.109
Mof_C 	C 	0.32067	0.61243	0.26083	0.132
Mof_H 	H 	0.35907	0.61883	0.26493	0.001
Mof_N 	N 	0.26647	0.55333	0.26475	-0.052
Mof_C 	C 	0.20697	0.54763	0.26433	-0.305
Mof_H 	H 	0.20647	0.57733	0.27423	0.13
Mof_H 	H 	0.17687	0.50723	0.26913	0.122
Mof_H 	H 	0.19767	0.55453	0.24963	0.131
Mof_C 	C 	0.27347	0.50143	0.26883	-0.301
Mof_H 	H 	0.24167	0.47373	0.27873	0.119
Mof_H 	H 	0.31267	0.51453	0.27553	0.126
Mof_H 	H 	0.27067	0.48093	0.25513	0.114
Mof_Cd	Cd	0.68523	0.42259	0.61022	0.485
Mof_Cd	Cd	0.63391	0.39908	0.55494	0.49
Mof_O 	O 	0.07143	0.01002	0.51884	-0.292
Mof_O 	O 	0.10055	0.06264	0.54878	-0.286
Mof_O 	O 	0.08396	0.052	0.30267	-0.26
Mof_O 	O 	0.10817	0.1437	0.29069	-0.265
Mof_O 	O 	0.33085	0.79834	0.38636	-0.27
Mof_O 	O 	0.39563	0.78726	0.4067	-0.29
Mof_O 	O 	0.92577	0.94615	0.46693	-0.279
Mof_O 	O 	0.90221	0.97646	0.43649	-0.273
Mof_O 	O 	0.66326	0.50049	0.60948	-0.261
Mof_O 	O 	0.60793	0.4219	0.5887	-0.274
Mof_O 	O 	0.85093	0.02367	0.70605	-0.265
Mof_O 	O 	0.90183	0.00027	0.68418	-0.24
Mof_O 	O 	0.25324	0.09722	0.46989	-0.259
Mof_O 	O 	0.36149	0.9995	0.41426	-0.272
Mof_O 	O 	0.22566	0.10552	0.36566	-0.254
Mof_O 	O 	0.74457	0.87493	0.5157	-0.263
Mof_O 	O 	0.77258	0.92027	0.61813	-0.263
Mof_O 	O 	0.63387	0.66525	0.57356	-0.265
Mof_C 	C 	0.11171	0.05141	0.5303	0.276
Mof_C 	C 	0.17341	0.08436	0.52127	0.001
Mof_C 	C 	0.22243	0.12337	0.53412	-0.099
Mof_H 	H 	0.21653	0.13097	0.54877	0.06
Mof_C 	C 	0.28043	0.15127	0.52524	0.047
Mof_H 	H 	0.31393	0.17707	0.53407	0.013
Mof_C 	C 	0.28933	0.14197	0.50425	-0.185
Mof_H 	H 	0.32883	0.16057	0.49847	0.1
Mof_C 	C 	0.23963	0.10437	0.49098	0.202
Mof_C 	C 	0.18296	0.0753	0.4998	-0.169
Mof_H 	H 	0.14993	0.04857	0.49107	0.102
Mof_C 	C 	0.20293	0.05637	0.45611	0.108
Mof_H 	H 	0.17483	0.07167	0.45397	0.007
Mof_H 	H 	0.18083	0.01607	0.46277	0.001
Mof_C 	C 	0.23044	0.05384	0.43454	-0.224
Mof_C 	C 	0.23773	0.09357	0.41826	0.29
Mof_C 	C 	0.26474	0.09178	0.39862	-0.219
Mof_C 	C 	0.28263	0.04897	0.39565	0.271
Mof_C 	C 	0.27511	0.00955	0.41244	-0.231
Mof_C 	C 	0.25082	0.01196	0.43258	0.282
Mof_C 	C 	0.24703	0.97247	0.45109	-0.655
Mof_H 	H 	0.21073	0.93307	0.44957	0.222
Mof_H 	H 	0.24533	0.99077	0.46477	0.228
Mof_H 	H 	0.28243	0.96767	0.45097	0.224
Mof_C 	C 	0.21623	0.13827	0.42128	-0.663
Mof_H 	H 	0.17623	0.12217	0.41487	0.237
Mof_H 	H 	0.24433	0.17617	0.41407	0.23
Mof_H 	H 	0.21443	0.14547	0.43677	0.231
Mof_C 	C 	0.30863	0.04437	0.37369	-0.624
Mof_H 	H 	0.27603	0.01607	0.36427	0.214
Mof_H 	H 	0.33713	0.03017	0.37607	0.211
Mof_H 	H 	0.32923	0.08387	0.36677	0.218
Mof_C 	C 	0.29913	0.96597	0.40956	0.138
Mof_H 	H 	0.27873	0.93167	0.41967	-0.011
Mof_H 	H 	0.29253	0.95047	0.39447	-0.01
Mof_C 	C 	0.39213	0.96947	0.41243	0.228
Mof_C 	C 	0.45393	0.00287	0.41763	-0.209
Mof_H 	H 	0.47173	0.04417	0.42137	0.098
Mof_C 	C 	0.48813	0.97547	0.41729	0.084
Mof_H 	H 	0.52923	0.99777	0.42117	0
Mof_C 	C 	0.46353	0.91577	0.41132	-0.106
Mof_H 	H 	0.48753	0.89727	0.41147	0.085
Mof_C 	C 	0.40324	0.88298	0.40513	0.023
Mof_C 	C 	0.36787	0.91052	0.40576	-0.169
Mof_H 	H 	0.32683	0.88837	0.40157	0.098
Mof_C 	C 	0.27463	0.13527	0.38032	0.131
Mof_H 	H 	0.27623	0.17187	0.38617	-0.004
Mof_H 	H 	0.31293	0.14697	0.37277	-0.001
Mof_C 	C 	0.22853	0.13637	0.34703	0.231
Mof_C 	C 	0.27463	0.19257	0.34196	-0.221
Mof_H 	H 	0.30823	0.21227	0.35137	0.111
Mof_C 	C 	0.27193	0.22027	0.32316	0.09
Mof_H 	H 	0.30493	0.25817	0.31927	-0.012
Mof_C 	C 	0.22193	0.19357	0.30996	-0.126
Mof_H 	H 	0.21973	0.21387	0.29737	0.084
Mof_C 	C 	0.17543	0.13747	0.31509	0.04
Mof_C 	C 	0.17823	0.10727	0.3332	-0.172
Mof_H 	H 	0.14703	0.06767	0.33627	0.115
Mof_C 	C 	0.11903	0.10947	0.30179	0.256
Mof_C 	C 	0.88881	0.95355	0.45551	0.256
Mof_C 	C 	0.82713	0.93267	0.46429	0.015
Mof_C 	C 	0.81693	0.91451	0.48611	-0.171
Mof_H 	H 	0.84783	0.91537	0.49477	0.105
Mof_C 	C 	0.75953	0.89497	0.49478	0.209
Mof_C 	C 	0.71323	0.89087	0.48184	-0.189
Mof_H 	H 	0.67413	0.87587	0.48767	0.103
Mof_C 	C 	0.72543	0.90947	0.46013	0.05
Mof_H 	H 	0.69413	0.90727	0.45127	0.016
Mof_C 	C 	0.78243	0.93107	0.45125	-0.107
Mof_H 	H 	0.79033	0.94427	0.43657	0.072
Mof_C 	C 	0.79153	0.87527	0.52887	0.107
Mof_H 	H 	0.82493	0.91677	0.53087	0.008
Mof_H 	H 	0.80723	0.85137	0.52177	0.003
Mof_C 	C 	0.76341	0.84803	0.55031	-0.207
Mof_C 	C 	0.75895	0.88569	0.5666	0.263
Mof_C 	C 	0.73183	0.86027	0.58666	-0.214
Mof_C 	C 	0.71213	0.79947	0.59121	0.264
Mof_C 	C 	0.71733	0.76337	0.57533	-0.222
Mof_C 	C 	0.73988	0.78657	0.55464	0.262
Mof_C 	C 	0.73903	0.74647	0.53635	-0.627
Mof_H 	H 	0.77433	0.74157	0.53757	0.213
Mof_H 	H 	0.73983	0.76497	0.52237	0.214
Mof_H 	H 	0.70263	0.70717	0.53737	0.218
Mof_C 	C 	0.78343	0.95117	0.56144	-0.649
Mof_H 	H 	0.75673	0.96437	0.56747	0.224
Mof_H 	H 	0.78593	0.95677	0.54567	0.227
Mof_H 	H 	0.82353	0.97497	0.56777	0.225
Mof_C 	C 	0.68973	0.77447	0.61372	-0.631
Mof_H 	H 	0.65593	0.73337	0.61257	0.213
Mof_H 	H 	0.67663	0.79957	0.62117	0.224
Mof_H 	H 	0.72223	0.77437	0.62197	0.211
Mof_C 	C 	0.72263	0.89807	0.60321	0.118
Mof_H 	H 	0.72163	0.93197	0.59597	0.001
Mof_H 	H 	0.68443	0.87377	0.61107	0.004
Mof_C 	C 	0.76813	0.94897	0.63637	0.232
Mof_C 	C 	0.81243	0.96367	0.65172	-0.193
Mof_H 	H 	0.84403	0.95547	0.64917	0.118
Mof_C 	C 	0.80973	0.99127	0.67133	0.064
Mof_C 	C 	0.76703	0.00557	0.67445	-0.167
Mof_H 	H 	0.76803	0.02717	0.68707	0.097
Mof_C 	C 	0.72253	0.98957	0.65991	0.112
Mof_H 	H 	0.68933	0.99467	0.66337	-0.014
Mof_C 	C 	0.72443	0.96527	0.63957	-0.221
Mof_H 	H 	0.69693	0.96027	0.62837	0.11
Mof_C 	C 	0.85693	0.00547	0.68808	0.248
Mof_C 	C 	0.69633	0.69857	0.58005	0.124
Mof_H 	H 	0.72023	0.68497	0.57167	-0.006
Mof_H 	H 	0.70033	0.69267	0.59567	-0.01
Mof_C 	C 	0.60683	0.60357	0.57437	0.218
Mof_C 	C 	0.63016	0.57247	0.58523	-0.171
Mof_H 	H 	0.66673	0.59327	0.59307	0.099
Mof_C 	C 	0.59823	0.50927	0.5844	0.027
Mof_C 	C 	0.54463	0.47967	0.57309	-0.106
Mof_H 	H 	0.52373	0.43707	0.57217	0.079
Mof_C 	C 	0.52143	0.51107	0.56324	0.073
Mof_H 	H 	0.48363	0.49017	0.55617	0.006
Mof_C 	C 	0.55273	0.57327	0.5635	-0.198
Mof_H 	H 	0.53713	0.59507	0.55617	0.106
Mof_C 	C 	0.62453	0.47567	0.59521	0.258
Mof_C 	C 	0.37503	0.81847	0.39898	0.288
Mof_O 	O 	0.98313	0.98697	0.58547	-0.028
Mof_C 	C 	0.98733	0.94577	0.59417	0.072
Mof_H 	H 	0.02573	0.95217	0.59827	0.019
Mof_N 	N 	0.93313	0.88667	0.59809	-0.041
Mof_C 	C 	0.87363	0.88097	0.59767	-0.312
Mof_H 	H 	0.87313	0.91067	0.60757	0.133
Mof_H 	H 	0.84353	0.84057	0.60247	0.124
Mof_H 	H 	0.86433	0.88787	0.58297	0.133
Mof_C 	C 	0.94013	0.83477	0.60217	-0.307
Mof_H 	H 	0.90833	0.80707	0.61207	0.121
Mof_H 	H 	0.97933	0.84787	0.60887	0.129
Mof_H 	H 	0.93733	0.81427	0.58847	0.116
Mof_Cd	Cd	0.40403	0.75593	0.44355	0.485
Mof_Cd	Cd	0.43184	0.73241	0.38828	0.49
Mof_O 	O 	0.60525	0.34335	0.35217	-0.289
Mof_O 	O 	0.62875	0.39597	0.38211	-0.286
Mof_O 	O 	0.6347	0.38533	0.136	-0.257
Mof_O 	O 	0.70219	0.47703	0.12402	-0.265
Mof_O 	O 	0.13415	0.13167	0.21969	-0.272
Mof_O 	O 	0.05829	0.12059	0.24003	-0.291
Mof_O 	O 	0.68704	0.27948	0.30026	-0.282
Mof_O 	O 	0.74091	0.30979	0.26982	-0.278
Mof_O 	O 	0.50389	0.83382	0.44281	-0.261
Mof_O 	O 	0.48063	0.75523	0.42203	-0.274
Mof_O 	O 	0.8394	0.357	0.53938	-0.267
Mof_O 	O 	0.7651	0.3336	0.51751	-0.242
Mof_O 	O 	0.51064	0.43055	0.30322	-0.258
Mof_O 	O 	0.30467	0.33283	0.24759	-0.27
Mof_O 	O 	0.54652	0.43885	0.19899	-0.253
Mof_O 	O 	0.79702	0.20826	0.34903	-0.263
Mof_O 	O 	0.81435	0.2536	0.45146	-0.26
Mof_O 	O 	0.69804	0.99858	0.40689	-0.259
Mof_C 	C 	0.60636	0.38474	0.36363	0.276
Mof_C 	C 	0.57761	0.41769	0.3546	0.002
Mof_C 	C 	0.5676	0.4567	0.36745	-0.1
Mof_H 	H 	0.5811	0.4643	0.3821	0.06
Mof_C 	C 	0.5375	0.4846	0.35857	0.047
Mof_H 	H 	0.5298	0.5104	0.3674	0.013
Mof_C 	C 	0.5193	0.4753	0.33758	-0.185
Mof_H 	H 	0.4984	0.4939	0.3318	0.1
Mof_C 	C 	0.5314	0.4377	0.32431	0.203
Mof_C 	C 	0.559	0.40863	0.33313	-0.169
Mof_H 	H 	0.5653	0.3819	0.3244	0.103
Mof_C 	C 	0.5201	0.3897	0.28944	0.108
Mof_H 	H 	0.5635	0.405	0.2873	0.007
Mof_H 	H 	0.5019	0.3494	0.2961	0.004
Mof_C 	C 	0.49006	0.38717	0.26787	-0.225
Mof_C 	C 	0.5225	0.4269	0.25159	0.291
Mof_C 	C 	0.4937	0.42511	0.23195	-0.219
Mof_C 	C 	0.433	0.3823	0.22898	0.272
Mof_C 	C 	0.4011	0.34288	0.24577	-0.226
Mof_C 	C 	0.4278	0.34529	0.26591	0.288
Mof_C 	C 	0.3921	0.3058	0.28442	-0.666
Mof_H 	H 	0.389	0.2664	0.2829	0.224
Mof_H 	H 	0.4121	0.3241	0.2981	0.229
Mof_H 	H 	0.3519	0.301	0.2843	0.226
Mof_C 	C 	0.5887	0.4716	0.25461	-0.664
Mof_H 	H 	0.6126	0.4555	0.2482	0.238
Mof_H 	H 	0.5985	0.5095	0.2474	0.231
Mof_H 	H 	0.5977	0.4788	0.2701	0.231
Mof_C 	C 	0.4024	0.3777	0.20702	-0.625
Mof_H 	H 	0.4067	0.3494	0.1976	0.216
Mof_H 	H 	0.3597	0.3635	0.2094	0.213
Mof_H 	H 	0.4213	0.4172	0.2001	0.219
Mof_C 	C 	0.3335	0.2993	0.24289	0.13
Mof_H 	H 	0.3196	0.265	0.253	-0.009
Mof_H 	H 	0.3246	0.2838	0.2278	-0.01
Mof_C 	C 	0.244	0.3028	0.24576	0.209
Mof_C 	C 	0.2156	0.3362	0.25096	-0.18
Mof_H 	H 	0.2391	0.3775	0.2547	0.09
Mof_C 	C 	0.154	0.3088	0.25062	0.059
Mof_H 	H 	0.1352	0.3311	0.2545	0.006
Mof_C 	C 	0.1189	0.2491	0.24465	-0.092
Mof_H 	H 	0.0764	0.2306	0.2448	0.08
Mof_C 	C 	0.1464	0.21631	0.23846	0.013
Mof_C 	C 	0.20931	0.24385	0.23909	-0.158
Mof_H 	H 	0.2282	0.2217	0.2349	0.094
Mof_C 	C 	0.5273	0.4686	0.21365	0.131
Mof_H 	H 	0.5623	0.5052	0.2195	-0.004
Mof_H 	H 	0.5007	0.4803	0.2061	-0.001
Mof_C 	C 	0.5745	0.4697	0.18036	0.232
Mof_C 	C 	0.5846	0.5259	0.17529	-0.222
Mof_H 	H 	0.5707	0.5456	0.1847	0.111
Mof_C 	C 	0.615	0.5536	0.15649	0.091
Mof_H 	H 	0.6199	0.5915	0.1526	-0.012
Mof_C 	C 	0.6383	0.5269	0.14329	-0.126
Mof_H 	H 	0.6608	0.5472	0.1307	0.085
Mof_C 	C 	0.6287	0.4708	0.14842	0.041
Mof_C 	C 	0.5957	0.4406	0.16653	-0.173
Mof_H 	H 	0.5873	0.401	0.1696	0.117
Mof_C 	C 	0.6571	0.4428	0.13512	0.256
Mof_C 	C 	0.7314	0.28688	0.28884	0.256
Mof_C 	C 	0.7722	0.266	0.29762	0.013
Mof_C 	C 	0.76424	0.24784	0.31944	-0.171
Mof_H 	H 	0.7342	0.2487	0.3281	0.105
Mof_C 	C 	0.8021	0.2283	0.32811	0.208
Mof_C 	C 	0.8443	0.2242	0.31517	-0.189
Mof_H 	H 	0.8684	0.2092	0.321	0.103
Mof_C 	C 	0.8507	0.2428	0.29346	0.048
Mof_H 	H 	0.8798	0.2406	0.2846	0.016
Mof_C 	C 	0.8153	0.2644	0.28458	-0.106
Mof_H 	H 	0.8206	0.2776	0.2699	0.07
Mof_C 	C 	0.7504	0.2086	0.3622	0.107
Mof_H 	H 	0.7585	0.2501	0.3642	0.007
Mof_H 	H 	0.7108	0.1847	0.3551	0.003
Mof_C 	C 	0.75128	0.18136	0.38364	-0.205
Mof_C 	C 	0.7934	0.21902	0.39993	0.261
Mof_C 	C 	0.7951	0.1936	0.41999	-0.212
Mof_C 	C 	0.754	0.1328	0.42454	0.261
Mof_C 	C 	0.7127	0.0967	0.40866	-0.219
Mof_C 	C 	0.71335	0.1199	0.38797	0.259
Mof_C 	C 	0.6741	0.0798	0.36968	-0.622
Mof_H 	H 	0.6339	0.0749	0.3709	0.211
Mof_H 	H 	0.6918	0.0983	0.3557	0.212
Mof_H 	H 	0.6712	0.0405	0.3707	0.215
Mof_C 	C 	0.8344	0.2845	0.39477	-0.643
Mof_H 	H 	0.8743	0.2977	0.4008	0.221
Mof_H 	H 	0.8375	0.2901	0.379	0.224
Mof_H 	H 	0.8181	0.3083	0.4011	0.222
Mof_C 	C 	0.7514	0.1078	0.44705	-0.626
Mof_H 	H 	0.7441	0.0667	0.4459	0.21
Mof_H 	H 	0.7896	0.1329	0.4545	0.222
Mof_H 	H 	0.7188	0.1077	0.4553	0.209
Mof_C 	C 	0.8421	0.2314	0.43654	0.115
Mof_H 	H 	0.877	0.2653	0.4293	0.001
Mof_H 	H 	0.856	0.2071	0.4444	0.005
Mof_C 	C 	0.8475	0.2823	0.4697	0.216
Mof_C 	C 	0.8179	0.297	0.48505	-0.174
Mof_H 	H 	0.7781	0.2888	0.4825	0.11
Mof_C 	C 	0.8482	0.3246	0.50466	0.031
Mof_C 	C 	0.9052	0.3389	0.50778	-0.124
Mof_H 	H 	0.9258	0.3605	0.5204	0.085
Mof_C 	C 	0.9337	0.3229	0.49324	0.077
Mof_H 	H 	0.972	0.328	0.4967	-0.004
Mof_C 	C 	0.9075	0.2986	0.4729	-0.201
Mof_H 	H 	0.93	0.2936	0.4617	0.103
Mof_C 	C 	0.8152	0.3388	0.52141	0.264
Mof_C 	C 	0.6689	0.0319	0.41338	0.117
Mof_H 	H 	0.6314	0.0183	0.405	-0.006
Mof_H 	H 	0.659	0.026	0.429	-0.009
Mof_C 	C 	0.6634	0.9369	0.4077	0.217
Mof_C 	C 	0.60897	0.9058	0.41856	-0.17
Mof_H 	H 	0.5932	0.9266	0.4264	0.1
Mof_C 	C 	0.5777	0.8426	0.41773	0.027
Mof_C 	C 	0.6017	0.813	0.40642	-0.105
Mof_H 	H 	0.58	0.7704	0.4055	0.079
Mof_C 	C 	0.6563	0.8444	0.39657	0.073
Mof_H 	H 	0.6732	0.8235	0.3895	0.006
Mof_C 	C 	0.6872	0.9066	0.39683	-0.197
Mof_H 	H 	0.7246	0.9284	0.3895	0.107
Mof_C 	C 	0.5178	0.809	0.42854	0.258
Mof_C 	C 	0.1101	0.1518	0.23231	0.292
Mof_O 	O 	0.6705	0.3203	0.4188	-0.109
Mof_C 	C 	0.6251	0.2791	0.4275	0.132
Mof_H 	H 	0.5931	0.2855	0.4316	0.001
Mof_N 	N 	0.6202	0.22	0.43142	-0.052
Mof_C 	C 	0.674	0.2143	0.431	-0.305
Mof_H 	H 	0.7042	0.244	0.4409	0.13
Mof_H 	H 	0.6637	0.1739	0.4358	0.122
Mof_H 	H 	0.6902	0.2212	0.4163	0.131
Mof_C 	C 	0.5613	0.1681	0.4355	-0.3
Mof_H 	H 	0.5654	0.1404	0.4454	0.118
Mof_H 	H 	0.5352	0.1812	0.4422	0.125
Mof_H 	H 	0.5436	0.1476	0.4218	0.113
Mof_Cd	Cd	0.0707	0.08926	0.77689	0.484
Mof_Cd	Cd	0.09851	0.06575	0.72161	0.489
Mof_O 	O 	0.27192	0.67668	0.6855	-0.289
Mof_O 	O 	0.29542	0.7293	0.71544	-0.286
Mof_O 	O 	0.30137	0.71866	0.46933	-0.257
Mof_O 	O 	0.36886	0.81036	0.45735	-0.265
Mof_O 	O 	0.80082	0.465	0.55302	-0.272
Mof_O 	O 	0.72496	0.45392	0.57336	-0.291
Mof_O 	O 	0.35371	0.61281	0.63359	-0.282
Mof_O 	O 	0.40758	0.64312	0.60315	-0.278
Mof_O 	O 	0.17056	0.16715	0.77614	-0.261
Mof_O 	O 	0.1473	0.08856	0.75536	-0.274
Mof_O 	O 	0.50607	0.69033	0.87271	-0.267
Mof_O 	O 	0.43177	0.66693	0.85084	-0.241
Mof_O 	O 	0.17731	0.76388	0.63655	-0.258
Mof_O 	O 	0.97134	0.66616	0.58092	-0.268
Mof_O 	O 	0.21319	0.77218	0.53232	-0.253
Mof_O 	O 	0.46369	0.54159	0.68236	-0.263
Mof_O 	O 	0.48102	0.58693	0.78479	-0.26
Mof_O 	O 	0.36471	0.33191	0.74022	-0.265
Mof_C 	C 	0.27303	0.71807	0.69696	0.276
Mof_C 	C 	0.24428	0.75102	0.68793	0.002
Mof_C 	C 	0.23427	0.79003	0.70078	-0.1
Mof_H 	H 	0.24777	0.79763	0.71543	0.06
Mof_C 	C 	0.20417	0.81793	0.6919	0.048
Mof_H 	H 	0.19647	0.84373	0.70073	0.013
Mof_C 	C 	0.18597	0.80863	0.67091	-0.185
Mof_H 	H 	0.16507	0.82723	0.66513	0.1
Mof_C 	C 	0.19807	0.77103	0.65764	0.203
Mof_C 	C 	0.22567	0.74196	0.66646	-0.169
Mof_H 	H 	0.23197	0.71523	0.65773	0.103
Mof_C 	C 	0.18677	0.72303	0.62277	0.108
Mof_H 	H 	0.23017	0.73833	0.62063	0.007
Mof_H 	H 	0.16857	0.68273	0.62943	0.004
Mof_C 	C 	0.15673	0.7205	0.6012	-0.224
Mof_C 	C 	0.18917	0.76023	0.58492	0.29
Mof_C 	C 	0.16037	0.75844	0.56528	-0.219
Mof_C 	C 	0.09967	0.71563	0.56231	0.27
Mof_C 	C 	0.06777	0.67621	0.5791	-0.224
Mof_C 	C 	0.09447	0.67862	0.59924	0.287
Mof_C 	C 	0.05877	0.63913	0.61775	-0.665
Mof_H 	H 	0.05567	0.59973	0.61623	0.224
Mof_H 	H 	0.07877	0.65743	0.63143	0.228
Mof_H 	H 	0.01857	0.63433	0.61763	0.225
Mof_C 	C 	0.25537	0.80493	0.58794	-0.664
Mof_H 	H 	0.27927	0.78883	0.58153	0.238
Mof_H 	H 	0.26517	0.84283	0.58073	0.231
Mof_H 	H 	0.26437	0.81213	0.60343	0.231
Mof_C 	C 	0.06907	0.71103	0.54035	-0.624
Mof_H 	H 	0.07337	0.68273	0.53093	0.216
Mof_H 	H 	0.02637	0.69683	0.54273	0.212
Mof_H 	H 	0.08797	0.75053	0.53343	0.219
Mof_C 	C 	0.00017	0.63263	0.57622	0.124
Mof_H 	H 	0.98627	0.59833	0.58633	-0.007
Mof_H 	H 	0.99127	0.61713	0.56113	-0.007
Mof_C 	C 	0.91067	0.63613	0.57909	0.209
Mof_C 	C 	0.88227	0.66953	0.58429	-0.179
Mof_H 	H 	0.90577	0.71083	0.58803	0.09
Mof_C 	C 	0.82067	0.64213	0.58395	0.059
Mof_H 	H 	0.80187	0.66443	0.58783	0.006
Mof_C 	C 	0.78557	0.58243	0.57798	-0.092
Mof_H 	H 	0.74307	0.56393	0.57813	0.08
Mof_C 	C 	0.81307	0.54964	0.57179	0.013
Mof_C 	C 	0.87598	0.57718	0.57242	-0.158
Mof_H 	H 	0.89487	0.55503	0.56823	0.094
Mof_C 	C 	0.19397	0.80193	0.54698	0.131
Mof_H 	H 	0.22897	0.83853	0.55283	-0.004
Mof_H 	H 	0.16737	0.81363	0.53943	-0.001
Mof_C 	C 	0.24117	0.80303	0.51369	0.231
Mof_C 	C 	0.25127	0.85923	0.50862	-0.221
Mof_H 	H 	0.23737	0.87893	0.51803	0.111
Mof_C 	C 	0.28167	0.88693	0.48982	0.091
Mof_H 	H 	0.28657	0.92483	0.48593	-0.011
Mof_C 	C 	0.30497	0.86023	0.47662	-0.126
Mof_H 	H 	0.32747	0.88053	0.46403	0.085
Mof_C 	C 	0.29537	0.80413	0.48175	0.041
Mof_C 	C 	0.26237	0.77393	0.49986	-0.173
Mof_H 	H 	0.25397	0.73433	0.50293	0.117
Mof_C 	C 	0.32377	0.77613	0.46845	0.256
Mof_C 	C 	0.39807	0.62021	0.62217	0.256
Mof_C 	C 	0.43887	0.59933	0.63095	0.013
Mof_C 	C 	0.43091	0.58117	0.65277	-0.171
Mof_H 	H 	0.40087	0.58203	0.66143	0.105
Mof_C 	C 	0.46877	0.56163	0.66144	0.208
Mof_C 	C 	0.51097	0.55753	0.6485	-0.189
Mof_H 	H 	0.53507	0.54253	0.65433	0.102
Mof_C 	C 	0.51737	0.57613	0.62679	0.048
Mof_H 	H 	0.54647	0.57393	0.61793	0.016
Mof_C 	C 	0.48197	0.59773	0.61791	-0.107
Mof_H 	H 	0.48727	0.61093	0.60323	0.07
Mof_C 	C 	0.41707	0.54193	0.69553	0.107
Mof_H 	H 	0.42517	0.58343	0.69753	0.007
Mof_H 	H 	0.37747	0.51803	0.68843	0.003
Mof_C 	C 	0.41795	0.51469	0.71697	-0.206
Mof_C 	C 	0.46007	0.55235	0.73326	0.261
Mof_C 	C 	0.46177	0.52693	0.75332	-0.213
Mof_C 	C 	0.42067	0.46613	0.75787	0.264
Mof_C 	C 	0.37937	0.43003	0.74199	-0.222
Mof_C 	C 	0.38002	0.45323	0.7213	0.261
Mof_C 	C 	0.34077	0.41313	0.70301	-0.627
Mof_H 	H 	0.30057	0.40823	0.70423	0.213
Mof_H 	H 	0.35847	0.43163	0.68903	0.214
Mof_H 	H 	0.33787	0.37383	0.70403	0.218
Mof_C 	C 	0.50107	0.61783	0.7281	-0.644
Mof_H 	H 	0.54097	0.63103	0.73413	0.221
Mof_H 	H 	0.50417	0.62343	0.71233	0.224
Mof_H 	H 	0.48477	0.64163	0.73443	0.222
Mof_C 	C 	0.41807	0.44113	0.78038	-0.63
Mof_H 	H 	0.41077	0.40003	0.77923	0.213
Mof_H 	H 	0.45627	0.46623	0.78783	0.223
Mof_H 	H 	0.38547	0.44103	0.78863	0.211
Mof_C 	C 	0.50877	0.56473	0.76987	0.116
Mof_H 	H 	0.54367	0.59863	0.76263	0.001
Mof_H 	H 	0.52267	0.54043	0.77773	0.004
Mof_C 	C 	0.51417	0.61563	0.80303	0.216
Mof_C 	C 	0.48457	0.63033	0.81838	-0.174
Mof_H 	H 	0.44477	0.62213	0.81583	0.111
Mof_C 	C 	0.51487	0.65793	0.83799	0.031
Mof_C 	C 	0.57187	0.67223	0.84111	-0.124
Mof_H 	H 	0.59247	0.69383	0.85373	0.085
Mof_C 	C 	0.60037	0.65623	0.82657	0.078
Mof_H 	H 	0.63867	0.66133	0.83003	-0.004
Mof_C 	C 	0.57417	0.63193	0.80623	-0.201
Mof_H 	H 	0.59667	0.62693	0.79503	0.103
Mof_C 	C 	0.48187	0.67213	0.85474	0.264
Mof_C 	C 	0.33557	0.36523	0.74671	0.124
Mof_H 	H 	0.29807	0.35163	0.73833	-0.006
Mof_H 	H 	0.32567	0.35933	0.76233	-0.01
Mof_C 	C 	0.33007	0.27023	0.74103	0.218
Mof_C 	C 	0.27564	0.23913	0.75189	-0.171
Mof_H 	H 	0.25987	0.25993	0.75973	0.099
Mof_C 	C 	0.24437	0.17593	0.75106	0.027
Mof_C 	C 	0.26837	0.14633	0.73975	-0.106
Mof_H 	H 	0.24667	0.10373	0.73883	0.079
Mof_C 	C 	0.32297	0.17773	0.7299	0.073
Mof_H 	H 	0.33987	0.15683	0.72283	0.005
Mof_C 	C 	0.35387	0.23993	0.73016	-0.198
Mof_H 	H 	0.39127	0.26173	0.72283	0.106
Mof_C 	C 	0.18447	0.14233	0.76187	0.259
Mof_C 	C 	0.77677	0.48513	0.56564	0.292
Mof_O 	O 	0.33717	0.65363	0.75213	-0.109
Mof_C 	C 	0.29177	0.61243	0.76083	0.132
Mof_H 	H 	0.25977	0.61883	0.76493	0.001
Mof_N 	N 	0.28687	0.55333	0.76475	-0.052
Mof_C 	C 	0.34067	0.54763	0.76433	-0.305
Mof_H 	H 	0.37087	0.57733	0.77423	0.13
Mof_H 	H 	0.33037	0.50723	0.76913	0.122
Mof_H 	H 	0.35687	0.55453	0.74963	0.131
Mof_C 	C 	0.22797	0.50143	0.76883	-0.301
Mof_H 	H 	0.23207	0.47373	0.77873	0.119
Mof_H 	H 	0.20187	0.51453	0.77553	0.126
Mof_H 	H 	0.21027	0.48093	0.75513	0.114
Mof_Cd	Cd	0.73736	0.42259	0.11022	0.485
Mof_Cd	Cd	0.76518	0.39908	0.05494	0.49
Mof_O 	O 	0.93858	0.01002	0.01884	-0.291
Mof_O 	O 	0.96208	0.06264	0.04878	-0.285
Mof_O 	O 	0.96803	0.052	0.80267	-0.26
Mof_O 	O 	0.03552	0.1437	0.79069	-0.267
Mof_O 	O 	0.46748	0.79834	0.88636	-0.27
Mof_O 	O 	0.39162	0.78726	0.9067	-0.29
Mof_O 	O 	0.02037	0.94615	0.96693	-0.279
Mof_O 	O 	0.07424	0.97646	0.93649	-0.274
Mof_O 	O 	0.83722	0.50049	0.10948	-0.261
Mof_O 	O 	0.81396	0.4219	0.0887	-0.273
Mof_O 	O 	0.17273	0.02367	0.20605	-0.265
Mof_O 	O 	0.09843	0.00027	0.18418	-0.24
Mof_O 	O 	0.84397	0.09722	0.96989	-0.259
Mof_O 	O 	0.638	0.9995	0.91426	-0.272
Mof_O 	O 	0.87985	0.10552	0.86566	-0.253
Mof_O 	O 	0.13035	0.87493	0.0157	-0.263
Mof_O 	O 	0.14768	0.92027	0.11813	-0.263
Mof_O 	O 	0.03137	0.66525	0.07356	-0.266
Mof_C 	C 	0.93969	0.05141	0.0303	0.275
Mof_C 	C 	0.91094	0.08436	0.02127	0.002
Mof_C 	C 	0.90093	0.12337	0.03412	-0.099
Mof_H 	H 	0.91443	0.13097	0.04877	0.06
Mof_C 	C 	0.87083	0.15127	0.02524	0.047
Mof_H 	H 	0.86313	0.17707	0.03407	0.013
Mof_C 	C 	0.85263	0.14197	0.00425	-0.184
Mof_H 	H 	0.83173	0.16057	0.99847	0.1
Mof_C 	C 	0.86473	0.10437	0.99098	0.202
Mof_C 	C 	0.89233	0.0753	0.9998	-0.169
Mof_H 	H 	0.89863	0.04857	0.99107	0.102
Mof_C 	C 	0.85343	0.05637	0.95611	0.108
Mof_H 	H 	0.89683	0.07167	0.95397	0.007
Mof_H 	H 	0.83523	0.01607	0.96277	0.002
Mof_C 	C 	0.82339	0.05384	0.93454	-0.224
Mof_C 	C 	0.85583	0.09357	0.91826	0.29
Mof_C 	C 	0.82703	0.09178	0.89862	-0.219
Mof_C 	C 	0.76633	0.04897	0.89565	0.272
Mof_C 	C 	0.73443	0.00955	0.91244	-0.231
Mof_C 	C 	0.76113	0.01196	0.93258	0.282
Mof_C 	C 	0.72543	0.97247	0.95109	-0.656
Mof_H 	H 	0.72233	0.93307	0.94957	0.222
Mof_H 	H 	0.74543	0.99077	0.96477	0.228
Mof_H 	H 	0.68523	0.96767	0.95097	0.224
Mof_C 	C 	0.92203	0.13827	0.92128	-0.664
Mof_H 	H 	0.94593	0.12217	0.91487	0.238
Mof_H 	H 	0.93183	0.17617	0.91407	0.231
Mof_H 	H 	0.93103	0.14547	0.93677	0.231
Mof_C 	C 	0.73573	0.04437	0.87369	-0.624
Mof_H 	H 	0.74003	0.01607	0.86427	0.214
Mof_H 	H 	0.69303	0.03017	0.87607	0.211
Mof_H 	H 	0.75463	0.08387	0.86677	0.219
Mof_C 	C 	0.66683	0.96597	0.90956	0.138
Mof_H 	H 	0.65293	0.93167	0.91967	-0.011
Mof_H 	H 	0.65793	0.95047	0.89447	-0.01
Mof_C 	C 	0.57733	0.96947	0.91243	0.227
Mof_C 	C 	0.54893	0.00287	0.91763	-0.209
Mof_H 	H 	0.57243	0.04417	0.92137	0.098
Mof_C 	C 	0.48733	0.97547	0.91729	0.084
Mof_H 	H 	0.46853	0.99777	0.92117	0.001
Mof_C 	C 	0.45223	0.91577	0.91132	-0.106
Mof_H 	H 	0.40973	0.89727	0.91147	0.085
Mof_C 	C 	0.47973	0.88298	0.90513	0.023
Mof_C 	C 	0.54264	0.91052	0.90576	-0.169
Mof_H 	H 	0.56153	0.88837	0.90157	0.098
Mof_C 	C 	0.86063	0.13527	0.88032	0.131
Mof_H 	H 	0.89563	0.17187	0.88617	-0.004
Mof_H 	H 	0.83403	0.14697	0.87277	-0.001
Mof_C 	C 	0.90783	0.13637	0.84703	0.231
Mof_C 	C 	0.91793	0.19257	0.84196	-0.221
Mof_H 	H 	0.90403	0.21227	0.85137	0.111
Mof_C 	C 	0.94833	0.22027	0.82316	0.09
Mof_H 	H 	0.95323	0.25817	0.81927	-0.012
Mof_C 	C 	0.97163	0.19357	0.80996	-0.125
Mof_H 	H 	0.99413	0.21387	0.79737	0.085
Mof_C 	C 	0.96203	0.13747	0.81509	0.04
Mof_C 	C 	0.92903	0.10727	0.8332	-0.172
Mof_H 	H 	0.92063	0.06767	0.83627	0.116
Mof_C 	C 	0.99043	0.10947	0.80179	0.258
Mof_C 	C 	0.06473	0.95355	0.95551	0.256
Mof_C 	C 	0.10553	0.93267	0.96429	0.015
Mof_C 	C 	0.09757	0.91451	0.98611	-0.171
Mof_H 	H 	0.06753	0.91537	0.99477	0.105
Mof_C 	C 	0.13543	0.89497	0.99478	0.209
Mof_C 	C 	0.17763	0.89087	0.98184	-0.189
Mof_H 	H 	0.20173	0.87587	0.98767	0.103
Mof_C 	C 	0.18403	0.90947	0.96013	0.049
Mof_H 	H 	0.21313	0.90727	0.95127	0.016
Mof_C 	C 	0.14863	0.93107	0.95125	-0.107
Mof_H 	H 	0.15393	0.94427	0.93657	0.072
Mof_C 	C 	0.08373	0.87527	0.02887	0.108
Mof_H 	H 	0.09183	0.91677	0.03087	0.008
Mof_H 	H 	0.04413	0.85137	0.02177	0.002
Mof_C 	C 	0.08461	0.84803	0.05031	-0.207
Mof_C 	C 	0.12673	0.88569	0.0666	0.264
Mof_C 	C 	0.12843	0.86027	0.08666	-0.214
Mof_C 	C 	0.08733	0.79947	0.09121	0.264
Mof_C 	C 	0.04603	0.76337	0.07533	-0.222
Mof_C 	C 	0.04668	0.78657	0.05464	0.262
Mof_C 	C 	0.00743	0.74647	0.03635	-0.63
Mof_H 	H 	0.96723	0.74157	0.03757	0.214
Mof_H 	H 	0.02513	0.76497	0.02237	0.215
Mof_H 	H 	0.00453	0.70717	0.03737	0.218
Mof_C 	C 	0.16773	0.95117	0.06144	-0.649
Mof_H 	H 	0.20763	0.96437	0.06747	0.224
Mof_H 	H 	0.17083	0.95677	0.04567	0.227
Mof_H 	H 	0.15143	0.97497	0.06777	0.226
Mof_C 	C 	0.08473	0.77447	0.11372	-0.63
Mof_H 	H 	0.07743	0.73337	0.11257	0.213
Mof_H 	H 	0.12293	0.79957	0.12117	0.223
Mof_H 	H 	0.05213	0.77437	0.12197	0.211
Mof_C 	C 	0.17543	0.89807	0.10321	0.118
Mof_H 	H 	0.21033	0.93197	0.09597	0.001
Mof_H 	H 	0.18933	0.87377	0.11107	0.004
Mof_C 	C 	0.18083	0.94897	0.13637	0.233
Mof_C 	C 	0.15123	0.96367	0.15172	-0.194
Mof_H 	H 	0.11143	0.95547	0.14917	0.119
Mof_C 	C 	0.18153	0.99127	0.17133	0.066
Mof_C 	C 	0.23853	0.00557	0.17445	-0.17
Mof_H 	H 	0.25913	0.02717	0.18707	0.098
Mof_C 	C 	0.26703	0.98957	0.15991	0.114
Mof_H 	H 	0.30533	0.99467	0.16337	-0.014
Mof_C 	C 	0.24083	0.96527	0.13957	-0.223
Mof_H 	H 	0.26333	0.96027	0.12837	0.111
Mof_C 	C 	0.14853	0.00547	0.18808	0.247
Mof_C 	C 	0.00223	0.69857	0.08005	0.121
Mof_H 	H 	0.96473	0.68497	0.07167	-0.005
Mof_H 	H 	0.99233	0.69267	0.09567	-0.008
Mof_C 	C 	0.99673	0.60357	0.07437	0.223
Mof_C 	C 	0.9423	0.57247	0.08523	-0.174
Mof_H 	H 	0.92653	0.59327	0.09307	0.1
Mof_C 	C 	0.91103	0.50927	0.0844	0.03
Mof_C 	C 	0.93503	0.47967	0.07309	-0.111
Mof_H 	H 	0.91333	0.43707	0.07217	0.081
Mof_C 	C 	0.98963	0.51107	0.06324	0.082
Mof_H 	H 	0.00653	0.49017	0.05617	0.002
Mof_C 	C 	0.02053	0.57327	0.0635	-0.205
Mof_H 	H 	0.05793	0.59507	0.05617	0.108
Mof_C 	C 	0.85113	0.47567	0.09521	0.257
Mof_C 	C 	0.44343	0.81847	0.89898	0.288
Mof_O 	O 	0.00383	0.98697	0.08547	-0.033
Mof_C 	C 	0.95843	0.94577	0.09417	0.072
Mof_H 	H 	0.92643	0.95217	0.09827	0.019
Mof_N 	N 	0.95353	0.88667	0.09809	-0.041
Mof_C 	C 	0.00733	0.88097	0.09767	-0.316
Mof_H 	H 	0.03753	0.91067	0.10757	0.134
Mof_H 	H 	0.99703	0.84057	0.10247	0.125
Mof_H 	H 	0.02353	0.88787	0.08297	0.134
Mof_C 	C 	0.89463	0.83477	0.10217	-0.308
Mof_H 	H 	0.89873	0.80707	0.11207	0.121
Mof_H 	H 	0.86853	0.84787	0.10887	0.128
Mof_H 	H 	0.87693	0.81427	0.08847	0.116
Mof_Cd	Cd	0.3519	0.59597	0.44355	0.485
Mof_Cd	Cd	0.30057	0.56816	0.38828	0.49
Mof_O 	O 	0.7381	0.39475	0.35217	-0.289
Mof_O 	O 	0.76722	0.37125	0.38211	-0.286
Mof_O 	O 	0.75063	0.3653	0.136	-0.257
Mof_O 	O 	0.77484	0.29781	0.12402	-0.265
Mof_O 	O 	0.99752	0.86585	0.21969	-0.27
Mof_O 	O 	0.0623	0.94171	0.24003	-0.288
Mof_O 	O 	0.59244	0.31296	0.30026	-0.282
Mof_O 	O 	0.56888	0.25909	0.26982	-0.278
Mof_O 	O 	0.32993	0.49611	0.44281	-0.261
Mof_O 	O 	0.2746	0.51937	0.42203	-0.274
Mof_O 	O 	0.5176	0.1606	0.53938	-0.268
Mof_O 	O 	0.5685	0.2349	0.51751	-0.242
Mof_O 	O 	0.91991	0.48936	0.30322	-0.258
Mof_O 	O 	0.02816	0.69533	0.24759	-0.271
Mof_O 	O 	0.89233	0.45348	0.19899	-0.253
Mof_O 	O 	0.41124	0.20298	0.34903	-0.263
Mof_O 	O 	0.43925	0.18565	0.45146	-0.26
Mof_O 	O 	0.30054	0.30196	0.40689	-0.265
Mof_C 	C 	0.77838	0.39364	0.36363	0.276
Mof_C 	C 	0.84008	0.42239	0.3546	0.002
Mof_C 	C 	0.8891	0.4324	0.36745	-0.1
Mof_H 	H 	0.8832	0.4189	0.3821	0.06
Mof_C 	C 	0.9471	0.4625	0.35857	0.048
Mof_H 	H 	0.9806	0.4702	0.3674	0.014
Mof_C 	C 	0.956	0.4807	0.33758	-0.185
Mof_H 	H 	0.9955	0.5016	0.3318	0.1
Mof_C 	C 	0.9063	0.4686	0.32431	0.203
Mof_C 	C 	0.84963	0.441	0.33313	-0.169
Mof_H 	H 	0.8166	0.4347	0.3244	0.103
Mof_C 	C 	0.8696	0.4799	0.28944	0.108
Mof_H 	H 	0.8415	0.4365	0.2873	0.007
Mof_H 	H 	0.8475	0.4981	0.2961	0.004
Mof_C 	C 	0.89711	0.50994	0.26787	-0.225
Mof_C 	C 	0.9044	0.4775	0.25159	0.291
Mof_C 	C 	0.93141	0.5063	0.23195	-0.219
Mof_C 	C 	0.9493	0.567	0.22898	0.271
Mof_C 	C 	0.94178	0.5989	0.24577	-0.226
Mof_C 	C 	0.91749	0.5722	0.26591	0.288
Mof_C 	C 	0.9137	0.6079	0.28442	-0.666
Mof_H 	H 	0.8774	0.611	0.2829	0.224
Mof_H 	H 	0.912	0.5879	0.2981	0.229
Mof_H 	H 	0.9491	0.6481	0.2843	0.226
Mof_C 	C 	0.8829	0.4113	0.25461	-0.664
Mof_H 	H 	0.8429	0.3874	0.2482	0.238
Mof_H 	H 	0.911	0.4015	0.2474	0.231
Mof_H 	H 	0.8811	0.4023	0.2701	0.231
Mof_C 	C 	0.9753	0.5976	0.20702	-0.622
Mof_H 	H 	0.9427	0.5933	0.1976	0.215
Mof_H 	H 	0.0038	0.6403	0.2094	0.212
Mof_H 	H 	0.9959	0.5787	0.2001	0.219
Mof_C 	C 	0.9658	0.6665	0.24289	0.131
Mof_H 	H 	0.9454	0.6804	0.253	-0.01
Mof_H 	H 	0.9592	0.6754	0.2278	-0.01
Mof_C 	C 	0.0588	0.756	0.24576	0.211
Mof_C 	C 	0.1206	0.7844	0.25096	-0.181
Mof_H 	H 	0.1384	0.7609	0.2547	0.09
Mof_C 	C 	0.1548	0.846	0.25062	0.061
Mof_H 	H 	0.1959	0.8648	0.2545	0.006
Mof_C 	C 	0.1302	0.8811	0.24465	-0.094
Mof_H 	H 	0.1542	0.9236	0.2448	0.082
Mof_C 	C 	0.06991	0.8536	0.23846	0.015
Mof_C 	C 	0.03454	0.79069	0.23909	-0.161
Mof_H 	H 	0.9935	0.7718	0.2349	0.096
Mof_C 	C 	0.9413	0.4727	0.21365	0.131
Mof_H 	H 	0.9429	0.4377	0.2195	-0.004
Mof_H 	H 	0.9796	0.4993	0.2061	-0
Mof_C 	C 	0.8952	0.4255	0.18036	0.232
Mof_C 	C 	0.9413	0.4154	0.17529	-0.221
Mof_H 	H 	0.9749	0.4293	0.1847	0.112
Mof_C 	C 	0.9386	0.385	0.15649	0.091
Mof_H 	H 	0.9716	0.3801	0.1526	-0.012
Mof_C 	C 	0.8886	0.3617	0.14329	-0.126
Mof_H 	H 	0.8864	0.3392	0.1307	0.085
Mof_C 	C 	0.8421	0.3713	0.14842	0.041
Mof_C 	C 	0.8449	0.4043	0.16653	-0.173
Mof_H 	H 	0.8137	0.4127	0.1696	0.117
Mof_C 	C 	0.7857	0.3429	0.13512	0.256
Mof_C 	C 	0.55548	0.2686	0.28884	0.256
Mof_C 	C 	0.4938	0.2278	0.29762	0.013
Mof_C 	C 	0.4836	0.23576	0.31944	-0.171
Mof_H 	H 	0.5145	0.2658	0.3281	0.105
Mof_C 	C 	0.4262	0.1979	0.32811	0.208
Mof_C 	C 	0.3799	0.1557	0.31517	-0.189
Mof_H 	H 	0.3408	0.1316	0.321	0.102
Mof_C 	C 	0.3921	0.1493	0.29346	0.048
Mof_H 	H 	0.3608	0.1202	0.2846	0.015
Mof_C 	C 	0.4491	0.1847	0.28458	-0.106
Mof_H 	H 	0.457	0.1794	0.2699	0.07
Mof_C 	C 	0.4582	0.2496	0.3622	0.107
Mof_H 	H 	0.4916	0.2415	0.3642	0.007
Mof_H 	H 	0.4739	0.2892	0.3551	0.003
Mof_C 	C 	0.43008	0.24872	0.38364	-0.206
Mof_C 	C 	0.42562	0.2066	0.39993	0.261
Mof_C 	C 	0.3985	0.2049	0.41999	-0.213
Mof_C 	C 	0.3788	0.246	0.42454	0.264
Mof_C 	C 	0.384	0.2873	0.40866	-0.222
Mof_C 	C 	0.40655	0.28665	0.38797	0.261
Mof_C 	C 	0.4057	0.3259	0.36968	-0.627
Mof_H 	H 	0.441	0.3661	0.3709	0.213
Mof_H 	H 	0.4065	0.3082	0.3557	0.214
Mof_H 	H 	0.3693	0.3288	0.3707	0.218
Mof_C 	C 	0.4501	0.1656	0.39477	-0.643
Mof_H 	H 	0.4234	0.1257	0.4008	0.22
Mof_H 	H 	0.4526	0.1625	0.379	0.224
Mof_H 	H 	0.4902	0.1819	0.4011	0.222
Mof_C 	C 	0.3564	0.2486	0.44705	-0.63
Mof_H 	H 	0.3226	0.2559	0.4459	0.213
Mof_H 	H 	0.3433	0.2104	0.4545	0.224
Mof_H 	H 	0.3889	0.2812	0.4553	0.211
Mof_C 	C 	0.3893	0.1579	0.43654	0.116
Mof_H 	H 	0.3883	0.123	0.4293	0
Mof_H 	H 	0.3511	0.144	0.4444	0.004
Mof_C 	C 	0.4348	0.1525	0.4697	0.216
Mof_C 	C 	0.4791	0.1821	0.48505	-0.174
Mof_H 	H 	0.5107	0.2219	0.4825	0.111
Mof_C 	C 	0.4764	0.1518	0.50466	0.031
Mof_C 	C 	0.4337	0.0948	0.50778	-0.124
Mof_H 	H 	0.4347	0.0742	0.5204	0.084
Mof_C 	C 	0.3892	0.0663	0.49324	0.077
Mof_H 	H 	0.356	0.028	0.4967	-0.006
Mof_C 	C 	0.3911	0.0925	0.4729	-0.202
Mof_H 	H 	0.3636	0.07	0.4617	0.102
Mof_C 	C 	0.5236	0.1848	0.52141	0.264
Mof_C 	C 	0.363	0.3311	0.41338	0.124
Mof_H 	H 	0.3869	0.3686	0.405	-0.006
Mof_H 	H 	0.367	0.341	0.429	-0.01
Mof_C 	C 	0.2735	0.3366	0.4077	0.218
Mof_C 	C 	0.29683	0.39103	0.41856	-0.171
Mof_H 	H 	0.3334	0.4068	0.4264	0.099
Mof_C 	C 	0.2649	0.4223	0.41773	0.027
Mof_C 	C 	0.2113	0.3983	0.40642	-0.106
Mof_H 	H 	0.1904	0.42	0.4055	0.079
Mof_C 	C 	0.1881	0.3437	0.39657	0.073
Mof_H 	H 	0.1503	0.3268	0.3895	0.005
Mof_C 	C 	0.2194	0.3128	0.39683	-0.198
Mof_H 	H 	0.2038	0.2754	0.3895	0.106
Mof_C 	C 	0.2912	0.4822	0.42854	0.258
Mof_C 	C 	0.0417	0.8899	0.23231	0.29
Mof_O 	O 	0.6498	0.3295	0.4188	-0.109
Mof_C 	C 	0.654	0.3749	0.4275	0.132
Mof_H 	H 	0.6924	0.4069	0.4316	0.001
Mof_N 	N 	0.5998	0.3798	0.43142	-0.052
Mof_C 	C 	0.5403	0.326	0.431	-0.305
Mof_H 	H 	0.5398	0.2958	0.4409	0.13
Mof_H 	H 	0.5102	0.3363	0.4358	0.122
Mof_H 	H 	0.531	0.3098	0.4163	0.131
Mof_C 	C 	0.6068	0.4387	0.4355	-0.301
Mof_H 	H 	0.575	0.4346	0.4454	0.119
Mof_H 	H 	0.646	0.4648	0.4422	0.126
Mof_H 	H 	0.604	0.4564	0.4218	0.114
Mof_Cd	Cd	0.01856	0.9293	0.77689	0.487
Mof_Cd	Cd	0.96724	0.90149	0.72161	0.494
Mof_O 	O 	0.40477	0.72808	0.6855	-0.289
Mof_O 	O 	0.43389	0.70458	0.71544	-0.286
Mof_O 	O 	0.4173	0.69863	0.46933	-0.257
Mof_O 	O 	0.44151	0.63114	0.45735	-0.265
Mof_O 	O 	0.66419	0.19918	0.55302	-0.271
Mof_O 	O 	0.72897	0.27504	0.57336	-0.291
Mof_O 	O 	0.25911	0.64629	0.63359	-0.282
Mof_O 	O 	0.23555	0.59242	0.60315	-0.278
Mof_O 	O 	0.9966	0.82944	0.77614	-0.261
Mof_O 	O 	0.94127	0.8527	0.75536	-0.273
Mof_O 	O 	0.18427	0.49393	0.87271	-0.267
Mof_O 	O 	0.23517	0.56823	0.85084	-0.241
Mof_O 	O 	0.58658	0.82269	0.63655	-0.259
Mof_O 	O 	0.69483	0.02866	0.58092	-0.283
Mof_O 	O 	0.559	0.78681	0.53232	-0.253
Mof_O 	O 	0.07791	0.53631	0.68236	-0.263
Mof_O 	O 	0.10592	0.51898	0.78479	-0.26
Mof_O 	O 	0.96721	0.63529	0.74022	-0.264
Mof_C 	C 	0.44505	0.72697	0.69696	0.276
Mof_C 	C 	0.50675	0.75572	0.68793	0.003
Mof_C 	C 	0.55577	0.76573	0.70078	-0.1
Mof_H 	H 	0.54987	0.75223	0.71543	0.06
Mof_C 	C 	0.61377	0.79583	0.6919	0.048
Mof_H 	H 	0.64727	0.80353	0.70073	0.013
Mof_C 	C 	0.62267	0.81403	0.67091	-0.185
Mof_H 	H 	0.66217	0.83493	0.66513	0.1
Mof_C 	C 	0.57297	0.80193	0.65764	0.203
Mof_C 	C 	0.5163	0.77433	0.66646	-0.169
Mof_H 	H 	0.48327	0.76803	0.65773	0.103
Mof_C 	C 	0.53627	0.81323	0.62277	0.11
Mof_H 	H 	0.50817	0.76983	0.62063	0.007
Mof_H 	H 	0.51417	0.83143	0.62943	0.003
Mof_C 	C 	0.56378	0.84327	0.6012	-0.229
Mof_C 	C 	0.57107	0.81083	0.58492	0.294
Mof_C 	C 	0.59808	0.83963	0.56528	-0.224
Mof_C 	C 	0.61597	0.90033	0.56231	0.28
Mof_C 	C 	0.60845	0.93223	0.5791	-0.239
Mof_C 	C 	0.58416	0.90553	0.59924	0.297
Mof_C 	C 	0.58037	0.94123	0.61775	-0.676
Mof_H 	H 	0.54407	0.94433	0.61623	0.229
Mof_H 	H 	0.57867	0.92123	0.63143	0.232
Mof_H 	H 	0.61577	0.98143	0.61763	0.231
Mof_C 	C 	0.54957	0.74463	0.58794	-0.667
Mof_H 	H 	0.50957	0.72073	0.58153	0.239
Mof_H 	H 	0.57767	0.73483	0.58073	0.232
Mof_H 	H 	0.54777	0.73563	0.60343	0.232
Mof_C 	C 	0.64197	0.93093	0.54035	-0.634
Mof_H 	H 	0.60937	0.92663	0.53093	0.22
Mof_H 	H 	0.67047	0.97363	0.54273	0.218
Mof_H 	H 	0.66257	0.91203	0.53343	0.222
Mof_C 	C 	0.63247	0.99983	0.57622	0.168
Mof_H 	H 	0.61207	0.01373	0.58633	-0.024
Mof_H 	H 	0.62587	0.00873	0.56113	-0.025
Mof_C 	C 	0.72547	0.08933	0.57909	0.214
Mof_C 	C 	0.78727	0.11773	0.58429	-0.184
Mof_H 	H 	0.80507	0.09423	0.58803	0.09
Mof_C 	C 	0.82147	0.17933	0.58395	0.061
Mof_H 	H 	0.86257	0.19813	0.58783	0.005
Mof_C 	C 	0.79687	0.21443	0.57798	-0.094
Mof_H 	H 	0.82087	0.25693	0.57813	0.081
Mof_C 	C 	0.73658	0.18693	0.57179	0.015
Mof_C 	C 	0.70121	0.12402	0.57242	-0.162
Mof_H 	H 	0.66017	0.10513	0.56823	0.096
Mof_C 	C 	0.60797	0.80603	0.54698	0.133
Mof_H 	H 	0.60957	0.77103	0.55283	-0.005
Mof_H 	H 	0.64627	0.83263	0.53943	-0.002
Mof_C 	C 	0.56187	0.75883	0.51369	0.232
Mof_C 	C 	0.60797	0.74873	0.50862	-0.222
Mof_H 	H 	0.64157	0.76263	0.51803	0.111
Mof_C 	C 	0.60527	0.71833	0.48982	0.091
Mof_H 	H 	0.63827	0.71343	0.48593	-0.012
Mof_C 	C 	0.55527	0.69503	0.47662	-0.126
Mof_H 	H 	0.55307	0.67253	0.46403	0.085
Mof_C 	C 	0.50877	0.70463	0.48175	0.041
Mof_C 	C 	0.51157	0.73763	0.49986	-0.173
Mof_H 	H 	0.48037	0.74603	0.50293	0.117
Mof_C 	C 	0.45237	0.67623	0.46845	0.256
Mof_C 	C 	0.22215	0.60193	0.62217	0.256
Mof_C 	C 	0.16047	0.56113	0.63095	0.013
Mof_C 	C 	0.15027	0.56909	0.65277	-0.171
Mof_H 	H 	0.18117	0.59913	0.66143	0.105
Mof_C 	C 	0.09287	0.53123	0.66144	0.208
Mof_C 	C 	0.04657	0.48903	0.6485	-0.189
Mof_H 	H 	0.00747	0.46493	0.65433	0.102
Mof_C 	C 	0.05877	0.48263	0.62679	0.048
Mof_H 	H 	0.02747	0.45353	0.61793	0.015
Mof_C 	C 	0.11577	0.51803	0.61791	-0.107
Mof_H 	H 	0.12367	0.51273	0.60323	0.07
Mof_C 	C 	0.12487	0.58293	0.69553	0.107
Mof_H 	H 	0.15827	0.57483	0.69753	0.007
Mof_H 	H 	0.14057	0.62253	0.68843	0.003
Mof_C 	C 	0.09675	0.58205	0.71697	-0.206
Mof_C 	C 	0.09229	0.53993	0.73326	0.262
Mof_C 	C 	0.06517	0.53823	0.75332	-0.214
Mof_C 	C 	0.04547	0.57933	0.75787	0.265
Mof_C 	C 	0.05067	0.62063	0.74199	-0.222
Mof_C 	C 	0.07322	0.61998	0.7213	0.261
Mof_C 	C 	0.07237	0.65923	0.70301	-0.626
Mof_H 	H 	0.10767	0.69943	0.70423	0.213
Mof_H 	H 	0.07317	0.64153	0.68903	0.214
Mof_H 	H 	0.03597	0.66213	0.70403	0.218
Mof_C 	C 	0.11677	0.49893	0.7281	-0.644
Mof_H 	H 	0.09007	0.45903	0.73413	0.221
Mof_H 	H 	0.11927	0.49583	0.71233	0.224
Mof_H 	H 	0.15687	0.51523	0.73443	0.222
Mof_C 	C 	0.02307	0.58193	0.78038	-0.634
Mof_H 	H 	0.98927	0.58923	0.77923	0.215
Mof_H 	H 	0.00997	0.54373	0.78783	0.224
Mof_H 	H 	0.05557	0.61453	0.78863	0.212
Mof_C 	C 	0.05597	0.49123	0.76987	0.116
Mof_H 	H 	0.05497	0.45633	0.76263	0
Mof_H 	H 	0.01777	0.47733	0.77773	0.004
Mof_C 	C 	0.10147	0.48583	0.80303	0.216
Mof_C 	C 	0.14577	0.51543	0.81838	-0.174
Mof_H 	H 	0.17737	0.55523	0.81583	0.111
Mof_C 	C 	0.14307	0.48513	0.83799	0.031
Mof_C 	C 	0.10037	0.42813	0.84111	-0.124
Mof_H 	H 	0.10137	0.40753	0.85373	0.085
Mof_C 	C 	0.05587	0.39963	0.82657	0.077
Mof_H 	H 	0.02267	0.36133	0.83003	-0.005
Mof_C 	C 	0.05777	0.42583	0.80623	-0.201
Mof_H 	H 	0.03027	0.40333	0.79503	0.102
Mof_C 	C 	0.19027	0.51813	0.85474	0.264
Mof_C 	C 	0.02967	0.66443	0.74671	0.123
Mof_H 	H 	0.05357	0.70193	0.73833	-0.006
Mof_H 	H 	0.03367	0.67433	0.76233	-0.01
Mof_C 	C 	0.94017	0.66993	0.74103	0.216
Mof_C 	C 	0.9635	0.72436	0.75189	-0.168
Mof_H 	H 	7e-05	0.74013	0.75973	0.097
Mof_C 	C 	0.93157	0.75563	0.75106	0.026
Mof_C 	C 	0.87797	0.73163	0.73975	-0.105
Mof_H 	H 	0.85707	0.75333	0.73883	0.078
Mof_C 	C 	0.85477	0.67703	0.7299	0.072
Mof_H 	H 	0.81697	0.66013	0.72283	0.006
Mof_C 	C 	0.88607	0.64613	0.73016	-0.197
Mof_H 	H 	0.87047	0.60873	0.72283	0.106
Mof_C 	C 	0.95787	0.81553	0.76187	0.259
Mof_C 	C 	0.70837	0.22323	0.56564	0.291
Mof_O 	O 	0.31647	0.66283	0.75213	-0.109
Mof_C 	C 	0.32067	0.70823	0.76083	0.132
Mof_H 	H 	0.35907	0.74023	0.76493	0.001
Mof_N 	N 	0.26647	0.71313	0.76475	-0.052
Mof_C 	C 	0.20697	0.65933	0.76433	-0.305
Mof_H 	H 	0.20647	0.62913	0.77423	0.13
Mof_H 	H 	0.17687	0.66963	0.76913	0.122
Mof_H 	H 	0.19767	0.64313	0.74963	0.131
Mof_C 	C 	0.27347	0.77203	0.76883	-0.301
Mof_H 	H 	0.24167	0.76793	0.77873	0.119
Mof_H 	H 	0.31267	0.79813	0.77553	0.126
Mof_H 	H 	0.27067	0.78973	0.75513	0.114
Mof_Cd	Cd	0.68523	0.26264	0.11022	0.485
Mof_Cd	Cd	0.63391	0.23482	0.05494	0.491
Mof_O 	O 	0.07143	0.06142	0.01884	-0.289
Mof_O 	O 	0.10055	0.03792	0.04878	-0.287
Mof_O 	O 	0.08396	0.03197	0.80267	-0.257
Mof_O 	O 	0.10817	0.96448	0.79069	-0.258
Mof_O 	O 	0.33085	0.53252	0.88636	-0.272
Mof_O 	O 	0.39563	0.60838	0.9067	-0.291
Mof_O 	O 	0.92577	0.97963	0.96693	-0.277
Mof_O 	O 	0.90221	0.92576	0.93649	-0.275
Mof_O 	O 	0.66326	0.16278	0.10948	-0.264
Mof_O 	O 	0.60793	0.18604	0.0887	-0.275
Mof_O 	O 	0.85093	0.82727	0.20605	-0.267
Mof_O 	O 	0.90183	0.90157	0.18418	-0.24
Mof_O 	O 	0.25324	0.15603	0.96989	-0.259
Mof_O 	O 	0.36149	0.362	0.91426	-0.27
Mof_O 	O 	0.22566	0.12015	0.86566	-0.254
Mof_O 	O 	0.74457	0.86965	0.0157	-0.263
Mof_O 	O 	0.77258	0.85232	0.11813	-0.26
Mof_O 	O 	0.63387	0.96863	0.07356	-0.258
Mof_C 	C 	0.11171	0.06031	0.0303	0.275
Mof_C 	C 	0.17341	0.08906	0.02127	0.002
Mof_C 	C 	0.22243	0.09907	0.03412	-0.1
Mof_H 	H 	0.21653	0.08557	0.04877	0.06
Mof_C 	C 	0.28043	0.12917	0.02524	0.047
Mof_H 	H 	0.31393	0.13687	0.03407	0.013
Mof_C 	C 	0.28933	0.14737	0.00425	-0.185
Mof_H 	H 	0.32883	0.16827	0.99847	0.1
Mof_C 	C 	0.23963	0.13527	0.99098	0.202
Mof_C 	C 	0.18296	0.10767	0.9998	-0.169
Mof_H 	H 	0.14993	0.10137	0.99107	0.103
Mof_C 	C 	0.20293	0.14657	0.95611	0.108
Mof_H 	H 	0.17483	0.10317	0.95397	0.006
Mof_H 	H 	0.18083	0.16477	0.96277	0.004
Mof_C 	C 	0.23044	0.17661	0.93454	-0.225
Mof_C 	C 	0.23773	0.14417	0.91826	0.289
Mof_C 	C 	0.26474	0.17297	0.89862	-0.219
Mof_C 	C 	0.28263	0.23367	0.89565	0.271
Mof_C 	C 	0.27511	0.26557	0.91244	-0.226
Mof_C 	C 	0.25082	0.23887	0.93258	0.288
Mof_C 	C 	0.24703	0.27457	0.95109	-0.666
Mof_H 	H 	0.21073	0.27767	0.94957	0.224
Mof_H 	H 	0.24533	0.25457	0.96477	0.229
Mof_H 	H 	0.28243	0.31477	0.95097	0.226
Mof_C 	C 	0.21623	0.07797	0.92128	-0.66
Mof_H 	H 	0.17623	0.05407	0.91487	0.235
Mof_H 	H 	0.24433	0.06817	0.91407	0.228
Mof_H 	H 	0.21443	0.06897	0.93677	0.229
Mof_C 	C 	0.30863	0.26427	0.87369	-0.625
Mof_H 	H 	0.27603	0.25997	0.86427	0.216
Mof_H 	H 	0.33713	0.30697	0.87607	0.213
Mof_H 	H 	0.32923	0.24537	0.86677	0.219
Mof_C 	C 	0.29913	0.33317	0.90956	0.13
Mof_H 	H 	0.27873	0.34707	0.91967	-0.009
Mof_H 	H 	0.29253	0.34207	0.89447	-0.01
Mof_C 	C 	0.39213	0.42267	0.91243	0.21
Mof_C 	C 	0.45393	0.45107	0.91763	-0.18
Mof_H 	H 	0.47173	0.42757	0.92137	0.09
Mof_C 	C 	0.48813	0.51267	0.91729	0.059
Mof_H 	H 	0.52923	0.53147	0.92117	0.006
Mof_C 	C 	0.46353	0.54777	0.91132	-0.092
Mof_H 	H 	0.48753	0.59027	0.91147	0.08
Mof_C 	C 	0.40324	0.52027	0.90513	0.013
Mof_C 	C 	0.36787	0.45736	0.90576	-0.158
Mof_H 	H 	0.32683	0.43847	0.90157	0.094
Mof_C 	C 	0.27463	0.13937	0.88032	0.131
Mof_H 	H 	0.27623	0.10437	0.88617	-0.005
Mof_H 	H 	0.31293	0.16597	0.87277	-0.001
Mof_C 	C 	0.22853	0.09217	0.84703	0.232
Mof_C 	C 	0.27463	0.08207	0.84196	-0.223
Mof_H 	H 	0.30823	0.09597	0.85137	0.112
Mof_C 	C 	0.27193	0.05167	0.82316	0.092
Mof_H 	H 	0.30493	0.04677	0.81927	-0.014
Mof_C 	C 	0.22193	0.02837	0.80996	-0.129
Mof_H 	H 	0.21973	0.00587	0.79737	0.083
Mof_C 	C 	0.17543	0.03797	0.81509	0.043
Mof_C 	C 	0.17823	0.07097	0.8332	-0.175
Mof_H 	H 	0.14703	0.07937	0.83627	0.117
Mof_C 	C 	0.11903	0.00957	0.80179	0.247
Mof_C 	C 	0.88881	0.93527	0.95551	0.255
Mof_C 	C 	0.82713	0.89447	0.96429	0.015
Mof_C 	C 	0.81693	0.90243	0.98611	-0.172
Mof_H 	H 	0.84783	0.93247	0.99477	0.106
Mof_C 	C 	0.75953	0.86457	0.99478	0.209
Mof_C 	C 	0.71323	0.82237	0.98184	-0.189
Mof_H 	H 	0.67413	0.79827	0.98767	0.103
Mof_C 	C 	0.72543	0.81597	0.96013	0.049
Mof_H 	H 	0.69413	0.78687	0.95127	0.015
Mof_C 	C 	0.78243	0.85137	0.95125	-0.107
Mof_H 	H 	0.79033	0.84607	0.93657	0.071
Mof_C 	C 	0.79153	0.91627	0.02887	0.106
Mof_H 	H 	0.82493	0.90817	0.03087	0.008
Mof_H 	H 	0.80723	0.95587	0.02177	0.005
Mof_C 	C 	0.76341	0.91539	0.05031	-0.204
Mof_C 	C 	0.75895	0.87327	0.0666	0.262
Mof_C 	C 	0.73183	0.87157	0.08666	-0.214
Mof_C 	C 	0.71213	0.91267	0.09121	0.268
Mof_C 	C 	0.71733	0.95397	0.07533	-0.226
Mof_C 	C 	0.73988	0.95332	0.05464	0.26
Mof_C 	C 	0.73903	0.99257	0.03635	-0.608
Mof_H 	H 	0.77433	0.03277	0.03757	0.204
Mof_H 	H 	0.73983	0.97487	0.02237	0.21
Mof_H 	H 	0.70263	0.99547	0.03737	0.215
Mof_C 	C 	0.78343	0.83227	0.06144	-0.644
Mof_H 	H 	0.75673	0.79237	0.06747	0.221
Mof_H 	H 	0.78593	0.82917	0.04567	0.225
Mof_H 	H 	0.82353	0.84857	0.06777	0.222
Mof_C 	C 	0.68973	0.91527	0.11372	-0.635
Mof_H 	H 	0.65593	0.92257	0.11257	0.215
Mof_H 	H 	0.67663	0.87707	0.12117	0.225
Mof_H 	H 	0.72223	0.94787	0.12197	0.214
Mof_C 	C 	0.72263	0.82457	0.10321	0.116
Mof_H 	H 	0.72163	0.78967	0.09597	0.001
Mof_H 	H 	0.68443	0.81067	0.11107	0.004
Mof_C 	C 	0.76813	0.81917	0.13637	0.217
Mof_C 	C 	0.81243	0.84877	0.15172	-0.174
Mof_H 	H 	0.84403	0.88857	0.14917	0.112
Mof_C 	C 	0.80973	0.81847	0.17133	0.032
Mof_C 	C 	0.76703	0.76147	0.17445	-0.124
Mof_H 	H 	0.76803	0.74087	0.18707	0.085
Mof_C 	C 	0.72253	0.73297	0.15991	0.078
Mof_H 	H 	0.68933	0.69467	0.16337	-0.004
Mof_C 	C 	0.72443	0.75917	0.13957	-0.201
Mof_H 	H 	0.69693	0.73667	0.12837	0.103
Mof_C 	C 	0.85693	0.85147	0.18808	0.263
Mof_C 	C 	0.69633	0.99777	0.08005	0.145
Mof_H 	H 	0.72023	0.03527	0.07167	-0.015
Mof_H 	H 	0.70033	0.00767	0.09567	-0.02
Mof_C 	C 	0.60683	0.00327	0.07437	0.186
Mof_C 	C 	0.63016	0.0577	0.08523	-0.149
Mof_H 	H 	0.66673	0.07347	0.09307	0.091
Mof_C 	C 	0.59823	0.08897	0.0844	0.007
Mof_C 	C 	0.54463	0.06497	0.07309	-0.074
Mof_H 	H 	0.52373	0.08667	0.07217	0.068
Mof_C 	C 	0.52143	0.01037	0.06324	0.022
Mof_H 	H 	0.48363	0.99347	0.05617	0.028
Mof_C 	C 	0.55273	0.97947	0.0635	-0.15
Mof_H 	H 	0.53713	0.94207	0.05617	0.091
Mof_C 	C 	0.62453	0.14887	0.09521	0.265
Mof_C 	C 	0.37503	0.55657	0.89898	0.292
Mof_O 	O 	0.98313	0.99617	0.08547	-0.053
Mof_C 	C 	0.98733	0.04157	0.09417	0.155
Mof_H 	H 	0.02573	0.07357	0.09827	-0
Mof_N 	N 	0.93313	0.04647	0.09809	-0.063
Mof_C 	C 	0.87363	0.99267	0.09767	-0.276
Mof_H 	H 	0.87313	0.96247	0.10757	0.121
Mof_H 	H 	0.84353	0.00297	0.10247	0.109
Mof_H 	H 	0.86433	0.97647	0.08297	0.123
Mof_C 	C 	0.94013	0.10537	0.10217	-0.296
Mof_H 	H 	0.90833	0.10127	0.11207	0.117
Mof_H 	H 	0.97933	0.13147	0.10887	0.124
Mof_H 	H 	0.93733	0.12307	0.08847	0.112
Mof_Cd	Cd	0.24407	0.6481	0.44355	0.485
Mof_Cd	Cd	0.26759	0.69943	0.38828	0.49
Mof_O 	O 	0.65665	0.2619	0.35217	-0.289
Mof_O 	O 	0.60403	0.23278	0.38211	-0.286
Mof_O 	O 	0.61467	0.24937	0.136	-0.257
Mof_O 	O 	0.52297	0.22516	0.12402	-0.265
Mof_O 	O 	0.86833	0.00248	0.21969	-0.279
Mof_O 	O 	0.87941	0.9377	0.24003	-0.292
Mof_O 	O 	0.72052	0.40756	0.30026	-0.282
Mof_O 	O 	0.69021	0.43112	0.26982	-0.278
Mof_O 	O 	0.16618	0.67007	0.44281	-0.261
Mof_O 	O 	0.24477	0.7254	0.42203	-0.274
Mof_O 	O 	0.643	0.4824	0.53938	-0.267
Mof_O 	O 	0.6664	0.4315	0.51751	-0.241
Mof_O 	O 	0.56945	0.08009	0.30322	-0.26
Mof_O 	O 	0.66717	0.97184	0.24759	-0.263
Mof_O 	O 	0.56115	0.10767	0.19899	-0.254
Mof_O 	O 	0.79174	0.58876	0.34903	-0.263
Mof_O 	O 	0.7464	0.56075	0.45146	-0.26
Mof_O 	O 	0.00142	0.69946	0.40689	-0.266
Mof_C 	C 	0.61526	0.22162	0.36363	0.276
Mof_C 	C 	0.58231	0.15992	0.3546	0.002
Mof_C 	C 	0.5433	0.1109	0.36745	-0.1
Mof_H 	H 	0.5357	0.1168	0.3821	0.06
Mof_C 	C 	0.5154	0.0529	0.35857	0.047
Mof_H 	H 	0.4896	0.0194	0.3674	0.012
Mof_C 	C 	0.5247	0.044	0.33758	-0.185
Mof_H 	H 	0.5061	0.0045	0.3318	0.098
Mof_C 	C 	0.5623	0.0937	0.32431	0.203
Mof_C 	C 	0.59137	0.15037	0.33313	-0.169
Mof_H 	H 	0.6181	0.1834	0.3244	0.103
Mof_C 	C 	0.6103	0.1304	0.28944	0.108
Mof_H 	H 	0.595	0.1585	0.2873	0.007
Mof_H 	H 	0.6506	0.1525	0.2961	0.004
Mof_C 	C 	0.61283	0.10289	0.26787	-0.226
Mof_C 	C 	0.5731	0.0956	0.25159	0.291
Mof_C 	C 	0.57489	0.06859	0.23195	-0.223
Mof_C 	C 	0.6177	0.0507	0.22898	0.276
Mof_C 	C 	0.65712	0.05822	0.24577	-0.228
Mof_C 	C 	0.65471	0.08251	0.26591	0.287
Mof_C 	C 	0.6942	0.0863	0.28442	-0.665
Mof_H 	H 	0.7336	0.1226	0.2829	0.224
Mof_H 	H 	0.6759	0.088	0.2981	0.228
Mof_H 	H 	0.699	0.0509	0.2843	0.224
Mof_C 	C 	0.5284	0.1171	0.25461	-0.664
Mof_H 	H 	0.5445	0.1571	0.2482	0.238
Mof_H 	H 	0.4905	0.089	0.2474	0.23
Mof_H 	H 	0.5212	0.1189	0.2701	0.231
Mof_C 	C 	0.6223	0.0247	0.20702	-0.647
Mof_H 	H 	0.6506	0.0573	0.1976	0.221
Mof_H 	H 	0.6365	0.9962	0.2094	0.224
Mof_H 	H 	0.5828	0.0041	0.2001	0.223
Mof_C 	C 	0.7007	0.0342	0.24289	0.123
Mof_H 	H 	0.735	0.0546	0.253	-0.008
Mof_H 	H 	0.7162	0.0408	0.2278	-0.009
Mof_C 	C 	0.6972	0.9412	0.24576	0.201
Mof_C 	C 	0.6638	0.8794	0.25096	-0.173
Mof_H 	H 	0.6225	0.8616	0.2547	0.087
Mof_C 	C 	0.6912	0.8452	0.25062	0.053
Mof_H 	H 	0.6689	0.8041	0.2545	0.008
Mof_C 	C 	0.7509	0.8698	0.24465	-0.085
Mof_H 	H 	0.7694	0.8458	0.2448	0.078
Mof_C 	C 	0.78369	0.93009	0.23846	0.004
Mof_C 	C 	0.75615	0.96546	0.23909	-0.14
Mof_H 	H 	0.7783	0.0065	0.2349	0.085
Mof_C 	C 	0.5314	0.0587	0.21365	0.134
Mof_H 	H 	0.4948	0.0571	0.2195	-0.006
Mof_H 	H 	0.5197	0.0204	0.2061	-0.004
Mof_C 	C 	0.5303	0.1048	0.18036	0.231
Mof_C 	C 	0.4741	0.0587	0.17529	-0.222
Mof_H 	H 	0.4544	0.0251	0.1847	0.11
Mof_C 	C 	0.4464	0.0614	0.15649	0.091
Mof_H 	H 	0.4085	0.0284	0.1526	-0.014
Mof_C 	C 	0.4731	0.1114	0.14329	-0.127
Mof_H 	H 	0.4528	0.1136	0.1307	0.084
Mof_C 	C 	0.5292	0.1579	0.14842	0.041
Mof_C 	C 	0.5594	0.1551	0.16653	-0.173
Mof_H 	H 	0.599	0.1863	0.1696	0.117
Mof_C 	C 	0.5572	0.2143	0.13512	0.256
Mof_C 	C 	0.71312	0.44452	0.28884	0.256
Mof_C 	C 	0.734	0.5062	0.29762	0.013
Mof_C 	C 	0.75216	0.5164	0.31944	-0.171
Mof_H 	H 	0.7513	0.4855	0.3281	0.105
Mof_C 	C 	0.7717	0.5738	0.32811	0.208
Mof_C 	C 	0.7758	0.6201	0.31517	-0.189
Mof_H 	H 	0.7908	0.6592	0.321	0.102
Mof_C 	C 	0.7572	0.6079	0.29346	0.048
Mof_H 	H 	0.7594	0.6392	0.2846	0.016
Mof_C 	C 	0.7356	0.5509	0.28458	-0.107
Mof_H 	H 	0.7224	0.543	0.2699	0.07
Mof_C 	C 	0.7914	0.5418	0.3622	0.107
Mof_H 	H 	0.7499	0.5084	0.3642	0.007
Mof_H 	H 	0.8153	0.5261	0.3551	0.003
Mof_C 	C 	0.81864	0.56992	0.38364	-0.206
Mof_C 	C 	0.78098	0.57438	0.39993	0.262
Mof_C 	C 	0.8064	0.6015	0.41999	-0.213
Mof_C 	C 	0.8672	0.6212	0.42454	0.264
Mof_C 	C 	0.9033	0.616	0.40866	-0.222
Mof_C 	C 	0.8801	0.59345	0.38797	0.262
Mof_C 	C 	0.9202	0.5943	0.36968	-0.627
Mof_H 	H 	0.9251	0.559	0.3709	0.213
Mof_H 	H 	0.9017	0.5935	0.3557	0.214
Mof_H 	H 	0.9595	0.6307	0.3707	0.218
Mof_C 	C 	0.7155	0.5499	0.39477	-0.644
Mof_H 	H 	0.7023	0.5766	0.4008	0.221
Mof_H 	H 	0.7099	0.5474	0.379	0.224
Mof_H 	H 	0.6917	0.5098	0.4011	0.222
Mof_C 	C 	0.8922	0.6436	0.44705	-0.631
Mof_H 	H 	0.9333	0.6774	0.4459	0.213
Mof_H 	H 	0.8671	0.6567	0.4545	0.224
Mof_H 	H 	0.8923	0.6111	0.4553	0.211
Mof_C 	C 	0.7686	0.6107	0.43654	0.116
Mof_H 	H 	0.7347	0.6117	0.4293	0.001
Mof_H 	H 	0.7929	0.6489	0.4444	0.004
Mof_C 	C 	0.7177	0.5652	0.4697	0.216
Mof_C 	C 	0.703	0.5209	0.48505	-0.174
Mof_H 	H 	0.7112	0.4893	0.4825	0.111
Mof_C 	C 	0.6754	0.5236	0.50466	0.031
Mof_C 	C 	0.6611	0.5663	0.50778	-0.124
Mof_H 	H 	0.6395	0.5653	0.5204	0.085
Mof_C 	C 	0.6771	0.6108	0.49324	0.077
Mof_H 	H 	0.672	0.644	0.4967	-0.004
Mof_C 	C 	0.7014	0.6089	0.4729	-0.201
Mof_H 	H 	0.7064	0.6364	0.4617	0.103
Mof_C 	C 	0.6612	0.4764	0.52141	0.264
Mof_C 	C 	0.9681	0.637	0.41338	0.125
Mof_H 	H 	0.9817	0.6131	0.405	-0.006
Mof_H 	H 	0.974	0.633	0.429	-0.01
Mof_C 	C 	0.0631	0.7265	0.4077	0.217
Mof_C 	C 	0.0942	0.70317	0.41856	-0.171
Mof_H 	H 	0.0734	0.6666	0.4264	0.098
Mof_C 	C 	0.1574	0.7351	0.41773	0.027
Mof_C 	C 	0.187	0.7887	0.40642	-0.105
Mof_H 	H 	0.2296	0.8096	0.4055	0.079
Mof_C 	C 	0.1556	0.8119	0.39657	0.073
Mof_H 	H 	0.1765	0.8497	0.3895	0.007
Mof_C 	C 	0.0934	0.7806	0.39683	-0.197
Mof_H 	H 	0.0716	0.7962	0.3895	0.106
Mof_C 	C 	0.191	0.7088	0.42854	0.258
Mof_C 	C 	0.8482	0.9583	0.23231	0.302
Mof_O 	O 	0.6797	0.3502	0.4188	-0.109
Mof_C 	C 	0.7209	0.346	0.4275	0.132
Mof_H 	H 	0.7145	0.3076	0.4316	0.001
Mof_N 	N 	0.78	0.4002	0.43142	-0.052
Mof_C 	C 	0.7857	0.4597	0.431	-0.305
Mof_H 	H 	0.756	0.4602	0.4409	0.13
Mof_H 	H 	0.8261	0.4898	0.4358	0.122
Mof_H 	H 	0.7788	0.469	0.4163	0.131
Mof_C 	C 	0.8319	0.3932	0.4355	-0.301
Mof_H 	H 	0.8596	0.425	0.4454	0.119
Mof_H 	H 	0.8188	0.354	0.4422	0.126
Mof_H 	H 	0.8524	0.396	0.4218	0.114
Mof_Cd	Cd	0.91074	0.98144	0.77689	0.492
Mof_Cd	Cd	0.93425	0.03276	0.72161	0.488
Mof_O 	O 	0.32332	0.59523	0.6855	-0.289
Mof_O 	O 	0.2707	0.56611	0.71544	-0.286
Mof_O 	O 	0.28134	0.5827	0.46933	-0.257
Mof_O 	O 	0.18964	0.55849	0.45735	-0.265
Mof_O 	O 	0.535	0.33581	0.55302	-0.272
Mof_O 	O 	0.54608	0.27103	0.57336	-0.291
Mof_O 	O 	0.38719	0.74089	0.63359	-0.282
Mof_O 	O 	0.35688	0.76445	0.60315	-0.278
Mof_O 	O 	0.83285	0.0034	0.77614	-0.264
Mof_O 	O 	0.91144	0.05873	0.75536	-0.274
Mof_O 	O 	0.30967	0.81573	0.87271	-0.267
Mof_O 	O 	0.33307	0.76483	0.85084	-0.241
Mof_O 	O 	0.23612	0.41342	0.63655	-0.258
Mof_O 	O 	0.33384	0.30517	0.58092	-0.27
Mof_O 	O 	0.22782	0.441	0.53232	-0.253
Mof_O 	O 	0.45841	0.92209	0.68236	-0.262
Mof_O 	O 	0.41307	0.89408	0.78479	-0.26
Mof_O 	O 	0.66809	0.03279	0.74022	-0.272
Mof_C 	C 	0.28193	0.55495	0.69696	0.276
Mof_C 	C 	0.24898	0.49325	0.68793	0.002
Mof_C 	C 	0.20997	0.44423	0.70078	-0.1
Mof_H 	H 	0.20237	0.45013	0.71543	0.06
Mof_C 	C 	0.18207	0.38623	0.6919	0.047
Mof_H 	H 	0.15627	0.35273	0.70073	0.013
Mof_C 	C 	0.19137	0.37733	0.67091	-0.185
Mof_H 	H 	0.17277	0.33783	0.66513	0.1
Mof_C 	C 	0.22897	0.42703	0.65764	0.203
Mof_C 	C 	0.25804	0.4837	0.66646	-0.169
Mof_H 	H 	0.28477	0.51673	0.65773	0.103
Mof_C 	C 	0.27697	0.46373	0.62277	0.108
Mof_H 	H 	0.26167	0.49183	0.62063	0.007
Mof_H 	H 	0.31727	0.48583	0.62943	0.004
Mof_C 	C 	0.2795	0.43622	0.6012	-0.225
Mof_C 	C 	0.23977	0.42893	0.58492	0.291
Mof_C 	C 	0.24156	0.40192	0.56528	-0.219
Mof_C 	C 	0.28437	0.38403	0.56231	0.272
Mof_C 	C 	0.32379	0.39155	0.5791	-0.226
Mof_C 	C 	0.32138	0.41584	0.59924	0.288
Mof_C 	C 	0.36087	0.41963	0.61775	-0.666
Mof_H 	H 	0.40027	0.45593	0.61623	0.224
Mof_H 	H 	0.34257	0.42133	0.63143	0.229
Mof_H 	H 	0.36567	0.38423	0.61763	0.226
Mof_C 	C 	0.19507	0.45043	0.58794	-0.664
Mof_H 	H 	0.21117	0.49043	0.58153	0.238
Mof_H 	H 	0.15717	0.42233	0.58073	0.231
Mof_H 	H 	0.18787	0.45223	0.60343	0.231
Mof_C 	C 	0.28897	0.35803	0.54035	-0.626
Mof_H 	H 	0.31727	0.39063	0.53093	0.216
Mof_H 	H 	0.30317	0.32953	0.54273	0.213
Mof_H 	H 	0.24947	0.33743	0.53343	0.219
Mof_C 	C 	0.36737	0.36753	0.57622	0.13
Mof_H 	H 	0.40167	0.38793	0.58633	-0.009
Mof_H 	H 	0.38287	0.37413	0.56113	-0.01
Mof_C 	C 	0.36387	0.27453	0.57909	0.21
Mof_C 	C 	0.33047	0.21273	0.58429	-0.18
Mof_H 	H 	0.28917	0.19493	0.58803	0.09
Mof_C 	C 	0.35787	0.17853	0.58395	0.059
Mof_H 	H 	0.33557	0.13743	0.58783	0.006
Mof_C 	C 	0.41757	0.20313	0.57798	-0.092
Mof_H 	H 	0.43607	0.17913	0.57813	0.08
Mof_C 	C 	0.45036	0.26342	0.57179	0.013
Mof_C 	C 	0.42282	0.29879	0.57242	-0.158
Mof_H 	H 	0.44497	0.33983	0.56823	0.094
Mof_C 	C 	0.19807	0.39203	0.54698	0.131
Mof_H 	H 	0.16147	0.39043	0.55283	-0.004
Mof_H 	H 	0.18637	0.35373	0.53943	-0.001
Mof_C 	C 	0.19697	0.43813	0.51369	0.232
Mof_C 	C 	0.14077	0.39203	0.50862	-0.222
Mof_H 	H 	0.12107	0.35843	0.51803	0.111
Mof_C 	C 	0.11307	0.39473	0.48982	0.091
Mof_H 	H 	0.07517	0.36173	0.48593	-0.012
Mof_C 	C 	0.13977	0.44473	0.47662	-0.126
Mof_H 	H 	0.11947	0.44693	0.46403	0.085
Mof_C 	C 	0.19587	0.49123	0.48175	0.041
Mof_C 	C 	0.22607	0.48843	0.49986	-0.173
Mof_H 	H 	0.26567	0.51963	0.50293	0.117
Mof_C 	C 	0.22387	0.54763	0.46845	0.256
Mof_C 	C 	0.37979	0.77785	0.62217	0.256
Mof_C 	C 	0.40067	0.83953	0.63095	0.013
Mof_C 	C 	0.41883	0.84973	0.65277	-0.171
Mof_H 	H 	0.41797	0.81883	0.66143	0.105
Mof_C 	C 	0.43837	0.90713	0.66144	0.208
Mof_C 	C 	0.44247	0.95343	0.6485	-0.188
Mof_H 	H 	0.45747	0.99253	0.65433	0.105
Mof_C 	C 	0.42387	0.94123	0.62679	0.048
Mof_H 	H 	0.42607	0.97253	0.61793	0.018
Mof_C 	C 	0.40227	0.88423	0.61791	-0.106
Mof_H 	H 	0.38907	0.87633	0.60323	0.071
Mof_C 	C 	0.45807	0.87513	0.69553	0.107
Mof_H 	H 	0.41657	0.84173	0.69753	0.007
Mof_H 	H 	0.48197	0.85943	0.68843	0.003
Mof_C 	C 	0.48531	0.90325	0.71697	-0.205
Mof_C 	C 	0.44765	0.90771	0.73326	0.261
Mof_C 	C 	0.47307	0.93483	0.75332	-0.21
Mof_C 	C 	0.53387	0.95453	0.75787	0.259
Mof_C 	C 	0.56997	0.94933	0.74199	-0.22
Mof_C 	C 	0.54677	0.92678	0.7213	0.262
Mof_C 	C 	0.58687	0.92763	0.70301	-0.629
Mof_H 	H 	0.59177	0.89233	0.70423	0.214
Mof_H 	H 	0.56837	0.92683	0.68903	0.216
Mof_H 	H 	0.62617	0.96403	0.70403	0.221
Mof_C 	C 	0.38217	0.88323	0.7281	-0.643
Mof_H 	H 	0.36897	0.90993	0.73413	0.221
Mof_H 	H 	0.37657	0.88073	0.71233	0.225
Mof_H 	H 	0.35837	0.84313	0.73443	0.222
Mof_C 	C 	0.55887	0.97693	0.78038	-0.608
Mof_H 	H 	0.59997	0.01073	0.77923	0.203
Mof_H 	H 	0.53377	0.99003	0.78783	0.219
Mof_H 	H 	0.55897	0.94443	0.78863	0.206
Mof_C 	C 	0.43527	0.94403	0.76987	0.113
Mof_H 	H 	0.40137	0.94503	0.76263	0.002
Mof_H 	H 	0.45957	0.98223	0.77773	0.007
Mof_C 	C 	0.38437	0.89853	0.80303	0.217
Mof_C 	C 	0.36967	0.85423	0.81838	-0.173
Mof_H 	H 	0.37787	0.82263	0.81583	0.111
Mof_C 	C 	0.34207	0.85693	0.83799	0.032
Mof_C 	C 	0.32777	0.89963	0.84111	-0.123
Mof_H 	H 	0.30617	0.89863	0.85373	0.085
Mof_C 	C 	0.34377	0.94413	0.82657	0.078
Mof_H 	H 	0.33867	0.97733	0.83003	-0.002
Mof_C 	C 	0.36807	0.94223	0.80623	-0.2
Mof_H 	H 	0.37307	0.96973	0.79503	0.104
Mof_C 	C 	0.32787	0.80973	0.85474	0.264
Mof_C 	C 	0.63477	0.97033	0.74671	0.131
Mof_H 	H 	0.64837	0.94643	0.73833	-0.007
Mof_H 	H 	0.64067	0.96633	0.76233	-0.01
Mof_C 	C 	0.72977	0.05983	0.74103	0.225
Mof_C 	C 	0.76087	0.0365	0.75189	-0.187
Mof_H 	H 	0.74007	0.99993	0.75973	0.108
Mof_C 	C 	0.82407	0.06843	0.75106	0.034
Mof_C 	C 	0.85367	0.12203	0.73975	-0.112
Mof_H 	H 	0.89627	0.14293	0.73883	0.081
Mof_C 	C 	0.82227	0.14523	0.7299	0.079
Mof_H 	H 	0.84317	0.18303	0.72283	0.004
Mof_C 	C 	0.76007	0.11393	0.73016	-0.204
Mof_H 	H 	0.73827	0.12953	0.72283	0.108
Mof_C 	C 	0.85767	0.04213	0.76187	0.255
Mof_C 	C 	0.51487	0.29163	0.56564	0.292
Mof_O 	O 	0.34637	0.68353	0.75213	-0.109
Mof_C 	C 	0.38757	0.67933	0.76083	0.132
Mof_H 	H 	0.38117	0.64093	0.76493	0.001
Mof_N 	N 	0.44667	0.73353	0.76475	-0.052
Mof_C 	C 	0.45237	0.79303	0.76433	-0.305
Mof_H 	H 	0.42267	0.79353	0.77423	0.13
Mof_H 	H 	0.49277	0.82313	0.76913	0.122
Mof_H 	H 	0.44547	0.80233	0.74963	0.131
Mof_C 	C 	0.49857	0.72653	0.76883	-0.301
Mof_H 	H 	0.52627	0.75833	0.77873	0.119
Mof_H 	H 	0.48547	0.68733	0.77553	0.126
Mof_H 	H 	0.51907	0.72933	0.75513	0.114
Mof_Cd	Cd	0.57741	0.31477	0.11022	0.485
Mof_Cd	Cd	0.60092	0.36609	0.05494	0.49
Mof_O 	O 	0.98998	0.92857	0.01884	-0.285
Mof_O 	O 	0.93736	0.89945	0.04878	-0.284
Mof_O 	O 	0.948	0.91604	0.80267	-0.255
Mof_O 	O 	0.8563	0.89183	0.79069	-0.264
Mof_O 	O 	0.20166	0.66915	0.88636	-0.272
Mof_O 	O 	0.21274	0.60437	0.9067	-0.291
Mof_O 	O 	0.05385	0.07423	0.96693	-0.283
Mof_O 	O 	0.02354	0.09779	0.93649	-0.278
Mof_O 	O 	0.49951	0.33674	0.10948	-0.261
Mof_O 	O 	0.5781	0.39207	0.0887	-0.274
Mof_O 	O 	0.97633	0.14907	0.20605	-0.268
Mof_O 	O 	0.99973	0.09817	0.18418	-0.242
Mof_O 	O 	0.90278	0.74676	0.96989	-0.258
Mof_O 	O 	0.0005	0.63851	0.91426	-0.27
Mof_O 	O 	0.89448	0.77434	0.86566	-0.253
Mof_O 	O 	0.12507	0.25543	0.0157	-0.263
Mof_O 	O 	0.07973	0.22742	0.11813	-0.26
Mof_O 	O 	0.33475	0.36613	0.07356	-0.265
Mof_C 	C 	0.94859	0.88829	0.0303	0.275
Mof_C 	C 	0.91564	0.82659	0.02127	0.003
Mof_C 	C 	0.87663	0.77757	0.03412	-0.1
Mof_H 	H 	0.86903	0.78347	0.04877	0.061
Mof_C 	C 	0.84873	0.71957	0.02524	0.048
Mof_H 	H 	0.82293	0.68607	0.03407	0.013
Mof_C 	C 	0.85803	0.71067	0.00425	-0.185
Mof_H 	H 	0.83943	0.67117	0.99847	0.1
Mof_C 	C 	0.89563	0.76037	0.99098	0.203
Mof_C 	C 	0.9247	0.81704	0.9998	-0.169
Mof_H 	H 	0.95143	0.85007	0.99107	0.104
Mof_C 	C 	0.94363	0.79707	0.95611	0.108
Mof_H 	H 	0.92833	0.82517	0.95397	0.007
Mof_H 	H 	0.98393	0.81917	0.96277	0.004
Mof_C 	C 	0.94616	0.76956	0.93454	-0.225
Mof_C 	C 	0.90643	0.76227	0.91826	0.291
Mof_C 	C 	0.90822	0.73526	0.89862	-0.219
Mof_C 	C 	0.95103	0.71737	0.89565	0.272
Mof_C 	C 	0.99045	0.72489	0.91244	-0.226
Mof_C 	C 	0.98804	0.74918	0.93258	0.289
Mof_C 	C 	0.02753	0.75297	0.95109	-0.668
Mof_H 	H 	0.06693	0.78927	0.94957	0.225
Mof_H 	H 	0.00923	0.75467	0.96477	0.229
Mof_H 	H 	0.03233	0.71757	0.95097	0.226
Mof_C 	C 	0.86173	0.78377	0.92128	-0.665
Mof_H 	H 	0.87783	0.82377	0.91487	0.239
Mof_H 	H 	0.82383	0.75567	0.91407	0.231
Mof_H 	H 	0.85453	0.78557	0.93677	0.231
Mof_C 	C 	0.95563	0.69137	0.87369	-0.626
Mof_H 	H 	0.98393	0.72397	0.86427	0.217
Mof_H 	H 	0.96983	0.66287	0.87607	0.214
Mof_H 	H 	0.91613	0.67077	0.86677	0.22
Mof_C 	C 	0.03403	0.70087	0.90956	0.129
Mof_H 	H 	0.06833	0.72127	0.91967	-0.009
Mof_H 	H 	0.04953	0.70747	0.89447	-0.009
Mof_C 	C 	0.03053	0.60787	0.91243	0.207
Mof_C 	C 	0.99713	0.54607	0.91763	-0.175
Mof_H 	H 	0.95583	0.52827	0.92137	0.088
Mof_C 	C 	0.02453	0.51187	0.91729	0.055
Mof_H 	H 	0.00223	0.47077	0.92117	0.007
Mof_C 	C 	0.08423	0.53647	0.91132	-0.09
Mof_H 	H 	0.10273	0.51247	0.91147	0.079
Mof_C 	C 	0.11702	0.59676	0.90513	0.011
Mof_C 	C 	0.08948	0.63213	0.90576	-0.156
Mof_H 	H 	0.11163	0.67317	0.90157	0.094
Mof_C 	C 	0.86473	0.72537	0.88032	0.131
Mof_H 	H 	0.82813	0.72377	0.88617	-0.004
Mof_H 	H 	0.85303	0.68707	0.87277	-0.001
Mof_C 	C 	0.86363	0.77147	0.84703	0.232
Mof_C 	C 	0.80743	0.72537	0.84196	-0.222
Mof_H 	H 	0.78773	0.69177	0.85137	0.112
Mof_C 	C 	0.77973	0.72807	0.82316	0.091
Mof_H 	H 	0.74183	0.69507	0.81927	-0.012
Mof_C 	C 	0.80643	0.77807	0.80996	-0.126
Mof_H 	H 	0.78613	0.78027	0.79737	0.085
Mof_C 	C 	0.86253	0.82457	0.81509	0.042
Mof_C 	C 	0.89273	0.82177	0.8332	-0.173
Mof_H 	H 	0.93233	0.85297	0.83627	0.118
Mof_C 	C 	0.89053	0.88097	0.80179	0.256
Mof_C 	C 	0.04645	0.11119	0.95551	0.256
Mof_C 	C 	0.06733	0.17287	0.96429	0.013
Mof_C 	C 	0.08549	0.18307	0.98611	-0.171
Mof_H 	H 	0.08463	0.15217	0.99477	0.105
Mof_C 	C 	0.10503	0.24047	0.99478	0.208
Mof_C 	C 	0.10913	0.28677	0.98184	-0.189
Mof_H 	H 	0.12413	0.32587	0.98767	0.102
Mof_C 	C 	0.09053	0.27457	0.96013	0.048
Mof_H 	H 	0.09273	0.30587	0.95127	0.016
Mof_C 	C 	0.06893	0.21757	0.95125	-0.106
Mof_H 	H 	0.05573	0.20967	0.93657	0.07
Mof_C 	C 	0.12473	0.20847	0.02887	0.107
Mof_H 	H 	0.08323	0.17507	0.03087	0.007
Mof_H 	H 	0.14863	0.19277	0.02177	0.003
Mof_C 	C 	0.15197	0.23659	0.05031	-0.206
Mof_C 	C 	0.11431	0.24105	0.0666	0.261
Mof_C 	C 	0.13973	0.26817	0.08666	-0.213
Mof_C 	C 	0.20053	0.28787	0.09121	0.264
Mof_C 	C 	0.23663	0.28267	0.07533	-0.222
Mof_C 	C 	0.21343	0.26012	0.05464	0.261
Mof_C 	C 	0.25353	0.26097	0.03635	-0.627
Mof_H 	H 	0.25843	0.22567	0.03757	0.213
Mof_H 	H 	0.23503	0.26017	0.02237	0.214
Mof_H 	H 	0.29283	0.29737	0.03737	0.218
Mof_C 	C 	0.04883	0.21657	0.06144	-0.643
Mof_H 	H 	0.03563	0.24327	0.06747	0.22
Mof_H 	H 	0.04323	0.21407	0.04567	0.224
Mof_H 	H 	0.02503	0.17647	0.06777	0.221
Mof_C 	C 	0.22553	0.31027	0.11372	-0.63
Mof_H 	H 	0.26663	0.34407	0.11257	0.213
Mof_H 	H 	0.20043	0.32337	0.12117	0.223
Mof_H 	H 	0.22563	0.27777	0.12197	0.211
Mof_C 	C 	0.10193	0.27737	0.10321	0.115
Mof_H 	H 	0.06803	0.27837	0.09597	0.001
Mof_H 	H 	0.12623	0.31557	0.11107	0.005
Mof_C 	C 	0.05103	0.23187	0.13637	0.213
Mof_C 	C 	0.03633	0.18757	0.15172	-0.169
Mof_H 	H 	0.04453	0.15597	0.14917	0.108
Mof_C 	C 	0.00873	0.19027	0.17133	0.024
Mof_C 	C 	0.99443	0.23297	0.17445	-0.115
Mof_H 	H 	0.97283	0.23197	0.18707	0.082
Mof_C 	C 	0.01043	0.27747	0.15991	0.07
Mof_H 	H 	0.00533	0.31067	0.16337	-0.002
Mof_C 	C 	0.03473	0.27557	0.13957	-0.197
Mof_H 	H 	0.03973	0.30307	0.12837	0.101
Mof_C 	C 	0.99453	0.14307	0.18808	0.267
Mof_C 	C 	0.30143	0.30367	0.08005	0.124
Mof_H 	H 	0.31503	0.27977	0.07167	-0.006
Mof_H 	H 	0.30733	0.29967	0.09567	-0.01
Mof_C 	C 	0.39643	0.39317	0.07437	0.218
Mof_C 	C 	0.42753	0.36984	0.08523	-0.171
Mof_H 	H 	0.40673	0.33327	0.09307	0.099
Mof_C 	C 	0.49073	0.40177	0.0844	0.027
Mof_C 	C 	0.52033	0.45537	0.07309	-0.106
Mof_H 	H 	0.56293	0.47627	0.07217	0.079
Mof_C 	C 	0.48893	0.47857	0.06324	0.073
Mof_H 	H 	0.50983	0.51637	0.05617	0.006
Mof_C 	C 	0.42673	0.44727	0.0635	-0.197
Mof_H 	H 	0.40493	0.46287	0.05617	0.106
Mof_C 	C 	0.52433	0.37547	0.09521	0.258
Mof_C 	C 	0.18153	0.62497	0.89898	0.292
Mof_O 	O 	0.01303	0.01687	0.08547	-0.235
Mof_C 	C 	0.05423	0.01267	0.09417	0.151
Mof_H 	H 	0.04783	0.97427	0.09827	-0.007
Mof_N 	N 	0.11333	0.06687	0.09809	-0.054
Mof_C 	C 	0.11903	0.12637	0.09767	-0.302
Mof_H 	H 	0.08933	0.12687	0.10757	0.129
Mof_H 	H 	0.15943	0.15647	0.10247	0.121
Mof_H 	H 	0.11213	0.13567	0.08297	0.132
Mof_C 	C 	0.16523	0.05987	0.10217	-0.297
Mof_H 	H 	0.19293	0.09167	0.11207	0.117
Mof_H 	H 	0.15213	0.02067	0.10887	0.122
Mof_H 	H 	0.18573	0.06267	0.08847	0.112
Mof_Cd	Cd	0.66667	0.33333	0.88219	0.476
Mof_Cd	Cd	0.66667	0.33333	0.82637	0.461
Mof_Cd	Cd	0.66667	0.33333	0.77045	0.436
Mof_Cd	Cd	0.33333	0.66667	0.21552	0.476
Mof_Cd	Cd	0.33333	0.66667	0.1597	0.461
Mof_Cd	Cd	0.33333	0.66667	0.10378	0.436
Mof_Cd	Cd	-0	-2.28596e-32	0.54885	0.47
Mof_Cd	Cd	-0	-2.28596e-32	0.49303	0.454
Mof_Cd	Cd	-1.14298e-32	0	0.43712	0.429
Mof_Cd	Cd	0.66667	0.33333	0.38219	0.476
Mof_Cd	Cd	0.66667	0.33333	0.32637	0.461
Mof_Cd	Cd	0.66667	0.33333	0.27045	0.436
Mof_Cd	Cd	0.33333	0.66667	0.71552	0.476
Mof_Cd	Cd	0.33333	0.66667	0.6597	0.461
Mof_Cd	Cd	0.33333	0.66667	0.60378	0.436
Mof_Cd	Cd	1.42873e-33	0	0.04885	0.47
Mof_Cd	Cd	-0	0	0.99303	0.454
Mof_Cd	Cd	-2.28596e-32	0	0.93712	0.429
Mof_O 	O 	0.33333	0.66667	0.93106	-0.249
Mof_O 	O 	0.33333	0.66667	0.88149	-0.222
Mof_O 	O 	-1.14298e-32	-1.14298e-32	0.26439	-0.254
Mof_O 	O 	-0	0	0.21482	-0.226
Mof_O 	O 	0.66667	0.33333	0.59773	-0.249
Mof_O 	O 	0.66667	0.33333	0.54816	-0.222
Mof_O 	O 	0.33333	0.66667	0.43106	-0.249
Mof_O 	O 	0.33333	0.66667	0.38149	-0.222
Mof_O 	O 	-2.28596e-32	0	0.76439	-0.254
Mof_O 	O 	-0	0	0.71482	-0.226
Mof_O 	O 	0.66667	0.33333	0.09773	-0.249
Mof_O 	O 	0.66667	0.33333	0.04816	-0.222
_end
