data_functionalizedCrystal
_audit_creation_method	'EQeq! by Chris Wilmer'
_symmetry_space_group_name_H-M	'P1'
_symmetry_Int_Tables_number	1
_symmetry_cell_setting	triclinic
loop_
_symmetry_equiv_pos_as_xyz
  x,y,z
_cell_length_a	7.238
_cell_length_b	10.35
_cell_length_c	11.084
_cell_angle_alpha	90
_cell_angle_beta	90
_cell_angle_gamma	90
loop_
_atom_site_label
_atom_site_type_symbol
_atom_site_fract_x
_atom_site_fract_y
_atom_site_fract_z
_atom_site_charge
Mof_Cu	Cu	0.6497	0.81668	0.72067	0.893
Mof_Cu	Cu	0.3503	0.68332	0.22067	0.895
Mof_H 	H 	0.583	0.022	0.972	0.067
Mof_H 	H 	0.839	0.981	0.081	0.045
Mof_H 	H 	0.741	0.862	0.103	0.048
Mof_H 	H 	0.039	0.893	0.937	0.091
Mof_H 	H 	0.908	0.741	0.954	0.077
Mof_H 	H 	0.476	0.861	0.865	0.271
Mof_H 	H 	0.574	0.782	0.946	0.109
Mof_H 	H 	0.417	0.478	0.472	0.07
Mof_H 	H 	0.161	0.519	0.581	0.041
Mof_H 	H 	0.259	0.638	0.603	0.045
Mof_H 	H 	0.961	0.607	0.437	0.095
Mof_H 	H 	0.092	0.759	0.454	0.079
Mof_H 	H 	0.524	0.639	0.365	0.271
Mof_H 	H 	0.426	0.718	0.446	0.109
Mof_C 	C 	0.778	0.034	0.8405	0.314
Mof_C 	C 	0.6699	0.9661	0.9389	-0.083
Mof_C 	C 	0.8015	0.9176	0.037	-0.043
Mof_C 	C 	0.9573	0.8326	0.9933	-0.204
Mof_C 	C 	0.0756	0.7829	0.0954	0.326
Mof_C 	C 	0.222	0.466	0.3405	0.319
Mof_C 	C 	0.3301	0.5339	0.4389	-0.091
Mof_C 	C 	0.1985	0.5824	0.537	-0.034
Mof_C 	C 	0.0427	0.6674	0.4933	-0.213
Mof_C 	C 	0.9244	0.7171	0.5954	0.329
Mof_N 	N 	0.5602	0.8583	0.8867	-0.454
Mof_N 	N 	0.4398	0.6417	0.3867	-0.452
Mof_O 	O 	0.7683	0.9872	0.7334	-0.386
Mof_O 	O 	0.8741	0.1286	0.869	-0.362
Mof_O 	O 	0.2249	0.7214	0.0659	-0.384
Mof_O 	O 	0.0356	0.8006	0.2031	-0.327
Mof_O 	O 	0.2317	0.5128	0.2334	-0.389
Mof_O 	O 	0.1259	0.3714	0.369	-0.362
Mof_O 	O 	0.7751	0.7786	0.5659	-0.384
Mof_O 	O 	0.9644	0.6994	0.7031	-0.327
Mof_Cu	Cu	0.1497	0.18332	0.77933	0.895
Mof_Cu	Cu	0.8503	0.31668	0.27933	0.894
Mof_H 	H 	0.083	0.978	0.528	0.066
Mof_H 	H 	0.339	0.019	0.419	0.044
Mof_H 	H 	0.241	0.138	0.397	0.048
Mof_H 	H 	0.539	0.107	0.563	0.094
Mof_H 	H 	0.408	0.259	0.546	0.078
Mof_H 	H 	0.976	0.139	0.635	0.268
Mof_H 	H 	0.074	0.218	0.554	0.109
Mof_H 	H 	0.917	0.522	0.028	0.069
Mof_H 	H 	0.661	0.481	0.919	0.043
Mof_H 	H 	0.759	0.362	0.897	0.047
Mof_H 	H 	0.461	0.393	0.063	0.094
Mof_H 	H 	0.592	0.241	0.046	0.079
Mof_H 	H 	0.024	0.361	0.135	0.276
Mof_H 	H 	0.926	0.282	0.054	0.109
Mof_C 	C 	0.278	0.966	0.6595	0.313
Mof_C 	C 	0.1699	0.0339	0.5611	-0.082
Mof_C 	C 	0.3015	0.0824	0.463	-0.041
Mof_C 	C 	0.4573	0.1674	0.5067	-0.21
Mof_C 	C 	0.5756	0.2171	0.4046	0.327
Mof_C 	C 	0.722	0.534	0.1595	0.318
Mof_C 	C 	0.8301	0.4661	0.0611	-0.088
Mof_C 	C 	0.6985	0.4176	0.963	-0.039
Mof_C 	C 	0.5427	0.3326	0.0067	-0.209
Mof_C 	C 	0.4244	0.2829	0.9046	0.327
Mof_N 	N 	0.0602	0.1417	0.6133	-0.45
Mof_N 	N 	0.9398	0.3583	0.1133	-0.457
Mof_O 	O 	0.2683	0.0128	0.7666	-0.386
Mof_O 	O 	0.3741	0.8714	0.631	-0.361
Mof_O 	O 	0.7249	0.2786	0.4341	-0.385
Mof_O 	O 	0.5356	0.1994	0.2969	-0.327
Mof_O 	O 	0.7317	0.4872	0.2666	-0.389
Mof_O 	O 	0.6259	0.6286	0.131	-0.362
Mof_O 	O 	0.2751	0.2214	0.9341	-0.384
Mof_O 	O 	0.4644	0.3006	0.7969	-0.327
_end
