data_functionalizedCrystal
_audit_creation_method	'EQeq! by Chris Wilmer'
_symmetry_space_group_name_H-M	'P1'
_symmetry_Int_Tables_number	1
_symmetry_cell_setting	triclinic
loop_
_symmetry_equiv_pos_as_xyz
  x,y,z
_cell_length_a	14.756
_cell_length_b	18.9212
_cell_length_c	30.74
_cell_angle_alpha	101.044
_cell_angle_beta	90
_cell_angle_gamma	112.95
loop_
_atom_site_label
_atom_site_type_symbol
_atom_site_fract_x
_atom_site_fract_y
_atom_site_fract_z
_atom_site_charge
Mof_Zn	Zn	0.71152	0.1697	0.59109	1.165
Mof_Zn	Zn	0.97831	0.75324	0.9402	1.167
Mof_Zn	Zn	0.03145	0.34654	0.76909	1.164
Mof_Zn	Zn	0.45818	0.1697	0.09109	1.165
Mof_Zn	Zn	0.77493	0.75324	0.4402	1.167
Mof_Zn	Zn	0.31509	0.34654	0.26909	1.164
Mof_H 	H 	0.8183	0.3236	0.6599	-0.01
Mof_H 	H 	0.7813	0.3988	0.7186	0.081
Mof_H 	H 	0.4926	0.2582	0.689	0.096
Mof_H 	H 	0.5394	0.1828	0.6334	-0.008
Mof_H 	H 	0.7591	0.6716	0.9304	-0.001
Mof_H 	H 	0.6326	0.5752	0.8837	0.09
Mof_H 	H 	0.8386	0.543	0.8046	0.095
Mof_H 	H 	0.9571	0.6398	0.8527	-0.006
Mof_H 	H 	0.1678	0.2762	0.7326	-0.016
Mof_H 	H 	0.3315	0.296	0.7351	0.086
Mof_H 	H 	0.3866	0.4852	0.8327	0.084
Mof_H 	H 	0.2214	0.4652	0.8236	-0.017
Mof_H 	H 	0.9306	0.3518	0.8542	-0.009
Mof_H 	H 	0.8589	0.2724	0.9036	0.086
Mof_H 	H 	0.9588	0.1132	0.8361	0.09
Mof_H 	H 	0.0255	0.201	0.7902	-0.029
Mof_H 	H 	0.5389	0.0418	0.063	-0.005
Mof_H 	H 	0.6513	0.0194	0.0172	0.069
Mof_H 	H 	0.703	0.2214	0.9775	0.081
Mof_H 	H 	0.5811	0.2354	0.021	-0.013
Mof_H 	H 	0.9819	0.8618	0.8848	-0.019
Mof_H 	H 	0.936	0.9654	0.8802	0.088
Mof_H 	H 	0.8401	0.952	0.0028	0.083
Mof_H 	H 	0.8882	0.8496	0.0018	-0.008
Mof_H 	H 	0.5053	0.3236	0.1599	-0.011
Mof_H 	H 	0.6175	0.3988	0.2186	0.081
Mof_H 	H 	0.7656	0.2582	0.189	0.097
Mof_H 	H 	0.6434	0.1828	0.1334	-0.007
Mof_H 	H 	0.9125	0.6716	0.4304	-0.001
Mof_H 	H 	0.9426	0.5752	0.3837	0.09
Mof_H 	H 	0.7044	0.543	0.3046	0.095
Mof_H 	H 	0.6827	0.6398	0.3527	-0.006
Mof_H 	H 	0.1084	0.2762	0.2326	-0.016
Mof_H 	H 	0.9645	0.296	0.2351	0.088
Mof_H 	H 	0.0986	0.4852	0.3327	0.085
Mof_H 	H 	0.2438	0.4652	0.3236	-0.017
Mof_H 	H 	0.4212	0.3518	0.3542	-0.009
Mof_H 	H 	0.4135	0.2724	0.4036	0.086
Mof_H 	H 	0.1544	0.1132	0.3361	0.088
Mof_H 	H 	0.1755	0.201	0.2902	-0.027
Mof_H 	H 	0.5029	0.0418	0.563	-0.005
Mof_H 	H 	0.3681	0.0194	0.5172	0.069
Mof_H 	H 	0.5184	0.2214	0.4775	0.081
Mof_H 	H 	0.6543	0.2354	0.521	-0.013
Mof_H 	H 	0.8799	0.8618	0.3848	-0.018
Mof_H 	H 	0.0294	0.9654	0.3802	0.088
Mof_H 	H 	0.1119	0.952	0.5028	0.082
Mof_H 	H 	0.9614	0.8496	0.5018	-0.008
Mof_C 	C 	0.7513	0.3094	0.6664	0.074
Mof_C 	C 	0.7298	0.3544	0.7011	-0.131
Mof_C 	C 	0.6314	0.3354	0.7112	0.064
Mof_C 	C 	0.5605	0.272	0.6845	-0.128
Mof_C 	C 	0.5893	0.2284	0.6508	0.085
Mof_C 	C 	0.7746	0.6444	0.9041	0.081
Mof_C 	C 	0.699	0.5868	0.877	-0.125
Mof_C 	C 	0.7208	0.5454	0.839	0.056
Mof_C 	C 	0.8206	0.5686	0.8307	-0.137
Mof_C 	C 	0.89	0.626	0.859	0.083
Mof_C 	C 	0.2138	0.3204	0.7527	0.071
Mof_C 	C 	0.3105	0.3312	0.7544	-0.126
Mof_C 	C 	0.3783	0.3944	0.7844	0.068
Mof_C 	C 	0.3432	0.4424	0.8109	-0.135
Mof_C 	C 	0.2439	0.4292	0.806	0.09
Mof_C 	C 	0.6035	0.3828	0.7477	0.098
Mof_C 	C 	0.6446	0.4822	0.8072	0.082
Mof_C 	C 	0.4841	0.4094	0.7837	0.1
Mof_C 	C 	0.9332	0.3016	0.85	0.073
Mof_C 	C 	0.8919	0.2554	0.88	-0.118
Mof_C 	C 	0.8994	0.1828	0.875	0.069
Mof_C 	C 	0.9503	0.1612	0.8405	-0.134
Mof_C 	C 	0.9878	0.214	0.813	0.103
Mof_C 	C 	0.5723	0.0786	0.0452	0.065
Mof_C 	C 	0.6394	0.0656	0.0184	-0.114
Mof_C 	C 	0.6905	0.118	0.993	0.052
Mof_C 	C 	0.6693	0.1834	0.9945	-0.119
Mof_C 	C 	0.5981	0.192	0.0212	0.073
Mof_C 	C 	0.9523	0.8808	0.9092	0.084
Mof_C 	C 	0.9266	0.9432	0.906	-0.131
Mof_C 	C 	0.8871	0.9706	0.9422	0.06
Mof_C 	C 	0.8702	0.9348	0.978	-0.139
Mof_C 	C 	0.8985	0.8736	0.9767	0.089
Mof_C 	C 	0.8614	0.1338	0.9084	0.11
Mof_C 	C 	0.7649	0.1036	0.9645	0.093
Mof_C 	C 	0.8586	0.038	0.9399	0.092
Mof_C 	C 	0.5581	0.3094	0.1664	0.074
Mof_C 	C 	0.6246	0.3544	0.2011	-0.131
Mof_C 	C 	0.704	0.3354	0.2112	0.064
Mof_C 	C 	0.7115	0.272	0.1845	-0.128
Mof_C 	C 	0.6391	0.2284	0.1508	0.085
Mof_C 	C 	0.8698	0.6444	0.4041	0.08
Mof_C 	C 	0.8878	0.5868	0.377	-0.125
Mof_C 	C 	0.8246	0.5454	0.339	0.056
Mof_C 	C 	0.748	0.5686	0.3307	-0.137
Mof_C 	C 	0.736	0.626	0.359	0.082
Mof_C 	C 	0.1066	0.3204	0.2527	0.072
Mof_C 	C 	0.0207	0.3312	0.2544	-0.128
Mof_C 	C 	0.0161	0.3944	0.2844	0.069
Mof_C 	C 	0.0992	0.4424	0.3109	-0.136
Mof_C 	C 	0.1853	0.4292	0.306	0.091
Mof_C 	C 	0.7793	0.3828	0.2477	0.098
Mof_C 	C 	0.8376	0.4822	0.3072	0.082
Mof_C 	C 	0.9253	0.4094	0.2837	0.1
Mof_C 	C 	0.3684	0.3016	0.35	0.072
Mof_C 	C 	0.3635	0.2554	0.38	-0.117
Mof_C 	C 	0.2834	0.1828	0.375	0.068
Mof_C 	C 	0.2109	0.1612	0.3405	-0.132
Mof_C 	C 	0.2262	0.214	0.313	0.099
Mof_C 	C 	0.5063	0.0786	0.5452	0.065
Mof_C 	C 	0.4262	0.0656	0.5184	-0.114
Mof_C 	C 	0.4275	0.118	0.493	0.052
Mof_C 	C 	0.5141	0.1834	0.4945	-0.119
Mof_C 	C 	0.5939	0.192	0.5212	0.073
Mof_C 	C 	0.9285	0.8808	0.4092	0.081
Mof_C 	C 	0.0166	0.9432	0.406	-0.127
Mof_C 	C 	0.0835	0.9706	0.4422	0.062
Mof_C 	C 	0.0646	0.9348	0.478	-0.135
Mof_C 	C 	0.9751	0.8736	0.4767	0.086
Mof_C 	C 	0.2724	0.1338	0.4084	0.11
Mof_C 	C 	0.3387	0.1036	0.4645	0.093
Mof_C 	C 	0.1794	0.038	0.4399	0.089
Mof_I 	I 	0.67839	0.05436	0.62878	-0.347
Mof_I 	I 	0.86092	0.24452	0.55477	-0.383
Mof_I 	I 	0.95115	0.71304	0.01347	-0.374
Mof_I 	I 	0.13638	0.78534	0.90202	-0.382
Mof_I 	I 	0.00311	0.47072	0.79468	-0.381
Mof_I 	I 	0.97102	0.2602	0.69213	-0.402
Mof_I 	I 	0.37597	0.05436	0.12878	-0.349
Mof_I 	I 	0.3836	0.24452	0.05477	-0.384
Mof_I 	I 	0.76189	0.71304	0.51347	-0.374
Mof_I 	I 	0.64896	0.78534	0.40202	-0.384
Mof_I 	I 	0.46761	0.47072	0.29468	-0.381
Mof_I 	I 	0.28918	0.2602	0.19213	-0.403
Mof_N 	N 	0.68167	0.24534	0.6408	-0.274
Mof_N 	N 	0.86971	0.66542	0.8962	-0.275
Mof_N 	N 	0.18097	0.36954	0.7782	-0.276
Mof_N 	N 	0.6762	0.4428	0.77415	-0.139
Mof_N 	N 	0.54807	0.46754	0.8143	-0.136
Mof_N 	N 	0.5068	0.3616	0.75151	-0.133
Mof_N 	N 	0.97717	0.27914	0.815	-0.286
Mof_N 	N 	0.5515	0.143	0.0472	-0.272
Mof_N 	N 	0.93904	0.84588	0.9431	-0.283
Mof_N 	N 	0.79486	0.14952	0.9338	-0.133
Mof_N 	N 	0.79573	0.05026	0.97034	-0.149
Mof_N 	N 	0.89149	0.07718	0.9085	-0.136
Mof_N 	N 	0.56367	0.24534	0.1408	-0.274
Mof_N 	N 	0.79571	0.66542	0.3962	-0.275
Mof_N 	N 	0.18857	0.36954	0.2782	-0.276
Mof_N 	N 	0.7666	0.4428	0.27415	-0.139
Mof_N 	N 	0.91947	0.46754	0.3143	-0.136
Mof_N 	N 	0.8548	0.3616	0.25151	-0.133
Mof_N 	N 	0.30197	0.27914	0.315	-0.285
Mof_N 	N 	0.5915	0.143	0.5472	-0.272
Mof_N 	N 	0.90684	0.84588	0.4431	-0.282
Mof_N 	N 	0.35466	0.14952	0.4338	-0.133
Mof_N 	N 	0.25453	0.05026	0.47034	-0.149
Mof_N 	N 	0.18569	0.07718	0.4085	-0.137
Mof_Zn	Zn	0.54182	0.8303	0.90891	1.166
Mof_Zn	Zn	0.22507	0.24676	0.5598	1.168
Mof_Zn	Zn	0.68491	0.65346	0.73091	1.165
Mof_Zn	Zn	0.28848	0.8303	0.40891	1.166
Mof_Zn	Zn	0.02169	0.24676	0.0598	1.168
Mof_Zn	Zn	0.96855	0.65346	0.23091	1.165
Mof_H 	H 	0.4947	0.6764	0.8401	-0.011
Mof_H 	H 	0.3825	0.6012	0.7814	0.081
Mof_H 	H 	0.2344	0.7418	0.811	0.097
Mof_H 	H 	0.3566	0.8172	0.8666	-0.007
Mof_H 	H 	0.0875	0.3284	0.5696	-0.001
Mof_H 	H 	0.0574	0.4248	0.6163	0.09
Mof_H 	H 	0.2956	0.457	0.6954	0.095
Mof_H 	H 	0.3173	0.3602	0.6473	-0.006
Mof_H 	H 	0.8916	0.7238	0.7674	-0.016
Mof_H 	H 	0.0355	0.704	0.7649	0.088
Mof_H 	H 	0.9014	0.5148	0.6673	0.085
Mof_H 	H 	0.7562	0.5348	0.6764	-0.017
Mof_H 	H 	0.5788	0.6482	0.6458	-0.009
Mof_H 	H 	0.5865	0.7276	0.5964	0.086
Mof_H 	H 	0.8456	0.8868	0.6639	0.088
Mof_H 	H 	0.8245	0.799	0.7098	-0.027
Mof_H 	H 	0.4971	0.9582	0.437	-0.005
Mof_H 	H 	0.6319	0.9806	0.4828	0.069
Mof_H 	H 	0.4816	0.7786	0.5225	0.081
Mof_H 	H 	0.3457	0.7646	0.479	-0.013
Mof_H 	H 	0.1201	0.1382	0.6152	-0.018
Mof_H 	H 	0.9706	0.0346	0.6198	0.088
Mof_H 	H 	0.8881	0.048	0.4972	0.082
Mof_H 	H 	0.0386	0.1504	0.4982	-0.008
Mof_H 	H 	0.1817	0.6764	0.3401	-0.01
Mof_H 	H 	0.2187	0.6012	0.2814	0.081
Mof_H 	H 	0.5074	0.7418	0.311	0.096
Mof_H 	H 	0.4606	0.8172	0.3666	-0.008
Mof_H 	H 	0.2409	0.3284	0.0696	-0.001
Mof_H 	H 	0.3674	0.4248	0.1163	0.09
Mof_H 	H 	0.1614	0.457	0.1954	0.095
Mof_H 	H 	0.0429	0.3602	0.1473	-0.006
Mof_H 	H 	0.8322	0.7238	0.2674	-0.016
Mof_H 	H 	0.6685	0.704	0.2649	0.086
Mof_H 	H 	0.6134	0.5148	0.1673	0.084
Mof_H 	H 	0.7786	0.5348	0.1764	-0.017
Mof_H 	H 	0.0694	0.6482	0.1458	-0.009
Mof_H 	H 	0.1411	0.7276	0.0964	0.086
Mof_H 	H 	0.0412	0.8868	0.1639	0.09
Mof_H 	H 	0.9745	0.799	0.2098	-0.029
Mof_H 	H 	0.4611	0.9582	0.937	-0.005
Mof_H 	H 	0.3487	0.9806	0.9828	0.069
Mof_H 	H 	0.297	0.7786	0.0225	0.081
Mof_H 	H 	0.4189	0.7646	0.979	-0.013
Mof_H 	H 	0.0181	0.1382	0.1152	-0.019
Mof_H 	H 	0.064	0.0346	0.1198	0.088
Mof_H 	H 	0.1599	0.048	0.9972	0.083
Mof_H 	H 	0.1118	0.1504	0.9982	-0.008
Mof_C 	C 	0.4419	0.6906	0.8336	0.074
Mof_C 	C 	0.3754	0.6456	0.7989	-0.131
Mof_C 	C 	0.296	0.6646	0.7888	0.064
Mof_C 	C 	0.2885	0.728	0.8155	-0.128
Mof_C 	C 	0.3609	0.7716	0.8492	0.085
Mof_C 	C 	0.1302	0.3556	0.5959	0.08
Mof_C 	C 	0.1122	0.4132	0.623	-0.125
Mof_C 	C 	0.1754	0.4546	0.661	0.056
Mof_C 	C 	0.252	0.4314	0.6693	-0.137
Mof_C 	C 	0.264	0.374	0.641	0.082
Mof_C 	C 	0.8934	0.6796	0.7473	0.072
Mof_C 	C 	0.9793	0.6688	0.7456	-0.128
Mof_C 	C 	0.9839	0.6056	0.7156	0.069
Mof_C 	C 	0.9008	0.5576	0.6891	-0.136
Mof_C 	C 	0.8147	0.5708	0.694	0.091
Mof_C 	C 	0.2207	0.6172	0.7523	0.098
Mof_C 	C 	0.1624	0.5178	0.6928	0.082
Mof_C 	C 	0.0747	0.5906	0.7163	0.1
Mof_C 	C 	0.6316	0.6984	0.65	0.072
Mof_C 	C 	0.6365	0.7446	0.62	-0.117
Mof_C 	C 	0.7166	0.8172	0.625	0.068
Mof_C 	C 	0.7891	0.8388	0.6595	-0.132
Mof_C 	C 	0.7738	0.786	0.687	0.099
Mof_C 	C 	0.4937	0.9214	0.4548	0.065
Mof_C 	C 	0.5738	0.9344	0.4816	-0.114
Mof_C 	C 	0.5725	0.882	0.507	0.052
Mof_C 	C 	0.4859	0.8166	0.5055	-0.119
Mof_C 	C 	0.4061	0.808	0.4788	0.073
Mof_C 	C 	0.0715	0.1192	0.5908	0.081
Mof_C 	C 	0.9834	0.0568	0.594	-0.127
Mof_C 	C 	0.9165	0.0294	0.5578	0.062
Mof_C 	C 	0.9354	0.0652	0.522	-0.135
Mof_C 	C 	0.0249	0.1264	0.5233	0.086
Mof_C 	C 	0.7276	0.8662	0.5916	0.11
Mof_C 	C 	0.6613	0.8964	0.5355	0.093
Mof_C 	C 	0.8206	0.962	0.5601	0.089
Mof_C 	C 	0.2487	0.6906	0.3336	0.074
Mof_C 	C 	0.2702	0.6456	0.2989	-0.131
Mof_C 	C 	0.3686	0.6646	0.2888	0.064
Mof_C 	C 	0.4395	0.728	0.3155	-0.128
Mof_C 	C 	0.4107	0.7716	0.3492	0.085
Mof_C 	C 	0.2254	0.3556	0.0959	0.081
Mof_C 	C 	0.301	0.4132	0.123	-0.125
Mof_C 	C 	0.2792	0.4546	0.161	0.056
Mof_C 	C 	0.1794	0.4314	0.1693	-0.137
Mof_C 	C 	0.11	0.374	0.141	0.083
Mof_C 	C 	0.7862	0.6796	0.2473	0.071
Mof_C 	C 	0.6895	0.6688	0.2456	-0.126
Mof_C 	C 	0.6217	0.6056	0.2156	0.068
Mof_C 	C 	0.6568	0.5576	0.1891	-0.135
Mof_C 	C 	0.7561	0.5708	0.194	0.09
Mof_C 	C 	0.3965	0.6172	0.2523	0.098
Mof_C 	C 	0.3554	0.5178	0.1928	0.082
Mof_C 	C 	0.5159	0.5906	0.2163	0.1
Mof_C 	C 	0.0668	0.6984	0.15	0.073
Mof_C 	C 	0.1081	0.7446	0.12	-0.118
Mof_C 	C 	0.1006	0.8172	0.125	0.069
Mof_C 	C 	0.0497	0.8388	0.1595	-0.134
Mof_C 	C 	0.0122	0.786	0.187	0.103
Mof_C 	C 	0.4277	0.9214	0.9548	0.065
Mof_C 	C 	0.3606	0.9344	0.9816	-0.114
Mof_C 	C 	0.3095	0.882	0.007	0.052
Mof_C 	C 	0.3307	0.8166	0.0055	-0.119
Mof_C 	C 	0.4019	0.808	0.9788	0.073
Mof_C 	C 	0.0477	0.1192	0.0908	0.084
Mof_C 	C 	0.0734	0.0568	0.094	-0.131
Mof_C 	C 	0.1129	0.0294	0.0578	0.06
Mof_C 	C 	0.1298	0.0652	0.022	-0.139
Mof_C 	C 	0.1015	0.1264	0.0233	0.089
Mof_C 	C 	0.1386	0.8662	0.0916	0.11
Mof_C 	C 	0.2351	0.8964	0.0355	0.093
Mof_C 	C 	0.1414	0.962	0.0601	0.092
Mof_I 	I 	0.62403	0.94564	0.87122	-0.349
Mof_I 	I 	0.6164	0.75548	0.94523	-0.384
Mof_I 	I 	0.23811	0.28696	0.48653	-0.374
Mof_I 	I 	0.35104	0.21466	0.59798	-0.384
Mof_I 	I 	0.53239	0.52928	0.70532	-0.381
Mof_I 	I 	0.71082	0.7398	0.80787	-0.403
Mof_I 	I 	0.32161	0.94564	0.37122	-0.347
Mof_I 	I 	0.13908	0.75548	0.44523	-0.383
Mof_I 	I 	0.04885	0.28696	0.98653	-0.374
Mof_I 	I 	0.86362	0.21466	0.09798	-0.382
Mof_I 	I 	0.99689	0.52928	0.20532	-0.381
Mof_I 	I 	0.02898	0.7398	0.30787	-0.402
Mof_N 	N 	0.43633	0.75466	0.8592	-0.274
Mof_N 	N 	0.20429	0.33458	0.6038	-0.275
Mof_N 	N 	0.81143	0.63046	0.7218	-0.276
Mof_N 	N 	0.2334	0.5572	0.72585	-0.139
Mof_N 	N 	0.08053	0.53246	0.6857	-0.136
Mof_N 	N 	0.1452	0.6384	0.74849	-0.133
Mof_N 	N 	0.69803	0.72086	0.685	-0.285
Mof_N 	N 	0.4085	0.857	0.4528	-0.272
Mof_N 	N 	0.09316	0.15412	0.5569	-0.282
Mof_N 	N 	0.64534	0.85048	0.5662	-0.133
Mof_N 	N 	0.74547	0.94974	0.52966	-0.149
Mof_N 	N 	0.81431	0.92282	0.5915	-0.137
Mof_N 	N 	0.31833	0.75466	0.3592	-0.274
Mof_N 	N 	0.13029	0.33458	0.1038	-0.275
Mof_N 	N 	0.81903	0.63046	0.2218	-0.276
Mof_N 	N 	0.3238	0.5572	0.22585	-0.139
Mof_N 	N 	0.45193	0.53246	0.1857	-0.136
Mof_N 	N 	0.4932	0.6384	0.24849	-0.133
Mof_N 	N 	0.02283	0.72086	0.185	-0.286
Mof_N 	N 	0.4485	0.857	0.9528	-0.272
Mof_N 	N 	0.06096	0.15412	0.0569	-0.283
Mof_N 	N 	0.20514	0.85048	0.0662	-0.133
Mof_N 	N 	0.20427	0.94974	0.02966	-0.149
Mof_N 	N 	0.10851	0.92282	0.0915	-0.136
_end
