data_functionalizedCrystal
_audit_creation_method	'EQeq! by Chris Wilmer'
_symmetry_space_group_name_H-M	'P1'
_symmetry_Int_Tables_number	1
_symmetry_cell_setting	triclinic
loop_
_symmetry_equiv_pos_as_xyz
  x,y,z
_cell_length_a	11.755
_cell_length_b	11.755
_cell_length_c	11.752
_cell_angle_alpha	90
_cell_angle_beta	90
_cell_angle_gamma	120
loop_
_atom_site_label
_atom_site_type_symbol
_atom_site_fract_x
_atom_site_fract_y
_atom_site_fract_z
_atom_site_charge
Mof_O 	O 	0.4986	0.6412	0.0433	-0.329
Mof_O 	O 	0.507	0.5726	0.8687	-0.577
Mof_C 	C 	0.5026	0.5621	0.9748	0.229
Mof_O 	O 	0.3588	0.8574	0.0433	-0.322
Mof_O 	O 	0.4274	0.9344	0.8687	-0.577
Mof_C 	C 	0.4379	0.9405	0.9748	0.222
Mof_O 	O 	0.1426	0.5014	0.0433	-0.324
Mof_O 	O 	0.0656	0.493	0.8687	-0.577
Mof_C 	C 	0.0595	0.4974	0.9748	0.223
Mof_O 	O 	0.5014	0.3588	0.5433	-0.33
Mof_O 	O 	0.493	0.4274	0.3687	-0.576
Mof_C 	C 	0.4974	0.4379	0.4748	0.231
Mof_O 	O 	0.6412	0.1426	0.5433	-0.33
Mof_O 	O 	0.5726	0.0656	0.3687	-0.578
Mof_C 	C 	0.5621	0.0595	0.4748	0.231
Mof_O 	O 	0.8574	0.4986	0.5433	-0.33
Mof_O 	O 	0.9344	0.507	0.3687	-0.578
Mof_C 	C 	0.9405	0.5026	0.4748	0.231
Mof_O 	O 	0.5014	0.3588	0.9567	-0.328
Mof_O 	O 	0.493	0.4274	0.1313	-0.576
Mof_C 	C 	0.4974	0.4379	0.0252	0.229
Mof_O 	O 	0.6412	0.1426	0.9567	-0.322
Mof_O 	O 	0.5726	0.0656	0.1313	-0.577
Mof_C 	C 	0.5621	0.0595	0.0252	0.222
Mof_O 	O 	0.8574	0.4986	0.9567	-0.324
Mof_O 	O 	0.9344	0.507	0.1313	-0.577
Mof_C 	C 	0.9405	0.5026	0.0252	0.223
Mof_O 	O 	0.4986	0.6412	0.4567	-0.33
Mof_O 	O 	0.507	0.5726	0.6313	-0.576
Mof_C 	C 	0.5026	0.5621	0.5252	0.231
Mof_O 	O 	0.3588	0.8574	0.4567	-0.33
Mof_O 	O 	0.4274	0.9344	0.6313	-0.578
Mof_C 	C 	0.4379	0.9405	0.5252	0.231
Mof_O 	O 	0.1426	0.5014	0.4567	-0.33
Mof_O 	O 	0.0656	0.493	0.6313	-0.578
Mof_C 	C 	0.0595	0.4974	0.5252	0.231
Mof_Np	Np	0.49405	0.60138	0.25	-0.06
Mof_O 	O 	0.3103	0.5055	0.25	-0.105
Mof_Np	Np	0.39862	0.89267	0.25	-0.059
Mof_O 	O 	0.4945	0.8048	0.25	-0.105
Mof_Np	Np	0.10733	0.50595	0.25	-0.059
Mof_O 	O 	0.1952	0.6897	0.25	-0.104
Mof_Np	Np	0.50595	0.39862	0.75	-0.06
Mof_O 	O 	0.6897	0.4945	0.75	-0.105
Mof_Np	Np	0.60138	0.10733	0.75	-0.059
Mof_O 	O 	0.5055	0.1952	0.75	-0.105
Mof_Np	Np	0.89267	0.49405	0.75	-0.059
Mof_O 	O 	0.8048	0.3103	0.75	-0.104
Mof_Cs	Cs	0.66667	0.33333	0.25	4.552
Mof_Cs	Cs	0.33333	0.66667	0.75	4.552
_end
