data_functionalizedCrystal
_audit_creation_method	'EQeq! by Chris Wilmer'
_symmetry_space_group_name_H-M	'P1'
_symmetry_Int_Tables_number	1
_symmetry_cell_setting	triclinic
loop_
_symmetry_equiv_pos_as_xyz
  x,y,z
_cell_length_a	7.7738
_cell_length_b	9.484
_cell_length_c	11.9243
_cell_angle_alpha	78.102
_cell_angle_beta	78.574
_cell_angle_gamma	86.183
loop_
_atom_site_label
_atom_site_type_symbol
_atom_site_fract_x
_atom_site_fract_y
_atom_site_fract_z
_atom_site_charge
Mof_Mg	Mg	0.9966	0.58361	0.18645	1.475
Mof_Mg	Mg	0.3151	0.4764	0.99669	1.461
Mof_Mg	Mg	0.1255	0.0262	0.39627	1.464
Mof_Mg	Mg	0.2159	0.0451	0.77128	1.468
Mof_P 	P 	0.61886	0.50132	0.15414	0.64
Mof_P 	P 	0.43332	0.14659	0.49998	0.596
Mof_P 	P 	0.94541	0.88414	0.67153	0.707
Mof_O 	O 	0.5202	0.527	0.0549	-0.372
Mof_O 	O 	0.8025	0.5513	0.1141	-0.407
Mof_O 	O 	0.5295	0.5944	0.248	-0.418
Mof_H 	H 	0.4234	0.5819	0.2638	0.306
Mof_O 	O 	0.6097	0.3419	0.2175	-0.459
Mof_H 	H 	0.5466	0.3357	0.2821	0.319
Mof_O 	O 	0.3588	0.0473	0.4394	-0.48
Mof_O 	O 	0.3298	0.153	0.618	-0.491
Mof_O 	O 	0.4735	0.2953	0.4262	-0.265
Mof_O 	O 	0.6221	0.0735	0.5218	-0.494
Mof_H 	H 	0.6945	0.1366	0.5093	0.295
Mof_O 	O 	0.0321	0.8946	0.5471	-0.386
Mof_O 	O 	0.9881	0.0016	0.7275	-0.567
Mof_O 	O 	0.7396	0.8749	0.6882	-0.452
Mof_H 	H 	0.6981	0.954	0.6628	0.371
Mof_O 	O 	0.9951	0.735	0.7421	-0.465
Mof_H 	H 	0.9054	0.6939	0.7785	0.306
Mof_O 	O 	0.879	0.7712	0.2359	-0.31
Mof_O 	O 	0.9273	0.9542	0.3163	-0.26
Mof_O 	O 	0.188	0.6549	0.2657	-0.387
Mof_O 	O 	0.253	0.8474	0.3279	-0.281
Mof_O 	O 	0.1603	0.4057	0.158	-0.56
Mof_O 	O 	0.1995	0.1729	0.2357	-0.412
Mof_O 	O 	0.9168	0.4341	0.343	-0.368
Mof_O 	O 	0.9606	0.2036	0.4245	-0.434
Mof_O 	O 	0.3505	0.8507	0.7526	-0.321
Mof_O 	O 	0.3913	0.6251	0.8416	-0.402
Mof_O 	O 	0.127	0.8988	0.944	-0.285
Mof_O 	O 	0.1572	0.6657	0.0264	-0.375
Mof_O 	O 	0.0778	0.2177	0.8367	-0.389
Mof_O 	O 	0.1182	0.3997	0.9224	-0.411
Mof_O 	O 	0.3987	0.1178	0.8549	-0.442
Mof_O 	O 	0.4407	0.2953	0.9423	-0.439
Mof_C 	C 	0.9686	0.8411	0.281	0.227
Mof_C 	C 	0.1537	0.7756	0.293	0.286
Mof_C 	C 	0.1308	0.2935	0.2374	0.308
Mof_C 	C 	0.9875	0.3132	0.3455	0.23
Mof_C 	C 	0.3222	0.7478	0.8364	0.299
Mof_C 	C 	0.1886	0.7752	0.946	0.102
Mof_C 	C 	0.165	0.2884	0.8828	0.223
Mof_C 	C 	0.3521	0.2274	0.894	0.249
_end
