data_functionalizedCrystal
_audit_creation_method	'EQeq! by Chris Wilmer'
_symmetry_space_group_name_H-M	'P1'
_symmetry_Int_Tables_number	1
_symmetry_cell_setting	triclinic
loop_
_symmetry_equiv_pos_as_xyz
  x,y,z
_cell_length_a	20.7343
_cell_length_b	20.7343
_cell_length_c	20.7343
_cell_angle_alpha	90
_cell_angle_beta	90
_cell_angle_gamma	90
loop_
_atom_site_label
_atom_site_type_symbol
_atom_site_fract_x
_atom_site_fract_y
_atom_site_fract_z
_atom_site_charge
Mof_Zr	Zr	0.11957	0	-0	3.256
Mof_Zr	Zr	0.11957	0.5	0.5	3.304
Mof_Zr	Zr	0.61957	0	0.5	3.267
Mof_Zr	Zr	0.61957	0.5	-0	3.267
Mof_Zr	Zr	0.88043	0	-0	3.231
Mof_Zr	Zr	0.88043	0.5	0.5	3.277
Mof_Zr	Zr	0.38043	0	0.5	3.268
Mof_Zr	Zr	0.38043	0.5	-0	3.268
Mof_Zr	Zr	-0	0.11957	-0	3.255
Mof_Zr	Zr	1.8747e-33	0.61957	0.5	3.266
Mof_Zr	Zr	0.5	0.11957	0.5	3.303
Mof_Zr	Zr	0.5	0.61957	-0	3.266
Mof_Zr	Zr	-0	0.88043	-0	3.23
Mof_Zr	Zr	1.8747e-33	0.38043	0.5	3.268
Mof_Zr	Zr	0.5	0.88043	0.5	3.276
Mof_Zr	Zr	0.5	0.38043	-0	3.268
Mof_Zr	Zr	4.48316e-34	0	0.11957	3.255
Mof_Zr	Zr	2.32302e-33	0.5	0.61957	3.266
Mof_Zr	Zr	0.5	-5.66386e-33	0.61957	3.266
Mof_Zr	Zr	0.5	0.5	0.11957	3.303
Mof_Zr	Zr	3.30108e-33	0	0.88043	3.23
Mof_Zr	Zr	4.25831e-33	0.5	0.38043	3.268
Mof_Zr	Zr	0.5	0	0.38043	3.268
Mof_Zr	Zr	0.5	0.5	0.88043	3.276
Mof_O 	O 	0.1713	0.0938	-0	-16.275
Mof_C 	C 	0.2661	0.1858	-0	1.663
Mof_H 	H 	0.278	0.1416	-0	-1.552
Mof_O 	O 	0.194	0.075	-0	11.635
Mof_O 	O 	0.1713	0.5938	0.5	-15.18
Mof_C 	C 	0.2661	0.6858	0.5	1.587
Mof_H 	H 	0.278	0.6416	0.5	-1.43
Mof_O 	O 	0.194	0.575	0.5	10.858
Mof_O 	O 	0.6713	0.0938	0.5	-15.241
Mof_C 	C 	0.7661	0.1858	0.5	1.594
Mof_H 	H 	0.778	0.1416	0.5	-1.421
Mof_O 	O 	0.694	0.075	0.5	10.917
Mof_O 	O 	0.6713	0.5938	-0	-15.115
Mof_C 	C 	0.7661	0.6858	-0	1.569
Mof_H 	H 	0.778	0.6416	-0	-1.427
Mof_O 	O 	0.694	0.575	-0	10.77
Mof_O 	O 	0.8287	0.9062	-0	-14.591
Mof_C 	C 	0.7339	0.8142	-0	1.244
Mof_H 	H 	0.722	0.8584	-0	-1.278
Mof_O 	O 	0.806	0.925	-0	10.456
Mof_O 	O 	0.8287	0.4062	0.5	-14.731
Mof_C 	C 	0.7339	0.3142	0.5	1.27
Mof_H 	H 	0.722	0.3584	0.5	-1.296
Mof_O 	O 	0.806	0.425	0.5	10.562
Mof_O 	O 	0.3287	0.9062	0.5	-14.678
Mof_C 	C 	0.2339	0.8142	0.5	1.275
Mof_H 	H 	0.222	0.8584	0.5	-1.275
Mof_O 	O 	0.306	0.925	0.5	10.567
Mof_O 	O 	0.3287	0.4062	-0	-15.795
Mof_C 	C 	0.2339	0.3142	-0	1.358
Mof_H 	H 	0.222	0.3584	-0	-1.424
Mof_O 	O 	0.306	0.425	-0	11.308
Mof_O 	O 	0.8287	0.0938	-0	-15.399
Mof_C 	C 	0.7339	0.1858	-0	1.449
Mof_H 	H 	0.722	0.1416	-0	-1.433
Mof_O 	O 	0.806	0.075	-0	10.975
Mof_O 	O 	0.8287	0.5938	0.5	-14.322
Mof_C 	C 	0.7339	0.6858	0.5	1.374
Mof_H 	H 	0.722	0.6416	0.5	-1.311
Mof_O 	O 	0.806	0.575	0.5	10.211
Mof_O 	O 	0.3287	0.0938	0.5	-15.493
Mof_C 	C 	0.2339	0.1858	0.5	1.483
Mof_H 	H 	0.222	0.1416	0.5	-1.431
Mof_O 	O 	0.306	0.075	0.5	11.089
Mof_O 	O 	0.3287	0.5938	-0	-15.366
Mof_C 	C 	0.2339	0.6858	-0	1.459
Mof_H 	H 	0.222	0.6416	-0	-1.438
Mof_O 	O 	0.306	0.575	-0	10.939
Mof_O 	O 	0.1713	0.9062	-0	-15.458
Mof_C 	C 	0.2661	0.8142	-0	1.456
Mof_H 	H 	0.278	0.8584	-0	-1.396
Mof_O 	O 	0.194	0.925	-0	11.113
Mof_O 	O 	0.1713	0.4062	0.5	-15.607
Mof_C 	C 	0.2661	0.3142	0.5	1.485
Mof_H 	H 	0.278	0.3584	0.5	-1.416
Mof_O 	O 	0.194	0.425	0.5	11.225
Mof_O 	O 	0.6713	0.9062	0.5	-14.433
Mof_C 	C 	0.7661	0.8142	0.5	1.387
Mof_H 	H 	0.778	0.8584	0.5	-1.267
Mof_O 	O 	0.694	0.925	0.5	10.398
Mof_O 	O 	0.6713	0.4062	-0	-15.542
Mof_C 	C 	0.7661	0.3142	-0	1.469
Mof_H 	H 	0.778	0.3584	-0	-1.413
Mof_O 	O 	0.694	0.425	-0	11.137
Mof_O 	O 	3.18362e-33	0.1713	0.0938	-16.275
Mof_C 	C 	2.1126e-33	0.2661	0.1858	1.663
Mof_H 	H 	3.36284e-33	0.278	0.1416	-1.552
Mof_O 	O 	2.40515e-33	0.194	0.075	11.635
Mof_O 	O 	7.89025e-33	0.6713	0.5938	-15.115
Mof_C 	C 	-8.75638e-33	0.7661	0.6858	1.569
Mof_H 	H 	1.93972e-32	0.778	0.6416	-1.427
Mof_O 	O 	2.1559e-33	0.694	0.575	10.77
Mof_O 	O 	0.5	0.1713	0.5938	-15.18
Mof_C 	C 	0.5	0.2661	0.6858	1.587
Mof_H 	H 	0.5	0.278	0.6416	-1.43
Mof_O 	O 	0.5	0.194	0.575	10.858
Mof_O 	O 	0.5	0.6713	0.0938	-15.241
Mof_C 	C 	0.5	0.7661	0.1858	1.594
Mof_H 	H 	0.5	0.778	0.1416	-1.421
Mof_O 	O 	0.5	0.694	0.075	10.917
Mof_O 	O 	3.39771e-33	0.8287	0.9062	-14.591
Mof_C 	C 	1.43805e-32	0.7339	0.8142	1.244
Mof_H 	H 	-1.94369e-32	0.722	0.8584	-1.278
Mof_O 	O 	3.46819e-33	0.806	0.925	10.456
Mof_O 	O 	1.52301e-33	0.3287	0.4062	-15.795
Mof_C 	C 	-1.65387e-33	0.2339	0.3142	1.358
Mof_H 	H 	-1.48814e-33	0.222	0.3584	-1.424
Mof_O 	O 	-4.07036e-33	0.306	0.425	11.308
Mof_O 	O 	0.5	0.8287	0.4062	-14.731
Mof_C 	C 	0.5	0.7339	0.3142	1.27
Mof_H 	H 	0.5	0.722	0.3584	-1.296
Mof_O 	O 	0.5	0.806	0.425	10.562
Mof_O 	O 	0.5	0.3287	0.9062	-14.678
Mof_C 	C 	0.5	0.2339	0.8142	1.275
Mof_H 	H 	0.5	0.222	0.8584	-1.275
Mof_O 	O 	0.5	0.306	0.925	10.567
Mof_O 	O 	3.18362e-33	0.8287	0.0938	-15.399
Mof_C 	C 	-3.55125e-33	0.7339	0.1858	1.449
Mof_H 	H 	-2.30101e-33	0.722	0.1416	-1.433
Mof_O 	O 	5.23708e-33	0.806	0.075	10.975
Mof_O 	O 	-3.43746e-33	0.3287	0.5938	-15.366
Mof_C 	C 	2.57134e-33	0.2339	0.6858	1.459
Mof_H 	H 	8.06947e-33	0.222	0.6416	-1.438
Mof_O 	O 	7.81976e-33	0.306	0.575	10.939
Mof_O 	O 	0.5	0.8287	0.5938	-14.322
Mof_C 	C 	0.5	0.7339	0.6858	1.374
Mof_H 	H 	0.5	0.722	0.6416	-1.311
Mof_O 	O 	0.5	0.806	0.575	10.211
Mof_O 	O 	0.5	0.3287	0.0938	-15.493
Mof_C 	C 	0.5	0.2339	0.1858	1.483
Mof_H 	H 	0.5	0.222	0.1416	-1.431
Mof_O 	O 	0.5	0.306	0.075	11.089
Mof_O 	O 	-7.93001e-33	0.1713	0.9062	-15.458
Mof_C 	C 	-2.6111e-33	0.2661	0.8142	1.456
Mof_H 	H 	3.21848e-33	0.278	0.8584	-1.396
Mof_O 	O 	3.46819e-33	0.194	0.925	11.113
Mof_O 	O 	-1.30892e-33	0.6713	0.4062	-15.542
Mof_C 	C 	-1.65387e-33	0.7661	0.3142	1.469
Mof_H 	H 	-4.32007e-33	0.778	0.3584	-1.413
Mof_O 	O 	1.59349e-33	0.694	0.425	11.137
Mof_O 	O 	0.5	0.1713	0.4062	-15.607
Mof_C 	C 	0.5	0.2661	0.3142	1.485
Mof_H 	H 	0.5	0.278	0.3584	-1.416
Mof_O 	O 	0.5	0.194	0.425	11.225
Mof_O 	O 	0.5	0.6713	0.9062	-14.433
Mof_C 	C 	0.5	0.7661	0.8142	1.387
Mof_H 	H 	0.5	0.778	0.8584	-1.267
Mof_O 	O 	0.5	0.694	0.925	10.398
Mof_O 	O 	0.0938	1.41596e-33	0.1713	-16.275
Mof_C 	C 	0.1858	0	0.2661	1.663
Mof_H 	H 	0.1416	2.83193e-33	0.278	-1.552
Mof_O 	O 	0.075	0	0.194	11.635
Mof_O 	O 	0.0938	0.5	0.6713	-15.241
Mof_C 	C 	0.1858	0.5	0.7661	1.594
Mof_H 	H 	0.1416	0.5	0.778	-1.421
Mof_O 	O 	0.075	0.5	0.694	10.917
Mof_O 	O 	0.5938	0	0.6713	-15.115
Mof_C 	C 	0.6858	-5.66386e-33	0.7661	1.569
Mof_H 	H 	0.6416	0	0.778	-1.427
Mof_O 	O 	0.575	0	0.694	10.77
Mof_O 	O 	0.5938	0.5	0.1713	-15.18
Mof_C 	C 	0.6858	0.5	0.2661	1.587
Mof_H 	H 	0.6416	0.5	0.278	-1.43
Mof_O 	O 	0.575	0.5	0.194	10.858
Mof_O 	O 	0.9062	5.66386e-33	0.8287	-14.591
Mof_C 	C 	0.8142	0	0.7339	1.244
Mof_H 	H 	0.8584	0	0.722	-1.278
Mof_O 	O 	0.925	0	0.806	10.456
Mof_O 	O 	0.9062	0.5	0.3287	-14.678
Mof_C 	C 	0.8142	0.5	0.2339	1.275
Mof_H 	H 	0.8584	0.5	0.222	-1.275
Mof_O 	O 	0.925	0.5	0.306	10.567
Mof_O 	O 	0.4062	0	0.3287	-15.795
Mof_C 	C 	0.3142	0	0.2339	1.358
Mof_H 	H 	0.3584	0	0.222	-1.424
Mof_O 	O 	0.425	0	0.306	11.308
Mof_O 	O 	0.4062	0.5	0.8287	-14.731
Mof_C 	C 	0.3142	0.5	0.7339	1.27
Mof_H 	H 	0.3584	0.5	0.722	-1.296
Mof_O 	O 	0.425	0.5	0.806	10.562
Mof_O 	O 	0.0938	5.66386e-33	0.8287	-15.399
Mof_C 	C 	0.1858	0	0.7339	1.449
Mof_H 	H 	0.1416	0	0.722	-1.433
Mof_O 	O 	0.075	0	0.806	10.975
Mof_O 	O 	0.0938	0.5	0.3287	-15.493
Mof_C 	C 	0.1858	0.5	0.2339	1.483
Mof_H 	H 	0.1416	0.5	0.222	-1.431
Mof_O 	O 	0.075	0.5	0.306	11.089
Mof_O 	O 	0.5938	0	0.3287	-15.366
Mof_C 	C 	0.6858	0	0.2339	1.459
Mof_H 	H 	0.6416	0	0.222	-1.438
Mof_O 	O 	0.575	0	0.306	10.939
Mof_O 	O 	0.5938	0.5	0.8287	-14.322
Mof_C 	C 	0.6858	0.5	0.7339	1.374
Mof_H 	H 	0.6416	0.5	0.722	-1.311
Mof_O 	O 	0.575	0.5	0.806	10.211
Mof_O 	O 	0.9062	1.41596e-33	0.1713	-15.458
Mof_C 	C 	0.8142	0	0.2661	1.456
Mof_H 	H 	0.8584	2.83193e-33	0.278	-1.396
Mof_O 	O 	0.925	0	0.194	11.113
Mof_O 	O 	0.9062	0.5	0.6713	-14.433
Mof_C 	C 	0.8142	0.5	0.7661	1.387
Mof_H 	H 	0.8584	0.5	0.778	-1.267
Mof_O 	O 	0.925	0.5	0.694	10.398
Mof_O 	O 	0.4062	0	0.6713	-15.542
Mof_C 	C 	0.3142	-5.66386e-33	0.7661	1.469
Mof_H 	H 	0.3584	0	0.778	-1.413
Mof_O 	O 	0.425	0	0.694	11.137
Mof_O 	O 	0.4062	0.5	0.1713	-15.607
Mof_C 	C 	0.3142	0.5	0.2661	1.485
Mof_H 	H 	0.3584	0.5	0.278	-1.416
Mof_O 	O 	0.425	0.5	0.194	11.225
Mof_O 	O 	0.0938	0.1713	-0	-16.275
Mof_C 	C 	0.1858	0.2661	-0	1.663
Mof_H 	H 	0.1416	0.278	-0	-1.552
Mof_O 	O 	0.075	0.194	-0	11.635
Mof_O 	O 	0.0938	0.6713	0.5	-15.241
Mof_C 	C 	0.1858	0.7661	0.5	1.594
Mof_H 	H 	0.1416	0.778	0.5	-1.421
Mof_O 	O 	0.075	0.694	0.5	10.917
Mof_O 	O 	0.5938	0.1713	0.5	-15.18
Mof_C 	C 	0.6858	0.2661	0.5	1.587
Mof_H 	H 	0.6416	0.278	0.5	-1.43
Mof_O 	O 	0.575	0.194	0.5	10.858
Mof_O 	O 	0.5938	0.6713	-0	-15.115
Mof_C 	C 	0.6858	0.7661	-0	1.569
Mof_H 	H 	0.6416	0.778	-0	-1.427
Mof_O 	O 	0.575	0.694	-0	10.77
Mof_O 	O 	0.9062	0.8287	-0	-14.591
Mof_C 	C 	0.8142	0.7339	-0	1.244
Mof_H 	H 	0.8584	0.722	-0	-1.278
Mof_O 	O 	0.925	0.806	-0	10.456
Mof_O 	O 	0.9062	0.3287	0.5	-14.678
Mof_C 	C 	0.8142	0.2339	0.5	1.275
Mof_H 	H 	0.8584	0.222	0.5	-1.275
Mof_O 	O 	0.925	0.306	0.5	10.567
Mof_O 	O 	0.4062	0.8287	0.5	-14.731
Mof_C 	C 	0.3142	0.7339	0.5	1.27
Mof_H 	H 	0.3584	0.722	0.5	-1.296
Mof_O 	O 	0.425	0.806	0.5	10.562
Mof_O 	O 	0.4062	0.3287	-0	-15.795
Mof_C 	C 	0.3142	0.2339	-0	1.358
Mof_H 	H 	0.3584	0.222	-0	-1.424
Mof_O 	O 	0.425	0.306	-0	11.308
Mof_O 	O 	0.0938	0.8287	-0	-15.399
Mof_C 	C 	0.1858	0.7339	-0	1.449
Mof_H 	H 	0.1416	0.722	-0	-1.433
Mof_O 	O 	0.075	0.806	-0	10.975
Mof_O 	O 	0.0938	0.3287	0.5	-15.493
Mof_C 	C 	0.1858	0.2339	0.5	1.483
Mof_H 	H 	0.1416	0.222	0.5	-1.431
Mof_O 	O 	0.075	0.306	0.5	11.089
Mof_O 	O 	0.5938	0.8287	0.5	-14.322
Mof_C 	C 	0.6858	0.7339	0.5	1.374
Mof_H 	H 	0.6416	0.722	0.5	-1.311
Mof_O 	O 	0.575	0.806	0.5	10.211
Mof_O 	O 	0.5938	0.3287	-0	-15.366
Mof_C 	C 	0.6858	0.2339	-0	1.459
Mof_H 	H 	0.6416	0.222	-0	-1.438
Mof_O 	O 	0.575	0.306	-0	10.939
Mof_O 	O 	0.9062	0.1713	-0	-15.458
Mof_C 	C 	0.8142	0.2661	-0	1.456
Mof_H 	H 	0.8584	0.278	-0	-1.396
Mof_O 	O 	0.925	0.194	-0	11.113
Mof_O 	O 	0.9062	0.6713	0.5	-14.433
Mof_C 	C 	0.8142	0.7661	0.5	1.387
Mof_H 	H 	0.8584	0.778	0.5	-1.267
Mof_O 	O 	0.925	0.694	0.5	10.398
Mof_O 	O 	0.4062	0.1713	0.5	-15.607
Mof_C 	C 	0.3142	0.2661	0.5	1.485
Mof_H 	H 	0.3584	0.278	0.5	-1.416
Mof_O 	O 	0.425	0.194	0.5	11.225
Mof_O 	O 	0.4062	0.6713	-0	-15.542
Mof_C 	C 	0.3142	0.7661	-0	1.469
Mof_H 	H 	0.3584	0.778	-0	-1.413
Mof_O 	O 	0.425	0.694	-0	11.137
Mof_O 	O 	0.1713	0	0.9062	-15.458
Mof_C 	C 	0.2661	0	0.8142	1.456
Mof_H 	H 	0.278	0	0.8584	-1.396
Mof_O 	O 	0.194	0	0.925	11.113
Mof_O 	O 	0.1713	0.5	0.4062	-15.607
Mof_C 	C 	0.2661	0.5	0.3142	1.485
Mof_H 	H 	0.278	0.5	0.3584	-1.416
Mof_O 	O 	0.194	0.5	0.425	11.225
Mof_O 	O 	0.6713	0	0.4062	-15.542
Mof_C 	C 	0.7661	0	0.3142	1.469
Mof_H 	H 	0.778	0	0.3584	-1.413
Mof_O 	O 	0.694	-5.66386e-33	0.425	11.137
Mof_O 	O 	0.6713	0.5	0.9062	-14.433
Mof_C 	C 	0.7661	0.5	0.8142	1.387
Mof_H 	H 	0.778	0.5	0.8584	-1.267
Mof_O 	O 	0.694	0.5	0.925	10.398
Mof_O 	O 	0.8287	7.07982e-34	0.0938	-15.399
Mof_C 	C 	0.7339	0	0.1858	1.449
Mof_H 	H 	0.722	1.41596e-33	0.1416	-1.433
Mof_O 	O 	0.806	0	0.075	10.975
Mof_O 	O 	0.8287	0.5	0.5938	-14.322
Mof_C 	C 	0.7339	0.5	0.6858	1.374
Mof_H 	H 	0.722	0.5	0.6416	-1.311
Mof_O 	O 	0.806	0.5	0.575	10.211
Mof_O 	O 	0.3287	0	0.5938	-15.366
Mof_C 	C 	0.2339	0	0.6858	1.459
Mof_H 	H 	0.222	5.66386e-33	0.6416	-1.438
Mof_O 	O 	0.306	0	0.575	10.939
Mof_O 	O 	0.3287	0.5	0.0938	-15.493
Mof_C 	C 	0.2339	0.5	0.1858	1.483
Mof_H 	H 	0.222	0.5	0.1416	-1.431
Mof_O 	O 	0.306	0.5	0.075	11.089
Mof_O 	O 	0.8287	0	0.9062	-14.591
Mof_C 	C 	0.7339	0	0.8142	1.244
Mof_H 	H 	0.722	0	0.8584	-1.278
Mof_O 	O 	0.806	0	0.925	10.456
Mof_O 	O 	0.8287	0.5	0.4062	-14.731
Mof_C 	C 	0.7339	0.5	0.3142	1.27
Mof_H 	H 	0.722	0.5	0.3584	-1.296
Mof_O 	O 	0.806	0.5	0.425	10.562
Mof_O 	O 	0.3287	0	0.4062	-15.795
Mof_C 	C 	0.2339	0	0.3142	1.358
Mof_H 	H 	0.222	0	0.3584	-1.424
Mof_O 	O 	0.306	-5.66386e-33	0.425	11.308
Mof_O 	O 	0.3287	0.5	0.9062	-14.678
Mof_C 	C 	0.2339	0.5	0.8142	1.275
Mof_H 	H 	0.222	0.5	0.8584	-1.275
Mof_O 	O 	0.306	0.5	0.925	10.567
Mof_O 	O 	0.1713	7.07982e-34	0.0938	-16.275
Mof_C 	C 	0.2661	0	0.1858	1.663
Mof_H 	H 	0.278	1.41596e-33	0.1416	-1.552
Mof_O 	O 	0.194	0	0.075	11.635
Mof_O 	O 	0.1713	0.5	0.5938	-15.18
Mof_C 	C 	0.2661	0.5	0.6858	1.587
Mof_H 	H 	0.278	0.5	0.6416	-1.43
Mof_O 	O 	0.194	0.5	0.575	10.858
Mof_O 	O 	0.6713	0	0.5938	-15.115
Mof_C 	C 	0.7661	0	0.6858	1.569
Mof_H 	H 	0.778	5.66386e-33	0.6416	-1.427
Mof_O 	O 	0.694	0	0.575	10.77
Mof_O 	O 	0.6713	0.5	0.0938	-15.241
Mof_C 	C 	0.7661	0.5	0.1858	1.594
Mof_H 	H 	0.778	0.5	0.1416	-1.421
Mof_O 	O 	0.694	0.5	0.075	10.917
Mof_O 	O 	3.10713e-33	0.0938	0.8287	-15.399
Mof_C 	C 	-2.91217e-33	0.1858	0.7339	1.449
Mof_H 	H 	-2.95679e-33	0.1416	0.722	-1.433
Mof_O 	O 	3.02202e-33	0.075	0.806	10.975
Mof_O 	O 	1.23243e-33	0.5938	0.3287	-15.366
Mof_C 	C 	8.76985e-34	0.6858	0.2339	1.459
Mof_H 	H 	1.21601e-32	0.6416	0.222	-1.438
Mof_O 	O 	6.81117e-33	0.575	0.306	10.939
Mof_O 	O 	0.5	0.0938	0.3287	-15.493
Mof_C 	C 	0.5	0.1858	0.2339	1.483
Mof_H 	H 	0.5	0.1416	0.222	-1.431
Mof_O 	O 	0.5	0.075	0.306	11.089
Mof_O 	O 	0.5	0.5938	0.8287	-14.322
Mof_C 	C 	0.5	0.6858	0.7339	1.374
Mof_H 	H 	0.5	0.6416	0.722	-1.311
Mof_O 	O 	0.5	0.575	0.806	10.211
Mof_O 	O 	-2.18966e-33	0.9062	0.1713	-15.458
Mof_C 	C 	-4.66614e-33	0.8142	0.2661	1.456
Mof_H 	H 	6.70619e-33	0.8584	0.278	-1.396
Mof_O 	O 	7.27383e-34	0.925	0.194	11.113
Mof_O 	O 	2.51697e-33	0.4062	0.6713	-15.542
Mof_C 	C 	-2.79144e-33	0.3142	0.7661	1.469
Mof_H 	H 	-8.41068e-33	0.3584	0.778	-1.413
Mof_O 	O 	2.60208e-33	0.425	0.694	11.137
Mof_O 	O 	0.5	0.9062	0.6713	-14.433
Mof_C 	C 	0.5	0.8142	0.7661	1.387
Mof_H 	H 	0.5	0.8584	0.778	-1.267
Mof_O 	O 	0.5	0.925	0.694	10.398
Mof_O 	O 	0.5	0.4062	0.1713	-15.607
Mof_C 	C 	0.5	0.3142	0.2661	1.485
Mof_H 	H 	0.5	0.3584	0.278	-1.416
Mof_O 	O 	0.5	0.425	0.194	11.225
Mof_O 	O 	3.4742e-33	0.0938	0.1713	-16.275
Mof_C 	C 	9.97715e-34	0.1858	0.2661	1.663
Mof_H 	H 	1.04233e-33	0.1416	0.278	-1.552
Mof_O 	O 	2.14335e-33	0.075	0.194	11.635
Mof_O 	O 	8.18083e-33	0.5938	0.6713	-15.115
Mof_C 	C 	-1.41192e-32	0.6858	0.7661	1.569
Mof_H 	H 	1.42447e-32	0.6416	0.778	-1.427
Mof_O 	O 	2.60208e-33	0.575	0.694	10.77
Mof_O 	O 	0.5	0.0938	0.6713	-15.241
Mof_C 	C 	0.5	0.1858	0.7661	1.594
Mof_H 	H 	0.5	0.1416	0.778	-1.421
Mof_O 	O 	0.5	0.075	0.694	10.917
Mof_O 	O 	0.5	0.5938	0.1713	-15.18
Mof_C 	C 	0.5	0.6858	0.2661	1.587
Mof_H 	H 	0.5	0.6416	0.278	-1.43
Mof_O 	O 	0.5	0.575	0.194	10.858
Mof_O 	O 	3.10713e-33	0.9062	0.8287	-14.591
Mof_C 	C 	1.97433e-32	0.8142	0.7339	1.244
Mof_H 	H 	-8.62065e-33	0.8584	0.722	-1.278
Mof_O 	O 	3.02202e-33	0.925	0.806	10.456
Mof_O 	O 	4.06436e-33	0.4062	0.3287	-15.795
Mof_C 	C 	-1.95494e-33	0.3142	0.2339	1.358
Mof_H 	H 	8.32367e-34	0.3584	0.222	-1.424
Mof_O 	O 	-4.51654e-33	0.425	0.306	11.308
Mof_O 	O 	0.5	0.9062	0.3287	-14.678
Mof_C 	C 	0.5	0.8142	0.2339	1.275
Mof_H 	H 	0.5	0.8584	0.222	-1.275
Mof_O 	O 	0.5	0.925	0.306	10.567
Mof_O 	O 	0.5	0.4062	0.8287	-14.731
Mof_C 	C 	0.5	0.3142	0.7339	1.27
Mof_H 	H 	0.5	0.3584	0.722	-1.296
Mof_O 	O 	0.5	0.425	0.806	10.562
Mof_C 	C 	0.1518	0.1518	-0	12.531
Mof_C 	C 	0.2029	0.2029	-0	-5.276
Mof_C 	C 	0.1518	0.6518	0.5	11.775
Mof_C 	C 	0.2029	0.7029	0.5	-4.93
Mof_C 	C 	0.6518	0.1518	0.5	11.775
Mof_C 	C 	0.7029	0.2029	0.5	-4.93
Mof_C 	C 	0.6518	0.6518	-0	11.638
Mof_C 	C 	0.7029	0.7029	-0	-4.905
Mof_C 	C 	0.8482	0.8482	-0	11.214
Mof_C 	C 	0.7971	0.7971	-0	-4.53
Mof_C 	C 	0.8482	0.3482	0.5	11.345
Mof_C 	C 	0.7971	0.2971	0.5	-4.57
Mof_C 	C 	0.3482	0.8482	0.5	11.345
Mof_C 	C 	0.2971	0.7971	0.5	-4.57
Mof_C 	C 	0.3482	0.3482	-0	12.101
Mof_C 	C 	0.2971	0.2971	-0	-4.936
Mof_C 	C 	0.8482	0.1518	-0	11.869
Mof_C 	C 	0.7971	0.2029	-0	-4.901
Mof_C 	C 	0.8482	0.6518	0.5	11.122
Mof_C 	C 	0.7971	0.7029	0.5	-4.56
Mof_C 	C 	0.3482	0.1518	0.5	12.007
Mof_C 	C 	0.2971	0.2029	0.5	-4.945
Mof_C 	C 	0.3482	0.6518	-0	11.869
Mof_C 	C 	0.2971	0.7029	-0	-4.921
Mof_C 	C 	0.1518	0.8482	-0	11.869
Mof_C 	C 	0.2029	0.7971	-0	-4.901
Mof_C 	C 	0.1518	0.3482	0.5	12.007
Mof_C 	C 	0.2029	0.2971	0.5	-4.945
Mof_C 	C 	0.6518	0.8482	0.5	11.122
Mof_C 	C 	0.7029	0.7971	0.5	-4.56
Mof_C 	C 	0.6518	0.3482	-0	11.869
Mof_C 	C 	0.7029	0.2971	-0	-4.921
Mof_C 	C 	5.69159e-34	0.1518	0.1518	12.531
Mof_C 	C 	7.60753e-34	0.2029	0.2029	-5.276
Mof_C 	C 	2.44386e-33	0.6518	0.6518	11.638
Mof_C 	C 	-1.43561e-32	0.7029	0.7029	-4.905
Mof_C 	C 	0.5	0.1518	0.6518	11.775
Mof_C 	C 	0.5	0.2029	0.7029	-4.93
Mof_C 	C 	0.5	0.6518	0.1518	11.775
Mof_C 	C 	0.5	0.7029	0.2029	-4.93
Mof_C 	C 	3.18024e-33	0.8482	0.8482	11.214
Mof_C 	C 	1.43164e-32	0.7971	0.7971	-4.53
Mof_C 	C 	1.30554e-33	0.3482	0.3482	12.101
Mof_C 	C 	1.11395e-33	0.2971	0.2971	-4.936
Mof_C 	C 	0.5	0.8482	0.3482	11.345
Mof_C 	C 	0.5	0.7971	0.2971	-4.57
Mof_C 	C 	0.5	0.3482	0.8482	11.345
Mof_C 	C 	0.5	0.2971	0.7971	-4.57
Mof_C 	C 	9.06494e-33	0.8482	0.1518	11.869
Mof_C 	C 	5.00865e-33	0.7971	0.2029	-4.901
Mof_C 	C 	-3.22e-33	0.3482	0.6518	11.869
Mof_C 	C 	-8.69226e-33	0.2971	0.7029	-4.921
Mof_C 	C 	0.5	0.8482	0.6518	11.122
Mof_C 	C 	0.5	0.7971	0.7029	-4.56
Mof_C 	C 	0.5	0.3482	0.1518	12.007
Mof_C 	C 	0.5	0.2971	0.2029	-4.945
Mof_C 	C 	3.18024e-33	0.1518	0.8482	11.869
Mof_C 	C 	2.98865e-33	0.2029	0.7971	-4.901
Mof_C 	C 	-1.52639e-33	0.6518	0.3482	11.869
Mof_C 	C 	-4.54991e-33	0.7029	0.2971	-4.921
Mof_C 	C 	0.5	0.1518	0.3482	12.007
Mof_C 	C 	0.5	0.2029	0.2971	-4.945
Mof_C 	C 	0.5	0.6518	0.8482	11.122
Mof_C 	C 	0.5	0.7029	0.7971	-4.56
Mof_C 	C 	0.1518	0	0.1518	12.531
Mof_C 	C 	0.2029	0	0.2029	-5.276
Mof_C 	C 	0.1518	0.5	0.6518	11.775
Mof_C 	C 	0.2029	0.5	0.7029	-4.93
Mof_C 	C 	0.6518	0	0.6518	11.638
Mof_C 	C 	0.7029	-5.66386e-33	0.7029	-4.905
Mof_C 	C 	0.6518	0.5	0.1518	11.775
Mof_C 	C 	0.7029	0.5	0.2029	-4.93
Mof_C 	C 	0.8482	0	0.8482	11.214
Mof_C 	C 	0.7971	5.66386e-33	0.7971	-4.53
Mof_C 	C 	0.8482	0.5	0.3482	11.345
Mof_C 	C 	0.7971	0.5	0.2971	-4.57
Mof_C 	C 	0.3482	0	0.3482	12.101
Mof_C 	C 	0.2971	0	0.2971	-4.936
Mof_C 	C 	0.3482	0.5	0.8482	11.345
Mof_C 	C 	0.2971	0.5	0.7971	-4.57
Mof_C 	C 	0.1518	0	0.8482	11.869
Mof_C 	C 	0.2029	5.66386e-33	0.7971	-4.901
Mof_C 	C 	0.1518	0.5	0.3482	12.007
Mof_C 	C 	0.2029	0.5	0.2971	-4.945
Mof_C 	C 	0.6518	0	0.3482	11.869
Mof_C 	C 	0.7029	0	0.2971	-4.921
Mof_C 	C 	0.6518	0.5	0.8482	11.122
Mof_C 	C 	0.7029	0.5	0.7971	-4.56
Mof_C 	C 	0.8482	0	0.1518	11.869
Mof_C 	C 	0.7971	0	0.2029	-4.901
Mof_C 	C 	0.8482	0.5	0.6518	11.122
Mof_C 	C 	0.7971	0.5	0.7029	-4.56
Mof_C 	C 	0.3482	0	0.6518	11.869
Mof_C 	C 	0.2971	-5.66386e-33	0.7029	-4.921
Mof_C 	C 	0.3482	0.5	0.1518	12.007
Mof_C 	C 	0.2971	0.5	0.2029	-4.945
Mof_O 	O 	0.0685	0.0685	0.0685	4.463
Mof_O 	O 	0.0509	0.0509	0.0509	-3.991
Mof_H 	H 	0.0963	0.0963	0.0963	-0.916
Mof_O 	O 	0.0685	0.5685	0.5685	3.069
Mof_O 	O 	0.0509	0.5509	0.5509	-2.737
Mof_H 	H 	0.0963	0.5963	0.5963	-0.537
Mof_O 	O 	0.5685	0.0685	0.5685	3.069
Mof_O 	O 	0.5509	0.0509	0.5509	-2.737
Mof_H 	H 	0.5963	0.0963	0.5963	-0.537
Mof_O 	O 	0.5685	0.5685	0.0685	3.069
Mof_O 	O 	0.5509	0.5509	0.0509	-2.737
Mof_H 	H 	0.5963	0.5963	0.0963	-0.537
Mof_O 	O 	0.9315	0.9315	0.0685	1.895
Mof_O 	O 	0.9491	0.9491	0.0509	-1.534
Mof_H 	H 	0.9037	0.9037	0.0963	-0.089
Mof_O 	O 	0.9315	0.4315	0.5685	1.957
Mof_O 	O 	0.9491	0.4491	0.5509	-1.652
Mof_H 	H 	0.9037	0.4037	0.5963	-0.168
Mof_O 	O 	0.4315	0.9315	0.5685	1.957
Mof_O 	O 	0.4491	0.9491	0.5509	-1.652
Mof_H 	H 	0.4037	0.9037	0.5963	-0.168
Mof_O 	O 	0.4315	0.4315	0.0685	3.181
Mof_O 	O 	0.4491	0.4491	0.0509	-2.807
Mof_H 	H 	0.4037	0.4037	0.0963	-0.56
Mof_O 	O 	0.9315	0.0685	0.9315	1.895
Mof_O 	O 	0.9491	0.0509	0.9491	-1.534
Mof_H 	H 	0.9037	0.0963	0.9037	-0.089
Mof_O 	O 	0.9315	0.5685	0.4315	1.957
Mof_O 	O 	0.9491	0.5509	0.4491	-1.652
Mof_H 	H 	0.9037	0.5963	0.4037	-0.168
Mof_O 	O 	0.4315	0.0685	0.4315	3.181
Mof_O 	O 	0.4491	0.0509	0.4491	-2.807
Mof_H 	H 	0.4037	0.0963	0.4037	-0.56
Mof_O 	O 	0.4315	0.5685	0.9315	1.957
Mof_O 	O 	0.4491	0.5509	0.9491	-1.652
Mof_H 	H 	0.4037	0.5963	0.9037	-0.168
Mof_O 	O 	0.0685	0.9315	0.9315	1.895
Mof_O 	O 	0.0509	0.9491	0.9491	-1.534
Mof_H 	H 	0.0963	0.9037	0.9037	-0.089
Mof_O 	O 	0.0685	0.4315	0.4315	3.181
Mof_O 	O 	0.0509	0.4491	0.4491	-2.807
Mof_H 	H 	0.0963	0.4037	0.4037	-0.56
Mof_O 	O 	0.5685	0.9315	0.4315	1.957
Mof_O 	O 	0.5509	0.9491	0.4491	-1.652
Mof_H 	H 	0.5963	0.9037	0.4037	-0.168
Mof_O 	O 	0.5685	0.4315	0.9315	1.957
Mof_O 	O 	0.5509	0.4491	0.9491	-1.652
Mof_H 	H 	0.5963	0.4037	0.9037	-0.168
Mof_O 	O 	0.0685	0.0685	0.9315	3.026
Mof_O 	O 	0.0509	0.0509	0.9491	-2.617
Mof_H 	H 	0.0963	0.0963	0.9037	-0.456
Mof_O 	O 	0.0685	0.5685	0.4315	3.124
Mof_O 	O 	0.0509	0.5509	0.4491	-2.772
Mof_H 	H 	0.0963	0.5963	0.4037	-0.548
Mof_O 	O 	0.5685	0.0685	0.4315	3.124
Mof_O 	O 	0.5509	0.0509	0.4491	-2.772
Mof_H 	H 	0.5963	0.0963	0.4037	-0.548
Mof_O 	O 	0.5685	0.5685	0.9315	1.921
Mof_O 	O 	0.5509	0.5509	0.9491	-1.636
Mof_H 	H 	0.5963	0.5963	0.9037	-0.163
Mof_O 	O 	0.9315	0.9315	0.9315	1.072
Mof_O 	O 	0.9491	0.9491	0.9491	-0.744
Mof_H 	H 	0.9037	0.9037	0.9037	0.185
Mof_O 	O 	0.9315	0.4315	0.4315	1.995
Mof_O 	O 	0.9491	0.4491	0.4491	-1.669
Mof_H 	H 	0.9037	0.4037	0.4037	-0.174
Mof_O 	O 	0.4315	0.9315	0.4315	1.995
Mof_O 	O 	0.4491	0.9491	0.4491	-1.669
Mof_H 	H 	0.4037	0.9037	0.4037	-0.174
Mof_O 	O 	0.4315	0.4315	0.9315	1.995
Mof_O 	O 	0.4491	0.4491	0.9491	-1.669
Mof_H 	H 	0.4037	0.4037	0.9037	-0.174
Mof_O 	O 	0.0685	0.9315	0.0685	3.026
Mof_O 	O 	0.0509	0.9491	0.0509	-2.617
Mof_H 	H 	0.0963	0.9037	0.0963	-0.456
Mof_O 	O 	0.0685	0.4315	0.5685	3.124
Mof_O 	O 	0.0509	0.4491	0.5509	-2.772
Mof_H 	H 	0.0963	0.4037	0.5963	-0.548
Mof_O 	O 	0.5685	0.9315	0.5685	1.921
Mof_O 	O 	0.5509	0.9491	0.5509	-1.636
Mof_H 	H 	0.5963	0.9037	0.5963	-0.163
Mof_O 	O 	0.5685	0.4315	0.0685	3.124
Mof_O 	O 	0.5509	0.4491	0.0509	-2.772
Mof_H 	H 	0.5963	0.4037	0.0963	-0.548
Mof_O 	O 	0.9315	0.0685	0.0685	3.026
Mof_O 	O 	0.9491	0.0509	0.0509	-2.617
Mof_H 	H 	0.9037	0.0963	0.0963	-0.456
Mof_O 	O 	0.9315	0.5685	0.5685	1.921
Mof_O 	O 	0.9491	0.5509	0.5509	-1.636
Mof_H 	H 	0.9037	0.5963	0.5963	-0.163
Mof_O 	O 	0.4315	0.0685	0.5685	3.124
Mof_O 	O 	0.4491	0.0509	0.5509	-2.772
Mof_H 	H 	0.4037	0.0963	0.5963	-0.548
Mof_O 	O 	0.4315	0.5685	0.0685	3.124
Mof_O 	O 	0.4491	0.5509	0.0509	-2.772
Mof_H 	H 	0.4037	0.5963	0.0963	-0.548
_end
