data_functionalizedCrystal
_audit_creation_method	'EQeq! by Chris Wilmer'
_symmetry_space_group_name_H-M	'P1'
_symmetry_Int_Tables_number	1
_symmetry_cell_setting	triclinic
loop_
_symmetry_equiv_pos_as_xyz
  x,y,z
_cell_length_a	11.9144
_cell_length_b	14.0146
_cell_length_c	15.7686
_cell_angle_alpha	91.9017
_cell_angle_beta	112.197
_cell_angle_gamma	90
loop_
_atom_site_label
_atom_site_type_symbol
_atom_site_fract_x
_atom_site_fract_y
_atom_site_fract_z
_atom_site_charge
Mof_Cd	Cd	0.44796	0.37246	0.45452	0.462
Mof_Cd	Cd	0.99344	0.12754	0.54548	0.458
Mof_Cd	Cd	0.55204	0.62754	0.54548	0.461
Mof_Cd	Cd	0.00656	0.87246	0.45452	0.461
Mof_H 	H 	0.3106	0.4099	0.241	0.015
Mof_H 	H 	0.3311	0.4075	0.1026	0.046
Mof_H 	H 	0.6893	0.3831	0.2374	0.057
Mof_H 	H 	0.6574	0.3859	0.3718	0.026
Mof_H 	H 	0.648	0.3724	-0	0.209
Mof_H 	H 	0.6918	0.3208	0.0934	0.208
Mof_H 	H 	0.6991	0.4324	0.0926	0.21
Mof_H 	H 	0.2282	0.3697	0.8992	0.272
Mof_H 	H 	0.1849	0.3073	0.808	0.27
Mof_H 	H 	0.1815	0.4189	0.8044	0.257
Mof_H 	H 	0.1935	0.3703	0.661	0.067
Mof_H 	H 	0.2352	0.3653	0.5312	0.035
Mof_H 	H 	0.5784	0.34	0.671	0.021
Mof_H 	H 	0.5493	0.3485	0.8056	0.052
Mof_H 	H 	0.1025	0.1861	0.2844	0.085
Mof_H 	H 	0.2025	0.1373	0.2566	0.063
Mof_H 	H 	0.1359	0.0216	0.3244	0.118
Mof_H 	H 	0.2638	0.0522	0.3964	0.128
Mof_H 	H 	0.0696	0.0901	0.759	0.02
Mof_H 	H 	0.2285	0.0925	0.8974	0.062
Mof_H 	H 	0.4519	0.1169	0.7626	0.055
Mof_H 	H 	0.2856	0.1141	0.6282	0.027
Mof_H 	H 	0.648	0.1276	-0	0.178
Mof_H 	H 	0.5984	0.1792	0.9066	0.197
Mof_H 	H 	0.6065	0.0676	0.9074	0.197
Mof_H 	H 	0.329	0.1303	0.1008	0.249
Mof_H 	H 	0.3769	0.1927	0.192	0.256
Mof_H 	H 	0.3771	0.0811	0.1956	0.243
Mof_H 	H 	0.5325	0.1297	0.339	0.067
Mof_H 	H 	0.704	0.1347	0.4688	0.035
Mof_H 	H 	0.9074	0.16	0.329	0.019
Mof_H 	H 	0.7437	0.1515	0.1944	0.046
Mof_H 	H 	0.8181	0.3139	0.7156	0.089
Mof_H 	H 	0.9459	0.3627	0.7434	0.067
Mof_H 	H 	0.8115	0.4784	0.6756	0.119
Mof_H 	H 	0.8674	0.4478	0.6036	0.127
Mof_H 	H 	0.6894	0.5901	0.759	0.019
Mof_H 	H 	0.6689	0.5925	0.8974	0.061
Mof_H 	H 	0.3107	0.6169	0.7626	0.056
Mof_H 	H 	0.3426	0.6141	0.6282	0.027
Mof_H 	H 	0.352	0.6276	-0	0.18
Mof_H 	H 	0.3082	0.6792	0.9066	0.198
Mof_H 	H 	0.3009	0.5676	0.9074	0.198
Mof_H 	H 	0.7718	0.6303	0.1008	0.248
Mof_H 	H 	0.8151	0.6927	0.192	0.255
Mof_H 	H 	0.8185	0.5811	0.1956	0.241
Mof_H 	H 	0.8065	0.6297	0.339	0.066
Mof_H 	H 	0.7648	0.6347	0.4688	0.035
Mof_H 	H 	0.4216	0.66	0.329	0.02
Mof_H 	H 	0.4507	0.6515	0.1944	0.047
Mof_H 	H 	0.8975	0.8139	0.7156	0.089
Mof_H 	H 	0.7975	0.8627	0.7434	0.068
Mof_H 	H 	0.8641	0.9784	0.6756	0.119
Mof_H 	H 	0.7362	0.9478	0.6036	0.128
Mof_H 	H 	0.9304	0.9099	0.241	0.014
Mof_H 	H 	0.7715	0.9075	0.1026	0.045
Mof_H 	H 	0.5481	0.8831	0.2374	0.057
Mof_H 	H 	0.7144	0.8859	0.3718	0.026
Mof_H 	H 	0.352	0.8724	-0	0.21
Mof_H 	H 	0.4016	0.8208	0.0934	0.209
Mof_H 	H 	0.3935	0.9324	0.0926	0.21
Mof_H 	H 	0.671	0.8697	0.8992	0.27
Mof_H 	H 	0.6231	0.8073	0.808	0.269
Mof_H 	H 	0.6229	0.9189	0.8044	0.255
Mof_H 	H 	0.4675	0.8703	0.661	0.066
Mof_H 	H 	0.296	0.8653	0.5312	0.035
Mof_H 	H 	0.0926	0.84	0.671	0.022
Mof_H 	H 	0.2563	0.8485	0.8056	0.052
Mof_H 	H 	0.1819	0.6861	0.2844	0.084
Mof_H 	H 	0.0541	0.6373	0.2566	0.063
Mof_H 	H 	0.1885	0.5216	0.3244	0.118
Mof_H 	H 	0.1326	0.5522	0.3964	0.128
Mof_C 	C 	0.38772	0.403	0.23984	0.044
Mof_C 	C 	0.39886	0.4014	0.15632	-0.096
Mof_C 	C 	0.51261	0.3906	0.15362	-0.006
Mof_C 	C 	0.61084	0.3869	0.23628	-0.094
Mof_C 	C 	0.5909	0.389	0.3168	0.061
Mof_C 	C 	0.5275	0.3829	0.063	0.18
Mof_C 	C 	0.65291	0.3766	0.06222	-0.642
Mof_C 	C 	0.2252	0.3656	0.8374	-0.796
Mof_C 	C 	0.34938	0.3669	0.83876	0.265
Mof_C 	C 	0.36769	0.3611	0.74978	-0.034
Mof_C 	C 	0.27318	0.3653	0.66516	-0.08
Mof_C 	C 	0.29941	0.3621	0.58762	0.062
Mof_C 	C 	0.50009	0.3479	0.66938	0.052
Mof_C 	C 	0.48328	0.3519	0.75036	-0.073
Mof_C 	C 	0.27436	0.2375	0.36252	0.326
Mof_C 	C 	0.18296	0.1591	0.30832	-0.169
Mof_C 	C 	0.1814	0.0734	0.3652	-0.273
Mof_C 	C 	0.12622	0.095	0.43464	0.368
Mof_C 	C 	0.14788	0.097	0.76016	0.044
Mof_C 	C 	0.24254	0.0986	0.84368	-0.089
Mof_C 	C 	0.35899	0.1094	0.84638	-0.011
Mof_C 	C 	0.37456	0.1131	0.76372	-0.089
Mof_C 	C 	0.2741	0.111	0.6832	0.059
Mof_C 	C 	0.4645	0.1171	0.937	0.227
Mof_C 	C 	0.59069	0.1234	0.93778	-0.571
Mof_C 	C 	0.3878	0.1344	0.1626	-0.763
Mof_C 	C 	0.51062	0.1331	0.16124	0.253
Mof_C 	C 	0.61791	0.1389	0.25022	-0.031
Mof_C 	C 	0.60802	0.1347	0.33484	-0.082
Mof_C 	C 	0.71179	0.1379	0.41238	0.063
Mof_C 	C 	0.83071	0.1521	0.33062	0.052
Mof_C 	C 	0.73292	0.1481	0.24964	-0.074
Mof_C 	C 	0.91184	0.2625	0.63748	0.328
Mof_C 	C 	0.87464	0.3409	0.69168	-0.172
Mof_C 	C 	0.8162	0.4266	0.6348	-0.272
Mof_C 	C 	0.69158	0.405	0.56536	0.368
Mof_C 	C 	0.61228	0.597	0.76016	0.044
Mof_C 	C 	0.60114	0.5986	0.84368	-0.089
Mof_C 	C 	0.48739	0.6094	0.84638	-0.012
Mof_C 	C 	0.38916	0.6131	0.76372	-0.089
Mof_C 	C 	0.4091	0.611	0.6832	0.059
Mof_C 	C 	0.4725	0.6171	0.937	0.227
Mof_C 	C 	0.34709	0.6234	0.93778	-0.573
Mof_C 	C 	0.7748	0.6344	0.1626	-0.76
Mof_C 	C 	0.65062	0.6331	0.16124	0.252
Mof_C 	C 	0.63231	0.6389	0.25022	-0.031
Mof_C 	C 	0.72682	0.6347	0.33484	-0.082
Mof_C 	C 	0.70059	0.6379	0.41238	0.063
Mof_C 	C 	0.49991	0.6521	0.33062	0.052
Mof_C 	C 	0.51672	0.6481	0.24964	-0.074
Mof_C 	C 	0.72564	0.7625	0.63748	0.328
Mof_C 	C 	0.81704	0.8409	0.69168	-0.172
Mof_C 	C 	0.8186	0.9266	0.6348	-0.272
Mof_C 	C 	0.87378	0.905	0.56536	0.368
Mof_C 	C 	0.85212	0.903	0.23984	0.044
Mof_C 	C 	0.75746	0.9014	0.15632	-0.096
Mof_C 	C 	0.64101	0.8906	0.15362	-0.006
Mof_C 	C 	0.62544	0.8869	0.23628	-0.093
Mof_C 	C 	0.7259	0.889	0.3168	0.061
Mof_C 	C 	0.5355	0.8829	0.063	0.181
Mof_C 	C 	0.40931	0.8766	0.06222	-0.643
Mof_C 	C 	0.6122	0.8656	0.8374	-0.793
Mof_C 	C 	0.48938	0.8669	0.83876	0.264
Mof_C 	C 	0.38209	0.8611	0.74978	-0.034
Mof_C 	C 	0.39198	0.8653	0.66516	-0.081
Mof_C 	C 	0.28821	0.8621	0.58762	0.062
Mof_C 	C 	0.16929	0.8479	0.66938	0.052
Mof_C 	C 	0.26708	0.8519	0.75036	-0.073
Mof_C 	C 	0.08816	0.7375	0.36252	0.326
Mof_C 	C 	0.12536	0.6591	0.30832	-0.168
Mof_C 	C 	0.1838	0.5734	0.3652	-0.274
Mof_C 	C 	0.30842	0.595	0.43464	0.368
Mof_N 	N 	0.48155	0.3951	0.3197	-0.141
Mof_N 	N 	0.42775	0.3799	0.9925	-0.106
Mof_N 	N 	0.44546	0.3715	0.90912	-0.142
Mof_N 	N 	0.40991	0.3546	0.58802	-0.134
Mof_N 	N 	0.16185	0.1049	0.6803	-0.139
Mof_N 	N 	0.43525	0.1201	0.0075	-0.153
Mof_N 	N 	0.53634	0.1285	0.09088	-0.149
Mof_N 	N 	0.82189	0.1454	0.41198	-0.135
Mof_N 	N 	0.51845	0.6049	0.6803	-0.14
Mof_N 	N 	0.57225	0.6201	0.0075	-0.153
Mof_N 	N 	0.55454	0.6285	0.09088	-0.148
Mof_N 	N 	0.59009	0.6454	0.41198	-0.135
Mof_N 	N 	0.83815	0.8951	0.3197	-0.141
Mof_N 	N 	0.56475	0.8799	0.9925	-0.107
Mof_N 	N 	0.46366	0.8715	0.90912	-0.142
Mof_N 	N 	0.17811	0.8546	0.58802	-0.134
Mof_O 	O 	0.37938	0.2131	0.41036	-0.284
Mof_O 	O 	0.24399	0.3229	0.35478	-0.289
Mof_O 	O 	0.12011	0.1782	0.46182	-0.283
Mof_O 	O 	0.08298	0.0269	0.46276	-0.315
Mof_O 	O 	0.96902	0.2869	0.58964	-0.285
Mof_O 	O 	0.88921	0.1771	0.64522	-0.288
Mof_O 	O 	0.65829	0.3218	0.53818	-0.284
Mof_O 	O 	0.62022	0.4731	0.53724	-0.317
Mof_O 	O 	0.62062	0.7869	0.58964	-0.284
Mof_O 	O 	0.75601	0.6771	0.64522	-0.288
Mof_O 	O 	0.87989	0.8218	0.53818	-0.285
Mof_O 	O 	0.91702	0.9731	0.53724	-0.317
Mof_O 	O 	0.03098	0.7131	0.41036	-0.283
Mof_O 	O 	0.11079	0.8229	0.35478	-0.289
Mof_O 	O 	0.34171	0.6782	0.46182	-0.285
Mof_O 	O 	0.37978	0.5269	0.46276	-0.318
_end
