data_functionalizedCrystal
_audit_creation_method	'EQeq! by Chris Wilmer'
_symmetry_space_group_name_H-M	'P1'
_symmetry_Int_Tables_number	1
_symmetry_cell_setting	triclinic
loop_
_symmetry_equiv_pos_as_xyz
  x,y,z
_cell_length_a	20.505
_cell_length_b	10.3482
_cell_length_c	29.521
_cell_angle_alpha	90
_cell_angle_beta	113.518
_cell_angle_gamma	90
loop_
_atom_site_label
_atom_site_type_symbol
_atom_site_fract_x
_atom_site_fract_y
_atom_site_fract_z
_atom_site_charge
Mof_Ni	Ni	0.33655	0.67752	0.16392	1.096
Mof_O 	O 	0.2507	0.7949	0.14907	-0.402
Mof_O 	O 	0.3032	0.9848	0.1718	-0.334
Mof_O 	O 	0.1552	0.1627	0.26472	-0.426
Mof_O 	O 	0.0395	0.1986	0.2191	-0.443
Mof_O 	O 	0.0861	0.6678	0.9006	-0.338
Mof_O 	O 	0.1689	0.8126	0.90705	-0.426
Mof_O 	O 	0.409	0.8373	0.18528	-0.956
Mof_N 	N 	0.265	0.5263	0.1396	-0.249
Mof_C 	C 	0.2495	0.9124	0.1569	0.367
Mof_C 	C 	0.178	0.9706	0.1476	-0.134
Mof_C 	C 	0.1712	0.0329	0.1871	0.07
Mof_H 	H 	0.2105	0.0387	0.2171	0.022
Mof_C 	C 	0.1068	0.0869	0.1829	-0.154
Mof_C 	C 	0.1001	0.1546	0.2258	0.382
Mof_C 	C 	0.0499	0.0789	0.1365	0.067
Mof_H 	H 	0.007	0.1175	0.1324	-0.005
Mof_C 	C 	0.0549	0.0176	0.0976	-0.148
Mof_H 	H 	0.0155	0.0126	0.0677	0.069
Mof_C 	C 	0.1199	0.9612	0.1025	0.061
Mof_C 	C 	0.1248	0.8968	0.0588	0.051
Mof_C 	C 	0.1813	0.9279	0.0453	-0.124
Mof_H 	H 	0.2174	0.9833	0.0646	0.083
Mof_C 	C 	0.1821	0.8753	0.0031	0.065
Mof_H 	H 	0.2205	0.8945	0.9951	0.023
Mof_C 	C 	0.13	0.7958	0.9718	-0.139
Mof_C 	C 	0.1289	0.7543	0.9233	0.353
Mof_C 	C 	0.0774	0.7605	0.9874	0.046
Mof_H 	H 	0.043	0.7011	0.969	0.012
Mof_C 	C 	0.0746	0.8119	0.0299	-0.125
Mof_H 	H 	0.0378	0.788	0.039	0.062
Mof_C 	C 	0.2766	0.4164	0.1638	0.128
Mof_H 	H 	0.3158	0.4116	0.1939	-0.033
Mof_C 	C 	0.2362	0.3117	0.1485	-0.209
Mof_H 	H 	0.2468	0.2352	0.1665	0.118
Mof_C 	C 	0.1788	0.3222	0.1052	0.117
Mof_H 	H 	0.1489	0.2511	0.0939	-0.009
Mof_C 	C 	0.1622	0.4338	0.0769	-0.183
Mof_H 	H 	0.1227	0.4412	0.0472	0.091
Mof_C 	C 	0.2101	0.5327	0.0969	0.115
Mof_H 	H 	0.2032	0.6092	0.0791	0.003
Mof_C 	C 	0.5586	0.9542	0.1799	-0.165
Mof_H 	H 	0.5431	0.8764	0.1633	0.099
Mof_C 	C 	0.5981	0.054	0.1629	0.184
Mof_H 	H 	0.6174	0.0306	0.1403	-0.024
Mof_C 	C 	0.615	0.175	0.2247	0.09
Mof_H 	H 	0.6469	0.2342	0.2457	0.002
Mof_C 	C 	0.5766	0.0853	0.2454	-0.088
Mof_H 	H 	0.5741	0.1021	0.2756	0.055
Mof_C 	C 	0.6054	0.1725	0.1799	-0.026
Mof_H 	H 	0.6036	0.2457	0.1612	0.079
Mof_N 	N 	0.5474	0.9851	0.2203	-0.199
Mof_H 	H 	0.381	0.898	0.186	0.394
Mof_H 	H 	0.409	0.817	0.1573	0.374
Mof_C 	C 	0.5085	0.0954	0.1991	0.109
Mof_H 	H 	0.4631	0.1065	0.1984	-0.027
Mof_C 	C 	0.5375	0.1891	0.1789	-0.155
Mof_H 	H 	0.5115	0.2629	0.1647	0.079
Mof_H 	H 	0.6248	0.2353	0.1664	-0.032
Mof_C 	C 	0.6442	0.0622	0.2012	-0.304
Mof_H 	H 	0.6896	0.0511	0.2018	0.145
Mof_C 	C 	0.6152	0.9685	0.2213	0.212
Mof_H 	H 	0.6412	0.8947	0.2355	-0.042
Mof_Ni	Ni	0.83655	0.17752	0.16392	1.098
Mof_O 	O 	0.7507	0.2949	0.14907	-0.405
Mof_O 	O 	0.8032	0.4848	0.1718	-0.332
Mof_O 	O 	0.6552	0.6627	0.26472	-0.426
Mof_O 	O 	0.5395	0.6986	0.2191	-0.428
Mof_O 	O 	0.5861	0.1678	0.9006	-0.324
Mof_O 	O 	0.6689	0.3126	0.90705	-0.423
Mof_O 	O 	0.909	0.3373	0.18528	-0.941
Mof_N 	N 	0.765	0.0263	0.1396	-0.25
Mof_C 	C 	0.7495	0.4124	0.1569	0.364
Mof_C 	C 	0.678	0.4706	0.1476	-0.135
Mof_C 	C 	0.6712	0.5329	0.1871	0.067
Mof_H 	H 	0.7105	0.5387	0.2171	0.021
Mof_C 	C 	0.6068	0.5869	0.1829	-0.148
Mof_C 	C 	0.6001	0.6546	0.2258	0.379
Mof_C 	C 	0.5499	0.5789	0.1365	0.067
Mof_H 	H 	0.507	0.6175	0.1324	0.01
Mof_C 	C 	0.5549	0.5176	0.0976	-0.143
Mof_H 	H 	0.5155	0.5126	0.0677	0.081
Mof_C 	C 	0.6199	0.4612	0.1025	0.065
Mof_C 	C 	0.6248	0.3968	0.0588	0.053
Mof_C 	C 	0.6813	0.4279	0.0453	-0.12
Mof_H 	H 	0.7174	0.4833	0.0646	0.084
Mof_C 	C 	0.6821	0.3753	0.0031	0.063
Mof_H 	H 	0.7205	0.3945	0.9951	0.025
Mof_C 	C 	0.63	0.2958	0.9718	-0.13
Mof_C 	C 	0.6289	0.2543	0.9233	0.353
Mof_C 	C 	0.5774	0.2605	0.9874	0.047
Mof_H 	H 	0.543	0.2011	0.969	0.024
Mof_C 	C 	0.5746	0.3119	0.0299	-0.12
Mof_H 	H 	0.5378	0.288	0.039	0.071
Mof_C 	C 	0.7766	0.9164	0.1638	0.132
Mof_H 	H 	0.8158	0.9116	0.1939	-0.032
Mof_C 	C 	0.7362	0.8117	0.1485	-0.211
Mof_H 	H 	0.7468	0.7352	0.1665	0.118
Mof_C 	C 	0.6788	0.8222	0.1052	0.12
Mof_H 	H 	0.6489	0.7511	0.0939	-0.006
Mof_C 	C 	0.6622	0.9338	0.0769	-0.186
Mof_H 	H 	0.6227	0.9412	0.0472	0.099
Mof_C 	C 	0.7101	0.0327	0.0969	0.115
Mof_H 	H 	0.7032	0.1092	0.0791	0.003
Mof_C 	C 	0.0586	0.4542	0.1799	-0.334
Mof_H 	H 	0.0431	0.3764	0.1633	0.149
Mof_C 	C 	0.0981	0.554	0.1629	0.436
Mof_H 	H 	0.1174	0.5306	0.1403	-0.11
Mof_C 	C 	0.115	0.675	0.2247	0.258
Mof_H 	H 	0.1469	0.7342	0.2457	-0.055
Mof_C 	C 	0.0766	0.5853	0.2454	-0.18
Mof_H 	H 	0.0741	0.6021	0.2756	0.087
Mof_C 	C 	0.1054	0.6725	0.1799	-0.182
Mof_H 	H 	0.1036	0.7457	0.1612	0.224
Mof_N 	N 	0.0474	0.4851	0.2203	-0.173
Mof_H 	H 	0.881	0.398	0.186	0.393
Mof_H 	H 	0.909	0.317	0.1573	0.377
Mof_C 	C 	0.0085	0.5954	0.1991	0.046
Mof_H 	H 	0.9631	0.6065	0.1984	0.028
Mof_C 	C 	0.0375	0.6891	0.1789	-0.14
Mof_H 	H 	0.0115	0.7629	0.1647	0.056
Mof_H 	H 	0.1248	0.7353	0.1664	-0.125
Mof_C 	C 	0.1442	0.5622	0.2012	-0.508
Mof_H 	H 	0.1896	0.5511	0.2018	0.221
Mof_C 	C 	0.1152	0.4685	0.2213	0.363
Mof_H 	H 	0.1412	0.3947	0.2355	-0.094
Mof_Ni	Ni	0.66345	0.67752	0.33608	1.095
Mof_O 	O 	0.7493	0.7949	0.35093	-0.407
Mof_O 	O 	0.6968	0.9848	0.3282	-0.335
Mof_O 	O 	0.8448	0.1627	0.23528	-0.424
Mof_O 	O 	0.9605	0.1986	0.2809	-0.405
Mof_O 	O 	0.9139	0.6678	0.5994	-0.309
Mof_O 	O 	0.8311	0.8126	0.59295	-0.418
Mof_O 	O 	0.591	0.8373	0.31472	-0.957
Mof_N 	N 	0.735	0.5263	0.3604	-0.251
Mof_C 	C 	0.7505	0.9124	0.3431	0.365
Mof_C 	C 	0.822	0.9706	0.3524	-0.135
Mof_C 	C 	0.8288	0.0329	0.3129	0.066
Mof_H 	H 	0.7895	0.0387	0.2829	0.021
Mof_C 	C 	0.8932	0.0869	0.3171	-0.14
Mof_C 	C 	0.8999	0.1546	0.2742	0.374
Mof_C 	C 	0.9501	0.0789	0.3635	0.068
Mof_H 	H 	0.993	0.1175	0.3676	0.025
Mof_C 	C 	0.9451	0.0176	0.4024	-0.139
Mof_H 	H 	0.9845	0.0126	0.4323	0.093
Mof_C 	C 	0.8801	0.9612	0.3975	0.07
Mof_C 	C 	0.8752	0.8968	0.4412	0.052
Mof_C 	C 	0.8187	0.9279	0.4547	-0.112
Mof_H 	H 	0.7826	0.9833	0.4354	0.08
Mof_C 	C 	0.8179	0.8753	0.4969	0.053
Mof_H 	H 	0.7795	0.8945	0.5049	0.031
Mof_C 	C 	0.87	0.7958	0.5282	-0.118
Mof_C 	C 	0.8711	0.7543	0.5767	0.351
Mof_C 	C 	0.9226	0.7605	0.5126	0.048
Mof_H 	H 	0.957	0.7011	0.531	0.037
Mof_C 	C 	0.9254	0.8119	0.4701	-0.114
Mof_H 	H 	0.9622	0.788	0.461	0.08
Mof_C 	C 	0.7234	0.4164	0.3362	0.132
Mof_H 	H 	0.6842	0.4116	0.3061	-0.034
Mof_C 	C 	0.7638	0.3117	0.3515	-0.213
Mof_H 	H 	0.7532	0.2352	0.3335	0.119
Mof_C 	C 	0.8212	0.3222	0.3948	0.122
Mof_H 	H 	0.8511	0.2511	0.4061	-0.003
Mof_C 	C 	0.8378	0.4338	0.4231	-0.19
Mof_H 	H 	0.8773	0.4412	0.4528	0.106
Mof_C 	C 	0.7899	0.5327	0.4031	0.115
Mof_H 	H 	0.7968	0.6092	0.4209	0.003
Mof_C 	C 	0.4414	0.9542	0.3201	-0.168
Mof_H 	H 	0.4569	0.8764	0.3367	0.1
Mof_C 	C 	0.4019	0.054	0.3371	0.188
Mof_H 	H 	0.3826	0.0306	0.3597	-0.025
Mof_C 	C 	0.385	0.175	0.2753	0.092
Mof_H 	H 	0.3531	0.2342	0.2543	0.002
Mof_C 	C 	0.4234	0.0853	0.2546	-0.089
Mof_H 	H 	0.4259	0.1021	0.2244	0.055
Mof_C 	C 	0.3946	0.1725	0.3201	-0.027
Mof_H 	H 	0.3964	0.2457	0.3388	0.082
Mof_N 	N 	0.4526	0.9851	0.2797	-0.199
Mof_H 	H 	0.619	0.898	0.314	0.394
Mof_H 	H 	0.591	0.817	0.3427	0.374
Mof_C 	C 	0.4915	0.0954	0.3009	0.11
Mof_H 	H 	0.5369	0.1065	0.3016	-0.027
Mof_C 	C 	0.4625	0.1891	0.3211	-0.156
Mof_H 	H 	0.4885	0.2629	0.3353	0.079
Mof_H 	H 	0.3752	0.2353	0.3336	-0.034
Mof_C 	C 	0.3558	0.0622	0.2988	-0.307
Mof_H 	H 	0.3104	0.0511	0.2982	0.147
Mof_C 	C 	0.3848	0.9685	0.2787	0.214
Mof_H 	H 	0.3588	0.8947	0.2645	-0.041
Mof_Ni	Ni	0.16345	0.17752	0.33608	1.093
Mof_O 	O 	0.2493	0.2949	0.35093	-0.405
Mof_O 	O 	0.1968	0.4848	0.3282	-0.337
Mof_O 	O 	0.3448	0.6627	0.23528	-0.426
Mof_O 	O 	0.4605	0.6986	0.2809	-0.428
Mof_O 	O 	0.4139	0.1678	0.5994	-0.324
Mof_O 	O 	0.3311	0.3126	0.59295	-0.422
Mof_O 	O 	0.091	0.3373	0.31472	-0.964
Mof_N 	N 	0.235	0.0263	0.3604	-0.252
Mof_C 	C 	0.2505	0.4124	0.3431	0.367
Mof_C 	C 	0.322	0.4706	0.3524	-0.136
Mof_C 	C 	0.3288	0.5329	0.3129	0.069
Mof_H 	H 	0.2895	0.5387	0.2829	0.021
Mof_C 	C 	0.3932	0.5869	0.3171	-0.148
Mof_C 	C 	0.3999	0.6546	0.2742	0.379
Mof_C 	C 	0.4501	0.5789	0.3635	0.068
Mof_H 	H 	0.493	0.6175	0.3676	0.009
Mof_C 	C 	0.4451	0.5176	0.4024	-0.144
Mof_H 	H 	0.4845	0.5126	0.4323	0.081
Mof_C 	C 	0.3801	0.4612	0.3975	0.066
Mof_C 	C 	0.3752	0.3968	0.4412	0.05
Mof_C 	C 	0.3187	0.4279	0.4547	-0.115
Mof_H 	H 	0.2826	0.4833	0.4354	0.079
Mof_C 	C 	0.3179	0.3753	0.4969	0.054
Mof_H 	H 	0.2795	0.3945	0.5049	0.028
Mof_C 	C 	0.37	0.2958	0.5282	-0.126
Mof_C 	C 	0.3711	0.2543	0.5767	0.351
Mof_C 	C 	0.4226	0.2605	0.5126	0.046
Mof_H 	H 	0.457	0.2011	0.531	0.024
Mof_C 	C 	0.4254	0.3119	0.4701	-0.119
Mof_H 	H 	0.4622	0.288	0.461	0.071
Mof_C 	C 	0.2234	0.9164	0.3362	0.129
Mof_H 	H 	0.1842	0.9116	0.3061	-0.035
Mof_C 	C 	0.2638	0.8117	0.3515	-0.212
Mof_H 	H 	0.2532	0.7352	0.3335	0.119
Mof_C 	C 	0.3212	0.8222	0.3948	0.119
Mof_H 	H 	0.3511	0.7511	0.4061	-0.006
Mof_C 	C 	0.3378	0.9338	0.4231	-0.186
Mof_H 	H 	0.3773	0.9412	0.4528	0.098
Mof_C 	C 	0.2899	0.0327	0.4031	0.114
Mof_H 	H 	0.2968	0.1092	0.4209	0.003
Mof_C 	C 	0.9414	0.4542	0.3201	0.001
Mof_H 	H 	0.9569	0.3764	0.3367	0.051
Mof_C 	C 	0.9019	0.554	0.3371	-0.064
Mof_H 	H 	0.8826	0.5306	0.3597	0.062
Mof_C 	C 	0.885	0.675	0.2753	-0.076
Mof_H 	H 	0.8531	0.7342	0.2543	0.06
Mof_C 	C 	0.9234	0.5853	0.2546	0.004
Mof_H 	H 	0.9259	0.6021	0.2244	0.024
Mof_C 	C 	0.8946	0.6725	0.3201	0.128
Mof_H 	H 	0.8964	0.7457	0.3388	-0.064
Mof_N 	N 	0.9526	0.4851	0.2797	-0.222
Mof_H 	H 	0.119	0.398	0.314	0.394
Mof_H 	H 	0.091	0.317	0.3427	0.369
Mof_C 	C 	0.9915	0.5954	0.3009	0.174
Mof_H 	H 	0.0369	0.6065	0.3016	-0.082
Mof_C 	C 	0.9625	0.6891	0.3211	-0.172
Mof_H 	H 	0.9885	0.7629	0.3353	0.103
Mof_H 	H 	0.8752	0.7353	0.3336	0.061
Mof_C 	C 	0.8558	0.5622	0.2988	-0.101
Mof_H 	H 	0.8104	0.5511	0.2982	0.07
Mof_C 	C 	0.8848	0.4685	0.2787	0.061
Mof_H 	H 	0.8588	0.3947	0.2645	0.012
Mof_Ni	Ni	0.66345	0.32248	0.83608	1.095
Mof_O 	O 	0.7493	0.2051	0.85093	-0.407
Mof_O 	O 	0.6968	0.0152	0.8282	-0.335
Mof_O 	O 	0.8448	0.8373	0.73528	-0.424
Mof_O 	O 	0.9605	0.8014	0.7809	-0.405
Mof_O 	O 	0.9139	0.3322	0.0994	-0.308
Mof_O 	O 	0.8311	0.1874	0.09295	-0.417
Mof_O 	O 	0.591	0.1627	0.81472	-0.957
Mof_N 	N 	0.735	0.4737	0.8604	-0.251
Mof_C 	C 	0.7505	0.0876	0.8431	0.365
Mof_C 	C 	0.822	0.0294	0.8524	-0.135
Mof_C 	C 	0.8288	0.9671	0.8129	0.066
Mof_H 	H 	0.7895	0.9613	0.7829	0.021
Mof_C 	C 	0.8932	0.9131	0.8171	-0.141
Mof_C 	C 	0.8999	0.8454	0.7742	0.374
Mof_C 	C 	0.9501	0.9211	0.8635	0.068
Mof_H 	H 	0.993	0.8825	0.8676	0.024
Mof_C 	C 	0.9451	0.9824	0.9024	-0.139
Mof_H 	H 	0.9845	0.9874	0.9323	0.093
Mof_C 	C 	0.8801	0.0388	0.8975	0.07
Mof_C 	C 	0.8752	0.1032	0.9412	0.05
Mof_C 	C 	0.8187	0.0721	0.9547	-0.107
Mof_H 	H 	0.7826	0.0167	0.9354	0.079
Mof_C 	C 	0.8179	0.1247	0.9969	0.045
Mof_H 	H 	0.7795	0.1055	0.0049	0.034
Mof_C 	C 	0.87	0.2042	0.0282	-0.113
Mof_C 	C 	0.8711	0.2457	0.0767	0.349
Mof_C 	C 	0.9226	0.2395	0.0126	0.047
Mof_H 	H 	0.957	0.2989	0.031	0.037
Mof_C 	C 	0.9254	0.1881	0.9701	-0.114
Mof_H 	H 	0.9622	0.212	0.961	0.08
Mof_C 	C 	0.7234	0.5836	0.8362	0.132
Mof_H 	H 	0.6842	0.5884	0.8061	-0.034
Mof_C 	C 	0.7638	0.6883	0.8515	-0.213
Mof_H 	H 	0.7532	0.7648	0.8335	0.119
Mof_C 	C 	0.8212	0.6778	0.8948	0.122
Mof_H 	H 	0.8511	0.7489	0.9061	-0.003
Mof_C 	C 	0.8378	0.5662	0.9231	-0.19
Mof_H 	H 	0.8773	0.5588	0.9528	0.106
Mof_C 	C 	0.7899	0.4673	0.9031	0.115
Mof_H 	H 	0.7968	0.3908	0.9209	0.003
Mof_C 	C 	0.4414	0.0458	0.8201	-0.168
Mof_H 	H 	0.4569	0.1236	0.8367	0.1
Mof_C 	C 	0.4019	0.946	0.8371	0.188
Mof_H 	H 	0.3826	0.9694	0.8597	-0.025
Mof_C 	C 	0.385	0.825	0.7753	0.092
Mof_H 	H 	0.3531	0.7658	0.7543	0.002
Mof_C 	C 	0.4234	0.9147	0.7546	-0.09
Mof_H 	H 	0.4259	0.8979	0.7244	0.055
Mof_C 	C 	0.3946	0.8275	0.8201	-0.028
Mof_H 	H 	0.3964	0.7543	0.8388	0.083
Mof_N 	N 	0.4526	0.0149	0.7797	-0.199
Mof_H 	H 	0.619	0.102	0.814	0.394
Mof_H 	H 	0.591	0.183	0.8427	0.374
Mof_C 	C 	0.4915	0.9046	0.8009	0.11
Mof_H 	H 	0.5369	0.8935	0.8016	-0.027
Mof_C 	C 	0.4625	0.8109	0.8211	-0.157
Mof_H 	H 	0.4885	0.7371	0.8353	0.079
Mof_H 	H 	0.3752	0.7647	0.8336	-0.035
Mof_C 	C 	0.3558	0.9378	0.7988	-0.307
Mof_H 	H 	0.3104	0.9489	0.7982	0.147
Mof_C 	C 	0.3848	0.0315	0.7787	0.214
Mof_H 	H 	0.3588	0.1053	0.7645	-0.041
Mof_Ni	Ni	0.16345	0.82248	0.83608	1.093
Mof_O 	O 	0.2493	0.7051	0.85093	-0.405
Mof_O 	O 	0.1968	0.5152	0.8282	-0.337
Mof_O 	O 	0.3448	0.3373	0.73528	-0.426
Mof_O 	O 	0.4605	0.3014	0.7809	-0.428
Mof_O 	O 	0.4139	0.8322	0.0994	-0.323
Mof_O 	O 	0.3311	0.6874	0.09295	-0.422
Mof_O 	O 	0.091	0.6627	0.81472	-0.964
Mof_N 	N 	0.235	0.9737	0.8604	-0.251
Mof_C 	C 	0.2505	0.5876	0.8431	0.367
Mof_C 	C 	0.322	0.5294	0.8524	-0.137
Mof_C 	C 	0.3288	0.4671	0.8129	0.069
Mof_H 	H 	0.2895	0.4613	0.7829	0.021
Mof_C 	C 	0.3932	0.4131	0.8171	-0.149
Mof_C 	C 	0.3999	0.3454	0.7742	0.379
Mof_C 	C 	0.4501	0.4211	0.8635	0.069
Mof_H 	H 	0.493	0.3825	0.8676	0.009
Mof_C 	C 	0.4451	0.4824	0.9024	-0.144
Mof_H 	H 	0.4845	0.4874	0.9323	0.081
Mof_C 	C 	0.3801	0.5388	0.8975	0.067
Mof_C 	C 	0.3752	0.6032	0.9412	0.048
Mof_C 	C 	0.3187	0.5721	0.9547	-0.111
Mof_H 	H 	0.2826	0.5167	0.9354	0.078
Mof_C 	C 	0.3179	0.6247	0.9969	0.045
Mof_H 	H 	0.2795	0.6055	0.0049	0.033
Mof_C 	C 	0.37	0.7042	0.0282	-0.121
Mof_C 	C 	0.3711	0.7457	0.0767	0.349
Mof_C 	C 	0.4226	0.7395	0.0126	0.046
Mof_H 	H 	0.457	0.7989	0.031	0.025
Mof_C 	C 	0.4254	0.6881	0.9701	-0.12
Mof_H 	H 	0.4622	0.712	0.961	0.07
Mof_C 	C 	0.2234	0.0836	0.8362	0.129
Mof_H 	H 	0.1842	0.0884	0.8061	-0.035
Mof_C 	C 	0.2638	0.1883	0.8515	-0.212
Mof_H 	H 	0.2532	0.2648	0.8335	0.119
Mof_C 	C 	0.3212	0.1778	0.8948	0.119
Mof_H 	H 	0.3511	0.2489	0.9061	-0.006
Mof_C 	C 	0.3378	0.0662	0.9231	-0.186
Mof_H 	H 	0.3773	0.0588	0.9528	0.097
Mof_C 	C 	0.2899	0.9673	0.9031	0.113
Mof_H 	H 	0.2968	0.8908	0.9209	0.003
Mof_C 	C 	0.9414	0.5458	0.8201	0
Mof_H 	H 	0.9569	0.6236	0.8367	0.051
Mof_C 	C 	0.9019	0.446	0.8371	-0.063
Mof_H 	H 	0.8826	0.4694	0.8597	0.061
Mof_C 	C 	0.885	0.325	0.7753	-0.076
Mof_H 	H 	0.8531	0.2658	0.7543	0.06
Mof_C 	C 	0.9234	0.4147	0.7546	0.003
Mof_H 	H 	0.9259	0.3979	0.7244	0.025
Mof_C 	C 	0.8946	0.3275	0.8201	0.127
Mof_H 	H 	0.8964	0.2543	0.8388	-0.064
Mof_N 	N 	0.9526	0.5149	0.7797	-0.222
Mof_H 	H 	0.119	0.602	0.814	0.394
Mof_H 	H 	0.091	0.683	0.8427	0.369
Mof_C 	C 	0.9915	0.4046	0.8009	0.174
Mof_H 	H 	0.0369	0.3935	0.8016	-0.082
Mof_C 	C 	0.9625	0.3109	0.8211	-0.172
Mof_H 	H 	0.9885	0.2371	0.8353	0.103
Mof_H 	H 	0.8752	0.2647	0.8336	0.06
Mof_C 	C 	0.8558	0.4378	0.7988	-0.102
Mof_H 	H 	0.8104	0.4489	0.7982	0.071
Mof_C 	C 	0.8848	0.5315	0.7787	0.061
Mof_H 	H 	0.8588	0.6053	0.7645	0.012
Mof_Ni	Ni	0.33655	0.32248	0.66392	1.095
Mof_O 	O 	0.2507	0.2051	0.64907	-0.403
Mof_O 	O 	0.3032	0.0152	0.6718	-0.335
Mof_O 	O 	0.1552	0.8373	0.76472	-0.427
Mof_O 	O 	0.0395	0.8014	0.7191	-0.444
Mof_O 	O 	0.0861	0.3322	0.4006	-0.338
Mof_O 	O 	0.1689	0.1874	0.40705	-0.427
Mof_O 	O 	0.409	0.1627	0.68528	-0.957
Mof_N 	N 	0.265	0.4737	0.6396	-0.25
Mof_C 	C 	0.2495	0.0876	0.6569	0.366
Mof_C 	C 	0.178	0.0294	0.6476	-0.135
Mof_C 	C 	0.1712	0.9671	0.6871	0.069
Mof_H 	H 	0.2105	0.9613	0.7171	0.021
Mof_C 	C 	0.1068	0.9131	0.6829	-0.154
Mof_C 	C 	0.1001	0.8454	0.7258	0.382
Mof_C 	C 	0.0499	0.9211	0.6365	0.067
Mof_H 	H 	0.007	0.8825	0.6324	-0.005
Mof_C 	C 	0.0549	0.9824	0.5976	-0.148
Mof_H 	H 	0.0155	0.9874	0.5677	0.069
Mof_C 	C 	0.1199	0.0388	0.6025	0.062
Mof_C 	C 	0.1248	0.1032	0.5588	0.049
Mof_C 	C 	0.1813	0.0721	0.5453	-0.12
Mof_H 	H 	0.2174	0.0167	0.5646	0.081
Mof_C 	C 	0.1821	0.1247	0.5031	0.055
Mof_H 	H 	0.2205	0.1055	0.4951	0.027
Mof_C 	C 	0.13	0.2042	0.4718	-0.134
Mof_C 	C 	0.1289	0.2457	0.4233	0.351
Mof_C 	C 	0.0774	0.2395	0.4874	0.045
Mof_H 	H 	0.043	0.2989	0.469	0.012
Mof_C 	C 	0.0746	0.1881	0.5299	-0.125
Mof_H 	H 	0.0378	0.212	0.539	0.062
Mof_C 	C 	0.2766	0.5836	0.6638	0.128
Mof_H 	H 	0.3158	0.5884	0.6939	-0.033
Mof_C 	C 	0.2362	0.6883	0.6485	-0.209
Mof_H 	H 	0.2468	0.7648	0.6665	0.118
Mof_C 	C 	0.1788	0.6778	0.6052	0.117
Mof_H 	H 	0.1489	0.7489	0.5939	-0.009
Mof_C 	C 	0.1622	0.5662	0.5769	-0.183
Mof_H 	H 	0.1227	0.5588	0.5472	0.09
Mof_C 	C 	0.2101	0.4673	0.5969	0.115
Mof_H 	H 	0.2032	0.3908	0.5791	0.003
Mof_C 	C 	0.5586	0.0458	0.6799	-0.165
Mof_H 	H 	0.5431	0.1236	0.6633	0.099
Mof_C 	C 	0.5981	0.946	0.6629	0.184
Mof_H 	H 	0.6174	0.9694	0.6403	-0.024
Mof_C 	C 	0.615	0.825	0.7247	0.089
Mof_H 	H 	0.6469	0.7658	0.7457	0.002
Mof_C 	C 	0.5766	0.9147	0.7454	-0.088
Mof_H 	H 	0.5741	0.8979	0.7756	0.055
Mof_C 	C 	0.6054	0.8275	0.6799	-0.026
Mof_H 	H 	0.6036	0.7543	0.6612	0.079
Mof_N 	N 	0.5474	0.0149	0.7203	-0.199
Mof_H 	H 	0.381	0.102	0.686	0.394
Mof_H 	H 	0.409	0.183	0.6573	0.374
Mof_C 	C 	0.5085	0.9046	0.6991	0.109
Mof_H 	H 	0.4631	0.8935	0.6984	-0.027
Mof_C 	C 	0.5375	0.8109	0.6789	-0.155
Mof_H 	H 	0.5115	0.7371	0.6647	0.079
Mof_H 	H 	0.6248	0.7647	0.6664	-0.032
Mof_C 	C 	0.6442	0.9378	0.7012	-0.304
Mof_H 	H 	0.6896	0.9489	0.7018	0.145
Mof_C 	C 	0.6152	0.0315	0.7213	0.212
Mof_H 	H 	0.6412	0.1053	0.7355	-0.041
Mof_Ni	Ni	0.83655	0.82248	0.66392	1.098
Mof_O 	O 	0.7507	0.7051	0.64907	-0.405
Mof_O 	O 	0.8032	0.5152	0.6718	-0.332
Mof_O 	O 	0.6552	0.3373	0.76472	-0.426
Mof_O 	O 	0.5395	0.3014	0.7191	-0.428
Mof_O 	O 	0.5861	0.8322	0.4006	-0.324
Mof_O 	O 	0.6689	0.6874	0.40705	-0.422
Mof_O 	O 	0.909	0.6627	0.68528	-0.941
Mof_N 	N 	0.765	0.9737	0.6396	-0.249
Mof_C 	C 	0.7495	0.5876	0.6569	0.364
Mof_C 	C 	0.678	0.5294	0.6476	-0.135
Mof_C 	C 	0.6712	0.4671	0.6871	0.067
Mof_H 	H 	0.7105	0.4613	0.7171	0.021
Mof_C 	C 	0.6068	0.4131	0.6829	-0.148
Mof_C 	C 	0.6001	0.3454	0.7258	0.379
Mof_C 	C 	0.5499	0.4211	0.6365	0.068
Mof_H 	H 	0.507	0.3825	0.6324	0.01
Mof_C 	C 	0.5549	0.4824	0.5976	-0.143
Mof_H 	H 	0.5155	0.4874	0.5677	0.081
Mof_C 	C 	0.6199	0.5388	0.6025	0.065
Mof_C 	C 	0.6248	0.6032	0.5588	0.051
Mof_C 	C 	0.6813	0.5721	0.5453	-0.116
Mof_H 	H 	0.7174	0.5167	0.5646	0.082
Mof_C 	C 	0.6821	0.6247	0.5031	0.054
Mof_H 	H 	0.7205	0.6055	0.4951	0.029
Mof_C 	C 	0.63	0.7042	0.4718	-0.126
Mof_C 	C 	0.6289	0.7457	0.4233	0.351
Mof_C 	C 	0.5774	0.7395	0.4874	0.047
Mof_H 	H 	0.543	0.7989	0.469	0.024
Mof_C 	C 	0.5746	0.6881	0.5299	-0.12
Mof_H 	H 	0.5378	0.712	0.539	0.071
Mof_C 	C 	0.7766	0.0836	0.6638	0.131
Mof_H 	H 	0.8158	0.0884	0.6939	-0.032
Mof_C 	C 	0.7362	0.1883	0.6485	-0.211
Mof_H 	H 	0.7468	0.2648	0.6665	0.118
Mof_C 	C 	0.6788	0.1778	0.6052	0.12
Mof_H 	H 	0.6489	0.2489	0.5939	-0.006
Mof_C 	C 	0.6622	0.0662	0.5769	-0.186
Mof_H 	H 	0.6227	0.0588	0.5472	0.098
Mof_C 	C 	0.7101	0.9673	0.5969	0.115
Mof_H 	H 	0.7032	0.8908	0.5791	0.003
Mof_C 	C 	0.0586	0.5458	0.6799	-0.334
Mof_H 	H 	0.0431	0.6236	0.6633	0.149
Mof_C 	C 	0.0981	0.446	0.6629	0.437
Mof_H 	H 	0.1174	0.4694	0.6403	-0.11
Mof_C 	C 	0.115	0.325	0.7247	0.259
Mof_H 	H 	0.1469	0.2658	0.7457	-0.056
Mof_C 	C 	0.0766	0.4147	0.7454	-0.181
Mof_H 	H 	0.0741	0.3979	0.7756	0.087
Mof_C 	C 	0.1054	0.3275	0.6799	-0.182
Mof_H 	H 	0.1036	0.2543	0.6612	0.225
Mof_N 	N 	0.0474	0.5149	0.7203	-0.173
Mof_H 	H 	0.881	0.602	0.686	0.393
Mof_H 	H 	0.909	0.683	0.6573	0.377
Mof_C 	C 	0.0085	0.4046	0.6991	0.046
Mof_H 	H 	0.9631	0.3935	0.6984	0.028
Mof_C 	C 	0.0375	0.3109	0.6789	-0.14
Mof_H 	H 	0.0115	0.2371	0.6647	0.055
Mof_H 	H 	0.1248	0.2647	0.6664	-0.125
Mof_C 	C 	0.1442	0.4378	0.7012	-0.509
Mof_H 	H 	0.1896	0.4489	0.7018	0.221
Mof_C 	C 	0.1152	0.5315	0.7213	0.364
Mof_H 	H 	0.1412	0.6053	0.7355	-0.094
Mof_Ni	Ni	0.5	0.84253	0.25	1.13
Mof_Ni	Ni	-1.97932e-17	0.34253	0.25	1.111
Mof_Ni	Ni	0.5	0.15747	0.75	1.13
Mof_Ni	Ni	7.91728e-17	0.65747	0.75	1.111
_end
