data_functionalizedCrystal
_audit_creation_method	'EQeq! by Chris Wilmer'
_symmetry_space_group_name_H-M	'P1'
_symmetry_Int_Tables_number	1
_symmetry_cell_setting	triclinic
loop_
_symmetry_equiv_pos_as_xyz
  x,y,z
_cell_length_a	7.163
_cell_length_b	10.443
_cell_length_c	20.003
_cell_angle_alpha	81.2
_cell_angle_beta	85.04
_cell_angle_gamma	86.91
loop_
_atom_site_label
_atom_site_type_symbol
_atom_site_fract_x
_atom_site_fract_y
_atom_site_fract_z
_atom_site_charge
Mof_Na	Na	0.59416	0.66202	0.76645	2.745
Mof_Na	Na	0.65326	0.56892	0.9381	2.242
Mof_P 	P 	0.54714	0.00103	0.6705	0.503
Mof_O 	O 	0.46581	0.03217	0.73875	-0.458
Mof_O 	O 	0.58278	0.84877	0.67649	-0.812
Mof_H 	H 	0.596	0.828	0.638	0.341
Mof_O 	O 	0.75022	0.05871	0.66078	-0.332
Mof_O 	O 	0.4342	0.04958	0.61222	-0.708
Mof_O 	O 	0.7672	0.12765	0.48978	-0.771
Mof_O 	O 	0.83953	0.30936	0.52701	-0.763
Mof_N 	N 	0.0961	0.19424	0.60674	-0.357
Mof_H 	H 	0.02	0.225	0.6387	0.088
Mof_H 	H 	0.194	0.15	0.626	0.11
Mof_H 	H 	0.143	0.257	0.5761	0.06
Mof_C 	C 	0.8541	0.1902	0.52611	0.566
Mof_C 	C 	0.9927	0.10892	0.57123	0.066
Mof_H 	H 	0.081	0.0678	0.5412	-0.168
Mof_C 	C 	0.8996	0.00022	0.6196	0.02
Mof_H 	H 	0.846	0.946	0.5894	0.052
Mof_C 	C 	0.0282	0.9203	0.66729	-0.434
Mof_H 	H 	0.968	0.846	0.6931	0.148
Mof_H 	H 	0.07	0.969	0.7005	0.132
Mof_H 	H 	0.143	0.887	0.6414	0.107
Mof_P 	P 	0.11722	0.50348	0.31617	0.529
Mof_O 	O 	0.07525	0.43747	0.25778	-0.654
Mof_O 	O 	0.121	0.65537	0.29634	-0.55
Mof_H 	H 	0.176	0.679	0.2604	0.228
Mof_O 	O 	0.33255	0.45648	0.32733	-0.706
Mof_O 	O 	0.99754	0.47725	0.38111	-0.593
Mof_O 	O 	0.27375	0.36786	0.50665	-0.85
Mof_O 	O 	0.36257	0.21002	0.44521	-0.752
Mof_N 	N 	0.6795	0.33511	0.3914	-0.214
Mof_H 	H 	0.655	0.31	0.3527	-0.007
Mof_H 	H 	0.792	0.379	0.3838	0.08
Mof_H 	H 	0.698	0.258	0.4215	0.072
Mof_C 	C 	0.3743	0.32153	0.46133	0.607
Mof_C 	C 	0.5231	0.41119	0.42323	-0.373
Mof_H 	H 	0.572	0.4567	0.457	0.087
Mof_C 	C 	0.4353	0.51803	0.37324	0.539
Mof_H 	H 	0.346	0.567	0.4014	-0.204
Mof_C 	C 	0.5742	0.607	0.33085	-0.843
Mof_H 	H 	0.511	0.681	0.3062	0.252
Mof_H 	H 	0.66	0.558	0.3016	0.204
Mof_H 	H 	0.648	0.642	0.3592	0.276
Mof_O 	O 	0.6911	0.76392	0.85367	-1.378
Mof_H 	H 	0.821	0.765	0.8516	0.276
Mof_H 	H 	0.658	0.842	0.8513	0.436
Mof_O 	O 	0.6241	0.35585	0.00281	-1.321
Mof_H 	H 	0.6	0.298	0.9779	0.259
Mof_H 	H 	0.733	0.331	0.0133	0.325
Mof_O 	O 	0.5156	0.48413	0.85092	-1.743
Mof_H 	H 	0.568	0.409	0.8425	0.403
Mof_H 	H 	0.419	0.462	0.8619	0.6
Mof_O 	O 	0.9712	0.5361	0.88109	-0.309
Mof_O 	O 	0.094	0.529	0.1235	-0.378
Mof_H 	H 	0.021	0.617	0.8766	-0.173
Mof_H 	H 	0.951	0.523	0.8435	0.38
Mof_H 	H 	0.16	0.61	0.132	-0.048
Mof_Na	Na	0.40584	0.33798	0.23355	2.705
Mof_Na	Na	0.34674	0.43108	0.0619	2.015
Mof_P 	P 	0.45286	0.99897	0.3295	0.728
Mof_O 	O 	0.53419	0.96783	0.26125	-0.349
Mof_O 	O 	0.41722	0.15123	0.32351	-0.997
Mof_H 	H 	0.404	0.172	0.362	0.364
Mof_O 	O 	0.24978	0.94129	0.33922	-0.407
Mof_O 	O 	0.5658	0.95042	0.38778	-0.634
Mof_O 	O 	0.2328	0.87235	0.51022	-0.735
Mof_O 	O 	0.16047	0.69064	0.47299	-0.866
Mof_N 	N 	0.9039	0.80576	0.39326	-0.234
Mof_H 	H 	0.98	0.775	0.3613	0.178
Mof_H 	H 	0.806	0.85	0.374	0.136
Mof_H 	H 	0.857	0.743	0.4239	0.077
Mof_C 	C 	0.1459	0.8098	0.47389	0.712
Mof_C 	C 	0.0073	0.89108	0.42877	-0.577
Mof_H 	H 	0.919	0.9322	0.4588	0.238
Mof_C 	C 	0.1004	0.99978	0.3804	0.568
Mof_H 	H 	0.154	0.054	0.4106	-0.316
Mof_C 	C 	0.9718	0.0797	0.33271	-0.272
Mof_H 	H 	0.032	0.154	0.3069	-0.067
Mof_H 	H 	0.93	0.031	0.2995	0.031
Mof_H 	H 	0.857	0.113	0.3586	0.039
Mof_P 	P 	0.88278	0.49652	0.68383	0.685
Mof_O 	O 	0.92475	0.56253	0.74222	-0.604
Mof_O 	O 	0.879	0.34463	0.70366	-0.488
Mof_H 	H 	0.824	0.321	0.7396	0.205
Mof_O 	O 	0.66745	0.54352	0.67267	-0.713
Mof_O 	O 	0.00246	0.52275	0.61889	-0.78
Mof_O 	O 	0.72625	0.63214	0.49335	-0.804
Mof_O 	O 	0.63743	0.78998	0.55479	-0.692
Mof_N 	N 	0.3205	0.66489	0.6086	-0.21
Mof_H 	H 	0.345	0.69	0.6473	-0.018
Mof_H 	H 	0.208	0.621	0.6162	0.054
Mof_H 	H 	0.302	0.742	0.5785	0.071
Mof_C 	C 	0.6257	0.67847	0.53867	0.598
Mof_C 	C 	0.4769	0.58881	0.57677	-0.351
Mof_H 	H 	0.428	0.5433	0.543	0.079
Mof_C 	C 	0.5647	0.48197	0.62676	0.506
Mof_H 	H 	0.654	0.433	0.5986	-0.179
Mof_C 	C 	0.4258	0.393	0.66915	-0.747
Mof_H 	H 	0.489	0.319	0.6938	0.208
Mof_H 	H 	0.34	0.442	0.6984	0.142
Mof_H 	H 	0.352	0.358	0.6408	0.232
Mof_O 	O 	0.3089	0.23608	0.14633	-1.299
Mof_H 	H 	0.179	0.235	0.1484	0.175
Mof_H 	H 	0.342	0.158	0.1487	0.332
Mof_O 	O 	0.3759	0.64415	0.99719	-1.344
Mof_H 	H 	0.4	0.702	0.0221	0.3
Mof_H 	H 	0.267	0.669	0.9867	0.322
Mof_O 	O 	0.4844	0.51587	0.14908	-1.729
Mof_H 	H 	0.432	0.591	0.1575	0.421
Mof_H 	H 	0.581	0.538	0.1381	0.634
Mof_O 	O 	0.0288	0.4639	0.11891	-0.81
Mof_O 	O 	0.906	0.471	0.8765	-0.669
Mof_H 	H 	0.979	0.383	0.1234	0.139
Mof_H 	H 	0.049	0.477	0.1565	0.409
Mof_H 	H 	0.84	0.39	0.868	0.041
Mof_Na	Na	1.20686e-17	0.5	0.5	3.607
Mof_Na	Na	0.5	0	0.5	3.106
_end
