data_functionalizedCrystal
_audit_creation_method	'EQeq! by Chris Wilmer'
_symmetry_space_group_name_H-M	'P1'
_symmetry_Int_Tables_number	1
_symmetry_cell_setting	triclinic
loop_
_symmetry_equiv_pos_as_xyz
  x,y,z
_cell_length_a	18.121
_cell_length_b	26.884
_cell_length_c	26.884
_cell_angle_alpha	120
_cell_angle_beta	90
_cell_angle_gamma	90
loop_
_atom_site_label
_atom_site_type_symbol
_atom_site_fract_x
_atom_site_fract_y
_atom_site_fract_z
_atom_site_charge
Mof_Zn	Zn	0.41605	0.88943	0.33165	1.183
Mof_Zn	Zn	0.41605	0.44222	0.11057	1.183
Mof_Zn	Zn	0.41605	0.66835	0.55778	1.183
Mof_Zn	Zn	0.91605	0.11057	0.66835	1.183
Mof_Zn	Zn	0.91605	0.55778	0.88943	1.183
Mof_Zn	Zn	0.91605	0.33165	0.44222	1.183
Mof_Zn	Zn	0.58395	0.55778	0.66835	1.184
Mof_Zn	Zn	0.58395	0.33165	0.88943	1.184
Mof_Zn	Zn	0.58395	0.11057	0.44222	1.184
Mof_Zn	Zn	0.08395	0.44222	0.33165	1.184
Mof_Zn	Zn	0.08395	0.66835	0.11057	1.184
Mof_Zn	Zn	0.08395	0.88943	0.55778	1.184
Mof_Zn	Zn	0.58395	0.11057	0.66835	1.184
Mof_Zn	Zn	0.58395	0.55778	0.88943	1.184
Mof_Zn	Zn	0.58395	0.33165	0.44222	1.184
Mof_Zn	Zn	0.08395	0.88943	0.33165	1.184
Mof_Zn	Zn	0.08395	0.44222	0.11057	1.184
Mof_Zn	Zn	0.08395	0.66835	0.55778	1.184
Mof_Zn	Zn	0.41605	0.44222	0.33165	1.184
Mof_Zn	Zn	0.41605	0.66835	0.11057	1.184
Mof_Zn	Zn	0.41605	0.88943	0.55778	1.184
Mof_Zn	Zn	0.91605	0.55778	0.66835	1.184
Mof_Zn	Zn	0.91605	0.33165	0.88943	1.184
Mof_Zn	Zn	0.91605	0.11057	0.44222	1.184
Mof_H 	H 	0.5943	0.8709	0.3016	0.051
Mof_H 	H 	0.7	0.8251	0.2596	0.03
Mof_H 	H 	0.4461	0.9102	0.2224	0.048
Mof_H 	H 	0.4618	0.9628	0.1762	0.022
Mof_H 	H 	0.3177	0.9757	0.3086	0.011
Mof_H 	H 	0.5232	0.8152	0.3611	0.012
Mof_H 	H 	0.5943	0.4307	0.1291	0.05
Mof_H 	H 	0.7	0.4345	0.1749	0.03
Mof_H 	H 	0.4461	0.3122	0.0898	0.04
Mof_H 	H 	0.4618	0.2134	0.0372	0.032
Mof_H 	H 	0.3177	0.3329	0.0243	0.01
Mof_H 	H 	0.5232	0.5459	0.1848	0.012
Mof_H 	H 	0.5943	0.6984	0.5693	0.051
Mof_H 	H 	0.7	0.7404	0.5655	0.03
Mof_H 	H 	0.4461	0.7776	0.6878	0.043
Mof_H 	H 	0.4618	0.8238	0.7866	0.029
Mof_H 	H 	0.3177	0.6914	0.6671	0.01
Mof_H 	H 	0.5232	0.6389	0.4541	0.012
Mof_H 	H 	0.0943	0.1291	0.6984	0.05
Mof_H 	H 	0.2	0.1749	0.7404	0.03
Mof_H 	H 	0.9461	0.0898	0.7776	0.043
Mof_H 	H 	0.9618	0.0372	0.8238	0.029
Mof_H 	H 	0.8177	0.0243	0.6914	0.01
Mof_H 	H 	0.0232	0.1848	0.6389	0.01
Mof_H 	H 	0.0943	0.5693	0.8709	0.05
Mof_H 	H 	0.2	0.5655	0.8251	0.03
Mof_H 	H 	0.9461	0.6878	0.9102	0.051
Mof_H 	H 	0.9618	0.7866	0.9628	0.02
Mof_H 	H 	0.8177	0.6671	0.9757	0.011
Mof_H 	H 	0.0232	0.4541	0.8152	0.01
Mof_H 	H 	0.0943	0.3016	0.4307	0.05
Mof_H 	H 	0.2	0.2596	0.4345	0.03
Mof_H 	H 	0.9461	0.2224	0.3122	0.048
Mof_H 	H 	0.9618	0.1762	0.2134	0.022
Mof_H 	H 	0.8177	0.3086	0.3329	0.01
Mof_H 	H 	0.0232	0.3611	0.5459	0.01
Mof_H 	H 	0.4057	0.5693	0.6984	0.051
Mof_H 	H 	0.3	0.5655	0.7404	0.03
Mof_H 	H 	0.5539	0.6878	0.7776	0.043
Mof_H 	H 	0.5382	0.7866	0.8238	0.029
Mof_H 	H 	0.6823	0.6671	0.6914	0.01
Mof_H 	H 	0.4768	0.4541	0.6389	0.012
Mof_H 	H 	0.4057	0.3016	0.8709	0.051
Mof_H 	H 	0.3	0.2596	0.8251	0.03
Mof_H 	H 	0.5539	0.2224	0.9102	0.046
Mof_H 	H 	0.5382	0.1762	0.9628	0.025
Mof_H 	H 	0.6823	0.3086	0.9757	0.01
Mof_H 	H 	0.4768	0.3611	0.8152	0.012
Mof_H 	H 	0.4057	0.1291	0.4307	0.05
Mof_H 	H 	0.3	0.1749	0.4345	0.03
Mof_H 	H 	0.5539	0.0898	0.3122	0.038
Mof_H 	H 	0.5382	0.0372	0.2134	0.035
Mof_H 	H 	0.6823	0.0243	0.3329	0.01
Mof_H 	H 	0.4768	0.1848	0.5459	0.012
Mof_H 	H 	0.9057	0.4307	0.3016	0.051
Mof_H 	H 	0.8	0.4345	0.2596	0.03
Mof_H 	H 	0.0539	0.3122	0.2224	0.039
Mof_H 	H 	0.0382	0.2134	0.1762	0.034
Mof_H 	H 	0.1823	0.3329	0.3086	0.01
Mof_H 	H 	0.9768	0.5459	0.3611	0.014
Mof_H 	H 	0.9057	0.6984	0.1291	0.051
Mof_H 	H 	0.8	0.7404	0.1749	0.03
Mof_H 	H 	0.0539	0.7776	0.0898	0.036
Mof_H 	H 	0.0382	0.8238	0.0372	0.038
Mof_H 	H 	0.1823	0.6914	0.0243	0.01
Mof_H 	H 	0.9768	0.6389	0.1848	0.014
Mof_H 	H 	0.9057	0.8709	0.5693	0.052
Mof_H 	H 	0.8	0.8251	0.5655	0.03
Mof_H 	H 	0.0539	0.9102	0.6878	0.044
Mof_H 	H 	0.0382	0.9628	0.7866	0.028
Mof_H 	H 	0.1823	0.9757	0.6671	0.011
Mof_H 	H 	0.9768	0.8152	0.4541	0.014
Mof_H 	H 	0.4057	0.1291	0.6984	0.05
Mof_H 	H 	0.3	0.1749	0.7404	0.03
Mof_H 	H 	0.5539	0.0898	0.7776	0.038
Mof_H 	H 	0.5382	0.0372	0.8238	0.035
Mof_H 	H 	0.6823	0.0243	0.6914	0.01
Mof_H 	H 	0.4768	0.1848	0.6389	0.012
Mof_H 	H 	0.4057	0.5693	0.8709	0.051
Mof_H 	H 	0.3	0.5655	0.8251	0.03
Mof_H 	H 	0.5539	0.6878	0.9102	0.047
Mof_H 	H 	0.5382	0.7866	0.9628	0.025
Mof_H 	H 	0.6823	0.6671	0.9757	0.01
Mof_H 	H 	0.4768	0.4541	0.8152	0.012
Mof_H 	H 	0.4057	0.3016	0.4307	0.051
Mof_H 	H 	0.3	0.2596	0.4345	0.03
Mof_H 	H 	0.5539	0.2224	0.3122	0.043
Mof_H 	H 	0.5382	0.1762	0.2134	0.028
Mof_H 	H 	0.6823	0.3086	0.3329	0.01
Mof_H 	H 	0.4768	0.3611	0.5459	0.012
Mof_H 	H 	0.9057	0.8709	0.3016	0.052
Mof_H 	H 	0.8	0.8251	0.2596	0.03
Mof_H 	H 	0.0539	0.9102	0.2224	0.044
Mof_H 	H 	0.0382	0.9628	0.1762	0.027
Mof_H 	H 	0.1823	0.9757	0.3086	0.011
Mof_H 	H 	0.9768	0.8152	0.3611	0.014
Mof_H 	H 	0.9057	0.4307	0.1291	0.051
Mof_H 	H 	0.8	0.4345	0.1749	0.03
Mof_H 	H 	0.0539	0.3122	0.0898	0.036
Mof_H 	H 	0.0382	0.2134	0.0372	0.038
Mof_H 	H 	0.1823	0.3329	0.0243	0.01
Mof_H 	H 	0.9768	0.5459	0.1848	0.014
Mof_H 	H 	0.9057	0.6984	0.5693	0.051
Mof_H 	H 	0.8	0.7404	0.5655	0.03
Mof_H 	H 	0.0539	0.7776	0.6878	0.039
Mof_H 	H 	0.0382	0.8238	0.7866	0.034
Mof_H 	H 	0.1823	0.6914	0.6671	0.01
Mof_H 	H 	0.9768	0.6389	0.4541	0.014
Mof_H 	H 	0.5943	0.4307	0.3016	0.051
Mof_H 	H 	0.7	0.4345	0.2596	0.03
Mof_H 	H 	0.4461	0.3122	0.2224	0.043
Mof_H 	H 	0.4618	0.2134	0.1762	0.028
Mof_H 	H 	0.3177	0.3329	0.3086	0.01
Mof_H 	H 	0.5232	0.5459	0.3611	0.012
Mof_H 	H 	0.5943	0.6984	0.1291	0.05
Mof_H 	H 	0.7	0.7404	0.1749	0.03
Mof_H 	H 	0.4461	0.7776	0.0898	0.04
Mof_H 	H 	0.4618	0.8238	0.0372	0.033
Mof_H 	H 	0.3177	0.6914	0.0243	0.01
Mof_H 	H 	0.5232	0.6389	0.1848	0.012
Mof_H 	H 	0.5943	0.8709	0.5693	0.051
Mof_H 	H 	0.7	0.8251	0.5655	0.03
Mof_H 	H 	0.4461	0.9102	0.6878	0.049
Mof_H 	H 	0.4618	0.9628	0.7866	0.022
Mof_H 	H 	0.3177	0.9757	0.6671	0.011
Mof_H 	H 	0.5232	0.8152	0.4541	0.012
Mof_H 	H 	0.0943	0.5693	0.6984	0.05
Mof_H 	H 	0.2	0.5655	0.7404	0.03
Mof_H 	H 	0.9461	0.6878	0.7776	0.048
Mof_H 	H 	0.9618	0.7866	0.8238	0.023
Mof_H 	H 	0.8177	0.6671	0.6914	0.01
Mof_H 	H 	0.0232	0.4541	0.6389	0.01
Mof_H 	H 	0.0943	0.3016	0.8709	0.05
Mof_H 	H 	0.2	0.2596	0.8251	0.03
Mof_H 	H 	0.9461	0.2224	0.9102	0.051
Mof_H 	H 	0.9618	0.1762	0.9628	0.019
Mof_H 	H 	0.8177	0.3086	0.9757	0.01
Mof_H 	H 	0.0232	0.3611	0.8152	0.01
Mof_H 	H 	0.0943	0.1291	0.4307	0.05
Mof_H 	H 	0.2	0.1749	0.4345	0.03
Mof_H 	H 	0.9461	0.0898	0.3122	0.043
Mof_H 	H 	0.9618	0.0372	0.2134	0.029
Mof_H 	H 	0.8177	0.0243	0.3329	0.01
Mof_H 	H 	0.0232	0.1848	0.5459	0.01
Mof_H 	H 	0.3665	0.7751	0.2249	-0.02
Mof_H 	H 	0.3665	0.4498	0.2249	-0.021
Mof_H 	H 	0.3665	0.7751	0.5502	-0.02
Mof_H 	H 	0.8665	0.2249	0.7751	-0.021
Mof_H 	H 	0.8665	0.5502	0.7751	-0.021
Mof_H 	H 	0.8665	0.2249	0.4498	-0.021
Mof_H 	H 	0.6335	0.5502	0.7751	-0.02
Mof_H 	H 	0.6335	0.2249	0.7751	-0.02
Mof_H 	H 	0.6335	0.2249	0.4498	-0.02
Mof_H 	H 	0.1335	0.4498	0.2249	-0.02
Mof_H 	H 	0.1335	0.7751	0.2249	-0.02
Mof_H 	H 	0.1335	0.7751	0.5502	-0.02
Mof_H 	H 	0.5	0	0.4228	-0.026
Mof_H 	H 	0.5	0.4228	-0	-0.026
Mof_H 	H 	0.5	0.5772	0.5772	-0.026
Mof_H 	H 	-0	0	0.5772	-0.026
Mof_H 	H 	8.90246e-33	0.5772	-0	-0.026
Mof_H 	H 	6.67684e-33	0.4228	0.4228	-0.026
Mof_H 	H 	0.5	0	0.5772	-0.026
Mof_H 	H 	0.5	0.5772	-0	-0.026
Mof_H 	H 	0.5	0.4228	0.4228	-0.026
Mof_H 	H 	6.67684e-33	0	0.4228	-0.026
Mof_H 	H 	-0	0.4228	-0	-0.026
Mof_H 	H 	8.90246e-33	0.5772	0.5772	-0.026
Mof_C 	C 	0.5278	0.8088	0.2444	0.062
Mof_C 	C 	0.5929	0.8345	0.2675	-0.117
Mof_C 	C 	0.6542	0.8082	0.242	-0.012
Mof_C 	C 	0.4792	0.9747	0.2978	0.069
Mof_C 	C 	0.4656	0.9481	0.242	-0.129
Mof_C 	C 	0.4806	0.977	0.214	0.004
Mof_C 	C 	0.2874	0.9487	0.3119	0.012
Mof_C 	C 	0.4936	0.8391	0.3937	0.014
Mof_C 	C 	0.5278	0.4356	0.1912	0.062
Mof_C 	C 	0.5929	0.433	0.1655	-0.116
Mof_C 	C 	0.6542	0.4338	0.1918	-0.012
Mof_C 	C 	0.4792	0.3231	0.0253	0.052
Mof_C 	C 	0.4656	0.2939	0.0519	-0.106
Mof_C 	C 	0.4806	0.237	0.023	-0.029
Mof_C 	C 	0.2874	0.3632	0.0513	0.012
Mof_C 	C 	0.4936	0.5546	0.1609	0.014
Mof_C 	C 	0.5278	0.7556	0.5644	0.062
Mof_C 	C 	0.5929	0.7325	0.567	-0.116
Mof_C 	C 	0.6542	0.758	0.5662	-0.012
Mof_C 	C 	0.4792	0.7022	0.6769	0.058
Mof_C 	C 	0.4656	0.758	0.7061	-0.114
Mof_C 	C 	0.4806	0.786	0.763	-0.017
Mof_C 	C 	0.2874	0.6881	0.6368	0.012
Mof_C 	C 	0.4936	0.6063	0.4454	0.014
Mof_C 	C 	0.0278	0.1912	0.7556	0.059
Mof_C 	C 	0.0929	0.1655	0.7325	-0.116
Mof_C 	C 	0.1542	0.1918	0.758	-0.013
Mof_C 	C 	0.9792	0.0253	0.7022	0.057
Mof_C 	C 	0.9656	0.0519	0.758	-0.112
Mof_C 	C 	0.9806	0.023	0.786	-0.019
Mof_C 	C 	0.7874	0.0513	0.6881	0.012
Mof_C 	C 	0.9936	0.1609	0.6063	0.017
Mof_C 	C 	0.0278	0.5644	0.8088	0.06
Mof_C 	C 	0.0929	0.567	0.8345	-0.116
Mof_C 	C 	0.1542	0.5662	0.8082	-0.012
Mof_C 	C 	0.9792	0.6769	0.9747	0.074
Mof_C 	C 	0.9656	0.7061	0.9481	-0.135
Mof_C 	C 	0.9806	0.763	0.977	0.013
Mof_C 	C 	0.7874	0.6368	0.9487	0.012
Mof_C 	C 	0.9936	0.4454	0.8391	0.017
Mof_C 	C 	0.0278	0.2444	0.4356	0.06
Mof_C 	C 	0.0929	0.2675	0.433	-0.116
Mof_C 	C 	0.1542	0.242	0.4338	-0.012
Mof_C 	C 	0.9792	0.2978	0.3231	0.069
Mof_C 	C 	0.9656	0.242	0.2939	-0.128
Mof_C 	C 	0.9806	0.214	0.237	0.003
Mof_C 	C 	0.7874	0.3119	0.3632	0.012
Mof_C 	C 	0.9936	0.3937	0.5546	0.017
Mof_C 	C 	0.4722	0.5644	0.7556	0.062
Mof_C 	C 	0.4071	0.567	0.7325	-0.116
Mof_C 	C 	0.3458	0.5662	0.758	-0.012
Mof_C 	C 	0.5208	0.6769	0.7022	0.058
Mof_C 	C 	0.5344	0.7061	0.758	-0.114
Mof_C 	C 	0.5194	0.763	0.786	-0.017
Mof_C 	C 	0.7126	0.6368	0.6881	0.012
Mof_C 	C 	0.5064	0.4454	0.6063	0.014
Mof_C 	C 	0.4722	0.2444	0.8088	0.062
Mof_C 	C 	0.4071	0.2675	0.8345	-0.117
Mof_C 	C 	0.3458	0.242	0.8082	-0.012
Mof_C 	C 	0.5208	0.2978	0.9747	0.065
Mof_C 	C 	0.5344	0.242	0.9481	-0.123
Mof_C 	C 	0.5194	0.214	0.977	-0.005
Mof_C 	C 	0.7126	0.3119	0.9487	0.012
Mof_C 	C 	0.5064	0.3937	0.8391	0.014
Mof_C 	C 	0.4722	0.1912	0.4356	0.062
Mof_C 	C 	0.4071	0.1655	0.433	-0.116
Mof_C 	C 	0.3458	0.1918	0.4338	-0.012
Mof_C 	C 	0.5208	0.0253	0.3231	0.047
Mof_C 	C 	0.5344	0.0519	0.2939	-0.099
Mof_C 	C 	0.5194	0.023	0.237	-0.038
Mof_C 	C 	0.7126	0.0513	0.3632	0.012
Mof_C 	C 	0.5064	0.1609	0.5546	0.014
Mof_C 	C 	0.9722	0.4356	0.2444	0.063
Mof_C 	C 	0.9071	0.433	0.2675	-0.117
Mof_C 	C 	0.8458	0.4338	0.242	-0.012
Mof_C 	C 	0.0208	0.3231	0.2978	0.048
Mof_C 	C 	0.0344	0.2939	0.242	-0.101
Mof_C 	C 	0.0194	0.237	0.214	-0.036
Mof_C 	C 	0.2126	0.3632	0.3119	0.012
Mof_C 	C 	0.0064	0.5546	0.3937	0.012
Mof_C 	C 	0.9722	0.7556	0.1912	0.063
Mof_C 	C 	0.9071	0.7325	0.1655	-0.117
Mof_C 	C 	0.8458	0.758	0.1918	-0.012
Mof_C 	C 	0.0208	0.7022	0.0253	0.043
Mof_C 	C 	0.0344	0.758	0.0519	-0.093
Mof_C 	C 	0.0194	0.786	0.023	-0.047
Mof_C 	C 	0.2126	0.6881	0.0513	0.012
Mof_C 	C 	0.0064	0.6063	0.1609	0.012
Mof_C 	C 	0.9722	0.8088	0.5644	0.063
Mof_C 	C 	0.9071	0.8345	0.567	-0.117
Mof_C 	C 	0.8458	0.8082	0.5662	-0.012
Mof_C 	C 	0.0208	0.9747	0.6769	0.06
Mof_C 	C 	0.0344	0.9481	0.7061	-0.116
Mof_C 	C 	0.0194	0.977	0.763	-0.014
Mof_C 	C 	0.2126	0.9487	0.6368	0.012
Mof_C 	C 	0.0064	0.8391	0.4454	0.012
Mof_C 	C 	0.4722	0.1912	0.7556	0.061
Mof_C 	C 	0.4071	0.1655	0.7325	-0.116
Mof_C 	C 	0.3458	0.1918	0.758	-0.013
Mof_C 	C 	0.5208	0.0253	0.7022	0.047
Mof_C 	C 	0.5344	0.0519	0.758	-0.098
Mof_C 	C 	0.5194	0.023	0.786	-0.039
Mof_C 	C 	0.7126	0.0513	0.6881	0.012
Mof_C 	C 	0.5064	0.1609	0.6063	0.014
Mof_C 	C 	0.4722	0.5644	0.8088	0.062
Mof_C 	C 	0.4071	0.567	0.8345	-0.117
Mof_C 	C 	0.3458	0.5662	0.8082	-0.012
Mof_C 	C 	0.5208	0.6769	0.9747	0.065
Mof_C 	C 	0.5344	0.7061	0.9481	-0.123
Mof_C 	C 	0.5194	0.763	0.977	-0.004
Mof_C 	C 	0.7126	0.6368	0.9487	0.012
Mof_C 	C 	0.5064	0.4454	0.8391	0.014
Mof_C 	C 	0.4722	0.2444	0.4356	0.062
Mof_C 	C 	0.4071	0.2675	0.433	-0.117
Mof_C 	C 	0.3458	0.242	0.4338	-0.012
Mof_C 	C 	0.5208	0.2978	0.3231	0.058
Mof_C 	C 	0.5344	0.242	0.2939	-0.114
Mof_C 	C 	0.5194	0.214	0.237	-0.017
Mof_C 	C 	0.7126	0.3119	0.3632	0.012
Mof_C 	C 	0.5064	0.3937	0.5546	0.014
Mof_C 	C 	0.9722	0.8088	0.2444	0.063
Mof_C 	C 	0.9071	0.8345	0.2675	-0.117
Mof_C 	C 	0.8458	0.8082	0.242	-0.012
Mof_C 	C 	0.0208	0.9747	0.2978	0.06
Mof_C 	C 	0.0344	0.9481	0.242	-0.116
Mof_C 	C 	0.0194	0.977	0.214	-0.014
Mof_C 	C 	0.2126	0.9487	0.3119	0.012
Mof_C 	C 	0.0064	0.8391	0.3937	0.012
Mof_C 	C 	0.9722	0.4356	0.1912	0.063
Mof_C 	C 	0.9071	0.433	0.1655	-0.117
Mof_C 	C 	0.8458	0.4338	0.1918	-0.012
Mof_C 	C 	0.0208	0.3231	0.0253	0.042
Mof_C 	C 	0.0344	0.2939	0.0519	-0.092
Mof_C 	C 	0.0194	0.237	0.023	-0.048
Mof_C 	C 	0.2126	0.3632	0.0513	0.012
Mof_C 	C 	0.0064	0.5546	0.1609	0.012
Mof_C 	C 	0.9722	0.7556	0.5644	0.063
Mof_C 	C 	0.9071	0.7325	0.567	-0.117
Mof_C 	C 	0.8458	0.758	0.5662	-0.012
Mof_C 	C 	0.0208	0.7022	0.6769	0.049
Mof_C 	C 	0.0344	0.758	0.7061	-0.101
Mof_C 	C 	0.0194	0.786	0.763	-0.035
Mof_C 	C 	0.2126	0.6881	0.6368	0.012
Mof_C 	C 	0.0064	0.6063	0.4454	0.012
Mof_C 	C 	0.5278	0.4356	0.2444	0.062
Mof_C 	C 	0.5929	0.433	0.2675	-0.116
Mof_C 	C 	0.6542	0.4338	0.242	-0.012
Mof_C 	C 	0.4792	0.3231	0.2978	0.058
Mof_C 	C 	0.4656	0.2939	0.242	-0.114
Mof_C 	C 	0.4806	0.237	0.214	-0.017
Mof_C 	C 	0.2874	0.3632	0.3119	0.012
Mof_C 	C 	0.4936	0.5546	0.3937	0.014
Mof_C 	C 	0.5278	0.7556	0.1912	0.061
Mof_C 	C 	0.5929	0.7325	0.1655	-0.116
Mof_C 	C 	0.6542	0.758	0.1918	-0.012
Mof_C 	C 	0.4792	0.7022	0.0253	0.052
Mof_C 	C 	0.4656	0.758	0.0519	-0.105
Mof_C 	C 	0.4806	0.786	0.023	-0.03
Mof_C 	C 	0.2874	0.6881	0.0513	0.012
Mof_C 	C 	0.4936	0.6063	0.1609	0.014
Mof_C 	C 	0.5278	0.8088	0.5644	0.062
Mof_C 	C 	0.5929	0.8345	0.567	-0.117
Mof_C 	C 	0.6542	0.8082	0.5662	-0.012
Mof_C 	C 	0.4792	0.9747	0.6769	0.07
Mof_C 	C 	0.4656	0.9481	0.7061	-0.13
Mof_C 	C 	0.4806	0.977	0.763	0.005
Mof_C 	C 	0.2874	0.9487	0.6368	0.012
Mof_C 	C 	0.4936	0.8391	0.4454	0.014
Mof_C 	C 	0.0278	0.5644	0.7556	0.06
Mof_C 	C 	0.0929	0.567	0.7325	-0.116
Mof_C 	C 	0.1542	0.5662	0.758	-0.013
Mof_C 	C 	0.9792	0.6769	0.7022	0.068
Mof_C 	C 	0.9656	0.7061	0.758	-0.127
Mof_C 	C 	0.9806	0.763	0.786	0.001
Mof_C 	C 	0.7874	0.6368	0.6881	0.012
Mof_C 	C 	0.9936	0.4454	0.6063	0.017
Mof_C 	C 	0.0278	0.2444	0.8088	0.06
Mof_C 	C 	0.0929	0.2675	0.8345	-0.116
Mof_C 	C 	0.1542	0.242	0.8082	-0.012
Mof_C 	C 	0.9792	0.2978	0.9747	0.075
Mof_C 	C 	0.9656	0.242	0.9481	-0.137
Mof_C 	C 	0.9806	0.214	0.977	0.015
Mof_C 	C 	0.7874	0.3119	0.9487	0.012
Mof_C 	C 	0.9936	0.3937	0.8391	0.017
Mof_C 	C 	0.0278	0.1912	0.4356	0.06
Mof_C 	C 	0.0929	0.1655	0.433	-0.116
Mof_C 	C 	0.1542	0.1918	0.4338	-0.013
Mof_C 	C 	0.9792	0.0253	0.3231	0.057
Mof_C 	C 	0.9656	0.0519	0.2939	-0.112
Mof_C 	C 	0.9806	0.023	0.237	-0.019
Mof_C 	C 	0.7874	0.0513	0.3632	0.012
Mof_C 	C 	0.9936	0.1609	0.5546	0.017
Mof_C 	C 	0.4186	0.77755	0.22245	0.088
Mof_C 	C 	0.4186	0.4449	0.22245	0.089
Mof_C 	C 	0.4186	0.77755	0.5551	0.088
Mof_C 	C 	0.9186	0.22245	0.77755	0.089
Mof_C 	C 	0.9186	0.5551	0.77755	0.089
Mof_C 	C 	0.9186	0.22245	0.4449	0.089
Mof_C 	C 	0.5814	0.5551	0.77755	0.088
Mof_C 	C 	0.5814	0.22245	0.77755	0.089
Mof_C 	C 	0.5814	0.22245	0.4449	0.089
Mof_C 	C 	0.0814	0.4449	0.22245	0.088
Mof_C 	C 	0.0814	0.77755	0.22245	0.088
Mof_C 	C 	0.0814	0.77755	0.5551	0.088
Mof_C 	C 	0.5	4.00931e-17	0.3874	0.078
Mof_C 	C 	0.5	0.3874	-0	0.079
Mof_C 	C 	0.5	0.6126	0.6126	0.08
Mof_C 	C 	-0	0	0.6126	0.075
Mof_C 	C 	-0	0.6126	-0	0.077
Mof_C 	C 	6.67684e-33	0.3874	0.3874	0.078
Mof_C 	C 	0.5	0	0.6126	0.078
Mof_C 	C 	0.5	0.6126	-0	0.079
Mof_C 	C 	0.5	0.3874	0.3874	0.08
Mof_C 	C 	-2.22561e-33	4.00931e-17	0.3874	0.075
Mof_C 	C 	4.45123e-33	0.3874	-0	0.076
Mof_C 	C 	-0	0.6126	0.6126	0.078
Mof_C 	C 	0.25	0.8791	0.3193	0.149
Mof_C 	C 	0.25	0.4402	0.1209	0.149
Mof_C 	C 	0.25	0.6807	0.5598	0.149
Mof_C 	C 	0.75	0.1209	0.6807	0.149
Mof_C 	C 	0.75	0.5598	0.8791	0.149
Mof_C 	C 	0.75	0.3193	0.4402	0.149
Mof_C 	C 	0.75	0.5598	0.6807	0.149
Mof_C 	C 	0.75	0.3193	0.8791	0.149
Mof_C 	C 	0.75	0.1209	0.4402	0.149
Mof_C 	C 	0.25	0.4402	0.3193	0.149
Mof_C 	C 	0.25	0.6807	0.1209	0.149
Mof_C 	C 	0.25	0.8791	0.5598	0.149
Mof_C 	C 	0.4189	0.9008	0.4504	0.162
Mof_C 	C 	0.4189	0.5496	0.0992	0.162
Mof_C 	C 	0.4189	0.5496	0.4504	0.162
Mof_C 	C 	0.9189	0.0992	0.5496	0.162
Mof_C 	C 	0.9189	0.4504	0.9008	0.162
Mof_C 	C 	0.9189	0.4504	0.5496	0.162
Mof_C 	C 	0.5811	0.4504	0.5496	0.162
Mof_C 	C 	0.5811	0.4504	0.9008	0.162
Mof_C 	C 	0.5811	0.0992	0.5496	0.162
Mof_C 	C 	0.0811	0.5496	0.4504	0.162
Mof_C 	C 	0.0811	0.5496	0.0992	0.161
Mof_C 	C 	0.0811	0.9008	0.4504	0.162
Mof_N 	N 	0.4583	0.821	0.2623	-0.285
Mof_N 	N 	0.4713	0.9588	0.338	-0.275
Mof_N 	N 	0.3115	0.9055	0.3173	-0.269
Mof_N 	N 	0.4459	0.8775	0.3973	-0.27
Mof_N 	N 	0.4583	0.4413	0.179	-0.285
Mof_N 	N 	0.4713	0.3792	0.0412	-0.274
Mof_N 	N 	0.3115	0.4118	0.0945	-0.269
Mof_N 	N 	0.4459	0.5198	0.1225	-0.27
Mof_N 	N 	0.4583	0.7377	0.5587	-0.285
Mof_N 	N 	0.4713	0.662	0.6208	-0.275
Mof_N 	N 	0.3115	0.6827	0.5882	-0.269
Mof_N 	N 	0.4459	0.6027	0.4802	-0.27
Mof_N 	N 	0.9583	0.179	0.7377	-0.284
Mof_N 	N 	0.9713	0.0412	0.662	-0.273
Mof_N 	N 	0.8115	0.0945	0.6827	-0.269
Mof_N 	N 	0.9459	0.1225	0.6027	-0.27
Mof_N 	N 	0.9583	0.5587	0.821	-0.284
Mof_N 	N 	0.9713	0.6208	0.9588	-0.275
Mof_N 	N 	0.8115	0.5882	0.9055	-0.269
Mof_N 	N 	0.9459	0.4802	0.8775	-0.27
Mof_N 	N 	0.9583	0.2623	0.4413	-0.284
Mof_N 	N 	0.9713	0.338	0.3792	-0.275
Mof_N 	N 	0.8115	0.3173	0.4118	-0.269
Mof_N 	N 	0.9459	0.3973	0.5198	-0.27
Mof_N 	N 	0.5417	0.5587	0.7377	-0.285
Mof_N 	N 	0.5287	0.6208	0.662	-0.275
Mof_N 	N 	0.6885	0.5882	0.6827	-0.269
Mof_N 	N 	0.5541	0.4802	0.6027	-0.27
Mof_N 	N 	0.5417	0.2623	0.821	-0.285
Mof_N 	N 	0.5287	0.338	0.9588	-0.275
Mof_N 	N 	0.6885	0.3173	0.9055	-0.269
Mof_N 	N 	0.5541	0.3973	0.8775	-0.27
Mof_N 	N 	0.5417	0.179	0.4413	-0.285
Mof_N 	N 	0.5287	0.0412	0.3792	-0.273
Mof_N 	N 	0.6885	0.0945	0.4118	-0.269
Mof_N 	N 	0.5541	0.1225	0.5198	-0.27
Mof_N 	N 	0.0417	0.4413	0.2623	-0.286
Mof_N 	N 	0.0287	0.3792	0.338	-0.273
Mof_N 	N 	0.1885	0.4118	0.3173	-0.269
Mof_N 	N 	0.0541	0.5198	0.3973	-0.27
Mof_N 	N 	0.0417	0.7377	0.179	-0.286
Mof_N 	N 	0.0287	0.662	0.0412	-0.272
Mof_N 	N 	0.1885	0.6827	0.0945	-0.269
Mof_N 	N 	0.0541	0.6027	0.1225	-0.27
Mof_N 	N 	0.0417	0.821	0.5587	-0.286
Mof_N 	N 	0.0287	0.9588	0.6208	-0.273
Mof_N 	N 	0.1885	0.9055	0.5882	-0.269
Mof_N 	N 	0.0541	0.8775	0.4802	-0.27
Mof_N 	N 	0.5417	0.179	0.7377	-0.285
Mof_N 	N 	0.5287	0.0412	0.662	-0.273
Mof_N 	N 	0.6885	0.0945	0.6827	-0.269
Mof_N 	N 	0.5541	0.1225	0.6027	-0.27
Mof_N 	N 	0.5417	0.5587	0.821	-0.285
Mof_N 	N 	0.5287	0.6208	0.9588	-0.275
Mof_N 	N 	0.6885	0.5882	0.9055	-0.269
Mof_N 	N 	0.5541	0.4802	0.8775	-0.27
Mof_N 	N 	0.5417	0.2623	0.4413	-0.285
Mof_N 	N 	0.5287	0.338	0.3792	-0.275
Mof_N 	N 	0.6885	0.3173	0.4118	-0.269
Mof_N 	N 	0.5541	0.3973	0.5198	-0.27
Mof_N 	N 	0.0417	0.821	0.2623	-0.286
Mof_N 	N 	0.0287	0.9588	0.338	-0.273
Mof_N 	N 	0.1885	0.9055	0.3173	-0.269
Mof_N 	N 	0.0541	0.8775	0.3973	-0.27
Mof_N 	N 	0.0417	0.4413	0.179	-0.286
Mof_N 	N 	0.0287	0.3792	0.0412	-0.272
Mof_N 	N 	0.1885	0.4118	0.0945	-0.269
Mof_N 	N 	0.0541	0.5198	0.1225	-0.27
Mof_N 	N 	0.0417	0.7377	0.5587	-0.286
Mof_N 	N 	0.0287	0.662	0.6208	-0.273
Mof_N 	N 	0.1885	0.6827	0.5882	-0.269
Mof_N 	N 	0.0541	0.6027	0.4802	-0.27
Mof_N 	N 	0.4583	0.4413	0.2623	-0.285
Mof_N 	N 	0.4713	0.3792	0.338	-0.275
Mof_N 	N 	0.3115	0.4118	0.3173	-0.269
Mof_N 	N 	0.4459	0.5198	0.3973	-0.27
Mof_N 	N 	0.4583	0.7377	0.179	-0.285
Mof_N 	N 	0.4713	0.662	0.0412	-0.273
Mof_N 	N 	0.3115	0.6827	0.0945	-0.269
Mof_N 	N 	0.4459	0.6027	0.1225	-0.27
Mof_N 	N 	0.4583	0.821	0.5587	-0.285
Mof_N 	N 	0.4713	0.9588	0.6208	-0.275
Mof_N 	N 	0.3115	0.9055	0.5882	-0.269
Mof_N 	N 	0.4459	0.8775	0.4802	-0.27
Mof_N 	N 	0.9583	0.5587	0.7377	-0.284
Mof_N 	N 	0.9713	0.6208	0.662	-0.275
Mof_N 	N 	0.8115	0.5882	0.6827	-0.269
Mof_N 	N 	0.9459	0.4802	0.6027	-0.27
Mof_N 	N 	0.9583	0.2623	0.821	-0.284
Mof_N 	N 	0.9713	0.338	0.9588	-0.275
Mof_N 	N 	0.8115	0.3173	0.9055	-0.269
Mof_N 	N 	0.9459	0.3973	0.8775	-0.27
Mof_N 	N 	0.9583	0.179	0.4413	-0.284
Mof_N 	N 	0.9713	0.0412	0.3792	-0.273
Mof_N 	N 	0.8115	0.0945	0.4118	-0.269
Mof_N 	N 	0.9459	0.1225	0.5198	-0.27
Mof_N 	N 	0.25	0.8294	0.3257	-0.02
Mof_N 	N 	0.25	0.4963	0.1706	-0.02
Mof_N 	N 	0.25	0.6743	0.5037	-0.02
Mof_N 	N 	0.75	0.1706	0.6743	-0.02
Mof_N 	N 	0.75	0.5037	0.8294	-0.02
Mof_N 	N 	0.75	0.3257	0.4963	-0.02
Mof_N 	N 	0.75	0.5037	0.6743	-0.02
Mof_N 	N 	0.75	0.3257	0.8294	-0.02
Mof_N 	N 	0.75	0.1706	0.4963	-0.02
Mof_N 	N 	0.25	0.4963	0.3257	-0.02
Mof_N 	N 	0.25	0.6743	0.1706	-0.02
Mof_N 	N 	0.25	0.8294	0.5037	-0.02
Mof_N 	N 	0.365	0.9457	0.47285	-0.022
Mof_N 	N 	0.365	0.52715	0.0543	-0.022
Mof_N 	N 	0.365	0.52715	0.47285	-0.022
Mof_N 	N 	0.865	0.0543	0.52715	-0.022
Mof_N 	N 	0.865	0.47285	0.9457	-0.022
Mof_N 	N 	0.865	0.47285	0.52715	-0.022
Mof_N 	N 	0.635	0.47285	0.52715	-0.022
Mof_N 	N 	0.635	0.47285	0.9457	-0.022
Mof_N 	N 	0.635	0.0543	0.52715	-0.022
Mof_N 	N 	0.135	0.52715	0.47285	-0.022
Mof_N 	N 	0.135	0.52715	0.0543	-0.022
Mof_N 	N 	0.135	0.9457	0.47285	-0.022
Mof_O 	O 	0.3103	0.8112	0.3293	-0.165
Mof_O 	O 	0.3463	0.9613	0.4381	-0.176
Mof_O 	O 	0.3103	0.5181	0.1888	-0.165
Mof_O 	O 	0.3463	0.4768	0.0387	-0.177
Mof_O 	O 	0.3103	0.6707	0.4819	-0.165
Mof_O 	O 	0.3463	0.5619	0.5232	-0.177
Mof_O 	O 	0.8103	0.1888	0.6707	-0.165
Mof_O 	O 	0.8463	0.0387	0.5619	-0.177
Mof_O 	O 	0.8103	0.4819	0.8112	-0.165
Mof_O 	O 	0.8463	0.5232	0.9613	-0.176
Mof_O 	O 	0.8103	0.3293	0.5181	-0.165
Mof_O 	O 	0.8463	0.4381	0.4768	-0.176
Mof_O 	O 	0.6897	0.4819	0.6707	-0.165
Mof_O 	O 	0.6537	0.5232	0.5619	-0.177
Mof_O 	O 	0.6897	0.3293	0.8112	-0.165
Mof_O 	O 	0.6537	0.4381	0.9613	-0.176
Mof_O 	O 	0.6897	0.1888	0.5181	-0.165
Mof_O 	O 	0.6537	0.0387	0.4768	-0.177
Mof_O 	O 	0.1897	0.5181	0.3293	-0.165
Mof_O 	O 	0.1537	0.4768	0.4381	-0.177
Mof_O 	O 	0.1897	0.6707	0.1888	-0.165
Mof_O 	O 	0.1537	0.5619	0.0387	-0.177
Mof_O 	O 	0.1897	0.8112	0.4819	-0.165
Mof_O 	O 	0.1537	0.9613	0.5232	-0.176
Mof_O 	O 	0.6897	0.1888	0.6707	-0.165
Mof_O 	O 	0.6537	0.0387	0.5619	-0.177
Mof_O 	O 	0.6897	0.4819	0.8112	-0.165
Mof_O 	O 	0.6537	0.5232	0.9613	-0.176
Mof_O 	O 	0.6897	0.3293	0.5181	-0.165
Mof_O 	O 	0.6537	0.4381	0.4768	-0.177
Mof_O 	O 	0.1897	0.8112	0.3293	-0.165
Mof_O 	O 	0.1537	0.9613	0.4381	-0.176
Mof_O 	O 	0.1897	0.5181	0.1888	-0.165
Mof_O 	O 	0.1537	0.4768	0.0387	-0.177
Mof_O 	O 	0.1897	0.6707	0.4819	-0.165
Mof_O 	O 	0.1537	0.5619	0.5232	-0.177
Mof_O 	O 	0.3103	0.5181	0.3293	-0.165
Mof_O 	O 	0.3463	0.4768	0.4381	-0.177
Mof_O 	O 	0.3103	0.6707	0.1888	-0.165
Mof_O 	O 	0.3463	0.5619	0.0387	-0.177
Mof_O 	O 	0.3103	0.8112	0.4819	-0.165
Mof_O 	O 	0.3463	0.9613	0.5232	-0.176
Mof_O 	O 	0.8103	0.4819	0.6707	-0.165
Mof_O 	O 	0.8463	0.5232	0.5619	-0.176
Mof_O 	O 	0.8103	0.3293	0.8112	-0.165
Mof_O 	O 	0.8463	0.4381	0.9613	-0.176
Mof_O 	O 	0.8103	0.1888	0.5181	-0.165
Mof_O 	O 	0.8463	0.0387	0.4768	-0.177
_end
