data_functionalizedCrystal
_audit_creation_method	'EQeq! by Chris Wilmer'
_symmetry_space_group_name_H-M	'P1'
_symmetry_Int_Tables_number	1
_symmetry_cell_setting	triclinic
loop_
_symmetry_equiv_pos_as_xyz
  x,y,z
_cell_length_a	9.7355
_cell_length_b	10.0002
_cell_length_c	26.295
_cell_angle_alpha	90
_cell_angle_beta	90
_cell_angle_gamma	90
loop_
_atom_site_label
_atom_site_type_symbol
_atom_site_fract_x
_atom_site_fract_y
_atom_site_fract_z
_atom_site_charge
Mof_Cd	Cd	0.46862	0.31342	0.86616	0.372
Mof_N 	N 	0.3506	0.1529	0.9121	-0.139
Mof_C 	C 	0.3059	0.1847	0.9598	0.025
Mof_H 	H 	0.3258	0.2692	0.9726	0.032
Mof_C 	C 	0.2328	0.0975	0.9897	-0.047
Mof_C 	C 	0.2515	0.9364	0.9239	-0.102
Mof_H 	H 	0.2385	0.85	0.9118	0.066
Mof_C 	C 	0.3232	0.0292	0.8956	0.055
Mof_H 	H 	0.3541	0.0046	0.8635	0.023
Mof_C 	C 	0.2	0.9736	0.9699	0.005
Mof_H 	H 	0.1429	0.9159	0.9878	0.04
Mof_C 	C 	0.1759	0.139	0.0401	0.121
Mof_O 	O 	0.0452	0.3678	0.192	-0.222
Mof_C 	C 	0.2616	0.2188	0.0765	0.053
Mof_C 	C 	0.4036	0.2272	0.0732	-0.109
Mof_H 	H 	0.4516	0.1841	0.0474	0.074
Mof_C 	C 	0.4724	0.3027	0.1102	0.031
Mof_H 	H 	0.5679	0.306	0.1107	0.024
Mof_C 	C 	0.3971	0.372	0.1459	-0.11
Mof_H 	H 	0.4395	0.4288	0.1691	0.068
Mof_C 	C 	0.2529	0.3539	0.1461	0.055
Mof_N 	N 	0.1887	0.2763	0.1131	-0.135
Mof_C 	C 	0.1605	0.4177	0.1848	0.114
Mof_O 	O 	0.0593	0.1065	0.0514	-0.234
Mof_C 	C 	0.2384	0.7574	0.2725	0.069
Mof_H 	H 	0.2527	0.8336	0.2921	0.011
Mof_C 	C 	0.3006	0.7488	0.2261	-0.106
Mof_H 	H 	0.3565	0.8184	0.215	0.067
Mof_C 	C 	0.2817	0.6374	0.1952	0.001
Mof_H 	H 	0.3217	0.6317	0.1631	0.03
Mof_C 	C 	0.2004	0.5349	0.2144	-0.05
Mof_C 	C 	0.1421	0.5521	0.2619	0.04
Mof_H 	H 	0.088	0.4832	0.2747	0.028
Mof_N 	N 	0.1584	0.6614	0.2907	-0.146
Mof_Cd	Cd	0.03138	0.68658	0.36616	0.37
Mof_N 	N 	0.1494	0.8471	0.4121	-0.14
Mof_C 	C 	0.1941	0.8153	0.4598	0.024
Mof_H 	H 	0.1742	0.7308	0.4726	0.032
Mof_C 	C 	0.2672	0.9025	0.4897	-0.049
Mof_C 	C 	0.2485	0.0636	0.4239	-0.101
Mof_H 	H 	0.2615	0.15	0.4118	0.066
Mof_C 	C 	0.1768	0.9708	0.3956	0.053
Mof_H 	H 	0.1459	0.9954	0.3635	0.023
Mof_C 	C 	0.3	0.0264	0.4699	0.006
Mof_H 	H 	0.3571	0.0841	0.4878	0.04
Mof_C 	C 	0.3241	0.861	0.5401	0.122
Mof_O 	O 	0.4548	0.6322	0.692	-0.223
Mof_C 	C 	0.2384	0.7812	0.5765	0.052
Mof_C 	C 	0.0964	0.7728	0.5732	-0.106
Mof_H 	H 	0.0484	0.8159	0.5474	0.073
Mof_C 	C 	0.0276	0.6973	0.6102	0.027
Mof_H 	H 	0.9321	0.694	0.6107	0.026
Mof_C 	C 	0.1029	0.628	0.6459	-0.107
Mof_H 	H 	0.0605	0.5712	0.6691	0.067
Mof_C 	C 	0.2471	0.6461	0.6461	0.054
Mof_N 	N 	0.3113	0.7237	0.6131	-0.135
Mof_C 	C 	0.3395	0.5823	0.6848	0.114
Mof_O 	O 	0.4407	0.8935	0.5514	-0.235
Mof_C 	C 	0.2616	0.2426	0.7725	0.07
Mof_H 	H 	0.2473	0.1664	0.7921	0.012
Mof_C 	C 	0.1994	0.2512	0.7261	-0.107
Mof_H 	H 	0.1435	0.1816	0.715	0.067
Mof_C 	C 	0.2183	0.3626	0.6952	0.002
Mof_H 	H 	0.1783	0.3683	0.6631	0.03
Mof_C 	C 	0.2996	0.4651	0.7144	-0.051
Mof_C 	C 	0.3579	0.4479	0.7619	0.04
Mof_H 	H 	0.412	0.5168	0.7747	0.028
Mof_N 	N 	0.3416	0.3386	0.7907	-0.146
Mof_Cd	Cd	0.53138	0.81342	0.63384	0.371
Mof_N 	N 	0.6494	0.6529	0.5879	-0.139
Mof_C 	C 	0.6941	0.6847	0.5402	0.024
Mof_H 	H 	0.6742	0.7692	0.5274	0.032
Mof_C 	C 	0.7672	0.5975	0.5103	-0.048
Mof_C 	C 	0.7485	0.4364	0.5761	-0.102
Mof_H 	H 	0.7615	0.35	0.5882	0.066
Mof_C 	C 	0.6768	0.5292	0.6044	0.054
Mof_H 	H 	0.6459	0.5046	0.6365	0.023
Mof_C 	C 	0.8	0.4736	0.5301	0.006
Mof_H 	H 	0.8571	0.4159	0.5122	0.04
Mof_C 	C 	0.8241	0.639	0.4599	0.121
Mof_O 	O 	0.9548	0.8678	0.308	-0.222
Mof_C 	C 	0.7384	0.7188	0.4235	0.053
Mof_C 	C 	0.5964	0.7272	0.4268	-0.109
Mof_H 	H 	0.5484	0.6841	0.4526	0.074
Mof_C 	C 	0.5276	0.8027	0.3898	0.031
Mof_H 	H 	0.4321	0.806	0.3893	0.024
Mof_C 	C 	0.6029	0.872	0.3541	-0.11
Mof_H 	H 	0.5605	0.9288	0.3309	0.068
Mof_C 	C 	0.7471	0.8539	0.3539	0.055
Mof_N 	N 	0.8113	0.7763	0.3869	-0.135
Mof_C 	C 	0.8395	0.9177	0.3152	0.114
Mof_O 	O 	0.9407	0.6065	0.4486	-0.234
Mof_C 	C 	0.7616	0.2574	0.2275	0.07
Mof_H 	H 	0.7473	0.3336	0.2079	0.012
Mof_C 	C 	0.6994	0.2488	0.2739	-0.106
Mof_H 	H 	0.6435	0.3184	0.285	0.067
Mof_C 	C 	0.7183	0.1374	0.3048	0.001
Mof_H 	H 	0.6783	0.1317	0.3369	0.03
Mof_C 	C 	0.7996	0.0349	0.2856	-0.051
Mof_C 	C 	0.8579	0.0521	0.2381	0.038
Mof_H 	H 	0.912	0.9832	0.2253	0.029
Mof_N 	N 	0.8416	0.1614	0.2093	-0.146
Mof_Cd	Cd	0.96862	0.18658	0.13384	0.37
Mof_N 	N 	0.8506	0.3471	0.0879	-0.14
Mof_C 	C 	0.8059	0.3153	0.0402	0.024
Mof_H 	H 	0.8258	0.2308	0.0274	0.032
Mof_C 	C 	0.7328	0.4025	0.0103	-0.048
Mof_C 	C 	0.7515	0.5636	0.0761	-0.102
Mof_H 	H 	0.7385	0.65	0.0882	0.066
Mof_C 	C 	0.8232	0.4708	0.1044	0.054
Mof_H 	H 	0.8541	0.4954	0.1365	0.023
Mof_C 	C 	0.7	0.5264	0.0301	0.006
Mof_H 	H 	0.6429	0.5841	0.0122	0.039
Mof_C 	C 	0.6759	0.361	0.9599	0.122
Mof_O 	O 	0.5452	0.1322	0.808	-0.223
Mof_C 	C 	0.7616	0.2812	0.9235	0.052
Mof_C 	C 	0.9036	0.2728	0.9268	-0.107
Mof_H 	H 	0.9516	0.3159	0.9526	0.073
Mof_C 	C 	0.9724	0.1973	0.8898	0.027
Mof_H 	H 	0.0679	0.194	0.8893	0.026
Mof_C 	C 	0.8971	0.128	0.8541	-0.108
Mof_H 	H 	0.9395	0.0712	0.8309	0.067
Mof_C 	C 	0.7529	0.1461	0.8539	0.054
Mof_N 	N 	0.6887	0.2237	0.8869	-0.135
Mof_C 	C 	0.6605	0.0823	0.8152	0.114
Mof_O 	O 	0.5593	0.3935	0.9486	-0.235
Mof_C 	C 	0.7384	0.7426	0.7275	0.07
Mof_H 	H 	0.7527	0.6664	0.7079	0.012
Mof_C 	C 	0.8006	0.7512	0.7739	-0.106
Mof_H 	H 	0.8565	0.6816	0.785	0.067
Mof_C 	C 	0.7817	0.8626	0.8048	0.001
Mof_H 	H 	0.8217	0.8683	0.8369	0.031
Mof_C 	C 	0.7004	0.9651	0.7856	-0.05
Mof_C 	C 	0.6421	0.9479	0.7381	0.04
Mof_H 	H 	0.588	0.0168	0.7253	0.027
Mof_N 	N 	0.6584	0.8386	0.7093	-0.146
_end
