data_functionalizedCrystal
_audit_creation_method	'EQeq! by Chris Wilmer'
_symmetry_space_group_name_H-M	'P1'
_symmetry_Int_Tables_number	1
_symmetry_cell_setting	triclinic
loop_
_symmetry_equiv_pos_as_xyz
  x,y,z
_cell_length_a	17.897
_cell_length_b	14.731
_cell_length_c	17.381
_cell_angle_alpha	90
_cell_angle_beta	116.61
_cell_angle_gamma	90
loop_
_atom_site_label
_atom_site_type_symbol
_atom_site_fract_x
_atom_site_fract_y
_atom_site_fract_z
_atom_site_charge
Mof_O 	O 	0.2432	0.061	0.1014	-0.451
Mof_O 	O 	0.3623	0.0274	0.2162	-0.332
Mof_C 	C 	0.3191	0.0731	0.154	0.42
Mof_C 	C 	0.3533	0.1577	0.1287	-0.313
Mof_N 	N 	0.4383	0.1908	0.1924	-0.048
Mof_C 	C 	0.4403	0.2139	0.2767	-0.071
Mof_C 	C 	0.5274	0.2458	0.3393	-0.072
Mof_C 	C 	0.4559	0.2761	0.1561	-0.057
Mof_C 	C 	0.5357	0.3206	0.219	-0.09
Mof_C 	C 	0.5063	0.1247	0.2066	-0.072
Mof_C 	C 	0.5914	0.1672	0.2607	-0.078
Mof_N 	N 	0.5812	0.2587	0.2939	-0.041
Mof_C 	C 	0.6629	0.3001	0.3573	-0.325
Mof_C 	C 	0.7265	0.3234	0.3238	0.441
Mof_O 	O 	0.7865	0.3672	0.3777	-0.466
Mof_O 	O 	0.7161	0.2982	0.2515	-0.327
Mof_O 	O 	0.0724	0.1372	0.0532	-0.492
Mof_O 	O 	0.9619	0.1322	0.9237	-0.491
Mof_C 	C 	0.0225	0.1706	0.9829	0.526
Mof_C 	C 	0.0388	0.2701	0.9731	-0.384
Mof_N 	N 	0.9955	0.3085	0.8829	-0.04
Mof_C 	C 	0.0312	0.4022	0.8863	-0.067
Mof_C 	C 	0.9784	0.4513	0.8018	-0.075
Mof_C 	C 	0.9031	0.3162	0.8501	-0.07
Mof_C 	C 	0.8634	0.3435	0.7551	-0.078
Mof_C 	C 	0.0125	0.2528	0.8194	-0.068
Mof_C 	C 	0.9888	0.3066	0.7374	-0.07
Mof_N 	N 	0.9298	0.3827	0.7334	-0.039
Mof_C 	C 	0.8878	0.424	0.6447	-0.382
Mof_C 	C 	0.946	0.4602	0.6096	0.534
Mof_O 	O 	0.9088	0.4757	0.5299	-0.497
Mof_O 	O 	0.0207	0.4729	0.6578	-0.507
Mof_Gd	Gd	0.12937	0.99388	0.11575	1.707
Mof_H 	H 	0.3577	0.1416	0.0773	0.127
Mof_H 	H 	0.3142	0.2066	0.1164	0.124
Mof_H 	H 	0.4037	0.2643	0.2695	0.045
Mof_H 	H 	0.422	0.1623	0.2974	0.058
Mof_H 	H 	0.526	0.2994	0.37	0.045
Mof_H 	H 	0.5518	0.1968	0.3793	0.05
Mof_H 	H 	0.4656	0.2568	0.1086	0.046
Mof_H 	H 	0.4092	0.317	0.1359	0.038
Mof_H 	H 	0.5198	0.3742	0.2393	0.066
Mof_H 	H 	0.5718	0.337	0.1937	0.076
Mof_H 	H 	0.5003	0.0737	0.2378	0.066
Mof_H 	H 	0.5023	0.1044	0.1524	0.049
Mof_H 	H 	0.6188	0.1753	0.2246	0.069
Mof_H 	H 	0.6249	0.1289	0.3084	0.05
Mof_H 	H 	0.6497	0.3548	0.3787	0.139
Mof_H 	H 	0.6895	0.2579	0.4038	0.13
Mof_H 	H 	0.0978	0.2777	0.9932	0.144
Mof_H 	H 	0.0209	0.3047	0.0086	0.147
Mof_H 	H 	0.0881	0.3981	0.8955	0.039
Mof_H 	H 	0.0289	0.436	0.9325	0.039
Mof_H 	H 	0.0147	0.4841	0.7844	0.058
Mof_H 	H 	0.9408	0.493	0.8091	0.047
Mof_H 	H 	0.8806	0.2588	0.8556	0.069
Mof_H 	H 	0.8911	0.3611	0.8831	0.048
Mof_H 	H 	0.8213	0.3885	0.7451	0.052
Mof_H 	H 	0.8386	0.2916	0.7194	0.058
Mof_H 	H 	0.0707	0.2372	0.8445	0.043
Mof_H 	H 	0.9796	0.1984	0.8059	0.054
Mof_H 	H 	0.0385	0.332	0.7381	0.05
Mof_H 	H 	0.9622	0.2674	0.6885	0.043
Mof_H 	H 	0.853	0.3781	0.6061	0.151
Mof_H 	H 	0.8537	0.4734	0.6465	0.147
Mof_O 	O 	0.7568	0.561	0.3986	-0.458
Mof_O 	O 	0.6377	0.5274	0.2838	-0.336
Mof_C 	C 	0.6809	0.5731	0.346	0.421
Mof_C 	C 	0.6467	0.6577	0.3713	-0.313
Mof_N 	N 	0.5617	0.6908	0.3076	-0.048
Mof_C 	C 	0.5597	0.7139	0.2233	-0.07
Mof_C 	C 	0.4726	0.7458	0.1607	-0.072
Mof_C 	C 	0.5441	0.7761	0.3439	-0.057
Mof_C 	C 	0.4643	0.8206	0.281	-0.089
Mof_C 	C 	0.4937	0.6247	0.2934	-0.071
Mof_C 	C 	0.4086	0.6672	0.2393	-0.079
Mof_N 	N 	0.4188	0.7587	0.2061	-0.041
Mof_C 	C 	0.3371	0.8001	0.1427	-0.324
Mof_C 	C 	0.2735	0.8234	0.1762	0.439
Mof_O 	O 	0.2135	0.8672	0.1223	-0.465
Mof_O 	O 	0.2839	0.7982	0.2485	-0.327
Mof_O 	O 	0.9276	0.6372	0.4468	-0.502
Mof_O 	O 	0.0381	0.6322	0.5763	-0.493
Mof_C 	C 	0.9775	0.6706	0.5171	0.534
Mof_C 	C 	0.9612	0.7701	0.5269	-0.376
Mof_N 	N 	0.0045	0.8085	0.6171	-0.046
Mof_C 	C 	0.9688	0.9022	0.6137	-0.052
Mof_C 	C 	0.0216	0.9513	0.6982	-0.095
Mof_C 	C 	0.0969	0.8162	0.6499	-0.068
Mof_C 	C 	0.1366	0.8435	0.7449	-0.08
Mof_C 	C 	0.9875	0.7528	0.6806	-0.054
Mof_C 	C 	0.0112	0.8066	0.7626	-0.084
Mof_N 	N 	0.0702	0.8827	0.7666	-0.035
Mof_C 	C 	0.1122	0.924	0.8553	-0.38
Mof_C 	C 	0.054	0.9602	0.8904	0.527
Mof_O 	O 	0.0912	0.9757	0.9701	-0.49
Mof_O 	O 	0.9793	0.9729	0.8422	-0.497
Mof_Gd	Gd	0.87063	0.49388	0.38425	1.73
Mof_H 	H 	0.6423	0.6416	0.4227	0.126
Mof_H 	H 	0.6858	0.7066	0.3836	0.123
Mof_H 	H 	0.5963	0.7643	0.2305	0.045
Mof_H 	H 	0.578	0.6623	0.2026	0.058
Mof_H 	H 	0.474	0.7994	0.13	0.044
Mof_H 	H 	0.4482	0.6968	0.1207	0.05
Mof_H 	H 	0.5344	0.7568	0.3914	0.045
Mof_H 	H 	0.5908	0.817	0.3641	0.037
Mof_H 	H 	0.4802	0.8742	0.2607	0.065
Mof_H 	H 	0.4282	0.837	0.3063	0.075
Mof_H 	H 	0.4997	0.5737	0.2622	0.065
Mof_H 	H 	0.4977	0.6044	0.3476	0.047
Mof_H 	H 	0.3812	0.6753	0.2754	0.069
Mof_H 	H 	0.3751	0.6289	0.1916	0.05
Mof_H 	H 	0.3503	0.8548	0.1213	0.137
Mof_H 	H 	0.3105	0.7579	0.0962	0.129
Mof_H 	H 	0.9022	0.7777	0.5068	0.143
Mof_H 	H 	0.9791	0.8047	0.4914	0.141
Mof_H 	H 	0.9119	0.8981	0.6045	0.035
Mof_H 	H 	0.9711	0.936	0.5675	0.036
Mof_H 	H 	0.9853	0.9841	0.7156	0.067
Mof_H 	H 	0.0592	0.993	0.6909	0.052
Mof_H 	H 	0.1194	0.7588	0.6444	0.069
Mof_H 	H 	0.1089	0.8611	0.6169	0.047
Mof_H 	H 	0.1787	0.8885	0.7549	0.053
Mof_H 	H 	0.1614	0.7916	0.7806	0.059
Mof_H 	H 	0.9293	0.7372	0.6555	0.04
Mof_H 	H 	0.0204	0.6984	0.6941	0.05
Mof_H 	H 	0.9615	0.832	0.7619	0.057
Mof_H 	H 	0.0378	0.7674	0.8115	0.048
Mof_H 	H 	0.147	0.8781	0.8939	0.151
Mof_H 	H 	0.1463	0.9734	0.8535	0.147
Mof_O 	O 	0.7568	0.939	0.8986	-0.452
Mof_O 	O 	0.6377	0.9726	0.7838	-0.333
Mof_C 	C 	0.6809	0.9269	0.846	0.42
Mof_C 	C 	0.6467	0.8423	0.8713	-0.313
Mof_N 	N 	0.5617	0.8092	0.8076	-0.048
Mof_C 	C 	0.5597	0.7861	0.7233	-0.071
Mof_C 	C 	0.4726	0.7542	0.6607	-0.072
Mof_C 	C 	0.5441	0.7239	0.8439	-0.057
Mof_C 	C 	0.4643	0.6794	0.781	-0.09
Mof_C 	C 	0.4937	0.8753	0.7934	-0.072
Mof_C 	C 	0.4086	0.8328	0.7393	-0.078
Mof_N 	N 	0.4188	0.7413	0.7061	-0.041
Mof_C 	C 	0.3371	0.6999	0.6427	-0.325
Mof_C 	C 	0.2735	0.6766	0.6762	0.441
Mof_O 	O 	0.2135	0.6328	0.6223	-0.466
Mof_O 	O 	0.2839	0.7018	0.7485	-0.327
Mof_O 	O 	0.9276	0.8628	0.9468	-0.492
Mof_O 	O 	0.0381	0.8678	0.0763	-0.491
Mof_C 	C 	0.9775	0.8294	0.0171	0.526
Mof_C 	C 	0.9612	0.7299	0.0269	-0.384
Mof_N 	N 	0.0045	0.6915	0.1171	-0.04
Mof_C 	C 	0.9688	0.5978	0.1137	-0.067
Mof_C 	C 	0.0216	0.5487	0.1982	-0.075
Mof_C 	C 	0.0969	0.6838	0.1499	-0.07
Mof_C 	C 	0.1366	0.6565	0.2449	-0.078
Mof_C 	C 	0.9875	0.7472	0.1806	-0.068
Mof_C 	C 	0.0112	0.6934	0.2626	-0.07
Mof_N 	N 	0.0702	0.6173	0.2666	-0.039
Mof_C 	C 	0.1122	0.576	0.3553	-0.382
Mof_C 	C 	0.054	0.5398	0.3904	0.534
Mof_O 	O 	0.0912	0.5243	0.4701	-0.497
Mof_O 	O 	0.9793	0.5271	0.3422	-0.507
Mof_Gd	Gd	0.87063	0.00612	0.88425	1.707
Mof_H 	H 	0.6423	0.8584	0.9227	0.127
Mof_H 	H 	0.6858	0.7934	0.8836	0.124
Mof_H 	H 	0.5963	0.7357	0.7305	0.045
Mof_H 	H 	0.578	0.8377	0.7026	0.058
Mof_H 	H 	0.474	0.7006	0.63	0.045
Mof_H 	H 	0.4482	0.8032	0.6207	0.05
Mof_H 	H 	0.5344	0.7432	0.8914	0.046
Mof_H 	H 	0.5908	0.683	0.8641	0.038
Mof_H 	H 	0.4802	0.6258	0.7607	0.066
Mof_H 	H 	0.4282	0.663	0.8063	0.076
Mof_H 	H 	0.4997	0.9263	0.7622	0.066
Mof_H 	H 	0.4977	0.8956	0.8476	0.049
Mof_H 	H 	0.3812	0.8247	0.7754	0.069
Mof_H 	H 	0.3751	0.8711	0.6916	0.05
Mof_H 	H 	0.3503	0.6452	0.6213	0.139
Mof_H 	H 	0.3105	0.7421	0.5962	0.13
Mof_H 	H 	0.9022	0.7223	0.0068	0.144
Mof_H 	H 	0.9791	0.6953	0.9914	0.147
Mof_H 	H 	0.9119	0.6019	0.1045	0.039
Mof_H 	H 	0.9711	0.564	0.0675	0.039
Mof_H 	H 	0.9853	0.5159	0.2156	0.058
Mof_H 	H 	0.0592	0.507	0.1909	0.047
Mof_H 	H 	0.1194	0.7412	0.1444	0.069
Mof_H 	H 	0.1089	0.6389	0.1169	0.048
Mof_H 	H 	0.1787	0.6115	0.2549	0.052
Mof_H 	H 	0.1614	0.7084	0.2806	0.058
Mof_H 	H 	0.9293	0.7628	0.1555	0.043
Mof_H 	H 	0.0204	0.8016	0.1941	0.054
Mof_H 	H 	0.9615	0.668	0.2619	0.05
Mof_H 	H 	0.0378	0.7326	0.3115	0.043
Mof_H 	H 	0.147	0.6219	0.3939	0.151
Mof_H 	H 	0.1463	0.5266	0.3535	0.147
Mof_O 	O 	0.2432	0.439	0.6014	-0.458
Mof_O 	O 	0.3623	0.4726	0.7162	-0.336
Mof_C 	C 	0.3191	0.4269	0.654	0.421
Mof_C 	C 	0.3533	0.3423	0.6287	-0.313
Mof_N 	N 	0.4383	0.3092	0.6924	-0.048
Mof_C 	C 	0.4403	0.2861	0.7767	-0.07
Mof_C 	C 	0.5274	0.2542	0.8393	-0.072
Mof_C 	C 	0.4559	0.2239	0.6561	-0.057
Mof_C 	C 	0.5357	0.1794	0.719	-0.089
Mof_C 	C 	0.5063	0.3753	0.7066	-0.071
Mof_C 	C 	0.5914	0.3328	0.7607	-0.079
Mof_N 	N 	0.5812	0.2413	0.7939	-0.041
Mof_C 	C 	0.6629	0.1999	0.8573	-0.324
Mof_C 	C 	0.7265	0.1766	0.8238	0.439
Mof_O 	O 	0.7865	0.1328	0.8777	-0.465
Mof_O 	O 	0.7161	0.2018	0.7515	-0.327
Mof_O 	O 	0.0724	0.3628	0.5532	-0.502
Mof_O 	O 	0.9619	0.3678	0.4237	-0.493
Mof_C 	C 	0.0225	0.3294	0.4829	0.534
Mof_C 	C 	0.0388	0.2299	0.4731	-0.376
Mof_N 	N 	0.9955	0.1915	0.3829	-0.046
Mof_C 	C 	0.0312	0.0978	0.3863	-0.052
Mof_C 	C 	0.9784	0.0487	0.3018	-0.095
Mof_C 	C 	0.9031	0.1838	0.3501	-0.068
Mof_C 	C 	0.8634	0.1565	0.2551	-0.08
Mof_C 	C 	0.0125	0.2472	0.3194	-0.054
Mof_C 	C 	0.9888	0.1934	0.2374	-0.084
Mof_N 	N 	0.9298	0.1173	0.2334	-0.035
Mof_C 	C 	0.8878	0.076	0.1447	-0.38
Mof_C 	C 	0.946	0.0398	0.1096	0.527
Mof_O 	O 	0.9088	0.0243	0.0299	-0.49
Mof_O 	O 	0.0207	0.0271	0.1578	-0.497
Mof_Gd	Gd	0.12937	0.50612	0.61575	1.73
Mof_H 	H 	0.3577	0.3584	0.5773	0.126
Mof_H 	H 	0.3142	0.2934	0.6164	0.123
Mof_H 	H 	0.4037	0.2357	0.7695	0.045
Mof_H 	H 	0.422	0.3377	0.7974	0.058
Mof_H 	H 	0.526	0.2006	0.87	0.044
Mof_H 	H 	0.5518	0.3032	0.8793	0.05
Mof_H 	H 	0.4656	0.2432	0.6086	0.045
Mof_H 	H 	0.4092	0.183	0.6359	0.037
Mof_H 	H 	0.5198	0.1258	0.7393	0.065
Mof_H 	H 	0.5718	0.163	0.6937	0.075
Mof_H 	H 	0.5003	0.4263	0.7378	0.065
Mof_H 	H 	0.5023	0.3956	0.6524	0.047
Mof_H 	H 	0.6188	0.3247	0.7246	0.069
Mof_H 	H 	0.6249	0.3711	0.8084	0.05
Mof_H 	H 	0.6497	0.1452	0.8787	0.137
Mof_H 	H 	0.6895	0.2421	0.9038	0.129
Mof_H 	H 	0.0978	0.2223	0.4932	0.143
Mof_H 	H 	0.0209	0.1953	0.5086	0.141
Mof_H 	H 	0.0881	0.1019	0.3955	0.035
Mof_H 	H 	0.0289	0.064	0.4325	0.036
Mof_H 	H 	0.0147	0.0159	0.2844	0.067
Mof_H 	H 	0.9408	0.007	0.3091	0.052
Mof_H 	H 	0.8806	0.2412	0.3556	0.069
Mof_H 	H 	0.8911	0.1389	0.3831	0.047
Mof_H 	H 	0.8213	0.1115	0.2451	0.053
Mof_H 	H 	0.8386	0.2084	0.2194	0.059
Mof_H 	H 	0.0707	0.2628	0.3445	0.04
Mof_H 	H 	0.9796	0.3016	0.3059	0.05
Mof_H 	H 	0.0385	0.168	0.2381	0.057
Mof_H 	H 	0.9622	0.2326	0.1885	0.048
Mof_H 	H 	0.853	0.1219	0.1061	0.151
Mof_H 	H 	0.8537	0.0266	0.1465	0.147
_end
