data_functionalizedCrystal
_audit_creation_method	'EQeq! by Chris Wilmer'
_symmetry_space_group_name_H-M	'P1'
_symmetry_Int_Tables_number	1
_symmetry_cell_setting	triclinic
loop_
_symmetry_equiv_pos_as_xyz
  x,y,z
_cell_length_a	18.185
_cell_length_b	28.67
_cell_length_c	20.572
_cell_angle_alpha	90
_cell_angle_beta	108.003
_cell_angle_gamma	90
loop_
_atom_site_label
_atom_site_type_symbol
_atom_site_fract_x
_atom_site_fract_y
_atom_site_fract_z
_atom_site_charge
Mof_Cd	Cd	0.59995	0.08184	0.50672	0.48
Mof_C 	C 	0.6079	0.0515	0.3792	0.307
Mof_C 	C 	0.6155	0.0272	0.3181	-0.061
Mof_C 	C 	0.6381	0.9811	0.3221	-0.012
Mof_H 	H 	0.6526	0.966	0.3642	0.047
Mof_C 	C 	0.6396	0.9569	0.2643	-0.032
Mof_H 	H 	0.6533	0.9256	0.2679	0.059
Mof_C 	C 	0.6213	0.9786	0.2011	-0.048
Mof_C 	C 	0.5999	0.0243	0.1984	-0.025
Mof_H 	H 	0.5874	0.0396	0.1566	0.061
Mof_C 	C 	0.5959	0.0487	0.2548	-0.018
Mof_H 	H 	0.5801	0.0797	0.2504	0.059
Mof_C 	C 	0.6227	0.9503	0.1397	0.305
Mof_C 	C 	0.6791	0.1619	0.5115	0.298
Mof_C 	C 	0.716	0.2074	0.5061	-0.049
Mof_C 	C 	0.7937	0.2148	0.5365	-0.022
Mof_H 	H 	0.8238	0.1908	0.5618	0.056
Mof_C 	C 	0.6713	0.2428	0.4695	-0.024
Mof_H 	H 	0.6185	0.2386	0.449	0.057
Mof_C 	C 	0.4411	0.1345	0.4578	0.139
Mof_H 	H 	0.4713	0.1532	0.4392	0.007
Mof_C 	C 	0.3679	0.1499	0.4538	-0.229
Mof_H 	H 	0.3503	0.1789	0.4351	0.109
Mof_C 	C 	0.3225	0.1216	0.4778	0.18
Mof_C 	C 	0.3503	0.0799	0.5063	-0.24
Mof_H 	H 	0.3208	0.0597	0.5236	0.126
Mof_C 	C 	0.4225	0.0697	0.5081	0.153
Mof_H 	H 	0.4415	0.041	0.5271	0.007
Mof_C 	C 	0.2401	0.135	0.4752	-0.173
Mof_H 	H 	0.2188	0.1103	0.4963	0.083
Mof_H 	H 	0.2421	0.1631	0.5018	0.081
Mof_C 	C 	0.1078	0.1531	0.3974	-0.07
Mof_H 	H 	0.1023	0.1826	0.4186	0.048
Mof_H 	H 	0.0838	0.1287	0.4164	0.048
Mof_C 	C 	0.0721	0.1557	0.3191	-0.032
Mof_H 	H 	0.0769	0.1873	0.304	0.038
Mof_H 	H 	0.1008	0.1353	0.298	0.052
Mof_C 	C 	0.9871	0.1416	0.2951	-0.18
Mof_H 	H 	0.9809	0.1104	0.3095	0.072
Mof_H 	H 	0.9611	0.163	0.3165	0.013
Mof_C 	C 	0.0422	0.1402	0.3327	-0.048
Mof_H 	H 	0.0342	0.1068	0.3299	0.031
Mof_H 	H 	0.9944	0.1553	0.3324	0.108
Mof_C 	C 	0.0682	0.1574	0.2734	-0.009
Mof_H 	H 	0.0771	0.1905	0.2766	0.007
Mof_H 	H 	0.1155	0.1416	0.2758	-0.005
Mof_N 	N 	0.4701	0.0954	0.486	-0.175
Mof_N 	N 	0.1891	0.1427	0.4069	-0.205
Mof_H 	H 	0.1915	0.1174	0.3816	0.11
Mof_H 	H 	0.2083	0.1666	0.3891	0.106
Mof_O 	O 	0.6292	0.0301	0.4354	-0.275
Mof_O 	O 	0.5828	0.0916	0.3747	-0.258
Mof_O 	O 	0.6052	0.9724	0.0854	-0.281
Mof_O 	O 	0.6345	0.9078	0.1435	-0.253
Mof_O 	O 	0.7192	0.1255	0.5209	-0.252
Mof_O 	O 	0.6084	0.1617	0.5044	-0.266
Mof_Cd	Cd	0.09995	0.58184	0.50672	0.479
Mof_C 	C 	0.1079	0.5515	0.3792	0.306
Mof_C 	C 	0.1155	0.5272	0.3181	-0.062
Mof_C 	C 	0.1381	0.4811	0.3221	-0.012
Mof_H 	H 	0.1526	0.466	0.3642	0.046
Mof_C 	C 	0.1396	0.4569	0.2643	-0.034
Mof_H 	H 	0.1533	0.4256	0.2679	0.059
Mof_C 	C 	0.1213	0.4786	0.2011	-0.048
Mof_C 	C 	0.0999	0.5243	0.1984	-0.026
Mof_H 	H 	0.0874	0.5396	0.1566	0.061
Mof_C 	C 	0.0959	0.5487	0.2548	-0.018
Mof_H 	H 	0.0801	0.5797	0.2504	0.058
Mof_C 	C 	0.1227	0.4503	0.1397	0.305
Mof_C 	C 	0.1791	0.6619	0.5115	0.298
Mof_C 	C 	0.216	0.7074	0.5061	-0.049
Mof_C 	C 	0.2937	0.7148	0.5365	-0.022
Mof_H 	H 	0.3238	0.6908	0.5618	0.056
Mof_C 	C 	0.1713	0.7428	0.4695	-0.024
Mof_H 	H 	0.1185	0.7386	0.449	0.057
Mof_C 	C 	0.9411	0.6345	0.4578	0.139
Mof_H 	H 	0.9713	0.6532	0.4392	0.007
Mof_C 	C 	0.8679	0.6499	0.4538	-0.229
Mof_H 	H 	0.8503	0.6789	0.4351	0.109
Mof_C 	C 	0.8225	0.6216	0.4778	0.18
Mof_C 	C 	0.8503	0.5799	0.5063	-0.24
Mof_H 	H 	0.8208	0.5597	0.5236	0.126
Mof_C 	C 	0.9225	0.5697	0.5081	0.153
Mof_H 	H 	0.9415	0.541	0.5271	0.007
Mof_C 	C 	0.7401	0.635	0.4752	-0.173
Mof_H 	H 	0.7188	0.6103	0.4963	0.083
Mof_H 	H 	0.7421	0.6631	0.5018	0.081
Mof_C 	C 	0.6078	0.6531	0.3974	-0.069
Mof_H 	H 	0.6023	0.6826	0.4186	0.048
Mof_H 	H 	0.5838	0.6287	0.4164	0.048
Mof_C 	C 	0.5721	0.6557	0.3191	-0.032
Mof_H 	H 	0.5769	0.6873	0.304	0.039
Mof_H 	H 	0.6008	0.6353	0.298	0.052
Mof_C 	C 	0.4871	0.6416	0.2951	-0.18
Mof_H 	H 	0.4809	0.6104	0.3095	0.072
Mof_H 	H 	0.4611	0.663	0.3165	0.013
Mof_C 	C 	0.5422	0.6402	0.3327	-0.049
Mof_H 	H 	0.5342	0.6068	0.3299	0.032
Mof_H 	H 	0.4944	0.6553	0.3324	0.108
Mof_C 	C 	0.5682	0.6574	0.2734	-0.008
Mof_H 	H 	0.5771	0.6905	0.2766	0.006
Mof_H 	H 	0.6155	0.6416	0.2758	-0.005
Mof_N 	N 	0.9701	0.5954	0.486	-0.175
Mof_N 	N 	0.6891	0.6427	0.4069	-0.205
Mof_H 	H 	0.6915	0.6174	0.3816	0.11
Mof_H 	H 	0.7083	0.6666	0.3891	0.107
Mof_O 	O 	0.1292	0.5301	0.4354	-0.275
Mof_O 	O 	0.0828	0.5916	0.3747	-0.258
Mof_O 	O 	0.1052	0.4724	0.0854	-0.281
Mof_O 	O 	0.1345	0.4078	0.1435	-0.253
Mof_O 	O 	0.2192	0.6255	0.5209	-0.252
Mof_O 	O 	0.1084	0.6617	0.5044	-0.266
Mof_Cd	Cd	0.40005	0.08184	0.99328	0.479
Mof_C 	C 	0.3921	0.0515	0.1208	0.306
Mof_C 	C 	0.3845	0.0272	0.1819	-0.062
Mof_C 	C 	0.3619	0.9811	0.1779	-0.013
Mof_H 	H 	0.3474	0.966	0.1358	0.046
Mof_C 	C 	0.3604	0.9569	0.2357	-0.033
Mof_H 	H 	0.3467	0.9256	0.2321	0.058
Mof_C 	C 	0.3787	0.9786	0.2989	-0.048
Mof_C 	C 	0.4001	0.0243	0.3016	-0.025
Mof_H 	H 	0.4126	0.0396	0.3434	0.061
Mof_C 	C 	0.4041	0.0487	0.2452	-0.018
Mof_H 	H 	0.4199	0.0797	0.2496	0.059
Mof_C 	C 	0.3773	0.9503	0.3603	0.305
Mof_C 	C 	0.3209	0.1619	0.9885	0.298
Mof_C 	C 	0.284	0.2074	0.9939	-0.05
Mof_C 	C 	0.2063	0.2148	0.9635	-0.022
Mof_H 	H 	0.1762	0.1908	0.9382	0.056
Mof_C 	C 	0.3287	0.2428	0.0305	-0.024
Mof_H 	H 	0.3815	0.2386	0.051	0.057
Mof_C 	C 	0.5589	0.1345	0.0422	0.139
Mof_H 	H 	0.5287	0.1532	0.0608	0.007
Mof_C 	C 	0.6321	0.1499	0.0462	-0.229
Mof_H 	H 	0.6497	0.1789	0.0649	0.11
Mof_C 	C 	0.6775	0.1216	0.0222	0.18
Mof_C 	C 	0.6497	0.0799	0.9937	-0.24
Mof_H 	H 	0.6792	0.0597	0.9764	0.126
Mof_C 	C 	0.5775	0.0697	0.9919	0.153
Mof_H 	H 	0.5585	0.041	0.9729	0.007
Mof_C 	C 	0.7599	0.135	0.0248	-0.173
Mof_H 	H 	0.7812	0.1103	0.0037	0.083
Mof_H 	H 	0.7579	0.1631	0.9982	0.081
Mof_C 	C 	0.8922	0.1531	0.1026	-0.069
Mof_H 	H 	0.8977	0.1826	0.0814	0.047
Mof_H 	H 	0.9162	0.1287	0.0836	0.048
Mof_C 	C 	0.9279	0.1557	0.1809	-0.032
Mof_H 	H 	0.9231	0.1873	0.196	0.039
Mof_H 	H 	0.8992	0.1353	0.202	0.052
Mof_C 	C 	0.0129	0.1416	0.2049	-0.179
Mof_H 	H 	0.0191	0.1104	0.1905	0.071
Mof_H 	H 	0.0389	0.163	0.1835	0.013
Mof_C 	C 	0.9578	0.1402	0.1673	-0.049
Mof_H 	H 	0.9658	0.1068	0.1701	0.032
Mof_H 	H 	0.0056	0.1553	0.1676	0.108
Mof_C 	C 	0.9318	0.1574	0.2266	-0.008
Mof_H 	H 	0.9229	0.1905	0.2234	0.006
Mof_H 	H 	0.8845	0.1416	0.2242	-0.005
Mof_N 	N 	0.5299	0.0954	0.014	-0.175
Mof_N 	N 	0.8109	0.1427	0.0931	-0.206
Mof_H 	H 	0.8085	0.1174	0.1184	0.11
Mof_H 	H 	0.7917	0.1666	0.1109	0.107
Mof_O 	O 	0.3708	0.0301	0.0646	-0.274
Mof_O 	O 	0.4172	0.0916	0.1253	-0.258
Mof_O 	O 	0.3948	0.9724	0.4146	-0.281
Mof_O 	O 	0.3655	0.9078	0.3565	-0.253
Mof_O 	O 	0.2808	0.1255	0.9791	-0.252
Mof_O 	O 	0.3916	0.1617	0.9956	-0.266
Mof_Cd	Cd	0.90005	0.58184	0.99328	0.479
Mof_C 	C 	0.8921	0.5515	0.1208	0.306
Mof_C 	C 	0.8845	0.5272	0.1819	-0.062
Mof_C 	C 	0.8619	0.4811	0.1779	-0.012
Mof_H 	H 	0.8474	0.466	0.1358	0.046
Mof_C 	C 	0.8604	0.4569	0.2357	-0.034
Mof_H 	H 	0.8467	0.4256	0.2321	0.059
Mof_C 	C 	0.8787	0.4786	0.2989	-0.048
Mof_C 	C 	0.9001	0.5243	0.3016	-0.026
Mof_H 	H 	0.9126	0.5396	0.3434	0.061
Mof_C 	C 	0.9041	0.5487	0.2452	-0.018
Mof_H 	H 	0.9199	0.5797	0.2496	0.058
Mof_C 	C 	0.8773	0.4503	0.3603	0.305
Mof_C 	C 	0.8209	0.6619	0.9885	0.298
Mof_C 	C 	0.784	0.7074	0.9939	-0.049
Mof_C 	C 	0.7063	0.7148	0.9635	-0.022
Mof_H 	H 	0.6762	0.6908	0.9382	0.056
Mof_C 	C 	0.8287	0.7428	0.0305	-0.024
Mof_H 	H 	0.8815	0.7386	0.051	0.057
Mof_C 	C 	0.0589	0.6345	0.0422	0.139
Mof_H 	H 	0.0287	0.6532	0.0608	0.006
Mof_C 	C 	0.1321	0.6499	0.0462	-0.229
Mof_H 	H 	0.1497	0.6789	0.0649	0.109
Mof_C 	C 	0.1775	0.6216	0.0222	0.18
Mof_C 	C 	0.1497	0.5799	0.9937	-0.24
Mof_H 	H 	0.1792	0.5597	0.9764	0.126
Mof_C 	C 	0.0775	0.5697	0.9919	0.154
Mof_H 	H 	0.0585	0.541	0.9729	0.007
Mof_C 	C 	0.2599	0.635	0.0248	-0.173
Mof_H 	H 	0.2812	0.6103	0.0037	0.083
Mof_H 	H 	0.2579	0.6631	0.9982	0.081
Mof_C 	C 	0.3922	0.6531	0.1026	-0.069
Mof_H 	H 	0.3977	0.6826	0.0814	0.047
Mof_H 	H 	0.4162	0.6287	0.0836	0.048
Mof_C 	C 	0.4279	0.6557	0.1809	-0.032
Mof_H 	H 	0.4231	0.6873	0.196	0.039
Mof_H 	H 	0.3992	0.6353	0.202	0.052
Mof_C 	C 	0.5129	0.6416	0.2049	-0.18
Mof_H 	H 	0.5191	0.6104	0.1905	0.072
Mof_H 	H 	0.5389	0.663	0.1835	0.013
Mof_C 	C 	0.4578	0.6402	0.1673	-0.049
Mof_H 	H 	0.4658	0.6068	0.1701	0.032
Mof_H 	H 	0.5056	0.6553	0.1676	0.108
Mof_C 	C 	0.4318	0.6574	0.2266	-0.008
Mof_H 	H 	0.4229	0.6905	0.2234	0.006
Mof_H 	H 	0.3845	0.6416	0.2242	-0.005
Mof_N 	N 	0.0299	0.5954	0.014	-0.175
Mof_N 	N 	0.3109	0.6427	0.0931	-0.205
Mof_H 	H 	0.3085	0.6174	0.1184	0.11
Mof_H 	H 	0.2917	0.6666	0.1109	0.106
Mof_O 	O 	0.8708	0.5301	0.0646	-0.275
Mof_O 	O 	0.9172	0.5916	0.1253	-0.258
Mof_O 	O 	0.8948	0.4724	0.4146	-0.281
Mof_O 	O 	0.8655	0.4078	0.3565	-0.253
Mof_O 	O 	0.7808	0.6255	0.9791	-0.252
Mof_O 	O 	0.8916	0.6617	0.9956	-0.266
Mof_Cd	Cd	0.40005	0.91816	0.49328	0.479
Mof_C 	C 	0.3921	0.9485	0.6208	0.306
Mof_C 	C 	0.3845	0.9728	0.6819	-0.062
Mof_C 	C 	0.3619	0.0189	0.6779	-0.013
Mof_H 	H 	0.3474	0.034	0.6358	0.046
Mof_C 	C 	0.3604	0.0431	0.7357	-0.033
Mof_H 	H 	0.3467	0.0744	0.7321	0.059
Mof_C 	C 	0.3787	0.0214	0.7989	-0.048
Mof_C 	C 	0.4001	0.9757	0.8016	-0.025
Mof_H 	H 	0.4126	0.9604	0.8434	0.061
Mof_C 	C 	0.4041	0.9513	0.7452	-0.018
Mof_H 	H 	0.4199	0.9203	0.7496	0.059
Mof_C 	C 	0.3773	0.0497	0.8603	0.305
Mof_C 	C 	0.3209	0.8381	0.4885	0.298
Mof_C 	C 	0.284	0.7926	0.4939	-0.049
Mof_C 	C 	0.2063	0.7852	0.4635	-0.022
Mof_H 	H 	0.1762	0.8092	0.4382	0.056
Mof_C 	C 	0.3287	0.7572	0.5305	-0.024
Mof_H 	H 	0.3815	0.7614	0.551	0.057
Mof_C 	C 	0.5589	0.8655	0.5422	0.139
Mof_H 	H 	0.5287	0.8468	0.5608	0.007
Mof_C 	C 	0.6321	0.8501	0.5462	-0.229
Mof_H 	H 	0.6497	0.8211	0.5649	0.109
Mof_C 	C 	0.6775	0.8784	0.5222	0.18
Mof_C 	C 	0.6497	0.9201	0.4937	-0.24
Mof_H 	H 	0.6792	0.9403	0.4764	0.126
Mof_C 	C 	0.5775	0.9303	0.4919	0.153
Mof_H 	H 	0.5585	0.959	0.4729	0.007
Mof_C 	C 	0.7599	0.865	0.5248	-0.173
Mof_H 	H 	0.7812	0.8897	0.5037	0.083
Mof_H 	H 	0.7579	0.8369	0.4982	0.081
Mof_C 	C 	0.8922	0.8469	0.6026	-0.07
Mof_H 	H 	0.8977	0.8174	0.5814	0.048
Mof_H 	H 	0.9162	0.8713	0.5836	0.048
Mof_C 	C 	0.9279	0.8443	0.6809	-0.032
Mof_H 	H 	0.9231	0.8127	0.696	0.038
Mof_H 	H 	0.8992	0.8647	0.702	0.052
Mof_C 	C 	0.0129	0.8584	0.7049	-0.18
Mof_H 	H 	0.0191	0.8896	0.6905	0.072
Mof_H 	H 	0.0389	0.837	0.6835	0.013
Mof_C 	C 	0.9578	0.8598	0.6673	-0.048
Mof_H 	H 	0.9658	0.8932	0.6701	0.031
Mof_H 	H 	0.0056	0.8447	0.6676	0.108
Mof_C 	C 	0.9318	0.8426	0.7266	-0.009
Mof_H 	H 	0.9229	0.8095	0.7234	0.007
Mof_H 	H 	0.8845	0.8584	0.7242	-0.005
Mof_N 	N 	0.5299	0.9046	0.514	-0.175
Mof_N 	N 	0.8109	0.8573	0.5931	-0.205
Mof_H 	H 	0.8085	0.8826	0.6184	0.11
Mof_H 	H 	0.7917	0.8334	0.6109	0.106
Mof_O 	O 	0.3708	0.9699	0.5646	-0.275
Mof_O 	O 	0.4172	0.9084	0.6253	-0.258
Mof_O 	O 	0.3948	0.0276	0.9146	-0.281
Mof_O 	O 	0.3655	0.0922	0.8565	-0.253
Mof_O 	O 	0.2808	0.8745	0.4791	-0.252
Mof_O 	O 	0.3916	0.8383	0.4956	-0.266
Mof_Cd	Cd	0.90005	0.41816	0.49328	0.479
Mof_C 	C 	0.8921	0.4485	0.6208	0.306
Mof_C 	C 	0.8845	0.4728	0.6819	-0.062
Mof_C 	C 	0.8619	0.5189	0.6779	-0.012
Mof_H 	H 	0.8474	0.534	0.6358	0.046
Mof_C 	C 	0.8604	0.5431	0.7357	-0.034
Mof_H 	H 	0.8467	0.5744	0.7321	0.059
Mof_C 	C 	0.8787	0.5214	0.7989	-0.048
Mof_C 	C 	0.9001	0.4757	0.8016	-0.026
Mof_H 	H 	0.9126	0.4604	0.8434	0.061
Mof_C 	C 	0.9041	0.4513	0.7452	-0.018
Mof_H 	H 	0.9199	0.4203	0.7496	0.058
Mof_C 	C 	0.8773	0.5497	0.8603	0.305
Mof_C 	C 	0.8209	0.3381	0.4885	0.298
Mof_C 	C 	0.784	0.2926	0.4939	-0.049
Mof_C 	C 	0.7063	0.2852	0.4635	-0.022
Mof_H 	H 	0.6762	0.3092	0.4382	0.056
Mof_C 	C 	0.8287	0.2572	0.5305	-0.024
Mof_H 	H 	0.8815	0.2614	0.551	0.057
Mof_C 	C 	0.0589	0.3655	0.5422	0.139
Mof_H 	H 	0.0287	0.3468	0.5608	0.007
Mof_C 	C 	0.1321	0.3501	0.5462	-0.229
Mof_H 	H 	0.1497	0.3211	0.5649	0.109
Mof_C 	C 	0.1775	0.3784	0.5222	0.18
Mof_C 	C 	0.1497	0.4201	0.4937	-0.24
Mof_H 	H 	0.1792	0.4403	0.4764	0.126
Mof_C 	C 	0.0775	0.4303	0.4919	0.153
Mof_H 	H 	0.0585	0.459	0.4729	0.007
Mof_C 	C 	0.2599	0.365	0.5248	-0.173
Mof_H 	H 	0.2812	0.3897	0.5037	0.083
Mof_H 	H 	0.2579	0.3369	0.4982	0.081
Mof_C 	C 	0.3922	0.3469	0.6026	-0.069
Mof_H 	H 	0.3977	0.3174	0.5814	0.048
Mof_H 	H 	0.4162	0.3713	0.5836	0.048
Mof_C 	C 	0.4279	0.3443	0.6809	-0.032
Mof_H 	H 	0.4231	0.3127	0.696	0.039
Mof_H 	H 	0.3992	0.3647	0.702	0.052
Mof_C 	C 	0.5129	0.3584	0.7049	-0.18
Mof_H 	H 	0.5191	0.3896	0.6905	0.072
Mof_H 	H 	0.5389	0.337	0.6835	0.013
Mof_C 	C 	0.4578	0.3598	0.6673	-0.049
Mof_H 	H 	0.4658	0.3932	0.6701	0.032
Mof_H 	H 	0.5056	0.3447	0.6676	0.108
Mof_C 	C 	0.4318	0.3426	0.7266	-0.008
Mof_H 	H 	0.4229	0.3095	0.7234	0.006
Mof_H 	H 	0.3845	0.3584	0.7242	-0.005
Mof_N 	N 	0.0299	0.4046	0.514	-0.175
Mof_N 	N 	0.3109	0.3573	0.5931	-0.205
Mof_H 	H 	0.3085	0.3826	0.6184	0.11
Mof_H 	H 	0.2917	0.3334	0.6109	0.107
Mof_O 	O 	0.8708	0.4699	0.5646	-0.275
Mof_O 	O 	0.9172	0.4084	0.6253	-0.258
Mof_O 	O 	0.8948	0.5276	0.9146	-0.281
Mof_O 	O 	0.8655	0.5922	0.8565	-0.253
Mof_O 	O 	0.7808	0.3745	0.4791	-0.252
Mof_O 	O 	0.8916	0.3383	0.4956	-0.266
Mof_Cd	Cd	0.59995	0.91816	0.00672	0.479
Mof_C 	C 	0.6079	0.9485	0.8792	0.306
Mof_C 	C 	0.6155	0.9728	0.8181	-0.062
Mof_C 	C 	0.6381	0.0189	0.8221	-0.013
Mof_H 	H 	0.6526	0.034	0.8642	0.046
Mof_C 	C 	0.6396	0.0431	0.7643	-0.033
Mof_H 	H 	0.6533	0.0744	0.7679	0.058
Mof_C 	C 	0.6213	0.0214	0.7011	-0.048
Mof_C 	C 	0.5999	0.9757	0.6984	-0.025
Mof_H 	H 	0.5874	0.9604	0.6566	0.061
Mof_C 	C 	0.5959	0.9513	0.7548	-0.018
Mof_H 	H 	0.5801	0.9203	0.7504	0.059
Mof_C 	C 	0.6227	0.0497	0.6397	0.305
Mof_C 	C 	0.6791	0.8381	0.0115	0.298
Mof_C 	C 	0.716	0.7926	0.0061	-0.05
Mof_C 	C 	0.7937	0.7852	0.0365	-0.022
Mof_H 	H 	0.8238	0.8092	0.0618	0.056
Mof_C 	C 	0.6713	0.7572	0.9695	-0.024
Mof_H 	H 	0.6185	0.7614	0.949	0.057
Mof_C 	C 	0.4411	0.8655	0.9578	0.139
Mof_H 	H 	0.4713	0.8468	0.9392	0.007
Mof_C 	C 	0.3679	0.8501	0.9538	-0.229
Mof_H 	H 	0.3503	0.8211	0.9351	0.11
Mof_C 	C 	0.3225	0.8784	0.9778	0.18
Mof_C 	C 	0.3503	0.9201	0.0063	-0.24
Mof_H 	H 	0.3208	0.9403	0.0236	0.126
Mof_C 	C 	0.4225	0.9303	0.0081	0.153
Mof_H 	H 	0.4415	0.959	0.0271	0.007
Mof_C 	C 	0.2401	0.865	0.9752	-0.173
Mof_H 	H 	0.2188	0.8897	0.9963	0.083
Mof_H 	H 	0.2421	0.8369	0.0018	0.081
Mof_C 	C 	0.1078	0.8469	0.8974	-0.069
Mof_H 	H 	0.1023	0.8174	0.9186	0.047
Mof_H 	H 	0.0838	0.8713	0.9164	0.048
Mof_C 	C 	0.0721	0.8443	0.8191	-0.032
Mof_H 	H 	0.0769	0.8127	0.804	0.039
Mof_H 	H 	0.1008	0.8647	0.798	0.052
Mof_C 	C 	0.9871	0.8584	0.7951	-0.179
Mof_H 	H 	0.9809	0.8896	0.8095	0.071
Mof_H 	H 	0.9611	0.837	0.8165	0.013
Mof_C 	C 	0.0422	0.8598	0.8327	-0.049
Mof_H 	H 	0.0342	0.8932	0.8299	0.032
Mof_H 	H 	0.9944	0.8447	0.8324	0.108
Mof_C 	C 	0.0682	0.8426	0.7734	-0.008
Mof_H 	H 	0.0771	0.8095	0.7766	0.006
Mof_H 	H 	0.1155	0.8584	0.7758	-0.005
Mof_N 	N 	0.4701	0.9046	0.986	-0.175
Mof_N 	N 	0.1891	0.8573	0.9069	-0.206
Mof_H 	H 	0.1915	0.8826	0.8816	0.11
Mof_H 	H 	0.2083	0.8334	0.8891	0.107
Mof_O 	O 	0.6292	0.9699	0.9354	-0.274
Mof_O 	O 	0.5828	0.9084	0.8747	-0.258
Mof_O 	O 	0.6052	0.0276	0.5854	-0.281
Mof_O 	O 	0.6345	0.0922	0.6435	-0.253
Mof_O 	O 	0.7192	0.8745	0.0209	-0.252
Mof_O 	O 	0.6084	0.8383	0.0044	-0.266
Mof_Cd	Cd	0.09995	0.41816	0.00672	0.479
Mof_C 	C 	0.1079	0.4485	0.8792	0.306
Mof_C 	C 	0.1155	0.4728	0.8181	-0.062
Mof_C 	C 	0.1381	0.5189	0.8221	-0.012
Mof_H 	H 	0.1526	0.534	0.8642	0.046
Mof_C 	C 	0.1396	0.5431	0.7643	-0.034
Mof_H 	H 	0.1533	0.5744	0.7679	0.059
Mof_C 	C 	0.1213	0.5214	0.7011	-0.048
Mof_C 	C 	0.0999	0.4757	0.6984	-0.026
Mof_H 	H 	0.0874	0.4604	0.6566	0.061
Mof_C 	C 	0.0959	0.4513	0.7548	-0.018
Mof_H 	H 	0.0801	0.4203	0.7504	0.058
Mof_C 	C 	0.1227	0.5497	0.6397	0.305
Mof_C 	C 	0.1791	0.3381	0.0115	0.298
Mof_C 	C 	0.216	0.2926	0.0061	-0.049
Mof_C 	C 	0.2937	0.2852	0.0365	-0.022
Mof_H 	H 	0.3238	0.3092	0.0618	0.056
Mof_C 	C 	0.1713	0.2572	0.9695	-0.024
Mof_H 	H 	0.1185	0.2614	0.949	0.057
Mof_C 	C 	0.9411	0.3655	0.9578	0.139
Mof_H 	H 	0.9713	0.3468	0.9392	0.006
Mof_C 	C 	0.8679	0.3501	0.9538	-0.229
Mof_H 	H 	0.8503	0.3211	0.9351	0.109
Mof_C 	C 	0.8225	0.3784	0.9778	0.18
Mof_C 	C 	0.8503	0.4201	0.0063	-0.24
Mof_H 	H 	0.8208	0.4403	0.0236	0.126
Mof_C 	C 	0.9225	0.4303	0.0081	0.154
Mof_H 	H 	0.9415	0.459	0.0271	0.007
Mof_C 	C 	0.7401	0.365	0.9752	-0.173
Mof_H 	H 	0.7188	0.3897	0.9963	0.083
Mof_H 	H 	0.7421	0.3369	0.0018	0.081
Mof_C 	C 	0.6078	0.3469	0.8974	-0.069
Mof_H 	H 	0.6023	0.3174	0.9186	0.047
Mof_H 	H 	0.5838	0.3713	0.9164	0.048
Mof_C 	C 	0.5721	0.3443	0.8191	-0.032
Mof_H 	H 	0.5769	0.3127	0.804	0.039
Mof_H 	H 	0.6008	0.3647	0.798	0.052
Mof_C 	C 	0.4871	0.3584	0.7951	-0.18
Mof_H 	H 	0.4809	0.3896	0.8095	0.072
Mof_H 	H 	0.4611	0.337	0.8165	0.013
Mof_C 	C 	0.5422	0.3598	0.8327	-0.049
Mof_H 	H 	0.5342	0.3932	0.8299	0.032
Mof_H 	H 	0.4944	0.3447	0.8324	0.108
Mof_C 	C 	0.5682	0.3426	0.7734	-0.008
Mof_H 	H 	0.5771	0.3095	0.7766	0.006
Mof_H 	H 	0.6155	0.3584	0.7758	-0.005
Mof_N 	N 	0.9701	0.4046	0.986	-0.175
Mof_N 	N 	0.6891	0.3573	0.9069	-0.205
Mof_H 	H 	0.6915	0.3826	0.8816	0.11
Mof_H 	H 	0.7083	0.3334	0.8891	0.106
Mof_O 	O 	0.1292	0.4699	0.9354	-0.275
Mof_O 	O 	0.0828	0.4084	0.8747	-0.258
Mof_O 	O 	0.1052	0.5276	0.5854	-0.281
Mof_O 	O 	0.1345	0.5922	0.6435	-0.253
Mof_O 	O 	0.2192	0.3745	0.0209	-0.252
Mof_O 	O 	0.1084	0.3383	0.0044	-0.266
_end
