data_functionalizedCrystal
_audit_creation_method	'EQeq! by Chris Wilmer'
_symmetry_space_group_name_H-M	'P1'
_symmetry_Int_Tables_number	1
_symmetry_cell_setting	triclinic
loop_
_symmetry_equiv_pos_as_xyz
  x,y,z
_cell_length_a	29.702
_cell_length_b	29.702
_cell_length_c	29.702
_cell_angle_alpha	60
_cell_angle_beta	60
_cell_angle_gamma	60
loop_
_atom_site_label
_atom_site_type_symbol
_atom_site_fract_x
_atom_site_fract_y
_atom_site_fract_z
_atom_site_charge
Mof_Zn	Zn	0.86463	0.5	0.13537	1.226
Mof_Zn	Zn	0.76302	0.5	0.23698	1.219
Mof_Zn	Zn	0.5	0.86463	0.5	1.226
Mof_Zn	Zn	0.5	0.76302	0.5	1.219
Mof_Zn	Zn	0.13537	0.5	0.86463	1.226
Mof_Zn	Zn	0.23698	0.5	0.76302	1.219
Mof_Zn	Zn	0.5	0.13537	0.5	1.226
Mof_Zn	Zn	0.5	0.23698	0.5	1.219
Mof_Zn	Zn	0.86463	0.13537	0.5	1.226
Mof_Zn	Zn	0.76302	0.23698	0.5	1.219
Mof_Zn	Zn	0.5	0.5	0.13537	1.226
Mof_Zn	Zn	0.5	0.5	0.23698	1.219
Mof_Zn	Zn	0.13537	0.86463	0.5	1.226
Mof_Zn	Zn	0.23698	0.76302	0.5	1.219
Mof_Zn	Zn	0.5	0.5	0.86463	1.226
Mof_Zn	Zn	0.5	0.5	0.76302	1.219
Mof_Zn	Zn	0.86463	0.5	0.5	1.226
Mof_Zn	Zn	0.76302	0.5	0.5	1.219
Mof_Zn	Zn	0.5	0.13537	0.86463	1.226
Mof_Zn	Zn	0.5	0.23698	0.76302	1.219
Mof_Zn	Zn	0.13537	0.5	0.5	1.226
Mof_Zn	Zn	0.23698	0.5	0.5	1.219
Mof_Zn	Zn	0.5	0.86463	0.13537	1.226
Mof_Zn	Zn	0.5	0.76302	0.23698	1.219
Mof_H 	H 	0.8059	0.4771	0.0433	0.105
Mof_H 	H 	0.4771	0.8059	0.6737	0.105
Mof_H 	H 	0.0433	0.6737	0.8059	0.105
Mof_H 	H 	0.6737	0.0433	0.4771	0.105
Mof_H 	H 	0.8059	0.0433	0.6737	0.105
Mof_H 	H 	0.4771	0.6737	0.0433	0.105
Mof_H 	H 	0.0433	0.8059	0.4771	0.104
Mof_H 	H 	0.6737	0.4771	0.8059	0.104
Mof_H 	H 	0.8059	0.6737	0.4771	0.104
Mof_H 	H 	0.4771	0.0433	0.8059	0.104
Mof_H 	H 	0.0433	0.4771	0.6737	0.104
Mof_H 	H 	0.6737	0.8059	0.0433	0.104
Mof_H 	H 	0.5229	0.1941	0.9567	0.104
Mof_H 	H 	0.1941	0.5229	0.3263	0.104
Mof_H 	H 	0.3263	0.9567	0.1941	0.104
Mof_H 	H 	0.9567	0.3263	0.5229	0.104
Mof_H 	H 	0.9567	0.1941	0.3263	0.104
Mof_H 	H 	0.3263	0.5229	0.9567	0.104
Mof_H 	H 	0.1941	0.9567	0.5229	0.104
Mof_H 	H 	0.5229	0.3263	0.1941	0.104
Mof_H 	H 	0.3263	0.1941	0.5229	0.104
Mof_H 	H 	0.9567	0.5229	0.1941	0.104
Mof_H 	H 	0.5229	0.9567	0.3263	0.104
Mof_H 	H 	0.1941	0.3263	0.9567	0.104
Mof_H 	H 	0.1941	0.5229	0.9567	0.104
Mof_H 	H 	0.5229	0.1941	0.3263	0.104
Mof_H 	H 	0.9567	0.3263	0.1941	0.104
Mof_H 	H 	0.3263	0.9567	0.5229	0.104
Mof_H 	H 	0.1941	0.9567	0.3263	0.104
Mof_H 	H 	0.5229	0.3263	0.9567	0.104
Mof_H 	H 	0.9567	0.1941	0.5229	0.104
Mof_H 	H 	0.3263	0.5229	0.1941	0.104
Mof_H 	H 	0.1941	0.3263	0.5229	0.104
Mof_H 	H 	0.5229	0.9567	0.1941	0.104
Mof_H 	H 	0.9567	0.5229	0.3263	0.104
Mof_H 	H 	0.3263	0.1941	0.9567	0.104
Mof_H 	H 	0.4771	0.8059	0.0433	0.104
Mof_H 	H 	0.8059	0.4771	0.6737	0.104
Mof_H 	H 	0.6737	0.0433	0.8059	0.104
Mof_H 	H 	0.0433	0.6737	0.4771	0.104
Mof_H 	H 	0.0433	0.8059	0.6737	0.104
Mof_H 	H 	0.6737	0.4771	0.0433	0.104
Mof_H 	H 	0.8059	0.0433	0.4771	0.104
Mof_H 	H 	0.4771	0.6737	0.8059	0.104
Mof_H 	H 	0.6737	0.8059	0.4771	0.104
Mof_H 	H 	0.0433	0.4771	0.8059	0.104
Mof_H 	H 	0.4771	0.0433	0.6737	0.104
Mof_H 	H 	0.8059	0.6737	0.0433	0.104
Mof_H 	H 	0.6698	0.483	0.1774	0.051
Mof_H 	H 	0.483	0.6698	0.6698	0.051
Mof_H 	H 	0.1774	0.6698	0.6698	0.051
Mof_H 	H 	0.6698	0.1774	0.483	0.051
Mof_H 	H 	0.6698	0.1774	0.6698	0.051
Mof_H 	H 	0.483	0.6698	0.1774	0.051
Mof_H 	H 	0.1774	0.6698	0.483	0.051
Mof_H 	H 	0.6698	0.483	0.6698	0.051
Mof_H 	H 	0.6698	0.6698	0.483	0.051
Mof_H 	H 	0.483	0.1774	0.6698	0.051
Mof_H 	H 	0.1774	0.483	0.6698	0.051
Mof_H 	H 	0.6698	0.6698	0.1774	0.051
Mof_H 	H 	0.517	0.3302	0.8226	0.051
Mof_H 	H 	0.3302	0.517	0.3302	0.051
Mof_H 	H 	0.3302	0.8226	0.3302	0.051
Mof_H 	H 	0.8226	0.3302	0.517	0.051
Mof_H 	H 	0.8226	0.3302	0.3302	0.051
Mof_H 	H 	0.3302	0.517	0.8226	0.051
Mof_H 	H 	0.3302	0.8226	0.517	0.051
Mof_H 	H 	0.517	0.3302	0.3302	0.051
Mof_H 	H 	0.3302	0.3302	0.517	0.051
Mof_H 	H 	0.8226	0.517	0.3302	0.051
Mof_H 	H 	0.517	0.8226	0.3302	0.051
Mof_H 	H 	0.3302	0.3302	0.8226	0.051
Mof_C 	C 	0.7703	0.4907	0.1387	0.353
Mof_C 	C 	0.7472	0.4786	0.1152	-0.056
Mof_C 	C 	0.7699	0.4747	0.0639	-0.082
Mof_C 	C 	0.7628	0.4628	0.9478	0.185
Mof_C 	C 	0.7985	0.4633	0.8919	-0.021
Mof_C 	C 	0.4907	0.7703	0.6003	0.353
Mof_C 	C 	0.4786	0.7472	0.659	-0.055
Mof_C 	C 	0.4747	0.7699	0.6915	-0.082
Mof_C 	C 	0.4628	0.7628	0.8266	0.185
Mof_C 	C 	0.4633	0.7985	0.8463	-0.021
Mof_C 	C 	0.1387	0.6003	0.7703	0.353
Mof_C 	C 	0.1152	0.659	0.7472	-0.056
Mof_C 	C 	0.0639	0.6915	0.7699	-0.081
Mof_C 	C 	0.9478	0.8266	0.7628	0.185
Mof_C 	C 	0.8919	0.8463	0.7985	-0.021
Mof_C 	C 	0.6003	0.1387	0.4907	0.353
Mof_C 	C 	0.659	0.1152	0.4786	-0.056
Mof_C 	C 	0.6915	0.0639	0.4747	-0.082
Mof_C 	C 	0.8266	0.9478	0.4628	0.185
Mof_C 	C 	0.8463	0.8919	0.4633	-0.021
Mof_C 	C 	0.7703	0.1387	0.6003	0.353
Mof_C 	C 	0.7472	0.1152	0.659	-0.056
Mof_C 	C 	0.7699	0.0639	0.6915	-0.081
Mof_C 	C 	0.7628	0.9478	0.8266	0.185
Mof_C 	C 	0.7985	0.8919	0.8463	-0.021
Mof_C 	C 	0.4907	0.6003	0.1387	0.353
Mof_C 	C 	0.4786	0.659	0.1152	-0.056
Mof_C 	C 	0.4747	0.6915	0.0639	-0.082
Mof_C 	C 	0.4628	0.8266	0.9478	0.185
Mof_C 	C 	0.4633	0.8463	0.8919	-0.021
Mof_C 	C 	0.1387	0.7703	0.4907	0.353
Mof_C 	C 	0.1152	0.7472	0.4786	-0.056
Mof_C 	C 	0.0639	0.7699	0.4747	-0.082
Mof_C 	C 	0.9478	0.7628	0.4628	0.185
Mof_C 	C 	0.8919	0.7985	0.4633	-0.021
Mof_C 	C 	0.6003	0.4907	0.7703	0.353
Mof_C 	C 	0.659	0.4786	0.7472	-0.055
Mof_C 	C 	0.6915	0.4747	0.7699	-0.082
Mof_C 	C 	0.8266	0.4628	0.7628	0.185
Mof_C 	C 	0.8463	0.4633	0.7985	-0.021
Mof_C 	C 	0.7703	0.6003	0.4907	0.353
Mof_C 	C 	0.7472	0.659	0.4786	-0.055
Mof_C 	C 	0.7699	0.6915	0.4747	-0.082
Mof_C 	C 	0.7628	0.8266	0.4628	0.185
Mof_C 	C 	0.7985	0.8463	0.4633	-0.021
Mof_C 	C 	0.4907	0.1387	0.7703	0.353
Mof_C 	C 	0.4786	0.1152	0.7472	-0.056
Mof_C 	C 	0.4747	0.0639	0.7699	-0.082
Mof_C 	C 	0.4628	0.9478	0.7628	0.185
Mof_C 	C 	0.4633	0.8919	0.7985	-0.021
Mof_C 	C 	0.1387	0.4907	0.6003	0.353
Mof_C 	C 	0.1152	0.4786	0.659	-0.056
Mof_C 	C 	0.0639	0.4747	0.6915	-0.082
Mof_C 	C 	0.9478	0.4628	0.8266	0.185
Mof_C 	C 	0.8919	0.4633	0.8463	-0.021
Mof_C 	C 	0.6003	0.7703	0.1387	0.353
Mof_C 	C 	0.659	0.7472	0.1152	-0.056
Mof_C 	C 	0.6915	0.7699	0.0639	-0.081
Mof_C 	C 	0.8266	0.7628	0.9478	0.185
Mof_C 	C 	0.8463	0.7985	0.8919	-0.021
Mof_C 	C 	0.5093	0.2297	0.8613	0.353
Mof_C 	C 	0.5214	0.2528	0.8848	-0.056
Mof_C 	C 	0.5253	0.2301	0.9361	-0.082
Mof_C 	C 	0.5372	0.2372	0.0522	0.185
Mof_C 	C 	0.5367	0.2015	0.1081	-0.021
Mof_C 	C 	0.2297	0.5093	0.3997	0.353
Mof_C 	C 	0.2528	0.5214	0.341	-0.055
Mof_C 	C 	0.2301	0.5253	0.3085	-0.082
Mof_C 	C 	0.2372	0.5372	0.1734	0.185
Mof_C 	C 	0.2015	0.5367	0.1537	-0.021
Mof_C 	C 	0.3997	0.8613	0.2297	0.353
Mof_C 	C 	0.341	0.8848	0.2528	-0.056
Mof_C 	C 	0.3085	0.9361	0.2301	-0.081
Mof_C 	C 	0.1734	0.0522	0.2372	0.185
Mof_C 	C 	0.1537	0.1081	0.2015	-0.021
Mof_C 	C 	0.8613	0.3997	0.5093	0.353
Mof_C 	C 	0.8848	0.341	0.5214	-0.056
Mof_C 	C 	0.9361	0.3085	0.5253	-0.082
Mof_C 	C 	0.0522	0.1734	0.5372	0.185
Mof_C 	C 	0.1081	0.1537	0.5367	-0.021
Mof_C 	C 	0.8613	0.2297	0.3997	0.353
Mof_C 	C 	0.8848	0.2528	0.341	-0.056
Mof_C 	C 	0.9361	0.2301	0.3085	-0.081
Mof_C 	C 	0.0522	0.2372	0.1734	0.185
Mof_C 	C 	0.1081	0.2015	0.1537	-0.021
Mof_C 	C 	0.3997	0.5093	0.8613	0.353
Mof_C 	C 	0.341	0.5214	0.8848	-0.056
Mof_C 	C 	0.3085	0.5253	0.9361	-0.082
Mof_C 	C 	0.1734	0.5372	0.0522	0.185
Mof_C 	C 	0.1537	0.5367	0.1081	-0.021
Mof_C 	C 	0.2297	0.8613	0.5093	0.353
Mof_C 	C 	0.2528	0.8848	0.5214	-0.056
Mof_C 	C 	0.2301	0.9361	0.5253	-0.082
Mof_C 	C 	0.2372	0.0522	0.5372	0.185
Mof_C 	C 	0.2015	0.1081	0.5367	-0.021
Mof_C 	C 	0.5093	0.3997	0.2297	0.353
Mof_C 	C 	0.5214	0.341	0.2528	-0.055
Mof_C 	C 	0.5253	0.3085	0.2301	-0.082
Mof_C 	C 	0.5372	0.1734	0.2372	0.185
Mof_C 	C 	0.5367	0.1537	0.2015	-0.021
Mof_C 	C 	0.3997	0.2297	0.5093	0.353
Mof_C 	C 	0.341	0.2528	0.5214	-0.055
Mof_C 	C 	0.3085	0.2301	0.5253	-0.082
Mof_C 	C 	0.1734	0.2372	0.5372	0.185
Mof_C 	C 	0.1537	0.2015	0.5367	-0.021
Mof_C 	C 	0.8613	0.5093	0.2297	0.353
Mof_C 	C 	0.8848	0.5214	0.2528	-0.056
Mof_C 	C 	0.9361	0.5253	0.2301	-0.082
Mof_C 	C 	0.0522	0.5372	0.2372	0.185
Mof_C 	C 	0.1081	0.5367	0.2015	-0.021
Mof_C 	C 	0.5093	0.8613	0.3997	0.353
Mof_C 	C 	0.5214	0.8848	0.341	-0.056
Mof_C 	C 	0.5253	0.9361	0.3085	-0.082
Mof_C 	C 	0.5372	0.0522	0.1734	0.185
Mof_C 	C 	0.5367	0.1081	0.1537	-0.021
Mof_C 	C 	0.2297	0.3997	0.8613	0.353
Mof_C 	C 	0.2528	0.341	0.8848	-0.056
Mof_C 	C 	0.2301	0.3085	0.9361	-0.081
Mof_C 	C 	0.2372	0.1734	0.0522	0.185
Mof_C 	C 	0.2015	0.1537	0.1081	-0.021
Mof_C 	C 	0.2297	0.5093	0.8613	0.353
Mof_C 	C 	0.2528	0.5214	0.8848	-0.056
Mof_C 	C 	0.2301	0.5253	0.9361	-0.082
Mof_C 	C 	0.2372	0.5372	0.0522	0.185
Mof_C 	C 	0.2015	0.5367	0.1081	-0.021
Mof_C 	C 	0.5093	0.2297	0.3997	0.353
Mof_C 	C 	0.5214	0.2528	0.341	-0.055
Mof_C 	C 	0.5253	0.2301	0.3085	-0.082
Mof_C 	C 	0.5372	0.2372	0.1734	0.185
Mof_C 	C 	0.5367	0.2015	0.1537	-0.021
Mof_C 	C 	0.8613	0.3997	0.2297	0.353
Mof_C 	C 	0.8848	0.341	0.2528	-0.056
Mof_C 	C 	0.9361	0.3085	0.2301	-0.081
Mof_C 	C 	0.0522	0.1734	0.2372	0.185
Mof_C 	C 	0.1081	0.1537	0.2015	-0.021
Mof_C 	C 	0.3997	0.8613	0.5093	0.353
Mof_C 	C 	0.341	0.8848	0.5214	-0.056
Mof_C 	C 	0.3085	0.9361	0.5253	-0.082
Mof_C 	C 	0.1734	0.0522	0.5372	0.185
Mof_C 	C 	0.1537	0.1081	0.5367	-0.021
Mof_C 	C 	0.2297	0.8613	0.3997	0.353
Mof_C 	C 	0.2528	0.8848	0.341	-0.056
Mof_C 	C 	0.2301	0.9361	0.3085	-0.081
Mof_C 	C 	0.2372	0.0522	0.1734	0.185
Mof_C 	C 	0.2015	0.1081	0.1537	-0.021
Mof_C 	C 	0.5093	0.3997	0.8613	0.353
Mof_C 	C 	0.5214	0.341	0.8848	-0.056
Mof_C 	C 	0.5253	0.3085	0.9361	-0.082
Mof_C 	C 	0.5372	0.1734	0.0522	0.185
Mof_C 	C 	0.5367	0.1537	0.1081	-0.021
Mof_C 	C 	0.8613	0.2297	0.5093	0.353
Mof_C 	C 	0.8848	0.2528	0.5214	-0.056
Mof_C 	C 	0.9361	0.2301	0.5253	-0.082
Mof_C 	C 	0.0522	0.2372	0.5372	0.185
Mof_C 	C 	0.1081	0.2015	0.5367	-0.021
Mof_C 	C 	0.3997	0.5093	0.2297	0.353
Mof_C 	C 	0.341	0.5214	0.2528	-0.055
Mof_C 	C 	0.3085	0.5253	0.2301	-0.082
Mof_C 	C 	0.1734	0.5372	0.2372	0.185
Mof_C 	C 	0.1537	0.5367	0.2015	-0.021
Mof_C 	C 	0.2297	0.3997	0.5093	0.353
Mof_C 	C 	0.2528	0.341	0.5214	-0.055
Mof_C 	C 	0.2301	0.3085	0.5253	-0.082
Mof_C 	C 	0.2372	0.1734	0.5372	0.185
Mof_C 	C 	0.2015	0.1537	0.5367	-0.021
Mof_C 	C 	0.5093	0.8613	0.2297	0.353
Mof_C 	C 	0.5214	0.8848	0.2528	-0.056
Mof_C 	C 	0.5253	0.9361	0.2301	-0.082
Mof_C 	C 	0.5372	0.0522	0.2372	0.185
Mof_C 	C 	0.5367	0.1081	0.2015	-0.021
Mof_C 	C 	0.8613	0.5093	0.3997	0.353
Mof_C 	C 	0.8848	0.5214	0.341	-0.056
Mof_C 	C 	0.9361	0.5253	0.3085	-0.082
Mof_C 	C 	0.0522	0.5372	0.1734	0.185
Mof_C 	C 	0.1081	0.5367	0.1537	-0.021
Mof_C 	C 	0.3997	0.2297	0.8613	0.353
Mof_C 	C 	0.341	0.2528	0.8848	-0.056
Mof_C 	C 	0.3085	0.2301	0.9361	-0.081
Mof_C 	C 	0.1734	0.2372	0.0522	0.185
Mof_C 	C 	0.1537	0.2015	0.1081	-0.021
Mof_C 	C 	0.4907	0.7703	0.1387	0.353
Mof_C 	C 	0.4786	0.7472	0.1152	-0.056
Mof_C 	C 	0.4747	0.7699	0.0639	-0.082
Mof_C 	C 	0.4628	0.7628	0.9478	0.185
Mof_C 	C 	0.4633	0.7985	0.8919	-0.021
Mof_C 	C 	0.7703	0.4907	0.6003	0.353
Mof_C 	C 	0.7472	0.4786	0.659	-0.055
Mof_C 	C 	0.7699	0.4747	0.6915	-0.082
Mof_C 	C 	0.7628	0.4628	0.8266	0.185
Mof_C 	C 	0.7985	0.4633	0.8463	-0.021
Mof_C 	C 	0.6003	0.1387	0.7703	0.353
Mof_C 	C 	0.659	0.1152	0.7472	-0.056
Mof_C 	C 	0.6915	0.0639	0.7699	-0.081
Mof_C 	C 	0.8266	0.9478	0.7628	0.185
Mof_C 	C 	0.8463	0.8919	0.7985	-0.021
Mof_C 	C 	0.1387	0.6003	0.4907	0.353
Mof_C 	C 	0.1152	0.659	0.4786	-0.056
Mof_C 	C 	0.0639	0.6915	0.4747	-0.082
Mof_C 	C 	0.9478	0.8266	0.4628	0.185
Mof_C 	C 	0.8919	0.8463	0.4633	-0.021
Mof_C 	C 	0.1387	0.7703	0.6003	0.353
Mof_C 	C 	0.1152	0.7472	0.659	-0.056
Mof_C 	C 	0.0639	0.7699	0.6915	-0.081
Mof_C 	C 	0.9478	0.7628	0.8266	0.185
Mof_C 	C 	0.8919	0.7985	0.8463	-0.021
Mof_C 	C 	0.6003	0.4907	0.1387	0.353
Mof_C 	C 	0.659	0.4786	0.1152	-0.056
Mof_C 	C 	0.6915	0.4747	0.0639	-0.082
Mof_C 	C 	0.8266	0.4628	0.9478	0.185
Mof_C 	C 	0.8463	0.4633	0.8919	-0.021
Mof_C 	C 	0.7703	0.1387	0.4907	0.353
Mof_C 	C 	0.7472	0.1152	0.4786	-0.056
Mof_C 	C 	0.7699	0.0639	0.4747	-0.082
Mof_C 	C 	0.7628	0.9478	0.4628	0.185
Mof_C 	C 	0.7985	0.8919	0.4633	-0.021
Mof_C 	C 	0.4907	0.6003	0.7703	0.353
Mof_C 	C 	0.4786	0.659	0.7472	-0.055
Mof_C 	C 	0.4747	0.6915	0.7699	-0.082
Mof_C 	C 	0.4628	0.8266	0.7628	0.185
Mof_C 	C 	0.4633	0.8463	0.7985	-0.021
Mof_C 	C 	0.6003	0.7703	0.4907	0.353
Mof_C 	C 	0.659	0.7472	0.4786	-0.055
Mof_C 	C 	0.6915	0.7699	0.4747	-0.082
Mof_C 	C 	0.8266	0.7628	0.4628	0.185
Mof_C 	C 	0.8463	0.7985	0.4633	-0.021
Mof_C 	C 	0.1387	0.4907	0.7703	0.353
Mof_C 	C 	0.1152	0.4786	0.7472	-0.056
Mof_C 	C 	0.0639	0.4747	0.7699	-0.082
Mof_C 	C 	0.9478	0.4628	0.7628	0.185
Mof_C 	C 	0.8919	0.4633	0.7985	-0.021
Mof_C 	C 	0.4907	0.1387	0.6003	0.353
Mof_C 	C 	0.4786	0.1152	0.659	-0.056
Mof_C 	C 	0.4747	0.0639	0.6915	-0.082
Mof_C 	C 	0.4628	0.9478	0.8266	0.185
Mof_C 	C 	0.4633	0.8919	0.8463	-0.021
Mof_C 	C 	0.7703	0.6003	0.1387	0.353
Mof_C 	C 	0.7472	0.659	0.1152	-0.056
Mof_C 	C 	0.7699	0.6915	0.0639	-0.081
Mof_C 	C 	0.7628	0.8266	0.9478	0.185
Mof_C 	C 	0.7985	0.8463	0.8919	-0.021
Mof_C 	C 	0.7467	0.4675	0.0391	0.14
Mof_C 	C 	0.689	0.4806	0.1414	0.003
Mof_C 	C 	0.4675	0.7467	0.7467	0.141
Mof_C 	C 	0.4806	0.689	0.689	0.003
Mof_C 	C 	0.0391	0.7467	0.7467	0.139
Mof_C 	C 	0.1414	0.689	0.689	0.003
Mof_C 	C 	0.7467	0.0391	0.4675	0.14
Mof_C 	C 	0.689	0.1414	0.4806	0.003
Mof_C 	C 	0.7467	0.0391	0.7467	0.139
Mof_C 	C 	0.689	0.1414	0.689	0.003
Mof_C 	C 	0.4675	0.7467	0.0391	0.14
Mof_C 	C 	0.4806	0.689	0.1414	0.003
Mof_C 	C 	0.0391	0.7467	0.4675	0.14
Mof_C 	C 	0.1414	0.689	0.4806	0.003
Mof_C 	C 	0.7467	0.4675	0.7467	0.141
Mof_C 	C 	0.689	0.4806	0.689	0.003
Mof_C 	C 	0.7467	0.7467	0.4675	0.141
Mof_C 	C 	0.689	0.689	0.4806	0.003
Mof_C 	C 	0.4675	0.0391	0.7467	0.14
Mof_C 	C 	0.4806	0.1414	0.689	0.003
Mof_C 	C 	0.0391	0.4675	0.7467	0.14
Mof_C 	C 	0.1414	0.4806	0.689	0.003
Mof_C 	C 	0.7467	0.7467	0.0391	0.139
Mof_C 	C 	0.689	0.689	0.1414	0.003
Mof_C 	C 	0.5325	0.2533	0.9609	0.14
Mof_C 	C 	0.5194	0.311	0.8586	0.003
Mof_C 	C 	0.2533	0.5325	0.2533	0.141
Mof_C 	C 	0.311	0.5194	0.311	0.003
Mof_C 	C 	0.2533	0.9609	0.2533	0.139
Mof_C 	C 	0.311	0.8586	0.311	0.003
Mof_C 	C 	0.9609	0.2533	0.5325	0.14
Mof_C 	C 	0.8586	0.311	0.5194	0.003
Mof_C 	C 	0.9609	0.2533	0.2533	0.139
Mof_C 	C 	0.8586	0.311	0.311	0.003
Mof_C 	C 	0.2533	0.5325	0.9609	0.14
Mof_C 	C 	0.311	0.5194	0.8586	0.003
Mof_C 	C 	0.2533	0.9609	0.5325	0.14
Mof_C 	C 	0.311	0.8586	0.5194	0.003
Mof_C 	C 	0.5325	0.2533	0.2533	0.141
Mof_C 	C 	0.5194	0.311	0.311	0.003
Mof_C 	C 	0.2533	0.2533	0.5325	0.141
Mof_C 	C 	0.311	0.311	0.5194	0.003
Mof_C 	C 	0.9609	0.5325	0.2533	0.14
Mof_C 	C 	0.8586	0.5194	0.311	0.003
Mof_C 	C 	0.5325	0.9609	0.2533	0.14
Mof_C 	C 	0.5194	0.8586	0.311	0.003
Mof_C 	C 	0.2533	0.2533	0.9609	0.139
Mof_C 	C 	0.311	0.311	0.8586	0.003
Mof_N 	N 	0.7757	0.4639	0.9847	-0.168
Mof_N 	N 	0.4639	0.7757	0.7757	-0.168
Mof_N 	N 	0.9847	0.7757	0.7757	-0.167
Mof_N 	N 	0.7757	0.9847	0.4639	-0.168
Mof_N 	N 	0.7757	0.9847	0.7757	-0.167
Mof_N 	N 	0.4639	0.7757	0.9847	-0.168
Mof_N 	N 	0.9847	0.7757	0.4639	-0.168
Mof_N 	N 	0.7757	0.4639	0.7757	-0.168
Mof_N 	N 	0.7757	0.7757	0.4639	-0.168
Mof_N 	N 	0.4639	0.9847	0.7757	-0.168
Mof_N 	N 	0.9847	0.4639	0.7757	-0.168
Mof_N 	N 	0.7757	0.7757	0.9847	-0.167
Mof_N 	N 	0.5361	0.2243	0.0153	-0.168
Mof_N 	N 	0.2243	0.5361	0.2243	-0.168
Mof_N 	N 	0.2243	0.0153	0.2243	-0.167
Mof_N 	N 	0.0153	0.2243	0.5361	-0.168
Mof_N 	N 	0.0153	0.2243	0.2243	-0.167
Mof_N 	N 	0.2243	0.5361	0.0153	-0.168
Mof_N 	N 	0.2243	0.0153	0.5361	-0.168
Mof_N 	N 	0.5361	0.2243	0.2243	-0.168
Mof_N 	N 	0.2243	0.2243	0.5361	-0.168
Mof_N 	N 	0.0153	0.5361	0.2243	-0.168
Mof_N 	N 	0.5361	0.0153	0.2243	-0.168
Mof_N 	N 	0.2243	0.2243	0.0153	-0.167
Mof_O 	O 	0.82008	0.48632	0.1164	-0.462
Mof_O 	O 	0.74356	0.48804	0.19196	-0.458
Mof_O 	O 	0.7173	0.4543	0.9731	-0.188
Mof_O 	O 	0.48632	0.82008	0.5772	-0.462
Mof_O 	O 	0.48804	0.74356	0.57644	-0.458
Mof_O 	O 	0.4543	0.7173	0.8553	-0.188
Mof_O 	O 	0.1164	0.5772	0.82008	-0.462
Mof_O 	O 	0.19196	0.57644	0.74356	-0.458
Mof_O 	O 	0.9731	0.8553	0.7173	-0.188
Mof_O 	O 	0.5772	0.1164	0.48632	-0.462
Mof_O 	O 	0.57644	0.19196	0.48804	-0.458
Mof_O 	O 	0.8553	0.9731	0.4543	-0.188
Mof_O 	O 	0.82008	0.1164	0.5772	-0.462
Mof_O 	O 	0.74356	0.19196	0.57644	-0.458
Mof_O 	O 	0.7173	0.9731	0.8553	-0.188
Mof_O 	O 	0.48632	0.5772	0.1164	-0.462
Mof_O 	O 	0.48804	0.57644	0.19196	-0.458
Mof_O 	O 	0.4543	0.8553	0.9731	-0.188
Mof_O 	O 	0.1164	0.82008	0.48632	-0.462
Mof_O 	O 	0.19196	0.74356	0.48804	-0.458
Mof_O 	O 	0.9731	0.7173	0.4543	-0.188
Mof_O 	O 	0.5772	0.48632	0.82008	-0.462
Mof_O 	O 	0.57644	0.48804	0.74356	-0.458
Mof_O 	O 	0.8553	0.4543	0.7173	-0.188
Mof_O 	O 	0.82008	0.5772	0.48632	-0.462
Mof_O 	O 	0.74356	0.57644	0.48804	-0.458
Mof_O 	O 	0.7173	0.8553	0.4543	-0.188
Mof_O 	O 	0.48632	0.1164	0.82008	-0.462
Mof_O 	O 	0.48804	0.19196	0.74356	-0.458
Mof_O 	O 	0.4543	0.9731	0.7173	-0.188
Mof_O 	O 	0.1164	0.48632	0.5772	-0.462
Mof_O 	O 	0.19196	0.48804	0.57644	-0.458
Mof_O 	O 	0.9731	0.4543	0.8553	-0.188
Mof_O 	O 	0.5772	0.82008	0.1164	-0.462
Mof_O 	O 	0.57644	0.74356	0.19196	-0.458
Mof_O 	O 	0.8553	0.7173	0.9731	-0.188
Mof_O 	O 	0.51368	0.17992	0.8836	-0.462
Mof_O 	O 	0.51196	0.25644	0.80804	-0.458
Mof_O 	O 	0.5457	0.2827	0.0269	-0.188
Mof_O 	O 	0.17992	0.51368	0.4228	-0.462
Mof_O 	O 	0.25644	0.51196	0.42356	-0.458
Mof_O 	O 	0.2827	0.5457	0.1447	-0.188
Mof_O 	O 	0.4228	0.8836	0.17992	-0.462
Mof_O 	O 	0.42356	0.80804	0.25644	-0.458
Mof_O 	O 	0.1447	0.0269	0.2827	-0.188
Mof_O 	O 	0.8836	0.4228	0.51368	-0.462
Mof_O 	O 	0.80804	0.42356	0.51196	-0.458
Mof_O 	O 	0.0269	0.1447	0.5457	-0.188
Mof_O 	O 	0.8836	0.17992	0.4228	-0.462
Mof_O 	O 	0.80804	0.25644	0.42356	-0.458
Mof_O 	O 	0.0269	0.2827	0.1447	-0.188
Mof_O 	O 	0.4228	0.51368	0.8836	-0.462
Mof_O 	O 	0.42356	0.51196	0.80804	-0.458
Mof_O 	O 	0.1447	0.5457	0.0269	-0.188
Mof_O 	O 	0.17992	0.8836	0.51368	-0.462
Mof_O 	O 	0.25644	0.80804	0.51196	-0.458
Mof_O 	O 	0.2827	0.0269	0.5457	-0.188
Mof_O 	O 	0.51368	0.4228	0.17992	-0.462
Mof_O 	O 	0.51196	0.42356	0.25644	-0.458
Mof_O 	O 	0.5457	0.1447	0.2827	-0.188
Mof_O 	O 	0.4228	0.17992	0.51368	-0.462
Mof_O 	O 	0.42356	0.25644	0.51196	-0.458
Mof_O 	O 	0.1447	0.2827	0.5457	-0.188
Mof_O 	O 	0.8836	0.51368	0.17992	-0.462
Mof_O 	O 	0.80804	0.51196	0.25644	-0.458
Mof_O 	O 	0.0269	0.5457	0.2827	-0.188
Mof_O 	O 	0.51368	0.8836	0.4228	-0.462
Mof_O 	O 	0.51196	0.80804	0.42356	-0.458
Mof_O 	O 	0.5457	0.0269	0.1447	-0.188
Mof_O 	O 	0.17992	0.4228	0.8836	-0.462
Mof_O 	O 	0.25644	0.42356	0.80804	-0.458
Mof_O 	O 	0.2827	0.1447	0.0269	-0.188
Mof_O 	O 	0.17992	0.51368	0.8836	-0.462
Mof_O 	O 	0.25644	0.51196	0.80804	-0.458
Mof_O 	O 	0.2827	0.5457	0.0269	-0.188
Mof_O 	O 	0.51368	0.17992	0.4228	-0.462
Mof_O 	O 	0.51196	0.25644	0.42356	-0.458
Mof_O 	O 	0.5457	0.2827	0.1447	-0.188
Mof_O 	O 	0.8836	0.4228	0.17992	-0.462
Mof_O 	O 	0.80804	0.42356	0.25644	-0.458
Mof_O 	O 	0.0269	0.1447	0.2827	-0.188
Mof_O 	O 	0.4228	0.8836	0.51368	-0.462
Mof_O 	O 	0.42356	0.80804	0.51196	-0.458
Mof_O 	O 	0.1447	0.0269	0.5457	-0.188
Mof_O 	O 	0.17992	0.8836	0.4228	-0.462
Mof_O 	O 	0.25644	0.80804	0.42356	-0.458
Mof_O 	O 	0.2827	0.0269	0.1447	-0.188
Mof_O 	O 	0.51368	0.4228	0.8836	-0.462
Mof_O 	O 	0.51196	0.42356	0.80804	-0.458
Mof_O 	O 	0.5457	0.1447	0.0269	-0.188
Mof_O 	O 	0.8836	0.17992	0.51368	-0.462
Mof_O 	O 	0.80804	0.25644	0.51196	-0.458
Mof_O 	O 	0.0269	0.2827	0.5457	-0.188
Mof_O 	O 	0.4228	0.51368	0.17992	-0.462
Mof_O 	O 	0.42356	0.51196	0.25644	-0.458
Mof_O 	O 	0.1447	0.5457	0.2827	-0.188
Mof_O 	O 	0.17992	0.4228	0.51368	-0.462
Mof_O 	O 	0.25644	0.42356	0.51196	-0.458
Mof_O 	O 	0.2827	0.1447	0.5457	-0.188
Mof_O 	O 	0.51368	0.8836	0.17992	-0.462
Mof_O 	O 	0.51196	0.80804	0.25644	-0.458
Mof_O 	O 	0.5457	0.0269	0.2827	-0.188
Mof_O 	O 	0.8836	0.51368	0.4228	-0.462
Mof_O 	O 	0.80804	0.51196	0.42356	-0.458
Mof_O 	O 	0.0269	0.5457	0.1447	-0.188
Mof_O 	O 	0.4228	0.17992	0.8836	-0.462
Mof_O 	O 	0.42356	0.25644	0.80804	-0.458
Mof_O 	O 	0.1447	0.2827	0.0269	-0.188
Mof_O 	O 	0.48632	0.82008	0.1164	-0.462
Mof_O 	O 	0.48804	0.74356	0.19196	-0.458
Mof_O 	O 	0.4543	0.7173	0.9731	-0.188
Mof_O 	O 	0.82008	0.48632	0.5772	-0.462
Mof_O 	O 	0.74356	0.48804	0.57644	-0.458
Mof_O 	O 	0.7173	0.4543	0.8553	-0.188
Mof_O 	O 	0.5772	0.1164	0.82008	-0.462
Mof_O 	O 	0.57644	0.19196	0.74356	-0.458
Mof_O 	O 	0.8553	0.9731	0.7173	-0.188
Mof_O 	O 	0.1164	0.5772	0.48632	-0.462
Mof_O 	O 	0.19196	0.57644	0.48804	-0.458
Mof_O 	O 	0.9731	0.8553	0.4543	-0.188
Mof_O 	O 	0.1164	0.82008	0.5772	-0.462
Mof_O 	O 	0.19196	0.74356	0.57644	-0.458
Mof_O 	O 	0.9731	0.7173	0.8553	-0.188
Mof_O 	O 	0.5772	0.48632	0.1164	-0.462
Mof_O 	O 	0.57644	0.48804	0.19196	-0.458
Mof_O 	O 	0.8553	0.4543	0.9731	-0.188
Mof_O 	O 	0.82008	0.1164	0.48632	-0.462
Mof_O 	O 	0.74356	0.19196	0.48804	-0.458
Mof_O 	O 	0.7173	0.9731	0.4543	-0.188
Mof_O 	O 	0.48632	0.5772	0.82008	-0.462
Mof_O 	O 	0.48804	0.57644	0.74356	-0.458
Mof_O 	O 	0.4543	0.8553	0.7173	-0.188
Mof_O 	O 	0.5772	0.82008	0.48632	-0.462
Mof_O 	O 	0.57644	0.74356	0.48804	-0.458
Mof_O 	O 	0.8553	0.7173	0.4543	-0.188
Mof_O 	O 	0.1164	0.48632	0.82008	-0.462
Mof_O 	O 	0.19196	0.48804	0.74356	-0.458
Mof_O 	O 	0.9731	0.4543	0.7173	-0.188
Mof_O 	O 	0.48632	0.1164	0.5772	-0.462
Mof_O 	O 	0.48804	0.19196	0.57644	-0.458
Mof_O 	O 	0.4543	0.9731	0.8553	-0.188
Mof_O 	O 	0.82008	0.5772	0.1164	-0.462
Mof_O 	O 	0.74356	0.57644	0.19196	-0.458
Mof_O 	O 	0.7173	0.8553	0.9731	-0.188
_end
