data_functionalizedCrystal
_audit_creation_method	'EQeq! by Chris Wilmer'
_symmetry_space_group_name_H-M	'P1'
_symmetry_Int_Tables_number	1
_symmetry_cell_setting	triclinic
loop_
_symmetry_equiv_pos_as_xyz
  x,y,z
_cell_length_a	17.3288
_cell_length_b	17.7491
_cell_length_c	12.857
_cell_angle_alpha	90
_cell_angle_beta	126.53
_cell_angle_gamma	90
loop_
_atom_site_label
_atom_site_type_symbol
_atom_site_fract_x
_atom_site_fract_y
_atom_site_fract_z
_atom_site_charge
Mof_O 	O 	0.27454	0.15291	0.4371	-0.478
Mof_O 	O 	0.41385	0.11508	0.6193	-0.496
Mof_O 	O 	0.26395	0.81384	0.1467	-0.466
Mof_O 	O 	0.41793	0.7993	0.3141	-0.48
Mof_O 	O 	0.40262	0.27875	0.6132	-0.44
Mof_N 	N 	0.4301	0.33944	0.5826	-0.042
Mof_C 	C 	0.335	0.0314	0.4427	-0.089
Mof_C 	C 	0.4071	0.9787	0.511	-0.015
Mof_H 	H 	0.4567	0.9872	0.5978	0.056
Mof_C 	C 	0.4066	0.9135	0.452	-0.016
Mof_H 	H 	0.4564	0.879	0.4991	0.052
Mof_C 	C 	0.333	0.89898	0.3244	-0.083
Mof_C 	C 	0.2587	0.95	0.2571	-0.025
Mof_H 	H 	0.2071	0.9397	0.172	0.048
Mof_C 	C 	0.2603	0.0165	0.3152	-0.009
Mof_H 	H 	0.2107	0.0512	0.268	0.042
Mof_C 	C 	0.3417	0.1057	0.5049	0.413
Mof_C 	C 	0.3375	0.83194	0.2562	0.389
Mof_C 	C 	0.4785	0.332	0.532	0.02
Mof_H 	H 	0.4933	0.2842	0.519	0.048
Mof_C 	C 	0.5063	0.394	0.4993	-0.088
Mof_H 	H 	0.5392	0.3879	0.4633	0.063
Mof_C 	C 	0.4862	0.466	0.5188	0.032
Mof_C 	C 	0.4368	0.4713	0.5726	-0.093
Mof_H 	H 	0.4223	0.5186	0.5882	0.063
Mof_C 	C 	0.4089	0.4074	0.6033	0.022
Mof_H 	H 	0.3752	0.4117	0.6385	0.045
Mof_O 	O 	0.77454	0.65291	0.4371	-0.472
Mof_O 	O 	0.91385	0.61508	0.6193	-0.477
Mof_O 	O 	0.76395	0.31384	0.1467	-0.463
Mof_O 	O 	0.91793	0.2993	0.3141	-0.458
Mof_O 	O 	0.90262	0.77875	0.6132	-0.421
Mof_N 	N 	0.9301	0.83944	0.5826	-0.1
Mof_C 	C 	0.835	0.5314	0.4427	-0.08
Mof_C 	C 	0.9071	0.4787	0.511	-0.011
Mof_H 	H 	0.9567	0.4872	0.5978	0.071
Mof_C 	C 	0.9066	0.4135	0.452	-0.009
Mof_H 	H 	0.9564	0.379	0.4991	0.064
Mof_C 	C 	0.833	0.39898	0.3244	-0.079
Mof_C 	C 	0.7587	0.45	0.2571	-0.015
Mof_H 	H 	0.7071	0.4397	0.172	0.048
Mof_C 	C 	0.7603	0.5165	0.3152	-0.015
Mof_H 	H 	0.7107	0.5512	0.268	0.05
Mof_C 	C 	0.8417	0.6057	0.5049	0.411
Mof_C 	C 	0.8375	0.33194	0.2562	0.388
Mof_C 	C 	0.9785	0.832	0.532	0.24
Mof_H 	H 	0.9933	0.7842	0.519	-0.009
Mof_C 	C 	0.0063	0.894	0.4993	-0.422
Mof_H 	H 	0.0392	0.8879	0.4633	0.17
Mof_C 	C 	0.9862	0.966	0.5188	0.349
Mof_C 	C 	0.9368	0.9713	0.5726	-0.292
Mof_H 	H 	0.9223	0.0186	0.5882	0.147
Mof_C 	C 	0.9089	0.9074	0.6033	0.15
Mof_H 	H 	0.8752	0.9117	0.6385	0.007
Mof_O 	O 	0.72546	0.15291	0.0629	-0.519
Mof_O 	O 	0.58615	0.11508	0.8807	-0.52
Mof_O 	O 	0.73605	0.81384	0.3533	-0.447
Mof_O 	O 	0.58207	0.7993	0.1859	-0.473
Mof_O 	O 	0.59738	0.27875	0.8868	-0.429
Mof_N 	N 	0.5699	0.33944	0.9174	-0.078
Mof_C 	C 	0.665	0.0314	0.0573	-0.256
Mof_C 	C 	0.5929	0.9787	0.989	0.197
Mof_H 	H 	0.5433	0.9872	0.9022	-0.013
Mof_C 	C 	0.5934	0.9135	0.048	-0.186
Mof_H 	H 	0.5436	0.879	0.0009	0.1
Mof_C 	C 	0.667	0.89898	0.1756	0.017
Mof_C 	C 	0.7413	0.95	0.2429	-0.132
Mof_H 	H 	0.7929	0.9397	0.328	0.097
Mof_C 	C 	0.7397	0.0165	0.1848	0.119
Mof_H 	H 	0.7893	0.0512	0.232	0.01
Mof_C 	C 	0.6583	0.1057	0.9951	0.522
Mof_C 	C 	0.6625	0.83194	0.2438	0.353
Mof_C 	C 	0.5215	0.332	0.968	0.159
Mof_H 	H 	0.5067	0.2842	0.981	0.009
Mof_C 	C 	0.4937	0.394	0.0007	-0.296
Mof_H 	H 	0.4608	0.3879	0.0367	0.129
Mof_C 	C 	0.5138	0.466	0.9812	0.231
Mof_C 	C 	0.5632	0.4713	0.9274	-0.213
Mof_H 	H 	0.5777	0.5186	0.9118	0.113
Mof_C 	C 	0.5911	0.4074	0.8967	0.103
Mof_H 	H 	0.6248	0.4117	0.8615	0.018
Mof_O 	O 	0.22546	0.65291	0.0629	-0.524
Mof_O 	O 	0.08615	0.61508	0.8807	-0.537
Mof_O 	O 	0.23605	0.31384	0.3533	-0.449
Mof_O 	O 	0.08207	0.2993	0.1859	-0.492
Mof_O 	O 	0.09738	0.77875	0.8868	-0.447
Mof_N 	N 	0.0699	0.83944	0.9174	-0.021
Mof_C 	C 	0.165	0.5314	0.0573	-0.263
Mof_C 	C 	0.0929	0.4787	0.989	0.19
Mof_H 	H 	0.0433	0.4872	0.9022	-0.025
Mof_C 	C 	0.0934	0.4135	0.048	-0.185
Mof_H 	H 	0.0436	0.379	0.0009	0.087
Mof_C 	C 	0.167	0.39898	0.1756	0.007
Mof_C 	C 	0.2413	0.45	0.2429	-0.128
Mof_H 	H 	0.2929	0.4397	0.328	0.093
Mof_C 	C 	0.2397	0.5165	0.1848	0.112
Mof_H 	H 	0.2893	0.5512	0.232	0.006
Mof_C 	C 	0.1583	0.6057	0.9951	0.524
Mof_C 	C 	0.1625	0.33194	0.2438	0.356
Mof_C 	C 	0.0215	0.832	0.968	-0.058
Mof_H 	H 	0.0067	0.7842	0.981	0.066
Mof_C 	C 	0.9937	0.894	0.0007	0.036
Mof_H 	H 	0.9608	0.8879	0.0367	0.023
Mof_C 	C 	0.0138	0.966	0.9812	-0.086
Mof_C 	C 	0.0632	0.9713	0.9274	-0.021
Mof_H 	H 	0.0777	0.0186	0.9118	0.034
Mof_C 	C 	0.0911	0.9074	0.8967	-0.021
Mof_H 	H 	0.1248	0.9117	0.8615	0.055
Mof_O 	O 	0.72546	0.84709	0.5629	-0.471
Mof_O 	O 	0.58615	0.88492	0.3807	-0.501
Mof_O 	O 	0.73605	0.18616	0.8533	-0.443
Mof_O 	O 	0.58207	0.2007	0.6859	-0.477
Mof_O 	O 	0.59738	0.72125	0.3868	-0.438
Mof_N 	N 	0.5699	0.66056	0.4174	-0.041
Mof_C 	C 	0.665	0.9686	0.5573	-0.093
Mof_C 	C 	0.5929	0.0213	0.489	-0.004
Mof_H 	H 	0.5433	0.0128	0.4022	0.049
Mof_C 	C 	0.5934	0.0865	0.548	-0.022
Mof_H 	H 	0.5436	0.121	0.5009	0.053
Mof_C 	C 	0.667	0.10102	0.6756	-0.073
Mof_C 	C 	0.7413	0.05	0.7429	-0.018
Mof_H 	H 	0.7929	0.0603	0.828	0.067
Mof_C 	C 	0.7397	0.9835	0.6848	-0.008
Mof_H 	H 	0.7893	0.9488	0.732	0.059
Mof_C 	C 	0.6583	0.8943	0.4951	0.415
Mof_C 	C 	0.6625	0.16806	0.7438	0.386
Mof_C 	C 	0.5215	0.668	0.468	0.023
Mof_H 	H 	0.5067	0.7158	0.481	0.049
Mof_C 	C 	0.4937	0.606	0.5007	-0.086
Mof_H 	H 	0.4608	0.6121	0.5367	0.064
Mof_C 	C 	0.5138	0.534	0.4812	0.034
Mof_C 	C 	0.5632	0.5287	0.4274	-0.091
Mof_H 	H 	0.5777	0.4814	0.4118	0.063
Mof_C 	C 	0.5911	0.5926	0.3967	0.026
Mof_H 	H 	0.6248	0.5883	0.3615	0.044
Mof_O 	O 	0.22546	0.34709	0.5629	-0.476
Mof_O 	O 	0.08615	0.38492	0.3807	-0.517
Mof_O 	O 	0.23605	0.68616	0.8533	-0.444
Mof_O 	O 	0.08207	0.7007	0.6859	-0.495
Mof_O 	O 	0.09738	0.22125	0.3868	-0.456
Mof_N 	N 	0.0699	0.16056	0.4174	0.017
Mof_C 	C 	0.165	0.4686	0.5573	-0.101
Mof_C 	C 	0.0929	0.5213	0.489	-0.008
Mof_H 	H 	0.0433	0.5128	0.4022	0.035
Mof_C 	C 	0.0934	0.5865	0.548	-0.028
Mof_H 	H 	0.0436	0.621	0.5009	0.041
Mof_C 	C 	0.167	0.60102	0.6756	-0.077
Mof_C 	C 	0.2413	0.55	0.7429	-0.027
Mof_H 	H 	0.2929	0.5603	0.828	0.067
Mof_C 	C 	0.2397	0.4835	0.6848	-0.004
Mof_H 	H 	0.2893	0.4488	0.732	0.051
Mof_C 	C 	0.1583	0.3943	0.4951	0.417
Mof_C 	C 	0.1625	0.66806	0.7438	0.387
Mof_C 	C 	0.0215	0.168	0.468	-0.198
Mof_H 	H 	0.0067	0.2158	0.481	0.107
Mof_C 	C 	0.9937	0.106	0.5007	0.252
Mof_H 	H 	0.9608	0.1121	0.5367	-0.043
Mof_C 	C 	0.0138	0.034	0.4812	-0.284
Mof_C 	C 	0.0632	0.0287	0.4274	0.108
Mof_H 	H 	0.0777	0.9814	0.4118	-0.021
Mof_C 	C 	0.0911	0.0926	0.3967	-0.102
Mof_H 	H 	0.1248	0.0883	0.3615	0.083
Mof_O 	O 	0.27454	0.84709	0.9371	-0.426
Mof_O 	O 	0.41385	0.88492	0.1193	-0.476
Mof_O 	O 	0.26395	0.18616	0.6467	-0.462
Mof_O 	O 	0.41793	0.2007	0.8141	-0.482
Mof_O 	O 	0.40262	0.72125	0.1132	-0.449
Mof_N 	N 	0.4301	0.66056	0.0826	-0.004
Mof_C 	C 	0.335	0.9686	0.9427	0.073
Mof_C 	C 	0.4071	0.0213	0.011	-0.208
Mof_H 	H 	0.4567	0.0128	0.0978	0.116
Mof_C 	C 	0.4066	0.0865	0.952	0.14
Mof_H 	H 	0.4564	0.121	0.9991	0.007
Mof_C 	C 	0.333	0.10102	0.8244	-0.169
Mof_C 	C 	0.2587	0.05	0.7571	0.084
Mof_H 	H 	0.2071	0.0603	0.672	0.02
Mof_C 	C 	0.2603	0.9835	0.8152	-0.132
Mof_H 	H 	0.2107	0.9488	0.768	0.089
Mof_C 	C 	0.3417	0.8943	0.0049	0.304
Mof_C 	C 	0.3375	0.16806	0.7562	0.421
Mof_C 	C 	0.4785	0.668	0.032	-0.117
Mof_H 	H 	0.4933	0.7158	0.019	0.088
Mof_C 	C 	0.5063	0.606	0.9993	0.124
Mof_H 	H 	0.5392	0.6121	0.9633	-0.003
Mof_C 	C 	0.4862	0.534	0.0188	-0.166
Mof_C 	C 	0.4368	0.5287	0.0726	0.03
Mof_H 	H 	0.4223	0.4814	0.0882	0.013
Mof_C 	C 	0.4089	0.5926	0.1033	-0.055
Mof_H 	H 	0.3752	0.5883	0.1385	0.071
Mof_O 	O 	0.77454	0.34709	0.9371	-0.422
Mof_O 	O 	0.91385	0.38492	0.1193	-0.456
Mof_O 	O 	0.76395	0.68616	0.6467	-0.46
Mof_O 	O 	0.91793	0.7007	0.8141	-0.462
Mof_O 	O 	0.90262	0.22125	0.1132	-0.429
Mof_N 	N 	0.9301	0.16056	0.0826	-0.062
Mof_C 	C 	0.835	0.4686	0.9427	0.087
Mof_C 	C 	0.9071	0.5213	0.011	-0.216
Mof_H 	H 	0.9567	0.5128	0.0978	0.132
Mof_C 	C 	0.9066	0.5865	0.952	0.152
Mof_H 	H 	0.9564	0.621	0.9991	0.017
Mof_C 	C 	0.833	0.60102	0.8244	-0.166
Mof_C 	C 	0.7587	0.55	0.7571	0.09
Mof_H 	H 	0.7071	0.5603	0.672	0.021
Mof_C 	C 	0.7603	0.4835	0.8152	-0.134
Mof_H 	H 	0.7107	0.4488	0.768	0.096
Mof_C 	C 	0.8417	0.3943	0.0049	0.301
Mof_C 	C 	0.8375	0.66806	0.7562	0.42
Mof_C 	C 	0.9785	0.168	0.032	0.109
Mof_H 	H 	0.9933	0.2158	0.019	0.029
Mof_C 	C 	0.0063	0.106	0.9993	-0.219
Mof_H 	H 	0.0392	0.1121	0.9633	0.106
Mof_C 	C 	0.9862	0.034	0.0188	0.156
Mof_C 	C 	0.9368	0.0287	0.0726	-0.158
Mof_H 	H 	0.9223	0.9814	0.0882	0.089
Mof_C 	C 	0.9089	0.0926	0.1033	0.068
Mof_H 	H 	0.8752	0.0883	0.1385	0.036
Mof_Mg	Mg	0.25	0.25	0.5	1.476
Mof_Mg	Mg	0.75	0.25	-0	1.473
Mof_Mg	Mg	0.75	0.75	0.5	1.475
Mof_Mg	Mg	0.25	0.75	-0	1.473
Mof_Mg	Mg	0.5	0.19483	0.75	1.479
Mof_Mg	Mg	3.32829e-33	0.69483	0.75	1.474
Mof_Mg	Mg	0.5	0.80517	0.25	1.478
Mof_Mg	Mg	1.10943e-33	0.30517	0.25	1.474
_end
