data_functionalizedCrystal
_audit_creation_method	'EQeq! by Chris Wilmer'
_symmetry_space_group_name_H-M	'P1'
_symmetry_Int_Tables_number	1
_symmetry_cell_setting	triclinic
loop_
_symmetry_equiv_pos_as_xyz
  x,y,z
_cell_length_a	9.5347
_cell_length_b	13.3778
_cell_length_c	14.4744
_cell_angle_alpha	79.9477
_cell_angle_beta	70.7697
_cell_angle_gamma	69.123
loop_
_atom_site_label
_atom_site_type_symbol
_atom_site_fract_x
_atom_site_fract_y
_atom_site_fract_z
_atom_site_charge
Mof_Mn	Mn	0.52041	0.46752	0.88456	0.87
Mof_Mn	Mn	0.87249	0.03248	0.61544	0.867
Mof_Mn	Mn	0.47959	0.53248	0.11544	0.87
Mof_Mn	Mn	0.12751	0.96752	0.38456	0.867
Mof_Mn	Mn	0.78888	0.25	0.75	0.986
Mof_Mn	Mn	0.21112	0.75	0.25	0.986
Mof_H 	H 	0.7763	0.0921	0.9793	0.039
Mof_H 	H 	0.8864	0.9562	0.081	0.054
Mof_H 	H 	0.7998	0.1689	0.2707	0.052
Mof_H 	H 	0.6764	0.3046	0.1734	0.048
Mof_H 	H 	0.4431	0.6433	0.5897	0.05
Mof_H 	H 	0.5702	0.3272	0.5692	0.043
Mof_H 	H 	0.8477	0.4079	0.5207	0.042
Mof_H 	H 	0.9236	0.5438	0.419	0.057
Mof_H 	H 	0.2394	0.3311	0.2293	0.053
Mof_H 	H 	0.1544	0.1954	0.3266	0.047
Mof_H 	H 	0.6761	0.8567	0.9103	0.047
Mof_H 	H 	0.4666	0.1728	0.9308	0.045
Mof_H 	H 	0.2237	0.9079	0.0207	0.039
Mof_H 	H 	0.1136	0.0438	0.919	0.054
Mof_H 	H 	0.2002	0.8311	0.7293	0.052
Mof_H 	H 	0.3236	0.6954	0.8266	0.048
Mof_H 	H 	0.5569	0.3567	0.4103	0.05
Mof_H 	H 	0.4298	0.6728	0.4308	0.043
Mof_H 	H 	0.1523	0.5921	0.4793	0.042
Mof_H 	H 	0.0764	0.4562	0.581	0.057
Mof_H 	H 	0.7606	0.6689	0.7707	0.053
Mof_H 	H 	0.8456	0.8046	0.6734	0.047
Mof_H 	H 	0.3239	0.1433	0.0897	0.047
Mof_H 	H 	0.5334	0.8272	0.0692	0.045
Mof_C 	C 	0.6501	0.301	0.998	0.379
Mof_C 	C 	0.7174	0.2123	0.0653	-0.103
Mof_C 	C 	0.7798	0.1077	0.0385	0.005
Mof_C 	C 	0.8471	0.0266	0.099	-0.027
Mof_C 	C 	0.8569	0.0488	0.1862	-0.075
Mof_C 	C 	0.794	0.1528	0.2124	-0.022
Mof_C 	C 	0.7218	0.2347	0.1535	-0.007
Mof_C 	C 	0.9458	0.9627	0.2477	0.371
Mof_C 	C 	0.5162	0.4634	0.699	0.352
Mof_C 	C 	0.506	0.4815	0.5961	-0.082
Mof_C 	C 	0.4655	0.5856	0.5536	-0.022
Mof_C 	C 	0.5413	0.397	0.5416	-0.014
Mof_C 	C 	0.9491	0.199	0.502	0.382
Mof_C 	C 	0.995	0.2877	0.4347	-0.107
Mof_C 	C 	0.926	0.3923	0.4615	0.003
Mof_C 	C 	0.9727	0.4734	0.401	-0.032
Mof_C 	C 	0.0919	0.4512	0.3138	-0.072
Mof_C 	C 	0.1592	0.3472	0.2876	-0.025
Mof_C 	C 	0.11	0.2653	0.3465	-0.003
Mof_C 	C 	0.1562	0.5373	0.2523	0.369
Mof_C 	C 	0.6786	0.0366	0.801	0.349
Mof_C 	C 	0.5836	0.0185	0.9039	-0.085
Mof_C 	C 	0.6047	0.9144	0.9464	-0.01
Mof_C 	C 	0.4799	0.103	0.9584	-0.021
Mof_C 	C 	0.3499	0.699	0.002	0.379
Mof_C 	C 	0.2826	0.7877	0.9347	-0.103
Mof_C 	C 	0.2202	0.8923	0.9615	0.005
Mof_C 	C 	0.1529	0.9734	0.901	-0.027
Mof_C 	C 	0.1431	0.9512	0.8138	-0.075
Mof_C 	C 	0.206	0.8472	0.7876	-0.022
Mof_C 	C 	0.2782	0.7653	0.8465	-0.007
Mof_C 	C 	0.0542	0.0373	0.7523	0.371
Mof_C 	C 	0.4838	0.5366	0.301	0.352
Mof_C 	C 	0.494	0.5185	0.4039	-0.082
Mof_C 	C 	0.5345	0.4144	0.4464	-0.022
Mof_C 	C 	0.4587	0.603	0.4584	-0.014
Mof_C 	C 	0.0509	0.801	0.498	0.382
Mof_C 	C 	0.005	0.7123	0.5653	-0.107
Mof_C 	C 	0.074	0.6077	0.5385	0.003
Mof_C 	C 	0.0273	0.5266	0.599	-0.032
Mof_C 	C 	0.9081	0.5488	0.6862	-0.072
Mof_C 	C 	0.8408	0.6528	0.7124	-0.025
Mof_C 	C 	0.89	0.7347	0.6535	-0.003
Mof_C 	C 	0.8438	0.4627	0.7477	0.369
Mof_C 	C 	0.3214	0.9634	0.199	0.349
Mof_C 	C 	0.4164	0.9815	0.0961	-0.085
Mof_C 	C 	0.3953	0.0856	0.0536	-0.01
Mof_C 	C 	0.5201	0.897	0.0416	-0.021
Mof_O 	O 	0.57758	0.39394	0.0283	-0.44
Mof_O 	O 	0.4667	0.5418	0.7498	-0.372
Mof_O 	O 	0.57598	0.36944	0.7318	-0.409
Mof_O 	O 	0.6662	0.284	0.9122	-0.416
Mof_O 	O 	0.01765	0.8722	0.2149	-0.385
Mof_O 	O 	0.94132	0.98936	0.328	-0.382
Mof_O 	O 	0.99982	0.10606	0.4717	-0.443
Mof_O 	O 	0.7583	0.9582	0.7502	-0.367
Mof_O 	O 	0.67722	0.13056	0.7682	-0.408
Mof_O 	O 	0.8624	0.216	0.5878	-0.416
Mof_O 	O 	0.10475	0.6278	0.2851	-0.383
Mof_O 	O 	0.25868	0.51064	0.172	-0.382
Mof_O 	O 	0.42242	0.60606	0.9717	-0.44
Mof_O 	O 	0.5333	0.4582	0.2502	-0.372
Mof_O 	O 	0.42402	0.63056	0.2682	-0.409
Mof_O 	O 	0.3338	0.716	0.0878	-0.416
Mof_O 	O 	0.98235	0.1278	0.7851	-0.385
Mof_O 	O 	0.05868	0.01064	0.672	-0.382
Mof_O 	O 	0.00018	0.89394	0.5283	-0.443
Mof_O 	O 	0.2417	0.0418	0.2498	-0.367
Mof_O 	O 	0.32278	0.86944	0.2318	-0.408
Mof_O 	O 	0.1376	0.784	0.4122	-0.416
Mof_O 	O 	0.89525	0.3722	0.7149	-0.383
Mof_O 	O 	0.74132	0.48936	0.828	-0.382
_end
