data_functionalizedCrystal
_audit_creation_method	'EQeq! by Chris Wilmer'
_symmetry_space_group_name_H-M	'P1'
_symmetry_Int_Tables_number	1
_symmetry_cell_setting	triclinic
loop_
_symmetry_equiv_pos_as_xyz
  x,y,z
_cell_length_a	10.6427
_cell_length_b	11.5008
_cell_length_c	13.4731
_cell_angle_alpha	69.142
_cell_angle_beta	78.865
_cell_angle_gamma	63.208
loop_
_atom_site_label
_atom_site_type_symbol
_atom_site_fract_x
_atom_site_fract_y
_atom_site_fract_z
_atom_site_charge
Mof_U 	U 	0.62579	0.71128	0.8365	0
Mof_Eu	Eu	0.60329	0.228	0.7514	1.631
Mof_O 	O 	0.851	0.5363	0.9132	-0.2
Mof_O 	O 	0.7651	0.4937	0.8023	-0.199
Mof_O 	O 	0.8211	0.2314	0.7699	-0.473
Mof_O 	O 	0.8905	0.3622	0.6259	-0.237
Mof_O 	O 	0.4186	0.9173	0.8205	-0.222
Mof_O 	O 	0.5026	0.0764	0.7536	-0.461
Mof_O 	O 	0.4827	0.1763	0.9185	-0.45
Mof_O 	O 	0.3246	0.198	0.0539	-0.219
Mof_O 	O 	0.5032	0.6934	0.7185	-0.201
Mof_O 	O 	0.4149	0.7009	0.5784	-0.293
Mof_O 	O 	0.7362	0.634	0.5354	-0.211
Mof_O 	O 	0.8636	0.7495	0.4782	-0.21
Mof_C 	C 	0.0017	0.3423	0.8512	-0.023
Mof_C 	C 	0.1137	0.3132	0.9079	-0.028
Mof_H 	H 	0.0988	0.3601	0.9558	0.074
Mof_C 	C 	0.2477	0.2152	0.8945	-0.068
Mof_C 	C 	0.2675	0.1431	0.8242	-0.084
Mof_C 	C 	0.1514	0.1637	0.7752	0.016
Mof_H 	H 	0.1631	0.1082	0.735	0.043
Mof_C 	C 	0.0194	0.2653	0.7857	-0.065
Mof_C 	C 	0.626	0.0012	0.4496	-0.019
Mof_H 	H 	0.7112	0.0013	0.4166	0.055
Mof_C 	C 	0.6153	0.8763	0.5056	-0.04
Mof_C 	C 	0.4916	0.8757	0.5562	-0.031
Mof_C 	C 	0.8668	0.4629	0.8566	0.267
Mof_C 	C 	0.3624	0.1937	0.9581	0.339
Mof_C 	C 	0.4101	0.0377	0.7977	0.374
Mof_C 	C 	0.9006	0.2904	0.7231	0.366
Mof_C 	C 	0.4708	0.7445	0.6217	0.289
Mof_C 	C 	0.7462	0.7462	0.5077	0.279
Mof_U 	U 	0.37421	0.28872	0.1635	0.001
Mof_Eu	Eu	0.39671	0.772	0.2486	1.631
Mof_O 	O 	0.149	0.4637	0.0868	-0.2
Mof_O 	O 	0.2349	0.5063	0.1977	-0.199
Mof_O 	O 	0.1789	0.7686	0.2301	-0.473
Mof_O 	O 	0.1095	0.6378	0.3741	-0.237
Mof_O 	O 	0.5814	0.0827	0.1795	-0.222
Mof_O 	O 	0.4974	0.9236	0.2464	-0.461
Mof_O 	O 	0.5173	0.8237	0.0815	-0.45
Mof_O 	O 	0.6754	0.802	0.9461	-0.219
Mof_O 	O 	0.4968	0.3066	0.2815	-0.201
Mof_O 	O 	0.5851	0.2991	0.4216	-0.293
Mof_O 	O 	0.2638	0.366	0.4646	-0.211
Mof_O 	O 	0.1364	0.2505	0.5218	-0.21
Mof_C 	C 	0.9983	0.6577	0.1488	-0.023
Mof_C 	C 	0.8863	0.6868	0.0921	-0.028
Mof_H 	H 	0.9012	0.6399	0.0442	0.074
Mof_C 	C 	0.7523	0.7848	0.1055	-0.068
Mof_C 	C 	0.7325	0.8569	0.1758	-0.084
Mof_C 	C 	0.8486	0.8363	0.2248	0.017
Mof_H 	H 	0.8369	0.8918	0.265	0.043
Mof_C 	C 	0.9806	0.7347	0.2143	-0.065
Mof_C 	C 	0.374	0.9988	0.5504	-0.019
Mof_H 	H 	0.2888	0.9987	0.5834	0.055
Mof_C 	C 	0.3847	0.1237	0.4944	-0.04
Mof_C 	C 	0.5084	0.1243	0.4438	-0.031
Mof_C 	C 	0.1332	0.5371	0.1434	0.267
Mof_C 	C 	0.6376	0.8063	0.0419	0.339
Mof_C 	C 	0.5899	0.9623	0.2023	0.374
Mof_C 	C 	0.0994	0.7096	0.2769	0.366
Mof_C 	C 	0.5292	0.2555	0.3783	0.289
Mof_C 	C 	0.2538	0.2538	0.4923	0.279
Mof_U 	U 	-2.06772e-17	0.5	0.5	-0
_end
