data_functionalizedCrystal
_audit_creation_method	'EQeq! by Chris Wilmer'
_symmetry_space_group_name_H-M	'P1'
_symmetry_Int_Tables_number	1
_symmetry_cell_setting	triclinic
loop_
_symmetry_equiv_pos_as_xyz
  x,y,z
_cell_length_a	28.568
_cell_length_b	20.467
_cell_length_c	18.171
_cell_angle_alpha	90
_cell_angle_beta	104.043
_cell_angle_gamma	90
loop_
_atom_site_label
_atom_site_type_symbol
_atom_site_fract_x
_atom_site_fract_y
_atom_site_fract_z
_atom_site_charge
Mof_Sm	Sm	0.68539	0.77936	0.01708	2.107
Mof_C 	C 	0.41149	0.74042	0.54637	0.34
Mof_C 	C 	0.46094	0.71546	0.58623	-0.096
Mof_C 	C 	0.49439	0.7558	0.63	-0.011
Mof_H 	H 	0.4863	0.7991	0.6364	0.033
Mof_C 	C 	0.54046	0.7333	0.6655	-0.069
Mof_H 	H 	0.5629	0.7622	0.6939	0.048
Mof_C 	C 	0.55313	0.66943	0.65912	0.056
Mof_C 	C 	0.51868	0.6271	0.6177	-0.059
Mof_H 	H 	0.5263	0.5833	0.6136	0.043
Mof_C 	C 	0.47291	0.6496	0.5822	-0.001
Mof_H 	H 	0.45	0.6205	0.5555	0.034
Mof_C 	C 	0.70402	0.6896	0.86725	0.49
Mof_C 	C 	0.67616	0.65632	0.79486	-0.145
Mof_C 	C 	0.6292	0.67555	0.76266	0.014
Mof_H 	H 	0.6152	0.7085	0.7854	0.033
Mof_C 	C 	0.60262	0.64609	0.69638	-0.034
Mof_C 	C 	0.62447	0.59592	0.66524	-0.034
Mof_H 	H 	0.6072	0.5756	0.6212	0.035
Mof_C 	C 	0.67139	0.57504	0.69784	-0.057
Mof_C 	C 	0.69694	0.6069	0.76248	0.026
Mof_H 	H 	0.7286	0.5947	0.7843	0.014
Mof_C 	C 	0.75903	0.36515	0.56411	0.494
Mof_C 	C 	0.73562	0.41878	0.59937	-0.228
Mof_C 	C 	0.76288	0.47192	0.63198	0.121
Mof_H 	H 	0.7954	0.474	0.6323	-0.01
Mof_C 	C 	0.74204	0.52193	0.66407	-0.193
Mof_H 	H 	0.761	0.5569	0.6866	0.084
Mof_C 	C 	0.69339	0.52104	0.66333	0.12
Mof_C 	C 	0.66665	0.46797	0.63008	-0.202
Mof_H 	H 	0.634	0.4661	0.6291	0.094
Mof_C 	C 	0.68722	0.41732	0.59811	0.132
Mof_H 	H 	0.6683	0.3823	0.5758	-0.031
Mof_O 	O 	0.6814	0.72953	0.89674	-0.527
Mof_O 	O 	0.74786	0.67501	0.89013	-0.569
Mof_O 	O 	0.80063	0.37349	0.55639	-0.522
Mof_O 	O 	0.73585	0.31367	0.54277	-0.634
Mof_O 	O 	0.39879	0.79597	0.56117	-0.456
Mof_O 	O 	0.38413	0.70388	0.50054	-0.472
Mof_C 	C 	0.4826	0.735	0.6582	0.015
Mof_H 	H 	0.4669	0.7642	0.6832	0.019
Mof_C 	C 	0.5274	0.7117	0.6939	-0.044
Mof_H 	H 	0.541	0.7249	0.7435	0.041
Mof_C 	C 	0.5309	0.655	0.5807	-0.061
Mof_H 	H 	0.5473	0.6295	0.5528	0.042
Mof_C 	C 	0.4864	0.6781	0.5473	0.006
Mof_H 	H 	0.4729	0.6684	0.4966	0.02
Mof_Sm	Sm	0.18539	0.27936	0.01708	2.105
Mof_C 	C 	0.91149	0.24042	0.54637	0.339
Mof_C 	C 	0.96094	0.21546	0.58623	-0.097
Mof_C 	C 	0.99439	0.2558	0.63	-0.012
Mof_H 	H 	0.9863	0.2991	0.6364	0.032
Mof_C 	C 	0.04046	0.2333	0.6655	-0.07
Mof_H 	H 	0.0629	0.2622	0.6939	0.047
Mof_C 	C 	0.05313	0.16943	0.65912	0.055
Mof_C 	C 	0.01868	0.1271	0.6177	-0.059
Mof_H 	H 	0.0263	0.0833	0.6136	0.043
Mof_C 	C 	0.97291	0.1496	0.5822	-0.001
Mof_H 	H 	0.95	0.1205	0.5555	0.034
Mof_C 	C 	0.20402	0.1896	0.86725	0.49
Mof_C 	C 	0.17616	0.15632	0.79486	-0.145
Mof_C 	C 	0.1292	0.17555	0.76266	0.014
Mof_H 	H 	0.1152	0.2085	0.7854	0.033
Mof_C 	C 	0.10262	0.14609	0.69638	-0.033
Mof_C 	C 	0.12447	0.09592	0.66524	-0.034
Mof_H 	H 	0.1072	0.0756	0.6212	0.035
Mof_C 	C 	0.17139	0.07504	0.69784	-0.057
Mof_C 	C 	0.19694	0.1069	0.76248	0.026
Mof_H 	H 	0.2286	0.0947	0.7843	0.014
Mof_C 	C 	0.25903	0.86515	0.56411	0.494
Mof_C 	C 	0.23562	0.91878	0.59937	-0.228
Mof_C 	C 	0.26288	0.97192	0.63198	0.121
Mof_H 	H 	0.2954	0.974	0.6323	-0.01
Mof_C 	C 	0.24204	0.02193	0.66407	-0.194
Mof_H 	H 	0.261	0.0569	0.6866	0.085
Mof_C 	C 	0.19339	0.02104	0.66333	0.12
Mof_C 	C 	0.16665	0.96797	0.63008	-0.202
Mof_H 	H 	0.134	0.9661	0.6291	0.094
Mof_C 	C 	0.18722	0.91732	0.59811	0.132
Mof_H 	H 	0.1683	0.8823	0.5758	-0.031
Mof_O 	O 	0.1814	0.22953	0.89674	-0.527
Mof_O 	O 	0.24786	0.17501	0.89013	-0.569
Mof_O 	O 	0.30063	0.87349	0.55639	-0.522
Mof_O 	O 	0.23585	0.81367	0.54277	-0.634
Mof_O 	O 	0.89879	0.29597	0.56117	-0.456
Mof_O 	O 	0.88413	0.20388	0.50054	-0.472
Mof_C 	C 	0.9826	0.235	0.6582	0.015
Mof_H 	H 	0.9669	0.2642	0.6832	0.019
Mof_C 	C 	0.0274	0.2117	0.6939	-0.043
Mof_H 	H 	0.041	0.2249	0.7435	0.041
Mof_C 	C 	0.0309	0.155	0.5807	-0.061
Mof_H 	H 	0.0473	0.1295	0.5528	0.042
Mof_C 	C 	0.9864	0.1781	0.5473	0.005
Mof_H 	H 	0.9729	0.1684	0.4966	0.02
Mof_Sm	Sm	0.31461	0.77936	0.48292	2.105
Mof_C 	C 	0.58851	0.74042	0.95363	0.339
Mof_C 	C 	0.53906	0.71546	0.91377	-0.097
Mof_C 	C 	0.50561	0.7558	0.87	-0.012
Mof_H 	H 	0.5137	0.7991	0.8636	0.032
Mof_C 	C 	0.45954	0.7333	0.8345	-0.07
Mof_H 	H 	0.4371	0.7622	0.8061	0.047
Mof_C 	C 	0.44687	0.66943	0.84088	0.055
Mof_C 	C 	0.48132	0.6271	0.8823	-0.06
Mof_H 	H 	0.4737	0.5833	0.8864	0.043
Mof_C 	C 	0.52709	0.6496	0.9178	-0
Mof_H 	H 	0.55	0.6205	0.9445	0.034
Mof_C 	C 	0.29598	0.6896	0.63275	0.49
Mof_C 	C 	0.32384	0.65632	0.70514	-0.145
Mof_C 	C 	0.3708	0.67555	0.73734	0.014
Mof_H 	H 	0.3848	0.7085	0.7146	0.033
Mof_C 	C 	0.39738	0.64609	0.80362	-0.034
Mof_C 	C 	0.37553	0.59592	0.83476	-0.034
Mof_H 	H 	0.3928	0.5756	0.8788	0.035
Mof_C 	C 	0.32861	0.57504	0.80216	-0.057
Mof_C 	C 	0.30306	0.6069	0.73752	0.026
Mof_H 	H 	0.2714	0.5947	0.7157	0.014
Mof_C 	C 	0.24097	0.36515	0.93589	0.494
Mof_C 	C 	0.26438	0.41878	0.90063	-0.228
Mof_C 	C 	0.23712	0.47192	0.86802	0.121
Mof_H 	H 	0.2046	0.474	0.8677	-0.009
Mof_C 	C 	0.25796	0.52193	0.83593	-0.193
Mof_H 	H 	0.239	0.5569	0.8134	0.085
Mof_C 	C 	0.30661	0.52104	0.83667	0.12
Mof_C 	C 	0.33335	0.46797	0.86992	-0.202
Mof_H 	H 	0.366	0.4661	0.8709	0.094
Mof_C 	C 	0.31278	0.41732	0.90189	0.132
Mof_H 	H 	0.3317	0.3823	0.9242	-0.031
Mof_O 	O 	0.3186	0.72953	0.60326	-0.527
Mof_O 	O 	0.25214	0.67501	0.60987	-0.568
Mof_O 	O 	0.19937	0.37349	0.94361	-0.522
Mof_O 	O 	0.26415	0.31367	0.95723	-0.634
Mof_O 	O 	0.60121	0.79597	0.93883	-0.456
Mof_O 	O 	0.61587	0.70388	0.99946	-0.472
Mof_C 	C 	0.5174	0.735	0.8418	0.015
Mof_H 	H 	0.5331	0.7642	0.8168	0.019
Mof_C 	C 	0.4726	0.7117	0.8061	-0.044
Mof_H 	H 	0.459	0.7249	0.7565	0.041
Mof_C 	C 	0.4691	0.655	0.9193	-0.06
Mof_H 	H 	0.4527	0.6295	0.9472	0.042
Mof_C 	C 	0.5136	0.6781	0.9527	0.006
Mof_H 	H 	0.5271	0.6684	0.0034	0.02
Mof_Sm	Sm	0.81461	0.27936	0.48292	2.105
Mof_C 	C 	0.08851	0.24042	0.95363	0.339
Mof_C 	C 	0.03906	0.21546	0.91377	-0.098
Mof_C 	C 	0.00561	0.2558	0.87	-0.011
Mof_H 	H 	0.0137	0.2991	0.8636	0.031
Mof_C 	C 	0.95954	0.2333	0.8345	-0.07
Mof_H 	H 	0.9371	0.2622	0.8061	0.047
Mof_C 	C 	0.94687	0.16943	0.84088	0.057
Mof_C 	C 	0.98132	0.1271	0.8823	-0.062
Mof_H 	H 	0.9737	0.0833	0.8864	0.043
Mof_C 	C 	0.02709	0.1496	0.9178	0.001
Mof_H 	H 	0.05	0.1205	0.9445	0.033
Mof_C 	C 	0.79598	0.1896	0.63275	0.49
Mof_C 	C 	0.82384	0.15632	0.70514	-0.145
Mof_C 	C 	0.8708	0.17555	0.73734	0.014
Mof_H 	H 	0.8848	0.2085	0.7146	0.033
Mof_C 	C 	0.89738	0.14609	0.80362	-0.034
Mof_C 	C 	0.87553	0.09592	0.83476	-0.034
Mof_H 	H 	0.8928	0.0756	0.8788	0.035
Mof_C 	C 	0.82861	0.07504	0.80216	-0.057
Mof_C 	C 	0.80306	0.1069	0.73752	0.026
Mof_H 	H 	0.7714	0.0947	0.7157	0.014
Mof_C 	C 	0.74097	0.86515	0.93589	0.494
Mof_C 	C 	0.76438	0.91878	0.90063	-0.228
Mof_C 	C 	0.73712	0.97192	0.86802	0.122
Mof_H 	H 	0.7046	0.974	0.8677	-0.01
Mof_C 	C 	0.75796	0.02193	0.83593	-0.194
Mof_H 	H 	0.739	0.0569	0.8134	0.085
Mof_C 	C 	0.80661	0.02104	0.83667	0.12
Mof_C 	C 	0.83335	0.96797	0.86992	-0.201
Mof_H 	H 	0.866	0.9661	0.8709	0.094
Mof_C 	C 	0.81278	0.91732	0.90189	0.132
Mof_H 	H 	0.8317	0.8823	0.9242	-0.031
Mof_O 	O 	0.8186	0.22953	0.60326	-0.527
Mof_O 	O 	0.75214	0.17501	0.60987	-0.569
Mof_O 	O 	0.69937	0.87349	0.94361	-0.522
Mof_O 	O 	0.76415	0.81367	0.95723	-0.634
Mof_O 	O 	0.10121	0.29597	0.93883	-0.456
Mof_O 	O 	0.11587	0.20388	0.99946	-0.472
Mof_C 	C 	0.0174	0.235	0.8418	0.016
Mof_H 	H 	0.0331	0.2642	0.8168	0.019
Mof_C 	C 	0.9726	0.2117	0.8061	-0.045
Mof_H 	H 	0.959	0.2249	0.7565	0.041
Mof_C 	C 	0.9691	0.155	0.9193	-0.06
Mof_H 	H 	0.9527	0.1295	0.9472	0.042
Mof_C 	C 	0.0136	0.1781	0.9527	0.006
Mof_H 	H 	0.0271	0.1684	0.0034	0.02
Mof_Sm	Sm	0.31461	0.22064	0.98292	2.106
Mof_C 	C 	0.58851	0.25958	0.45363	0.339
Mof_C 	C 	0.53906	0.28454	0.41377	-0.097
Mof_C 	C 	0.50561	0.2442	0.37	-0.012
Mof_H 	H 	0.5137	0.2009	0.3636	0.032
Mof_C 	C 	0.45954	0.2667	0.3345	-0.07
Mof_H 	H 	0.4371	0.2378	0.3061	0.047
Mof_C 	C 	0.44687	0.33057	0.34088	0.055
Mof_C 	C 	0.48132	0.3729	0.3823	-0.059
Mof_H 	H 	0.4737	0.4167	0.3864	0.043
Mof_C 	C 	0.52709	0.3504	0.4178	-0.001
Mof_H 	H 	0.55	0.3795	0.4445	0.034
Mof_C 	C 	0.29598	0.3104	0.13275	0.49
Mof_C 	C 	0.32384	0.34368	0.20514	-0.145
Mof_C 	C 	0.3708	0.32445	0.23734	0.014
Mof_H 	H 	0.3848	0.2915	0.2146	0.033
Mof_C 	C 	0.39738	0.35391	0.30362	-0.034
Mof_C 	C 	0.37553	0.40408	0.33476	-0.034
Mof_H 	H 	0.3928	0.4244	0.3788	0.035
Mof_C 	C 	0.32861	0.42496	0.30216	-0.057
Mof_C 	C 	0.30306	0.3931	0.23752	0.026
Mof_H 	H 	0.2714	0.4053	0.2157	0.014
Mof_C 	C 	0.24097	0.63485	0.43589	0.494
Mof_C 	C 	0.26438	0.58122	0.40063	-0.228
Mof_C 	C 	0.23712	0.52808	0.36802	0.121
Mof_H 	H 	0.2046	0.526	0.3677	-0.01
Mof_C 	C 	0.25796	0.47807	0.33593	-0.193
Mof_H 	H 	0.239	0.4431	0.3134	0.084
Mof_C 	C 	0.30661	0.47896	0.33667	0.12
Mof_C 	C 	0.33335	0.53203	0.36992	-0.202
Mof_H 	H 	0.366	0.5339	0.3709	0.094
Mof_C 	C 	0.31278	0.58268	0.40189	0.132
Mof_H 	H 	0.3317	0.6177	0.4242	-0.031
Mof_O 	O 	0.3186	0.27047	0.10326	-0.527
Mof_O 	O 	0.25214	0.32499	0.10987	-0.569
Mof_O 	O 	0.19937	0.62651	0.44361	-0.522
Mof_O 	O 	0.26415	0.68633	0.45723	-0.634
Mof_O 	O 	0.60121	0.20403	0.43883	-0.456
Mof_O 	O 	0.61587	0.29612	0.49946	-0.472
Mof_C 	C 	0.5174	0.265	0.3418	0.015
Mof_H 	H 	0.5331	0.2358	0.3168	0.019
Mof_C 	C 	0.4726	0.2883	0.3061	-0.044
Mof_H 	H 	0.459	0.2751	0.2565	0.041
Mof_C 	C 	0.4691	0.345	0.4193	-0.061
Mof_H 	H 	0.4527	0.3705	0.4472	0.042
Mof_C 	C 	0.5136	0.3219	0.4527	0.006
Mof_H 	H 	0.5271	0.3316	0.5034	0.02
Mof_Sm	Sm	0.81461	0.72064	0.98292	2.105
Mof_C 	C 	0.08851	0.75958	0.45363	0.339
Mof_C 	C 	0.03906	0.78454	0.41377	-0.097
Mof_C 	C 	0.00561	0.7442	0.37	-0.012
Mof_H 	H 	0.0137	0.7009	0.3636	0.032
Mof_C 	C 	0.95954	0.7667	0.3345	-0.07
Mof_H 	H 	0.9371	0.7378	0.3061	0.047
Mof_C 	C 	0.94687	0.83057	0.34088	0.055
Mof_C 	C 	0.98132	0.8729	0.3823	-0.059
Mof_H 	H 	0.9737	0.9167	0.3864	0.043
Mof_C 	C 	0.02709	0.8504	0.4178	-0.001
Mof_H 	H 	0.05	0.8795	0.4445	0.034
Mof_C 	C 	0.79598	0.8104	0.13275	0.49
Mof_C 	C 	0.82384	0.84368	0.20514	-0.145
Mof_C 	C 	0.8708	0.82445	0.23734	0.014
Mof_H 	H 	0.8848	0.7915	0.2146	0.033
Mof_C 	C 	0.89738	0.85391	0.30362	-0.033
Mof_C 	C 	0.87553	0.90408	0.33476	-0.034
Mof_H 	H 	0.8928	0.9244	0.3788	0.035
Mof_C 	C 	0.82861	0.92496	0.30216	-0.057
Mof_C 	C 	0.80306	0.8931	0.23752	0.026
Mof_H 	H 	0.7714	0.9053	0.2157	0.014
Mof_C 	C 	0.74097	0.13485	0.43589	0.494
Mof_C 	C 	0.76438	0.08122	0.40063	-0.228
Mof_C 	C 	0.73712	0.02808	0.36802	0.121
Mof_H 	H 	0.7046	0.026	0.3677	-0.01
Mof_C 	C 	0.75796	0.97807	0.33593	-0.194
Mof_H 	H 	0.739	0.9431	0.3134	0.085
Mof_C 	C 	0.80661	0.97896	0.33667	0.12
Mof_C 	C 	0.83335	0.03203	0.36992	-0.202
Mof_H 	H 	0.866	0.0339	0.3709	0.094
Mof_C 	C 	0.81278	0.08268	0.40189	0.132
Mof_H 	H 	0.8317	0.1177	0.4242	-0.031
Mof_O 	O 	0.8186	0.77047	0.10326	-0.527
Mof_O 	O 	0.75214	0.82499	0.10987	-0.569
Mof_O 	O 	0.69937	0.12651	0.44361	-0.522
Mof_O 	O 	0.76415	0.18633	0.45723	-0.634
Mof_O 	O 	0.10121	0.70403	0.43883	-0.456
Mof_O 	O 	0.11587	0.79612	0.49946	-0.472
Mof_C 	C 	0.0174	0.765	0.3418	0.015
Mof_H 	H 	0.0331	0.7358	0.3168	0.019
Mof_C 	C 	0.9726	0.7883	0.3061	-0.043
Mof_H 	H 	0.959	0.7751	0.2565	0.041
Mof_C 	C 	0.9691	0.845	0.4193	-0.061
Mof_H 	H 	0.9527	0.8705	0.4472	0.042
Mof_C 	C 	0.0136	0.8219	0.4527	0.005
Mof_H 	H 	0.0271	0.8316	0.5034	0.02
Mof_Sm	Sm	0.68539	0.22064	0.51708	2.105
Mof_C 	C 	0.41149	0.25958	0.04637	0.339
Mof_C 	C 	0.46094	0.28454	0.08623	-0.097
Mof_C 	C 	0.49439	0.2442	0.13	-0.012
Mof_H 	H 	0.4863	0.2009	0.1364	0.032
Mof_C 	C 	0.54046	0.2667	0.1655	-0.07
Mof_H 	H 	0.5629	0.2378	0.1939	0.047
Mof_C 	C 	0.55313	0.33057	0.15912	0.055
Mof_C 	C 	0.51868	0.3729	0.1177	-0.06
Mof_H 	H 	0.5263	0.4167	0.1136	0.043
Mof_C 	C 	0.47291	0.3504	0.0822	-0
Mof_H 	H 	0.45	0.3795	0.0555	0.034
Mof_C 	C 	0.70402	0.3104	0.36725	0.49
Mof_C 	C 	0.67616	0.34368	0.29486	-0.145
Mof_C 	C 	0.6292	0.32445	0.26266	0.014
Mof_H 	H 	0.6152	0.2915	0.2854	0.033
Mof_C 	C 	0.60262	0.35391	0.19638	-0.034
Mof_C 	C 	0.62447	0.40408	0.16524	-0.034
Mof_H 	H 	0.6072	0.4244	0.1212	0.035
Mof_C 	C 	0.67139	0.42496	0.19784	-0.057
Mof_C 	C 	0.69694	0.3931	0.26248	0.026
Mof_H 	H 	0.7286	0.4053	0.2843	0.014
Mof_C 	C 	0.75903	0.63485	0.06411	0.494
Mof_C 	C 	0.73562	0.58122	0.09937	-0.228
Mof_C 	C 	0.76288	0.52808	0.13198	0.121
Mof_H 	H 	0.7954	0.526	0.1323	-0.009
Mof_C 	C 	0.74204	0.47807	0.16407	-0.193
Mof_H 	H 	0.761	0.4431	0.1866	0.085
Mof_C 	C 	0.69339	0.47896	0.16333	0.12
Mof_C 	C 	0.66665	0.53203	0.13008	-0.202
Mof_H 	H 	0.634	0.5339	0.1291	0.094
Mof_C 	C 	0.68722	0.58268	0.09811	0.132
Mof_H 	H 	0.6683	0.6177	0.0758	-0.031
Mof_O 	O 	0.6814	0.27047	0.39674	-0.527
Mof_O 	O 	0.74786	0.32499	0.39013	-0.568
Mof_O 	O 	0.80063	0.62651	0.05639	-0.522
Mof_O 	O 	0.73585	0.68633	0.04277	-0.634
Mof_O 	O 	0.39879	0.20403	0.06117	-0.456
Mof_O 	O 	0.38413	0.29612	0.00054	-0.472
Mof_C 	C 	0.4826	0.265	0.1582	0.015
Mof_H 	H 	0.4669	0.2358	0.1832	0.019
Mof_C 	C 	0.5274	0.2883	0.1939	-0.044
Mof_H 	H 	0.541	0.2751	0.2435	0.041
Mof_C 	C 	0.5309	0.345	0.0807	-0.06
Mof_H 	H 	0.5473	0.3705	0.0528	0.042
Mof_C 	C 	0.4864	0.3219	0.0473	0.006
Mof_H 	H 	0.4729	0.3316	0.9966	0.02
Mof_Sm	Sm	0.18539	0.72064	0.51708	2.105
Mof_C 	C 	0.91149	0.75958	0.04637	0.339
Mof_C 	C 	0.96094	0.78454	0.08623	-0.098
Mof_C 	C 	0.99439	0.7442	0.13	-0.011
Mof_H 	H 	0.9863	0.7009	0.1364	0.031
Mof_C 	C 	0.04046	0.7667	0.1655	-0.07
Mof_H 	H 	0.0629	0.7378	0.1939	0.047
Mof_C 	C 	0.05313	0.83057	0.15912	0.057
Mof_C 	C 	0.01868	0.8729	0.1177	-0.062
Mof_H 	H 	0.0263	0.9167	0.1136	0.043
Mof_C 	C 	0.97291	0.8504	0.0822	0.001
Mof_H 	H 	0.95	0.8795	0.0555	0.033
Mof_C 	C 	0.20402	0.8104	0.36725	0.49
Mof_C 	C 	0.17616	0.84368	0.29486	-0.145
Mof_C 	C 	0.1292	0.82445	0.26266	0.014
Mof_H 	H 	0.1152	0.7915	0.2854	0.033
Mof_C 	C 	0.10262	0.85391	0.19638	-0.034
Mof_C 	C 	0.12447	0.90408	0.16524	-0.034
Mof_H 	H 	0.1072	0.9244	0.1212	0.035
Mof_C 	C 	0.17139	0.92496	0.19784	-0.057
Mof_C 	C 	0.19694	0.8931	0.26248	0.026
Mof_H 	H 	0.2286	0.9053	0.2843	0.014
Mof_C 	C 	0.25903	0.13485	0.06411	0.494
Mof_C 	C 	0.23562	0.08122	0.09937	-0.228
Mof_C 	C 	0.26288	0.02808	0.13198	0.122
Mof_H 	H 	0.2954	0.026	0.1323	-0.01
Mof_C 	C 	0.24204	0.97807	0.16407	-0.194
Mof_H 	H 	0.261	0.9431	0.1866	0.085
Mof_C 	C 	0.19339	0.97896	0.16333	0.12
Mof_C 	C 	0.16665	0.03203	0.13008	-0.201
Mof_H 	H 	0.134	0.0339	0.1291	0.094
Mof_C 	C 	0.18722	0.08268	0.09811	0.132
Mof_H 	H 	0.1683	0.1177	0.0758	-0.031
Mof_O 	O 	0.1814	0.77047	0.39674	-0.527
Mof_O 	O 	0.24786	0.82499	0.39013	-0.569
Mof_O 	O 	0.30063	0.12651	0.05639	-0.522
Mof_O 	O 	0.23585	0.18633	0.04277	-0.634
Mof_O 	O 	0.89879	0.70403	0.06117	-0.456
Mof_O 	O 	0.88413	0.79612	0.00054	-0.472
Mof_C 	C 	0.9826	0.765	0.1582	0.016
Mof_H 	H 	0.9669	0.7358	0.1832	0.019
Mof_C 	C 	0.0274	0.7883	0.1939	-0.045
Mof_H 	H 	0.041	0.7751	0.2435	0.041
Mof_C 	C 	0.0309	0.845	0.0807	-0.06
Mof_H 	H 	0.0473	0.8705	0.0528	0.042
Mof_C 	C 	0.9864	0.8219	0.0473	0.006
Mof_H 	H 	0.9729	0.8316	0.9966	0.02
_end
