data_functionalizedCrystal
_audit_creation_method	'EQeq! by Chris Wilmer'
_symmetry_space_group_name_H-M	'P1'
_symmetry_Int_Tables_number	1
_symmetry_cell_setting	triclinic
loop_
_symmetry_equiv_pos_as_xyz
  x,y,z
_cell_length_a	23.681
_cell_length_b	9.6928
_cell_length_c	35.389
_cell_angle_alpha	90
_cell_angle_beta	92.789
_cell_angle_gamma	90
loop_
_atom_site_label
_atom_site_type_symbol
_atom_site_fract_x
_atom_site_fract_y
_atom_site_fract_z
_atom_site_charge
Mof_Cd	Cd	0.19055	0.95179	0.32492	0.462
Mof_O 	O 	0.14278	0.8219	0.36826	-0.297
Mof_O 	O 	0.19834	0.7014	0.33325	-0.254
Mof_O 	O 	0.12449	0.2456	0.45212	-0.293
Mof_O 	O 	0.1362	0.1048	0.76623	-0.265
Mof_O 	O 	0.20438	0.954	0.76451	-0.262
Mof_O 	O 	0.1181	0.963	0.59112	-0.29
Mof_O 	O 	0.74462	0.561	0.36988	-0.295
Mof_O 	O 	0.79606	0.4536	0.32943	-0.268
Mof_O 	O 	0.98921	0.6934	0.44336	-0.296
Mof_C 	C 	0.1206	0.0104	0.46961	-0.28
Mof_C 	C 	0.1457	0.9802	0.50576	0.346
Mof_C 	C 	0.1208	0.8831	0.52895	-0.282
Mof_C 	C 	0.0697	0.8183	0.51646	0.349
Mof_C 	C 	0.04285	0.8559	0.48227	-0.298
Mof_C 	C 	0.0682	0.9499	0.45837	0.39
Mof_C 	C 	0.1486	0.1109	0.44372	0.162
Mof_H 	H 	0.1892	0.1114	0.4487	-0.019
Mof_H 	H 	0.1406	0.0866	0.4174	-0.007
Mof_C 	C 	0.2005	0.057	0.51885	-0.828
Mof_H 	H 	0.2324	0.9967	0.5166	0.276
Mof_H 	H 	0.1982	0.0846	0.5448	0.286
Mof_H 	H 	0.2051	0.1371	0.5034	0.28
Mof_C 	C 	0.144	0.858	0.56865	0.18
Mof_H 	H 	0.134	0.7665	0.5772	-0.026
Mof_H 	H 	0.1849	0.867	0.5701	-0.022
Mof_C 	C 	0.044	0.7037	0.54111	-0.828
Mof_H 	H 	0.0165	0.6522	0.5261	0.284
Mof_H 	H 	0.0261	0.7452	0.5621	0.277
Mof_H 	H 	0.0734	0.6428	0.5504	0.284
Mof_C 	C 	0.98425	0.7997	0.47144	0.179
Mof_H 	H 	0.9672	0.7621	0.4936	-0.023
Mof_H 	H 	0.9602	0.8734	0.4614	-0.019
Mof_C 	C 	0.0408	0.9883	0.41995	-0.928
Mof_H 	H 	0.0016	0.9627	0.4191	0.322
Mof_H 	H 	0.0596	0.9404	0.4004	0.328
Mof_H 	H 	0.044	0.086	0.4161	0.311
Mof_C 	C 	0.1667	0.7104	0.36151	0.338
Mof_C 	C 	0.1585	0.5874	0.38583	-0.204
Mof_C 	C 	0.1184	0.5906	0.41293	0.165
Mof_H 	H 	0.0979	0.6708	0.4167	-0.009
Mof_C 	C 	0.109	0.4748	0.43428	-0.295
Mof_H 	H 	0.0817	0.4775	0.4523	0.139
Mof_C 	C 	0.1392	0.3555	0.42953	0.301
Mof_C 	C 	0.1797	0.3532	0.40331	-0.32
Mof_H 	H 	0.2008	0.2737	0.3999	0.157
Mof_C 	C 	0.1893	0.469	0.38203	0.18
Mof_H 	H 	0.2174	0.4668	0.3646	-0.011
Mof_C 	C 	0.1654	0.0223	0.74886	0.34
Mof_C 	C 	0.1525	0.0012	0.70663	-0.164
Mof_C 	C 	0.1748	0.8917	0.68748	0.153
Mof_H 	H 	0.1974	0.8281	0.7008	0.02
Mof_C 	C 	0.1643	0.8739	0.64913	-0.274
Mof_H 	H 	0.1789	0.7976	0.637	0.145
Mof_C 	C 	0.1322	0.9698	0.62889	0.293
Mof_C 	C 	0.1096	0.0802	0.64746	-0.272
Mof_H 	H 	0.0873	0.1443	0.634	0.139
Mof_C 	C 	0.1198	0.0958	0.68592	0.148
Mof_H 	H 	0.1045	0.171	0.6982	0.004
Mof_C 	C 	0.792	0.5224	0.35831	0.345
Mof_C 	C 	0.8445	0.564	0.38255	-0.207
Mof_C 	C 	0.8984	0.5378	0.37016	0.173
Mof_H 	H 	0.903	0.4908	0.3476	-0.013
Mof_C 	C 	0.9446	0.5824	0.39168	-0.323
Mof_H 	H 	0.9805	0.5657	0.3831	0.153
Mof_C 	C 	0.93986	0.6504	0.42515	0.317
Mof_C 	C 	0.8872	0.6727	0.4382	-0.33
Mof_H 	H 	0.8828	0.7163	0.4613	0.149
Mof_C 	C 	0.8406	0.6286	0.4162	0.183
Mof_H 	H 	0.8048	0.6444	0.425	-0.032
Mof_Cd	Cd	0.69055	0.45179	0.32492	0.462
Mof_O 	O 	0.64278	0.3219	0.36826	-0.298
Mof_O 	O 	0.69834	0.2014	0.33325	-0.255
Mof_O 	O 	0.62449	0.7456	0.45212	-0.294
Mof_O 	O 	0.6362	0.6048	0.76623	-0.266
Mof_O 	O 	0.70438	0.454	0.76451	-0.263
Mof_O 	O 	0.6181	0.463	0.59112	-0.292
Mof_O 	O 	0.24462	0.061	0.36988	-0.296
Mof_O 	O 	0.29606	0.9536	0.32943	-0.269
Mof_O 	O 	0.48921	0.1934	0.44336	-0.298
Mof_C 	C 	0.6206	0.5104	0.46961	-0.283
Mof_C 	C 	0.6457	0.4802	0.50576	0.347
Mof_C 	C 	0.6208	0.3831	0.52895	-0.284
Mof_C 	C 	0.5697	0.3183	0.51646	0.349
Mof_C 	C 	0.54285	0.3559	0.48227	-0.299
Mof_C 	C 	0.5682	0.4499	0.45837	0.39
Mof_C 	C 	0.6486	0.6109	0.44372	0.162
Mof_H 	H 	0.6892	0.6114	0.4487	-0.02
Mof_H 	H 	0.6406	0.5866	0.4174	-0.008
Mof_C 	C 	0.7005	0.557	0.51885	-0.834
Mof_H 	H 	0.7324	0.4967	0.5166	0.277
Mof_H 	H 	0.6982	0.5846	0.5448	0.287
Mof_H 	H 	0.7051	0.6371	0.5034	0.281
Mof_C 	C 	0.644	0.358	0.56865	0.179
Mof_H 	H 	0.634	0.2665	0.5772	-0.027
Mof_H 	H 	0.6849	0.367	0.5701	-0.023
Mof_C 	C 	0.544	0.2037	0.54111	-0.83
Mof_H 	H 	0.5165	0.1522	0.5261	0.283
Mof_H 	H 	0.5261	0.2452	0.5621	0.276
Mof_H 	H 	0.5734	0.1428	0.5504	0.284
Mof_C 	C 	0.48425	0.2997	0.47144	0.179
Mof_H 	H 	0.4672	0.2621	0.4936	-0.023
Mof_H 	H 	0.4602	0.3734	0.4614	-0.02
Mof_C 	C 	0.5408	0.4883	0.41995	-0.928
Mof_H 	H 	0.5016	0.4627	0.4191	0.322
Mof_H 	H 	0.5596	0.4404	0.4004	0.328
Mof_H 	H 	0.544	0.586	0.4161	0.311
Mof_C 	C 	0.6667	0.2104	0.36151	0.338
Mof_C 	C 	0.6585	0.0874	0.38583	-0.204
Mof_C 	C 	0.6184	0.0906	0.41293	0.164
Mof_H 	H 	0.5979	0.1708	0.4167	-0.009
Mof_C 	C 	0.609	0.9748	0.43428	-0.295
Mof_H 	H 	0.5817	0.9775	0.4523	0.139
Mof_C 	C 	0.6392	0.8555	0.42953	0.301
Mof_C 	C 	0.6797	0.8532	0.40331	-0.32
Mof_H 	H 	0.7008	0.7737	0.3999	0.157
Mof_C 	C 	0.6893	0.969	0.38203	0.181
Mof_H 	H 	0.7174	0.9668	0.3646	-0.011
Mof_C 	C 	0.6654	0.5223	0.74886	0.34
Mof_C 	C 	0.6525	0.5012	0.70663	-0.165
Mof_C 	C 	0.6748	0.3917	0.68748	0.154
Mof_H 	H 	0.6974	0.3281	0.7008	0.02
Mof_C 	C 	0.6643	0.3739	0.64913	-0.274
Mof_H 	H 	0.6789	0.2976	0.637	0.145
Mof_C 	C 	0.6322	0.4698	0.62889	0.294
Mof_C 	C 	0.6096	0.5802	0.64746	-0.273
Mof_H 	H 	0.5873	0.6443	0.634	0.139
Mof_C 	C 	0.6198	0.5958	0.68592	0.148
Mof_H 	H 	0.6045	0.671	0.6982	0.004
Mof_C 	C 	0.292	0.0224	0.35831	0.345
Mof_C 	C 	0.3445	0.064	0.38255	-0.207
Mof_C 	C 	0.3984	0.0378	0.37016	0.173
Mof_H 	H 	0.403	0.9908	0.3476	-0.013
Mof_C 	C 	0.4446	0.0824	0.39168	-0.323
Mof_H 	H 	0.4805	0.0657	0.3831	0.153
Mof_C 	C 	0.43986	0.1504	0.42515	0.318
Mof_C 	C 	0.3872	0.1727	0.4382	-0.33
Mof_H 	H 	0.3828	0.2163	0.4613	0.15
Mof_C 	C 	0.3406	0.1286	0.4162	0.184
Mof_H 	H 	0.3048	0.1444	0.425	-0.032
Mof_Cd	Cd	0.19055	0.04821	0.82492	0.461
Mof_O 	O 	0.14278	0.1781	0.86826	-0.298
Mof_O 	O 	0.19834	0.2986	0.83325	-0.255
Mof_O 	O 	0.12449	0.7544	0.95212	-0.293
Mof_O 	O 	0.1362	0.8952	0.26623	-0.266
Mof_O 	O 	0.20438	0.046	0.26451	-0.263
Mof_O 	O 	0.1181	0.037	0.09112	-0.291
Mof_O 	O 	0.74462	0.439	0.86988	-0.296
Mof_O 	O 	0.79606	0.5464	0.82943	-0.269
Mof_O 	O 	0.98921	0.3066	0.94336	-0.297
Mof_C 	C 	0.1206	0.9896	0.96961	-0.281
Mof_C 	C 	0.1457	0.0198	0.00576	0.344
Mof_C 	C 	0.1208	0.1169	0.02895	-0.282
Mof_C 	C 	0.0697	0.1817	0.01646	0.348
Mof_C 	C 	0.04285	0.1441	0.98227	-0.298
Mof_C 	C 	0.0682	0.0501	0.95837	0.389
Mof_C 	C 	0.1486	0.8891	0.94372	0.161
Mof_H 	H 	0.1892	0.8886	0.9487	-0.02
Mof_H 	H 	0.1406	0.9134	0.9174	-0.008
Mof_C 	C 	0.2005	0.943	0.01885	-0.827
Mof_H 	H 	0.2324	0.0033	0.0166	0.275
Mof_H 	H 	0.1982	0.9154	0.0448	0.285
Mof_H 	H 	0.2051	0.8629	0.0034	0.279
Mof_C 	C 	0.144	0.142	0.06865	0.178
Mof_H 	H 	0.134	0.2335	0.0772	-0.027
Mof_H 	H 	0.1849	0.133	0.0701	-0.022
Mof_C 	C 	0.044	0.2963	0.04111	-0.828
Mof_H 	H 	0.0165	0.3478	0.0261	0.283
Mof_H 	H 	0.0261	0.2548	0.0621	0.276
Mof_H 	H 	0.0734	0.3572	0.0504	0.283
Mof_C 	C 	0.98425	0.2003	0.97144	0.178
Mof_H 	H 	0.9672	0.2379	0.9936	-0.023
Mof_H 	H 	0.9602	0.1266	0.9614	-0.019
Mof_C 	C 	0.0408	0.0117	0.91995	-0.927
Mof_H 	H 	0.0016	0.0373	0.9191	0.322
Mof_H 	H 	0.0596	0.0596	0.9004	0.327
Mof_H 	H 	0.044	0.914	0.9161	0.31
Mof_C 	C 	0.1667	0.2896	0.86151	0.338
Mof_C 	C 	0.1585	0.4126	0.88583	-0.204
Mof_C 	C 	0.1184	0.4094	0.91293	0.165
Mof_H 	H 	0.0979	0.3292	0.9167	-0.009
Mof_C 	C 	0.109	0.5252	0.93428	-0.295
Mof_H 	H 	0.0817	0.5225	0.9523	0.139
Mof_C 	C 	0.1392	0.6445	0.92953	0.301
Mof_C 	C 	0.1797	0.6468	0.90331	-0.32
Mof_H 	H 	0.2008	0.7263	0.8999	0.157
Mof_C 	C 	0.1893	0.531	0.88203	0.18
Mof_H 	H 	0.2174	0.5332	0.8646	-0.011
Mof_C 	C 	0.1654	0.9777	0.24886	0.34
Mof_C 	C 	0.1525	0.9988	0.20663	-0.164
Mof_C 	C 	0.1748	0.1083	0.18748	0.153
Mof_H 	H 	0.1974	0.1719	0.2008	0.02
Mof_C 	C 	0.1643	0.1261	0.14913	-0.274
Mof_H 	H 	0.1789	0.2024	0.137	0.145
Mof_C 	C 	0.1322	0.0302	0.12889	0.293
Mof_C 	C 	0.1096	0.9198	0.14746	-0.272
Mof_H 	H 	0.0873	0.8557	0.134	0.139
Mof_C 	C 	0.1198	0.9042	0.18592	0.147
Mof_H 	H 	0.1045	0.829	0.1982	0.004
Mof_C 	C 	0.792	0.4776	0.85831	0.345
Mof_C 	C 	0.8445	0.436	0.88255	-0.207
Mof_C 	C 	0.8984	0.4622	0.87016	0.173
Mof_H 	H 	0.903	0.5092	0.8476	-0.013
Mof_C 	C 	0.9446	0.4176	0.89168	-0.323
Mof_H 	H 	0.9805	0.4343	0.8831	0.153
Mof_C 	C 	0.93986	0.3496	0.92515	0.317
Mof_C 	C 	0.8872	0.3273	0.9382	-0.33
Mof_H 	H 	0.8828	0.2837	0.9613	0.149
Mof_C 	C 	0.8406	0.3714	0.9162	0.183
Mof_H 	H 	0.8048	0.3556	0.925	-0.032
Mof_Cd	Cd	0.69055	0.54821	0.82492	0.462
Mof_O 	O 	0.64278	0.6781	0.86826	-0.298
Mof_O 	O 	0.69834	0.7986	0.83325	-0.255
Mof_O 	O 	0.62449	0.2544	0.95212	-0.294
Mof_O 	O 	0.6362	0.3952	0.26623	-0.266
Mof_O 	O 	0.70438	0.546	0.26451	-0.263
Mof_O 	O 	0.6181	0.537	0.09112	-0.292
Mof_O 	O 	0.24462	0.939	0.86988	-0.296
Mof_O 	O 	0.29606	0.0464	0.82943	-0.269
Mof_O 	O 	0.48921	0.8066	0.94336	-0.298
Mof_C 	C 	0.6206	0.4896	0.96961	-0.283
Mof_C 	C 	0.6457	0.5198	0.00576	0.348
Mof_C 	C 	0.6208	0.6169	0.02895	-0.284
Mof_C 	C 	0.5697	0.6817	0.01646	0.349
Mof_C 	C 	0.54285	0.6441	0.98227	-0.3
Mof_C 	C 	0.5682	0.5501	0.95837	0.391
Mof_C 	C 	0.6486	0.3891	0.94372	0.162
Mof_H 	H 	0.6892	0.3886	0.9487	-0.02
Mof_H 	H 	0.6406	0.4134	0.9174	-0.008
Mof_C 	C 	0.7005	0.443	0.01885	-0.834
Mof_H 	H 	0.7324	0.5033	0.0166	0.277
Mof_H 	H 	0.6982	0.4154	0.0448	0.287
Mof_H 	H 	0.7051	0.3629	0.0034	0.281
Mof_C 	C 	0.644	0.642	0.06865	0.18
Mof_H 	H 	0.634	0.7335	0.0772	-0.027
Mof_H 	H 	0.6849	0.633	0.0701	-0.023
Mof_C 	C 	0.544	0.7963	0.04111	-0.83
Mof_H 	H 	0.5165	0.8478	0.0261	0.283
Mof_H 	H 	0.5261	0.7548	0.0621	0.276
Mof_H 	H 	0.5734	0.8572	0.0504	0.284
Mof_C 	C 	0.48425	0.7003	0.97144	0.18
Mof_H 	H 	0.4672	0.7379	0.9936	-0.023
Mof_H 	H 	0.4602	0.6266	0.9614	-0.02
Mof_C 	C 	0.5408	0.5117	0.91995	-0.928
Mof_H 	H 	0.5016	0.5373	0.9191	0.322
Mof_H 	H 	0.5596	0.5596	0.9004	0.328
Mof_H 	H 	0.544	0.414	0.9161	0.311
Mof_C 	C 	0.6667	0.7896	0.86151	0.338
Mof_C 	C 	0.6585	0.9126	0.88583	-0.204
Mof_C 	C 	0.6184	0.9094	0.91293	0.164
Mof_H 	H 	0.5979	0.8292	0.9167	-0.009
Mof_C 	C 	0.609	0.0252	0.93428	-0.295
Mof_H 	H 	0.5817	0.0225	0.9523	0.139
Mof_C 	C 	0.6392	0.1445	0.92953	0.301
Mof_C 	C 	0.6797	0.1468	0.90331	-0.32
Mof_H 	H 	0.7008	0.2263	0.8999	0.157
Mof_C 	C 	0.6893	0.031	0.88203	0.181
Mof_H 	H 	0.7174	0.0332	0.8646	-0.011
Mof_C 	C 	0.6654	0.4777	0.24886	0.34
Mof_C 	C 	0.6525	0.4988	0.20663	-0.165
Mof_C 	C 	0.6748	0.6083	0.18748	0.154
Mof_H 	H 	0.6974	0.6719	0.2008	0.02
Mof_C 	C 	0.6643	0.6261	0.14913	-0.274
Mof_H 	H 	0.6789	0.7024	0.137	0.145
Mof_C 	C 	0.6322	0.5302	0.12889	0.294
Mof_C 	C 	0.6096	0.4198	0.14746	-0.273
Mof_H 	H 	0.5873	0.3557	0.134	0.139
Mof_C 	C 	0.6198	0.4042	0.18592	0.148
Mof_H 	H 	0.6045	0.329	0.1982	0.004
Mof_C 	C 	0.292	0.9776	0.85831	0.345
Mof_C 	C 	0.3445	0.936	0.88255	-0.207
Mof_C 	C 	0.3984	0.9622	0.87016	0.173
Mof_H 	H 	0.403	0.0092	0.8476	-0.013
Mof_C 	C 	0.4446	0.9176	0.89168	-0.323
Mof_H 	H 	0.4805	0.9343	0.8831	0.152
Mof_C 	C 	0.43986	0.8496	0.92515	0.317
Mof_C 	C 	0.3872	0.8273	0.9382	-0.33
Mof_H 	H 	0.3828	0.7837	0.9613	0.149
Mof_C 	C 	0.3406	0.8714	0.9162	0.183
Mof_H 	H 	0.3048	0.8556	0.925	-0.032
Mof_Cd	Cd	0.80945	0.95179	0.17508	0.461
Mof_O 	O 	0.85722	0.8219	0.13174	-0.298
Mof_O 	O 	0.80166	0.7014	0.16675	-0.255
Mof_O 	O 	0.87551	0.2456	0.04788	-0.293
Mof_O 	O 	0.8638	0.1048	0.73377	-0.266
Mof_O 	O 	0.79562	0.954	0.73549	-0.263
Mof_O 	O 	0.8819	0.963	0.90888	-0.291
Mof_O 	O 	0.25538	0.561	0.13012	-0.296
Mof_O 	O 	0.20394	0.4536	0.17057	-0.269
Mof_O 	O 	0.01079	0.6934	0.05664	-0.297
Mof_C 	C 	0.8794	0.0104	0.03039	-0.281
Mof_C 	C 	0.8543	0.9802	0.99424	0.344
Mof_C 	C 	0.8792	0.8831	0.97105	-0.282
Mof_C 	C 	0.9303	0.8183	0.98354	0.348
Mof_C 	C 	0.95715	0.8559	0.01773	-0.298
Mof_C 	C 	0.9318	0.9499	0.04163	0.389
Mof_C 	C 	0.8514	0.1109	0.05628	0.161
Mof_H 	H 	0.8108	0.1114	0.0513	-0.02
Mof_H 	H 	0.8594	0.0866	0.0826	-0.008
Mof_C 	C 	0.7995	0.057	0.98115	-0.827
Mof_H 	H 	0.7676	0.9967	0.9834	0.275
Mof_H 	H 	0.8018	0.0846	0.9552	0.285
Mof_H 	H 	0.7949	0.1371	0.9966	0.279
Mof_C 	C 	0.856	0.858	0.93135	0.178
Mof_H 	H 	0.866	0.7665	0.9228	-0.027
Mof_H 	H 	0.8151	0.867	0.9299	-0.022
Mof_C 	C 	0.956	0.7037	0.95889	-0.828
Mof_H 	H 	0.9835	0.6522	0.9739	0.283
Mof_H 	H 	0.9739	0.7452	0.9379	0.276
Mof_H 	H 	0.9266	0.6428	0.9496	0.283
Mof_C 	C 	0.01575	0.7997	0.02856	0.178
Mof_H 	H 	0.0328	0.7621	0.0064	-0.023
Mof_H 	H 	0.0398	0.8734	0.0386	-0.019
Mof_C 	C 	0.9592	0.9883	0.08005	-0.927
Mof_H 	H 	0.9984	0.9627	0.0809	0.322
Mof_H 	H 	0.9404	0.9404	0.0996	0.327
Mof_H 	H 	0.956	0.086	0.0839	0.31
Mof_C 	C 	0.8333	0.7104	0.13849	0.338
Mof_C 	C 	0.8415	0.5874	0.11417	-0.204
Mof_C 	C 	0.8816	0.5906	0.08707	0.165
Mof_H 	H 	0.9021	0.6708	0.0833	-0.009
Mof_C 	C 	0.891	0.4748	0.06572	-0.295
Mof_H 	H 	0.9183	0.4775	0.0477	0.139
Mof_C 	C 	0.8608	0.3555	0.07047	0.301
Mof_C 	C 	0.8203	0.3532	0.09669	-0.32
Mof_H 	H 	0.7992	0.2737	0.1001	0.157
Mof_C 	C 	0.8107	0.469	0.11797	0.18
Mof_H 	H 	0.7826	0.4668	0.1354	-0.011
Mof_C 	C 	0.8346	0.0223	0.75114	0.34
Mof_C 	C 	0.8475	0.0012	0.79337	-0.164
Mof_C 	C 	0.8252	0.8917	0.81252	0.153
Mof_H 	H 	0.8026	0.8281	0.7992	0.02
Mof_C 	C 	0.8357	0.8739	0.85087	-0.274
Mof_H 	H 	0.8211	0.7976	0.863	0.145
Mof_C 	C 	0.8678	0.9698	0.87111	0.293
Mof_C 	C 	0.8904	0.0802	0.85254	-0.272
Mof_H 	H 	0.9127	0.1443	0.866	0.139
Mof_C 	C 	0.8802	0.0958	0.81408	0.147
Mof_H 	H 	0.8955	0.171	0.8018	0.004
Mof_C 	C 	0.208	0.5224	0.14169	0.345
Mof_C 	C 	0.1555	0.564	0.11745	-0.207
Mof_C 	C 	0.1016	0.5378	0.12984	0.173
Mof_H 	H 	0.097	0.4908	0.1524	-0.013
Mof_C 	C 	0.0554	0.5824	0.10832	-0.323
Mof_H 	H 	0.0195	0.5657	0.1169	0.153
Mof_C 	C 	0.06014	0.6504	0.07485	0.317
Mof_C 	C 	0.1128	0.6727	0.0618	-0.33
Mof_H 	H 	0.1172	0.7163	0.0387	0.149
Mof_C 	C 	0.1594	0.6286	0.0838	0.183
Mof_H 	H 	0.1952	0.6444	0.075	-0.032
Mof_Cd	Cd	0.30945	0.45179	0.17508	0.462
Mof_O 	O 	0.35722	0.3219	0.13174	-0.298
Mof_O 	O 	0.30166	0.2014	0.16675	-0.255
Mof_O 	O 	0.37551	0.7456	0.04788	-0.294
Mof_O 	O 	0.3638	0.6048	0.73377	-0.266
Mof_O 	O 	0.29562	0.454	0.73549	-0.263
Mof_O 	O 	0.3819	0.463	0.90888	-0.292
Mof_O 	O 	0.75538	0.061	0.13012	-0.296
Mof_O 	O 	0.70394	0.9536	0.17057	-0.269
Mof_O 	O 	0.51079	0.1934	0.05664	-0.298
Mof_C 	C 	0.3794	0.5104	0.03039	-0.283
Mof_C 	C 	0.3543	0.4802	0.99424	0.348
Mof_C 	C 	0.3792	0.3831	0.97105	-0.284
Mof_C 	C 	0.4303	0.3183	0.98354	0.349
Mof_C 	C 	0.45715	0.3559	0.01773	-0.3
Mof_C 	C 	0.4318	0.4499	0.04163	0.391
Mof_C 	C 	0.3514	0.6109	0.05628	0.162
Mof_H 	H 	0.3108	0.6114	0.0513	-0.02
Mof_H 	H 	0.3594	0.5866	0.0826	-0.008
Mof_C 	C 	0.2995	0.557	0.98115	-0.834
Mof_H 	H 	0.2676	0.4967	0.9834	0.277
Mof_H 	H 	0.3018	0.5846	0.9552	0.287
Mof_H 	H 	0.2949	0.6371	0.9966	0.281
Mof_C 	C 	0.356	0.358	0.93135	0.18
Mof_H 	H 	0.366	0.2665	0.9228	-0.027
Mof_H 	H 	0.3151	0.367	0.9299	-0.023
Mof_C 	C 	0.456	0.2037	0.95889	-0.83
Mof_H 	H 	0.4835	0.1522	0.9739	0.283
Mof_H 	H 	0.4739	0.2452	0.9379	0.276
Mof_H 	H 	0.4266	0.1428	0.9496	0.284
Mof_C 	C 	0.51575	0.2997	0.02856	0.18
Mof_H 	H 	0.5328	0.2621	0.0064	-0.023
Mof_H 	H 	0.5398	0.3734	0.0386	-0.02
Mof_C 	C 	0.4592	0.4883	0.08005	-0.928
Mof_H 	H 	0.4984	0.4627	0.0809	0.322
Mof_H 	H 	0.4404	0.4404	0.0996	0.328
Mof_H 	H 	0.456	0.586	0.0839	0.311
Mof_C 	C 	0.3333	0.2104	0.13849	0.338
Mof_C 	C 	0.3415	0.0874	0.11417	-0.204
Mof_C 	C 	0.3816	0.0906	0.08707	0.164
Mof_H 	H 	0.4021	0.1708	0.0833	-0.009
Mof_C 	C 	0.391	0.9748	0.06572	-0.295
Mof_H 	H 	0.4183	0.9775	0.0477	0.139
Mof_C 	C 	0.3608	0.8555	0.07047	0.301
Mof_C 	C 	0.3203	0.8532	0.09669	-0.32
Mof_H 	H 	0.2992	0.7737	0.1001	0.157
Mof_C 	C 	0.3107	0.969	0.11797	0.181
Mof_H 	H 	0.2826	0.9668	0.1354	-0.011
Mof_C 	C 	0.3346	0.5223	0.75114	0.34
Mof_C 	C 	0.3475	0.5012	0.79337	-0.165
Mof_C 	C 	0.3252	0.3917	0.81252	0.154
Mof_H 	H 	0.3026	0.3281	0.7992	0.02
Mof_C 	C 	0.3357	0.3739	0.85087	-0.274
Mof_H 	H 	0.3211	0.2976	0.863	0.145
Mof_C 	C 	0.3678	0.4698	0.87111	0.294
Mof_C 	C 	0.3904	0.5802	0.85254	-0.273
Mof_H 	H 	0.4127	0.6443	0.866	0.139
Mof_C 	C 	0.3802	0.5958	0.81408	0.148
Mof_H 	H 	0.3955	0.671	0.8018	0.004
Mof_C 	C 	0.708	0.0224	0.14169	0.345
Mof_C 	C 	0.6555	0.064	0.11745	-0.207
Mof_C 	C 	0.6016	0.0378	0.12984	0.173
Mof_H 	H 	0.597	0.9908	0.1524	-0.013
Mof_C 	C 	0.5554	0.0824	0.10832	-0.323
Mof_H 	H 	0.5195	0.0657	0.1169	0.152
Mof_C 	C 	0.56014	0.1504	0.07485	0.317
Mof_C 	C 	0.6128	0.1727	0.0618	-0.33
Mof_H 	H 	0.6172	0.2163	0.0387	0.149
Mof_C 	C 	0.6594	0.1286	0.0838	0.183
Mof_H 	H 	0.6952	0.1444	0.075	-0.032
Mof_Cd	Cd	0.80945	0.04821	0.67508	0.461
Mof_O 	O 	0.85722	0.1781	0.63174	-0.298
Mof_O 	O 	0.80166	0.2986	0.66675	-0.255
Mof_O 	O 	0.87551	0.7544	0.54788	-0.294
Mof_O 	O 	0.8638	0.8952	0.23377	-0.266
Mof_O 	O 	0.79562	0.046	0.23549	-0.263
Mof_O 	O 	0.8819	0.037	0.40888	-0.291
Mof_O 	O 	0.25538	0.439	0.63012	-0.296
Mof_O 	O 	0.20394	0.5464	0.67057	-0.269
Mof_O 	O 	0.01079	0.3066	0.55664	-0.297
Mof_C 	C 	0.8794	0.9896	0.53039	-0.281
Mof_C 	C 	0.8543	0.0198	0.49424	0.345
Mof_C 	C 	0.8792	0.1169	0.47105	-0.283
Mof_C 	C 	0.9303	0.1817	0.48354	0.348
Mof_C 	C 	0.95715	0.1441	0.51773	-0.299
Mof_C 	C 	0.9318	0.0501	0.54163	0.389
Mof_C 	C 	0.8514	0.8891	0.55628	0.161
Mof_H 	H 	0.8108	0.8886	0.5513	-0.02
Mof_H 	H 	0.8594	0.9134	0.5826	-0.008
Mof_C 	C 	0.7995	0.943	0.48115	-0.829
Mof_H 	H 	0.7676	0.0033	0.4834	0.275
Mof_H 	H 	0.8018	0.9154	0.4552	0.285
Mof_H 	H 	0.7949	0.8629	0.4966	0.279
Mof_C 	C 	0.856	0.142	0.43135	0.179
Mof_H 	H 	0.866	0.2335	0.4228	-0.027
Mof_H 	H 	0.8151	0.133	0.4299	-0.023
Mof_C 	C 	0.956	0.2963	0.45889	-0.829
Mof_H 	H 	0.9835	0.3478	0.4739	0.283
Mof_H 	H 	0.9739	0.2548	0.4379	0.276
Mof_H 	H 	0.9266	0.3572	0.4496	0.283
Mof_C 	C 	0.01575	0.2003	0.52856	0.179
Mof_H 	H 	0.0328	0.2379	0.5064	-0.023
Mof_H 	H 	0.0398	0.1266	0.5386	-0.019
Mof_C 	C 	0.9592	0.0117	0.58005	-0.928
Mof_H 	H 	0.9984	0.0373	0.5809	0.322
Mof_H 	H 	0.9404	0.0596	0.5996	0.328
Mof_H 	H 	0.956	0.914	0.5839	0.311
Mof_C 	C 	0.8333	0.2896	0.63849	0.338
Mof_C 	C 	0.8415	0.4126	0.61417	-0.204
Mof_C 	C 	0.8816	0.4094	0.58707	0.165
Mof_H 	H 	0.9021	0.3292	0.5833	-0.009
Mof_C 	C 	0.891	0.5252	0.56572	-0.295
Mof_H 	H 	0.9183	0.5225	0.5477	0.139
Mof_C 	C 	0.8608	0.6445	0.57047	0.301
Mof_C 	C 	0.8203	0.6468	0.59669	-0.32
Mof_H 	H 	0.7992	0.7263	0.6001	0.157
Mof_C 	C 	0.8107	0.531	0.61797	0.18
Mof_H 	H 	0.7826	0.5332	0.6354	-0.011
Mof_C 	C 	0.8346	0.9777	0.25114	0.34
Mof_C 	C 	0.8475	0.9988	0.29337	-0.164
Mof_C 	C 	0.8252	0.1083	0.31252	0.153
Mof_H 	H 	0.8026	0.1719	0.2992	0.02
Mof_C 	C 	0.8357	0.1261	0.35087	-0.274
Mof_H 	H 	0.8211	0.2024	0.363	0.145
Mof_C 	C 	0.8678	0.0302	0.37111	0.293
Mof_C 	C 	0.8904	0.9198	0.35254	-0.272
Mof_H 	H 	0.9127	0.8557	0.366	0.139
Mof_C 	C 	0.8802	0.9042	0.31408	0.148
Mof_H 	H 	0.8955	0.829	0.3018	0.004
Mof_C 	C 	0.208	0.4776	0.64169	0.345
Mof_C 	C 	0.1555	0.436	0.61745	-0.207
Mof_C 	C 	0.1016	0.4622	0.62984	0.173
Mof_H 	H 	0.097	0.5092	0.6524	-0.013
Mof_C 	C 	0.0554	0.4176	0.60832	-0.323
Mof_H 	H 	0.0195	0.4343	0.6169	0.153
Mof_C 	C 	0.06014	0.3496	0.57485	0.317
Mof_C 	C 	0.1128	0.3273	0.5618	-0.33
Mof_H 	H 	0.1172	0.2837	0.5387	0.149
Mof_C 	C 	0.1594	0.3714	0.5838	0.183
Mof_H 	H 	0.1952	0.3556	0.575	-0.032
Mof_Cd	Cd	0.30945	0.54821	0.67508	0.462
Mof_O 	O 	0.35722	0.6781	0.63174	-0.298
Mof_O 	O 	0.30166	0.7986	0.66675	-0.255
Mof_O 	O 	0.37551	0.2544	0.54788	-0.294
Mof_O 	O 	0.3638	0.3952	0.23377	-0.266
Mof_O 	O 	0.29562	0.546	0.23549	-0.263
Mof_O 	O 	0.3819	0.537	0.40888	-0.292
Mof_O 	O 	0.75538	0.939	0.63012	-0.296
Mof_O 	O 	0.70394	0.0464	0.67057	-0.269
Mof_O 	O 	0.51079	0.8066	0.55664	-0.298
Mof_C 	C 	0.3794	0.4896	0.53039	-0.283
Mof_C 	C 	0.3543	0.5198	0.49424	0.347
Mof_C 	C 	0.3792	0.6169	0.47105	-0.284
Mof_C 	C 	0.4303	0.6817	0.48354	0.349
Mof_C 	C 	0.45715	0.6441	0.51773	-0.299
Mof_C 	C 	0.4318	0.5501	0.54163	0.39
Mof_C 	C 	0.3514	0.3891	0.55628	0.162
Mof_H 	H 	0.3108	0.3886	0.5513	-0.02
Mof_H 	H 	0.3594	0.4134	0.5826	-0.008
Mof_C 	C 	0.2995	0.443	0.48115	-0.834
Mof_H 	H 	0.2676	0.5033	0.4834	0.277
Mof_H 	H 	0.3018	0.4154	0.4552	0.287
Mof_H 	H 	0.2949	0.3629	0.4966	0.281
Mof_C 	C 	0.356	0.642	0.43135	0.179
Mof_H 	H 	0.366	0.7335	0.4228	-0.027
Mof_H 	H 	0.3151	0.633	0.4299	-0.023
Mof_C 	C 	0.456	0.7963	0.45889	-0.83
Mof_H 	H 	0.4835	0.8478	0.4739	0.283
Mof_H 	H 	0.4739	0.7548	0.4379	0.276
Mof_H 	H 	0.4266	0.8572	0.4496	0.284
Mof_C 	C 	0.51575	0.7003	0.52856	0.179
Mof_H 	H 	0.5328	0.7379	0.5064	-0.023
Mof_H 	H 	0.5398	0.6266	0.5386	-0.02
Mof_C 	C 	0.4592	0.5117	0.58005	-0.928
Mof_H 	H 	0.4984	0.5373	0.5809	0.322
Mof_H 	H 	0.4404	0.5596	0.5996	0.328
Mof_H 	H 	0.456	0.414	0.5839	0.311
Mof_C 	C 	0.3333	0.7896	0.63849	0.338
Mof_C 	C 	0.3415	0.9126	0.61417	-0.204
Mof_C 	C 	0.3816	0.9094	0.58707	0.164
Mof_H 	H 	0.4021	0.8292	0.5833	-0.009
Mof_C 	C 	0.391	0.0252	0.56572	-0.295
Mof_H 	H 	0.4183	0.0225	0.5477	0.139
Mof_C 	C 	0.3608	0.1445	0.57047	0.301
Mof_C 	C 	0.3203	0.1468	0.59669	-0.32
Mof_H 	H 	0.2992	0.2263	0.6001	0.157
Mof_C 	C 	0.3107	0.031	0.61797	0.181
Mof_H 	H 	0.2826	0.0332	0.6354	-0.011
Mof_C 	C 	0.3346	0.4777	0.25114	0.34
Mof_C 	C 	0.3475	0.4988	0.29337	-0.165
Mof_C 	C 	0.3252	0.6083	0.31252	0.154
Mof_H 	H 	0.3026	0.6719	0.2992	0.02
Mof_C 	C 	0.3357	0.6261	0.35087	-0.274
Mof_H 	H 	0.3211	0.7024	0.363	0.145
Mof_C 	C 	0.3678	0.5302	0.37111	0.294
Mof_C 	C 	0.3904	0.4198	0.35254	-0.273
Mof_H 	H 	0.4127	0.3557	0.366	0.139
Mof_C 	C 	0.3802	0.4042	0.31408	0.148
Mof_H 	H 	0.3955	0.329	0.3018	0.004
Mof_C 	C 	0.708	0.9776	0.64169	0.345
Mof_C 	C 	0.6555	0.936	0.61745	-0.207
Mof_C 	C 	0.6016	0.9622	0.62984	0.173
Mof_H 	H 	0.597	0.0092	0.6524	-0.013
Mof_C 	C 	0.5554	0.9176	0.60832	-0.323
Mof_H 	H 	0.5195	0.9343	0.6169	0.153
Mof_C 	C 	0.56014	0.8496	0.57485	0.318
Mof_C 	C 	0.6128	0.8273	0.5618	-0.33
Mof_H 	H 	0.6172	0.7837	0.5387	0.15
Mof_C 	C 	0.6594	0.8714	0.5838	0.184
Mof_H 	H 	0.6952	0.8556	0.575	-0.032
_end
