data_functionalizedCrystal
_audit_creation_method	'EQeq! by Chris Wilmer'
_symmetry_space_group_name_H-M	'P1'
_symmetry_Int_Tables_number	1
_symmetry_cell_setting	triclinic
loop_
_symmetry_equiv_pos_as_xyz
  x,y,z
_cell_length_a	12.3981
_cell_length_b	20.7868
_cell_length_c	20.7868
_cell_angle_alpha	63.8508
_cell_angle_beta	78.5325
_cell_angle_gamma	101.468
loop_
_atom_site_label
_atom_site_type_symbol
_atom_site_fract_x
_atom_site_fract_y
_atom_site_fract_z
_atom_site_charge
Mof_Al	Al	0.94016	0.39426	0.33749	4.481
Mof_Al	Al	0.27765	0.33749	0.26825	4.488
Mof_Al	Al	0.4541	0.73175	0.60574	4.487
Mof_Al	Al	0.5459	0.26825	0.39426	4.487
Mof_Al	Al	0.72235	0.66251	0.73175	4.487
Mof_Al	Al	0.05984	0.60574	0.66251	4.48
Mof_P 	P 	0.8631	0.66314	0.58326	0.845
Mof_P 	P 	0.17225	0.47439	0.19416	0.909
Mof_P 	P 	0.99808	0.48214	0.60741	0.683
Mof_P 	P 	0.36641	0.19416	0.33145	0.909
Mof_P 	P 	0.00192	0.51786	0.39259	0.683
Mof_P 	P 	0.48406	0.08955	0.51786	0.683
Mof_P 	P 	0.82775	0.52561	0.80584	0.909
Mof_P 	P 	0.39451	0.39259	0.08955	0.683
Mof_P 	P 	0.30214	0.66855	0.52561	0.909
Mof_P 	P 	0.51594	0.91045	0.48214	0.683
Mof_P 	P 	0.19996	0.7536	0.66314	0.846
Mof_P 	P 	0.55364	0.41674	0.2464	0.846
Mof_P 	P 	0.60549	0.60741	0.91045	0.683
Mof_P 	P 	0.1369	0.33686	0.41674	0.845
Mof_P 	P 	0.44636	0.58326	0.7536	0.846
Mof_P 	P 	0.69786	0.33145	0.47439	0.909
Mof_P 	P 	0.80004	0.2464	0.33686	0.846
Mof_P 	P 	0.63359	0.80584	0.66855	0.909
Mof_H 	H 	0.896	0.2164	0.4815	0.175
Mof_H 	H 	0.229	0.5771	0.2117	0.108
Mof_H 	H 	0.4285	0.6818	0.9531	0.199
Mof_H 	H 	0.8827	0.3666	0.7106	0.1
Mof_H 	H 	0.3204	0.6979	0.7836	0.175
Mof_H 	H 	0.618	0.2654	0.6055	0.115
Mof_H 	H 	0.8368	0.5684	0.5778	0.318
Mof_H 	H 	0.8174	0.031	0.3128	0.191
Mof_H 	H 	0.4281	0.4834	0.73	0.108
Mof_H 	H 	0.2249	0.4695	0.1002	0.324
Mof_H 	H 	0.6371	0.9891	0.7082	0.19
Mof_H 	H 	0.104	0.7836	0.5185	0.175
Mof_H 	H 	0.7629	0.5784	0.1035	0.199
Mof_H 	H 	0.7774	0.0296	0.39	0.224
Mof_H 	H 	0.1845	0.3181	0.5784	0.2
Mof_H 	H 	0.1826	0.969	0.6872	0.191
Mof_H 	H 	0.3816	0.9531	0.3651	0.2
Mof_H 	H 	0.4131	0.7183	0.819	0.161
Mof_H 	H 	0.6519	0.2112	0.5771	0.107
Mof_H 	H 	0.3453	0.7082	0.3027	0.191
Mof_H 	H 	0.2522	0.4196	0.9704	0.224
Mof_H 	H 	0.2836	0.7117	0.852	0.153
Mof_H 	H 	0.2684	0.8538	0.5684	0.318
Mof_H 	H 	0.6438	0.9404	0.3686	0.106
Mof_H 	H 	0.1336	0.8965	0.6819	0.199
Mof_H 	H 	0.9876	0.6314	0.309	0.105
Mof_H 	H 	0.5949	0.9913	0.4993	0.324
Mof_H 	H 	0.6896	0.3674	0.6202	0.213
Mof_H 	H 	0.382	0.7346	0.3945	0.115
Mof_H 	H 	0.3964	0.4906	0.0087	0.324
Mof_H 	H 	0.5933	0.7106	0.9228	0.1
Mof_H 	H 	0.8505	0.7401	0.4657	0.098
Mof_H 	H 	0.6225	0.5185	0.6979	0.175
Mof_H 	H 	0.0942	0.4993	0.5094	0.324
Mof_H 	H 	0.9447	0.7866	0.4834	0.108
Mof_H 	H 	0.3251	0.1002	0.4303	0.324
Mof_H 	H 	0.352	0.6973	0.0109	0.19
Mof_H 	H 	0.4067	0.2894	0.0772	0.1
Mof_H 	H 	0.8419	0.27	0.2134	0.107
Mof_H 	H 	0.2533	0.6349	0.3182	0.201
Mof_H 	H 	0.2321	0.819	0.4627	0.161
Mof_H 	H 	0.0553	0.2134	0.5166	0.108
Mof_H 	H 	0.0124	0.3686	0.691	0.105
Mof_H 	H 	0.6778	0.9876	0.6326	0.213
Mof_H 	H 	0.3629	0.0109	0.2918	0.19
Mof_H 	H 	0.4839	0.0772	0.6334	0.1
Mof_H 	H 	0.5161	0.9228	0.3666	0.1
Mof_H 	H 	0.7467	0.3651	0.6818	0.201
Mof_H 	H 	0.2371	0.4216	0.8965	0.199
Mof_H 	H 	0.2966	0.309	0.0596	0.107
Mof_H 	H 	0.1356	0.852	0.4363	0.154
Mof_H 	H 	0.2226	0.9704	0.61	0.224
Mof_H 	H 	0.3052	0.5373	0.2817	0.161
Mof_H 	H 	0.8326	0.61	0.4196	0.226
Mof_H 	H 	0.3162	0.4657	0.7942	0.099
Mof_H 	H 	0.4407	0.2117	0.2112	0.107
Mof_H 	H 	0.6796	0.3021	0.2164	0.175
Mof_H 	H 	0.6184	0.0469	0.6349	0.2
Mof_H 	H 	0.5593	0.7883	0.7888	0.107
Mof_H 	H 	0.8698	0.6872	0.3438	0.193
Mof_H 	H 	0.4281	0.5637	0.2883	0.154
Mof_H 	H 	0.8664	0.1035	0.3181	0.199
Mof_H 	H 	0.8896	0.2058	0.2599	0.098
Mof_H 	H 	0.1495	0.2599	0.5343	0.098
Mof_H 	H 	0.1581	0.73	0.7866	0.107
Mof_H 	H 	0.8155	0.6819	0.4216	0.2
Mof_H 	H 	0.8644	0.148	0.5637	0.154
Mof_H 	H 	0.2446	0.5697	0.5305	0.324
Mof_H 	H 	0.5715	0.3182	0.0469	0.199
Mof_H 	H 	0.3104	0.6326	0.3798	0.213
Mof_H 	H 	0.9058	0.5007	0.4906	0.324
Mof_H 	H 	0.4146	0.5778	0.8538	0.318
Mof_H 	H 	0.6547	0.2918	0.6973	0.191
Mof_H 	H 	0.2235	0.6055	0.1291	0.116
Mof_H 	H 	0.7316	0.1462	0.4316	0.318
Mof_H 	H 	0.7034	0.691	0.9404	0.107
Mof_H 	H 	0.6902	0.3798	0.9876	0.213
Mof_H 	H 	0.3775	0.4815	0.3021	0.175
Mof_H 	H 	0.3481	0.7888	0.4229	0.107
Mof_H 	H 	0.6948	0.4627	0.7183	0.161
Mof_H 	H 	0.5869	0.2817	0.181	0.161
Mof_H 	H 	0.5854	0.4222	0.1462	0.318
Mof_H 	H 	0.7478	0.5804	0.0296	0.224
Mof_H 	H 	0.771	0.4229	0.7883	0.108
Mof_H 	H 	0.2136	0.3438	0.969	0.191
Mof_H 	H 	0.7554	0.4303	0.4695	0.324
Mof_H 	H 	0.7751	0.5305	0.8998	0.324
Mof_H 	H 	0.5719	0.5166	0.27	0.108
Mof_H 	H 	0.648	0.3027	0.9891	0.19
Mof_H 	H 	0.7679	0.181	0.5373	0.161
Mof_H 	H 	0.1173	0.6334	0.2894	0.1
Mof_H 	H 	0.3562	0.0596	0.6314	0.106
Mof_H 	H 	0.1104	0.7942	0.7401	0.098
Mof_H 	H 	0.7864	0.6562	0.031	0.191
Mof_H 	H 	0.3222	0.0124	0.3674	0.213
Mof_H 	H 	0.5719	0.4363	0.7117	0.154
Mof_H 	H 	0.7164	0.2883	0.148	0.153
Mof_H 	H 	0.6474	0.8709	0.7346	0.116
Mof_H 	H 	0.3098	0.6202	0.0124	0.213
Mof_H 	H 	0.4051	0.0087	0.5007	0.324
Mof_H 	H 	0.6838	0.5343	0.2058	0.099
Mof_H 	H 	0.1302	0.3128	0.6562	0.193
Mof_H 	H 	0.6036	0.5094	0.9913	0.324
Mof_H 	H 	0.3526	0.1291	0.2654	0.116
Mof_H 	H 	0.6749	0.8998	0.5697	0.324
Mof_H 	H 	0.1632	0.4316	0.4222	0.318
Mof_H 	H 	0.1674	0.39	0.5804	0.226
Mof_H 	H 	0.7765	0.3945	0.8709	0.116
Mof_C 	C 	0.58381	0.83215	0.73842	-0.345
Mof_C 	C 	0.42925	0.05061	0.61866	-0.306
Mof_C 	C 	0.28411	0.83554	0.72621	-0.039
Mof_C 	C 	0.0741	0.66457	0.36947	-0.057
Mof_C 	C 	0.34482	0.72691	0.80655	-0.484
Mof_C 	C 	0.32223	0.73842	0.42943	-0.345
Mof_C 	C 	0.79057	0.27338	0.58867	-0.032
Mof_C 	C 	0.9259	0.33543	0.63053	-0.057
Mof_C 	C 	0.38054	0.00389	0.33687	-0.606
Mof_C 	C 	0.55143	0.56175	0.16446	-0.038
Mof_C 	C 	0.73906	0.60378	0.0603	-0.613
Mof_C 	C 	0.26094	0.39622	0.9397	-0.613
Mof_C 	C 	0.28259	0.66313	0.34076	-0.608
Mof_C 	C 	0.43802	0.56184	0.18978	0.108
Mof_C 	C 	0.57075	0.94939	0.38134	-0.306
Mof_C 	C 	0.37864	0.33073	0.05061	-0.306
Mof_C 	C 	0.75166	0.42943	0.83215	-0.345
Mof_C 	C 	0.37924	0.58867	0.13795	-0.031
Mof_C 	C 	0.98968	0.27379	0.56175	-0.041
Mof_C 	C 	0.20943	0.72662	0.41133	-0.032
Mof_C 	C 	0.9146	0.73845	0.48595	-0.337
Mof_C 	C 	0.84863	0.19345	0.53346	-0.486
Mof_C 	C 	0.56198	0.43816	0.81022	0.108
Mof_C 	C 	0.38209	0.53346	0.27309	-0.485
Mof_C 	C 	0.65518	0.27309	0.19345	-0.484
Mof_C 	C 	0.17615	0.7756	0.73845	-0.338
Mof_C 	C 	0.48281	0.86205	0.72662	-0.031
Mof_C 	C 	0.61946	0.99611	0.66313	-0.606
Mof_C 	C 	0.56105	0.37499	0.94034	0.126
Mof_C 	C 	0.41619	0.16785	0.26158	-0.345
Mof_C 	C 	0.71741	0.33687	0.65924	-0.608
Mof_C 	C 	0.82385	0.2244	0.26155	-0.338
Mof_C 	C 	0.51719	0.13795	0.27338	-0.031
Mof_C 	C 	0.62136	0.66927	0.94939	-0.306
Mof_C 	C 	0.9854	0.68468	0.40218	0.134
Mof_C 	C 	0.30072	0.91314	0.68468	0.131
Mof_C 	C 	0.50139	0.94034	0.68467	0.127
Mof_C 	C 	0.49861	0.05966	0.31533	0.127
Mof_C 	C 	0.59047	0.03404	0.33543	-0.056
Mof_C 	C 	0.55643	0.63053	0.03404	-0.056
Mof_C 	C 	0.0146	0.31532	0.59782	0.134
Mof_C 	C 	0.69928	0.08686	0.31532	0.131
Mof_C 	C 	0.87618	0.24838	0.56184	0.109
Mof_C 	C 	0.40953	0.96596	0.66457	-0.056
Mof_C 	C 	0.71589	0.16446	0.27379	-0.039
Mof_C 	C 	0.43895	0.62501	0.05966	0.126
Mof_C 	C 	0.04791	0.61866	0.33073	-0.304
Mof_C 	C 	0.13528	0.33592	0.60378	-0.618
Mof_C 	C 	0.24834	0.57057	0.16785	-0.345
Mof_C 	C 	0.61242	0.59782	0.08686	0.131
Mof_C 	C 	0.37665	0.65924	0.00389	-0.605
Mof_C 	C 	0.79936	0.0603	0.33592	-0.614
Mof_C 	C 	0.67777	0.26158	0.57057	-0.345
Mof_C 	C 	0.81394	0.31533	0.62501	0.128
Mof_C 	C 	0.59945	0.51405	0.2244	-0.338
Mof_C 	C 	0.95209	0.38134	0.66927	-0.304
Mof_C 	C 	0.3722	0.81022	0.75162	0.108
Mof_C 	C 	0.38758	0.40218	0.91314	0.131
Mof_C 	C 	0.86472	0.66408	0.39622	-0.618
Mof_C 	C 	0.44357	0.36947	0.96596	-0.056
Mof_C 	C 	0.61791	0.46654	0.72691	-0.485
Mof_C 	C 	0.0854	0.26155	0.51405	-0.337
Mof_C 	C 	0.62076	0.41133	0.86205	-0.031
Mof_C 	C 	0.62335	0.34076	0.99611	-0.605
Mof_C 	C 	0.12382	0.75162	0.43816	0.109
Mof_C 	C 	0.01032	0.72621	0.43825	-0.041
Mof_C 	C 	0.20064	0.9397	0.66408	-0.614
Mof_C 	C 	0.15137	0.80655	0.46654	-0.486
Mof_C 	C 	0.6278	0.18978	0.24838	0.108
Mof_C 	C 	0.44857	0.43825	0.83554	-0.038
Mof_C 	C 	0.40055	0.48595	0.7756	-0.338
Mof_C 	C 	0.18606	0.68467	0.37499	0.128
Mof_O 	O 	0.57453	0.6131	0.73871	-1.142
Mof_O 	O 	0.49704	0.1716	0.48048	-1.097
Mof_O 	O 	0.37479	0.58017	0.8262	-0.573
Mof_O 	O 	0.22369	0.31811	0.37144	-1.064
Mof_O 	O 	0.02248	0.51952	0.65208	-1.097
Mof_O 	O 	0.16617	0.47557	0.11956	-0.577
Mof_O 	O 	0.23872	0.4249	0.23134	-1.198
Mof_O 	O 	0.65495	0.54387	0.95272	-0.574
Mof_O 	O 	0.31324	0.73871	0.64819	-1.142
Mof_O 	O 	0.77631	0.68189	0.62856	-1.064
Mof_O 	O 	0.04832	0.45134	0.24128	-1.178
Mof_O 	O 	0.79462	0.59363	0.58017	-0.573
Mof_O 	O 	0.2896	0.24128	0.30738	-1.18
Mof_O 	O 	0.76128	0.5751	0.76866	-1.198
Mof_O 	O 	0.18618	0.65624	0.5751	-1.197
Mof_O 	O 	0.47558	0.57223	0.92579	-0.375
Mof_O 	O 	0.62521	0.41983	0.1738	-0.573
Mof_O 	O 	0.6906	0.40487	0.47557	-0.578
Mof_O 	O 	0.68676	0.26129	0.35181	-1.142
Mof_O 	O 	0.34505	0.45613	0.04728	-0.574
Mof_O 	O 	0.03857	0.35181	0.3869	-1.14
Mof_O 	O 	0.96143	0.64819	0.6131	-1.14
Mof_O 	O 	0.88892	0.49659	0.45613	-0.575
Mof_O 	O 	0.3094	0.59513	0.52443	-0.578
Mof_O 	O 	0.60767	0.95272	0.50341	-0.574
Mof_O 	O 	0.09665	0.49802	0.42777	-0.374
Mof_O 	O 	0.39233	0.04728	0.49659	-0.574
Mof_O 	O 	0.20099	0.8262	0.59363	-0.573
Mof_O 	O 	0.52442	0.42777	0.07421	-0.375
Mof_O 	O 	0.47006	0.23134	0.34376	-1.198
Mof_O 	O 	0.71427	0.88044	0.59513	-0.577
Mof_O 	O 	0.59698	0.30738	0.45134	-1.18
Mof_O 	O 	0.50296	0.8284	0.51952	-1.097
Mof_O 	O 	0.32544	0.34792	0.1716	-1.097
Mof_O 	O 	0.95168	0.54866	0.75872	-1.178
Mof_O 	O 	0.59513	0.37144	0.31045	-1.064
Mof_O 	O 	0.11108	0.50341	0.54387	-0.575
Mof_O 	O 	0.59863	0.07421	0.49802	-0.374
Mof_O 	O 	0.40137	0.92579	0.50198	-0.374
Mof_O 	O 	0.52994	0.76866	0.65624	-1.198
Mof_O 	O 	0.67456	0.65208	0.8284	-1.097
Mof_O 	O 	0.09442	0.68955	0.68189	-1.064
Mof_O 	O 	0.40487	0.62856	0.68955	-1.064
Mof_O 	O 	0.28573	0.11956	0.40487	-0.577
Mof_O 	O 	0.40302	0.69262	0.54866	-1.18
Mof_O 	O 	0.83383	0.52443	0.88044	-0.577
Mof_O 	O 	0.90335	0.50198	0.57223	-0.374
Mof_O 	O 	0.7104	0.75872	0.69262	-1.18
Mof_O 	O 	0.81382	0.34376	0.4249	-1.197
Mof_O 	O 	0.42547	0.3869	0.26129	-1.142
Mof_O 	O 	0.97752	0.48048	0.34792	-1.097
Mof_O 	O 	0.20538	0.40637	0.41983	-0.573
Mof_O 	O 	0.79901	0.1738	0.40637	-0.573
Mof_O 	O 	0.90558	0.31045	0.31811	-1.064
_end
