data_functionalizedCrystal
_audit_creation_method	'EQeq! by Chris Wilmer'
_symmetry_space_group_name_H-M	'P1'
_symmetry_Int_Tables_number	1
_symmetry_cell_setting	triclinic
loop_
_symmetry_equiv_pos_as_xyz
  x,y,z
_cell_length_a	7.9273
_cell_length_b	10.556
_cell_length_c	13.155
_cell_angle_alpha	107.26
_cell_angle_beta	107.06
_cell_angle_gamma	90.65
loop_
_atom_site_label
_atom_site_type_symbol
_atom_site_fract_x
_atom_site_fract_y
_atom_site_fract_z
_atom_site_charge
Mof_Zn	Zn	0.27383	0.95463	0.70183	1.216
Mof_Zn	Zn	0.61427	0.12923	0.82206	1.209
Mof_H 	H 	0.5502	0.1586	0.1406	-0.001
Mof_H 	H 	0.566	0.1518	0.3226	0.123
Mof_H 	H 	0.2381	0.8415	0.1761	0.147
Mof_H 	H 	0.2196	0.8494	0.0058	-0.028
Mof_H 	H 	0.3067	0.9328	0.3819	0.107
Mof_H 	H 	0.5797	0.1404	0.4609	0.076
Mof_H 	H 	0.2403	0.4521	0.8028	0.099
Mof_H 	H 	0.9181	0.2859	0.7288	0.07
Mof_H 	H 	0.1252	0.6273	0.8115	0.085
Mof_H 	H 	0.9506	0.8076	0.8183	0.029
Mof_H 	H 	0.507	0.5756	0.6902	0.013
Mof_H 	H 	0.6649	0.3962	0.6972	0.1
Mof_H 	H 	0.7128	0.3953	0.9963	0.002
Mof_H 	H 	0.9643	0.53	0.1247	0.089
Mof_H 	H 	0.2684	0.2464	0.0262	0.089
Mof_H 	H 	0.017	0.1116	0.8979	0.014
Mof_H 	H 	0.6206	0.8214	0.5073	0.091
Mof_H 	H 	0.8723	0.9449	0.6451	0.021
Mof_H 	H 	0.1789	0.7014	0.4993	0.012
Mof_H 	H 	0.9272	0.578	0.3615	0.088
Mof_C 	C 	0.393	0.017	0.9436	0.392
Mof_C 	C 	0.391	0.006	0.0468	-0.269
Mof_C 	C 	0.482	0.088	0.1433	0.168
Mof_C 	C 	0.492	0.087	0.2602	-0.253
Mof_C 	C 	0.392	0.989	0.2745	0.269
Mof_C 	C 	0.307	0.9132	0.1762	-0.302
Mof_C 	C 	0.296	0.9149	0.0667	0.228
Mof_C 	C 	0.388	0.991	0.375	-0.144
Mof_C 	C 	0.502	0.079	0.4673	-0.116
Mof_C 	C 	0.501	0.076	0.5895	0.371
Mof_C 	C 	0.279	0.2494	0.7795	0.371
Mof_C 	C 	0.175	0.3692	0.78	-0.151
Mof_C 	C 	0.988	0.366	0.7489	-0.06
Mof_C 	C 	0.909	0.485	0.7486	0.103
Mof_C 	C 	0.002	0.6132	0.787	-0.131
Mof_C 	C 	0.891	0.722	0.785	0.072
Mof_C 	C 	0.715	0.7141	0.7413	-0.17
Mof_C 	C 	0.62	0.832	0.7472	0.418
Mof_C 	C 	0.6303	0.5884	0.7127	0.098
Mof_C 	C 	0.728	0.4792	0.7172	-0.166
Mof_C 	C 	0.8242	0.3654	0.0023	0.083
Mof_C 	C 	0.9748	0.4461	0.0792	-0.136
Mof_C 	C 	0.1413	0.4015	0.0882	0.074
Mof_C 	C 	0.1571	0.2762	0.0202	-0.112
Mof_C 	C 	0.0064	0.1955	0.9434	0.063
Mof_C 	C 	0.3048	0.4827	0.1716	0.077
Mof_C 	C 	0.6111	0.6316	0.3307	0.078
Mof_C 	C 	0.749	0.6874	0.4207	0.06
Mof_C 	C 	0.7325	0.7974	0.5057	-0.11
Mof_C 	C 	0.8833	0.8713	0.5883	0.052
Mof_C 	C 	0.067	0.7255	0.5009	0.071
Mof_C 	C 	0.9162	0.6515	0.4183	-0.126
Mof_N 	N 	0.84	0.2401	0.9344	-0.25
Mof_N 	N 	0.4673	0.4312	0.1815	-0.081
Mof_N 	N 	0.6205	0.5056	0.2611	-0.083
Mof_N 	N 	0.4486	0.6831	0.3207	-0.083
Mof_N 	N 	0.2954	0.6087	0.2411	-0.085
Mof_N 	N 	0.0506	0.8354	0.5859	-0.23
Mof_O 	O 	0.524	0.0812	0.9401	-0.472
Mof_O 	O 	0.26	0.9501	0.8526	-0.419
Mof_O 	O 	0.619	0.1376	0.6677	-0.475
Mof_O 	O 	0.373	0.994	0.5841	-0.441
Mof_O 	O 	0.442	0.2734	0.8185	-0.462
Mof_O 	O 	0.1772	0.1356	0.736	-0.452
Mof_O 	O 	0.701	0.9461	0.7933	-0.462
Mof_O 	O 	0.4498	0.8176	0.7047	-0.458
_end
