data_functionalizedCrystal
_audit_creation_method	'EQeq! by Chris Wilmer'
_symmetry_space_group_name_H-M	'P1'
_symmetry_Int_Tables_number	1
_symmetry_cell_setting	triclinic
loop_
_symmetry_equiv_pos_as_xyz
  x,y,z
_cell_length_a	45.3067
_cell_length_b	45.3067
_cell_length_c	45.3067
_cell_angle_alpha	60
_cell_angle_beta	60
_cell_angle_gamma	60
loop_
_atom_site_label
_atom_site_type_symbol
_atom_site_fract_x
_atom_site_fract_y
_atom_site_fract_z
_atom_site_charge
Mof_C 	C 	0.06058	0.29344	0.6863	0.059
Mof_H 	H 	0.0397	0.3143	0.6877	-0.001
Mof_C 	C 	0.0926	0.29806	0.66044	-0.098
Mof_H 	H 	0.0936	0.3216	0.6446	0.064
Mof_C 	C 	0.12404	0.26774	0.65752	0.002
Mof_H 	H 	0.1465	0.2701	0.6395	0.038
Mof_C 	C 	0.12086	0.2341	0.68226	-0.045
Mof_C 	C 	0.08719	0.23221	0.70773	0.033
Mof_H 	H 	0.0854	0.2092	0.7246	0.013
Mof_C 	C 	0.22878	0.96166	0.83598	0.091
Mof_C 	C 	0.20598	0.07476	0.73466	0.031
Mof_H 	H 	0.2252	0.0752	0.7124	0.015
Mof_C 	C 	0.17795	0.10685	0.73785	-0.046
Mof_C 	C 	0.14931	0.10615	0.77093	0.004
Mof_H 	H 	0.1294	0.1276	0.7738	0.037
Mof_C 	C 	0.15085	0.07371	0.79901	-0.098
Mof_H 	H 	0.1323	0.0723	0.8219	0.063
Mof_C 	C 	0.18006	0.04286	0.79336	0.058
Mof_H 	H 	0.1807	0.0207	0.8129	-0.003
Mof_C 	C 	0.17751	0.14029	0.70609	0.131
Mof_C 	C 	0.20265	0.16815	0.64671	0.131
Mof_C 	C 	0.1513	0.2	0.68024	0.13
Mof_C 	C 	0.23056	0.1662	0.61142	-0.049
Mof_C 	C 	0.25958	0.13442	0.60752	0.004
Mof_H 	H 	0.2623	0.1131	0.6279	0.038
Mof_C 	C 	0.28417	0.13469	0.57351	-0.094
Mof_H 	H 	0.3042	0.1136	0.57	0.063
Mof_C 	C 	0.27927	0.16669	0.54395	0.052
Mof_H 	H 	0.2964	0.1666	0.5206	0.003
Mof_C 	C 	0.22792	0.1966	0.58036	0.038
Mof_H 	H 	0.2082	0.218	0.583	0.012
Mof_C 	C 	0.20374	0.29754	0.55284	0.104
Mof_C 	C 	0.29618	0.23834	0.53848	0.051
Mof_H 	H 	0.274	0.2402	0.558	0.003
Mof_C 	C 	0.32631	0.23073	0.54423	-0.093
Mof_H 	H 	0.325	0.2274	0.5672	0.064
Mof_C 	C 	0.35948	0.2279	0.51574	-0.001
Mof_H 	H 	0.381	0.2224	0.519	0.04
Mof_C 	C 	0.3597	0.23356	0.4824	-0.045
Mof_C 	C 	0.32788	0.24094	0.4788	0.032
Mof_H 	H 	0.3285	0.2443	0.4561	0.014
Mof_C 	C 	0.39349	0.23249	0.45083	0.129
Mof_N 	N 	0.24443	0.96985	0.80469	-0.258
Mof_N 	N 	0.05716	0.26114	0.7096	-0.224
Mof_N 	N 	0.207	0.0429	0.76206	-0.225
Mof_N 	N 	0.15022	0.17072	0.71004	-0.15
Mof_N 	N 	0.1773	0.20038	0.64774	-0.15
Mof_N 	N 	0.20462	0.13724	0.67498	-0.15
Mof_N 	N 	0.25152	0.19724	0.54732	-0.227
Mof_N 	N 	0.21814	0.27938	0.5355	-0.264
Mof_N 	N 	0.29595	0.24355	0.50623	-0.225
Mof_N 	N 	0.42129	0.23233	0.45357	-0.151
Mof_S 	S 	0.20506	0.951	0.87861	-0.06
Mof_S 	S 	0.18323	0.32331	0.57723	-0.062
Mof_C 	C 	0.29344	0.06058	0.45968	0.059
Mof_H 	H 	0.3143	0.0397	0.4583	-0.001
Mof_C 	C 	0.29806	0.0926	0.4489	-0.098
Mof_H 	H 	0.3216	0.0936	0.4402	0.064
Mof_C 	C 	0.26774	0.12404	0.4507	0.002
Mof_H 	H 	0.2701	0.1465	0.4439	0.038
Mof_C 	C 	0.2341	0.12086	0.46278	-0.045
Mof_C 	C 	0.23221	0.08719	0.47287	0.033
Mof_H 	H 	0.2092	0.0854	0.4808	0.013
Mof_C 	C 	0.96166	0.22878	0.47358	0.091
Mof_C 	C 	0.07476	0.20598	0.4846	0.031
Mof_H 	H 	0.0752	0.2252	0.4872	0.015
Mof_C 	C 	0.10685	0.17795	0.47735	-0.046
Mof_C 	C 	0.10615	0.14931	0.47361	0.004
Mof_H 	H 	0.1276	0.1294	0.4692	0.037
Mof_C 	C 	0.07371	0.15085	0.47643	-0.098
Mof_H 	H 	0.0723	0.1323	0.4735	0.063
Mof_C 	C 	0.04286	0.18006	0.48372	0.058
Mof_H 	H 	0.0207	0.1807	0.4857	-0.002
Mof_C 	C 	0.14029	0.17751	0.47611	0.132
Mof_C 	C 	0.16815	0.20265	0.48249	0.132
Mof_C 	C 	0.2	0.1513	0.46846	0.131
Mof_C 	C 	0.1662	0.23056	0.49182	-0.048
Mof_C 	C 	0.13442	0.25958	0.49848	0.005
Mof_H 	H 	0.1131	0.2623	0.4967	0.039
Mof_C 	C 	0.13469	0.28417	0.50763	-0.093
Mof_H 	H 	0.1136	0.3042	0.5122	0.064
Mof_C 	C 	0.16669	0.27927	0.51009	0.053
Mof_H 	H 	0.1666	0.2964	0.5164	0.004
Mof_C 	C 	0.1966	0.22792	0.49512	0.039
Mof_H 	H 	0.218	0.2082	0.4908	0.013
Mof_C 	C 	0.29754	0.20374	0.44588	0.105
Mof_C 	C 	0.23834	0.29618	0.427	0.052
Mof_H 	H 	0.2402	0.274	0.4278	0.004
Mof_C 	C 	0.23073	0.32631	0.39873	-0.092
Mof_H 	H 	0.2274	0.325	0.3804	0.065
Mof_C 	C 	0.2279	0.35948	0.39688	-0
Mof_H 	H 	0.2224	0.381	0.3776	0.041
Mof_C 	C 	0.23356	0.3597	0.42434	-0.044
Mof_C 	C 	0.24094	0.32788	0.45238	0.033
Mof_H 	H 	0.2443	0.3285	0.4711	0.015
Mof_C 	C 	0.23249	0.39349	0.42319	0.13
Mof_N 	N 	0.96985	0.24443	0.48103	-0.257
Mof_N 	N 	0.26114	0.05716	0.4721	-0.223
Mof_N 	N 	0.0429	0.207	0.48804	-0.224
Mof_N 	N 	0.17072	0.15022	0.46902	-0.149
Mof_N 	N 	0.20038	0.1773	0.47458	-0.149
Mof_N 	N 	0.13724	0.20462	0.48316	-0.149
Mof_N 	N 	0.19724	0.25152	0.50392	-0.226
Mof_N 	N 	0.27938	0.21814	0.46698	-0.263
Mof_N 	N 	0.24355	0.29595	0.45427	-0.224
Mof_N 	N 	0.23233	0.42129	0.39281	-0.15
Mof_S 	S 	0.951	0.20506	0.46534	-0.059
Mof_S 	S 	0.32331	0.18323	0.41623	-0.061
Mof_C 	C 	0.6863	0.45968	0.06058	0.06
Mof_H 	H 	0.6877	0.4583	0.0397	-0
Mof_C 	C 	0.66044	0.4489	0.0926	-0.097
Mof_H 	H 	0.6446	0.4402	0.0936	0.065
Mof_C 	C 	0.65752	0.4507	0.12404	0.003
Mof_H 	H 	0.6395	0.4439	0.1465	0.039
Mof_C 	C 	0.68226	0.46278	0.12086	-0.044
Mof_C 	C 	0.70773	0.47287	0.08719	0.034
Mof_H 	H 	0.7246	0.4808	0.0854	0.014
Mof_C 	C 	0.83598	0.47358	0.22878	0.092
Mof_C 	C 	0.73466	0.4846	0.20598	0.032
Mof_H 	H 	0.7124	0.4872	0.2252	0.016
Mof_C 	C 	0.73785	0.47735	0.17795	-0.045
Mof_C 	C 	0.77093	0.47361	0.14931	0.005
Mof_H 	H 	0.7738	0.4692	0.1294	0.038
Mof_C 	C 	0.79901	0.47643	0.15085	-0.097
Mof_H 	H 	0.8219	0.4735	0.1323	0.064
Mof_C 	C 	0.79336	0.48372	0.18006	0.059
Mof_H 	H 	0.8129	0.4857	0.1807	-0.002
Mof_C 	C 	0.70609	0.47611	0.17751	0.132
Mof_C 	C 	0.64671	0.48249	0.20265	0.132
Mof_C 	C 	0.68024	0.46846	0.1513	0.131
Mof_C 	C 	0.61142	0.49182	0.23056	-0.048
Mof_C 	C 	0.60752	0.49848	0.25958	0.005
Mof_H 	H 	0.6279	0.4967	0.2623	0.039
Mof_C 	C 	0.57351	0.50763	0.28417	-0.093
Mof_H 	H 	0.57	0.5122	0.3042	0.064
Mof_C 	C 	0.54395	0.51009	0.27927	0.053
Mof_H 	H 	0.5206	0.5164	0.2964	0.004
Mof_C 	C 	0.58036	0.49512	0.22792	0.039
Mof_H 	H 	0.583	0.4908	0.2082	0.013
Mof_C 	C 	0.55284	0.44588	0.20374	0.105
Mof_C 	C 	0.53848	0.427	0.29618	0.052
Mof_H 	H 	0.558	0.4278	0.274	0.004
Mof_C 	C 	0.54423	0.39873	0.32631	-0.092
Mof_H 	H 	0.5672	0.3804	0.325	0.065
Mof_C 	C 	0.51574	0.39688	0.35948	-0
Mof_H 	H 	0.519	0.3776	0.381	0.041
Mof_C 	C 	0.4824	0.42434	0.3597	-0.044
Mof_C 	C 	0.4788	0.45238	0.32788	0.033
Mof_H 	H 	0.4561	0.4711	0.3285	0.015
Mof_C 	C 	0.45083	0.42319	0.39349	0.13
Mof_N 	N 	0.80469	0.48103	0.24443	-0.257
Mof_N 	N 	0.7096	0.4721	0.05716	-0.223
Mof_N 	N 	0.76206	0.48804	0.207	-0.224
Mof_N 	N 	0.71004	0.46902	0.15022	-0.149
Mof_N 	N 	0.64774	0.47458	0.1773	-0.149
Mof_N 	N 	0.67498	0.48316	0.20462	-0.149
Mof_N 	N 	0.54732	0.50392	0.25152	-0.226
Mof_N 	N 	0.5355	0.46698	0.21814	-0.263
Mof_N 	N 	0.50623	0.45427	0.29595	-0.224
Mof_N 	N 	0.45357	0.39281	0.42129	-0.15
Mof_S 	S 	0.87861	0.46534	0.20506	-0.059
Mof_S 	S 	0.57723	0.41623	0.18323	-0.061
Mof_C 	C 	0.45968	0.6863	0.29344	0.06
Mof_H 	H 	0.4583	0.6877	0.3143	-0
Mof_C 	C 	0.4489	0.66044	0.29806	-0.097
Mof_H 	H 	0.4402	0.6446	0.3216	0.064
Mof_C 	C 	0.4507	0.65752	0.26774	0.003
Mof_H 	H 	0.4439	0.6395	0.2701	0.039
Mof_C 	C 	0.46278	0.68226	0.2341	-0.044
Mof_C 	C 	0.47287	0.70773	0.23221	0.034
Mof_H 	H 	0.4808	0.7246	0.2092	0.014
Mof_C 	C 	0.47358	0.83598	0.96166	0.092
Mof_C 	C 	0.4846	0.73466	0.07476	0.032
Mof_H 	H 	0.4872	0.7124	0.0752	0.016
Mof_C 	C 	0.47735	0.73785	0.10685	-0.045
Mof_C 	C 	0.47361	0.77093	0.10615	0.005
Mof_H 	H 	0.4692	0.7738	0.1276	0.038
Mof_C 	C 	0.47643	0.79901	0.07371	-0.097
Mof_H 	H 	0.4735	0.8219	0.0723	0.064
Mof_C 	C 	0.48372	0.79336	0.04286	0.059
Mof_H 	H 	0.4857	0.8129	0.0207	-0.002
Mof_C 	C 	0.47611	0.70609	0.14029	0.132
Mof_C 	C 	0.48249	0.64671	0.16815	0.132
Mof_C 	C 	0.46846	0.68024	0.2	0.131
Mof_C 	C 	0.49182	0.61142	0.1662	-0.048
Mof_C 	C 	0.49848	0.60752	0.13442	0.005
Mof_H 	H 	0.4967	0.6279	0.1131	0.039
Mof_C 	C 	0.50763	0.57351	0.13469	-0.093
Mof_H 	H 	0.5122	0.57	0.1136	0.064
Mof_C 	C 	0.51009	0.54395	0.16669	0.053
Mof_H 	H 	0.5164	0.5206	0.1666	0.004
Mof_C 	C 	0.49512	0.58036	0.1966	0.039
Mof_H 	H 	0.4908	0.583	0.218	0.013
Mof_C 	C 	0.44588	0.55284	0.29754	0.105
Mof_C 	C 	0.427	0.53848	0.23834	0.052
Mof_H 	H 	0.4278	0.558	0.2402	0.004
Mof_C 	C 	0.39873	0.54423	0.23073	-0.092
Mof_H 	H 	0.3804	0.5672	0.2274	0.065
Mof_C 	C 	0.39688	0.51574	0.2279	-0
Mof_H 	H 	0.3776	0.519	0.2224	0.041
Mof_C 	C 	0.42434	0.4824	0.23356	-0.044
Mof_C 	C 	0.45238	0.4788	0.24094	0.033
Mof_H 	H 	0.4711	0.4561	0.2443	0.015
Mof_C 	C 	0.42319	0.45083	0.23249	0.13
Mof_N 	N 	0.48103	0.80469	0.96985	-0.257
Mof_N 	N 	0.4721	0.7096	0.26114	-0.223
Mof_N 	N 	0.48804	0.76206	0.0429	-0.224
Mof_N 	N 	0.46902	0.71004	0.17072	-0.149
Mof_N 	N 	0.47458	0.64774	0.20038	-0.149
Mof_N 	N 	0.48316	0.67498	0.13724	-0.149
Mof_N 	N 	0.50392	0.54732	0.19724	-0.226
Mof_N 	N 	0.46698	0.5355	0.27938	-0.263
Mof_N 	N 	0.45427	0.50623	0.24355	-0.224
Mof_N 	N 	0.39281	0.45357	0.23233	-0.15
Mof_S 	S 	0.46534	0.87861	0.951	-0.059
Mof_S 	S 	0.41623	0.57723	0.32331	-0.061
Mof_C 	C 	0.6863	0.06058	0.29344	0.06
Mof_H 	H 	0.6877	0.0397	0.3143	-0
Mof_C 	C 	0.66044	0.0926	0.29806	-0.097
Mof_H 	H 	0.6446	0.0936	0.3216	0.065
Mof_C 	C 	0.65752	0.12404	0.26774	0.003
Mof_H 	H 	0.6395	0.1465	0.2701	0.039
Mof_C 	C 	0.68226	0.12086	0.2341	-0.044
Mof_C 	C 	0.70773	0.08719	0.23221	0.034
Mof_H 	H 	0.7246	0.0854	0.2092	0.014
Mof_C 	C 	0.83598	0.22878	0.96166	0.092
Mof_C 	C 	0.73466	0.20598	0.07476	0.032
Mof_H 	H 	0.7124	0.2252	0.0752	0.016
Mof_C 	C 	0.73785	0.17795	0.10685	-0.045
Mof_C 	C 	0.77093	0.14931	0.10615	0.005
Mof_H 	H 	0.7738	0.1294	0.1276	0.038
Mof_C 	C 	0.79901	0.15085	0.07371	-0.097
Mof_H 	H 	0.8219	0.1323	0.0723	0.064
Mof_C 	C 	0.79336	0.18006	0.04286	0.059
Mof_H 	H 	0.8129	0.1807	0.0207	-0.002
Mof_C 	C 	0.70609	0.17751	0.14029	0.132
Mof_C 	C 	0.64671	0.20265	0.16815	0.132
Mof_C 	C 	0.68024	0.1513	0.2	0.131
Mof_C 	C 	0.61142	0.23056	0.1662	-0.048
Mof_C 	C 	0.60752	0.25958	0.13442	0.005
Mof_H 	H 	0.6279	0.2623	0.1131	0.039
Mof_C 	C 	0.57351	0.28417	0.13469	-0.093
Mof_H 	H 	0.57	0.3042	0.1136	0.064
Mof_C 	C 	0.54395	0.27927	0.16669	0.053
Mof_H 	H 	0.5206	0.2964	0.1666	0.004
Mof_C 	C 	0.58036	0.22792	0.1966	0.039
Mof_H 	H 	0.583	0.2082	0.218	0.013
Mof_C 	C 	0.55284	0.20374	0.29754	0.105
Mof_C 	C 	0.53848	0.29618	0.23834	0.052
Mof_H 	H 	0.558	0.274	0.2402	0.004
Mof_C 	C 	0.54423	0.32631	0.23073	-0.092
Mof_H 	H 	0.5672	0.325	0.2274	0.065
Mof_C 	C 	0.51574	0.35948	0.2279	-0
Mof_H 	H 	0.519	0.381	0.2224	0.041
Mof_C 	C 	0.4824	0.3597	0.23356	-0.044
Mof_C 	C 	0.4788	0.32788	0.24094	0.033
Mof_H 	H 	0.4561	0.3285	0.2443	0.015
Mof_C 	C 	0.45083	0.39349	0.23249	0.13
Mof_N 	N 	0.80469	0.24443	0.96985	-0.257
Mof_N 	N 	0.7096	0.05716	0.26114	-0.223
Mof_N 	N 	0.76206	0.207	0.0429	-0.224
Mof_N 	N 	0.71004	0.15022	0.17072	-0.149
Mof_N 	N 	0.64774	0.1773	0.20038	-0.149
Mof_N 	N 	0.67498	0.20462	0.13724	-0.149
Mof_N 	N 	0.54732	0.25152	0.19724	-0.226
Mof_N 	N 	0.5355	0.21814	0.27938	-0.263
Mof_N 	N 	0.50623	0.29595	0.24355	-0.224
Mof_N 	N 	0.45357	0.42129	0.23233	-0.15
Mof_S 	S 	0.87861	0.20506	0.951	-0.059
Mof_S 	S 	0.57723	0.18323	0.32331	-0.061
Mof_C 	C 	0.45968	0.29344	0.06058	0.06
Mof_H 	H 	0.4583	0.3143	0.0397	-0
Mof_C 	C 	0.4489	0.29806	0.0926	-0.097
Mof_H 	H 	0.4402	0.3216	0.0936	0.065
Mof_C 	C 	0.4507	0.26774	0.12404	0.003
Mof_H 	H 	0.4439	0.2701	0.1465	0.039
Mof_C 	C 	0.46278	0.2341	0.12086	-0.044
Mof_C 	C 	0.47287	0.23221	0.08719	0.034
Mof_H 	H 	0.4808	0.2092	0.0854	0.014
Mof_C 	C 	0.47358	0.96166	0.22878	0.092
Mof_C 	C 	0.4846	0.07476	0.20598	0.032
Mof_H 	H 	0.4872	0.0752	0.2252	0.016
Mof_C 	C 	0.47735	0.10685	0.17795	-0.045
Mof_C 	C 	0.47361	0.10615	0.14931	0.005
Mof_H 	H 	0.4692	0.1276	0.1294	0.038
Mof_C 	C 	0.47643	0.07371	0.15085	-0.097
Mof_H 	H 	0.4735	0.0723	0.1323	0.064
Mof_C 	C 	0.48372	0.04286	0.18006	0.059
Mof_H 	H 	0.4857	0.0207	0.1807	-0.002
Mof_C 	C 	0.47611	0.14029	0.17751	0.132
Mof_C 	C 	0.48249	0.16815	0.20265	0.132
Mof_C 	C 	0.46846	0.2	0.1513	0.131
Mof_C 	C 	0.49182	0.1662	0.23056	-0.048
Mof_C 	C 	0.49848	0.13442	0.25958	0.005
Mof_H 	H 	0.4967	0.1131	0.2623	0.039
Mof_C 	C 	0.50763	0.13469	0.28417	-0.093
Mof_H 	H 	0.5122	0.1136	0.3042	0.064
Mof_C 	C 	0.51009	0.16669	0.27927	0.053
Mof_H 	H 	0.5164	0.1666	0.2964	0.004
Mof_C 	C 	0.49512	0.1966	0.22792	0.039
Mof_H 	H 	0.4908	0.218	0.2082	0.013
Mof_C 	C 	0.44588	0.29754	0.20374	0.105
Mof_C 	C 	0.427	0.23834	0.29618	0.052
Mof_H 	H 	0.4278	0.2402	0.274	0.004
Mof_C 	C 	0.39873	0.23073	0.32631	-0.092
Mof_H 	H 	0.3804	0.2274	0.325	0.065
Mof_C 	C 	0.39688	0.2279	0.35948	-0
Mof_H 	H 	0.3776	0.2224	0.381	0.041
Mof_C 	C 	0.42434	0.23356	0.3597	-0.044
Mof_C 	C 	0.45238	0.24094	0.32788	0.033
Mof_H 	H 	0.4711	0.2443	0.3285	0.015
Mof_C 	C 	0.42319	0.23249	0.39349	0.13
Mof_N 	N 	0.48103	0.96985	0.24443	-0.257
Mof_N 	N 	0.4721	0.26114	0.05716	-0.223
Mof_N 	N 	0.48804	0.0429	0.207	-0.224
Mof_N 	N 	0.46902	0.17072	0.15022	-0.149
Mof_N 	N 	0.47458	0.20038	0.1773	-0.149
Mof_N 	N 	0.48316	0.13724	0.20462	-0.149
Mof_N 	N 	0.50392	0.19724	0.25152	-0.226
Mof_N 	N 	0.46698	0.27938	0.21814	-0.263
Mof_N 	N 	0.45427	0.24355	0.29595	-0.224
Mof_N 	N 	0.39281	0.23233	0.42129	-0.15
Mof_S 	S 	0.46534	0.951	0.20506	-0.059
Mof_S 	S 	0.41623	0.32331	0.18323	-0.061
Mof_C 	C 	0.06058	0.6863	0.45968	0.06
Mof_H 	H 	0.0397	0.6877	0.4583	-0
Mof_C 	C 	0.0926	0.66044	0.4489	-0.097
Mof_H 	H 	0.0936	0.6446	0.4402	0.065
Mof_C 	C 	0.12404	0.65752	0.4507	0.003
Mof_H 	H 	0.1465	0.6395	0.4439	0.039
Mof_C 	C 	0.12086	0.68226	0.46278	-0.044
Mof_C 	C 	0.08719	0.70773	0.47287	0.034
Mof_H 	H 	0.0854	0.7246	0.4808	0.014
Mof_C 	C 	0.22878	0.83598	0.47358	0.092
Mof_C 	C 	0.20598	0.73466	0.4846	0.032
Mof_H 	H 	0.2252	0.7124	0.4872	0.016
Mof_C 	C 	0.17795	0.73785	0.47735	-0.045
Mof_C 	C 	0.14931	0.77093	0.47361	0.005
Mof_H 	H 	0.1294	0.7738	0.4692	0.038
Mof_C 	C 	0.15085	0.79901	0.47643	-0.097
Mof_H 	H 	0.1323	0.8219	0.4735	0.064
Mof_C 	C 	0.18006	0.79336	0.48372	0.059
Mof_H 	H 	0.1807	0.8129	0.4857	-0.002
Mof_C 	C 	0.17751	0.70609	0.47611	0.132
Mof_C 	C 	0.20265	0.64671	0.48249	0.132
Mof_C 	C 	0.1513	0.68024	0.46846	0.131
Mof_C 	C 	0.23056	0.61142	0.49182	-0.048
Mof_C 	C 	0.25958	0.60752	0.49848	0.005
Mof_H 	H 	0.2623	0.6279	0.4967	0.039
Mof_C 	C 	0.28417	0.57351	0.50763	-0.093
Mof_H 	H 	0.3042	0.57	0.5122	0.064
Mof_C 	C 	0.27927	0.54395	0.51009	0.053
Mof_H 	H 	0.2964	0.5206	0.5164	0.004
Mof_C 	C 	0.22792	0.58036	0.49512	0.039
Mof_H 	H 	0.2082	0.583	0.4908	0.013
Mof_C 	C 	0.20374	0.55284	0.44588	0.105
Mof_C 	C 	0.29618	0.53848	0.427	0.052
Mof_H 	H 	0.274	0.558	0.4278	0.004
Mof_C 	C 	0.32631	0.54423	0.39873	-0.092
Mof_H 	H 	0.325	0.5672	0.3804	0.065
Mof_C 	C 	0.35948	0.51574	0.39688	-0
Mof_H 	H 	0.381	0.519	0.3776	0.041
Mof_C 	C 	0.3597	0.4824	0.42434	-0.044
Mof_C 	C 	0.32788	0.4788	0.45238	0.033
Mof_H 	H 	0.3285	0.4561	0.4711	0.015
Mof_C 	C 	0.39349	0.45083	0.42319	0.13
Mof_N 	N 	0.24443	0.80469	0.48103	-0.257
Mof_N 	N 	0.05716	0.7096	0.4721	-0.223
Mof_N 	N 	0.207	0.76206	0.48804	-0.224
Mof_N 	N 	0.15022	0.71004	0.46902	-0.149
Mof_N 	N 	0.1773	0.64774	0.47458	-0.149
Mof_N 	N 	0.20462	0.67498	0.48316	-0.149
Mof_N 	N 	0.25152	0.54732	0.50392	-0.226
Mof_N 	N 	0.21814	0.5355	0.46698	-0.263
Mof_N 	N 	0.29595	0.50623	0.45427	-0.224
Mof_N 	N 	0.42129	0.45357	0.39281	-0.15
Mof_S 	S 	0.20506	0.87861	0.46534	-0.059
Mof_S 	S 	0.18323	0.57723	0.41623	-0.061
Mof_C 	C 	0.29344	0.45968	0.6863	0.06
Mof_H 	H 	0.3143	0.4583	0.6877	-0
Mof_C 	C 	0.29806	0.4489	0.66044	-0.097
Mof_H 	H 	0.3216	0.4402	0.6446	0.064
Mof_C 	C 	0.26774	0.4507	0.65752	0.003
Mof_H 	H 	0.2701	0.4439	0.6395	0.039
Mof_C 	C 	0.2341	0.46278	0.68226	-0.044
Mof_C 	C 	0.23221	0.47287	0.70773	0.034
Mof_H 	H 	0.2092	0.4808	0.7246	0.014
Mof_C 	C 	0.96166	0.47358	0.83598	0.092
Mof_C 	C 	0.07476	0.4846	0.73466	0.032
Mof_H 	H 	0.0752	0.4872	0.7124	0.016
Mof_C 	C 	0.10685	0.47735	0.73785	-0.045
Mof_C 	C 	0.10615	0.47361	0.77093	0.005
Mof_H 	H 	0.1276	0.4692	0.7738	0.038
Mof_C 	C 	0.07371	0.47643	0.79901	-0.097
Mof_H 	H 	0.0723	0.4735	0.8219	0.064
Mof_C 	C 	0.04286	0.48372	0.79336	0.059
Mof_H 	H 	0.0207	0.4857	0.8129	-0.002
Mof_C 	C 	0.14029	0.47611	0.70609	0.132
Mof_C 	C 	0.16815	0.48249	0.64671	0.132
Mof_C 	C 	0.2	0.46846	0.68024	0.131
Mof_C 	C 	0.1662	0.49182	0.61142	-0.048
Mof_C 	C 	0.13442	0.49848	0.60752	0.005
Mof_H 	H 	0.1131	0.4967	0.6279	0.039
Mof_C 	C 	0.13469	0.50763	0.57351	-0.093
Mof_H 	H 	0.1136	0.5122	0.57	0.064
Mof_C 	C 	0.16669	0.51009	0.54395	0.053
Mof_H 	H 	0.1666	0.5164	0.5206	0.004
Mof_C 	C 	0.1966	0.49512	0.58036	0.039
Mof_H 	H 	0.218	0.4908	0.583	0.013
Mof_C 	C 	0.29754	0.44588	0.55284	0.105
Mof_C 	C 	0.23834	0.427	0.53848	0.052
Mof_H 	H 	0.2402	0.4278	0.558	0.004
Mof_C 	C 	0.23073	0.39873	0.54423	-0.092
Mof_H 	H 	0.2274	0.3804	0.5672	0.065
Mof_C 	C 	0.2279	0.39688	0.51574	-0
Mof_H 	H 	0.2224	0.3776	0.519	0.041
Mof_C 	C 	0.23356	0.42434	0.4824	-0.044
Mof_C 	C 	0.24094	0.45238	0.4788	0.033
Mof_H 	H 	0.2443	0.4711	0.4561	0.015
Mof_C 	C 	0.23249	0.42319	0.45083	0.13
Mof_N 	N 	0.96985	0.48103	0.80469	-0.257
Mof_N 	N 	0.26114	0.4721	0.7096	-0.223
Mof_N 	N 	0.0429	0.48804	0.76206	-0.224
Mof_N 	N 	0.17072	0.46902	0.71004	-0.149
Mof_N 	N 	0.20038	0.47458	0.64774	-0.149
Mof_N 	N 	0.13724	0.48316	0.67498	-0.149
Mof_N 	N 	0.19724	0.50392	0.54732	-0.226
Mof_N 	N 	0.27938	0.46698	0.5355	-0.263
Mof_N 	N 	0.24355	0.45427	0.50623	-0.224
Mof_N 	N 	0.23233	0.39281	0.45357	-0.15
Mof_S 	S 	0.951	0.46534	0.87861	-0.059
Mof_S 	S 	0.32331	0.41623	0.57723	-0.061
Mof_C 	C 	0.29344	0.6863	0.06058	0.06
Mof_H 	H 	0.3143	0.6877	0.0397	-0
Mof_C 	C 	0.29806	0.66044	0.0926	-0.097
Mof_H 	H 	0.3216	0.6446	0.0936	0.065
Mof_C 	C 	0.26774	0.65752	0.12404	0.003
Mof_H 	H 	0.2701	0.6395	0.1465	0.039
Mof_C 	C 	0.2341	0.68226	0.12086	-0.044
Mof_C 	C 	0.23221	0.70773	0.08719	0.034
Mof_H 	H 	0.2092	0.7246	0.0854	0.014
Mof_C 	C 	0.96166	0.83598	0.22878	0.092
Mof_C 	C 	0.07476	0.73466	0.20598	0.032
Mof_H 	H 	0.0752	0.7124	0.2252	0.016
Mof_C 	C 	0.10685	0.73785	0.17795	-0.045
Mof_C 	C 	0.10615	0.77093	0.14931	0.005
Mof_H 	H 	0.1276	0.7738	0.1294	0.038
Mof_C 	C 	0.07371	0.79901	0.15085	-0.097
Mof_H 	H 	0.0723	0.8219	0.1323	0.064
Mof_C 	C 	0.04286	0.79336	0.18006	0.059
Mof_H 	H 	0.0207	0.8129	0.1807	-0.002
Mof_C 	C 	0.14029	0.70609	0.17751	0.132
Mof_C 	C 	0.16815	0.64671	0.20265	0.132
Mof_C 	C 	0.2	0.68024	0.1513	0.131
Mof_C 	C 	0.1662	0.61142	0.23056	-0.048
Mof_C 	C 	0.13442	0.60752	0.25958	0.005
Mof_H 	H 	0.1131	0.6279	0.2623	0.039
Mof_C 	C 	0.13469	0.57351	0.28417	-0.093
Mof_H 	H 	0.1136	0.57	0.3042	0.064
Mof_C 	C 	0.16669	0.54395	0.27927	0.053
Mof_H 	H 	0.1666	0.5206	0.2964	0.004
Mof_C 	C 	0.1966	0.58036	0.22792	0.039
Mof_H 	H 	0.218	0.583	0.2082	0.013
Mof_C 	C 	0.29754	0.55284	0.20374	0.105
Mof_C 	C 	0.23834	0.53848	0.29618	0.052
Mof_H 	H 	0.2402	0.558	0.274	0.004
Mof_C 	C 	0.23073	0.54423	0.32631	-0.092
Mof_H 	H 	0.2274	0.5672	0.325	0.065
Mof_C 	C 	0.2279	0.51574	0.35948	-0
Mof_H 	H 	0.2224	0.519	0.381	0.041
Mof_C 	C 	0.23356	0.4824	0.3597	-0.044
Mof_C 	C 	0.24094	0.4788	0.32788	0.033
Mof_H 	H 	0.2443	0.4561	0.3285	0.015
Mof_C 	C 	0.23249	0.45083	0.39349	0.13
Mof_N 	N 	0.96985	0.80469	0.24443	-0.257
Mof_N 	N 	0.26114	0.7096	0.05716	-0.223
Mof_N 	N 	0.0429	0.76206	0.207	-0.224
Mof_N 	N 	0.17072	0.71004	0.15022	-0.149
Mof_N 	N 	0.20038	0.64774	0.1773	-0.149
Mof_N 	N 	0.13724	0.67498	0.20462	-0.149
Mof_N 	N 	0.19724	0.54732	0.25152	-0.226
Mof_N 	N 	0.27938	0.5355	0.21814	-0.263
Mof_N 	N 	0.24355	0.50623	0.29595	-0.224
Mof_N 	N 	0.23233	0.45357	0.42129	-0.15
Mof_S 	S 	0.951	0.87861	0.20506	-0.059
Mof_S 	S 	0.32331	0.57723	0.18323	-0.061
Mof_C 	C 	0.06058	0.45968	0.29344	0.06
Mof_H 	H 	0.0397	0.4583	0.3143	-0
Mof_C 	C 	0.0926	0.4489	0.29806	-0.097
Mof_H 	H 	0.0936	0.4402	0.3216	0.065
Mof_C 	C 	0.12404	0.4507	0.26774	0.003
Mof_H 	H 	0.1465	0.4439	0.2701	0.039
Mof_C 	C 	0.12086	0.46278	0.2341	-0.044
Mof_C 	C 	0.08719	0.47287	0.23221	0.034
Mof_H 	H 	0.0854	0.4808	0.2092	0.014
Mof_C 	C 	0.22878	0.47358	0.96166	0.092
Mof_C 	C 	0.20598	0.4846	0.07476	0.032
Mof_H 	H 	0.2252	0.4872	0.0752	0.016
Mof_C 	C 	0.17795	0.47735	0.10685	-0.045
Mof_C 	C 	0.14931	0.47361	0.10615	0.005
Mof_H 	H 	0.1294	0.4692	0.1276	0.038
Mof_C 	C 	0.15085	0.47643	0.07371	-0.097
Mof_H 	H 	0.1323	0.4735	0.0723	0.064
Mof_C 	C 	0.18006	0.48372	0.04286	0.059
Mof_H 	H 	0.1807	0.4857	0.0207	-0.002
Mof_C 	C 	0.17751	0.47611	0.14029	0.132
Mof_C 	C 	0.20265	0.48249	0.16815	0.132
Mof_C 	C 	0.1513	0.46846	0.2	0.131
Mof_C 	C 	0.23056	0.49182	0.1662	-0.048
Mof_C 	C 	0.25958	0.49848	0.13442	0.005
Mof_H 	H 	0.2623	0.4967	0.1131	0.039
Mof_C 	C 	0.28417	0.50763	0.13469	-0.093
Mof_H 	H 	0.3042	0.5122	0.1136	0.064
Mof_C 	C 	0.27927	0.51009	0.16669	0.053
Mof_H 	H 	0.2964	0.5164	0.1666	0.004
Mof_C 	C 	0.22792	0.49512	0.1966	0.039
Mof_H 	H 	0.2082	0.4908	0.218	0.013
Mof_C 	C 	0.20374	0.44588	0.29754	0.105
Mof_C 	C 	0.29618	0.427	0.23834	0.052
Mof_H 	H 	0.274	0.4278	0.2402	0.004
Mof_C 	C 	0.32631	0.39873	0.23073	-0.092
Mof_H 	H 	0.325	0.3804	0.2274	0.065
Mof_C 	C 	0.35948	0.39688	0.2279	-0
Mof_H 	H 	0.381	0.3776	0.2224	0.041
Mof_C 	C 	0.3597	0.42434	0.23356	-0.044
Mof_C 	C 	0.32788	0.45238	0.24094	0.033
Mof_H 	H 	0.3285	0.4711	0.2443	0.015
Mof_C 	C 	0.39349	0.42319	0.23249	0.13
Mof_N 	N 	0.24443	0.48103	0.96985	-0.257
Mof_N 	N 	0.05716	0.4721	0.26114	-0.223
Mof_N 	N 	0.207	0.48804	0.0429	-0.224
Mof_N 	N 	0.15022	0.46902	0.17072	-0.149
Mof_N 	N 	0.1773	0.47458	0.20038	-0.149
Mof_N 	N 	0.20462	0.48316	0.13724	-0.149
Mof_N 	N 	0.25152	0.50392	0.19724	-0.226
Mof_N 	N 	0.21814	0.46698	0.27938	-0.263
Mof_N 	N 	0.29595	0.45427	0.24355	-0.224
Mof_N 	N 	0.42129	0.39281	0.23233	-0.15
Mof_S 	S 	0.20506	0.46534	0.951	-0.059
Mof_S 	S 	0.18323	0.41623	0.32331	-0.061
Mof_C 	C 	0.45968	0.06058	0.6863	0.06
Mof_H 	H 	0.4583	0.0397	0.6877	-0
Mof_C 	C 	0.4489	0.0926	0.66044	-0.097
Mof_H 	H 	0.4402	0.0936	0.6446	0.065
Mof_C 	C 	0.4507	0.12404	0.65752	0.003
Mof_H 	H 	0.4439	0.1465	0.6395	0.039
Mof_C 	C 	0.46278	0.12086	0.68226	-0.044
Mof_C 	C 	0.47287	0.08719	0.70773	0.034
Mof_H 	H 	0.4808	0.0854	0.7246	0.014
Mof_C 	C 	0.47358	0.22878	0.83598	0.092
Mof_C 	C 	0.4846	0.20598	0.73466	0.032
Mof_H 	H 	0.4872	0.2252	0.7124	0.016
Mof_C 	C 	0.47735	0.17795	0.73785	-0.045
Mof_C 	C 	0.47361	0.14931	0.77093	0.005
Mof_H 	H 	0.4692	0.1294	0.7738	0.038
Mof_C 	C 	0.47643	0.15085	0.79901	-0.097
Mof_H 	H 	0.4735	0.1323	0.8219	0.064
Mof_C 	C 	0.48372	0.18006	0.79336	0.059
Mof_H 	H 	0.4857	0.1807	0.8129	-0.002
Mof_C 	C 	0.47611	0.17751	0.70609	0.132
Mof_C 	C 	0.48249	0.20265	0.64671	0.132
Mof_C 	C 	0.46846	0.1513	0.68024	0.131
Mof_C 	C 	0.49182	0.23056	0.61142	-0.048
Mof_C 	C 	0.49848	0.25958	0.60752	0.005
Mof_H 	H 	0.4967	0.2623	0.6279	0.039
Mof_C 	C 	0.50763	0.28417	0.57351	-0.093
Mof_H 	H 	0.5122	0.3042	0.57	0.064
Mof_C 	C 	0.51009	0.27927	0.54395	0.053
Mof_H 	H 	0.5164	0.2964	0.5206	0.004
Mof_C 	C 	0.49512	0.22792	0.58036	0.039
Mof_H 	H 	0.4908	0.2082	0.583	0.013
Mof_C 	C 	0.44588	0.20374	0.55284	0.105
Mof_C 	C 	0.427	0.29618	0.53848	0.052
Mof_H 	H 	0.4278	0.274	0.558	0.004
Mof_C 	C 	0.39873	0.32631	0.54423	-0.092
Mof_H 	H 	0.3804	0.325	0.5672	0.065
Mof_C 	C 	0.39688	0.35948	0.51574	-0
Mof_H 	H 	0.3776	0.381	0.519	0.041
Mof_C 	C 	0.42434	0.3597	0.4824	-0.044
Mof_C 	C 	0.45238	0.32788	0.4788	0.033
Mof_H 	H 	0.4711	0.3285	0.4561	0.015
Mof_C 	C 	0.42319	0.39349	0.45083	0.13
Mof_N 	N 	0.48103	0.24443	0.80469	-0.257
Mof_N 	N 	0.4721	0.05716	0.7096	-0.223
Mof_N 	N 	0.48804	0.207	0.76206	-0.224
Mof_N 	N 	0.46902	0.15022	0.71004	-0.149
Mof_N 	N 	0.47458	0.1773	0.64774	-0.149
Mof_N 	N 	0.48316	0.20462	0.67498	-0.149
Mof_N 	N 	0.50392	0.25152	0.54732	-0.226
Mof_N 	N 	0.46698	0.21814	0.5355	-0.263
Mof_N 	N 	0.45427	0.29595	0.50623	-0.224
Mof_N 	N 	0.39281	0.42129	0.45357	-0.15
Mof_S 	S 	0.46534	0.20506	0.87861	-0.059
Mof_S 	S 	0.41623	0.18323	0.57723	-0.061
Mof_C 	C 	0.6863	0.29344	0.45968	0.06
Mof_H 	H 	0.6877	0.3143	0.4583	-0
Mof_C 	C 	0.66044	0.29806	0.4489	-0.097
Mof_H 	H 	0.6446	0.3216	0.4402	0.064
Mof_C 	C 	0.65752	0.26774	0.4507	0.003
Mof_H 	H 	0.6395	0.2701	0.4439	0.039
Mof_C 	C 	0.68226	0.2341	0.46278	-0.044
Mof_C 	C 	0.70773	0.23221	0.47287	0.034
Mof_H 	H 	0.7246	0.2092	0.4808	0.014
Mof_C 	C 	0.83598	0.96166	0.47358	0.092
Mof_C 	C 	0.73466	0.07476	0.4846	0.032
Mof_H 	H 	0.7124	0.0752	0.4872	0.016
Mof_C 	C 	0.73785	0.10685	0.47735	-0.045
Mof_C 	C 	0.77093	0.10615	0.47361	0.005
Mof_H 	H 	0.7738	0.1276	0.4692	0.038
Mof_C 	C 	0.79901	0.07371	0.47643	-0.097
Mof_H 	H 	0.8219	0.0723	0.4735	0.064
Mof_C 	C 	0.79336	0.04286	0.48372	0.059
Mof_H 	H 	0.8129	0.0207	0.4857	-0.002
Mof_C 	C 	0.70609	0.14029	0.47611	0.132
Mof_C 	C 	0.64671	0.16815	0.48249	0.132
Mof_C 	C 	0.68024	0.2	0.46846	0.131
Mof_C 	C 	0.61142	0.1662	0.49182	-0.048
Mof_C 	C 	0.60752	0.13442	0.49848	0.005
Mof_H 	H 	0.6279	0.1131	0.4967	0.039
Mof_C 	C 	0.57351	0.13469	0.50763	-0.093
Mof_H 	H 	0.57	0.1136	0.5122	0.064
Mof_C 	C 	0.54395	0.16669	0.51009	0.053
Mof_H 	H 	0.5206	0.1666	0.5164	0.004
Mof_C 	C 	0.58036	0.1966	0.49512	0.039
Mof_H 	H 	0.583	0.218	0.4908	0.013
Mof_C 	C 	0.55284	0.29754	0.44588	0.105
Mof_C 	C 	0.53848	0.23834	0.427	0.052
Mof_H 	H 	0.558	0.2402	0.4278	0.004
Mof_C 	C 	0.54423	0.23073	0.39873	-0.092
Mof_H 	H 	0.5672	0.2274	0.3804	0.065
Mof_C 	C 	0.51574	0.2279	0.39688	-0
Mof_H 	H 	0.519	0.2224	0.3776	0.041
Mof_C 	C 	0.4824	0.23356	0.42434	-0.044
Mof_C 	C 	0.4788	0.24094	0.45238	0.033
Mof_H 	H 	0.4561	0.2443	0.4711	0.015
Mof_C 	C 	0.45083	0.23249	0.42319	0.13
Mof_N 	N 	0.80469	0.96985	0.48103	-0.257
Mof_N 	N 	0.7096	0.26114	0.4721	-0.223
Mof_N 	N 	0.76206	0.0429	0.48804	-0.224
Mof_N 	N 	0.71004	0.17072	0.46902	-0.149
Mof_N 	N 	0.64774	0.20038	0.47458	-0.149
Mof_N 	N 	0.67498	0.13724	0.48316	-0.149
Mof_N 	N 	0.54732	0.19724	0.50392	-0.226
Mof_N 	N 	0.5355	0.27938	0.46698	-0.263
Mof_N 	N 	0.50623	0.24355	0.45427	-0.224
Mof_N 	N 	0.45357	0.23233	0.39281	-0.15
Mof_S 	S 	0.87861	0.951	0.46534	-0.059
Mof_S 	S 	0.57723	0.32331	0.41623	-0.061
Mof_C 	C 	0.43942	0.20656	0.04032	0.06
Mof_H 	H 	0.4603	0.1857	0.0417	-0
Mof_C 	C 	0.4074	0.20194	0.0511	-0.097
Mof_H 	H 	0.4064	0.1784	0.0598	0.065
Mof_C 	C 	0.37596	0.23226	0.0493	0.003
Mof_H 	H 	0.3535	0.2299	0.0561	0.039
Mof_C 	C 	0.37914	0.2659	0.03722	-0.044
Mof_C 	C 	0.41281	0.26779	0.02713	0.034
Mof_H 	H 	0.4146	0.2908	0.0192	0.014
Mof_C 	C 	0.27122	0.53834	0.02642	0.092
Mof_C 	C 	0.29402	0.42524	0.0154	0.032
Mof_H 	H 	0.2748	0.4248	0.0128	0.016
Mof_C 	C 	0.32205	0.39315	0.02265	-0.045
Mof_C 	C 	0.35069	0.39385	0.02639	0.005
Mof_H 	H 	0.3706	0.3724	0.0308	0.038
Mof_C 	C 	0.34915	0.42629	0.02357	-0.097
Mof_H 	H 	0.3677	0.4277	0.0265	0.064
Mof_C 	C 	0.31994	0.45714	0.01628	0.059
Mof_H 	H 	0.3193	0.4793	0.0143	-0.002
Mof_C 	C 	0.32249	0.35971	0.02389	0.132
Mof_C 	C 	0.29735	0.33185	0.01751	0.132
Mof_C 	C 	0.3487	0.3	0.03154	0.131
Mof_C 	C 	0.26944	0.3338	0.00818	-0.048
Mof_C 	C 	0.24042	0.36558	0.00152	0.005
Mof_H 	H 	0.2377	0.3869	0.0033	0.039
Mof_C 	C 	0.21583	0.36531	0.99237	-0.093
Mof_H 	H 	0.1958	0.3864	0.9878	0.064
Mof_C 	C 	0.22073	0.33331	0.98991	0.053
Mof_H 	H 	0.2036	0.3334	0.9836	0.004
Mof_C 	C 	0.27208	0.3034	0.00488	0.039
Mof_H 	H 	0.2918	0.282	0.0092	0.013
Mof_C 	C 	0.29626	0.20246	0.05412	0.105
Mof_C 	C 	0.20382	0.26166	0.073	0.052
Mof_H 	H 	0.226	0.2598	0.0722	0.004
Mof_C 	C 	0.17369	0.26927	0.10127	-0.092
Mof_H 	H 	0.175	0.2726	0.1196	0.065
Mof_C 	C 	0.14052	0.2721	0.10312	-0
Mof_H 	H 	0.119	0.2776	0.1224	0.041
Mof_C 	C 	0.1403	0.26644	0.07566	-0.044
Mof_C 	C 	0.17212	0.25906	0.04762	0.033
Mof_H 	H 	0.1715	0.2557	0.0289	0.015
Mof_C 	C 	0.10651	0.26751	0.07681	0.13
Mof_N 	N 	0.25557	0.53015	0.01897	-0.257
Mof_N 	N 	0.44284	0.23886	0.0279	-0.223
Mof_N 	N 	0.293	0.4571	0.01196	-0.224
Mof_N 	N 	0.34978	0.32928	0.03098	-0.149
Mof_N 	N 	0.3227	0.29962	0.02542	-0.149
Mof_N 	N 	0.29538	0.36276	0.01684	-0.149
Mof_N 	N 	0.24848	0.30276	0.99608	-0.226
Mof_N 	N 	0.28186	0.22062	0.03302	-0.263
Mof_N 	N 	0.20405	0.25645	0.04573	-0.224
Mof_N 	N 	0.07871	0.26767	0.10719	-0.15
Mof_S 	S 	0.29494	0.549	0.03466	-0.059
Mof_S 	S 	0.31677	0.17669	0.08377	-0.061
Mof_C 	C 	0.20656	0.43942	0.8137	0.06
Mof_H 	H 	0.1857	0.4603	0.8123	-0
Mof_C 	C 	0.20194	0.4074	0.83956	-0.097
Mof_H 	H 	0.1784	0.4064	0.8554	0.065
Mof_C 	C 	0.23226	0.37596	0.84248	0.003
Mof_H 	H 	0.2299	0.3535	0.8605	0.039
Mof_C 	C 	0.2659	0.37914	0.81774	-0.044
Mof_C 	C 	0.26779	0.41281	0.79227	0.034
Mof_H 	H 	0.2908	0.4146	0.7754	0.014
Mof_C 	C 	0.53834	0.27122	0.66402	0.092
Mof_C 	C 	0.42524	0.29402	0.76534	0.032
Mof_H 	H 	0.4248	0.2748	0.7876	0.016
Mof_C 	C 	0.39315	0.32205	0.76215	-0.045
Mof_C 	C 	0.39385	0.35069	0.72907	0.005
Mof_H 	H 	0.3724	0.3706	0.7262	0.038
Mof_C 	C 	0.42629	0.34915	0.70099	-0.097
Mof_H 	H 	0.4277	0.3677	0.6781	0.064
Mof_C 	C 	0.45714	0.31994	0.70664	0.059
Mof_H 	H 	0.4793	0.3193	0.6871	-0.002
Mof_C 	C 	0.35971	0.32249	0.79391	0.132
Mof_C 	C 	0.33185	0.29735	0.85329	0.132
Mof_C 	C 	0.3	0.3487	0.81976	0.131
Mof_C 	C 	0.3338	0.26944	0.88858	-0.048
Mof_C 	C 	0.36558	0.24042	0.89248	0.005
Mof_H 	H 	0.3869	0.2377	0.8721	0.039
Mof_C 	C 	0.36531	0.21583	0.92649	-0.093
Mof_H 	H 	0.3864	0.1958	0.93	0.064
Mof_C 	C 	0.33331	0.22073	0.95605	0.053
Mof_H 	H 	0.3334	0.2036	0.9794	0.004
Mof_C 	C 	0.3034	0.27208	0.91964	0.039
Mof_H 	H 	0.282	0.2918	0.917	0.013
Mof_C 	C 	0.20246	0.29626	0.94716	0.105
Mof_C 	C 	0.26166	0.20382	0.96152	0.052
Mof_H 	H 	0.2598	0.226	0.942	0.004
Mof_C 	C 	0.26927	0.17369	0.95577	-0.092
Mof_H 	H 	0.2726	0.175	0.9328	0.065
Mof_C 	C 	0.2721	0.14052	0.98426	-0
Mof_H 	H 	0.2776	0.119	0.981	0.041
Mof_C 	C 	0.26644	0.1403	0.0176	-0.044
Mof_C 	C 	0.25906	0.17212	0.0212	0.033
Mof_H 	H 	0.2557	0.1715	0.0439	0.015
Mof_C 	C 	0.26751	0.10651	0.04917	0.13
Mof_N 	N 	0.53015	0.25557	0.69531	-0.257
Mof_N 	N 	0.23886	0.44284	0.7904	-0.223
Mof_N 	N 	0.4571	0.293	0.73794	-0.224
Mof_N 	N 	0.32928	0.34978	0.78996	-0.149
Mof_N 	N 	0.29962	0.3227	0.85226	-0.149
Mof_N 	N 	0.36276	0.29538	0.82502	-0.149
Mof_N 	N 	0.30276	0.24848	0.95268	-0.226
Mof_N 	N 	0.22062	0.28186	0.9645	-0.263
Mof_N 	N 	0.25645	0.20405	0.99377	-0.224
Mof_N 	N 	0.26767	0.07871	0.04643	-0.15
Mof_S 	S 	0.549	0.29494	0.62139	-0.059
Mof_S 	S 	0.17669	0.31677	0.92277	-0.061
Mof_C 	C 	0.8137	0.04032	0.20656	0.06
Mof_H 	H 	0.8123	0.0417	0.1857	-0
Mof_C 	C 	0.83956	0.0511	0.20194	-0.097
Mof_H 	H 	0.8554	0.0598	0.1784	0.065
Mof_C 	C 	0.84248	0.0493	0.23226	0.003
Mof_H 	H 	0.8605	0.0561	0.2299	0.039
Mof_C 	C 	0.81774	0.03722	0.2659	-0.044
Mof_C 	C 	0.79227	0.02713	0.26779	0.034
Mof_H 	H 	0.7754	0.0192	0.2908	0.014
Mof_C 	C 	0.66402	0.02642	0.53834	0.092
Mof_C 	C 	0.76534	0.0154	0.42524	0.032
Mof_H 	H 	0.7876	0.0128	0.4248	0.016
Mof_C 	C 	0.76215	0.02265	0.39315	-0.045
Mof_C 	C 	0.72907	0.02639	0.39385	0.005
Mof_H 	H 	0.7262	0.0308	0.3724	0.038
Mof_C 	C 	0.70099	0.02357	0.42629	-0.097
Mof_H 	H 	0.6781	0.0265	0.4277	0.064
Mof_C 	C 	0.70664	0.01628	0.45714	0.059
Mof_H 	H 	0.6871	0.0143	0.4793	-0.002
Mof_C 	C 	0.79391	0.02389	0.35971	0.132
Mof_C 	C 	0.85329	0.01751	0.33185	0.132
Mof_C 	C 	0.81976	0.03154	0.3	0.131
Mof_C 	C 	0.88858	0.00818	0.3338	-0.048
Mof_C 	C 	0.89248	0.00152	0.36558	0.005
Mof_H 	H 	0.8721	0.0033	0.3869	0.039
Mof_C 	C 	0.92649	0.99237	0.36531	-0.092
Mof_H 	H 	0.93	0.9878	0.3864	0.064
Mof_C 	C 	0.95605	0.98991	0.33331	0.053
Mof_H 	H 	0.9794	0.9836	0.3334	0.004
Mof_C 	C 	0.91964	0.00488	0.3034	0.039
Mof_H 	H 	0.917	0.0092	0.282	0.013
Mof_C 	C 	0.94716	0.05412	0.20246	0.105
Mof_C 	C 	0.96152	0.073	0.26166	0.052
Mof_H 	H 	0.942	0.0722	0.2598	0.004
Mof_C 	C 	0.95577	0.10127	0.26927	-0.092
Mof_H 	H 	0.9328	0.1196	0.2726	0.065
Mof_C 	C 	0.98426	0.10312	0.2721	-0
Mof_H 	H 	0.981	0.1224	0.2776	0.041
Mof_C 	C 	0.0176	0.07566	0.26644	-0.044
Mof_C 	C 	0.0212	0.04762	0.25906	0.033
Mof_H 	H 	0.0439	0.0289	0.2557	0.015
Mof_C 	C 	0.04917	0.07681	0.26751	0.13
Mof_N 	N 	0.69531	0.01897	0.53015	-0.257
Mof_N 	N 	0.7904	0.0279	0.23886	-0.223
Mof_N 	N 	0.73794	0.01196	0.4571	-0.224
Mof_N 	N 	0.78996	0.03098	0.32928	-0.149
Mof_N 	N 	0.85226	0.02542	0.29962	-0.149
Mof_N 	N 	0.82502	0.01684	0.36276	-0.149
Mof_N 	N 	0.95268	0.99608	0.30276	-0.226
Mof_N 	N 	0.9645	0.03302	0.22062	-0.263
Mof_N 	N 	0.99377	0.04573	0.25645	-0.224
Mof_N 	N 	0.04643	0.10719	0.26767	-0.15
Mof_S 	S 	0.62139	0.03466	0.549	-0.059
Mof_S 	S 	0.92277	0.08377	0.17669	-0.061
Mof_C 	C 	0.04032	0.8137	0.43942	0.06
Mof_H 	H 	0.0417	0.8123	0.4603	-0
Mof_C 	C 	0.0511	0.83956	0.4074	-0.097
Mof_H 	H 	0.0598	0.8554	0.4064	0.065
Mof_C 	C 	0.0493	0.84248	0.37596	0.003
Mof_H 	H 	0.0561	0.8605	0.3535	0.039
Mof_C 	C 	0.03722	0.81774	0.37914	-0.044
Mof_C 	C 	0.02713	0.79227	0.41281	0.034
Mof_H 	H 	0.0192	0.7754	0.4146	0.014
Mof_C 	C 	0.02642	0.66402	0.27122	0.092
Mof_C 	C 	0.0154	0.76534	0.29402	0.032
Mof_H 	H 	0.0128	0.7876	0.2748	0.016
Mof_C 	C 	0.02265	0.76215	0.32205	-0.045
Mof_C 	C 	0.02639	0.72907	0.35069	0.005
Mof_H 	H 	0.0308	0.7262	0.3706	0.038
Mof_C 	C 	0.02357	0.70099	0.34915	-0.097
Mof_H 	H 	0.0265	0.6781	0.3677	0.064
Mof_C 	C 	0.01628	0.70664	0.31994	0.059
Mof_H 	H 	0.0143	0.6871	0.3193	-0.002
Mof_C 	C 	0.02389	0.79391	0.32249	0.132
Mof_C 	C 	0.01751	0.85329	0.29735	0.132
Mof_C 	C 	0.03154	0.81976	0.3487	0.131
Mof_C 	C 	0.00818	0.88858	0.26944	-0.048
Mof_C 	C 	0.00152	0.89248	0.24042	0.005
Mof_H 	H 	0.0033	0.8721	0.2377	0.039
Mof_C 	C 	0.99237	0.92649	0.21583	-0.093
Mof_H 	H 	0.9878	0.93	0.1958	0.064
Mof_C 	C 	0.98991	0.95605	0.22073	0.053
Mof_H 	H 	0.9836	0.9794	0.2036	0.004
Mof_C 	C 	0.00488	0.91964	0.27208	0.039
Mof_H 	H 	0.0092	0.917	0.2918	0.013
Mof_C 	C 	0.05412	0.94716	0.29626	0.105
Mof_C 	C 	0.073	0.96152	0.20382	0.052
Mof_H 	H 	0.0722	0.942	0.226	0.004
Mof_C 	C 	0.10127	0.95577	0.17369	-0.092
Mof_H 	H 	0.1196	0.9328	0.175	0.065
Mof_C 	C 	0.10312	0.98426	0.14052	-0
Mof_H 	H 	0.1224	0.981	0.119	0.041
Mof_C 	C 	0.07566	0.0176	0.1403	-0.044
Mof_C 	C 	0.04762	0.0212	0.17212	0.033
Mof_H 	H 	0.0289	0.0439	0.1715	0.015
Mof_C 	C 	0.07681	0.04917	0.10651	0.13
Mof_N 	N 	0.01897	0.69531	0.25557	-0.257
Mof_N 	N 	0.0279	0.7904	0.44284	-0.223
Mof_N 	N 	0.01196	0.73794	0.293	-0.224
Mof_N 	N 	0.03098	0.78996	0.34978	-0.149
Mof_N 	N 	0.02542	0.85226	0.3227	-0.149
Mof_N 	N 	0.01684	0.82502	0.29538	-0.149
Mof_N 	N 	0.99608	0.95268	0.24848	-0.226
Mof_N 	N 	0.03302	0.9645	0.28186	-0.263
Mof_N 	N 	0.04573	0.99377	0.20405	-0.224
Mof_N 	N 	0.10719	0.04643	0.07871	-0.15
Mof_S 	S 	0.03466	0.62139	0.29494	-0.059
Mof_S 	S 	0.08377	0.92277	0.31677	-0.061
Mof_C 	C 	0.8137	0.43942	0.04032	0.06
Mof_H 	H 	0.8123	0.4603	0.0417	-0
Mof_C 	C 	0.83956	0.4074	0.0511	-0.097
Mof_H 	H 	0.8554	0.4064	0.0598	0.065
Mof_C 	C 	0.84248	0.37596	0.0493	0.003
Mof_H 	H 	0.8605	0.3535	0.0561	0.039
Mof_C 	C 	0.81774	0.37914	0.03722	-0.044
Mof_C 	C 	0.79227	0.41281	0.02713	0.034
Mof_H 	H 	0.7754	0.4146	0.0192	0.014
Mof_C 	C 	0.66402	0.27122	0.02642	0.092
Mof_C 	C 	0.76534	0.29402	0.0154	0.032
Mof_H 	H 	0.7876	0.2748	0.0128	0.016
Mof_C 	C 	0.76215	0.32205	0.02265	-0.045
Mof_C 	C 	0.72907	0.35069	0.02639	0.005
Mof_H 	H 	0.7262	0.3706	0.0308	0.038
Mof_C 	C 	0.70099	0.34915	0.02357	-0.097
Mof_H 	H 	0.6781	0.3677	0.0265	0.064
Mof_C 	C 	0.70664	0.31994	0.01628	0.059
Mof_H 	H 	0.6871	0.3193	0.0143	-0.002
Mof_C 	C 	0.79391	0.32249	0.02389	0.132
Mof_C 	C 	0.85329	0.29735	0.01751	0.132
Mof_C 	C 	0.81976	0.3487	0.03154	0.131
Mof_C 	C 	0.88858	0.26944	0.00818	-0.048
Mof_C 	C 	0.89248	0.24042	0.00152	0.005
Mof_H 	H 	0.8721	0.2377	0.0033	0.039
Mof_C 	C 	0.92649	0.21583	0.99237	-0.093
Mof_H 	H 	0.93	0.1958	0.9878	0.064
Mof_C 	C 	0.95605	0.22073	0.98991	0.053
Mof_H 	H 	0.9794	0.2036	0.9836	0.004
Mof_C 	C 	0.91964	0.27208	0.00488	0.039
Mof_H 	H 	0.917	0.2918	0.0092	0.013
Mof_C 	C 	0.94716	0.29626	0.05412	0.105
Mof_C 	C 	0.96152	0.20382	0.073	0.052
Mof_H 	H 	0.942	0.226	0.0722	0.004
Mof_C 	C 	0.95577	0.17369	0.10127	-0.092
Mof_H 	H 	0.9328	0.175	0.1196	0.065
Mof_C 	C 	0.98426	0.14052	0.10312	-0
Mof_H 	H 	0.981	0.119	0.1224	0.041
Mof_C 	C 	0.0176	0.1403	0.07566	-0.044
Mof_C 	C 	0.0212	0.17212	0.04762	0.033
Mof_H 	H 	0.0439	0.1715	0.0289	0.015
Mof_C 	C 	0.04917	0.10651	0.07681	0.13
Mof_N 	N 	0.69531	0.25557	0.01897	-0.257
Mof_N 	N 	0.7904	0.44284	0.0279	-0.223
Mof_N 	N 	0.73794	0.293	0.01196	-0.224
Mof_N 	N 	0.78996	0.34978	0.03098	-0.149
Mof_N 	N 	0.85226	0.3227	0.02542	-0.149
Mof_N 	N 	0.82502	0.29538	0.01684	-0.149
Mof_N 	N 	0.95268	0.24848	0.99608	-0.226
Mof_N 	N 	0.9645	0.28186	0.03302	-0.263
Mof_N 	N 	0.99377	0.20405	0.04573	-0.224
Mof_N 	N 	0.04643	0.07871	0.10719	-0.15
Mof_S 	S 	0.62139	0.29494	0.03466	-0.059
Mof_S 	S 	0.92277	0.31677	0.08377	-0.061
Mof_C 	C 	0.04032	0.20656	0.8137	0.06
Mof_H 	H 	0.0417	0.1857	0.8123	-0
Mof_C 	C 	0.0511	0.20194	0.83956	-0.097
Mof_H 	H 	0.0598	0.1784	0.8554	0.065
Mof_C 	C 	0.0493	0.23226	0.84248	0.003
Mof_H 	H 	0.0561	0.2299	0.8605	0.039
Mof_C 	C 	0.03722	0.2659	0.81774	-0.044
Mof_C 	C 	0.02713	0.26779	0.79227	0.034
Mof_H 	H 	0.0192	0.2908	0.7754	0.014
Mof_C 	C 	0.02642	0.53834	0.66402	0.092
Mof_C 	C 	0.0154	0.42524	0.76534	0.032
Mof_H 	H 	0.0128	0.4248	0.7876	0.016
Mof_C 	C 	0.02265	0.39315	0.76215	-0.045
Mof_C 	C 	0.02639	0.39385	0.72907	0.005
Mof_H 	H 	0.0308	0.3724	0.7262	0.038
Mof_C 	C 	0.02357	0.42629	0.70099	-0.097
Mof_H 	H 	0.0265	0.4277	0.6781	0.064
Mof_C 	C 	0.01628	0.45714	0.70664	0.059
Mof_H 	H 	0.0143	0.4793	0.6871	-0.002
Mof_C 	C 	0.02389	0.35971	0.79391	0.132
Mof_C 	C 	0.01751	0.33185	0.85329	0.132
Mof_C 	C 	0.03154	0.3	0.81976	0.131
Mof_C 	C 	0.00818	0.3338	0.88858	-0.048
Mof_C 	C 	0.00152	0.36558	0.89248	0.005
Mof_H 	H 	0.0033	0.3869	0.8721	0.039
Mof_C 	C 	0.99237	0.36531	0.92649	-0.092
Mof_H 	H 	0.9878	0.3864	0.93	0.064
Mof_C 	C 	0.98991	0.33331	0.95605	0.053
Mof_H 	H 	0.9836	0.3334	0.9794	0.004
Mof_C 	C 	0.00488	0.3034	0.91964	0.039
Mof_H 	H 	0.0092	0.282	0.917	0.013
Mof_C 	C 	0.05412	0.20246	0.94716	0.105
Mof_C 	C 	0.073	0.26166	0.96152	0.052
Mof_H 	H 	0.0722	0.2598	0.942	0.004
Mof_C 	C 	0.10127	0.26927	0.95577	-0.092
Mof_H 	H 	0.1196	0.2726	0.9328	0.065
Mof_C 	C 	0.10312	0.2721	0.98426	-0
Mof_H 	H 	0.1224	0.2776	0.981	0.041
Mof_C 	C 	0.07566	0.26644	0.0176	-0.044
Mof_C 	C 	0.04762	0.25906	0.0212	0.033
Mof_H 	H 	0.0289	0.2557	0.0439	0.015
Mof_C 	C 	0.07681	0.26751	0.04917	0.13
Mof_N 	N 	0.01897	0.53015	0.69531	-0.257
Mof_N 	N 	0.0279	0.23886	0.7904	-0.223
Mof_N 	N 	0.01196	0.4571	0.73794	-0.224
Mof_N 	N 	0.03098	0.32928	0.78996	-0.149
Mof_N 	N 	0.02542	0.29962	0.85226	-0.149
Mof_N 	N 	0.01684	0.36276	0.82502	-0.149
Mof_N 	N 	0.99608	0.30276	0.95268	-0.226
Mof_N 	N 	0.03302	0.22062	0.9645	-0.263
Mof_N 	N 	0.04573	0.25645	0.99377	-0.224
Mof_N 	N 	0.10719	0.26767	0.04643	-0.15
Mof_S 	S 	0.03466	0.549	0.62139	-0.059
Mof_S 	S 	0.08377	0.17669	0.92277	-0.061
Mof_C 	C 	0.43942	0.8137	0.20656	0.06
Mof_H 	H 	0.4603	0.8123	0.1857	-0
Mof_C 	C 	0.4074	0.83956	0.20194	-0.097
Mof_H 	H 	0.4064	0.8554	0.1784	0.065
Mof_C 	C 	0.37596	0.84248	0.23226	0.003
Mof_H 	H 	0.3535	0.8605	0.2299	0.039
Mof_C 	C 	0.37914	0.81774	0.2659	-0.044
Mof_C 	C 	0.41281	0.79227	0.26779	0.034
Mof_H 	H 	0.4146	0.7754	0.2908	0.014
Mof_C 	C 	0.27122	0.66402	0.53834	0.092
Mof_C 	C 	0.29402	0.76534	0.42524	0.032
Mof_H 	H 	0.2748	0.7876	0.4248	0.016
Mof_C 	C 	0.32205	0.76215	0.39315	-0.045
Mof_C 	C 	0.35069	0.72907	0.39385	0.005
Mof_H 	H 	0.3706	0.7262	0.3724	0.038
Mof_C 	C 	0.34915	0.70099	0.42629	-0.097
Mof_H 	H 	0.3677	0.6781	0.4277	0.064
Mof_C 	C 	0.31994	0.70664	0.45714	0.059
Mof_H 	H 	0.3193	0.6871	0.4793	-0.002
Mof_C 	C 	0.32249	0.79391	0.35971	0.132
Mof_C 	C 	0.29735	0.85329	0.33185	0.132
Mof_C 	C 	0.3487	0.81976	0.3	0.131
Mof_C 	C 	0.26944	0.88858	0.3338	-0.048
Mof_C 	C 	0.24042	0.89248	0.36558	0.005
Mof_H 	H 	0.2377	0.8721	0.3869	0.039
Mof_C 	C 	0.21583	0.92649	0.36531	-0.093
Mof_H 	H 	0.1958	0.93	0.3864	0.064
Mof_C 	C 	0.22073	0.95605	0.33331	0.053
Mof_H 	H 	0.2036	0.9794	0.3334	0.004
Mof_C 	C 	0.27208	0.91964	0.3034	0.039
Mof_H 	H 	0.2918	0.917	0.282	0.013
Mof_C 	C 	0.29626	0.94716	0.20246	0.105
Mof_C 	C 	0.20382	0.96152	0.26166	0.052
Mof_H 	H 	0.226	0.942	0.2598	0.004
Mof_C 	C 	0.17369	0.95577	0.26927	-0.092
Mof_H 	H 	0.175	0.9328	0.2726	0.065
Mof_C 	C 	0.14052	0.98426	0.2721	-0
Mof_H 	H 	0.119	0.981	0.2776	0.041
Mof_C 	C 	0.1403	0.0176	0.26644	-0.044
Mof_C 	C 	0.17212	0.0212	0.25906	0.033
Mof_H 	H 	0.1715	0.0439	0.2557	0.015
Mof_C 	C 	0.10651	0.04917	0.26751	0.13
Mof_N 	N 	0.25557	0.69531	0.53015	-0.257
Mof_N 	N 	0.44284	0.7904	0.23886	-0.223
Mof_N 	N 	0.293	0.73794	0.4571	-0.224
Mof_N 	N 	0.34978	0.78996	0.32928	-0.149
Mof_N 	N 	0.3227	0.85226	0.29962	-0.149
Mof_N 	N 	0.29538	0.82502	0.36276	-0.149
Mof_N 	N 	0.24848	0.95268	0.30276	-0.226
Mof_N 	N 	0.28186	0.9645	0.22062	-0.263
Mof_N 	N 	0.20405	0.99377	0.25645	-0.224
Mof_N 	N 	0.07871	0.04643	0.26767	-0.15
Mof_S 	S 	0.29494	0.62139	0.549	-0.059
Mof_S 	S 	0.31677	0.92277	0.17669	-0.061
Mof_C 	C 	0.20656	0.04032	0.43942	0.06
Mof_H 	H 	0.1857	0.0417	0.4603	-0
Mof_C 	C 	0.20194	0.0511	0.4074	-0.097
Mof_H 	H 	0.1784	0.0598	0.4064	0.065
Mof_C 	C 	0.23226	0.0493	0.37596	0.003
Mof_H 	H 	0.2299	0.0561	0.3535	0.039
Mof_C 	C 	0.2659	0.03722	0.37914	-0.044
Mof_C 	C 	0.26779	0.02713	0.41281	0.034
Mof_H 	H 	0.2908	0.0192	0.4146	0.014
Mof_C 	C 	0.53834	0.02642	0.27122	0.092
Mof_C 	C 	0.42524	0.0154	0.29402	0.032
Mof_H 	H 	0.4248	0.0128	0.2748	0.016
Mof_C 	C 	0.39315	0.02265	0.32205	-0.045
Mof_C 	C 	0.39385	0.02639	0.35069	0.005
Mof_H 	H 	0.3724	0.0308	0.3706	0.038
Mof_C 	C 	0.42629	0.02357	0.34915	-0.097
Mof_H 	H 	0.4277	0.0265	0.3677	0.064
Mof_C 	C 	0.45714	0.01628	0.31994	0.059
Mof_H 	H 	0.4793	0.0143	0.3193	-0.002
Mof_C 	C 	0.35971	0.02389	0.32249	0.132
Mof_C 	C 	0.33185	0.01751	0.29735	0.132
Mof_C 	C 	0.3	0.03154	0.3487	0.131
Mof_C 	C 	0.3338	0.00818	0.26944	-0.048
Mof_C 	C 	0.36558	0.00152	0.24042	0.005
Mof_H 	H 	0.3869	0.0033	0.2377	0.039
Mof_C 	C 	0.36531	0.99237	0.21583	-0.093
Mof_H 	H 	0.3864	0.9878	0.1958	0.064
Mof_C 	C 	0.33331	0.98991	0.22073	0.053
Mof_H 	H 	0.3334	0.9836	0.2036	0.004
Mof_C 	C 	0.3034	0.00488	0.27208	0.039
Mof_H 	H 	0.282	0.0092	0.2918	0.013
Mof_C 	C 	0.20246	0.05412	0.29626	0.105
Mof_C 	C 	0.26166	0.073	0.20382	0.052
Mof_H 	H 	0.2598	0.0722	0.226	0.004
Mof_C 	C 	0.26927	0.10127	0.17369	-0.092
Mof_H 	H 	0.2726	0.1196	0.175	0.065
Mof_C 	C 	0.2721	0.10312	0.14052	-0
Mof_H 	H 	0.2776	0.1224	0.119	0.041
Mof_C 	C 	0.26644	0.07566	0.1403	-0.044
Mof_C 	C 	0.25906	0.04762	0.17212	0.033
Mof_H 	H 	0.2557	0.0289	0.1715	0.015
Mof_C 	C 	0.26751	0.07681	0.10651	0.13
Mof_N 	N 	0.53015	0.01897	0.25557	-0.257
Mof_N 	N 	0.23886	0.0279	0.44284	-0.223
Mof_N 	N 	0.4571	0.01196	0.293	-0.224
Mof_N 	N 	0.32928	0.03098	0.34978	-0.149
Mof_N 	N 	0.29962	0.02542	0.3227	-0.149
Mof_N 	N 	0.36276	0.01684	0.29538	-0.149
Mof_N 	N 	0.30276	0.99608	0.24848	-0.226
Mof_N 	N 	0.22062	0.03302	0.28186	-0.263
Mof_N 	N 	0.25645	0.04573	0.20405	-0.224
Mof_N 	N 	0.26767	0.10719	0.07871	-0.15
Mof_S 	S 	0.549	0.03466	0.29494	-0.059
Mof_S 	S 	0.17669	0.08377	0.31677	-0.061
Mof_C 	C 	0.20656	0.8137	0.04032	0.06
Mof_H 	H 	0.1857	0.8123	0.0417	-0
Mof_C 	C 	0.20194	0.83956	0.0511	-0.097
Mof_H 	H 	0.1784	0.8554	0.0598	0.065
Mof_C 	C 	0.23226	0.84248	0.0493	0.003
Mof_H 	H 	0.2299	0.8605	0.0561	0.039
Mof_C 	C 	0.2659	0.81774	0.03722	-0.044
Mof_C 	C 	0.26779	0.79227	0.02713	0.034
Mof_H 	H 	0.2908	0.7754	0.0192	0.014
Mof_C 	C 	0.53834	0.66402	0.02642	0.092
Mof_C 	C 	0.42524	0.76534	0.0154	0.032
Mof_H 	H 	0.4248	0.7876	0.0128	0.016
Mof_C 	C 	0.39315	0.76215	0.02265	-0.045
Mof_C 	C 	0.39385	0.72907	0.02639	0.005
Mof_H 	H 	0.3724	0.7262	0.0308	0.038
Mof_C 	C 	0.42629	0.70099	0.02357	-0.097
Mof_H 	H 	0.4277	0.6781	0.0265	0.064
Mof_C 	C 	0.45714	0.70664	0.01628	0.059
Mof_H 	H 	0.4793	0.6871	0.0143	-0.002
Mof_C 	C 	0.35971	0.79391	0.02389	0.132
Mof_C 	C 	0.33185	0.85329	0.01751	0.132
Mof_C 	C 	0.3	0.81976	0.03154	0.131
Mof_C 	C 	0.3338	0.88858	0.00818	-0.048
Mof_C 	C 	0.36558	0.89248	0.00152	0.005
Mof_H 	H 	0.3869	0.8721	0.0033	0.039
Mof_C 	C 	0.36531	0.92649	0.99237	-0.092
Mof_H 	H 	0.3864	0.93	0.9878	0.064
Mof_C 	C 	0.33331	0.95605	0.98991	0.053
Mof_H 	H 	0.3334	0.9794	0.9836	0.004
Mof_C 	C 	0.3034	0.91964	0.00488	0.039
Mof_H 	H 	0.282	0.917	0.0092	0.013
Mof_C 	C 	0.20246	0.94716	0.05412	0.105
Mof_C 	C 	0.26166	0.96152	0.073	0.052
Mof_H 	H 	0.2598	0.942	0.0722	0.004
Mof_C 	C 	0.26927	0.95577	0.10127	-0.092
Mof_H 	H 	0.2726	0.9328	0.1196	0.065
Mof_C 	C 	0.2721	0.98426	0.10312	-0
Mof_H 	H 	0.2776	0.981	0.1224	0.041
Mof_C 	C 	0.26644	0.0176	0.07566	-0.044
Mof_C 	C 	0.25906	0.0212	0.04762	0.033
Mof_H 	H 	0.2557	0.0439	0.0289	0.015
Mof_C 	C 	0.26751	0.04917	0.07681	0.13
Mof_N 	N 	0.53015	0.69531	0.01897	-0.257
Mof_N 	N 	0.23886	0.7904	0.0279	-0.223
Mof_N 	N 	0.4571	0.73794	0.01196	-0.224
Mof_N 	N 	0.32928	0.78996	0.03098	-0.149
Mof_N 	N 	0.29962	0.85226	0.02542	-0.149
Mof_N 	N 	0.36276	0.82502	0.01684	-0.149
Mof_N 	N 	0.30276	0.95268	0.99608	-0.226
Mof_N 	N 	0.22062	0.9645	0.03302	-0.263
Mof_N 	N 	0.25645	0.99377	0.04573	-0.224
Mof_N 	N 	0.26767	0.04643	0.10719	-0.15
Mof_S 	S 	0.549	0.62139	0.03466	-0.059
Mof_S 	S 	0.17669	0.92277	0.08377	-0.061
Mof_C 	C 	0.43942	0.04032	0.8137	0.06
Mof_H 	H 	0.4603	0.0417	0.8123	-0
Mof_C 	C 	0.4074	0.0511	0.83956	-0.097
Mof_H 	H 	0.4064	0.0598	0.8554	0.065
Mof_C 	C 	0.37596	0.0493	0.84248	0.003
Mof_H 	H 	0.3535	0.0561	0.8605	0.039
Mof_C 	C 	0.37914	0.03722	0.81774	-0.044
Mof_C 	C 	0.41281	0.02713	0.79227	0.034
Mof_H 	H 	0.4146	0.0192	0.7754	0.014
Mof_C 	C 	0.27122	0.02642	0.66402	0.092
Mof_C 	C 	0.29402	0.0154	0.76534	0.032
Mof_H 	H 	0.2748	0.0128	0.7876	0.016
Mof_C 	C 	0.32205	0.02265	0.76215	-0.045
Mof_C 	C 	0.35069	0.02639	0.72907	0.005
Mof_H 	H 	0.3706	0.0308	0.7262	0.038
Mof_C 	C 	0.34915	0.02357	0.70099	-0.097
Mof_H 	H 	0.3677	0.0265	0.6781	0.064
Mof_C 	C 	0.31994	0.01628	0.70664	0.059
Mof_H 	H 	0.3193	0.0143	0.6871	-0.002
Mof_C 	C 	0.32249	0.02389	0.79391	0.132
Mof_C 	C 	0.29735	0.01751	0.85329	0.132
Mof_C 	C 	0.3487	0.03154	0.81976	0.131
Mof_C 	C 	0.26944	0.00818	0.88858	-0.048
Mof_C 	C 	0.24042	0.00152	0.89248	0.005
Mof_H 	H 	0.2377	0.0033	0.8721	0.039
Mof_C 	C 	0.21583	0.99237	0.92649	-0.093
Mof_H 	H 	0.1958	0.9878	0.93	0.064
Mof_C 	C 	0.22073	0.98991	0.95605	0.053
Mof_H 	H 	0.2036	0.9836	0.9794	0.004
Mof_C 	C 	0.27208	0.00488	0.91964	0.039
Mof_H 	H 	0.2918	0.0092	0.917	0.013
Mof_C 	C 	0.29626	0.05412	0.94716	0.105
Mof_C 	C 	0.20382	0.073	0.96152	0.052
Mof_H 	H 	0.226	0.0722	0.942	0.004
Mof_C 	C 	0.17369	0.10127	0.95577	-0.092
Mof_H 	H 	0.175	0.1196	0.9328	0.065
Mof_C 	C 	0.14052	0.10312	0.98426	-0
Mof_H 	H 	0.119	0.1224	0.981	0.041
Mof_C 	C 	0.1403	0.07566	0.0176	-0.044
Mof_C 	C 	0.17212	0.04762	0.0212	0.033
Mof_H 	H 	0.1715	0.0289	0.0439	0.015
Mof_C 	C 	0.10651	0.07681	0.04917	0.13
Mof_N 	N 	0.25557	0.01897	0.69531	-0.257
Mof_N 	N 	0.44284	0.0279	0.7904	-0.223
Mof_N 	N 	0.293	0.01196	0.73794	-0.224
Mof_N 	N 	0.34978	0.03098	0.78996	-0.149
Mof_N 	N 	0.3227	0.02542	0.85226	-0.149
Mof_N 	N 	0.29538	0.01684	0.82502	-0.149
Mof_N 	N 	0.24848	0.99608	0.95268	-0.226
Mof_N 	N 	0.28186	0.03302	0.9645	-0.263
Mof_N 	N 	0.20405	0.04573	0.99377	-0.224
Mof_N 	N 	0.07871	0.10719	0.04643	-0.15
Mof_S 	S 	0.29494	0.03466	0.62139	-0.059
Mof_S 	S 	0.31677	0.08377	0.92277	-0.061
Mof_C 	C 	0.04032	0.43942	0.20656	0.06
Mof_H 	H 	0.0417	0.4603	0.1857	-0
Mof_C 	C 	0.0511	0.4074	0.20194	-0.097
Mof_H 	H 	0.0598	0.4064	0.1784	0.065
Mof_C 	C 	0.0493	0.37596	0.23226	0.003
Mof_H 	H 	0.0561	0.3535	0.2299	0.039
Mof_C 	C 	0.03722	0.37914	0.2659	-0.044
Mof_C 	C 	0.02713	0.41281	0.26779	0.034
Mof_H 	H 	0.0192	0.4146	0.2908	0.014
Mof_C 	C 	0.02642	0.27122	0.53834	0.092
Mof_C 	C 	0.0154	0.29402	0.42524	0.032
Mof_H 	H 	0.0128	0.2748	0.4248	0.016
Mof_C 	C 	0.02265	0.32205	0.39315	-0.045
Mof_C 	C 	0.02639	0.35069	0.39385	0.005
Mof_H 	H 	0.0308	0.3706	0.3724	0.038
Mof_C 	C 	0.02357	0.34915	0.42629	-0.097
Mof_H 	H 	0.0265	0.3677	0.4277	0.064
Mof_C 	C 	0.01628	0.31994	0.45714	0.059
Mof_H 	H 	0.0143	0.3193	0.4793	-0.002
Mof_C 	C 	0.02389	0.32249	0.35971	0.132
Mof_C 	C 	0.01751	0.29735	0.33185	0.132
Mof_C 	C 	0.03154	0.3487	0.3	0.131
Mof_C 	C 	0.00818	0.26944	0.3338	-0.048
Mof_C 	C 	0.00152	0.24042	0.36558	0.005
Mof_H 	H 	0.0033	0.2377	0.3869	0.039
Mof_C 	C 	0.99237	0.21583	0.36531	-0.093
Mof_H 	H 	0.9878	0.1958	0.3864	0.064
Mof_C 	C 	0.98991	0.22073	0.33331	0.053
Mof_H 	H 	0.9836	0.2036	0.3334	0.004
Mof_C 	C 	0.00488	0.27208	0.3034	0.039
Mof_H 	H 	0.0092	0.2918	0.282	0.013
Mof_C 	C 	0.05412	0.29626	0.20246	0.105
Mof_C 	C 	0.073	0.20382	0.26166	0.052
Mof_H 	H 	0.0722	0.226	0.2598	0.004
Mof_C 	C 	0.10127	0.17369	0.26927	-0.092
Mof_H 	H 	0.1196	0.175	0.2726	0.065
Mof_C 	C 	0.10312	0.14052	0.2721	-0
Mof_H 	H 	0.1224	0.119	0.2776	0.041
Mof_C 	C 	0.07566	0.1403	0.26644	-0.044
Mof_C 	C 	0.04762	0.17212	0.25906	0.033
Mof_H 	H 	0.0289	0.1715	0.2557	0.015
Mof_C 	C 	0.07681	0.10651	0.26751	0.13
Mof_N 	N 	0.01897	0.25557	0.53015	-0.257
Mof_N 	N 	0.0279	0.44284	0.23886	-0.223
Mof_N 	N 	0.01196	0.293	0.4571	-0.224
Mof_N 	N 	0.03098	0.34978	0.32928	-0.149
Mof_N 	N 	0.02542	0.3227	0.29962	-0.149
Mof_N 	N 	0.01684	0.29538	0.36276	-0.149
Mof_N 	N 	0.99608	0.24848	0.30276	-0.226
Mof_N 	N 	0.03302	0.28186	0.22062	-0.263
Mof_N 	N 	0.04573	0.20405	0.25645	-0.224
Mof_N 	N 	0.10719	0.07871	0.26767	-0.15
Mof_S 	S 	0.03466	0.29494	0.549	-0.059
Mof_S 	S 	0.08377	0.31677	0.17669	-0.061
Mof_C 	C 	0.8137	0.20656	0.43942	0.06
Mof_H 	H 	0.8123	0.1857	0.4603	-0
Mof_C 	C 	0.83956	0.20194	0.4074	-0.097
Mof_H 	H 	0.8554	0.1784	0.4064	0.065
Mof_C 	C 	0.84248	0.23226	0.37596	0.003
Mof_H 	H 	0.8605	0.2299	0.3535	0.039
Mof_C 	C 	0.81774	0.2659	0.37914	-0.044
Mof_C 	C 	0.79227	0.26779	0.41281	0.034
Mof_H 	H 	0.7754	0.2908	0.4146	0.014
Mof_C 	C 	0.66402	0.53834	0.27122	0.092
Mof_C 	C 	0.76534	0.42524	0.29402	0.032
Mof_H 	H 	0.7876	0.4248	0.2748	0.016
Mof_C 	C 	0.76215	0.39315	0.32205	-0.045
Mof_C 	C 	0.72907	0.39385	0.35069	0.005
Mof_H 	H 	0.7262	0.3724	0.3706	0.038
Mof_C 	C 	0.70099	0.42629	0.34915	-0.097
Mof_H 	H 	0.6781	0.4277	0.3677	0.064
Mof_C 	C 	0.70664	0.45714	0.31994	0.059
Mof_H 	H 	0.6871	0.4793	0.3193	-0.002
Mof_C 	C 	0.79391	0.35971	0.32249	0.132
Mof_C 	C 	0.85329	0.33185	0.29735	0.132
Mof_C 	C 	0.81976	0.3	0.3487	0.131
Mof_C 	C 	0.88858	0.3338	0.26944	-0.048
Mof_C 	C 	0.89248	0.36558	0.24042	0.005
Mof_H 	H 	0.8721	0.3869	0.2377	0.039
Mof_C 	C 	0.92649	0.36531	0.21583	-0.093
Mof_H 	H 	0.93	0.3864	0.1958	0.064
Mof_C 	C 	0.95605	0.33331	0.22073	0.053
Mof_H 	H 	0.9794	0.3334	0.2036	0.004
Mof_C 	C 	0.91964	0.3034	0.27208	0.039
Mof_H 	H 	0.917	0.282	0.2918	0.013
Mof_C 	C 	0.94716	0.20246	0.29626	0.105
Mof_C 	C 	0.96152	0.26166	0.20382	0.052
Mof_H 	H 	0.942	0.2598	0.226	0.004
Mof_C 	C 	0.95577	0.26927	0.17369	-0.092
Mof_H 	H 	0.9328	0.2726	0.175	0.065
Mof_C 	C 	0.98426	0.2721	0.14052	-0
Mof_H 	H 	0.981	0.2776	0.119	0.041
Mof_C 	C 	0.0176	0.26644	0.1403	-0.044
Mof_C 	C 	0.0212	0.25906	0.17212	0.033
Mof_H 	H 	0.0439	0.2557	0.1715	0.015
Mof_C 	C 	0.04917	0.26751	0.10651	0.13
Mof_N 	N 	0.69531	0.53015	0.25557	-0.257
Mof_N 	N 	0.7904	0.23886	0.44284	-0.223
Mof_N 	N 	0.73794	0.4571	0.293	-0.224
Mof_N 	N 	0.78996	0.32928	0.34978	-0.149
Mof_N 	N 	0.85226	0.29962	0.3227	-0.149
Mof_N 	N 	0.82502	0.36276	0.29538	-0.149
Mof_N 	N 	0.95268	0.30276	0.24848	-0.226
Mof_N 	N 	0.9645	0.22062	0.28186	-0.263
Mof_N 	N 	0.99377	0.25645	0.20405	-0.224
Mof_N 	N 	0.04643	0.26767	0.07871	-0.15
Mof_S 	S 	0.62139	0.549	0.29494	-0.059
Mof_S 	S 	0.92277	0.17669	0.31677	-0.061
Mof_C 	C 	0.93942	0.70656	0.3137	0.06
Mof_H 	H 	0.9603	0.6857	0.3123	-0
Mof_C 	C 	0.9074	0.70194	0.33956	-0.097
Mof_H 	H 	0.9064	0.6784	0.3554	0.065
Mof_C 	C 	0.87596	0.73226	0.34248	0.003
Mof_H 	H 	0.8535	0.7299	0.3605	0.039
Mof_C 	C 	0.87914	0.7659	0.31774	-0.044
Mof_C 	C 	0.91281	0.76779	0.29227	0.034
Mof_H 	H 	0.9146	0.7908	0.2754	0.014
Mof_C 	C 	0.77122	0.03834	0.16402	0.092
Mof_C 	C 	0.79402	0.92524	0.26534	0.032
Mof_H 	H 	0.7748	0.9248	0.2876	0.016
Mof_C 	C 	0.82205	0.89315	0.26215	-0.045
Mof_C 	C 	0.85069	0.89385	0.22907	0.005
Mof_H 	H 	0.8706	0.8724	0.2262	0.038
Mof_C 	C 	0.84915	0.92629	0.20099	-0.097
Mof_H 	H 	0.8677	0.9277	0.1781	0.064
Mof_C 	C 	0.81994	0.95714	0.20664	0.059
Mof_H 	H 	0.8193	0.9793	0.1871	-0.002
Mof_C 	C 	0.82249	0.85971	0.29391	0.132
Mof_C 	C 	0.79735	0.83185	0.35329	0.132
Mof_C 	C 	0.8487	0.8	0.31976	0.131
Mof_C 	C 	0.76944	0.8338	0.38858	-0.048
Mof_C 	C 	0.74042	0.86558	0.39248	0.005
Mof_H 	H 	0.7377	0.8869	0.3721	0.039
Mof_C 	C 	0.71583	0.86531	0.42649	-0.093
Mof_H 	H 	0.6958	0.8864	0.43	0.064
Mof_C 	C 	0.72073	0.83331	0.45605	0.053
Mof_H 	H 	0.7036	0.8334	0.4794	0.004
Mof_C 	C 	0.77208	0.8034	0.41964	0.039
Mof_H 	H 	0.7918	0.782	0.417	0.013
Mof_C 	C 	0.79626	0.70246	0.44716	0.105
Mof_C 	C 	0.70382	0.76166	0.46152	0.052
Mof_H 	H 	0.726	0.7598	0.442	0.004
Mof_C 	C 	0.67369	0.76927	0.45577	-0.092
Mof_H 	H 	0.675	0.7726	0.4328	0.065
Mof_C 	C 	0.64052	0.7721	0.48426	-0
Mof_H 	H 	0.619	0.7776	0.481	0.041
Mof_C 	C 	0.6403	0.76644	0.5176	-0.044
Mof_C 	C 	0.67212	0.75906	0.5212	0.033
Mof_H 	H 	0.6715	0.7557	0.5439	0.015
Mof_C 	C 	0.60651	0.76751	0.54917	0.13
Mof_N 	N 	0.75557	0.03015	0.19531	-0.257
Mof_N 	N 	0.94284	0.73886	0.2904	-0.223
Mof_N 	N 	0.793	0.9571	0.23794	-0.224
Mof_N 	N 	0.84978	0.82928	0.28996	-0.149
Mof_N 	N 	0.8227	0.79962	0.35226	-0.149
Mof_N 	N 	0.79538	0.86276	0.32502	-0.149
Mof_N 	N 	0.74848	0.80276	0.45268	-0.226
Mof_N 	N 	0.78186	0.72062	0.4645	-0.263
Mof_N 	N 	0.70405	0.75645	0.49377	-0.224
Mof_N 	N 	0.57871	0.76767	0.54643	-0.15
Mof_S 	S 	0.79494	0.049	0.12139	-0.059
Mof_S 	S 	0.81677	0.67669	0.42277	-0.061
Mof_C 	C 	0.70656	0.93942	0.54032	0.06
Mof_H 	H 	0.6857	0.9603	0.5417	-0
Mof_C 	C 	0.70194	0.9074	0.5511	-0.097
Mof_H 	H 	0.6784	0.9064	0.5598	0.065
Mof_C 	C 	0.73226	0.87596	0.5493	0.003
Mof_H 	H 	0.7299	0.8535	0.5561	0.039
Mof_C 	C 	0.7659	0.87914	0.53722	-0.044
Mof_C 	C 	0.76779	0.91281	0.52713	0.034
Mof_H 	H 	0.7908	0.9146	0.5192	0.014
Mof_C 	C 	0.03834	0.77122	0.52642	0.092
Mof_C 	C 	0.92524	0.79402	0.5154	0.032
Mof_H 	H 	0.9248	0.7748	0.5128	0.016
Mof_C 	C 	0.89315	0.82205	0.52265	-0.045
Mof_C 	C 	0.89385	0.85069	0.52639	0.005
Mof_H 	H 	0.8724	0.8706	0.5308	0.038
Mof_C 	C 	0.92629	0.84915	0.52357	-0.097
Mof_H 	H 	0.9277	0.8677	0.5265	0.064
Mof_C 	C 	0.95714	0.81994	0.51628	0.059
Mof_H 	H 	0.9793	0.8193	0.5143	-0.002
Mof_C 	C 	0.85971	0.82249	0.52389	0.132
Mof_C 	C 	0.83185	0.79735	0.51751	0.132
Mof_C 	C 	0.8	0.8487	0.53154	0.131
Mof_C 	C 	0.8338	0.76944	0.50818	-0.048
Mof_C 	C 	0.86558	0.74042	0.50152	0.005
Mof_H 	H 	0.8869	0.7377	0.5033	0.039
Mof_C 	C 	0.86531	0.71583	0.49237	-0.093
Mof_H 	H 	0.8864	0.6958	0.4878	0.064
Mof_C 	C 	0.83331	0.72073	0.48991	0.053
Mof_H 	H 	0.8334	0.7036	0.4836	0.004
Mof_C 	C 	0.8034	0.77208	0.50488	0.039
Mof_H 	H 	0.782	0.7918	0.5092	0.013
Mof_C 	C 	0.70246	0.79626	0.55412	0.105
Mof_C 	C 	0.76166	0.70382	0.573	0.052
Mof_H 	H 	0.7598	0.726	0.5722	0.004
Mof_C 	C 	0.76927	0.67369	0.60127	-0.092
Mof_H 	H 	0.7726	0.675	0.6196	0.065
Mof_C 	C 	0.7721	0.64052	0.60312	-0
Mof_H 	H 	0.7776	0.619	0.6224	0.041
Mof_C 	C 	0.76644	0.6403	0.57566	-0.044
Mof_C 	C 	0.75906	0.67212	0.54762	0.033
Mof_H 	H 	0.7557	0.6715	0.5289	0.015
Mof_C 	C 	0.76751	0.60651	0.57681	0.13
Mof_N 	N 	0.03015	0.75557	0.51897	-0.257
Mof_N 	N 	0.73886	0.94284	0.5279	-0.223
Mof_N 	N 	0.9571	0.793	0.51196	-0.224
Mof_N 	N 	0.82928	0.84978	0.53098	-0.149
Mof_N 	N 	0.79962	0.8227	0.52542	-0.149
Mof_N 	N 	0.86276	0.79538	0.51684	-0.149
Mof_N 	N 	0.80276	0.74848	0.49608	-0.226
Mof_N 	N 	0.72062	0.78186	0.53302	-0.263
Mof_N 	N 	0.75645	0.70405	0.54573	-0.224
Mof_N 	N 	0.76767	0.57871	0.60719	-0.15
Mof_S 	S 	0.049	0.79494	0.53466	-0.059
Mof_S 	S 	0.67669	0.81677	0.58377	-0.061
Mof_C 	C 	0.3137	0.54032	0.93942	0.06
Mof_H 	H 	0.3123	0.5417	0.9603	-0
Mof_C 	C 	0.33956	0.5511	0.9074	-0.097
Mof_H 	H 	0.3554	0.5598	0.9064	0.065
Mof_C 	C 	0.34248	0.5493	0.87596	0.003
Mof_H 	H 	0.3605	0.5561	0.8535	0.039
Mof_C 	C 	0.31774	0.53722	0.87914	-0.044
Mof_C 	C 	0.29227	0.52713	0.91281	0.034
Mof_H 	H 	0.2754	0.5192	0.9146	0.014
Mof_C 	C 	0.16402	0.52642	0.77122	0.092
Mof_C 	C 	0.26534	0.5154	0.79402	0.032
Mof_H 	H 	0.2876	0.5128	0.7748	0.016
Mof_C 	C 	0.26215	0.52265	0.82205	-0.045
Mof_C 	C 	0.22907	0.52639	0.85069	0.005
Mof_H 	H 	0.2262	0.5308	0.8706	0.038
Mof_C 	C 	0.20099	0.52357	0.84915	-0.097
Mof_H 	H 	0.1781	0.5265	0.8677	0.064
Mof_C 	C 	0.20664	0.51628	0.81994	0.059
Mof_H 	H 	0.1871	0.5143	0.8193	-0.002
Mof_C 	C 	0.29391	0.52389	0.82249	0.132
Mof_C 	C 	0.35329	0.51751	0.79735	0.132
Mof_C 	C 	0.31976	0.53154	0.8487	0.131
Mof_C 	C 	0.38858	0.50818	0.76944	-0.048
Mof_C 	C 	0.39248	0.50152	0.74042	0.005
Mof_H 	H 	0.3721	0.5033	0.7377	0.039
Mof_C 	C 	0.42649	0.49237	0.71583	-0.093
Mof_H 	H 	0.43	0.4878	0.6958	0.064
Mof_C 	C 	0.45605	0.48991	0.72073	0.053
Mof_H 	H 	0.4794	0.4836	0.7036	0.004
Mof_C 	C 	0.41964	0.50488	0.77208	0.039
Mof_H 	H 	0.417	0.5092	0.7918	0.013
Mof_C 	C 	0.44716	0.55412	0.79626	0.105
Mof_C 	C 	0.46152	0.573	0.70382	0.052
Mof_H 	H 	0.442	0.5722	0.726	0.004
Mof_C 	C 	0.45577	0.60127	0.67369	-0.092
Mof_H 	H 	0.4328	0.6196	0.675	0.065
Mof_C 	C 	0.48426	0.60312	0.64052	-0
Mof_H 	H 	0.481	0.6224	0.619	0.041
Mof_C 	C 	0.5176	0.57566	0.6403	-0.044
Mof_C 	C 	0.5212	0.54762	0.67212	0.033
Mof_H 	H 	0.5439	0.5289	0.6715	0.015
Mof_C 	C 	0.54917	0.57681	0.60651	0.13
Mof_N 	N 	0.19531	0.51897	0.75557	-0.257
Mof_N 	N 	0.2904	0.5279	0.94284	-0.223
Mof_N 	N 	0.23794	0.51196	0.793	-0.224
Mof_N 	N 	0.28996	0.53098	0.84978	-0.149
Mof_N 	N 	0.35226	0.52542	0.8227	-0.149
Mof_N 	N 	0.32502	0.51684	0.79538	-0.149
Mof_N 	N 	0.45268	0.49608	0.74848	-0.226
Mof_N 	N 	0.4645	0.53302	0.78186	-0.263
Mof_N 	N 	0.49377	0.54573	0.70405	-0.224
Mof_N 	N 	0.54643	0.60719	0.57871	-0.15
Mof_S 	S 	0.12139	0.53466	0.79494	-0.059
Mof_S 	S 	0.42277	0.58377	0.81677	-0.061
Mof_C 	C 	0.54032	0.3137	0.70656	0.06
Mof_H 	H 	0.5417	0.3123	0.6857	-0
Mof_C 	C 	0.5511	0.33956	0.70194	-0.097
Mof_H 	H 	0.5598	0.3554	0.6784	0.064
Mof_C 	C 	0.5493	0.34248	0.73226	0.003
Mof_H 	H 	0.5561	0.3605	0.7299	0.039
Mof_C 	C 	0.53722	0.31774	0.7659	-0.044
Mof_C 	C 	0.52713	0.29227	0.76779	0.034
Mof_H 	H 	0.5192	0.2754	0.7908	0.014
Mof_C 	C 	0.52642	0.16402	0.03834	0.092
Mof_C 	C 	0.5154	0.26534	0.92524	0.032
Mof_H 	H 	0.5128	0.2876	0.9248	0.016
Mof_C 	C 	0.52265	0.26215	0.89315	-0.045
Mof_C 	C 	0.52639	0.22907	0.89385	0.005
Mof_H 	H 	0.5308	0.2262	0.8724	0.038
Mof_C 	C 	0.52357	0.20099	0.92629	-0.097
Mof_H 	H 	0.5265	0.1781	0.9277	0.064
Mof_C 	C 	0.51628	0.20664	0.95714	0.059
Mof_H 	H 	0.5143	0.1871	0.9793	-0.002
Mof_C 	C 	0.52389	0.29391	0.85971	0.132
Mof_C 	C 	0.51751	0.35329	0.83185	0.132
Mof_C 	C 	0.53154	0.31976	0.8	0.131
Mof_C 	C 	0.50818	0.38858	0.8338	-0.048
Mof_C 	C 	0.50152	0.39248	0.86558	0.005
Mof_H 	H 	0.5033	0.3721	0.8869	0.039
Mof_C 	C 	0.49237	0.42649	0.86531	-0.093
Mof_H 	H 	0.4878	0.43	0.8864	0.064
Mof_C 	C 	0.48991	0.45605	0.83331	0.053
Mof_H 	H 	0.4836	0.4794	0.8334	0.004
Mof_C 	C 	0.50488	0.41964	0.8034	0.039
Mof_H 	H 	0.5092	0.417	0.782	0.013
Mof_C 	C 	0.55412	0.44716	0.70246	0.105
Mof_C 	C 	0.573	0.46152	0.76166	0.052
Mof_H 	H 	0.5722	0.442	0.7598	0.004
Mof_C 	C 	0.60127	0.45577	0.76927	-0.092
Mof_H 	H 	0.6196	0.4328	0.7726	0.065
Mof_C 	C 	0.60312	0.48426	0.7721	-0
Mof_H 	H 	0.6224	0.481	0.7776	0.041
Mof_C 	C 	0.57566	0.5176	0.76644	-0.044
Mof_C 	C 	0.54762	0.5212	0.75906	0.033
Mof_H 	H 	0.5289	0.5439	0.7557	0.015
Mof_C 	C 	0.57681	0.54917	0.76751	0.13
Mof_N 	N 	0.51897	0.19531	0.03015	-0.257
Mof_N 	N 	0.5279	0.2904	0.73886	-0.223
Mof_N 	N 	0.51196	0.23794	0.9571	-0.224
Mof_N 	N 	0.53098	0.28996	0.82928	-0.149
Mof_N 	N 	0.52542	0.35226	0.79962	-0.149
Mof_N 	N 	0.51684	0.32502	0.86276	-0.149
Mof_N 	N 	0.49608	0.45268	0.80276	-0.226
Mof_N 	N 	0.53302	0.4645	0.72062	-0.263
Mof_N 	N 	0.54573	0.49377	0.75645	-0.224
Mof_N 	N 	0.60719	0.54643	0.76767	-0.15
Mof_S 	S 	0.53466	0.12139	0.049	-0.059
Mof_S 	S 	0.58377	0.42277	0.67669	-0.061
Mof_C 	C 	0.3137	0.93942	0.70656	0.06
Mof_H 	H 	0.3123	0.9603	0.6857	-0
Mof_C 	C 	0.33956	0.9074	0.70194	-0.097
Mof_H 	H 	0.3554	0.9064	0.6784	0.065
Mof_C 	C 	0.34248	0.87596	0.73226	0.003
Mof_H 	H 	0.3605	0.8535	0.7299	0.039
Mof_C 	C 	0.31774	0.87914	0.7659	-0.044
Mof_C 	C 	0.29227	0.91281	0.76779	0.034
Mof_H 	H 	0.2754	0.9146	0.7908	0.014
Mof_C 	C 	0.16402	0.77122	0.03834	0.092
Mof_C 	C 	0.26534	0.79402	0.92524	0.032
Mof_H 	H 	0.2876	0.7748	0.9248	0.016
Mof_C 	C 	0.26215	0.82205	0.89315	-0.045
Mof_C 	C 	0.22907	0.85069	0.89385	0.005
Mof_H 	H 	0.2262	0.8706	0.8724	0.038
Mof_C 	C 	0.20099	0.84915	0.92629	-0.097
Mof_H 	H 	0.1781	0.8677	0.9277	0.064
Mof_C 	C 	0.20664	0.81994	0.95714	0.059
Mof_H 	H 	0.1871	0.8193	0.9793	-0.002
Mof_C 	C 	0.29391	0.82249	0.85971	0.132
Mof_C 	C 	0.35329	0.79735	0.83185	0.132
Mof_C 	C 	0.31976	0.8487	0.8	0.131
Mof_C 	C 	0.38858	0.76944	0.8338	-0.048
Mof_C 	C 	0.39248	0.74042	0.86558	0.005
Mof_H 	H 	0.3721	0.7377	0.8869	0.039
Mof_C 	C 	0.42649	0.71583	0.86531	-0.093
Mof_H 	H 	0.43	0.6958	0.8864	0.064
Mof_C 	C 	0.45605	0.72073	0.83331	0.053
Mof_H 	H 	0.4794	0.7036	0.8334	0.004
Mof_C 	C 	0.41964	0.77208	0.8034	0.039
Mof_H 	H 	0.417	0.7918	0.782	0.013
Mof_C 	C 	0.44716	0.79626	0.70246	0.105
Mof_C 	C 	0.46152	0.70382	0.76166	0.052
Mof_H 	H 	0.442	0.726	0.7598	0.004
Mof_C 	C 	0.45577	0.67369	0.76927	-0.092
Mof_H 	H 	0.4328	0.675	0.7726	0.065
Mof_C 	C 	0.48426	0.64052	0.7721	-0
Mof_H 	H 	0.481	0.619	0.7776	0.041
Mof_C 	C 	0.5176	0.6403	0.76644	-0.044
Mof_C 	C 	0.5212	0.67212	0.75906	0.033
Mof_H 	H 	0.5439	0.6715	0.7557	0.015
Mof_C 	C 	0.54917	0.60651	0.76751	0.13
Mof_N 	N 	0.19531	0.75557	0.03015	-0.257
Mof_N 	N 	0.2904	0.94284	0.73886	-0.223
Mof_N 	N 	0.23794	0.793	0.9571	-0.224
Mof_N 	N 	0.28996	0.84978	0.82928	-0.149
Mof_N 	N 	0.35226	0.8227	0.79962	-0.149
Mof_N 	N 	0.32502	0.79538	0.86276	-0.149
Mof_N 	N 	0.45268	0.74848	0.80276	-0.226
Mof_N 	N 	0.4645	0.78186	0.72062	-0.263
Mof_N 	N 	0.49377	0.70405	0.75645	-0.224
Mof_N 	N 	0.54643	0.57871	0.76767	-0.15
Mof_S 	S 	0.12139	0.79494	0.049	-0.059
Mof_S 	S 	0.42277	0.81677	0.67669	-0.061
Mof_C 	C 	0.54032	0.70656	0.93942	0.06
Mof_H 	H 	0.5417	0.6857	0.9603	-0
Mof_C 	C 	0.5511	0.70194	0.9074	-0.097
Mof_H 	H 	0.5598	0.6784	0.9064	0.065
Mof_C 	C 	0.5493	0.73226	0.87596	0.003
Mof_H 	H 	0.5561	0.7299	0.8535	0.039
Mof_C 	C 	0.53722	0.7659	0.87914	-0.044
Mof_C 	C 	0.52713	0.76779	0.91281	0.034
Mof_H 	H 	0.5192	0.7908	0.9146	0.014
Mof_C 	C 	0.52642	0.03834	0.77122	0.092
Mof_C 	C 	0.5154	0.92524	0.79402	0.032
Mof_H 	H 	0.5128	0.9248	0.7748	0.016
Mof_C 	C 	0.52265	0.89315	0.82205	-0.045
Mof_C 	C 	0.52639	0.89385	0.85069	0.005
Mof_H 	H 	0.5308	0.8724	0.8706	0.038
Mof_C 	C 	0.52357	0.92629	0.84915	-0.097
Mof_H 	H 	0.5265	0.9277	0.8677	0.064
Mof_C 	C 	0.51628	0.95714	0.81994	0.059
Mof_H 	H 	0.5143	0.9793	0.8193	-0.002
Mof_C 	C 	0.52389	0.85971	0.82249	0.132
Mof_C 	C 	0.51751	0.83185	0.79735	0.132
Mof_C 	C 	0.53154	0.8	0.8487	0.131
Mof_C 	C 	0.50818	0.8338	0.76944	-0.048
Mof_C 	C 	0.50152	0.86558	0.74042	0.005
Mof_H 	H 	0.5033	0.8869	0.7377	0.039
Mof_C 	C 	0.49237	0.86531	0.71583	-0.093
Mof_H 	H 	0.4878	0.8864	0.6958	0.064
Mof_C 	C 	0.48991	0.83331	0.72073	0.053
Mof_H 	H 	0.4836	0.8334	0.7036	0.004
Mof_C 	C 	0.50488	0.8034	0.77208	0.039
Mof_H 	H 	0.5092	0.782	0.7918	0.013
Mof_C 	C 	0.55412	0.70246	0.79626	0.105
Mof_C 	C 	0.573	0.76166	0.70382	0.052
Mof_H 	H 	0.5722	0.7598	0.726	0.004
Mof_C 	C 	0.60127	0.76927	0.67369	-0.092
Mof_H 	H 	0.6196	0.7726	0.675	0.065
Mof_C 	C 	0.60312	0.7721	0.64052	-0
Mof_H 	H 	0.6224	0.7776	0.619	0.041
Mof_C 	C 	0.57566	0.76644	0.6403	-0.044
Mof_C 	C 	0.54762	0.75906	0.67212	0.033
Mof_H 	H 	0.5289	0.7557	0.6715	0.015
Mof_C 	C 	0.57681	0.76751	0.60651	0.13
Mof_N 	N 	0.51897	0.03015	0.75557	-0.257
Mof_N 	N 	0.5279	0.73886	0.94284	-0.223
Mof_N 	N 	0.51196	0.9571	0.793	-0.224
Mof_N 	N 	0.53098	0.82928	0.84978	-0.149
Mof_N 	N 	0.52542	0.79962	0.8227	-0.149
Mof_N 	N 	0.51684	0.86276	0.79538	-0.149
Mof_N 	N 	0.49608	0.80276	0.74848	-0.226
Mof_N 	N 	0.53302	0.72062	0.78186	-0.263
Mof_N 	N 	0.54573	0.75645	0.70405	-0.224
Mof_N 	N 	0.60719	0.76767	0.57871	-0.15
Mof_S 	S 	0.53466	0.049	0.79494	-0.059
Mof_S 	S 	0.58377	0.67669	0.81677	-0.061
Mof_C 	C 	0.93942	0.3137	0.54032	0.06
Mof_H 	H 	0.9603	0.3123	0.5417	-0
Mof_C 	C 	0.9074	0.33956	0.5511	-0.097
Mof_H 	H 	0.9064	0.3554	0.5598	0.065
Mof_C 	C 	0.87596	0.34248	0.5493	0.003
Mof_H 	H 	0.8535	0.3605	0.5561	0.039
Mof_C 	C 	0.87914	0.31774	0.53722	-0.044
Mof_C 	C 	0.91281	0.29227	0.52713	0.034
Mof_H 	H 	0.9146	0.2754	0.5192	0.014
Mof_C 	C 	0.77122	0.16402	0.52642	0.092
Mof_C 	C 	0.79402	0.26534	0.5154	0.032
Mof_H 	H 	0.7748	0.2876	0.5128	0.016
Mof_C 	C 	0.82205	0.26215	0.52265	-0.045
Mof_C 	C 	0.85069	0.22907	0.52639	0.005
Mof_H 	H 	0.8706	0.2262	0.5308	0.038
Mof_C 	C 	0.84915	0.20099	0.52357	-0.097
Mof_H 	H 	0.8677	0.1781	0.5265	0.064
Mof_C 	C 	0.81994	0.20664	0.51628	0.059
Mof_H 	H 	0.8193	0.1871	0.5143	-0.002
Mof_C 	C 	0.82249	0.29391	0.52389	0.132
Mof_C 	C 	0.79735	0.35329	0.51751	0.132
Mof_C 	C 	0.8487	0.31976	0.53154	0.131
Mof_C 	C 	0.76944	0.38858	0.50818	-0.048
Mof_C 	C 	0.74042	0.39248	0.50152	0.005
Mof_H 	H 	0.7377	0.3721	0.5033	0.039
Mof_C 	C 	0.71583	0.42649	0.49237	-0.093
Mof_H 	H 	0.6958	0.43	0.4878	0.064
Mof_C 	C 	0.72073	0.45605	0.48991	0.053
Mof_H 	H 	0.7036	0.4794	0.4836	0.004
Mof_C 	C 	0.77208	0.41964	0.50488	0.039
Mof_H 	H 	0.7918	0.417	0.5092	0.013
Mof_C 	C 	0.79626	0.44716	0.55412	0.105
Mof_C 	C 	0.70382	0.46152	0.573	0.052
Mof_H 	H 	0.726	0.442	0.5722	0.004
Mof_C 	C 	0.67369	0.45577	0.60127	-0.092
Mof_H 	H 	0.675	0.4328	0.6196	0.065
Mof_C 	C 	0.64052	0.48426	0.60312	-0
Mof_H 	H 	0.619	0.481	0.6224	0.041
Mof_C 	C 	0.6403	0.5176	0.57566	-0.044
Mof_C 	C 	0.67212	0.5212	0.54762	0.033
Mof_H 	H 	0.6715	0.5439	0.5289	0.015
Mof_C 	C 	0.60651	0.54917	0.57681	0.13
Mof_N 	N 	0.75557	0.19531	0.51897	-0.257
Mof_N 	N 	0.94284	0.2904	0.5279	-0.223
Mof_N 	N 	0.793	0.23794	0.51196	-0.224
Mof_N 	N 	0.84978	0.28996	0.53098	-0.149
Mof_N 	N 	0.8227	0.35226	0.52542	-0.149
Mof_N 	N 	0.79538	0.32502	0.51684	-0.149
Mof_N 	N 	0.74848	0.45268	0.49608	-0.226
Mof_N 	N 	0.78186	0.4645	0.53302	-0.263
Mof_N 	N 	0.70405	0.49377	0.54573	-0.224
Mof_N 	N 	0.57871	0.54643	0.60719	-0.15
Mof_S 	S 	0.79494	0.12139	0.53466	-0.059
Mof_S 	S 	0.81677	0.42277	0.58377	-0.061
Mof_C 	C 	0.70656	0.54032	0.3137	0.06
Mof_H 	H 	0.6857	0.5417	0.3123	-0
Mof_C 	C 	0.70194	0.5511	0.33956	-0.097
Mof_H 	H 	0.6784	0.5598	0.3554	0.064
Mof_C 	C 	0.73226	0.5493	0.34248	0.003
Mof_H 	H 	0.7299	0.5561	0.3605	0.039
Mof_C 	C 	0.7659	0.53722	0.31774	-0.044
Mof_C 	C 	0.76779	0.52713	0.29227	0.034
Mof_H 	H 	0.7908	0.5192	0.2754	0.014
Mof_C 	C 	0.03834	0.52642	0.16402	0.092
Mof_C 	C 	0.92524	0.5154	0.26534	0.032
Mof_H 	H 	0.9248	0.5128	0.2876	0.016
Mof_C 	C 	0.89315	0.52265	0.26215	-0.045
Mof_C 	C 	0.89385	0.52639	0.22907	0.005
Mof_H 	H 	0.8724	0.5308	0.2262	0.038
Mof_C 	C 	0.92629	0.52357	0.20099	-0.097
Mof_H 	H 	0.9277	0.5265	0.1781	0.064
Mof_C 	C 	0.95714	0.51628	0.20664	0.059
Mof_H 	H 	0.9793	0.5143	0.1871	-0.002
Mof_C 	C 	0.85971	0.52389	0.29391	0.132
Mof_C 	C 	0.83185	0.51751	0.35329	0.132
Mof_C 	C 	0.8	0.53154	0.31976	0.131
Mof_C 	C 	0.8338	0.50818	0.38858	-0.048
Mof_C 	C 	0.86558	0.50152	0.39248	0.005
Mof_H 	H 	0.8869	0.5033	0.3721	0.039
Mof_C 	C 	0.86531	0.49237	0.42649	-0.093
Mof_H 	H 	0.8864	0.4878	0.43	0.064
Mof_C 	C 	0.83331	0.48991	0.45605	0.053
Mof_H 	H 	0.8334	0.4836	0.4794	0.004
Mof_C 	C 	0.8034	0.50488	0.41964	0.039
Mof_H 	H 	0.782	0.5092	0.417	0.013
Mof_C 	C 	0.70246	0.55412	0.44716	0.105
Mof_C 	C 	0.76166	0.573	0.46152	0.052
Mof_H 	H 	0.7598	0.5722	0.442	0.004
Mof_C 	C 	0.76927	0.60127	0.45577	-0.092
Mof_H 	H 	0.7726	0.6196	0.4328	0.065
Mof_C 	C 	0.7721	0.60312	0.48426	-0
Mof_H 	H 	0.7776	0.6224	0.481	0.041
Mof_C 	C 	0.76644	0.57566	0.5176	-0.044
Mof_C 	C 	0.75906	0.54762	0.5212	0.033
Mof_H 	H 	0.7557	0.5289	0.5439	0.015
Mof_C 	C 	0.76751	0.57681	0.54917	0.13
Mof_N 	N 	0.03015	0.51897	0.19531	-0.257
Mof_N 	N 	0.73886	0.5279	0.2904	-0.223
Mof_N 	N 	0.9571	0.51196	0.23794	-0.224
Mof_N 	N 	0.82928	0.53098	0.28996	-0.149
Mof_N 	N 	0.79962	0.52542	0.35226	-0.149
Mof_N 	N 	0.86276	0.51684	0.32502	-0.149
Mof_N 	N 	0.80276	0.49608	0.45268	-0.226
Mof_N 	N 	0.72062	0.53302	0.4645	-0.263
Mof_N 	N 	0.75645	0.54573	0.49377	-0.224
Mof_N 	N 	0.76767	0.60719	0.54643	-0.15
Mof_S 	S 	0.049	0.53466	0.12139	-0.059
Mof_S 	S 	0.67669	0.58377	0.42277	-0.061
Mof_C 	C 	0.70656	0.3137	0.93942	0.06
Mof_H 	H 	0.6857	0.3123	0.9603	-0
Mof_C 	C 	0.70194	0.33956	0.9074	-0.097
Mof_H 	H 	0.6784	0.3554	0.9064	0.065
Mof_C 	C 	0.73226	0.34248	0.87596	0.003
Mof_H 	H 	0.7299	0.3605	0.8535	0.039
Mof_C 	C 	0.7659	0.31774	0.87914	-0.044
Mof_C 	C 	0.76779	0.29227	0.91281	0.034
Mof_H 	H 	0.7908	0.2754	0.9146	0.014
Mof_C 	C 	0.03834	0.16402	0.77122	0.092
Mof_C 	C 	0.92524	0.26534	0.79402	0.032
Mof_H 	H 	0.9248	0.2876	0.7748	0.016
Mof_C 	C 	0.89315	0.26215	0.82205	-0.045
Mof_C 	C 	0.89385	0.22907	0.85069	0.005
Mof_H 	H 	0.8724	0.2262	0.8706	0.038
Mof_C 	C 	0.92629	0.20099	0.84915	-0.097
Mof_H 	H 	0.9277	0.1781	0.8677	0.064
Mof_C 	C 	0.95714	0.20664	0.81994	0.059
Mof_H 	H 	0.9793	0.1871	0.8193	-0.002
Mof_C 	C 	0.85971	0.29391	0.82249	0.132
Mof_C 	C 	0.83185	0.35329	0.79735	0.132
Mof_C 	C 	0.8	0.31976	0.8487	0.131
Mof_C 	C 	0.8338	0.38858	0.76944	-0.048
Mof_C 	C 	0.86558	0.39248	0.74042	0.005
Mof_H 	H 	0.8869	0.3721	0.7377	0.039
Mof_C 	C 	0.86531	0.42649	0.71583	-0.093
Mof_H 	H 	0.8864	0.43	0.6958	0.064
Mof_C 	C 	0.83331	0.45605	0.72073	0.053
Mof_H 	H 	0.8334	0.4794	0.7036	0.004
Mof_C 	C 	0.8034	0.41964	0.77208	0.039
Mof_H 	H 	0.782	0.417	0.7918	0.013
Mof_C 	C 	0.70246	0.44716	0.79626	0.105
Mof_C 	C 	0.76166	0.46152	0.70382	0.052
Mof_H 	H 	0.7598	0.442	0.726	0.004
Mof_C 	C 	0.76927	0.45577	0.67369	-0.092
Mof_H 	H 	0.7726	0.4328	0.675	0.065
Mof_C 	C 	0.7721	0.48426	0.64052	-0
Mof_H 	H 	0.7776	0.481	0.619	0.041
Mof_C 	C 	0.76644	0.5176	0.6403	-0.044
Mof_C 	C 	0.75906	0.5212	0.67212	0.033
Mof_H 	H 	0.7557	0.5439	0.6715	0.015
Mof_C 	C 	0.76751	0.54917	0.60651	0.13
Mof_N 	N 	0.03015	0.19531	0.75557	-0.257
Mof_N 	N 	0.73886	0.2904	0.94284	-0.223
Mof_N 	N 	0.9571	0.23794	0.793	-0.224
Mof_N 	N 	0.82928	0.28996	0.84978	-0.149
Mof_N 	N 	0.79962	0.35226	0.8227	-0.149
Mof_N 	N 	0.86276	0.32502	0.79538	-0.149
Mof_N 	N 	0.80276	0.45268	0.74848	-0.226
Mof_N 	N 	0.72062	0.4645	0.78186	-0.263
Mof_N 	N 	0.75645	0.49377	0.70405	-0.224
Mof_N 	N 	0.76767	0.54643	0.57871	-0.15
Mof_S 	S 	0.049	0.12139	0.79494	-0.059
Mof_S 	S 	0.67669	0.42277	0.81677	-0.061
Mof_C 	C 	0.93942	0.54032	0.70656	0.06
Mof_H 	H 	0.9603	0.5417	0.6857	-0
Mof_C 	C 	0.9074	0.5511	0.70194	-0.097
Mof_H 	H 	0.9064	0.5598	0.6784	0.065
Mof_C 	C 	0.87596	0.5493	0.73226	0.003
Mof_H 	H 	0.8535	0.5561	0.7299	0.039
Mof_C 	C 	0.87914	0.53722	0.7659	-0.044
Mof_C 	C 	0.91281	0.52713	0.76779	0.034
Mof_H 	H 	0.9146	0.5192	0.7908	0.014
Mof_C 	C 	0.77122	0.52642	0.03834	0.092
Mof_C 	C 	0.79402	0.5154	0.92524	0.032
Mof_H 	H 	0.7748	0.5128	0.9248	0.016
Mof_C 	C 	0.82205	0.52265	0.89315	-0.045
Mof_C 	C 	0.85069	0.52639	0.89385	0.005
Mof_H 	H 	0.8706	0.5308	0.8724	0.038
Mof_C 	C 	0.84915	0.52357	0.92629	-0.097
Mof_H 	H 	0.8677	0.5265	0.9277	0.064
Mof_C 	C 	0.81994	0.51628	0.95714	0.059
Mof_H 	H 	0.8193	0.5143	0.9793	-0.002
Mof_C 	C 	0.82249	0.52389	0.85971	0.132
Mof_C 	C 	0.79735	0.51751	0.83185	0.132
Mof_C 	C 	0.8487	0.53154	0.8	0.131
Mof_C 	C 	0.76944	0.50818	0.8338	-0.048
Mof_C 	C 	0.74042	0.50152	0.86558	0.005
Mof_H 	H 	0.7377	0.5033	0.8869	0.039
Mof_C 	C 	0.71583	0.49237	0.86531	-0.093
Mof_H 	H 	0.6958	0.4878	0.8864	0.064
Mof_C 	C 	0.72073	0.48991	0.83331	0.053
Mof_H 	H 	0.7036	0.4836	0.8334	0.004
Mof_C 	C 	0.77208	0.50488	0.8034	0.039
Mof_H 	H 	0.7918	0.5092	0.782	0.013
Mof_C 	C 	0.79626	0.55412	0.70246	0.105
Mof_C 	C 	0.70382	0.573	0.76166	0.052
Mof_H 	H 	0.726	0.5722	0.7598	0.004
Mof_C 	C 	0.67369	0.60127	0.76927	-0.092
Mof_H 	H 	0.675	0.6196	0.7726	0.065
Mof_C 	C 	0.64052	0.60312	0.7721	-0
Mof_H 	H 	0.619	0.6224	0.7776	0.041
Mof_C 	C 	0.6403	0.57566	0.76644	-0.044
Mof_C 	C 	0.67212	0.54762	0.75906	0.033
Mof_H 	H 	0.6715	0.5289	0.7557	0.015
Mof_C 	C 	0.60651	0.57681	0.76751	0.13
Mof_N 	N 	0.75557	0.51897	0.03015	-0.257
Mof_N 	N 	0.94284	0.5279	0.73886	-0.223
Mof_N 	N 	0.793	0.51196	0.9571	-0.224
Mof_N 	N 	0.84978	0.53098	0.82928	-0.149
Mof_N 	N 	0.8227	0.52542	0.79962	-0.149
Mof_N 	N 	0.79538	0.51684	0.86276	-0.149
Mof_N 	N 	0.74848	0.49608	0.80276	-0.226
Mof_N 	N 	0.78186	0.53302	0.72062	-0.263
Mof_N 	N 	0.70405	0.54573	0.75645	-0.224
Mof_N 	N 	0.57871	0.60719	0.76767	-0.15
Mof_S 	S 	0.79494	0.53466	0.049	-0.059
Mof_S 	S 	0.81677	0.58377	0.67669	-0.061
Mof_C 	C 	0.54032	0.93942	0.3137	0.06
Mof_H 	H 	0.5417	0.9603	0.3123	-0
Mof_C 	C 	0.5511	0.9074	0.33956	-0.097
Mof_H 	H 	0.5598	0.9064	0.3554	0.065
Mof_C 	C 	0.5493	0.87596	0.34248	0.003
Mof_H 	H 	0.5561	0.8535	0.3605	0.039
Mof_C 	C 	0.53722	0.87914	0.31774	-0.044
Mof_C 	C 	0.52713	0.91281	0.29227	0.034
Mof_H 	H 	0.5192	0.9146	0.2754	0.014
Mof_C 	C 	0.52642	0.77122	0.16402	0.092
Mof_C 	C 	0.5154	0.79402	0.26534	0.032
Mof_H 	H 	0.5128	0.7748	0.2876	0.016
Mof_C 	C 	0.52265	0.82205	0.26215	-0.045
Mof_C 	C 	0.52639	0.85069	0.22907	0.005
Mof_H 	H 	0.5308	0.8706	0.2262	0.038
Mof_C 	C 	0.52357	0.84915	0.20099	-0.097
Mof_H 	H 	0.5265	0.8677	0.1781	0.064
Mof_C 	C 	0.51628	0.81994	0.20664	0.059
Mof_H 	H 	0.5143	0.8193	0.1871	-0.002
Mof_C 	C 	0.52389	0.82249	0.29391	0.132
Mof_C 	C 	0.51751	0.79735	0.35329	0.132
Mof_C 	C 	0.53154	0.8487	0.31976	0.131
Mof_C 	C 	0.50818	0.76944	0.38858	-0.048
Mof_C 	C 	0.50152	0.74042	0.39248	0.005
Mof_H 	H 	0.5033	0.7377	0.3721	0.039
Mof_C 	C 	0.49237	0.71583	0.42649	-0.093
Mof_H 	H 	0.4878	0.6958	0.43	0.064
Mof_C 	C 	0.48991	0.72073	0.45605	0.053
Mof_H 	H 	0.4836	0.7036	0.4794	0.004
Mof_C 	C 	0.50488	0.77208	0.41964	0.039
Mof_H 	H 	0.5092	0.7918	0.417	0.013
Mof_C 	C 	0.55412	0.79626	0.44716	0.105
Mof_C 	C 	0.573	0.70382	0.46152	0.052
Mof_H 	H 	0.5722	0.726	0.442	0.004
Mof_C 	C 	0.60127	0.67369	0.45577	-0.092
Mof_H 	H 	0.6196	0.675	0.4328	0.065
Mof_C 	C 	0.60312	0.64052	0.48426	-0
Mof_H 	H 	0.6224	0.619	0.481	0.041
Mof_C 	C 	0.57566	0.6403	0.5176	-0.044
Mof_C 	C 	0.54762	0.67212	0.5212	0.033
Mof_H 	H 	0.5289	0.6715	0.5439	0.015
Mof_C 	C 	0.57681	0.60651	0.54917	0.13
Mof_N 	N 	0.51897	0.75557	0.19531	-0.257
Mof_N 	N 	0.5279	0.94284	0.2904	-0.223
Mof_N 	N 	0.51196	0.793	0.23794	-0.224
Mof_N 	N 	0.53098	0.84978	0.28996	-0.149
Mof_N 	N 	0.52542	0.8227	0.35226	-0.149
Mof_N 	N 	0.51684	0.79538	0.32502	-0.149
Mof_N 	N 	0.49608	0.74848	0.45268	-0.226
Mof_N 	N 	0.53302	0.78186	0.4645	-0.263
Mof_N 	N 	0.54573	0.70405	0.49377	-0.224
Mof_N 	N 	0.60719	0.57871	0.54643	-0.15
Mof_S 	S 	0.53466	0.79494	0.12139	-0.059
Mof_S 	S 	0.58377	0.81677	0.42277	-0.061
Mof_C 	C 	0.3137	0.70656	0.54032	0.06
Mof_H 	H 	0.3123	0.6857	0.5417	-0
Mof_C 	C 	0.33956	0.70194	0.5511	-0.097
Mof_H 	H 	0.3554	0.6784	0.5598	0.064
Mof_C 	C 	0.34248	0.73226	0.5493	0.003
Mof_H 	H 	0.3605	0.7299	0.5561	0.039
Mof_C 	C 	0.31774	0.7659	0.53722	-0.044
Mof_C 	C 	0.29227	0.76779	0.52713	0.034
Mof_H 	H 	0.2754	0.7908	0.5192	0.014
Mof_C 	C 	0.16402	0.03834	0.52642	0.092
Mof_C 	C 	0.26534	0.92524	0.5154	0.032
Mof_H 	H 	0.2876	0.9248	0.5128	0.016
Mof_C 	C 	0.26215	0.89315	0.52265	-0.045
Mof_C 	C 	0.22907	0.89385	0.52639	0.005
Mof_H 	H 	0.2262	0.8724	0.5308	0.038
Mof_C 	C 	0.20099	0.92629	0.52357	-0.097
Mof_H 	H 	0.1781	0.9277	0.5265	0.064
Mof_C 	C 	0.20664	0.95714	0.51628	0.059
Mof_H 	H 	0.1871	0.9793	0.5143	-0.002
Mof_C 	C 	0.29391	0.85971	0.52389	0.132
Mof_C 	C 	0.35329	0.83185	0.51751	0.132
Mof_C 	C 	0.31976	0.8	0.53154	0.131
Mof_C 	C 	0.38858	0.8338	0.50818	-0.048
Mof_C 	C 	0.39248	0.86558	0.50152	0.005
Mof_H 	H 	0.3721	0.8869	0.5033	0.039
Mof_C 	C 	0.42649	0.86531	0.49237	-0.093
Mof_H 	H 	0.43	0.8864	0.4878	0.064
Mof_C 	C 	0.45605	0.83331	0.48991	0.053
Mof_H 	H 	0.4794	0.8334	0.4836	0.004
Mof_C 	C 	0.41964	0.8034	0.50488	0.039
Mof_H 	H 	0.417	0.782	0.5092	0.013
Mof_C 	C 	0.44716	0.70246	0.55412	0.105
Mof_C 	C 	0.46152	0.76166	0.573	0.052
Mof_H 	H 	0.442	0.7598	0.5722	0.004
Mof_C 	C 	0.45577	0.76927	0.60127	-0.092
Mof_H 	H 	0.4328	0.7726	0.6196	0.065
Mof_C 	C 	0.48426	0.7721	0.60312	-0
Mof_H 	H 	0.481	0.7776	0.6224	0.041
Mof_C 	C 	0.5176	0.76644	0.57566	-0.044
Mof_C 	C 	0.5212	0.75906	0.54762	0.033
Mof_H 	H 	0.5439	0.7557	0.5289	0.015
Mof_C 	C 	0.54917	0.76751	0.57681	0.13
Mof_N 	N 	0.19531	0.03015	0.51897	-0.257
Mof_N 	N 	0.2904	0.73886	0.5279	-0.223
Mof_N 	N 	0.23794	0.9571	0.51196	-0.224
Mof_N 	N 	0.28996	0.82928	0.53098	-0.149
Mof_N 	N 	0.35226	0.79962	0.52542	-0.149
Mof_N 	N 	0.32502	0.86276	0.51684	-0.149
Mof_N 	N 	0.45268	0.80276	0.49608	-0.226
Mof_N 	N 	0.4645	0.72062	0.53302	-0.263
Mof_N 	N 	0.49377	0.75645	0.54573	-0.224
Mof_N 	N 	0.54643	0.76767	0.60719	-0.15
Mof_S 	S 	0.12139	0.049	0.53466	-0.059
Mof_S 	S 	0.42277	0.67669	0.58377	-0.061
Mof_C 	C 	0.56058	0.79344	0.95968	0.06
Mof_H 	H 	0.5397	0.8143	0.9583	-0
Mof_C 	C 	0.5926	0.79806	0.9489	-0.097
Mof_H 	H 	0.5936	0.8216	0.9402	0.065
Mof_C 	C 	0.62404	0.76774	0.9507	0.003
Mof_H 	H 	0.6465	0.7701	0.9439	0.039
Mof_C 	C 	0.62086	0.7341	0.96278	-0.044
Mof_C 	C 	0.58719	0.73221	0.97287	0.034
Mof_H 	H 	0.5854	0.7092	0.9808	0.014
Mof_C 	C 	0.72878	0.46166	0.97358	0.092
Mof_C 	C 	0.70598	0.57476	0.9846	0.032
Mof_H 	H 	0.7252	0.5752	0.9872	0.016
Mof_C 	C 	0.67795	0.60685	0.97735	-0.045
Mof_C 	C 	0.64931	0.60615	0.97361	0.005
Mof_H 	H 	0.6294	0.6276	0.9692	0.038
Mof_C 	C 	0.65085	0.57371	0.97643	-0.097
Mof_H 	H 	0.6323	0.5723	0.9735	0.064
Mof_C 	C 	0.68006	0.54286	0.98372	0.059
Mof_H 	H 	0.6807	0.5207	0.9857	-0.002
Mof_C 	C 	0.67751	0.64029	0.97611	0.132
Mof_C 	C 	0.70265	0.66815	0.98249	0.132
Mof_C 	C 	0.6513	0.7	0.96846	0.131
Mof_C 	C 	0.73056	0.6662	0.99182	-0.048
Mof_C 	C 	0.75958	0.63442	0.99848	0.005
Mof_H 	H 	0.7623	0.6131	0.9967	0.039
Mof_C 	C 	0.78417	0.63469	0.00763	-0.093
Mof_H 	H 	0.8042	0.6136	0.0122	0.064
Mof_C 	C 	0.77927	0.66669	0.01009	0.053
Mof_H 	H 	0.7964	0.6666	0.0164	0.004
Mof_C 	C 	0.72792	0.6966	0.99512	0.039
Mof_H 	H 	0.7082	0.718	0.9908	0.013
Mof_C 	C 	0.70374	0.79754	0.94588	0.105
Mof_C 	C 	0.79618	0.73834	0.927	0.052
Mof_H 	H 	0.774	0.7402	0.9278	0.004
Mof_C 	C 	0.82631	0.73073	0.89873	-0.092
Mof_H 	H 	0.825	0.7274	0.8804	0.065
Mof_C 	C 	0.85948	0.7279	0.89688	-0
Mof_H 	H 	0.881	0.7224	0.8776	0.041
Mof_C 	C 	0.8597	0.73356	0.92434	-0.044
Mof_C 	C 	0.82788	0.74094	0.95238	0.033
Mof_H 	H 	0.8285	0.7443	0.9711	0.015
Mof_C 	C 	0.89349	0.73249	0.92319	0.13
Mof_N 	N 	0.74443	0.46985	0.98103	-0.257
Mof_N 	N 	0.55716	0.76114	0.9721	-0.223
Mof_N 	N 	0.707	0.5429	0.98804	-0.224
Mof_N 	N 	0.65022	0.67072	0.96902	-0.149
Mof_N 	N 	0.6773	0.70038	0.97458	-0.149
Mof_N 	N 	0.70462	0.63724	0.98316	-0.149
Mof_N 	N 	0.75152	0.69724	0.00392	-0.226
Mof_N 	N 	0.71814	0.77938	0.96698	-0.263
Mof_N 	N 	0.79595	0.74355	0.95427	-0.224
Mof_N 	N 	0.92129	0.73233	0.89281	-0.15
Mof_S 	S 	0.70506	0.451	0.96534	-0.059
Mof_S 	S 	0.68323	0.82331	0.91623	-0.061
Mof_C 	C 	0.79344	0.56058	0.1863	0.06
Mof_H 	H 	0.8143	0.5397	0.1877	-0
Mof_C 	C 	0.79806	0.5926	0.16044	-0.097
Mof_H 	H 	0.8216	0.5936	0.1446	0.065
Mof_C 	C 	0.76774	0.62404	0.15752	0.003
Mof_H 	H 	0.7701	0.6465	0.1395	0.039
Mof_C 	C 	0.7341	0.62086	0.18226	-0.044
Mof_C 	C 	0.73221	0.58719	0.20773	0.034
Mof_H 	H 	0.7092	0.5854	0.2246	0.014
Mof_C 	C 	0.46166	0.72878	0.33598	0.092
Mof_C 	C 	0.57476	0.70598	0.23466	0.032
Mof_H 	H 	0.5752	0.7252	0.2124	0.016
Mof_C 	C 	0.60685	0.67795	0.23785	-0.045
Mof_C 	C 	0.60615	0.64931	0.27093	0.005
Mof_H 	H 	0.6276	0.6294	0.2738	0.038
Mof_C 	C 	0.57371	0.65085	0.29901	-0.097
Mof_H 	H 	0.5723	0.6323	0.3219	0.064
Mof_C 	C 	0.54286	0.68006	0.29336	0.059
Mof_H 	H 	0.5207	0.6807	0.3129	-0.002
Mof_C 	C 	0.64029	0.67751	0.20609	0.132
Mof_C 	C 	0.66815	0.70265	0.14671	0.132
Mof_C 	C 	0.7	0.6513	0.18024	0.131
Mof_C 	C 	0.6662	0.73056	0.11142	-0.048
Mof_C 	C 	0.63442	0.75958	0.10752	0.005
Mof_H 	H 	0.6131	0.7623	0.1279	0.039
Mof_C 	C 	0.63469	0.78417	0.07351	-0.093
Mof_H 	H 	0.6136	0.8042	0.07	0.064
Mof_C 	C 	0.66669	0.77927	0.04395	0.053
Mof_H 	H 	0.6666	0.7964	0.0206	0.004
Mof_C 	C 	0.6966	0.72792	0.08036	0.039
Mof_H 	H 	0.718	0.7082	0.083	0.013
Mof_C 	C 	0.79754	0.70374	0.05284	0.105
Mof_C 	C 	0.73834	0.79618	0.03848	0.052
Mof_H 	H 	0.7402	0.774	0.058	0.004
Mof_C 	C 	0.73073	0.82631	0.04423	-0.092
Mof_H 	H 	0.7274	0.825	0.0672	0.065
Mof_C 	C 	0.7279	0.85948	0.01574	-0
Mof_H 	H 	0.7224	0.881	0.019	0.041
Mof_C 	C 	0.73356	0.8597	0.9824	-0.044
Mof_C 	C 	0.74094	0.82788	0.9788	0.033
Mof_H 	H 	0.7443	0.8285	0.9561	0.015
Mof_C 	C 	0.73249	0.89349	0.95083	0.13
Mof_N 	N 	0.46985	0.74443	0.30469	-0.257
Mof_N 	N 	0.76114	0.55716	0.2096	-0.223
Mof_N 	N 	0.5429	0.707	0.26206	-0.224
Mof_N 	N 	0.67072	0.65022	0.21004	-0.149
Mof_N 	N 	0.70038	0.6773	0.14774	-0.149
Mof_N 	N 	0.63724	0.70462	0.17498	-0.149
Mof_N 	N 	0.69724	0.75152	0.04732	-0.226
Mof_N 	N 	0.77938	0.71814	0.0355	-0.263
Mof_N 	N 	0.74355	0.79595	0.00623	-0.224
Mof_N 	N 	0.73233	0.92129	0.95357	-0.15
Mof_S 	S 	0.451	0.70506	0.37861	-0.059
Mof_S 	S 	0.82331	0.68323	0.07723	-0.061
Mof_C 	C 	0.1863	0.95968	0.79344	0.06
Mof_H 	H 	0.1877	0.9583	0.8143	-0
Mof_C 	C 	0.16044	0.9489	0.79806	-0.097
Mof_H 	H 	0.1446	0.9402	0.8216	0.065
Mof_C 	C 	0.15752	0.9507	0.76774	0.003
Mof_H 	H 	0.1395	0.9439	0.7701	0.039
Mof_C 	C 	0.18226	0.96278	0.7341	-0.044
Mof_C 	C 	0.20773	0.97287	0.73221	0.034
Mof_H 	H 	0.2246	0.9808	0.7092	0.014
Mof_C 	C 	0.33598	0.97358	0.46166	0.092
Mof_C 	C 	0.23466	0.9846	0.57476	0.032
Mof_H 	H 	0.2124	0.9872	0.5752	0.016
Mof_C 	C 	0.23785	0.97735	0.60685	-0.045
Mof_C 	C 	0.27093	0.97361	0.60615	0.005
Mof_H 	H 	0.2738	0.9692	0.6276	0.038
Mof_C 	C 	0.29901	0.97643	0.57371	-0.097
Mof_H 	H 	0.3219	0.9735	0.5723	0.064
Mof_C 	C 	0.29336	0.98372	0.54286	0.059
Mof_H 	H 	0.3129	0.9857	0.5207	-0.002
Mof_C 	C 	0.20609	0.97611	0.64029	0.132
Mof_C 	C 	0.14671	0.98249	0.66815	0.132
Mof_C 	C 	0.18024	0.96846	0.7	0.131
Mof_C 	C 	0.11142	0.99182	0.6662	-0.048
Mof_C 	C 	0.10752	0.99848	0.63442	0.005
Mof_H 	H 	0.1279	0.9967	0.6131	0.039
Mof_C 	C 	0.07351	0.00763	0.63469	-0.092
Mof_H 	H 	0.07	0.0122	0.6136	0.064
Mof_C 	C 	0.04395	0.01009	0.66669	0.053
Mof_H 	H 	0.0206	0.0164	0.6666	0.004
Mof_C 	C 	0.08036	0.99512	0.6966	0.039
Mof_H 	H 	0.083	0.9908	0.718	0.013
Mof_C 	C 	0.05284	0.94588	0.79754	0.105
Mof_C 	C 	0.03848	0.927	0.73834	0.052
Mof_H 	H 	0.058	0.9278	0.7402	0.004
Mof_C 	C 	0.04423	0.89873	0.73073	-0.092
Mof_H 	H 	0.0672	0.8804	0.7274	0.065
Mof_C 	C 	0.01574	0.89688	0.7279	-0
Mof_H 	H 	0.019	0.8776	0.7224	0.041
Mof_C 	C 	0.9824	0.92434	0.73356	-0.044
Mof_C 	C 	0.9788	0.95238	0.74094	0.033
Mof_H 	H 	0.9561	0.9711	0.7443	0.015
Mof_C 	C 	0.95083	0.92319	0.73249	0.13
Mof_N 	N 	0.30469	0.98103	0.46985	-0.257
Mof_N 	N 	0.2096	0.9721	0.76114	-0.223
Mof_N 	N 	0.26206	0.98804	0.5429	-0.224
Mof_N 	N 	0.21004	0.96902	0.67072	-0.149
Mof_N 	N 	0.14774	0.97458	0.70038	-0.149
Mof_N 	N 	0.17498	0.98316	0.63724	-0.149
Mof_N 	N 	0.04732	0.00392	0.69724	-0.226
Mof_N 	N 	0.0355	0.96698	0.77938	-0.263
Mof_N 	N 	0.00623	0.95427	0.74355	-0.224
Mof_N 	N 	0.95357	0.89281	0.73233	-0.15
Mof_S 	S 	0.37861	0.96534	0.451	-0.059
Mof_S 	S 	0.07723	0.91623	0.82331	-0.061
Mof_C 	C 	0.95968	0.1863	0.56058	0.06
Mof_H 	H 	0.9583	0.1877	0.5397	-0
Mof_C 	C 	0.9489	0.16044	0.5926	-0.097
Mof_H 	H 	0.9402	0.1446	0.5936	0.065
Mof_C 	C 	0.9507	0.15752	0.62404	0.003
Mof_H 	H 	0.9439	0.1395	0.6465	0.039
Mof_C 	C 	0.96278	0.18226	0.62086	-0.044
Mof_C 	C 	0.97287	0.20773	0.58719	0.034
Mof_H 	H 	0.9808	0.2246	0.5854	0.014
Mof_C 	C 	0.97358	0.33598	0.72878	0.092
Mof_C 	C 	0.9846	0.23466	0.70598	0.032
Mof_H 	H 	0.9872	0.2124	0.7252	0.016
Mof_C 	C 	0.97735	0.23785	0.67795	-0.045
Mof_C 	C 	0.97361	0.27093	0.64931	0.005
Mof_H 	H 	0.9692	0.2738	0.6294	0.038
Mof_C 	C 	0.97643	0.29901	0.65085	-0.097
Mof_H 	H 	0.9735	0.3219	0.6323	0.064
Mof_C 	C 	0.98372	0.29336	0.68006	0.059
Mof_H 	H 	0.9857	0.3129	0.6807	-0.002
Mof_C 	C 	0.97611	0.20609	0.67751	0.132
Mof_C 	C 	0.98249	0.14671	0.70265	0.132
Mof_C 	C 	0.96846	0.18024	0.6513	0.131
Mof_C 	C 	0.99182	0.11142	0.73056	-0.048
Mof_C 	C 	0.99848	0.10752	0.75958	0.005
Mof_H 	H 	0.9967	0.1279	0.7623	0.039
Mof_C 	C 	0.00763	0.07351	0.78417	-0.093
Mof_H 	H 	0.0122	0.07	0.8042	0.064
Mof_C 	C 	0.01009	0.04395	0.77927	0.053
Mof_H 	H 	0.0164	0.0206	0.7964	0.004
Mof_C 	C 	0.99512	0.08036	0.72792	0.039
Mof_H 	H 	0.9908	0.083	0.7082	0.013
Mof_C 	C 	0.94588	0.05284	0.70374	0.105
Mof_C 	C 	0.927	0.03848	0.79618	0.052
Mof_H 	H 	0.9278	0.058	0.774	0.004
Mof_C 	C 	0.89873	0.04423	0.82631	-0.092
Mof_H 	H 	0.8804	0.0672	0.825	0.065
Mof_C 	C 	0.89688	0.01574	0.85948	-0
Mof_H 	H 	0.8776	0.019	0.881	0.041
Mof_C 	C 	0.92434	0.9824	0.8597	-0.044
Mof_C 	C 	0.95238	0.9788	0.82788	0.033
Mof_H 	H 	0.9711	0.9561	0.8285	0.015
Mof_C 	C 	0.92319	0.95083	0.89349	0.13
Mof_N 	N 	0.98103	0.30469	0.74443	-0.257
Mof_N 	N 	0.9721	0.2096	0.55716	-0.223
Mof_N 	N 	0.98804	0.26206	0.707	-0.224
Mof_N 	N 	0.96902	0.21004	0.65022	-0.149
Mof_N 	N 	0.97458	0.14774	0.6773	-0.149
Mof_N 	N 	0.98316	0.17498	0.70462	-0.149
Mof_N 	N 	0.00392	0.04732	0.75152	-0.226
Mof_N 	N 	0.96698	0.0355	0.71814	-0.263
Mof_N 	N 	0.95427	0.00623	0.79595	-0.224
Mof_N 	N 	0.89281	0.95357	0.92129	-0.15
Mof_S 	S 	0.96534	0.37861	0.70506	-0.059
Mof_S 	S 	0.91623	0.07723	0.68323	-0.061
Mof_C 	C 	0.1863	0.56058	0.95968	0.06
Mof_H 	H 	0.1877	0.5397	0.9583	-0
Mof_C 	C 	0.16044	0.5926	0.9489	-0.097
Mof_H 	H 	0.1446	0.5936	0.9402	0.065
Mof_C 	C 	0.15752	0.62404	0.9507	0.003
Mof_H 	H 	0.1395	0.6465	0.9439	0.039
Mof_C 	C 	0.18226	0.62086	0.96278	-0.044
Mof_C 	C 	0.20773	0.58719	0.97287	0.034
Mof_H 	H 	0.2246	0.5854	0.9808	0.014
Mof_C 	C 	0.33598	0.72878	0.97358	0.092
Mof_C 	C 	0.23466	0.70598	0.9846	0.032
Mof_H 	H 	0.2124	0.7252	0.9872	0.016
Mof_C 	C 	0.23785	0.67795	0.97735	-0.045
Mof_C 	C 	0.27093	0.64931	0.97361	0.005
Mof_H 	H 	0.2738	0.6294	0.9692	0.038
Mof_C 	C 	0.29901	0.65085	0.97643	-0.097
Mof_H 	H 	0.3219	0.6323	0.9735	0.064
Mof_C 	C 	0.29336	0.68006	0.98372	0.059
Mof_H 	H 	0.3129	0.6807	0.9857	-0.002
Mof_C 	C 	0.20609	0.67751	0.97611	0.132
Mof_C 	C 	0.14671	0.70265	0.98249	0.132
Mof_C 	C 	0.18024	0.6513	0.96846	0.131
Mof_C 	C 	0.11142	0.73056	0.99182	-0.048
Mof_C 	C 	0.10752	0.75958	0.99848	0.005
Mof_H 	H 	0.1279	0.7623	0.9967	0.039
Mof_C 	C 	0.07351	0.78417	0.00763	-0.093
Mof_H 	H 	0.07	0.8042	0.0122	0.064
Mof_C 	C 	0.04395	0.77927	0.01009	0.053
Mof_H 	H 	0.0206	0.7964	0.0164	0.004
Mof_C 	C 	0.08036	0.72792	0.99512	0.039
Mof_H 	H 	0.083	0.7082	0.9908	0.013
Mof_C 	C 	0.05284	0.70374	0.94588	0.105
Mof_C 	C 	0.03848	0.79618	0.927	0.052
Mof_H 	H 	0.058	0.774	0.9278	0.004
Mof_C 	C 	0.04423	0.82631	0.89873	-0.092
Mof_H 	H 	0.0672	0.825	0.8804	0.065
Mof_C 	C 	0.01574	0.85948	0.89688	-0
Mof_H 	H 	0.019	0.881	0.8776	0.041
Mof_C 	C 	0.9824	0.8597	0.92434	-0.044
Mof_C 	C 	0.9788	0.82788	0.95238	0.033
Mof_H 	H 	0.9561	0.8285	0.9711	0.015
Mof_C 	C 	0.95083	0.89349	0.92319	0.13
Mof_N 	N 	0.30469	0.74443	0.98103	-0.257
Mof_N 	N 	0.2096	0.55716	0.9721	-0.223
Mof_N 	N 	0.26206	0.707	0.98804	-0.224
Mof_N 	N 	0.21004	0.65022	0.96902	-0.149
Mof_N 	N 	0.14774	0.6773	0.97458	-0.149
Mof_N 	N 	0.17498	0.70462	0.98316	-0.149
Mof_N 	N 	0.04732	0.75152	0.00392	-0.226
Mof_N 	N 	0.0355	0.71814	0.96698	-0.263
Mof_N 	N 	0.00623	0.79595	0.95427	-0.224
Mof_N 	N 	0.95357	0.92129	0.89281	-0.15
Mof_S 	S 	0.37861	0.70506	0.96534	-0.059
Mof_S 	S 	0.07723	0.68323	0.91623	-0.061
Mof_C 	C 	0.95968	0.79344	0.1863	0.06
Mof_H 	H 	0.9583	0.8143	0.1877	-0
Mof_C 	C 	0.9489	0.79806	0.16044	-0.097
Mof_H 	H 	0.9402	0.8216	0.1446	0.065
Mof_C 	C 	0.9507	0.76774	0.15752	0.003
Mof_H 	H 	0.9439	0.7701	0.1395	0.039
Mof_C 	C 	0.96278	0.7341	0.18226	-0.044
Mof_C 	C 	0.97287	0.73221	0.20773	0.034
Mof_H 	H 	0.9808	0.7092	0.2246	0.014
Mof_C 	C 	0.97358	0.46166	0.33598	0.092
Mof_C 	C 	0.9846	0.57476	0.23466	0.032
Mof_H 	H 	0.9872	0.5752	0.2124	0.016
Mof_C 	C 	0.97735	0.60685	0.23785	-0.045
Mof_C 	C 	0.97361	0.60615	0.27093	0.005
Mof_H 	H 	0.9692	0.6276	0.2738	0.038
Mof_C 	C 	0.97643	0.57371	0.29901	-0.097
Mof_H 	H 	0.9735	0.5723	0.3219	0.064
Mof_C 	C 	0.98372	0.54286	0.29336	0.059
Mof_H 	H 	0.9857	0.5207	0.3129	-0.002
Mof_C 	C 	0.97611	0.64029	0.20609	0.132
Mof_C 	C 	0.98249	0.66815	0.14671	0.132
Mof_C 	C 	0.96846	0.7	0.18024	0.131
Mof_C 	C 	0.99182	0.6662	0.11142	-0.048
Mof_C 	C 	0.99848	0.63442	0.10752	0.005
Mof_H 	H 	0.9967	0.6131	0.1279	0.039
Mof_C 	C 	0.00763	0.63469	0.07351	-0.092
Mof_H 	H 	0.0122	0.6136	0.07	0.064
Mof_C 	C 	0.01009	0.66669	0.04395	0.053
Mof_H 	H 	0.0164	0.6666	0.0206	0.004
Mof_C 	C 	0.99512	0.6966	0.08036	0.039
Mof_H 	H 	0.9908	0.718	0.083	0.013
Mof_C 	C 	0.94588	0.79754	0.05284	0.105
Mof_C 	C 	0.927	0.73834	0.03848	0.052
Mof_H 	H 	0.9278	0.7402	0.058	0.004
Mof_C 	C 	0.89873	0.73073	0.04423	-0.092
Mof_H 	H 	0.8804	0.7274	0.0672	0.065
Mof_C 	C 	0.89688	0.7279	0.01574	-0
Mof_H 	H 	0.8776	0.7224	0.019	0.041
Mof_C 	C 	0.92434	0.73356	0.9824	-0.044
Mof_C 	C 	0.95238	0.74094	0.9788	0.033
Mof_H 	H 	0.9711	0.7443	0.9561	0.015
Mof_C 	C 	0.92319	0.73249	0.95083	0.13
Mof_N 	N 	0.98103	0.46985	0.30469	-0.257
Mof_N 	N 	0.9721	0.76114	0.2096	-0.223
Mof_N 	N 	0.98804	0.5429	0.26206	-0.224
Mof_N 	N 	0.96902	0.67072	0.21004	-0.149
Mof_N 	N 	0.97458	0.70038	0.14774	-0.149
Mof_N 	N 	0.98316	0.63724	0.17498	-0.149
Mof_N 	N 	0.00392	0.69724	0.04732	-0.226
Mof_N 	N 	0.96698	0.77938	0.0355	-0.263
Mof_N 	N 	0.95427	0.74355	0.00623	-0.224
Mof_N 	N 	0.89281	0.73233	0.95357	-0.15
Mof_S 	S 	0.96534	0.451	0.37861	-0.059
Mof_S 	S 	0.91623	0.82331	0.07723	-0.061
Mof_C 	C 	0.56058	0.1863	0.79344	0.06
Mof_H 	H 	0.5397	0.1877	0.8143	-0
Mof_C 	C 	0.5926	0.16044	0.79806	-0.097
Mof_H 	H 	0.5936	0.1446	0.8216	0.065
Mof_C 	C 	0.62404	0.15752	0.76774	0.003
Mof_H 	H 	0.6465	0.1395	0.7701	0.039
Mof_C 	C 	0.62086	0.18226	0.7341	-0.044
Mof_C 	C 	0.58719	0.20773	0.73221	0.034
Mof_H 	H 	0.5854	0.2246	0.7092	0.014
Mof_C 	C 	0.72878	0.33598	0.46166	0.092
Mof_C 	C 	0.70598	0.23466	0.57476	0.032
Mof_H 	H 	0.7252	0.2124	0.5752	0.016
Mof_C 	C 	0.67795	0.23785	0.60685	-0.045
Mof_C 	C 	0.64931	0.27093	0.60615	0.005
Mof_H 	H 	0.6294	0.2738	0.6276	0.038
Mof_C 	C 	0.65085	0.29901	0.57371	-0.097
Mof_H 	H 	0.6323	0.3219	0.5723	0.064
Mof_C 	C 	0.68006	0.29336	0.54286	0.059
Mof_H 	H 	0.6807	0.3129	0.5207	-0.002
Mof_C 	C 	0.67751	0.20609	0.64029	0.132
Mof_C 	C 	0.70265	0.14671	0.66815	0.132
Mof_C 	C 	0.6513	0.18024	0.7	0.131
Mof_C 	C 	0.73056	0.11142	0.6662	-0.048
Mof_C 	C 	0.75958	0.10752	0.63442	0.005
Mof_H 	H 	0.7623	0.1279	0.6131	0.039
Mof_C 	C 	0.78417	0.07351	0.63469	-0.093
Mof_H 	H 	0.8042	0.07	0.6136	0.064
Mof_C 	C 	0.77927	0.04395	0.66669	0.053
Mof_H 	H 	0.7964	0.0206	0.6666	0.004
Mof_C 	C 	0.72792	0.08036	0.6966	0.039
Mof_H 	H 	0.7082	0.083	0.718	0.013
Mof_C 	C 	0.70374	0.05284	0.79754	0.105
Mof_C 	C 	0.79618	0.03848	0.73834	0.052
Mof_H 	H 	0.774	0.058	0.7402	0.004
Mof_C 	C 	0.82631	0.04423	0.73073	-0.092
Mof_H 	H 	0.825	0.0672	0.7274	0.065
Mof_C 	C 	0.85948	0.01574	0.7279	-0
Mof_H 	H 	0.881	0.019	0.7224	0.041
Mof_C 	C 	0.8597	0.9824	0.73356	-0.044
Mof_C 	C 	0.82788	0.9788	0.74094	0.033
Mof_H 	H 	0.8285	0.9561	0.7443	0.015
Mof_C 	C 	0.89349	0.95083	0.73249	0.13
Mof_N 	N 	0.74443	0.30469	0.46985	-0.257
Mof_N 	N 	0.55716	0.2096	0.76114	-0.223
Mof_N 	N 	0.707	0.26206	0.5429	-0.224
Mof_N 	N 	0.65022	0.21004	0.67072	-0.149
Mof_N 	N 	0.6773	0.14774	0.70038	-0.149
Mof_N 	N 	0.70462	0.17498	0.63724	-0.149
Mof_N 	N 	0.75152	0.04732	0.69724	-0.226
Mof_N 	N 	0.71814	0.0355	0.77938	-0.263
Mof_N 	N 	0.79595	0.00623	0.74355	-0.224
Mof_N 	N 	0.92129	0.95357	0.73233	-0.15
Mof_S 	S 	0.70506	0.37861	0.451	-0.059
Mof_S 	S 	0.68323	0.07723	0.82331	-0.061
Mof_C 	C 	0.79344	0.95968	0.56058	0.06
Mof_H 	H 	0.8143	0.9583	0.5397	-0
Mof_C 	C 	0.79806	0.9489	0.5926	-0.097
Mof_H 	H 	0.8216	0.9402	0.5936	0.065
Mof_C 	C 	0.76774	0.9507	0.62404	0.003
Mof_H 	H 	0.7701	0.9439	0.6465	0.039
Mof_C 	C 	0.7341	0.96278	0.62086	-0.044
Mof_C 	C 	0.73221	0.97287	0.58719	0.034
Mof_H 	H 	0.7092	0.9808	0.5854	0.014
Mof_C 	C 	0.46166	0.97358	0.72878	0.092
Mof_C 	C 	0.57476	0.9846	0.70598	0.032
Mof_H 	H 	0.5752	0.9872	0.7252	0.016
Mof_C 	C 	0.60685	0.97735	0.67795	-0.045
Mof_C 	C 	0.60615	0.97361	0.64931	0.005
Mof_H 	H 	0.6276	0.9692	0.6294	0.038
Mof_C 	C 	0.57371	0.97643	0.65085	-0.097
Mof_H 	H 	0.5723	0.9735	0.6323	0.064
Mof_C 	C 	0.54286	0.98372	0.68006	0.059
Mof_H 	H 	0.5207	0.9857	0.6807	-0.002
Mof_C 	C 	0.64029	0.97611	0.67751	0.132
Mof_C 	C 	0.66815	0.98249	0.70265	0.132
Mof_C 	C 	0.7	0.96846	0.6513	0.131
Mof_C 	C 	0.6662	0.99182	0.73056	-0.048
Mof_C 	C 	0.63442	0.99848	0.75958	0.005
Mof_H 	H 	0.6131	0.9967	0.7623	0.039
Mof_C 	C 	0.63469	0.00763	0.78417	-0.093
Mof_H 	H 	0.6136	0.0122	0.8042	0.064
Mof_C 	C 	0.66669	0.01009	0.77927	0.053
Mof_H 	H 	0.6666	0.0164	0.7964	0.004
Mof_C 	C 	0.6966	0.99512	0.72792	0.039
Mof_H 	H 	0.718	0.9908	0.7082	0.013
Mof_C 	C 	0.79754	0.94588	0.70374	0.105
Mof_C 	C 	0.73834	0.927	0.79618	0.052
Mof_H 	H 	0.7402	0.9278	0.774	0.004
Mof_C 	C 	0.73073	0.89873	0.82631	-0.092
Mof_H 	H 	0.7274	0.8804	0.825	0.065
Mof_C 	C 	0.7279	0.89688	0.85948	-0
Mof_H 	H 	0.7224	0.8776	0.881	0.041
Mof_C 	C 	0.73356	0.92434	0.8597	-0.044
Mof_C 	C 	0.74094	0.95238	0.82788	0.033
Mof_H 	H 	0.7443	0.9711	0.8285	0.015
Mof_C 	C 	0.73249	0.92319	0.89349	0.13
Mof_N 	N 	0.46985	0.98103	0.74443	-0.257
Mof_N 	N 	0.76114	0.9721	0.55716	-0.223
Mof_N 	N 	0.5429	0.98804	0.707	-0.224
Mof_N 	N 	0.67072	0.96902	0.65022	-0.149
Mof_N 	N 	0.70038	0.97458	0.6773	-0.149
Mof_N 	N 	0.63724	0.98316	0.70462	-0.149
Mof_N 	N 	0.69724	0.00392	0.75152	-0.226
Mof_N 	N 	0.77938	0.96698	0.71814	-0.263
Mof_N 	N 	0.74355	0.95427	0.79595	-0.224
Mof_N 	N 	0.73233	0.89281	0.92129	-0.15
Mof_S 	S 	0.451	0.96534	0.70506	-0.059
Mof_S 	S 	0.82331	0.91623	0.68323	-0.061
Mof_C 	C 	0.79344	0.1863	0.95968	0.06
Mof_H 	H 	0.8143	0.1877	0.9583	-0
Mof_C 	C 	0.79806	0.16044	0.9489	-0.097
Mof_H 	H 	0.8216	0.1446	0.9402	0.065
Mof_C 	C 	0.76774	0.15752	0.9507	0.003
Mof_H 	H 	0.7701	0.1395	0.9439	0.039
Mof_C 	C 	0.7341	0.18226	0.96278	-0.044
Mof_C 	C 	0.73221	0.20773	0.97287	0.034
Mof_H 	H 	0.7092	0.2246	0.9808	0.014
Mof_C 	C 	0.46166	0.33598	0.97358	0.092
Mof_C 	C 	0.57476	0.23466	0.9846	0.032
Mof_H 	H 	0.5752	0.2124	0.9872	0.016
Mof_C 	C 	0.60685	0.23785	0.97735	-0.045
Mof_C 	C 	0.60615	0.27093	0.97361	0.005
Mof_H 	H 	0.6276	0.2738	0.9692	0.038
Mof_C 	C 	0.57371	0.29901	0.97643	-0.097
Mof_H 	H 	0.5723	0.3219	0.9735	0.064
Mof_C 	C 	0.54286	0.29336	0.98372	0.059
Mof_H 	H 	0.5207	0.3129	0.9857	-0.002
Mof_C 	C 	0.64029	0.20609	0.97611	0.132
Mof_C 	C 	0.66815	0.14671	0.98249	0.132
Mof_C 	C 	0.7	0.18024	0.96846	0.131
Mof_C 	C 	0.6662	0.11142	0.99182	-0.048
Mof_C 	C 	0.63442	0.10752	0.99848	0.005
Mof_H 	H 	0.6131	0.1279	0.9967	0.039
Mof_C 	C 	0.63469	0.07351	0.00763	-0.092
Mof_H 	H 	0.6136	0.07	0.0122	0.064
Mof_C 	C 	0.66669	0.04395	0.01009	0.053
Mof_H 	H 	0.6666	0.0206	0.0164	0.004
Mof_C 	C 	0.6966	0.08036	0.99512	0.039
Mof_H 	H 	0.718	0.083	0.9908	0.013
Mof_C 	C 	0.79754	0.05284	0.94588	0.105
Mof_C 	C 	0.73834	0.03848	0.927	0.052
Mof_H 	H 	0.7402	0.058	0.9278	0.004
Mof_C 	C 	0.73073	0.04423	0.89873	-0.092
Mof_H 	H 	0.7274	0.0672	0.8804	0.065
Mof_C 	C 	0.7279	0.01574	0.89688	-0
Mof_H 	H 	0.7224	0.019	0.8776	0.041
Mof_C 	C 	0.73356	0.9824	0.92434	-0.044
Mof_C 	C 	0.74094	0.9788	0.95238	0.033
Mof_H 	H 	0.7443	0.9561	0.9711	0.015
Mof_C 	C 	0.73249	0.95083	0.92319	0.13
Mof_N 	N 	0.46985	0.30469	0.98103	-0.257
Mof_N 	N 	0.76114	0.2096	0.9721	-0.223
Mof_N 	N 	0.5429	0.26206	0.98804	-0.224
Mof_N 	N 	0.67072	0.21004	0.96902	-0.149
Mof_N 	N 	0.70038	0.14774	0.97458	-0.149
Mof_N 	N 	0.63724	0.17498	0.98316	-0.149
Mof_N 	N 	0.69724	0.04732	0.00392	-0.226
Mof_N 	N 	0.77938	0.0355	0.96698	-0.263
Mof_N 	N 	0.74355	0.00623	0.95427	-0.224
Mof_N 	N 	0.73233	0.95357	0.89281	-0.15
Mof_S 	S 	0.451	0.37861	0.96534	-0.059
Mof_S 	S 	0.82331	0.07723	0.91623	-0.061
Mof_C 	C 	0.56058	0.95968	0.1863	0.06
Mof_H 	H 	0.5397	0.9583	0.1877	-0
Mof_C 	C 	0.5926	0.9489	0.16044	-0.097
Mof_H 	H 	0.5936	0.9402	0.1446	0.065
Mof_C 	C 	0.62404	0.9507	0.15752	0.003
Mof_H 	H 	0.6465	0.9439	0.1395	0.039
Mof_C 	C 	0.62086	0.96278	0.18226	-0.044
Mof_C 	C 	0.58719	0.97287	0.20773	0.034
Mof_H 	H 	0.5854	0.9808	0.2246	0.014
Mof_C 	C 	0.72878	0.97358	0.33598	0.092
Mof_C 	C 	0.70598	0.9846	0.23466	0.032
Mof_H 	H 	0.7252	0.9872	0.2124	0.016
Mof_C 	C 	0.67795	0.97735	0.23785	-0.045
Mof_C 	C 	0.64931	0.97361	0.27093	0.005
Mof_H 	H 	0.6294	0.9692	0.2738	0.038
Mof_C 	C 	0.65085	0.97643	0.29901	-0.097
Mof_H 	H 	0.6323	0.9735	0.3219	0.064
Mof_C 	C 	0.68006	0.98372	0.29336	0.059
Mof_H 	H 	0.6807	0.9857	0.3129	-0.002
Mof_C 	C 	0.67751	0.97611	0.20609	0.132
Mof_C 	C 	0.70265	0.98249	0.14671	0.132
Mof_C 	C 	0.6513	0.96846	0.18024	0.131
Mof_C 	C 	0.73056	0.99182	0.11142	-0.048
Mof_C 	C 	0.75958	0.99848	0.10752	0.005
Mof_H 	H 	0.7623	0.9967	0.1279	0.039
Mof_C 	C 	0.78417	0.00763	0.07351	-0.093
Mof_H 	H 	0.8042	0.0122	0.07	0.064
Mof_C 	C 	0.77927	0.01009	0.04395	0.053
Mof_H 	H 	0.7964	0.0164	0.0206	0.004
Mof_C 	C 	0.72792	0.99512	0.08036	0.039
Mof_H 	H 	0.7082	0.9908	0.083	0.013
Mof_C 	C 	0.70374	0.94588	0.05284	0.105
Mof_C 	C 	0.79618	0.927	0.03848	0.052
Mof_H 	H 	0.774	0.9278	0.058	0.004
Mof_C 	C 	0.82631	0.89873	0.04423	-0.092
Mof_H 	H 	0.825	0.8804	0.0672	0.065
Mof_C 	C 	0.85948	0.89688	0.01574	-0
Mof_H 	H 	0.881	0.8776	0.019	0.041
Mof_C 	C 	0.8597	0.92434	0.9824	-0.044
Mof_C 	C 	0.82788	0.95238	0.9788	0.033
Mof_H 	H 	0.8285	0.9711	0.9561	0.015
Mof_C 	C 	0.89349	0.92319	0.95083	0.13
Mof_N 	N 	0.74443	0.98103	0.30469	-0.257
Mof_N 	N 	0.55716	0.9721	0.2096	-0.223
Mof_N 	N 	0.707	0.98804	0.26206	-0.224
Mof_N 	N 	0.65022	0.96902	0.21004	-0.149
Mof_N 	N 	0.6773	0.97458	0.14774	-0.149
Mof_N 	N 	0.70462	0.98316	0.17498	-0.149
Mof_N 	N 	0.75152	0.00392	0.04732	-0.226
Mof_N 	N 	0.71814	0.96698	0.0355	-0.263
Mof_N 	N 	0.79595	0.95427	0.00623	-0.224
Mof_N 	N 	0.92129	0.89281	0.95357	-0.15
Mof_S 	S 	0.70506	0.96534	0.37861	-0.059
Mof_S 	S 	0.68323	0.91623	0.07723	-0.061
Mof_C 	C 	0.95968	0.56058	0.79344	0.06
Mof_H 	H 	0.9583	0.5397	0.8143	-0
Mof_C 	C 	0.9489	0.5926	0.79806	-0.097
Mof_H 	H 	0.9402	0.5936	0.8216	0.065
Mof_C 	C 	0.9507	0.62404	0.76774	0.003
Mof_H 	H 	0.9439	0.6465	0.7701	0.039
Mof_C 	C 	0.96278	0.62086	0.7341	-0.044
Mof_C 	C 	0.97287	0.58719	0.73221	0.034
Mof_H 	H 	0.9808	0.5854	0.7092	0.014
Mof_C 	C 	0.97358	0.72878	0.46166	0.092
Mof_C 	C 	0.9846	0.70598	0.57476	0.032
Mof_H 	H 	0.9872	0.7252	0.5752	0.016
Mof_C 	C 	0.97735	0.67795	0.60685	-0.045
Mof_C 	C 	0.97361	0.64931	0.60615	0.005
Mof_H 	H 	0.9692	0.6294	0.6276	0.038
Mof_C 	C 	0.97643	0.65085	0.57371	-0.097
Mof_H 	H 	0.9735	0.6323	0.5723	0.064
Mof_C 	C 	0.98372	0.68006	0.54286	0.059
Mof_H 	H 	0.9857	0.6807	0.5207	-0.002
Mof_C 	C 	0.97611	0.67751	0.64029	0.132
Mof_C 	C 	0.98249	0.70265	0.66815	0.132
Mof_C 	C 	0.96846	0.6513	0.7	0.131
Mof_C 	C 	0.99182	0.73056	0.6662	-0.048
Mof_C 	C 	0.99848	0.75958	0.63442	0.005
Mof_H 	H 	0.9967	0.7623	0.6131	0.039
Mof_C 	C 	0.00763	0.78417	0.63469	-0.093
Mof_H 	H 	0.0122	0.8042	0.6136	0.064
Mof_C 	C 	0.01009	0.77927	0.66669	0.053
Mof_H 	H 	0.0164	0.7964	0.6666	0.004
Mof_C 	C 	0.99512	0.72792	0.6966	0.039
Mof_H 	H 	0.9908	0.7082	0.718	0.013
Mof_C 	C 	0.94588	0.70374	0.79754	0.105
Mof_C 	C 	0.927	0.79618	0.73834	0.052
Mof_H 	H 	0.9278	0.774	0.7402	0.004
Mof_C 	C 	0.89873	0.82631	0.73073	-0.092
Mof_H 	H 	0.8804	0.825	0.7274	0.065
Mof_C 	C 	0.89688	0.85948	0.7279	-0
Mof_H 	H 	0.8776	0.881	0.7224	0.041
Mof_C 	C 	0.92434	0.8597	0.73356	-0.044
Mof_C 	C 	0.95238	0.82788	0.74094	0.033
Mof_H 	H 	0.9711	0.8285	0.7443	0.015
Mof_C 	C 	0.92319	0.89349	0.73249	0.13
Mof_N 	N 	0.98103	0.74443	0.46985	-0.257
Mof_N 	N 	0.9721	0.55716	0.76114	-0.223
Mof_N 	N 	0.98804	0.707	0.5429	-0.224
Mof_N 	N 	0.96902	0.65022	0.67072	-0.149
Mof_N 	N 	0.97458	0.6773	0.70038	-0.149
Mof_N 	N 	0.98316	0.70462	0.63724	-0.149
Mof_N 	N 	0.00392	0.75152	0.69724	-0.226
Mof_N 	N 	0.96698	0.71814	0.77938	-0.263
Mof_N 	N 	0.95427	0.79595	0.74355	-0.224
Mof_N 	N 	0.89281	0.92129	0.73233	-0.15
Mof_S 	S 	0.96534	0.70506	0.451	-0.059
Mof_S 	S 	0.91623	0.68323	0.82331	-0.061
Mof_C 	C 	0.1863	0.79344	0.56058	0.06
Mof_H 	H 	0.1877	0.8143	0.5397	-0
Mof_C 	C 	0.16044	0.79806	0.5926	-0.097
Mof_H 	H 	0.1446	0.8216	0.5936	0.065
Mof_C 	C 	0.15752	0.76774	0.62404	0.003
Mof_H 	H 	0.1395	0.7701	0.6465	0.039
Mof_C 	C 	0.18226	0.7341	0.62086	-0.044
Mof_C 	C 	0.20773	0.73221	0.58719	0.034
Mof_H 	H 	0.2246	0.7092	0.5854	0.014
Mof_C 	C 	0.33598	0.46166	0.72878	0.092
Mof_C 	C 	0.23466	0.57476	0.70598	0.032
Mof_H 	H 	0.2124	0.5752	0.7252	0.016
Mof_C 	C 	0.23785	0.60685	0.67795	-0.045
Mof_C 	C 	0.27093	0.60615	0.64931	0.005
Mof_H 	H 	0.2738	0.6276	0.6294	0.038
Mof_C 	C 	0.29901	0.57371	0.65085	-0.097
Mof_H 	H 	0.3219	0.5723	0.6323	0.064
Mof_C 	C 	0.29336	0.54286	0.68006	0.059
Mof_H 	H 	0.3129	0.5207	0.6807	-0.002
Mof_C 	C 	0.20609	0.64029	0.67751	0.132
Mof_C 	C 	0.14671	0.66815	0.70265	0.132
Mof_C 	C 	0.18024	0.7	0.6513	0.131
Mof_C 	C 	0.11142	0.6662	0.73056	-0.048
Mof_C 	C 	0.10752	0.63442	0.75958	0.005
Mof_H 	H 	0.1279	0.6131	0.7623	0.039
Mof_C 	C 	0.07351	0.63469	0.78417	-0.093
Mof_H 	H 	0.07	0.6136	0.8042	0.064
Mof_C 	C 	0.04395	0.66669	0.77927	0.053
Mof_H 	H 	0.0206	0.6666	0.7964	0.004
Mof_C 	C 	0.08036	0.6966	0.72792	0.039
Mof_H 	H 	0.083	0.718	0.7082	0.013
Mof_C 	C 	0.05284	0.79754	0.70374	0.105
Mof_C 	C 	0.03848	0.73834	0.79618	0.052
Mof_H 	H 	0.058	0.7402	0.774	0.004
Mof_C 	C 	0.04423	0.73073	0.82631	-0.092
Mof_H 	H 	0.0672	0.7274	0.825	0.065
Mof_C 	C 	0.01574	0.7279	0.85948	-0
Mof_H 	H 	0.019	0.7224	0.881	0.041
Mof_C 	C 	0.9824	0.73356	0.8597	-0.044
Mof_C 	C 	0.9788	0.74094	0.82788	0.033
Mof_H 	H 	0.9561	0.7443	0.8285	0.015
Mof_C 	C 	0.95083	0.73249	0.89349	0.13
Mof_N 	N 	0.30469	0.46985	0.74443	-0.257
Mof_N 	N 	0.2096	0.76114	0.55716	-0.223
Mof_N 	N 	0.26206	0.5429	0.707	-0.224
Mof_N 	N 	0.21004	0.67072	0.65022	-0.149
Mof_N 	N 	0.14774	0.70038	0.6773	-0.149
Mof_N 	N 	0.17498	0.63724	0.70462	-0.149
Mof_N 	N 	0.04732	0.69724	0.75152	-0.226
Mof_N 	N 	0.0355	0.77938	0.71814	-0.263
Mof_N 	N 	0.00623	0.74355	0.79595	-0.224
Mof_N 	N 	0.95357	0.73233	0.92129	-0.15
Mof_S 	S 	0.37861	0.451	0.70506	-0.059
Mof_S 	S 	0.07723	0.82331	0.68323	-0.061
Mof_Co	Co	0.25	0.99356	0.75	1.117
Mof_Co	Co	0.99356	0.25	0.50644	1.117
Mof_Co	Co	0.75	0.50644	0.25	1.117
Mof_Co	Co	0.50644	0.75	0.99356	1.117
Mof_Co	Co	0.75	0.25	0.99356	1.117
Mof_Co	Co	0.50644	0.99356	0.25	1.117
Mof_Co	Co	0.25	0.75	0.50644	1.117
Mof_Co	Co	0.99356	0.50644	0.75	1.117
Mof_Co	Co	0.99356	0.75	0.25	1.117
Mof_Co	Co	0.25	0.50644	0.99356	1.117
Mof_Co	Co	0.50644	0.25	0.75	1.117
Mof_Co	Co	0.75	0.99356	0.50644	1.117
Mof_Co	Co	0.75	0.00644	0.25	1.117
Mof_Co	Co	0.00644	0.75	0.49356	1.117
Mof_Co	Co	0.25	0.49356	0.75	1.117
Mof_Co	Co	0.49356	0.25	0.00644	1.117
Mof_Co	Co	0.25	0.75	0.00644	1.117
Mof_Co	Co	0.49356	0.00644	0.75	1.117
Mof_Co	Co	0.75	0.25	0.49356	1.117
Mof_Co	Co	0.00644	0.49356	0.25	1.117
Mof_Co	Co	0.00644	0.25	0.75	1.117
Mof_Co	Co	0.75	0.49356	0.00644	1.117
Mof_Co	Co	0.49356	0.75	0.25	1.117
Mof_Co	Co	0.25	0.00644	0.49356	1.117
Mof_Co	Co	0.24788	0.24788	0.50212	1.122
Mof_Co	Co	0.50212	0.50212	0.24788	1.122
Mof_Co	Co	0.50212	0.24788	0.24788	1.122
Mof_Co	Co	0.24788	0.50212	0.50212	1.122
Mof_Co	Co	0.24788	0.50212	0.24788	1.122
Mof_Co	Co	0.50212	0.24788	0.50212	1.122
Mof_Co	Co	0.25212	0.25212	0.99788	1.122
Mof_Co	Co	0.99788	0.99788	0.25212	1.122
Mof_Co	Co	0.99788	0.25212	0.99788	1.122
Mof_Co	Co	0.25212	0.99788	0.25212	1.122
Mof_Co	Co	0.25212	0.99788	0.99788	1.122
Mof_Co	Co	0.99788	0.25212	0.25212	1.122
Mof_Co	Co	0.75212	0.75212	0.49788	1.122
Mof_Co	Co	0.49788	0.49788	0.75212	1.122
Mof_Co	Co	0.49788	0.75212	0.75212	1.122
Mof_Co	Co	0.75212	0.49788	0.49788	1.122
Mof_Co	Co	0.75212	0.49788	0.75212	1.122
Mof_Co	Co	0.49788	0.75212	0.49788	1.122
Mof_Co	Co	0.74788	0.74788	0.00212	1.122
Mof_Co	Co	0.00212	0.00212	0.74788	1.122
Mof_Co	Co	0.00212	0.74788	0.00212	1.122
Mof_Co	Co	0.74788	0.00212	0.74788	1.122
Mof_Co	Co	0.74788	0.00212	0.00212	1.122
Mof_Co	Co	0.00212	0.74788	0.74788	1.122
_end
