data_functionalizedCrystal
_audit_creation_method	'EQeq! by Chris Wilmer'
_symmetry_space_group_name_H-M	'P1'
_symmetry_Int_Tables_number	1
_symmetry_cell_setting	triclinic
loop_
_symmetry_equiv_pos_as_xyz
  x,y,z
_cell_length_a	30.778
_cell_length_b	15.587
_cell_length_c	22.103
_cell_angle_alpha	90
_cell_angle_beta	132.995
_cell_angle_gamma	90
loop_
_atom_site_label
_atom_site_type_symbol
_atom_site_fract_x
_atom_site_fract_y
_atom_site_fract_z
_atom_site_charge
Mof_O 	O 	0.9437	0.151	0.0785	-0.724
Mof_O 	O 	0.865	0.9692	0.8822	-0.538
Mof_O 	O 	0.8886	0.8862	0.7163	-0.679
Mof_O 	O 	0.723	0.3451	0.7952	-0.508
Mof_O 	O 	0.0207	0.2224	0.1167	-0.783
Mof_O 	O 	0.8237	0.095	0.871	-0.479
Mof_O 	O 	0.7551	0.234	0.8754	-0.556
Mof_O 	O 	0.8533	0.952	0.6026	-0.604
Mof_N 	N 	0.8412	0.9968	0.7456	-0.179
Mof_N 	N 	0.8668	0.2705	0.9647	-0.165
Mof_La	La	0.83093	0.12717	0.98695	1.509
Mof_La	La	0.89	0.85695	0.82964	1.675
Mof_C 	C 	0.8163	0.052	0.761	-0.081
Mof_C 	C 	0.7749	0.1152	0.7055	0.003
Mof_H 	H 	0.7559	0.1504	0.7154	-0.006
Mof_C 	C 	0.765	0.12	0.633	-0.13
Mof_H 	H 	0.7375	0.1613	0.5942	0.038
Mof_C 	C 	0.7876	0.077	0.616	0.06
Mof_H 	H 	0.7794	0.0868	0.568	-0.037
Mof_C 	C 	0.8291	0.008	0.674	-0.137
Mof_C 	C 	0.8397	0.036	0.8488	0.393
Mof_C 	C 	0.8594	0.948	0.6636	0.429
Mof_C 	C 	0.9237	0.285	0.012	-0.137
Mof_C 	C 	0.9428	0.356	-0	0.111
Mof_H 	H 	0.9833	0.3639	0.032	0.028
Mof_C 	C 	0.9042	0.414	0.9421	-0.145
Mof_H 	H 	0.9172	0.4633	0.9351	0.056
Mof_C 	C 	0.844	0.398	0.893	0.045
Mof_H 	H 	0.8157	0.4377	0.8536	-0.006
Mof_C 	C 	0.8255	0.324	0.902	-0.128
Mof_C 	C 	0.9672	0.214	0.077	0.638
Mof_C 	C 	0.7609	0.3	0.852	0.467
Mof_W 	W 	0.05289	0.63581	0.44889	0.917
Mof_W 	W 	0.92446	0.524	0.29	1.143
Mof_W 	W 	0.12765	0.52431	0.40849	1.177
Mof_W 	W 	0.92366	0.7475	0.2901	1.208
Mof_W 	W 	0.12993	0.74712	0.40853	1.209
Mof_O 	O 	0.9687	0.437	0.2962	-0.412
Mof_O 	O 	0.1024	0.7189	0.4589	-0.5
Mof_O 	O 	0.0737	0.434	0.355	-0.541
Mof_O 	O 	0.8673	0.51	0.171	-0.504
Mof_O 	O 	0.1024	0.556	0.462	-0.486
Mof_O 	O 	0.8956	0.64	0.2781	-0.49
Mof_O 	O 	0.9943	0.722	0.398	-0.387
Mof_O 	O 	0.9947	0.5523	0.4012	-0.351
Mof_O 	O 	0.962	0.711	0.234	-0.549
Mof_O 	O 	0.16	0.64	0.4302	-0.495
Mof_O 	O 	0.966	0.842	0.294	-0.426
Mof_O 	O 	0.077	0.84	0.361	-0.534
Mof_O 	O 	0.8653	0.756	0.172	-0.488
Mof_O 	O 	0.949	0.64	0.161	-0.629
Mof_O 	O 	0.0394	0.553	0.272	-0.699
Mof_O 	O 	0.9841	0.635	0.299	-0.557
Mof_O 	O 	0.4437	0.651	0.0785	-0.774
Mof_O 	O 	0.365	0.4692	0.8822	-0.55
Mof_O 	O 	0.3886	0.3862	0.7163	-0.754
Mof_O 	O 	0.223	0.8451	0.7952	-0.501
Mof_O 	O 	0.5207	0.7224	0.1167	-0.628
Mof_O 	O 	0.3237	0.595	0.871	-0.477
Mof_O 	O 	0.2551	0.734	0.8754	-0.545
Mof_O 	O 	0.3533	0.452	0.6026	-0.639
Mof_N 	N 	0.3412	0.4968	0.7456	-0.179
Mof_N 	N 	0.3668	0.7705	0.9647	-0.171
Mof_La	La	0.33093	0.62717	0.98695	1.44
Mof_La	La	0.39	0.35695	0.82964	1.572
Mof_C 	C 	0.3163	0.552	0.761	-0.084
Mof_C 	C 	0.2749	0.6152	0.7055	0.005
Mof_H 	H 	0.2559	0.6504	0.7154	-0.006
Mof_C 	C 	0.265	0.62	0.633	-0.135
Mof_H 	H 	0.2375	0.6613	0.5942	0.042
Mof_C 	C 	0.2876	0.577	0.616	0.063
Mof_H 	H 	0.2794	0.5868	0.568	-0.039
Mof_C 	C 	0.3291	0.508	0.674	-0.144
Mof_C 	C 	0.3397	0.536	0.8488	0.386
Mof_C 	C 	0.3594	0.448	0.6636	0.423
Mof_C 	C 	0.4237	0.785	0.012	-0.115
Mof_C 	C 	0.4428	0.856	-0	0.067
Mof_H 	H 	0.4833	0.8639	0.032	-0.03
Mof_C 	C 	0.4042	0.914	0.9421	-0.127
Mof_H 	H 	0.4172	0.9633	0.9351	0.029
Mof_C 	C 	0.344	0.898	0.893	0.026
Mof_H 	H 	0.3157	0.9377	0.8536	-0.001
Mof_C 	C 	0.3255	0.824	0.902	-0.121
Mof_C 	C 	0.4672	0.714	0.077	0.409
Mof_C 	C 	0.2609	0.8	0.852	0.459
Mof_W 	W 	0.55289	0.13581	0.44889	1.244
Mof_W 	W 	0.42446	0.024	0.29	1.196
Mof_W 	W 	0.62765	0.02431	0.40849	1.226
Mof_W 	W 	0.42366	0.2475	0.2901	1.262
Mof_W 	W 	0.62993	0.24712	0.40853	1.258
Mof_O 	O 	0.4687	0.937	0.2962	-0.553
Mof_O 	O 	0.6024	0.2189	0.4589	-0.516
Mof_O 	O 	0.5737	0.934	0.355	-0.568
Mof_O 	O 	0.3673	0.01	0.171	-0.511
Mof_O 	O 	0.6024	0.056	0.462	-0.511
Mof_O 	O 	0.3956	0.14	0.2781	-0.498
Mof_O 	O 	0.4943	0.222	0.398	-0.521
Mof_O 	O 	0.4947	0.0523	0.4012	-0.493
Mof_O 	O 	0.462	0.211	0.234	-0.728
Mof_O 	O 	0.66	0.14	0.4302	-0.509
Mof_O 	O 	0.466	0.342	0.294	-0.562
Mof_O 	O 	0.577	0.34	0.361	-0.55
Mof_O 	O 	0.3653	0.256	0.172	-0.494
Mof_O 	O 	0.449	0.14	0.161	-0.837
Mof_O 	O 	0.5394	0.053	0.272	-0.794
Mof_O 	O 	0.4841	0.135	0.299	-0.782
Mof_O 	O 	0.0563	0.151	0.4215	-0.707
Mof_O 	O 	0.135	0.9692	0.6178	-0.561
Mof_O 	O 	0.1114	0.8862	0.7837	-0.713
Mof_O 	O 	0.277	0.3451	0.7048	-0.506
Mof_O 	O 	0.9793	0.2224	0.3833	-0.422
Mof_O 	O 	0.1763	0.095	0.629	-0.482
Mof_O 	O 	0.2449	0.234	0.6246	-0.548
Mof_O 	O 	0.1467	0.952	0.8974	-0.629
Mof_N 	N 	0.1588	0.9968	0.7544	-0.179
Mof_N 	N 	0.1332	0.2705	0.5353	-0.174
Mof_La	La	0.16907	0.12717	0.51305	1.461
Mof_La	La	0.11	0.85695	0.67036	1.523
Mof_C 	C 	0.1837	0.052	0.739	-0.086
Mof_C 	C 	0.2251	0.1152	0.7945	0.004
Mof_H 	H 	0.2441	0.1504	0.7846	-0.007
Mof_C 	C 	0.235	0.12	0.867	-0.133
Mof_H 	H 	0.2625	0.1613	0.9058	0.038
Mof_C 	C 	0.2124	0.077	0.884	0.062
Mof_H 	H 	0.2206	0.0868	0.932	-0.04
Mof_C 	C 	0.1709	0.008	0.826	-0.144
Mof_C 	C 	0.1603	0.036	0.6512	0.384
Mof_C 	C 	0.1406	0.948	0.8364	0.422
Mof_C 	C 	0.0763	0.285	0.488	-0.081
Mof_C 	C 	0.0572	0.356	0.5	0.012
Mof_H 	H 	0.0167	0.3639	0.468	-0.076
Mof_C 	C 	0.0958	0.414	0.5579	-0.097
Mof_H 	H 	0.0828	0.4633	0.5649	0.003
Mof_C 	C 	0.156	0.398	0.607	0.008
Mof_H 	H 	0.1843	0.4377	0.6464	0.006
Mof_C 	C 	0.1745	0.324	0.598	-0.114
Mof_C 	C 	0.0328	0.214	0.423	0.193
Mof_C 	C 	0.2391	0.3	0.648	0.459
Mof_W 	W 	0.94711	0.63581	0.05111	1.502
Mof_W 	W 	0.07554	0.524	0.21	1.159
Mof_W 	W 	0.87235	0.52431	0.09151	1.194
Mof_W 	W 	0.07634	0.7475	0.2099	1.225
Mof_W 	W 	0.87007	0.74712	0.09147	1.227
Mof_O 	O 	0.0313	0.437	0.2038	-0.551
Mof_O 	O 	0.8976	0.7189	0.0411	-0.521
Mof_O 	O 	0.9263	0.434	0.145	-0.449
Mof_O 	O 	0.1327	0.51	0.329	-0.499
Mof_O 	O 	0.8976	0.556	0.038	-0.521
Mof_O 	O 	0.1044	0.64	0.2219	-0.493
Mof_O 	O 	0.0057	0.722	0.102	-0.636
Mof_O 	O 	0.0053	0.5523	0.0988	-0.617
Mof_O 	O 	0.038	0.711	0.266	-0.644
Mof_O 	O 	0.84	0.64	0.0698	-0.508
Mof_O 	O 	0.034	0.842	0.206	-0.552
Mof_O 	O 	0.923	0.84	0.139	-0.436
Mof_O 	O 	0.1347	0.756	0.328	-0.483
Mof_O 	O 	0.051	0.64	0.339	-0.745
Mof_O 	O 	0.9606	0.553	0.228	-0.597
Mof_O 	O 	0.0159	0.635	0.201	-0.728
Mof_O 	O 	0.5563	0.651	0.4215	-0.779
Mof_O 	O 	0.635	0.4692	0.6178	-0.549
Mof_O 	O 	0.6114	0.3862	0.7837	-0.756
Mof_O 	O 	0.777	0.8451	0.7048	-0.516
Mof_O 	O 	0.4793	0.7224	0.3833	-0.629
Mof_O 	O 	0.6763	0.595	0.629	-0.477
Mof_O 	O 	0.7449	0.734	0.6246	-0.547
Mof_O 	O 	0.6467	0.452	0.8974	-0.645
Mof_N 	N 	0.6588	0.4968	0.7544	-0.179
Mof_N 	N 	0.6332	0.7705	0.5353	-0.168
Mof_La	La	0.66907	0.62717	0.51305	1.457
Mof_La	La	0.61	0.35695	0.67036	1.574
Mof_C 	C 	0.6837	0.552	0.739	-0.084
Mof_C 	C 	0.7251	0.6152	0.7945	0.004
Mof_H 	H 	0.7441	0.6504	0.7846	-0.007
Mof_C 	C 	0.735	0.62	0.867	-0.134
Mof_H 	H 	0.7625	0.6613	0.9058	0.037
Mof_C 	C 	0.7124	0.577	0.884	0.062
Mof_H 	H 	0.7206	0.5868	0.932	-0.042
Mof_C 	C 	0.6709	0.508	0.826	-0.146
Mof_C 	C 	0.6603	0.536	0.6512	0.387
Mof_C 	C 	0.6406	0.448	0.8364	0.424
Mof_C 	C 	0.5763	0.785	0.488	-0.118
Mof_C 	C 	0.5572	0.856	0.5	0.049
Mof_H 	H 	0.5167	0.8639	0.468	-0.025
Mof_C 	C 	0.5958	0.914	0.5579	-0.108
Mof_H 	H 	0.5828	0.9633	0.5649	0.024
Mof_C 	C 	0.656	0.898	0.607	0.019
Mof_H 	H 	0.6843	0.9377	0.6464	0
Mof_C 	C 	0.6745	0.824	0.598	-0.12
Mof_C 	C 	0.5328	0.714	0.423	0.409
Mof_C 	C 	0.7391	0.8	0.648	0.464
Mof_W 	W 	0.44711	0.13581	0.05111	1.249
Mof_W 	W 	0.57554	0.024	0.21	1.195
Mof_W 	W 	0.37235	0.02431	0.09151	1.232
Mof_W 	W 	0.57634	0.2475	0.2099	1.262
Mof_W 	W 	0.37007	0.24712	0.09147	1.262
Mof_O 	O 	0.5313	0.937	0.2038	-0.553
Mof_O 	O 	0.3976	0.2189	0.0411	-0.514
Mof_O 	O 	0.4263	0.934	0.145	-0.567
Mof_O 	O 	0.6327	0.01	0.329	-0.512
Mof_O 	O 	0.3976	0.056	0.038	-0.51
Mof_O 	O 	0.6044	0.14	0.2219	-0.498
Mof_O 	O 	0.5057	0.222	0.102	-0.52
Mof_O 	O 	0.5053	0.0523	0.0988	-0.493
Mof_O 	O 	0.538	0.211	0.266	-0.728
Mof_O 	O 	0.34	0.14	0.0698	-0.507
Mof_O 	O 	0.534	0.342	0.206	-0.562
Mof_O 	O 	0.423	0.34	0.139	-0.549
Mof_O 	O 	0.6347	0.256	0.328	-0.494
Mof_O 	O 	0.551	0.14	0.339	-0.836
Mof_O 	O 	0.4606	0.053	0.228	-0.794
Mof_O 	O 	0.5159	0.135	0.201	-0.782
Mof_O 	O 	0.0563	0.849	0.9215	-0.717
Mof_O 	O 	0.135	0.0308	0.1178	-0.56
Mof_O 	O 	0.1114	0.1138	0.2837	-0.714
Mof_O 	O 	0.277	0.6549	0.2048	-0.508
Mof_O 	O 	0.9793	0.7776	0.8833	-0.431
Mof_O 	O 	0.1763	0.905	0.129	-0.484
Mof_O 	O 	0.2449	0.766	0.1246	-0.552
Mof_O 	O 	0.1467	0.048	0.3974	-0.623
Mof_N 	N 	0.1588	0.0032	0.2544	-0.179
Mof_N 	N 	0.1332	0.7295	0.0353	-0.155
Mof_La	La	0.16907	0.87283	0.01305	1.496
Mof_La	La	0.11	0.14305	0.17036	1.533
Mof_C 	C 	0.1837	0.948	0.239	-0.086
Mof_C 	C 	0.2251	0.8848	0.2945	0.005
Mof_H 	H 	0.2441	0.8496	0.2846	-0.007
Mof_C 	C 	0.235	0.88	0.367	-0.132
Mof_H 	H 	0.2625	0.8387	0.4058	0.039
Mof_C 	C 	0.2124	0.923	0.384	0.061
Mof_H 	H 	0.2206	0.9132	0.432	-0.038
Mof_C 	C 	0.1709	0.992	0.326	-0.142
Mof_C 	C 	0.1603	0.964	0.1512	0.387
Mof_C 	C 	0.1406	0.052	0.3364	0.42
Mof_C 	C 	0.0763	0.715	0.988	-0.139
Mof_C 	C 	0.0572	0.644	-0	0.113
Mof_H 	H 	0.0167	0.6361	0.968	-0.119
Mof_C 	C 	0.0958	0.586	0.0579	-0.164
Mof_H 	H 	0.0828	0.5367	0.0649	0.032
Mof_C 	C 	0.156	0.602	0.107	0.053
Mof_H 	H 	0.1843	0.5623	0.1464	-0.008
Mof_C 	C 	0.1745	0.676	0.098	-0.133
Mof_C 	C 	0.0328	0.786	0.923	0.213
Mof_C 	C 	0.2391	0.7	0.148	0.469
Mof_W 	W 	0.94711	0.36419	0.55111	1.499
Mof_W 	W 	0.07554	0.476	0.71	1.157
Mof_W 	W 	0.87235	0.47569	0.59151	1.19
Mof_W 	W 	0.07634	0.2525	0.7099	1.223
Mof_W 	W 	0.87007	0.25288	0.59147	1.223
Mof_O 	O 	0.0313	0.563	0.7038	-0.552
Mof_O 	O 	0.8976	0.2811	0.5411	-0.523
Mof_O 	O 	0.9263	0.566	0.645	-0.449
Mof_O 	O 	0.1327	0.49	0.829	-0.499
Mof_O 	O 	0.8976	0.444	0.538	-0.523
Mof_O 	O 	0.1044	0.36	0.7219	-0.493
Mof_O 	O 	0.0057	0.278	0.602	-0.641
Mof_O 	O 	0.0053	0.4477	0.5988	-0.622
Mof_O 	O 	0.038	0.289	0.766	-0.643
Mof_O 	O 	0.84	0.36	0.5698	-0.51
Mof_O 	O 	0.034	0.158	0.706	-0.553
Mof_O 	O 	0.923	0.16	0.639	-0.436
Mof_O 	O 	0.1347	0.244	0.828	-0.483
Mof_O 	O 	0.051	0.36	0.839	-0.743
Mof_O 	O 	0.9606	0.447	0.728	-0.595
Mof_O 	O 	0.0159	0.365	0.701	-0.728
Mof_O 	O 	0.5563	0.349	0.9215	-0.785
Mof_O 	O 	0.635	0.5308	0.1178	-0.548
Mof_O 	O 	0.6114	0.6138	0.2837	-0.755
Mof_O 	O 	0.777	0.1549	0.2048	-0.517
Mof_O 	O 	0.4793	0.2776	0.8833	-0.631
Mof_O 	O 	0.6763	0.405	0.129	-0.478
Mof_O 	O 	0.7449	0.266	0.1246	-0.549
Mof_O 	O 	0.6467	0.548	0.3974	-0.64
Mof_N 	N 	0.6588	0.5032	0.2544	-0.18
Mof_N 	N 	0.6332	0.2295	0.0353	-0.159
Mof_La	La	0.66907	0.37283	0.01305	1.474
Mof_La	La	0.61	0.64305	0.17036	1.579
Mof_C 	C 	0.6837	0.448	0.239	-0.084
Mof_C 	C 	0.7251	0.3848	0.2945	0.004
Mof_H 	H 	0.7441	0.3496	0.2846	-0.006
Mof_C 	C 	0.735	0.38	0.367	-0.134
Mof_H 	H 	0.7625	0.3387	0.4058	0.04
Mof_C 	C 	0.7124	0.423	0.384	0.062
Mof_H 	H 	0.7206	0.4132	0.432	-0.039
Mof_C 	C 	0.6709	0.492	0.326	-0.144
Mof_C 	C 	0.6603	0.464	0.1512	0.388
Mof_C 	C 	0.6406	0.552	0.3364	0.423
Mof_C 	C 	0.5763	0.215	0.988	-0.147
Mof_C 	C 	0.5572	0.144	-0	0.097
Mof_H 	H 	0.5167	0.1361	0.968	-0.046
Mof_C 	C 	0.5958	0.086	0.0579	-0.14
Mof_H 	H 	0.5828	0.0367	0.0649	0.037
Mof_C 	C 	0.656	0.102	0.107	0.041
Mof_H 	H 	0.6843	0.0623	0.1464	-0.007
Mof_C 	C 	0.6745	0.176	0.098	-0.129
Mof_C 	C 	0.5328	0.286	0.923	0.418
Mof_C 	C 	0.7391	0.2	0.148	0.469
Mof_W 	W 	0.44711	0.86419	0.55111	1.245
Mof_W 	W 	0.57554	0.976	0.71	1.195
Mof_W 	W 	0.37235	0.97569	0.59151	1.229
Mof_W 	W 	0.57634	0.7525	0.7099	1.261
Mof_W 	W 	0.37007	0.75288	0.59147	1.258
Mof_O 	O 	0.5313	0.063	0.7038	-0.553
Mof_O 	O 	0.3976	0.7811	0.5411	-0.516
Mof_O 	O 	0.4263	0.066	0.645	-0.568
Mof_O 	O 	0.6327	0.99	0.829	-0.513
Mof_O 	O 	0.3976	0.944	0.538	-0.511
Mof_O 	O 	0.6044	0.86	0.7219	-0.499
Mof_O 	O 	0.5057	0.778	0.602	-0.521
Mof_O 	O 	0.5053	0.9477	0.5988	-0.493
Mof_O 	O 	0.538	0.789	0.766	-0.727
Mof_O 	O 	0.34	0.86	0.5698	-0.509
Mof_O 	O 	0.534	0.658	0.706	-0.562
Mof_O 	O 	0.423	0.66	0.639	-0.55
Mof_O 	O 	0.6347	0.744	0.828	-0.495
Mof_O 	O 	0.551	0.86	0.839	-0.835
Mof_O 	O 	0.4606	0.947	0.728	-0.793
Mof_O 	O 	0.5159	0.865	0.701	-0.781
Mof_O 	O 	0.9437	0.849	0.5785	-0.73
Mof_O 	O 	0.865	0.0308	0.3822	-0.537
Mof_O 	O 	0.8886	0.1138	0.2163	-0.68
Mof_O 	O 	0.723	0.6549	0.2952	-0.508
Mof_O 	O 	0.0207	0.7776	0.6167	-0.788
Mof_O 	O 	0.8237	0.905	0.371	-0.48
Mof_O 	O 	0.7551	0.766	0.3754	-0.557
Mof_O 	O 	0.8533	0.048	0.1026	-0.598
Mof_N 	N 	0.8412	0.0032	0.2456	-0.18
Mof_N 	N 	0.8668	0.7295	0.4647	-0.161
Mof_La	La	0.83093	0.87283	0.48695	1.539
Mof_La	La	0.89	0.14305	0.32964	1.684
Mof_C 	C 	0.8163	0.948	0.261	-0.079
Mof_C 	C 	0.7749	0.8848	0.2055	0.003
Mof_H 	H 	0.7559	0.8496	0.2154	-0.005
Mof_C 	C 	0.765	0.88	0.133	-0.127
Mof_H 	H 	0.7375	0.8387	0.0942	0.04
Mof_C 	C 	0.7876	0.923	0.116	0.057
Mof_H 	H 	0.7794	0.9132	0.068	-0.034
Mof_C 	C 	0.8291	0.992	0.174	-0.133
Mof_C 	C 	0.8397	0.964	0.3488	0.395
Mof_C 	C 	0.8594	0.052	0.1636	0.426
Mof_C 	C 	0.9237	0.715	0.512	-0.137
Mof_C 	C 	0.9428	0.644	0.5	0.082
Mof_H 	H 	0.9833	0.6361	0.532	0.035
Mof_C 	C 	0.9042	0.586	0.4421	-0.111
Mof_H 	H 	0.9172	0.5367	0.4351	0.049
Mof_C 	C 	0.844	0.602	0.393	0.03
Mof_H 	H 	0.8157	0.5623	0.3536	-0
Mof_C 	C 	0.8255	0.676	0.402	-0.12
Mof_C 	C 	0.9672	0.786	0.577	0.639
Mof_C 	C 	0.7609	0.7	0.352	0.465
Mof_W 	W 	0.05289	0.36419	0.94889	0.916
Mof_W 	W 	0.92446	0.476	0.79	1.142
Mof_W 	W 	0.12765	0.47569	0.90849	1.173
Mof_W 	W 	0.92366	0.2525	0.7901	1.206
Mof_W 	W 	0.12993	0.25288	0.90853	1.206
Mof_O 	O 	0.9687	0.563	0.7962	-0.413
Mof_O 	O 	0.1024	0.2811	0.9589	-0.501
Mof_O 	O 	0.0737	0.566	0.855	-0.541
Mof_O 	O 	0.8673	0.49	0.671	-0.504
Mof_O 	O 	0.1024	0.444	0.962	-0.488
Mof_O 	O 	0.8956	0.36	0.7781	-0.49
Mof_O 	O 	0.9943	0.278	0.898	-0.393
Mof_O 	O 	0.9947	0.4477	0.9012	-0.357
Mof_O 	O 	0.962	0.289	0.734	-0.548
Mof_O 	O 	0.16	0.36	0.9302	-0.496
Mof_O 	O 	0.966	0.158	0.794	-0.427
Mof_O 	O 	0.077	0.16	0.861	-0.534
Mof_O 	O 	0.8653	0.244	0.672	-0.487
Mof_O 	O 	0.949	0.36	0.661	-0.627
Mof_O 	O 	0.0394	0.447	0.772	-0.698
Mof_O 	O 	0.9841	0.365	0.799	-0.557
Mof_O 	O 	0.4437	0.349	0.5785	-0.778
Mof_O 	O 	0.365	0.5308	0.3822	-0.549
Mof_O 	O 	0.3886	0.6138	0.2163	-0.754
Mof_O 	O 	0.223	0.1549	0.2952	-0.501
Mof_O 	O 	0.5207	0.2776	0.6167	-0.629
Mof_O 	O 	0.3237	0.405	0.371	-0.477
Mof_O 	O 	0.2551	0.266	0.3754	-0.545
Mof_O 	O 	0.3533	0.548	0.1026	-0.634
Mof_N 	N 	0.3412	0.5032	0.2456	-0.18
Mof_N 	N 	0.3668	0.2295	0.4647	-0.168
Mof_La	La	0.33093	0.37283	0.48695	1.456
Mof_La	La	0.39	0.64305	0.32964	1.576
Mof_C 	C 	0.3163	0.448	0.261	-0.084
Mof_C 	C 	0.2749	0.3848	0.2055	0.006
Mof_H 	H 	0.2559	0.3496	0.2154	-0.005
Mof_C 	C 	0.265	0.38	0.133	-0.134
Mof_H 	H 	0.2375	0.3387	0.0942	0.045
Mof_C 	C 	0.2876	0.423	0.116	0.064
Mof_H 	H 	0.2794	0.4132	0.068	-0.036
Mof_C 	C 	0.3291	0.492	0.174	-0.143
Mof_C 	C 	0.3397	0.464	0.3488	0.387
Mof_C 	C 	0.3594	0.552	0.1636	0.422
Mof_C 	C 	0.4237	0.215	0.512	-0.117
Mof_C 	C 	0.4428	0.144	0.5	0.047
Mof_H 	H 	0.4833	0.1361	0.532	-0.025
Mof_C 	C 	0.4042	0.086	0.4421	-0.105
Mof_H 	H 	0.4172	0.0367	0.4351	0.023
Mof_C 	C 	0.344	0.102	0.393	0.017
Mof_H 	H 	0.3157	0.0623	0.3536	0.003
Mof_C 	C 	0.3255	0.176	0.402	-0.116
Mof_C 	C 	0.4672	0.286	0.577	0.409
Mof_C 	C 	0.2609	0.2	0.352	0.458
Mof_W 	W 	0.55289	0.86419	0.94889	1.24
Mof_W 	W 	0.42446	0.976	0.79	1.196
Mof_W 	W 	0.62765	0.97569	0.90849	1.222
Mof_W 	W 	0.42366	0.7525	0.7901	1.261
Mof_W 	W 	0.62993	0.75288	0.90853	1.254
Mof_O 	O 	0.4687	0.063	0.7962	-0.553
Mof_O 	O 	0.6024	0.7811	0.9589	-0.517
Mof_O 	O 	0.5737	0.066	0.855	-0.568
Mof_O 	O 	0.3673	0.99	0.671	-0.511
Mof_O 	O 	0.6024	0.944	0.962	-0.513
Mof_O 	O 	0.3956	0.86	0.7781	-0.498
Mof_O 	O 	0.4943	0.778	0.898	-0.522
Mof_O 	O 	0.4947	0.9477	0.9012	-0.494
Mof_O 	O 	0.462	0.789	0.734	-0.727
Mof_O 	O 	0.66	0.86	0.9302	-0.511
Mof_O 	O 	0.466	0.658	0.794	-0.563
Mof_O 	O 	0.577	0.66	0.861	-0.551
Mof_O 	O 	0.3653	0.744	0.672	-0.494
Mof_O 	O 	0.449	0.86	0.661	-0.836
Mof_O 	O 	0.5394	0.947	0.772	-0.793
Mof_O 	O 	0.4841	0.865	0.799	-0.781
Mof_K 	K 	-1.46586e-17	0.1364	0.25	2.967
Mof_W 	W 	-1.46586e-17	0.41112	0.25	1.339
Mof_W 	W 	-1.46586e-17	0.85826	0.25	1.353
Mof_B 	B 	-1.46586e-17	0.632	0.25	2.85
Mof_O 	O 	-1.46586e-17	0.301	0.25	-0.901
Mof_O 	O 	-1.46586e-17	0.96	0.25	-0.871
Mof_K 	K 	0.5	0.6364	0.25	3.569
Mof_W 	W 	0.5	0.91112	0.25	1.682
Mof_W 	W 	0.5	0.35826	0.25	1.686
Mof_B 	B 	0.5	0.132	0.25	3.644
Mof_O 	O 	0.5	0.801	0.25	-0.963
Mof_O 	O 	0.5	0.46	0.25	-0.93
Mof_K 	K 	3.39659e-33	0.8636	0.75	2.94
Mof_W 	W 	3.39659e-33	0.58888	0.75	1.334
Mof_W 	W 	3.39659e-33	0.14174	0.75	1.348
Mof_B 	B 	3.39659e-33	0.368	0.75	2.843
Mof_O 	O 	3.39659e-33	0.699	0.75	-0.9
Mof_O 	O 	3.39659e-33	0.04	0.75	-0.87
Mof_K 	K 	0.5	0.3636	0.75	3.562
Mof_W 	W 	0.5	0.08888	0.75	1.682
Mof_W 	W 	0.5	0.64174	0.75	1.686
Mof_B 	B 	0.5	0.868	0.75	3.641
Mof_O 	O 	0.5	0.199	0.75	-0.962
Mof_O 	O 	0.5	0.54	0.75	-0.93
_end
