data_functionalizedCrystal
_audit_creation_method	'EQeq! by Chris Wilmer'
_symmetry_space_group_name_H-M	'P1'
_symmetry_Int_Tables_number	1
_symmetry_cell_setting	triclinic
loop_
_symmetry_equiv_pos_as_xyz
  x,y,z
_cell_length_a	20.7574
_cell_length_b	20.7574
_cell_length_c	20.7574
_cell_angle_alpha	90
_cell_angle_beta	90
_cell_angle_gamma	90
loop_
_atom_site_label
_atom_site_type_symbol
_atom_site_fract_x
_atom_site_fract_y
_atom_site_fract_z
_atom_site_charge
Mof_Zr	Zr	0.1195	0	-0	3.18
Mof_Zr	Zr	0.1195	0.5	0.5	3.108
Mof_Zr	Zr	0.6195	0	0.5	3.303
Mof_Zr	Zr	0.6195	0.5	-0	3.303
Mof_Zr	Zr	0.8805	0	-0	3.468
Mof_Zr	Zr	0.8805	0.5	0.5	3.398
Mof_Zr	Zr	0.3805	0	0.5	3.278
Mof_Zr	Zr	0.3805	0.5	-0	3.278
Mof_Zr	Zr	-0	0.1195	-0	3.181
Mof_Zr	Zr	-3.77027e-33	0.6195	0.5	3.304
Mof_Zr	Zr	0.5	0.1195	0.5	3.109
Mof_Zr	Zr	0.5	0.6195	-0	3.304
Mof_Zr	Zr	-0	0.8805	-0	3.469
Mof_Zr	Zr	-3.77027e-33	0.3805	0.5	3.278
Mof_Zr	Zr	0.5	0.8805	0.5	3.399
Mof_Zr	Zr	0.5	0.3805	-0	3.278
Mof_Zr	Zr	4.48053e-34	0	0.1195	3.181
Mof_Zr	Zr	-3.32222e-33	0.5	0.6195	3.304
Mof_Zr	Zr	0.5	-5.64497e-33	0.6195	3.304
Mof_Zr	Zr	0.5	0.5	0.1195	3.109
Mof_Zr	Zr	3.30135e-33	0	0.8805	3.469
Mof_Zr	Zr	1.42665e-33	0.5	0.3805	3.278
Mof_Zr	Zr	0.5	0	0.3805	3.278
Mof_Zr	Zr	0.5	0.5	0.8805	3.399
Mof_O 	O 	0.17088	0.09379	-0	-9.79
Mof_C 	C 	0.18548	0.26704	-0	3.244
Mof_H 	H 	0.1422	0.2786	-0	-1.966
Mof_O 	O 	0.1921	0.0781	-0	5.248
Mof_O 	O 	0.17088	0.59379	0.5	-37.86
Mof_C 	C 	0.18548	0.76704	0.5	1.467
Mof_H 	H 	0.1422	0.7786	0.5	0.441
Mof_O 	O 	0.1921	0.5781	0.5	33.121
Mof_O 	O 	0.67088	0.09379	0.5	31.225
Mof_C 	C 	0.68548	0.26704	0.5	3.259
Mof_H 	H 	0.6422	0.2786	0.5	-2.566
Mof_O 	O 	0.6921	0.0781	0.5	-30.532
Mof_O 	O 	0.67088	0.59379	-0	3.691
Mof_C 	C 	0.68548	0.76704	-0	1.716
Mof_H 	H 	0.6422	0.7786	-0	-0.09
Mof_O 	O 	0.6921	0.5781	-0	-2.879
Mof_O 	O 	0.82912	0.90621	-0	10.466
Mof_C 	C 	0.81452	0.73296	-0	-3.202
Mof_H 	H 	0.8578	0.7214	-0	2.21
Mof_O 	O 	0.8079	0.9219	-0	-6.646
Mof_O 	O 	0.82912	0.40621	0.5	36.006
Mof_C 	C 	0.81452	0.23296	0.5	-1.637
Mof_H 	H 	0.8578	0.2214	0.5	-0.209
Mof_O 	O 	0.8079	0.4219	0.5	-32.418
Mof_O 	O 	0.32912	0.90621	0.5	-29.169
Mof_C 	C 	0.31452	0.73296	0.5	-3.396
Mof_H 	H 	0.3578	0.7214	0.5	2.662
Mof_O 	O 	0.3079	0.9219	0.5	27.57
Mof_O 	O 	0.32912	0.40621	-0	-2.402
Mof_C 	C 	0.31452	0.23296	-0	-2.102
Mof_H 	H 	0.3578	0.2214	-0	0.55
Mof_O 	O 	0.3079	0.4219	-0	1.198
Mof_O 	O 	0.82912	0.09379	-0	57.925
Mof_C 	C 	0.81452	0.26704	-0	1.045
Mof_H 	H 	0.8578	0.2786	-0	-2.375
Mof_O 	O 	0.8079	0.0781	-0	-53.725
Mof_O 	O 	0.82912	0.59379	0.5	27.299
Mof_C 	C 	0.81452	0.76704	0.5	-0.623
Mof_H 	H 	0.8578	0.7786	0.5	0.049
Mof_O 	O 	0.8079	0.5781	0.5	-23.615
Mof_O 	O 	0.32912	0.09379	0.5	16.54
Mof_C 	C 	0.31452	0.26704	0.5	0.665
Mof_H 	H 	0.3578	0.2786	0.5	-1.739
Mof_O 	O 	0.3079	0.0781	0.5	-17.762
Mof_O 	O 	0.32912	0.59379	-0	-11.01
Mof_C 	C 	0.31452	0.76704	-0	-1.011
Mof_H 	H 	0.3578	0.7786	-0	0.77
Mof_O 	O 	0.3079	0.5781	-0	9.905
Mof_O 	O 	0.17088	0.90621	-0	-57.281
Mof_C 	C 	0.18548	0.73296	-0	-0.993
Mof_H 	H 	0.1422	0.7214	-0	2.61
Mof_O 	O 	0.1921	0.9219	-0	52.343
Mof_O 	O 	0.17088	0.40621	0.5	-29.201
Mof_C 	C 	0.18548	0.23296	0.5	0.453
Mof_H 	H 	0.1422	0.2214	0.5	0.192
Mof_O 	O 	0.1921	0.4219	0.5	24.366
Mof_O 	O 	0.67088	0.90621	0.5	-14.408
Mof_C 	C 	0.68548	0.73296	0.5	-0.802
Mof_H 	H 	0.6422	0.7214	0.5	1.835
Mof_O 	O 	0.6921	0.9219	0.5	14.736
Mof_O 	O 	0.67088	0.40621	-0	12.295
Mof_C 	C 	0.68548	0.23296	-0	0.616
Mof_H 	H 	0.6422	0.2214	-0	-0.308
Mof_O 	O 	0.6921	0.4219	-0	-11.584
Mof_O 	O 	3.51656e-34	0.17088	0.09379	-9.79
Mof_C 	C 	-1.82124e-33	0.18548	0.26704	3.244
Mof_H 	H 	1.04458e-33	0.1422	0.2786	-1.966
Mof_O 	O 	2.92828e-34	0.1921	0.0781	5.248
Mof_O 	O 	7.87132e-33	0.67088	0.59379	3.691
Mof_C 	C 	8.52091e-33	0.68548	0.76704	1.716
Mof_H 	H 	-8.37066e-33	0.6422	0.7786	-0.09
Mof_O 	O 	-3.47744e-33	0.6921	0.5781	-2.879
Mof_O 	O 	0.5	0.17088	0.59379	-37.86
Mof_C 	C 	0.5	0.18548	0.76704	1.467
Mof_H 	H 	0.5	0.1422	0.7786	0.441
Mof_O 	O 	0.5	0.1921	0.5781	33.121
Mof_O 	O 	0.5	0.67088	0.09379	31.225
Mof_C 	C 	0.5	0.68548	0.26704	3.259
Mof_H 	H 	0.5	0.6422	0.2786	-2.566
Mof_O 	O 	0.5	0.6921	0.0781	-30.532
Mof_O 	O 	-7.89219e-33	0.82912	0.90621	10.466
Mof_C 	C 	1.96831e-32	0.81452	0.73296	-3.202
Mof_H 	H 	2.70482e-33	0.8578	0.7214	2.21
Mof_O 	O 	1.47465e-32	0.8079	0.9219	-6.646
Mof_O 	O 	-4.12193e-33	0.32912	0.40621	-2.402
Mof_C 	C 	8.7346e-34	0.31452	0.23296	-2.102
Mof_H 	H 	8.30117e-34	0.3578	0.2214	0.55
Mof_O 	O 	-1.5353e-32	0.3079	0.4219	1.198
Mof_O 	O 	0.5	0.82912	0.40621	36.006
Mof_C 	C 	0.5	0.81452	0.23296	-1.637
Mof_H 	H 	0.5	0.8578	0.2214	-0.209
Mof_O 	O 	0.5	0.8079	0.4219	-32.418
Mof_O 	O 	0.5	0.32912	0.90621	-29.169
Mof_C 	C 	0.5	0.31452	0.73296	-3.396
Mof_H 	H 	0.5	0.3578	0.7214	2.662
Mof_O 	O 	0.5	0.3079	0.9219	27.57
Mof_O 	O 	-3.88207e-33	0.82912	0.09379	57.925
Mof_C 	C 	-1.82124e-33	0.81452	0.26704	1.045
Mof_H 	H 	-1.7779e-33	0.8578	0.2786	-2.375
Mof_O 	O 	3.11531e-33	0.8079	0.0781	-53.725
Mof_O 	O 	2.22636e-33	0.32912	0.59379	-11.01
Mof_C 	C 	-2.76903e-33	0.31452	0.76704	-1.011
Mof_H 	H 	-2.72569e-33	0.3578	0.7786	0.77
Mof_O 	O 	-1.47674e-32	0.3079	0.5781	9.905
Mof_O 	O 	0.5	0.82912	0.59379	27.299
Mof_C 	C 	0.5	0.81452	0.76704	-0.623
Mof_H 	H 	0.5	0.8578	0.7786	0.049
Mof_O 	O 	0.5	0.8079	0.5781	-23.615
Mof_O 	O 	0.5	0.32912	0.09379	16.54
Mof_C 	C 	0.5	0.31452	0.26704	0.665
Mof_H 	H 	0.5	0.3578	0.2786	-1.739
Mof_O 	O 	0.5	0.3079	0.0781	-17.762
Mof_O 	O 	-7.89219e-33	0.17088	0.90621	-57.281
Mof_C 	C 	2.74816e-33	0.18548	0.73296	-0.993
Mof_H 	H 	-8.58512e-33	0.1422	0.7214	2.61
Mof_O 	O 	3.45657e-33	0.1921	0.9219	52.343
Mof_O 	O 	4.34553e-33	0.67088	0.40621	12.295
Mof_C 	C 	-1.94902e-33	0.68548	0.23296	0.616
Mof_H 	H 	6.47509e-33	0.6422	0.2214	-0.308
Mof_O 	O 	-4.0631e-33	0.6921	0.4219	-11.584
Mof_O 	O 	0.5	0.17088	0.40621	-29.201
Mof_C 	C 	0.5	0.18548	0.23296	0.453
Mof_H 	H 	0.5	0.1422	0.2214	0.192
Mof_O 	O 	0.5	0.1921	0.4219	24.366
Mof_O 	O 	0.5	0.67088	0.90621	-14.408
Mof_C 	C 	0.5	0.68548	0.73296	-0.802
Mof_H 	H 	0.5	0.6422	0.7214	1.835
Mof_O 	O 	0.5	0.6921	0.9219	14.736
Mof_O 	O 	0.09379	0	0.17088	-9.79
Mof_C 	C 	0.26704	-1.41124e-33	0.18548	3.244
Mof_H 	H 	0.2786	0	0.1422	-1.966
Mof_O 	O 	0.0781	0	0.1921	5.248
Mof_O 	O 	0.09379	0.5	0.67088	31.225
Mof_C 	C 	0.26704	0.5	0.68548	3.259
Mof_H 	H 	0.2786	0.5	0.6422	-2.566
Mof_O 	O 	0.0781	0.5	0.6921	-30.532
Mof_O 	O 	0.59379	0	0.67088	3.691
Mof_C 	C 	0.76704	-5.64497e-33	0.68548	1.716
Mof_H 	H 	0.7786	0	0.6422	-0.09
Mof_O 	O 	0.5781	0	0.6921	-2.879
Mof_O 	O 	0.59379	0.5	0.17088	-37.86
Mof_C 	C 	0.76704	0.5	0.18548	1.467
Mof_H 	H 	0.7786	0.5	0.1422	0.441
Mof_O 	O 	0.5781	0.5	0.1921	33.121
Mof_O 	O 	0.90621	-5.64497e-33	0.82912	10.466
Mof_C 	C 	0.73296	-5.64497e-33	0.81452	-3.202
Mof_H 	H 	0.7214	0	0.8578	2.21
Mof_O 	O 	0.9219	0	0.8079	-6.646
Mof_O 	O 	0.90621	0.5	0.32912	-29.169
Mof_C 	C 	0.73296	0.5	0.31452	-3.396
Mof_H 	H 	0.7214	0.5	0.3578	2.662
Mof_O 	O 	0.9219	0.5	0.3079	27.57
Mof_O 	O 	0.40621	-2.82248e-33	0.32912	-2.402
Mof_C 	C 	0.23296	2.82248e-33	0.31452	-2.102
Mof_H 	H 	0.2214	0	0.3578	0.55
Mof_O 	O 	0.4219	-2.82248e-33	0.3079	1.198
Mof_O 	O 	0.40621	0.5	0.82912	36.006
Mof_C 	C 	0.23296	0.5	0.81452	-1.637
Mof_H 	H 	0.2214	0.5	0.8578	-0.209
Mof_O 	O 	0.4219	0.5	0.8079	-32.418
Mof_O 	O 	0.09379	-5.64497e-33	0.82912	57.925
Mof_C 	C 	0.26704	-5.64497e-33	0.81452	1.045
Mof_H 	H 	0.2786	0	0.8578	-2.375
Mof_O 	O 	0.0781	0	0.8079	-53.725
Mof_O 	O 	0.09379	0.5	0.32912	16.54
Mof_C 	C 	0.26704	0.5	0.31452	0.665
Mof_H 	H 	0.2786	0.5	0.3578	-1.739
Mof_O 	O 	0.0781	0.5	0.3079	-17.762
Mof_O 	O 	0.59379	-2.82248e-33	0.32912	-11.01
Mof_C 	C 	0.76704	2.82248e-33	0.31452	-1.011
Mof_H 	H 	0.7786	0	0.3578	0.77
Mof_O 	O 	0.5781	-2.82248e-33	0.3079	9.905
Mof_O 	O 	0.59379	0.5	0.82912	27.299
Mof_C 	C 	0.76704	0.5	0.81452	-0.623
Mof_H 	H 	0.7786	0.5	0.8578	0.049
Mof_O 	O 	0.5781	0.5	0.8079	-23.615
Mof_O 	O 	0.90621	0	0.17088	-57.281
Mof_C 	C 	0.73296	-1.41124e-33	0.18548	-0.993
Mof_H 	H 	0.7214	0	0.1422	2.61
Mof_O 	O 	0.9219	0	0.1921	52.343
Mof_O 	O 	0.90621	0.5	0.67088	-14.408
Mof_C 	C 	0.73296	0.5	0.68548	-0.802
Mof_H 	H 	0.7214	0.5	0.6422	1.835
Mof_O 	O 	0.9219	0.5	0.6921	14.736
Mof_O 	O 	0.40621	0	0.67088	12.295
Mof_C 	C 	0.23296	-5.64497e-33	0.68548	0.616
Mof_H 	H 	0.2214	0	0.6422	-0.308
Mof_O 	O 	0.4219	0	0.6921	-11.584
Mof_O 	O 	0.40621	0.5	0.17088	-29.201
Mof_C 	C 	0.23296	0.5	0.18548	0.453
Mof_H 	H 	0.2214	0.5	0.1422	0.192
Mof_O 	O 	0.4219	0.5	0.1921	24.366
Mof_O 	O 	0.09379	0.17088	-0	-9.79
Mof_C 	C 	0.26704	0.18548	-0	3.244
Mof_H 	H 	0.2786	0.1422	-0	-1.966
Mof_O 	O 	0.0781	0.1921	-0	5.248
Mof_O 	O 	0.09379	0.67088	0.5	31.225
Mof_C 	C 	0.26704	0.68548	0.5	3.259
Mof_H 	H 	0.2786	0.6422	0.5	-2.566
Mof_O 	O 	0.0781	0.6921	0.5	-30.532
Mof_O 	O 	0.59379	0.17088	0.5	-37.86
Mof_C 	C 	0.76704	0.18548	0.5	1.467
Mof_H 	H 	0.7786	0.1422	0.5	0.441
Mof_O 	O 	0.5781	0.1921	0.5	33.121
Mof_O 	O 	0.59379	0.67088	-0	3.691
Mof_C 	C 	0.76704	0.68548	-0	1.716
Mof_H 	H 	0.7786	0.6422	-0	-0.09
Mof_O 	O 	0.5781	0.6921	-0	-2.879
Mof_O 	O 	0.90621	0.82912	-0	10.466
Mof_C 	C 	0.73296	0.81452	-0	-3.202
Mof_H 	H 	0.7214	0.8578	-0	2.21
Mof_O 	O 	0.9219	0.8079	-0	-6.646
Mof_O 	O 	0.90621	0.32912	0.5	-29.169
Mof_C 	C 	0.73296	0.31452	0.5	-3.396
Mof_H 	H 	0.7214	0.3578	0.5	2.662
Mof_O 	O 	0.9219	0.3079	0.5	27.57
Mof_O 	O 	0.40621	0.82912	0.5	36.006
Mof_C 	C 	0.23296	0.81452	0.5	-1.637
Mof_H 	H 	0.2214	0.8578	0.5	-0.209
Mof_O 	O 	0.4219	0.8079	0.5	-32.418
Mof_O 	O 	0.40621	0.32912	-0	-2.402
Mof_C 	C 	0.23296	0.31452	-0	-2.102
Mof_H 	H 	0.2214	0.3578	-0	0.55
Mof_O 	O 	0.4219	0.3079	-0	1.198
Mof_O 	O 	0.09379	0.82912	-0	57.925
Mof_C 	C 	0.26704	0.81452	-0	1.045
Mof_H 	H 	0.2786	0.8578	-0	-2.375
Mof_O 	O 	0.0781	0.8079	-0	-53.725
Mof_O 	O 	0.09379	0.32912	0.5	16.54
Mof_C 	C 	0.26704	0.31452	0.5	0.665
Mof_H 	H 	0.2786	0.3578	0.5	-1.739
Mof_O 	O 	0.0781	0.3079	0.5	-17.762
Mof_O 	O 	0.59379	0.82912	0.5	27.299
Mof_C 	C 	0.76704	0.81452	0.5	-0.623
Mof_H 	H 	0.7786	0.8578	0.5	0.049
Mof_O 	O 	0.5781	0.8079	0.5	-23.615
Mof_O 	O 	0.59379	0.32912	-0	-11.01
Mof_C 	C 	0.76704	0.31452	-0	-1.011
Mof_H 	H 	0.7786	0.3578	-0	0.77
Mof_O 	O 	0.5781	0.3079	-0	9.905
Mof_O 	O 	0.90621	0.17088	-0	-57.281
Mof_C 	C 	0.73296	0.18548	-0	-0.993
Mof_H 	H 	0.7214	0.1422	-0	2.61
Mof_O 	O 	0.9219	0.1921	-0	52.343
Mof_O 	O 	0.90621	0.67088	0.5	-14.408
Mof_C 	C 	0.73296	0.68548	0.5	-0.802
Mof_H 	H 	0.7214	0.6422	0.5	1.835
Mof_O 	O 	0.9219	0.6921	0.5	14.736
Mof_O 	O 	0.40621	0.17088	0.5	-29.201
Mof_C 	C 	0.23296	0.18548	0.5	0.453
Mof_H 	H 	0.2214	0.1422	0.5	0.192
Mof_O 	O 	0.4219	0.1921	0.5	24.366
Mof_O 	O 	0.40621	0.67088	-0	12.295
Mof_C 	C 	0.23296	0.68548	-0	0.616
Mof_H 	H 	0.2214	0.6422	-0	-0.308
Mof_O 	O 	0.4219	0.6921	-0	-11.584
Mof_O 	O 	0.17088	-1.12899e-32	0.90621	-57.281
Mof_C 	C 	0.18548	0	0.73296	-0.993
Mof_H 	H 	0.1422	5.64497e-33	0.7214	2.61
Mof_O 	O 	0.1921	-1.12899e-32	0.9219	52.343
Mof_O 	O 	0.17088	0.5	0.40621	-29.201
Mof_C 	C 	0.18548	0.5	0.23296	0.453
Mof_H 	H 	0.1422	0.5	0.2214	0.192
Mof_O 	O 	0.1921	0.5	0.4219	24.366
Mof_O 	O 	0.67088	-2.82248e-33	0.40621	12.295
Mof_C 	C 	0.68548	0	0.23296	0.616
Mof_H 	H 	0.6422	-2.82248e-33	0.2214	-0.308
Mof_O 	O 	0.6921	0	0.4219	-11.584
Mof_O 	O 	0.67088	0.5	0.90621	-14.408
Mof_C 	C 	0.68548	0.5	0.73296	-0.802
Mof_H 	H 	0.6422	0.5	0.7214	1.835
Mof_O 	O 	0.6921	0.5	0.9219	14.736
Mof_O 	O 	0.82912	-7.05621e-34	0.09379	57.925
Mof_C 	C 	0.81452	0	0.26704	1.045
Mof_H 	H 	0.8578	0	0.2786	-2.375
Mof_O 	O 	0.8079	0	0.0781	-53.725
Mof_O 	O 	0.82912	0.5	0.59379	27.299
Mof_C 	C 	0.81452	0.5	0.76704	-0.623
Mof_H 	H 	0.8578	0.5	0.7786	0.049
Mof_O 	O 	0.8079	0.5	0.5781	-23.615
Mof_O 	O 	0.32912	0	0.59379	-11.01
Mof_C 	C 	0.31452	0	0.76704	-1.011
Mof_H 	H 	0.3578	-5.64497e-33	0.7786	0.77
Mof_O 	O 	0.3079	0	0.5781	9.905
Mof_O 	O 	0.32912	0.5	0.09379	16.54
Mof_C 	C 	0.31452	0.5	0.26704	0.665
Mof_H 	H 	0.3578	0.5	0.2786	-1.739
Mof_O 	O 	0.3079	0.5	0.0781	-17.762
Mof_O 	O 	0.82912	-1.12899e-32	0.90621	10.466
Mof_C 	C 	0.81452	0	0.73296	-3.202
Mof_H 	H 	0.8578	5.64497e-33	0.7214	2.21
Mof_O 	O 	0.8079	-1.12899e-32	0.9219	-6.646
Mof_O 	O 	0.82912	0.5	0.40621	36.006
Mof_C 	C 	0.81452	0.5	0.23296	-1.637
Mof_H 	H 	0.8578	0.5	0.2214	-0.209
Mof_O 	O 	0.8079	0.5	0.4219	-32.418
Mof_O 	O 	0.32912	-2.82248e-33	0.40621	-2.402
Mof_C 	C 	0.31452	0	0.23296	-2.102
Mof_H 	H 	0.3578	-2.82248e-33	0.2214	0.55
Mof_O 	O 	0.3079	0	0.4219	1.198
Mof_O 	O 	0.32912	0.5	0.90621	-29.169
Mof_C 	C 	0.31452	0.5	0.73296	-3.396
Mof_H 	H 	0.3578	0.5	0.7214	2.662
Mof_O 	O 	0.3079	0.5	0.9219	27.57
Mof_O 	O 	0.17088	-7.05621e-34	0.09379	-9.79
Mof_C 	C 	0.18548	0	0.26704	3.244
Mof_H 	H 	0.1422	0	0.2786	-1.966
Mof_O 	O 	0.1921	0	0.0781	5.248
Mof_O 	O 	0.17088	0.5	0.59379	-37.86
Mof_C 	C 	0.18548	0.5	0.76704	1.467
Mof_H 	H 	0.1422	0.5	0.7786	0.441
Mof_O 	O 	0.1921	0.5	0.5781	33.121
Mof_O 	O 	0.67088	0	0.59379	3.691
Mof_C 	C 	0.68548	0	0.76704	1.716
Mof_H 	H 	0.6422	-5.64497e-33	0.7786	-0.09
Mof_O 	O 	0.6921	0	0.5781	-2.879
Mof_O 	O 	0.67088	0.5	0.09379	31.225
Mof_C 	C 	0.68548	0.5	0.26704	3.259
Mof_H 	H 	0.6422	0.5	0.2786	-2.566
Mof_O 	O 	0.6921	0.5	0.0781	-30.532
Mof_O 	O 	-2.53627e-33	0.09379	0.82912	57.925
Mof_C 	C 	-2.59101e-33	0.26704	0.81452	1.045
Mof_H 	H 	-8.0737e-33	0.2786	0.8578	-2.375
Mof_O 	O 	3.02914e-33	0.0781	0.8079	-53.725
Mof_O 	O 	1.234e-33	0.59379	0.32912	-11.01
Mof_C 	C 	-1.64322e-33	0.76704	0.31452	-1.011
Mof_H 	H 	-4.30343e-33	0.7786	0.3578	0.77
Mof_O 	O 	-1.01355e-32	0.5781	0.3079	9.905
Mof_O 	O 	0.5	0.09379	0.32912	16.54
Mof_C 	C 	0.5	0.26704	0.31452	0.665
Mof_H 	H 	0.5	0.2786	0.3578	-1.739
Mof_O 	O 	0.5	0.0781	0.3079	-17.762
Mof_O 	O 	0.5	0.59379	0.82912	27.299
Mof_C 	C 	0.5	0.76704	0.81452	-0.623
Mof_H 	H 	0.5	0.7786	0.8578	0.049
Mof_O 	O 	0.5	0.5781	0.8079	-23.615
Mof_O 	O 	-9.238e-33	0.90621	0.17088	-57.281
Mof_C 	C 	2.10668e-33	0.73296	0.18548	-0.993
Mof_H 	H 	-6.52305e-33	0.7214	0.1422	2.61
Mof_O 	O 	9.18771e-33	0.9219	0.1921	52.343
Mof_O 	O 	8.16037e-33	0.40621	0.67088	12.295
Mof_C 	C 	-3.07483e-33	0.23296	0.68548	0.616
Mof_H 	H 	2.40786e-33	0.2214	0.6422	-0.308
Mof_O 	O 	-3.05001e-33	0.4219	0.6921	-11.584
Mof_O 	O 	0.5	0.90621	0.67088	-14.408
Mof_C 	C 	0.5	0.73296	0.68548	-0.802
Mof_H 	H 	0.5	0.7214	0.6422	1.835
Mof_O 	O 	0.5	0.9219	0.6921	14.736
Mof_O 	O 	0.5	0.40621	0.17088	-29.201
Mof_C 	C 	0.5	0.23296	0.18548	0.453
Mof_H 	H 	0.5	0.2214	0.1422	0.192
Mof_O 	O 	0.5	0.4219	0.1921	24.366
Mof_O 	O 	-7.70545e-34	0.09379	0.17088	-9.79
Mof_C 	C 	-7.15804e-34	0.26704	0.18548	3.244
Mof_H 	H 	1.94441e-33	0.2786	0.1422	-1.966
Mof_O 	O 	7.2026e-34	0.0781	0.1921	5.248
Mof_O 	O 	8.16037e-33	0.59379	0.67088	3.691
Mof_C 	C 	1.38601e-32	0.76704	0.68548	1.716
Mof_H 	H 	-3.2371e-33	0.7786	0.6422	-0.09
Mof_O 	O 	-3.05001e-33	0.5781	0.6921	-2.879
Mof_O 	O 	0.5	0.09379	0.67088	31.225
Mof_C 	C 	0.5	0.26704	0.68548	3.259
Mof_H 	H 	0.5	0.2786	0.6422	-2.566
Mof_O 	O 	0.5	0.0781	0.6921	-30.532
Mof_O 	O 	0.5	0.59379	0.17088	-37.86
Mof_C 	C 	0.5	0.76704	0.18548	1.467
Mof_H 	H 	0.5	0.7786	0.1422	0.441
Mof_O 	O 	0.5	0.5781	0.1921	33.121
Mof_O 	O 	-8.18124e-33	0.90621	0.82912	10.466
Mof_C 	C 	1.43439e-32	0.73296	0.81452	-3.202
Mof_H 	H 	-8.0737e-33	0.7214	0.8578	2.21
Mof_O 	O 	8.67411e-33	0.9219	0.8079	-6.646
Mof_O 	O 	-1.58848e-33	0.40621	0.32912	-2.402
Mof_C 	C 	1.17926e-33	0.23296	0.31452	-2.102
Mof_H 	H 	-1.48095e-33	0.2214	0.3578	0.55
Mof_O 	O 	-1.01355e-32	0.4219	0.3079	1.198
Mof_O 	O 	0.5	0.90621	0.32912	-29.169
Mof_C 	C 	0.5	0.73296	0.31452	-3.396
Mof_H 	H 	0.5	0.7214	0.3578	2.662
Mof_O 	O 	0.5	0.9219	0.3079	27.57
Mof_O 	O 	0.5	0.40621	0.82912	36.006
Mof_C 	C 	0.5	0.23296	0.81452	-1.637
Mof_H 	H 	0.5	0.2214	0.8578	-0.209
Mof_O 	O 	0.5	0.4219	0.8079	-32.418
Mof_C 	C 	0.15175	0.15175	-0	7.743
Mof_C 	C 	0.20269	0.20269	-0	-4.766
Mof_C 	C 	0.15175	0.65175	0.5	2.86
Mof_C 	C 	0.20269	0.70269	0.5	-2.486
Mof_C 	C 	0.65175	0.15175	0.5	2.86
Mof_C 	C 	0.70269	0.20269	0.5	-2.486
Mof_C 	C 	0.65175	0.65175	-0	-2.184
Mof_C 	C 	0.70269	0.70269	-0	-0.155
Mof_C 	C 	0.84825	0.84825	-0	-8.072
Mof_C 	C 	0.79731	0.79731	-0	5.03
Mof_C 	C 	0.84825	0.34825	0.5	-2.961
Mof_C 	C 	0.79731	0.29731	0.5	2.668
Mof_C 	C 	0.34825	0.84825	0.5	-2.961
Mof_C 	C 	0.29731	0.79731	0.5	2.668
Mof_C 	C 	0.34825	0.34825	-0	1.383
Mof_C 	C 	0.29731	0.29731	-0	0.891
Mof_C 	C 	0.84825	0.15175	-0	-0.155
Mof_C 	C 	0.79731	0.20269	-0	0.123
Mof_C 	C 	0.84825	0.65175	0.5	-4.749
Mof_C 	C 	0.79731	0.70269	0.5	2.215
Mof_C 	C 	0.34825	0.15175	0.5	4.64
Mof_C 	C 	0.29731	0.20269	0.5	-2.028
Mof_C 	C 	0.34825	0.65175	-0	-0.4
Mof_C 	C 	0.29731	0.70269	-0	0.37
Mof_C 	C 	0.15175	0.84825	-0	-0.155
Mof_C 	C 	0.20269	0.79731	-0	0.123
Mof_C 	C 	0.15175	0.34825	0.5	4.64
Mof_C 	C 	0.20269	0.29731	0.5	-2.028
Mof_C 	C 	0.65175	0.84825	0.5	-4.749
Mof_C 	C 	0.70269	0.79731	0.5	2.215
Mof_C 	C 	0.65175	0.34825	-0	-0.4
Mof_C 	C 	0.70269	0.29731	-0	0.37
Mof_C 	C 	5.68971e-34	0.15175	0.15175	7.743
Mof_C 	C 	7.59966e-34	0.20269	0.20269	-4.766
Mof_C 	C 	2.44367e-33	0.65175	0.65175	-2.184
Mof_C 	C 	-1.43002e-32	0.70269	0.70269	-0.155
Mof_C 	C 	0.5	0.15175	0.65175	2.86
Mof_C 	C 	0.5	0.20269	0.70269	-2.486
Mof_C 	C 	0.5	0.65175	0.15175	2.86
Mof_C 	C 	0.5	0.70269	0.20269	-2.486
Mof_C 	C 	3.18043e-33	0.84825	0.84825	-8.072
Mof_C 	C 	2.98943e-33	0.79731	0.79731	5.03
Mof_C 	C 	1.30573e-33	0.34825	0.34825	1.383
Mof_C 	C 	1.11473e-33	0.29731	0.29731	0.891
Mof_C 	C 	0.5	0.84825	0.34825	-2.961
Mof_C 	C 	0.5	0.79731	0.29731	2.668
Mof_C 	C 	0.5	0.34825	0.84825	-2.961
Mof_C 	C 	0.5	0.29731	0.79731	2.668
Mof_C 	C 	-9.30972e-33	0.84825	0.15175	-0.155
Mof_C 	C 	3.58245e-33	0.79731	0.20269	0.123
Mof_C 	C 	-3.2013e-33	0.34825	0.65175	-0.4
Mof_C 	C 	-3.0103e-33	0.29731	0.70269	0.37
Mof_C 	C 	0.5	0.84825	0.65175	-4.749
Mof_C 	C 	0.5	0.79731	0.70269	2.215
Mof_C 	C 	0.5	0.34825	0.15175	4.64
Mof_C 	C 	0.5	0.29731	0.20269	-2.028
Mof_C 	C 	-8.10951e-33	0.15175	0.84825	-0.155
Mof_C 	C 	2.98943e-33	0.20269	0.79731	0.123
Mof_C 	C 	-1.51676e-33	0.65175	0.34825	-0.4
Mof_C 	C 	-4.53023e-33	0.70269	0.29731	0.37
Mof_C 	C 	0.5	0.15175	0.34825	4.64
Mof_C 	C 	0.5	0.20269	0.29731	-2.028
Mof_C 	C 	0.5	0.65175	0.84825	-4.749
Mof_C 	C 	0.5	0.70269	0.79731	2.215
Mof_C 	C 	0.15175	-1.41124e-33	0.15175	7.743
Mof_C 	C 	0.20269	0	0.20269	-4.766
Mof_C 	C 	0.15175	0.5	0.65175	2.86
Mof_C 	C 	0.20269	0.5	0.70269	-2.486
Mof_C 	C 	0.65175	-5.64497e-33	0.65175	-2.184
Mof_C 	C 	0.70269	0	0.70269	-0.155
Mof_C 	C 	0.65175	0.5	0.15175	2.86
Mof_C 	C 	0.70269	0.5	0.20269	-2.486
Mof_C 	C 	0.84825	0	0.84825	-8.072
Mof_C 	C 	0.79731	-5.64497e-33	0.79731	5.03
Mof_C 	C 	0.84825	0.5	0.34825	-2.961
Mof_C 	C 	0.79731	0.5	0.29731	2.668
Mof_C 	C 	0.34825	-2.82248e-33	0.34825	1.383
Mof_C 	C 	0.29731	0	0.29731	0.891
Mof_C 	C 	0.34825	0.5	0.84825	-2.961
Mof_C 	C 	0.29731	0.5	0.79731	2.668
Mof_C 	C 	0.15175	0	0.84825	-0.155
Mof_C 	C 	0.20269	-5.64497e-33	0.79731	0.123
Mof_C 	C 	0.15175	0.5	0.34825	4.64
Mof_C 	C 	0.20269	0.5	0.29731	-2.028
Mof_C 	C 	0.65175	-2.82248e-33	0.34825	-0.4
Mof_C 	C 	0.70269	0	0.29731	0.37
Mof_C 	C 	0.65175	0.5	0.84825	-4.749
Mof_C 	C 	0.70269	0.5	0.79731	2.215
Mof_C 	C 	0.84825	-1.41124e-33	0.15175	-0.155
Mof_C 	C 	0.79731	0	0.20269	0.123
Mof_C 	C 	0.84825	0.5	0.65175	-4.749
Mof_C 	C 	0.79731	0.5	0.70269	2.215
Mof_C 	C 	0.34825	-5.64497e-33	0.65175	-0.4
Mof_C 	C 	0.29731	0	0.70269	0.37
Mof_C 	C 	0.34825	0.5	0.15175	4.64
Mof_C 	C 	0.29731	0.5	0.20269	-2.028
Mof_O 	O 	0.05006	0.05006	0.05006	4.776
Mof_O 	O 	0.06724	0.06724	0.06724	-5.857
Mof_H 	H 	0.0945	0.0945	0.0945	1.888
Mof_O 	O 	0.05006	0.55006	0.55006	0.35
Mof_O 	O 	0.06724	0.56724	0.56724	-1.398
Mof_H 	H 	0.0945	0.5945	0.5945	0.359
Mof_O 	O 	0.55006	0.05006	0.55006	0.35
Mof_O 	O 	0.56724	0.06724	0.56724	-1.398
Mof_H 	H 	0.5945	0.0945	0.5945	0.359
Mof_O 	O 	0.55006	0.55006	0.05006	0.35
Mof_O 	O 	0.56724	0.56724	0.06724	-1.398
Mof_H 	H 	0.5945	0.5945	0.0945	0.359
Mof_O 	O 	0.94994	0.94994	0.05006	-5.178
Mof_O 	O 	0.93276	0.93276	0.06724	4.518
Mof_H 	H 	0.9055	0.9055	0.0945	-1.648
Mof_O 	O 	0.94994	0.44994	0.55006	-5.247
Mof_O 	O 	0.93276	0.43276	0.56724	4.668
Mof_H 	H 	0.9055	0.4055	0.5945	-1.617
Mof_O 	O 	0.44994	0.94994	0.55006	-5.247
Mof_O 	O 	0.43276	0.93276	0.56724	4.668
Mof_H 	H 	0.4055	0.9055	0.5945	-1.617
Mof_O 	O 	0.44994	0.44994	0.05006	-0.216
Mof_O 	O 	0.43276	0.43276	0.06724	-0.447
Mof_H 	H 	0.4055	0.4055	0.0945	0.173
Mof_O 	O 	0.94994	0.05006	0.94994	-5.178
Mof_O 	O 	0.93276	0.06724	0.93276	4.518
Mof_H 	H 	0.9055	0.0945	0.9055	-1.648
Mof_O 	O 	0.94994	0.55006	0.44994	-5.247
Mof_O 	O 	0.93276	0.56724	0.43276	4.668
Mof_H 	H 	0.9055	0.5945	0.4055	-1.617
Mof_O 	O 	0.44994	0.05006	0.44994	-0.216
Mof_O 	O 	0.43276	0.06724	0.43276	-0.447
Mof_H 	H 	0.4055	0.0945	0.4055	0.173
Mof_O 	O 	0.44994	0.55006	0.94994	-5.247
Mof_O 	O 	0.43276	0.56724	0.93276	4.668
Mof_H 	H 	0.4055	0.5945	0.9055	-1.617
Mof_O 	O 	0.05006	0.94994	0.94994	-5.178
Mof_O 	O 	0.06724	0.93276	0.93276	4.518
Mof_H 	H 	0.0945	0.9055	0.9055	-1.648
Mof_O 	O 	0.05006	0.44994	0.44994	-0.216
Mof_O 	O 	0.06724	0.43276	0.43276	-0.447
Mof_H 	H 	0.0945	0.4055	0.4055	0.173
Mof_O 	O 	0.55006	0.94994	0.44994	-5.247
Mof_O 	O 	0.56724	0.93276	0.43276	4.668
Mof_H 	H 	0.5945	0.9055	0.4055	-1.617
Mof_O 	O 	0.55006	0.44994	0.94994	-5.247
Mof_O 	O 	0.56724	0.43276	0.93276	4.668
Mof_H 	H 	0.5945	0.4055	0.9055	-1.617
Mof_O 	O 	0.05006	0.05006	0.94994	-0.011
Mof_O 	O 	0.06724	0.06724	0.93276	-0.895
Mof_H 	H 	0.0945	0.0945	0.9055	0.181
Mof_O 	O 	0.05006	0.55006	0.44994	0.068
Mof_O 	O 	0.06724	0.56724	0.43276	-0.923
Mof_H 	H 	0.0945	0.5945	0.4055	0.266
Mof_O 	O 	0.55006	0.05006	0.44994	0.068
Mof_O 	O 	0.56724	0.06724	0.43276	-0.923
Mof_H 	H 	0.5945	0.0945	0.4055	0.266
Mof_O 	O 	0.55006	0.55006	0.94994	-4.987
Mof_O 	O 	0.56724	0.56724	0.93276	4.221
Mof_H 	H 	0.5945	0.5945	0.9055	-1.529
Mof_O 	O 	0.94994	0.94994	0.94994	-10.724
Mof_O 	O 	0.93276	0.93276	0.93276	10.381
Mof_H 	H 	0.9055	0.9055	0.9055	-3.599
Mof_O 	O 	0.94994	0.44994	0.44994	-5.509
Mof_O 	O 	0.93276	0.43276	0.43276	5.118
Mof_H 	H 	0.9055	0.4055	0.4055	-1.705
Mof_O 	O 	0.44994	0.94994	0.44994	-5.509
Mof_O 	O 	0.43276	0.93276	0.43276	5.118
Mof_H 	H 	0.4055	0.9055	0.4055	-1.705
Mof_O 	O 	0.44994	0.44994	0.94994	-5.509
Mof_O 	O 	0.43276	0.43276	0.93276	5.118
Mof_H 	H 	0.4055	0.4055	0.9055	-1.705
Mof_O 	O 	0.05006	0.94994	0.05006	-0.011
Mof_O 	O 	0.06724	0.93276	0.06724	-0.895
Mof_H 	H 	0.0945	0.9055	0.0945	0.181
Mof_O 	O 	0.05006	0.44994	0.55006	0.068
Mof_O 	O 	0.06724	0.43276	0.56724	-0.923
Mof_H 	H 	0.0945	0.4055	0.5945	0.266
Mof_O 	O 	0.55006	0.94994	0.55006	-4.987
Mof_O 	O 	0.56724	0.93276	0.56724	4.221
Mof_H 	H 	0.5945	0.9055	0.5945	-1.529
Mof_O 	O 	0.55006	0.44994	0.05006	0.068
Mof_O 	O 	0.56724	0.43276	0.06724	-0.923
Mof_H 	H 	0.5945	0.4055	0.0945	0.266
Mof_O 	O 	0.94994	0.05006	0.05006	-0.011
Mof_O 	O 	0.93276	0.06724	0.06724	-0.895
Mof_H 	H 	0.9055	0.0945	0.0945	0.181
Mof_O 	O 	0.94994	0.55006	0.55006	-4.987
Mof_O 	O 	0.93276	0.56724	0.56724	4.221
Mof_H 	H 	0.9055	0.5945	0.5945	-1.529
Mof_O 	O 	0.44994	0.05006	0.55006	0.068
Mof_O 	O 	0.43276	0.06724	0.56724	-0.923
Mof_H 	H 	0.4055	0.0945	0.5945	0.266
Mof_O 	O 	0.44994	0.55006	0.05006	0.068
Mof_O 	O 	0.43276	0.56724	0.06724	-0.923
Mof_H 	H 	0.4055	0.5945	0.0945	0.266
_end
