data_functionalizedCrystal
_audit_creation_method	'EQeq! by Chris Wilmer'
_symmetry_space_group_name_H-M	'P1'
_symmetry_Int_Tables_number	1
_symmetry_cell_setting	triclinic
loop_
_symmetry_equiv_pos_as_xyz
  x,y,z
_cell_length_a	9.0462
_cell_length_b	9.0462
_cell_length_c	16.986
_cell_angle_alpha	90
_cell_angle_beta	90
_cell_angle_gamma	116.369
loop_
_atom_site_label
_atom_site_type_symbol
_atom_site_fract_x
_atom_site_fract_y
_atom_site_fract_z
_atom_site_charge
Mof_Eu	Eu	0.99999	0.99999	-0	1.627
Mof_Eu	Eu	0.99999	0.99999	0.5	1.863
Mof_Eu	Eu	0.35564	0.65262	0.25	2.339
Mof_Eu	Eu	0.65262	0.35564	0.75	2.347
Mof_H 	H 	0.5461	0.9469	0.0798	0.013
Mof_H 	H 	0.5057	0.8057	0.0173	0.033
Mof_H 	H 	0.5876	0.9784	0.9074	-0.097
Mof_H 	H 	0.6173	0.1307	0.9611	-0.01
Mof_H 	H 	0.3945	0.3975	0.088	0.066
Mof_H 	H 	0.3241	0.4905	0.0328	0.063
Mof_H 	H 	0.9469	0.5461	0.9202	0.055
Mof_H 	H 	0.8057	0.5057	0.9827	0.102
Mof_H 	H 	0.9784	0.5876	0.0926	-0.11
Mof_H 	H 	0.1307	0.6173	0.0389	-0.009
Mof_H 	H 	0.3975	0.3945	0.912	0.077
Mof_H 	H 	0.4905	0.3241	0.9672	0.085
Mof_H 	H 	0.9469	0.5461	0.5798	0.024
Mof_H 	H 	0.8057	0.5057	0.5173	0.057
Mof_H 	H 	0.9784	0.5876	0.4074	-0.131
Mof_H 	H 	0.1307	0.6173	0.4611	-0.026
Mof_H 	H 	0.3975	0.3945	0.588	0.091
Mof_H 	H 	0.4905	0.3241	0.5328	0.09
Mof_H 	H 	0.5461	0.9469	0.4202	0.035
Mof_H 	H 	0.5057	0.8057	0.4827	0.067
Mof_H 	H 	0.5876	0.9784	0.5926	-0.084
Mof_H 	H 	0.6173	0.1307	0.5389	-0.003
Mof_H 	H 	0.3945	0.3975	0.412	0.087
Mof_H 	H 	0.3241	0.4905	0.4672	0.093
Mof_C 	C 	0.6589	0.8007	0.1042	0.443
Mof_C 	C 	0.5923	0.8861	0.0498	-0.123
Mof_C 	C 	0.6686	0.0654	0.9395	0.28
Mof_C 	C 	0.8145	0.1729	0.8897	0.39
Mof_C 	C 	0.1537	0.3411	0.1128	0.455
Mof_C 	C 	0.2986	0.3858	0.0581	-0.183
Mof_C 	C 	0.8007	0.6589	0.8958	0.477
Mof_C 	C 	0.8861	0.5923	0.9502	-0.196
Mof_C 	C 	0.0654	0.6686	0.0605	0.149
Mof_C 	C 	0.1729	0.8145	0.1103	0.418
Mof_C 	C 	0.3411	0.1537	0.8872	0.45
Mof_C 	C 	0.3858	0.2986	0.9419	-0.117
Mof_C 	C 	0.8007	0.6589	0.6042	0.459
Mof_C 	C 	0.8861	0.5923	0.5498	-0.14
Mof_C 	C 	0.0654	0.6686	0.4395	0.272
Mof_C 	C 	0.1729	0.8145	0.3897	0.394
Mof_C 	C 	0.3411	0.1537	0.6128	0.478
Mof_C 	C 	0.3858	0.2986	0.5581	-0.221
Mof_C 	C 	0.6589	0.8007	0.3958	0.467
Mof_C 	C 	0.5923	0.8861	0.4502	-0.162
Mof_C 	C 	0.6686	0.0654	0.5605	0.175
Mof_C 	C 	0.8145	0.1729	0.6103	0.422
Mof_C 	C 	0.1537	0.3411	0.3872	0.477
Mof_C 	C 	0.2986	0.3858	0.4419	-0.22
Mof_O 	O 	0.8067	0.8309	0.099	-0.499
Mof_O 	O 	0.5584	0.7038	0.1544	-0.596
Mof_O 	O 	0.7225	0.9955	0.0017	-0.468
Mof_O 	O 	0.7869	0.2485	0.8359	-0.537
Mof_O 	O 	0.9519	0.1751	0.9048	-0.395
Mof_O 	O 	0.0271	0.2041	0.0992	-0.305
Mof_O 	O 	0.1659	0.4367	0.1661	-0.502
Mof_O 	O 	0.8309	0.8067	0.901	-0.463
Mof_O 	O 	0.7038	0.5584	0.8456	-0.595
Mof_O 	O 	0.9955	0.7225	0.9983	-0.321
Mof_O 	O 	0.2485	0.7869	0.1641	-0.544
Mof_O 	O 	0.1751	0.9519	0.0952	-0.436
Mof_O 	O 	0.2041	0.0271	0.9008	-0.275
Mof_O 	O 	0.4367	0.1659	0.8339	-0.499
Mof_O 	O 	0.8309	0.8067	0.599	-0.505
Mof_O 	O 	0.7038	0.5584	0.6544	-0.595
Mof_O 	O 	0.9955	0.7225	0.5017	-0.44
Mof_O 	O 	0.2485	0.7869	0.3359	-0.536
Mof_O 	O 	0.1751	0.9519	0.4048	-0.435
Mof_O 	O 	0.2041	0.0271	0.5992	-0.328
Mof_O 	O 	0.4367	0.1659	0.6661	-0.51
Mof_O 	O 	0.8067	0.8309	0.401	-0.513
Mof_O 	O 	0.5584	0.7038	0.3456	-0.6
Mof_O 	O 	0.7225	0.9955	0.4983	-0.406
Mof_O 	O 	0.7869	0.2485	0.6641	-0.549
Mof_O 	O 	0.9519	0.1751	0.5952	-0.458
Mof_O 	O 	0.0271	0.2041	0.4008	-0.326
Mof_O 	O 	0.1659	0.4367	0.3339	-0.507
Mof_O 	O 	0.2603	0.2603	-0	-0.252
Mof_O 	O 	0.2603	0.2603	0.5	-0.193
_end
