data_functionalizedCrystal
_audit_creation_method	'EQeq! by Chris Wilmer'
_symmetry_space_group_name_H-M	'P1'
_symmetry_Int_Tables_number	1
_symmetry_cell_setting	triclinic
loop_
_symmetry_equiv_pos_as_xyz
  x,y,z
_cell_length_a	9.774
_cell_length_b	13.918
_cell_length_c	7.715
_cell_angle_alpha	90.41
_cell_angle_beta	90.43
_cell_angle_gamma	93.18
loop_
_atom_site_label
_atom_site_type_symbol
_atom_site_fract_x
_atom_site_fract_y
_atom_site_fract_z
_atom_site_charge
Mof_Cd	Cd	0.09521	0.26437	0.50349	0.286
Mof_C 	C 	0.029	0.0923	0.173	-0.396
Mof_C 	C 	0.073	0.4259	0.173	-0.36
Mof_C 	C 	0.083	0.4286	0.831	-0.196
Mof_C 	C 	0.043	0.0915	0.831	-0.221
Mof_C 	C 	0.418	0.3204	0.513	-0.029
Mof_C 	C 	0.568	0.299	0.494	-0.071
Mof_C 	C 	0.664	0.3856	0.522	-0.096
Mof_C 	C 	0.814	0.371	0.48	-0.005
Mof_N 	N 	0.048	0.1479	0.279	-0.09
Mof_N 	N 	0.115	0.3799	0.283	-0.084
Mof_N 	N 	0.13	0.384	0.724	-0.088
Mof_N 	N 	0.069	0.1472	0.726	-0.099
Mof_N 	N 	0.3221	0.2386	0.485	-0.186
Mof_N 	N 	0.864	0.2861	0.539	-0.158
Mof_H 	H 	0.33969	0.21227	0.35318	0.036
Mof_H 	H 	0.34559	0.18517	0.5752	0.066
Mof_H 	H 	0.40157	0.34882	0.64085	0.047
Mof_H 	H 	0.39414	0.37672	0.41925	0.019
Mof_H 	H 	0.58276	0.27122	0.36448	0.017
Mof_H 	H 	0.59126	0.246	0.58711	0.044
Mof_H 	H 	0.66014	0.40661	0.65423	0.06
Mof_H 	H 	0.62985	0.44289	0.44022	0.036
Mof_H 	H 	0.87627	0.43165	0.52635	0.058
Mof_H 	H 	0.82416	0.36898	0.33636	0.027
Mof_H 	H 	0.80682	0.22314	0.48741	0.073
Mof_H 	H 	0.84533	0.28331	0.68437	0.095
Mof_Cd	Cd	0.90479	0.73563	0.49651	0.412
Mof_C 	C 	0.971	0.9077	0.827	-0.033
Mof_C 	C 	0.927	0.5741	0.827	-0.074
Mof_C 	C 	0.917	0.5714	0.169	-0.225
Mof_C 	C 	0.957	0.9085	0.169	-0.181
Mof_C 	C 	0.582	0.6796	0.487	-0.017
Mof_C 	C 	0.432	0.701	0.506	-0.084
Mof_C 	C 	0.336	0.6144	0.478	-0.082
Mof_C 	C 	0.186	0.629	0.52	-0.009
Mof_N 	N 	0.952	0.8521	0.721	-0.086
Mof_N 	N 	0.885	0.6201	0.717	-0.09
Mof_N 	N 	0.87	0.616	0.276	-0.083
Mof_N 	N 	0.931	0.8528	0.274	-0.083
Mof_N 	N 	0.6779	0.7614	0.515	-0.193
Mof_N 	N 	0.136	0.7139	0.461	-0.206
Mof_H 	H 	0.66031	0.78773	0.64682	0.085
Mof_H 	H 	0.65441	0.81483	0.4248	0.066
Mof_H 	H 	0.59843	0.65118	0.35915	0.011
Mof_H 	H 	0.60586	0.62328	0.58075	0.036
Mof_H 	H 	0.41724	0.72878	0.63552	0.053
Mof_H 	H 	0.40874	0.754	0.41289	0.028
Mof_H 	H 	0.33986	0.59339	0.34577	0.016
Mof_H 	H 	0.37015	0.55711	0.55978	0.045
Mof_H 	H 	0.12373	0.56835	0.47365	-0.001
Mof_H 	H 	0.17584	0.63102	0.66364	0.009
Mof_H 	H 	0.19318	0.77686	0.51259	0.049
Mof_H 	H 	0.15467	0.71669	0.31563	0.005
Mof_Ni	Ni	-0	0	-0	0.909
Mof_Ni	Ni	-0	0.5	-0	0.938
_end
