data_functionalizedCrystal
_audit_creation_method	'EQeq! by Chris Wilmer'
_symmetry_space_group_name_H-M	'P1'
_symmetry_Int_Tables_number	1
_symmetry_cell_setting	triclinic
loop_
_symmetry_equiv_pos_as_xyz
  x,y,z
_cell_length_a	13.736
_cell_length_b	22.64
_cell_length_c	23.01
_cell_angle_alpha	65.026
_cell_angle_beta	75.118
_cell_angle_gamma	87.591
loop_
_atom_site_label
_atom_site_type_symbol
_atom_site_fract_x
_atom_site_fract_y
_atom_site_fract_z
_atom_site_charge
Mof_Mn	Mn	0.04356	0.75145	0.3427	0.987
Mof_O 	O 	0.0068	0.766	0.4264	-0.409
Mof_O 	O 	0.0896	0.8445	0.2742	-0.4
Mof_O 	O 	0.9018	0.7349	0.3312	-0.473
Mof_O 	O 	0.9516	0.6461	0.3964	-0.323
Mof_O 	O 	0.1707	0.7057	0.3599	-0.372
Mof_C 	C 	0.9509	0.8092	0.432	0.385
Mof_C 	C 	0.0307	0.8816	0.2447	0.351
Mof_Mn	Mn	0.82175	0.82402	0.3329	1.034
Mof_O 	O 	0.8976	0.8408	0.3937	-0.4
Mof_C 	C 	0.953	0.8273	0.4879	-0.042
Mof_O 	O 	0.94	0.8731	0.2497	-0.393
Mof_C 	C 	0.083	0.9501	0.1946	-0.017
Mof_O 	O 	0.7108	0.7635	0.414	-0.423
Mof_O 	O 	0.739	0.9147	0.3276	-0.444
Mof_O 	O 	0.7312	0.8228	0.2707	-0.398
Mof_C 	C 	0.9076	0.8826	0.4902	-0.076
Mof_C 	C 	0.9922	0.786	0.5397	-0.062
Mof_C 	C 	0.0408	0.9844	0.142	-0.113
Mof_C 	C 	0.1636	0.9789	0.202	-0.086
Mof_C 	C 	0.6219	0.7511	0.4351	0.384
Mof_Mn	Mn	0.58951	0.8879	0.33595	0.977
Mof_H 	H 	0.8808	0.9108	0.4548	0.072
Mof_C 	C 	0.9014	0.8965	0.5443	0.076
Mof_C 	C 	0.986	0.8	0.5938	0.089
Mof_H 	H 	0.0233	0.7482	0.5382	0.061
Mof_H 	H 	0.9858	0.9647	0.137	0.089
Mof_C 	C 	0.0791	0.0476	0.0969	0.076
Mof_C 	C 	0.2018	0.0422	0.1569	0.068
Mof_H 	H 	0.1924	0.9555	0.2379	0.073
Mof_O 	O 	0.5562	0.7961	0.4126	-0.371
Mof_C 	C 	0.5725	0.6903	0.4882	-0.07
Mof_O 	O 	0.4343	0.9074	0.359	-0.344
Mof_O 	O 	0.5332	0.9964	0.2859	-0.283
Mof_O 	O 	0.6181	0.8907	0.2441	-0.384
Mof_H 	H 	0.8703	0.9343	0.5458	-0.004
Mof_C 	C 	0.9406	0.8552	0.5961	-0.262
Mof_H 	H 	0.0128	0.7717	0.6292	-0.015
Mof_H 	H 	0.0502	0.0711	0.061	-0.013
Mof_C 	C 	0.1596	0.0765	0.1043	-0.242
Mof_H 	H 	0.2569	0.0619	0.1619	0.001
Mof_C 	C 	0.6345	0.6395	0.5085	-0.054
Mof_C 	C 	0.4687	0.6797	0.5163	-0.055
Mof_C 	C 	0.4479	0.965	0.323	0.281
Mof_Si	Si	0.9244	0.87244	0.6714	0.773
Mof_Si	Si	0.209	0.1621	0.0387	0.678
Mof_H 	H 	0.7054	0.6467	0.4893	0.064
Mof_C 	C 	0.5926	0.5781	0.5569	0.052
Mof_C 	C 	0.4269	0.6183	0.5647	0.059
Mof_H 	H 	0.4264	0.7144	0.5025	0.067
Mof_C 	C 	0.3577	0.0068	0.319	0.012
Mof_C 	C 	0.811	0.921	0.6794	-0.277
Mof_C 	C 	0.0367	0.9228	0.6639	-0.264
Mof_C 	C 	0.9047	0.7913	0.7449	-0.271
Mof_C 	C 	0.1095	0.2221	0.0371	-0.195
Mof_C 	C 	0.2414	0.155	0.9562	-0.199
Mof_C 	C 	0.3257	0.1894	0.0517	-0.249
Mof_H 	H 	0.635	0.5434	0.5708	0.007
Mof_C 	C 	0.4888	0.5676	0.585	-0.24
Mof_H 	H 	0.356	0.6111	0.5839	-0
Mof_C 	C 	0.2628	0.9755	0.3566	-0.107
Mof_C 	C 	0.3683	0.0742	0.2822	-0.109
Mof_C 	C 	0.8216	0.9884	0.6426	0.095
Mof_C 	C 	0.716	0.8897	0.717	0.101
Mof_C 	C 	0.0268	0.9534	0.7062	0.055
Mof_C 	C 	0.1249	0.9343	0.6135	0.077
Mof_C 	C 	0.8284	0.7464	0.7557	0.079
Mof_C 	C 	0.9719	0.7732	0.7844	0.09
Mof_C 	C 	0.1438	0.2878	0.0033	-0.024
Mof_C 	C 	0.0065	0.2042	0.0605	-0.012
Mof_C 	C 	0.1953	0.1945	0.9074	0.027
Mof_C 	C 	0.309	0.1113	0.9445	0.036
Mof_C 	C 	0.3201	0.2015	0.1069	0.083
Mof_C 	C 	0.4177	0.1991	0.0048	0.065
Mof_Si	Si	0.4392	0.48496	0.6561	0.734
Mof_H 	H 	0.2555	0.9294	0.3817	0.085
Mof_H 	H 	0.4332	0.0957	0.2565	0.088
Mof_H 	H 	0.8864	0.0098	0.6169	-0.008
Mof_H 	H 	0.7088	0.8436	0.7421	-0.015
Mof_C 	C 	0.1052	0.9955	0.6979	-0.066
Mof_H 	H 	0.9665	0.9455	0.7406	0.007
Mof_H 	H 	0.1317	0.9135	0.5847	-0.006
Mof_C 	C 	0.2033	0.9764	0.6053	-0.082
Mof_C 	C 	0.8193	0.6836	0.806	-0.08
Mof_H 	H 	0.7825	0.7588	0.7287	-0.007
Mof_H 	H 	0.0241	0.8038	0.777	-0.013
Mof_C 	C 	0.9628	0.7103	0.8347	-0.068
Mof_C 	C 	0.0749	0.3355	0.993	-0.012
Mof_H 	H 	0.2142	0.3001	0.9873	0.037
Mof_H 	H 	0.9831	0.1593	0.0835	0.036
Mof_C 	C 	0.9376	0.2519	0.0502	-0.023
Mof_C 	C 	0.2167	0.1903	0.8469	-0.033
Mof_H 	H 	0.1491	0.2243	0.9155	0.017
Mof_H 	H 	0.3406	0.0843	0.9779	0.015
Mof_C 	C 	0.3305	0.1072	0.884	-0.039
Mof_C 	C 	0.4065	0.2233	0.1151	-0.106
Mof_H 	H 	0.2572	0.1948	0.1389	-0.01
Mof_H 	H 	0.4215	0.1908	0.9671	0.008
Mof_C 	C 	0.5041	0.2209	0.0131	-0.119
Mof_C 	C 	0.3792	0.4938	0.7338	-0.26
Mof_C 	C 	0.3451	0.4388	0.6396	-0.247
Mof_C 	C 	0.5527	0.4342	0.6658	-0.25
Mof_C 	C 	0.1935	0.007	0.6475	-0.037
Mof_H 	H 	0.0985	0.0163	0.7268	0.064
Mof_H 	H 	0.2636	0.9843	0.5708	0.075
Mof_C 	C 	0.8866	0.6655	0.8456	-0.04
Mof_H 	H 	0.7672	0.6529	0.8134	0.065
Mof_H 	H 	0.0088	0.698	0.8617	0.065
Mof_C 	C 	0.9718	0.3176	0.0164	-0.06
Mof_H 	H 	0.0983	0.3804	0.97	0.048
Mof_H 	H 	0.8671	0.2396	0.0662	0.066
Mof_C 	C 	0.2844	0.1467	0.8352	-0.086
Mof_H 	H 	0.1852	0.2173	0.8136	0.052
Mof_H 	H 	0.3767	0.0773	0.876	0.061
Mof_C 	C 	0.4985	0.233	0.0682	0.014
Mof_H 	H 	0.4026	0.2315	0.1528	0.077
Mof_H 	H 	0.5669	0.2276	0.981	0.096
Mof_C 	C 	0.4256	0.5336	0.7527	0.075
Mof_C 	C 	0.2857	0.4609	0.7726	0.07
Mof_C 	C 	0.3349	0.3711	0.6743	0.067
Mof_C 	C 	0.278	0.4706	0.6023	0.07
Mof_C 	C 	0.5927	0.4117	0.6177	0.074
Mof_C 	C 	0.5938	0.4179	0.7194	0.08
Mof_C 	C 	0.2775	0.0538	0.6376	0.348
Mof_C 	C 	0.8756	0.5962	0.8992	0.365
Mof_C 	C 	0.8939	0.3696	0.0037	0.327
Mof_C 	C 	0.3132	0.144	0.7721	0.378
Mof_C 	C 	0.5942	0.2568	0.0754	0.257
Mof_C 	C 	0.3787	0.5405	0.8105	-0.076
Mof_H 	H 	0.4895	0.5562	0.7262	-0.005
Mof_H 	H 	0.2539	0.4337	0.7597	-0.002
Mof_C 	C 	0.2387	0.4677	0.8304	-0.075
Mof_C 	C 	0.2577	0.3353	0.6718	-0.079
Mof_H 	H 	0.3808	0.3494	0.6998	-0
Mof_H 	H 	0.285	0.5168	0.5785	-0.005
Mof_C 	C 	0.2008	0.4347	0.5998	-0.079
Mof_C 	C 	0.674	0.3728	0.6231	-0.083
Mof_H 	H 	0.5646	0.4228	0.5811	-0.006
Mof_H 	H 	0.5665	0.4333	0.7523	-0.006
Mof_C 	C 	0.6751	0.379	0.7249	-0.091
Mof_O 	O 	0.3575	0.0601	0.5973	-0.311
Mof_O 	O 	0.9587	0.5789	0.9191	-0.35
Mof_O 	O 	0.8039	0.5601	0.9136	-0.409
Mof_O 	O 	0.9275	0.4282	0.9808	-0.409
Mof_O 	O 	0.8052	0.3518	0.0185	-0.322
Mof_O 	O 	0.6685	0.2765	0.0228	-0.219
Mof_O 	O 	0.5895	0.2625	0.127	-0.222
Mof_C 	C 	0.2852	0.5075	0.8493	-0.044
Mof_H 	H 	0.4104	0.5676	0.8235	0.069
Mof_H 	H 	0.1748	0.4452	0.8569	0.063
Mof_C 	C 	0.1906	0.3671	0.6345	-0.036
Mof_H 	H 	0.2507	0.289	0.6956	0.071
Mof_H 	H 	0.155	0.4565	0.5743	0.072
Mof_C 	C 	0.7151	0.3564	0.6767	-0.015
Mof_H 	H 	0.7013	0.3573	0.5902	0.078
Mof_H 	H 	0.7032	0.3678	0.7615	0.074
Mof_Mn	Mn	0.77215	0.45925	0.96885	0.827
Mof_C 	C 	0.2271	0.5153	0.9109	0.373
Mof_C 	C 	0.1053	0.3231	0.6371	0.373
Mof_C 	C 	0.8036	0.3139	0.6843	0.338
Mof_O 	O 	0.7219	0.4601	0.0624	-0.367
Mof_O 	O 	0.86	0.5028	0.0649	-0.4
Mof_O 	O 	0.8456	0.3018	0.7269	-0.31
Mof_Mn	Mn	0.95644	0.24855	0.6573	1.01
Mof_O 	O 	0.9932	0.234	0.5736	-0.386
Mof_O 	O 	0.9104	0.1555	0.7258	-0.408
Mof_O 	O 	0.0982	0.2651	0.6688	-0.483
Mof_O 	O 	0.0484	0.3539	0.6036	-0.336
Mof_O 	O 	0.8293	0.2943	0.6401	-0.372
Mof_C 	C 	0.0491	0.1908	0.568	0.352
Mof_C 	C 	0.9693	0.1184	0.7553	0.39
Mof_Mn	Mn	0.17825	0.17598	0.6671	1.032
Mof_O 	O 	0.1024	0.1592	0.6063	-0.396
Mof_C 	C 	0.047	0.1727	0.5121	-0.029
Mof_O 	O 	0.06	0.1269	0.7503	-0.417
Mof_C 	C 	0.917	0.0499	0.8054	-0.04
Mof_O 	O 	0.2892	0.2365	0.586	-0.424
Mof_O 	O 	0.261	0.0853	0.6724	-0.446
Mof_O 	O 	0.2688	0.1772	0.7293	-0.4
Mof_C 	C 	0.0924	0.1174	0.5098	-0.083
Mof_C 	C 	0.0078	0.214	0.4603	-0.094
Mof_C 	C 	0.9592	0.0156	0.858	-0.053
Mof_C 	C 	0.8364	0.0211	0.798	-0.071
Mof_C 	C 	0.3781	0.2489	0.5649	0.384
Mof_Mn	Mn	0.41049	0.1121	0.66405	0.978
Mof_H 	H 	0.1192	0.0892	0.5452	0.073
Mof_C 	C 	0.0986	0.1035	0.4557	0.071
Mof_C 	C 	0.014	0.2	0.4062	0.058
Mof_H 	H 	0.9767	0.2518	0.4618	0.087
Mof_H 	H 	0.0142	0.0353	0.863	0.057
Mof_C 	C 	0.9209	0.9524	0.9031	0.06
Mof_C 	C 	0.7982	0.9578	0.8431	0.068
Mof_H 	H 	0.8076	0.0445	0.7621	0.07
Mof_O 	O 	0.4438	0.2039	0.5874	-0.371
Mof_C 	C 	0.4275	0.3097	0.5118	-0.07
Mof_O 	O 	0.5657	0.0926	0.641	-0.343
Mof_O 	O 	0.4668	0.0036	0.7141	-0.283
Mof_O 	O 	0.3819	0.1093	0.7559	-0.385
Mof_H 	H 	0.1297	0.0657	0.4542	-0.004
Mof_C 	C 	0.0594	0.1448	0.4039	-0.249
Mof_H 	H 	0.9872	0.2283	0.3708	0.013
Mof_H 	H 	0.9498	0.9289	0.939	0.005
Mof_C 	C 	0.8404	0.9235	0.8957	-0.249
Mof_H 	H 	0.7431	0.9381	0.8381	0.001
Mof_C 	C 	0.3655	0.3605	0.4915	-0.053
Mof_C 	C 	0.5313	0.3203	0.4837	-0.054
Mof_C 	C 	0.5521	0.035	0.677	0.28
Mof_Si	Si	0.0756	0.12756	0.3286	0.734
Mof_Si	Si	0.791	0.8379	0.9613	0.773
Mof_H 	H 	0.2946	0.3533	0.5107	0.062
Mof_C 	C 	0.4074	0.4219	0.4431	0.051
Mof_C 	C 	0.5731	0.3817	0.4353	0.059
Mof_H 	H 	0.5736	0.2856	0.4975	0.068
Mof_C 	C 	0.6423	0.9932	0.681	0.016
Mof_C 	C 	0.189	0.079	0.3206	-0.266
Mof_C 	C 	0.9633	0.0772	0.3361	-0.254
Mof_C 	C 	0.0953	0.2087	0.2551	-0.254
Mof_C 	C 	0.8905	0.7779	0.9629	-0.307
Mof_C 	C 	0.7586	0.845	0.0438	-0.251
Mof_C 	C 	0.6743	0.8106	0.9483	-0.282
Mof_H 	H 	0.365	0.4566	0.4292	0.006
Mof_C 	C 	0.5112	0.4324	0.415	-0.239
Mof_H 	H 	0.644	0.3889	0.4161	0.001
Mof_C 	C 	0.7372	0.0245	0.6434	-0.112
Mof_C 	C 	0.6317	0.9258	0.7178	-0.114
Mof_C 	C 	0.1784	0.0116	0.3574	0.087
Mof_C 	C 	0.284	0.1103	0.283	0.094
Mof_C 	C 	0.9732	0.0466	0.2938	0.1
Mof_C 	C 	0.8751	0.0657	0.3865	0.079
Mof_C 	C 	0.1716	0.2536	0.2443	0.069
Mof_C 	C 	0.0281	0.2268	0.2156	0.054
Mof_C 	C 	0.8562	0.7122	0.9967	0.149
Mof_C 	C 	0.9935	0.7958	0.9395	0.156
Mof_C 	C 	0.8047	0.8055	0.0926	0.058
Mof_C 	C 	0.691	0.8887	0.0555	0.067
Mof_C 	C 	0.6799	0.7985	0.8931	0.103
Mof_C 	C 	0.5823	0.8009	0.9952	0.113
Mof_Si	Si	0.5608	0.51504	0.3439	0.734
Mof_H 	H 	0.7445	0.0706	0.6183	0.089
Mof_H 	H 	0.5668	0.9043	0.7435	0.09
Mof_H 	H 	0.1136	0.9902	0.3831	-0.01
Mof_H 	H 	0.2912	0.1564	0.2579	-0.012
Mof_C 	C 	0.8948	0.0045	0.3021	-0.089
Mof_H 	H 	0.0335	0.0545	0.2594	-0.021
Mof_H 	H 	0.8683	0.0865	0.4153	-0.001
Mof_C 	C 	0.7967	0.0236	0.3947	-0.088
Mof_C 	C 	0.1807	0.3164	0.194	-0.078
Mof_H 	H 	0.2175	0.2412	0.2713	-0.004
Mof_H 	H 	0.9759	0.1962	0.223	0.014
Mof_C 	C 	0.0372	0.2897	0.1653	-0.091
Mof_C 	C 	0.9251	0.6645	0.007	-0.149
Mof_H 	H 	0.7858	0.6999	0.0127	-0.038
Mof_H 	H 	0.0169	0.8407	0.9165	-0.035
Mof_C 	C 	0.0624	0.7481	0.9498	-0.153
Mof_C 	C 	0.7833	0.8097	0.1531	-0.055
Mof_H 	H 	0.8509	0.7757	0.0845	0.002
Mof_H 	H 	0.6594	0.9157	0.0221	-0.004
Mof_C 	C 	0.6695	0.8928	0.116	-0.062
Mof_C 	C 	0.5935	0.7767	0.8849	-0.113
Mof_H 	H 	0.7428	0.8052	0.8611	-0.017
Mof_H 	H 	0.5785	0.8092	0.0329	-0.023
Mof_C 	C 	0.4959	0.7791	0.9869	-0.099
Mof_C 	C 	0.6208	0.5062	0.2662	-0.259
Mof_C 	C 	0.6549	0.5612	0.3604	-0.248
Mof_C 	C 	0.4473	0.5658	0.3342	-0.25
Mof_C 	C 	0.8065	0.993	0.3525	-0.026
Mof_H 	H 	0.9015	0.9837	0.2732	0.076
Mof_H 	H 	0.7364	0.0157	0.4292	0.077
Mof_C 	C 	0.1134	0.3345	0.1544	-0.038
Mof_H 	H 	0.2328	0.3471	0.1866	0.062
Mof_H 	H 	0.9912	0.302	0.1383	0.088
Mof_C 	C 	0.0282	0.6824	0.9836	0.023
Mof_H 	H 	0.9017	0.6196	0.03	0.092
Mof_H 	H 	0.1329	0.7604	0.9338	0.108
Mof_C 	C 	0.7156	0.8533	0.1648	-0.07
Mof_H 	H 	0.8148	0.7827	0.1864	0.06
Mof_H 	H 	0.6233	0.9227	0.124	0.066
Mof_C 	C 	0.5015	0.767	0.9318	0.014
Mof_H 	H 	0.5974	0.7685	0.8472	0.08
Mof_H 	H 	0.4331	0.7724	0.019	0.07
Mof_C 	C 	0.5744	0.4664	0.2473	0.074
Mof_C 	C 	0.7143	0.5391	0.2274	0.069
Mof_C 	C 	0.6651	0.6289	0.3257	0.068
Mof_C 	C 	0.722	0.5294	0.3977	0.073
Mof_C 	C 	0.4073	0.5883	0.3823	0.073
Mof_C 	C 	0.4062	0.5821	0.2806	0.078
Mof_C 	C 	0.7225	0.9462	0.3624	0.344
Mof_C 	C 	0.1244	0.4038	0.1008	0.361
Mof_C 	C 	0.1061	0.6304	0.9963	0.326
Mof_C 	C 	0.6868	0.856	0.2279	0.371
Mof_C 	C 	0.4058	0.7432	0.9246	0.259
Mof_C 	C 	0.6213	0.4595	0.1895	-0.075
Mof_H 	H 	0.5105	0.4438	0.2738	-0.005
Mof_H 	H 	0.7461	0.5663	0.2403	-0.001
Mof_C 	C 	0.7613	0.5323	0.1696	-0.073
Mof_C 	C 	0.7423	0.6647	0.3282	-0.08
Mof_H 	H 	0.6192	0.6506	0.3002	-0.001
Mof_H 	H 	0.715	0.4832	0.4215	-0.005
Mof_C 	C 	0.7992	0.5653	0.4002	-0.08
Mof_C 	C 	0.326	0.6272	0.3769	-0.083
Mof_H 	H 	0.4354	0.5772	0.4189	-0.005
Mof_H 	H 	0.4335	0.5667	0.2477	-0.007
Mof_C 	C 	0.3249	0.621	0.2751	-0.09
Mof_O 	O 	0.6425	0.9399	0.4027	-0.31
Mof_O 	O 	0.0413	0.4211	0.0809	-0.366
Mof_O 	O 	0.1961	0.4399	0.0864	-0.411
Mof_O 	O 	0.0725	0.5718	0.0192	-0.434
Mof_O 	O 	0.1948	0.6482	0.9815	-0.313
Mof_O 	O 	0.3315	0.7235	0.9772	-0.212
Mof_O 	O 	0.4105	0.7375	0.873	-0.222
Mof_C 	C 	0.7148	0.4925	0.1507	-0.046
Mof_H 	H 	0.5896	0.4324	0.1765	0.068
Mof_H 	H 	0.8252	0.5548	0.1431	0.063
Mof_C 	C 	0.8094	0.6329	0.3655	-0.033
Mof_H 	H 	0.7493	0.711	0.3044	0.072
Mof_H 	H 	0.845	0.5435	0.4257	0.076
Mof_C 	C 	0.2849	0.6436	0.3233	-0.018
Mof_H 	H 	0.2987	0.6427	0.4098	0.077
Mof_H 	H 	0.2968	0.6322	0.2385	0.07
Mof_Mn	Mn	0.22785	0.54075	0.03115	0.794
Mof_C 	C 	0.7729	0.4847	0.0891	0.375
Mof_C 	C 	0.8947	0.6769	0.3629	0.371
Mof_C 	C 	0.1964	0.6861	0.3157	0.338
Mof_O 	O 	0.2781	0.5399	0.9376	-0.354
Mof_O 	O 	0.14	0.4972	0.9351	-0.395
Mof_O 	O 	0.1544	0.6982	0.2731	-0.317
Mof_Mn	Mn	-4.54672e-18	0.5	-0	0.994
_end
