data_functionalizedCrystal
_audit_creation_method	'EQeq! by Chris Wilmer'
_symmetry_space_group_name_H-M	'P1'
_symmetry_Int_Tables_number	1
_symmetry_cell_setting	triclinic
loop_
_symmetry_equiv_pos_as_xyz
  x,y,z
_cell_length_a	18.6679
_cell_length_b	18.6679
_cell_length_c	17.8347
_cell_angle_alpha	90
_cell_angle_beta	90
_cell_angle_gamma	90
loop_
_atom_site_label
_atom_site_type_symbol
_atom_site_fract_x
_atom_site_fract_y
_atom_site_fract_z
_atom_site_charge
Mof_Cd	Cd	0.57282	0.43288	0.00611	0.529
Mof_Cl	Cl	0.54698	0.55606	0.06451	-0.315
Mof_O 	O 	0.6526	0.47857	0.92151	-0.235
Mof_C 	C 	0.7095	0.4195	0.8192	-0.033
Mof_O 	O 	0.63837	0.36253	0.91257	-0.232
Mof_C 	C 	0.6639	0.4198	0.8887	0.287
Mof_C 	C 	0.7233	0.4824	0.7811	-0.016
Mof_H 	H 	0.7047	0.5252	0.7992	0.072
Mof_C 	C 	0.7374	0.3569	0.7914	-0.015
Mof_H 	H 	0.7273	0.3139	0.8154	0.064
Mof_C 	C 	0.7803	0.357	0.7282	-0.025
Mof_H 	H 	0.8005	0.3143	0.7114	0.07
Mof_C 	C 	0.7933	0.4197	0.69	-0.024
Mof_C 	C 	0.8411	0.4199	0.6216	0.284
Mof_C 	C 	0.7643	0.4827	0.7167	-0.024
Mof_H 	H 	0.7724	0.5254	0.6912	0.075
Mof_O 	O 	0.87909	0.36682	0.60783	-0.236
Mof_O 	O 	0.8419	0.47506	0.58071	-0.229
Mof_Cd	Cd	0.92718	0.06712	0.00611	0.526
Mof_Cl	Cl	0.95302	0.94394	0.06451	-0.311
Mof_O 	O 	0.8474	0.02143	0.92151	-0.233
Mof_C 	C 	0.7905	0.0805	0.8192	-0.033
Mof_O 	O 	0.86163	0.13747	0.91257	-0.231
Mof_C 	C 	0.8361	0.0802	0.8887	0.289
Mof_C 	C 	0.7767	0.0176	0.7811	-0.014
Mof_H 	H 	0.7953	0.9748	0.7992	0.07
Mof_C 	C 	0.7626	0.1431	0.7914	-0.015
Mof_H 	H 	0.7727	0.1861	0.8154	0.064
Mof_C 	C 	0.7197	0.143	0.7282	-0.026
Mof_H 	H 	0.6995	0.1857	0.7114	0.07
Mof_C 	C 	0.7067	0.0803	0.69	-0.024
Mof_C 	C 	0.6589	0.0801	0.6216	0.284
Mof_C 	C 	0.7357	0.0173	0.7167	-0.024
Mof_H 	H 	0.7276	0.9746	0.6912	0.075
Mof_O 	O 	0.62091	0.13318	0.60783	-0.236
Mof_O 	O 	0.6581	0.02494	0.58071	-0.229
Mof_Cd	Cd	0.56712	0.07282	0.50611	0.53
Mof_Cl	Cl	0.44394	0.04698	0.56451	-0.314
Mof_O 	O 	0.52143	0.1526	0.42151	-0.235
Mof_C 	C 	0.5805	0.2095	0.3192	-0.033
Mof_O 	O 	0.63747	0.13837	0.41257	-0.232
Mof_C 	C 	0.5802	0.1639	0.3887	0.288
Mof_C 	C 	0.5176	0.2233	0.2811	-0.016
Mof_H 	H 	0.4748	0.2047	0.2992	0.072
Mof_C 	C 	0.6431	0.2374	0.2914	-0.015
Mof_H 	H 	0.6861	0.2273	0.3154	0.064
Mof_C 	C 	0.643	0.2803	0.2282	-0.025
Mof_H 	H 	0.6857	0.3005	0.2114	0.07
Mof_C 	C 	0.5803	0.2933	0.19	-0.024
Mof_C 	C 	0.5801	0.3411	0.1216	0.284
Mof_C 	C 	0.5173	0.2643	0.2167	-0.025
Mof_H 	H 	0.4746	0.2724	0.1912	0.075
Mof_O 	O 	0.63318	0.37909	0.10783	-0.236
Mof_O 	O 	0.52494	0.3419	0.08071	-0.229
Mof_Cd	Cd	0.93288	0.42718	0.50611	0.53
Mof_Cl	Cl	0.05606	0.45302	0.56451	-0.314
Mof_O 	O 	0.97857	0.3474	0.42151	-0.235
Mof_C 	C 	0.9195	0.2905	0.3192	-0.032
Mof_O 	O 	0.86253	0.36163	0.41257	-0.232
Mof_C 	C 	0.9198	0.3361	0.3887	0.288
Mof_C 	C 	0.9824	0.2767	0.2811	-0.017
Mof_H 	H 	0.0252	0.2953	0.2992	0.073
Mof_C 	C 	0.8569	0.2626	0.2914	-0.015
Mof_H 	H 	0.8139	0.2727	0.3154	0.064
Mof_C 	C 	0.857	0.2197	0.2282	-0.025
Mof_H 	H 	0.8143	0.1995	0.2114	0.07
Mof_C 	C 	0.9197	0.2067	0.19	-0.024
Mof_C 	C 	0.9199	0.1589	0.1216	0.284
Mof_C 	C 	0.9827	0.2357	0.2167	-0.025
Mof_H 	H 	0.0254	0.2276	0.1912	0.076
Mof_O 	O 	0.86682	0.12091	0.10783	-0.237
Mof_O 	O 	0.97506	0.1581	0.08071	-0.23
Mof_Cd	Cd	0.42718	0.56712	0.99389	0.53
Mof_Cl	Cl	0.45302	0.44394	0.93549	-0.314
Mof_O 	O 	0.3474	0.52143	0.07849	-0.234
Mof_C 	C 	0.2905	0.5805	0.1808	-0.032
Mof_O 	O 	0.36163	0.63747	0.08743	-0.231
Mof_C 	C 	0.3361	0.5802	0.1113	0.288
Mof_C 	C 	0.2767	0.5176	0.2189	-0.016
Mof_H 	H 	0.2953	0.4748	0.2008	0.072
Mof_C 	C 	0.2626	0.6431	0.2086	-0.015
Mof_H 	H 	0.2727	0.6861	0.1846	0.064
Mof_C 	C 	0.2197	0.643	0.2718	-0.025
Mof_H 	H 	0.1995	0.6857	0.2886	0.07
Mof_C 	C 	0.2067	0.5803	0.31	-0.024
Mof_C 	C 	0.1589	0.5801	0.3784	0.284
Mof_C 	C 	0.2357	0.5173	0.2833	-0.024
Mof_H 	H 	0.2276	0.4746	0.3088	0.075
Mof_O 	O 	0.12091	0.63318	0.39217	-0.236
Mof_O 	O 	0.1581	0.52494	0.41929	-0.229
Mof_Cd	Cd	0.07282	0.93288	0.99389	0.526
Mof_Cl	Cl	0.04698	0.05606	0.93549	-0.311
Mof_O 	O 	0.1526	0.97857	0.07849	-0.233
Mof_C 	C 	0.2095	0.9195	0.1808	-0.033
Mof_O 	O 	0.13837	0.86253	0.08743	-0.231
Mof_C 	C 	0.1639	0.9198	0.1113	0.289
Mof_C 	C 	0.2233	0.9824	0.2189	-0.014
Mof_H 	H 	0.2047	0.0252	0.2008	0.07
Mof_C 	C 	0.2374	0.8569	0.2086	-0.015
Mof_H 	H 	0.2273	0.8139	0.1846	0.064
Mof_C 	C 	0.2803	0.857	0.2718	-0.026
Mof_H 	H 	0.3005	0.8143	0.2886	0.07
Mof_C 	C 	0.2933	0.9197	0.31	-0.024
Mof_C 	C 	0.3411	0.9199	0.3784	0.284
Mof_C 	C 	0.2643	0.9827	0.2833	-0.024
Mof_H 	H 	0.2724	0.0254	0.3088	0.075
Mof_O 	O 	0.37909	0.86682	0.39217	-0.236
Mof_O 	O 	0.3419	0.97506	0.41929	-0.229
Mof_Cd	Cd	0.43288	0.92718	0.49389	0.53
Mof_Cl	Cl	0.55606	0.95302	0.43549	-0.314
Mof_O 	O 	0.47857	0.8474	0.57849	-0.235
Mof_C 	C 	0.4195	0.7905	0.6808	-0.033
Mof_O 	O 	0.36253	0.86163	0.58743	-0.232
Mof_C 	C 	0.4198	0.8361	0.6113	0.288
Mof_C 	C 	0.4824	0.7767	0.7189	-0.016
Mof_H 	H 	0.5252	0.7953	0.7008	0.072
Mof_C 	C 	0.3569	0.7626	0.7086	-0.015
Mof_H 	H 	0.3139	0.7727	0.6846	0.064
Mof_C 	C 	0.357	0.7197	0.7718	-0.025
Mof_H 	H 	0.3143	0.6995	0.7886	0.07
Mof_C 	C 	0.4197	0.7067	0.81	-0.024
Mof_C 	C 	0.4199	0.6589	0.8784	0.284
Mof_C 	C 	0.4827	0.7357	0.7833	-0.025
Mof_H 	H 	0.5254	0.7276	0.8088	0.075
Mof_O 	O 	0.36682	0.62091	0.89217	-0.236
Mof_O 	O 	0.47506	0.6581	0.91929	-0.229
Mof_Cd	Cd	0.06712	0.57282	0.49389	0.53
Mof_Cl	Cl	0.94394	0.54698	0.43549	-0.314
Mof_O 	O 	0.02143	0.6526	0.57849	-0.235
Mof_C 	C 	0.0805	0.7095	0.6808	-0.032
Mof_O 	O 	0.13747	0.63837	0.58743	-0.232
Mof_C 	C 	0.0802	0.6639	0.6113	0.288
Mof_C 	C 	0.0176	0.7233	0.7189	-0.017
Mof_H 	H 	0.9748	0.7047	0.7008	0.073
Mof_C 	C 	0.1431	0.7374	0.7086	-0.015
Mof_H 	H 	0.1861	0.7273	0.6846	0.064
Mof_C 	C 	0.143	0.7803	0.7718	-0.025
Mof_H 	H 	0.1857	0.8005	0.7886	0.07
Mof_C 	C 	0.0803	0.7933	0.81	-0.024
Mof_C 	C 	0.0801	0.8411	0.8784	0.284
Mof_C 	C 	0.0173	0.7643	0.7833	-0.025
Mof_H 	H 	0.9746	0.7724	0.8088	0.076
Mof_O 	O 	0.13318	0.87909	0.89217	-0.237
Mof_O 	O 	0.02494	0.8419	0.91929	-0.23
_end
