data_functionalizedCrystal
_audit_creation_method	'EQeq! by Chris Wilmer'
_symmetry_space_group_name_H-M	'P1'
_symmetry_Int_Tables_number	1
_symmetry_cell_setting	triclinic
loop_
_symmetry_equiv_pos_as_xyz
  x,y,z
_cell_length_a	23.474
_cell_length_b	23.474
_cell_length_c	6.6926
_cell_angle_alpha	90
_cell_angle_beta	90
_cell_angle_gamma	90
loop_
_atom_site_label
_atom_site_type_symbol
_atom_site_fract_x
_atom_site_fract_y
_atom_site_fract_z
_atom_site_charge
Mof_O 	O 	0.61465	0.23751	0.8153	-0.559
Mof_O 	O 	0.38535	0.76249	0.8153	-0.559
Mof_O 	O 	0.76249	0.61465	0.8153	-0.559
Mof_O 	O 	0.23751	0.38535	0.8153	-0.559
Mof_O 	O 	0.88535	0.73751	0.6847	-0.567
Mof_O 	O 	0.11465	0.26249	0.6847	-0.567
Mof_O 	O 	0.73751	0.11465	0.6847	-0.567
Mof_O 	O 	0.26249	0.88535	0.6847	-0.567
Mof_O 	O 	0.38535	0.76249	0.1847	-0.648
Mof_O 	O 	0.61465	0.23751	0.1847	-0.648
Mof_O 	O 	0.23751	0.38535	0.1847	-0.648
Mof_O 	O 	0.76249	0.61465	0.1847	-0.648
Mof_O 	O 	0.11465	0.26249	0.3153	-0.619
Mof_O 	O 	0.88535	0.73751	0.3153	-0.619
Mof_O 	O 	0.26249	0.88535	0.3153	-0.619
Mof_O 	O 	0.73751	0.11465	0.3153	-0.619
Mof_In	In	0.123	0.27548	-0	2.666
Mof_P 	P 	0.60476	0.20059	-0	0.549
Mof_C 	C 	0.515	0.1237	-0	0.082
Mof_H 	H 	0.543	0.0957	-0	-0.01
Mof_O 	O 	0.6391	0.1454	-0	-0.72
Mof_O 	O 	0.2182	0.2519	-0	-0.564
Mof_O 	O 	0.1542	0.1847	-0	-0.542
Mof_C 	C 	0.5301	0.1797	-0	-0.18
Mof_C 	C 	0.2057	0.1999	-0	0.34
Mof_O 	O 	0.2155	0.979	-0	-0.386
Mof_O 	O 	0.3067	0.9617	-0	-0.649
Mof_C 	C 	0.4138	0.1477	-0	0.108
Mof_C 	C 	0.3085	0.1714	-0	0.003
Mof_H 	H 	0.3178	0.2099	-0	0.03
Mof_C 	C 	0.2796	0.0582	-0	-0.12
Mof_C 	C 	0.3524	0.132	-0	-0.071
Mof_C 	C 	0.2374	0.0986	-0	0.026
Mof_H 	H 	0.1993	0.0876	-0	0.047
Mof_C 	C 	0.2521	0.1562	-0	-0.1
Mof_C 	C 	0.4308	0.2035	-0	-0.187
Mof_H 	H 	0.4033	0.232	-0	0.086
Mof_C 	C 	0.2657	0.9963	-0	0.378
Mof_C 	C 	0.4887	0.2189	-0	0.093
Mof_H 	H 	0.4984	0.2573	-0	-0.016
Mof_C 	C 	0.3365	0.0743	-0	0.01
Mof_H 	H 	0.3646	0.0464	-0	0.031
Mof_C 	C 	0.456	0.1079	-0	-0.183
Mof_H 	H 	0.4463	0.0695	-0	0.08
Mof_In	In	0.877	0.72452	-0	2.666
Mof_P 	P 	0.39524	0.79941	-0	0.549
Mof_C 	C 	0.485	0.8763	-0	0.082
Mof_H 	H 	0.457	0.9043	-0	-0.01
Mof_O 	O 	0.3609	0.8546	-0	-0.72
Mof_O 	O 	0.7818	0.7481	-0	-0.564
Mof_O 	O 	0.8458	0.8153	-0	-0.542
Mof_C 	C 	0.4699	0.8203	-0	-0.18
Mof_C 	C 	0.7943	0.8001	-0	0.34
Mof_O 	O 	0.7845	0.021	-0	-0.386
Mof_O 	O 	0.6933	0.0383	-0	-0.649
Mof_C 	C 	0.5862	0.8523	-0	0.108
Mof_C 	C 	0.6915	0.8286	-0	0.003
Mof_H 	H 	0.6822	0.7901	-0	0.03
Mof_C 	C 	0.7204	0.9418	-0	-0.12
Mof_C 	C 	0.6476	0.868	-0	-0.071
Mof_C 	C 	0.7626	0.9014	-0	0.026
Mof_H 	H 	0.8007	0.9124	-0	0.047
Mof_C 	C 	0.7479	0.8438	-0	-0.1
Mof_C 	C 	0.5692	0.7965	-0	-0.187
Mof_H 	H 	0.5967	0.768	-0	0.086
Mof_C 	C 	0.7343	0.0037	-0	0.378
Mof_C 	C 	0.5113	0.7811	-0	0.093
Mof_H 	H 	0.5016	0.7427	-0	-0.016
Mof_C 	C 	0.6635	0.9257	-0	0.01
Mof_H 	H 	0.6354	0.9536	-0	0.031
Mof_C 	C 	0.544	0.8921	-0	-0.183
Mof_H 	H 	0.5537	0.9305	-0	0.08
Mof_In	In	0.72452	0.123	-0	2.666
Mof_P 	P 	0.79941	0.60476	-0	0.549
Mof_C 	C 	0.8763	0.515	-0	0.082
Mof_H 	H 	0.9043	0.543	-0	-0.01
Mof_O 	O 	0.8546	0.6391	-0	-0.72
Mof_O 	O 	0.7481	0.2182	-0	-0.564
Mof_O 	O 	0.8153	0.1542	-0	-0.542
Mof_C 	C 	0.8203	0.5301	-0	-0.18
Mof_C 	C 	0.8001	0.2057	-0	0.34
Mof_O 	O 	0.021	0.2155	-0	-0.386
Mof_O 	O 	0.0383	0.3067	-0	-0.649
Mof_C 	C 	0.8523	0.4138	-0	0.108
Mof_C 	C 	0.8286	0.3085	-0	0.003
Mof_H 	H 	0.7901	0.3178	-0	0.03
Mof_C 	C 	0.9418	0.2796	-0	-0.12
Mof_C 	C 	0.868	0.3524	-0	-0.071
Mof_C 	C 	0.9014	0.2374	-0	0.026
Mof_H 	H 	0.9124	0.1993	-0	0.047
Mof_C 	C 	0.8438	0.2521	-0	-0.1
Mof_C 	C 	0.7965	0.4308	-0	-0.187
Mof_H 	H 	0.768	0.4033	-0	0.086
Mof_C 	C 	0.0037	0.2657	-0	0.378
Mof_C 	C 	0.7811	0.4887	-0	0.093
Mof_H 	H 	0.7427	0.4984	-0	-0.016
Mof_C 	C 	0.9257	0.3365	-0	0.01
Mof_H 	H 	0.9536	0.3646	-0	0.031
Mof_C 	C 	0.8921	0.456	-0	-0.183
Mof_H 	H 	0.9305	0.4463	-0	0.08
Mof_In	In	0.27548	0.877	-0	2.666
Mof_P 	P 	0.20059	0.39524	-0	0.549
Mof_C 	C 	0.1237	0.485	-0	0.082
Mof_H 	H 	0.0957	0.457	-0	-0.01
Mof_O 	O 	0.1454	0.3609	-0	-0.72
Mof_O 	O 	0.2519	0.7818	-0	-0.564
Mof_O 	O 	0.1847	0.8458	-0	-0.542
Mof_C 	C 	0.1797	0.4699	-0	-0.18
Mof_C 	C 	0.1999	0.7943	-0	0.34
Mof_O 	O 	0.979	0.7845	-0	-0.386
Mof_O 	O 	0.9617	0.6933	-0	-0.649
Mof_C 	C 	0.1477	0.5862	-0	0.108
Mof_C 	C 	0.1714	0.6915	-0	0.003
Mof_H 	H 	0.2099	0.6822	-0	0.03
Mof_C 	C 	0.0582	0.7204	-0	-0.12
Mof_C 	C 	0.132	0.6476	-0	-0.071
Mof_C 	C 	0.0986	0.7626	-0	0.026
Mof_H 	H 	0.0876	0.8007	-0	0.047
Mof_C 	C 	0.1562	0.7479	-0	-0.1
Mof_C 	C 	0.2035	0.5692	-0	-0.187
Mof_H 	H 	0.232	0.5967	-0	0.086
Mof_C 	C 	0.9963	0.7343	-0	0.378
Mof_C 	C 	0.2189	0.5113	-0	0.093
Mof_H 	H 	0.2573	0.5016	-0	-0.016
Mof_C 	C 	0.0743	0.6635	-0	0.01
Mof_H 	H 	0.0464	0.6354	-0	0.031
Mof_C 	C 	0.1079	0.544	-0	-0.183
Mof_H 	H 	0.0695	0.5537	-0	0.08
Mof_In	In	0.377	0.77548	0.5	2.827
Mof_P 	P 	0.89524	0.70059	0.5	0.618
Mof_C 	C 	0.985	0.6237	0.5	0.093
Mof_H 	H 	0.957	0.5957	0.5	0.015
Mof_O 	O 	0.8609	0.6454	0.5	-0.707
Mof_O 	O 	0.2818	0.7519	0.5	-0.535
Mof_O 	O 	0.3458	0.6847	0.5	-0.533
Mof_C 	C 	0.9699	0.6797	0.5	-0.143
Mof_C 	C 	0.2943	0.6999	0.5	0.343
Mof_O 	O 	0.2845	0.479	0.5	-0.365
Mof_O 	O 	0.1933	0.4617	0.5	-0.63
Mof_C 	C 	0.0862	0.6477	0.5	0.123
Mof_C 	C 	0.1915	0.6714	0.5	0.002
Mof_H 	H 	0.1822	0.7099	0.5	0.062
Mof_C 	C 	0.2204	0.5582	0.5	-0.078
Mof_C 	C 	0.1476	0.632	0.5	-0.026
Mof_C 	C 	0.2626	0.5986	0.5	0.022
Mof_H 	H 	0.3007	0.5876	0.5	0.066
Mof_C 	C 	0.2479	0.6562	0.5	-0.059
Mof_C 	C 	0.0692	0.7035	0.5	-0.151
Mof_H 	H 	0.0967	0.732	0.5	0.111
Mof_C 	C 	0.2343	0.4963	0.5	0.39
Mof_C 	C 	0.0113	0.7189	0.5	0.106
Mof_H 	H 	0.0016	0.7573	0.5	0.023
Mof_C 	C 	0.1635	0.5743	0.5	0.015
Mof_H 	H 	0.1354	0.5464	0.5	0.057
Mof_C 	C 	0.044	0.6079	0.5	-0.151
Mof_H 	H 	0.0537	0.5695	0.5	0.097
Mof_In	In	0.623	0.22452	0.5	2.827
Mof_P 	P 	0.10476	0.29941	0.5	0.618
Mof_C 	C 	0.015	0.3763	0.5	0.093
Mof_H 	H 	0.043	0.4043	0.5	0.015
Mof_O 	O 	0.1391	0.3546	0.5	-0.707
Mof_O 	O 	0.7182	0.2481	0.5	-0.535
Mof_O 	O 	0.6542	0.3153	0.5	-0.533
Mof_C 	C 	0.0301	0.3203	0.5	-0.143
Mof_C 	C 	0.7057	0.3001	0.5	0.343
Mof_O 	O 	0.7155	0.521	0.5	-0.365
Mof_O 	O 	0.8067	0.5383	0.5	-0.63
Mof_C 	C 	0.9138	0.3523	0.5	0.123
Mof_C 	C 	0.8085	0.3286	0.5	0.002
Mof_H 	H 	0.8178	0.2901	0.5	0.062
Mof_C 	C 	0.7796	0.4418	0.5	-0.078
Mof_C 	C 	0.8524	0.368	0.5	-0.026
Mof_C 	C 	0.7374	0.4014	0.5	0.022
Mof_H 	H 	0.6993	0.4124	0.5	0.066
Mof_C 	C 	0.7521	0.3438	0.5	-0.059
Mof_C 	C 	0.9308	0.2965	0.5	-0.151
Mof_H 	H 	0.9033	0.268	0.5	0.111
Mof_C 	C 	0.7657	0.5037	0.5	0.39
Mof_C 	C 	0.9887	0.2811	0.5	0.106
Mof_H 	H 	0.9984	0.2427	0.5	0.023
Mof_C 	C 	0.8365	0.4257	0.5	0.015
Mof_H 	H 	0.8646	0.4536	0.5	0.057
Mof_C 	C 	0.956	0.3921	0.5	-0.151
Mof_H 	H 	0.9463	0.4305	0.5	0.097
Mof_In	In	0.77548	0.623	0.5	2.827
Mof_P 	P 	0.70059	0.10476	0.5	0.618
Mof_C 	C 	0.6237	0.015	0.5	0.093
Mof_H 	H 	0.5957	0.043	0.5	0.015
Mof_O 	O 	0.6454	0.1391	0.5	-0.707
Mof_O 	O 	0.7519	0.7182	0.5	-0.535
Mof_O 	O 	0.6847	0.6542	0.5	-0.533
Mof_C 	C 	0.6797	0.0301	0.5	-0.143
Mof_C 	C 	0.6999	0.7057	0.5	0.343
Mof_O 	O 	0.479	0.7155	0.5	-0.365
Mof_O 	O 	0.4617	0.8067	0.5	-0.63
Mof_C 	C 	0.6477	0.9138	0.5	0.123
Mof_C 	C 	0.6714	0.8085	0.5	0.002
Mof_H 	H 	0.7099	0.8178	0.5	0.062
Mof_C 	C 	0.5582	0.7796	0.5	-0.078
Mof_C 	C 	0.632	0.8524	0.5	-0.026
Mof_C 	C 	0.5986	0.7374	0.5	0.022
Mof_H 	H 	0.5876	0.6993	0.5	0.066
Mof_C 	C 	0.6562	0.7521	0.5	-0.059
Mof_C 	C 	0.7035	0.9308	0.5	-0.151
Mof_H 	H 	0.732	0.9033	0.5	0.111
Mof_C 	C 	0.4963	0.7657	0.5	0.39
Mof_C 	C 	0.7189	0.9887	0.5	0.106
Mof_H 	H 	0.7573	0.9984	0.5	0.023
Mof_C 	C 	0.5743	0.8365	0.5	0.015
Mof_H 	H 	0.5464	0.8646	0.5	0.057
Mof_C 	C 	0.6079	0.956	0.5	-0.151
Mof_H 	H 	0.5695	0.9463	0.5	0.097
Mof_In	In	0.22452	0.377	0.5	2.827
Mof_P 	P 	0.29941	0.89524	0.5	0.618
Mof_C 	C 	0.3763	0.985	0.5	0.093
Mof_H 	H 	0.4043	0.957	0.5	0.015
Mof_O 	O 	0.3546	0.8609	0.5	-0.707
Mof_O 	O 	0.2481	0.2818	0.5	-0.535
Mof_O 	O 	0.3153	0.3458	0.5	-0.533
Mof_C 	C 	0.3203	0.9699	0.5	-0.143
Mof_C 	C 	0.3001	0.2943	0.5	0.343
Mof_O 	O 	0.521	0.2845	0.5	-0.365
Mof_O 	O 	0.5383	0.1933	0.5	-0.63
Mof_C 	C 	0.3523	0.0862	0.5	0.123
Mof_C 	C 	0.3286	0.1915	0.5	0.002
Mof_H 	H 	0.2901	0.1822	0.5	0.062
Mof_C 	C 	0.4418	0.2204	0.5	-0.078
Mof_C 	C 	0.368	0.1476	0.5	-0.026
Mof_C 	C 	0.4014	0.2626	0.5	0.022
Mof_H 	H 	0.4124	0.3007	0.5	0.066
Mof_C 	C 	0.3438	0.2479	0.5	-0.059
Mof_C 	C 	0.2965	0.0692	0.5	-0.151
Mof_H 	H 	0.268	0.0967	0.5	0.111
Mof_C 	C 	0.5037	0.2343	0.5	0.39
Mof_C 	C 	0.2811	0.0113	0.5	0.106
Mof_H 	H 	0.2427	0.0016	0.5	0.023
Mof_C 	C 	0.4257	0.1635	0.5	0.015
Mof_H 	H 	0.4536	0.1354	0.5	0.057
Mof_C 	C 	0.3921	0.044	0.5	-0.151
Mof_H 	H 	0.4305	0.0537	0.5	0.097
_end
