data_functionalizedCrystal
_audit_creation_method	'EQeq! by Chris Wilmer'
_symmetry_space_group_name_H-M	'P1'
_symmetry_Int_Tables_number	1
_symmetry_cell_setting	triclinic
loop_
_symmetry_equiv_pos_as_xyz
  x,y,z
_cell_length_a	14.0907
_cell_length_b	12.1434
_cell_length_c	14.6345
_cell_angle_alpha	90
_cell_angle_beta	106.053
_cell_angle_gamma	90
loop_
_atom_site_label
_atom_site_type_symbol
_atom_site_fract_x
_atom_site_fract_y
_atom_site_fract_z
_atom_site_charge
Mof_Zn	Zn	0.19631	0.24317	0.07426	1.209
Mof_Zn	Zn	0.35012	0.02137	0.15646	1.229
Mof_O 	O 	0.2884	0.23311	0.97612	-0.438
Mof_O 	O 	0.38673	0.09203	0.0412	-0.462
Mof_O 	O 	0.60858	0.25342	0.67239	-0.408
Mof_O 	O 	0.6707	0.09833	0.7501	-0.424
Mof_O 	O 	0.32297	0.28772	0.17506	-0.464
Mof_O 	O 	0.39655	0.13683	0.25312	-0.475
Mof_O 	O 	0.67459	0.58896	0.51545	-0.281
Mof_O 	O 	0.71046	0.43113	0.59632	-0.543
Mof_N 	N 	0.53813	0.09302	0.84421	-0.222
Mof_N 	N 	0.58102	0.32033	0.4612	-0.229
Mof_C 	C 	0.47592	0.08881	0.89872	0.082
Mof_H 	H 	0.4728	0.0229	0.9327	0.021
Mof_C 	C 	0.41548	0.17655	0.90803	-0.128
Mof_C 	C 	0.4134	0.26795	0.85094	0.033
Mof_H 	H 	0.3709	0.3281	0.8529	0.032
Mof_C 	C 	0.47474	0.27077	0.79023	-0.057
Mof_H 	H 	0.4731	0.3321	0.7495	0.062
Mof_C 	C 	0.53791	0.18318	0.79021	-0.023
Mof_C 	C 	0.3572	0.16796	0.98103	0.414
Mof_C 	C 	0.61179	0.17848	0.7324	0.32
Mof_C 	C 	0.5173	0.26199	0.39423	0.095
Mof_H 	H 	0.5176	0.184	0.3997	-0.009
Mof_C 	C 	0.45038	0.31102	0.31667	-0.133
Mof_C 	C 	0.44759	0.42538	0.31073	0.05
Mof_H 	H 	0.4007	0.4612	0.2602	0.034
Mof_C 	C 	0.5144	0.48656	0.3799	-0.072
Mof_H 	H 	0.5145	0.5647	0.3772	0.074
Mof_C 	C 	0.58095	0.43064	0.45286	-0.003
Mof_C 	C 	0.38361	0.23977	0.24173	0.411
Mof_C 	C 	0.66055	0.49132	0.52639	0.304
Mof_Zn	Zn	0.30369	0.74317	0.42574	1.21
Mof_Zn	Zn	0.14988	0.52137	0.34354	1.23
Mof_O 	O 	0.2116	0.73311	0.52388	-0.437
Mof_O 	O 	0.11327	0.59203	0.4588	-0.455
Mof_O 	O 	0.89142	0.75342	0.82761	-0.41
Mof_O 	O 	0.8293	0.59833	0.7499	-0.426
Mof_O 	O 	0.17703	0.78772	0.32494	-0.462
Mof_O 	O 	0.10345	0.63683	0.24688	-0.475
Mof_O 	O 	0.82541	0.08896	0.98455	-0.273
Mof_O 	O 	0.78954	0.93113	0.90368	-0.542
Mof_N 	N 	0.96187	0.59302	0.65579	-0.223
Mof_N 	N 	0.91898	0.82033	0.0388	-0.229
Mof_C 	C 	0.02408	0.58881	0.60128	0.081
Mof_H 	H 	0.0272	0.5229	0.5673	0.02
Mof_C 	C 	0.08452	0.67655	0.59197	-0.126
Mof_C 	C 	0.0866	0.76795	0.64906	0.03
Mof_H 	H 	0.1291	0.8281	0.6471	0.033
Mof_C 	C 	0.02526	0.77077	0.70977	-0.054
Mof_H 	H 	0.0269	0.8321	0.7505	0.061
Mof_C 	C 	0.96209	0.68318	0.70979	-0.026
Mof_C 	C 	0.1428	0.66796	0.51897	0.406
Mof_C 	C 	0.88821	0.67848	0.7676	0.321
Mof_C 	C 	0.9827	0.76199	0.10577	0.096
Mof_H 	H 	0.9824	0.684	0.1003	-0.008
Mof_C 	C 	0.04962	0.81102	0.18333	-0.132
Mof_C 	C 	0.05241	0.92538	0.18927	0.048
Mof_H 	H 	0.0993	0.9612	0.2398	0.036
Mof_C 	C 	0.9856	0.98656	0.1201	-0.067
Mof_H 	H 	0.9855	0.0647	0.1228	0.07
Mof_C 	C 	0.91905	0.93064	0.04714	0.005
Mof_C 	C 	0.11639	0.73977	0.25827	0.411
Mof_C 	C 	0.83945	0.99132	0.97361	0.288
Mof_Zn	Zn	0.80369	0.75683	0.92574	1.209
Mof_Zn	Zn	0.64988	0.97863	0.84354	1.229
Mof_O 	O 	0.7116	0.76689	0.02388	-0.438
Mof_O 	O 	0.61327	0.90797	0.9588	-0.462
Mof_O 	O 	0.39142	0.74658	0.32761	-0.408
Mof_O 	O 	0.3293	0.90167	0.2499	-0.424
Mof_O 	O 	0.67703	0.71228	0.82494	-0.464
Mof_O 	O 	0.60345	0.86317	0.74688	-0.475
Mof_O 	O 	0.32541	0.41104	0.48455	-0.281
Mof_O 	O 	0.28954	0.56887	0.40368	-0.543
Mof_N 	N 	0.46187	0.90698	0.15579	-0.222
Mof_N 	N 	0.41898	0.67967	0.5388	-0.229
Mof_C 	C 	0.52408	0.91119	0.10128	0.082
Mof_H 	H 	0.5272	0.9771	0.0673	0.021
Mof_C 	C 	0.58452	0.82345	0.09197	-0.128
Mof_C 	C 	0.5866	0.73205	0.14906	0.033
Mof_H 	H 	0.6291	0.6719	0.1471	0.032
Mof_C 	C 	0.52526	0.72923	0.20977	-0.057
Mof_H 	H 	0.5269	0.6679	0.2505	0.062
Mof_C 	C 	0.46209	0.81682	0.20979	-0.023
Mof_C 	C 	0.6428	0.83204	0.01897	0.414
Mof_C 	C 	0.38821	0.82152	0.2676	0.32
Mof_C 	C 	0.4827	0.73801	0.60577	0.095
Mof_H 	H 	0.4824	0.816	0.6003	-0.009
Mof_C 	C 	0.54962	0.68898	0.68333	-0.133
Mof_C 	C 	0.55241	0.57462	0.68927	0.05
Mof_H 	H 	0.5993	0.5388	0.7398	0.034
Mof_C 	C 	0.4856	0.51344	0.6201	-0.072
Mof_H 	H 	0.4855	0.4353	0.6228	0.074
Mof_C 	C 	0.41905	0.56936	0.54714	-0.003
Mof_C 	C 	0.61639	0.76023	0.75827	0.411
Mof_C 	C 	0.33945	0.50868	0.47361	0.304
Mof_Zn	Zn	0.69631	0.25683	0.57426	1.21
Mof_Zn	Zn	0.85012	0.47863	0.65646	1.23
Mof_O 	O 	0.7884	0.26689	0.47612	-0.437
Mof_O 	O 	0.88673	0.40797	0.5412	-0.455
Mof_O 	O 	0.10858	0.24658	0.17239	-0.41
Mof_O 	O 	0.1707	0.40167	0.2501	-0.426
Mof_O 	O 	0.82297	0.21228	0.67506	-0.462
Mof_O 	O 	0.89655	0.36317	0.75312	-0.475
Mof_O 	O 	0.17459	0.91104	0.01545	-0.273
Mof_O 	O 	0.21046	0.06887	0.09632	-0.542
Mof_N 	N 	0.03813	0.40698	0.34421	-0.223
Mof_N 	N 	0.08102	0.17967	0.9612	-0.229
Mof_C 	C 	0.97592	0.41119	0.39872	0.081
Mof_H 	H 	0.9728	0.4771	0.4327	0.02
Mof_C 	C 	0.91548	0.32345	0.40803	-0.126
Mof_C 	C 	0.9134	0.23205	0.35094	0.03
Mof_H 	H 	0.8709	0.1719	0.3529	0.033
Mof_C 	C 	0.97474	0.22923	0.29023	-0.054
Mof_H 	H 	0.9731	0.1679	0.2495	0.061
Mof_C 	C 	0.03791	0.31682	0.29021	-0.026
Mof_C 	C 	0.8572	0.33204	0.48103	0.406
Mof_C 	C 	0.11179	0.32152	0.2324	0.321
Mof_C 	C 	0.0173	0.23801	0.89423	0.096
Mof_H 	H 	0.0176	0.316	0.8997	-0.008
Mof_C 	C 	0.95038	0.18898	0.81667	-0.132
Mof_C 	C 	0.94759	0.07462	0.81073	0.048
Mof_H 	H 	0.9007	0.0388	0.7602	0.036
Mof_C 	C 	0.0144	0.01344	0.8799	-0.067
Mof_H 	H 	0.0145	0.9353	0.8772	0.07
Mof_C 	C 	0.08095	0.06936	0.95286	0.005
Mof_C 	C 	0.88361	0.26023	0.74173	0.411
Mof_C 	C 	0.16055	0.00868	0.02639	0.288
_end
