data_functionalizedCrystal
_audit_creation_method	'EQeq! by Chris Wilmer'
_symmetry_space_group_name_H-M	'P1'
_symmetry_Int_Tables_number	1
_symmetry_cell_setting	triclinic
loop_
_symmetry_equiv_pos_as_xyz
  x,y,z
_cell_length_a	20.4782
_cell_length_b	12.0724
_cell_length_c	16.9099
_cell_angle_alpha	90
_cell_angle_beta	90
_cell_angle_gamma	90
loop_
_atom_site_label
_atom_site_type_symbol
_atom_site_fract_x
_atom_site_fract_y
_atom_site_fract_z
_atom_site_charge
Mof_Zn	Zn	0.58747	0.04387	0.05703	1.233
Mof_P 	P 	0.95311	0.45499	0.37653	0.512
Mof_O 	O 	0.94214	0.7327	0.20604	-0.462
Mof_O 	O 	0.92257	0.70538	0.07919	-0.471
Mof_O 	O 	0.69408	0.87982	0.03987	-0.292
Mof_O 	O 	0.67372	0.03509	0.10453	-0.452
Mof_O 	O 	0.94183	0.55392	0.3215	-0.435
Mof_O 	O 	0.90631	0.4658	0.44522	-0.434
Mof_O 	O 	0.02391	0.44426	0.40037	-0.55
Mof_C 	C 	0.9297	0.3334	0.32214	-0.106
Mof_C 	C 	0.94435	0.2284	0.34849	0.07
Mof_H 	H 	0.9691	0.2196	0.3942	0.039
Mof_C 	C 	0.92289	0.136	0.30821	-0.133
Mof_H 	H 	0.9335	0.0659	0.3271	0.099
Mof_C 	C 	0.88563	0.1459	0.2398	0.103
Mof_C 	C 	0.86189	0.0473	0.19573	-0.036
Mof_C 	C 	0.89982	0.9522	0.1886	0.024
Mof_H 	H 	0.94	0.9486	0.2141	0.053
Mof_C 	C 	0.87855	0.8627	0.14384	-0.112
Mof_C 	C 	0.81803	0.8655	0.10718	0.045
Mof_H 	H 	0.8042	0.8066	0.0759	0.041
Mof_C 	C 	0.77832	0.9574	0.11775	-0.084
Mof_C 	C 	0.80045	0.0476	0.16035	0.004
Mof_H 	H 	0.7738	0.1096	0.1655	0.053
Mof_C 	C 	0.87154	0.2514	0.21325	-0.139
Mof_H 	H 	0.8471	0.2602	0.1673	0.097
Mof_C 	C 	0.89294	0.344	0.25333	0.069
Mof_H 	H 	0.8827	0.4142	0.2342	0.011
Mof_C 	C 	0.91761	0.7581	0.14173	0.438
Mof_C 	C 	0.71018	0.9564	0.08365	0.349
Mof_Zn	Zn	0.91253	0.45613	0.55703	1.239
Mof_P 	P 	0.54689	0.04501	0.87653	0.462
Mof_O 	O 	0.55786	0.7673	0.70604	-0.491
Mof_O 	O 	0.57743	0.79462	0.57919	-0.486
Mof_O 	O 	0.80592	0.62018	0.53987	-0.287
Mof_O 	O 	0.82628	0.46491	0.60453	-0.447
Mof_O 	O 	0.55817	0.94608	0.8215	-0.456
Mof_O 	O 	0.59369	0.0342	0.94522	-0.432
Mof_O 	O 	0.47609	0.05574	0.90037	-0.493
Mof_C 	C 	0.5703	0.1666	0.82214	-0.113
Mof_C 	C 	0.55565	0.2716	0.84849	0.062
Mof_H 	H 	0.5309	0.2804	0.8942	0.023
Mof_C 	C 	0.57711	0.364	0.80821	-0.139
Mof_H 	H 	0.5665	0.4341	0.8271	0.088
Mof_C 	C 	0.61437	0.3541	0.7398	0.099
Mof_C 	C 	0.63811	0.4527	0.69573	-0.044
Mof_C 	C 	0.60018	0.5478	0.6886	0.027
Mof_H 	H 	0.56	0.5514	0.7141	0.034
Mof_C 	C 	0.62145	0.6373	0.64384	-0.125
Mof_C 	C 	0.68197	0.6345	0.60718	0.05
Mof_H 	H 	0.6958	0.6934	0.5759	0.039
Mof_C 	C 	0.72168	0.5426	0.61775	-0.091
Mof_C 	C 	0.69955	0.4524	0.66035	0.01
Mof_H 	H 	0.7262	0.3904	0.6655	0.051
Mof_C 	C 	0.62846	0.2486	0.71325	-0.144
Mof_H 	H 	0.6529	0.2398	0.6673	0.095
Mof_C 	C 	0.60706	0.156	0.75333	0.063
Mof_H 	H 	0.6173	0.0858	0.7342	0.01
Mof_C 	C 	0.58239	0.7419	0.64173	0.443
Mof_C 	C 	0.78982	0.5436	0.58365	0.346
Mof_Zn	Zn	0.41253	0.04387	0.44297	1.235
Mof_P 	P 	0.04689	0.45499	0.12347	0.409
Mof_O 	O 	0.05786	0.7327	0.29396	-0.511
Mof_O 	O 	0.07743	0.70538	0.42081	-0.501
Mof_O 	O 	0.30592	0.87982	0.46013	-0.292
Mof_O 	O 	0.32628	0.03509	0.39547	-0.45
Mof_O 	O 	0.05817	0.55392	0.1785	-0.465
Mof_O 	O 	0.09369	0.4658	0.05478	-0.434
Mof_O 	O 	0.97609	0.44426	0.09963	-0.439
Mof_C 	C 	0.0703	0.3334	0.17786	-0.119
Mof_C 	C 	0.05565	0.2284	0.15151	0.054
Mof_H 	H 	0.0309	0.2196	0.1058	0.007
Mof_C 	C 	0.07711	0.136	0.19179	-0.146
Mof_H 	H 	0.0665	0.0659	0.1729	0.077
Mof_C 	C 	0.11437	0.1459	0.2602	0.095
Mof_C 	C 	0.13811	0.0473	0.30427	-0.056
Mof_C 	C 	0.10018	0.9522	0.3114	0.036
Mof_H 	H 	0.06	0.9486	0.2859	0.015
Mof_C 	C 	0.12145	0.8627	0.35616	-0.139
Mof_C 	C 	0.18197	0.8655	0.39282	0.056
Mof_H 	H 	0.1958	0.8066	0.4241	0.036
Mof_C 	C 	0.22168	0.9574	0.38225	-0.096
Mof_C 	C 	0.19955	0.0476	0.33965	0.014
Mof_H 	H 	0.2262	0.1096	0.3345	0.049
Mof_C 	C 	0.12846	0.2514	0.28675	-0.149
Mof_H 	H 	0.1529	0.2602	0.3327	0.094
Mof_C 	C 	0.10706	0.344	0.24667	0.058
Mof_H 	H 	0.1173	0.4142	0.2658	0.009
Mof_C 	C 	0.08239	0.7581	0.35827	0.446
Mof_C 	C 	0.28982	0.9564	0.41635	0.35
Mof_Zn	Zn	0.08747	0.45613	0.94297	1.232
Mof_P 	P 	0.45311	0.04501	0.62347	0.461
Mof_O 	O 	0.44214	0.7673	0.79396	-0.491
Mof_O 	O 	0.42257	0.79462	0.92081	-0.487
Mof_O 	O 	0.19408	0.62018	0.96013	-0.295
Mof_O 	O 	0.17372	0.46491	0.89547	-0.45
Mof_O 	O 	0.44183	0.94608	0.6785	-0.455
Mof_O 	O 	0.40631	0.0342	0.55478	-0.434
Mof_O 	O 	0.52391	0.05574	0.59963	-0.494
Mof_C 	C 	0.4297	0.1666	0.67786	-0.113
Mof_C 	C 	0.44435	0.2716	0.65151	0.062
Mof_H 	H 	0.4691	0.2804	0.6058	0.023
Mof_C 	C 	0.42289	0.364	0.69179	-0.14
Mof_H 	H 	0.4335	0.4341	0.6729	0.088
Mof_C 	C 	0.38563	0.3541	0.7602	0.099
Mof_C 	C 	0.36189	0.4527	0.80427	-0.045
Mof_C 	C 	0.39982	0.5478	0.8114	0.028
Mof_H 	H 	0.44	0.5514	0.7859	0.034
Mof_C 	C 	0.37855	0.6373	0.85616	-0.126
Mof_C 	C 	0.31803	0.6345	0.89282	0.052
Mof_H 	H 	0.3042	0.6934	0.9241	0.037
Mof_C 	C 	0.27832	0.5426	0.88225	-0.093
Mof_C 	C 	0.30045	0.4524	0.83965	0.011
Mof_H 	H 	0.2738	0.3904	0.8345	0.05
Mof_C 	C 	0.37154	0.2486	0.78675	-0.144
Mof_H 	H 	0.3471	0.2398	0.8327	0.095
Mof_C 	C 	0.39294	0.156	0.74667	0.063
Mof_H 	H 	0.3827	0.0858	0.7658	0.01
Mof_C 	C 	0.41761	0.7419	0.85827	0.444
Mof_C 	C 	0.21018	0.5436	0.91635	0.349
Mof_Zn	Zn	0.41253	0.95613	0.94297	1.234
Mof_P 	P 	0.04689	0.54501	0.62347	0.408
Mof_O 	O 	0.05786	0.2673	0.79396	-0.512
Mof_O 	O 	0.07743	0.29462	0.92081	-0.501
Mof_O 	O 	0.30592	0.12018	0.96013	-0.291
Mof_O 	O 	0.32628	0.96491	0.89547	-0.452
Mof_O 	O 	0.05817	0.44608	0.6785	-0.466
Mof_O 	O 	0.09369	0.5342	0.55478	-0.434
Mof_O 	O 	0.97609	0.55574	0.59963	-0.437
Mof_C 	C 	0.0703	0.6666	0.67786	-0.119
Mof_C 	C 	0.05565	0.7716	0.65151	0.053
Mof_H 	H 	0.0309	0.7804	0.6058	0.007
Mof_C 	C 	0.07711	0.864	0.69179	-0.146
Mof_H 	H 	0.0665	0.9341	0.6729	0.077
Mof_C 	C 	0.11437	0.8541	0.7602	0.095
Mof_C 	C 	0.13811	0.9527	0.80427	-0.056
Mof_C 	C 	0.10018	0.0478	0.8114	0.036
Mof_H 	H 	0.06	0.0514	0.7859	0.014
Mof_C 	C 	0.12145	0.1373	0.85616	-0.139
Mof_C 	C 	0.18197	0.1345	0.89282	0.056
Mof_H 	H 	0.1958	0.1934	0.9241	0.036
Mof_C 	C 	0.22168	0.0426	0.88225	-0.095
Mof_C 	C 	0.19955	0.9524	0.83965	0.012
Mof_H 	H 	0.2262	0.8904	0.8345	0.05
Mof_C 	C 	0.12846	0.7486	0.78675	-0.149
Mof_H 	H 	0.1529	0.7398	0.8327	0.093
Mof_C 	C 	0.10706	0.656	0.74667	0.058
Mof_H 	H 	0.1173	0.5858	0.7658	0.009
Mof_C 	C 	0.08239	0.2419	0.85827	0.446
Mof_C 	C 	0.28982	0.0436	0.91635	0.351
Mof_Zn	Zn	0.08747	0.54387	0.44297	1.232
Mof_P 	P 	0.45311	0.95499	0.12347	0.462
Mof_O 	O 	0.44214	0.2327	0.29396	-0.491
Mof_O 	O 	0.42257	0.20538	0.42081	-0.487
Mof_O 	O 	0.19408	0.37982	0.46013	-0.295
Mof_O 	O 	0.17372	0.53509	0.39547	-0.45
Mof_O 	O 	0.44183	0.05392	0.1785	-0.456
Mof_O 	O 	0.40631	0.9658	0.05478	-0.433
Mof_O 	O 	0.52391	0.94426	0.09963	-0.493
Mof_C 	C 	0.4297	0.8334	0.17786	-0.113
Mof_C 	C 	0.44435	0.7284	0.15151	0.062
Mof_H 	H 	0.4691	0.7196	0.1058	0.023
Mof_C 	C 	0.42289	0.636	0.19179	-0.14
Mof_H 	H 	0.4335	0.5659	0.1729	0.088
Mof_C 	C 	0.38563	0.6459	0.2602	0.099
Mof_C 	C 	0.36189	0.5473	0.30427	-0.045
Mof_C 	C 	0.39982	0.4522	0.3114	0.028
Mof_H 	H 	0.44	0.4486	0.2859	0.034
Mof_C 	C 	0.37855	0.3627	0.35616	-0.126
Mof_C 	C 	0.31803	0.3655	0.39282	0.052
Mof_H 	H 	0.3042	0.3066	0.4241	0.038
Mof_C 	C 	0.27832	0.4574	0.38225	-0.093
Mof_C 	C 	0.30045	0.5476	0.33965	0.011
Mof_H 	H 	0.2738	0.6096	0.3345	0.05
Mof_C 	C 	0.37154	0.7514	0.28675	-0.144
Mof_H 	H 	0.3471	0.7602	0.3327	0.095
Mof_C 	C 	0.39294	0.844	0.24667	0.064
Mof_H 	H 	0.3827	0.9142	0.2658	0.01
Mof_C 	C 	0.41761	0.2581	0.35827	0.444
Mof_C 	C 	0.21018	0.4564	0.41635	0.349
Mof_Zn	Zn	0.58747	0.95613	0.55703	1.235
Mof_P 	P 	0.95311	0.54501	0.87653	0.513
Mof_O 	O 	0.94214	0.2673	0.70604	-0.46
Mof_O 	O 	0.92257	0.29462	0.57919	-0.47
Mof_O 	O 	0.69408	0.12018	0.53987	-0.29
Mof_O 	O 	0.67372	0.96491	0.60453	-0.449
Mof_O 	O 	0.94183	0.44608	0.8215	-0.433
Mof_O 	O 	0.90631	0.5342	0.94522	-0.432
Mof_O 	O 	0.02391	0.55574	0.90037	-0.549
Mof_C 	C 	0.9297	0.6666	0.82214	-0.106
Mof_C 	C 	0.94435	0.7716	0.84849	0.07
Mof_H 	H 	0.9691	0.7804	0.8942	0.039
Mof_C 	C 	0.92289	0.864	0.80821	-0.133
Mof_H 	H 	0.9335	0.9341	0.8271	0.099
Mof_C 	C 	0.88563	0.8541	0.7398	0.103
Mof_C 	C 	0.86189	0.9527	0.69573	-0.035
Mof_C 	C 	0.89982	0.0478	0.6886	0.023
Mof_H 	H 	0.94	0.0514	0.7141	0.054
Mof_C 	C 	0.87855	0.1373	0.64384	-0.112
Mof_C 	C 	0.81803	0.1345	0.60718	0.045
Mof_H 	H 	0.8042	0.1934	0.5759	0.041
Mof_C 	C 	0.77832	0.0426	0.61775	-0.085
Mof_C 	C 	0.80045	0.9524	0.66035	0.006
Mof_H 	H 	0.7738	0.8904	0.6655	0.053
Mof_C 	C 	0.87154	0.7486	0.71325	-0.139
Mof_H 	H 	0.8471	0.7398	0.6673	0.097
Mof_C 	C 	0.89294	0.656	0.75333	0.069
Mof_H 	H 	0.8827	0.5858	0.7342	0.011
Mof_C 	C 	0.91761	0.2419	0.64173	0.438
Mof_C 	C 	0.71018	0.0436	0.58365	0.347
Mof_Zn	Zn	0.91253	0.54387	0.05703	1.238
Mof_P 	P 	0.54689	0.95499	0.37653	0.462
Mof_O 	O 	0.55786	0.2327	0.20604	-0.491
Mof_O 	O 	0.57743	0.20538	0.07919	-0.488
Mof_O 	O 	0.80592	0.37982	0.03987	-0.288
Mof_O 	O 	0.82628	0.53509	0.10453	-0.447
Mof_O 	O 	0.55817	0.05392	0.3215	-0.455
Mof_O 	O 	0.59369	0.9658	0.44522	-0.433
Mof_O 	O 	0.47609	0.94426	0.40037	-0.494
Mof_C 	C 	0.5703	0.8334	0.32214	-0.113
Mof_C 	C 	0.55565	0.7284	0.34849	0.062
Mof_H 	H 	0.5309	0.7196	0.3942	0.023
Mof_C 	C 	0.57711	0.636	0.30821	-0.139
Mof_H 	H 	0.5665	0.5659	0.3271	0.088
Mof_C 	C 	0.61437	0.6459	0.2398	0.099
Mof_C 	C 	0.63811	0.5473	0.19573	-0.044
Mof_C 	C 	0.60018	0.4522	0.1886	0.028
Mof_H 	H 	0.56	0.4486	0.2141	0.034
Mof_C 	C 	0.62145	0.3627	0.14384	-0.126
Mof_C 	C 	0.68197	0.3655	0.10718	0.05
Mof_H 	H 	0.6958	0.3066	0.0759	0.038
Mof_C 	C 	0.72168	0.4574	0.11775	-0.091
Mof_C 	C 	0.69955	0.5476	0.16035	0.01
Mof_H 	H 	0.7262	0.6096	0.1655	0.051
Mof_C 	C 	0.62846	0.7514	0.21325	-0.144
Mof_H 	H 	0.6529	0.7602	0.1673	0.095
Mof_C 	C 	0.60706	0.844	0.25333	0.063
Mof_H 	H 	0.6173	0.9142	0.2342	0.01
Mof_C 	C 	0.58239	0.2581	0.14173	0.444
Mof_C 	C 	0.78982	0.4564	0.08365	0.347
Mof_Zn	Zn	2.28363e-33	0.62287	0.25	1.216
Mof_Zn	Zn	0.5	0.87713	0.75	1.238
Mof_Zn	Zn	-3.71638e-33	0.37713	0.75	1.215
Mof_Zn	Zn	0.5	0.12287	0.25	1.238
_end
