data_functionalizedCrystal
_audit_creation_method	'EQeq! by Chris Wilmer'
_symmetry_space_group_name_H-M	'P1'
_symmetry_Int_Tables_number	1
_symmetry_cell_setting	triclinic
loop_
_symmetry_equiv_pos_as_xyz
  x,y,z
_cell_length_a	13.318
_cell_length_b	13.318
_cell_length_c	13.278
_cell_angle_alpha	90
_cell_angle_beta	90
_cell_angle_gamma	120
loop_
_atom_site_label
_atom_site_type_symbol
_atom_site_fract_x
_atom_site_fract_y
_atom_site_fract_z
_atom_site_charge
Mof_N 	N 	0.2559	0.3339	0.7338	-0.121
Mof_N 	N 	0.1277	0.159	0.7815	-0.145
Mof_N 	N 	0.6962	0.6043	0.6042	-0.117
Mof_N 	N 	0.7046	0.4946	0.4844	-0.143
Mof_N 	N 	0.0011	0.5896	0.2333	-0.12
Mof_N 	N 	0.8242	0.4609	0.2817	-0.143
Mof_N 	N 	0.2709	0.0294	0.1046	-0.104
Mof_N 	N 	0.1598	0.0363	0.9836	-0.136
Mof_C 	C 	0.3408	0.4582	0.7392	-0.034
Mof_H 	H 	0.3387	0.4875	0.8072	0.037
Mof_H 	H 	0.3198	0.5005	0.6898	0.036
Mof_C 	C 	0.4616	0.4815	0.7174	-0.106
Mof_H 	H 	0.4625	0.4475	0.6513	0.066
Mof_H 	H 	0.4847	0.4438	0.7695	0.061
Mof_C 	C 	0.5487	0.6119	0.7159	-0.091
Mof_H 	H 	0.5289	0.6483	0.6602	0.056
Mof_H 	H 	0.5428	0.6468	0.7799	0.051
Mof_C 	C 	0.6715	0.6374	0.7026	-0.045
Mof_H 	H 	0.7246	0.7215	0.7126	0.049
Mof_H 	H 	0.6888	0.596	0.7557	0.043
Mof_C 	C 	0.1926	0.2664	0.8103	0.087
Mof_H 	H 	0.1946	0.2933	0.8769	0.005
Mof_C 	C 	0.1542	0.1571	0.6819	0.006
Mof_H 	H 	0.1218	0.09	0.6404	0.022
Mof_C 	C 	0.2325	0.2639	0.652	-0.005
Mof_H 	H 	0.2652	0.2866	0.5866	0.031
Mof_C 	C 	0.6729	0.4962	0.5786	0.081
Mof_H 	H 	0.6387	0.4309	0.6221	0.003
Mof_C 	C 	0.7475	0.6052	0.4497	0.005
Mof_H 	H 	0.7772	0.6309	0.3839	0.027
Mof_C 	C 	0.7415	0.6724	0.5223	-0.005
Mof_H 	H 	0.7646	0.7522	0.5169	0.031
Mof_C 	C 	0.1251	0.6731	0.239	-0.024
Mof_H 	H 	0.1671	0.652	0.1896	0.033
Mof_H 	H 	0.1542	0.6707	0.3071	0.034
Mof_C 	C 	0.1484	0.7954	0.2171	-0.13
Mof_H 	H 	0.111	0.8185	0.2694	0.071
Mof_H 	H 	0.1141	0.7963	0.1512	0.076
Mof_C 	C 	0.2791	0.8827	0.2152	-0.046
Mof_H 	H 	0.3145	0.8759	0.2786	0.042
Mof_H 	H 	0.3151	0.8634	0.1588	0.047
Mof_C 	C 	0.3043	0.0052	0.2035	-0.088
Mof_H 	H 	0.2624	0.0216	0.2567	0.049
Mof_H 	H 	0.3883	0.0584	0.2138	0.058
Mof_C 	C 	0.9333	0.5259	0.3106	0.079
Mof_H 	H 	0.9603	0.5276	0.3771	0.005
Mof_C 	C 	0.8239	0.4873	0.1821	0.007
Mof_H 	H 	0.7571	0.4547	0.1401	0.024
Mof_C 	C 	0.9312	0.5657	0.1521	-0.006
Mof_H 	H 	0.9538	0.5982	0.0866	0.029
Mof_C 	C 	0.163	0.0062	0.0786	0.03
Mof_H 	H 	0.098	0.9728	0.1226	0.034
Mof_C 	C 	0.2719	0.0811	0.9498	0.019
Mof_H 	H 	0.2979	0.1114	0.8842	0.022
Mof_C 	C 	0.3397	0.0761	0.0226	-0.026
Mof_H 	H 	0.4198	0.1003	0.0175	0.032
Mof_N 	N 	0.6661	0.922	0.7338	-0.11
Mof_N 	N 	0.841	0.9687	0.7815	-0.145
Mof_N 	N 	0.3957	0.0919	0.6042	-0.118
Mof_N 	N 	0.5054	0.21	0.4844	-0.143
Mof_N 	N 	0.4104	0.4115	0.2333	-0.121
Mof_N 	N 	0.5391	0.3633	0.2817	-0.143
Mof_N 	N 	0.9706	0.2415	0.1046	-0.113
Mof_N 	N 	0.9637	0.1235	0.9836	-0.141
Mof_C 	C 	0.5418	0.8826	0.7392	-0.076
Mof_H 	H 	0.5125	0.8512	0.8072	0.051
Mof_H 	H 	0.4995	0.8193	0.6898	0.049
Mof_C 	C 	0.5185	0.9801	0.7174	-0.005
Mof_H 	H 	0.5525	0.015	0.6513	0.023
Mof_H 	H 	0.5562	0.0409	0.7695	0.019
Mof_C 	C 	0.3881	0.9368	0.7159	-0.112
Mof_H 	H 	0.3517	0.8806	0.6602	0.066
Mof_H 	H 	0.3532	0.896	0.7799	0.061
Mof_C 	C 	0.3626	0.0341	0.7026	-0.048
Mof_H 	H 	0.2785	0.0031	0.7126	0.043
Mof_H 	H 	0.404	0.0928	0.7557	0.041
Mof_C 	C 	0.7336	0.9262	0.8103	0.087
Mof_H 	H 	0.7067	0.9013	0.8769	0.009
Mof_C 	C 	0.8429	0.9971	0.6819	0.054
Mof_H 	H 	0.91	0.0318	0.6404	-0.004
Mof_C 	C 	0.7361	0.9686	0.652	-0.026
Mof_H 	H 	0.7134	0.9786	0.5866	0.047
Mof_C 	C 	0.5038	0.1767	0.5786	0.08
Mof_H 	H 	0.5691	0.2078	0.6221	0.003
Mof_C 	C 	0.3948	0.1423	0.4497	0.003
Mof_H 	H 	0.3691	0.1463	0.3839	0.025
Mof_C 	C 	0.3276	0.0691	0.5223	-0.006
Mof_H 	H 	0.2478	0.0124	0.5169	0.023
Mof_C 	C 	0.3269	0.452	0.239	-0.035
Mof_H 	H 	0.348	0.5151	0.1896	0.036
Mof_H 	H 	0.3293	0.4835	0.3071	0.036
Mof_C 	C 	0.2046	0.353	0.2171	-0.108
Mof_H 	H 	0.1815	0.2925	0.2694	0.06
Mof_H 	H 	0.2037	0.3178	0.1512	0.066
Mof_C 	C 	0.1173	0.3964	0.2152	-0.086
Mof_H 	H 	0.1241	0.4386	0.2786	0.049
Mof_H 	H 	0.1366	0.4517	0.1588	0.054
Mof_C 	C 	0.9948	0.2991	0.2035	-0.05
Mof_H 	H 	0.9784	0.2408	0.2567	0.041
Mof_H 	H 	0.9416	0.3299	0.2138	0.049
Mof_C 	C 	0.4741	0.4074	0.3106	0.08
Mof_H 	H 	0.4724	0.4327	0.3771	0.005
Mof_C 	C 	0.5127	0.3366	0.1821	0.006
Mof_H 	H 	0.5453	0.3024	0.1401	0.024
Mof_C 	C 	0.4343	0.3655	0.1521	-0.004
Mof_H 	H 	0.4018	0.3556	0.0866	0.029
Mof_C 	C 	0.9938	0.1568	0.0786	0.065
Mof_H 	H 	0.0272	0.1252	0.1226	0.004
Mof_C 	C 	0.9189	0.1908	0.9498	0.021
Mof_H 	H 	0.8886	0.1865	0.8842	0.02
Mof_C 	C 	0.9239	0.2636	0.0226	-0.024
Mof_H 	H 	0.8997	0.3195	0.0175	0.033
Mof_N 	N 	0.078	0.7441	0.7338	-0.121
Mof_N 	N 	0.0313	0.8723	0.7815	-0.139
Mof_N 	N 	0.9081	0.3038	0.6042	-0.118
Mof_N 	N 	0.79	0.2954	0.4844	-0.144
Mof_N 	N 	0.5885	0.9989	0.2333	-0.099
Mof_N 	N 	0.6367	0.1758	0.2817	-0.142
Mof_N 	N 	0.7585	0.7291	0.1046	-0.112
Mof_N 	N 	0.8765	0.8402	0.9836	-0.134
Mof_C 	C 	0.1174	0.6592	0.7392	-0.037
Mof_H 	H 	0.1488	0.6613	0.8072	0.038
Mof_H 	H 	0.1807	0.6802	0.6898	0.037
Mof_C 	C 	0.0199	0.5384	0.7174	-0.099
Mof_H 	H 	0.985	0.5375	0.6513	0.063
Mof_H 	H 	0.9591	0.5153	0.7695	0.058
Mof_C 	C 	0.0632	0.4513	0.7159	-0.093
Mof_H 	H 	0.1194	0.4711	0.6602	0.057
Mof_H 	H 	0.104	0.4572	0.7799	0.052
Mof_C 	C 	0.9659	0.3285	0.7026	-0.044
Mof_H 	H 	0.9969	0.2754	0.7126	0.047
Mof_H 	H 	0.9072	0.3112	0.7557	0.042
Mof_C 	C 	0.0738	0.8074	0.8103	0.089
Mof_H 	H 	0.0987	0.8054	0.8769	0.008
Mof_C 	C 	0.0029	0.8458	0.6819	0.014
Mof_H 	H 	0.9682	0.8782	0.6404	0.027
Mof_C 	C 	0.0314	0.7675	0.652	-0.005
Mof_H 	H 	0.0214	0.7348	0.5866	0.034
Mof_C 	C 	0.8233	0.3271	0.5786	0.08
Mof_H 	H 	0.7922	0.3613	0.6221	0.003
Mof_C 	C 	0.8577	0.2525	0.4497	0.003
Mof_H 	H 	0.8537	0.2228	0.3839	0.025
Mof_C 	C 	0.9309	0.2585	0.5223	-0.006
Mof_H 	H 	0.9876	0.2354	0.5169	0.028
Mof_C 	C 	0.548	0.8749	0.239	-0.036
Mof_H 	H 	0.4849	0.8329	0.1896	0.038
Mof_H 	H 	0.5165	0.8458	0.3071	0.039
Mof_C 	C 	0.647	0.8516	0.2171	-0.109
Mof_H 	H 	0.7075	0.889	0.2694	0.065
Mof_H 	H 	0.6822	0.8859	0.1512	0.07
Mof_C 	C 	0.6036	0.7209	0.2152	-0.086
Mof_H 	H 	0.5614	0.6855	0.2786	0.049
Mof_H 	H 	0.5483	0.6849	0.1588	0.054
Mof_C 	C 	0.7009	0.6957	0.2035	-0.049
Mof_H 	H 	0.7592	0.7376	0.2567	0.044
Mof_H 	H 	0.6701	0.6117	0.2138	0.05
Mof_C 	C 	0.5926	0.0667	0.3106	0.059
Mof_H 	H 	0.5673	0.0397	0.3771	0.006
Mof_C 	C 	0.6634	0.1761	0.1821	0.015
Mof_H 	H 	0.6976	0.2429	0.1401	0.021
Mof_C 	C 	0.6345	0.0688	0.1521	-0.029
Mof_H 	H 	0.6444	0.0462	0.0866	0.031
Mof_C 	C 	0.8432	0.837	0.0786	0.068
Mof_H 	H 	0.8748	0.902	0.1226	0.01
Mof_C 	C 	0.8092	0.7281	0.9498	0.023
Mof_H 	H 	0.8135	0.7021	0.8842	0.023
Mof_C 	C 	0.7364	0.6603	0.0226	-0.024
Mof_H 	H 	0.6805	0.5802	0.0175	0.033
Mof_Cd	Cd	1.23768e-32	1.23768e-32	0.88423	0.355
Mof_Cd	Cd	0.66667	0.33333	0.38409	0.371
_end
