data_functionalizedCrystal
_audit_creation_method	'EQeq! by Chris Wilmer'
_symmetry_space_group_name_H-M	'P1'
_symmetry_Int_Tables_number	1
_symmetry_cell_setting	triclinic
loop_
_symmetry_equiv_pos_as_xyz
  x,y,z
_cell_length_a	10.481
_cell_length_b	23.986
_cell_length_c	23.986
_cell_angle_alpha	90
_cell_angle_beta	90
_cell_angle_gamma	90
loop_
_atom_site_label
_atom_site_type_symbol
_atom_site_fract_x
_atom_site_fract_y
_atom_site_fract_z
_atom_site_charge
Mof_Zn	Zn	0.38951	0.42085	0.97965	1.242
Mof_Zn	Zn	0.38951	0.07915	0.52035	1.243
Mof_Zn	Zn	0.38951	0.52035	0.42085	1.243
Mof_Zn	Zn	0.38951	0.97965	0.07915	1.241
Mof_Zn	Zn	0.11049	0.07915	0.97965	1.24
Mof_Zn	Zn	0.11049	0.42085	0.52035	1.243
Mof_Zn	Zn	0.11049	0.97965	0.42085	1.242
Mof_Zn	Zn	0.11049	0.52035	0.07915	1.243
Mof_Zn	Zn	0.61049	0.57915	0.02035	1.242
Mof_Zn	Zn	0.61049	0.92085	0.47965	1.243
Mof_Zn	Zn	0.61049	0.47965	0.57915	1.243
Mof_Zn	Zn	0.61049	0.02035	0.92085	1.241
Mof_Zn	Zn	0.88951	0.92085	0.02035	1.24
Mof_Zn	Zn	0.88951	0.57915	0.47965	1.243
Mof_Zn	Zn	0.88951	0.02035	0.57915	1.242
Mof_Zn	Zn	0.88951	0.47965	0.92085	1.243
Mof_P 	P 	0.589	0.48927	0.91501	0.479
Mof_P 	P 	0.589	0.01073	0.58499	0.474
Mof_P 	P 	0.589	0.58499	0.48927	0.479
Mof_P 	P 	0.589	0.91501	0.01073	0.467
Mof_P 	P 	0.911	0.01073	0.91501	0.463
Mof_P 	P 	0.911	0.48927	0.58499	0.479
Mof_P 	P 	0.911	0.91501	0.48927	0.48
Mof_P 	P 	0.911	0.58499	0.01073	0.469
Mof_P 	P 	0.411	0.51073	0.08499	0.479
Mof_P 	P 	0.411	0.98927	0.41501	0.474
Mof_P 	P 	0.411	0.41501	0.51073	0.479
Mof_P 	P 	0.411	0.08499	0.98927	0.467
Mof_P 	P 	0.089	0.98927	0.08499	0.463
Mof_P 	P 	0.089	0.51073	0.41501	0.479
Mof_P 	P 	0.089	0.08499	0.51073	0.48
Mof_P 	P 	0.089	0.41501	0.98927	0.469
Mof_H 	H 	0.5948	0.602	0.8771	0.026
Mof_H 	H 	0.5918	0.646	0.792	0.064
Mof_H 	H 	0.5723	0.5942	0.7114	0.031
Mof_H 	H 	0.5835	0.4546	0.8017	0.055
Mof_H 	H 	0.5948	0.898	0.6229	0.031
Mof_H 	H 	0.5918	0.854	0.708	0.059
Mof_H 	H 	0.5723	0.9058	0.7886	0.037
Mof_H 	H 	0.5835	0.0454	0.6983	0.061
Mof_H 	H 	0.5948	0.6229	0.602	0.027
Mof_H 	H 	0.5918	0.708	0.646	0.064
Mof_H 	H 	0.5723	0.7886	0.5942	0.031
Mof_H 	H 	0.5835	0.6983	0.4546	0.055
Mof_H 	H 	0.5948	0.8771	0.898	0.033
Mof_H 	H 	0.5918	0.792	0.854	0.057
Mof_H 	H 	0.5723	0.7114	0.9058	0.038
Mof_H 	H 	0.5835	0.8017	0.0454	0.063
Mof_H 	H 	0.9052	0.898	0.8771	0.036
Mof_H 	H 	0.9082	0.854	0.792	0.055
Mof_H 	H 	0.9277	0.9058	0.7114	0.041
Mof_H 	H 	0.9165	0.0454	0.8017	0.067
Mof_H 	H 	0.9052	0.602	0.6229	0.027
Mof_H 	H 	0.9082	0.646	0.708	0.064
Mof_H 	H 	0.9277	0.5942	0.7886	0.031
Mof_H 	H 	0.9165	0.4546	0.6983	0.055
Mof_H 	H 	0.9052	0.8771	0.602	0.026
Mof_H 	H 	0.9082	0.792	0.646	0.064
Mof_H 	H 	0.9277	0.7114	0.5942	0.031
Mof_H 	H 	0.9165	0.8017	0.4546	0.055
Mof_H 	H 	0.9052	0.6229	0.898	0.034
Mof_H 	H 	0.9082	0.708	0.854	0.056
Mof_H 	H 	0.9277	0.7886	0.9058	0.04
Mof_H 	H 	0.9165	0.6983	0.0454	0.065
Mof_H 	H 	0.4052	0.398	0.1229	0.026
Mof_H 	H 	0.4082	0.354	0.208	0.064
Mof_H 	H 	0.4277	0.4058	0.2886	0.031
Mof_H 	H 	0.4165	0.5454	0.1983	0.055
Mof_H 	H 	0.4052	0.102	0.3771	0.031
Mof_H 	H 	0.4082	0.146	0.292	0.059
Mof_H 	H 	0.4277	0.0942	0.2114	0.037
Mof_H 	H 	0.4165	0.9546	0.3017	0.061
Mof_H 	H 	0.4052	0.3771	0.398	0.027
Mof_H 	H 	0.4082	0.292	0.354	0.064
Mof_H 	H 	0.4277	0.2114	0.4058	0.031
Mof_H 	H 	0.4165	0.3017	0.5454	0.055
Mof_H 	H 	0.4052	0.1229	0.102	0.033
Mof_H 	H 	0.4082	0.208	0.146	0.057
Mof_H 	H 	0.4277	0.2886	0.0942	0.038
Mof_H 	H 	0.4165	0.1983	0.9546	0.063
Mof_H 	H 	0.0948	0.102	0.1229	0.036
Mof_H 	H 	0.0918	0.146	0.208	0.055
Mof_H 	H 	0.0723	0.0942	0.2886	0.041
Mof_H 	H 	0.0835	0.9546	0.1983	0.067
Mof_H 	H 	0.0948	0.398	0.3771	0.027
Mof_H 	H 	0.0918	0.354	0.292	0.064
Mof_H 	H 	0.0723	0.4058	0.2114	0.031
Mof_H 	H 	0.0835	0.5454	0.3017	0.055
Mof_H 	H 	0.0948	0.1229	0.398	0.026
Mof_H 	H 	0.0918	0.208	0.354	0.064
Mof_H 	H 	0.0723	0.2886	0.4058	0.031
Mof_H 	H 	0.0835	0.1983	0.5454	0.055
Mof_H 	H 	0.0948	0.3771	0.102	0.034
Mof_H 	H 	0.0918	0.292	0.146	0.056
Mof_H 	H 	0.0723	0.2114	0.0942	0.04
Mof_H 	H 	0.0835	0.3017	0.9546	0.065
Mof_C 	C 	0.5886	0.5236	0.848	-0.102
Mof_C 	C 	0.591	0.5809	0.8446	0.028
Mof_C 	C 	0.5879	0.6073	0.7938	-0.102
Mof_C 	C 	0.5789	0.5762	0.7456	0.04
Mof_C 	C 	0.5797	0.5195	0.7474	-0.106
Mof_C 	C 	0.5839	0.4934	0.7998	0.042
Mof_C 	C 	0.5771	0.4858	0.6946	0.368
Mof_C 	C 	0.5886	0.9764	0.652	-0.087
Mof_C 	C 	0.591	0.9191	0.6554	0.014
Mof_C 	C 	0.5879	0.8927	0.7062	-0.087
Mof_C 	C 	0.5789	0.9238	0.7544	0.024
Mof_C 	C 	0.5797	0.9805	0.7526	-0.085
Mof_C 	C 	0.5839	0.0066	0.7002	0.022
Mof_C 	C 	0.5771	0.0142	0.8054	0.352
Mof_C 	C 	0.5886	0.652	0.5236	-0.102
Mof_C 	C 	0.591	0.6554	0.5809	0.028
Mof_C 	C 	0.5879	0.7062	0.6073	-0.102
Mof_C 	C 	0.5789	0.7544	0.5762	0.04
Mof_C 	C 	0.5797	0.7526	0.5195	-0.106
Mof_C 	C 	0.5839	0.7002	0.4934	0.042
Mof_C 	C 	0.5771	0.8054	0.4858	0.368
Mof_C 	C 	0.5886	0.848	0.9764	-0.079
Mof_C 	C 	0.591	0.8446	0.9191	0.009
Mof_C 	C 	0.5879	0.7938	0.8927	-0.082
Mof_C 	C 	0.5789	0.7456	0.9238	0.021
Mof_C 	C 	0.5797	0.7474	0.9805	-0.082
Mof_C 	C 	0.5839	0.7998	0.0066	0.015
Mof_C 	C 	0.5771	0.6946	0.0142	0.354
Mof_C 	C 	0.9114	0.9764	0.848	-0.07
Mof_C 	C 	0.909	0.9191	0.8446	0.001
Mof_C 	C 	0.9121	0.8927	0.7938	-0.074
Mof_C 	C 	0.9211	0.9238	0.7456	0.012
Mof_C 	C 	0.9203	0.9805	0.7474	-0.071
Mof_C 	C 	0.9161	0.0066	0.7998	0.002
Mof_C 	C 	0.9229	0.0142	0.6946	0.346
Mof_C 	C 	0.9114	0.5236	0.652	-0.102
Mof_C 	C 	0.909	0.5809	0.6554	0.028
Mof_C 	C 	0.9121	0.6073	0.7062	-0.102
Mof_C 	C 	0.9211	0.5762	0.7544	0.04
Mof_C 	C 	0.9203	0.5195	0.7526	-0.106
Mof_C 	C 	0.9161	0.4934	0.7002	0.043
Mof_C 	C 	0.9229	0.4858	0.8054	0.368
Mof_C 	C 	0.9114	0.848	0.5236	-0.102
Mof_C 	C 	0.909	0.8446	0.5809	0.028
Mof_C 	C 	0.9121	0.7938	0.6073	-0.102
Mof_C 	C 	0.9211	0.7456	0.5762	0.04
Mof_C 	C 	0.9203	0.7474	0.5195	-0.106
Mof_C 	C 	0.9161	0.7998	0.4934	0.043
Mof_C 	C 	0.9229	0.6946	0.4858	0.368
Mof_C 	C 	0.9114	0.652	0.9764	-0.078
Mof_C 	C 	0.909	0.6554	0.9191	0.006
Mof_C 	C 	0.9121	0.7062	0.8927	-0.078
Mof_C 	C 	0.9211	0.7544	0.9238	0.015
Mof_C 	C 	0.9203	0.7526	0.9805	-0.074
Mof_C 	C 	0.9161	0.7002	0.0066	0.009
Mof_C 	C 	0.9229	0.8054	0.0142	0.344
Mof_C 	C 	0.4114	0.4764	0.152	-0.102
Mof_C 	C 	0.409	0.4191	0.1554	0.028
Mof_C 	C 	0.4121	0.3927	0.2062	-0.102
Mof_C 	C 	0.4211	0.4238	0.2544	0.04
Mof_C 	C 	0.4203	0.4805	0.2526	-0.106
Mof_C 	C 	0.4161	0.5066	0.2002	0.042
Mof_C 	C 	0.4229	0.5142	0.3054	0.368
Mof_C 	C 	0.4114	0.0236	0.348	-0.087
Mof_C 	C 	0.409	0.0809	0.3446	0.014
Mof_C 	C 	0.4121	0.1073	0.2938	-0.087
Mof_C 	C 	0.4211	0.0762	0.2456	0.024
Mof_C 	C 	0.4203	0.0195	0.2474	-0.085
Mof_C 	C 	0.4161	0.9934	0.2998	0.022
Mof_C 	C 	0.4229	0.9858	0.1946	0.352
Mof_C 	C 	0.4114	0.348	0.4764	-0.102
Mof_C 	C 	0.409	0.3446	0.4191	0.028
Mof_C 	C 	0.4121	0.2938	0.3927	-0.102
Mof_C 	C 	0.4211	0.2456	0.4238	0.04
Mof_C 	C 	0.4203	0.2474	0.4805	-0.106
Mof_C 	C 	0.4161	0.2998	0.5066	0.042
Mof_C 	C 	0.4229	0.1946	0.5142	0.368
Mof_C 	C 	0.4114	0.152	0.0236	-0.079
Mof_C 	C 	0.409	0.1554	0.0809	0.009
Mof_C 	C 	0.4121	0.2062	0.1073	-0.082
Mof_C 	C 	0.4211	0.2544	0.0762	0.021
Mof_C 	C 	0.4203	0.2526	0.0195	-0.082
Mof_C 	C 	0.4161	0.2002	0.9934	0.015
Mof_C 	C 	0.4229	0.3054	0.9858	0.354
Mof_C 	C 	0.0886	0.0236	0.152	-0.07
Mof_C 	C 	0.091	0.0809	0.1554	0.001
Mof_C 	C 	0.0879	0.1073	0.2062	-0.074
Mof_C 	C 	0.0789	0.0762	0.2544	0.012
Mof_C 	C 	0.0797	0.0195	0.2526	-0.071
Mof_C 	C 	0.0839	0.9934	0.2002	0.002
Mof_C 	C 	0.0771	0.9858	0.3054	0.346
Mof_C 	C 	0.0886	0.4764	0.348	-0.102
Mof_C 	C 	0.091	0.4191	0.3446	0.028
Mof_C 	C 	0.0879	0.3927	0.2938	-0.102
Mof_C 	C 	0.0789	0.4238	0.2456	0.04
Mof_C 	C 	0.0797	0.4805	0.2474	-0.106
Mof_C 	C 	0.0839	0.5066	0.2998	0.043
Mof_C 	C 	0.0771	0.5142	0.1946	0.368
Mof_C 	C 	0.0886	0.152	0.4764	-0.102
Mof_C 	C 	0.091	0.1554	0.4191	0.028
Mof_C 	C 	0.0879	0.2062	0.3927	-0.102
Mof_C 	C 	0.0789	0.2544	0.4238	0.04
Mof_C 	C 	0.0797	0.2526	0.4805	-0.106
Mof_C 	C 	0.0839	0.2002	0.5066	0.043
Mof_C 	C 	0.0771	0.3054	0.5142	0.368
Mof_C 	C 	0.0886	0.348	0.0236	-0.078
Mof_C 	C 	0.091	0.3446	0.0809	0.006
Mof_C 	C 	0.0879	0.2938	0.1073	-0.078
Mof_C 	C 	0.0789	0.2456	0.0762	0.015
Mof_C 	C 	0.0797	0.2474	0.0195	-0.074
Mof_C 	C 	0.0839	0.2998	0.9934	0.009
Mof_C 	C 	0.0771	0.1946	0.9858	0.344
Mof_O 	O 	0.4794	0.448	0.915	-0.417
Mof_O 	O 	0.7125	0.457	0.9208	-0.442
Mof_O 	O 	0.574	0.5341	0.9572	-0.484
Mof_O 	O 	0.5849	0.4348	0.6971	-0.272
Mof_O 	O 	0.564	0.5124	0.6507	-0.454
Mof_O 	O 	0.4794	0.052	0.585	-0.417
Mof_O 	O 	0.7125	0.043	0.5792	-0.442
Mof_O 	O 	0.574	0.9659	0.5428	-0.483
Mof_O 	O 	0.5849	0.0652	0.8029	-0.269
Mof_O 	O 	0.564	0.9876	0.8493	-0.446
Mof_O 	O 	0.4794	0.585	0.448	-0.417
Mof_O 	O 	0.7125	0.5792	0.457	-0.441
Mof_O 	O 	0.574	0.5428	0.5341	-0.484
Mof_O 	O 	0.5849	0.8029	0.4348	-0.272
Mof_O 	O 	0.564	0.8493	0.5124	-0.454
Mof_O 	O 	0.4794	0.915	0.052	-0.417
Mof_O 	O 	0.7125	0.9208	0.043	-0.442
Mof_O 	O 	0.574	0.9572	0.9659	-0.478
Mof_O 	O 	0.5849	0.6971	0.0652	-0.269
Mof_O 	O 	0.564	0.6507	0.9876	-0.448
Mof_O 	O 	0.0206	0.052	0.915	-0.417
Mof_O 	O 	0.7875	0.043	0.9208	-0.442
Mof_O 	O 	0.926	0.9659	0.9572	-0.475
Mof_O 	O 	0.9151	0.0652	0.6971	-0.268
Mof_O 	O 	0.936	0.9876	0.6507	-0.444
Mof_O 	O 	0.0206	0.448	0.585	-0.417
Mof_O 	O 	0.7875	0.457	0.5792	-0.442
Mof_O 	O 	0.926	0.5341	0.5428	-0.484
Mof_O 	O 	0.9151	0.4348	0.8029	-0.272
Mof_O 	O 	0.936	0.5124	0.8493	-0.454
Mof_O 	O 	0.0206	0.915	0.448	-0.419
Mof_O 	O 	0.7875	0.9208	0.457	-0.441
Mof_O 	O 	0.926	0.9572	0.5341	-0.483
Mof_O 	O 	0.9151	0.6971	0.4348	-0.272
Mof_O 	O 	0.936	0.6507	0.5124	-0.454
Mof_O 	O 	0.0206	0.585	0.052	-0.415
Mof_O 	O 	0.7875	0.5792	0.043	-0.441
Mof_O 	O 	0.926	0.5428	0.9659	-0.481
Mof_O 	O 	0.9151	0.8029	0.0652	-0.268
Mof_O 	O 	0.936	0.8493	0.9876	-0.442
Mof_O 	O 	0.5206	0.552	0.085	-0.417
Mof_O 	O 	0.2875	0.543	0.0792	-0.442
Mof_O 	O 	0.426	0.4659	0.0428	-0.484
Mof_O 	O 	0.4151	0.5652	0.3029	-0.272
Mof_O 	O 	0.436	0.4876	0.3493	-0.454
Mof_O 	O 	0.5206	0.948	0.415	-0.417
Mof_O 	O 	0.2875	0.957	0.4208	-0.442
Mof_O 	O 	0.426	0.0341	0.4572	-0.483
Mof_O 	O 	0.4151	0.9348	0.1971	-0.269
Mof_O 	O 	0.436	0.0124	0.1507	-0.446
Mof_O 	O 	0.5206	0.415	0.552	-0.417
Mof_O 	O 	0.2875	0.4208	0.543	-0.441
Mof_O 	O 	0.426	0.4572	0.4659	-0.484
Mof_O 	O 	0.4151	0.1971	0.5652	-0.272
Mof_O 	O 	0.436	0.1507	0.4876	-0.454
Mof_O 	O 	0.5206	0.085	0.948	-0.417
Mof_O 	O 	0.2875	0.0792	0.957	-0.442
Mof_O 	O 	0.426	0.0428	0.0341	-0.478
Mof_O 	O 	0.4151	0.3029	0.9348	-0.269
Mof_O 	O 	0.436	0.3493	0.0124	-0.448
Mof_O 	O 	0.9794	0.948	0.085	-0.417
Mof_O 	O 	0.2125	0.957	0.0792	-0.442
Mof_O 	O 	0.074	0.0341	0.0428	-0.475
Mof_O 	O 	0.0849	0.9348	0.3029	-0.268
Mof_O 	O 	0.064	0.0124	0.3493	-0.444
Mof_O 	O 	0.9794	0.552	0.415	-0.417
Mof_O 	O 	0.2125	0.543	0.4208	-0.442
Mof_O 	O 	0.074	0.4659	0.4572	-0.484
Mof_O 	O 	0.0849	0.5652	0.1971	-0.272
Mof_O 	O 	0.064	0.4876	0.1507	-0.454
Mof_O 	O 	0.9794	0.085	0.552	-0.419
Mof_O 	O 	0.2125	0.0792	0.543	-0.441
Mof_O 	O 	0.074	0.0428	0.4659	-0.483
Mof_O 	O 	0.0849	0.3029	0.5652	-0.272
Mof_O 	O 	0.064	0.3493	0.4876	-0.454
Mof_O 	O 	0.9794	0.415	0.948	-0.415
Mof_O 	O 	0.2125	0.4208	0.957	-0.441
Mof_O 	O 	0.074	0.4572	0.0341	-0.481
Mof_O 	O 	0.0849	0.1971	0.9348	-0.268
Mof_O 	O 	0.064	0.1507	0.0124	-0.442
_end
