data_functionalizedCrystal
_audit_creation_method	'EQeq! by Chris Wilmer'
_symmetry_space_group_name_H-M	'P1'
_symmetry_Int_Tables_number	1
_symmetry_cell_setting	triclinic
loop_
_symmetry_equiv_pos_as_xyz
  x,y,z
_cell_length_a	19.936
_cell_length_b	19.936
_cell_length_c	25.397
_cell_angle_alpha	66.8906
_cell_angle_beta	66.8906
_cell_angle_gamma	89.9999
loop_
_atom_site_label
_atom_site_type_symbol
_atom_site_fract_x
_atom_site_fract_y
_atom_site_fract_z
_atom_site_charge
Mof_Zr	Zr	0.05781	0.05781	0.88438	3.204
Mof_Zr	Zr	0.94219	0.94219	0.11562	3.22
Mof_Zr	Zr	0.87487	0.99916	-0	3.143
Mof_Zr	Zr	0.12513	0.00084	-0	3.134
Mof_Zr	Zr	0.99916	0.12513	-0	3.144
Mof_Zr	Zr	0.00084	0.87487	-0	3.135
Mof_H 	H 	0.0025	0.1553	0.726	-0.057
Mof_H 	H 	0.9693	0.1918	0.6414	0.108
Mof_H 	H 	0.758	0.0857	0.7634	0.101
Mof_H 	H 	0.7912	0.0492	0.848	-0.003
Mof_H 	H 	0.8924	0.2749	0.6006	0.033
Mof_H 	H 	0.8469	0.3233	0.5236	0.068
Mof_H 	H 	0.7301	0.1195	0.587	0.068
Mof_H 	H 	0.7756	0.0713	0.6638	0.032
Mof_H 	H 	0.2715	0.1187	0.726	0.009
Mof_H 	H 	0.3893	0.1668	0.6414	0.075
Mof_H 	H 	0.4786	0.1509	0.7634	0.091
Mof_H 	H 	0.3608	0.1028	0.848	0.008
Mof_H 	H 	0.507	0.1245	0.6006	0.026
Mof_H 	H 	0.6295	0.1531	0.5236	0.061
Mof_H 	H 	0.6829	0.2935	0.587	0.069
Mof_H 	H 	0.5606	0.2649	0.6638	0.038
Mof_H 	H 	0.1553	0.2715	0.726	0.012
Mof_H 	H 	0.1918	0.3893	0.6414	0.076
Mof_H 	H 	0.0857	0.4786	0.7634	0.089
Mof_H 	H 	0.0492	0.3608	0.848	0.006
Mof_H 	H 	0.2749	0.507	0.6006	0.031
Mof_H 	H 	0.3233	0.6295	0.5236	0.064
Mof_H 	H 	0.1195	0.6829	0.587	0.066
Mof_H 	H 	0.0713	0.5606	0.6638	0.033
Mof_H 	H 	0.1187	0.0025	0.726	-0.06
Mof_H 	H 	0.1668	0.9693	0.6414	0.108
Mof_H 	H 	0.1509	0.758	0.7634	0.103
Mof_H 	H 	0.1028	0.7912	0.848	-0.001
Mof_H 	H 	0.1245	0.8924	0.6006	0.029
Mof_H 	H 	0.1531	0.8469	0.5236	0.065
Mof_H 	H 	0.2935	0.7301	0.587	0.071
Mof_H 	H 	0.2649	0.7756	0.6638	0.037
Mof_H 	H 	0.9975	0.8447	0.274	0.059
Mof_H 	H 	0.0307	0.8082	0.3586	0.064
Mof_H 	H 	0.242	0.9143	0.2366	0.054
Mof_H 	H 	0.2088	0.9508	0.152	-0.054
Mof_H 	H 	0.1076	0.7251	0.3994	0.022
Mof_H 	H 	0.1531	0.6767	0.4764	0.06
Mof_H 	H 	0.2699	0.8805	0.413	0.061
Mof_H 	H 	0.2244	0.9287	0.3362	0.018
Mof_H 	H 	0.7285	0.8813	0.274	0.01
Mof_H 	H 	0.6107	0.8332	0.3586	0.09
Mof_H 	H 	0.5214	0.8491	0.2366	0.061
Mof_H 	H 	0.6392	0.8972	0.152	-0.064
Mof_H 	H 	0.493	0.8755	0.3994	0.028
Mof_H 	H 	0.3705	0.8469	0.4764	0.067
Mof_H 	H 	0.3171	0.7065	0.413	0.059
Mof_H 	H 	0.4394	0.7351	0.3362	0.012
Mof_H 	H 	0.8447	0.7285	0.274	0.008
Mof_H 	H 	0.8082	0.6107	0.3586	0.089
Mof_H 	H 	0.9143	0.5214	0.2366	0.062
Mof_H 	H 	0.9508	0.6392	0.152	-0.062
Mof_H 	H 	0.7251	0.493	0.3994	0.024
Mof_H 	H 	0.6767	0.3705	0.4764	0.064
Mof_H 	H 	0.8805	0.3171	0.413	0.062
Mof_H 	H 	0.9287	0.4394	0.3362	0.017
Mof_H 	H 	0.8813	0.9975	0.274	0.06
Mof_H 	H 	0.8332	0.0307	0.3586	0.065
Mof_H 	H 	0.8491	0.242	0.2366	0.052
Mof_H 	H 	0.8972	0.2088	0.152	-0.056
Mof_H 	H 	0.8755	0.1076	0.3994	0.026
Mof_H 	H 	0.8469	0.1531	0.4764	0.063
Mof_H 	H 	0.7065	0.2699	0.413	0.058
Mof_H 	H 	0.7351	0.2244	0.3362	0.012
Mof_C 	C 	0.92565	0.07805	0.8455	0.553
Mof_C 	C 	0.89991	0.09881	0.79498	-0.249
Mof_C 	C 	0.95281	0.14121	0.73358	0.218
Mof_C 	C 	0.93316	0.16286	0.68328	-0.221
Mof_C 	C 	0.86061	0.14221	0.69438	0.134
Mof_C 	C 	0.80772	0.09982	0.75576	-0.19
Mof_C 	C 	0.82737	0.07817	0.80606	0.146
Mof_C 	C 	0.83831	0.16861	0.63938	-0.051
Mof_C 	C 	0.85952	0.24342	0.59776	-0.001
Mof_C 	C 	0.83244	0.27204	0.55212	-0.107
Mof_C 	C 	0.78426	0.22596	0.54808	0.072
Mof_C 	C 	0.76306	0.15116	0.58968	-0.104
Mof_C 	C 	0.79013	0.12243	0.63534	-0.002
Mof_C 	C 	0.22885	0.07645	0.8455	0.533
Mof_C 	C 	0.30511	0.10621	0.79498	-0.204
Mof_C 	C 	0.31361	0.12521	0.73358	0.1
Mof_C 	C 	0.38356	0.15386	0.68328	-0.158
Mof_C 	C 	0.44501	0.16341	0.69438	0.096
Mof_C 	C 	0.43652	0.14442	0.75576	-0.157
Mof_C 	C 	0.36657	0.11577	0.80606	0.107
Mof_C 	C 	0.52231	0.19201	0.63938	-0.038
Mof_C 	C 	0.54272	0.15882	0.59776	-0.012
Mof_C 	C 	0.61544	0.17584	0.55212	-0.104
Mof_C 	C 	0.66766	0.22596	0.54808	0.067
Mof_C 	C 	0.64726	0.25916	0.58968	-0.098
Mof_C 	C 	0.57453	0.24223	0.63534	-0.011
Mof_C 	C 	0.07805	0.22885	0.8455	0.536
Mof_C 	C 	0.09881	0.30511	0.79498	-0.205
Mof_C 	C 	0.14121	0.31361	0.73358	0.101
Mof_C 	C 	0.16286	0.38356	0.68328	-0.158
Mof_C 	C 	0.14221	0.44501	0.69438	0.095
Mof_C 	C 	0.09982	0.43652	0.75576	-0.158
Mof_C 	C 	0.07817	0.36657	0.80606	0.107
Mof_C 	C 	0.16861	0.52231	0.63938	-0.039
Mof_C 	C 	0.24342	0.54272	0.59776	-0.011
Mof_C 	C 	0.27204	0.61544	0.55212	-0.104
Mof_C 	C 	0.22596	0.66766	0.54808	0.068
Mof_C 	C 	0.15116	0.64726	0.58968	-0.099
Mof_C 	C 	0.12243	0.57453	0.63534	-0.012
Mof_C 	C 	0.07645	0.92565	0.8455	0.551
Mof_C 	C 	0.10621	0.89991	0.79498	-0.249
Mof_C 	C 	0.12521	0.95281	0.73358	0.219
Mof_C 	C 	0.15386	0.93316	0.68328	-0.221
Mof_C 	C 	0.16341	0.86061	0.69438	0.134
Mof_C 	C 	0.14442	0.80772	0.75576	-0.19
Mof_C 	C 	0.11577	0.82737	0.80606	0.147
Mof_C 	C 	0.19201	0.83831	0.63938	-0.05
Mof_C 	C 	0.15882	0.85952	0.59776	-0.001
Mof_C 	C 	0.17584	0.83244	0.55212	-0.108
Mof_C 	C 	0.22596	0.78426	0.54808	0.072
Mof_C 	C 	0.25916	0.76306	0.58968	-0.103
Mof_C 	C 	0.24223	0.79013	0.63534	-0.001
Mof_C 	C 	0.07435	0.92195	0.1545	0.536
Mof_C 	C 	0.10009	0.90119	0.20502	-0.212
Mof_C 	C 	0.04719	0.85879	0.26642	0.03
Mof_C 	C 	0.06684	0.83714	0.31672	-0.131
Mof_C 	C 	0.13939	0.85779	0.30562	0.074
Mof_C 	C 	0.19228	0.90018	0.24424	-0.168
Mof_C 	C 	0.17263	0.92183	0.19394	0.088
Mof_C 	C 	0.16169	0.83139	0.36062	-0.042
Mof_C 	C 	0.14048	0.75658	0.40224	-0.015
Mof_C 	C 	0.16756	0.72796	0.44788	-0.107
Mof_C 	C 	0.21574	0.77404	0.45192	0.067
Mof_C 	C 	0.23694	0.84884	0.41032	-0.105
Mof_C 	C 	0.20987	0.87757	0.36466	-0.014
Mof_C 	C 	0.77115	0.92355	0.1545	0.551
Mof_C 	C 	0.69489	0.89379	0.20502	-0.247
Mof_C 	C 	0.68639	0.87479	0.26642	0.117
Mof_C 	C 	0.61644	0.84614	0.31672	-0.178
Mof_C 	C 	0.55499	0.83659	0.30562	0.102
Mof_C 	C 	0.56348	0.85558	0.24424	-0.193
Mof_C 	C 	0.63343	0.88423	0.19394	0.118
Mof_C 	C 	0.47769	0.80799	0.36062	-0.052
Mof_C 	C 	0.45728	0.84118	0.40224	-0.006
Mof_C 	C 	0.38456	0.82416	0.44788	-0.109
Mof_C 	C 	0.33234	0.77404	0.45192	0.071
Mof_C 	C 	0.35274	0.74084	0.41032	-0.109
Mof_C 	C 	0.42547	0.75777	0.36466	-0.007
Mof_C 	C 	0.92195	0.77115	0.1545	0.549
Mof_C 	C 	0.90119	0.69489	0.20502	-0.246
Mof_C 	C 	0.85879	0.68639	0.26642	0.117
Mof_C 	C 	0.83714	0.61644	0.31672	-0.178
Mof_C 	C 	0.85779	0.55499	0.30562	0.102
Mof_C 	C 	0.90018	0.56348	0.24424	-0.192
Mof_C 	C 	0.92183	0.63343	0.19394	0.118
Mof_C 	C 	0.83139	0.47769	0.36062	-0.051
Mof_C 	C 	0.75658	0.45728	0.40224	-0.007
Mof_C 	C 	0.72796	0.38456	0.44788	-0.109
Mof_C 	C 	0.77404	0.33234	0.45192	0.07
Mof_C 	C 	0.84884	0.35274	0.41032	-0.108
Mof_C 	C 	0.87757	0.42547	0.36466	-0.006
Mof_C 	C 	0.92355	0.07435	0.1545	0.538
Mof_C 	C 	0.89379	0.10009	0.20502	-0.214
Mof_C 	C 	0.87479	0.04719	0.26642	0.032
Mof_C 	C 	0.84614	0.06684	0.31672	-0.132
Mof_C 	C 	0.83659	0.13939	0.30562	0.074
Mof_C 	C 	0.85558	0.19228	0.24424	-0.169
Mof_C 	C 	0.88423	0.17263	0.19394	0.089
Mof_C 	C 	0.80799	0.16169	0.36062	-0.043
Mof_C 	C 	0.84118	0.14048	0.40224	-0.013
Mof_C 	C 	0.82416	0.16756	0.44788	-0.106
Mof_C 	C 	0.77404	0.21574	0.45192	0.067
Mof_C 	C 	0.74084	0.23694	0.41032	-0.106
Mof_C 	C 	0.75777	0.20987	0.36466	-0.014
Mof_C 	C 	0.75	0.25	0.5	-0.093
Mof_C 	C 	0.25	0.75	0.5	-0.093
Mof_O 	O 	0.99203	0.08363	0.83114	-0.678
Mof_O 	O 	0.87172	0.04482	0.90416	-0.676
Mof_O 	O 	0.96481	0.09281	0.94338	-1.217
Mof_O 	O 	0.17683	0.08523	0.83114	-0.7
Mof_O 	O 	0.22412	0.05102	0.90416	-0.679
Mof_O 	O 	0.09181	0.96381	0.94338	-1.215
Mof_O 	O 	0.08363	0.17683	0.83114	-0.701
Mof_O 	O 	0.04482	0.22412	0.90416	-0.682
Mof_O 	O 	0.09281	0.09181	0.94338	-1.251
Mof_O 	O 	0.08523	0.99203	0.83114	-0.677
Mof_O 	O 	0.05102	0.87172	0.90416	-0.674
Mof_O 	O 	0.96381	0.96481	0.94338	-1.192
Mof_O 	O 	0.00797	0.91637	0.16886	-0.703
Mof_O 	O 	0.12828	0.95518	0.09584	-0.795
Mof_O 	O 	0.03519	0.90719	0.05662	-1.441
Mof_O 	O 	0.82317	0.91477	0.16886	-0.69
Mof_O 	O 	0.77588	0.94898	0.09584	-0.799
Mof_O 	O 	0.90819	0.03619	0.05662	-1.444
Mof_O 	O 	0.91637	0.82317	0.16886	-0.69
Mof_O 	O 	0.95518	0.77588	0.09584	-0.797
Mof_O 	O 	0.90719	0.90819	0.05662	-1.423
Mof_O 	O 	0.91477	0.00797	0.16886	-0.704
Mof_O 	O 	0.94898	0.12828	0.09584	-0.797
Mof_O 	O 	0.03619	0.03519	0.05662	-1.477
_end
