data_functionalizedCrystal
_audit_creation_method	'EQeq! by Chris Wilmer'
_symmetry_space_group_name_H-M	'P1'
_symmetry_Int_Tables_number	1
_symmetry_cell_setting	triclinic
loop_
_symmetry_equiv_pos_as_xyz
  x,y,z
_cell_length_a	17.086
_cell_length_b	17.086
_cell_length_c	17.086
_cell_angle_alpha	90
_cell_angle_beta	90
_cell_angle_gamma	90
loop_
_atom_site_label
_atom_site_type_symbol
_atom_site_fract_x
_atom_site_fract_y
_atom_site_fract_z
_atom_site_charge
Mof_N 	N 	0.03006	0.68289	0.40946	-0.401
Mof_C 	C 	0.09908	0.6887	0.36782	-0.031
Mof_H 	H 	0.1396	0.7256	0.3769	-0.006
Mof_H 	H 	0.9104	0.6032	0.463	0.22
Mof_N 	N 	0.53006	0.18289	0.90946	-0.29
Mof_C 	C 	0.59908	0.1887	0.86782	-0.012
Mof_H 	H 	0.6396	0.2256	0.8769	0.005
Mof_H 	H 	0.4104	0.1032	0.963	0.171
Mof_N 	N 	0.96994	0.31711	0.40946	-0.217
Mof_C 	C 	0.90092	0.3113	0.36782	-0.014
Mof_H 	H 	0.8604	0.2744	0.3769	-0.005
Mof_H 	H 	0.0896	0.3968	0.463	0.088
Mof_N 	N 	0.46994	0.81711	0.90946	-0.297
Mof_C 	C 	0.40092	0.8113	0.86782	-0.007
Mof_H 	H 	0.3604	0.7744	0.8769	0.008
Mof_H 	H 	0.5896	0.8968	0.963	0.247
Mof_N 	N 	0.96994	0.68289	0.59054	-0.215
Mof_C 	C 	0.90092	0.6887	0.63218	-0.008
Mof_H 	H 	0.8604	0.7256	0.6231	-0.001
Mof_H 	H 	0.0896	0.6032	0.537	0.089
Mof_N 	N 	0.46994	0.18289	0.09054	-0.321
Mof_C 	C 	0.40092	0.1887	0.13218	-0.035
Mof_H 	H 	0.3604	0.2256	0.1231	-0.02
Mof_H 	H 	0.5896	0.1032	0.037	0.072
Mof_N 	N 	0.03006	0.31711	0.59054	-0.4
Mof_C 	C 	0.09908	0.3113	0.63218	-0.03
Mof_H 	H 	0.1396	0.2744	0.6231	-0.005
Mof_H 	H 	0.9104	0.3968	0.537	0.221
Mof_N 	N 	0.53006	0.81711	0.09054	-0.326
Mof_C 	C 	0.59908	0.8113	0.13218	-0.027
Mof_H 	H 	0.6396	0.7744	0.1231	-0.008
Mof_H 	H 	0.4104	0.8968	0.037	0.131
Mof_N 	N 	0.40946	0.03006	0.68289	-0.4
Mof_C 	C 	0.36782	0.09908	0.6887	-0.03
Mof_H 	H 	0.3769	0.1396	0.7256	-0.005
Mof_H 	H 	0.463	0.9104	0.6032	0.221
Mof_N 	N 	0.90946	0.53006	0.18289	-0.289
Mof_C 	C 	0.86782	0.59908	0.1887	-0.011
Mof_H 	H 	0.8769	0.6396	0.2256	0.006
Mof_H 	H 	0.963	0.4104	0.1032	0.172
Mof_N 	N 	0.40946	0.96994	0.31711	-0.216
Mof_C 	C 	0.36782	0.90092	0.3113	-0.013
Mof_H 	H 	0.3769	0.8604	0.2744	-0.004
Mof_H 	H 	0.463	0.0896	0.3968	0.089
Mof_N 	N 	0.90946	0.46994	0.81711	-0.297
Mof_C 	C 	0.86782	0.40092	0.8113	-0.007
Mof_H 	H 	0.8769	0.3604	0.7744	0.008
Mof_H 	H 	0.963	0.5896	0.8968	0.247
Mof_N 	N 	0.59054	0.96994	0.68289	-0.215
Mof_C 	C 	0.63218	0.90092	0.6887	-0.008
Mof_H 	H 	0.6231	0.8604	0.7256	-0.001
Mof_H 	H 	0.537	0.0896	0.6032	0.089
Mof_N 	N 	0.09054	0.46994	0.18289	-0.321
Mof_C 	C 	0.13218	0.40092	0.1887	-0.035
Mof_H 	H 	0.1231	0.3604	0.2256	-0.02
Mof_H 	H 	0.037	0.5896	0.1032	0.072
Mof_N 	N 	0.59054	0.03006	0.31711	-0.4
Mof_C 	C 	0.63218	0.09908	0.3113	-0.03
Mof_H 	H 	0.6231	0.1396	0.2744	-0.005
Mof_H 	H 	0.537	0.9104	0.3968	0.221
Mof_N 	N 	0.09054	0.53006	0.81711	-0.326
Mof_C 	C 	0.13218	0.59908	0.8113	-0.027
Mof_H 	H 	0.1231	0.6396	0.7744	-0.008
Mof_H 	H 	0.037	0.4104	0.8968	0.131
Mof_N 	N 	0.68289	0.40946	0.03006	-0.4
Mof_C 	C 	0.6887	0.36782	0.09908	-0.03
Mof_H 	H 	0.7256	0.3769	0.1396	-0.005
Mof_H 	H 	0.6032	0.463	0.9104	0.221
Mof_N 	N 	0.18289	0.90946	0.53006	-0.289
Mof_C 	C 	0.1887	0.86782	0.59908	-0.011
Mof_H 	H 	0.2256	0.8769	0.6396	0.006
Mof_H 	H 	0.1032	0.963	0.4104	0.172
Mof_N 	N 	0.31711	0.40946	0.96994	-0.216
Mof_C 	C 	0.3113	0.36782	0.90092	-0.013
Mof_H 	H 	0.2744	0.3769	0.8604	-0.004
Mof_H 	H 	0.3968	0.463	0.0896	0.089
Mof_N 	N 	0.81711	0.90946	0.46994	-0.297
Mof_C 	C 	0.8113	0.86782	0.40092	-0.007
Mof_H 	H 	0.7744	0.8769	0.3604	0.008
Mof_H 	H 	0.8968	0.963	0.5896	0.247
Mof_N 	N 	0.68289	0.59054	0.96994	-0.215
Mof_C 	C 	0.6887	0.63218	0.90092	-0.008
Mof_H 	H 	0.7256	0.6231	0.8604	-0.001
Mof_H 	H 	0.6032	0.537	0.0896	0.089
Mof_N 	N 	0.18289	0.09054	0.46994	-0.321
Mof_C 	C 	0.1887	0.13218	0.40092	-0.035
Mof_H 	H 	0.2256	0.1231	0.3604	-0.02
Mof_H 	H 	0.1032	0.037	0.5896	0.072
Mof_N 	N 	0.31711	0.59054	0.03006	-0.4
Mof_C 	C 	0.3113	0.63218	0.09908	-0.03
Mof_H 	H 	0.2744	0.6231	0.1396	-0.005
Mof_H 	H 	0.3968	0.537	0.9104	0.221
Mof_N 	N 	0.81711	0.09054	0.53006	-0.326
Mof_C 	C 	0.8113	0.13218	0.59908	-0.027
Mof_H 	H 	0.7744	0.1231	0.6396	-0.008
Mof_H 	H 	0.8968	0.037	0.4104	0.131
Mof_N 	N 	0.68289	0.03006	0.40946	-0.4
Mof_C 	C 	0.6887	0.09908	0.36782	-0.03
Mof_H 	H 	0.7256	0.1396	0.3769	-0.005
Mof_H 	H 	0.6032	0.9104	0.463	0.221
Mof_N 	N 	0.18289	0.53006	0.90946	-0.289
Mof_C 	C 	0.1887	0.59908	0.86782	-0.011
Mof_H 	H 	0.2256	0.6396	0.8769	0.006
Mof_H 	H 	0.1032	0.4104	0.963	0.172
Mof_N 	N 	0.31711	0.96994	0.40946	-0.216
Mof_C 	C 	0.3113	0.90092	0.36782	-0.013
Mof_H 	H 	0.2744	0.8604	0.3769	-0.004
Mof_H 	H 	0.3968	0.0896	0.463	0.089
Mof_N 	N 	0.81711	0.46994	0.90946	-0.297
Mof_C 	C 	0.8113	0.40092	0.86782	-0.007
Mof_H 	H 	0.7744	0.3604	0.8769	0.008
Mof_H 	H 	0.8968	0.5896	0.963	0.247
Mof_N 	N 	0.68289	0.96994	0.59054	-0.215
Mof_C 	C 	0.6887	0.90092	0.63218	-0.008
Mof_H 	H 	0.7256	0.8604	0.6231	-0.001
Mof_H 	H 	0.6032	0.0896	0.537	0.089
Mof_N 	N 	0.18289	0.46994	0.09054	-0.321
Mof_C 	C 	0.1887	0.40092	0.13218	-0.035
Mof_H 	H 	0.2256	0.3604	0.1231	-0.02
Mof_H 	H 	0.1032	0.5896	0.037	0.072
Mof_N 	N 	0.31711	0.03006	0.59054	-0.4
Mof_C 	C 	0.3113	0.09908	0.63218	-0.03
Mof_H 	H 	0.2744	0.1396	0.6231	-0.005
Mof_H 	H 	0.3968	0.9104	0.537	0.221
Mof_N 	N 	0.81711	0.53006	0.09054	-0.326
Mof_C 	C 	0.8113	0.59908	0.13218	-0.027
Mof_H 	H 	0.7744	0.6396	0.1231	-0.008
Mof_H 	H 	0.8968	0.4104	0.037	0.131
Mof_N 	N 	0.03006	0.40946	0.68289	-0.4
Mof_C 	C 	0.09908	0.36782	0.6887	-0.03
Mof_H 	H 	0.1396	0.3769	0.7256	-0.005
Mof_H 	H 	0.9104	0.463	0.6032	0.221
Mof_N 	N 	0.53006	0.90946	0.18289	-0.289
Mof_C 	C 	0.59908	0.86782	0.1887	-0.011
Mof_H 	H 	0.6396	0.8769	0.2256	0.006
Mof_H 	H 	0.4104	0.963	0.1032	0.172
Mof_N 	N 	0.96994	0.40946	0.31711	-0.216
Mof_C 	C 	0.90092	0.36782	0.3113	-0.013
Mof_H 	H 	0.8604	0.3769	0.2744	-0.004
Mof_H 	H 	0.0896	0.463	0.3968	0.089
Mof_N 	N 	0.46994	0.90946	0.81711	-0.297
Mof_C 	C 	0.40092	0.86782	0.8113	-0.007
Mof_H 	H 	0.3604	0.8769	0.7744	0.008
Mof_H 	H 	0.5896	0.963	0.8968	0.247
Mof_N 	N 	0.96994	0.59054	0.68289	-0.215
Mof_C 	C 	0.90092	0.63218	0.6887	-0.008
Mof_H 	H 	0.8604	0.6231	0.7256	-0.001
Mof_H 	H 	0.0896	0.537	0.6032	0.089
Mof_N 	N 	0.46994	0.09054	0.18289	-0.321
Mof_C 	C 	0.40092	0.13218	0.1887	-0.035
Mof_H 	H 	0.3604	0.1231	0.2256	-0.02
Mof_H 	H 	0.5896	0.037	0.1032	0.072
Mof_N 	N 	0.03006	0.59054	0.31711	-0.4
Mof_C 	C 	0.09908	0.63218	0.3113	-0.03
Mof_H 	H 	0.1396	0.6231	0.2744	-0.005
Mof_H 	H 	0.9104	0.537	0.3968	0.221
Mof_N 	N 	0.53006	0.09054	0.81711	-0.326
Mof_C 	C 	0.59908	0.13218	0.8113	-0.027
Mof_H 	H 	0.6396	0.1231	0.7744	-0.008
Mof_H 	H 	0.4104	0.037	0.8968	0.131
Mof_N 	N 	0.40946	0.68289	0.03006	-0.4
Mof_C 	C 	0.36782	0.6887	0.09908	-0.03
Mof_H 	H 	0.3769	0.7256	0.1396	-0.005
Mof_H 	H 	0.463	0.6032	0.9104	0.221
Mof_N 	N 	0.90946	0.18289	0.53006	-0.289
Mof_C 	C 	0.86782	0.1887	0.59908	-0.011
Mof_H 	H 	0.8769	0.2256	0.6396	0.006
Mof_H 	H 	0.963	0.1032	0.4104	0.172
Mof_N 	N 	0.40946	0.31711	0.96994	-0.216
Mof_C 	C 	0.36782	0.3113	0.90092	-0.013
Mof_H 	H 	0.3769	0.2744	0.8604	-0.004
Mof_H 	H 	0.463	0.3968	0.0896	0.089
Mof_N 	N 	0.90946	0.81711	0.46994	-0.297
Mof_C 	C 	0.86782	0.8113	0.40092	-0.007
Mof_H 	H 	0.8769	0.7744	0.3604	0.008
Mof_H 	H 	0.963	0.8968	0.5896	0.247
Mof_N 	N 	0.59054	0.68289	0.96994	-0.215
Mof_C 	C 	0.63218	0.6887	0.90092	-0.008
Mof_H 	H 	0.6231	0.7256	0.8604	-0.001
Mof_H 	H 	0.537	0.6032	0.0896	0.089
Mof_N 	N 	0.09054	0.18289	0.46994	-0.321
Mof_C 	C 	0.13218	0.1887	0.40092	-0.035
Mof_H 	H 	0.1231	0.2256	0.3604	-0.02
Mof_H 	H 	0.037	0.1032	0.5896	0.072
Mof_N 	N 	0.59054	0.31711	0.03006	-0.4
Mof_C 	C 	0.63218	0.3113	0.09908	-0.03
Mof_H 	H 	0.6231	0.2744	0.1396	-0.005
Mof_H 	H 	0.537	0.3968	0.9104	0.221
Mof_N 	N 	0.09054	0.81711	0.53006	-0.326
Mof_C 	C 	0.13218	0.8113	0.59908	-0.027
Mof_H 	H 	0.1231	0.7744	0.6396	-0.008
Mof_H 	H 	0.037	0.8968	0.4104	0.131
Mof_Zn	Zn	6.93562e-33	0.75	0.5	1.138
Mof_Zn	Zn	1.8747e-33	0.25	0.5	1.137
Mof_Zn	Zn	0.5	0	0.75	1.138
Mof_Zn	Zn	0.5	0	0.25	1.137
Mof_Zn	Zn	0.75	0.5	-0	1.138
Mof_Zn	Zn	0.25	0.5	-0	1.137
Mof_Zn	Zn	0.75	0	0.5	1.138
Mof_Zn	Zn	0.25	0	0.5	1.137
Mof_Zn	Zn	2.81205e-33	0.5	0.75	1.138
Mof_Zn	Zn	3.46781e-33	0.5	0.25	1.137
Mof_Zn	Zn	0.5	0.75	-0	1.138
Mof_Zn	Zn	0.5	0.25	-0	1.137
Mof_C 	C 	0.9917	0.62288	0.37712	0.433
Mof_C 	C 	0.9144	0.5934	0.4066	-0.772
Mof_H 	H 	0.8719	0.6206	0.3794	0.221
Mof_C 	C 	0.4917	0.12288	0.87712	0.211
Mof_C 	C 	0.4144	0.0934	0.9066	-0.588
Mof_H 	H 	0.3719	0.1206	0.8794	0.162
Mof_C 	C 	0.0083	0.37712	0.37712	-0.01
Mof_C 	C 	0.0856	0.4066	0.4066	-0.416
Mof_H 	H 	0.1281	0.3794	0.3794	0.111
Mof_C 	C 	0.5083	0.87712	0.87712	0.273
Mof_C 	C 	0.5856	0.9066	0.9066	-0.725
Mof_H 	H 	0.6281	0.8794	0.8794	0.228
Mof_C 	C 	0.0083	0.62288	0.62288	-0.006
Mof_C 	C 	0.0856	0.5934	0.5934	-0.418
Mof_H 	H 	0.1281	0.6206	0.6206	0.114
Mof_C 	C 	0.5083	0.12288	0.12288	0.156
Mof_C 	C 	0.5856	0.0934	0.0934	-0.48
Mof_H 	H 	0.6281	0.1206	0.1206	0.117
Mof_C 	C 	0.9917	0.37712	0.62288	0.433
Mof_C 	C 	0.9144	0.4066	0.5934	-0.772
Mof_H 	H 	0.8719	0.3794	0.6206	0.221
Mof_C 	C 	0.4917	0.87712	0.12288	0.211
Mof_C 	C 	0.4144	0.9066	0.0934	-0.588
Mof_H 	H 	0.3719	0.8794	0.1206	0.162
Mof_C 	C 	0.37712	0.9917	0.62288	0.433
Mof_C 	C 	0.4066	0.9144	0.5934	-0.772
Mof_H 	H 	0.3794	0.8719	0.6206	0.221
Mof_C 	C 	0.87712	0.4917	0.12288	0.211
Mof_C 	C 	0.9066	0.4144	0.0934	-0.588
Mof_H 	H 	0.8794	0.3719	0.1206	0.162
Mof_C 	C 	0.37712	0.0083	0.37712	-0.01
Mof_C 	C 	0.4066	0.0856	0.4066	-0.416
Mof_H 	H 	0.3794	0.1281	0.3794	0.111
Mof_C 	C 	0.87712	0.5083	0.87712	0.273
Mof_C 	C 	0.9066	0.5856	0.9066	-0.725
Mof_H 	H 	0.8794	0.6281	0.8794	0.228
Mof_C 	C 	0.62288	0.0083	0.62288	-0.006
Mof_C 	C 	0.5934	0.0856	0.5934	-0.418
Mof_H 	H 	0.6206	0.1281	0.6206	0.114
Mof_C 	C 	0.12288	0.5083	0.12288	0.156
Mof_C 	C 	0.0934	0.5856	0.0934	-0.48
Mof_H 	H 	0.1206	0.6281	0.1206	0.117
Mof_C 	C 	0.62288	0.9917	0.37712	0.433
Mof_C 	C 	0.5934	0.9144	0.4066	-0.772
Mof_H 	H 	0.6206	0.8719	0.3794	0.221
Mof_C 	C 	0.12288	0.4917	0.87712	0.211
Mof_C 	C 	0.0934	0.4144	0.9066	-0.588
Mof_H 	H 	0.1206	0.3719	0.8794	0.162
Mof_C 	C 	0.62288	0.37712	0.9917	0.433
Mof_C 	C 	0.5934	0.4066	0.9144	-0.772
Mof_H 	H 	0.6206	0.3794	0.8719	0.221
Mof_C 	C 	0.12288	0.87712	0.4917	0.211
Mof_C 	C 	0.0934	0.9066	0.4144	-0.588
Mof_H 	H 	0.1206	0.8794	0.3719	0.162
Mof_C 	C 	0.37712	0.37712	0.0083	-0.01
Mof_C 	C 	0.4066	0.4066	0.0856	-0.416
Mof_H 	H 	0.3794	0.3794	0.1281	0.111
Mof_C 	C 	0.87712	0.87712	0.5083	0.273
Mof_C 	C 	0.9066	0.9066	0.5856	-0.725
Mof_H 	H 	0.8794	0.8794	0.6281	0.228
Mof_C 	C 	0.62288	0.62288	0.0083	-0.006
Mof_C 	C 	0.5934	0.5934	0.0856	-0.418
Mof_H 	H 	0.6206	0.6206	0.1281	0.114
Mof_C 	C 	0.12288	0.12288	0.5083	0.156
Mof_C 	C 	0.0934	0.0934	0.5856	-0.48
Mof_H 	H 	0.1206	0.1206	0.6281	0.117
Mof_C 	C 	0.37712	0.62288	0.9917	0.433
Mof_C 	C 	0.4066	0.5934	0.9144	-0.772
Mof_H 	H 	0.3794	0.6206	0.8719	0.221
Mof_C 	C 	0.87712	0.12288	0.4917	0.211
Mof_C 	C 	0.9066	0.0934	0.4144	-0.588
Mof_H 	H 	0.8794	0.1206	0.3719	0.162
_end
