data_functionalizedCrystal
_audit_creation_method	'EQeq! by Chris Wilmer'
_symmetry_space_group_name_H-M	'P1'
_symmetry_Int_Tables_number	1
_symmetry_cell_setting	triclinic
loop_
_symmetry_equiv_pos_as_xyz
  x,y,z
_cell_length_a	33.6167
_cell_length_b	33.6167
_cell_length_c	33.6167
_cell_angle_alpha	90
_cell_angle_beta	90
_cell_angle_gamma	90
loop_
_atom_site_label
_atom_site_type_symbol
_atom_site_fract_x
_atom_site_fract_y
_atom_site_fract_z
_atom_site_charge
Mof_O 	O 	0.9606	0.24466	0.1999	-0.385
Mof_C 	C 	0.8927	0.15737	0.2098	0.062
Mof_O 	O 	0.9606	0.74466	0.6999	-0.384
Mof_C 	C 	0.8927	0.65737	0.7098	0.067
Mof_O 	O 	0.4606	0.24466	0.6999	-0.394
Mof_C 	C 	0.3927	0.15737	0.7098	0.061
Mof_O 	O 	0.4606	0.74466	0.1999	-0.394
Mof_C 	C 	0.3927	0.65737	0.2098	0.062
Mof_O 	O 	0.0394	0.75534	0.1999	-0.4
Mof_C 	C 	0.1073	0.84263	0.2098	0.061
Mof_O 	O 	0.0394	0.25534	0.6999	-0.399
Mof_C 	C 	0.1073	0.34263	0.7098	0.06
Mof_O 	O 	0.5394	0.75534	0.6999	-0.393
Mof_C 	C 	0.6073	0.84263	0.7098	0.066
Mof_O 	O 	0.5394	0.25534	0.1999	-0.395
Mof_C 	C 	0.6073	0.34263	0.2098	0.062
Mof_O 	O 	0.0394	0.24466	0.8001	-0.398
Mof_C 	C 	0.1073	0.15737	0.7902	0.058
Mof_O 	O 	0.0394	0.74466	0.3001	-0.398
Mof_C 	C 	0.1073	0.65737	0.2902	0.059
Mof_O 	O 	0.5394	0.24466	0.3001	-0.394
Mof_C 	C 	0.6073	0.15737	0.2902	0.06
Mof_O 	O 	0.5394	0.74466	0.8001	-0.392
Mof_C 	C 	0.6073	0.65737	0.7902	0.064
Mof_O 	O 	0.9606	0.75534	0.8001	-0.382
Mof_C 	C 	0.8927	0.84263	0.7902	0.07
Mof_O 	O 	0.9606	0.25534	0.3001	-0.384
Mof_C 	C 	0.8927	0.34263	0.2902	0.066
Mof_O 	O 	0.4606	0.75534	0.3001	-0.393
Mof_C 	C 	0.3927	0.84263	0.2902	0.065
Mof_O 	O 	0.4606	0.25534	0.8001	-0.393
Mof_C 	C 	0.3927	0.34263	0.7902	0.064
Mof_O 	O 	0.1999	0.9606	0.24466	-0.384
Mof_C 	C 	0.2098	0.8927	0.15737	0.063
Mof_O 	O 	0.1999	0.4606	0.74466	-0.394
Mof_C 	C 	0.2098	0.3927	0.65737	0.062
Mof_O 	O 	0.6999	0.9606	0.74466	-0.383
Mof_C 	C 	0.7098	0.8927	0.65737	0.067
Mof_O 	O 	0.6999	0.4606	0.24466	-0.394
Mof_C 	C 	0.7098	0.3927	0.15737	0.061
Mof_O 	O 	0.1999	0.0394	0.75534	-0.4
Mof_C 	C 	0.2098	0.1073	0.84263	0.061
Mof_O 	O 	0.1999	0.5394	0.25534	-0.395
Mof_C 	C 	0.2098	0.6073	0.34263	0.062
Mof_O 	O 	0.6999	0.0394	0.25534	-0.399
Mof_C 	C 	0.7098	0.1073	0.34263	0.06
Mof_O 	O 	0.6999	0.5394	0.75534	-0.393
Mof_C 	C 	0.7098	0.6073	0.84263	0.066
Mof_O 	O 	0.8001	0.0394	0.24466	-0.398
Mof_C 	C 	0.7902	0.1073	0.15737	0.058
Mof_O 	O 	0.8001	0.5394	0.74466	-0.392
Mof_C 	C 	0.7902	0.6073	0.65737	0.064
Mof_O 	O 	0.3001	0.0394	0.74466	-0.398
Mof_C 	C 	0.2902	0.1073	0.65737	0.059
Mof_O 	O 	0.3001	0.5394	0.24466	-0.394
Mof_C 	C 	0.2902	0.6073	0.15737	0.06
Mof_O 	O 	0.8001	0.9606	0.75534	-0.382
Mof_C 	C 	0.7902	0.8927	0.84263	0.07
Mof_O 	O 	0.8001	0.4606	0.25534	-0.393
Mof_C 	C 	0.7902	0.3927	0.34263	0.064
Mof_O 	O 	0.3001	0.9606	0.25534	-0.384
Mof_C 	C 	0.2902	0.8927	0.34263	0.066
Mof_O 	O 	0.3001	0.4606	0.75534	-0.393
Mof_C 	C 	0.2902	0.3927	0.84263	0.065
Mof_O 	O 	0.24466	0.1999	0.9606	-0.384
Mof_C 	C 	0.15737	0.2098	0.8927	0.063
Mof_O 	O 	0.24466	0.6999	0.4606	-0.394
Mof_C 	C 	0.15737	0.7098	0.3927	0.061
Mof_O 	O 	0.74466	0.1999	0.4606	-0.394
Mof_C 	C 	0.65737	0.2098	0.3927	0.062
Mof_O 	O 	0.74466	0.6999	0.9606	-0.383
Mof_C 	C 	0.65737	0.7098	0.8927	0.067
Mof_O 	O 	0.75534	0.1999	0.0394	-0.4
Mof_C 	C 	0.84263	0.2098	0.1073	0.061
Mof_O 	O 	0.75534	0.6999	0.5394	-0.393
Mof_C 	C 	0.84263	0.7098	0.6073	0.066
Mof_O 	O 	0.25534	0.1999	0.5394	-0.395
Mof_C 	C 	0.34263	0.2098	0.6073	0.062
Mof_O 	O 	0.25534	0.6999	0.0394	-0.399
Mof_C 	C 	0.34263	0.7098	0.1073	0.06
Mof_O 	O 	0.24466	0.8001	0.0394	-0.398
Mof_C 	C 	0.15737	0.7902	0.1073	0.058
Mof_O 	O 	0.24466	0.3001	0.5394	-0.394
Mof_C 	C 	0.15737	0.2902	0.6073	0.06
Mof_O 	O 	0.74466	0.8001	0.5394	-0.392
Mof_C 	C 	0.65737	0.7902	0.6073	0.064
Mof_O 	O 	0.74466	0.3001	0.0394	-0.398
Mof_C 	C 	0.65737	0.2902	0.1073	0.059
Mof_O 	O 	0.75534	0.8001	0.9606	-0.382
Mof_C 	C 	0.84263	0.7902	0.8927	0.07
Mof_O 	O 	0.75534	0.3001	0.4606	-0.393
Mof_C 	C 	0.84263	0.2902	0.3927	0.065
Mof_O 	O 	0.25534	0.8001	0.4606	-0.393
Mof_C 	C 	0.34263	0.7902	0.3927	0.064
Mof_O 	O 	0.25534	0.3001	0.9606	-0.384
Mof_C 	C 	0.34263	0.2902	0.8927	0.066
Mof_O 	O 	0.24466	0.9606	0.8001	-0.382
Mof_C 	C 	0.15737	0.8927	0.7902	0.065
Mof_O 	O 	0.24466	0.4606	0.3001	-0.394
Mof_C 	C 	0.15737	0.3927	0.2902	0.06
Mof_O 	O 	0.74466	0.9606	0.3001	-0.383
Mof_C 	C 	0.65737	0.8927	0.2902	0.066
Mof_O 	O 	0.74466	0.4606	0.8001	-0.392
Mof_C 	C 	0.65737	0.3927	0.7902	0.064
Mof_O 	O 	0.75534	0.0394	0.8001	-0.398
Mof_C 	C 	0.84263	0.1073	0.7902	0.063
Mof_O 	O 	0.75534	0.5394	0.3001	-0.393
Mof_C 	C 	0.84263	0.6073	0.2902	0.065
Mof_O 	O 	0.25534	0.0394	0.3001	-0.399
Mof_C 	C 	0.34263	0.1073	0.2902	0.059
Mof_O 	O 	0.25534	0.5394	0.8001	-0.393
Mof_C 	C 	0.34263	0.6073	0.7902	0.064
Mof_O 	O 	0.24466	0.0394	0.1999	-0.4
Mof_C 	C 	0.15737	0.1073	0.2098	0.056
Mof_O 	O 	0.24466	0.5394	0.6999	-0.394
Mof_C 	C 	0.15737	0.6073	0.7098	0.061
Mof_O 	O 	0.74466	0.0394	0.6999	-0.398
Mof_C 	C 	0.65737	0.1073	0.7098	0.06
Mof_O 	O 	0.74466	0.5394	0.1999	-0.394
Mof_C 	C 	0.65737	0.6073	0.2098	0.062
Mof_O 	O 	0.75534	0.9606	0.1999	-0.384
Mof_C 	C 	0.84263	0.8927	0.2098	0.068
Mof_O 	O 	0.75534	0.4606	0.6999	-0.393
Mof_C 	C 	0.84263	0.3927	0.7098	0.066
Mof_O 	O 	0.25534	0.9606	0.6999	-0.384
Mof_C 	C 	0.34263	0.8927	0.7098	0.067
Mof_O 	O 	0.25534	0.4606	0.1999	-0.395
Mof_C 	C 	0.34263	0.3927	0.2098	0.062
Mof_O 	O 	0.9606	0.1999	0.75534	-0.384
Mof_C 	C 	0.8927	0.2098	0.84263	0.068
Mof_O 	O 	0.9606	0.6999	0.25534	-0.384
Mof_C 	C 	0.8927	0.7098	0.34263	0.067
Mof_O 	O 	0.4606	0.1999	0.25534	-0.395
Mof_C 	C 	0.3927	0.2098	0.34263	0.062
Mof_O 	O 	0.4606	0.6999	0.75534	-0.393
Mof_C 	C 	0.3927	0.7098	0.84263	0.066
Mof_O 	O 	0.0394	0.1999	0.24466	-0.4
Mof_C 	C 	0.1073	0.2098	0.15737	0.056
Mof_O 	O 	0.0394	0.6999	0.74466	-0.398
Mof_C 	C 	0.1073	0.7098	0.65737	0.06
Mof_O 	O 	0.5394	0.1999	0.74466	-0.394
Mof_C 	C 	0.6073	0.2098	0.65737	0.062
Mof_O 	O 	0.5394	0.6999	0.24466	-0.394
Mof_C 	C 	0.6073	0.7098	0.15737	0.061
Mof_O 	O 	0.0394	0.8001	0.75534	-0.398
Mof_C 	C 	0.1073	0.7902	0.84263	0.063
Mof_O 	O 	0.0394	0.3001	0.25534	-0.399
Mof_C 	C 	0.1073	0.2902	0.34263	0.059
Mof_O 	O 	0.5394	0.8001	0.25534	-0.393
Mof_C 	C 	0.6073	0.7902	0.34263	0.064
Mof_O 	O 	0.5394	0.3001	0.75534	-0.393
Mof_C 	C 	0.6073	0.2902	0.84263	0.065
Mof_O 	O 	0.9606	0.8001	0.24466	-0.382
Mof_C 	C 	0.8927	0.7902	0.15737	0.065
Mof_O 	O 	0.9606	0.3001	0.74466	-0.383
Mof_C 	C 	0.8927	0.2902	0.65737	0.066
Mof_O 	O 	0.4606	0.8001	0.74466	-0.392
Mof_C 	C 	0.3927	0.7902	0.65737	0.064
Mof_O 	O 	0.4606	0.3001	0.24466	-0.394
Mof_C 	C 	0.3927	0.2902	0.15737	0.06
Mof_O 	O 	0.1999	0.24466	0.0394	-0.4
Mof_C 	C 	0.2098	0.15737	0.1073	0.056
Mof_O 	O 	0.1999	0.74466	0.5394	-0.394
Mof_C 	C 	0.2098	0.65737	0.6073	0.062
Mof_O 	O 	0.6999	0.24466	0.5394	-0.394
Mof_C 	C 	0.7098	0.15737	0.6073	0.061
Mof_O 	O 	0.6999	0.74466	0.0394	-0.398
Mof_C 	C 	0.7098	0.65737	0.1073	0.06
Mof_O 	O 	0.1999	0.75534	0.9606	-0.384
Mof_C 	C 	0.2098	0.84263	0.8927	0.068
Mof_O 	O 	0.1999	0.25534	0.4606	-0.395
Mof_C 	C 	0.2098	0.34263	0.3927	0.062
Mof_O 	O 	0.6999	0.75534	0.4606	-0.393
Mof_C 	C 	0.7098	0.84263	0.3927	0.066
Mof_O 	O 	0.6999	0.25534	0.9606	-0.384
Mof_C 	C 	0.7098	0.34263	0.8927	0.067
Mof_O 	O 	0.8001	0.24466	0.9606	-0.382
Mof_C 	C 	0.7902	0.15737	0.8927	0.065
Mof_O 	O 	0.8001	0.74466	0.4606	-0.392
Mof_C 	C 	0.7902	0.65737	0.3927	0.064
Mof_O 	O 	0.3001	0.24466	0.4606	-0.394
Mof_C 	C 	0.2902	0.15737	0.3927	0.06
Mof_O 	O 	0.3001	0.74466	0.9606	-0.383
Mof_C 	C 	0.2902	0.65737	0.8927	0.066
Mof_O 	O 	0.8001	0.75534	0.0394	-0.398
Mof_C 	C 	0.7902	0.84263	0.1073	0.063
Mof_O 	O 	0.8001	0.25534	0.5394	-0.393
Mof_C 	C 	0.7902	0.34263	0.6073	0.064
Mof_O 	O 	0.3001	0.75534	0.5394	-0.393
Mof_C 	C 	0.2902	0.84263	0.6073	0.065
Mof_O 	O 	0.3001	0.25534	0.0394	-0.399
Mof_C 	C 	0.2902	0.34263	0.1073	0.059
Mof_O 	O 	0.0394	0.75534	0.8001	-0.398
Mof_C 	C 	0.1073	0.84263	0.7902	0.063
Mof_O 	O 	0.0394	0.25534	0.3001	-0.399
Mof_C 	C 	0.1073	0.34263	0.2902	0.059
Mof_O 	O 	0.5394	0.75534	0.3001	-0.393
Mof_C 	C 	0.6073	0.84263	0.2902	0.065
Mof_O 	O 	0.5394	0.25534	0.8001	-0.393
Mof_C 	C 	0.6073	0.34263	0.7902	0.064
Mof_O 	O 	0.9606	0.24466	0.8001	-0.382
Mof_C 	C 	0.8927	0.15737	0.7902	0.065
Mof_O 	O 	0.9606	0.74466	0.3001	-0.383
Mof_C 	C 	0.8927	0.65737	0.2902	0.066
Mof_O 	O 	0.4606	0.24466	0.3001	-0.394
Mof_C 	C 	0.3927	0.15737	0.2902	0.06
Mof_O 	O 	0.4606	0.74466	0.8001	-0.392
Mof_C 	C 	0.3927	0.65737	0.7902	0.064
Mof_O 	O 	0.9606	0.75534	0.1999	-0.384
Mof_C 	C 	0.8927	0.84263	0.2098	0.068
Mof_O 	O 	0.9606	0.25534	0.6999	-0.384
Mof_C 	C 	0.8927	0.34263	0.7098	0.067
Mof_O 	O 	0.4606	0.75534	0.6999	-0.393
Mof_C 	C 	0.3927	0.84263	0.7098	0.066
Mof_O 	O 	0.4606	0.25534	0.1999	-0.395
Mof_C 	C 	0.3927	0.34263	0.2098	0.062
Mof_O 	O 	0.0394	0.24466	0.1999	-0.4
Mof_C 	C 	0.1073	0.15737	0.2098	0.056
Mof_O 	O 	0.0394	0.74466	0.6999	-0.398
Mof_C 	C 	0.1073	0.65737	0.7098	0.06
Mof_O 	O 	0.5394	0.24466	0.6999	-0.394
Mof_C 	C 	0.6073	0.15737	0.7098	0.061
Mof_O 	O 	0.5394	0.74466	0.1999	-0.394
Mof_C 	C 	0.6073	0.65737	0.2098	0.062
Mof_O 	O 	0.8001	0.0394	0.75534	-0.398
Mof_C 	C 	0.7902	0.1073	0.84263	0.063
Mof_O 	O 	0.8001	0.5394	0.25534	-0.393
Mof_C 	C 	0.7902	0.6073	0.34263	0.064
Mof_O 	O 	0.3001	0.0394	0.25534	-0.399
Mof_C 	C 	0.2902	0.1073	0.34263	0.059
Mof_O 	O 	0.3001	0.5394	0.75534	-0.393
Mof_C 	C 	0.2902	0.6073	0.84263	0.065
Mof_O 	O 	0.8001	0.9606	0.24466	-0.382
Mof_C 	C 	0.7902	0.8927	0.15737	0.065
Mof_O 	O 	0.8001	0.4606	0.74466	-0.392
Mof_C 	C 	0.7902	0.3927	0.65737	0.064
Mof_O 	O 	0.3001	0.9606	0.74466	-0.383
Mof_C 	C 	0.2902	0.8927	0.65737	0.066
Mof_O 	O 	0.3001	0.4606	0.24466	-0.394
Mof_C 	C 	0.2902	0.3927	0.15737	0.06
Mof_O 	O 	0.1999	0.9606	0.75534	-0.384
Mof_C 	C 	0.2098	0.8927	0.84263	0.068
Mof_O 	O 	0.1999	0.4606	0.25534	-0.395
Mof_C 	C 	0.2098	0.3927	0.34263	0.062
Mof_O 	O 	0.6999	0.9606	0.25534	-0.384
Mof_C 	C 	0.7098	0.8927	0.34263	0.067
Mof_O 	O 	0.6999	0.4606	0.75534	-0.393
Mof_C 	C 	0.7098	0.3927	0.84263	0.066
Mof_O 	O 	0.1999	0.0394	0.24466	-0.4
Mof_C 	C 	0.2098	0.1073	0.15737	0.056
Mof_O 	O 	0.1999	0.5394	0.74466	-0.394
Mof_C 	C 	0.2098	0.6073	0.65737	0.062
Mof_O 	O 	0.6999	0.0394	0.74466	-0.398
Mof_C 	C 	0.7098	0.1073	0.65737	0.06
Mof_O 	O 	0.6999	0.5394	0.24466	-0.394
Mof_C 	C 	0.7098	0.6073	0.15737	0.061
Mof_O 	O 	0.75534	0.8001	0.0394	-0.398
Mof_C 	C 	0.84263	0.7902	0.1073	0.063
Mof_O 	O 	0.75534	0.3001	0.5394	-0.393
Mof_C 	C 	0.84263	0.2902	0.6073	0.065
Mof_O 	O 	0.25534	0.8001	0.5394	-0.393
Mof_C 	C 	0.34263	0.7902	0.6073	0.064
Mof_O 	O 	0.25534	0.3001	0.0394	-0.399
Mof_C 	C 	0.34263	0.2902	0.1073	0.059
Mof_O 	O 	0.24466	0.8001	0.9606	-0.382
Mof_C 	C 	0.15737	0.7902	0.8927	0.065
Mof_O 	O 	0.24466	0.3001	0.4606	-0.394
Mof_C 	C 	0.15737	0.2902	0.3927	0.06
Mof_O 	O 	0.74466	0.8001	0.4606	-0.392
Mof_C 	C 	0.65737	0.7902	0.3927	0.064
Mof_O 	O 	0.74466	0.3001	0.9606	-0.383
Mof_C 	C 	0.65737	0.2902	0.8927	0.066
Mof_O 	O 	0.75534	0.1999	0.9606	-0.384
Mof_C 	C 	0.84263	0.2098	0.8927	0.068
Mof_O 	O 	0.75534	0.6999	0.4606	-0.393
Mof_C 	C 	0.84263	0.7098	0.3927	0.066
Mof_O 	O 	0.25534	0.1999	0.4606	-0.395
Mof_C 	C 	0.34263	0.2098	0.3927	0.062
Mof_O 	O 	0.25534	0.6999	0.9606	-0.384
Mof_C 	C 	0.34263	0.7098	0.8927	0.067
Mof_O 	O 	0.24466	0.1999	0.0394	-0.4
Mof_C 	C 	0.15737	0.2098	0.1073	0.056
Mof_O 	O 	0.24466	0.6999	0.5394	-0.394
Mof_C 	C 	0.15737	0.7098	0.6073	0.061
Mof_O 	O 	0.74466	0.1999	0.5394	-0.394
Mof_C 	C 	0.65737	0.2098	0.6073	0.062
Mof_O 	O 	0.74466	0.6999	0.0394	-0.398
Mof_C 	C 	0.65737	0.7098	0.1073	0.06
Mof_O 	O 	0.75534	0.0394	0.1999	-0.4
Mof_C 	C 	0.84263	0.1073	0.2098	0.061
Mof_O 	O 	0.75534	0.5394	0.6999	-0.393
Mof_C 	C 	0.84263	0.6073	0.7098	0.066
Mof_O 	O 	0.25534	0.0394	0.6999	-0.399
Mof_C 	C 	0.34263	0.1073	0.7098	0.06
Mof_O 	O 	0.25534	0.5394	0.1999	-0.395
Mof_C 	C 	0.34263	0.6073	0.2098	0.062
Mof_O 	O 	0.24466	0.9606	0.1999	-0.384
Mof_C 	C 	0.15737	0.8927	0.2098	0.063
Mof_O 	O 	0.24466	0.4606	0.6999	-0.394
Mof_C 	C 	0.15737	0.3927	0.7098	0.061
Mof_O 	O 	0.74466	0.9606	0.6999	-0.383
Mof_C 	C 	0.65737	0.8927	0.7098	0.067
Mof_O 	O 	0.74466	0.4606	0.1999	-0.394
Mof_C 	C 	0.65737	0.3927	0.2098	0.062
Mof_O 	O 	0.75534	0.9606	0.8001	-0.382
Mof_C 	C 	0.84263	0.8927	0.7902	0.07
Mof_O 	O 	0.75534	0.4606	0.3001	-0.393
Mof_C 	C 	0.84263	0.3927	0.2902	0.065
Mof_O 	O 	0.25534	0.9606	0.3001	-0.384
Mof_C 	C 	0.34263	0.8927	0.2902	0.066
Mof_O 	O 	0.25534	0.4606	0.8001	-0.393
Mof_C 	C 	0.34263	0.3927	0.7902	0.064
Mof_O 	O 	0.24466	0.0394	0.8001	-0.398
Mof_C 	C 	0.15737	0.1073	0.7902	0.058
Mof_O 	O 	0.24466	0.5394	0.3001	-0.394
Mof_C 	C 	0.15737	0.6073	0.2902	0.06
Mof_O 	O 	0.74466	0.0394	0.3001	-0.398
Mof_C 	C 	0.65737	0.1073	0.2902	0.059
Mof_O 	O 	0.74466	0.5394	0.8001	-0.392
Mof_C 	C 	0.65737	0.6073	0.7902	0.064
Mof_O 	O 	0.0394	0.8001	0.24466	-0.398
Mof_C 	C 	0.1073	0.7902	0.15737	0.058
Mof_O 	O 	0.0394	0.3001	0.74466	-0.398
Mof_C 	C 	0.1073	0.2902	0.65737	0.059
Mof_O 	O 	0.5394	0.8001	0.74466	-0.392
Mof_C 	C 	0.6073	0.7902	0.65737	0.064
Mof_O 	O 	0.5394	0.3001	0.24466	-0.394
Mof_C 	C 	0.6073	0.2902	0.15737	0.06
Mof_O 	O 	0.9606	0.8001	0.75534	-0.382
Mof_C 	C 	0.8927	0.7902	0.84263	0.07
Mof_O 	O 	0.9606	0.3001	0.25534	-0.384
Mof_C 	C 	0.8927	0.2902	0.34263	0.066
Mof_O 	O 	0.4606	0.8001	0.25534	-0.393
Mof_C 	C 	0.3927	0.7902	0.34263	0.064
Mof_O 	O 	0.4606	0.3001	0.75534	-0.393
Mof_C 	C 	0.3927	0.2902	0.84263	0.065
Mof_O 	O 	0.9606	0.1999	0.24466	-0.384
Mof_C 	C 	0.8927	0.2098	0.15737	0.063
Mof_O 	O 	0.9606	0.6999	0.74466	-0.383
Mof_C 	C 	0.8927	0.7098	0.65737	0.067
Mof_O 	O 	0.4606	0.1999	0.74466	-0.394
Mof_C 	C 	0.3927	0.2098	0.65737	0.062
Mof_O 	O 	0.4606	0.6999	0.24466	-0.394
Mof_C 	C 	0.3927	0.7098	0.15737	0.061
Mof_O 	O 	0.0394	0.1999	0.75534	-0.4
Mof_C 	C 	0.1073	0.2098	0.84263	0.061
Mof_O 	O 	0.0394	0.6999	0.25534	-0.399
Mof_C 	C 	0.1073	0.7098	0.34263	0.06
Mof_O 	O 	0.5394	0.1999	0.25534	-0.395
Mof_C 	C 	0.6073	0.2098	0.34263	0.062
Mof_O 	O 	0.5394	0.6999	0.75534	-0.393
Mof_C 	C 	0.6073	0.7098	0.84263	0.066
Mof_O 	O 	0.8001	0.75534	0.9606	-0.382
Mof_C 	C 	0.7902	0.84263	0.8927	0.07
Mof_O 	O 	0.8001	0.25534	0.4606	-0.393
Mof_C 	C 	0.7902	0.34263	0.3927	0.064
Mof_O 	O 	0.3001	0.75534	0.4606	-0.393
Mof_C 	C 	0.2902	0.84263	0.3927	0.065
Mof_O 	O 	0.3001	0.25534	0.9606	-0.384
Mof_C 	C 	0.2902	0.34263	0.8927	0.066
Mof_O 	O 	0.8001	0.24466	0.0394	-0.398
Mof_C 	C 	0.7902	0.15737	0.1073	0.058
Mof_O 	O 	0.8001	0.74466	0.5394	-0.392
Mof_C 	C 	0.7902	0.65737	0.6073	0.064
Mof_O 	O 	0.3001	0.24466	0.5394	-0.394
Mof_C 	C 	0.2902	0.15737	0.6073	0.06
Mof_O 	O 	0.3001	0.74466	0.0394	-0.398
Mof_C 	C 	0.2902	0.65737	0.1073	0.059
Mof_O 	O 	0.1999	0.75534	0.0394	-0.4
Mof_C 	C 	0.2098	0.84263	0.1073	0.061
Mof_O 	O 	0.1999	0.25534	0.5394	-0.395
Mof_C 	C 	0.2098	0.34263	0.6073	0.062
Mof_O 	O 	0.6999	0.75534	0.5394	-0.393
Mof_C 	C 	0.7098	0.84263	0.6073	0.066
Mof_O 	O 	0.6999	0.25534	0.0394	-0.399
Mof_C 	C 	0.7098	0.34263	0.1073	0.06
Mof_O 	O 	0.1999	0.24466	0.9606	-0.384
Mof_C 	C 	0.2098	0.15737	0.8927	0.063
Mof_O 	O 	0.1999	0.74466	0.4606	-0.394
Mof_C 	C 	0.2098	0.65737	0.3927	0.062
Mof_O 	O 	0.6999	0.24466	0.4606	-0.394
Mof_C 	C 	0.7098	0.15737	0.3927	0.061
Mof_O 	O 	0.6999	0.74466	0.9606	-0.383
Mof_C 	C 	0.7098	0.65737	0.8927	0.067
Mof_Cu	Cu	-1.81867e-33	0.27616	0.22384	0.917
Mof_Cu	Cu	0.5	0.27616	0.72384	0.927
Mof_Cu	Cu	8.39266e-34	0.72384	0.22384	0.917
Mof_Cu	Cu	0.5	0.72384	0.72384	0.927
Mof_Cu	Cu	0.5	0.22384	0.22384	0.926
Mof_Cu	Cu	-2.40575e-33	0.27616	0.77616	0.918
Mof_Cu	Cu	0.5	0.27616	0.27616	0.927
Mof_Cu	Cu	-2.40575e-33	0.72384	0.77616	0.918
Mof_Cu	Cu	-4.28045e-33	0.22384	0.27616	0.917
Mof_Cu	Cu	0.5	0.72384	0.27616	0.927
Mof_Cu	Cu	0.22384	-2.65794e-33	0.27616	0.917
Mof_Cu	Cu	0.22384	0.5	0.77616	0.927
Mof_Cu	Cu	0.22384	-5.31588e-33	0.72384	0.917
Mof_Cu	Cu	0.22384	0.5	0.22384	0.926
Mof_Cu	Cu	0.77616	-2.65794e-33	0.27616	0.918
Mof_Cu	Cu	0.77616	0.5	0.77616	0.928
Mof_Cu	Cu	0.27616	0.5	0.27616	0.927
Mof_Cu	Cu	0.77616	-5.31588e-33	0.72384	0.918
Mof_Cu	Cu	0.77616	0.5	0.22384	0.927
Mof_Cu	Cu	0.27616	0	0.22384	0.917
Mof_Cu	Cu	0.27616	0.22384	-0	0.917
Mof_Cu	Cu	0.27616	0.72384	0.5	0.927
Mof_Cu	Cu	0.72384	0.22384	-0	0.917
Mof_Cu	Cu	0.72384	0.72384	0.5	0.927
Mof_Cu	Cu	0.22384	0.22384	0.5	0.926
Mof_Cu	Cu	0.27616	0.77616	-0	0.918
Mof_Cu	Cu	0.27616	0.27616	0.5	0.927
Mof_Cu	Cu	0.72384	0.77616	-0	0.918
Mof_Cu	Cu	0.72384	0.27616	0.5	0.927
Mof_Cu	Cu	0.22384	0.27616	-0	0.917
Mof_Cu	Cu	0.27616	0	0.77616	0.918
Mof_Cu	Cu	0.72384	0	0.77616	0.918
Mof_Cu	Cu	0.72384	0.5	0.27616	0.927
Mof_Cu	Cu	0.27616	0.5	0.72384	0.927
Mof_Cu	Cu	0.72384	0	0.22384	0.917
Mof_Cu	Cu	0.72384	0.5	0.72384	0.927
Mof_Cu	Cu	-2.60191e-33	0.22384	0.72384	0.917
Mof_Cu	Cu	0.5	0.22384	0.77616	0.927
Mof_Cu	Cu	-2.60191e-33	0.77616	0.72384	0.918
Mof_Cu	Cu	0.5	0.77616	0.22384	0.927
Mof_Cu	Cu	-1.62251e-33	0.77616	0.27616	0.918
Mof_Cu	Cu	0.5	0.77616	0.77616	0.928
Mof_Cu	Cu	0.22384	0.77616	0.5	0.927
Mof_Cu	Cu	0.22384	0.72384	-0	0.917
Mof_Cu	Cu	0.77616	0.27616	-0	0.918
Mof_Cu	Cu	0.77616	0.77616	0.5	0.928
Mof_Cu	Cu	0.77616	0.72384	-0	0.918
Mof_Cu	Cu	0.77616	0.22384	0.5	0.927
Mof_C 	C 	0.9424	0.2135	0.2135	0.35
Mof_C 	C 	0.908	0.19354	0.19354	-0.117
Mof_C 	C 	0.9424	0.7135	0.7135	0.351
Mof_C 	C 	0.908	0.69354	0.69354	-0.118
Mof_C 	C 	0.4424	0.2135	0.7135	0.352
Mof_C 	C 	0.408	0.19354	0.69354	-0.119
Mof_C 	C 	0.4424	0.7135	0.2135	0.352
Mof_C 	C 	0.408	0.69354	0.19354	-0.119
Mof_C 	C 	0.0576	0.7865	0.2135	0.352
Mof_C 	C 	0.092	0.80646	0.19354	-0.12
Mof_C 	C 	0.0576	0.2865	0.7135	0.352
Mof_C 	C 	0.092	0.30646	0.69354	-0.12
Mof_C 	C 	0.5576	0.7865	0.7135	0.353
Mof_C 	C 	0.592	0.80646	0.69354	-0.12
Mof_C 	C 	0.5576	0.2865	0.2135	0.352
Mof_C 	C 	0.592	0.30646	0.19354	-0.119
Mof_C 	C 	0.0576	0.2135	0.7865	0.352
Mof_C 	C 	0.092	0.19354	0.80646	-0.12
Mof_C 	C 	0.0576	0.7135	0.2865	0.352
Mof_C 	C 	0.092	0.69354	0.30646	-0.12
Mof_C 	C 	0.5576	0.2135	0.2865	0.352
Mof_C 	C 	0.592	0.19354	0.30646	-0.119
Mof_C 	C 	0.5576	0.7135	0.7865	0.353
Mof_C 	C 	0.592	0.69354	0.80646	-0.12
Mof_C 	C 	0.9424	0.7865	0.7865	0.352
Mof_C 	C 	0.908	0.80646	0.80646	-0.119
Mof_C 	C 	0.9424	0.2865	0.2865	0.351
Mof_C 	C 	0.908	0.30646	0.30646	-0.118
Mof_C 	C 	0.4424	0.7865	0.2865	0.353
Mof_C 	C 	0.408	0.80646	0.30646	-0.12
Mof_C 	C 	0.4424	0.2865	0.7865	0.353
Mof_C 	C 	0.408	0.30646	0.80646	-0.12
Mof_C 	C 	0.2135	0.9424	0.2135	0.35
Mof_C 	C 	0.19354	0.908	0.19354	-0.117
Mof_C 	C 	0.2135	0.4424	0.7135	0.352
Mof_C 	C 	0.19354	0.408	0.69354	-0.119
Mof_C 	C 	0.7135	0.9424	0.7135	0.351
Mof_C 	C 	0.69354	0.908	0.69354	-0.118
Mof_C 	C 	0.7135	0.4424	0.2135	0.352
Mof_C 	C 	0.69354	0.408	0.19354	-0.119
Mof_C 	C 	0.2135	0.0576	0.7865	0.352
Mof_C 	C 	0.19354	0.092	0.80646	-0.12
Mof_C 	C 	0.2135	0.5576	0.2865	0.352
Mof_C 	C 	0.19354	0.592	0.30646	-0.119
Mof_C 	C 	0.7135	0.0576	0.2865	0.352
Mof_C 	C 	0.69354	0.092	0.30646	-0.12
Mof_C 	C 	0.7135	0.5576	0.7865	0.353
Mof_C 	C 	0.69354	0.592	0.80646	-0.12
Mof_C 	C 	0.7865	0.0576	0.2135	0.352
Mof_C 	C 	0.80646	0.092	0.19354	-0.12
Mof_C 	C 	0.7865	0.5576	0.7135	0.353
Mof_C 	C 	0.80646	0.592	0.69354	-0.12
Mof_C 	C 	0.2865	0.0576	0.7135	0.352
Mof_C 	C 	0.30646	0.092	0.69354	-0.12
Mof_C 	C 	0.2865	0.5576	0.2135	0.352
Mof_C 	C 	0.30646	0.592	0.19354	-0.119
Mof_C 	C 	0.7865	0.9424	0.7865	0.352
Mof_C 	C 	0.80646	0.908	0.80646	-0.119
Mof_C 	C 	0.7865	0.4424	0.2865	0.353
Mof_C 	C 	0.80646	0.408	0.30646	-0.12
Mof_C 	C 	0.2865	0.9424	0.2865	0.351
Mof_C 	C 	0.30646	0.908	0.30646	-0.118
Mof_C 	C 	0.2865	0.4424	0.7865	0.353
Mof_C 	C 	0.30646	0.408	0.80646	-0.12
Mof_C 	C 	0.2135	0.2135	0.9424	0.35
Mof_C 	C 	0.19354	0.19354	0.908	-0.117
Mof_C 	C 	0.2135	0.7135	0.4424	0.352
Mof_C 	C 	0.19354	0.69354	0.408	-0.119
Mof_C 	C 	0.7135	0.2135	0.4424	0.352
Mof_C 	C 	0.69354	0.19354	0.408	-0.119
Mof_C 	C 	0.7135	0.7135	0.9424	0.351
Mof_C 	C 	0.69354	0.69354	0.908	-0.118
Mof_C 	C 	0.7865	0.2135	0.0576	0.352
Mof_C 	C 	0.80646	0.19354	0.092	-0.12
Mof_C 	C 	0.7865	0.7135	0.5576	0.353
Mof_C 	C 	0.80646	0.69354	0.592	-0.12
Mof_C 	C 	0.2865	0.2135	0.5576	0.352
Mof_C 	C 	0.30646	0.19354	0.592	-0.119
Mof_C 	C 	0.2865	0.7135	0.0576	0.352
Mof_C 	C 	0.30646	0.69354	0.092	-0.12
Mof_C 	C 	0.2135	0.7865	0.0576	0.352
Mof_C 	C 	0.19354	0.80646	0.092	-0.12
Mof_C 	C 	0.2135	0.2865	0.5576	0.352
Mof_C 	C 	0.19354	0.30646	0.592	-0.119
Mof_C 	C 	0.7135	0.7865	0.5576	0.353
Mof_C 	C 	0.69354	0.80646	0.592	-0.12
Mof_C 	C 	0.7135	0.2865	0.0576	0.352
Mof_C 	C 	0.69354	0.30646	0.092	-0.12
Mof_C 	C 	0.7865	0.7865	0.9424	0.352
Mof_C 	C 	0.80646	0.80646	0.908	-0.119
Mof_C 	C 	0.7865	0.2865	0.4424	0.353
Mof_C 	C 	0.80646	0.30646	0.408	-0.12
Mof_C 	C 	0.2865	0.7865	0.4424	0.353
Mof_C 	C 	0.30646	0.80646	0.408	-0.12
Mof_C 	C 	0.2865	0.2865	0.9424	0.351
Mof_C 	C 	0.30646	0.30646	0.908	-0.118
Mof_C 	C 	0.2135	0.9424	0.7865	0.351
Mof_C 	C 	0.19354	0.908	0.80646	-0.118
Mof_C 	C 	0.2135	0.4424	0.2865	0.352
Mof_C 	C 	0.19354	0.408	0.30646	-0.119
Mof_C 	C 	0.7135	0.9424	0.2865	0.351
Mof_C 	C 	0.69354	0.908	0.30646	-0.118
Mof_C 	C 	0.7135	0.4424	0.7865	0.353
Mof_C 	C 	0.69354	0.408	0.80646	-0.12
Mof_C 	C 	0.7865	0.0576	0.7865	0.353
Mof_C 	C 	0.80646	0.092	0.80646	-0.12
Mof_C 	C 	0.7865	0.5576	0.2865	0.353
Mof_C 	C 	0.80646	0.592	0.30646	-0.12
Mof_C 	C 	0.2865	0.0576	0.2865	0.352
Mof_C 	C 	0.30646	0.092	0.30646	-0.12
Mof_C 	C 	0.2865	0.5576	0.7865	0.353
Mof_C 	C 	0.30646	0.592	0.80646	-0.12
Mof_C 	C 	0.2135	0.0576	0.2135	0.351
Mof_C 	C 	0.19354	0.092	0.19354	-0.119
Mof_C 	C 	0.2135	0.5576	0.7135	0.352
Mof_C 	C 	0.19354	0.592	0.69354	-0.119
Mof_C 	C 	0.7135	0.0576	0.7135	0.352
Mof_C 	C 	0.69354	0.092	0.69354	-0.12
Mof_C 	C 	0.7135	0.5576	0.2135	0.352
Mof_C 	C 	0.69354	0.592	0.19354	-0.119
Mof_C 	C 	0.7865	0.9424	0.2135	0.351
Mof_C 	C 	0.80646	0.908	0.19354	-0.118
Mof_C 	C 	0.7865	0.4424	0.7135	0.353
Mof_C 	C 	0.80646	0.408	0.69354	-0.12
Mof_C 	C 	0.2865	0.9424	0.7135	0.351
Mof_C 	C 	0.30646	0.908	0.69354	-0.118
Mof_C 	C 	0.2865	0.4424	0.2135	0.352
Mof_C 	C 	0.30646	0.408	0.19354	-0.119
Mof_C 	C 	0.9424	0.2135	0.7865	0.351
Mof_C 	C 	0.908	0.19354	0.80646	-0.118
Mof_C 	C 	0.9424	0.7135	0.2865	0.351
Mof_C 	C 	0.908	0.69354	0.30646	-0.118
Mof_C 	C 	0.4424	0.2135	0.2865	0.352
Mof_C 	C 	0.408	0.19354	0.30646	-0.119
Mof_C 	C 	0.4424	0.7135	0.7865	0.353
Mof_C 	C 	0.408	0.69354	0.80646	-0.12
Mof_C 	C 	0.0576	0.2135	0.2135	0.351
Mof_C 	C 	0.092	0.19354	0.19354	-0.119
Mof_C 	C 	0.0576	0.7135	0.7135	0.352
Mof_C 	C 	0.092	0.69354	0.69354	-0.12
Mof_C 	C 	0.5576	0.2135	0.7135	0.352
Mof_C 	C 	0.592	0.19354	0.69354	-0.119
Mof_C 	C 	0.5576	0.7135	0.2135	0.352
Mof_C 	C 	0.592	0.69354	0.19354	-0.119
Mof_C 	C 	0.0576	0.7865	0.7865	0.353
Mof_C 	C 	0.092	0.80646	0.80646	-0.12
Mof_C 	C 	0.0576	0.2865	0.2865	0.352
Mof_C 	C 	0.092	0.30646	0.30646	-0.12
Mof_C 	C 	0.5576	0.7865	0.2865	0.353
Mof_C 	C 	0.592	0.80646	0.30646	-0.12
Mof_C 	C 	0.5576	0.2865	0.7865	0.353
Mof_C 	C 	0.592	0.30646	0.80646	-0.12
Mof_C 	C 	0.9424	0.7865	0.2135	0.351
Mof_C 	C 	0.908	0.80646	0.19354	-0.118
Mof_C 	C 	0.9424	0.2865	0.7135	0.351
Mof_C 	C 	0.908	0.30646	0.69354	-0.118
Mof_C 	C 	0.4424	0.7865	0.7135	0.353
Mof_C 	C 	0.408	0.80646	0.69354	-0.12
Mof_C 	C 	0.4424	0.2865	0.2135	0.352
Mof_C 	C 	0.408	0.30646	0.19354	-0.119
Mof_C 	C 	0.2135	0.2135	0.0576	0.351
Mof_C 	C 	0.19354	0.19354	0.092	-0.119
Mof_C 	C 	0.2135	0.7135	0.5576	0.352
Mof_C 	C 	0.19354	0.69354	0.592	-0.119
Mof_C 	C 	0.7135	0.2135	0.5576	0.352
Mof_C 	C 	0.69354	0.19354	0.592	-0.119
Mof_C 	C 	0.7135	0.7135	0.0576	0.352
Mof_C 	C 	0.69354	0.69354	0.092	-0.12
Mof_C 	C 	0.2135	0.7865	0.9424	0.351
Mof_C 	C 	0.19354	0.80646	0.908	-0.118
Mof_C 	C 	0.2135	0.2865	0.4424	0.352
Mof_C 	C 	0.19354	0.30646	0.408	-0.119
Mof_C 	C 	0.7135	0.7865	0.4424	0.353
Mof_C 	C 	0.69354	0.80646	0.408	-0.12
Mof_C 	C 	0.7135	0.2865	0.9424	0.351
Mof_C 	C 	0.69354	0.30646	0.908	-0.118
Mof_C 	C 	0.7865	0.2135	0.9424	0.351
Mof_C 	C 	0.80646	0.19354	0.908	-0.118
Mof_C 	C 	0.7865	0.7135	0.4424	0.353
Mof_C 	C 	0.80646	0.69354	0.408	-0.12
Mof_C 	C 	0.2865	0.2135	0.4424	0.352
Mof_C 	C 	0.30646	0.19354	0.408	-0.119
Mof_C 	C 	0.2865	0.7135	0.9424	0.351
Mof_C 	C 	0.30646	0.69354	0.908	-0.118
Mof_C 	C 	0.7865	0.7865	0.0576	0.353
Mof_C 	C 	0.80646	0.80646	0.092	-0.12
Mof_C 	C 	0.7865	0.2865	0.5576	0.353
Mof_C 	C 	0.80646	0.30646	0.592	-0.12
Mof_C 	C 	0.2865	0.7865	0.5576	0.353
Mof_C 	C 	0.30646	0.80646	0.592	-0.12
Mof_C 	C 	0.2865	0.2865	0.0576	0.352
Mof_C 	C 	0.30646	0.30646	0.092	-0.12
Mof_C 	C 	0.8588	0.1412	0.1922	-0.055
Mof_C 	C 	0.8588	0.6412	0.6922	-0.057
Mof_C 	C 	0.3588	0.1412	0.6922	-0.055
Mof_C 	C 	0.3588	0.6412	0.1922	-0.055
Mof_C 	C 	0.1412	0.8588	0.1922	-0.055
Mof_C 	C 	0.1412	0.3588	0.6922	-0.055
Mof_C 	C 	0.6412	0.8588	0.6922	-0.057
Mof_C 	C 	0.6412	0.3588	0.1922	-0.055
Mof_C 	C 	0.1412	0.1412	0.8078	-0.054
Mof_C 	C 	0.1412	0.6412	0.3078	-0.055
Mof_C 	C 	0.6412	0.1412	0.3078	-0.055
Mof_C 	C 	0.6412	0.6412	0.8078	-0.057
Mof_C 	C 	0.8588	0.8588	0.8078	-0.059
Mof_C 	C 	0.8588	0.3588	0.3078	-0.057
Mof_C 	C 	0.3588	0.8588	0.3078	-0.057
Mof_C 	C 	0.3588	0.3588	0.8078	-0.056
Mof_C 	C 	0.1922	0.8588	0.1412	-0.055
Mof_C 	C 	0.1922	0.3588	0.6412	-0.055
Mof_C 	C 	0.6922	0.8588	0.6412	-0.057
Mof_C 	C 	0.6922	0.3588	0.1412	-0.055
Mof_C 	C 	0.1922	0.1412	0.8588	-0.055
Mof_C 	C 	0.1922	0.6412	0.3588	-0.055
Mof_C 	C 	0.6922	0.1412	0.3588	-0.055
Mof_C 	C 	0.6922	0.6412	0.8588	-0.057
Mof_C 	C 	0.8078	0.1412	0.1412	-0.054
Mof_C 	C 	0.8078	0.6412	0.6412	-0.057
Mof_C 	C 	0.3078	0.1412	0.6412	-0.055
Mof_C 	C 	0.3078	0.6412	0.1412	-0.055
Mof_C 	C 	0.8078	0.8588	0.8588	-0.059
Mof_C 	C 	0.8078	0.3588	0.3588	-0.056
Mof_C 	C 	0.3078	0.8588	0.3588	-0.057
Mof_C 	C 	0.3078	0.3588	0.8588	-0.057
Mof_C 	C 	0.1412	0.1922	0.8588	-0.055
Mof_C 	C 	0.1412	0.6922	0.3588	-0.055
Mof_C 	C 	0.6412	0.1922	0.3588	-0.055
Mof_C 	C 	0.6412	0.6922	0.8588	-0.057
Mof_C 	C 	0.8588	0.1922	0.1412	-0.055
Mof_C 	C 	0.8588	0.6922	0.6412	-0.057
Mof_C 	C 	0.3588	0.1922	0.6412	-0.055
Mof_C 	C 	0.3588	0.6922	0.1412	-0.055
Mof_C 	C 	0.1412	0.8078	0.1412	-0.054
Mof_C 	C 	0.1412	0.3078	0.6412	-0.055
Mof_C 	C 	0.6412	0.8078	0.6412	-0.057
Mof_C 	C 	0.6412	0.3078	0.1412	-0.055
Mof_C 	C 	0.8588	0.8078	0.8588	-0.059
Mof_C 	C 	0.8588	0.3078	0.3588	-0.057
Mof_C 	C 	0.3588	0.8078	0.3588	-0.056
Mof_C 	C 	0.3588	0.3078	0.8588	-0.057
Mof_C 	C 	0.1412	0.8588	0.8078	-0.056
Mof_C 	C 	0.1412	0.3588	0.3078	-0.055
Mof_C 	C 	0.6412	0.8588	0.3078	-0.057
Mof_C 	C 	0.6412	0.3588	0.8078	-0.057
Mof_C 	C 	0.8588	0.1412	0.8078	-0.056
Mof_C 	C 	0.8588	0.6412	0.3078	-0.057
Mof_C 	C 	0.3588	0.1412	0.3078	-0.055
Mof_C 	C 	0.3588	0.6412	0.8078	-0.057
Mof_C 	C 	0.1412	0.1412	0.1922	-0.053
Mof_C 	C 	0.1412	0.6412	0.6922	-0.055
Mof_C 	C 	0.6412	0.1412	0.6922	-0.055
Mof_C 	C 	0.6412	0.6412	0.1922	-0.055
Mof_C 	C 	0.8588	0.8588	0.1922	-0.057
Mof_C 	C 	0.8588	0.3588	0.6922	-0.057
Mof_C 	C 	0.3588	0.8588	0.6922	-0.057
Mof_C 	C 	0.3588	0.3588	0.1922	-0.055
Mof_C 	C 	0.8588	0.1922	0.8588	-0.057
Mof_C 	C 	0.8588	0.6922	0.3588	-0.057
Mof_C 	C 	0.3588	0.1922	0.3588	-0.055
Mof_C 	C 	0.3588	0.6922	0.8588	-0.057
Mof_C 	C 	0.1412	0.1922	0.1412	-0.053
Mof_C 	C 	0.1412	0.6922	0.6412	-0.055
Mof_C 	C 	0.6412	0.1922	0.6412	-0.055
Mof_C 	C 	0.6412	0.6922	0.1412	-0.055
Mof_C 	C 	0.1412	0.8078	0.8588	-0.056
Mof_C 	C 	0.1412	0.3078	0.3588	-0.055
Mof_C 	C 	0.6412	0.8078	0.3588	-0.057
Mof_C 	C 	0.6412	0.3078	0.8588	-0.057
Mof_C 	C 	0.8588	0.8078	0.1412	-0.056
Mof_C 	C 	0.8588	0.3078	0.6412	-0.057
Mof_C 	C 	0.3588	0.8078	0.6412	-0.057
Mof_C 	C 	0.3588	0.3078	0.1412	-0.055
Mof_C 	C 	0.1922	0.1412	0.1412	-0.053
Mof_C 	C 	0.1922	0.6412	0.6412	-0.055
Mof_C 	C 	0.6922	0.1412	0.6412	-0.055
Mof_C 	C 	0.6922	0.6412	0.1412	-0.055
Mof_C 	C 	0.1922	0.8588	0.8588	-0.057
Mof_C 	C 	0.1922	0.3588	0.3588	-0.055
Mof_C 	C 	0.6922	0.8588	0.3588	-0.057
Mof_C 	C 	0.6922	0.3588	0.8588	-0.057
Mof_C 	C 	0.8078	0.1412	0.8588	-0.056
Mof_C 	C 	0.8078	0.6412	0.3588	-0.057
Mof_C 	C 	0.3078	0.1412	0.3588	-0.055
Mof_C 	C 	0.3078	0.6412	0.8588	-0.057
Mof_C 	C 	0.8078	0.8588	0.1412	-0.056
Mof_C 	C 	0.8078	0.3588	0.6412	-0.057
Mof_C 	C 	0.3078	0.8588	0.6412	-0.057
Mof_C 	C 	0.3078	0.3588	0.1412	-0.055
Mof_C 	C 	0.8434	0.1566	0.1566	0.06
Mof_C 	C 	0.8434	0.6566	0.6566	0.064
Mof_C 	C 	0.3434	0.1566	0.6566	0.06
Mof_C 	C 	0.3434	0.6566	0.1566	0.06
Mof_C 	C 	0.1566	0.8434	0.1566	0.06
Mof_C 	C 	0.1566	0.3434	0.6566	0.06
Mof_C 	C 	0.6566	0.8434	0.6566	0.064
Mof_C 	C 	0.6566	0.3434	0.1566	0.06
Mof_C 	C 	0.1566	0.1566	0.8434	0.06
Mof_C 	C 	0.1566	0.6566	0.3434	0.06
Mof_C 	C 	0.6566	0.1566	0.3434	0.06
Mof_C 	C 	0.6566	0.6566	0.8434	0.064
Mof_C 	C 	0.8434	0.8434	0.8434	0.067
Mof_C 	C 	0.8434	0.3434	0.3434	0.063
Mof_C 	C 	0.3434	0.8434	0.3434	0.063
Mof_C 	C 	0.3434	0.3434	0.8434	0.063
Mof_C 	C 	0.1566	0.8434	0.8434	0.063
Mof_C 	C 	0.1566	0.3434	0.3434	0.059
Mof_C 	C 	0.6566	0.8434	0.3434	0.063
Mof_C 	C 	0.6566	0.3434	0.8434	0.063
Mof_C 	C 	0.8434	0.1566	0.8434	0.063
Mof_C 	C 	0.8434	0.6566	0.3434	0.063
Mof_C 	C 	0.3434	0.1566	0.3434	0.059
Mof_C 	C 	0.3434	0.6566	0.8434	0.063
Mof_C 	C 	0.1566	0.1566	0.1566	0.056
Mof_C 	C 	0.1566	0.6566	0.6566	0.06
Mof_C 	C 	0.6566	0.1566	0.6566	0.06
Mof_C 	C 	0.6566	0.6566	0.1566	0.06
Mof_C 	C 	0.8434	0.8434	0.1566	0.063
Mof_C 	C 	0.8434	0.3434	0.6566	0.063
Mof_C 	C 	0.3434	0.8434	0.6566	0.063
Mof_C 	C 	0.3434	0.3434	0.1566	0.059
_end
