data_functionalizedCrystal
_audit_creation_method	'EQeq! by Chris Wilmer'
_symmetry_space_group_name_H-M	'P1'
_symmetry_Int_Tables_number	1
_symmetry_cell_setting	triclinic
loop_
_symmetry_equiv_pos_as_xyz
  x,y,z
_cell_length_a	34.376
_cell_length_b	15.0832
_cell_length_c	29.6413
_cell_angle_alpha	90
_cell_angle_beta	100.675
_cell_angle_gamma	90
loop_
_atom_site_label
_atom_site_type_symbol
_atom_site_fract_x
_atom_site_fract_y
_atom_site_fract_z
_atom_site_charge
Mof_Zn	Zn	0.32989	0.3664	0.72877	0.645
Mof_I 	I 	0.37474	0.34703	0.80671	-0.541
Mof_I 	I 	0.26932	0.2726	0.70108	0.156
Mof_I 	I 	0.62	0.73986	0.57062	-0.236
Mof_I 	I 	0.66018	0.55467	0.46695	-0.201
Mof_Zn	Zn	0.63506	0.5931	0.53942	1.161
Mof_Zn	Zn	0.42015	0.87266	0.40726	1.165
Mof_I 	I 	0.38349	0.76154	0.44756	-0.375
Mof_I 	I 	0.47317	0.84334	0.36056	-0.353
Mof_N 	N 	0.3617	0.3516	0.6767	-0.303
Mof_C 	C 	0.3945	0.3965	0.679	0.096
Mof_H 	H 	0.4003	0.4418	0.7015	-0.027
Mof_C 	C 	0.4209	0.3812	0.6505	-0.132
Mof_H 	H 	0.4445	0.4151	0.654	0.088
Mof_C 	C 	0.4134	0.3173	0.6169	0.065
Mof_C 	C 	0.3784	0.271	0.6138	-0.117
Mof_H 	H 	0.3718	0.2262	0.5911	0.077
Mof_C 	C 	0.3531	0.2898	0.6437	0.064
Mof_H 	H 	0.3289	0.2581	0.6409	-0.02
Mof_N 	N 	0.58576	0.5131	0.5408	-0.274
Mof_C 	C 	0.5724	0.5029	0.58	0.086
Mof_H 	H 	0.5854	0.5343	0.6063	-0.016
Mof_C 	C 	0.5413	0.4504	0.5845	-0.131
Mof_H 	H 	0.5323	0.4469	0.6128	0.091
Mof_C 	C 	0.52315	0.4018	0.5466	0.061
Mof_C 	C 	0.53715	0.4103	0.5067	-0.128
Mof_H 	H 	0.5256	0.377	0.4804	0.082
Mof_C 	C 	0.56807	0.4673	0.5048	0.085
Mof_H 	H 	0.577	0.474	0.4765	-0.012
Mof_N 	N 	0.44073	0.9732	0.45372	-0.269
Mof_C 	C 	0.42126	0.9891	0.4876	0.068
Mof_H 	H 	0.4026	0.9465	0.4939	-0.012
Mof_C 	C 	0.42686	0.0638	0.5138	-0.115
Mof_H 	H 	0.4124	0.0725	0.5378	0.081
Mof_C 	C 	0.45398	0.1275	0.50516	0.05
Mof_C 	C 	0.47553	0.109	0.471	-0.115
Mof_H 	H 	0.4951	0.1494	0.4649	0.073
Mof_C 	C 	0.46835	0.0319	0.4461	0.065
Mof_H 	H 	0.4833	0.0196	0.4229	-0.006
Mof_C 	C 	0.43973	0.2999	0.5846	0.088
Mof_N 	N 	0.46853	0.359	0.58158	-0.136
Mof_C 	C 	0.49044	0.3398	0.5508	0.087
Mof_N 	N 	0.48712	0.2682	0.52366	-0.148
Mof_C 	C 	0.45842	0.212	0.53139	0.09
Mof_N 	N 	0.4341	0.2247	0.56029	-0.138
Mof_N 	N 	0.67533	0.533	0.5906	-0.27
Mof_C 	C 	0.6997	0.5797	0.6225	0.061
Mof_H 	H 	0.6974	0.6425	0.6226	0.005
Mof_C 	C 	0.7278	0.5395	0.6551	-0.114
Mof_H 	H 	0.7448	0.5741	0.6773	0.084
Mof_C 	C 	0.73111	0.4481	0.6553	0.043
Mof_C 	C 	0.706	0.4002	0.6225	-0.115
Mof_H 	H 	0.7075	0.3373	0.6219	0.082
Mof_C 	C 	0.6786	0.4451	0.5907	0.068
Mof_H 	H 	0.6614	0.4119	0.568	0.002
Mof_N 	N 	0.87716	0.5533	0.86378	-0.266
Mof_C 	C 	0.84999	0.5955	0.833	0.06
Mof_H 	H 	0.8471	0.6578	0.8358	-0.016
Mof_C 	C 	0.82605	0.5518	0.7973	-0.119
Mof_H 	H 	0.8074	0.5836	0.7756	0.066
Mof_C 	C 	0.82983	0.4605	0.7939	0.057
Mof_C 	C 	0.85562	0.4165	0.8275	-0.119
Mof_H 	H 	0.8577	0.3537	0.8272	0.092
Mof_C 	C 	0.8784	0.4658	0.8619	0.075
Mof_H 	H 	0.8959	0.4353	0.8854	-0.002
Mof_N 	N 	0.8125	0.0007	0.7205	-0.297
Mof_C 	C 	0.8306	0.0531	0.7538	0.067
Mof_H 	H 	0.8484	0.0274	0.7787	-0.016
Mof_C 	C 	0.8247	0.1444	0.7535	-0.124
Mof_H 	H 	0.8379	0.1801	0.7781	0.087
Mof_C 	C 	0.79972	0.1818	0.7175	0.063
Mof_C 	C 	0.7813	0.1284	0.6826	-0.133
Mof_H 	H 	0.7637	0.1525	0.6571	0.084
Mof_C 	C 	0.7891	0.038	0.6856	0.083
Mof_H 	H 	0.7768	0.0012	0.661	-0.02
Mof_C 	C 	0.76049	0.4023	0.6906	0.081
Mof_N 	N 	0.77979	0.4529	0.72503	-0.145
Mof_C 	C 	0.80715	0.41	0.7548	0.098
Mof_N 	N 	0.81582	0.3239	0.75197	-0.133
Mof_C 	C 	0.79361	0.2798	0.7176	0.096
Mof_N 	N 	0.76591	0.3156	0.68563	-0.144
Mof_Zn	Zn	0.319	0.3656	0.7165	0.655
Mof_I 	I 	0.3612	0.3319	0.7948	0.125
Mof_I 	I 	0.2561	0.2857	0.6834	-0.565
Mof_I 	I 	0.6237	0.7388	0.5632	-0.122
Mof_I 	I 	0.6568	0.5648	0.4665	-0.139
Mof_Zn	Zn	0.82989	0.8664	0.72877	0.646
Mof_I 	I 	0.87474	0.84703	0.80671	-0.54
Mof_I 	I 	0.76932	0.7726	0.70108	0.157
Mof_I 	I 	0.12	0.23986	0.57062	-0.235
Mof_I 	I 	0.16018	0.05467	0.46695	-0.2
Mof_Zn	Zn	0.13506	0.0931	0.53942	1.162
Mof_Zn	Zn	0.92015	0.37266	0.40726	1.165
Mof_I 	I 	0.88349	0.26154	0.44756	-0.375
Mof_I 	I 	0.97317	0.34334	0.36056	-0.353
Mof_N 	N 	0.8617	0.8516	0.6767	-0.303
Mof_C 	C 	0.8945	0.8965	0.679	0.096
Mof_H 	H 	0.9003	0.9418	0.7015	-0.027
Mof_C 	C 	0.9209	0.8812	0.6505	-0.132
Mof_H 	H 	0.9445	0.9151	0.654	0.088
Mof_C 	C 	0.9134	0.8173	0.6169	0.064
Mof_C 	C 	0.8784	0.771	0.6138	-0.117
Mof_H 	H 	0.8718	0.7262	0.5911	0.077
Mof_C 	C 	0.8531	0.7898	0.6437	0.064
Mof_H 	H 	0.8289	0.7581	0.6409	-0.02
Mof_N 	N 	0.08576	0.0131	0.5408	-0.274
Mof_C 	C 	0.0724	0.0029	0.58	0.086
Mof_H 	H 	0.0854	0.0343	0.6063	-0.016
Mof_C 	C 	0.0413	0.9504	0.5845	-0.131
Mof_H 	H 	0.0323	0.9469	0.6128	0.091
Mof_C 	C 	0.02315	0.9018	0.5466	0.061
Mof_C 	C 	0.03715	0.9103	0.5067	-0.128
Mof_H 	H 	0.0256	0.877	0.4804	0.082
Mof_C 	C 	0.06807	0.9673	0.5048	0.085
Mof_H 	H 	0.077	0.974	0.4765	-0.012
Mof_N 	N 	0.94073	0.4732	0.45372	-0.269
Mof_C 	C 	0.92126	0.4891	0.4876	0.068
Mof_H 	H 	0.9026	0.4465	0.4939	-0.012
Mof_C 	C 	0.92686	0.5638	0.5138	-0.115
Mof_H 	H 	0.9124	0.5725	0.5378	0.081
Mof_C 	C 	0.95398	0.6275	0.50516	0.05
Mof_C 	C 	0.97553	0.609	0.471	-0.115
Mof_H 	H 	0.9951	0.6494	0.4649	0.073
Mof_C 	C 	0.96835	0.5319	0.4461	0.066
Mof_H 	H 	0.9833	0.5196	0.4229	-0.006
Mof_C 	C 	0.93973	0.7999	0.5846	0.088
Mof_N 	N 	0.96853	0.859	0.58158	-0.136
Mof_C 	C 	0.99044	0.8398	0.5508	0.087
Mof_N 	N 	0.98712	0.7682	0.52366	-0.148
Mof_C 	C 	0.95842	0.712	0.53139	0.09
Mof_N 	N 	0.9341	0.7247	0.56029	-0.138
Mof_N 	N 	0.17533	0.033	0.5906	-0.27
Mof_C 	C 	0.1997	0.0797	0.6225	0.06
Mof_H 	H 	0.1974	0.1425	0.6226	0.005
Mof_C 	C 	0.2278	0.0395	0.6551	-0.114
Mof_H 	H 	0.2448	0.0741	0.6773	0.083
Mof_C 	C 	0.23111	0.9481	0.6553	0.043
Mof_C 	C 	0.206	0.9002	0.6225	-0.115
Mof_H 	H 	0.2075	0.8373	0.6219	0.082
Mof_C 	C 	0.1786	0.9451	0.5907	0.068
Mof_H 	H 	0.1614	0.9119	0.568	0.002
Mof_N 	N 	0.37716	0.0533	0.86378	-0.266
Mof_C 	C 	0.34999	0.0955	0.833	0.06
Mof_H 	H 	0.3471	0.1578	0.8358	-0.016
Mof_C 	C 	0.32605	0.0518	0.7973	-0.119
Mof_H 	H 	0.3074	0.0836	0.7756	0.066
Mof_C 	C 	0.32983	0.9605	0.7939	0.057
Mof_C 	C 	0.35562	0.9165	0.8275	-0.119
Mof_H 	H 	0.3577	0.8537	0.8272	0.092
Mof_C 	C 	0.3784	0.9658	0.8619	0.075
Mof_H 	H 	0.3959	0.9353	0.8854	-0.001
Mof_N 	N 	0.3125	0.5007	0.7205	-0.297
Mof_C 	C 	0.3306	0.5531	0.7538	0.067
Mof_H 	H 	0.3484	0.5274	0.7787	-0.016
Mof_C 	C 	0.3247	0.6444	0.7535	-0.124
Mof_H 	H 	0.3379	0.6801	0.7781	0.087
Mof_C 	C 	0.29972	0.6818	0.7175	0.063
Mof_C 	C 	0.2813	0.6284	0.6826	-0.133
Mof_H 	H 	0.2637	0.6525	0.6571	0.084
Mof_C 	C 	0.2891	0.538	0.6856	0.083
Mof_H 	H 	0.2768	0.5012	0.661	-0.02
Mof_C 	C 	0.26049	0.9023	0.6906	0.081
Mof_N 	N 	0.27979	0.9529	0.72503	-0.145
Mof_C 	C 	0.30715	0.91	0.7548	0.099
Mof_N 	N 	0.31582	0.8239	0.75197	-0.133
Mof_C 	C 	0.29361	0.7798	0.7176	0.096
Mof_N 	N 	0.26591	0.8156	0.68563	-0.144
Mof_Zn	Zn	0.819	0.8656	0.7165	0.655
Mof_I 	I 	0.8612	0.8319	0.7948	0.125
Mof_I 	I 	0.7561	0.7857	0.6834	-0.565
Mof_I 	I 	0.1237	0.2388	0.5632	-0.122
Mof_I 	I 	0.1568	0.0648	0.4665	-0.139
Mof_Zn	Zn	0.32989	0.6336	0.22877	0.646
Mof_I 	I 	0.37474	0.65297	0.30671	-0.54
Mof_I 	I 	0.26932	0.7274	0.20108	0.157
Mof_I 	I 	0.62	0.26014	0.07062	-0.235
Mof_I 	I 	0.66018	0.44533	0.96695	-0.2
Mof_Zn	Zn	0.63506	0.4069	0.03942	1.162
Mof_Zn	Zn	0.42015	0.12734	0.90726	1.165
Mof_I 	I 	0.38349	0.23846	0.94756	-0.375
Mof_I 	I 	0.47317	0.15666	0.86056	-0.353
Mof_N 	N 	0.3617	0.6484	0.1767	-0.303
Mof_C 	C 	0.3945	0.6035	0.179	0.096
Mof_H 	H 	0.4003	0.5582	0.2015	-0.027
Mof_C 	C 	0.4209	0.6188	0.1505	-0.132
Mof_H 	H 	0.4445	0.5849	0.154	0.088
Mof_C 	C 	0.4134	0.6827	0.1169	0.065
Mof_C 	C 	0.3784	0.729	0.1138	-0.117
Mof_H 	H 	0.3718	0.7738	0.0911	0.077
Mof_C 	C 	0.3531	0.7102	0.1437	0.064
Mof_H 	H 	0.3289	0.7419	0.1409	-0.02
Mof_N 	N 	0.58576	0.4869	0.0408	-0.274
Mof_C 	C 	0.5724	0.4971	0.08	0.086
Mof_H 	H 	0.5854	0.4657	0.1063	-0.016
Mof_C 	C 	0.5413	0.5496	0.0845	-0.131
Mof_H 	H 	0.5323	0.5531	0.1128	0.091
Mof_C 	C 	0.52315	0.5982	0.0466	0.061
Mof_C 	C 	0.53715	0.5897	0.0067	-0.128
Mof_H 	H 	0.5256	0.623	0.9804	0.082
Mof_C 	C 	0.56807	0.5327	0.0048	0.085
Mof_H 	H 	0.577	0.526	0.9765	-0.012
Mof_N 	N 	0.44073	0.0268	0.95372	-0.269
Mof_C 	C 	0.42126	0.0109	0.9876	0.068
Mof_H 	H 	0.4026	0.0535	0.9939	-0.012
Mof_C 	C 	0.42686	0.9362	0.0138	-0.115
Mof_H 	H 	0.4124	0.9275	0.0378	0.081
Mof_C 	C 	0.45398	0.8725	0.00516	0.05
Mof_C 	C 	0.47553	0.891	0.971	-0.115
Mof_H 	H 	0.4951	0.8506	0.9649	0.073
Mof_C 	C 	0.46835	0.9681	0.9461	0.066
Mof_H 	H 	0.4833	0.9804	0.9229	-0.006
Mof_C 	C 	0.43973	0.7001	0.0846	0.088
Mof_N 	N 	0.46853	0.641	0.08158	-0.136
Mof_C 	C 	0.49044	0.6602	0.0508	0.087
Mof_N 	N 	0.48712	0.7318	0.02366	-0.148
Mof_C 	C 	0.45842	0.788	0.03139	0.09
Mof_N 	N 	0.4341	0.7753	0.06029	-0.138
Mof_N 	N 	0.67533	0.467	0.0906	-0.27
Mof_C 	C 	0.6997	0.4203	0.1225	0.061
Mof_H 	H 	0.6974	0.3575	0.1226	0.005
Mof_C 	C 	0.7278	0.4605	0.1551	-0.114
Mof_H 	H 	0.7448	0.4259	0.1773	0.084
Mof_C 	C 	0.73111	0.5519	0.1553	0.043
Mof_C 	C 	0.706	0.5998	0.1225	-0.115
Mof_H 	H 	0.7075	0.6627	0.1219	0.082
Mof_C 	C 	0.6786	0.5549	0.0907	0.068
Mof_H 	H 	0.6614	0.5881	0.068	0.002
Mof_N 	N 	0.87716	0.4467	0.36378	-0.266
Mof_C 	C 	0.84999	0.4045	0.333	0.06
Mof_H 	H 	0.8471	0.3422	0.3358	-0.016
Mof_C 	C 	0.82605	0.4482	0.2973	-0.119
Mof_H 	H 	0.8074	0.4164	0.2756	0.066
Mof_C 	C 	0.82983	0.5395	0.2939	0.057
Mof_C 	C 	0.85562	0.5835	0.3275	-0.119
Mof_H 	H 	0.8577	0.6463	0.3272	0.092
Mof_C 	C 	0.8784	0.5342	0.3619	0.075
Mof_H 	H 	0.8959	0.5647	0.3854	-0.002
Mof_N 	N 	0.8125	0.9993	0.2205	-0.297
Mof_C 	C 	0.8306	0.9469	0.2538	0.067
Mof_H 	H 	0.8484	0.9726	0.2787	-0.016
Mof_C 	C 	0.8247	0.8556	0.2535	-0.124
Mof_H 	H 	0.8379	0.8199	0.2781	0.087
Mof_C 	C 	0.79972	0.8182	0.2175	0.063
Mof_C 	C 	0.7813	0.8716	0.1826	-0.133
Mof_H 	H 	0.7637	0.8475	0.1571	0.084
Mof_C 	C 	0.7891	0.962	0.1856	0.083
Mof_H 	H 	0.7768	0.9988	0.161	-0.02
Mof_C 	C 	0.76049	0.5977	0.1906	0.081
Mof_N 	N 	0.77979	0.5471	0.22503	-0.145
Mof_C 	C 	0.80715	0.59	0.2548	0.098
Mof_N 	N 	0.81582	0.6761	0.25197	-0.133
Mof_C 	C 	0.79361	0.7202	0.2176	0.096
Mof_N 	N 	0.76591	0.6844	0.18563	-0.144
Mof_Zn	Zn	0.319	0.6344	0.2165	0.655
Mof_I 	I 	0.3612	0.6681	0.2948	0.125
Mof_I 	I 	0.2561	0.7143	0.1834	-0.565
Mof_I 	I 	0.6237	0.2612	0.0632	-0.122
Mof_I 	I 	0.6568	0.4352	0.9665	-0.139
Mof_Zn	Zn	0.82989	0.1336	0.22877	0.646
Mof_I 	I 	0.87474	0.15297	0.30671	-0.54
Mof_I 	I 	0.76932	0.2274	0.20108	0.157
Mof_I 	I 	0.12	0.76014	0.07062	-0.235
Mof_I 	I 	0.16018	0.94533	0.96695	-0.2
Mof_Zn	Zn	0.13506	0.9069	0.03942	1.162
Mof_Zn	Zn	0.92015	0.62734	0.90726	1.165
Mof_I 	I 	0.88349	0.73846	0.94756	-0.375
Mof_I 	I 	0.97317	0.65666	0.86056	-0.353
Mof_N 	N 	0.8617	0.1484	0.1767	-0.303
Mof_C 	C 	0.8945	0.1035	0.179	0.096
Mof_H 	H 	0.9003	0.0582	0.2015	-0.027
Mof_C 	C 	0.9209	0.1188	0.1505	-0.132
Mof_H 	H 	0.9445	0.0849	0.154	0.088
Mof_C 	C 	0.9134	0.1827	0.1169	0.065
Mof_C 	C 	0.8784	0.229	0.1138	-0.117
Mof_H 	H 	0.8718	0.2738	0.0911	0.077
Mof_C 	C 	0.8531	0.2102	0.1437	0.064
Mof_H 	H 	0.8289	0.2419	0.1409	-0.02
Mof_N 	N 	0.08576	0.9869	0.0408	-0.274
Mof_C 	C 	0.0724	0.9971	0.08	0.086
Mof_H 	H 	0.0854	0.9657	0.1063	-0.016
Mof_C 	C 	0.0413	0.0496	0.0845	-0.131
Mof_H 	H 	0.0323	0.0531	0.1128	0.091
Mof_C 	C 	0.02315	0.0982	0.0466	0.061
Mof_C 	C 	0.03715	0.0897	0.0067	-0.128
Mof_H 	H 	0.0256	0.123	0.9804	0.082
Mof_C 	C 	0.06807	0.0327	0.0048	0.085
Mof_H 	H 	0.077	0.026	0.9765	-0.012
Mof_N 	N 	0.94073	0.5268	0.95372	-0.269
Mof_C 	C 	0.92126	0.5109	0.9876	0.068
Mof_H 	H 	0.9026	0.5535	0.9939	-0.012
Mof_C 	C 	0.92686	0.4362	0.0138	-0.115
Mof_H 	H 	0.9124	0.4275	0.0378	0.081
Mof_C 	C 	0.95398	0.3725	0.00516	0.05
Mof_C 	C 	0.97553	0.391	0.971	-0.115
Mof_H 	H 	0.9951	0.3506	0.9649	0.073
Mof_C 	C 	0.96835	0.4681	0.9461	0.066
Mof_H 	H 	0.9833	0.4804	0.9229	-0.006
Mof_C 	C 	0.93973	0.2001	0.0846	0.088
Mof_N 	N 	0.96853	0.141	0.08158	-0.136
Mof_C 	C 	0.99044	0.1602	0.0508	0.087
Mof_N 	N 	0.98712	0.2318	0.02366	-0.147
Mof_C 	C 	0.95842	0.288	0.03139	0.09
Mof_N 	N 	0.9341	0.2753	0.06029	-0.138
Mof_N 	N 	0.17533	0.967	0.0906	-0.27
Mof_C 	C 	0.1997	0.9203	0.1225	0.06
Mof_H 	H 	0.1974	0.8575	0.1226	0.005
Mof_C 	C 	0.2278	0.9605	0.1551	-0.114
Mof_H 	H 	0.2448	0.9259	0.1773	0.083
Mof_C 	C 	0.23111	0.0519	0.1553	0.043
Mof_C 	C 	0.206	0.0998	0.1225	-0.115
Mof_H 	H 	0.2075	0.1627	0.1219	0.082
Mof_C 	C 	0.1786	0.0549	0.0907	0.068
Mof_H 	H 	0.1614	0.0881	0.068	0.002
Mof_N 	N 	0.37716	0.9467	0.36378	-0.266
Mof_C 	C 	0.34999	0.9045	0.333	0.06
Mof_H 	H 	0.3471	0.8422	0.3358	-0.016
Mof_C 	C 	0.32605	0.9482	0.2973	-0.119
Mof_H 	H 	0.3074	0.9164	0.2756	0.066
Mof_C 	C 	0.32983	0.0395	0.2939	0.057
Mof_C 	C 	0.35562	0.0835	0.3275	-0.119
Mof_H 	H 	0.3577	0.1463	0.3272	0.092
Mof_C 	C 	0.3784	0.0342	0.3619	0.075
Mof_H 	H 	0.3959	0.0647	0.3854	-0.001
Mof_N 	N 	0.3125	0.4993	0.2205	-0.297
Mof_C 	C 	0.3306	0.4469	0.2538	0.067
Mof_H 	H 	0.3484	0.4726	0.2787	-0.016
Mof_C 	C 	0.3247	0.3556	0.2535	-0.124
Mof_H 	H 	0.3379	0.3199	0.2781	0.087
Mof_C 	C 	0.29972	0.3182	0.2175	0.063
Mof_C 	C 	0.2813	0.3716	0.1826	-0.133
Mof_H 	H 	0.2637	0.3475	0.1571	0.084
Mof_C 	C 	0.2891	0.462	0.1856	0.083
Mof_H 	H 	0.2768	0.4988	0.161	-0.02
Mof_C 	C 	0.26049	0.0977	0.1906	0.081
Mof_N 	N 	0.27979	0.0471	0.22503	-0.145
Mof_C 	C 	0.30715	0.09	0.2548	0.099
Mof_N 	N 	0.31582	0.1761	0.25197	-0.133
Mof_C 	C 	0.29361	0.2202	0.2176	0.096
Mof_N 	N 	0.26591	0.1844	0.18563	-0.144
Mof_Zn	Zn	0.819	0.1344	0.2165	0.655
Mof_I 	I 	0.8612	0.1681	0.2948	0.125
Mof_I 	I 	0.7561	0.2143	0.1834	-0.565
Mof_I 	I 	0.1237	0.7612	0.0632	-0.122
Mof_I 	I 	0.1568	0.9352	0.9665	-0.139
Mof_Zn	Zn	0.67011	0.3664	0.77123	0.646
Mof_I 	I 	0.62526	0.34703	0.69329	-0.54
Mof_I 	I 	0.73068	0.2726	0.79892	0.157
Mof_I 	I 	0.38	0.73986	0.92938	-0.235
Mof_I 	I 	0.33982	0.55467	0.03305	-0.2
Mof_Zn	Zn	0.36494	0.5931	0.96058	1.162
Mof_Zn	Zn	0.57985	0.87266	0.09274	1.165
Mof_I 	I 	0.61651	0.76154	0.05244	-0.375
Mof_I 	I 	0.52683	0.84334	0.13944	-0.353
Mof_N 	N 	0.6383	0.3516	0.8233	-0.303
Mof_C 	C 	0.6055	0.3965	0.821	0.096
Mof_H 	H 	0.5997	0.4418	0.7985	-0.027
Mof_C 	C 	0.5791	0.3812	0.8495	-0.132
Mof_H 	H 	0.5555	0.4151	0.846	0.088
Mof_C 	C 	0.5866	0.3173	0.8831	0.065
Mof_C 	C 	0.6216	0.271	0.8862	-0.117
Mof_H 	H 	0.6282	0.2262	0.9089	0.077
Mof_C 	C 	0.6469	0.2898	0.8563	0.064
Mof_H 	H 	0.6711	0.2581	0.8591	-0.02
Mof_N 	N 	0.41424	0.5131	0.9592	-0.274
Mof_C 	C 	0.4276	0.5029	0.92	0.086
Mof_H 	H 	0.4146	0.5343	0.8937	-0.016
Mof_C 	C 	0.4587	0.4504	0.9155	-0.131
Mof_H 	H 	0.4677	0.4469	0.8872	0.091
Mof_C 	C 	0.47685	0.4018	0.9534	0.061
Mof_C 	C 	0.46285	0.4103	0.9933	-0.128
Mof_H 	H 	0.4744	0.377	0.0196	0.082
Mof_C 	C 	0.43193	0.4673	0.9952	0.085
Mof_H 	H 	0.423	0.474	0.0235	-0.012
Mof_N 	N 	0.55927	0.9732	0.04628	-0.269
Mof_C 	C 	0.57874	0.9891	0.0124	0.068
Mof_H 	H 	0.5974	0.9465	0.0061	-0.012
Mof_C 	C 	0.57314	0.0638	0.9862	-0.115
Mof_H 	H 	0.5876	0.0725	0.9622	0.081
Mof_C 	C 	0.54602	0.1275	0.99484	0.05
Mof_C 	C 	0.52447	0.109	0.029	-0.115
Mof_H 	H 	0.5049	0.1494	0.0351	0.073
Mof_C 	C 	0.53165	0.0319	0.0539	0.066
Mof_H 	H 	0.5167	0.0196	0.0771	-0.006
Mof_C 	C 	0.56027	0.2999	0.9154	0.088
Mof_N 	N 	0.53147	0.359	0.91842	-0.136
Mof_C 	C 	0.50956	0.3398	0.9492	0.087
Mof_N 	N 	0.51288	0.2682	0.97634	-0.148
Mof_C 	C 	0.54158	0.212	0.96861	0.09
Mof_N 	N 	0.5659	0.2247	0.93971	-0.138
Mof_N 	N 	0.32467	0.533	0.9094	-0.27
Mof_C 	C 	0.3003	0.5797	0.8775	0.061
Mof_H 	H 	0.3026	0.6425	0.8774	0.005
Mof_C 	C 	0.2722	0.5395	0.8449	-0.114
Mof_H 	H 	0.2552	0.5741	0.8227	0.084
Mof_C 	C 	0.26889	0.4481	0.8447	0.043
Mof_C 	C 	0.294	0.4002	0.8775	-0.115
Mof_H 	H 	0.2925	0.3373	0.8781	0.082
Mof_C 	C 	0.3214	0.4451	0.9093	0.068
Mof_H 	H 	0.3386	0.4119	0.932	0.002
Mof_N 	N 	0.12284	0.5533	0.63622	-0.266
Mof_C 	C 	0.15001	0.5955	0.667	0.06
Mof_H 	H 	0.1529	0.6578	0.6642	-0.016
Mof_C 	C 	0.17395	0.5518	0.7027	-0.119
Mof_H 	H 	0.1926	0.5836	0.7244	0.066
Mof_C 	C 	0.17017	0.4605	0.7061	0.057
Mof_C 	C 	0.14438	0.4165	0.6725	-0.119
Mof_H 	H 	0.1423	0.3537	0.6728	0.092
Mof_C 	C 	0.1216	0.4658	0.6381	0.075
Mof_H 	H 	0.1041	0.4353	0.6146	-0.002
Mof_N 	N 	0.1875	0.0007	0.7795	-0.297
Mof_C 	C 	0.1694	0.0531	0.7462	0.067
Mof_H 	H 	0.1516	0.0274	0.7213	-0.016
Mof_C 	C 	0.1753	0.1444	0.7465	-0.124
Mof_H 	H 	0.1621	0.1801	0.7219	0.087
Mof_C 	C 	0.20028	0.1818	0.7825	0.063
Mof_C 	C 	0.2187	0.1284	0.8174	-0.133
Mof_H 	H 	0.2363	0.1525	0.8429	0.084
Mof_C 	C 	0.2109	0.038	0.8144	0.083
Mof_H 	H 	0.2232	0.0012	0.839	-0.02
Mof_C 	C 	0.23951	0.4023	0.8094	0.081
Mof_N 	N 	0.22021	0.4529	0.77497	-0.145
Mof_C 	C 	0.19285	0.41	0.7452	0.098
Mof_N 	N 	0.18418	0.3239	0.74803	-0.133
Mof_C 	C 	0.20639	0.2798	0.7824	0.096
Mof_N 	N 	0.23409	0.3156	0.81437	-0.144
Mof_Zn	Zn	0.681	0.3656	0.7835	0.655
Mof_I 	I 	0.6388	0.3319	0.7052	0.125
Mof_I 	I 	0.7439	0.2857	0.8166	-0.565
Mof_I 	I 	0.3763	0.7388	0.9368	-0.122
Mof_I 	I 	0.3432	0.5648	0.0335	-0.139
Mof_Zn	Zn	0.17011	0.8664	0.77123	0.646
Mof_I 	I 	0.12526	0.84703	0.69329	-0.54
Mof_I 	I 	0.23068	0.7726	0.79892	0.157
Mof_I 	I 	0.88	0.23986	0.92938	-0.235
Mof_I 	I 	0.83982	0.05467	0.03305	-0.2
Mof_Zn	Zn	0.86494	0.0931	0.96058	1.162
Mof_Zn	Zn	0.07985	0.37266	0.09274	1.165
Mof_I 	I 	0.11651	0.26154	0.05244	-0.375
Mof_I 	I 	0.02683	0.34334	0.13944	-0.353
Mof_N 	N 	0.1383	0.8516	0.8233	-0.303
Mof_C 	C 	0.1055	0.8965	0.821	0.096
Mof_H 	H 	0.0997	0.9418	0.7985	-0.027
Mof_C 	C 	0.0791	0.8812	0.8495	-0.132
Mof_H 	H 	0.0555	0.9151	0.846	0.088
Mof_C 	C 	0.0866	0.8173	0.8831	0.065
Mof_C 	C 	0.1216	0.771	0.8862	-0.117
Mof_H 	H 	0.1282	0.7262	0.9089	0.077
Mof_C 	C 	0.1469	0.7898	0.8563	0.064
Mof_H 	H 	0.1711	0.7581	0.8591	-0.02
Mof_N 	N 	0.91424	0.0131	0.9592	-0.274
Mof_C 	C 	0.9276	0.0029	0.92	0.086
Mof_H 	H 	0.9146	0.0343	0.8937	-0.016
Mof_C 	C 	0.9587	0.9504	0.9155	-0.131
Mof_H 	H 	0.9677	0.9469	0.8872	0.091
Mof_C 	C 	0.97685	0.9018	0.9534	0.061
Mof_C 	C 	0.96285	0.9103	0.9933	-0.128
Mof_H 	H 	0.9744	0.877	0.0196	0.082
Mof_C 	C 	0.93193	0.9673	0.9952	0.085
Mof_H 	H 	0.923	0.974	0.0235	-0.012
Mof_N 	N 	0.05927	0.4732	0.04628	-0.269
Mof_C 	C 	0.07874	0.4891	0.0124	0.068
Mof_H 	H 	0.0974	0.4465	0.0061	-0.012
Mof_C 	C 	0.07314	0.5638	0.9862	-0.115
Mof_H 	H 	0.0876	0.5725	0.9622	0.081
Mof_C 	C 	0.04602	0.6275	0.99484	0.05
Mof_C 	C 	0.02447	0.609	0.029	-0.115
Mof_H 	H 	0.0049	0.6494	0.0351	0.073
Mof_C 	C 	0.03165	0.5319	0.0539	0.066
Mof_H 	H 	0.0167	0.5196	0.0771	-0.006
Mof_C 	C 	0.06027	0.7999	0.9154	0.088
Mof_N 	N 	0.03147	0.859	0.91842	-0.136
Mof_C 	C 	0.00956	0.8398	0.9492	0.087
Mof_N 	N 	0.01288	0.7682	0.97634	-0.147
Mof_C 	C 	0.04158	0.712	0.96861	0.09
Mof_N 	N 	0.0659	0.7247	0.93971	-0.138
Mof_N 	N 	0.82467	0.033	0.9094	-0.27
Mof_C 	C 	0.8003	0.0797	0.8775	0.06
Mof_H 	H 	0.8026	0.1425	0.8774	0.005
Mof_C 	C 	0.7722	0.0395	0.8449	-0.114
Mof_H 	H 	0.7552	0.0741	0.8227	0.083
Mof_C 	C 	0.76889	0.9481	0.8447	0.043
Mof_C 	C 	0.794	0.9002	0.8775	-0.115
Mof_H 	H 	0.7925	0.8373	0.8781	0.082
Mof_C 	C 	0.8214	0.9451	0.9093	0.068
Mof_H 	H 	0.8386	0.9119	0.932	0.002
Mof_N 	N 	0.62284	0.0533	0.63622	-0.266
Mof_C 	C 	0.65001	0.0955	0.667	0.06
Mof_H 	H 	0.6529	0.1578	0.6642	-0.016
Mof_C 	C 	0.67395	0.0518	0.7027	-0.119
Mof_H 	H 	0.6926	0.0836	0.7244	0.066
Mof_C 	C 	0.67017	0.9605	0.7061	0.057
Mof_C 	C 	0.64438	0.9165	0.6725	-0.119
Mof_H 	H 	0.6423	0.8537	0.6728	0.092
Mof_C 	C 	0.6216	0.9658	0.6381	0.075
Mof_H 	H 	0.6041	0.9353	0.6146	-0.001
Mof_N 	N 	0.6875	0.5007	0.7795	-0.297
Mof_C 	C 	0.6694	0.5531	0.7462	0.067
Mof_H 	H 	0.6516	0.5274	0.7213	-0.016
Mof_C 	C 	0.6753	0.6444	0.7465	-0.124
Mof_H 	H 	0.6621	0.6801	0.7219	0.087
Mof_C 	C 	0.70028	0.6818	0.7825	0.063
Mof_C 	C 	0.7187	0.6284	0.8174	-0.133
Mof_H 	H 	0.7363	0.6525	0.8429	0.084
Mof_C 	C 	0.7109	0.538	0.8144	0.083
Mof_H 	H 	0.7232	0.5012	0.839	-0.02
Mof_C 	C 	0.73951	0.9023	0.8094	0.081
Mof_N 	N 	0.72021	0.9529	0.77497	-0.145
Mof_C 	C 	0.69285	0.91	0.7452	0.099
Mof_N 	N 	0.68418	0.8239	0.74803	-0.133
Mof_C 	C 	0.70639	0.7798	0.7824	0.096
Mof_N 	N 	0.73409	0.8156	0.81437	-0.144
Mof_Zn	Zn	0.181	0.8656	0.7835	0.655
Mof_I 	I 	0.1388	0.8319	0.7052	0.125
Mof_I 	I 	0.2439	0.7857	0.8166	-0.565
Mof_I 	I 	0.8763	0.2388	0.9368	-0.122
Mof_I 	I 	0.8432	0.0648	0.0335	-0.139
Mof_Zn	Zn	0.67011	0.6336	0.27123	0.646
Mof_I 	I 	0.62526	0.65297	0.19329	-0.54
Mof_I 	I 	0.73068	0.7274	0.29892	0.157
Mof_I 	I 	0.38	0.26014	0.42938	-0.235
Mof_I 	I 	0.33982	0.44533	0.53305	-0.2
Mof_Zn	Zn	0.36494	0.4069	0.46058	1.162
Mof_Zn	Zn	0.57985	0.12734	0.59274	1.165
Mof_I 	I 	0.61651	0.23846	0.55244	-0.375
Mof_I 	I 	0.52683	0.15666	0.63944	-0.353
Mof_N 	N 	0.6383	0.6484	0.3233	-0.303
Mof_C 	C 	0.6055	0.6035	0.321	0.096
Mof_H 	H 	0.5997	0.5582	0.2985	-0.027
Mof_C 	C 	0.5791	0.6188	0.3495	-0.132
Mof_H 	H 	0.5555	0.5849	0.346	0.088
Mof_C 	C 	0.5866	0.6827	0.3831	0.065
Mof_C 	C 	0.6216	0.729	0.3862	-0.117
Mof_H 	H 	0.6282	0.7738	0.4089	0.077
Mof_C 	C 	0.6469	0.7102	0.3563	0.064
Mof_H 	H 	0.6711	0.7419	0.3591	-0.02
Mof_N 	N 	0.41424	0.4869	0.4592	-0.274
Mof_C 	C 	0.4276	0.4971	0.42	0.086
Mof_H 	H 	0.4146	0.4657	0.3937	-0.016
Mof_C 	C 	0.4587	0.5496	0.4155	-0.131
Mof_H 	H 	0.4677	0.5531	0.3872	0.091
Mof_C 	C 	0.47685	0.5982	0.4534	0.061
Mof_C 	C 	0.46285	0.5897	0.4933	-0.128
Mof_H 	H 	0.4744	0.623	0.5196	0.082
Mof_C 	C 	0.43193	0.5327	0.4952	0.085
Mof_H 	H 	0.423	0.526	0.5235	-0.012
Mof_N 	N 	0.55927	0.0268	0.54628	-0.269
Mof_C 	C 	0.57874	0.0109	0.5124	0.068
Mof_H 	H 	0.5974	0.0535	0.5061	-0.012
Mof_C 	C 	0.57314	0.9362	0.4862	-0.115
Mof_H 	H 	0.5876	0.9275	0.4622	0.081
Mof_C 	C 	0.54602	0.8725	0.49484	0.05
Mof_C 	C 	0.52447	0.891	0.529	-0.115
Mof_H 	H 	0.5049	0.8506	0.5351	0.073
Mof_C 	C 	0.53165	0.9681	0.5539	0.065
Mof_H 	H 	0.5167	0.9804	0.5771	-0.006
Mof_C 	C 	0.56027	0.7001	0.4154	0.088
Mof_N 	N 	0.53147	0.641	0.41842	-0.136
Mof_C 	C 	0.50956	0.6602	0.4492	0.087
Mof_N 	N 	0.51288	0.7318	0.47634	-0.148
Mof_C 	C 	0.54158	0.788	0.46861	0.09
Mof_N 	N 	0.5659	0.7753	0.43971	-0.138
Mof_N 	N 	0.32467	0.467	0.4094	-0.27
Mof_C 	C 	0.3003	0.4203	0.3775	0.061
Mof_H 	H 	0.3026	0.3575	0.3774	0.005
Mof_C 	C 	0.2722	0.4605	0.3449	-0.114
Mof_H 	H 	0.2552	0.4259	0.3227	0.084
Mof_C 	C 	0.26889	0.5519	0.3447	0.043
Mof_C 	C 	0.294	0.5998	0.3775	-0.115
Mof_H 	H 	0.2925	0.6627	0.3781	0.082
Mof_C 	C 	0.3214	0.5549	0.4093	0.068
Mof_H 	H 	0.3386	0.5881	0.432	0.002
Mof_N 	N 	0.12284	0.4467	0.13622	-0.266
Mof_C 	C 	0.15001	0.4045	0.167	0.06
Mof_H 	H 	0.1529	0.3422	0.1642	-0.016
Mof_C 	C 	0.17395	0.4482	0.2027	-0.119
Mof_H 	H 	0.1926	0.4164	0.2244	0.066
Mof_C 	C 	0.17017	0.5395	0.2061	0.057
Mof_C 	C 	0.14438	0.5835	0.1725	-0.119
Mof_H 	H 	0.1423	0.6463	0.1728	0.092
Mof_C 	C 	0.1216	0.5342	0.1381	0.075
Mof_H 	H 	0.1041	0.5647	0.1146	-0.002
Mof_N 	N 	0.1875	0.9993	0.2795	-0.297
Mof_C 	C 	0.1694	0.9469	0.2462	0.067
Mof_H 	H 	0.1516	0.9726	0.2213	-0.016
Mof_C 	C 	0.1753	0.8556	0.2465	-0.124
Mof_H 	H 	0.1621	0.8199	0.2219	0.087
Mof_C 	C 	0.20028	0.8182	0.2825	0.063
Mof_C 	C 	0.2187	0.8716	0.3174	-0.133
Mof_H 	H 	0.2363	0.8475	0.3429	0.084
Mof_C 	C 	0.2109	0.962	0.3144	0.083
Mof_H 	H 	0.2232	0.9988	0.339	-0.02
Mof_C 	C 	0.23951	0.5977	0.3094	0.081
Mof_N 	N 	0.22021	0.5471	0.27497	-0.145
Mof_C 	C 	0.19285	0.59	0.2452	0.098
Mof_N 	N 	0.18418	0.6761	0.24803	-0.133
Mof_C 	C 	0.20639	0.7202	0.2824	0.096
Mof_N 	N 	0.23409	0.6844	0.31437	-0.144
Mof_Zn	Zn	0.681	0.6344	0.2835	0.655
Mof_I 	I 	0.6388	0.6681	0.2052	0.125
Mof_I 	I 	0.7439	0.7143	0.3166	-0.565
Mof_I 	I 	0.3763	0.2612	0.4368	-0.122
Mof_I 	I 	0.3432	0.4352	0.5335	-0.139
Mof_Zn	Zn	0.17011	0.1336	0.27123	0.646
Mof_I 	I 	0.12526	0.15297	0.19329	-0.54
Mof_I 	I 	0.23068	0.2274	0.29892	0.157
Mof_I 	I 	0.88	0.76014	0.42938	-0.235
Mof_I 	I 	0.83982	0.94533	0.53305	-0.2
Mof_Zn	Zn	0.86494	0.9069	0.46058	1.162
Mof_Zn	Zn	0.07985	0.62734	0.59274	1.165
Mof_I 	I 	0.11651	0.73846	0.55244	-0.375
Mof_I 	I 	0.02683	0.65666	0.63944	-0.353
Mof_N 	N 	0.1383	0.1484	0.3233	-0.303
Mof_C 	C 	0.1055	0.1035	0.321	0.096
Mof_H 	H 	0.0997	0.0582	0.2985	-0.027
Mof_C 	C 	0.0791	0.1188	0.3495	-0.132
Mof_H 	H 	0.0555	0.0849	0.346	0.088
Mof_C 	C 	0.0866	0.1827	0.3831	0.064
Mof_C 	C 	0.1216	0.229	0.3862	-0.117
Mof_H 	H 	0.1282	0.2738	0.4089	0.077
Mof_C 	C 	0.1469	0.2102	0.3563	0.064
Mof_H 	H 	0.1711	0.2419	0.3591	-0.02
Mof_N 	N 	0.91424	0.9869	0.4592	-0.274
Mof_C 	C 	0.9276	0.9971	0.42	0.086
Mof_H 	H 	0.9146	0.9657	0.3937	-0.016
Mof_C 	C 	0.9587	0.0496	0.4155	-0.131
Mof_H 	H 	0.9677	0.0531	0.3872	0.091
Mof_C 	C 	0.97685	0.0982	0.4534	0.061
Mof_C 	C 	0.96285	0.0897	0.4933	-0.128
Mof_H 	H 	0.9744	0.123	0.5196	0.082
Mof_C 	C 	0.93193	0.0327	0.4952	0.085
Mof_H 	H 	0.923	0.026	0.5235	-0.012
Mof_N 	N 	0.05927	0.5268	0.54628	-0.269
Mof_C 	C 	0.07874	0.5109	0.5124	0.068
Mof_H 	H 	0.0974	0.5535	0.5061	-0.012
Mof_C 	C 	0.07314	0.4362	0.4862	-0.115
Mof_H 	H 	0.0876	0.4275	0.4622	0.081
Mof_C 	C 	0.04602	0.3725	0.49484	0.05
Mof_C 	C 	0.02447	0.391	0.529	-0.115
Mof_H 	H 	0.0049	0.3506	0.5351	0.073
Mof_C 	C 	0.03165	0.4681	0.5539	0.066
Mof_H 	H 	0.0167	0.4804	0.5771	-0.006
Mof_C 	C 	0.06027	0.2001	0.4154	0.088
Mof_N 	N 	0.03147	0.141	0.41842	-0.136
Mof_C 	C 	0.00956	0.1602	0.4492	0.087
Mof_N 	N 	0.01288	0.2318	0.47634	-0.148
Mof_C 	C 	0.04158	0.288	0.46861	0.09
Mof_N 	N 	0.0659	0.2753	0.43971	-0.138
Mof_N 	N 	0.82467	0.967	0.4094	-0.27
Mof_C 	C 	0.8003	0.9203	0.3775	0.06
Mof_H 	H 	0.8026	0.8575	0.3774	0.005
Mof_C 	C 	0.7722	0.9605	0.3449	-0.114
Mof_H 	H 	0.7552	0.9259	0.3227	0.083
Mof_C 	C 	0.76889	0.0519	0.3447	0.043
Mof_C 	C 	0.794	0.0998	0.3775	-0.115
Mof_H 	H 	0.7925	0.1627	0.3781	0.082
Mof_C 	C 	0.8214	0.0549	0.4093	0.068
Mof_H 	H 	0.8386	0.0881	0.432	0.002
Mof_N 	N 	0.62284	0.9467	0.13622	-0.266
Mof_C 	C 	0.65001	0.9045	0.167	0.06
Mof_H 	H 	0.6529	0.8422	0.1642	-0.016
Mof_C 	C 	0.67395	0.9482	0.2027	-0.119
Mof_H 	H 	0.6926	0.9164	0.2244	0.066
Mof_C 	C 	0.67017	0.0395	0.2061	0.057
Mof_C 	C 	0.64438	0.0835	0.1725	-0.119
Mof_H 	H 	0.6423	0.1463	0.1728	0.092
Mof_C 	C 	0.6216	0.0342	0.1381	0.075
Mof_H 	H 	0.6041	0.0647	0.1146	-0.001
Mof_N 	N 	0.6875	0.4993	0.2795	-0.297
Mof_C 	C 	0.6694	0.4469	0.2462	0.067
Mof_H 	H 	0.6516	0.4726	0.2213	-0.016
Mof_C 	C 	0.6753	0.3556	0.2465	-0.124
Mof_H 	H 	0.6621	0.3199	0.2219	0.087
Mof_C 	C 	0.70028	0.3182	0.2825	0.063
Mof_C 	C 	0.7187	0.3716	0.3174	-0.133
Mof_H 	H 	0.7363	0.3475	0.3429	0.084
Mof_C 	C 	0.7109	0.462	0.3144	0.083
Mof_H 	H 	0.7232	0.4988	0.339	-0.02
Mof_C 	C 	0.73951	0.0977	0.3094	0.081
Mof_N 	N 	0.72021	0.0471	0.27497	-0.145
Mof_C 	C 	0.69285	0.09	0.2452	0.099
Mof_N 	N 	0.68418	0.1761	0.24803	-0.133
Mof_C 	C 	0.70639	0.2202	0.2824	0.096
Mof_N 	N 	0.73409	0.1844	0.31437	-0.144
Mof_Zn	Zn	0.181	0.1344	0.2835	0.655
Mof_I 	I 	0.1388	0.1681	0.2052	0.125
Mof_I 	I 	0.2439	0.2143	0.3166	-0.565
Mof_I 	I 	0.8763	0.7612	0.4368	-0.122
Mof_I 	I 	0.8432	0.9352	0.5335	-0.139
_end
