data_functionalizedCrystal
_audit_creation_method	'EQeq! by Chris Wilmer'
_symmetry_space_group_name_H-M	'P1'
_symmetry_Int_Tables_number	1
_symmetry_cell_setting	triclinic
loop_
_symmetry_equiv_pos_as_xyz
  x,y,z
_cell_length_a	10.143
_cell_length_b	10.257
_cell_length_c	15.5
_cell_angle_alpha	86.982
_cell_angle_beta	73.52
_cell_angle_gamma	81.229
loop_
_atom_site_label
_atom_site_type_symbol
_atom_site_fract_x
_atom_site_fract_y
_atom_site_fract_z
_atom_site_charge
Mof_Zn	Zn	0.48645	0.24757	0.15729	1.223
Mof_Zn	Zn	0.45532	0.23912	0.93405	1.234
Mof_Zn	Zn	0.45758	0.77761	0.30037	1.225
Mof_Zn	Zn	0.45864	0.07837	0.39344	1.226
Mof_P 	P 	0.5851	0.50795	0.19815	0.455
Mof_P 	P 	0.6402	0.9542	0.20262	0.459
Mof_P 	P 	0.648	0.1634	0.48638	0.428
Mof_O 	O 	0.5472	0.3	0.0287	-0.666
Mof_O 	O 	0.5303	0.5739	0.1222	-0.575
Mof_O 	O 	0.5306	0.3783	0.2266	-0.434
Mof_O 	O 	0.5478	0.597	0.2795	-0.423
Mof_O 	O 	0.2673	0.2905	0.0166	-0.509
Mof_O 	O 	0.2888	0.488	0.0642	-0.476
Mof_O 	O 	0.6137	0.8371	0.1593	-0.535
Mof_O 	O 	0.6136	0.0839	0.1567	-0.488
Mof_O 	O 	0.5499	0.9462	0.3011	-0.608
Mof_O 	O 	0.337	0.8451	0.1257	-0.489
Mof_O 	O 	0.2768	0.8261	0.2762	-0.49
Mof_O 	O 	0.3335	0.2021	0.341	-0.497
Mof_O 	O 	0.2917	0.2166	0.2081	-0.481
Mof_O 	O 	0.6517	0.0173	0.5102	-0.508
Mof_O 	O 	0.5586	0.206	0.4234	-0.429
Mof_O 	O 	0.6066	0.2519	0.5678	-0.413
Mof_C 	C 	0.773	0.4753	0.1593	-0.082
Mof_C 	C 	0.839	0.3623	0.1099	-0.028
Mof_H 	H 	0.7865	0.3016	0.0989	0.019
Mof_C 	C 	0.9825	0.34	0.0773	-0.025
Mof_H 	H 	0.0251	0.2643	0.0444	0.039
Mof_C 	C 	0.0636	0.428	0.0929	-0.079
Mof_C 	C 	0.9994	0.5383	0.1427	-0.026
Mof_H 	H 	0.0528	0.5976	0.1545	0.054
Mof_C 	C 	0.8556	0.5624	0.1756	-0.022
Mof_H 	H 	0.8139	0.6378	0.2091	0.04
Mof_C 	C 	0.2197	0.4014	0.0551	0.366
Mof_C 	C 	0.8189	0.9285	0.206	-0.071
Mof_C 	C 	0.9236	0.9451	0.1277	-0.036
Mof_H 	H 	0.9004	0.9728	0.0751	0.025
Mof_C 	C 	0.0631	0.9209	0.127	-0.005
Mof_H 	H 	0.1318	0.9332	0.0741	0.025
Mof_C 	C 	0.0991	0.8799	0.2022	-0.089
Mof_C 	C 	0.9954	0.8637	0.282	-0.015
Mof_H 	H 	0.0189	0.8371	0.3347	0.051
Mof_C 	C 	0.8571	0.8878	0.2816	-0.028
Mof_H 	H 	0.7885	0.8758	0.3346	0.033
Mof_C 	C 	0.251	0.8461	0.2012	0.397
Mof_C 	C 	0.2533	0.2034	0.2919	0.387
Mof_C 	C 	0.1017	0.1959	0.3386	-0.109
Mof_C 	C 	0.0048	0.2192	0.2912	0.018
Mof_H 	H 	0.0322	0.2382	0.2299	0.046
Mof_C 	C 	0.8641	0.2143	0.3356	-0.055
Mof_H 	H 	0.7975	0.2321	0.3042	0.064
Mof_C 	C 	0.8254	0.1826	0.4266	-0.02
Mof_C 	C 	0.925	0.1586	0.4731	-0.057
Mof_H 	H 	0.8989	0.1374	0.5341	0.057
Mof_C 	C 	0.0632	0.1661	0.4294	0.015
Mof_H 	H 	0.1296	0.1512	0.461	0.026
Mof_Zn	Zn	0.51355	0.75243	0.84271	1.224
Mof_Zn	Zn	0.54468	0.76088	0.06595	1.196
Mof_Zn	Zn	0.54242	0.22239	0.69963	1.225
Mof_Zn	Zn	0.54136	0.92163	0.60656	1.228
Mof_P 	P 	0.4149	0.49205	0.80185	0.457
Mof_P 	P 	0.3598	0.0458	0.79738	0.456
Mof_P 	P 	0.352	0.8366	0.51362	0.428
Mof_O 	O 	0.4528	0.7	0.9713	-0.589
Mof_O 	O 	0.4697	0.4261	0.8778	-0.536
Mof_O 	O 	0.4694	0.6217	0.7734	-0.433
Mof_O 	O 	0.4522	0.403	0.7205	-0.423
Mof_O 	O 	0.7327	0.7095	0.9834	-0.44
Mof_O 	O 	0.7112	0.512	0.9358	-0.426
Mof_O 	O 	0.3863	0.1629	0.8407	-0.51
Mof_O 	O 	0.3864	0.9161	0.8433	-0.465
Mof_O 	O 	0.4501	0.0538	0.6989	-0.61
Mof_O 	O 	0.663	0.1549	0.8743	-0.453
Mof_O 	O 	0.7232	0.1739	0.7238	-0.487
Mof_O 	O 	0.6665	0.7979	0.659	-0.496
Mof_O 	O 	0.7083	0.7834	0.7919	-0.475
Mof_O 	O 	0.3483	0.9827	0.4898	-0.504
Mof_O 	O 	0.4414	0.794	0.5766	-0.428
Mof_O 	O 	0.3934	0.7481	0.4322	-0.413
Mof_C 	C 	0.227	0.5247	0.8407	-0.076
Mof_C 	C 	0.161	0.6377	0.8901	0.001
Mof_H 	H 	0.2135	0.6984	0.9011	0.03
Mof_C 	C 	0.0175	0.66	0.9227	-0.031
Mof_H 	H 	0.9749	0.7357	0.9556	0.076
Mof_C 	C 	0.9364	0.572	0.9071	-0.041
Mof_C 	C 	0.0006	0.4617	0.8573	-0.032
Mof_H 	H 	0.9472	0.4024	0.8455	0.067
Mof_C 	C 	0.1444	0.4376	0.8244	0.001
Mof_H 	H 	0.1861	0.3622	0.7909	0.038
Mof_C 	C 	0.7803	0.5986	0.9449	0.361
Mof_C 	C 	0.1811	0.0715	0.794	-0.063
Mof_C 	C 	0.0764	0.0549	0.8723	-0.032
Mof_H 	H 	0.0996	0.0272	0.9249	0.062
Mof_C 	C 	0.9369	0.0791	0.873	-0.004
Mof_H 	H 	0.8682	0.0668	0.9259	0.06
Mof_C 	C 	0.9009	0.1201	0.7978	-0.079
Mof_C 	C 	0.0046	0.1363	0.718	-0.019
Mof_H 	H 	0.9811	0.1629	0.6653	0.051
Mof_C 	C 	0.1429	0.1122	0.7184	-0.029
Mof_H 	H 	0.2115	0.1242	0.6654	0.033
Mof_C 	C 	0.749	0.1539	0.7988	0.389
Mof_C 	C 	0.7467	0.7966	0.7081	0.386
Mof_C 	C 	0.8983	0.8041	0.6614	-0.106
Mof_C 	C 	0.9952	0.7808	0.7088	0.016
Mof_H 	H 	0.9678	0.7618	0.7701	0.047
Mof_C 	C 	0.1359	0.7857	0.6644	-0.053
Mof_H 	H 	0.2025	0.7679	0.6958	0.063
Mof_C 	C 	0.1746	0.8174	0.5734	-0.021
Mof_C 	C 	0.075	0.8414	0.5269	-0.055
Mof_H 	H 	0.1011	0.8626	0.4659	0.058
Mof_C 	C 	0.9368	0.8339	0.5706	0.013
Mof_H 	H 	0.8704	0.8488	0.539	0.028
Mof_Zn	Zn	0.5	0.5	-0	1.191
_end
