data_functionalizedCrystal
_audit_creation_method	'EQeq! by Chris Wilmer'
_symmetry_space_group_name_H-M	'P1'
_symmetry_Int_Tables_number	1
_symmetry_cell_setting	triclinic
loop_
_symmetry_equiv_pos_as_xyz
  x,y,z
_cell_length_a	8.076
_cell_length_b	12.545
_cell_length_c	15.713
_cell_angle_alpha	71.896
_cell_angle_beta	82.14
_cell_angle_gamma	75.62
loop_
_atom_site_label
_atom_site_type_symbol
_atom_site_fract_x
_atom_site_fract_y
_atom_site_fract_z
_atom_site_charge
Mof_Nd	Nd	0.02523	0.17911	0.86469	2.608
Mof_Nd	Nd	0.64533	0.37214	0.61446	2.334
Mof_O 	O 	0.5501	0.4499	0.7461	-0.551
Mof_O 	O 	0.5259	0.5772	0.5413	-0.673
Mof_O 	O 	0.3344	0.3913	0.6421	-0.496
Mof_O 	O 	0.5549	0.2108	0.7352	-0.457
Mof_O 	O 	0.0991	0.1072	0.7297	-0.592
Mof_O 	O 	0.1184	0.3329	0.7358	-0.498
Mof_O 	O 	0.7831	0.329	0.8021	-0.665
Mof_C 	C 	0.295	0.8497	0.854	-0.355
Mof_H 	H 	0.2257	0.8898	0.803	0.149
Mof_H 	H 	0.4	0.8779	0.8423	0.15
Mof_N 	N 	0.169	0.2639	0.9912	0.056
Mof_O 	O 	0.5965	0.2428	0.5241	-0.487
Mof_O 	O 	0.1426	0.9823	0.9296	-0.658
Mof_O 	O 	0.8182	0.2043	0.9936	-0.562
Mof_O 	O 	0.8927	0.2224	0.6417	-0.663
Mof_N 	N 	0.3385	0.7242	0.8629	-0.067
Mof_N 	N 	0.406	0.8291	0.6244	-0.081
Mof_O 	O 	0.3437	0.1553	0.8318	-0.449
Mof_C 	C 	0.5352	0.3206	0.4577	0.452
Mof_N 	N 	0.4819	0.552	0.8798	-0.061
Mof_O 	O 	0.1739	0.159	0.0069	-0.316
Mof_C 	C 	0.0264	0.1447	0.6585	0.588
Mof_C 	C 	0.1981	0.8772	0.9379	0.577
Mof_N 	N 	0.254	0.0028	0.6008	-0.074
Mof_O 	O 	0.094	0.3368	0.9202	-0.317
Mof_C 	C 	0.4004	0.2196	0.7633	0.279
Mof_C 	C 	0.6534	0.4079	0.8046	0.556
Mof_C 	C 	0.508	0.9	0.6241	0.003
Mof_H 	H 	0.6253	0.8784	0.631	0.028
Mof_C 	C 	0.4935	0.6592	0.8678	0.052
Mof_H 	H 	0.5944	0.6841	0.8635	0.036
Mof_C 	C 	0.103	0.1006	0.5811	-0.378
Mof_H 	H 	0.1368	0.1632	0.5332	0.124
Mof_H 	H 	0.0157	0.0765	0.5594	0.134
Mof_C 	C 	0.2718	0.3241	0.7091	0.296
Mof_O 	O 	0.226	0.3043	0.0385	-0.129
Mof_C 	C 	0.539	0.2946	0.3687	-0.294
Mof_H 	H 	0.4254	0.3233	0.3462	0.104
Mof_H 	H 	0.6162	0.3355	0.3255	0.122
Mof_C 	C 	0.224	0.657	0.869	0.001
Mof_H 	H 	0.1064	0.682	0.8657	0.049
Mof_C 	C 	0.628	0.4542	0.8847	-0.365
Mof_H 	H 	0.6122	0.393	0.9387	0.165
Mof_H 	H 	0.7315	0.4779	0.8894	0.148
Mof_C 	C 	0.314	0.5487	0.8807	-0.007
Mof_H 	H 	0.2707	0.4841	0.888	0.067
Mof_C 	C 	0.25	0.8949	0.6075	0.071
Mof_H 	H 	0.1541	0.8698	0.6015	0.005
Mof_C 	C 	0.412	0.0064	0.6123	-0.004
Mof_H 	H 	0.4496	0.0709	0.6122	0.048
Mof_Nd	Nd	0.97477	0.82089	0.13531	2.607
Mof_Nd	Nd	0.35467	0.62786	0.38554	2.333
Mof_O 	O 	0.4499	0.5501	0.2539	-0.552
Mof_O 	O 	0.4741	0.4228	0.4587	-0.674
Mof_O 	O 	0.6656	0.6087	0.3579	-0.497
Mof_O 	O 	0.4451	0.7892	0.2648	-0.458
Mof_O 	O 	0.9009	0.8928	0.2703	-0.592
Mof_O 	O 	0.8816	0.6671	0.2642	-0.498
Mof_O 	O 	0.2169	0.671	0.1979	-0.665
Mof_C 	C 	0.705	0.1503	0.146	-0.355
Mof_H 	H 	0.7743	0.1102	0.197	0.149
Mof_H 	H 	0.6	0.1221	0.1577	0.15
Mof_N 	N 	0.831	0.7361	0.0088	0.056
Mof_O 	O 	0.4035	0.7572	0.4759	-0.487
Mof_O 	O 	0.8574	0.0177	0.0704	-0.658
Mof_O 	O 	0.1818	0.7957	0.0064	-0.562
Mof_O 	O 	0.1073	0.7776	0.3583	-0.663
Mof_N 	N 	0.6615	0.2758	0.1371	-0.067
Mof_N 	N 	0.594	0.1709	0.3756	-0.081
Mof_O 	O 	0.6563	0.8447	0.1682	-0.449
Mof_C 	C 	0.4648	0.6794	0.5423	0.452
Mof_N 	N 	0.5181	0.448	0.1202	-0.061
Mof_O 	O 	0.8261	0.841	0.9931	-0.316
Mof_C 	C 	0.9736	0.8553	0.3415	0.588
Mof_C 	C 	0.8019	0.1228	0.0621	0.577
Mof_N 	N 	0.746	0.9972	0.3992	-0.074
Mof_O 	O 	0.906	0.6632	0.0798	-0.317
Mof_C 	C 	0.5996	0.7804	0.2367	0.279
Mof_C 	C 	0.3466	0.5921	0.1954	0.556
Mof_C 	C 	0.492	0.1	0.3759	0.003
Mof_H 	H 	0.3747	0.1216	0.369	0.028
Mof_C 	C 	0.5065	0.3408	0.1322	0.052
Mof_H 	H 	0.4056	0.3159	0.1365	0.036
Mof_C 	C 	0.897	0.8994	0.4189	-0.378
Mof_H 	H 	0.8632	0.8368	0.4668	0.124
Mof_H 	H 	0.9843	0.9235	0.4406	0.134
Mof_C 	C 	0.7282	0.6759	0.2909	0.296
Mof_O 	O 	0.774	0.6957	0.9615	-0.129
Mof_C 	C 	0.461	0.7054	0.6313	-0.294
Mof_H 	H 	0.5746	0.6767	0.6538	0.104
Mof_H 	H 	0.3838	0.6645	0.6745	0.122
Mof_C 	C 	0.776	0.343	0.131	0.001
Mof_H 	H 	0.8936	0.318	0.1343	0.049
Mof_C 	C 	0.372	0.5458	0.1153	-0.365
Mof_H 	H 	0.3878	0.607	0.0613	0.165
Mof_H 	H 	0.2685	0.5221	0.1106	0.148
Mof_C 	C 	0.686	0.4513	0.1193	-0.007
Mof_H 	H 	0.7293	0.5159	0.112	0.067
Mof_C 	C 	0.75	0.1051	0.3925	0.071
Mof_H 	H 	0.8459	0.1302	0.3985	0.005
Mof_C 	C 	0.588	0.9936	0.3877	-0.004
Mof_H 	H 	0.5504	0.9291	0.3878	0.048
_end
