data_functionalizedCrystal
_audit_creation_method	'EQeq! by Chris Wilmer'
_symmetry_space_group_name_H-M	'P1'
_symmetry_Int_Tables_number	1
_symmetry_cell_setting	triclinic
loop_
_symmetry_equiv_pos_as_xyz
  x,y,z
_cell_length_a	24.9527
_cell_length_b	24.9527
_cell_length_c	24.9527
_cell_angle_alpha	87.9866
_cell_angle_beta	87.9866
_cell_angle_gamma	87.9866
loop_
_atom_site_label
_atom_site_type_symbol
_atom_site_fract_x
_atom_site_fract_y
_atom_site_fract_z
_atom_site_charge
Mof_Fe	Fe	0.87002	0.86993	0.35266	0.975
Mof_Fe	Fe	0.32265	0.74627	0.84126	0.971
Mof_Fe	Fe	0.35266	0.87002	0.86993	0.975
Mof_Fe	Fe	0.74657	0.32289	0.84126	1.02
Mof_Fe	Fe	0.84126	0.74657	0.32289	1.02
Mof_Fe	Fe	0.84126	0.32265	0.74627	0.971
Mof_Fe	Fe	0.32289	0.84126	0.74657	1.02
Mof_Fe	Fe	0.74627	0.84126	0.32265	0.971
Mof_Fe	Fe	0.86993	0.35266	0.87002	0.975
Mof_H 	H 	0.2227	0.9661	0.7284	0.004
Mof_H 	H 	0.9377	0.5408	0.6424	0.069
Mof_H 	H 	0.8002	0.179	0.6853	-0.01
Mof_H 	H 	0.4596	0.6763	0.9037	0.026
Mof_H 	H 	0.0291	0.1362	0.7348	0.117
Mof_H 	H 	0.936	0.5011	0.8272	0.026
Mof_H 	H 	0.9953	0.886	0.2279	-0.005
Mof_H 	H 	0.5619	0.5603	0.678	0.058
Mof_H 	H 	0.8797	0.0038	0.2488	-0.007
Mof_H 	H 	0.7423	0.0345	0.6255	0.056
Mof_H 	H 	0.826	0.4983	0.946	0.029
Mof_H 	H 	0.5164	0.7222	0.6105	0.071
Mof_H 	H 	0.6255	0.7423	0.0345	0.056
Mof_H 	H 	0.8841	0.0656	0.176	0.115
Mof_H 	H 	0.6919	0.478	0.5847	0.072
Mof_H 	H 	0.5011	0.8272	0.936	0.026
Mof_H 	H 	0.7926	0.5831	0.9705	0.068
Mof_H 	H 	0.6763	0.9037	0.4596	0.026
Mof_H 	H 	0.0656	0.176	0.8841	0.115
Mof_H 	H 	0.0038	0.2488	0.8797	-0.007
Mof_H 	H 	0.7934	0.9689	0.5827	0.071
Mof_H 	H 	0.5603	0.678	0.5619	0.058
Mof_H 	H 	0.9671	0.2089	0.7301	-0.005
Mof_H 	H 	0.746	0.6291	0.0296	0.056
Mof_H 	H 	0.886	0.2279	0.9953	-0.005
Mof_H 	H 	0.2089	0.7301	0.9671	-0.005
Mof_H 	H 	0.4593	0.9055	0.6766	0.03
Mof_H 	H 	0.7688	0.6585	0.4485	0.018
Mof_H 	H 	0.176	0.8841	0.0656	0.115
Mof_H 	H 	0.7399	0.4101	0.6313	0.018
Mof_H 	H 	0.6271	0.6278	0.923	0.061
Mof_H 	H 	0.4485	0.7688	0.6585	0.018
Mof_H 	H 	0.0688	0.8742	0.1689	0.114
Mof_H 	H 	0.5847	0.6919	0.478	0.072
Mof_H 	H 	0.5406	0.9401	0.6429	0.067
Mof_H 	H 	0.6105	0.5164	0.7222	0.071
Mof_H 	H 	0.0345	0.6255	0.7423	0.056
Mof_H 	H 	0.5827	0.7934	0.9689	0.071
Mof_H 	H 	0.6766	0.4593	0.9055	0.03
Mof_H 	H 	0.678	0.5619	0.5603	0.058
Mof_H 	H 	0.4101	0.6313	0.7399	0.018
Mof_H 	H 	0.4983	0.946	0.826	0.029
Mof_H 	H 	0.478	0.5847	0.6919	0.072
Mof_H 	H 	0.8272	0.936	0.5011	0.026
Mof_H 	H 	0.6313	0.7399	0.4101	0.018
Mof_H 	H 	0.6429	0.5406	0.9401	0.067
Mof_H 	H 	0.6596	0.7758	0.0941	0.093
Mof_H 	H 	0.9689	0.5827	0.7934	0.071
Mof_H 	H 	0.0392	0.7167	0.1631	0.112
Mof_H 	H 	0.9401	0.6429	0.5406	0.067
Mof_H 	H 	0.1631	0.0392	0.7167	0.112
Mof_H 	H 	0.9661	0.7284	0.2227	0.004
Mof_H 	H 	0.179	0.6853	0.8002	-0.01
Mof_H 	H 	0.6564	0.0942	0.7738	0.088
Mof_H 	H 	0.5408	0.6424	0.9377	0.069
Mof_H 	H 	0.7758	0.0941	0.6596	0.093
Mof_H 	H 	0.1787	0.8002	0.6817	-0.003
Mof_H 	H 	0.2279	0.9953	0.886	-0.005
Mof_H 	H 	0.7284	0.2227	0.9661	0.004
Mof_H 	H 	0.1362	0.7348	0.0291	0.117
Mof_H 	H 	0.7222	0.6105	0.5164	0.071
Mof_H 	H 	0.6424	0.9377	0.5408	0.069
Mof_H 	H 	0.5831	0.9705	0.7926	0.068
Mof_H 	H 	0.7348	0.0291	0.1362	0.117
Mof_H 	H 	0.9055	0.6766	0.4593	0.03
Mof_H 	H 	0.9037	0.4596	0.6763	0.026
Mof_H 	H 	0.7167	0.1631	0.0392	0.112
Mof_H 	H 	0.0296	0.746	0.6291	0.056
Mof_H 	H 	0.6291	0.0296	0.746	0.056
Mof_H 	H 	0.6585	0.4485	0.7688	0.018
Mof_H 	H 	0.8742	0.1689	0.0688	0.114
Mof_H 	H 	0.9705	0.7926	0.5831	0.068
Mof_H 	H 	0.946	0.826	0.4983	0.029
Mof_H 	H 	0.6853	0.8002	0.179	-0.01
Mof_H 	H 	0.6817	0.1787	0.8002	-0.003
Mof_H 	H 	0.7301	0.9671	0.2089	-0.005
Mof_H 	H 	0.8002	0.6817	0.1787	-0.003
Mof_H 	H 	0.1689	0.0688	0.8742	0.114
Mof_H 	H 	0.6278	0.923	0.6271	0.061
Mof_H 	H 	0.923	0.6271	0.6278	0.061
Mof_H 	H 	0.7738	0.6564	0.0942	0.088
Mof_H 	H 	0.0941	0.6596	0.7758	0.093
Mof_H 	H 	0.0942	0.7738	0.6564	0.088
Mof_H 	H 	0.2488	0.8797	0.0038	-0.007
Mof_C 	C 	0.37571	0.7331	0.73069	0.48
Mof_C 	C 	0.70367	0.42295	0.70448	-0.168
Mof_C 	C 	0.79457	0.15986	0.0603	0.196
Mof_C 	C 	0.91702	0.48461	0.70004	0.055
Mof_C 	C 	0.62202	0.68507	0.47202	-0.126
Mof_C 	C 	0.66523	0.45451	0.7314	0.073
Mof_C 	C 	0.22595	0.85014	0.00896	0.16
Mof_C 	C 	0.84458	0.17958	0.04763	-0.222
Mof_C 	C 	0.91643	0.47291	0.75496	-0.147
Mof_C 	C 	0.68814	0.75664	0.11124	-0.188
Mof_C 	C 	0.76958	0.95572	0.55775	-0.119
Mof_C 	C 	0.62111	0.97293	0.69012	0.031
Mof_C 	C 	0.03018	0.75128	0.17621	-0.215
Mof_C 	C 	0.57859	0.57764	0.64757	-0.089
Mof_C 	C 	0.70021	0.48404	0.91937	0.044
Mof_C 	C 	0.68857	0.03969	0.68868	0.013
Mof_C 	C 	0.95272	0.6428	0.64334	-0.092
Mof_C 	C 	0.93711	0.53284	0.67993	-0.114
Mof_C 	C 	0.80449	0.98004	0.2353	-0.241
Mof_C 	C 	0.97589	0.6185	0.68827	0.029
Mof_C 	C 	0.9329	0.8068	0.2723	0.519
Mof_C 	C 	0.0603	0.79457	0.15986	0.196
Mof_C 	C 	0.08665	0.71343	0.71304	0.103
Mof_C 	C 	0.20224	0.76144	0.98724	0.157
Mof_C 	C 	0.23111	0.97419	0.80823	-0.24
Mof_C 	C 	0.7476	0.1834	0.7497	-0.305
Mof_C 	C 	0.64661	0.5036	0.64897	0.061
Mof_C 	C 	0.21168	0.98703	0.75818	0.148
Mof_C 	C 	0.8031	0.9357	0.2732	0.496
Mof_C 	C 	0.7497	0.7476	0.1834	-0.305
Mof_C 	C 	0.15054	0.80978	0.05225	0.207
Mof_C 	C 	0.71116	0.01904	0.64171	-0.084
Mof_C 	C 	0.6367	0.49482	0.70369	-0.125
Mof_C 	C 	0.2373	0.7685	0.7532	0.786
Mof_C 	C 	0.6428	0.64334	0.95272	-0.092
Mof_C 	C 	0.05225	0.15054	0.80978	0.207
Mof_C 	C 	0.5093	0.78966	0.93606	0.065
Mof_C 	C 	0.73069	0.37571	0.7331	0.48
Mof_C 	C 	0.78905	0.50773	0.94211	0.055
Mof_C 	C 	0.7532	0.2373	0.7685	0.786
Mof_C 	C 	0.95589	0.76941	0.55835	-0.111
Mof_C 	C 	0.80978	0.05225	0.15054	0.207
Mof_C 	C 	0.5336	0.93649	0.68051	-0.107
Mof_C 	C 	0.97293	0.69012	0.62111	0.031
Mof_C 	C 	0.71357	0.43172	0.64978	0.073
Mof_C 	C 	0.70369	0.6367	0.49482	-0.125
Mof_C 	C 	0.68051	0.5336	0.93649	-0.107
Mof_C 	C 	0.18291	0.85283	0.0455	-0.229
Mof_C 	C 	0.47202	0.62202	0.68507	-0.126
Mof_C 	C 	0.45451	0.7314	0.66523	0.073
Mof_C 	C 	0.70472	0.77242	0.16072	0.176
Mof_C 	C 	0.11124	0.68814	0.75664	-0.188
Mof_C 	C 	0.55587	0.62485	0.62578	0.028
Mof_C 	C 	0.64978	0.71357	0.43172	0.073
Mof_C 	C 	0.64171	0.71116	0.01904	-0.084
Mof_C 	C 	0.2732	0.8031	0.9357	0.496
Mof_C 	C 	0.94211	0.78905	0.50773	0.055
Mof_C 	C 	0.5036	0.64897	0.64661	0.061
Mof_C 	C 	0.00896	0.22595	0.85014	0.16
Mof_C 	C 	0.97419	0.80823	0.23111	-0.24
Mof_C 	C 	0.70448	0.70367	0.42295	-0.168
Mof_C 	C 	0.50773	0.94211	0.78905	0.055
Mof_C 	C 	0.68507	0.47202	0.62202	-0.126
Mof_C 	C 	0.47291	0.75496	0.91643	-0.147
Mof_C 	C 	0.64397	0.01615	0.71329	-0.084
Mof_C 	C 	0.64757	0.57859	0.57764	-0.089
Mof_C 	C 	0.75664	0.11124	0.68814	-0.188
Mof_C 	C 	0.89882	0.77032	0.42002	0.395
Mof_C 	C 	0.17958	0.04763	0.84458	-0.222
Mof_C 	C 	0.68827	0.97589	0.6185	0.029
Mof_C 	C 	0.71304	0.08665	0.71343	0.103
Mof_C 	C 	0.85146	0.21486	0.00436	0.16
Mof_C 	C 	0.91937	0.70021	0.48404	0.044
Mof_C 	C 	0.0455	0.18291	0.85283	-0.229
Mof_C 	C 	0.69012	0.62111	0.97293	0.031
Mof_C 	C 	0.15986	0.0603	0.79457	0.196
Mof_C 	C 	0.71329	0.64397	0.01615	-0.084
Mof_C 	C 	0.98724	0.20224	0.76144	0.157
Mof_C 	C 	0.56945	0.71469	0.95628	0.055
Mof_C 	C 	0.76993	0.89623	0.42033	0.415
Mof_C 	C 	0.62485	0.62578	0.55587	0.028
Mof_C 	C 	0.9357	0.2732	0.8031	0.496
Mof_C 	C 	0.7314	0.66523	0.45451	0.073
Mof_C 	C 	0.2723	0.9329	0.8068	0.519
Mof_C 	C 	0.68868	0.68857	0.03969	0.013
Mof_C 	C 	0.94832	0.71588	0.57301	0.049
Mof_C 	C 	0.48461	0.70004	0.91702	0.055
Mof_C 	C 	0.75469	0.47081	0.92273	-0.132
Mof_C 	C 	0.62578	0.55587	0.62485	0.028
Mof_C 	C 	0.67993	0.93711	0.53284	-0.114
Mof_C 	C 	0.75128	0.17621	0.03018	-0.215
Mof_C 	C 	0.76144	0.98724	0.20224	0.157
Mof_C 	C 	0.00436	0.85146	0.21486	0.16
Mof_C 	C 	0.55775	0.76958	0.95572	-0.119
Mof_C 	C 	0.75818	0.21168	0.98703	0.148
Mof_C 	C 	0.7331	0.73069	0.37571	0.48
Mof_C 	C 	0.49482	0.70369	0.6367	-0.125
Mof_C 	C 	0.21486	0.00436	0.85146	0.16
Mof_C 	C 	0.95628	0.56945	0.71469	0.055
Mof_C 	C 	0.04763	0.84458	0.17958	-0.222
Mof_C 	C 	0.48404	0.91937	0.70021	0.044
Mof_C 	C 	0.75496	0.91643	0.47291	-0.147
Mof_C 	C 	0.68591	0.11121	0.75611	-0.174
Mof_C 	C 	0.17621	0.03018	0.75128	-0.215
Mof_C 	C 	0.57301	0.94832	0.71588	0.049
Mof_C 	C 	0.53284	0.67993	0.93711	-0.114
Mof_C 	C 	0.11121	0.75611	0.68591	-0.174
Mof_C 	C 	0.15929	0.76419	0.02381	-0.226
Mof_C 	C 	0.16057	0.77289	0.70191	0.148
Mof_C 	C 	0.01904	0.64171	0.71116	-0.084
Mof_C 	C 	0.78966	0.93606	0.5093	0.065
Mof_C 	C 	0.85014	0.00896	0.22595	0.16
Mof_C 	C 	0.2353	0.80449	0.98004	-0.241
Mof_C 	C 	0.77032	0.42002	0.89882	0.395
Mof_C 	C 	0.57764	0.64757	0.57859	-0.089
Mof_C 	C 	0.75611	0.68591	0.11121	-0.174
Mof_C 	C 	0.76419	0.02381	0.15929	-0.226
Mof_C 	C 	0.98004	0.2353	0.80449	-0.241
Mof_C 	C 	0.16072	0.70472	0.77242	0.176
Mof_C 	C 	0.76941	0.55835	0.95589	-0.111
Mof_C 	C 	0.71588	0.57301	0.94832	0.049
Mof_C 	C 	0.64334	0.95272	0.6428	-0.092
Mof_C 	C 	0.8068	0.2723	0.9329	0.519
Mof_C 	C 	0.89623	0.42033	0.76993	0.415
Mof_C 	C 	0.93606	0.5093	0.78966	0.065
Mof_C 	C 	0.47081	0.92273	0.75469	-0.132
Mof_C 	C 	0.70191	0.16057	0.77289	0.148
Mof_C 	C 	0.55835	0.95589	0.76941	-0.111
Mof_C 	C 	0.71343	0.71304	0.08665	0.103
Mof_C 	C 	0.42033	0.76993	0.89623	0.415
Mof_C 	C 	0.92273	0.75469	0.47081	-0.132
Mof_C 	C 	0.42295	0.70448	0.70367	-0.168
Mof_C 	C 	0.71469	0.95628	0.56945	0.055
Mof_C 	C 	0.93649	0.68051	0.5336	-0.107
Mof_C 	C 	0.77289	0.70191	0.16057	0.148
Mof_C 	C 	0.77242	0.16072	0.70472	0.176
Mof_C 	C 	0.98703	0.75818	0.21168	0.148
Mof_C 	C 	0.42002	0.89882	0.77032	0.395
Mof_C 	C 	0.85283	0.0455	0.18291	-0.229
Mof_C 	C 	0.80823	0.23111	0.97419	-0.24
Mof_C 	C 	0.01615	0.71329	0.64397	-0.084
Mof_C 	C 	0.03969	0.68868	0.68857	0.013
Mof_C 	C 	0.70004	0.91702	0.48461	0.055
Mof_C 	C 	0.7685	0.7532	0.2373	0.786
Mof_C 	C 	0.6185	0.68827	0.97589	0.029
Mof_C 	C 	0.02381	0.15929	0.76419	-0.226
Mof_C 	C 	0.64897	0.64661	0.5036	0.061
Mof_C 	C 	0.1834	0.7497	0.7476	-0.305
Mof_C 	C 	0.95572	0.55775	0.76958	-0.119
Mof_C 	C 	0.43172	0.64978	0.71357	0.073
Mof_N 	N 	0.81258	0.08875	0.10761	-0.107
Mof_N 	N 	0.12433	0.1028	0.77932	-0.101
Mof_N 	N 	0.77932	0.12433	0.1028	-0.101
Mof_N 	N 	0.1028	0.77932	0.12433	-0.101
Mof_N 	N 	0.08875	0.10761	0.81258	-0.107
Mof_N 	N 	0.10761	0.81258	0.08875	-0.107
Mof_O 	O 	0.84752	0.92392	0.29492	-0.408
Mof_O 	O 	0.25139	0.74299	0.79399	-0.474
Mof_O 	O 	0.79399	0.25139	0.74299	-0.474
Mof_O 	O 	0.84599	0.29389	0.92369	-0.454
Mof_O 	O 	0.76358	0.91048	0.28028	-0.432
Mof_O 	O 	0.91048	0.28028	0.76358	-0.432
Mof_O 	O 	0.77459	0.36022	0.71411	-0.416
Mof_O 	O 	0.41346	0.90429	0.82328	-0.363
Mof_O 	O 	0.38733	0.74102	0.88164	-0.437
Mof_O 	O 	0.28223	0.91103	0.76093	-0.411
Mof_O 	O 	0.73932	0.38853	0.88154	-0.422
Mof_O 	O 	0.74102	0.88164	0.38733	-0.437
Mof_O 	O 	0.29389	0.92369	0.84599	-0.454
Mof_O 	O 	0.71411	0.77459	0.36022	-0.416
Mof_O 	O 	0.90164	0.41348	0.82396	-0.367
Mof_O 	O 	0.82075	0.33542	0.82076	-0.546
Mof_O 	O 	0.25236	0.80297	0.7382	-0.636
Mof_O 	O 	0.71451	0.3594	0.77576	-0.44
Mof_O 	O 	0.92369	0.84599	0.29389	-0.454
Mof_O 	O 	0.74299	0.79399	0.25139	-0.474
Mof_O 	O 	0.38853	0.88154	0.73932	-0.422
Mof_O 	O 	0.91103	0.76093	0.28223	-0.411
Mof_O 	O 	0.33542	0.82076	0.82075	-0.546
Mof_O 	O 	0.82328	0.41346	0.90429	-0.363
Mof_O 	O 	0.92392	0.29492	0.84752	-0.408
Mof_O 	O 	0.82076	0.82075	0.33542	-0.546
Mof_O 	O 	0.80297	0.7382	0.25236	-0.636
Mof_O 	O 	0.3594	0.77576	0.71451	-0.44
Mof_O 	O 	0.88154	0.73932	0.38853	-0.422
Mof_O 	O 	0.7382	0.25236	0.80297	-0.636
Mof_O 	O 	0.36022	0.71411	0.77459	-0.416
Mof_O 	O 	0.90429	0.82328	0.41346	-0.363
Mof_O 	O 	0.76093	0.28223	0.91103	-0.411
Mof_O 	O 	0.88164	0.38733	0.74102	-0.437
Mof_O 	O 	0.77576	0.71451	0.3594	-0.44
Mof_O 	O 	0.29492	0.84752	0.92392	-0.408
Mof_O 	O 	0.41348	0.82396	0.90164	-0.367
Mof_O 	O 	0.82396	0.90164	0.41348	-0.367
Mof_O 	O 	0.28028	0.76358	0.91048	-0.432
_end
