data_functionalizedCrystal
_audit_creation_method	'EQeq! by Chris Wilmer'
_symmetry_space_group_name_H-M	'P1'
_symmetry_Int_Tables_number	1
_symmetry_cell_setting	triclinic
loop_
_symmetry_equiv_pos_as_xyz
  x,y,z
_cell_length_a	14.6026
_cell_length_b	16.6301
_cell_length_c	16.6617
_cell_angle_alpha	90
_cell_angle_beta	90
_cell_angle_gamma	90
loop_
_atom_site_label
_atom_site_type_symbol
_atom_site_fract_x
_atom_site_fract_y
_atom_site_fract_z
_atom_site_charge
Mof_O 	O 	0.6316	0.9657	0.6362	-0.839
Mof_O 	O 	0.6045	0.0657	0.7218	-0.778
Mof_O 	O 	0.8554	0.7486	0.7253	-0.566
Mof_O 	O 	0.9335	0.78	0.8335	-0.703
Mof_C 	C 	0.7338	0.9702	0.987	11.441
Mof_H 	H 	0.7799	0.9494	0.0074	-3.858
Mof_H 	H 	0.6823	0.9453	0.0127	-2.817
Mof_O 	O 	0.5541	0.096	0.5235	-0.801
Mof_O 	O 	0.4553	0.1446	0.6151	-0.685
Mof_O 	O 	0.2742	0.4265	0.4155	-0.599
Mof_O 	O 	0.2686	0.3848	0.5358	-0.518
Mof_C 	C 	0.4637	0.2316	0.2622	3.97
Mof_H 	H 	0.436	0.2777	0.2374	-1.067
Mof_H 	H 	0.4362	0.1851	0.2381	-1.116
Mof_C 	C 	0.6361	0.9975	0.7035	1.257
Mof_C 	C 	0.8695	0.7947	0.7871	1.233
Mof_C 	C 	0.6863	0.9541	0.768	-2.256
Mof_C 	C 	0.7461	0.8912	0.7491	2.372
Mof_H 	H 	0.7499	0.8724	0.6966	-0.697
Mof_C 	C 	0.799	0.8574	0.8075	-2.688
Mof_C 	C 	0.7877	0.8802	0.8879	5.061
Mof_H 	H 	0.8191	0.8571	0.9242	-1.967
Mof_C 	C 	0.7269	0.9388	0.9084	-6.361
Mof_C 	C 	0.6812	0.9817	0.8468	3.634
Mof_H 	H 	0.6481	0.0278	0.8589	-1.351
Mof_C 	C 	0.4899	0.1426	0.5437	0.974
Mof_C 	C 	0.2986	0.3805	0.4659	0.693
Mof_C 	C 	0.4506	0.1941	0.4827	-1.265
Mof_C 	C 	0.3911	0.2575	0.5043	0.903
Mof_H 	H 	0.3753	0.2655	0.5578	-0.238
Mof_C 	C 	0.3556	0.3087	0.4442	-0.934
Mof_C 	C 	0.3788	0.2932	0.3642	1.508
Mof_H 	H 	0.3549	0.3257	0.3239	-0.421
Mof_C 	C 	0.4359	0.2313	0.3438	-2.416
Mof_C 	C 	0.476	0.1871	0.4033	2.038
Mof_H 	H 	0.5182	0.1541	0.3909	-0.834
Mof_O 	O 	0.7338	0.0298	0.013	-6.739
Mof_O 	O 	0.5363	0.2316	0.2378	-2.92
Mof_O 	O 	0.1316	0.4657	0.6362	-0.804
Mof_O 	O 	0.1045	0.5657	0.7218	-0.851
Mof_O 	O 	0.3554	0.2486	0.7253	-0.602
Mof_O 	O 	0.4335	0.28	0.8335	-0.734
Mof_C 	C 	0.2338	0.4702	0.987	10.456
Mof_H 	H 	0.2799	0.4494	0.0074	-3.491
Mof_H 	H 	0.1823	0.4453	0.0127	-2.547
Mof_O 	O 	0.0541	0.596	0.5235	-0.898
Mof_O 	O 	0.9553	0.6446	0.6151	-0.7
Mof_O 	O 	0.7742	0.9265	0.4155	-0.705
Mof_O 	O 	0.7686	0.8848	0.5358	-0.593
Mof_C 	C 	0.9637	0.7316	0.2622	5.707
Mof_H 	H 	0.936	0.7777	0.2374	-1.555
Mof_H 	H 	0.9362	0.6851	0.2381	-1.607
Mof_C 	C 	0.1361	0.4975	0.7035	1.333
Mof_C 	C 	0.3695	0.2947	0.7871	1.191
Mof_C 	C 	0.1863	0.4541	0.768	-2.233
Mof_C 	C 	0.2461	0.3912	0.7491	2.272
Mof_H 	H 	0.2499	0.3724	0.6966	-0.677
Mof_C 	C 	0.299	0.3574	0.8075	-2.553
Mof_C 	C 	0.2877	0.3802	0.8879	4.731
Mof_H 	H 	0.3191	0.3571	0.9242	-1.845
Mof_C 	C 	0.2269	0.4388	0.9084	-5.925
Mof_C 	C 	0.1812	0.4817	0.8468	3.601
Mof_H 	H 	0.1481	0.5278	0.8589	-1.399
Mof_C 	C 	0.9899	0.6426	0.5437	1.263
Mof_C 	C 	0.7986	0.8805	0.4659	0.864
Mof_C 	C 	0.9506	0.6941	0.4827	-1.831
Mof_C 	C 	0.8911	0.7575	0.5043	1.349
Mof_H 	H 	0.8753	0.7655	0.5578	-0.377
Mof_C 	C 	0.8556	0.8087	0.4442	-1.352
Mof_C 	C 	0.8788	0.7932	0.3642	2.241
Mof_H 	H 	0.8549	0.8257	0.3239	-0.66
Mof_C 	C 	0.9359	0.7313	0.3438	-3.544
Mof_C 	C 	0.976	0.6871	0.4033	3.17
Mof_H 	H 	0.0182	0.6541	0.3909	-1.349
Mof_O 	O 	0.2338	0.5298	0.013	-6.083
Mof_O 	O 	0.0363	0.7316	0.2378	-3.956
Mof_O 	O 	0.3684	0.0343	0.1362	-0.747
Mof_O 	O 	0.3955	0.9343	0.2218	-0.73
Mof_O 	O 	0.1446	0.2514	0.2253	-0.29
Mof_O 	O 	0.0665	0.22	0.3335	-0.43
Mof_C 	C 	0.2662	0.0298	0.487	-2.252
Mof_H 	H 	0.2201	0.0506	0.5074	0.906
Mof_H 	H 	0.3177	0.0547	0.5127	0.682
Mof_O 	O 	0.4459	0.904	0.0235	-1.151
Mof_O 	O 	0.5447	0.8554	0.1151	-0.956
Mof_O 	O 	0.7258	0.5735	0.9155	-0.867
Mof_O 	O 	0.7314	0.6152	0.0358	-0.372
Mof_C 	C 	0.5363	0.7684	0.7622	6.696
Mof_H 	H 	0.564	0.7223	0.7374	-1.891
Mof_H 	H 	0.5638	0.8149	0.7381	-1.884
Mof_C 	C 	0.3639	0.0025	0.2035	0.635
Mof_C 	C 	0.1305	0.2053	0.2871	0.149
Mof_C 	C 	0.3137	0.0459	0.268	0.102
Mof_C 	C 	0.2539	0.1088	0.2491	-0.244
Mof_H 	H 	0.2501	0.1276	0.1966	0.18
Mof_C 	C 	0.201	0.1426	0.3075	0.367
Mof_C 	C 	0.2123	0.1198	0.3879	-0.92
Mof_H 	H 	0.1809	0.1429	0.4242	0.393
Mof_C 	C 	0.2731	0.0612	0.4084	1.087
Mof_C 	C 	0.3188	0.0183	0.3468	-0.464
Mof_H 	H 	0.3519	0.9722	0.3589	0.157
Mof_C 	C 	0.5101	0.8574	0.0437	2.442
Mof_C 	C 	0.7014	0.6195	0.9659	0.829
Mof_C 	C 	0.5494	0.8059	0.9827	-3.921
Mof_C 	C 	0.6089	0.7425	0.0043	3.654
Mof_H 	H 	0.6247	0.7345	0.0578	-1.064
Mof_C 	C 	0.6444	0.6913	0.9442	-2.734
Mof_C 	C 	0.6212	0.7068	0.8642	3.434
Mof_H 	H 	0.6451	0.6743	0.8239	-1.074
Mof_C 	C 	0.5641	0.7687	0.8438	-4.881
Mof_C 	C 	0.524	0.8129	0.9033	4.87
Mof_H 	H 	0.4818	0.8459	0.8909	-2.058
Mof_O 	O 	0.2662	0.9702	0.513	0.73
Mof_O 	O 	0.4637	0.7684	0.7378	-4.125
Mof_O 	O 	0.8684	0.5343	0.1362	-0.703
Mof_O 	O 	0.8955	0.4343	0.2218	-0.603
Mof_O 	O 	0.6446	0.7514	0.2253	-0.29
Mof_O 	O 	0.5665	0.72	0.3335	-0.432
Mof_C 	C 	0.7662	0.5298	0.487	-1.375
Mof_H 	H 	0.7201	0.5506	0.5074	0.571
Mof_H 	H 	0.8177	0.5547	0.5127	0.433
Mof_O 	O 	0.9459	0.404	0.0235	-0.941
Mof_O 	O 	0.0447	0.3554	0.1151	-0.842
Mof_O 	O 	0.2258	0.0735	0.9155	-0.799
Mof_O 	O 	0.2314	0.1152	0.0358	-0.36
Mof_C 	C 	0.0363	0.2684	0.7622	4.423
Mof_H 	H 	0.064	0.2223	0.7374	-1.252
Mof_H 	H 	0.0638	0.3149	0.7381	-1.239
Mof_C 	C 	0.8639	0.5025	0.2035	0.544
Mof_C 	C 	0.6305	0.7053	0.2871	0.19
Mof_C 	C 	0.8137	0.5459	0.268	0.091
Mof_C 	C 	0.7539	0.6088	0.2491	-0.162
Mof_H 	H 	0.7501	0.6276	0.1966	0.17
Mof_C 	C 	0.701	0.6426	0.3075	0.255
Mof_C 	C 	0.7123	0.6198	0.3879	-0.63
Mof_H 	H 	0.6809	0.6429	0.4242	0.294
Mof_C 	C 	0.7731	0.5612	0.4084	0.709
Mof_C 	C 	0.8188	0.5183	0.3468	-0.406
Mof_H 	H 	0.8519	0.4722	0.3589	0.185
Mof_C 	C 	0.0101	0.3574	0.0437	1.963
Mof_C 	C 	0.2014	0.1195	0.9659	0.629
Mof_C 	C 	0.0494	0.3059	0.9827	-3.041
Mof_C 	C 	0.1089	0.2425	0.0043	2.936
Mof_H 	H 	0.1247	0.2345	0.0578	-0.837
Mof_C 	C 	0.1444	0.1913	0.9442	-2.118
Mof_C 	C 	0.1212	0.2068	0.8642	2.424
Mof_H 	H 	0.1451	0.1743	0.8239	-0.747
Mof_C 	C 	0.0641	0.2687	0.8438	-3.356
Mof_C 	C 	0.024	0.3129	0.9033	3.316
Mof_H 	H 	0.9818	0.3459	0.8909	-1.352
Mof_O 	O 	0.7662	0.4702	0.513	0.24
Mof_O 	O 	0.9637	0.2684	0.7378	-2.801
Mof_O 	O 	0.3684	0.9657	0.8638	-0.852
Mof_O 	O 	0.3955	0.0657	0.7782	-0.581
Mof_O 	O 	0.1446	0.7486	0.7747	-0.526
Mof_O 	O 	0.0665	0.78	0.6665	-0.504
Mof_H 	H 	0.2201	0.9494	0.4926	-0.14
Mof_H 	H 	0.3177	0.9453	0.4873	-0.082
Mof_O 	O 	0.4459	0.096	0.9765	-0.802
Mof_O 	O 	0.5447	0.1446	0.8849	-0.366
Mof_O 	O 	0.7258	0.4265	0.0845	-0.582
Mof_O 	O 	0.7314	0.3848	0.9642	-0.923
Mof_H 	H 	0.564	0.2777	0.2626	0.717
Mof_H 	H 	0.5638	0.1851	0.2619	0.718
Mof_C 	C 	0.3639	0.9975	0.7965	0.568
Mof_C 	C 	0.1305	0.7947	0.7129	0.365
Mof_C 	C 	0.3137	0.9541	0.732	-0.276
Mof_C 	C 	0.2539	0.8912	0.7509	0.154
Mof_H 	H 	0.2501	0.8724	0.8034	-0.058
Mof_C 	C 	0.201	0.8574	0.6925	-0.248
Mof_C 	C 	0.2123	0.8802	0.6121	0.218
Mof_H 	H 	0.1809	0.8571	0.5758	-0.063
Mof_C 	C 	0.2731	0.9388	0.5916	-0.347
Mof_C 	C 	0.3188	0.9817	0.6532	0.043
Mof_H 	H 	0.3519	0.0278	0.6411	0.049
Mof_C 	C 	0.5101	0.1426	0.9563	-0.515
Mof_C 	C 	0.7014	0.3805	0.0341	0.415
Mof_C 	C 	0.5494	0.1941	0.0173	2.154
Mof_C 	C 	0.6089	0.2575	0.9957	-2.332
Mof_H 	H 	0.6247	0.2655	0.9422	0.755
Mof_C 	C 	0.6444	0.3087	0.0558	1.468
Mof_C 	C 	0.6212	0.2932	0.1358	-1.682
Mof_H 	H 	0.6451	0.3257	0.1761	0.603
Mof_C 	C 	0.5641	0.2313	0.1562	2.199
Mof_C 	C 	0.524	0.1871	0.0967	-2.397
Mof_H 	H 	0.4818	0.1541	0.1091	1.086
Mof_O 	O 	0.8684	0.4657	0.8638	-0.821
Mof_O 	O 	0.8955	0.5657	0.7782	-0.614
Mof_O 	O 	0.6446	0.2486	0.7747	-0.515
Mof_O 	O 	0.5665	0.28	0.6665	-0.484
Mof_H 	H 	0.7201	0.4494	0.4926	0.031
Mof_H 	H 	0.8177	0.4453	0.4873	0.037
Mof_O 	O 	0.9459	0.596	0.9765	-0.688
Mof_O 	O 	0.0447	0.6446	0.8849	-0.304
Mof_O 	O 	0.2258	0.9265	0.0845	-0.614
Mof_O 	O 	0.2314	0.8848	0.9642	-0.958
Mof_H 	H 	0.064	0.7777	0.2626	0.922
Mof_H 	H 	0.0638	0.6851	0.2619	0.939
Mof_C 	C 	0.8639	0.4975	0.7965	0.683
Mof_C 	C 	0.6305	0.2947	0.7129	0.35
Mof_C 	C 	0.8137	0.4541	0.732	-0.287
Mof_C 	C 	0.7539	0.3912	0.7509	0.153
Mof_H 	H 	0.7501	0.3724	0.8034	-0.041
Mof_C 	C 	0.701	0.3574	0.6925	-0.185
Mof_C 	C 	0.7123	0.3802	0.6121	0.096
Mof_H 	H 	0.6809	0.3571	0.5758	-0.002
Mof_C 	C 	0.7731	0.4388	0.5916	-0.166
Mof_C 	C 	0.8188	0.4817	0.6532	0.143
Mof_H 	H 	0.8519	0.5278	0.6411	-0.013
Mof_C 	C 	0.0101	0.6426	0.9563	-0.793
Mof_C 	C 	0.2014	0.8805	0.0341	0.338
Mof_C 	C 	0.0494	0.6941	0.0173	2.611
Mof_C 	C 	0.1089	0.7575	0.9957	-2.687
Mof_H 	H 	0.1247	0.7655	0.9422	0.866
Mof_C 	C 	0.1444	0.8087	0.0558	1.744
Mof_C 	C 	0.1212	0.7932	0.1358	-2.125
Mof_H 	H 	0.1451	0.8257	0.1761	0.738
Mof_C 	C 	0.0641	0.7313	0.1562	2.87
Mof_C 	C 	0.024	0.6871	0.0967	-3.179
Mof_H 	H 	0.9818	0.6541	0.1091	1.465
Mof_O 	O 	0.6316	0.0343	0.3638	-0.53
Mof_O 	O 	0.6045	0.9343	0.2782	-0.586
Mof_O 	O 	0.8554	0.2514	0.2747	-0.315
Mof_O 	O 	0.9335	0.22	0.1665	-0.242
Mof_H 	H 	0.7799	0.0506	0.9926	1.738
Mof_H 	H 	0.6823	0.0547	0.9873	1.134
Mof_O 	O 	0.5541	0.904	0.4765	-0.646
Mof_O 	O 	0.4553	0.8554	0.3849	-0.544
Mof_O 	O 	0.2742	0.5735	0.5845	-0.463
Mof_O 	O 	0.2686	0.6152	0.4642	-0.436
Mof_H 	H 	0.436	0.7223	0.7626	0.94
Mof_H 	H 	0.4362	0.8149	0.7619	1.006
Mof_C 	C 	0.6361	0.0025	0.2965	0.301
Mof_C 	C 	0.8695	0.2053	0.2129	-0.186
Mof_C 	C 	0.6863	0.0459	0.232	0.89
Mof_C 	C 	0.7461	0.1088	0.2509	-1.123
Mof_H 	H 	0.7499	0.1276	0.3034	0.42
Mof_C 	C 	0.799	0.1426	0.1925	1.328
Mof_C 	C 	0.7877	0.1198	0.1121	-2.749
Mof_H 	H 	0.8191	0.1429	0.0758	1.215
Mof_C 	C 	0.7269	0.0612	0.0916	3.501
Mof_C 	C 	0.6812	0.0183	0.1532	-1.807
Mof_H 	H 	0.6481	0.9722	0.1411	0.806
Mof_C 	C 	0.4899	0.8574	0.4563	0.264
Mof_C 	C 	0.2986	0.6195	0.5341	0.142
Mof_C 	C 	0.4506	0.8059	0.5173	0.647
Mof_C 	C 	0.3911	0.7425	0.4957	-0.594
Mof_H 	H 	0.3753	0.7345	0.4422	0.239
Mof_C 	C 	0.3556	0.6913	0.5558	0.566
Mof_C 	C 	0.3788	0.7068	0.6358	-1.294
Mof_H 	H 	0.3549	0.6743	0.6761	0.45
Mof_C 	C 	0.4359	0.7687	0.6562	2.086
Mof_C 	C 	0.476	0.8129	0.5967	-1.643
Mof_H 	H 	0.5182	0.8459	0.6091	0.77
Mof_O 	O 	0.1316	0.5343	0.3638	-0.491
Mof_O 	O 	0.1045	0.4343	0.2782	-0.49
Mof_O 	O 	0.3554	0.7514	0.2747	-0.371
Mof_O 	O 	0.4335	0.72	0.1665	-0.315
Mof_H 	H 	0.2799	0.5506	0.9926	1.485
Mof_H 	H 	0.1823	0.5547	0.9873	0.961
Mof_O 	O 	0.0541	0.404	0.4765	-0.688
Mof_O 	O 	0.9553	0.3554	0.3849	-0.53
Mof_O 	O 	0.7742	0.0735	0.5845	-0.476
Mof_O 	O 	0.7686	0.1152	0.4642	-0.464
Mof_H 	H 	0.936	0.2223	0.7626	0.68
Mof_H 	H 	0.9362	0.3149	0.7619	0.723
Mof_C 	C 	0.1361	0.5025	0.2965	0.163
Mof_C 	C 	0.3695	0.7053	0.2129	-0.157
Mof_C 	C 	0.1863	0.5459	0.232	0.892
Mof_C 	C 	0.2461	0.6088	0.2509	-1.104
Mof_H 	H 	0.2499	0.6276	0.3034	0.4
Mof_C 	C 	0.299	0.6426	0.1925	1.238
Mof_C 	C 	0.2877	0.6198	0.1121	-2.571
Mof_H 	H 	0.3191	0.6429	0.0758	1.138
Mof_C 	C 	0.2269	0.5612	0.0916	3.257
Mof_C 	C 	0.1812	0.5183	0.1532	-1.85
Mof_H 	H 	0.1481	0.4722	0.1411	0.846
Mof_C 	C 	0.9899	0.3574	0.4563	0.49
Mof_C 	C 	0.7986	0.1195	0.5341	0.254
Mof_C 	C 	0.9506	0.3059	0.5173	0.225
Mof_C 	C 	0.8911	0.2425	0.4957	-0.277
Mof_H 	H 	0.8753	0.2345	0.4422	0.143
Mof_C 	C 	0.8556	0.1913	0.5558	0.29
Mof_C 	C 	0.8788	0.2068	0.6358	-0.792
Mof_H 	H 	0.8549	0.1743	0.6761	0.299
Mof_C 	C 	0.9359	0.2687	0.6562	1.301
Mof_C 	C 	0.976	0.3129	0.5967	-0.784
Mof_H 	H 	0.0182	0.3459	0.6091	0.356
Mof_Sm	Sm	0.5	0.16801	0.75	2.69
Mof_Sm	Sm	-3.0303e-33	0.66801	0.75	2.507
Mof_Sm	Sm	0.5	0.83199	0.25	2.726
Mof_Sm	Sm	1.06952e-33	0.33199	0.25	2.453
Mof_Sm	Sm	0.66213	-6.23887e-33	0.5	3.089
Mof_Sm	Sm	0.16213	0.5	0.5	2.837
Mof_Sm	Sm	0.33787	0	-0	4.411
Mof_Sm	Sm	0.83787	0.5	-0	4.173
_end
