data_functionalizedCrystal
_audit_creation_method	'EQeq! by Chris Wilmer'
_symmetry_space_group_name_H-M	'P1'
_symmetry_Int_Tables_number	1
_symmetry_cell_setting	triclinic
loop_
_symmetry_equiv_pos_as_xyz
  x,y,z
_cell_length_a	18.5846
_cell_length_b	20.815
_cell_length_c	20.815
_cell_angle_alpha	90
_cell_angle_beta	90
_cell_angle_gamma	90
loop_
_atom_site_label
_atom_site_type_symbol
_atom_site_fract_x
_atom_site_fract_y
_atom_site_fract_z
_atom_site_charge
Mof_Cd	Cd	0.61257	0.68545	0.6386	0.507
Mof_Cd	Cd	0.79406	0.49527	0.59339	0.477
Mof_Cd	Cd	0.44545	0.48276	0.5597	0.483
Mof_Cd	Cd	0.61257	0.81455	0.8614	0.507
Mof_Cd	Cd	0.79406	0.00473	0.90661	0.476
Mof_Cd	Cd	0.44545	0.01724	0.9403	0.482
Mof_Cd	Cd	0.11257	0.3614	0.18545	0.507
Mof_Cd	Cd	0.29406	0.40661	0.99527	0.477
Mof_Cd	Cd	0.94545	0.4403	0.98276	0.482
Mof_Cd	Cd	0.11257	0.1386	0.31455	0.507
Mof_Cd	Cd	0.29406	0.09339	0.50473	0.476
Mof_Cd	Cd	0.94545	0.0597	0.51724	0.481
Mof_Cd	Cd	0.38743	0.31455	0.3614	0.506
Mof_Cd	Cd	0.20594	0.50473	0.40661	0.476
Mof_Cd	Cd	0.55455	0.51724	0.4403	0.482
Mof_Cd	Cd	0.38743	0.18545	0.1386	0.506
Mof_Cd	Cd	0.20594	0.99527	0.09339	0.475
Mof_Cd	Cd	0.55455	0.98276	0.0597	0.481
Mof_Cd	Cd	0.88743	0.6386	0.81455	0.506
Mof_Cd	Cd	0.70594	0.59339	0.00473	0.476
Mof_Cd	Cd	0.05455	0.5597	0.01724	0.481
Mof_Cd	Cd	0.88743	0.8614	0.68545	0.506
Mof_Cd	Cd	0.70594	0.90661	0.49527	0.476
Mof_Cd	Cd	0.05455	0.9403	0.48276	0.481
Mof_Cd	Cd	0.75	0.75	0.75	0.474
Mof_Cd	Cd	0.25	0.25	0.25	0.474
Mof_P 	P 	0.79473	0.63362	0.6713	0.418
Mof_P 	P 	0.61876	0.529	0.58459	0.426
Mof_P 	P 	0.79473	0.86638	0.8287	0.418
Mof_P 	P 	0.61876	0.971	0.91541	0.427
Mof_P 	P 	0.29473	0.3287	0.13362	0.418
Mof_P 	P 	0.11876	0.41541	0.029	0.425
Mof_P 	P 	0.29473	0.1713	0.36638	0.418
Mof_P 	P 	0.11876	0.08459	0.471	0.426
Mof_P 	P 	0.20527	0.36638	0.3287	0.418
Mof_P 	P 	0.38124	0.471	0.41541	0.426
Mof_P 	P 	0.20527	0.13362	0.1713	0.418
Mof_P 	P 	0.38124	0.029	0.08459	0.427
Mof_P 	P 	0.70527	0.6713	0.86638	0.418
Mof_P 	P 	0.88124	0.58459	0.971	0.425
Mof_P 	P 	0.70527	0.8287	0.63362	0.418
Mof_P 	P 	0.88124	0.91541	0.529	0.426
Mof_H 	H 	0.8077	0.6125	0.4734	0.092
Mof_H 	H 	0.8899	0.6293	0.4718	0.069
Mof_H 	H 	0.919	0.5195	0.4656	0.032
Mof_H 	H 	0.8673	0.5376	0.4084	0.039
Mof_H 	H 	0.8204	0.4272	0.4058	0.055
Mof_H 	H 	0.8743	0.4095	0.4612	0.046
Mof_H 	H 	0.7778	0.3422	0.4658	0.062
Mof_H 	H 	0.725	0.4012	0.4699	0.079
Mof_H 	H 	0.7199	0.3108	0.5614	0.049
Mof_H 	H 	0.7672	0.3265	0.622	0.038
Mof_H 	H 	0.6448	0.3947	0.5825	0.114
Mof_H 	H 	0.6507	0.3534	0.6452	0.093
Mof_H 	H 	0.7278	0.4655	0.744	0.085
Mof_H 	H 	0.6886	0.3989	0.7408	0.068
Mof_H 	H 	0.7908	0.3467	0.712	0.028
Mof_H 	H 	0.8163	0.3945	0.766	0.04
Mof_H 	H 	0.9379	0.4349	0.7171	0.082
Mof_H 	H 	0.9224	0.3637	0.6959	0.054
Mof_H 	H 	0.9414	0.3855	0.593	0.048
Mof_H 	H 	0.0035	0.4219	0.6286	0.046
Mof_H 	H 	0.9294	0.5422	0.6649	0.064
Mof_H 	H 	0.0046	0.5361	0.6307	0.048
Mof_H 	H 	0.9652	0.592	0.543	0.075
Mof_H 	H 	0.9435	0.6329	0.603	0.088
Mof_H 	H 	0.8425	0.6863	0.5823	0.115
Mof_H 	H 	0.7711	0.6513	0.5629	0.121
Mof_H 	H 	0.596	0.4625	0.6709	0.112
Mof_H 	H 	0.6491	0.5172	0.6914	0.112
Mof_H 	H 	0.8077	0.8875	0.0266	0.092
Mof_H 	H 	0.8899	0.8707	0.0282	0.069
Mof_H 	H 	0.919	0.9805	0.0344	0.033
Mof_H 	H 	0.8673	0.9624	0.0916	0.039
Mof_H 	H 	0.8204	0.0728	0.0942	0.055
Mof_H 	H 	0.8743	0.0905	0.0388	0.047
Mof_H 	H 	0.7778	0.1578	0.0342	0.061
Mof_H 	H 	0.725	0.0988	0.0301	0.079
Mof_H 	H 	0.7199	0.1892	0.9386	0.048
Mof_H 	H 	0.7672	0.1735	0.878	0.038
Mof_H 	H 	0.6448	0.1053	0.9175	0.114
Mof_H 	H 	0.6507	0.1466	0.8548	0.093
Mof_H 	H 	0.7278	0.0345	0.756	0.085
Mof_H 	H 	0.6886	0.1011	0.7592	0.068
Mof_H 	H 	0.7908	0.1533	0.788	0.028
Mof_H 	H 	0.8163	0.1055	0.734	0.04
Mof_H 	H 	0.9379	0.0651	0.7829	0.081
Mof_H 	H 	0.9224	0.1363	0.8041	0.054
Mof_H 	H 	0.9414	0.1145	0.907	0.048
Mof_H 	H 	0.0035	0.0781	0.8714	0.048
Mof_H 	H 	0.9294	0.9578	0.8351	0.064
Mof_H 	H 	0.0046	0.9639	0.8693	0.048
Mof_H 	H 	0.9652	0.908	0.957	0.075
Mof_H 	H 	0.9435	0.8671	0.897	0.088
Mof_H 	H 	0.8425	0.8137	0.9177	0.115
Mof_H 	H 	0.7711	0.8487	0.9371	0.121
Mof_H 	H 	0.596	0.0375	0.8291	0.113
Mof_H 	H 	0.6491	0.9828	0.8086	0.113
Mof_H 	H 	0.3077	0.5266	0.1125	0.092
Mof_H 	H 	0.3899	0.5282	0.1293	0.069
Mof_H 	H 	0.419	0.5344	0.0195	0.032
Mof_H 	H 	0.3673	0.5916	0.0376	0.039
Mof_H 	H 	0.3204	0.5942	0.9272	0.055
Mof_H 	H 	0.3743	0.5388	0.9095	0.047
Mof_H 	H 	0.2778	0.5342	0.8422	0.062
Mof_H 	H 	0.225	0.5301	0.9012	0.079
Mof_H 	H 	0.2199	0.4386	0.8108	0.049
Mof_H 	H 	0.2672	0.378	0.8265	0.038
Mof_H 	H 	0.1448	0.4175	0.8947	0.114
Mof_H 	H 	0.1507	0.3548	0.8534	0.093
Mof_H 	H 	0.2278	0.256	0.9655	0.085
Mof_H 	H 	0.1886	0.2592	0.8989	0.068
Mof_H 	H 	0.2908	0.288	0.8467	0.028
Mof_H 	H 	0.3163	0.234	0.8945	0.04
Mof_H 	H 	0.4379	0.2829	0.9349	0.082
Mof_H 	H 	0.4224	0.3041	0.8637	0.055
Mof_H 	H 	0.4414	0.407	0.8855	0.048
Mof_H 	H 	0.5035	0.3714	0.9219	0.046
Mof_H 	H 	0.4294	0.3351	0.0422	0.064
Mof_H 	H 	0.5046	0.3693	0.0361	0.048
Mof_H 	H 	0.4652	0.457	0.092	0.075
Mof_H 	H 	0.4435	0.397	0.1329	0.088
Mof_H 	H 	0.3425	0.4177	0.1863	0.115
Mof_H 	H 	0.2711	0.4371	0.1513	0.121
Mof_H 	H 	0.096	0.3291	0.9625	0.112
Mof_H 	H 	0.1491	0.3086	0.0172	0.111
Mof_H 	H 	0.3077	0.9734	0.3875	0.092
Mof_H 	H 	0.3899	0.9718	0.3707	0.069
Mof_H 	H 	0.419	0.9656	0.4805	0.032
Mof_H 	H 	0.3673	0.9084	0.4624	0.039
Mof_H 	H 	0.3204	0.9058	0.5728	0.055
Mof_H 	H 	0.3743	0.9612	0.5905	0.046
Mof_H 	H 	0.2778	0.9658	0.6578	0.062
Mof_H 	H 	0.225	0.9699	0.5988	0.079
Mof_H 	H 	0.2199	0.0614	0.6892	0.049
Mof_H 	H 	0.2672	0.122	0.6735	0.038
Mof_H 	H 	0.1448	0.0825	0.6053	0.114
Mof_H 	H 	0.1507	0.1452	0.6466	0.093
Mof_H 	H 	0.2278	0.244	0.5345	0.085
Mof_H 	H 	0.1886	0.2408	0.6011	0.068
Mof_H 	H 	0.2908	0.212	0.6533	0.028
Mof_H 	H 	0.3163	0.266	0.6055	0.04
Mof_H 	H 	0.4379	0.2171	0.5651	0.082
Mof_H 	H 	0.4224	0.1959	0.6363	0.055
Mof_H 	H 	0.4414	0.093	0.6145	0.048
Mof_H 	H 	0.5035	0.1286	0.5781	0.046
Mof_H 	H 	0.4294	0.1649	0.4578	0.064
Mof_H 	H 	0.5046	0.1307	0.4639	0.048
Mof_H 	H 	0.4652	0.043	0.408	0.075
Mof_H 	H 	0.4435	0.103	0.3671	0.088
Mof_H 	H 	0.3425	0.0823	0.3137	0.115
Mof_H 	H 	0.2711	0.0629	0.3487	0.121
Mof_H 	H 	0.096	0.1709	0.5375	0.112
Mof_H 	H 	0.1491	0.1914	0.4828	0.112
Mof_H 	H 	0.1923	0.3875	0.5266	0.092
Mof_H 	H 	0.1101	0.3707	0.5282	0.069
Mof_H 	H 	0.081	0.4805	0.5344	0.032
Mof_H 	H 	0.1327	0.4624	0.5916	0.039
Mof_H 	H 	0.1796	0.5728	0.5942	0.055
Mof_H 	H 	0.1257	0.5905	0.5388	0.046
Mof_H 	H 	0.2222	0.6578	0.5342	0.062
Mof_H 	H 	0.275	0.5988	0.5301	0.079
Mof_H 	H 	0.2801	0.6892	0.4386	0.049
Mof_H 	H 	0.2328	0.6735	0.378	0.038
Mof_H 	H 	0.3552	0.6053	0.4175	0.114
Mof_H 	H 	0.3493	0.6466	0.3548	0.093
Mof_H 	H 	0.2722	0.5345	0.256	0.085
Mof_H 	H 	0.3114	0.6011	0.2592	0.068
Mof_H 	H 	0.2092	0.6533	0.288	0.028
Mof_H 	H 	0.1837	0.6055	0.234	0.04
Mof_H 	H 	0.0621	0.5651	0.2829	0.082
Mof_H 	H 	0.0776	0.6363	0.3041	0.054
Mof_H 	H 	0.0586	0.6145	0.407	0.048
Mof_H 	H 	0.9965	0.5781	0.3714	0.046
Mof_H 	H 	0.0706	0.4578	0.3351	0.064
Mof_H 	H 	0.9954	0.4639	0.3693	0.048
Mof_H 	H 	0.0348	0.408	0.457	0.075
Mof_H 	H 	0.0565	0.3671	0.397	0.088
Mof_H 	H 	0.1575	0.3137	0.4177	0.115
Mof_H 	H 	0.2289	0.3487	0.4371	0.121
Mof_H 	H 	0.404	0.5375	0.3291	0.112
Mof_H 	H 	0.3509	0.4828	0.3086	0.112
Mof_H 	H 	0.1923	0.1125	0.9734	0.092
Mof_H 	H 	0.1101	0.1293	0.9718	0.069
Mof_H 	H 	0.081	0.0195	0.9656	0.033
Mof_H 	H 	0.1327	0.0376	0.9084	0.039
Mof_H 	H 	0.1796	0.9272	0.9058	0.055
Mof_H 	H 	0.1257	0.9095	0.9612	0.047
Mof_H 	H 	0.2222	0.8422	0.9658	0.061
Mof_H 	H 	0.275	0.9012	0.9699	0.079
Mof_H 	H 	0.2801	0.8108	0.0614	0.048
Mof_H 	H 	0.2328	0.8265	0.122	0.038
Mof_H 	H 	0.3552	0.8947	0.0825	0.114
Mof_H 	H 	0.3493	0.8534	0.1452	0.093
Mof_H 	H 	0.2722	0.9655	0.244	0.085
Mof_H 	H 	0.3114	0.8989	0.2408	0.068
Mof_H 	H 	0.2092	0.8467	0.212	0.028
Mof_H 	H 	0.1837	0.8945	0.266	0.04
Mof_H 	H 	0.0621	0.9349	0.2171	0.081
Mof_H 	H 	0.0776	0.8637	0.1959	0.054
Mof_H 	H 	0.0586	0.8855	0.093	0.048
Mof_H 	H 	0.9965	0.9219	0.1286	0.048
Mof_H 	H 	0.0706	0.0422	0.1649	0.064
Mof_H 	H 	0.9954	0.0361	0.1307	0.048
Mof_H 	H 	0.0348	0.092	0.043	0.075
Mof_H 	H 	0.0565	0.1329	0.103	0.088
Mof_H 	H 	0.1575	0.1863	0.0823	0.115
Mof_H 	H 	0.2289	0.1513	0.0629	0.121
Mof_H 	H 	0.404	0.9625	0.1709	0.113
Mof_H 	H 	0.3509	0.0172	0.1914	0.113
Mof_H 	H 	0.6923	0.4734	0.8875	0.092
Mof_H 	H 	0.6101	0.4718	0.8707	0.069
Mof_H 	H 	0.581	0.4656	0.9805	0.032
Mof_H 	H 	0.6327	0.4084	0.9624	0.039
Mof_H 	H 	0.6796	0.4058	0.0728	0.055
Mof_H 	H 	0.6257	0.4612	0.0905	0.047
Mof_H 	H 	0.7222	0.4658	0.1578	0.062
Mof_H 	H 	0.775	0.4699	0.0988	0.079
Mof_H 	H 	0.7801	0.5614	0.1892	0.049
Mof_H 	H 	0.7328	0.622	0.1735	0.038
Mof_H 	H 	0.8552	0.5825	0.1053	0.114
Mof_H 	H 	0.8493	0.6452	0.1466	0.093
Mof_H 	H 	0.7722	0.744	0.0345	0.085
Mof_H 	H 	0.8114	0.7408	0.1011	0.068
Mof_H 	H 	0.7092	0.712	0.1533	0.028
Mof_H 	H 	0.6837	0.766	0.1055	0.04
Mof_H 	H 	0.5621	0.7171	0.0651	0.082
Mof_H 	H 	0.5776	0.6959	0.1363	0.055
Mof_H 	H 	0.5586	0.593	0.1145	0.048
Mof_H 	H 	0.4965	0.6286	0.0781	0.046
Mof_H 	H 	0.5706	0.6649	0.9578	0.064
Mof_H 	H 	0.4954	0.6307	0.9639	0.048
Mof_H 	H 	0.5348	0.543	0.908	0.075
Mof_H 	H 	0.5565	0.603	0.8671	0.088
Mof_H 	H 	0.6575	0.5823	0.8137	0.115
Mof_H 	H 	0.7289	0.5629	0.8487	0.121
Mof_H 	H 	0.904	0.6709	0.0375	0.112
Mof_H 	H 	0.8509	0.6914	0.9828	0.111
Mof_H 	H 	0.6923	0.0266	0.6125	0.092
Mof_H 	H 	0.6101	0.0282	0.6293	0.069
Mof_H 	H 	0.581	0.0344	0.5195	0.032
Mof_H 	H 	0.6327	0.0916	0.5376	0.039
Mof_H 	H 	0.6796	0.0942	0.4272	0.055
Mof_H 	H 	0.6257	0.0388	0.4095	0.046
Mof_H 	H 	0.7222	0.0342	0.3422	0.062
Mof_H 	H 	0.775	0.0301	0.4012	0.079
Mof_H 	H 	0.7801	0.9386	0.3108	0.049
Mof_H 	H 	0.7328	0.878	0.3265	0.038
Mof_H 	H 	0.8552	0.9175	0.3947	0.114
Mof_H 	H 	0.8493	0.8548	0.3534	0.093
Mof_H 	H 	0.7722	0.756	0.4655	0.085
Mof_H 	H 	0.8114	0.7592	0.3989	0.068
Mof_H 	H 	0.7092	0.788	0.3467	0.028
Mof_H 	H 	0.6837	0.734	0.3945	0.04
Mof_H 	H 	0.5621	0.7829	0.4349	0.082
Mof_H 	H 	0.5776	0.8041	0.3637	0.055
Mof_H 	H 	0.5586	0.907	0.3855	0.048
Mof_H 	H 	0.4965	0.8714	0.4219	0.046
Mof_H 	H 	0.5706	0.8351	0.5422	0.064
Mof_H 	H 	0.4954	0.8693	0.5361	0.048
Mof_H 	H 	0.5348	0.957	0.592	0.075
Mof_H 	H 	0.5565	0.897	0.6329	0.088
Mof_H 	H 	0.6575	0.9177	0.6863	0.115
Mof_H 	H 	0.7289	0.9371	0.6513	0.121
Mof_H 	H 	0.904	0.8291	0.4625	0.112
Mof_H 	H 	0.8509	0.8086	0.5172	0.112
Mof_C 	C 	0.8551	0.5979	0.4864	-0.127
Mof_C 	C 	0.8708	0.5337	0.4548	0.052
Mof_C 	C 	0.8268	0.4264	0.452	0.006
Mof_C 	C 	0.7728	0.386	0.481	-0.028
Mof_C 	C 	0.7383	0.3453	0.588	0.037
Mof_C 	C 	0.6772	0.3817	0.6166	-0.139
Mof_C 	C 	0.7245	0.4256	0.72	-0.116
Mof_C 	C 	0.7963	0.3917	0.7231	0.039
Mof_C 	C 	0.9164	0.4084	0.6839	-0.025
Mof_C 	C 	0.9519	0.4207	0.622	-0.002
Mof_C 	C 	0.9531	0.5375	0.6237	0.019
Mof_C 	C 	0.9339	0.5931	0.5803	-0.112
Mof_C 	C 	0.8157	0.6465	0.5866	-0.229
Mof_C 	C 	0.6386	0.4861	0.6579	-0.23
Mof_C 	C 	0.8551	0.9021	0.0136	-0.126
Mof_C 	C 	0.8708	0.9663	0.0452	0.051
Mof_C 	C 	0.8268	0.0736	0.048	0.005
Mof_C 	C 	0.7728	0.114	0.019	-0.026
Mof_C 	C 	0.7383	0.1547	0.912	0.037
Mof_C 	C 	0.6772	0.1183	0.8834	-0.139
Mof_C 	C 	0.7245	0.0744	0.78	-0.116
Mof_C 	C 	0.7963	0.1083	0.7769	0.039
Mof_C 	C 	0.9164	0.0916	0.8161	-0.024
Mof_C 	C 	0.9519	0.0793	0.878	-0.004
Mof_C 	C 	0.9531	0.9625	0.8763	0.02
Mof_C 	C 	0.9339	0.9069	0.9197	-0.112
Mof_C 	C 	0.8157	0.8535	0.9134	-0.229
Mof_C 	C 	0.6386	0.0139	0.8421	-0.232
Mof_C 	C 	0.3551	0.5136	0.0979	-0.126
Mof_C 	C 	0.3708	0.5452	0.0337	0.051
Mof_C 	C 	0.3268	0.548	0.9264	0.006
Mof_C 	C 	0.2728	0.519	0.886	-0.028
Mof_C 	C 	0.2383	0.412	0.8453	0.037
Mof_C 	C 	0.1772	0.3834	0.8817	-0.139
Mof_C 	C 	0.2245	0.28	0.9256	-0.116
Mof_C 	C 	0.2963	0.2769	0.8917	0.039
Mof_C 	C 	0.4164	0.3161	0.9084	-0.026
Mof_C 	C 	0.4519	0.378	0.9207	-0.001
Mof_C 	C 	0.4531	0.3763	0.0375	0.019
Mof_C 	C 	0.4339	0.4197	0.0931	-0.112
Mof_C 	C 	0.3157	0.4134	0.1465	-0.229
Mof_C 	C 	0.1386	0.3421	0.9861	-0.229
Mof_C 	C 	0.3551	0.9864	0.4021	-0.127
Mof_C 	C 	0.3708	0.9548	0.4663	0.052
Mof_C 	C 	0.3268	0.952	0.5736	0.006
Mof_C 	C 	0.2728	0.981	0.614	-0.029
Mof_C 	C 	0.2383	0.088	0.6547	0.037
Mof_C 	C 	0.1772	0.1166	0.6183	-0.139
Mof_C 	C 	0.2245	0.22	0.5744	-0.116
Mof_C 	C 	0.2963	0.2231	0.6083	0.039
Mof_C 	C 	0.4164	0.1839	0.5916	-0.026
Mof_C 	C 	0.4519	0.122	0.5793	-0.001
Mof_C 	C 	0.4531	0.1237	0.4625	0.019
Mof_C 	C 	0.4339	0.0803	0.4069	-0.112
Mof_C 	C 	0.3157	0.0866	0.3535	-0.229
Mof_C 	C 	0.1386	0.1579	0.5139	-0.23
Mof_C 	C 	0.1449	0.4021	0.5136	-0.127
Mof_C 	C 	0.1292	0.4663	0.5452	0.052
Mof_C 	C 	0.1732	0.5736	0.548	0.006
Mof_C 	C 	0.2272	0.614	0.519	-0.028
Mof_C 	C 	0.2617	0.6547	0.412	0.037
Mof_C 	C 	0.3228	0.6183	0.3834	-0.139
Mof_C 	C 	0.2755	0.5744	0.28	-0.116
Mof_C 	C 	0.2037	0.6083	0.2769	0.039
Mof_C 	C 	0.0836	0.5916	0.3161	-0.025
Mof_C 	C 	0.0481	0.5793	0.378	-0.002
Mof_C 	C 	0.0469	0.4625	0.3763	0.019
Mof_C 	C 	0.0661	0.4069	0.4197	-0.112
Mof_C 	C 	0.1843	0.3535	0.4134	-0.229
Mof_C 	C 	0.3614	0.5139	0.3421	-0.23
Mof_C 	C 	0.1449	0.0979	0.9864	-0.126
Mof_C 	C 	0.1292	0.0337	0.9548	0.051
Mof_C 	C 	0.1732	0.9264	0.952	0.005
Mof_C 	C 	0.2272	0.886	0.981	-0.026
Mof_C 	C 	0.2617	0.8453	0.088	0.037
Mof_C 	C 	0.3228	0.8817	0.1166	-0.139
Mof_C 	C 	0.2755	0.9256	0.22	-0.116
Mof_C 	C 	0.2037	0.8917	0.2231	0.039
Mof_C 	C 	0.0836	0.9084	0.1839	-0.024
Mof_C 	C 	0.0481	0.9207	0.122	-0.004
Mof_C 	C 	0.0469	0.0375	0.1237	0.02
Mof_C 	C 	0.0661	0.0931	0.0803	-0.112
Mof_C 	C 	0.1843	0.1465	0.0866	-0.229
Mof_C 	C 	0.3614	0.9861	0.1579	-0.232
Mof_C 	C 	0.6449	0.4864	0.9021	-0.126
Mof_C 	C 	0.6292	0.4548	0.9663	0.051
Mof_C 	C 	0.6732	0.452	0.0736	0.006
Mof_C 	C 	0.7272	0.481	0.114	-0.028
Mof_C 	C 	0.7617	0.588	0.1547	0.037
Mof_C 	C 	0.8228	0.6166	0.1183	-0.139
Mof_C 	C 	0.7755	0.72	0.0744	-0.116
Mof_C 	C 	0.7037	0.7231	0.1083	0.039
Mof_C 	C 	0.5836	0.6839	0.0916	-0.026
Mof_C 	C 	0.5481	0.622	0.0793	-0.001
Mof_C 	C 	0.5469	0.6237	0.9625	0.019
Mof_C 	C 	0.5661	0.5803	0.9069	-0.112
Mof_C 	C 	0.6843	0.5866	0.8535	-0.229
Mof_C 	C 	0.8614	0.6579	0.0139	-0.229
Mof_C 	C 	0.6449	0.0136	0.5979	-0.127
Mof_C 	C 	0.6292	0.0452	0.5337	0.052
Mof_C 	C 	0.6732	0.048	0.4264	0.006
Mof_C 	C 	0.7272	0.019	0.386	-0.029
Mof_C 	C 	0.7617	0.912	0.3453	0.037
Mof_C 	C 	0.8228	0.8834	0.3817	-0.139
Mof_C 	C 	0.7755	0.78	0.4256	-0.116
Mof_C 	C 	0.7037	0.7769	0.3917	0.039
Mof_C 	C 	0.5836	0.8161	0.4084	-0.026
Mof_C 	C 	0.5481	0.878	0.4207	-0.001
Mof_C 	C 	0.5469	0.8763	0.5375	0.019
Mof_C 	C 	0.5661	0.9197	0.5931	-0.112
Mof_C 	C 	0.6843	0.9134	0.6465	-0.229
Mof_C 	C 	0.8614	0.8421	0.4861	-0.23
Mof_N 	N 	0.8579	0.5937	0.5579	-0.058
Mof_N 	N 	0.7	0.4403	0.6534	-0.058
Mof_N 	N 	0.8579	0.9063	0.9421	-0.058
Mof_N 	N 	0.7	0.0597	0.8466	-0.058
Mof_N 	N 	0.3579	0.4421	0.0937	-0.058
Mof_N 	N 	0.2	0.3466	0.9403	-0.058
Mof_N 	N 	0.3579	0.0579	0.4063	-0.058
Mof_N 	N 	0.2	0.1534	0.5597	-0.058
Mof_N 	N 	0.1421	0.4063	0.4421	-0.058
Mof_N 	N 	0.3	0.5597	0.3466	-0.058
Mof_N 	N 	0.1421	0.0937	0.0579	-0.058
Mof_N 	N 	0.3	0.9403	0.1534	-0.058
Mof_N 	N 	0.6421	0.5579	0.9063	-0.058
Mof_N 	N 	0.8	0.6534	0.0597	-0.058
Mof_N 	N 	0.6421	0.9421	0.5937	-0.058
Mof_N 	N 	0.8	0.8466	0.4403	-0.058
Mof_O 	O 	0.8205	0.49	0.4772	-0.182
Mof_O 	O 	0.783	0.3884	0.549	-0.183
Mof_O 	O 	0.8425	0.423	0.678	-0.175
Mof_O 	O 	0.9295	0.4803	0.5924	-0.185
Mof_O 	O 	0.793	0.5618	0.682	-0.251
Mof_O 	O 	0.7219	0.6664	0.6841	-0.292
Mof_O 	O 	0.852	0.6674	0.7121	-0.252
Mof_O 	O 	0.5792	0.5893	0.6055	-0.251
Mof_O 	O 	0.6907	0.5416	0.5525	-0.245
Mof_O 	O 	0.5698	0.488	0.5424	-0.278
Mof_O 	O 	0.5001	0.7287	0.6157	-0.116
Mof_O 	O 	0.6429	0.7078	0.5341	-0.149
Mof_O 	O 	0.5626	0.6682	0.7377	-0.142
Mof_O 	O 	0.4341	0.5801	0.5841	-0.144
Mof_O 	O 	0.3247	0.468	0.5723	-0.147
Mof_O 	O 	0.4836	0.3879	0.5904	-0.156
Mof_O 	O 	0.8205	0.01	0.0228	-0.181
Mof_O 	O 	0.783	0.1116	0.951	-0.184
Mof_O 	O 	0.8425	0.077	0.822	-0.176
Mof_O 	O 	0.9295	0.0197	0.9076	-0.186
Mof_O 	O 	0.793	0.9382	0.818	-0.251
Mof_O 	O 	0.7219	0.8336	0.8159	-0.292
Mof_O 	O 	0.852	0.8326	0.7879	-0.252
Mof_O 	O 	0.5792	0.9107	0.8945	-0.252
Mof_O 	O 	0.6907	0.9584	0.9475	-0.245
Mof_O 	O 	0.5698	0.012	0.9576	-0.279
Mof_O 	O 	0.5001	0.7713	0.8843	-0.116
Mof_O 	O 	0.6429	0.7922	0.9659	-0.149
Mof_O 	O 	0.5626	0.8318	0.7623	-0.142
Mof_O 	O 	0.4341	0.9199	0.9159	-0.144
Mof_O 	O 	0.3247	0.032	0.9277	-0.147
Mof_O 	O 	0.4836	0.1121	0.9096	-0.156
Mof_O 	O 	0.3205	0.5228	0.99	-0.181
Mof_O 	O 	0.283	0.451	0.8884	-0.183
Mof_O 	O 	0.3425	0.322	0.923	-0.175
Mof_O 	O 	0.4295	0.4076	0.9803	-0.185
Mof_O 	O 	0.293	0.318	0.0618	-0.251
Mof_O 	O 	0.2219	0.3159	0.1664	-0.292
Mof_O 	O 	0.352	0.2879	0.1674	-0.252
Mof_O 	O 	0.0792	0.3945	0.0893	-0.252
Mof_O 	O 	0.1907	0.4475	0.0416	-0.245
Mof_O 	O 	0.0698	0.4576	0.988	-0.277
Mof_O 	O 	0.0001	0.3843	0.2287	-0.116
Mof_O 	O 	0.1429	0.4659	0.2078	-0.149
Mof_O 	O 	0.0626	0.2623	0.1682	-0.142
Mof_O 	O 	0.9341	0.4159	0.0801	-0.144
Mof_O 	O 	0.8247	0.4277	0.968	-0.148
Mof_O 	O 	0.9836	0.4096	0.8879	-0.157
Mof_O 	O 	0.3205	0.9772	0.51	-0.182
Mof_O 	O 	0.283	0.049	0.6116	-0.183
Mof_O 	O 	0.3425	0.178	0.577	-0.175
Mof_O 	O 	0.4295	0.0924	0.5197	-0.185
Mof_O 	O 	0.293	0.182	0.4382	-0.251
Mof_O 	O 	0.2219	0.1841	0.3336	-0.292
Mof_O 	O 	0.352	0.2121	0.3326	-0.252
Mof_O 	O 	0.0792	0.1055	0.4107	-0.251
Mof_O 	O 	0.1907	0.0525	0.4584	-0.245
Mof_O 	O 	0.0698	0.0424	0.512	-0.277
Mof_O 	O 	0.0001	0.1157	0.2713	-0.116
Mof_O 	O 	0.1429	0.0341	0.2922	-0.148
Mof_O 	O 	0.0626	0.2377	0.3318	-0.142
Mof_O 	O 	0.9341	0.0841	0.4199	-0.144
Mof_O 	O 	0.8247	0.0723	0.532	-0.147
Mof_O 	O 	0.9836	0.0904	0.6121	-0.156
Mof_O 	O 	0.1795	0.51	0.5228	-0.182
Mof_O 	O 	0.217	0.6116	0.451	-0.183
Mof_O 	O 	0.1575	0.577	0.322	-0.175
Mof_O 	O 	0.0705	0.5197	0.4076	-0.185
Mof_O 	O 	0.207	0.4382	0.318	-0.251
Mof_O 	O 	0.2781	0.3336	0.3159	-0.292
Mof_O 	O 	0.148	0.3326	0.2879	-0.252
Mof_O 	O 	0.4208	0.4107	0.3945	-0.251
Mof_O 	O 	0.3093	0.4584	0.4475	-0.245
Mof_O 	O 	0.4302	0.512	0.4576	-0.278
Mof_O 	O 	0.4999	0.2713	0.3843	-0.116
Mof_O 	O 	0.3571	0.2922	0.4659	-0.149
Mof_O 	O 	0.4374	0.3318	0.2623	-0.142
Mof_O 	O 	0.5659	0.4199	0.4159	-0.144
Mof_O 	O 	0.6753	0.532	0.4277	-0.147
Mof_O 	O 	0.5164	0.6121	0.4096	-0.156
Mof_O 	O 	0.1795	0.99	0.9772	-0.181
Mof_O 	O 	0.217	0.8884	0.049	-0.184
Mof_O 	O 	0.1575	0.923	0.178	-0.176
Mof_O 	O 	0.0705	0.9803	0.0924	-0.186
Mof_O 	O 	0.207	0.0618	0.182	-0.251
Mof_O 	O 	0.2781	0.1664	0.1841	-0.292
Mof_O 	O 	0.148	0.1674	0.2121	-0.252
Mof_O 	O 	0.4208	0.0893	0.1055	-0.252
Mof_O 	O 	0.3093	0.0416	0.0525	-0.245
Mof_O 	O 	0.4302	0.988	0.0424	-0.279
Mof_O 	O 	0.4999	0.2287	0.1157	-0.116
Mof_O 	O 	0.3571	0.2078	0.0341	-0.149
Mof_O 	O 	0.4374	0.1682	0.2377	-0.142
Mof_O 	O 	0.5659	0.0801	0.0841	-0.144
Mof_O 	O 	0.6753	0.968	0.0723	-0.147
Mof_O 	O 	0.5164	0.8879	0.0904	-0.156
Mof_O 	O 	0.6795	0.4772	0.01	-0.181
Mof_O 	O 	0.717	0.549	0.1116	-0.183
Mof_O 	O 	0.6575	0.678	0.077	-0.175
Mof_O 	O 	0.5705	0.5924	0.0197	-0.185
Mof_O 	O 	0.707	0.682	0.9382	-0.251
Mof_O 	O 	0.7781	0.6841	0.8336	-0.292
Mof_O 	O 	0.648	0.7121	0.8326	-0.252
Mof_O 	O 	0.9208	0.6055	0.9107	-0.252
Mof_O 	O 	0.8093	0.5525	0.9584	-0.245
Mof_O 	O 	0.9302	0.5424	0.012	-0.277
Mof_O 	O 	0.9999	0.6157	0.7713	-0.116
Mof_O 	O 	0.8571	0.5341	0.7922	-0.149
Mof_O 	O 	0.9374	0.7377	0.8318	-0.142
Mof_O 	O 	0.0659	0.5841	0.9199	-0.144
Mof_O 	O 	0.1753	0.5723	0.032	-0.148
Mof_O 	O 	0.0164	0.5904	0.1121	-0.157
Mof_O 	O 	0.6795	0.0228	0.49	-0.182
Mof_O 	O 	0.717	0.951	0.3884	-0.183
Mof_O 	O 	0.6575	0.822	0.423	-0.175
Mof_O 	O 	0.5705	0.9076	0.4803	-0.185
Mof_O 	O 	0.707	0.818	0.5618	-0.251
Mof_O 	O 	0.7781	0.8159	0.6664	-0.292
Mof_O 	O 	0.648	0.7879	0.6674	-0.252
Mof_O 	O 	0.9208	0.8945	0.5893	-0.251
Mof_O 	O 	0.8093	0.9475	0.5416	-0.245
Mof_O 	O 	0.9302	0.9576	0.488	-0.277
Mof_O 	O 	0.9999	0.8843	0.7287	-0.116
Mof_O 	O 	0.8571	0.9659	0.7078	-0.148
Mof_O 	O 	0.9374	0.7623	0.6682	-0.142
Mof_O 	O 	0.0659	0.9159	0.5801	-0.144
Mof_O 	O 	0.1753	0.9277	0.468	-0.147
Mof_O 	O 	0.0164	0.9096	0.3879	-0.156
Mof_N 	N 	0.5757	0.241	0.9711	0.052
Mof_O 	O 	0.619	0.2812	0.9865	-0.117
Mof_O 	O 	0.5605	0.2361	0.9122	-0.118
Mof_O 	O 	0.565	0.1967	0.0032	-0.079
Mof_N 	N 	0.5757	0.259	0.5289	0.052
Mof_O 	O 	0.619	0.2188	0.5135	-0.116
Mof_O 	O 	0.5605	0.2639	0.5878	-0.118
Mof_O 	O 	0.565	0.3033	0.4968	-0.08
Mof_N 	N 	0.0757	0.0289	0.741	0.052
Mof_O 	O 	0.119	0.0135	0.7812	-0.116
Mof_O 	O 	0.0605	0.0878	0.7361	-0.118
Mof_O 	O 	0.065	0.9968	0.6967	-0.08
Mof_N 	N 	0.0757	0.4711	0.759	0.052
Mof_O 	O 	0.119	0.4865	0.7188	-0.116
Mof_O 	O 	0.0605	0.4122	0.7639	-0.118
Mof_O 	O 	0.065	0.5032	0.8033	-0.08
Mof_N 	N 	0.4243	0.759	0.0289	0.052
Mof_O 	O 	0.381	0.7188	0.0135	-0.117
Mof_O 	O 	0.4395	0.7639	0.0878	-0.118
Mof_O 	O 	0.435	0.8033	0.9968	-0.079
Mof_N 	N 	0.4243	0.741	0.4711	0.052
Mof_O 	O 	0.381	0.7812	0.4865	-0.116
Mof_O 	O 	0.4395	0.7361	0.4122	-0.118
Mof_O 	O 	0.435	0.6967	0.5032	-0.08
Mof_N 	N 	0.9243	0.9711	0.259	0.052
Mof_O 	O 	0.881	0.9865	0.2188	-0.116
Mof_O 	O 	0.9395	0.9122	0.2639	-0.118
Mof_O 	O 	0.935	0.0032	0.3033	-0.08
Mof_N 	N 	0.9243	0.5289	0.241	0.052
Mof_O 	O 	0.881	0.5135	0.2812	-0.116
Mof_O 	O 	0.9395	0.5878	0.2361	-0.118
Mof_O 	O 	0.935	0.4968	0.1967	-0.08
_end
