data_functionalizedCrystal
_audit_creation_method	'EQeq! by Chris Wilmer'
_symmetry_space_group_name_H-M	'P1'
_symmetry_Int_Tables_number	1
_symmetry_cell_setting	triclinic
loop_
_symmetry_equiv_pos_as_xyz
  x,y,z
_cell_length_a	14.14
_cell_length_b	11.319
_cell_length_c	16.6
_cell_angle_alpha	90
_cell_angle_beta	90
_cell_angle_gamma	90
loop_
_atom_site_label
_atom_site_type_symbol
_atom_site_fract_x
_atom_site_fract_y
_atom_site_fract_z
_atom_site_charge
Mof_Mn	Mn	0.6118	0.4661	0.5563	0.943
Mof_O 	O 	0.8014	0.524	0.9476	-0.309
Mof_O 	O 	0.7842	0.381	0.037	-0.3
Mof_O 	O 	0.6092	0.296	0.6352	-0.26
Mof_O 	O 	0.4832	0.052	0.8644	-0.301
Mof_C 	C 	0.638	0.29	0.939	0.005
Mof_H 	H 	0.6306	0.2786	0.9946	0.055
Mof_O 	O 	0.4982	0.122	0.9913	-0.356
Mof_C 	C 	0.762	0.423	0.974	0.294
Mof_C 	C 	0.705	0.398	0.829	-0.002
Mof_H 	H 	0.7472	0.4547	0.8094	0.074
Mof_C 	C 	0.652	0.368	0.689	0.248
Mof_C 	C 	0.699	0.371	0.911	-0.05
Mof_C 	C 	0.519	0.133	0.917	0.27
Mof_O 	O 	0.7042	0.448	0.6632	-0.287
Mof_C 	C 	0.596	0.244	0.803	0.003
Mof_H 	H 	0.5666	0.1943	0.7654	0.072
Mof_C 	C 	0.586	0.221	0.883	-0.053
Mof_C 	C 	0.645	0.335	0.778	-0.033
Mof_Mn	Mn	0.8882	0.5339	0.0563	0.944
Mof_O 	O 	0.6986	0.476	0.4476	-0.309
Mof_O 	O 	0.7158	0.619	0.537	-0.301
Mof_O 	O 	0.8908	0.704	0.1352	-0.261
Mof_O 	O 	0.0168	0.948	0.3644	-0.295
Mof_C 	C 	0.862	0.71	0.439	0.002
Mof_H 	H 	0.8694	0.7214	0.4946	0.055
Mof_O 	O 	0.0018	0.878	0.4913	-0.352
Mof_C 	C 	0.738	0.577	0.474	0.293
Mof_C 	C 	0.795	0.602	0.329	-0.004
Mof_H 	H 	0.7528	0.5453	0.3094	0.075
Mof_C 	C 	0.848	0.632	0.189	0.247
Mof_C 	C 	0.801	0.629	0.411	-0.048
Mof_C 	C 	0.981	0.867	0.417	0.259
Mof_O 	O 	0.7958	0.552	0.1632	-0.287
Mof_C 	C 	0.904	0.756	0.303	-0
Mof_H 	H 	0.9334	0.8057	0.2654	0.073
Mof_C 	C 	0.914	0.779	0.383	-0.049
Mof_C 	C 	0.855	0.665	0.278	-0.032
Mof_Mn	Mn	0.3882	0.9661	0.9437	0.931
Mof_O 	O 	0.1986	0.024	0.5524	-0.311
Mof_O 	O 	0.2158	0.881	0.463	-0.299
Mof_O 	O 	0.3908	0.796	0.8648	-0.262
Mof_O 	O 	0.5168	0.552	0.6356	-0.305
Mof_C 	C 	0.362	0.79	0.561	0.006
Mof_H 	H 	0.3694	0.7786	0.5054	0.054
Mof_O 	O 	0.5018	0.622	0.5087	-0.361
Mof_C 	C 	0.238	0.923	0.526	0.297
Mof_C 	C 	0.295	0.898	0.671	-0.001
Mof_H 	H 	0.2528	0.9547	0.6906	0.074
Mof_C 	C 	0.348	0.868	0.811	0.248
Mof_C 	C 	0.301	0.871	0.589	-0.051
Mof_C 	C 	0.481	0.633	0.583	0.272
Mof_O 	O 	0.2958	0.948	0.8368	-0.287
Mof_C 	C 	0.404	0.744	0.697	0.005
Mof_H 	H 	0.4334	0.6943	0.7346	0.071
Mof_C 	C 	0.414	0.721	0.617	-0.055
Mof_C 	C 	0.355	0.835	0.722	-0.035
Mof_Mn	Mn	0.1118	0.0339	0.4437	0.933
Mof_O 	O 	0.3014	0.976	0.0524	-0.296
Mof_O 	O 	0.2842	0.119	0.963	-0.289
Mof_O 	O 	0.1092	0.204	0.3648	-0.262
Mof_O 	O 	0.9832	0.448	0.1356	-0.301
Mof_C 	C 	0.138	0.21	0.061	-0.001
Mof_H 	H 	0.1306	0.2214	0.0054	0.054
Mof_O 	O 	0.9982	0.378	0.0087	-0.357
Mof_C 	C 	0.262	0.077	0.026	0.273
Mof_C 	C 	0.205	0.102	0.171	-0.007
Mof_H 	H 	0.2472	0.0453	0.1906	0.074
Mof_C 	C 	0.152	0.132	0.311	0.246
Mof_C 	C 	0.199	0.129	0.089	-0.044
Mof_C 	C 	0.019	0.367	0.083	0.264
Mof_O 	O 	0.2042	0.052	0.3368	-0.289
Mof_C 	C 	0.096	0.256	0.197	-0
Mof_H 	H 	0.0666	0.3057	0.2346	0.072
Mof_C 	C 	0.086	0.279	0.117	-0.05
Mof_C 	C 	0.145	0.165	0.222	-0.032
Mof_Mn	Mn	0.3882	0.5339	0.4437	0.942
Mof_O 	O 	0.1986	0.476	0.0524	-0.31
Mof_O 	O 	0.2158	0.619	0.963	-0.301
Mof_O 	O 	0.3908	0.704	0.3648	-0.261
Mof_O 	O 	0.5168	0.948	0.1356	-0.301
Mof_C 	C 	0.362	0.71	0.061	0.005
Mof_H 	H 	0.3694	0.7214	0.0054	0.055
Mof_O 	O 	0.5018	0.878	0.0087	-0.356
Mof_C 	C 	0.238	0.577	0.026	0.294
Mof_C 	C 	0.295	0.602	0.171	-0.002
Mof_H 	H 	0.2528	0.5453	0.1906	0.074
Mof_C 	C 	0.348	0.632	0.311	0.248
Mof_C 	C 	0.301	0.629	0.089	-0.05
Mof_C 	C 	0.481	0.867	0.083	0.27
Mof_O 	O 	0.2958	0.552	0.3368	-0.287
Mof_C 	C 	0.404	0.756	0.197	0.003
Mof_H 	H 	0.4334	0.8057	0.2346	0.072
Mof_C 	C 	0.414	0.779	0.117	-0.053
Mof_C 	C 	0.355	0.665	0.222	-0.033
Mof_Mn	Mn	0.1118	0.4661	0.9437	0.944
Mof_O 	O 	0.3014	0.524	0.5524	-0.309
Mof_O 	O 	0.2842	0.381	0.463	-0.301
Mof_O 	O 	0.1092	0.296	0.8648	-0.261
Mof_O 	O 	0.9832	0.052	0.6356	-0.295
Mof_C 	C 	0.138	0.29	0.561	0.002
Mof_H 	H 	0.1306	0.2786	0.5054	0.055
Mof_O 	O 	0.9982	0.122	0.5087	-0.352
Mof_C 	C 	0.262	0.423	0.526	0.293
Mof_C 	C 	0.205	0.398	0.671	-0.004
Mof_H 	H 	0.2472	0.4547	0.6906	0.075
Mof_C 	C 	0.152	0.368	0.811	0.247
Mof_C 	C 	0.199	0.371	0.589	-0.048
Mof_C 	C 	0.019	0.133	0.583	0.259
Mof_O 	O 	0.2042	0.448	0.8368	-0.287
Mof_C 	C 	0.096	0.244	0.697	-0
Mof_H 	H 	0.0666	0.1943	0.7346	0.073
Mof_C 	C 	0.086	0.221	0.617	-0.049
Mof_C 	C 	0.145	0.335	0.722	-0.032
Mof_Mn	Mn	0.6118	0.0339	0.0563	0.931
Mof_O 	O 	0.8014	0.976	0.4476	-0.311
Mof_O 	O 	0.7842	0.119	0.537	-0.299
Mof_O 	O 	0.6092	0.204	0.1352	-0.262
Mof_O 	O 	0.4832	0.448	0.3644	-0.305
Mof_C 	C 	0.638	0.21	0.439	0.006
Mof_H 	H 	0.6306	0.2214	0.4946	0.054
Mof_O 	O 	0.4982	0.378	0.4913	-0.361
Mof_C 	C 	0.762	0.077	0.474	0.297
Mof_C 	C 	0.705	0.102	0.329	-0.001
Mof_H 	H 	0.7472	0.0453	0.3094	0.074
Mof_C 	C 	0.652	0.132	0.189	0.248
Mof_C 	C 	0.699	0.129	0.411	-0.051
Mof_C 	C 	0.519	0.367	0.417	0.272
Mof_O 	O 	0.7042	0.052	0.1632	-0.287
Mof_C 	C 	0.596	0.256	0.303	0.005
Mof_H 	H 	0.5666	0.3057	0.2654	0.071
Mof_C 	C 	0.586	0.279	0.383	-0.055
Mof_C 	C 	0.645	0.165	0.278	-0.035
Mof_Mn	Mn	0.8882	0.9661	0.5563	0.933
Mof_O 	O 	0.6986	0.024	0.9476	-0.296
Mof_O 	O 	0.7158	0.881	0.037	-0.289
Mof_O 	O 	0.8908	0.796	0.6352	-0.262
Mof_O 	O 	0.0168	0.552	0.8644	-0.301
Mof_C 	C 	0.862	0.79	0.939	-0.001
Mof_H 	H 	0.8694	0.7786	0.9946	0.054
Mof_O 	O 	0.0018	0.622	0.9913	-0.357
Mof_C 	C 	0.738	0.923	0.974	0.273
Mof_C 	C 	0.795	0.898	0.829	-0.007
Mof_H 	H 	0.7528	0.9547	0.8094	0.074
Mof_C 	C 	0.848	0.868	0.689	0.246
Mof_C 	C 	0.801	0.871	0.911	-0.044
Mof_C 	C 	0.981	0.633	0.917	0.264
Mof_O 	O 	0.7958	0.948	0.6632	-0.289
Mof_C 	C 	0.904	0.744	0.803	-0
Mof_H 	H 	0.9334	0.6943	0.7654	0.072
Mof_C 	C 	0.914	0.721	0.883	-0.05
Mof_C 	C 	0.855	0.835	0.778	-0.032
_end
