data_functionalizedCrystal
_audit_creation_method	'EQeq! by Chris Wilmer'
_symmetry_space_group_name_H-M	'P1'
_symmetry_Int_Tables_number	1
_symmetry_cell_setting	triclinic
loop_
_symmetry_equiv_pos_as_xyz
  x,y,z
_cell_length_a	24.424
_cell_length_b	24.453
_cell_length_c	24.453
_cell_angle_alpha	94.0252
_cell_angle_beta	92.9198
_cell_angle_gamma	87.0802
loop_
_atom_site_label
_atom_site_type_symbol
_atom_site_fract_x
_atom_site_fract_y
_atom_site_fract_z
_atom_site_charge
Mof_Dy	Dy	0.03502	0.22337	0.18181	2.246
Mof_Dy	Dy	0.89252	0.45283	0.87171	2.314
Mof_Dy	Dy	0.67025	0.93142	0.65158	2.334
Mof_Dy	Dy	0.37673	0.83613	0.76443	2.236
Mof_Dy	Dy	0.39252	0.12829	0.54717	2.313
Mof_Dy	Dy	0.25532	0.01515	0.67481	2.296
Mof_Dy	Dy	0.26098	0.85566	0.65948	2.222
Mof_Dy	Dy	0.20338	0.9728	0.38734	2.068
Mof_Dy	Dy	0.08483	0.5208	0.21798	2.225
Mof_Dy	Dy	0.34927	0.71502	0.48568	2.34
Mof_Dy	Dy	0.63224	0.06796	0.39598	2.188
Mof_Dy	Dy	0.56014	0.04451	0.69569	2.234
Mof_Dy	Dy	0.70338	0.61266	0.0272	2.067
Mof_Dy	Dy	0.24907	0.93693	0.52863	2.224
Mof_Dy	Dy	0.84117	0.55678	0.98508	2.324
Mof_Dy	Dy	0.46649	0.96522	0.77966	2.158
Mof_Dy	Dy	0.82355	0.58723	0.13505	2.255
Mof_Dy	Dy	0.63128	0.64812	0.52652	2.07
Mof_Dy	Dy	0.36005	0.73136	0.64396	2.243
Mof_Dy	Dy	0.98029	0.63676	0.17086	2.307
Mof_Dy	Dy	0.26015	0.74024	0.75562	2.118
Mof_Dy	Dy	0.49178	0.70294	0.5643	2.245
Mof_Dy	Dy	0.17025	0.34842	0.06858	2.335
Mof_Dy	Dy	0.96649	0.22034	0.03478	2.218
Mof_Dy	Dy	0.09023	0.57136	0.07178	2.226
Mof_Dy	Dy	0.99264	0.55615	0.94651	2.397
Mof_Dy	Dy	0.48029	0.82914	0.36324	2.269
Mof_Dy	Dy	0.84927	0.51432	0.28498	2.341
Mof_Dy	Dy	0.86005	0.35604	0.26864	2.243
Mof_Dy	Dy	0.91132	0.29818	0.91724	2.294
Mof_Dy	Dy	0.32355	0.86495	0.41277	2.255
Mof_Dy	Dy	0.75532	0.32519	0.98485	2.298
Mof_Dy	Dy	0.76098	0.34052	0.14434	2.223
Mof_Dy	Dy	0.50956	0.10494	0.83054	2.07
Mof_Dy	Dy	0.87673	0.23557	0.16387	2.242
Mof_Dy	Dy	0.74907	0.47137	0.06307	2.223
Mof_Dy	Dy	0.49264	0.05349	0.44385	2.337
Mof_Dy	Dy	0.00956	0.16946	0.89506	1.965
Mof_Dy	Dy	0.11071	0.36957	0.22469	2.321
Mof_Dy	Dy	0.61071	0.77531	0.63043	2.323
Mof_Dy	Dy	0.11437	0.45431	0.96623	2.285
Mof_Dy	Dy	0.41132	0.08276	0.70182	2.289
Mof_Dy	Dy	0.34117	0.01492	0.44322	2.323
Mof_Dy	Dy	0.13128	0.47348	0.35188	2.064
Mof_Dy	Dy	0.06014	0.30431	0.95549	2.188
Mof_Dy	Dy	0.76015	0.24438	0.25976	2.118
Mof_Dy	Dy	0.13224	0.60402	0.93204	2.17
Mof_Dy	Dy	0.99178	0.4357	0.29706	2.309
Mof_Dy	Dy	0.58483	0.78202	0.4792	2.252
Mof_Dy	Dy	0.59023	0.92822	0.42864	2.251
Mof_Dy	Dy	0.61437	0.03377	0.54569	2.288
Mof_Dy	Dy	0.53502	0.81819	0.77663	2.304
Mof_Cu	Cu	0.94329	0.13629	0.46183	0.853
Mof_Cu	Cu	0.86408	0.41696	0.5757	0.852
Mof_Cu	Cu	0.36408	0.4243	0.58304	0.851
Mof_Cu	Cu	0.54635	0.43353	0.34737	0.849
Mof_Cu	Cu	0.44329	0.53817	0.86371	0.85
Mof_Cu	Cu	0.04635	0.65263	0.56647	0.841
Mof_H 	H 	0.0873	0.0031	0.5879	-0.037
Mof_H 	H 	0.8251	0.067	0.8164	0.099
Mof_H 	H 	0.014	0.0235	0.0497	0.276
Mof_H 	H 	0.0181	0.6977	0.8101	0.422
Mof_H 	H 	0.0817	0.464	0.5232	-0.011
Mof_H 	H 	0.348	0.5478	0.6224	-0.024
Mof_H 	H 	0.4936	0.5009	0.2707	-0.035
Mof_H 	H 	0.0567	0.4463	0.6119	0.12
Mof_H 	H 	0.0277	0.2142	0.5254	-0.017
Mof_H 	H 	0.2315	0.5651	0.7317	0.021
Mof_H 	H 	0.299	0.9184	0.1362	0.078
Mof_H 	H 	0.4365	0.5013	0.0329	-0.062
Mof_H 	H 	0.514	0.9503	0.9765	0.358
Mof_H 	H 	0.5621	0.634	0.3278	0.031
Mof_H 	H 	0.2213	0.1017	0.2613	0.008
Mof_H 	H 	0.2124	0.6566	0.4194	-0.021
Mof_H 	H 	0.0631	0.8115	0.1031	0.201
Mof_H 	H 	0.987	0.6501	0.7775	0.45
Mof_H 	H 	0.1085	0.5414	0.5756	-0.02
Mof_H 	H 	0.8623	0.5645	0.4401	0.005
Mof_H 	H 	0.1307	0.4501	0.7825	0.001
Mof_H 	H 	0.0584	0.5389	0.7337	0.088
Mof_H 	H 	0.4596	0.173	0.3166	0.528
Mof_H 	H 	0.9516	0.0415	0.0425	0.292
Mof_H 	H 	0.0533	0.0682	0.4524	-0.023
Mof_H 	H 	0.2394	0.2301	0.9411	0.007
Mof_H 	H 	0.8285	0.125	0.8968	0.026
Mof_H 	H 	0.6566	0.5416	0.8444	-0.002
Mof_H 	H 	0.9668	0.4446	0.6276	-0.031
Mof_H 	H 	0.7743	0.2883	0.7789	0.387
Mof_H 	H 	0.3623	0.5599	0.4355	0.012
Mof_H 	H 	0.7265	0.1954	0.5354	0.023
Mof_H 	H 	0.9596	0.6834	0.827	0.432
Mof_H 	H 	0.7984	0.9451	0.0177	0.034
Mof_H 	H 	0.7315	0.2683	0.4349	0.021
Mof_H 	H 	0.8688	0.913	0.122	0.023
Mof_H 	H 	0.8915	0.0509	0.1899	0.019
Mof_H 	H 	0.1646	0.2865	0.3805	-0.002
Mof_H 	H 	0.3915	0.8101	0.9491	0.015
Mof_H 	H 	0.7697	0.7081	0.6165	-0
Mof_H 	H 	0.2554	0.5416	0.519	0.014
Mof_H 	H 	0.4851	0.6765	0.0091	0.086
Mof_H 	H 	0.9361	0.6063	0.5841	-0.02
Mof_H 	H 	0.4552	0.4261	0.8985	-0.051
Mof_H 	H 	0.3049	0.8817	0.9179	0.021
Mof_H 	H 	0.4452	0.6024	0.9736	-0.023
Mof_H 	H 	0.9195	0.3122	0.5806	-0.015
Mof_H 	H 	0.3247	0.7012	0.2686	0.029
Mof_H 	H 	0.9336	0.7858	0.1944	0.023
Mof_H 	H 	0.2743	0.2211	0.7117	0.386
Mof_H 	H 	0.4226	0.5981	0.7599	-0.01
Mof_H 	H 	0.5707	0.482	0.71	0.111
Mof_H 	H 	0.2137	0.4723	0.7053	0.071
Mof_H 	H 	0.9817	0.01	0.9936	0.322
Mof_H 	H 	0.3448	0.3907	0.0541	-0.005
Mof_H 	H 	0.4668	0.3724	0.5554	-0.008
Mof_H 	H 	0.7921	0.4442	0.7626	0.315
Mof_H 	H 	0.0969	0.3764	0.6416	0
Mof_H 	H 	0.1656	0.6823	0.5429	0.009
Mof_H 	H 	0.7394	0.0589	0.7699	0.007
Mof_H 	H 	0.3082	0.9194	0.2344	0.014
Mof_H 	H 	0.2265	0.4646	0.8046	0.023
Mof_H 	H 	0.1775	0.738	0.1102	0.425
Mof_H 	H 	0.487	0.2225	0.3499	0.542
Mof_H 	H 	0.7697	0.4958	0.5556	0
Mof_H 	H 	0.6907	0.5383	0.7587	0.092
Mof_H 	H 	0.3461	0.2856	0.4268	0.09
Mof_H 	H 	0.3932	0.3333	0.5001	0.009
Mof_H 	H 	0.9365	0.9671	0.4987	-0.055
Mof_H 	H 	0.8116	0.2343	0.7817	0.41
Mof_H 	H 	0.7485	0.2329	0.7903	0.405
Mof_H 	H 	0.3688	0.878	0.087	0.021
Mof_H 	H 	0.4174	0.2819	0.9055	0.203
Mof_H 	H 	0.5277	0.4746	0.7858	-0.036
Mof_H 	H 	0.001	0.8097	0.0837	0.208
Mof_H 	H 	0.4353	0.0478	0.25	0.403
Mof_H 	H 	0.2832	0.5253	0.9771	-0.026
Mof_H 	H 	0.9128	0.8139	0.4333	0.008
Mof_H 	H 	0.6316	0.2303	0.4117	0.035
Mof_H 	H 	0.4336	0.8056	0.2142	0.017
Mof_H 	H 	0.9547	0.2401	0.6391	0.079
Mof_H 	H 	0.1566	0.1556	0.4584	-0.003
Mof_H 	H 	0.3116	0.2183	0.7657	0.41
Mof_H 	H 	0.8247	0.7314	0.2988	0.029
Mof_H 	H 	0.0931	0.6981	0.6643	0.007
Mof_H 	H 	0.2697	0.3835	0.2919	-0
Mof_H 	H 	0.5559	0.2213	0.6875	0.012
Mof_H 	H 	0.1372	0.4438	0.6858	0.087
Mof_H 	H 	0.9116	0.1568	0.7064	0.196
Mof_H 	H 	0.4116	0.2936	0.8432	0.193
Mof_H 	H 	0.5043	0.3356	0.4378	0.024
Mof_H 	H 	0.4128	0.5667	0.1861	0.001
Mof_H 	H 	0.501	0.9163	0.1903	0.221
Mof_H 	H 	0.7239	0.9318	0.2738	0.419
Mof_H 	H 	0.8398	0.8566	0.6398	0.001
Mof_H 	H 	0.3251	0.1836	0.933	0.097
Mof_H 	H 	0.7968	0.0793	0.3209	0.023
Mof_H 	H 	0.9174	0.0945	0.7181	0.21
Mof_H 	H 	0.7804	0.7856	0.5082	-0.005
Mof_H 	H 	0.924	0.4509	0.4717	-0.027
Mof_H 	H 	0.8049	0.0821	0.1183	0.021
Mof_H 	H 	0.6627	0.6373	0.1969	0.025
Mof_H 	H 	0.8636	0.0758	0.9682	0.023
Mof_H 	H 	0.3398	0.3602	0.1434	0
Mof_H 	H 	0.8249	0.1111	0.4287	0.007
Mof_H 	H 	0.7524	0.3988	0.7752	0.288
Mof_H 	H 	0.0501	0.3369	0.4405	0.019
Mof_H 	H 	0.4361	0.4159	0.3937	-0.023
Mof_H 	H 	0.6372	0.3142	0.5562	0.088
Mof_H 	H 	0.8937	0.7485	0.9987	0.414
Mof_H 	H 	0.2697	0.4444	0.5042	0
Mof_H 	H 	0.2921	0.2374	0.5558	0.315
Mof_H 	H 	0.9262	0.8144	0.6246	0.101
Mof_H 	H 	0.5533	0.5476	0.9318	-0.022
Mof_H 	H 	0.3058	0.4073	0.8041	0.061
Mof_H 	H 	0.6052	0.6942	0.856	0.012
Mof_H 	H 	0.3602	0.6286	0.3052	0.08
Mof_H 	H 	0.4547	0.3609	0.7599	0.073
Mof_H 	H 	0.5166	0.5494	0.3874	-0.007
Mof_H 	H 	0.545	0.9475	0.2277	0.215
Mof_H 	H 	0.2202	0.176	0.21	0.095
Mof_H 	H 	0.7751	0.7569	0.7511	0.011
Mof_H 	H 	0.8932	0.4999	0.6667	0.011
Mof_H 	H 	0.3075	0.6653	0.0203	0.085
Mof_H 	H 	0.3608	0.7195	0.0705	0.011
Mof_H 	H 	0.6301	0.5923	0.3761	0.154
Mof_H 	H 	0.3728	0.0629	0.2565	0.395
Mof_H 	H 	0.3285	0.1032	0.875	0.025
Mof_H 	H 	0.0137	0.803	0.449	0.074
Mof_H 	H 	0.9452	0.0264	0.3976	-0.03
Mof_H 	H 	0.6307	0.2175	0.5499	0.002
Mof_H 	H 	0.0166	0.6126	0.4506	-0.052
Mof_H 	H 	0.5137	0.551	0.197	0.099
Mof_H 	H 	0.7202	0.79	0.824	0.095
Mof_H 	H 	0.045	0.7723	0.0525	0.207
Mof_H 	H 	0.89	0.1965	0.5565	-0.012
Mof_H 	H 	0.2984	0.9823	0.0549	0.032
Mof_H 	H 	0.7137	0.2947	0.5277	0.071
Mof_H 	H 	0.4817	0.0064	0.99	0.376
Mof_H 	H 	0.7829	0.6278	0.6678	0.031
Mof_H 	H 	0.8642	0.4046	0.7068	-0.008
Mof_H 	H 	0.5931	0.3357	0.3019	0.008
Mof_H 	H 	0.7784	0.9013	0.4129	0.01
Mof_H 	H 	0.2968	0.6791	0.9207	0.023
Mof_H 	H 	0.6206	0.4033	0.2517	0.002
Mof_H 	H 	0.39	0.4435	0.8035	-0.014
Mof_H 	H 	0.5058	0.3773	0.9687	0.134
Mof_H 	H 	0.0043	0.5622	0.6644	0.014
Mof_H 	H 	0.369	0.4642	0.434	0.09
Mof_H 	H 	0.8584	0.9805	0.9605	0.061
Mof_H 	H 	0.4262	0.3754	0.1856	0.094
Mof_H 	H 	0.8058	0.1959	0.5927	0.061
Mof_H 	H 	0.1316	0.5883	0.7697	0.035
Mof_H 	H 	0.5501	0.5595	0.6631	-0.007
Mof_H 	H 	0.1206	0.7483	0.5967	0.005
Mof_H 	H 	0.0058	0.0313	0.6227	0.147
Mof_H 	H 	0.424	0.5283	0.5491	-0.009
Mof_H 	H 	0.2485	0.2097	0.7671	0.405
Mof_H 	H 	0.3639	0.2668	0.8708	0.184
Mof_H 	H 	0.869	0.566	0.5358	0.095
Mof_H 	H 	0.8728	0.7435	0.9371	0.403
Mof_H 	H 	0.1954	0.6479	0.2203	0.023
Mof_H 	H 	0.2869	0.5758	0.3384	0.034
Mof_H 	H 	0.3707	0.5554	0.9914	0.154
Mof_H 	H 	0.7213	0.7387	0.8983	0.008
Mof_H 	H 	0.5181	0.1899	0.3023	0.543
Mof_H 	H 	0.9851	0.9909	0.3235	0.108
Mof_H 	H 	0.2239	0.7262	0.0682	0.419
Mof_H 	H 	0.0979	0.8452	0.4698	0.023
Mof_H 	H 	0.6646	0.6195	0.7135	-0.002
Mof_H 	H 	0.5173	0.7432	0.958	0.024
Mof_H 	H 	0.5873	0.4121	0.9969	-0.024
Mof_H 	H 	0.848	0.3776	0.4522	-0.023
Mof_H 	H 	0.9552	0.1015	0.5739	-0.066
Mof_H 	H 	0.0707	0.29	0.518	0.078
Mof_H 	H 	0.8448	0.9459	0.6093	-0.003
Mof_H 	H 	0.2784	0.5871	0.0987	0.01
Mof_H 	H 	0.3726	0.5025	0.2309	0.103
Mof_H 	H 	0.5969	0.3584	0.6236	0.002
Mof_H 	H 	0.5631	0.8969	0.1885	0.207
Mof_H 	H 	0.2524	0.2248	0.6012	0.287
Mof_H 	H 	0.5817	0.4768	0.536	0.01
Mof_H 	H 	0.9936	0.7293	0.4991	0.012
Mof_H 	H 	0.4195	0.4194	0.6878	-0.018
Mof_H 	H 	0.2751	0.2489	0.2431	0.01
Mof_H 	H 	0.2284	0.2445	0.5449	0.295
Mof_H 	H 	0.2678	0.4193	0.6399	-0.028
Mof_H 	H 	0.6954	0.7797	0.3521	0.023
Mof_H 	H 	0.8082	0.7656	0.0806	0.014
Mof_H 	H 	0.1907	0.2413	0.4617	0.092
Mof_H 	H 	0.5584	0.2663	0.4611	0.095
Mof_H 	H 	0.0621	0.6722	0.366	0.023
Mof_H 	H 	0.4319	0.4008	0.2808	-0.027
Mof_H 	H 	0.4585	0.6506	0.8304	-0.025
Mof_H 	H 	0.1713	0.762	0.0522	0.417
Mof_H 	H 	0.7284	0.4551	0.7555	0.295
Mof_H 	H 	0.6689	0.1691	0.8771	0.02
Mof_H 	H 	0.3584	0.0395	0.0195	0.059
Mof_H 	H 	0.1863	0.4962	0.5536	0.087
Mof_H 	H 	0.9226	0.2401	0.4019	-0.001
Mof_H 	H 	0.7554	0.481	0.4584	0.015
Mof_H 	H 	0.799	0.8638	0.0816	0.079
Mof_H 	H 	0.1301	0.6239	0.4077	0.154
Mof_H 	H 	0.3249	0.5713	0.8889	0.007
Mof_H 	H 	0.4516	0.9575	0.9585	0.35
Mof_H 	H 	0.6775	0.8898	0.262	0.425
Mof_H 	H 	0.1689	0.1229	0.8309	0.02
Mof_H 	H 	0.4455	0.2663	0.7443	0.021
Mof_H 	H 	0.9455	0.2557	0.7337	0.024
Mof_H 	H 	0.8075	0.9797	0.3347	0.085
Mof_H 	H 	0.9319	0.7192	0.5992	-0.021
Mof_H 	H 	0.2829	0.3322	0.3722	0.03
Mof_H 	H 	0.7832	0.0229	0.4747	-0.027
Mof_H 	H 	0.9585	0.1696	0.3494	-0.02
Mof_H 	H 	0.6713	0.9478	0.238	0.417
Mof_H 	H 	0.8602	0.6948	0.3714	0.081
Mof_H 	H 	0.5979	0.5302	0.1548	0.016
Mof_H 	H 	0.8115	0.619	0.8212	0.016
Mof_H 	H 	0.6656	0.4571	0.3177	0.009
Mof_H 	H 	0.1627	0.8031	0.3627	0.024
Mof_H 	H 	0.2804	0.4918	0.2144	-0.005
Mof_H 	H 	0.7124	0.5806	0.3434	-0.021
Mof_H 	H 	0.8461	0.5732	0.7144	0.092
Mof_H 	H 	0.8639	0.1292	0.7332	0.186
Mof_H 	H 	0.3642	0.2932	0.5954	-0.008
Mof_H 	H 	0.7869	0.6616	0.4242	0.034
Mof_H 	H 	0.3937	0.0013	0.2515	0.405
Mof_H 	H 	0.0173	0.042	0.2568	-0.02
Mof_H 	H 	0.6085	0.4244	0.4586	-0.019
Mof_H 	H 	0.8608	0.9295	0.2805	0.013
Mof_H 	H 	0.8726	0.7691	0.4975	0.104
Mof_H 	H 	0.0559	0.3125	0.7787	0.004
Mof_H 	H 	0.8707	0.0086	0.4446	0.156
Mof_H 	H 	0.3115	0.1788	0.381	0.016
Mof_H 	H 	0.6863	0.4464	0.5038	0.087
Mof_H 	H 	0.7678	0.3601	0.5807	-0.028
Mof_H 	H 	0.5567	0.3881	0.5537	0.088
Mof_H 	H 	0.3636	0.0318	0.9242	0.022
Mof_H 	H 	0.9353	0.75	0.9522	0.418
Mof_H 	H 	0.1052	0.144	0.3058	0.01
Mof_C 	C 	0.9381	0.6011	0.5463	0.115
Mof_C 	C 	0.8588	0.5131	0.6545	0.059
Mof_C 	C 	0.2907	0.1421	0.7331	0.82
Mof_C 	C 	0.9845	0.6066	0.4676	0.168
Mof_C 	C 	0.7039	0.8474	0.4584	0.535
Mof_C 	C 	0.2603	0.4737	0.8211	0.035
Mof_C 	C 	0.9808	0.2931	0.4129	-0.153
Mof_C 	C 	0.9115	0.67	0.9616	0.777
Mof_C 	C 	0.9845	0.0813	0.5583	0.221
Mof_C 	C 	0.7233	0.7109	0.3915	-0.122
Mof_C 	C 	0.4857	0.9756	0.9636	-1.043
Mof_C 	C 	0.7884	0.3308	0.4362	-0.188
Mof_C 	C 	0.7378	0.7252	0.8664	0.114
Mof_C 	C 	0.2995	0.3824	0.2696	0.141
Mof_C 	C 	0.3227	0.635	0.2986	-0.118
Mof_C 	C 	0.8442	0.8189	0.6323	0.12
Mof_C 	C 	0.7182	0.5892	0.579	0.366
Mof_C 	C 	0.4658	0.6562	0.868	0.154
Mof_C 	C 	0.395	0.3781	0.2061	-0.18
Mof_C 	C 	0.0293	0.3079	0.4485	0.048
Mof_C 	C 	0.9809	0.029	0.328	-0.184
Mof_C 	C 	0.8001	0.78513	0.63093	-0.207
Mof_C 	C 	0.2922	0.3444	0.4082	0.054
Mof_C 	C 	0.9536	0.2496	0.4234	0.077
Mof_C 	C 	0.3369	0.9586	0.9122	-0.194
Mof_C 	C 	0.0165	0.0425	0.5895	-0.332
Mof_C 	C 	0.0958	0.3758	0.85	0.585
Mof_C 	C 	0.8486	0.9615	0.5763	0.149
Mof_C 	C 	0.4808	0.5871	0.7069	-0.218
Mof_C 	C 	0.2242	0.561	0.5314	0.084
Mof_C 	C 	0.797	0.8718	0.4286	0.099
Mof_C 	C 	0.9455	0.5832	0.3726	0.462
Mof_C 	C 	0.1369	0.6574	0.3944	-0.236
Mof_C 	C 	0.668	0.4426	0.1682	0.48
Mof_C 	C 	0.3422	0.0113	0.9979	-0.08
Mof_C 	C 	0.5747	0.9039	0.7065	0.808
Mof_C 	C 	0.3493	0.0035	0.9417	0.084
Mof_C 	C 	0.8638	0.7743	0.1471	-0.184
Mof_C 	C 	0.9312	0.281	0.7096	0.078
Mof_C 	C 	0.1593	0.6847	0.7399	0.295
Mof_C 	C 	0.1568	0.2499	0.3831	0.137
Mof_C 	C 	0.4807	0.7782	0.6754	0.922
Mof_C 	C 	0.7414	0.3108	0.5108	-0.132
Mof_C 	C 	0.2455	0.355	0.1862	0.485
Mof_C 	C 	0.0198	0.4594	0.4272	0.458
Mof_C 	C 	0.3033	0.4494	0.0142	-0.254
Mof_C 	C 	0.7939	0.086	0.8292	-0.161
Mof_C 	C 	0.868	0.8765	0.1303	0.066
Mof_C 	C 	0.8816	0.3723	0.6927	0.073
Mof_C 	C 	0.0256	0.7476	0.5088	0.04
Mof_C 	C 	0.3938	0.5398	0.4248	0.101
Mof_C 	C 	0.0847	0.6656	0.679	0.037
Mof_C 	C 	0.3084	0.4445	0.8139	-0.115
Mof_C 	C 	0.4876	0.7053	0.8857	-0.183
Mof_C 	C 	0.5859	0.5087	0.1813	0.099
Mof_C 	C 	0.2972	0.6248	0.6762	0.458
Mof_C 	C 	0.2968	0.6778	0.273	0.061
Mof_C 	C 	0.6311	0.6612	0.7778	-0.222
Mof_C 	C 	0.7957	0.1222	0.876	0.086
Mof_C 	C 	0.4775	0.4085	0.5565	0.09
Mof_C 	C 	0.1311	0.2222	0.3388	-0.223
Mof_C 	C 	0.6369	0.6056	0.3426	-0.234
Mof_C 	C 	0.8084	0.1861	0.5555	-0.114
Mof_C 	C 	0.8369	0.0878	0.0414	-0.193
Mof_C 	C 	0.3619	0.5212	0.002	-0.357
Mof_C 	C 	0.4062	0.8264	0.1964	0.092
Mof_C 	C 	0.8281	0.7895	0.1041	0.075
Mof_C 	C 	0.7013	0.6163	0.2699	-0.242
Mof_C 	C 	0.636	0.4375	0.4387	0.095
Mof_C 	C 	0.6084	0.2583	0.3985	0.043
Mof_C 	C 	0.2225	0.5493	0.8861	0.289
Mof_C 	C 	0.9375	0.2721	0.6541	-0.135
Mof_C 	C 	0.3001	0.36907	0.21487	-0.207
Mof_C 	C 	0.0977	0.3771	0.6797	0.077
Mof_C 	C 	0.0747	0.2935	0.0961	0.807
Mof_C 	C 	0.8555	0.9662	0.2734	0.084
Mof_C 	C 	0.3555	0.7266	0.0338	0.084
Mof_C 	C 	0.6824	0.4502	0.4662	-0.153
Mof_C 	C 	0.327	0.8982	0.154	-0.137
Mof_C 	C 	0.6853	0.5987	0.3223	0.18
Mof_C 	C 	0.286	0.4127	0.4877	0.051
Mof_C 	C 	0.8753	0.0381	0.2199	0.098
Mof_C 	C 	0.7603	0.1789	0.5263	0.034
Mof_C 	C 	0.267	0.6526	0.5166	0.374
Mof_C 	C 	0.5431	0.5075	0.7205	-0.237
Mof_C 	C 	0.157	0.6799	0.0489	0.809
Mof_C 	C 	0.786	0.5123	0.5873	0.051
Mof_C 	C 	0.903	0.13	0.7312	-0.556
Mof_C 	C 	0.3816	0.3073	0.6277	0.071
Mof_C 	C 	0.3444	0.7445	0.9217	-0.188
Mof_C 	C 	0.8176	0.4584	0.1848	0.824
Mof_C 	C 	0.2424	0.1972	0.9198	0.094
Mof_C 	C 	0.3973	0.4828	0.4206	-0.176
Mof_C 	C 	0.3094	0.9744	0.0192	0
Mof_C 	C 	0.7203	0.4688	0.3812	-0.125
Mof_C 	C 	0.2013	0.7301	0.3837	-0.242
Mof_C 	C 	0.3183	0.7022	0.9436	0.097
Mof_C 	C 	0.6952	0.1058	0.825	-0.186
Mof_C 	C 	0.5252	0.8634	0.2698	0.361
Mof_C 	C 	0.4536	0.5766	0.7504	0.104
Mof_C 	C 	0.7473	0.9985	0.5733	0.545
Mof_C 	C 	0.1853	0.6777	0.4013	0.181
Mof_C 	C 	0.2645	0.3895	0.4359	-0.126
Mof_C 	C 	0.1125	0.4452	0.1078	0.873
Mof_C 	C 	0.2203	0.6188	0.5312	-0.125
Mof_C 	C 	0.7699	0.7334	0.7786	0.085
Mof_C 	C 	0.769	0.143	0.481	-0.088
Mof_C 	C 	0.368	0.8697	0.1235	0.064
Mof_C 	C 	0.0042	0.4519	0.4853	-0.24
Mof_C 	C 	0.2884	0.5638	0.6692	-0.188
Mof_C 	C 	0.4629	0.635	0.6782	0.48
Mof_C 	C 	0.185	0.7312	0.072	-1.293
Mof_C 	C 	0.4115	0.0384	0.33	0.769
Mof_C 	C 	0.4023	0.4864	0.027	0.29
Mof_C 	C 	0.2637	0.5439	0.1573	-0.234
Mof_C 	C 	0.6388	0.0987	0.7979	0.468
Mof_C 	C 	0.0859	0.8187	0.4913	0.071
Mof_C 	C 	0.0012	0.1488	0.252	0.343
Mof_C 	C 	0.9775	0.4435	0.5915	0.179
Mof_C 	C 	0.9422	0.488	0.7796	0.608
Mof_C 	C 	0.2387	0.1756	0.2442	-0.169
Mof_C 	C 	0.8215	0.1323	0.4617	0.056
Mof_C 	C 	0.6593	0.2601	0.3153	0.295
Mof_C 	C 	0.4312	0.2904	0.719	0.075
Mof_C 	C 	0.256	0.1639	0.5395	0.475
Mof_C 	C 	0.7907	0.2669	0.8579	0.821
Mof_C 	C 	0.8993	0.7386	0.6074	0.11
Mof_C 	C 	0.8094	0.9808	0.0256	-0.001
Mof_C 	C 	0.3442	0.3677	0.1811	0.118
Mof_C 	C 	0.8772	0.8262	0.441	0.111
Mof_C 	C 	0.0969	0.6862	0.3674	0.102
Mof_C 	C 	0.5448	0.5117	0.9373	0.173
Mof_C 	C 	0.5348	0.9123	0.2117	-0.585
Mof_C 	C 	0.7424	0.0802	0.8028	0.096
Mof_C 	C 	0.9405	0.5882	0.4354	-0.193
Mof_C 	C 	0.952	0.4472	0.4986	0.168
Mof_C 	C 	0.4381	0.4537	0.3989	0.103
Mof_C 	C 	0.2699	0.2214	0.2666	0.084
Mof_C 	C 	0.0305	0.4483	0.5831	-0.265
Mof_C 	C 	0.2473	0.4267	0.0015	0.545
Mof_C 	C 	0.8227	0.7014	0.365	-0.118
Mof_C 	C 	0.2205	0.6531	0.2499	0.053
Mof_C 	C 	0.3607	0.4634	0.8194	0.057
Mof_C 	C 	0.9876	0.1143	0.2947	-0.162
Mof_C 	C 	0.4992	0.7133	0.9419	0.101
Mof_C 	C 	0.7752	0.3508	0.5442	0.064
Mof_C 	C 	0.8949	0.3437	0.7893	0.543
Mof_C 	C 	0.5293	0.5515	0.6921	0.141
Mof_C 	C 	0.8973	0.5794	0.5172	-0.191
Mof_C 	C 	0.1696	0.6443	0.5439	0.072
Mof_C 	C 	0.2803	0.2034	0.7456	-1.272
Mof_C 	C 	0.8607	0.1806	0.5366	0.057
Mof_C 	C 	0.9062	0.8036	0.1736	0.094
Mof_C 	C 	0.3334	0.3208	0.4386	-0.126
Mof_C 	C 	0.3433	0.7553	0.8643	0.503
Mof_C 	C 	0.7922	0.5918	0.6556	0.054
Mof_C 	C 	0.6794	0.7004	0.4306	0.478
Mof_C 	C 	0.8094	0.0624	0.0848	0.09
Mof_C 	C 	0.1388	0.2021	0.9013	0.463
Mof_C 	C 	0.5847	0.321	0.3344	0.037
Mof_C 	C 	0.827	0.846	0.1018	-0.136
Mof_C 	C 	0.158	0.7656	0.3624	0.095
Mof_C 	C 	0.297	0.5714	0.1282	0.098
Mof_C 	C 	0.6992	0.1469	0.8667	0.089
Mof_C 	C 	0.4455	0.6274	0.4168	0.453
Mof_C 	C 	0.9582	0.0492	0.3728	0.132
Mof_C 	C 	0.9629	0.3218	0.365	0.461
Mof_C 	C 	0.2957	0.124	0.8778	0.085
Mof_C 	C 	0.0187	0.6294	0.8504	0.884
Mof_C 	C 	0.8619	0.998	0.4788	-0.358
Mof_C 	C 	0.8433	0.1357	0.2447	0.503
Mof_C 	C 	0.2542	0.75	0.3898	0.55
Mof_C 	C 	0.6	0.434	0.2408	0.095
Mof_C 	C 	0.6157	0.4613	0.1961	-0.174
Mof_C 	C 	0.685	0.928	0.2688	-1.294
Mof_C 	C 	0.7995	0.7304	0.6176	0.142
Mof_C 	C 	0.5969	0.6326	0.3138	0.101
Mof_C 	C 	0.8334	0.5614	0.6792	-0.124
Mof_C 	C 	0.0374	0.7921	0.4775	-0.129
Mof_C 	C 	0.7803	0.2544	0.7966	-1.273
Mof_C 	C 	0.0768	0.0327	0.5173	-0.296
Mof_C 	C 	0.7573	0.4375	0.7769	-0.931
Mof_C 	C 	0.3332	0.0382	0.583	0.781
Mof_C 	C 	0.249	0.5443	0.7039	0.076
Mof_C 	C 	0.6125	0.8922	0.5548	0.876
Mof_C 	C 	0.136	0.5613	0.5625	0.095
Mof_C 	C 	0.2628	0.1378	0.3298	-0.21
Mof_C 	C 	0.269	0.519	0.857	-0.089
Mof_C 	C 	0.4937	0.1869	0.3315	-1.689
Mof_C 	C 	0.3524	0.9544	0.7104	0.842
Mof_C 	C 	0.3753	0.7801	0.9619	0.097
Mof_C 	C 	0.4845	0.5324	0.3934	0.1
Mof_C 	C 	0.3658	0.8415	0.2875	0.557
Mof_C 	C 	0.9351	0.149	0.8022	0.289
Mof_C 	C 	0.3772	0.559	0.1738	0.113
Mof_C 	C 	0.8422	0.0021	0.9887	-0.076
Mof_C 	C 	0.5374	0.5225	0.2079	-0.171
Mof_C 	C 	0.5042	0.5147	0.5481	-0.177
Mof_C 	C 	0.1157	0.8039	0.5387	-0.162
Mof_C 	C 	0.6153	0.279	0.3482	-0.12
Mof_C 	C 	0.5646	0.2816	0.4284	-0.129
Mof_C 	C 	0.9857	0.0364	0.0244	-0.824
Mof_C 	C 	0.5926	0.2085	0.6205	-0.248
Mof_C 	C 	0.1794	0.5694	0.2996	0.478
Mof_C 	C 	0.8183	0.0564	0.2978	0.098
Mof_C 	C 	0.7387	0.7558	0.8244	-0.168
Mof_C 	C 	0.8524	0.2896	0.0456	0.843
Mof_C 	C 	0.7205	0.7501	0.3469	0.053
Mof_C 	C 	0.5256	0.4912	0.2524	0.118
Mof_C 	C 	0.1992	0.1333	0.8531	0.088
Mof_C 	C 	0.9658	0.132	0.3438	0.15
Mof_C 	C 	0.452	0.5014	0.5528	0.104
Mof_C 	C 	0.4146	0.3818	0.6824	0.073
Mof_C 	C 	0.3114	0.5045	0.9939	0.227
Mof_C 	C 	0.5958	0.15	0.6242	0.588
Mof_C 	C 	0.8938	0.5752	0.4602	0.121
Mof_C 	C 	0.5187	0.1496	0.3706	1.063
Mof_C 	C 	0.7614	0.6319	0.9039	0.483
Mof_C 	C 	0.62	0.296	0.5822	-0.185
Mof_C 	C 	0.4024	0.0375	0.2657	-1.218
Mof_C 	C 	0.3993	0.3926	0.2614	0.107
Mof_C 	C 	0.5628	0.4332	0.976	0.236
Mof_C 	C 	0.2614	0.0961	0.3681	0.483
Mof_C 	C 	0.8247	0.9951	0.3069	-0.173
Mof_C 	C 	0.5165	0.4105	0.9575	-0.264
Mof_C 	C 	0.6289	0.5051	0.9975	0.58
Mof_C 	C 	0.0628	0.024	0.5668	0.267
Mof_C 	C 	0.3176	0.8152	0.5416	0.824
Mof_C 	C 	0.4422	0.2204	0.512	0.613
Mof_C 	C 	0.5198	0.5728	0.5406	0.479
Mof_C 	C 	0.3528	0.5222	0.2048	-0.194
Mof_C 	C 	0.8658	0.7125	0.1585	0.559
Mof_C 	C 	0.9421	0.5396	0.2216	0.747
Mof_C 	C 	0.619	0.6636	0.8354	0.123
Mof_C 	C 	0.2792	0.6021	0.3129	0.046
Mof_C 	C 	0.7792	0.6871	0.3979	0.047
Mof_C 	C 	0.0431	0.2795	0.4925	-0.154
Mof_C 	C 	0.4582	0.6272	0.9508	0.103
Mof_C 	C 	0.3197	0.5315	0.6383	0.142
Mof_C 	C 	0.5012	0.748	0.8512	0.411
Mof_C 	C 	0.749	0.2961	0.4557	0.076
Mof_C 	C 	0.3247	0.6931	0.0049	-0.172
Mof_C 	C 	0.7637	0.8427	0.4561	-0.235
Mof_C 	C 	0.1289	0.0025	0.4949	0.581
Mof_C 	C 	0.767	0.4834	0.3474	0.374
Mof_C 	C 	0.8528	0.7952	0.4778	-0.192
Mof_C 	C 	0.168	0.8318	0.5574	0.475
Mof_C 	C 	0.8493	0.0583	0.9965	0.087
Mof_C 	C 	0.7542	0.6102	0.25	0.55
Mof_C 	C 	0.1243	0.2507	0.2861	0.563
Mof_C 	C 	0.0722	0.3385	0.7597	0.136
Mof_C 	C 	0.7968	0.727	0.3222	0.061
Mof_C 	C 	0.0019	0.0942	0.003	0.533
Mof_C 	C 	0.2752	0.4558	0.6492	0.064
Mof_C 	C 	0.9023	0.973	0.5136	0.288
Mof_C 	C 	0.6568	0.6169	0.7501	0.138
Mof_C 	C 	0.1716	0.2255	0.4313	-0.207
Mof_C 	C 	0.9992	0.0581	0.2867	0.171
Mof_C 	C 	0.1952	0.175	0.8942	-0.184
Mof_C 	C 	0.2939	0.1708	0.914	-0.16
Mof_C 	C 	0.1824	0.5338	0.5498	-0.153
Mof_C 	C 	0.6243	0.7139	0.7493	0.568
Mof_C 	C 	0.8197	0.3617	0.4685	0.143
Mof_C 	C 	0.8592	0.1405	0.0555	0.461
Mof_C 	C 	0.5768	0.4827	0.9673	-0.284
Mof_C 	C 	0.0348	0.7883	0.0877	-0.572
Mof_C 	C 	0.9146	0.3176	0.6182	0.075
Mof_C 	C 	0.1153	0.6518	0.721	-0.119
Mof_C 	C 	0.3215	0.5383	0.8677	0.057
Mof_C 	C 	0.8114	0.0061	0.4955	0.229
Mof_C 	C 	0.9807	0.3246	0.2218	0.963
Mof_C 	C 	0.8444	0.0783	0.2555	-0.188
Mof_C 	C 	0.6165	0.2378	0.5798	0.128
Mof_C 	C 	0.5321	0.3223	0.4151	0.03
Mof_C 	C 	0.4351	0.1978	0.851	0.289
Mof_C 	C 	0.1084	0.6015	0.7417	0.042
Mof_C 	C 	0.8033	0.9858	0.5506	-0.255
Mof_C 	C 	0.6527	0.574	0.8264	0.145
Mof_C 	C 	0.0646	0.5716	0.7184	-0.128
Mof_C 	C 	0.0458	0.4562	0.5298	0.136
Mof_C 	C 	0.2414	0.4892	0.6892	-0.132
Mof_C 	C 	0.12	0.4178	0.704	-0.186
Mof_C 	C 	0.895	0.7939	0.6219	-0.179
Mof_C 	C 	0.6716	0.5687	0.7745	-0.207
Mof_C 	C 	0.4026	0.2711	0.6707	-0.184
Mof_C 	C 	0.657	0.9511	0.3201	0.81
Mof_C 	C 	0.0448	0.0627	0.4883	0.153
Mof_C 	C 	0.7225	0.1139	0.4507	0.288
Mof_C 	C 	0.1165	0.4202	0.7622	0.126
Mof_C 	C 	0.403	0.2688	0.87	-0.553
Mof_C 	C 	0.3592	0.9445	0.8595	0.457
Mof_C 	C 	0.2182	0.421	0.4108	0.366
Mof_C 	C 	0.5305	0.4169	0.5517	-0.162
Mof_C 	C 	0.5977	0.3203	0.6229	0.081
Mof_C 	C 	0.0321	0.5849	0.6777	0.028
Mof_C 	C 	0.2913	0.18	0.3478	0.1
Mof_C 	C 	0.4405	0.5646	0.4118	-0.168
Mof_C 	C 	0.3949	0.2107	0.6563	0.541
Mof_C 	C 	0.9024	0.7343	0.9625	-1.237
Mof_C 	C 	0.797	0.8058	0.4834	0.138
Mof_C 	C 	0.0926	0.3795	0.7915	-0.252
Mof_C 	C 	0.7913	0.6522	0.82	0.101
Mof_C 	C 	0.5458	0.4702	0.5438	0.078
Mof_C 	C 	0.2233	0.6085	0.2891	-0.122
Mof_C 	C 	0.756	0.4605	0.8361	0.475
Mof_C 	C 	0.4809	0.672	0.971	-0.142
Mof_C 	C 	0.1527	0.1736	0.426	0.145
Mof_C 	C 	0.8332	0.417	0.9618	0.781
Mof_C 	C 	0.0252	0.7302	0.1366	0.328
Mof_C 	C 	0.1	0.7592	0.566	0.084
Mof_C 	C 	0.297	0.5166	0.1942	0.138
Mof_C 	C 	0.6696	0.4561	0.3557	0.072
Mof_C 	C 	0.4474	0.9311	0.4249	0.867
Mof_C 	C 	0.4421	0.7784	0.4604	0.747
Mof_C 	C 	0.5019	0.997	0.9058	0.639
Mof_C 	C 	0.7628	0.6702	0.8622	-0.21
Mof_C 	C 	0.7972	0.3238	0.3752	0.457
Mof_C 	C 	0.9937	0.6685	0.8131	-1.339
Mof_C 	C 	0.2378	0.1336	0.2748	0.114
Mof_C 	C 	0.4891	0.0685	0.5873	0.813
Mof_C 	C 	0.7645	0.5641	0.6105	-0.126
Mof_C 	C 	0.5722	0.2403	0.6615	0.137
Mof_C 	C 	0.4845	0.4417	0.9187	0.162
Mof_C 	C 	0.3281	0.8959	0.2105	0.074
Mof_C 	C 	0.4375	0.3459	0.7279	-0.137
Mof_C 	C 	0.3094	0.9152	0.9376	0.088
Mof_C 	C 	0.658	0.6376	0.2344	0.096
Mof_C 	C 	0.7455	0.8138	0.645	0.486
Mof_C 	C 	0.3486	0.4237	0.0385	0.148
Mof_C 	C 	0.5152	0.503	0.7642	0.153
Mof_C 	C 	0.2039	0.5416	0.1526	0.533
Mof_C 	C 	0.2573	0.2231	0.5625	-0.93
Mof_C 	C 	0.3588	0.3455	0.4869	0.059
Mof_C 	C 	0.119	0.1646	0.3364	0.12
Mof_C 	C 	0.0152	0.2358	0.497	0.068
Mof_C 	C 	0.7242	0.4686	0.439	0.084
Mof_C 	C 	0.9026	0.3293	0.7289	-0.182
Mof_C 	C 	0.9891	0.4127	0.9315	0.855
Mof_C 	C 	0.9474	0.5751	0.0689	0.866
Mof_C 	C 	0.3638	0.8529	0.2257	-0.185
Mof_N 	N 	0.8156	0.3729	0.5215	-0.257
Mof_N 	N 	0.4388	0.4489	0.5627	-0.244
Mof_N 	N 	0.3682	0.5118	0.8488	-0.239
Mof_N 	N 	0.1251	0.6162	0.5578	-0.23
Mof_N 	N 	0.9962	0.0879	0.5099	-0.264
Mof_N 	N 	0.5547	0.452	0.2688	-0.257
Mof_N 	N 	0.4835	0.4779	0.3839	-0.249
Mof_N 	N 	0.251	0.7039	0.2505	-0.117
Mof_N 	N 	0.3602	0.584	0.1318	-0.138
Mof_N 	N 	0.85	0.7162	0.6068	-0.15
Mof_N 	N 	0.8602	0.8682	0.416	-0.136
Mof_N 	N 	0.3156	0.4785	0.6271	-0.257
Mof_N 	N 	0.7919	0.6832	0.7716	-0.136
Mof_N 	N 	0.0547	0.7312	0.548	-0.244
Mof_N 	N 	0.54	0.3477	0.3621	-0.211
Mof_N 	N 	0.7509	0.1533	0.8923	-0.122
Mof_N 	N 	0.1018	0.7408	0.338	-0.108
Mof_N 	N 	0.04	0.6379	0.6523	-0.216
Mof_N 	N 	0.8821	0.9818	0.228	-0.131
Mof_N 	N 	0.0709	0.3274	0.7034	-0.14
Mof_N 	N 	0.9388	0.4373	0.5511	-0.266
Mof_N 	N 	0.4003	0.4461	0.0401	-0.225
Mof_N 	N 	0.907	0.8595	0.1685	-0.121
Mof_N 	N 	0.8892	0.3627	0.6349	-0.231
Mof_N 	N 	0.3892	0.3651	0.6373	-0.231
Mof_N 	N 	0.831	0.4877	0.6129	-0.234
Mof_N 	N 	0.1319	0.146	0.388	-0.155
Mof_N 	N 	0.407	0.8315	0.1405	-0.126
Mof_N 	N 	0.2919	0.2284	0.3168	-0.138
Mof_N 	N 	0.9545	0.1037	0.3817	-0.261
Mof_N 	N 	0.7902	0.0102	0.077	-0.108
Mof_N 	N 	0.6018	0.662	0.2592	-0.104
Mof_N 	N 	0.6251	0.4422	0.3838	-0.229
Mof_N 	N 	0.9835	0.6161	0.5221	-0.253
Mof_N 	N 	0.35	0.3932	0.2838	-0.151
Mof_N 	N 	0.6319	0.612	0.854	-0.154
Mof_N 	N 	0.2902	0.923	0.9898	-0.109
Mof_N 	N 	0.8682	0.1512	0.4882	-0.238
Mof_N 	N 	0.2509	0.1077	0.8467	-0.121
Mof_N 	N 	0.4545	0.6183	0.8963	-0.26
Mof_N 	N 	0.5709	0.2966	0.6726	-0.134
Mof_N 	N 	0.9725	0.2176	0.468	-0.212
Mof_N 	N 	0.4725	0.532	0.7824	-0.246
Mof_N 	N 	0.9003	0.9599	0.5539	-0.221
Mof_N 	N 	0.331	0.3871	0.5123	-0.235
Mof_N 	N 	0.751	0.7495	0.2961	-0.117
Mof_N 	N 	0.3821	0.772	0.0182	-0.133
Mof_N 	N 	0.4962	0.4901	0.9121	-0.269
Mof_O 	O 	0.7648	0.6215	0.2037	-0.557
Mof_O 	O 	0.1875	0.8198	0.6044	-0.522
Mof_O 	O 	0.2648	0.7963	0.3785	-0.557
Mof_O 	O 	0.6389	0.0221	0.6427	-0.734
Mof_O 	O 	0.9941	0.3594	0.3508	-0.505
Mof_O 	O 	0.2515	0.006	0.4692	-0.77
Mof_O 	O 	0.0468	0.5072	0.013	-0.797
Mof_O 	O 	0.457	0.0465	0.3525	-0.652
Mof_O 	O 	0.853	0.2949	0.9951	-0.79
Mof_O 	O 	0.3134	0.8126	0.4886	-0.794
Mof_O 	O 	0.7134	0.0267	0.5513	-0.564
Mof_O 	O 	0.2133	0.9298	0.2962	-0.322
Mof_O 	O 	0.6336	0.7187	0.7025	-0.58
Mof_O 	O 	0.9358	0.4982	0.2482	-0.821
Mof_O 	O 	0.4996	0.1121	0.7333	-0.736
Mof_O 	O 	0.1291	0.4091	0.1401	-0.832
Mof_O 	O 	0.7614	0.4759	0.2977	-0.492
Mof_O 	O 	0.5386	0.1598	0.9194	-0.257
Mof_O 	O 	0.3021	0.1489	0.5213	-0.543
Mof_O 	O 	0.4556	0.0921	0.6207	-0.817
Mof_O 	O 	0.7974	0.4302	0.1396	-0.756
Mof_O 	O 	0.8377	0.2557	0.8737	-0.676
Mof_O 	O 	0.7133	0.7038	0.0702	-0.322
Mof_O 	O 	0.4347	0.153	0.8794	-0.38
Mof_O 	O 	0.4037	0.7889	0.4265	-0.715
Mof_O 	O 	0.9325	0.2076	0.9422	-0.732
Mof_O 	O 	0.839	0.4345	0.2231	-0.862
Mof_O 	O 	0.9037	0.5735	0.2111	-0.717
Mof_O 	O 	0.339	0.7769	0.5655	-0.862
Mof_O 	O 	0.7389	0.8652	0.6568	-0.568
Mof_O 	O 	0.4043	0.8147	0.3047	-0.613
Mof_O 	O 	0.5324	0.0414	0.5988	-0.783
Mof_O 	O 	0.4918	0.1412	0.4108	-0.713
Mof_O 	O 	0.1322	0.0172	0.3304	-0.286
Mof_O 	O 	0.3065	0.9317	0.6945	-0.839
Mof_O 	O 	0.5523	0.6951	0.4917	-0.77
Mof_O 	O 	0.6622	0.0017	0.3343	-0.647
Mof_O 	O 	0.7575	0.2244	0.9884	-0.308
Mof_O 	O 	0.6314	0.722	0.4196	-0.555
Mof_O 	O 	0.9185	0.3109	0.3393	-0.489
Mof_O 	O 	0.9785	0.1794	0.8016	-0.384
Mof_O 	O 	0.0793	0.5236	0.9116	-0.766
Mof_O 	O 	0.8558	0.4637	0.9585	-0.818
Mof_O 	O 	0.2833	0.6503	0.7227	-0.507
Mof_O 	O 	0.4964	0.9113	0.4211	-0.831
Mof_O 	O 	0.1687	0.6756	0.8882	-0.307
Mof_O 	O 	0.1163	0.5579	0.4101	-0.337
Mof_O 	O 	0.6755	0.1419	0.4503	-0.421
Mof_O 	O 	0.4754	0.0722	0.5336	-0.808
Mof_O 	O 	0.6687	0.1118	0.3244	-0.307
Mof_O 	O 	0.6653	0.2915	0.9941	-0.316
Mof_O 	O 	0.5723	0.5802	0.5472	-0.508
Mof_O 	O 	0.5981	0.8701	0.8337	-0.366
Mof_O 	O 	0.03	0.2624	0.0982	-0.811
Mof_O 	O 	0.6368	0.5563	0.9899	-0.523
Mof_O 	O 	0.0981	0.1663	0.1299	-0.364
Mof_O 	O 	0.1844	0.8848	0.7116	-0.355
Mof_O 	O 	0.8937	0.2719	0.0733	-0.796
Mof_O 	O 	0.3349	0.9304	0.4858	-0.759
Mof_O 	O 	0.3536	0.8261	0.6699	-0.756
Mof_O 	O 	0.8696	0.6461	0.9749	-0.614
Mof_O 	O 	0.615	0.1237	0.5825	-0.581
Mof_O 	O 	0.5468	0.987	0.4928	-0.781
Mof_O 	O 	0.6291	0.8599	0.5909	-0.832
Mof_O 	O 	0.0821	0.3983	0.3123	-0.764
Mof_O 	O 	0.54	0.7856	0.565	-0.755
Mof_O 	O 	0.7821	0.2477	0.1677	-0.756
Mof_O 	O 	0.2202	0.1082	0.53	-0.222
Mof_O 	O 	0.4976	0.8979	0.3021	-0.486
Mof_O 	O 	0.6969	0.6711	0.4641	-0.522
Mof_O 	O 	0.5963	0.1269	0.8119	-0.542
Mof_O 	O 	0.6852	0.4739	0.1351	-0.506
Mof_O 	O 	0.0386	0.0806	0.8402	-0.265
Mof_O 	O 	0.8742	0.3871	0.8007	-0.625
Mof_O 	O 	0.7004	0.9476	0.742	-0.415
Mof_O 	O 	0.6888	0.217	0.3236	-0.358
Mof_O 	O 	0.2039	0.355	0.218	-0.55
Mof_O 	O 	0.2323	0.0542	0.3524	-0.487
Mof_O 	O 	0.5651	0.1313	0.3635	-0.739
Mof_O 	O 	0.2225	0.9369	0.6201	-0.734
Mof_O 	O 	0.6493	0.0001	0.4583	-0.742
Mof_O 	O 	0.584	0.9466	0.6852	-0.859
Mof_O 	O 	0.4107	0.8979	0.3997	-0.789
Mof_O 	O 	0.5065	0.9582	0.8706	-0.567
Mof_O 	O 	0.7202	0.47	0.8918	-0.222
Mof_O 	O 	0.2134	0.4487	0.9733	-0.564
Mof_O 	O 	0.3562	0.745	0.7392	-0.757
Mof_O 	O 	0.2575	0.0116	0.7756	-0.308
Mof_O 	O 	0.1888	0.6764	0.783	-0.358
Mof_O 	O 	0.3558	0.0415	0.5363	-0.818
Mof_O 	O 	0.9754	0.4664	0.9278	-0.816
Mof_O 	O 	0.1819	0.5577	0.1081	-0.537
Mof_O 	O 	0.1806	0.5236	0.1894	-0.526
Mof_O 	O 	0.471	0.1872	0.5398	-0.497
Mof_O 	O 	0.6288	0.6227	0.0917	-0.305
Mof_O 	O 	0.7039	0.782	0.645	-0.55
Mof_O 	O 	0.734	0.5602	0.1012	-0.748
Mof_O 	O 	0.1368	0.0101	0.4437	-0.526
Mof_O 	O 	0.8403	0.1724	0.0976	-0.503
Mof_O 	O 	0.4871	0.6468	0.4008	-0.304
Mof_O 	O 	0.578	0.1316	0.6636	-0.563
Mof_O 	O 	0.5588	0.009	0.3886	-0.795
Mof_O 	O 	0.9731	0.3056	0.9936	-0.737
Mof_O 	O 	0.9585	0.192	0.1282	-0.701
Mof_O 	O 	0.3269	0.8588	0.3144	-0.535
Mof_O 	O 	0.6575	0.4755	0.0235	-0.576
Mof_O 	O 	0.8081	0.502	0.3724	-0.452
Mof_O 	O 	0.1732	0.7234	0.7078	-0.417
Mof_O 	O 	0.807	0.1651	0.2759	-0.524
Mof_O 	O 	0.4941	0.6492	0.6406	-0.517
Mof_O 	O 	0.4569	0.8085	0.7165	-0.807
Mof_O 	O 	0.2591	0.1051	0.7073	-0.633
Mof_O 	O 	0.4358	0.7518	0.5018	-0.819
Mof_O 	O 	0.353	0.0049	0.7051	-0.788
Mof_O 	O 	0.3446	0.0764	0.6212	-0.729
Mof_O 	O 	0.0429	0.214	0.977	-0.773
Mof_O 	O 	0.9014	0.5431	0.9105	-0.74
Mof_O 	O 	0.1994	0.4009	0.3643	-0.45
Mof_O 	O 	0.7225	0.3799	0.0631	-0.734
Mof_O 	O 	0.4185	0.6607	0.6891	-0.493
Mof_O 	O 	0.4873	0.7393	0.8027	-0.499
Mof_O 	O 	0.084	0.3148	0.0534	-0.86
Mof_O 	O 	0.5821	0.6877	0.6017	-0.75
Mof_O 	O 	0.7012	0.3851	0.9375	-0.391
Mof_O 	O 	0.8562	0.2608	0.255	-0.757
Mof_O 	O 	0.0588	0.6114	0.991	-0.81
Mof_O 	O 	0.1367	0.2501	0.9245	-0.511
Mof_O 	O 	0.7988	0.6183	0.0477	-0.77
Mof_O 	O 	0.1575	0.9765	0.5245	-0.576
Mof_O 	O 	0.2974	0.8604	0.5698	-0.756
Mof_O 	O 	0.9569	0.2835	0.1915	-0.804
Mof_O 	O 	0.0308	0.7207	0.1847	-0.456
Mof_O 	O 	0.2821	0.8323	0.7523	-0.755
Mof_O 	O 	0.5793	0.0884	0.4764	-0.753
Mof_O 	O 	0.2671	0.7601	0.6631	-0.757
Mof_O 	O 	0.8536	0.3301	0.1739	-0.756
Mof_O 	O 	0.2614	0.7023	0.5241	-0.492
Mof_O 	O 	0.7323	0.6476	0.9458	-0.487
Mof_O 	O 	0.078	0.3364	0.8684	-0.566
Mof_O 	O 	0.1314	0.5804	0.278	-0.555
Mof_O 	O 	0.5875	0.8767	0.5095	-0.8
Mof_O 	O 	0.8987	0.5044	0.7902	-0.545
Mof_O 	O 	0.2405	0.3852	0.0312	-0.588
Mof_O 	O 	0.4844	0.6077	0.5321	-0.527
Mof_O 	O 	0.971	0.4602	0.8128	-0.488
Mof_O 	O 	0.0308	0.3181	0.2239	-0.889
Mof_O 	O 	0.4785	0.1984	0.8206	-0.407
Mof_O 	O 	0.5736	0.8319	0.4009	-0.721
Mof_O 	O 	0.3967	0.6831	0.5653	-0.73
Mof_O 	O 	0.9034	0.5652	0.3478	-0.555
Mof_O 	O 	0.6875	0.3956	0.1802	-0.523
Mof_O 	O 	0.2988	0.9523	0.3817	-0.769
Mof_O 	O 	0.9873	0.1973	0.2607	-0.453
Mof_O 	O 	0.2389	0.3432	0.1348	-0.568
Mof_O 	O 	0.1288	0.4379	0.0595	-0.867
Mof_O 	O 	0.7833	0.2773	0.3497	-0.507
Mof_O 	O 	0.3928	0.9754	0.8416	-0.501
Mof_O 	O 	0.53	0.9018	0.7376	-0.796
Mof_O 	O 	0.6844	0.2884	0.1152	-0.353
Mof_O 	O 	0.0324	0.4012	0.9586	-0.812
Mof_O 	O 	0.0651	0.6365	0.8687	-0.689
Mof_O 	O 	0.7315	0.0723	0.4199	-0.407
Mof_O 	O 	0.2004	0.258	0.0524	-0.415
Mof_O 	O 	0.7671	0.3369	0.2399	-0.757
Mof_O 	O 	0.3937	0.9267	0.7281	-0.79
Mof_O 	O 	0.6806	0.8106	0.4764	-0.53
Mof_O 	O 	0.4964	0.0486	0.9022	-0.56
Mof_O 	O 	0.9331	0.5549	0.0235	-0.845
Mof_O 	O 	0.1336	0.2975	0.2813	-0.579
Mof_O 	O 	0.3081	0.6276	0.498	-0.453
Mof_O 	O 	0.2934	0.0944	0.4094	-0.514
Mof_O 	O 	0.4331	0.9765	0.4451	-0.844
Mof_O 	O 	0.604	0.7546	0.7802	-0.599
Mof_O 	O 	0.1852	0.8649	0.5261	-0.506
Mof_O 	O 	0.9976	0.6979	0.1021	-0.459
Mof_O 	O 	0.6449	0.7411	0.5445	-0.762
Mof_O 	O 	0.9964	0.5789	0.0887	-0.818
Mof_O 	O 	0.234	0.8988	0.4398	-0.748
Mof_O 	O 	0.9928	0.6569	0.2653	-0.348
Mof_O 	O 	0.5308	0.7761	0.6819	-0.859
Mof_O 	O 	0.4034	0.6522	0.4348	-0.552
Mof_O 	O 	0.7061	0.1844	0.2062	-0.337
Mof_O 	O 	0.3403	0.9024	0.8276	-0.501
Mof_O 	O 	0.104	0.2198	0.2454	-0.594
Mof_O 	O 	0.1288	0.6586	0.0818	-0.642
Mof_O 	O 	0.4325	0.0578	0.7924	-0.743
Mof_O 	O 	0.4687	0.2636	0.5058	-0.311
Mof_O 	O 	0.4532	0.7604	0.6358	-0.848
Mof_O 	O 	0.6732	0.2922	0.2766	-0.416
Mof_O 	O 	0.1449	0.4555	0.2589	-0.759
Mof_O 	O 	0.1653	0.0059	0.7085	-0.319
Mof_O 	O 	0.1288	0.9083	0.3773	-0.31
Mof_O 	O 	0.0963	0.1881	0.8731	-0.534
Mof_O 	O 	0.9964	0.0978	0.9514	-0.495
Mof_O 	O 	0.7934	0.589	0.283	-0.59
Mof_O 	O 	0.6974	0.5672	0.5386	-0.426
Mof_O 	O 	0.2998	0.0019	0.5895	-0.784
Mof_O 	O 	0.5308	0.8153	0.2793	-0.447
Mof_O 	O 	0.1389	0.3573	0.9779	-0.73
Mof_O 	O 	0.7515	0.5308	0.994	-0.77
Mof_O 	O 	0.8021	0.4787	0.8511	-0.543
Mof_O 	O 	0.9347	0.1206	0.847	-0.363
Mof_O 	O 	0.7591	0.2927	0.8949	-0.633
Mof_O 	O 	0.4928	0.7347	0.3431	-0.358
Mof_O 	O 	0.6163	0.5899	0.4421	-0.335
Mof_O 	O 	0.2315	0.5801	0.9277	-0.406
Mof_O 	O 	0.8967	0.4347	0.3169	-0.735
Mof_O 	O 	0.8134	0.5114	0.1874	-0.794
Mof_O 	O 	0.3987	0.2098	0.4956	-0.547
Mof_O 	O 	0.307	0.7241	0.8349	-0.523
Mof_O 	O 	0.6322	0.6696	0.9828	-0.28
Mof_O 	O 	0.1755	0.5497	0.8581	-0.421
Mof_O 	O 	0.6994	0.6357	0.5991	-0.451
Mof_O 	O 	0.3742	0.1993	0.6129	-0.625
Mof_O 	O 	0.8269	0.6856	0.1412	-0.536
Mof_O 	O 	0.0244	0.1299	0.2111	-0.441
Mof_O 	O 	0.957	0.6475	0.9535	-0.649
Mof_O 	O 	0.9107	0.6003	0.1021	-0.792
Mof_O 	O 	0.115	0.4175	0.8763	-0.582
Mof_O 	O 	0.9043	0.6953	0.1853	-0.615
Mof_O 	O 	0.1622	0.6657	0.9983	-0.646
Mof_O 	O 	0.605	0.8624	0.7004	-0.744
Mof_O 	O 	0.7405	0.9688	0.6148	-0.588
Mof_O 	O 	0.8694	0.1521	0.2097	-0.543
Mof_O 	O 	0.9871	0.5992	0.3532	-0.293
Mof_O 	O 	0.6819	0.8919	0.4423	-0.541
Mof_O 	O 	0.5429	0.023	0.786	-0.769
Mof_O 	O 	0.8162	0.3625	0.3523	-0.528
Mof_O 	O 	0.1969	0.5359	0.3289	-0.522
Mof_O 	O 	0.4014	0.0895	0.4569	-0.734
Mof_O 	O 	0.04	0.435	0.2144	-0.773
Mof_O 	O 	0.9844	0.4679	0.3923	-0.507
Mof_O 	O 	0.3377	0.1263	0.7443	-0.676
Mof_O 	O 	0.9128	0.3065	0.8207	-0.534
Mof_O 	O 	0.6288	0.9405	0.5621	-0.868
Mof_O 	O 	0.8349	0.5142	0.0696	-0.759
Mof_O 	O 	0.0523	0.5083	0.3049	-0.788
Mof_O 	O 	0.2061	0.7938	0.8156	-0.338
Mof_O 	O 	0.4731	0.0064	0.6944	-0.749
Mof_O 	O 	0.9934	0.5499	0.2049	-0.764
Mof_O 	O 	0.1974	0.4614	0.4328	-0.425
Mof_O 	O 	0.8446	0.3788	0.9236	-0.73
Mof_O 	O 	0.0065	0.1294	0.0418	-0.557
Mof_O 	O 	0.4585	0.8718	0.808	-0.715
Mof_O 	O 	0.105	0.2996	0.1376	-0.743
Mof_O 	O 	0.6288	0.9182	0.3414	-0.643
Mof_O 	O 	0.7998	0.4105	0.9981	-0.784
Mof_O 	O 	0.1493	0.5417	0.9999	-0.737
Mof_O 	O 	0.3694	0.7903	0.8479	-0.545
Mof_O 	O 	0.5244	0.7889	0.8701	-0.453
Mof_O 	O 	0.8928	0.1584	0.0246	-0.503
Mof_O 	O 	0.6367	0.0755	0.7499	-0.516
Mof_O 	O 	0.4934	0.7951	0.4501	-0.776
Mof_O 	O 	0.9918	0.5892	0.8588	-0.647
Mof_O 	O 	0.9556	0.3793	0.9079	-0.822
Mof_O 	O 	0.2012	0.0625	0.6149	-0.392
Mof_O 	O 	0.8065	0.3055	0.0683	-0.84
Mof_O 	O 	0.9532	0.3642	0.2396	-0.861
Mof_O 	O 	0.0736	0.5991	0.1681	-0.733
Mof_O 	O 	0.9996	0.2667	0.8879	-0.704
Mof_O 	O 	0.0875	0.4905	0.1233	-0.801
Mof_O 	O 	0.2934	0.717	0.411	-0.59
Mof_O 	O 	0.3696	0.0251	0.3539	-0.612
Mof_O 	O 	0.4128	0.1793	0.6935	-0.536
Mof_O 	O 	0.3162	0.6477	0.6375	-0.528
Mof_O 	O 	0.0723	0.4528	0.4198	-0.508
Mof_O 	O 	0.9687	0.4942	0.7364	-0.296
Mof_O 	O 	0.7934	0.5906	0.9056	-0.514
Mof_C 	C 	0.9509	0.4186	0.095	1.09
Mof_O 	O 	0.9362	0.4595	0.1165	-0.539
Mof_O 	O 	0.9314	0.4049	0.0563	-0.593
Mof_O 	O 	0.989	0.3955	0.1117	-0.536
Mof_C 	C 	0.4509	0.905	0.5814	1.1
Mof_O 	O 	0.489	0.8883	0.6045	-0.555
Mof_O 	O 	0.4314	0.9437	0.5951	-0.599
Mof_O 	O 	0.4362	0.8835	0.5405	-0.546
Mof_Cl	Cl	0.50827	0.0269	0.13324	-0.339
Mof_Cl	Cl	0.00827	0.86676	0.9731	-0.355
_end
