data_functionalizedCrystal
_audit_creation_method	'EQeq! by Chris Wilmer'
_symmetry_space_group_name_H-M	'P1'
_symmetry_Int_Tables_number	1
_symmetry_cell_setting	triclinic
loop_
_symmetry_equiv_pos_as_xyz
  x,y,z
_cell_length_a	15.737
_cell_length_b	22.8856
_cell_length_c	22.8856
_cell_angle_alpha	83.2111
_cell_angle_beta	69.8903
_cell_angle_gamma	69.8903
loop_
_atom_site_label
_atom_site_type_symbol
_atom_site_fract_x
_atom_site_fract_y
_atom_site_fract_z
_atom_site_charge
Mof_Eu	Eu	0.58836	0.25256	0.20536	2.134
Mof_Eu	Eu	0.34222	0.24973	0.19455	2.391
Mof_Eu	Eu	0.04628	0.74744	0.79464	2.014
Mof_Eu	Eu	0.7865	0.75027	0.80545	2.4
Mof_Eu	Eu	0.04372	0.29464	0.75256	2.028
Mof_Eu	Eu	0.78676	0.30546	0.74973	2.401
Mof_Eu	Eu	0.09092	0.70536	0.24744	2.087
Mof_Eu	Eu	0.84196	0.69454	0.25027	2.414
Mof_Eu	Eu	0.54628	0.79464	0.74744	2.134
Mof_Eu	Eu	0.28649	0.80546	0.75027	2.394
Mof_Eu	Eu	0.08836	0.20536	0.25256	2.071
Mof_Eu	Eu	0.84223	0.19454	0.24973	2.431
Mof_Eu	Eu	0.59092	0.24744	0.70536	2.139
Mof_Eu	Eu	0.34195	0.25027	0.69455	2.395
Mof_Eu	Eu	0.54372	0.75256	0.29464	2.135
Mof_Eu	Eu	0.28677	0.74973	0.30545	2.395
Mof_H 	H 	0.591	0.3219	0.9979	0.049
Mof_H 	H 	0.608	0.3172	0.8934	0.018
Mof_H 	H 	0.56	0.1302	0.8758	0.098
Mof_H 	H 	0.528	0.0534	0.942	0.023
Mof_H 	H 	0.521	0.0559	0.0443	0.054
Mof_H 	H 	0.5424	0.1359	0.0801	0.045
Mof_H 	H 	0.2643	0.2934	0.5074	0.052
Mof_H 	H 	0.2715	0.2929	0.4053	0.019
Mof_H 	H 	0.5191	0.1143	0.3217	0.044
Mof_H 	H 	0.6191	0.0352	0.3594	0.038
Mof_H 	H 	0.603	0.0271	0.4627	0.039
Mof_H 	H 	0.4962	0.1084	0.5304	0.081
Mof_H 	H 	0.4553	0.445	0.1822	0.015
Mof_H 	H 	0.4267	0.5482	0.199	0.032
Mof_H 	H 	0.1752	0.5913	0.3847	0.033
Mof_H 	H 	0.0809	0.5389	0.4503	0.033
Mof_H 	H 	0.1027	0.4368	0.4282	0.023
Mof_H 	H 	0.2278	0.3867	0.3433	0.084
Mof_H 	H 	0.9108	0.6781	0.0021	0.057
Mof_H 	H 	0.8186	0.6828	0.1066	0.019
Mof_H 	H 	0.566	0.8698	0.1242	0.085
Mof_H 	H 	0.5234	0.9466	0.058	0.038
Mof_H 	H 	0.6212	0.9441	0.9557	0.038
Mof_H 	H 	0.7584	0.8641	0.9199	0.059
Mof_H 	H 	0.0651	0.7066	0.4926	0.047
Mof_H 	H 	0.9697	0.7071	0.5947	0.034
Mof_H 	H 	0.9551	0.8857	0.6783	-0.043
Mof_H 	H 	0.0137	0.9648	0.6406	0.119
Mof_H 	H 	0.0928	0.9729	0.5373	-0.031
Mof_H 	H 	0.135	0.8916	0.4696	0.126
Mof_H 	H 	0.0825	0.555	0.8178	0.021
Mof_H 	H 	0.1739	0.4518	0.801	0.014
Mof_H 	H 	0.1512	0.4087	0.6153	0.095
Mof_H 	H 	0.0701	0.4611	0.5497	-0.047
Mof_H 	H 	0.9677	0.5632	0.5718	0.174
Mof_H 	H 	0.9578	0.6133	0.6567	-0.009
Mof_H 	H 	0.8389	0.5021	0.8219	0.054
Mof_H 	H 	0.7514	0.6066	0.8172	0.018
Mof_H 	H 	0.6858	0.6242	0.6302	0.091
Mof_H 	H 	0.72	0.558	0.5534	0.032
Mof_H 	H 	0.8153	0.4557	0.5559	0.047
Mof_H 	H 	0.8725	0.4199	0.6359	0.056
Mof_H 	H 	0.0217	0.9926	0.7934	0.104
Mof_H 	H 	0.9268	0.0947	0.7929	-0.051
Mof_H 	H 	0.0908	0.1783	0.6143	0.064
Mof_H 	H 	0.2285	0.1406	0.5352	0.011
Mof_H 	H 	0.3157	0.0373	0.5271	0.062
Mof_H 	H 	0.2766	0.9696	0.6084	0.056
Mof_H 	H 	0.8875	0.3178	0.945	0.016
Mof_H 	H 	0.8757	0.301	0.0482	0.045
Mof_H 	H 	0.8099	0.1153	0.0913	0.029
Mof_H 	H 	0.7812	0.0497	0.0389	0.056
Mof_H 	H 	0.7809	0.0718	0.9368	0.019
Mof_H 	H 	0.8211	0.1567	0.8867	0.097
Mof_H 	H 	0.1629	0.4979	0.1781	0.016
Mof_H 	H 	0.1752	0.3934	0.1828	0.048
Mof_H 	H 	0.9402	0.3758	0.3698	0.035
Mof_H 	H 	0.8314	0.442	0.4466	0.093
Mof_H 	H 	0.8269	0.5443	0.4441	-0.011
Mof_H 	H 	0.9283	0.5801	0.3641	0.113
Mof_H 	H 	0.8077	0.0074	0.2066	0.061
Mof_H 	H 	0.8144	0.9053	0.2071	0.019
Mof_H 	H 	0.8834	0.8217	0.3857	0.048
Mof_H 	H 	0.9043	0.8594	0.4648	0.047
Mof_H 	H 	0.8801	0.9627	0.4729	0.045
Mof_H 	H 	0.8546	0.0304	0.3916	0.085
Mof_H 	H 	0.1503	0.6822	0.055	-0.045
Mof_H 	H 	0.2249	0.699	0.9518	0.083
Mof_H 	H 	0.0165	0.8847	0.9087	-0.111
Mof_H 	H 	0.8698	0.9503	0.9611	0.142
Mof_H 	H 	0.7895	0.9282	0.0632	-0.048
Mof_H 	H 	0.8645	0.8433	0.1133	0.161
Mof_H 	H 	0.4108	0.0021	0.6781	0.049
Mof_H 	H 	0.3186	0.1066	0.6828	0.018
Mof_H 	H 	0.066	0.1242	0.8698	0.084
Mof_H 	H 	0.0234	0.058	0.9466	0.019
Mof_H 	H 	0.1212	0.9557	0.9441	0.044
Mof_H 	H 	0.2584	0.9199	0.8641	0.05
Mof_H 	H 	0.5651	0.4926	0.7066	0.054
Mof_H 	H 	0.4697	0.5947	0.7071	0.02
Mof_H 	H 	0.4551	0.6783	0.8857	0.043
Mof_H 	H 	0.5137	0.6406	0.9648	0.039
Mof_H 	H 	0.5928	0.5373	0.9729	0.041
Mof_H 	H 	0.635	0.4696	0.8916	0.081
Mof_H 	H 	0.5825	0.8178	0.555	0.016
Mof_H 	H 	0.6739	0.801	0.4518	0.033
Mof_H 	H 	0.6512	0.6153	0.4087	0.034
Mof_H 	H 	0.5701	0.5497	0.4611	0.043
Mof_H 	H 	0.4677	0.5718	0.5632	0.028
Mof_H 	H 	0.4578	0.6567	0.6133	0.085
Mof_H 	H 	0.091	0.9979	0.3219	0.042
Mof_H 	H 	0.108	0.8934	0.3172	0.015
Mof_H 	H 	0.06	0.8758	0.1302	0.085
Mof_H 	H 	0.028	0.942	0.0534	0.022
Mof_H 	H 	0.021	0.0443	0.0559	0.037
Mof_H 	H 	0.0424	0.0801	0.1359	0.046
Mof_H 	H 	0.7643	0.5074	0.2934	0.07
Mof_H 	H 	0.7715	0.4053	0.2929	0.003
Mof_H 	H 	0.0191	0.3217	0.1143	0.091
Mof_H 	H 	0.1191	0.3594	0.0352	-0.023
Mof_H 	H 	0.103	0.4627	0.0271	0.096
Mof_H 	H 	0.9962	0.5304	0.1084	0.034
Mof_H 	H 	0.9553	0.1822	0.445	0.027
Mof_H 	H 	0.9267	0.199	0.5482	0.041
Mof_H 	H 	0.6752	0.3847	0.5913	0.035
Mof_H 	H 	0.5809	0.4503	0.5389	0.043
Mof_H 	H 	0.6027	0.4282	0.4368	0.029
Mof_H 	H 	0.7278	0.3433	0.3867	0.086
Mof_H 	H 	0.6629	0.1781	0.4979	0.051
Mof_H 	H 	0.6752	0.1828	0.3934	0.018
Mof_H 	H 	0.4402	0.3698	0.3758	0.092
Mof_H 	H 	0.3314	0.4466	0.442	0.03
Mof_H 	H 	0.3269	0.4441	0.5443	0.047
Mof_H 	H 	0.4283	0.3641	0.5801	0.05
Mof_H 	H 	0.3077	0.2066	0.0074	0.042
Mof_H 	H 	0.3144	0.2071	0.9053	0.025
Mof_H 	H 	0.3834	0.3857	0.8217	0.043
Mof_H 	H 	0.4043	0.4648	0.8594	0.038
Mof_H 	H 	0.3801	0.4729	0.9627	0.04
Mof_H 	H 	0.3546	0.3916	0.0304	0.076
Mof_H 	H 	0.6503	0.055	0.6822	0.016
Mof_H 	H 	0.7249	0.9518	0.699	0.037
Mof_H 	H 	0.5165	0.9087	0.8847	0.033
Mof_H 	H 	0.3698	0.9611	0.9503	0.046
Mof_H 	H 	0.2895	0.0632	0.9282	0.026
Mof_H 	H 	0.3645	0.1133	0.8433	0.086
Mof_H 	H 	0.3389	0.8219	0.5021	0.049
Mof_H 	H 	0.2514	0.8172	0.6066	0.017
Mof_H 	H 	0.1858	0.6302	0.6242	0.087
Mof_H 	H 	0.22	0.5534	0.558	0.029
Mof_H 	H 	0.3153	0.5559	0.4557	0.046
Mof_H 	H 	0.3725	0.6359	0.4199	0.051
Mof_H 	H 	0.5217	0.7934	0.9926	0.069
Mof_H 	H 	0.4268	0.7929	0.0947	0.013
Mof_H 	H 	0.5908	0.6143	0.1783	0.045
Mof_H 	H 	0.7285	0.5352	0.1406	0.038
Mof_H 	H 	0.8157	0.5271	0.0373	0.041
Mof_H 	H 	0.7766	0.6084	0.9696	0.089
Mof_H 	H 	0.3875	0.945	0.3178	0.017
Mof_H 	H 	0.3757	0.0482	0.301	0.031
Mof_H 	H 	0.3099	0.0913	0.1153	0.036
Mof_H 	H 	0.2812	0.0389	0.0497	0.039
Mof_H 	H 	0.2809	0.9368	0.0718	0.029
Mof_H 	H 	0.3211	0.8867	0.1567	0.083
Mof_C 	C 	0.5703	0.2399	0.0221	-0.111
Mof_C 	C 	0.5865	0.2874	0.9828	-0.016
Mof_C 	C 	0.5965	0.2845	0.9197	0.03
Mof_C 	C 	0.5898	0.2348	0.896	-0.141
Mof_C 	C 	0.5685	0.1849	0.9365	0.082
Mof_C 	C 	0.5557	0.1325	0.9171	-0.125
Mof_C 	C 	0.5374	0.0865	0.9561	0.023
Mof_C 	C 	0.5327	0.0883	0.0175	-0.076
Mof_C 	C 	0.5449	0.1363	0.0389	-0.04
Mof_C 	C 	0.5614	0.1871	0.0007	0.014
Mof_C 	C 	0.5668	0.2457	0.0873	0.411
Mof_C 	C 	0.6058	0.2349	0.8279	0.413
Mof_C 	C 	0.3676	0.2122	0.5068	-0.077
Mof_C 	C 	0.3087	0.2602	0.482	-0.046
Mof_C 	C 	0.3136	0.2603	0.4201	0.024
Mof_C 	C 	0.3796	0.2131	0.3811	-0.146
Mof_C 	C 	0.4428	0.1635	0.4027	0.053
Mof_C 	C 	0.5132	0.114	0.3636	-0.084
Mof_C 	C 	0.5719	0.0663	0.3865	-0.031
Mof_C 	C 	0.5643	0.0622	0.448	-0.027
Mof_C 	C 	0.4986	0.1103	0.4891	-0.084
Mof_C 	C 	0.4363	0.1617	0.4675	0.032
Mof_C 	C 	0.3576	0.2195	0.5735	0.319
Mof_C 	C 	0.379	0.2188	0.3142	0.458
Mof_C 	C 	0.3506	0.4299	0.2521	-0.178
Mof_C 	C 	0.4042	0.4644	0.2164	0.033
Mof_C 	C 	0.389	0.5268	0.2268	-0.024
Mof_C 	C 	0.3172	0.5554	0.2788	-0.123
Mof_C 	C 	0.2581	0.5213	0.3209	0.021
Mof_C 	C 	0.1848	0.5505	0.3757	-0.061
Mof_C 	C 	0.1289	0.5193	0.4147	-0.058
Mof_C 	C 	0.1427	0.4578	0.402	-0.005
Mof_C 	C 	0.2172	0.4284	0.3498	-0.113
Mof_C 	C 	0.2775	0.4581	0.3061	0.087
Mof_C 	C 	0.3714	0.3654	0.2334	0.505
Mof_C 	C 	0.3008	0.6215	0.2905	0.45
Mof_C 	C 	0.8323	0.7601	0.9779	-0.1
Mof_C 	C 	0.8567	0.7126	0.0172	-0.03
Mof_C 	C 	0.8007	0.7155	0.0803	0.034
Mof_C 	C 	0.7206	0.7652	0.104	-0.135
Mof_C 	C 	0.6899	0.8151	0.0635	0.055
Mof_C 	C 	0.6053	0.8675	0.0829	-0.092
Mof_C 	C 	0.58	0.9135	0.0439	-0.028
Mof_C 	C 	0.6385	0.9117	0.9825	-0.025
Mof_C 	C 	0.7201	0.8637	0.9611	-0.071
Mof_C 	C 	0.7492	0.8129	0.9993	0.039
Mof_C 	C 	0.8998	0.7543	0.9127	0.406
Mof_C 	C 	0.6686	0.7651	0.1721	0.411
Mof_C 	C 	0.0866	0.7878	0.4932	-0.121
Mof_C 	C 	0.0509	0.7398	0.518	-0.054
Mof_C 	C 	0.994	0.7397	0.5799	0.016
Mof_C 	C 	0.9738	0.7869	0.6189	-0.034
Mof_C 	C 	0.009	0.8365	0.5973	-0.15
Mof_C 	C 	0.9908	0.886	0.6364	0.203
Mof_C 	C 	0.0247	0.9337	0.6135	-0.295
Mof_C 	C 	0.0745	0.9378	0.552	0.156
Mof_C 	C 	0.098	0.8897	0.5109	-0.225
Mof_C 	C 	0.0655	0.8383	0.5325	0.135
Mof_C 	C 	0.1506	0.7805	0.4265	0.331
Mof_C 	C 	0.912	0.7812	0.6858	0.419
Mof_C 	C 	0.0326	0.5701	0.7479	-0.141
Mof_C 	C 	0.085	0.5356	0.7836	-0.013
Mof_C 	C 	0.1426	0.4732	0.7732	0.02
Mof_C 	C 	0.1514	0.4446	0.7212	-0.179
Mof_C 	C 	0.1003	0.4787	0.6791	0.133
Mof_C 	C 	0.111	0.4495	0.6243	-0.236
Mof_C 	C 	0.0629	0.4807	0.5853	0.175
Mof_C 	C 	0.0025	0.5422	0.598	-0.344
Mof_C 	C 	0.9954	0.5716	0.6502	0.185
Mof_C 	C 	0.0417	0.5419	0.6939	-0.083
Mof_C 	C 	0.9702	0.6346	0.7666	0.512
Mof_C 	C 	0.2128	0.3785	0.7095	0.466
Mof_C 	C 	0.8424	0.4779	0.7399	-0.103
Mof_C 	C 	0.8193	0.5172	0.7874	-0.021
Mof_C 	C 	0.7662	0.5803	0.7845	0.032
Mof_C 	C 	0.7358	0.604	0.7348	-0.137
Mof_C 	C 	0.755	0.5635	0.6849	0.07
Mof_C 	C 	0.7228	0.5829	0.6325	-0.108
Mof_C 	C 	0.7435	0.5439	0.5865	-0.003
Mof_C 	C 	0.8002	0.4825	0.5883	-0.047
Mof_C 	C 	0.8338	0.4611	0.6363	-0.054
Mof_C 	C 	0.8121	0.4993	0.6871	0.03
Mof_C 	C 	0.9041	0.4127	0.7457	0.409
Mof_C 	C 	0.6837	0.6721	0.7349	0.412
Mof_C 	C 	0.1244	0.9932	0.7122	0.006
Mof_C 	C 	0.0407	0.018	0.7602	-0.222
Mof_C 	C 	0.9837	0.0799	0.7603	0.26
Mof_C 	C 	0.0107	0.1189	0.7131	-0.32
Mof_C 	C 	0.0955	0.0973	0.6635	0.148
Mof_C 	C 	0.1268	0.1364	0.614	-0.165
Mof_C 	C 	0.2084	0.1135	0.5663	0.039
Mof_C 	C 	0.2623	0.052	0.5622	-0.093
Mof_C 	C 	0.2377	0.0109	0.6103	-0.018
Mof_C 	C 	0.1538	0.0325	0.6617	-0.047
Mof_C 	C 	0.1811	0.9265	0.7195	0.288
Mof_C 	C 	0.9432	0.1858	0.7188	0.537
Mof_C 	C 	0.8527	0.2479	0.9299	-0.186
Mof_C 	C 	0.8706	0.2836	0.9644	0.059
Mof_C 	C 	0.8658	0.2732	0.0268	-0.045
Mof_C 	C 	0.846	0.2212	0.0554	-0.104
Mof_C 	C 	0.829	0.1791	0.0213	0
Mof_C 	C 	0.8105	0.1243	0.0505	-0.028
Mof_C 	C 	0.7936	0.0853	0.0193	-0.088
Mof_C 	C 	0.7947	0.098	0.9578	0.033
Mof_C 	C 	0.817	0.1502	0.9284	-0.13
Mof_C 	C 	0.8336	0.1939	0.9581	0.114
Mof_C 	C 	0.8548	0.2666	0.8654	0.507
Mof_C 	C 	0.8413	0.2095	0.1215	0.445
Mof_C 	C 	0.0602	0.5221	0.2601	-0.225
Mof_C 	C 	0.1239	0.4828	0.2126	0.069
Mof_C 	C 	0.131	0.4197	0.2155	-0.063
Mof_C 	C 	0.0746	0.396	0.2652	-0.054
Mof_C 	C 	0.0034	0.4365	0.3151	-0.121
Mof_C 	C 	0.9382	0.4171	0.3675	0.091
Mof_C 	C 	0.8739	0.4561	0.4135	-0.174
Mof_C 	C 	0.871	0.5175	0.4117	0.118
Mof_C 	C 	0.9312	0.5389	0.3637	-0.213
Mof_C 	C 	0.9985	0.5007	0.3129	0.216
Mof_C 	C 	0.0625	0.5873	0.2543	0.402
Mof_C 	C 	0.0907	0.3279	0.2651	0.377
Mof_C 	C 	0.8298	0.0068	0.2878	-0.067
Mof_C 	C 	0.8189	0.982	0.2398	-0.051
Mof_C 	C 	0.8239	0.9201	0.2397	0.033
Mof_C 	C 	0.8427	0.8811	0.2869	-0.142
Mof_C 	C 	0.8563	0.9027	0.3365	0.057
Mof_C 	C 	0.8772	0.8636	0.386	-0.079
Mof_C 	C 	0.8882	0.8865	0.4337	-0.028
Mof_C 	C 	0.8765	0.948	0.4378	-0.021
Mof_C 	C 	0.8589	0.9891	0.3897	-0.081
Mof_C 	C 	0.848	0.9675	0.3383	0.034
Mof_C 	C 	0.8271	0.0735	0.2805	0.321
Mof_C 	C 	0.8478	0.8142	0.2812	0.455
Mof_C 	C 	0.0305	0.7521	0.0701	-0.405
Mof_C 	C 	0.1186	0.7164	0.0356	0.199
Mof_C 	C 	0.1658	0.7268	0.9732	-0.172
Mof_C 	C 	0.1226	0.7788	0.9446	0.01
Mof_C 	C 	0.0294	0.8209	0.9787	-0.245
Mof_C 	C 	0.9853	0.8757	0.9495	0.291
Mof_C 	C 	0.8982	0.9147	0.9807	-0.313
Mof_C 	C 	0.8505	0.902	0.0422	0.215
Mof_C 	C 	0.8956	0.8498	0.0716	-0.319
Mof_C 	C 	0.9856	0.8061	0.0419	0.348
Mof_C 	C 	0.9868	0.7334	0.1346	0.657
Mof_C 	C 	0.1723	0.7905	0.8785	0.396
Mof_C 	C 	0.3323	0.9779	0.7601	-0.11
Mof_C 	C 	0.3567	0.0172	0.7126	-0.02
Mof_C 	C 	0.3007	0.0803	0.7155	0.03
Mof_C 	C 	0.2206	0.104	0.7652	-0.139
Mof_C 	C 	0.1899	0.0635	0.8151	0.069
Mof_C 	C 	0.1053	0.0829	0.8675	-0.114
Mof_C 	C 	0.08	0.0439	0.9135	-0.001
Mof_C 	C 	0.1385	0.9825	0.9117	-0.056
Mof_C 	C 	0.2201	0.9611	0.8637	-0.053
Mof_C 	C 	0.2492	0.9993	0.8129	0.025
Mof_C 	C 	0.3998	0.9127	0.7543	0.411
Mof_C 	C 	0.1686	0.1721	0.7651	0.413
Mof_C 	C 	0.5866	0.4932	0.7878	-0.077
Mof_C 	C 	0.5509	0.518	0.7398	-0.046
Mof_C 	C 	0.494	0.5799	0.7397	0.025
Mof_C 	C 	0.4738	0.6189	0.7869	-0.146
Mof_C 	C 	0.509	0.5973	0.8365	0.052
Mof_C 	C 	0.4908	0.6364	0.886	-0.083
Mof_C 	C 	0.5247	0.6135	0.9337	-0.032
Mof_C 	C 	0.5745	0.552	0.9378	-0.026
Mof_C 	C 	0.598	0.5109	0.8897	-0.084
Mof_C 	C 	0.5655	0.5325	0.8383	0.032
Mof_C 	C 	0.6506	0.4265	0.7805	0.319
Mof_C 	C 	0.412	0.6858	0.7812	0.457
Mof_C 	C 	0.5326	0.7479	0.5701	-0.178
Mof_C 	C 	0.585	0.7836	0.5356	0.034
Mof_C 	C 	0.6426	0.7732	0.4732	-0.024
Mof_C 	C 	0.6514	0.7212	0.4446	-0.123
Mof_C 	C 	0.6003	0.6791	0.4787	0.021
Mof_C 	C 	0.611	0.6243	0.4495	-0.055
Mof_C 	C 	0.5629	0.5853	0.4807	-0.059
Mof_C 	C 	0.5025	0.598	0.5422	-0.001
Mof_C 	C 	0.4954	0.6502	0.5716	-0.112
Mof_C 	C 	0.5417	0.6939	0.5419	0.088
Mof_C 	C 	0.4702	0.7666	0.6346	0.505
Mof_C 	C 	0.7128	0.7095	0.3785	0.452
Mof_C 	C 	0.0703	0.0221	0.2399	-0.118
Mof_C 	C 	0.0865	0.9828	0.2874	-0.022
Mof_C 	C 	0.0965	0.9197	0.2845	0.023
Mof_C 	C 	0.0898	0.896	0.2348	-0.14
Mof_C 	C 	0.0685	0.9365	0.1849	0.061
Mof_C 	C 	0.0557	0.9171	0.1325	-0.111
Mof_C 	C 	0.0374	0.9561	0.0865	-0.011
Mof_C 	C 	0.0327	0.0175	0.0883	-0.051
Mof_C 	C 	0.0449	0.0389	0.1363	-0.063
Mof_C 	C 	0.0614	0.0007	0.1871	0.027
Mof_C 	C 	0.0668	0.0873	0.2457	0.413
Mof_C 	C 	0.1058	0.8279	0.2349	0.408
Mof_C 	C 	0.8676	0.5068	0.2122	-0.023
Mof_C 	C 	0.8087	0.482	0.2602	-0.093
Mof_C 	C 	0.8136	0.4201	0.2603	0.077
Mof_C 	C 	0.8796	0.3811	0.2131	-0.198
Mof_C 	C 	0.9428	0.4027	0.1635	0.18
Mof_C 	C 	0.0132	0.3636	0.114	-0.258
Mof_C 	C 	0.0719	0.3865	0.0663	0.131
Mof_C 	C 	0.0643	0.448	0.0622	-0.217
Mof_C 	C 	0.9986	0.4891	0.1103	0.081
Mof_C 	C 	0.9363	0.4675	0.1617	-0.059
Mof_C 	C 	0.8576	0.5735	0.2195	0.302
Mof_C 	C 	0.879	0.3142	0.2188	0.477
Mof_C 	C 	0.8506	0.2521	0.4299	-0.169
Mof_C 	C 	0.9042	0.2164	0.4644	0.032
Mof_C 	C 	0.889	0.2268	0.5268	-0.019
Mof_C 	C 	0.8172	0.2788	0.5554	-0.122
Mof_C 	C 	0.7581	0.3209	0.5213	0.022
Mof_C 	C 	0.6848	0.3757	0.5505	-0.058
Mof_C 	C 	0.6289	0.4147	0.5193	-0.058
Mof_C 	C 	0.6427	0.402	0.4578	-0.003
Mof_C 	C 	0.7172	0.3498	0.4284	-0.11
Mof_C 	C 	0.7775	0.3061	0.4581	0.086
Mof_C 	C 	0.8714	0.2334	0.3654	0.5
Mof_C 	C 	0.8008	0.2905	0.6215	0.451
Mof_C 	C 	0.5602	0.2601	0.5221	-0.108
Mof_C 	C 	0.6239	0.2126	0.4828	-0.022
Mof_C 	C 	0.631	0.2155	0.4197	0.031
Mof_C 	C 	0.5746	0.2652	0.396	-0.138
Mof_C 	C 	0.5034	0.3151	0.4365	0.07
Mof_C 	C 	0.4382	0.3675	0.4171	-0.111
Mof_C 	C 	0.3739	0.4135	0.4561	-0
Mof_C 	C 	0.371	0.4117	0.5175	-0.053
Mof_C 	C 	0.4312	0.3637	0.5389	-0.054
Mof_C 	C 	0.4985	0.3129	0.5007	0.026
Mof_C 	C 	0.5625	0.2543	0.5873	0.411
Mof_C 	C 	0.5907	0.2651	0.3279	0.413
Mof_C 	C 	0.3298	0.2878	0.0068	-0.094
Mof_C 	C 	0.3189	0.2398	0.982	-0.021
Mof_C 	C 	0.3239	0.2397	0.9201	0.01
Mof_C 	C 	0.3427	0.2869	0.8811	-0.139
Mof_C 	C 	0.3563	0.3365	0.9027	0.047
Mof_C 	C 	0.3772	0.386	0.8636	-0.081
Mof_C 	C 	0.3882	0.4337	0.8865	-0.033
Mof_C 	C 	0.3765	0.4378	0.948	-0.029
Mof_C 	C 	0.3589	0.3897	0.9891	-0.08
Mof_C 	C 	0.348	0.3383	0.9675	0.041
Mof_C 	C 	0.3271	0.2805	0.0735	0.324
Mof_C 	C 	0.3478	0.2812	0.8142	0.455
Mof_C 	C 	0.5305	0.0701	0.7521	-0.18
Mof_C 	C 	0.6186	0.0356	0.7164	0.038
Mof_C 	C 	0.6658	0.9732	0.7268	-0.028
Mof_C 	C 	0.6226	0.9446	0.7788	-0.12
Mof_C 	C 	0.5294	0.9787	0.8209	0.017
Mof_C 	C 	0.4853	0.9495	0.8757	-0.052
Mof_C 	C 	0.3982	0.9807	0.9147	-0.063
Mof_C 	C 	0.3505	0.0422	0.902	0.004
Mof_C 	C 	0.3956	0.0716	0.8498	-0.116
Mof_C 	C 	0.4856	0.0419	0.8061	0.091
Mof_C 	C 	0.4868	0.1346	0.7334	0.506
Mof_C 	C 	0.6723	0.8785	0.7905	0.45
Mof_C 	C 	0.3424	0.7399	0.4779	-0.109
Mof_C 	C 	0.3193	0.7874	0.5172	-0.02
Mof_C 	C 	0.2662	0.7845	0.5803	0.029
Mof_C 	C 	0.2358	0.7348	0.604	-0.139
Mof_C 	C 	0.255	0.6849	0.5635	0.068
Mof_C 	C 	0.2228	0.6325	0.5829	-0.111
Mof_C 	C 	0.2435	0.5865	0.5439	-0.004
Mof_C 	C 	0.3002	0.5883	0.4825	-0.051
Mof_C 	C 	0.3338	0.6363	0.4611	-0.056
Mof_C 	C 	0.3121	0.6871	0.4993	0.028
Mof_C 	C 	0.4041	0.7457	0.4127	0.411
Mof_C 	C 	0.1837	0.7349	0.6721	0.41
Mof_C 	C 	0.6244	0.7122	0.9932	-0.054
Mof_C 	C 	0.5407	0.7602	0.018	-0.08
Mof_C 	C 	0.4837	0.7603	0.0799	0.044
Mof_C 	C 	0.5107	0.7131	0.1189	-0.156
Mof_C 	C 	0.5955	0.6635	0.0973	0.06
Mof_C 	C 	0.6268	0.614	0.1364	-0.088
Mof_C 	C 	0.7084	0.5663	0.1135	-0.029
Mof_C 	C 	0.7623	0.5622	0.052	-0.025
Mof_C 	C 	0.7377	0.6103	0.0109	-0.09
Mof_C 	C 	0.6538	0.6617	0.0325	0.021
Mof_C 	C 	0.6811	0.7195	0.9265	0.312
Mof_C 	C 	0.4432	0.7188	0.1858	0.461
Mof_C 	C 	0.3527	0.9299	0.2479	-0.175
Mof_C 	C 	0.3706	0.9644	0.2836	0.028
Mof_C 	C 	0.3658	0.0268	0.2732	-0.02
Mof_C 	C 	0.346	0.0554	0.2212	-0.125
Mof_C 	C 	0.329	0.0213	0.1791	0.026
Mof_C 	C 	0.3105	0.0505	0.1243	-0.063
Mof_C 	C 	0.2936	0.0193	0.0853	-0.051
Mof_C 	C 	0.2947	0.9578	0.098	-0.008
Mof_C 	C 	0.317	0.9284	0.1502	-0.107
Mof_C 	C 	0.3336	0.9581	0.1939	0.083
Mof_C 	C 	0.3548	0.8654	0.2666	0.504
Mof_C 	C 	0.3413	0.1215	0.2095	0.45
Mof_O 	O 	0.51011	0.22593	0.13405	-0.651
Mof_O 	O 	0.61894	0.27196	0.09576	-0.501
Mof_O 	O 	0.64373	0.27353	0.79161	-0.643
Mof_O 	O 	0.5796	0.19942	0.80558	-0.504
Mof_O 	O 	0.40886	0.18051	0.60217	-0.45
Mof_O 	O 	0.2959	0.2688	0.6024	-0.493
Mof_O 	O 	0.451	0.21986	0.26894	-0.633
Mof_O 	O 	0.3021	0.22439	0.30641	-0.517
Mof_O 	O 	0.4554	0.3367	0.2005	-0.6
Mof_O 	O 	0.3066	0.3423	0.2463	-0.569
Mof_O 	O 	0.361	0.63482	0.30478	-0.498
Mof_O 	O 	0.22966	0.66443	0.28305	-0.668
Mof_O 	O 	0.87009	0.77407	0.86595	-0.636
Mof_O 	O 	0.98666	0.72804	0.90424	-0.464
Mof_O 	O 	0.70887	0.72647	0.20839	-0.644
Mof_O 	O 	0.5846	0.80058	0.19442	-0.504
Mof_O 	O 	0.19154	0.81949	0.39783	-0.458
Mof_O 	O 	0.1671	0.7312	0.3976	-0.498
Mof_O 	O 	0.9398	0.78014	0.73106	-0.595
Mof_O 	O 	0.8329	0.77561	0.69359	-0.504
Mof_O 	O 	0.9926	0.6633	0.7995	-0.569
Mof_O 	O 	0.8952	0.6577	0.7537	-0.562
Mof_O 	O 	0.3006	0.36518	0.69522	-0.503
Mof_O 	O 	0.17714	0.33557	0.71695	-0.671
Mof_O 	O 	0.89416	0.36595	0.72593	-0.636
Mof_O 	O 	0.9647	0.40424	0.77196	-0.467
Mof_O 	O 	0.68534	0.70839	0.77353	-0.643
Mof_O 	O 	0.63518	0.69442	0.69942	-0.504
Mof_O 	O 	0.26103	0.89783	0.68051	-0.441
Mof_O 	O 	0.1483	0.8976	0.7688	-0.485
Mof_O 	O 	0.96994	0.23106	0.71986	-0.625
Mof_O 	O 	0.85851	0.19359	0.72439	-0.531
Mof_O 	O 	0.9059	0.2995	0.8367	-0.576
Mof_O 	O 	0.8029	0.2537	0.8423	-0.567
Mof_O 	O 	0.91578	0.19522	0.13482	-0.485
Mof_O 	O 	0.76271	0.21695	0.16443	-0.671
Mof_O 	O 	0.98604	0.63405	0.27407	-0.622
Mof_O 	O 	0.1409	0.59576	0.22804	-0.495
Mof_O 	O 	0.16726	0.29161	0.22647	-0.633
Mof_O 	O 	0.02902	0.30558	0.30058	-0.507
Mof_O 	O 	0.83937	0.10217	0.31949	-0.446
Mof_O 	O 	0.8147	0.1024	0.2312	-0.488
Mof_O 	O 	0.92086	0.76894	0.28014	-0.614
Mof_O 	O 	0.77649	0.80641	0.27561	-0.516
Mof_O 	O 	0.0421	0.7005	0.1633	-0.661
Mof_O 	O 	0.8989	0.7463	0.1577	-0.609
Mof_O 	O 	0.24582	0.80478	0.86518	-0.484
Mof_O 	O 	0.14409	0.78305	0.83557	-0.649
Mof_O 	O 	0.37009	0.86595	0.77407	-0.652
Mof_O 	O 	0.48666	0.90424	0.72804	-0.5
Mof_O 	O 	0.20887	0.20839	0.72647	-0.637
Mof_O 	O 	0.0846	0.19442	0.80058	-0.508
Mof_O 	O 	0.69154	0.39783	0.81949	-0.451
Mof_O 	O 	0.6671	0.3976	0.7312	-0.493
Mof_O 	O 	0.4398	0.73106	0.78014	-0.633
Mof_O 	O 	0.3329	0.69359	0.77561	-0.515
Mof_O 	O 	0.4926	0.7995	0.6633	-0.6
Mof_O 	O 	0.3952	0.7537	0.6577	-0.568
Mof_O 	O 	0.8006	0.69522	0.36518	-0.499
Mof_O 	O 	0.67714	0.71695	0.33557	-0.673
Mof_O 	O 	0.01011	0.13405	0.22593	-0.672
Mof_O 	O 	0.11894	0.09576	0.27196	-0.501
Mof_O 	O 	0.14373	0.79161	0.27353	-0.643
Mof_O 	O 	0.0796	0.80558	0.19942	-0.509
Mof_O 	O 	0.90886	0.60217	0.18051	-0.435
Mof_O 	O 	0.7959	0.6024	0.2688	-0.489
Mof_O 	O 	0.951	0.26894	0.21986	-0.615
Mof_O 	O 	0.8021	0.30641	0.22439	-0.522
Mof_O 	O 	0.9554	0.2005	0.3367	-0.573
Mof_O 	O 	0.8066	0.2463	0.3423	-0.568
Mof_O 	O 	0.861	0.30478	0.63482	-0.493
Mof_O 	O 	0.72966	0.28305	0.66443	-0.671
Mof_O 	O 	0.48604	0.27407	0.63405	-0.652
Mof_O 	O 	0.6409	0.22804	0.59576	-0.498
Mof_O 	O 	0.66726	0.22647	0.29161	-0.647
Mof_O 	O 	0.52902	0.30058	0.30558	-0.505
Mof_O 	O 	0.33937	0.31949	0.10217	-0.453
Mof_O 	O 	0.3147	0.2312	0.1024	-0.493
Mof_O 	O 	0.42086	0.28014	0.76894	-0.633
Mof_O 	O 	0.27649	0.27561	0.80641	-0.516
Mof_O 	O 	0.5421	0.1633	0.7005	-0.6
Mof_O 	O 	0.3989	0.1577	0.7463	-0.569
Mof_O 	O 	0.74582	0.86518	0.80478	-0.495
Mof_O 	O 	0.64409	0.83557	0.78305	-0.671
Mof_O 	O 	0.39416	0.72593	0.36595	-0.651
Mof_O 	O 	0.4647	0.77196	0.40424	-0.5
Mof_O 	O 	0.18534	0.77353	0.70839	-0.638
Mof_O 	O 	0.13518	0.69942	0.69442	-0.506
Mof_O 	O 	0.76103	0.68051	0.89783	-0.446
Mof_O 	O 	0.6483	0.7688	0.8976	-0.49
Mof_O 	O 	0.46994	0.71986	0.23106	-0.634
Mof_O 	O 	0.35851	0.72439	0.19359	-0.516
Mof_O 	O 	0.4059	0.8367	0.2995	-0.6
Mof_O 	O 	0.3029	0.8423	0.2537	-0.568
Mof_O 	O 	0.41578	0.13482	0.19522	-0.498
Mof_O 	O 	0.26271	0.16443	0.21695	-0.665
_end
