data_functionalizedCrystal
_audit_creation_method	'EQeq! by Chris Wilmer'
_symmetry_space_group_name_H-M	'P1'
_symmetry_Int_Tables_number	1
_symmetry_cell_setting	triclinic
loop_
_symmetry_equiv_pos_as_xyz
  x,y,z
_cell_length_a	11.2374
_cell_length_b	11.2374
_cell_length_c	37.096
_cell_angle_alpha	90
_cell_angle_beta	90
_cell_angle_gamma	90
loop_
_atom_site_label
_atom_site_type_symbol
_atom_site_fract_x
_atom_site_fract_y
_atom_site_fract_z
_atom_site_charge
Mof_Cu	Cu	0.69675	0.69699	0.56054	0.9
Mof_O 	O 	0.6091	0.6178	0.59742	-0.481
Mof_O 	O 	0.6172	0.6091	0.52314	-0.489
Mof_O 	O 	0.4865	0.4908	0.6226	-0.435
Mof_O 	O 	0.4919	0.4876	0.4975	-0.43
Mof_N 	N 	0.7953	0.7709	0.5999	-0.239
Mof_N 	N 	0.7738	0.7942	0.5213	-0.237
Mof_N 	N 	0.1531	0.8663	0.7533	-0.141
Mof_N 	N 	0.869	0.1522	0.367	-0.143
Mof_C 	C 	0.9166	0.7644	0.5993	0.083
Mof_H 	H 	0.9544	0.7397	0.5783	-0.021
Mof_C 	C 	0.983	0.7924	0.6281	-0.152
Mof_H 	H 	0.0655	0.7934	0.6261	0.078
Mof_C 	C 	0.9313	0.8194	0.6604	0.084
Mof_C 	C 	0.814	0.8291	0.6605	-0.165
Mof_H 	H 	0.7755	0.8545	0.6814	0.086
Mof_C 	C 	0.748	0.8022	0.6304	0.108
Mof_H 	H 	0.6655	0.8067	0.632	-0.011
Mof_C 	C 	0.0071	0.8389	0.6932	0.051
Mof_C 	C 	0.131	0.8406	0.6916	-0.138
Mof_H 	H 	0.1684	0.8374	0.6692	0.077
Mof_C 	C 	0.1954	0.846	0.7208	0.087
Mof_H 	H 	0.2771	0.8359	0.7184	0.01
Mof_C 	C 	0.0383	0.8705	0.7551	0.077
Mof_H 	H 	0.004	0.883	0.7776	0.007
Mof_C 	C 	0.9632	0.8577	0.7258	-0.131
Mof_H 	H 	0.8813	0.8622	0.729	0.071
Mof_C 	C 	0.7699	0.9131	0.5227	0.076
Mof_H 	H 	0.7517	0.9495	0.5446	-0.018
Mof_C 	C 	0.7917	0.9836	0.4932	-0.138
Mof_H 	H 	0.7867	0.0659	0.4954	0.073
Mof_C 	C 	0.8206	0.9339	0.4608	0.066
Mof_C 	C 	0.8258	0.8104	0.4591	-0.147
Mof_H 	H 	0.8452	0.7713	0.4378	0.081
Mof_C 	C 	0.8009	0.7477	0.4906	0.099
Mof_H 	H 	0.8041	0.6651	0.4894	-0.006
Mof_C 	C 	0.8384	0.0103	0.4283	0.058
Mof_C 	C 	0.8381	0.1291	0.4302	-0.137
Mof_H 	H 	0.8301	0.1671	0.4523	0.078
Mof_C 	C 	0.8498	0.1949	0.3989	0.081
Mof_H 	H 	0.8433	0.2771	0.401	0.013
Mof_C 	C 	0.8673	0.0378	0.3658	0.081
Mof_H 	H 	0.8749	0.0031	0.3431	0.006
Mof_C 	C 	0.8554	0.9616	0.3946	-0.135
Mof_H 	H 	0.8588	0.8796	0.3914	0.073
Mof_C 	C 	0.5366	0.5333	0.525	0.573
Mof_C 	C 	0.4887	0.488	0.5604	-0.781
Mof_H 	H 	0.4031	0.4989	0.5597	0.264
Mof_H 	H 	0.5028	0.4029	0.5608	0.264
Mof_C 	C 	0.5303	0.5357	0.5956	0.574
Mof_Cu	Cu	0.30325	0.30301	0.06054	0.901
Mof_O 	O 	0.3909	0.3822	0.09742	-0.48
Mof_O 	O 	0.3828	0.3909	0.02314	-0.488
Mof_O 	O 	0.5135	0.5092	0.1226	-0.434
Mof_O 	O 	0.5081	0.5124	0.9975	-0.427
Mof_N 	N 	0.2047	0.2291	0.0999	-0.238
Mof_N 	N 	0.2262	0.2058	0.0213	-0.237
Mof_N 	N 	0.8469	0.1337	0.2533	-0.14
Mof_N 	N 	0.131	0.8478	0.867	-0.142
Mof_C 	C 	0.0834	0.2356	0.0993	0.083
Mof_H 	H 	0.0456	0.2603	0.0783	-0.021
Mof_C 	C 	0.017	0.2076	0.1281	-0.152
Mof_H 	H 	0.9345	0.2066	0.1261	0.078
Mof_C 	C 	0.0687	0.1806	0.1604	0.084
Mof_C 	C 	0.186	0.1709	0.1605	-0.165
Mof_H 	H 	0.2245	0.1455	0.1814	0.086
Mof_C 	C 	0.252	0.1978	0.1304	0.108
Mof_H 	H 	0.3345	0.1933	0.132	-0.011
Mof_C 	C 	0.9929	0.1611	0.1932	0.051
Mof_C 	C 	0.869	0.1594	0.1916	-0.138
Mof_H 	H 	0.8316	0.1626	0.1692	0.077
Mof_C 	C 	0.8046	0.154	0.2208	0.087
Mof_H 	H 	0.7229	0.1641	0.2184	0.01
Mof_C 	C 	0.9617	0.1295	0.2551	0.077
Mof_H 	H 	0.996	0.117	0.2776	0.007
Mof_C 	C 	0.0368	0.1423	0.2258	-0.131
Mof_H 	H 	0.1187	0.1378	0.229	0.071
Mof_C 	C 	0.2301	0.0869	0.0227	0.072
Mof_H 	H 	0.2483	0.0505	0.0446	-0.017
Mof_C 	C 	0.2083	0.0164	0.9932	-0.133
Mof_H 	H 	0.2133	0.9341	0.9954	0.072
Mof_C 	C 	0.1794	0.0661	0.9608	0.064
Mof_C 	C 	0.1742	0.1896	0.9591	-0.146
Mof_H 	H 	0.1548	0.2287	0.9378	0.081
Mof_C 	C 	0.1991	0.2523	0.9906	0.101
Mof_H 	H 	0.1959	0.3349	0.9894	-0.006
Mof_C 	C 	0.1616	0.9897	0.9283	0.06
Mof_C 	C 	0.1619	0.8709	0.9302	-0.138
Mof_H 	H 	0.1699	0.8329	0.9523	0.079
Mof_C 	C 	0.1502	0.8051	0.8989	0.081
Mof_H 	H 	0.1567	0.7229	0.901	0.012
Mof_C 	C 	0.1327	0.9622	0.8658	0.082
Mof_H 	H 	0.1251	0.9969	0.8431	0.006
Mof_C 	C 	0.1446	0.0384	0.8946	-0.137
Mof_H 	H 	0.1412	0.1204	0.8914	0.074
Mof_C 	C 	0.4634	0.4667	0.025	0.569
Mof_C 	C 	0.5113	0.512	0.0604	-0.779
Mof_H 	H 	0.5969	0.5011	0.0597	0.263
Mof_H 	H 	0.4972	0.5971	0.0608	0.263
Mof_C 	C 	0.4697	0.4643	0.0956	0.573
Mof_Cu	Cu	0.30301	0.69675	0.31054	0.901
Mof_O 	O 	0.3822	0.6091	0.34742	-0.48
Mof_O 	O 	0.3909	0.6172	0.27314	-0.488
Mof_O 	O 	0.5092	0.4865	0.3726	-0.434
Mof_O 	O 	0.5124	0.4919	0.2475	-0.429
Mof_N 	N 	0.2291	0.7953	0.3499	-0.238
Mof_N 	N 	0.2058	0.7738	0.2713	-0.236
Mof_N 	N 	0.1337	0.1531	0.5033	-0.14
Mof_N 	N 	0.8478	0.869	0.117	-0.142
Mof_C 	C 	0.2356	0.9166	0.3493	0.083
Mof_H 	H 	0.2603	0.9544	0.3283	-0.02
Mof_C 	C 	0.2076	0.983	0.3781	-0.151
Mof_H 	H 	0.2066	0.0655	0.3761	0.078
Mof_C 	C 	0.1806	0.9313	0.4104	0.084
Mof_C 	C 	0.1709	0.814	0.4105	-0.165
Mof_H 	H 	0.1455	0.7755	0.4314	0.086
Mof_C 	C 	0.1978	0.748	0.3804	0.108
Mof_H 	H 	0.1933	0.6655	0.382	-0.011
Mof_C 	C 	0.1611	0.0071	0.4432	0.051
Mof_C 	C 	0.1594	0.131	0.4416	-0.138
Mof_H 	H 	0.1626	0.1684	0.4192	0.077
Mof_C 	C 	0.154	0.1954	0.4708	0.087
Mof_H 	H 	0.1641	0.2771	0.4684	0.01
Mof_C 	C 	0.1295	0.0383	0.5051	0.077
Mof_H 	H 	0.117	0.004	0.5276	0.007
Mof_C 	C 	0.1423	0.9632	0.4758	-0.131
Mof_H 	H 	0.1378	0.8813	0.479	0.071
Mof_C 	C 	0.0869	0.7699	0.2727	0.076
Mof_H 	H 	0.0505	0.7517	0.2946	-0.018
Mof_C 	C 	0.0164	0.7917	0.2432	-0.138
Mof_H 	H 	0.9341	0.7867	0.2454	0.073
Mof_C 	C 	0.0661	0.8206	0.2108	0.065
Mof_C 	C 	0.1896	0.8258	0.2091	-0.147
Mof_H 	H 	0.2287	0.8452	0.1878	0.081
Mof_C 	C 	0.2523	0.8009	0.2406	0.099
Mof_H 	H 	0.3349	0.8041	0.2394	-0.006
Mof_C 	C 	0.9897	0.8384	0.1783	0.059
Mof_C 	C 	0.8709	0.8381	0.1802	-0.137
Mof_H 	H 	0.8329	0.8301	0.2023	0.078
Mof_C 	C 	0.8051	0.8498	0.1489	0.081
Mof_H 	H 	0.7229	0.8433	0.151	0.012
Mof_C 	C 	0.9622	0.8673	0.1158	0.082
Mof_H 	H 	0.9969	0.8749	0.0931	0.006
Mof_C 	C 	0.0384	0.8554	0.1446	-0.136
Mof_H 	H 	0.1204	0.8588	0.1414	0.073
Mof_C 	C 	0.4667	0.5366	0.275	0.573
Mof_C 	C 	0.512	0.4887	0.3104	-0.781
Mof_H 	H 	0.5011	0.4031	0.3097	0.264
Mof_H 	H 	0.5971	0.5028	0.3108	0.264
Mof_C 	C 	0.4643	0.5303	0.3456	0.574
Mof_Cu	Cu	0.69699	0.30325	0.81054	0.901
Mof_O 	O 	0.6178	0.3909	0.84742	-0.48
Mof_O 	O 	0.6091	0.3828	0.77314	-0.488
Mof_O 	O 	0.4908	0.5135	0.8726	-0.434
Mof_O 	O 	0.4876	0.5081	0.7475	-0.429
Mof_N 	N 	0.7709	0.2047	0.8499	-0.238
Mof_N 	N 	0.7942	0.2262	0.7713	-0.236
Mof_N 	N 	0.8663	0.8469	0.0033	-0.141
Mof_N 	N 	0.1522	0.131	0.617	-0.142
Mof_C 	C 	0.7644	0.0834	0.8493	0.084
Mof_H 	H 	0.7397	0.0456	0.8283	-0.02
Mof_C 	C 	0.7924	0.017	0.8781	-0.152
Mof_H 	H 	0.7934	0.9345	0.8761	0.079
Mof_C 	C 	0.8194	0.0687	0.9104	0.085
Mof_C 	C 	0.8291	0.186	0.9105	-0.166
Mof_H 	H 	0.8545	0.2245	0.9314	0.087
Mof_C 	C 	0.8022	0.252	0.8804	0.108
Mof_H 	H 	0.8067	0.3345	0.882	-0.011
Mof_C 	C 	0.8389	0.9929	0.9432	0.05
Mof_C 	C 	0.8406	0.869	0.9416	-0.138
Mof_H 	H 	0.8374	0.8316	0.9192	0.077
Mof_C 	C 	0.846	0.8046	0.9708	0.09
Mof_H 	H 	0.8359	0.7229	0.9684	0.01
Mof_C 	C 	0.8705	0.9617	0.0051	0.073
Mof_H 	H 	0.883	0.996	0.0276	0.008
Mof_C 	C 	0.8577	0.0368	0.9758	-0.127
Mof_H 	H 	0.8622	0.1187	0.979	0.07
Mof_C 	C 	0.9131	0.2301	0.7727	0.076
Mof_H 	H 	0.9495	0.2483	0.7946	-0.018
Mof_C 	C 	0.9836	0.2083	0.7432	-0.138
Mof_H 	H 	0.0659	0.2133	0.7454	0.073
Mof_C 	C 	0.9339	0.1794	0.7108	0.065
Mof_C 	C 	0.8104	0.1742	0.7091	-0.147
Mof_H 	H 	0.7713	0.1548	0.6878	0.081
Mof_C 	C 	0.7477	0.1991	0.7406	0.099
Mof_H 	H 	0.6651	0.1959	0.7394	-0.006
Mof_C 	C 	0.0103	0.1616	0.6783	0.059
Mof_C 	C 	0.1291	0.1619	0.6802	-0.137
Mof_H 	H 	0.1671	0.1699	0.7023	0.078
Mof_C 	C 	0.1949	0.1502	0.6489	0.081
Mof_H 	H 	0.2771	0.1567	0.651	0.013
Mof_C 	C 	0.0378	0.1327	0.6158	0.082
Mof_H 	H 	0.0031	0.1251	0.5931	0.006
Mof_C 	C 	0.9616	0.1446	0.6446	-0.136
Mof_H 	H 	0.8796	0.1412	0.6414	0.073
Mof_C 	C 	0.5333	0.4634	0.775	0.573
Mof_C 	C 	0.488	0.5113	0.8104	-0.781
Mof_H 	H 	0.4989	0.5969	0.8097	0.264
Mof_H 	H 	0.4029	0.4972	0.8108	0.264
Mof_C 	C 	0.5357	0.4697	0.8456	0.574
Mof_Cu	Cu	0.494	0.49983	0.68583	0.901
Mof_N 	N 	0.3081	0.4997	0.6866	-0.218
Mof_N 	N 	0.4875	0.3154	0.68534	-0.212
Mof_N 	N 	0.6779	0.4993	0.6866	-0.214
Mof_N 	N 	0.4885	0.6844	0.6877	-0.217
Mof_C 	C 	0.2457	0.4818	0.6559	0.069
Mof_H 	H 	0.2878	0.467	0.6348	0.01
Mof_C 	C 	0.123	0.4844	0.6541	-0.134
Mof_H 	H 	0.0838	0.4771	0.6321	0.071
Mof_C 	C 	0.0605	0.4979	0.6856	0.066
Mof_C 	C 	0.1249	0.5168	0.7157	-0.157
Mof_H 	H 	0.0861	0.5309	0.7374	0.08
Mof_C 	C 	0.2466	0.5155	0.7147	0.107
Mof_H 	H 	0.287	0.5271	0.7363	-0.004
Mof_C 	C 	0.9282	0.4993	0.6862	0.062
Mof_C 	C 	0.8629	0.5316	0.7154	-0.142
Mof_H 	H 	0.9018	0.5541	0.7365	0.073
Mof_C 	C 	0.7407	0.5317	0.7147	0.095
Mof_H 	H 	0.7003	0.5562	0.7352	-0.007
Mof_C 	C 	0.741	0.4694	0.6564	0.066
Mof_H 	H 	0.7	0.4491	0.6355	0.004
Mof_C 	C 	0.866	0.4683	0.656	-0.126
Mof_H 	H 	0.9065	0.4465	0.6351	0.068
Mof_C 	C 	0.5288	0.25	0.6562	0.062
Mof_H 	H 	0.5585	0.2902	0.6363	0.005
Mof_C 	C 	0.5271	0.1278	0.656	-0.13
Mof_H 	H 	0.554	0.0865	0.6358	0.067
Mof_C 	C 	0.4854	0.0661	0.6856	0.05
Mof_C 	C 	0.4426	0.1331	0.7144	-0.146
Mof_H 	H 	0.4133	0.0956	0.7349	0.075
Mof_C 	C 	0.4441	0.2556	0.7122	0.093
Mof_H 	H 	0.4117	0.2983	0.7313	-0.008
Mof_C 	C 	0.4858	0.9349	0.6863	0.059
Mof_C 	C 	0.4441	0.8666	0.6572	-0.145
Mof_H 	H 	0.4146	0.904	0.6367	0.075
Mof_C 	C 	0.4468	0.7467	0.659	0.081
Mof_H 	H 	0.4183	0.7041	0.6394	-0.004
Mof_C 	C 	0.5272	0.7495	0.7147	0.099
Mof_H 	H 	0.5572	0.71	0.7348	-0.008
Mof_C 	C 	0.5264	0.8689	0.7154	-0.156
Mof_H 	H 	0.5536	0.9083	0.7358	0.077
Mof_Cu	Cu	0.506	0.50017	0.18583	0.901
Mof_N 	N 	0.6919	0.5003	0.1866	-0.218
Mof_N 	N 	0.5125	0.6846	0.18534	-0.212
Mof_N 	N 	0.3221	0.5007	0.1866	-0.214
Mof_N 	N 	0.5115	0.3156	0.1877	-0.217
Mof_C 	C 	0.7543	0.5182	0.1559	0.069
Mof_H 	H 	0.7122	0.533	0.1348	0.01
Mof_C 	C 	0.877	0.5156	0.1541	-0.134
Mof_H 	H 	0.9162	0.5229	0.1321	0.071
Mof_C 	C 	0.9395	0.5021	0.1856	0.066
Mof_C 	C 	0.8751	0.4832	0.2157	-0.157
Mof_H 	H 	0.9139	0.4691	0.2374	0.08
Mof_C 	C 	0.7534	0.4845	0.2147	0.107
Mof_H 	H 	0.713	0.4729	0.2363	-0.004
Mof_C 	C 	0.0718	0.5007	0.1862	0.062
Mof_C 	C 	0.1371	0.4684	0.2154	-0.142
Mof_H 	H 	0.0982	0.4459	0.2365	0.073
Mof_C 	C 	0.2593	0.4683	0.2147	0.095
Mof_H 	H 	0.2997	0.4438	0.2352	-0.007
Mof_C 	C 	0.259	0.5306	0.1564	0.066
Mof_H 	H 	0.3	0.5509	0.1355	0.004
Mof_C 	C 	0.134	0.5317	0.156	-0.126
Mof_H 	H 	0.0935	0.5535	0.1351	0.068
Mof_C 	C 	0.4712	0.75	0.1562	0.062
Mof_H 	H 	0.4415	0.7098	0.1363	0.005
Mof_C 	C 	0.4729	0.8722	0.156	-0.13
Mof_H 	H 	0.446	0.9135	0.1358	0.067
Mof_C 	C 	0.5146	0.9339	0.1856	0.051
Mof_C 	C 	0.5574	0.8669	0.2144	-0.146
Mof_H 	H 	0.5867	0.9044	0.2349	0.075
Mof_C 	C 	0.5559	0.7444	0.2122	0.094
Mof_H 	H 	0.5883	0.7017	0.2313	-0.008
Mof_C 	C 	0.5142	0.0651	0.1863	0.058
Mof_C 	C 	0.5559	0.1334	0.1572	-0.145
Mof_H 	H 	0.5854	0.096	0.1367	0.074
Mof_C 	C 	0.5532	0.2533	0.159	0.081
Mof_H 	H 	0.5817	0.2959	0.1394	-0.004
Mof_C 	C 	0.4728	0.2505	0.2147	0.099
Mof_H 	H 	0.4428	0.29	0.2348	-0.008
Mof_C 	C 	0.4736	0.1311	0.2154	-0.156
Mof_H 	H 	0.4464	0.0917	0.2358	0.077
Mof_Cu	Cu	0.50017	0.494	0.43583	0.901
Mof_N 	N 	0.5003	0.3081	0.4366	-0.218
Mof_N 	N 	0.6846	0.4875	0.43534	-0.212
Mof_N 	N 	0.5007	0.6779	0.4366	-0.214
Mof_N 	N 	0.3156	0.4885	0.4377	-0.217
Mof_C 	C 	0.5182	0.2457	0.4059	0.069
Mof_H 	H 	0.533	0.2878	0.3848	0.01
Mof_C 	C 	0.5156	0.123	0.4041	-0.134
Mof_H 	H 	0.5229	0.0838	0.3821	0.071
Mof_C 	C 	0.5021	0.0605	0.4356	0.066
Mof_C 	C 	0.4832	0.1249	0.4657	-0.157
Mof_H 	H 	0.4691	0.0861	0.4874	0.08
Mof_C 	C 	0.4845	0.2466	0.4647	0.107
Mof_H 	H 	0.4729	0.287	0.4863	-0.004
Mof_C 	C 	0.5007	0.9282	0.4362	0.062
Mof_C 	C 	0.4684	0.8629	0.4654	-0.142
Mof_H 	H 	0.4459	0.9018	0.4865	0.073
Mof_C 	C 	0.4683	0.7407	0.4647	0.095
Mof_H 	H 	0.4438	0.7003	0.4852	-0.007
Mof_C 	C 	0.5306	0.741	0.4064	0.066
Mof_H 	H 	0.5509	0.7	0.3855	0.004
Mof_C 	C 	0.5317	0.866	0.406	-0.126
Mof_H 	H 	0.5535	0.9065	0.3851	0.068
Mof_C 	C 	0.75	0.5288	0.4062	0.062
Mof_H 	H 	0.7098	0.5585	0.3863	0.005
Mof_C 	C 	0.8722	0.5271	0.406	-0.13
Mof_H 	H 	0.9135	0.554	0.3858	0.067
Mof_C 	C 	0.9339	0.4854	0.4356	0.05
Mof_C 	C 	0.8669	0.4426	0.4644	-0.146
Mof_H 	H 	0.9044	0.4133	0.4849	0.075
Mof_C 	C 	0.7444	0.4441	0.4622	0.094
Mof_H 	H 	0.7017	0.4117	0.4813	-0.008
Mof_C 	C 	0.0651	0.4858	0.4363	0.059
Mof_C 	C 	0.1334	0.4441	0.4072	-0.145
Mof_H 	H 	0.096	0.4146	0.3867	0.075
Mof_C 	C 	0.2533	0.4468	0.409	0.081
Mof_H 	H 	0.2959	0.4183	0.3894	-0.004
Mof_C 	C 	0.2505	0.5272	0.4647	0.099
Mof_H 	H 	0.29	0.5572	0.4848	-0.008
Mof_C 	C 	0.1311	0.5264	0.4654	-0.156
Mof_H 	H 	0.0917	0.5536	0.4858	0.077
Mof_Cu	Cu	0.49983	0.506	0.93583	0.901
Mof_N 	N 	0.4997	0.6919	0.9366	-0.218
Mof_N 	N 	0.3154	0.5125	0.93534	-0.212
Mof_N 	N 	0.4993	0.3221	0.9366	-0.214
Mof_N 	N 	0.6844	0.5115	0.9377	-0.217
Mof_C 	C 	0.4818	0.7543	0.9059	0.069
Mof_H 	H 	0.467	0.7122	0.8848	0.01
Mof_C 	C 	0.4844	0.877	0.9041	-0.134
Mof_H 	H 	0.4771	0.9162	0.8821	0.071
Mof_C 	C 	0.4979	0.9395	0.9356	0.066
Mof_C 	C 	0.5168	0.8751	0.9657	-0.157
Mof_H 	H 	0.5309	0.9139	0.9874	0.08
Mof_C 	C 	0.5155	0.7534	0.9647	0.107
Mof_H 	H 	0.5271	0.713	0.9863	-0.004
Mof_C 	C 	0.4993	0.0718	0.9362	0.061
Mof_C 	C 	0.5316	0.1371	0.9654	-0.142
Mof_H 	H 	0.5541	0.0982	0.9865	0.073
Mof_C 	C 	0.5317	0.2593	0.9647	0.095
Mof_H 	H 	0.5562	0.2997	0.9852	-0.006
Mof_C 	C 	0.4694	0.259	0.9064	0.066
Mof_H 	H 	0.4491	0.3	0.8855	0.004
Mof_C 	C 	0.4683	0.134	0.906	-0.126
Mof_H 	H 	0.4465	0.0935	0.8851	0.068
Mof_C 	C 	0.25	0.4712	0.9062	0.062
Mof_H 	H 	0.2902	0.4415	0.8863	0.005
Mof_C 	C 	0.1278	0.4729	0.906	-0.13
Mof_H 	H 	0.0865	0.446	0.8858	0.067
Mof_C 	C 	0.0661	0.5146	0.9356	0.05
Mof_C 	C 	0.1331	0.5574	0.9644	-0.146
Mof_H 	H 	0.0956	0.5867	0.9849	0.076
Mof_C 	C 	0.2556	0.5559	0.9622	0.094
Mof_H 	H 	0.2983	0.5883	0.9813	-0.008
Mof_C 	C 	0.9349	0.5142	0.9363	0.059
Mof_C 	C 	0.8666	0.5559	0.9072	-0.145
Mof_H 	H 	0.904	0.5854	0.8867	0.075
Mof_C 	C 	0.7467	0.5532	0.909	0.081
Mof_H 	H 	0.7041	0.5817	0.8894	-0.004
Mof_C 	C 	0.7495	0.4728	0.9647	0.099
Mof_H 	H 	0.71	0.4428	0.9848	-0.007
Mof_C 	C 	0.8689	0.4736	0.9654	-0.156
Mof_H 	H 	0.9083	0.4464	0.9858	0.077
_end
