data_functionalizedCrystal
_audit_creation_method	'EQeq! by Chris Wilmer'
_symmetry_space_group_name_H-M	'P1'
_symmetry_Int_Tables_number	1
_symmetry_cell_setting	triclinic
loop_
_symmetry_equiv_pos_as_xyz
  x,y,z
_cell_length_a	4.7611
_cell_length_b	17.6665
_cell_length_c	17.6665
_cell_angle_alpha	88.9596
_cell_angle_beta	82.2559
_cell_angle_gamma	82.2558
loop_
_atom_site_label
_atom_site_type_symbol
_atom_site_fract_x
_atom_site_fract_y
_atom_site_fract_z
_atom_site_charge
Mof_Cu	Cu	0.97273	0.96421	0.73265	0.881
Mof_Cu	Cu	0.16959	0.53579	0.76735	0.881
Mof_Cu	Cu	0.70539	0.26734	0.46421	0.881
Mof_Cu	Cu	0.93693	0.23266	0.03579	0.88
Mof_Cu	Cu	0.02727	0.03579	0.26735	0.881
Mof_Cu	Cu	0.83041	0.46421	0.23265	0.881
Mof_Cu	Cu	0.29461	0.73266	0.53579	0.88
Mof_Cu	Cu	0.06307	0.76734	0.96421	0.879
Mof_H 	H 	0.353	0.063	0.9286	0.071
Mof_H 	H 	0.8016	0.047	0.0266	0.086
Mof_H 	H 	0.8446	0.437	0.5714	0.071
Mof_H 	H 	0.3752	0.453	0.4734	0.086
Mof_H 	H 	0.2816	0.0714	0.563	0.071
Mof_H 	H 	0.8282	0.9734	0.547	0.086
Mof_H 	H 	0.416	0.4286	0.937	0.071
Mof_H 	H 	0.8486	0.5266	0.953	0.086
Mof_H 	H 	0.647	0.937	0.0714	0.071
Mof_H 	H 	0.1984	0.953	0.9734	0.086
Mof_H 	H 	0.1554	0.563	0.4286	0.071
Mof_H 	H 	0.6248	0.547	0.5266	0.086
Mof_H 	H 	0.7184	0.9286	0.437	0.071
Mof_H 	H 	0.1718	0.0266	0.453	0.086
Mof_H 	H 	0.584	0.5714	0.063	0.071
Mof_H 	H 	0.1514	0.4734	0.047	0.086
Mof_C 	C 	0.74303	0.01888	0.87506	0.311
Mof_C 	C 	0.5171	0.02544	0.94356	-0.067
Mof_C 	C 	0.5995	0.04817	0.02183	-0.117
Mof_C 	C 	0.43975	0.12333	0.05317	0.345
Mof_C 	C 	0.13697	0.48112	0.62494	0.31
Mof_C 	C 	0.9861	0.47456	0.55644	-0.067
Mof_C 	C 	0.1695	0.45183	0.47817	-0.117
Mof_C 	C 	0.11625	0.37667	0.44683	0.346
Mof_C 	C 	0.61809	0.12494	0.51888	0.31
Mof_C 	C 	0.46066	0.05644	0.52544	-0.067
Mof_C 	C 	0.62133	0.97817	0.54817	-0.117
Mof_C 	C 	0.49292	0.94683	0.62333	0.346
Mof_C 	C 	0.76191	0.37506	0.98112	0.311
Mof_C 	C 	0.54254	0.44356	0.97456	-0.067
Mof_C 	C 	0.64767	0.52183	0.95183	-0.117
Mof_C 	C 	0.56308	0.55317	0.87667	0.346
Mof_C 	C 	0.25697	0.98112	0.12494	0.311
Mof_C 	C 	0.4829	0.97456	0.05644	-0.067
Mof_C 	C 	0.4005	0.95183	0.97817	-0.117
Mof_C 	C 	0.56025	0.87667	0.94683	0.345
Mof_C 	C 	0.86303	0.51888	0.37506	0.31
Mof_C 	C 	0.0139	0.52544	0.44356	-0.067
Mof_C 	C 	0.8305	0.54817	0.52183	-0.117
Mof_C 	C 	0.88375	0.62333	0.55317	0.346
Mof_C 	C 	0.38191	0.87506	0.48112	0.31
Mof_C 	C 	0.53934	0.94356	0.47456	-0.067
Mof_C 	C 	0.37867	0.02183	0.45183	-0.117
Mof_C 	C 	0.50708	0.05317	0.37667	0.346
Mof_C 	C 	0.23809	0.62494	0.01888	0.311
Mof_C 	C 	0.45746	0.55644	0.02544	-0.067
Mof_C 	C 	0.35233	0.47817	0.04817	-0.117
Mof_C 	C 	0.43692	0.44683	0.12333	0.346
Mof_O 	O 	0.9308	0.06256	0.86784	-0.311
Mof_O 	O 	0.7148	0.96983	0.82557	-0.412
Mof_O 	O 	0.55597	0.16572	0.09274	-0.365
Mof_O 	O 	0.18874	0.13859	0.03533	-0.42
Mof_O 	O 	0.3612	0.43744	0.63216	-0.311
Mof_O 	O 	0.0102	0.53017	0.67443	-0.413
Mof_O 	O 	0.31443	0.33428	0.40726	-0.365
Mof_O 	O 	0.86266	0.36141	0.46467	-0.423
Mof_O 	O 	0.79864	0.13216	0.56256	-0.31
Mof_O 	O 	0.54037	0.17443	0.46983	-0.412
Mof_O 	O 	0.64871	0.90726	0.66572	-0.365
Mof_O 	O 	0.22407	0.96467	0.63859	-0.421
Mof_O 	O 	0.99336	0.36784	0.93744	-0.311
Mof_O 	O 	0.68463	0.32557	0.03017	-0.413
Mof_O 	O 	0.72169	0.59274	0.83428	-0.364
Mof_O 	O 	0.32733	0.53533	0.86141	-0.423
Mof_O 	O 	0.0692	0.93744	0.13216	-0.311
Mof_O 	O 	0.2852	0.03017	0.17443	-0.412
Mof_O 	O 	0.44403	0.83428	0.90726	-0.365
Mof_O 	O 	0.81126	0.86141	0.96467	-0.42
Mof_O 	O 	0.6388	0.56256	0.36784	-0.311
Mof_O 	O 	0.9898	0.46983	0.32557	-0.413
Mof_O 	O 	0.68557	0.66572	0.59274	-0.365
Mof_O 	O 	0.13734	0.63859	0.53533	-0.423
Mof_O 	O 	0.20136	0.86784	0.43744	-0.31
Mof_O 	O 	0.45963	0.82557	0.53017	-0.412
Mof_O 	O 	0.35129	0.09274	0.33428	-0.365
Mof_O 	O 	0.77593	0.03533	0.36141	-0.421
Mof_O 	O 	0.00664	0.63216	0.06256	-0.311
Mof_O 	O 	0.31537	0.67443	0.96983	-0.413
Mof_O 	O 	0.27831	0.40726	0.16572	-0.364
Mof_O 	O 	0.67267	0.46467	0.13859	-0.423
_end
