data_functionalizedCrystal
_audit_creation_method	'EQeq! by Chris Wilmer'
_symmetry_space_group_name_H-M	'P1'
_symmetry_Int_Tables_number	1
_symmetry_cell_setting	triclinic
loop_
_symmetry_equiv_pos_as_xyz
  x,y,z
_cell_length_a	15.3645
_cell_length_b	15.1275
_cell_length_c	8.311
_cell_angle_alpha	90
_cell_angle_beta	91.85
_cell_angle_gamma	90
loop_
_atom_site_label
_atom_site_type_symbol
_atom_site_fract_x
_atom_site_fract_y
_atom_site_fract_z
_atom_site_charge
Mof_C 	C 	0.31891	0.08566	0.9485	0.03
Mof_H 	H 	0.3654	0.1168	0.9075	0.017
Mof_C 	C 	0.32046	0.99369	0.9418	-0.032
Mof_C 	C 	0.24856	0.94827	0.9986	-0.037
Mof_H 	H 	0.2469	0.8869	0.9939	0.044
Mof_C 	C 	0.1792	0.99466	0.0624	-0.024
Mof_C 	C 	0.18564	0.08643	0.0696	0.02
Mof_H 	H 	0.1412	0.118	0.1165	0.018
Mof_C 	C 	0.39708	0.94669	0.8789	0.088
Mof_C 	C 	0.44677	0.98402	0.7578	-0.144
Mof_H 	H 	0.4317	0.0389	0.7149	0.092
Mof_C 	C 	0.5185	0.93901	0.7021	0.068
Mof_H 	H 	0.551	0.9641	0.6214	0.023
Mof_C 	C 	0.54262	0.85711	0.7645	-0.135
Mof_C 	C 	0.49321	0.8198	0.8849	0.056
Mof_H 	H 	0.5088	0.7651	0.9282	0.021
Mof_C 	C 	0.42089	0.86391	0.9402	-0.138
Mof_H 	H 	0.3878	0.838	0.0193	0.082
Mof_C 	C 	0.6222	0.80932	0.7091	0.362
Mof_C 	C 	0.09982	0.94891	0.1173	0.08
Mof_C 	C 	0.05087	0.98305	0.2423	-0.13
Mof_H 	H 	0.0674	0.0358	0.292	0.084
Mof_C 	C 	0.97769	0.93819	0.2919	0.056
Mof_H 	H 	0.9455	0.9612	0.375	0.027
Mof_C 	C 	0.95166	0.85921	0.2191	-0.127
Mof_C 	C 	0.99998	0.82549	0.0945	0.05
Mof_H 	H 	0.9831	0.7728	0.045	0.023
Mof_C 	C 	0.07309	0.86973	0.0434	-0.13
Mof_H 	H 	0.1046	0.8467	0.9595	0.079
Mof_C 	C 	0.87129	0.81102	0.2704	0.36
Mof_N 	N 	0.25331	0.13139	0.01161	-0.241
Mof_O 	O 	0.83227	0.84231	0.3889	-0.454
Mof_O 	O 	0.84779	0.74259	0.1949	-0.424
Mof_O 	O 	0.65994	0.84146	0.5897	-0.453
Mof_O 	O 	0.6465	0.74045	0.7822	-0.433
Mof_Zn	Zn	0.2541	0.26728	0.01296	1.223
Mof_C 	C 	0.68109	0.58566	0.5515	0.025
Mof_H 	H 	0.6346	0.6168	0.5925	0.017
Mof_C 	C 	0.67954	0.49369	0.5582	-0.029
Mof_C 	C 	0.75144	0.44827	0.5014	-0.036
Mof_H 	H 	0.7531	0.3869	0.5061	0.044
Mof_C 	C 	0.8208	0.49466	0.4376	-0.028
Mof_C 	C 	0.81436	0.58643	0.4304	0.024
Mof_H 	H 	0.8588	0.618	0.3835	0.017
Mof_C 	C 	0.60292	0.44669	0.6211	0.086
Mof_C 	C 	0.55323	0.48402	0.7422	-0.141
Mof_H 	H 	0.5683	0.5389	0.7851	0.091
Mof_C 	C 	0.4815	0.43901	0.7979	0.065
Mof_H 	H 	0.449	0.4641	0.8786	0.025
Mof_C 	C 	0.45738	0.35711	0.7355	-0.133
Mof_C 	C 	0.50679	0.3198	0.6151	0.053
Mof_H 	H 	0.4912	0.2651	0.5718	0.022
Mof_C 	C 	0.57911	0.36391	0.5598	-0.135
Mof_H 	H 	0.6122	0.338	0.4807	0.08
Mof_C 	C 	0.3778	0.30932	0.7909	0.361
Mof_C 	C 	0.90018	0.44891	0.3827	0.083
Mof_C 	C 	0.94913	0.48305	0.2577	-0.136
Mof_H 	H 	0.9326	0.5358	0.208	0.088
Mof_C 	C 	0.02231	0.43819	0.2081	0.06
Mof_H 	H 	0.0545	0.4612	0.125	0.026
Mof_C 	C 	0.04834	0.35921	0.2809	-0.13
Mof_C 	C 	2e-05	0.32549	0.4055	0.051
Mof_H 	H 	0.0169	0.2728	0.455	0.022
Mof_C 	C 	0.92691	0.36973	0.4566	-0.132
Mof_H 	H 	0.8954	0.3467	0.5405	0.08
Mof_C 	C 	0.12871	0.31102	0.2296	0.36
Mof_N 	N 	0.74669	0.63139	0.48839	-0.24
Mof_O 	O 	0.16773	0.34231	0.1111	-0.454
Mof_O 	O 	0.15221	0.24259	0.3051	-0.425
Mof_O 	O 	0.34006	0.34146	0.9103	-0.452
Mof_O 	O 	0.3535	0.24045	0.7178	-0.432
Mof_Zn	Zn	0.7459	0.76728	0.48704	1.223
Mof_C 	C 	0.68109	0.91434	0.0515	0.029
Mof_H 	H 	0.6346	0.8832	0.0925	0.016
Mof_C 	C 	0.67954	0.00631	0.0582	-0.032
Mof_C 	C 	0.75144	0.05173	0.0014	-0.037
Mof_H 	H 	0.7531	0.1131	0.0061	0.044
Mof_C 	C 	0.8208	0.00534	0.9376	-0.024
Mof_C 	C 	0.81436	0.91357	0.9304	0.02
Mof_H 	H 	0.8588	0.882	0.8835	0.018
Mof_C 	C 	0.60292	0.05331	0.1211	0.088
Mof_C 	C 	0.55323	0.01598	0.2422	-0.144
Mof_H 	H 	0.5683	0.9611	0.2851	0.092
Mof_C 	C 	0.4815	0.06099	0.2979	0.068
Mof_H 	H 	0.449	0.0359	0.3786	0.023
Mof_C 	C 	0.45738	0.14289	0.2355	-0.135
Mof_C 	C 	0.50679	0.1802	0.1151	0.056
Mof_H 	H 	0.4912	0.2349	0.0718	0.021
Mof_C 	C 	0.57911	0.13609	0.0598	-0.138
Mof_H 	H 	0.6122	0.162	0.9807	0.082
Mof_C 	C 	0.3778	0.19068	0.2909	0.362
Mof_C 	C 	0.90018	0.05109	0.8827	0.08
Mof_C 	C 	0.94913	0.01695	0.7577	-0.13
Mof_H 	H 	0.9326	0.9642	0.708	0.084
Mof_C 	C 	0.02231	0.06181	0.7081	0.056
Mof_H 	H 	0.0545	0.0388	0.625	0.027
Mof_C 	C 	0.04834	0.14079	0.7809	-0.127
Mof_C 	C 	2e-05	0.17451	0.9055	0.05
Mof_H 	H 	0.0169	0.2272	0.955	0.023
Mof_C 	C 	0.92691	0.13027	0.9566	-0.13
Mof_H 	H 	0.8954	0.1533	0.0405	0.079
Mof_C 	C 	0.12871	0.18898	0.7296	0.36
Mof_N 	N 	0.74669	0.86861	0.98839	-0.241
Mof_O 	O 	0.16773	0.15769	0.6111	-0.454
Mof_O 	O 	0.15221	0.25741	0.8051	-0.424
Mof_O 	O 	0.34006	0.15854	0.4103	-0.453
Mof_O 	O 	0.3535	0.25955	0.2178	-0.433
Mof_Zn	Zn	0.7459	0.73272	0.98704	1.223
Mof_C 	C 	0.31891	0.41434	0.4485	0.025
Mof_H 	H 	0.3654	0.3832	0.4075	0.017
Mof_C 	C 	0.32046	0.50631	0.4418	-0.029
Mof_C 	C 	0.24856	0.55173	0.4986	-0.036
Mof_H 	H 	0.2469	0.6131	0.4939	0.044
Mof_C 	C 	0.1792	0.50534	0.5624	-0.028
Mof_C 	C 	0.18564	0.41357	0.5696	0.024
Mof_H 	H 	0.1412	0.382	0.6165	0.017
Mof_C 	C 	0.39708	0.55331	0.3789	0.086
Mof_C 	C 	0.44677	0.51598	0.2578	-0.141
Mof_H 	H 	0.4317	0.4611	0.2149	0.091
Mof_C 	C 	0.5185	0.56099	0.2021	0.065
Mof_H 	H 	0.551	0.5359	0.1214	0.025
Mof_C 	C 	0.54262	0.64289	0.2645	-0.133
Mof_C 	C 	0.49321	0.6802	0.3849	0.053
Mof_H 	H 	0.5088	0.7349	0.4282	0.022
Mof_C 	C 	0.42089	0.63609	0.4402	-0.135
Mof_H 	H 	0.3878	0.662	0.5193	0.08
Mof_C 	C 	0.6222	0.69068	0.2091	0.361
Mof_C 	C 	0.09982	0.55109	0.6173	0.083
Mof_C 	C 	0.05087	0.51695	0.7423	-0.136
Mof_H 	H 	0.0674	0.4642	0.792	0.088
Mof_C 	C 	0.97769	0.56181	0.7919	0.06
Mof_H 	H 	0.9455	0.5388	0.875	0.026
Mof_C 	C 	0.95166	0.64079	0.7191	-0.13
Mof_C 	C 	0.99998	0.67451	0.5945	0.051
Mof_H 	H 	0.9831	0.7272	0.545	0.022
Mof_C 	C 	0.07309	0.63027	0.5434	-0.132
Mof_H 	H 	0.1046	0.6533	0.4595	0.08
Mof_C 	C 	0.87129	0.68898	0.7704	0.36
Mof_N 	N 	0.25331	0.36861	0.51161	-0.24
Mof_O 	O 	0.83227	0.65769	0.8889	-0.454
Mof_O 	O 	0.84779	0.75741	0.6949	-0.425
Mof_O 	O 	0.65994	0.65854	0.0897	-0.452
Mof_O 	O 	0.6465	0.75955	0.2822	-0.432
Mof_Zn	Zn	0.2541	0.23272	0.51296	1.223
_end
