data_functionalizedCrystal
_audit_creation_method	'EQeq! by Chris Wilmer'
_symmetry_space_group_name_H-M	'P1'
_symmetry_Int_Tables_number	1
_symmetry_cell_setting	triclinic
loop_
_symmetry_equiv_pos_as_xyz
  x,y,z
_cell_length_a	11.6054
_cell_length_b	16.2662
_cell_length_c	12.0479
_cell_angle_alpha	90
_cell_angle_beta	112.497
_cell_angle_gamma	90
loop_
_atom_site_label
_atom_site_type_symbol
_atom_site_fract_x
_atom_site_fract_y
_atom_site_fract_z
_atom_site_charge
Mof_Gd	Gd	0.19417	0.02735	0.07825	1.854
Mof_S 	S 	0.05329	0.21858	0.71196	0.102
Mof_S 	S 	0.48992	0.28305	0.25164	0.076
Mof_O 	O 	0.1317	0.0779	0.8788	-0.437
Mof_O 	O 	0.9411	0.03046	0.846	-0.498
Mof_O 	O 	0.0562	0.3632	0.5684	-0.475
Mof_O 	O 	0.8576	0.40046	0.5242	-0.47
Mof_O 	O 	0.275	0.1044	0.2793	-0.352
Mof_O 	O 	0.3393	0.14	0.1365	-0.4
Mof_O 	O 	0.6473	0.4335	0.2923	-0.38
Mof_O 	O 	0.6231	0.47571	0.4575	-0.356
Mof_C 	C 	0.9588	0.1526	0.7492	-0.117
Mof_C 	C 	0.8372	0.1766	0.702	-0.004
Mof_H 	H 	0.7729	0.1485	0.7137	0.05
Mof_C 	C 	0.8203	0.249	0.6332	0.014
Mof_H 	H 	0.7433	0.274	0.5943	0.044
Mof_C 	C 	0.9285	0.2783	0.6297	-0.133
Mof_C 	C 	0.0148	0.0821	0.8299	0.423
Mof_C 	C 	0.9494	0.3533	0.5696	0.466
Mof_C 	C 	0.3941	0.228	0.3031	-0.08
Mof_C 	C 	0.3839	0.2645	0.4008	-0.004
Mof_H 	H 	0.3364	0.2432	0.4412	0.055
Mof_C 	C 	0.4527	0.3374	0.4339	-0.019
Mof_H 	H 	0.4545	0.3703	0.4976	0.072
Mof_C 	C 	0.5168	0.3549	0.3624	-0.064
Mof_C 	C 	0.3332	0.1525	0.2373	0.322
Mof_C 	C 	0.6001	0.4257	0.3709	0.299
Mof_Gd	Gd	0.80583	0.52735	0.42175	1.878
Mof_S 	S 	0.94671	0.71858	0.78804	0.101
Mof_S 	S 	0.51008	0.78305	0.24836	0.077
Mof_O 	O 	0.8683	0.5779	0.6212	-0.443
Mof_O 	O 	0.0589	0.53046	0.654	-0.509
Mof_O 	O 	0.9438	0.8632	0.9316	-0.478
Mof_O 	O 	0.1424	0.90046	0.9758	-0.47
Mof_O 	O 	0.725	0.6044	0.2207	-0.351
Mof_O 	O 	0.6607	0.64	0.3635	-0.4
Mof_O 	O 	0.3527	0.9335	0.2077	-0.376
Mof_O 	O 	0.3769	0.97571	0.0425	-0.35
Mof_C 	C 	0.0412	0.6526	0.7508	-0.121
Mof_C 	C 	0.1628	0.6766	0.798	-0.002
Mof_H 	H 	0.2271	0.6485	0.7863	0.049
Mof_C 	C 	0.1797	0.749	0.8668	0.013
Mof_H 	H 	0.2567	0.774	0.9057	0.044
Mof_C 	C 	0.0715	0.7783	0.8703	-0.133
Mof_C 	C 	0.9852	0.5821	0.6701	0.43
Mof_C 	C 	0.0506	0.8533	0.9304	0.469
Mof_C 	C 	0.6059	0.728	0.1969	-0.08
Mof_C 	C 	0.6161	0.7645	0.0992	-0.003
Mof_H 	H 	0.6636	0.7432	0.0588	0.056
Mof_C 	C 	0.5473	0.8374	0.0661	-0.019
Mof_H 	H 	0.5455	0.8703	0.0024	0.073
Mof_C 	C 	0.4832	0.8549	0.1376	-0.063
Mof_C 	C 	0.6668	0.6525	0.2627	0.321
Mof_C 	C 	0.3999	0.9257	0.1291	0.299
Mof_Gd	Gd	0.80583	0.97265	0.92175	1.854
Mof_S 	S 	0.94671	0.78142	0.28804	0.102
Mof_S 	S 	0.51008	0.71695	0.74836	0.076
Mof_O 	O 	0.8683	0.9221	0.1212	-0.437
Mof_O 	O 	0.0589	0.96954	0.154	-0.498
Mof_O 	O 	0.9438	0.6368	0.4316	-0.475
Mof_O 	O 	0.1424	0.59954	0.4758	-0.47
Mof_O 	O 	0.725	0.8956	0.7207	-0.352
Mof_O 	O 	0.6607	0.86	0.8635	-0.4
Mof_O 	O 	0.3527	0.5665	0.7077	-0.38
Mof_O 	O 	0.3769	0.52429	0.5425	-0.356
Mof_C 	C 	0.0412	0.8474	0.2508	-0.117
Mof_C 	C 	0.1628	0.8234	0.298	-0.004
Mof_H 	H 	0.2271	0.8515	0.2863	0.05
Mof_C 	C 	0.1797	0.751	0.3668	0.014
Mof_H 	H 	0.2567	0.726	0.4057	0.044
Mof_C 	C 	0.0715	0.7217	0.3703	-0.133
Mof_C 	C 	0.9852	0.9179	0.1701	0.423
Mof_C 	C 	0.0506	0.6467	0.4304	0.466
Mof_C 	C 	0.6059	0.772	0.6969	-0.08
Mof_C 	C 	0.6161	0.7355	0.5992	-0.004
Mof_H 	H 	0.6636	0.7568	0.5588	0.055
Mof_C 	C 	0.5473	0.6626	0.5661	-0.019
Mof_H 	H 	0.5455	0.6297	0.5024	0.072
Mof_C 	C 	0.4832	0.6451	0.6376	-0.064
Mof_C 	C 	0.6668	0.8475	0.7627	0.322
Mof_C 	C 	0.3999	0.5743	0.6291	0.299
Mof_Gd	Gd	0.19417	0.47265	0.57825	1.878
Mof_S 	S 	0.05329	0.28142	0.21196	0.101
Mof_S 	S 	0.48992	0.21695	0.75164	0.077
Mof_O 	O 	0.1317	0.4221	0.3788	-0.443
Mof_O 	O 	0.9411	0.46954	0.346	-0.509
Mof_O 	O 	0.0562	0.1368	0.0684	-0.478
Mof_O 	O 	0.8576	0.09954	0.0242	-0.47
Mof_O 	O 	0.275	0.3956	0.7793	-0.351
Mof_O 	O 	0.3393	0.36	0.6365	-0.4
Mof_O 	O 	0.6473	0.0665	0.7923	-0.376
Mof_O 	O 	0.6231	0.02429	0.9575	-0.35
Mof_C 	C 	0.9588	0.3474	0.2492	-0.121
Mof_C 	C 	0.8372	0.3234	0.202	-0.002
Mof_H 	H 	0.7729	0.3515	0.2137	0.049
Mof_C 	C 	0.8203	0.251	0.1332	0.013
Mof_H 	H 	0.7433	0.226	0.0943	0.044
Mof_C 	C 	0.9285	0.2217	0.1297	-0.133
Mof_C 	C 	0.0148	0.4179	0.3299	0.43
Mof_C 	C 	0.9494	0.1467	0.0696	0.469
Mof_C 	C 	0.3941	0.272	0.8031	-0.08
Mof_C 	C 	0.3839	0.2355	0.9008	-0.003
Mof_H 	H 	0.3364	0.2568	0.9412	0.056
Mof_C 	C 	0.4527	0.1626	0.9339	-0.019
Mof_H 	H 	0.4545	0.1297	0.9976	0.073
Mof_C 	C 	0.5168	0.1451	0.8624	-0.063
Mof_C 	C 	0.3332	0.3475	0.7373	0.321
Mof_C 	C 	0.6001	0.0743	0.8709	0.299
_end
