data_functionalizedCrystal
_audit_creation_method	'EQeq! by Chris Wilmer'
_symmetry_space_group_name_H-M	'P1'
_symmetry_Int_Tables_number	1
_symmetry_cell_setting	triclinic
loop_
_symmetry_equiv_pos_as_xyz
  x,y,z
_cell_length_a	10.0517
_cell_length_b	10.4293
_cell_length_c	14.905
_cell_angle_alpha	90
_cell_angle_beta	90
_cell_angle_gamma	90
loop_
_atom_site_label
_atom_site_type_symbol
_atom_site_fract_x
_atom_site_fract_y
_atom_site_fract_z
_atom_site_charge
Mof_Zn	Zn	0.86651	0.80572	0.67659	1.245
Mof_Zn	Zn	0.62939	0.14276	0.76325	1.245
Mof_P 	P 	0.5985	0.8408	0.77818	0.554
Mof_P 	P 	0.93664	0.10943	0.70409	0.599
Mof_P 	P 	0.92528	0.85143	0.46899	0.539
Mof_O 	O 	0.8844	0.7709	0.54962	-0.407
Mof_O 	O 	0.6786	0.7796	0.70245	-0.456
Mof_O 	O 	0.9411	0.9647	0.72007	-0.444
Mof_O 	O 	0.0341	0.1714	0.76572	-0.422
Mof_O 	O 	0.5535	0.9744	0.75495	-0.452
Mof_O 	O 	0.8001	0.1633	0.7084	-0.459
Mof_O 	O 	0.8593	0.7985	0.3864	-0.424
Mof_O 	O 	0.4825	0.7576	0.80479	-0.409
Mof_O 	O 	0.6963	0.849	0.86162	-0.35
Mof_O 	O 	0.9885	0.1388	0.60599	-0.32
Mof_O 	O 	0.901	0.9931	0.48404	-0.316
Mof_O 	O 	0.0814	0.833	0.4569	-0.32
Mof_H 	H 	0.658	0.908	0.908	0.207
Mof_H 	H 	0.943	0.083	0.561	0.212
Mof_H 	H 	0.106	0.787	0.401	0.178
Mof_Zn	Zn	0.63349	0.19428	0.17659	1.246
Mof_Zn	Zn	0.87061	0.85724	0.26325	1.245
Mof_P 	P 	0.9015	0.1592	0.27818	0.554
Mof_P 	P 	0.56336	0.89057	0.20409	0.6
Mof_P 	P 	0.57472	0.14857	0.96899	0.538
Mof_O 	O 	0.6156	0.2291	0.04962	-0.406
Mof_O 	O 	0.8214	0.2204	0.20245	-0.456
Mof_O 	O 	0.5589	0.0353	0.22007	-0.444
Mof_O 	O 	0.4659	0.8286	0.26572	-0.423
Mof_O 	O 	0.9465	0.0256	0.25495	-0.452
Mof_O 	O 	0.6999	0.8367	0.2084	-0.459
Mof_O 	O 	0.6407	0.2015	0.8864	-0.424
Mof_O 	O 	0.0175	0.2424	0.30479	-0.41
Mof_O 	O 	0.8037	0.151	0.36162	-0.35
Mof_O 	O 	0.5115	0.8612	0.10599	-0.32
Mof_O 	O 	0.599	0.0069	0.98404	-0.317
Mof_O 	O 	0.4186	0.167	0.9569	-0.32
Mof_H 	H 	0.842	0.092	0.408	0.206
Mof_H 	H 	0.557	0.917	0.061	0.212
Mof_H 	H 	0.394	0.213	0.901	0.178
Mof_Zn	Zn	0.13349	0.30572	0.82341	1.246
Mof_Zn	Zn	0.37061	0.64276	0.73675	1.245
Mof_P 	P 	0.4015	0.3408	0.72182	0.554
Mof_P 	P 	0.06336	0.60943	0.79591	0.601
Mof_P 	P 	0.07472	0.35143	0.03101	0.538
Mof_O 	O 	0.1156	0.2709	0.95038	-0.407
Mof_O 	O 	0.3214	0.2796	0.79755	-0.456
Mof_O 	O 	0.0589	0.4647	0.77993	-0.445
Mof_O 	O 	0.9659	0.6714	0.73428	-0.423
Mof_O 	O 	0.4465	0.4744	0.74505	-0.452
Mof_O 	O 	0.1999	0.6633	0.7916	-0.458
Mof_O 	O 	0.1407	0.2985	0.1136	-0.424
Mof_O 	O 	0.5175	0.2576	0.69521	-0.41
Mof_O 	O 	0.3037	0.349	0.63838	-0.35
Mof_O 	O 	0.0115	0.6388	0.89401	-0.319
Mof_O 	O 	0.099	0.4931	0.01596	-0.316
Mof_O 	O 	0.9186	0.333	0.0431	-0.319
Mof_H 	H 	0.342	0.408	0.592	0.206
Mof_H 	H 	0.057	0.583	0.939	0.212
Mof_H 	H 	0.894	0.287	0.099	0.178
Mof_Zn	Zn	0.36651	0.69428	0.32341	1.246
Mof_Zn	Zn	0.12939	0.35724	0.23675	1.245
Mof_P 	P 	0.0985	0.6592	0.22182	0.553
Mof_P 	P 	0.43664	0.39057	0.29591	0.601
Mof_P 	P 	0.42528	0.64857	0.53101	0.539
Mof_O 	O 	0.3844	0.7291	0.45038	-0.407
Mof_O 	O 	0.1786	0.7204	0.29755	-0.456
Mof_O 	O 	0.4411	0.5353	0.27993	-0.445
Mof_O 	O 	0.5341	0.3286	0.23428	-0.422
Mof_O 	O 	0.0535	0.5256	0.24505	-0.452
Mof_O 	O 	0.3001	0.3367	0.2916	-0.459
Mof_O 	O 	0.3593	0.7015	0.6136	-0.424
Mof_O 	O 	0.9825	0.7424	0.19521	-0.409
Mof_O 	O 	0.1963	0.651	0.13838	-0.35
Mof_O 	O 	0.4885	0.3612	0.39401	-0.32
Mof_O 	O 	0.401	0.5069	0.51596	-0.316
Mof_O 	O 	0.5814	0.667	0.5431	-0.319
Mof_H 	H 	0.158	0.592	0.092	0.206
Mof_H 	H 	0.443	0.417	0.439	0.212
Mof_H 	H 	0.606	0.713	0.599	0.178
_end
