data_functionalizedCrystal
_audit_creation_method	'EQeq! by Chris Wilmer'
_symmetry_space_group_name_H-M	'P1'
_symmetry_Int_Tables_number	1
_symmetry_cell_setting	triclinic
loop_
_symmetry_equiv_pos_as_xyz
  x,y,z
_cell_length_a	18.389
_cell_length_b	18.389
_cell_length_c	17.969
_cell_angle_alpha	90
_cell_angle_beta	90
_cell_angle_gamma	120
loop_
_atom_site_label
_atom_site_type_symbol
_atom_site_fract_x
_atom_site_fract_y
_atom_site_fract_z
_atom_site_charge
Mof_Zn	Zn	0.75691	0.65858	0.33316	1.226
Mof_O 	O 	0.7877	0.7186	0.4293	-0.497
Mof_O 	O 	0.7603	0.5568	0.3499	-0.481
Mof_O 	O 	0.8799	0.729	0.7669	-0.483
Mof_C 	C 	0.6917	0.5037	0.3707	0.364
Mof_O 	O 	0.907	0.6844	0.6627	-0.481
Mof_O 	O 	0.6311	0.513	0.3809	-0.346
Mof_C 	C 	0.6775	0.4132	0.377	-0.117
Mof_C 	C 	0.8221	0.7463	0.5776	0.131
Mof_C 	C 	0.7474	0.401	0.3772	0.044
Mof_H 	H 	0.8443	0.7176	0.5513	0.013
Mof_C 	C 	0.8335	0.7566	0.654	-0.186
Mof_H 	H 	0.8021	0.4475	0.3775	0.041
Mof_C 	C 	0.877	0.7218	0.6968	0.437
Mof_Zn	Zn	0.34142	0.09833	0.33316	1.224
Mof_O 	O 	0.2814	0.0691	0.4293	-0.5
Mof_O 	O 	0.4432	0.2035	0.3499	-0.486
Mof_O 	O 	0.271	0.1509	0.7669	-0.5
Mof_C 	C 	0.4963	0.188	0.3707	0.367
Mof_O 	O 	0.3156	0.2226	0.6627	-0.5
Mof_O 	O 	0.487	0.1181	0.3809	-0.354
Mof_C 	C 	0.5868	0.2643	0.377	-0.121
Mof_C 	C 	0.2537	0.0758	0.5776	0.133
Mof_C 	C 	0.599	0.3464	0.3772	0.045
Mof_H 	H 	0.2824	0.1267	0.5513	0.005
Mof_C 	C 	0.2434	0.0769	0.654	-0.191
Mof_H 	H 	0.5525	0.3546	0.3775	0.035
Mof_C 	C 	0.2782	0.1552	0.6968	0.435
Mof_Zn	Zn	0.90167	0.24309	0.33316	1.231
Mof_O 	O 	0.9309	0.2123	0.4293	-0.47
Mof_O 	O 	0.7965	0.2397	0.3499	-0.484
Mof_O 	O 	0.8491	0.1201	0.7669	-0.489
Mof_C 	C 	0.812	0.3083	0.3707	0.364
Mof_O 	O 	0.7774	0.093	0.6627	-0.504
Mof_O 	O 	0.8819	0.3689	0.3809	-0.332
Mof_C 	C 	0.7357	0.3225	0.377	-0.117
Mof_C 	C 	0.9242	0.1779	0.5776	0.17
Mof_C 	C 	0.6536	0.2526	0.3772	0.046
Mof_H 	H 	0.8733	0.1557	0.5513	-0.004
Mof_C 	C 	0.9231	0.1665	0.654	-0.165
Mof_H 	H 	0.6454	0.1979	0.3775	0.033
Mof_C 	C 	0.8448	0.123	0.6968	0.431
Mof_Zn	Zn	0.24309	0.34142	0.83316	1.226
Mof_O 	O 	0.2123	0.2814	0.9293	-0.509
Mof_O 	O 	0.2397	0.4432	0.8499	-0.485
Mof_O 	O 	0.1201	0.271	0.2669	-0.506
Mof_C 	C 	0.3083	0.4963	0.8707	0.366
Mof_O 	O 	0.093	0.3156	0.1627	-0.511
Mof_O 	O 	0.3689	0.487	0.8809	-0.343
Mof_C 	C 	0.3225	0.5868	0.877	-0.117
Mof_C 	C 	0.1779	0.2537	0.0776	0.151
Mof_C 	C 	0.2526	0.599	0.8772	0.045
Mof_H 	H 	0.1557	0.2824	0.0513	-0.009
Mof_C 	C 	0.1665	0.2434	0.154	-0.215
Mof_H 	H 	0.1979	0.5525	0.8775	0.034
Mof_C 	C 	0.123	0.2782	0.1968	0.443
Mof_Zn	Zn	0.65858	0.90167	0.83316	1.232
Mof_O 	O 	0.7186	0.9309	0.9293	-0.465
Mof_O 	O 	0.5568	0.7965	0.8499	-0.478
Mof_O 	O 	0.729	0.8491	0.2669	-0.483
Mof_C 	C 	0.5037	0.812	0.8707	0.363
Mof_O 	O 	0.6844	0.7774	0.1627	-0.498
Mof_O 	O 	0.513	0.8819	0.8809	-0.328
Mof_C 	C 	0.4132	0.7357	0.877	-0.112
Mof_C 	C 	0.7463	0.9242	0.0776	0.18
Mof_C 	C 	0.401	0.6536	0.8772	0.044
Mof_H 	H 	0.7176	0.8733	0.0513	-0.008
Mof_C 	C 	0.7566	0.9231	0.154	-0.166
Mof_H 	H 	0.4475	0.6454	0.8775	0.038
Mof_C 	C 	0.7218	0.8448	0.1968	0.435
Mof_Zn	Zn	0.09833	0.75691	0.83316	1.225
Mof_O 	O 	0.0691	0.7877	0.9293	-0.495
Mof_O 	O 	0.2035	0.7603	0.8499	-0.479
Mof_O 	O 	0.1509	0.8799	0.2669	-0.491
Mof_C 	C 	0.188	0.6917	0.8707	0.366
Mof_O 	O 	0.2226	0.907	0.1627	-0.486
Mof_O 	O 	0.1181	0.6311	0.8809	-0.351
Mof_C 	C 	0.2643	0.6775	0.877	-0.116
Mof_C 	C 	0.0758	0.8221	0.0776	0.144
Mof_C 	C 	0.3464	0.7474	0.8772	0.043
Mof_H 	H 	0.1267	0.8443	0.0513	0.002
Mof_C 	C 	0.0769	0.8335	0.154	-0.191
Mof_H 	H 	0.3546	0.8021	0.8775	0.043
Mof_C 	C 	0.1552	0.877	0.1968	0.436
Mof_Zn	Zn	0.34142	0.24309	0.83316	1.226
Mof_O 	O 	0.2814	0.2123	0.9293	-0.509
Mof_O 	O 	0.4432	0.2397	0.8499	-0.485
Mof_O 	O 	0.271	0.1201	0.2669	-0.506
Mof_C 	C 	0.4963	0.3083	0.8707	0.366
Mof_O 	O 	0.3156	0.093	0.1627	-0.511
Mof_O 	O 	0.487	0.3689	0.8809	-0.343
Mof_C 	C 	0.5868	0.3225	0.877	-0.117
Mof_C 	C 	0.2537	0.1779	0.0776	0.151
Mof_C 	C 	0.599	0.2526	0.8772	0.045
Mof_H 	H 	0.2824	0.1557	0.0513	-0.009
Mof_C 	C 	0.2434	0.1665	0.154	-0.215
Mof_H 	H 	0.5525	0.1979	0.8775	0.034
Mof_C 	C 	0.2782	0.123	0.1968	0.443
Mof_Zn	Zn	0.90167	0.65858	0.83316	1.232
Mof_O 	O 	0.9309	0.7186	0.9293	-0.465
Mof_O 	O 	0.7965	0.5568	0.8499	-0.478
Mof_O 	O 	0.8491	0.729	0.2669	-0.483
Mof_C 	C 	0.812	0.5037	0.8707	0.363
Mof_O 	O 	0.7774	0.6844	0.1627	-0.498
Mof_O 	O 	0.8819	0.513	0.8809	-0.328
Mof_C 	C 	0.7357	0.4132	0.877	-0.112
Mof_C 	C 	0.9242	0.7463	0.0776	0.18
Mof_C 	C 	0.6536	0.401	0.8772	0.044
Mof_H 	H 	0.8733	0.7176	0.0513	-0.008
Mof_C 	C 	0.9231	0.7566	0.154	-0.166
Mof_H 	H 	0.6454	0.4475	0.8775	0.038
Mof_C 	C 	0.8448	0.7218	0.1968	0.435
Mof_Zn	Zn	0.75691	0.09833	0.83316	1.225
Mof_O 	O 	0.7877	0.0691	0.9293	-0.495
Mof_O 	O 	0.7603	0.2035	0.8499	-0.479
Mof_O 	O 	0.8799	0.1509	0.2669	-0.491
Mof_C 	C 	0.6917	0.188	0.8707	0.366
Mof_O 	O 	0.907	0.2226	0.1627	-0.486
Mof_O 	O 	0.6311	0.1181	0.8809	-0.351
Mof_C 	C 	0.6775	0.2643	0.877	-0.116
Mof_C 	C 	0.8221	0.0758	0.0776	0.144
Mof_C 	C 	0.7474	0.3464	0.8772	0.043
Mof_H 	H 	0.8443	0.1267	0.0513	0.002
Mof_C 	C 	0.8335	0.0769	0.154	-0.191
Mof_H 	H 	0.8021	0.3546	0.8775	0.043
Mof_C 	C 	0.877	0.1552	0.1968	0.436
Mof_Zn	Zn	0.65858	0.75691	0.33316	1.227
Mof_O 	O 	0.7186	0.7877	0.4293	-0.496
Mof_O 	O 	0.5568	0.7603	0.3499	-0.48
Mof_O 	O 	0.729	0.8799	0.7669	-0.483
Mof_C 	C 	0.5037	0.6917	0.3707	0.364
Mof_O 	O 	0.6844	0.907	0.6627	-0.481
Mof_O 	O 	0.513	0.6311	0.3809	-0.346
Mof_C 	C 	0.4132	0.6775	0.377	-0.117
Mof_C 	C 	0.7463	0.8221	0.5776	0.131
Mof_C 	C 	0.401	0.7474	0.3772	0.044
Mof_H 	H 	0.7176	0.8443	0.5513	0.013
Mof_C 	C 	0.7566	0.8335	0.654	-0.186
Mof_H 	H 	0.4475	0.8021	0.3775	0.041
Mof_C 	C 	0.7218	0.877	0.6968	0.437
Mof_Zn	Zn	0.09833	0.34142	0.33316	1.224
Mof_O 	O 	0.0691	0.2814	0.4293	-0.5
Mof_O 	O 	0.2035	0.4432	0.3499	-0.486
Mof_O 	O 	0.1509	0.271	0.7669	-0.5
Mof_C 	C 	0.188	0.4963	0.3707	0.367
Mof_O 	O 	0.2226	0.3156	0.6627	-0.5
Mof_O 	O 	0.1181	0.487	0.3809	-0.354
Mof_C 	C 	0.2643	0.5868	0.377	-0.121
Mof_C 	C 	0.0758	0.2537	0.5776	0.133
Mof_C 	C 	0.3464	0.599	0.3772	0.045
Mof_H 	H 	0.1267	0.2824	0.5513	0.005
Mof_C 	C 	0.0769	0.2434	0.654	-0.191
Mof_H 	H 	0.3546	0.5525	0.3775	0.035
Mof_C 	C 	0.1552	0.2782	0.6968	0.435
Mof_Zn	Zn	0.24309	0.90167	0.33316	1.231
Mof_O 	O 	0.2123	0.9309	0.4293	-0.47
Mof_O 	O 	0.2397	0.7965	0.3499	-0.484
Mof_O 	O 	0.1201	0.8491	0.7669	-0.489
Mof_C 	C 	0.3083	0.812	0.3707	0.364
Mof_O 	O 	0.093	0.7774	0.6627	-0.504
Mof_O 	O 	0.3689	0.8819	0.3809	-0.332
Mof_C 	C 	0.3225	0.7357	0.377	-0.117
Mof_C 	C 	0.1779	0.9242	0.5776	0.17
Mof_C 	C 	0.2526	0.6536	0.3772	0.046
Mof_H 	H 	0.1557	0.8733	0.5513	-0.004
Mof_C 	C 	0.1665	0.9231	0.654	-0.165
Mof_H 	H 	0.1979	0.6454	0.3775	0.033
Mof_C 	C 	0.123	0.8448	0.6968	0.431
Mof_O 	O 	0.6571	0.6571	0.2921	-0.689
Mof_Co	Co	0.65066	0.65066	0.1754	1.075
Mof_C 	C 	0.7602	0.7602	0.4604	0.463
Mof_C 	C 	0.778	0.778	0.5394	-0.198
Mof_C 	C 	0.8037	0.8037	0.6921	0.115
Mof_H 	H 	0.81525	0.81525	0.743	0.032
Mof_O 	O 	0.3429	4.79711e-33	0.2921	-0.71
Mof_Co	Co	0.34934	2.39855e-33	0.1754	1.062
Mof_C 	C 	0.2398	0	0.4604	0.424
Mof_C 	C 	0.222	0	0.5394	-0.241
Mof_C 	C 	0.1963	0	0.6921	0.067
Mof_H 	H 	0.18475	0	0.743	0.026
Mof_O 	O 	8.25361e-18	0.3429	0.2921	-0.71
Mof_Co	Co	-4.2594e-17	0.34934	0.1754	1.062
Mof_C 	C 	9.71781e-18	0.2398	0.4604	0.424
Mof_C 	C 	-2.13402e-17	0.222	0.5394	-0.241
Mof_C 	C 	3.59509e-18	0.1963	0.6921	0.067
Mof_H 	H 	-1.32981e-17	0.18475	0.743	0.026
Mof_O 	O 	0.3429	0.3429	0.7921	-0.689
Mof_Co	Co	0.34934	0.34934	0.6754	1.076
Mof_C 	C 	0.2398	0.2398	0.9604	0.488
Mof_C 	C 	0.222	0.222	0.0394	-0.244
Mof_C 	C 	0.1963	0.1963	0.1921	0.128
Mof_H 	H 	0.18475	0.18475	0.243	0.014
Mof_O 	O 	0.6571	0	0.7921	-0.708
Mof_Co	Co	0.65066	0	0.6754	1.064
Mof_C 	C 	0.7602	-1.91884e-32	0.9604	0.446
Mof_C 	C 	0.778	0	0.0394	-0.259
Mof_C 	C 	0.8037	4.79711e-33	0.1921	0.072
Mof_H 	H 	0.81525	0	0.243	0.029
Mof_O 	O 	3.48368e-17	0.6571	0.7921	-0.708
Mof_Co	Co	4.88021e-17	0.65066	0.6754	1.064
Mof_C 	C 	-2.85117e-17	0.7602	0.9604	0.446
Mof_C 	C 	-4.79234e-17	0.778	0.0394	-0.259
Mof_C 	C 	-2.29881e-17	0.8037	0.1921	0.072
Mof_H 	H 	-2.90792e-17	0.81525	0.243	0.029
_end
