data_functionalizedCrystal
_audit_creation_method	'EQeq! by Chris Wilmer'
_symmetry_space_group_name_H-M	'P1'
_symmetry_Int_Tables_number	1
_symmetry_cell_setting	triclinic
loop_
_symmetry_equiv_pos_as_xyz
  x,y,z
_cell_length_a	8.91
_cell_length_b	12.007
_cell_length_c	12.526
_cell_angle_alpha	77.708
_cell_angle_beta	76.629
_cell_angle_gamma	76.378
loop_
_atom_site_label
_atom_site_type_symbol
_atom_site_fract_x
_atom_site_fract_y
_atom_site_fract_z
_atom_site_charge
Mof_Zn	Zn	0.28638	0.74675	0.90393	1.212
Mof_Zn	Zn	0.71362	0.25325	0.09607	1.209
Mof_Zn	Zn	-0	0	-0	1.192
Mof_H 	H 	0.0204	0.4001	0.2641	0.026
Mof_H 	H 	0.8947	0.516	0.2549	0.041
Mof_H 	H 	0.0232	0.6047	0.0551	-0.015
Mof_H 	H 	0.4272	0.6112	0.1178	-0.005
Mof_H 	H 	0.7663	0.6493	0.3217	0.067
Mof_H 	H 	0.7284	0.7264	0.4148	0.079
Mof_H 	H 	0.8011	0.8235	0.1594	0.008
Mof_H 	H 	0.1572	0.9074	0.2245	0.029
Mof_H 	H 	0.1099	0.2709	0.3652	0.073
Mof_H 	H 	0.1765	0.2246	0.4753	0.07
Mof_H 	H 	0.3444	0.2542	0.2009	0.033
Mof_H 	H 	0.6529	0.3385	0.3266	0.008
Mof_H 	H 	0.3504	0.0652	0.0075	-0.037
Mof_H 	H 	0.9796	0.5999	0.7359	0.134
Mof_H 	H 	0.1053	0.484	0.7451	0.087
Mof_H 	H 	0.9768	0.3953	0.9449	0.035
Mof_H 	H 	0.5728	0.3888	0.8822	0.006
Mof_H 	H 	0.2337	0.3507	0.6783	0.071
Mof_H 	H 	0.2716	0.2736	0.5852	0.081
Mof_H 	H 	0.1989	0.1765	0.8406	0.014
Mof_H 	H 	0.8428	0.0926	0.7755	-0
Mof_H 	H 	0.8901	0.7291	0.6348	0.103
Mof_H 	H 	0.8235	0.7754	0.5247	0.102
Mof_H 	H 	0.6556	0.7458	0.7991	0.033
Mof_H 	H 	0.3471	0.6615	0.6734	0.001
Mof_H 	H 	0.6496	0.9348	0.9925	0.258
Mof_C 	C 	0.9983	0.4901	0.3908	0.049
Mof_C 	C 	0.913	0.5897	0.4346	0.008
Mof_C 	C 	0.0831	0.3995	0.4569	-0.027
Mof_C 	C 	0.9982	0.4813	0.2719	0.021
Mof_C 	C 	0.1083	0.5946	0.0898	0.096
Mof_C 	C 	0.3269	0.5967	0.1255	0.094
Mof_C 	C 	0.813	0.6845	0.3655	-0.084
Mof_C 	C 	0.8807	0.8278	0.1942	0.105
Mof_C 	C 	0.0723	0.8724	0.2306	0.064
Mof_C 	C 	0.1698	0.2883	0.4131	-0.077
Mof_C 	C 	0.3942	0.2758	0.2487	0.094
Mof_C 	C 	0.5595	0.3218	0.3188	0.099
Mof_C 	C 	0.3853	0.8974	0.9718	0.229
Mof_C 	C 	0.4281	0.9996	0.9965	0.217
Mof_C 	C 	0.0017	0.5099	0.6092	-0.018
Mof_C 	C 	0.087	0.4103	0.5654	0.035
Mof_C 	C 	0.9169	0.6005	0.5431	0.072
Mof_C 	C 	0.0018	0.5187	0.7281	-0.178
Mof_C 	C 	0.8917	0.4054	0.9102	0.093
Mof_C 	C 	0.6731	0.4033	0.8745	0.098
Mof_C 	C 	0.187	0.3155	0.6345	-0.106
Mof_C 	C 	0.1193	0.1722	0.8058	0.083
Mof_C 	C 	0.9277	0.1276	0.7694	0.148
Mof_C 	C 	0.8302	0.7117	0.5869	-0.128
Mof_C 	C 	0.6058	0.7242	0.7513	0.098
Mof_C 	C 	0.4405	0.6782	0.6812	0.104
Mof_C 	C 	0.6147	0.1026	0.0282	0.463
Mof_C 	C 	0.5719	0.0004	0.0035	-0.48
Mof_S 	S 	0.94677	0.7998	0.85999	0.768
Mof_S 	S 	0.05323	0.2002	0.14001	0.687
Mof_N 	N 	0.242	0.6328	0.0436	-0.288
Mof_N 	N 	0.1161	0.5403	0.1923	-0.105
Mof_N 	N 	0.2564	0.5398	0.2162	-0.086
Mof_N 	N 	0.9841	0.8963	0.153	-0.222
Mof_N 	N 	0.9056	0.7666	0.2908	-0.069
Mof_N 	N 	0.0284	0.7943	0.3173	-0.099
Mof_N 	N 	0.5418	0.2907	0.2253	-0.269
Mof_N 	N 	0.3286	0.2962	0.3505	-0.08
Mof_N 	N 	0.4337	0.3262	0.3972	-0.091
Mof_N 	N 	0.758	0.3672	0.9564	-0.265
Mof_N 	N 	0.8839	0.4597	0.8077	-0.049
Mof_N 	N 	0.7436	0.4602	0.7838	-0.08
Mof_N 	N 	0.0159	0.1037	0.847	-0.282
Mof_N 	N 	0.0944	0.2334	0.7092	-0.095
Mof_N 	N 	0.9716	0.2057	0.6827	-0.072
Mof_N 	N 	0.4582	0.7093	0.7747	-0.267
Mof_N 	N 	0.6714	0.7038	0.6495	-0.07
Mof_N 	N 	0.5663	0.6738	0.6028	-0.091
Mof_O 	O 	0.1183	0.7607	0.8203	-0.518
Mof_O 	O 	0.9268	0.8686	0.9474	-0.468
Mof_O 	O 	0.8749	0.6989	0.9045	-0.297
Mof_O 	O 	0.8783	0.8686	0.7663	-0.29
Mof_O 	O 	0.2486	0.9086	0.9474	-0.504
Mof_O 	O 	0.4786	0.8028	0.9713	-0.326
Mof_O 	O 	0.8817	0.2393	0.1797	-0.461
Mof_O 	O 	0.0732	0.1314	0.0526	-0.502
Mof_O 	O 	0.1251	0.3011	0.0955	-0.307
Mof_O 	O 	0.1217	0.1314	0.2337	-0.306
Mof_O 	O 	0.7514	0.0914	0.0526	-0.581
Mof_O 	O 	0.5214	0.1972	0.0287	-0.402
_end
