data_functionalizedCrystal
_audit_creation_method	'EQeq! by Chris Wilmer'
_symmetry_space_group_name_H-M	'P1'
_symmetry_Int_Tables_number	1
_symmetry_cell_setting	triclinic
loop_
_symmetry_equiv_pos_as_xyz
  x,y,z
_cell_length_a	10.2117
_cell_length_b	13.87
_cell_length_c	12.3107
_cell_angle_alpha	90
_cell_angle_beta	90.198
_cell_angle_gamma	90
loop_
_atom_site_label
_atom_site_type_symbol
_atom_site_fract_x
_atom_site_fract_y
_atom_site_fract_z
_atom_site_charge
Mof_Cd	Cd	0.14715	0.43769	0.92096	0.493
Mof_C 	C 	0.6476	0.2936	0.6554	-0.064
Mof_C 	C 	0.5281	0.3225	0.6976	0.018
Mof_H 	H 	0.4513	0.3001	0.6657	0.067
Mof_C 	C 	0.5202	0.3848	0.7875	-0.065
Mof_C 	C 	0.6381	0.4189	0.8324	0.017
Mof_H 	H 	0.6362	0.4602	0.8919	0.072
Mof_C 	C 	0.7561	0.3915	0.7889	-0.061
Mof_C 	C 	0.7609	0.3294	0.7014	0.016
Mof_H 	H 	0.8416	0.3114	0.6732	0.07
Mof_C 	C 	0.6546	0.2213	0.5651	0.308
Mof_C 	C 	0.3911	0.4117	0.8321	0.322
Mof_C 	C 	0.8856	0.4244	0.8408	0.319
Mof_O 	O 	0.7619	0.192	0.5341	-0.239
Mof_O 	O 	0.5499	0.1891	0.5255	-0.246
Mof_O 	O 	0.2932	0.3741	0.7919	-0.253
Mof_O 	O 	0.3859	0.4702	0.908	-0.246
Mof_O 	O 	0.8822	0.4771	0.9211	-0.28
Mof_O 	O 	0.9904	0.3946	0.7973	-0.25
Mof_Cd	Cd	0.35285	0.93769	0.57904	0.496
Mof_C 	C 	0.8524	0.7936	0.8446	-0.067
Mof_C 	C 	0.9719	0.8225	0.8024	0.024
Mof_H 	H 	0.0487	0.8001	0.8343	0.063
Mof_C 	C 	0.9798	0.8848	0.7125	-0.066
Mof_C 	C 	0.8619	0.9189	0.6676	0.018
Mof_H 	H 	0.8638	0.9602	0.6081	0.072
Mof_C 	C 	0.7439	0.8915	0.7111	-0.062
Mof_C 	C 	0.7391	0.8294	0.7986	0.017
Mof_H 	H 	0.6584	0.8114	0.8268	0.069
Mof_C 	C 	0.8454	0.7213	0.9349	0.309
Mof_C 	C 	0.1089	0.9117	0.6679	0.321
Mof_C 	C 	0.6144	0.9244	0.6592	0.32
Mof_O 	O 	0.7381	0.692	0.9659	-0.238
Mof_O 	O 	0.9501	0.6891	0.9745	-0.244
Mof_O 	O 	0.2068	0.8741	0.7081	-0.252
Mof_O 	O 	0.1141	0.9702	0.592	-0.245
Mof_O 	O 	0.6178	0.9771	0.5789	-0.281
Mof_O 	O 	0.5096	0.8946	0.7027	-0.251
Mof_Cd	Cd	0.85285	0.56231	0.07904	0.492
Mof_C 	C 	0.3524	0.7064	0.3446	-0.065
Mof_C 	C 	0.4719	0.6775	0.3024	0.018
Mof_H 	H 	0.5487	0.6999	0.3343	0.067
Mof_C 	C 	0.4798	0.6152	0.2125	-0.065
Mof_C 	C 	0.3619	0.5811	0.1676	0.017
Mof_H 	H 	0.3638	0.5398	0.1081	0.072
Mof_C 	C 	0.2439	0.6085	0.2111	-0.061
Mof_C 	C 	0.2391	0.6706	0.2986	0.016
Mof_H 	H 	0.1584	0.6886	0.3268	0.07
Mof_C 	C 	0.3454	0.7787	0.4349	0.308
Mof_C 	C 	0.6089	0.5883	0.1679	0.322
Mof_C 	C 	0.1144	0.5756	0.1592	0.319
Mof_O 	O 	0.2381	0.808	0.4659	-0.239
Mof_O 	O 	0.4501	0.8109	0.4745	-0.246
Mof_O 	O 	0.7068	0.6259	0.2081	-0.253
Mof_O 	O 	0.6141	0.5298	0.092	-0.246
Mof_O 	O 	0.1178	0.5229	0.0789	-0.28
Mof_O 	O 	0.0096	0.6054	0.2027	-0.25
Mof_Cd	Cd	0.64715	0.06231	0.42096	0.496
Mof_C 	C 	0.1476	0.2064	0.1554	-0.067
Mof_C 	C 	0.0281	0.1775	0.1976	0.024
Mof_H 	H 	0.9513	0.1999	0.1657	0.063
Mof_C 	C 	0.0202	0.1152	0.2875	-0.066
Mof_C 	C 	0.1381	0.0811	0.3324	0.018
Mof_H 	H 	0.1362	0.0398	0.3919	0.072
Mof_C 	C 	0.2561	0.1085	0.2889	-0.062
Mof_C 	C 	0.2609	0.1706	0.2014	0.017
Mof_H 	H 	0.3416	0.1886	0.1732	0.069
Mof_C 	C 	0.1546	0.2787	0.0651	0.309
Mof_C 	C 	0.8911	0.0883	0.3321	0.321
Mof_C 	C 	0.3856	0.0756	0.3408	0.32
Mof_O 	O 	0.2619	0.308	0.0341	-0.238
Mof_O 	O 	0.0499	0.3109	0.0255	-0.244
Mof_O 	O 	0.7932	0.1259	0.2919	-0.252
Mof_O 	O 	0.8859	0.0298	0.408	-0.245
Mof_O 	O 	0.3822	0.0229	0.4211	-0.281
Mof_O 	O 	0.4904	0.1054	0.2973	-0.251
_end
