data_functionalizedCrystal
_audit_creation_method	'EQeq! by Chris Wilmer'
_symmetry_space_group_name_H-M	'P1'
_symmetry_Int_Tables_number	1
_symmetry_cell_setting	triclinic
loop_
_symmetry_equiv_pos_as_xyz
  x,y,z
_cell_length_a	8.2402
_cell_length_b	16.5758
_cell_length_c	26.692
_cell_angle_alpha	90
_cell_angle_beta	90
_cell_angle_gamma	100.848
loop_
_atom_site_label
_atom_site_type_symbol
_atom_site_fract_x
_atom_site_fract_y
_atom_site_fract_z
_atom_site_charge
Mof_Pr	Pr	0.21513	0.73197	0.74385	2.511
Mof_Pr	Pr	0.28487	0.26802	0.24385	2.519
Mof_Pr	Pr	0.78487	0.26802	0.25615	2.512
Mof_Pr	Pr	0.71513	0.73197	0.75615	2.519
Mof_H 	H 	0.501	0.505	0.7808	0.077
Mof_H 	H 	0.2583	0.4316	0.7454	0.019
Mof_H 	H 	0.1659	0.4318	0.7969	0.041
Mof_H 	H 	0.4279	0.3479	0.7775	0.053
Mof_H 	H 	0.2445	0.3057	0.7886	0.059
Mof_H 	H 	0.4964	0.4205	0.904	0.057
Mof_H 	H 	0.5922	0.4243	0.8529	0.048
Mof_H 	H 	0.3218	0.5041	0.8717	0.031
Mof_H 	H 	0.5055	0.5496	0.8645	-0.006
Mof_H 	H 	0.886	0.0781	0.8187	0.056
Mof_H 	H 	0.0442	0.1407	0.8021	0.057
Mof_H 	H 	0.0096	0.0178	0.7542	0.038
Mof_H 	H 	0.1805	0.0345	0.7821	0.051
Mof_H 	H 	0.896	0.923	0.8149	0.081
Mof_H 	H 	0.2027	0.954	0.8662	0.042
Mof_H 	H 	0.0451	0.8923	0.8841	0.021
Mof_H 	H 	0.0752	0.0178	0.9282	0.055
Mof_H 	H 	0.9062	0.9992	0.8993	0.051
Mof_H 	H 	0.287	0.0937	0.0109	0.061
Mof_H 	H 	0.4798	0.1016	0.0123	0.057
Mof_H 	H 	0.2901	0.1612	0.0871	0.025
Mof_H 	H 	0.3817	0.087	0.0939	0.02
Mof_H 	H 	0.651	0.3182	0.0781	0.015
Mof_H 	H 	0.4572	0.3049	0.0772	0.012
Mof_H 	H 	0.6534	0.2501	0.0016	0.058
Mof_H 	H 	0.5518	0.3205	0.9946	0.061
Mof_H 	H 	0.639	0.175	0.0858	0.096
Mof_H 	H 	0.999	0.495	0.2808	0.073
Mof_H 	H 	0.2417	0.5684	0.2454	0.021
Mof_H 	H 	0.3341	0.5682	0.2969	0.042
Mof_H 	H 	0.0721	0.6521	0.2775	0.053
Mof_H 	H 	0.2555	0.6943	0.2886	0.059
Mof_H 	H 	0.0036	0.5795	0.404	0.056
Mof_H 	H 	0.9078	0.5757	0.3529	0.045
Mof_H 	H 	0.1782	0.4959	0.3717	0.031
Mof_H 	H 	0.9945	0.4504	0.3645	-0.008
Mof_H 	H 	0.614	0.9219	0.3187	0.051
Mof_H 	H 	0.4558	0.8593	0.3021	0.054
Mof_H 	H 	0.4904	0.9822	0.2542	0.043
Mof_H 	H 	0.3195	0.9655	0.2821	0.054
Mof_H 	H 	0.604	0.077	0.3149	0.075
Mof_H 	H 	0.2973	0.046	0.3662	0.045
Mof_H 	H 	0.4549	0.1077	0.3841	0.025
Mof_H 	H 	0.4248	0.9822	0.4282	0.052
Mof_H 	H 	0.5938	0.0008	0.3993	0.047
Mof_H 	H 	0.213	0.9063	0.5109	0.061
Mof_H 	H 	0.0202	0.8984	0.5123	0.057
Mof_H 	H 	0.2099	0.8388	0.5871	0.025
Mof_H 	H 	0.1183	0.913	0.5939	0.02
Mof_H 	H 	0.849	0.6818	0.5781	0.014
Mof_H 	H 	0.0428	0.6951	0.5772	0.009
Mof_H 	H 	0.8466	0.7499	0.5016	0.059
Mof_H 	H 	0.9482	0.6795	0.4946	0.061
Mof_H 	H 	0.861	0.825	0.5858	0.097
Mof_H 	H 	0.499	0.495	0.2192	0.077
Mof_H 	H 	0.7417	0.5684	0.2546	0.019
Mof_H 	H 	0.8341	0.5682	0.2031	0.041
Mof_H 	H 	0.5721	0.6521	0.2225	0.053
Mof_H 	H 	0.7555	0.6943	0.2114	0.059
Mof_H 	H 	0.5036	0.5795	0.096	0.057
Mof_H 	H 	0.4078	0.5757	0.1471	0.048
Mof_H 	H 	0.6782	0.4959	0.1283	0.031
Mof_H 	H 	0.4945	0.4504	0.1355	-0.006
Mof_H 	H 	0.114	0.9219	0.1813	0.056
Mof_H 	H 	0.9558	0.8593	0.1979	0.057
Mof_H 	H 	0.9904	0.9822	0.2458	0.038
Mof_H 	H 	0.8195	0.9655	0.2179	0.051
Mof_H 	H 	0.104	0.077	0.1851	0.081
Mof_H 	H 	0.7973	0.046	0.1338	0.042
Mof_H 	H 	0.9549	0.1077	0.1159	0.021
Mof_H 	H 	0.9248	0.9822	0.0718	0.055
Mof_H 	H 	0.0938	0.0008	0.1007	0.051
Mof_H 	H 	0.713	0.9063	0.9891	0.061
Mof_H 	H 	0.5202	0.8984	0.9877	0.057
Mof_H 	H 	0.7099	0.8388	0.9129	0.025
Mof_H 	H 	0.6183	0.913	0.9061	0.02
Mof_H 	H 	0.349	0.6818	0.9219	0.015
Mof_H 	H 	0.5428	0.6951	0.9228	0.012
Mof_H 	H 	0.3466	0.7499	0.9984	0.058
Mof_H 	H 	0.4482	0.6795	0.0054	0.061
Mof_H 	H 	0.361	0.825	0.9142	0.096
Mof_H 	H 	0.001	0.505	0.7192	0.073
Mof_H 	H 	0.7583	0.4316	0.7546	0.021
Mof_H 	H 	0.6659	0.4318	0.7031	0.042
Mof_H 	H 	0.9279	0.3479	0.7225	0.053
Mof_H 	H 	0.7445	0.3057	0.7114	0.059
Mof_H 	H 	0.9964	0.4205	0.596	0.056
Mof_H 	H 	0.0922	0.4243	0.6471	0.045
Mof_H 	H 	0.8218	0.5041	0.6283	0.031
Mof_H 	H 	0.0055	0.5496	0.6355	-0.008
Mof_H 	H 	0.386	0.0781	0.6813	0.051
Mof_H 	H 	0.5442	0.1407	0.6979	0.054
Mof_H 	H 	0.5096	0.0178	0.7458	0.043
Mof_H 	H 	0.6805	0.0345	0.7179	0.054
Mof_H 	H 	0.396	0.923	0.6851	0.075
Mof_H 	H 	0.7027	0.954	0.6338	0.045
Mof_H 	H 	0.5451	0.8923	0.6159	0.025
Mof_H 	H 	0.5752	0.0178	0.5718	0.052
Mof_H 	H 	0.4062	0.9992	0.6007	0.047
Mof_H 	H 	0.787	0.0937	0.4891	0.061
Mof_H 	H 	0.9798	0.1016	0.4877	0.057
Mof_H 	H 	0.7901	0.1612	0.4129	0.025
Mof_H 	H 	0.8817	0.087	0.4061	0.02
Mof_H 	H 	0.151	0.3182	0.4219	0.014
Mof_H 	H 	0.9572	0.3049	0.4228	0.009
Mof_H 	H 	0.1534	0.2501	0.4984	0.059
Mof_H 	H 	0.0518	0.3205	0.5054	0.061
Mof_H 	H 	0.139	0.175	0.4142	0.097
Mof_C 	C 	0.3963	0.5062	0.79773	-0.204
Mof_C 	C 	0.2722	0.4307	0.7815	-0.019
Mof_C 	C 	0.3299	0.3527	0.79654	-0.077
Mof_C 	C 	0.4848	0.4237	0.8679	-0.081
Mof_C 	C 	0.4243	0.5024	0.85415	-0.008
Mof_C 	C 	0.3242	0.2828	0.878	0.168
Mof_C 	C 	0.1763	0.1548	0.88725	0.168
Mof_C 	C 	0.3409	0.2124	0.94923	0.165
Mof_C 	C 	0.3395	0.5855	0.78356	0.452
Mof_C 	C 	0.0058	0.0877	0.81781	-0.07
Mof_C 	C 	0.0619	0.0209	0.78691	-0.036
Mof_C 	C 	0.0165	0.9377	0.8133	-0.182
Mof_C 	C 	0.0829	0.9439	0.86689	-0.031
Mof_C 	C 	0.0252	0.0125	0.89513	-0.068
Mof_C 	C 	0.3893	0.1286	0.02143	-0.089
Mof_C 	C 	0.3874	0.1398	0.07759	0.003
Mof_C 	C 	0.5514	0.2808	0.06796	0.002
Mof_C 	C 	0.5531	0.2686	0.01126	-0.09
Mof_C 	C 	0.5471	0.2156	0.15147	0.51
Mof_C 	C 	0.0793	0.871	0.78562	0.434
Mof_C 	C 	0.5414	0.1985	0.095	-0.224
Mof_C 	C 	0.1037	0.4938	0.29773	-0.197
Mof_C 	C 	0.2278	0.5693	0.2815	-0.023
Mof_C 	C 	0.1701	0.6473	0.29654	-0.075
Mof_C 	C 	0.0152	0.5763	0.3679	-0.075
Mof_C 	C 	0.0757	0.4976	0.35415	-0.008
Mof_C 	C 	0.1758	0.7172	0.378	0.169
Mof_C 	C 	0.3237	0.8452	0.38725	0.169
Mof_C 	C 	0.1591	0.7876	0.44923	0.165
Mof_C 	C 	0.1605	0.4145	0.28356	0.45
Mof_C 	C 	0.4942	0.9123	0.31781	-0.059
Mof_C 	C 	0.4381	0.9791	0.28691	-0.047
Mof_C 	C 	0.4835	0.0623	0.3133	-0.169
Mof_C 	C 	0.4171	0.0561	0.36689	-0.039
Mof_C 	C 	0.4748	0.9875	0.39513	-0.06
Mof_C 	C 	0.1107	0.8714	0.52143	-0.089
Mof_C 	C 	0.1126	0.8602	0.57759	0.002
Mof_C 	C 	0.9486	0.7192	0.56796	0.006
Mof_C 	C 	0.9469	0.7314	0.51126	-0.091
Mof_C 	C 	0.9529	0.7844	0.65147	0.514
Mof_C 	C 	0.4207	0.129	0.28562	0.434
Mof_C 	C 	0.9586	0.8015	0.595	-0.224
Mof_C 	C 	0.6037	0.4938	0.20227	-0.204
Mof_C 	C 	0.7278	0.5693	0.2185	-0.019
Mof_C 	C 	0.6701	0.6473	0.20346	-0.077
Mof_C 	C 	0.5152	0.5763	0.1321	-0.081
Mof_C 	C 	0.5757	0.4976	0.14585	-0.008
Mof_C 	C 	0.6758	0.7172	0.122	0.168
Mof_C 	C 	0.8237	0.8452	0.11275	0.168
Mof_C 	C 	0.6591	0.7876	0.05077	0.165
Mof_C 	C 	0.6605	0.4145	0.21644	0.452
Mof_C 	C 	0.9942	0.9123	0.18219	-0.07
Mof_C 	C 	0.9381	0.9791	0.21309	-0.036
Mof_C 	C 	0.9835	0.0623	0.1867	-0.182
Mof_C 	C 	0.9171	0.0561	0.13311	-0.031
Mof_C 	C 	0.9748	0.9875	0.10487	-0.068
Mof_C 	C 	0.6107	0.8714	0.97857	-0.089
Mof_C 	C 	0.6126	0.8602	0.92241	0.003
Mof_C 	C 	0.4486	0.7192	0.93204	0.002
Mof_C 	C 	0.4469	0.7314	0.98874	-0.09
Mof_C 	C 	0.4529	0.7844	0.84853	0.51
Mof_C 	C 	0.9207	0.129	0.21438	0.434
Mof_C 	C 	0.4586	0.8015	0.905	-0.224
Mof_C 	C 	0.8963	0.5062	0.70227	-0.197
Mof_C 	C 	0.7722	0.4307	0.7185	-0.023
Mof_C 	C 	0.8299	0.3527	0.70346	-0.075
Mof_C 	C 	0.9848	0.4237	0.6321	-0.075
Mof_C 	C 	0.9243	0.5024	0.64585	-0.008
Mof_C 	C 	0.8242	0.2828	0.622	0.169
Mof_C 	C 	0.6763	0.1548	0.61275	0.169
Mof_C 	C 	0.8409	0.2124	0.55077	0.165
Mof_C 	C 	0.8395	0.5855	0.71644	0.45
Mof_C 	C 	0.5058	0.0877	0.68219	-0.059
Mof_C 	C 	0.5619	0.0209	0.71309	-0.047
Mof_C 	C 	0.5165	0.9377	0.6867	-0.169
Mof_C 	C 	0.5829	0.9439	0.63311	-0.039
Mof_C 	C 	0.5252	0.0125	0.60487	-0.06
Mof_C 	C 	0.8893	0.1286	0.47857	-0.089
Mof_C 	C 	0.8874	0.1398	0.42241	0.002
Mof_C 	C 	0.0514	0.2808	0.43204	0.006
Mof_C 	C 	0.0531	0.2686	0.48874	-0.091
Mof_C 	C 	0.0471	0.2156	0.34853	0.514
Mof_C 	C 	0.5793	0.871	0.71438	0.434
Mof_C 	C 	0.0414	0.1985	0.405	-0.224
Mof_N 	N 	0.3673	0.352	0.85003	-0.112
Mof_N 	N 	0.2183	0.2203	0.85687	-0.164
Mof_N 	N 	0.391	0.2828	0.92338	-0.165
Mof_N 	N 	0.2315	0.1475	0.93387	-0.166
Mof_N 	N 	0.0693	0.0893	0.86861	-0.115
Mof_N 	N 	0.4084	0.2078	0.99564	-0.109
Mof_N 	N 	0.1327	0.648	0.35003	-0.113
Mof_N 	N 	0.2817	0.7797	0.35687	-0.164
Mof_N 	N 	0.109	0.7172	0.42338	-0.165
Mof_N 	N 	0.2685	0.8525	0.43387	-0.166
Mof_N 	N 	0.4307	0.9107	0.36861	-0.117
Mof_N 	N 	0.0916	0.7922	0.49564	-0.11
Mof_N 	N 	0.6327	0.648	0.14997	-0.112
Mof_N 	N 	0.7817	0.7797	0.14313	-0.164
Mof_N 	N 	0.609	0.7172	0.07662	-0.165
Mof_N 	N 	0.7685	0.8525	0.06613	-0.166
Mof_N 	N 	0.9307	0.9107	0.13139	-0.115
Mof_N 	N 	0.5916	0.7922	0.00436	-0.109
Mof_N 	N 	0.8673	0.352	0.64997	-0.113
Mof_N 	N 	0.7183	0.2203	0.64313	-0.164
Mof_N 	N 	0.891	0.2828	0.57662	-0.165
Mof_N 	N 	0.7315	0.1475	0.56613	-0.166
Mof_N 	N 	0.5693	0.0893	0.63139	-0.117
Mof_N 	N 	0.9084	0.2078	0.50436	-0.11
Mof_O 	O 	0.4428	0.6456	0.76659	-0.738
Mof_O 	O 	0.1908	0.5912	0.78753	-0.513
Mof_O 	O 	0.9878	0.7984	0.78472	-0.728
Mof_O 	O 	0.4141	0.2083	0.17494	-0.612
Mof_O 	O 	0.2183	0.8835	0.76595	-0.485
Mof_O 	O 	0.6904	0.2389	0.16997	-0.572
Mof_O 	O 	0.0572	0.3544	0.26659	-0.735
Mof_O 	O 	0.3092	0.4088	0.28753	-0.512
Mof_O 	O 	0.5122	0.2016	0.28472	-0.731
Mof_O 	O 	0.0859	0.7917	0.67494	-0.615
Mof_O 	O 	0.2817	0.1165	0.26595	-0.485
Mof_O 	O 	0.8096	0.7611	0.66997	-0.572
Mof_O 	O 	0.5572	0.3544	0.23341	-0.738
Mof_O 	O 	0.8092	0.4088	0.21247	-0.513
Mof_O 	O 	0.0122	0.2016	0.21528	-0.728
Mof_O 	O 	0.5859	0.7917	0.82506	-0.612
Mof_O 	O 	0.7817	0.1165	0.23405	-0.485
Mof_O 	O 	0.3096	0.7611	0.83003	-0.571
Mof_O 	O 	0.9428	0.6456	0.73341	-0.735
Mof_O 	O 	0.6908	0.5912	0.71247	-0.512
Mof_O 	O 	0.4878	0.7984	0.71528	-0.731
Mof_O 	O 	0.9141	0.2083	0.32506	-0.615
Mof_O 	O 	0.7183	0.8835	0.73405	-0.485
Mof_O 	O 	0.1904	0.2389	0.33003	-0.572
_end
