data_functionalizedCrystal
_audit_creation_method	'EQeq! by Chris Wilmer'
_symmetry_space_group_name_H-M	'P1'
_symmetry_Int_Tables_number	1
_symmetry_cell_setting	triclinic
loop_
_symmetry_equiv_pos_as_xyz
  x,y,z
_cell_length_a	9.151
_cell_length_b	9.1671
_cell_length_c	9.3136
_cell_angle_alpha	77.93
_cell_angle_beta	86.22
_cell_angle_gamma	88.36
loop_
_atom_site_label
_atom_site_type_symbol
_atom_site_fract_x
_atom_site_fract_y
_atom_site_fract_z
_atom_site_charge
Mof_P 	P 	0.35335	0.8315	0.85617	1.431
Mof_P 	P 	0.18703	0.38304	0.89947	1.923
Mof_P 	P 	0.61876	0.37193	0.67852	1.822
Mof_Al	Al	0.43784	0.13294	0.91199	5.647
Mof_Al	Al	0.62582	0.39652	0.34237	7.283
Mof_Al	Al	0.84159	0.36783	0.92376	7.002
Mof_F 	F 	0.3917	0.9888	0.0802	-0.305
Mof_O 	O 	0.2026	0.7784	0.9295	-2.031
Mof_O 	O 	0.3749	0.7712	0.7136	-2.062
Mof_O 	O 	0.4702	0.7658	0.9608	-1.586
Mof_O 	O 	0.3544	0.0004	0.8113	-1.371
Mof_O 	O 	0.2652	0.2356	0.9291	-1.573
Mof_O 	O 	0.0268	0.3587	0.8818	-2.127
Mof_O 	O 	0.2006	0.461	0.0285	-2.192
Mof_O 	O 	0.2457	0.4846	0.7579	-2.291
Mof_O 	O 	0.5067	0.2559	0.7401	-1.673
Mof_O 	O 	0.5508	0.5283	0.669	-2.226
Mof_O 	O 	0.7533	0.36	0.7674	-2.102
Mof_O 	O 	0.6724	0.3567	0.5238	-2.118
Mof_O 	O 	0.387	0.991	0.097	-1.451
Mof_P 	P 	0.64665	0.1685	0.14383	1.431
Mof_P 	P 	0.81297	0.61696	0.10053	1.923
Mof_P 	P 	0.38124	0.62807	0.32148	1.822
Mof_Al	Al	0.56216	0.86706	0.08801	5.647
Mof_Al	Al	0.37418	0.60348	0.65763	7.283
Mof_Al	Al	0.15841	0.63217	0.07624	7.002
Mof_F 	F 	0.6083	0.0112	0.9198	-0.305
Mof_O 	O 	0.7974	0.2216	0.0705	-2.031
Mof_O 	O 	0.6251	0.2288	0.2864	-2.062
Mof_O 	O 	0.5298	0.2342	0.0392	-1.586
Mof_O 	O 	0.6456	0.9996	0.1887	-1.371
Mof_O 	O 	0.7348	0.7644	0.0709	-1.573
Mof_O 	O 	0.9732	0.6413	0.1182	-2.127
Mof_O 	O 	0.7994	0.539	0.9715	-2.192
Mof_O 	O 	0.7543	0.5154	0.2421	-2.291
Mof_O 	O 	0.4933	0.7441	0.2599	-1.673
Mof_O 	O 	0.4492	0.4717	0.331	-2.226
Mof_O 	O 	0.2467	0.64	0.2326	-2.102
Mof_O 	O 	0.3276	0.6433	0.4762	-2.118
Mof_O 	O 	0.613	0.009	0.903	-1.451
_end
