data_functionalizedCrystal
_audit_creation_method	'EQeq! by Chris Wilmer'
_symmetry_space_group_name_H-M	'P1'
_symmetry_Int_Tables_number	1
_symmetry_cell_setting	triclinic
loop_
_symmetry_equiv_pos_as_xyz
  x,y,z
_cell_length_a	9.488
_cell_length_b	12.562
_cell_length_c	15.477
_cell_angle_alpha	90
_cell_angle_beta	106.099
_cell_angle_gamma	90
loop_
_atom_site_label
_atom_site_type_symbol
_atom_site_fract_x
_atom_site_fract_y
_atom_site_fract_z
_atom_site_charge
Mof_Zn	Zn	0.68389	0.05301	0.08518	1.242
Mof_O 	O 	0.67	0.9482	0.9886	-0.482
Mof_O 	O 	0.7411	0.5313	0.6936	-0.433
Mof_O 	O 	0.5188	0.5572	0.714	-0.27
Mof_O 	O 	0.474	0.8447	0.9298	-0.47
Mof_O 	O 	0.1336	0.8854	0.9277	-0.414
Mof_C 	C 	0.6082	0.8695	0.9459	0.416
Mof_O 	O 	0.1545	0.7603	0.8308	-0.274
Mof_C 	C 	0.6388	0.7168	0.8467	0.048
Mof_H 	H 	0.5407	0.6995	0.8388	0.055
Mof_C 	C 	0.7015	0.7982	0.9047	-0.111
Mof_C 	C 	0.8486	0.8233	0.9185	0.048
Mof_H 	H 	0.8915	0.8764	0.9591	0.056
Mof_C 	C 	0.7205	0.6606	0.8002	-0.087
Mof_C 	C 	0.6516	0.5764	0.731	0.335
Mof_C 	C 	0.8667	0.6881	0.8134	0.034
Mof_H 	H 	0.9223	0.6513	0.7823	0.06
Mof_C 	C 	0.9318	0.7691	0.8716	-0.082
Mof_C 	C 	0.0859	0.8057	0.8772	0.328
Mof_Zn	Zn	0.31611	0.55301	0.41482	1.242
Mof_O 	O 	0.33	0.4482	0.5114	-0.483
Mof_O 	O 	0.2589	0.0313	0.8064	-0.432
Mof_O 	O 	0.4812	0.0572	0.786	-0.27
Mof_O 	O 	0.526	0.3447	0.5702	-0.47
Mof_O 	O 	0.8664	0.3854	0.5723	-0.413
Mof_C 	C 	0.3918	0.3695	0.5541	0.416
Mof_O 	O 	0.8455	0.2603	0.6692	-0.273
Mof_C 	C 	0.3612	0.2168	0.6533	0.049
Mof_H 	H 	0.4593	0.1995	0.6612	0.055
Mof_C 	C 	0.2985	0.2982	0.5953	-0.112
Mof_C 	C 	0.1514	0.3233	0.5815	0.049
Mof_H 	H 	0.1085	0.3764	0.5409	0.055
Mof_C 	C 	0.2795	0.1606	0.6998	-0.086
Mof_C 	C 	0.3484	0.0764	0.769	0.335
Mof_C 	C 	0.1333	0.1881	0.6866	0.035
Mof_H 	H 	0.0777	0.1513	0.7177	0.06
Mof_C 	C 	0.0682	0.2691	0.6284	-0.084
Mof_C 	C 	0.9141	0.3057	0.6228	0.33
Mof_Zn	Zn	0.31611	0.94699	0.91482	1.241
Mof_O 	O 	0.33	0.0518	0.0114	-0.483
Mof_O 	O 	0.2589	0.4687	0.3064	-0.434
Mof_O 	O 	0.4812	0.4428	0.286	-0.271
Mof_O 	O 	0.526	0.1553	0.0702	-0.47
Mof_O 	O 	0.8664	0.1146	0.0723	-0.414
Mof_C 	C 	0.3918	0.1305	0.0541	0.416
Mof_O 	O 	0.8455	0.2397	0.1692	-0.274
Mof_C 	C 	0.3612	0.2832	0.1533	0.048
Mof_H 	H 	0.4593	0.3005	0.1612	0.055
Mof_C 	C 	0.2985	0.2018	0.0953	-0.111
Mof_C 	C 	0.1514	0.1767	0.0815	0.048
Mof_H 	H 	0.1085	0.1236	0.0409	0.056
Mof_C 	C 	0.2795	0.3394	0.1998	-0.087
Mof_C 	C 	0.3484	0.4236	0.269	0.335
Mof_C 	C 	0.1333	0.3119	0.1866	0.034
Mof_H 	H 	0.0777	0.3487	0.2177	0.06
Mof_C 	C 	0.0682	0.2309	0.1284	-0.082
Mof_C 	C 	0.9141	0.1943	0.1228	0.328
Mof_Zn	Zn	0.68389	0.44699	0.58518	1.242
Mof_O 	O 	0.67	0.5518	0.4886	-0.483
Mof_O 	O 	0.7411	0.9687	0.1936	-0.432
Mof_O 	O 	0.5188	0.9428	0.214	-0.27
Mof_O 	O 	0.474	0.6553	0.4298	-0.47
Mof_O 	O 	0.1336	0.6146	0.4277	-0.413
Mof_C 	C 	0.6082	0.6305	0.4459	0.416
Mof_O 	O 	0.1545	0.7397	0.3308	-0.273
Mof_C 	C 	0.6388	0.7832	0.3467	0.049
Mof_H 	H 	0.5407	0.8005	0.3388	0.055
Mof_C 	C 	0.7015	0.7018	0.4047	-0.112
Mof_C 	C 	0.8486	0.6767	0.4185	0.049
Mof_H 	H 	0.8915	0.6236	0.4591	0.055
Mof_C 	C 	0.7205	0.8394	0.3002	-0.086
Mof_C 	C 	0.6516	0.9236	0.231	0.335
Mof_C 	C 	0.8667	0.8119	0.3134	0.035
Mof_H 	H 	0.9223	0.8487	0.2823	0.06
Mof_C 	C 	0.9318	0.7309	0.3716	-0.084
Mof_C 	C 	0.0859	0.6943	0.3772	0.33
_end
