data_functionalizedCrystal
_audit_creation_method	'EQeq! by Chris Wilmer'
_symmetry_space_group_name_H-M	'P1'
_symmetry_Int_Tables_number	1
_symmetry_cell_setting	triclinic
loop_
_symmetry_equiv_pos_as_xyz
  x,y,z
_cell_length_a	18.241
_cell_length_b	18.241
_cell_length_c	18.241
_cell_angle_alpha	90
_cell_angle_beta	90
_cell_angle_gamma	90
loop_
_atom_site_label
_atom_site_type_symbol
_atom_site_fract_x
_atom_site_fract_y
_atom_site_fract_z
_atom_site_charge
Mof_C 	C 	0.2874	0.6561	0.1247	0.075
Mof_C 	C 	0.3195	0.6001	0.0889	-0.127
Mof_H 	H 	0.2445	0.6771	0.104	-0.017
Mof_H 	H 	0.2982	0.5817	0.0451	0.079
Mof_C 	C 	0.2126	0.8439	0.1247	0.076
Mof_C 	C 	0.1805	0.8999	0.0889	-0.128
Mof_H 	H 	0.2555	0.8229	0.104	-0.018
Mof_H 	H 	0.2018	0.9183	0.0451	0.078
Mof_C 	C 	0.2126	0.6561	0.3753	0.074
Mof_C 	C 	0.1805	0.6001	0.4111	-0.128
Mof_H 	H 	0.2555	0.6771	0.396	-0.018
Mof_H 	H 	0.2018	0.5817	0.4549	0.078
Mof_C 	C 	0.2874	0.8439	0.3753	0.074
Mof_C 	C 	0.3195	0.8999	0.4111	-0.128
Mof_H 	H 	0.2445	0.8229	0.396	-0.018
Mof_H 	H 	0.2982	0.9183	0.4549	0.078
Mof_C 	C 	0.1247	0.2874	0.6561	0.074
Mof_C 	C 	0.0889	0.3195	0.6001	-0.128
Mof_H 	H 	0.104	0.2445	0.6771	-0.018
Mof_H 	H 	0.0451	0.2982	0.5817	0.078
Mof_C 	C 	0.1247	0.2126	0.8439	0.075
Mof_C 	C 	0.0889	0.1805	0.8999	-0.129
Mof_H 	H 	0.104	0.2555	0.8229	-0.018
Mof_H 	H 	0.0451	0.2018	0.9183	0.078
Mof_C 	C 	0.3753	0.2126	0.6561	0.074
Mof_C 	C 	0.4111	0.1805	0.6001	-0.128
Mof_H 	H 	0.396	0.2555	0.6771	-0.018
Mof_H 	H 	0.4549	0.2018	0.5817	0.078
Mof_C 	C 	0.3753	0.2874	0.8439	0.074
Mof_C 	C 	0.4111	0.3195	0.8999	-0.128
Mof_H 	H 	0.396	0.2445	0.8229	-0.018
Mof_H 	H 	0.4549	0.2982	0.9183	0.078
Mof_C 	C 	0.6561	0.1247	0.2874	0.074
Mof_C 	C 	0.6001	0.0889	0.3195	-0.128
Mof_H 	H 	0.6771	0.104	0.2445	-0.018
Mof_H 	H 	0.5817	0.0451	0.2982	0.078
Mof_C 	C 	0.8439	0.1247	0.2126	0.075
Mof_C 	C 	0.8999	0.0889	0.1805	-0.129
Mof_H 	H 	0.8229	0.104	0.2555	-0.018
Mof_H 	H 	0.9183	0.0451	0.2018	0.078
Mof_C 	C 	0.6561	0.3753	0.2126	0.074
Mof_C 	C 	0.6001	0.4111	0.1805	-0.128
Mof_H 	H 	0.6771	0.396	0.2555	-0.018
Mof_H 	H 	0.5817	0.4549	0.2018	0.078
Mof_C 	C 	0.8439	0.3753	0.2874	0.074
Mof_C 	C 	0.8999	0.4111	0.3195	-0.128
Mof_H 	H 	0.8229	0.396	0.2445	-0.018
Mof_H 	H 	0.9183	0.4549	0.2982	0.078
Mof_C 	C 	0.8439	0.2126	0.1247	0.075
Mof_C 	C 	0.8999	0.1805	0.0889	-0.129
Mof_H 	H 	0.8229	0.2555	0.104	-0.018
Mof_H 	H 	0.9183	0.2018	0.0451	0.078
Mof_C 	C 	0.6561	0.2874	0.1247	0.074
Mof_C 	C 	0.6001	0.3195	0.0889	-0.128
Mof_H 	H 	0.6771	0.2445	0.104	-0.018
Mof_H 	H 	0.5817	0.2982	0.0451	0.078
Mof_C 	C 	0.8439	0.2874	0.3753	0.074
Mof_C 	C 	0.8999	0.3195	0.4111	-0.128
Mof_H 	H 	0.8229	0.2445	0.396	-0.018
Mof_H 	H 	0.9183	0.2982	0.4549	0.078
Mof_C 	C 	0.6561	0.2126	0.3753	0.074
Mof_C 	C 	0.6001	0.1805	0.4111	-0.128
Mof_H 	H 	0.6771	0.2555	0.396	-0.018
Mof_H 	H 	0.5817	0.2018	0.4549	0.078
Mof_C 	C 	0.2126	0.3753	0.6561	0.074
Mof_C 	C 	0.1805	0.4111	0.6001	-0.128
Mof_H 	H 	0.2555	0.396	0.6771	-0.018
Mof_H 	H 	0.2018	0.4549	0.5817	0.078
Mof_C 	C 	0.2874	0.3753	0.8439	0.074
Mof_C 	C 	0.3195	0.4111	0.8999	-0.128
Mof_H 	H 	0.2445	0.396	0.8229	-0.018
Mof_H 	H 	0.2982	0.4549	0.9183	0.078
Mof_C 	C 	0.2874	0.1247	0.6561	0.074
Mof_C 	C 	0.3195	0.0889	0.6001	-0.128
Mof_H 	H 	0.2445	0.104	0.6771	-0.018
Mof_H 	H 	0.2982	0.0451	0.5817	0.078
Mof_C 	C 	0.2126	0.1247	0.8439	0.075
Mof_C 	C 	0.1805	0.0889	0.8999	-0.129
Mof_H 	H 	0.2555	0.104	0.8229	-0.018
Mof_H 	H 	0.2018	0.0451	0.9183	0.078
Mof_C 	C 	0.3753	0.8439	0.2874	0.074
Mof_C 	C 	0.4111	0.8999	0.3195	-0.128
Mof_H 	H 	0.396	0.8229	0.2445	-0.018
Mof_H 	H 	0.4549	0.9183	0.2982	0.078
Mof_C 	C 	0.3753	0.6561	0.2126	0.074
Mof_C 	C 	0.4111	0.6001	0.1805	-0.128
Mof_H 	H 	0.396	0.6771	0.2555	-0.018
Mof_H 	H 	0.4549	0.5817	0.2018	0.078
Mof_C 	C 	0.1247	0.8439	0.2126	0.075
Mof_C 	C 	0.0889	0.8999	0.1805	-0.129
Mof_H 	H 	0.104	0.8229	0.2555	-0.018
Mof_H 	H 	0.0451	0.9183	0.2018	0.078
Mof_C 	C 	0.1247	0.6561	0.2874	0.074
Mof_C 	C 	0.0889	0.6001	0.3195	-0.128
Mof_H 	H 	0.104	0.6771	0.2445	-0.018
Mof_H 	H 	0.0451	0.5817	0.2982	0.078
Mof_C 	C 	0.384	0.5689	0.116	0.053
Mof_N 	N 	0.3125	0.6839	0.1875	-0.244
Mof_C 	C 	0.4188	0.5053	0.0812	0.106
Mof_C 	C 	0.116	0.9311	0.116	0.055
Mof_N 	N 	0.1875	0.8161	0.1875	-0.244
Mof_C 	C 	0.0812	0.9947	0.0812	0.101
Mof_C 	C 	0.116	0.5689	0.384	0.053
Mof_N 	N 	0.1875	0.6839	0.3125	-0.244
Mof_C 	C 	0.0812	0.5053	0.4188	0.106
Mof_C 	C 	0.384	0.9311	0.384	0.053
Mof_N 	N 	0.3125	0.8161	0.3125	-0.244
Mof_C 	C 	0.4188	0.9947	0.4188	0.105
Mof_C 	C 	0.116	0.384	0.5689	0.053
Mof_N 	N 	0.1875	0.3125	0.6839	-0.244
Mof_C 	C 	0.0812	0.4188	0.5053	0.106
Mof_C 	C 	0.116	0.116	0.9311	0.055
Mof_N 	N 	0.1875	0.1875	0.8161	-0.244
Mof_C 	C 	0.0812	0.0812	0.9947	0.101
Mof_C 	C 	0.384	0.116	0.5689	0.053
Mof_N 	N 	0.3125	0.1875	0.6839	-0.244
Mof_C 	C 	0.4188	0.0812	0.5053	0.106
Mof_C 	C 	0.384	0.384	0.9311	0.053
Mof_N 	N 	0.3125	0.3125	0.8161	-0.244
Mof_C 	C 	0.4188	0.4188	0.9947	0.105
Mof_C 	C 	0.5689	0.116	0.384	0.053
Mof_N 	N 	0.6839	0.1875	0.3125	-0.244
Mof_C 	C 	0.5053	0.0812	0.4188	0.106
Mof_C 	C 	0.9311	0.116	0.116	0.055
Mof_N 	N 	0.8161	0.1875	0.1875	-0.244
Mof_C 	C 	0.9947	0.0812	0.0812	0.101
Mof_C 	C 	0.5689	0.384	0.116	0.053
Mof_N 	N 	0.6839	0.3125	0.1875	-0.244
Mof_C 	C 	0.5053	0.4188	0.0812	0.106
Mof_C 	C 	0.9311	0.384	0.384	0.053
Mof_N 	N 	0.8161	0.3125	0.3125	-0.244
Mof_C 	C 	0.9947	0.4188	0.4188	0.105
Mof_N 	N 	0.3874	0.4789	0.0211	-0.141
Mof_N 	N 	0.1126	0.0211	0.0211	-0.137
Mof_N 	N 	0.1126	0.4789	0.4789	-0.142
Mof_N 	N 	0.3874	0.0211	0.4789	-0.141
Mof_N 	N 	0.0211	0.3874	0.4789	-0.141
Mof_N 	N 	0.0211	0.1126	0.0211	-0.137
Mof_N 	N 	0.4789	0.1126	0.4789	-0.142
Mof_N 	N 	0.4789	0.3874	0.0211	-0.141
Mof_N 	N 	0.4789	0.0211	0.3874	-0.141
Mof_N 	N 	0.0211	0.0211	0.1126	-0.137
Mof_N 	N 	0.4789	0.4789	0.1126	-0.142
Mof_N 	N 	0.0211	0.4789	0.3874	-0.141
Mof_Cu	Cu	0.25	0.75	0.25	0.856
Mof_Cu	Cu	0.25	0.25	0.75	0.856
Mof_Cu	Cu	0.75	0.25	0.25	0.856
Mof_C 	C 	0.1561	0.7874	0.8753	0.075
Mof_C 	C 	0.1001	0.8195	0.9111	-0.129
Mof_H 	H 	0.1771	0.7445	0.896	-0.018
Mof_H 	H 	0.0817	0.7982	0.9549	0.078
Mof_C 	C 	0.3439	0.7126	0.8753	0.074
Mof_C 	C 	0.3999	0.6805	0.9111	-0.128
Mof_H 	H 	0.3229	0.7555	0.896	-0.018
Mof_H 	H 	0.4183	0.7018	0.9549	0.078
Mof_C 	C 	0.1561	0.7126	0.6247	0.074
Mof_C 	C 	0.1001	0.6805	0.5889	-0.128
Mof_H 	H 	0.1771	0.7555	0.604	-0.018
Mof_H 	H 	0.0817	0.7018	0.5451	0.078
Mof_C 	C 	0.3439	0.7874	0.6247	0.074
Mof_C 	C 	0.3999	0.8195	0.5889	-0.128
Mof_H 	H 	0.3229	0.7445	0.604	-0.018
Mof_H 	H 	0.4183	0.7982	0.5451	0.078
Mof_C 	C 	0.7874	0.6247	0.3439	0.074
Mof_C 	C 	0.8195	0.5889	0.3999	-0.128
Mof_H 	H 	0.7445	0.604	0.3229	-0.018
Mof_H 	H 	0.7982	0.5451	0.4183	0.078
Mof_C 	C 	0.7126	0.6247	0.1561	0.074
Mof_C 	C 	0.6805	0.5889	0.1001	-0.128
Mof_H 	H 	0.7555	0.604	0.1771	-0.018
Mof_H 	H 	0.7018	0.5451	0.0817	0.078
Mof_C 	C 	0.7126	0.8753	0.3439	0.074
Mof_C 	C 	0.6805	0.9111	0.3999	-0.128
Mof_H 	H 	0.7555	0.896	0.3229	-0.018
Mof_H 	H 	0.7018	0.9549	0.4183	0.078
Mof_C 	C 	0.7874	0.8753	0.1561	0.075
Mof_C 	C 	0.8195	0.9111	0.1001	-0.129
Mof_H 	H 	0.7445	0.896	0.1771	-0.018
Mof_H 	H 	0.7982	0.9549	0.0817	0.078
Mof_C 	C 	0.6247	0.1561	0.7126	0.074
Mof_C 	C 	0.5889	0.1001	0.6805	-0.128
Mof_H 	H 	0.604	0.1771	0.7555	-0.018
Mof_H 	H 	0.5451	0.0817	0.7018	0.078
Mof_C 	C 	0.6247	0.3439	0.7874	0.074
Mof_C 	C 	0.5889	0.3999	0.8195	-0.128
Mof_H 	H 	0.604	0.3229	0.7445	-0.018
Mof_H 	H 	0.5451	0.4183	0.7982	0.078
Mof_C 	C 	0.8753	0.1561	0.7874	0.075
Mof_C 	C 	0.9111	0.1001	0.8195	-0.129
Mof_H 	H 	0.896	0.1771	0.7445	-0.018
Mof_H 	H 	0.9549	0.0817	0.7982	0.078
Mof_C 	C 	0.8753	0.3439	0.7126	0.074
Mof_C 	C 	0.9111	0.3999	0.6805	-0.128
Mof_H 	H 	0.896	0.3229	0.7555	-0.018
Mof_H 	H 	0.9549	0.4183	0.7018	0.078
Mof_C 	C 	0.7126	0.3439	0.8753	0.074
Mof_C 	C 	0.6805	0.3999	0.9111	-0.128
Mof_H 	H 	0.7555	0.3229	0.896	-0.018
Mof_H 	H 	0.7018	0.4183	0.9549	0.078
Mof_C 	C 	0.7874	0.1561	0.8753	0.075
Mof_C 	C 	0.8195	0.1001	0.9111	-0.129
Mof_H 	H 	0.7445	0.1771	0.896	-0.018
Mof_H 	H 	0.7982	0.0817	0.9549	0.078
Mof_C 	C 	0.7874	0.3439	0.6247	0.074
Mof_C 	C 	0.8195	0.3999	0.5889	-0.128
Mof_H 	H 	0.7445	0.3229	0.604	-0.018
Mof_H 	H 	0.7982	0.4183	0.5451	0.078
Mof_C 	C 	0.7126	0.1561	0.6247	0.074
Mof_C 	C 	0.6805	0.1001	0.5889	-0.128
Mof_H 	H 	0.7555	0.1771	0.604	-0.018
Mof_H 	H 	0.7018	0.0817	0.5451	0.078
Mof_C 	C 	0.8753	0.7126	0.3439	0.074
Mof_C 	C 	0.9111	0.6805	0.3999	-0.128
Mof_H 	H 	0.896	0.7555	0.3229	-0.018
Mof_H 	H 	0.9549	0.7018	0.4183	0.078
Mof_C 	C 	0.8753	0.7874	0.1561	0.075
Mof_C 	C 	0.9111	0.8195	0.1001	-0.129
Mof_H 	H 	0.896	0.7445	0.1771	-0.018
Mof_H 	H 	0.9549	0.7982	0.0817	0.078
Mof_C 	C 	0.6247	0.7874	0.3439	0.074
Mof_C 	C 	0.5889	0.8195	0.3999	-0.128
Mof_H 	H 	0.604	0.7445	0.3229	-0.018
Mof_H 	H 	0.5451	0.7982	0.4183	0.078
Mof_C 	C 	0.6247	0.7126	0.1561	0.074
Mof_C 	C 	0.5889	0.6805	0.1001	-0.128
Mof_H 	H 	0.604	0.7555	0.1771	-0.018
Mof_H 	H 	0.5451	0.7018	0.0817	0.078
Mof_C 	C 	0.3439	0.8753	0.7126	0.074
Mof_C 	C 	0.3999	0.9111	0.6805	-0.128
Mof_H 	H 	0.3229	0.896	0.7555	-0.018
Mof_H 	H 	0.4183	0.9549	0.7018	0.078
Mof_C 	C 	0.1561	0.8753	0.7874	0.075
Mof_C 	C 	0.1001	0.9111	0.8195	-0.129
Mof_H 	H 	0.1771	0.896	0.7445	-0.018
Mof_H 	H 	0.0817	0.9549	0.7982	0.078
Mof_C 	C 	0.3439	0.6247	0.7874	0.074
Mof_C 	C 	0.3999	0.5889	0.8195	-0.128
Mof_H 	H 	0.3229	0.604	0.7445	-0.018
Mof_H 	H 	0.4183	0.5451	0.7982	0.078
Mof_C 	C 	0.1561	0.6247	0.7126	0.074
Mof_C 	C 	0.1001	0.5889	0.6805	-0.128
Mof_H 	H 	0.1771	0.604	0.7555	-0.018
Mof_H 	H 	0.0817	0.5451	0.7018	0.078
Mof_C 	C 	0.0689	0.884	0.884	0.055
Mof_N 	N 	0.1839	0.8125	0.8125	-0.244
Mof_C 	C 	0.0053	0.9188	0.9188	0.101
Mof_C 	C 	0.4311	0.616	0.884	0.053
Mof_N 	N 	0.3161	0.6875	0.8125	-0.244
Mof_C 	C 	0.4947	0.5812	0.9188	0.106
Mof_C 	C 	0.0689	0.616	0.616	0.053
Mof_N 	N 	0.1839	0.6875	0.6875	-0.244
Mof_C 	C 	0.0053	0.5812	0.5812	0.105
Mof_C 	C 	0.4311	0.884	0.616	0.053
Mof_N 	N 	0.3161	0.8125	0.6875	-0.244
Mof_C 	C 	0.4947	0.9188	0.5812	0.106
Mof_C 	C 	0.884	0.616	0.4311	0.053
Mof_N 	N 	0.8125	0.6875	0.3161	-0.244
Mof_C 	C 	0.9188	0.5812	0.4947	0.106
Mof_C 	C 	0.616	0.616	0.0689	0.053
Mof_N 	N 	0.6875	0.6875	0.1839	-0.244
Mof_C 	C 	0.5812	0.5812	0.0053	0.105
Mof_C 	C 	0.616	0.884	0.4311	0.053
Mof_N 	N 	0.6875	0.8125	0.3161	-0.244
Mof_C 	C 	0.5812	0.9188	0.4947	0.106
Mof_C 	C 	0.884	0.884	0.0689	0.055
Mof_N 	N 	0.8125	0.8125	0.1839	-0.244
Mof_C 	C 	0.9188	0.9188	0.0053	0.101
Mof_C 	C 	0.616	0.0689	0.616	0.053
Mof_N 	N 	0.6875	0.1839	0.6875	-0.244
Mof_C 	C 	0.5812	0.0053	0.5812	0.105
Mof_C 	C 	0.616	0.4311	0.884	0.053
Mof_N 	N 	0.6875	0.3161	0.8125	-0.244
Mof_C 	C 	0.5812	0.4947	0.9188	0.106
Mof_C 	C 	0.884	0.0689	0.884	0.055
Mof_N 	N 	0.8125	0.1839	0.8125	-0.244
Mof_C 	C 	0.9188	0.0053	0.9188	0.101
Mof_C 	C 	0.884	0.4311	0.616	0.053
Mof_N 	N 	0.8125	0.3161	0.6875	-0.244
Mof_C 	C 	0.9188	0.4947	0.5812	0.106
Mof_N 	N 	0.9789	0.8874	0.9789	-0.137
Mof_N 	N 	0.5211	0.6126	0.9789	-0.141
Mof_N 	N 	0.9789	0.6126	0.5211	-0.141
Mof_N 	N 	0.5211	0.8874	0.5211	-0.142
Mof_N 	N 	0.8874	0.5211	0.5211	-0.142
Mof_N 	N 	0.6126	0.5211	0.9789	-0.141
Mof_N 	N 	0.6126	0.9789	0.5211	-0.141
Mof_N 	N 	0.8874	0.9789	0.9789	-0.137
Mof_N 	N 	0.5211	0.9789	0.6126	-0.141
Mof_N 	N 	0.5211	0.5211	0.8874	-0.142
Mof_N 	N 	0.9789	0.9789	0.8874	-0.137
Mof_N 	N 	0.9789	0.5211	0.6126	-0.141
Mof_Cu	Cu	0.25	0.75	0.75	0.856
Mof_Cu	Cu	0.75	0.75	0.25	0.856
Mof_Cu	Cu	0.75	0.25	0.75	0.856
_end
