data_functionalizedCrystal
_audit_creation_method	'EQeq! by Chris Wilmer'
_symmetry_space_group_name_H-M	'P1'
_symmetry_Int_Tables_number	1
_symmetry_cell_setting	triclinic
loop_
_symmetry_equiv_pos_as_xyz
  x,y,z
_cell_length_a	20.1173
_cell_length_b	20.1171
_cell_length_c	20.1171
_cell_angle_alpha	109.471
_cell_angle_beta	109.471
_cell_angle_gamma	109.471
loop_
_atom_site_label
_atom_site_type_symbol
_atom_site_fract_x
_atom_site_fract_y
_atom_site_fract_z
_atom_site_charge
Mof_Co	Co	0.5	0.5	0.5	1.195
Mof_Co	Co	1.81396e-17	0	0.5	1.159
Mof_Co	Co	-0	0.5	-0	1.159
Mof_Co	Co	0.5	0	-0	1.159
Mof_H 	H 	0.6202	0.1048	0.1968	0.042
Mof_H 	H 	0.7451	0.6635	0.636	0.032
Mof_H 	H 	0.6636	0.8158	0.9368	0.1
Mof_H 	H 	0.1968	0.6202	0.1048	0.042
Mof_H 	H 	0.9184	0.2549	0.8909	0.035
Mof_H 	H 	0.8032	0.3798	0.8952	0.042
Mof_H 	H 	0.0275	0.6635	0.9184	-0.024
Mof_H 	H 	0.0632	0.879	0.7268	0.042
Mof_H 	H 	0.8931	0.7006	0.2793	0.076
Mof_H 	H 	0.4234	0.5154	0.6202	0.044
Mof_H 	H 	0.8931	0.6138	0.1925	0.063
Mof_H 	H 	0.9184	0.0275	0.6635	-0.023
Mof_H 	H 	0.6138	0.1925	0.8931	0.063
Mof_H 	H 	0.8909	0.636	0.9725	0.092
Mof_H 	H 	0.3364	0.2732	0.1522	0.062
Mof_H 	H 	0.121	0.2732	0.9368	0.093
Mof_H 	H 	0.7006	0.2793	0.8931	0.076
Mof_H 	H 	0.0816	0.7451	0.1091	0.02
Mof_H 	H 	0.1842	0.0632	0.3364	0.029
Mof_H 	H 	0.8158	0.9368	0.6636	0.101
Mof_H 	H 	0.6635	0.9184	0.0275	-0.023
Mof_H 	H 	0.1091	0.0816	0.7451	0.02
Mof_H 	H 	0.1968	0.092	0.5766	0.043
Mof_H 	H 	0.1522	0.3364	0.2732	0.062
Mof_H 	H 	0.7451	0.1091	0.0816	0.02
Mof_H 	H 	0.1522	0.879	0.8158	0.073
Mof_H 	H 	0.7207	0.1069	0.2994	0.058
Mof_H 	H 	0.636	0.7451	0.6635	0.033
Mof_H 	H 	0.3365	0.364	0.2549	0.023
Mof_H 	H 	0.6202	0.4234	0.5154	0.044
Mof_H 	H 	0.6138	0.7207	0.4213	0.063
Mof_H 	H 	0.7006	0.8075	0.4213	0.075
Mof_H 	H 	0.8158	0.1522	0.879	0.073
Mof_H 	H 	0.4846	0.3798	0.5766	0.042
Mof_H 	H 	0.9725	0.8909	0.636	0.092
Mof_H 	H 	0.4213	0.6138	0.7207	0.063
Mof_H 	H 	0.1069	0.3862	0.8075	0.071
Mof_H 	H 	0.0816	0.9725	0.3365	0.084
Mof_H 	H 	0.7207	0.4213	0.6138	0.063
Mof_H 	H 	0.3364	0.1842	0.0632	0.029
Mof_H 	H 	0.2994	0.1925	0.5787	0.058
Mof_H 	H 	0.5766	0.4846	0.3798	0.042
Mof_H 	H 	0.1048	0.4846	0.908	0.041
Mof_H 	H 	0.092	0.8952	0.5154	0.044
Mof_H 	H 	0.2793	0.5787	0.3862	0.071
Mof_H 	H 	0.8075	0.1069	0.3862	0.071
Mof_H 	H 	0.1925	0.5787	0.2994	0.058
Mof_H 	H 	0.8478	0.121	0.1842	0.06
Mof_H 	H 	0.121	0.1842	0.8478	0.06
Mof_H 	H 	0.3862	0.2793	0.5787	0.071
Mof_H 	H 	0.8952	0.5154	0.092	0.044
Mof_H 	H 	0.9368	0.6636	0.8158	0.101
Mof_H 	H 	0.5787	0.2994	0.1925	0.058
Mof_H 	H 	0.6636	0.7268	0.8478	0.07
Mof_H 	H 	0.0275	0.1091	0.364	-0.041
Mof_H 	H 	0.8909	0.9184	0.2549	0.036
Mof_H 	H 	0.5154	0.6202	0.4234	0.044
Mof_H 	H 	0.6635	0.636	0.7451	0.033
Mof_H 	H 	0.0632	0.3364	0.1842	0.029
Mof_H 	H 	0.2549	0.8909	0.9184	0.036
Mof_H 	H 	0.4234	0.8032	0.908	0.043
Mof_H 	H 	0.2549	0.3365	0.364	0.023
Mof_H 	H 	0.7268	0.8478	0.6636	0.07
Mof_H 	H 	0.2994	0.7207	0.1069	0.058
Mof_H 	H 	0.8952	0.8032	0.3798	0.043
Mof_H 	H 	0.2793	0.8931	0.7006	0.076
Mof_H 	H 	0.7268	0.0632	0.879	0.042
Mof_H 	H 	0.092	0.5766	0.1968	0.043
Mof_H 	H 	0.9368	0.121	0.2732	0.093
Mof_H 	H 	0.8075	0.4213	0.7006	0.075
Mof_H 	H 	0.4213	0.7006	0.8075	0.075
Mof_H 	H 	0.5766	0.1968	0.092	0.043
Mof_H 	H 	0.5787	0.3862	0.2793	0.071
Mof_H 	H 	0.5154	0.092	0.8952	0.044
Mof_H 	H 	0.3798	0.5766	0.4846	0.042
Mof_H 	H 	0.908	0.4234	0.8032	0.043
Mof_H 	H 	0.1091	0.364	0.0275	-0.041
Mof_H 	H 	0.4846	0.908	0.1048	0.041
Mof_H 	H 	0.9725	0.3365	0.0816	0.084
Mof_H 	H 	0.879	0.8158	0.1522	0.073
Mof_H 	H 	0.3798	0.8952	0.8032	0.043
Mof_H 	H 	0.364	0.2549	0.3365	0.023
Mof_H 	H 	0.1069	0.2994	0.7207	0.058
Mof_H 	H 	0.879	0.7268	0.0632	0.042
Mof_H 	H 	0.8478	0.6636	0.7268	0.07
Mof_H 	H 	0.8032	0.908	0.4234	0.043
Mof_H 	H 	0.3365	0.0816	0.9725	0.084
Mof_H 	H 	0.1048	0.1968	0.6202	0.043
Mof_H 	H 	0.1842	0.8478	0.121	0.06
Mof_H 	H 	0.636	0.9725	0.8909	0.092
Mof_H 	H 	0.2732	0.9368	0.121	0.093
Mof_H 	H 	0.908	0.1048	0.4846	0.041
Mof_H 	H 	0.364	0.0275	0.1091	-0.041
Mof_H 	H 	0.2732	0.1522	0.3364	0.062
Mof_H 	H 	0.1925	0.8931	0.6138	0.063
Mof_H 	H 	0.3862	0.8075	0.1069	0.071
Mof_C 	C 	0.54103	0.74611	0.85866	0.079
Mof_C 	C 	0.10524	0.1934	0.6653	0.019
Mof_C 	C 	0.61433	0.63128	0.74045	0.054
Mof_C 	C 	0.25389	0.79492	0.11255	0.025
Mof_C 	C 	0.45897	0.25389	0.14134	0.008
Mof_C 	C 	0.74407	0.27315	0.89188	-0.103
Mof_C 	C 	0.87388	0.25955	0.89083	0.069
Mof_C 	C 	0.19915	0.38564	0.31423	-0.12
Mof_C 	C 	0.74407	0.85219	0.47092	-0.116
Mof_C 	C 	0.74045	0.10917	0.12612	0.045
Mof_C 	C 	0.47092	0.74407	0.85219	-0.116
Mof_C 	C 	0.10812	0.25593	0.72685	-0.084
Mof_C 	C 	0.18649	0.07141	0.38564	-0.046
Mof_C 	C 	0.27315	0.89188	0.74407	-0.103
Mof_C 	C 	0.6653	0.10524	0.1934	0.019
Mof_C 	C 	0.1934	0.08816	0.5281	0.013
Mof_C 	C 	0.14134	0.45897	0.25389	0.008
Mof_C 	C 	0.25389	0.14134	0.45897	0.008
Mof_C 	C 	0.61436	0.68577	0.80085	-0.099
Mof_C 	C 	0.3347	0.5281	0.43994	0.035
Mof_C 	C 	0.92859	0.11508	0.31423	-0.177
Mof_C 	C 	0.08816	0.5281	0.1934	0.013
Mof_C 	C 	0.88492	0.81351	0.19915	-0.118
Mof_C 	C 	0.11255	0.31763	0.85866	0.075
Mof_C 	C 	0.52908	0.25593	0.14781	-0.071
Mof_C 	C 	0.63128	0.01695	0.89083	-0.039
Mof_C 	C 	0.38567	0.36872	0.25955	0.059
Mof_C 	C 	0.25955	0.89083	0.87388	0.069
Mof_C 	C 	0.4719	0.56006	0.6653	0.028
Mof_C 	C 	0.98305	0.61433	0.87388	0.162
Mof_C 	C 	0.12612	0.01695	0.38567	-0.055
Mof_C 	C 	0.72685	0.47092	0.61873	-0.083
Mof_C 	C 	0.31423	0.92859	0.11508	-0.177
Mof_C 	C 	0.61433	0.87388	0.98305	0.162
Mof_C 	C 	0.88492	0.68577	0.07141	-0.048
Mof_C 	C 	0.07141	0.38564	0.18649	-0.046
Mof_C 	C 	0.8066	0.91184	0.4719	0.05
Mof_C 	C 	0.74611	0.85866	0.54103	0.079
Mof_C 	C 	0.1934	0.6653	0.10524	0.019
Mof_C 	C 	0.85219	0.10812	0.38127	-0.118
Mof_C 	C 	0.8066	0.3347	0.89476	0.045
Mof_C 	C 	0.81351	0.92859	0.61436	-0.17
Mof_C 	C 	0.25593	0.72685	0.10812	-0.084
Mof_C 	C 	0.72685	0.10812	0.25593	-0.084
Mof_C 	C 	0.47092	0.61873	0.72685	-0.083
Mof_C 	C 	0.11508	0.18649	0.80085	-0.101
Mof_C 	C 	0.31423	0.19915	0.38564	-0.12
Mof_C 	C 	0.25955	0.38567	0.36872	0.059
Mof_C 	C 	0.80085	0.61436	0.68577	-0.099
Mof_C 	C 	0.20508	0.88745	0.74611	0.063
Mof_C 	C 	0.74045	0.61433	0.63128	0.054
Mof_C 	C 	0.5281	0.1934	0.08816	0.013
Mof_C 	C 	0.3347	0.89476	0.8066	0.045
Mof_C 	C 	0.81351	0.19915	0.88492	-0.118
Mof_C 	C 	0.63128	0.74045	0.61433	0.054
Mof_C 	C 	0.43994	0.91184	0.10524	0.042
Mof_C 	C 	0.61873	0.14781	0.89188	-0.072
Mof_C 	C 	0.88745	0.74611	0.20508	0.063
Mof_C 	C 	0.61436	0.81351	0.92859	-0.17
Mof_C 	C 	0.68237	0.79492	0.54103	0.032
Mof_C 	C 	0.85866	0.11255	0.31763	0.075
Mof_C 	C 	0.25593	0.14781	0.52908	-0.071
Mof_C 	C 	0.89083	0.63128	0.01695	-0.039
Mof_C 	C 	0.31763	0.20508	0.45897	0.057
Mof_C 	C 	0.14134	0.88745	0.68237	0.017
Mof_C 	C 	0.79492	0.11255	0.25389	0.025
Mof_C 	C 	0.91184	0.10524	0.43994	0.042
Mof_C 	C 	0.89476	0.56006	0.08816	0.023
Mof_C 	C 	0.38567	0.12612	0.01695	-0.055
Mof_C 	C 	0.01695	0.89083	0.63128	-0.039
Mof_C 	C 	0.85866	0.54103	0.74611	0.079
Mof_C 	C 	0.74611	0.20508	0.88745	0.063
Mof_C 	C 	0.20508	0.45897	0.31763	0.057
Mof_C 	C 	0.36872	0.25955	0.38567	0.059
Mof_C 	C 	0.38564	0.31423	0.19915	-0.12
Mof_C 	C 	0.18649	0.80085	0.11508	-0.101
Mof_C 	C 	0.14781	0.89188	0.61873	-0.072
Mof_C 	C 	0.12612	0.74045	0.10917	0.045
Mof_C 	C 	0.38564	0.18649	0.07141	-0.046
Mof_C 	C 	0.4719	0.8066	0.91184	0.05
Mof_C 	C 	0.11508	0.31423	0.92859	-0.177
Mof_C 	C 	0.89188	0.74407	0.27315	-0.103
Mof_C 	C 	0.89188	0.61873	0.14781	-0.072
Mof_C 	C 	0.10917	0.12612	0.74045	0.045
Mof_C 	C 	0.80085	0.11508	0.18649	-0.101
Mof_C 	C 	0.19915	0.88492	0.81351	-0.118
Mof_C 	C 	0.10812	0.38127	0.85219	-0.118
Mof_C 	C 	0.38127	0.27315	0.52908	-0.104
Mof_C 	C 	0.68577	0.80085	0.61436	-0.099
Mof_C 	C 	0.87388	0.98305	0.61433	0.162
Mof_C 	C 	0.88745	0.68237	0.14134	0.017
Mof_C 	C 	0.36872	0.98305	0.10917	0.16
Mof_C 	C 	0.56006	0.08816	0.89476	0.023
Mof_C 	C 	0.61873	0.72685	0.47092	-0.083
Mof_C 	C 	0.68577	0.07141	0.88492	-0.048
Mof_C 	C 	0.6653	0.4719	0.56006	0.028
Mof_C 	C 	0.68237	0.14134	0.88745	0.017
Mof_C 	C 	0.85219	0.47092	0.74407	-0.116
Mof_C 	C 	0.56006	0.6653	0.4719	0.028
Mof_C 	C 	0.98305	0.10917	0.36872	0.16
Mof_C 	C 	0.5281	0.43994	0.3347	0.035
Mof_C 	C 	0.79492	0.54103	0.68237	0.032
Mof_C 	C 	0.52908	0.38127	0.27315	-0.104
Mof_C 	C 	0.91184	0.4719	0.8066	0.05
Mof_C 	C 	0.89083	0.87388	0.25955	0.069
Mof_C 	C 	0.38127	0.85219	0.10812	-0.118
Mof_C 	C 	0.27315	0.52908	0.38127	-0.104
Mof_C 	C 	0.92859	0.61436	0.81351	-0.17
Mof_C 	C 	0.08816	0.89476	0.56006	0.023
Mof_C 	C 	0.10917	0.36872	0.98305	0.16
Mof_C 	C 	0.11255	0.25389	0.79492	0.025
Mof_C 	C 	0.89476	0.8066	0.3347	0.045
Mof_C 	C 	0.07141	0.88492	0.68577	-0.048
Mof_C 	C 	0.43994	0.3347	0.5281	0.035
Mof_C 	C 	0.45897	0.31763	0.20508	0.057
Mof_C 	C 	0.01695	0.38567	0.12612	-0.055
Mof_C 	C 	0.14781	0.52908	0.25593	-0.071
Mof_C 	C 	0.31763	0.85866	0.11255	0.075
Mof_C 	C 	0.10524	0.43994	0.91184	0.042
Mof_C 	C 	0.54103	0.68237	0.79492	0.032
Mof_N 	N 	0.97412	0.54335	0.87091	-0.07
Mof_N 	N 	0.02588	0.89679	0.56923	-0.066
Mof_N 	N 	0.43077	0.97412	0.10321	-0.071
Mof_N 	N 	0.89679	0.56923	0.02588	-0.066
Mof_N 	N 	0.32756	0.45665	0.43077	-0.07
Mof_N 	N 	0.43077	0.32756	0.45665	-0.07
Mof_N 	N 	0.45665	0.43077	0.32756	-0.07
Mof_N 	N 	0.56923	0.02588	0.89679	-0.066
Mof_N 	N 	0.89679	0.87091	0.32756	-0.07
Mof_N 	N 	0.67244	0.10321	0.12909	-0.067
Mof_N 	N 	0.12909	0.67244	0.10321	-0.067
Mof_N 	N 	0.12909	0.02588	0.45665	-0.066
Mof_N 	N 	0.54335	0.87091	0.97412	-0.07
Mof_N 	N 	0.87091	0.32756	0.89679	-0.07
Mof_N 	N 	0.56923	0.67244	0.54335	-0.066
Mof_N 	N 	0.10321	0.12909	0.67244	-0.067
Mof_N 	N 	0.54335	0.56923	0.67244	-0.066
Mof_N 	N 	0.97412	0.10321	0.43077	-0.071
Mof_N 	N 	0.87091	0.97412	0.54335	-0.07
Mof_N 	N 	0.10321	0.43077	0.97412	-0.071
Mof_N 	N 	0.45665	0.12909	0.02588	-0.066
Mof_N 	N 	0.67244	0.54335	0.56923	-0.066
Mof_N 	N 	0.02588	0.45665	0.12909	-0.066
Mof_N 	N 	0.32756	0.89679	0.87091	-0.07
Mof_O 	O 	0.06738	0.96733	0.45227	-0.246
Mof_O 	O 	0.89995	0.93262	0.38489	-0.236
Mof_O 	O 	0.51506	0.61511	0.54773	-0.263
Mof_O 	O 	0.48494	0.38489	0.45227	-0.264
Mof_O 	O 	0.45227	0.06738	0.96733	-0.246
Mof_O 	O 	0.61511	0.54773	0.51506	-0.263
Mof_O 	O 	0.38489	0.89995	0.93262	-0.236
Mof_O 	O 	0.45227	0.48494	0.38489	-0.264
Mof_O 	O 	0.03267	0.10005	0.48494	-0.293
Mof_O 	O 	0.61511	0.10005	0.06738	-0.281
Mof_O 	O 	0.03267	0.54773	0.93262	-0.269
Mof_O 	O 	0.06738	0.61511	0.10005	-0.281
Mof_O 	O 	0.96733	0.89995	0.51506	-0.225
Mof_O 	O 	0.54773	0.51506	0.61511	-0.263
Mof_O 	O 	0.54773	0.93262	0.03267	-0.269
Mof_O 	O 	0.10005	0.48494	0.03267	-0.293
Mof_O 	O 	0.93262	0.03267	0.54773	-0.269
Mof_O 	O 	0.48494	0.03267	0.10005	-0.293
Mof_O 	O 	0.89995	0.51506	0.96733	-0.225
Mof_O 	O 	0.93262	0.38489	0.89995	-0.236
Mof_O 	O 	0.10005	0.06738	0.61511	-0.281
Mof_O 	O 	0.38489	0.45227	0.48494	-0.264
Mof_O 	O 	0.51506	0.96733	0.89995	-0.225
Mof_O 	O 	0.96733	0.45227	0.06738	-0.246
_end
