data_functionalizedCrystal
_audit_creation_method	'EQeq! by Chris Wilmer'
_symmetry_space_group_name_H-M	'P1'
_symmetry_Int_Tables_number	1
_symmetry_cell_setting	triclinic
loop_
_symmetry_equiv_pos_as_xyz
  x,y,z
_cell_length_a	13.893
_cell_length_b	13.893
_cell_length_c	18.368
_cell_angle_alpha	90
_cell_angle_beta	90
_cell_angle_gamma	120
loop_
_atom_site_label
_atom_site_type_symbol
_atom_site_fract_x
_atom_site_fract_y
_atom_site_fract_z
_atom_site_charge
Mof_O 	O 	0.861	0.3499	0.3347	-0.753
Mof_C 	C 	0.9716	0.5713	0.4659	0.352
Mof_O 	O 	0.944	0.641	0.4422	-0.194
Mof_O 	O 	0.6501	0.5111	0.3347	-0.749
Mof_C 	C 	0.4287	0.4003	0.4659	0.164
Mof_O 	O 	0.359	0.303	0.4422	-0.216
Mof_O 	O 	0.4889	0.139	0.3347	-0.745
Mof_C 	C 	0.5997	0.0284	0.4659	-0.02
Mof_O 	O 	0.697	0.056	0.4422	-0.18
Mof_O 	O 	0.139	0.6501	0.8347	-0.745
Mof_C 	C 	0.0284	0.4287	0.9659	-0.022
Mof_O 	O 	0.056	0.359	0.9422	-0.201
Mof_O 	O 	0.3499	0.4889	0.8347	-0.748
Mof_C 	C 	0.5713	0.5997	0.9659	0.167
Mof_O 	O 	0.641	0.697	0.9422	-0.179
Mof_O 	O 	0.5111	0.861	0.8347	-0.753
Mof_C 	C 	0.4003	0.9716	0.9659	0.352
Mof_O 	O 	0.303	0.944	0.9422	-0.21
Mof_O 	O 	0.3499	0.861	0.6653	-0.752
Mof_C 	C 	0.5713	0.9716	0.5341	0.353
Mof_O 	O 	0.641	0.944	0.5578	-0.194
Mof_O 	O 	0.5111	0.6501	0.6653	-0.749
Mof_C 	C 	0.4003	0.4287	0.5341	0.164
Mof_O 	O 	0.303	0.359	0.5578	-0.216
Mof_O 	O 	0.139	0.4889	0.6653	-0.745
Mof_C 	C 	0.0284	0.5997	0.5341	-0.02
Mof_O 	O 	0.056	0.697	0.5578	-0.18
Mof_O 	O 	0.6501	0.139	0.1653	-0.745
Mof_C 	C 	0.4287	0.0284	0.0341	-0.022
Mof_O 	O 	0.359	0.056	0.0578	-0.201
Mof_O 	O 	0.4889	0.3499	0.1653	-0.748
Mof_C 	C 	0.5997	0.5713	0.0341	0.167
Mof_O 	O 	0.697	0.641	0.0578	-0.179
Mof_O 	O 	0.861	0.5111	0.1653	-0.753
Mof_C 	C 	0.9716	0.4003	0.0341	0.352
Mof_O 	O 	0.944	0.303	0.0578	-0.21
Mof_O 	O 	0.139	0.6501	0.6653	-0.745
Mof_C 	C 	0.0284	0.4287	0.5341	-0.024
Mof_O 	O 	0.056	0.359	0.5578	-0.201
Mof_O 	O 	0.3499	0.4889	0.6653	-0.748
Mof_C 	C 	0.5713	0.5997	0.5341	0.167
Mof_O 	O 	0.641	0.697	0.5578	-0.178
Mof_O 	O 	0.5111	0.861	0.6653	-0.753
Mof_C 	C 	0.4003	0.9716	0.5341	0.354
Mof_O 	O 	0.303	0.944	0.5578	-0.211
Mof_O 	O 	0.861	0.3499	0.1653	-0.752
Mof_C 	C 	0.9716	0.5713	0.0341	0.35
Mof_O 	O 	0.944	0.641	0.0578	-0.194
Mof_O 	O 	0.6501	0.5111	0.1653	-0.749
Mof_C 	C 	0.4287	0.4003	0.0341	0.164
Mof_O 	O 	0.359	0.303	0.0578	-0.216
Mof_O 	O 	0.4889	0.139	0.1653	-0.745
Mof_C 	C 	0.5997	0.0284	0.0341	-0.018
Mof_O 	O 	0.697	0.056	0.0578	-0.18
Mof_O 	O 	0.6501	0.139	0.3347	-0.745
Mof_C 	C 	0.4287	0.0284	0.4659	-0.024
Mof_O 	O 	0.359	0.056	0.4422	-0.201
Mof_O 	O 	0.4889	0.3499	0.3347	-0.748
Mof_C 	C 	0.5997	0.5713	0.4659	0.167
Mof_O 	O 	0.697	0.641	0.4422	-0.178
Mof_O 	O 	0.861	0.5111	0.3347	-0.753
Mof_C 	C 	0.9716	0.4003	0.4659	0.354
Mof_O 	O 	0.944	0.303	0.4422	-0.211
Mof_O 	O 	0.3499	0.861	0.8347	-0.752
Mof_C 	C 	0.5713	0.9716	0.9659	0.35
Mof_O 	O 	0.641	0.944	0.9422	-0.194
Mof_O 	O 	0.5111	0.6501	0.8347	-0.749
Mof_C 	C 	0.4003	0.4287	0.9659	0.164
Mof_O 	O 	0.303	0.359	0.9422	-0.216
Mof_O 	O 	0.139	0.4889	0.8347	-0.745
Mof_C 	C 	0.0284	0.5997	0.9659	-0.018
Mof_O 	O 	0.056	0.697	0.9422	-0.18
Mof_In	In	0.75152	0.24848	0.25	2.867
Mof_N 	N 	0.841	0.159	0.25	-0.441
Mof_In	In	0.75152	0.50304	0.25	2.893
Mof_N 	N 	0.841	0.682	0.25	-0.441
Mof_In	In	0.49696	0.24848	0.25	2.839
Mof_N 	N 	0.318	0.159	0.25	-0.442
Mof_In	In	0.24848	0.75152	0.75	2.867
Mof_N 	N 	0.159	0.841	0.75	-0.441
Mof_In	In	0.24848	0.49696	0.75	2.839
Mof_N 	N 	0.159	0.318	0.75	-0.442
Mof_In	In	0.50304	0.75152	0.75	2.893
Mof_N 	N 	0.682	0.841	0.75	-0.441
Mof_O 	O 	0.66667	0.33333	0.25	-1.456
Mof_O 	O 	0.33333	0.66667	0.75	-1.456
Mof_C 	C 	0.8854	0.4427	0.3616	0.698
Mof_C 	C 	0.9449	0.47245	0.4324	-0.363
Mof_C 	C 	0.5573	0.4427	0.3616	0.651
Mof_C 	C 	0.52755	0.47245	0.4324	-0.266
Mof_C 	C 	0.5573	0.1146	0.3616	0.605
Mof_C 	C 	0.52755	0.0551	0.4324	-0.168
Mof_C 	C 	0.1146	0.5573	0.8616	0.606
Mof_C 	C 	0.0551	0.52755	0.9324	-0.17
Mof_C 	C 	0.4427	0.5573	0.8616	0.651
Mof_C 	C 	0.47245	0.52755	0.9324	-0.266
Mof_C 	C 	0.4427	0.8854	0.8616	0.697
Mof_C 	C 	0.47245	0.9449	0.9324	-0.362
Mof_C 	C 	0.4427	0.8854	0.6384	0.698
Mof_C 	C 	0.47245	0.9449	0.5676	-0.363
Mof_C 	C 	0.4427	0.5573	0.6384	0.651
Mof_C 	C 	0.47245	0.52755	0.5676	-0.266
Mof_C 	C 	0.1146	0.5573	0.6384	0.605
Mof_C 	C 	0.0551	0.52755	0.5676	-0.168
Mof_C 	C 	0.5573	0.1146	0.1384	0.606
Mof_C 	C 	0.52755	0.0551	0.0676	-0.17
Mof_C 	C 	0.5573	0.4427	0.1384	0.651
Mof_C 	C 	0.52755	0.47245	0.0676	-0.266
Mof_C 	C 	0.8854	0.4427	0.1384	0.697
Mof_C 	C 	0.9449	0.47245	0.0676	-0.362
Mof_C 	C 	0.8737	0.1263	0.3033	0.191
Mof_H 	H 	0.8607	0.1393	0.3509	-0.05
Mof_N 	N 	0.9276	0.0724	0.2884	-0.246
Mof_C 	C 	0.8737	0.7474	0.3033	0.207
Mof_H 	H 	0.8607	0.7214	0.3509	-0.036
Mof_N 	N 	0.9276	0.8552	0.2884	-0.2
Mof_C 	C 	0.2526	0.1263	0.3033	0.173
Mof_H 	H 	0.2786	0.1393	0.3509	-0.068
Mof_N 	N 	0.1448	0.0724	0.2884	-0.3
Mof_C 	C 	0.1263	0.8737	0.8033	0.191
Mof_H 	H 	0.1393	0.8607	0.8509	-0.05
Mof_N 	N 	0.0724	0.9276	0.7884	-0.246
Mof_C 	C 	0.1263	0.2526	0.8033	0.173
Mof_H 	H 	0.1393	0.2786	0.8509	-0.067
Mof_N 	N 	0.0724	0.1448	0.7884	-0.3
Mof_C 	C 	0.7474	0.8737	0.8033	0.207
Mof_H 	H 	0.7214	0.8607	0.8509	-0.036
Mof_N 	N 	0.8552	0.9276	0.7884	-0.2
Mof_C 	C 	0.1263	0.8737	0.6967	0.191
Mof_H 	H 	0.1393	0.8607	0.6491	-0.05
Mof_N 	N 	0.0724	0.9276	0.7116	-0.246
Mof_C 	C 	0.7474	0.8737	0.6967	0.207
Mof_H 	H 	0.7214	0.8607	0.6491	-0.036
Mof_N 	N 	0.8552	0.9276	0.7116	-0.2
Mof_C 	C 	0.1263	0.2526	0.6967	0.173
Mof_H 	H 	0.1393	0.2786	0.6491	-0.068
Mof_N 	N 	0.0724	0.1448	0.7116	-0.3
Mof_C 	C 	0.8737	0.1263	0.1967	0.191
Mof_H 	H 	0.8607	0.1393	0.1491	-0.05
Mof_N 	N 	0.9276	0.0724	0.2116	-0.246
Mof_C 	C 	0.2526	0.1263	0.1967	0.173
Mof_H 	H 	0.2786	0.1393	0.1491	-0.067
Mof_N 	N 	0.1448	0.0724	0.2116	-0.3
Mof_C 	C 	0.8737	0.7474	0.1967	0.207
Mof_H 	H 	0.8607	0.7214	0.1491	-0.036
Mof_N 	N 	0.9276	0.8552	0.2116	-0.2
Mof_Co	Co	-4.11089e-33	-8.22178e-33	0.35323	0.941
Mof_Co	Co	-1.64436e-32	0	0.85323	0.942
Mof_Co	Co	-0	0	0.64677	0.941
Mof_Co	Co	-0	0	0.14677	0.942
_end
