data_functionalizedCrystal
_audit_creation_method	'EQeq! by Chris Wilmer'
_symmetry_space_group_name_H-M	'P1'
_symmetry_Int_Tables_number	1
_symmetry_cell_setting	triclinic
loop_
_symmetry_equiv_pos_as_xyz
  x,y,z
_cell_length_a	16.7667
_cell_length_b	16.7667
_cell_length_c	16.7667
_cell_angle_alpha	90
_cell_angle_beta	90
_cell_angle_gamma	90
loop_
_atom_site_label
_atom_site_type_symbol
_atom_site_fract_x
_atom_site_fract_y
_atom_site_fract_z
_atom_site_charge
Mof_O 	O 	0.09225	0.52284	0.1948	-0.61
Mof_O 	O 	0.59225	0.02284	0.6948	-0.622
Mof_O 	O 	0.90775	0.47716	0.1948	-0.392
Mof_O 	O 	0.40775	0.97716	0.6948	-0.32
Mof_O 	O 	0.90775	0.52284	0.8052	-0.358
Mof_O 	O 	0.40775	0.02284	0.3052	-0.662
Mof_O 	O 	0.09225	0.47716	0.8052	-0.572
Mof_O 	O 	0.59225	0.97716	0.3052	-0.329
Mof_O 	O 	0.1948	0.09225	0.52284	-0.609
Mof_O 	O 	0.6948	0.59225	0.02284	-0.621
Mof_O 	O 	0.1948	0.90775	0.47716	-0.391
Mof_O 	O 	0.6948	0.40775	0.97716	-0.32
Mof_O 	O 	0.8052	0.90775	0.52284	-0.358
Mof_O 	O 	0.3052	0.40775	0.02284	-0.662
Mof_O 	O 	0.8052	0.09225	0.47716	-0.572
Mof_O 	O 	0.3052	0.59225	0.97716	-0.329
Mof_O 	O 	0.52284	0.1948	0.09225	-0.609
Mof_O 	O 	0.02284	0.6948	0.59225	-0.621
Mof_O 	O 	0.47716	0.1948	0.90775	-0.391
Mof_O 	O 	0.97716	0.6948	0.40775	-0.32
Mof_O 	O 	0.52284	0.8052	0.90775	-0.358
Mof_O 	O 	0.02284	0.3052	0.40775	-0.662
Mof_O 	O 	0.47716	0.8052	0.09225	-0.572
Mof_O 	O 	0.97716	0.3052	0.59225	-0.329
Mof_O 	O 	0.52284	0.09225	0.1948	-0.609
Mof_O 	O 	0.02284	0.59225	0.6948	-0.621
Mof_O 	O 	0.47716	0.90775	0.1948	-0.391
Mof_O 	O 	0.97716	0.40775	0.6948	-0.32
Mof_O 	O 	0.52284	0.90775	0.8052	-0.358
Mof_O 	O 	0.02284	0.40775	0.3052	-0.662
Mof_O 	O 	0.47716	0.09225	0.8052	-0.572
Mof_O 	O 	0.97716	0.59225	0.3052	-0.329
Mof_O 	O 	0.09225	0.1948	0.52284	-0.609
Mof_O 	O 	0.59225	0.6948	0.02284	-0.621
Mof_O 	O 	0.90775	0.1948	0.47716	-0.391
Mof_O 	O 	0.40775	0.6948	0.97716	-0.32
Mof_O 	O 	0.90775	0.8052	0.52284	-0.358
Mof_O 	O 	0.40775	0.3052	0.02284	-0.662
Mof_O 	O 	0.09225	0.8052	0.47716	-0.572
Mof_O 	O 	0.59225	0.3052	0.97716	-0.329
Mof_O 	O 	0.1948	0.52284	0.09225	-0.609
Mof_O 	O 	0.6948	0.02284	0.59225	-0.621
Mof_O 	O 	0.1948	0.47716	0.90775	-0.391
Mof_O 	O 	0.6948	0.97716	0.40775	-0.32
Mof_O 	O 	0.8052	0.52284	0.90775	-0.358
Mof_O 	O 	0.3052	0.02284	0.40775	-0.662
Mof_O 	O 	0.8052	0.47716	0.09225	-0.572
Mof_O 	O 	0.3052	0.97716	0.59225	-0.329
Mof_Mg	Mg	-1.74045e-33	0.5	0.25	1.453
Mof_Mg	Mg	8.16764e-33	0.5	0.75	1.454
Mof_Mg	Mg	0.5	0	0.25	1.453
Mof_Mg	Mg	0.25	0	0.5	1.453
Mof_Mg	Mg	0.75	0	0.5	1.454
Mof_Mg	Mg	0.25	0.5	-0	1.453
Mof_Mg	Mg	0.5	0.25	-0	1.453
Mof_Mg	Mg	0.5	0.75	-0	1.454
Mof_Mg	Mg	-3.48089e-33	0.25	0.5	1.453
Mof_Mg	Mg	0.5	0	0.75	1.454
Mof_Mg	Mg	7.23029e-33	0.75	0.5	1.454
Mof_Mg	Mg	0.75	0.5	-0	1.454
Mof_Mg	Mg	-0	0.5	-0	1.432
Mof_Mg	Mg	0.5	0	0.5	1.462
Mof_Mg	Mg	1.8747e-33	0	0.5	1.432
Mof_Mg	Mg	0.5	0.5	-0	1.462
Mof_Mg	Mg	0.5	0	-0	1.432
Mof_Mg	Mg	1.8747e-33	0.5	0.5	1.462
Mof_P 	P 	0.12193	0.5689	0.12193	0.61
Mof_O 	O 	0.14294	0.6538	0.14294	-0.312
Mof_O 	O 	0.0571	0.5658	0.0571	-0.817
Mof_P 	P 	0.62193	0.0689	0.62193	0.618
Mof_O 	O 	0.64294	0.1538	0.64294	-0.202
Mof_O 	O 	0.5571	0.0658	0.5571	-0.663
Mof_P 	P 	0.87807	0.4311	0.12193	0.609
Mof_O 	O 	0.85706	0.3462	0.14294	-0.219
Mof_O 	O 	0.9429	0.4342	0.0571	-0.541
Mof_P 	P 	0.37807	0.9311	0.62193	0.603
Mof_O 	O 	0.35706	0.8462	0.64294	-0.163
Mof_O 	O 	0.4429	0.9342	0.5571	-0.417
Mof_P 	P 	0.87807	0.5689	0.87807	0.608
Mof_O 	O 	0.85706	0.6538	0.85706	-0.032
Mof_O 	O 	0.9429	0.5658	0.9429	-0.233
Mof_P 	P 	0.37807	0.0689	0.37807	0.616
Mof_O 	O 	0.35706	0.1538	0.35706	-0.255
Mof_O 	O 	0.4429	0.0658	0.4429	-0.665
Mof_P 	P 	0.12193	0.4311	0.87807	0.609
Mof_O 	O 	0.14294	0.3462	0.85706	-0.219
Mof_O 	O 	0.0571	0.4342	0.9429	-0.541
Mof_P 	P 	0.62193	0.9311	0.37807	0.603
Mof_O 	O 	0.64294	0.8462	0.35706	-0.163
Mof_O 	O 	0.5571	0.9342	0.4429	-0.417
Mof_P 	P 	0.12193	0.12193	0.5689	0.61
Mof_O 	O 	0.14294	0.14294	0.6538	-0.312
Mof_O 	O 	0.0571	0.0571	0.5658	-0.817
Mof_P 	P 	0.62193	0.62193	0.0689	0.618
Mof_O 	O 	0.64294	0.64294	0.1538	-0.202
Mof_O 	O 	0.5571	0.5571	0.0658	-0.663
Mof_P 	P 	0.12193	0.87807	0.4311	0.609
Mof_O 	O 	0.14294	0.85706	0.3462	-0.219
Mof_O 	O 	0.0571	0.9429	0.4342	-0.541
Mof_P 	P 	0.62193	0.37807	0.9311	0.603
Mof_O 	O 	0.64294	0.35706	0.8462	-0.163
Mof_O 	O 	0.5571	0.4429	0.9342	-0.417
Mof_P 	P 	0.87807	0.87807	0.5689	0.608
Mof_O 	O 	0.85706	0.85706	0.6538	-0.032
Mof_O 	O 	0.9429	0.9429	0.5658	-0.233
Mof_P 	P 	0.37807	0.37807	0.0689	0.616
Mof_O 	O 	0.35706	0.35706	0.1538	-0.255
Mof_O 	O 	0.4429	0.4429	0.0658	-0.665
Mof_P 	P 	0.87807	0.12193	0.4311	0.609
Mof_O 	O 	0.85706	0.14294	0.3462	-0.219
Mof_O 	O 	0.9429	0.0571	0.4342	-0.541
Mof_P 	P 	0.37807	0.62193	0.9311	0.603
Mof_O 	O 	0.35706	0.64294	0.8462	-0.163
Mof_O 	O 	0.4429	0.5571	0.9342	-0.417
Mof_P 	P 	0.5689	0.12193	0.12193	0.61
Mof_O 	O 	0.6538	0.14294	0.14294	-0.312
Mof_O 	O 	0.5658	0.0571	0.0571	-0.817
Mof_P 	P 	0.0689	0.62193	0.62193	0.618
Mof_O 	O 	0.1538	0.64294	0.64294	-0.202
Mof_O 	O 	0.0658	0.5571	0.5571	-0.663
Mof_P 	P 	0.4311	0.12193	0.87807	0.609
Mof_O 	O 	0.3462	0.14294	0.85706	-0.219
Mof_O 	O 	0.4342	0.0571	0.9429	-0.541
Mof_P 	P 	0.9311	0.62193	0.37807	0.603
Mof_O 	O 	0.8462	0.64294	0.35706	-0.163
Mof_O 	O 	0.9342	0.5571	0.4429	-0.417
Mof_P 	P 	0.5689	0.87807	0.87807	0.608
Mof_O 	O 	0.6538	0.85706	0.85706	-0.032
Mof_O 	O 	0.5658	0.9429	0.9429	-0.233
Mof_P 	P 	0.0689	0.37807	0.37807	0.616
Mof_O 	O 	0.1538	0.35706	0.35706	-0.255
Mof_O 	O 	0.0658	0.4429	0.4429	-0.665
Mof_P 	P 	0.4311	0.87807	0.12193	0.609
Mof_O 	O 	0.3462	0.85706	0.14294	-0.219
Mof_O 	O 	0.4342	0.9429	0.0571	-0.541
Mof_P 	P 	0.9311	0.37807	0.62193	0.603
Mof_O 	O 	0.8462	0.35706	0.64294	-0.163
Mof_O 	O 	0.9342	0.4429	0.5571	-0.417
_end
