data_functionalizedCrystal
_audit_creation_method	'EQeq! by Chris Wilmer'
_symmetry_space_group_name_H-M	'P1'
_symmetry_Int_Tables_number	1
_symmetry_cell_setting	triclinic
loop_
_symmetry_equiv_pos_as_xyz
  x,y,z
_cell_length_a	27.644
_cell_length_b	16.017
_cell_length_c	22.902
_cell_angle_alpha	90
_cell_angle_beta	90
_cell_angle_gamma	90
loop_
_atom_site_label
_atom_site_type_symbol
_atom_site_fract_x
_atom_site_fract_y
_atom_site_fract_z
_atom_site_charge
Mof_P 	P 	0.99126	0.18806	0.26247	0.57
Mof_P 	P 	0.86867	0.7809	0.34351	0.57
Mof_P 	P 	0.13316	0.79691	0.33476	0.58
Mof_P 	P 	0.9979	0.93374	0.34007	0.62
Mof_O 	O 	0.89618	0.0245	0.32978	-0.532
Mof_O 	O 	0.93999	0.0327	0.44436	-0.649
Mof_O 	O 	0.00193	0.7397	0.391	-0.506
Mof_O 	O 	0.09734	0.0369	0.32308	-0.534
Mof_O 	O 	0.05796	0.0401	0.43997	-0.649
Mof_O 	O 	0.9015	0.8759	0.4659	-0.494
Mof_O 	O 	0.99738	0.0287	0.34688	-0.443
Mof_O 	O 	0.00206	0.8727	0.47609	-0.66
Mof_O 	O 	0.90399	0.7451	0.38802	-0.4
Mof_O 	O 	0.10107	0.8877	0.45839	-0.493
Mof_O 	O 	0.89384	0.7802	0.28157	-0.194
Mof_O 	O 	0.9937	0.9174	0.27386	-0.167
Mof_O 	O 	0.0976	0.7574	0.37778	-0.397
Mof_O 	O 	0.10994	0.7976	0.2723	-0.199
Mof_O 	O 	0.85739	0.8731	0.35539	-0.42
Mof_O 	O 	0.14463	0.8881	0.35071	-0.424
Mof_O 	O 	0.99562	0.1678	0.40101	-0.464
Mof_O 	O 	0.04458	0.8992	0.36594	-0.42
Mof_O 	O 	0.98103	0.2797	0.2562	-0.182
Mof_O 	O 	0.948	0.1491	0.29323	-0.379
Mof_O 	O 	0.17781	0.7448	0.33132	-0.449
Mof_O 	O 	0.82329	0.7293	0.34113	-0.434
Mof_O 	O 	0.03942	0.1689	0.29184	-0.386
Mof_O 	O 	0.95471	0.8953	0.37216	-0.423
Mof_O 	O 	0.99287	0.1468	0.2002	-0.168
Mof_Mo	Mo	0.04938	0.79852	0.43815	1.157
Mof_Mo	Mo	0.10986	0.98202	0.39657	1.216
Mof_Mo	Mo	0.06009	0.11389	0.37014	1.107
Mof_Mo	Mo	0.93293	0.10497	0.37437	1.158
Mof_Mo	Mo	0.88906	0.96858	0.4037	1.205
Mof_Mo	Mo	0.95568	0.7922	0.44271	1.205
Mof_C 	C 	0.7774	0.6977	0.2183	0.045
Mof_H 	H 	0.797	0.6606	0.2386	0.002
Mof_C 	C 	0.7782	0.696	0.1575	-0.088
Mof_H 	H 	0.7979	0.658	0.1382	0.02
Mof_C 	C 	0.7844	0.7117	0.9693	0.131
Mof_H 	H 	0.8089	0.6843	0.949	-0.044
Mof_C 	C 	0.7859	0.7102	0.029	-0.215
Mof_H 	H 	0.8109	0.6826	0.0482	0.056
Mof_C 	C 	0.2173	0.7077	0.2088	0.038
Mof_H 	H 	0.1938	0.6781	0.2292	0.009
Mof_C 	C 	0.2165	0.7057	0.1481	-0.077
Mof_H 	H 	0.1933	0.6741	0.1288	0.013
Mof_C 	C 	0.2124	0.7239	0.9597	0.129
Mof_H 	H 	0.1851	0.7065	0.9391	-0.033
Mof_C 	C 	0.2109	0.7208	0.02	-0.216
Mof_H 	H 	0.1839	0.6993	0.039	0.057
Mof_P 	P 	0.50874	0.31194	0.26247	0.553
Mof_P 	P 	0.63133	0.7191	0.34351	0.567
Mof_P 	P 	0.36684	0.70309	0.33476	0.577
Mof_P 	P 	0.5021	0.56626	0.34007	0.583
Mof_O 	O 	0.60382	0.4755	0.32978	-0.507
Mof_O 	O 	0.56001	0.4673	0.44436	-0.633
Mof_O 	O 	0.49807	0.7603	0.391	-0.487
Mof_O 	O 	0.40266	0.4631	0.32308	-0.505
Mof_O 	O 	0.44204	0.4599	0.43997	-0.621
Mof_O 	O 	0.5985	0.6241	0.4659	-0.489
Mof_O 	O 	0.50262	0.4713	0.34688	-0.437
Mof_O 	O 	0.49794	0.6273	0.47609	-0.651
Mof_O 	O 	0.59601	0.7549	0.38802	-0.396
Mof_O 	O 	0.39893	0.6123	0.45839	-0.491
Mof_O 	O 	0.60616	0.7198	0.28157	-0.199
Mof_O 	O 	0.5063	0.5826	0.27386	-0.183
Mof_O 	O 	0.4024	0.7426	0.37778	-0.395
Mof_O 	O 	0.39006	0.7024	0.2723	-0.2
Mof_O 	O 	0.64261	0.6269	0.35539	-0.418
Mof_O 	O 	0.35537	0.6119	0.35071	-0.422
Mof_O 	O 	0.50438	0.3322	0.40101	-0.486
Mof_O 	O 	0.45542	0.6008	0.36594	-0.408
Mof_O 	O 	0.51897	0.2203	0.2562	-0.193
Mof_O 	O 	0.552	0.3509	0.29323	-0.379
Mof_O 	O 	0.32219	0.7552	0.33132	-0.447
Mof_O 	O 	0.67671	0.7707	0.34113	-0.432
Mof_O 	O 	0.46058	0.3311	0.29184	-0.37
Mof_O 	O 	0.54529	0.6047	0.37216	-0.422
Mof_O 	O 	0.50713	0.3532	0.2002	-0.169
Mof_Mo	Mo	0.45062	0.70148	0.43815	1.171
Mof_Mo	Mo	0.39014	0.51798	0.39657	1.134
Mof_Mo	Mo	0.43991	0.38611	0.37014	1.149
Mof_Mo	Mo	0.56707	0.39503	0.37437	1.166
Mof_Mo	Mo	0.61094	0.53142	0.4037	1.14
Mof_Mo	Mo	0.54432	0.7078	0.44271	1.164
Mof_C 	C 	0.7226	0.8023	0.2183	0.047
Mof_H 	H 	0.703	0.8394	0.2386	0.005
Mof_C 	C 	0.7218	0.804	0.1575	-0.088
Mof_H 	H 	0.7021	0.842	0.1382	0.025
Mof_C 	C 	0.7156	0.7883	0.9693	0.132
Mof_H 	H 	0.6911	0.8157	0.949	-0.044
Mof_C 	C 	0.7141	0.7898	0.029	-0.214
Mof_H 	H 	0.6891	0.8174	0.0482	0.058
Mof_C 	C 	0.2827	0.7923	0.2088	0.039
Mof_H 	H 	0.3062	0.8219	0.2292	0.012
Mof_C 	C 	0.2835	0.7943	0.1481	-0.077
Mof_H 	H 	0.3067	0.8259	0.1288	0.016
Mof_C 	C 	0.2876	0.7761	0.9597	0.129
Mof_H 	H 	0.3149	0.7935	0.9391	-0.033
Mof_C 	C 	0.2891	0.7792	0.02	-0.215
Mof_H 	H 	0.3161	0.8007	0.039	0.059
Mof_P 	P 	0.00874	0.68806	0.23753	0.538
Mof_P 	P 	0.13133	0.2809	0.15649	0.564
Mof_P 	P 	0.86684	0.29691	0.16524	0.577
Mof_P 	P 	0.0021	0.43374	0.15993	0.564
Mof_O 	O 	0.10382	0.5245	0.17022	-0.505
Mof_O 	O 	0.06001	0.5327	0.05564	-0.642
Mof_O 	O 	0.99807	0.2397	0.109	-0.47
Mof_O 	O 	0.90266	0.5369	0.17692	-0.503
Mof_O 	O 	0.94204	0.5401	0.06003	-0.622
Mof_O 	O 	0.0985	0.3759	0.0341	-0.493
Mof_O 	O 	0.00262	0.5287	0.15312	-0.445
Mof_O 	O 	0.99794	0.3727	0.02391	-0.634
Mof_O 	O 	0.09601	0.2451	0.11198	-0.4
Mof_O 	O 	0.89893	0.3877	0.04161	-0.499
Mof_O 	O 	0.10616	0.2802	0.21843	-0.203
Mof_O 	O 	0.0063	0.4174	0.22614	-0.19
Mof_O 	O 	0.9024	0.2574	0.12222	-0.401
Mof_O 	O 	0.89006	0.2976	0.2277	-0.198
Mof_O 	O 	0.14261	0.3731	0.14461	-0.418
Mof_O 	O 	0.85537	0.3881	0.14929	-0.421
Mof_O 	O 	0.00438	0.6678	0.09899	-0.503
Mof_O 	O 	0.95542	0.3992	0.13406	-0.391
Mof_O 	O 	0.01897	0.7797	0.2438	-0.196
Mof_O 	O 	0.052	0.6491	0.20677	-0.377
Mof_O 	O 	0.82219	0.2448	0.16868	-0.453
Mof_O 	O 	0.17671	0.2293	0.15887	-0.44
Mof_O 	O 	0.96058	0.6689	0.20816	-0.354
Mof_O 	O 	0.04529	0.3953	0.12784	-0.418
Mof_O 	O 	0.00713	0.6468	0.2998	-0.173
Mof_Mo	Mo	0.95062	0.29852	0.06185	1.164
Mof_Mo	Mo	0.89014	0.48202	0.10343	1.124
Mof_Mo	Mo	0.93991	0.61389	0.12986	1.174
Mof_Mo	Mo	0.06707	0.60497	0.12563	1.162
Mof_Mo	Mo	0.11094	0.46858	0.0963	1.13
Mof_Mo	Mo	0.04432	0.2922	0.05729	1.09
Mof_C 	C 	0.2226	0.1977	0.2817	0.054
Mof_H 	H 	0.203	0.1606	0.2614	-0.006
Mof_C 	C 	0.2218	0.196	0.3425	-0.109
Mof_H 	H 	0.2021	0.158	0.3618	0.025
Mof_C 	C 	0.2156	0.2117	0.5307	0.054
Mof_H 	H 	0.1911	0.1843	0.551	-0.024
Mof_C 	C 	0.2141	0.2102	0.471	-0.128
Mof_H 	H 	0.1891	0.1826	0.4518	0.028
Mof_C 	C 	0.7827	0.2077	0.2912	0.046
Mof_H 	H 	0.8062	0.1781	0.2708	0.003
Mof_C 	C 	0.7835	0.2057	0.3519	-0.099
Mof_H 	H 	0.8067	0.1741	0.3712	0.019
Mof_C 	C 	0.7876	0.2239	0.5403	0.052
Mof_H 	H 	0.8149	0.2065	0.5609	-0.013
Mof_C 	C 	0.7891	0.2208	0.48	-0.129
Mof_H 	H 	0.8161	0.1993	0.461	0.031
Mof_P 	P 	0.49126	0.81194	0.23753	0.553
Mof_P 	P 	0.36867	0.2191	0.15649	0.564
Mof_P 	P 	0.63316	0.20309	0.16524	0.575
Mof_P 	P 	0.4979	0.06626	0.15993	0.557
Mof_O 	O 	0.39618	0.9755	0.17022	-0.477
Mof_O 	O 	0.43999	0.9673	0.05564	-0.611
Mof_O 	O 	0.50193	0.2603	0.109	-0.487
Mof_O 	O 	0.59734	0.9631	0.17692	-0.477
Mof_O 	O 	0.55796	0.9599	0.06003	-0.601
Mof_O 	O 	0.4015	0.1241	0.0341	-0.494
Mof_O 	O 	0.49738	0.9713	0.15312	-0.416
Mof_O 	O 	0.50206	0.1273	0.02391	-0.658
Mof_O 	O 	0.40399	0.2549	0.11198	-0.398
Mof_O 	O 	0.60107	0.1123	0.04161	-0.496
Mof_O 	O 	0.39384	0.2198	0.21843	-0.201
Mof_O 	O 	0.4937	0.0826	0.22614	-0.189
Mof_O 	O 	0.5976	0.2426	0.12222	-0.397
Mof_O 	O 	0.60994	0.2024	0.2277	-0.203
Mof_O 	O 	0.35739	0.1269	0.14461	-0.416
Mof_O 	O 	0.64463	0.1119	0.14929	-0.419
Mof_O 	O 	0.49562	0.8322	0.09899	-0.494
Mof_O 	O 	0.54458	0.1008	0.13406	-0.403
Mof_O 	O 	0.48103	0.7203	0.2438	-0.192
Mof_O 	O 	0.448	0.8509	0.20677	-0.378
Mof_O 	O 	0.67781	0.2552	0.16868	-0.451
Mof_O 	O 	0.32329	0.2707	0.15887	-0.436
Mof_O 	O 	0.53942	0.8311	0.20816	-0.37
Mof_O 	O 	0.45471	0.1047	0.12784	-0.416
Mof_O 	O 	0.49287	0.8532	0.2998	-0.161
Mof_Mo	Mo	0.54938	0.20148	0.06185	1.153
Mof_Mo	Mo	0.60986	0.01798	0.10343	1.052
Mof_Mo	Mo	0.56009	0.88611	0.12986	1.158
Mof_Mo	Mo	0.43293	0.89503	0.12563	1.176
Mof_Mo	Mo	0.38906	0.03142	0.0963	1.055
Mof_Mo	Mo	0.45568	0.2078	0.05729	1.146
Mof_C 	C 	0.2774	0.3023	0.2817	0.055
Mof_H 	H 	0.297	0.3394	0.2614	-0.002
Mof_C 	C 	0.2782	0.304	0.3425	-0.108
Mof_H 	H 	0.2979	0.342	0.3618	0.029
Mof_C 	C 	0.2844	0.2883	0.5307	0.056
Mof_H 	H 	0.3089	0.3157	0.551	-0.024
Mof_C 	C 	0.2859	0.2898	0.471	-0.129
Mof_H 	H 	0.3109	0.3174	0.4518	0.03
Mof_C 	C 	0.7173	0.2923	0.2912	0.047
Mof_H 	H 	0.6938	0.3219	0.2708	0.006
Mof_C 	C 	0.7165	0.2943	0.3519	-0.098
Mof_H 	H 	0.6933	0.3259	0.3712	0.022
Mof_C 	C 	0.7124	0.2761	0.5403	0.053
Mof_H 	H 	0.6851	0.2935	0.5609	-0.013
Mof_C 	C 	0.7109	0.2792	0.48	-0.129
Mof_H 	H 	0.6839	0.3007	0.461	0.032
Mof_P 	P 	0.00874	0.81194	0.73753	0.54
Mof_P 	P 	0.13133	0.2191	0.65649	0.564
Mof_P 	P 	0.86684	0.20309	0.66524	0.576
Mof_P 	P 	0.0021	0.06626	0.65993	0.54
Mof_O 	O 	0.10382	0.9755	0.67022	-0.479
Mof_O 	O 	0.06001	0.9673	0.55564	-0.608
Mof_O 	O 	0.99807	0.2603	0.609	-0.469
Mof_O 	O 	0.90266	0.9631	0.67692	-0.482
Mof_O 	O 	0.94204	0.9599	0.56003	-0.593
Mof_O 	O 	0.0985	0.1241	0.5341	-0.482
Mof_O 	O 	0.00262	0.9713	0.65312	-0.425
Mof_O 	O 	0.99794	0.1273	0.52391	-0.63
Mof_O 	O 	0.09601	0.2549	0.61198	-0.395
Mof_O 	O 	0.89893	0.1123	0.54161	-0.49
Mof_O 	O 	0.10616	0.2198	0.71843	-0.204
Mof_O 	O 	0.0063	0.0826	0.72614	-0.196
Mof_O 	O 	0.9024	0.2426	0.62222	-0.397
Mof_O 	O 	0.89006	0.2024	0.7277	-0.2
Mof_O 	O 	0.14261	0.1269	0.64461	-0.415
Mof_O 	O 	0.85537	0.1119	0.64929	-0.419
Mof_O 	O 	0.00438	0.8322	0.59899	-0.501
Mof_O 	O 	0.95542	0.1008	0.63406	-0.391
Mof_O 	O 	0.01897	0.7203	0.7438	-0.198
Mof_O 	O 	0.052	0.8509	0.70677	-0.377
Mof_O 	O 	0.82219	0.2552	0.66868	-0.449
Mof_O 	O 	0.17671	0.2707	0.65887	-0.435
Mof_O 	O 	0.96058	0.8311	0.70816	-0.356
Mof_O 	O 	0.04529	0.1047	0.62784	-0.418
Mof_O 	O 	0.00713	0.8532	0.7998	-0.165
Mof_Mo	Mo	0.95062	0.20148	0.56185	1.179
Mof_Mo	Mo	0.89014	0.01798	0.60343	1.069
Mof_Mo	Mo	0.93991	0.88611	0.62986	1.186
Mof_Mo	Mo	0.06707	0.89503	0.62563	1.18
Mof_Mo	Mo	0.11094	0.03142	0.5963	1.067
Mof_Mo	Mo	0.04432	0.2078	0.55729	1.107
Mof_C 	C 	0.2226	0.3023	0.7817	0.068
Mof_H 	H 	0.203	0.3394	0.7614	-0.006
Mof_C 	C 	0.2218	0.304	0.8425	-0.132
Mof_H 	H 	0.2021	0.342	0.8618	0.041
Mof_C 	C 	0.2156	0.2883	0.0307	-0.029
Mof_H 	H 	0.1911	0.3157	0.051	0
Mof_C 	C 	0.2141	0.2898	0.971	-0.026
Mof_H 	H 	0.1891	0.3174	0.9518	0.002
Mof_C 	C 	0.7827	0.2923	0.7912	0.06
Mof_H 	H 	0.8062	0.3219	0.7708	0.002
Mof_C 	C 	0.7835	0.2943	0.8519	-0.12
Mof_H 	H 	0.8067	0.3259	0.8712	0.033
Mof_C 	C 	0.7876	0.2761	0.0403	-0.026
Mof_H 	H 	0.8149	0.2935	0.0609	0.009
Mof_C 	C 	0.7891	0.2792	0.98	-0.034
Mof_H 	H 	0.8161	0.3007	0.961	0.006
Mof_P 	P 	0.49126	0.68806	0.73753	0.553
Mof_P 	P 	0.36867	0.2809	0.65649	0.566
Mof_P 	P 	0.63316	0.29691	0.66524	0.577
Mof_P 	P 	0.4979	0.43374	0.65993	0.583
Mof_O 	O 	0.39618	0.5245	0.67022	-0.507
Mof_O 	O 	0.43999	0.5327	0.55564	-0.633
Mof_O 	O 	0.50193	0.2397	0.609	-0.49
Mof_O 	O 	0.59734	0.5369	0.67692	-0.505
Mof_O 	O 	0.55796	0.5401	0.56003	-0.622
Mof_O 	O 	0.4015	0.3759	0.5341	-0.489
Mof_O 	O 	0.49738	0.5287	0.65312	-0.438
Mof_O 	O 	0.50206	0.3727	0.52391	-0.65
Mof_O 	O 	0.40399	0.2451	0.61198	-0.4
Mof_O 	O 	0.60107	0.3877	0.54161	-0.491
Mof_O 	O 	0.39384	0.2802	0.71843	-0.199
Mof_O 	O 	0.4937	0.4174	0.72614	-0.18
Mof_O 	O 	0.5976	0.2574	0.62222	-0.399
Mof_O 	O 	0.60994	0.2976	0.7277	-0.199
Mof_O 	O 	0.35739	0.3731	0.64461	-0.417
Mof_O 	O 	0.64463	0.3881	0.64929	-0.421
Mof_O 	O 	0.49562	0.6678	0.59899	-0.483
Mof_O 	O 	0.54458	0.3992	0.63406	-0.407
Mof_O 	O 	0.48103	0.7797	0.7438	-0.188
Mof_O 	O 	0.448	0.6491	0.70677	-0.377
Mof_O 	O 	0.67781	0.2448	0.66868	-0.451
Mof_O 	O 	0.32329	0.2293	0.65887	-0.437
Mof_O 	O 	0.53942	0.6689	0.70816	-0.368
Mof_O 	O 	0.45471	0.3953	0.62784	-0.421
Mof_O 	O 	0.49287	0.6468	0.7998	-0.165
Mof_Mo	Mo	0.54938	0.29852	0.56185	1.163
Mof_Mo	Mo	0.60986	0.48202	0.60343	1.135
Mof_Mo	Mo	0.56009	0.61389	0.62986	1.154
Mof_Mo	Mo	0.43293	0.60497	0.62563	1.17
Mof_Mo	Mo	0.38906	0.46858	0.5963	1.14
Mof_Mo	Mo	0.45568	0.2922	0.55729	1.155
Mof_C 	C 	0.2774	0.1977	0.7817	0.067
Mof_H 	H 	0.297	0.1606	0.7614	-0.009
Mof_C 	C 	0.2782	0.196	0.8425	-0.132
Mof_H 	H 	0.2979	0.158	0.8618	0.036
Mof_C 	C 	0.2844	0.2117	0.0307	-0.031
Mof_H 	H 	0.3089	0.1843	0.051	-0
Mof_C 	C 	0.2859	0.2102	0.971	-0.025
Mof_H 	H 	0.3109	0.1826	0.9518	-0
Mof_C 	C 	0.7173	0.2077	0.7912	0.059
Mof_H 	H 	0.6938	0.1781	0.7708	-0
Mof_C 	C 	0.7165	0.2057	0.8519	-0.121
Mof_H 	H 	0.6933	0.1741	0.8712	0.03
Mof_C 	C 	0.7124	0.2239	0.0403	-0.028
Mof_H 	H 	0.6851	0.2065	0.0609	0.01
Mof_C 	C 	0.7109	0.2208	0.98	-0.033
Mof_H 	H 	0.6839	0.1993	0.961	0.005
Mof_P 	P 	0.99126	0.31194	0.76247	0.568
Mof_P 	P 	0.86867	0.7191	0.84351	0.568
Mof_P 	P 	0.13316	0.70309	0.83476	0.578
Mof_P 	P 	0.9979	0.56626	0.84007	0.6
Mof_O 	O 	0.89618	0.4755	0.82978	-0.509
Mof_O 	O 	0.93999	0.4673	0.94436	-0.619
Mof_O 	O 	0.00193	0.7603	0.891	-0.504
Mof_O 	O 	0.09734	0.4631	0.82308	-0.507
Mof_O 	O 	0.05796	0.4599	0.93997	-0.614
Mof_O 	O 	0.9015	0.6241	0.9659	-0.484
Mof_O 	O 	0.99738	0.4713	0.84688	-0.429
Mof_O 	O 	0.00206	0.6273	0.97609	-0.657
Mof_O 	O 	0.90399	0.7549	0.88802	-0.396
Mof_O 	O 	0.10107	0.6123	0.95839	-0.482
Mof_O 	O 	0.89384	0.7198	0.78157	-0.195
Mof_O 	O 	0.9937	0.5826	0.77386	-0.174
Mof_O 	O 	0.0976	0.7426	0.87778	-0.393
Mof_O 	O 	0.10994	0.7024	0.7723	-0.201
Mof_O 	O 	0.85739	0.6269	0.85539	-0.418
Mof_O 	O 	0.14463	0.6119	0.85071	-0.421
Mof_O 	O 	0.99562	0.3322	0.90101	-0.464
Mof_O 	O 	0.04458	0.6008	0.86594	-0.421
Mof_O 	O 	0.98103	0.2203	0.7562	-0.183
Mof_O 	O 	0.948	0.3509	0.79323	-0.379
Mof_O 	O 	0.17781	0.7552	0.83132	-0.446
Mof_O 	O 	0.82329	0.7707	0.84113	-0.43
Mof_O 	O 	0.03942	0.3311	0.79184	-0.385
Mof_O 	O 	0.95471	0.6047	0.87216	-0.424
Mof_O 	O 	0.99287	0.3532	0.7002	-0.161
Mof_Mo	Mo	0.04938	0.70148	0.93815	1.173
Mof_Mo	Mo	0.10986	0.51798	0.89657	1.146
Mof_Mo	Mo	0.06009	0.38611	0.87014	1.13
Mof_Mo	Mo	0.93293	0.39503	0.87437	1.176
Mof_Mo	Mo	0.88906	0.53142	0.9037	1.149
Mof_Mo	Mo	0.95568	0.7078	0.94271	1.217
Mof_C 	C 	0.7774	0.8023	0.7183	0.057
Mof_H 	H 	0.797	0.8394	0.7386	0.002
Mof_C 	C 	0.7782	0.804	0.6575	-0.107
Mof_H 	H 	0.7979	0.842	0.6382	0.033
Mof_C 	C 	0.7844	0.7883	0.4693	0.061
Mof_H 	H 	0.8089	0.8157	0.449	-0.024
Mof_C 	C 	0.7859	0.7898	0.529	-0.129
Mof_H 	H 	0.8109	0.8174	0.5482	0.034
Mof_C 	C 	0.2173	0.7923	0.7088	0.05
Mof_H 	H 	0.1938	0.8219	0.7292	0.008
Mof_C 	C 	0.2165	0.7943	0.6481	-0.097
Mof_H 	H 	0.1933	0.8259	0.6288	0.026
Mof_C 	C 	0.2124	0.7761	0.4597	0.057
Mof_H 	H 	0.1851	0.7935	0.4391	-0.013
Mof_C 	C 	0.2109	0.7792	0.52	-0.129
Mof_H 	H 	0.1839	0.8007	0.539	0.035
Mof_P 	P 	0.50874	0.18806	0.76247	0.553
Mof_P 	P 	0.63133	0.7809	0.84351	0.568
Mof_P 	P 	0.36684	0.79691	0.83476	0.58
Mof_P 	P 	0.5021	0.93374	0.84007	0.605
Mof_O 	O 	0.60382	0.0245	0.82978	-0.531
Mof_O 	O 	0.56001	0.0327	0.94436	-0.641
Mof_O 	O 	0.49807	0.7397	0.891	-0.49
Mof_O 	O 	0.40266	0.0369	0.82308	-0.53
Mof_O 	O 	0.44204	0.0401	0.93997	-0.63
Mof_O 	O 	0.5985	0.8759	0.9659	-0.483
Mof_O 	O 	0.50262	0.0287	0.84688	-0.455
Mof_O 	O 	0.49794	0.8727	0.97609	-0.637
Mof_O 	O 	0.59601	0.7451	0.88802	-0.397
Mof_O 	O 	0.39893	0.8877	0.95839	-0.486
Mof_O 	O 	0.60616	0.7802	0.78157	-0.196
Mof_O 	O 	0.5063	0.9174	0.77386	-0.175
Mof_O 	O 	0.4024	0.7574	0.87778	-0.397
Mof_O 	O 	0.39006	0.7976	0.7723	-0.197
Mof_O 	O 	0.64261	0.8731	0.85539	-0.419
Mof_O 	O 	0.35537	0.8881	0.85071	-0.422
Mof_O 	O 	0.50438	0.1678	0.90101	-0.474
Mof_O 	O 	0.45542	0.8992	0.86594	-0.41
Mof_O 	O 	0.51897	0.2797	0.7562	-0.189
Mof_O 	O 	0.552	0.1491	0.79323	-0.379
Mof_O 	O 	0.32219	0.7448	0.83132	-0.447
Mof_O 	O 	0.67671	0.7293	0.84113	-0.432
Mof_O 	O 	0.46058	0.1689	0.79184	-0.369
Mof_O 	O 	0.54529	0.8953	0.87216	-0.425
Mof_O 	O 	0.50713	0.1468	0.7002	-0.172
Mof_Mo	Mo	0.45062	0.79852	0.93815	1.18
Mof_Mo	Mo	0.39014	0.98202	0.89657	1.208
Mof_Mo	Mo	0.43991	0.11389	0.87014	1.147
Mof_Mo	Mo	0.56707	0.10497	0.87437	1.164
Mof_Mo	Mo	0.61094	0.96858	0.9037	1.209
Mof_Mo	Mo	0.54432	0.7922	0.94271	1.172
Mof_C 	C 	0.7226	0.6977	0.7183	0.057
Mof_H 	H 	0.703	0.6606	0.7386	-0.001
Mof_C 	C 	0.7218	0.696	0.6575	-0.107
Mof_H 	H 	0.7021	0.658	0.6382	0.03
Mof_C 	C 	0.7156	0.7117	0.4693	0.06
Mof_H 	H 	0.6911	0.6843	0.449	-0.024
Mof_C 	C 	0.7141	0.7102	0.529	-0.129
Mof_H 	H 	0.6891	0.6826	0.5482	0.032
Mof_C 	C 	0.2827	0.7077	0.7088	0.049
Mof_H 	H 	0.3062	0.6781	0.7292	0.006
Mof_C 	C 	0.2835	0.7057	0.6481	-0.098
Mof_H 	H 	0.3067	0.6741	0.6288	0.023
Mof_C 	C 	0.2876	0.7239	0.4597	0.056
Mof_H 	H 	0.3149	0.7065	0.4391	-0.013
Mof_C 	C 	0.2891	0.7208	0.52	-0.129
Mof_H 	H 	0.3161	0.6993	0.539	0.034
Mof_Co	Co	-3.42569e-33	0	0.5	1.175
Mof_Co	Co	0.5	0.5	0.5	1.201
Mof_Co	Co	-0	0.5	-0	1.177
Mof_Co	Co	0.5	0	-0	1.173
Mof_C 	C 	0.75	0.75	0.1261	-0.002
Mof_C 	C 	0.75	0.75	0.0608	0.093
Mof_N 	N 	0.75	0.75	0.2484	-0.23
Mof_N 	N 	0.75	0.75	0.9382	-0.266
Mof_Co	Co	0.75	0.75	0.3427	1.113
Mof_C 	C 	0.25	0.25	0.3739	0.026
Mof_C 	C 	0.25	0.25	0.4392	0.033
Mof_N 	N 	0.25	0.25	0.2516	-0.236
Mof_N 	N 	0.25	0.25	0.5618	-0.244
Mof_Co	Co	0.25	0.25	0.1573	1.109
Mof_C 	C 	0.25	0.25	0.8739	0.064
Mof_C 	C 	0.25	0.25	0.9392	-0.032
Mof_N 	N 	0.25	0.25	0.7516	-0.24
Mof_N 	N 	0.25	0.25	0.0618	-0.219
Mof_Co	Co	0.25	0.25	0.6573	1.111
Mof_C 	C 	0.75	0.75	0.6261	0.029
Mof_C 	C 	0.75	0.75	0.5608	0.038
Mof_N 	N 	0.75	0.75	0.7484	-0.234
Mof_N 	N 	0.75	0.75	0.4382	-0.244
Mof_Co	Co	0.75	0.75	0.8427	1.114
Mof_C 	C 	0.25	0.75	0.1165	-0.012
Mof_C 	C 	0.25	0.75	0.0519	0.095
Mof_N 	N 	0.25	0.75	0.2386	-0.224
Mof_N 	N 	0.25	0.75	0.9295	-0.265
Mof_Co	Co	0.25	0.75	0.33347	1.12
Mof_C 	C 	0.75	0.25	0.3835	0.018
Mof_C 	C 	0.75	0.25	0.4481	0.036
Mof_N 	N 	0.75	0.25	0.2614	-0.23
Mof_N 	N 	0.75	0.25	0.5705	-0.242
Mof_Co	Co	0.75	0.25	0.16653	1.117
Mof_C 	C 	0.75	0.25	0.8835	0.054
Mof_C 	C 	0.75	0.25	0.9481	-0.026
Mof_N 	N 	0.75	0.25	0.7614	-0.234
Mof_N 	N 	0.75	0.25	0.0705	-0.217
Mof_Co	Co	0.75	0.25	0.66653	1.118
Mof_C 	C 	0.25	0.75	0.6165	0.021
Mof_C 	C 	0.25	0.75	0.5519	0.039
Mof_N 	N 	0.25	0.75	0.7386	-0.228
Mof_N 	N 	0.25	0.75	0.4295	-0.242
Mof_Co	Co	0.25	0.75	0.83347	1.121
_end
