data_functionalizedCrystal
_audit_creation_method	'EQeq! by Chris Wilmer'
_symmetry_space_group_name_H-M	'P1'
_symmetry_Int_Tables_number	1
_symmetry_cell_setting	triclinic
loop_
_symmetry_equiv_pos_as_xyz
  x,y,z
_cell_length_a	18.7028
_cell_length_b	18.7028
_cell_length_c	18.2028
_cell_angle_alpha	90
_cell_angle_beta	90
_cell_angle_gamma	90
loop_
_atom_site_label
_atom_site_type_symbol
_atom_site_fract_x
_atom_site_fract_y
_atom_site_fract_z
_atom_site_charge
Mof_O 	O 	0.2259	0.1442	0.4268	-0.672
Mof_C 	C 	0.19291	0.28122	0.28426	0.328
Mof_N 	N 	0.13742	0.31587	0.3191	0.667
Mof_H 	H 	0.15308	0.30609	0.30927	-0.789
Mof_O 	O 	0.7259	0.6442	0.9268	-0.489
Mof_C 	C 	0.69291	0.78122	0.78426	0.3
Mof_N 	N 	0.63742	0.81587	0.8191	0.657
Mof_H 	H 	0.65308	0.80609	0.80927	-0.746
Mof_O 	O 	0.7741	0.8558	0.4268	-0.663
Mof_C 	C 	0.80709	0.71878	0.28426	0.333
Mof_N 	N 	0.86258	0.68413	0.3191	0.686
Mof_H 	H 	0.84692	0.69391	0.30927	-0.822
Mof_O 	O 	0.2741	0.3558	0.9268	-0.482
Mof_C 	C 	0.30709	0.21878	0.78426	0.3
Mof_N 	N 	0.36258	0.18413	0.8191	0.642
Mof_H 	H 	0.34692	0.19391	0.80927	-0.719
Mof_O 	O 	0.8558	0.2259	0.4268	-0.665
Mof_C 	C 	0.71878	0.19291	0.28426	0.328
Mof_N 	N 	0.68413	0.13742	0.3191	0.67
Mof_H 	H 	0.69391	0.15308	0.30927	-0.791
Mof_O 	O 	0.3558	0.7259	0.9268	-0.487
Mof_C 	C 	0.21878	0.69291	0.78426	0.299
Mof_N 	N 	0.18413	0.63742	0.8191	0.644
Mof_H 	H 	0.19391	0.65308	0.80927	-0.722
Mof_O 	O 	0.1442	0.7741	0.4268	-0.669
Mof_C 	C 	0.28122	0.80709	0.28426	0.334
Mof_N 	N 	0.31587	0.86258	0.3191	0.685
Mof_H 	H 	0.30609	0.84692	0.30927	-0.818
Mof_O 	O 	0.6442	0.2741	0.9268	-0.484
Mof_C 	C 	0.78122	0.30709	0.78426	0.301
Mof_N 	N 	0.81587	0.36258	0.8191	0.655
Mof_H 	H 	0.80609	0.34692	0.80927	-0.742
Mof_O 	O 	0.7741	0.1442	0.5732	-0.664
Mof_C 	C 	0.80709	0.28122	0.71574	0.345
Mof_N 	N 	0.86258	0.31587	0.6809	0.655
Mof_H 	H 	0.84692	0.30609	0.69073	-0.776
Mof_O 	O 	0.2741	0.6442	0.0732	-0.633
Mof_C 	C 	0.30709	0.78122	0.21574	0.328
Mof_N 	N 	0.36258	0.81587	0.1809	0.687
Mof_H 	H 	0.34692	0.80609	0.19073	-0.818
Mof_O 	O 	0.2259	0.8558	0.5732	-0.66
Mof_C 	C 	0.19291	0.71878	0.71574	0.34
Mof_N 	N 	0.13742	0.68413	0.6809	0.64
Mof_H 	H 	0.15308	0.69391	0.69073	-0.748
Mof_O 	O 	0.7259	0.3558	0.0732	-0.636
Mof_C 	C 	0.69291	0.21878	0.21574	0.326
Mof_N 	N 	0.63742	0.18413	0.1809	0.675
Mof_H 	H 	0.65308	0.19391	0.19073	-0.798
Mof_O 	O 	0.1442	0.2259	0.5732	-0.666
Mof_C 	C 	0.28122	0.19291	0.71574	0.34
Mof_N 	N 	0.31587	0.13742	0.6809	0.639
Mof_H 	H 	0.30609	0.15308	0.69073	-0.745
Mof_O 	O 	0.6442	0.7259	0.0732	-0.637
Mof_C 	C 	0.78122	0.69291	0.21574	0.327
Mof_N 	N 	0.81587	0.63742	0.1809	0.688
Mof_H 	H 	0.80609	0.65308	0.19073	-0.821
Mof_O 	O 	0.8558	0.7741	0.5732	-0.658
Mof_C 	C 	0.71878	0.80709	0.71574	0.345
Mof_N 	N 	0.68413	0.86258	0.6809	0.657
Mof_H 	H 	0.69391	0.84692	0.69073	-0.779
Mof_O 	O 	0.3558	0.2741	0.0732	-0.632
Mof_C 	C 	0.21878	0.30709	0.21574	0.327
Mof_N 	N 	0.18413	0.36258	0.1809	0.674
Mof_H 	H 	0.19391	0.34692	0.19073	-0.794
Mof_O 	O 	0.7741	0.8558	0.5732	-0.658
Mof_C 	C 	0.80709	0.71878	0.71574	0.345
Mof_N 	N 	0.86258	0.68413	0.6809	0.657
Mof_H 	H 	0.84692	0.69391	0.69073	-0.779
Mof_O 	O 	0.2741	0.3558	0.0732	-0.632
Mof_C 	C 	0.30709	0.21878	0.21574	0.327
Mof_N 	N 	0.36258	0.18413	0.1809	0.674
Mof_H 	H 	0.34692	0.19391	0.19073	-0.794
Mof_O 	O 	0.2259	0.1442	0.5732	-0.666
Mof_C 	C 	0.19291	0.28122	0.71574	0.34
Mof_N 	N 	0.13742	0.31587	0.6809	0.639
Mof_H 	H 	0.15308	0.30609	0.69073	-0.745
Mof_O 	O 	0.7259	0.6442	0.0732	-0.637
Mof_C 	C 	0.69291	0.78122	0.21574	0.327
Mof_N 	N 	0.63742	0.81587	0.1809	0.688
Mof_H 	H 	0.65308	0.80609	0.19073	-0.821
Mof_O 	O 	0.1442	0.7741	0.5732	-0.664
Mof_C 	C 	0.28122	0.80709	0.71574	0.345
Mof_N 	N 	0.31587	0.86258	0.6809	0.655
Mof_H 	H 	0.30609	0.84692	0.69073	-0.776
Mof_O 	O 	0.6442	0.2741	0.0732	-0.633
Mof_C 	C 	0.78122	0.30709	0.21574	0.328
Mof_N 	N 	0.81587	0.36258	0.1809	0.687
Mof_H 	H 	0.80609	0.34692	0.19073	-0.818
Mof_O 	O 	0.8558	0.2259	0.5732	-0.66
Mof_C 	C 	0.71878	0.19291	0.71574	0.34
Mof_N 	N 	0.68413	0.13742	0.6809	0.64
Mof_H 	H 	0.69391	0.15308	0.69073	-0.748
Mof_O 	O 	0.3558	0.7259	0.0732	-0.636
Mof_C 	C 	0.21878	0.69291	0.21574	0.326
Mof_N 	N 	0.18413	0.63742	0.1809	0.675
Mof_H 	H 	0.19391	0.65308	0.19073	-0.798
Mof_O 	O 	0.2259	0.8558	0.4268	-0.665
Mof_C 	C 	0.19291	0.71878	0.28426	0.328
Mof_N 	N 	0.13742	0.68413	0.3191	0.67
Mof_H 	H 	0.15308	0.69391	0.30927	-0.791
Mof_O 	O 	0.7259	0.3558	0.9268	-0.487
Mof_C 	C 	0.69291	0.21878	0.78426	0.299
Mof_N 	N 	0.63742	0.18413	0.8191	0.644
Mof_H 	H 	0.65308	0.19391	0.80927	-0.722
Mof_O 	O 	0.7741	0.1442	0.4268	-0.669
Mof_C 	C 	0.80709	0.28122	0.28426	0.334
Mof_N 	N 	0.86258	0.31587	0.3191	0.685
Mof_H 	H 	0.84692	0.30609	0.30927	-0.818
Mof_O 	O 	0.2741	0.6442	0.9268	-0.484
Mof_C 	C 	0.30709	0.78122	0.78426	0.301
Mof_N 	N 	0.36258	0.81587	0.8191	0.655
Mof_H 	H 	0.34692	0.80609	0.80927	-0.742
Mof_O 	O 	0.8558	0.7741	0.4268	-0.663
Mof_C 	C 	0.71878	0.80709	0.28426	0.333
Mof_N 	N 	0.68413	0.86258	0.3191	0.686
Mof_H 	H 	0.69391	0.84692	0.30927	-0.822
Mof_O 	O 	0.3558	0.2741	0.9268	-0.482
Mof_C 	C 	0.21878	0.30709	0.78426	0.3
Mof_N 	N 	0.18413	0.36258	0.8191	0.642
Mof_H 	H 	0.19391	0.34692	0.80927	-0.719
Mof_O 	O 	0.1442	0.2259	0.4268	-0.671
Mof_C 	C 	0.28122	0.19291	0.28426	0.329
Mof_N 	N 	0.31587	0.13742	0.3191	0.668
Mof_H 	H 	0.30609	0.15308	0.30927	-0.788
Mof_O 	O 	0.6442	0.7259	0.9268	-0.488
Mof_C 	C 	0.78122	0.69291	0.78426	0.3
Mof_N 	N 	0.81587	0.63742	0.8191	0.657
Mof_H 	H 	0.80609	0.65308	0.80927	-0.746
Mof_Ti	Ti	0.2083	0.074	0.5	1.799
Mof_O 	O 	0.3111	0.058	0.5	-0.566
Mof_C 	C 	0.46333	0.06514	0.5	0.258
Mof_N 	N 	0.42348	0.12294	0.5	0.476
Mof_H 	H 	0.4343	0.10725	0.5	-0.579
Mof_Ti	Ti	0.7083	0.574	-0	1.478
Mof_O 	O 	0.8111	0.558	-0	-0.572
Mof_C 	C 	0.96333	0.56514	-0	0.212
Mof_N 	N 	0.92348	0.62294	-0	0.545
Mof_H 	H 	0.9343	0.60725	-0	-0.69
Mof_Ti	Ti	0.7917	0.926	0.5	1.702
Mof_O 	O 	0.6889	0.942	0.5	-0.597
Mof_C 	C 	0.53667	0.93486	0.5	0.225
Mof_N 	N 	0.57652	0.87706	0.5	0.5
Mof_H 	H 	0.5657	0.89275	0.5	-0.605
Mof_Ti	Ti	0.2917	0.426	-0	1.48
Mof_O 	O 	0.1889	0.442	-0	-0.568
Mof_C 	C 	0.03667	0.43486	-0	0.302
Mof_N 	N 	0.07652	0.37706	-0	0.463
Mof_H 	H 	0.0657	0.39275	-0	-0.603
Mof_Ti	Ti	0.926	0.2083	0.5	1.707
Mof_O 	O 	0.942	0.3111	0.5	-0.598
Mof_C 	C 	0.93486	0.46333	0.5	0.225
Mof_N 	N 	0.87706	0.42348	0.5	0.5
Mof_H 	H 	0.89275	0.4343	0.5	-0.605
Mof_Ti	Ti	0.426	0.7083	-0	1.478
Mof_O 	O 	0.442	0.8111	-0	-0.571
Mof_C 	C 	0.43486	0.96333	-0	0.211
Mof_N 	N 	0.37706	0.92348	-0	0.542
Mof_H 	H 	0.39275	0.9343	-0	-0.683
Mof_Ti	Ti	0.074	0.7917	0.5	1.794
Mof_O 	O 	0.058	0.6889	0.5	-0.565
Mof_C 	C 	0.06514	0.53667	0.5	0.258
Mof_N 	N 	0.12294	0.57652	0.5	0.476
Mof_H 	H 	0.10725	0.5657	0.5	-0.579
Mof_Ti	Ti	0.574	0.2917	-0	1.48
Mof_O 	O 	0.558	0.1889	-0	-0.569
Mof_C 	C 	0.56514	0.03667	-0	0.303
Mof_N 	N 	0.62294	0.07652	-0	0.466
Mof_H 	H 	0.60725	0.0657	-0	-0.61
Mof_Ti	Ti	0.7917	0.074	0.5	1.794
Mof_O 	O 	0.6889	0.058	0.5	-0.565
Mof_C 	C 	0.53667	0.06514	0.5	0.258
Mof_N 	N 	0.57652	0.12294	0.5	0.476
Mof_H 	H 	0.5657	0.10725	0.5	-0.579
Mof_Ti	Ti	0.2917	0.574	-0	1.48
Mof_O 	O 	0.1889	0.558	-0	-0.569
Mof_C 	C 	0.03667	0.56514	-0	0.303
Mof_N 	N 	0.07652	0.62294	-0	0.466
Mof_H 	H 	0.0657	0.60725	-0	-0.61
Mof_Ti	Ti	0.2083	0.926	0.5	1.707
Mof_O 	O 	0.3111	0.942	0.5	-0.598
Mof_C 	C 	0.46333	0.93486	0.5	0.225
Mof_N 	N 	0.42348	0.87706	0.5	0.5
Mof_H 	H 	0.4343	0.89275	0.5	-0.605
Mof_Ti	Ti	0.7083	0.426	-0	1.478
Mof_O 	O 	0.8111	0.442	-0	-0.571
Mof_C 	C 	0.96333	0.43486	-0	0.211
Mof_N 	N 	0.92348	0.37706	-0	0.542
Mof_H 	H 	0.9343	0.39275	-0	-0.683
Mof_Ti	Ti	0.074	0.2083	0.5	1.799
Mof_O 	O 	0.058	0.3111	0.5	-0.566
Mof_C 	C 	0.06514	0.46333	0.5	0.258
Mof_N 	N 	0.12294	0.42348	0.5	0.476
Mof_H 	H 	0.10725	0.4343	0.5	-0.579
Mof_Ti	Ti	0.574	0.7083	-0	1.478
Mof_O 	O 	0.558	0.8111	-0	-0.572
Mof_C 	C 	0.56514	0.96333	-0	0.212
Mof_N 	N 	0.62294	0.92348	-0	0.545
Mof_H 	H 	0.60725	0.9343	-0	-0.69
Mof_Ti	Ti	0.926	0.7917	0.5	1.702
Mof_O 	O 	0.942	0.6889	0.5	-0.597
Mof_C 	C 	0.93486	0.53667	0.5	0.225
Mof_N 	N 	0.87706	0.57652	0.5	0.5
Mof_H 	H 	0.89275	0.5657	0.5	-0.605
Mof_Ti	Ti	0.426	0.2917	-0	1.48
Mof_O 	O 	0.442	0.1889	-0	-0.568
Mof_C 	C 	0.43486	0.03667	-0	0.302
Mof_N 	N 	0.37706	0.07652	-0	0.463
Mof_H 	H 	0.39275	0.0657	-0	-0.603
Mof_O 	O 	0.1819	-3.9646e-33	0.4265	-0.558
Mof_O 	O 	0.6819	0.5	0.9265	-0.382
Mof_O 	O 	0.8181	-3.9646e-33	0.4265	-0.567
Mof_O 	O 	0.3181	0.5	0.9265	-0.381
Mof_O 	O 	5.52096e-33	0.1819	0.4265	-0.558
Mof_O 	O 	0.5	0.6819	0.9265	-0.382
Mof_O 	O 	-6.37282e-33	0.8181	0.4265	-0.567
Mof_O 	O 	0.5	0.3181	0.9265	-0.381
Mof_O 	O 	0.8181	0	0.5735	-0.553
Mof_O 	O 	0.3181	0.5	0.0735	-0.528
Mof_O 	O 	0.1819	0	0.5735	-0.544
Mof_O 	O 	0.6819	0.5	0.0735	-0.529
Mof_O 	O 	6.05739e-33	0.1819	0.5735	-0.544
Mof_O 	O 	0.5	0.6819	0.0735	-0.529
Mof_O 	O 	1.0022e-32	0.8181	0.5735	-0.553
Mof_O 	O 	0.5	0.3181	0.0735	-0.528
Mof_C 	C 	0.194	0.194	0.4023	0.726
Mof_C 	C 	0.2225	0.2225	0.3209	-0.36
Mof_C 	C 	0.694	0.694	0.9023	0.638
Mof_C 	C 	0.7225	0.7225	0.8209	-0.301
Mof_C 	C 	0.806	0.806	0.4023	0.711
Mof_C 	C 	0.7775	0.7775	0.3209	-0.376
Mof_C 	C 	0.306	0.306	0.9023	0.639
Mof_C 	C 	0.2775	0.2775	0.8209	-0.29
Mof_C 	C 	0.806	0.194	0.4023	0.718
Mof_C 	C 	0.7775	0.2225	0.3209	-0.368
Mof_C 	C 	0.306	0.694	0.9023	0.639
Mof_C 	C 	0.2775	0.7225	0.8209	-0.295
Mof_C 	C 	0.194	0.806	0.4023	0.718
Mof_C 	C 	0.2225	0.7775	0.3209	-0.368
Mof_C 	C 	0.694	0.306	0.9023	0.639
Mof_C 	C 	0.7225	0.2775	0.8209	-0.295
Mof_C 	C 	0.806	0.194	0.5977	0.721
Mof_C 	C 	0.7775	0.2225	0.6791	-0.359
Mof_C 	C 	0.306	0.694	0.0977	0.672
Mof_C 	C 	0.2775	0.7225	0.1791	-0.359
Mof_C 	C 	0.194	0.806	0.5977	0.721
Mof_C 	C 	0.2225	0.7775	0.6791	-0.359
Mof_C 	C 	0.694	0.306	0.0977	0.672
Mof_C 	C 	0.7225	0.2775	0.1791	-0.359
Mof_C 	C 	0.194	0.194	0.5977	0.729
Mof_C 	C 	0.2225	0.2225	0.6791	-0.351
Mof_C 	C 	0.694	0.694	0.0977	0.671
Mof_C 	C 	0.7225	0.7225	0.1791	-0.365
Mof_C 	C 	0.806	0.806	0.5977	0.714
Mof_C 	C 	0.7775	0.7775	0.6791	-0.366
Mof_C 	C 	0.306	0.306	0.0977	0.673
Mof_C 	C 	0.2775	0.2775	0.1791	-0.354
Mof_C 	C 	0.4265	-3.9646e-33	0.5	-0.321
Mof_C 	C 	0.3507	-3.9646e-33	0.5	0.56
Mof_C 	C 	0.9265	0.5	-0	-0.373
Mof_C 	C 	0.8507	0.5	-0	0.479
Mof_C 	C 	0.5735	-3.9646e-33	0.5	-0.321
Mof_C 	C 	0.6493	-3.9646e-33	0.5	0.559
Mof_C 	C 	0.0735	0.5	-0	-0.403
Mof_C 	C 	0.1493	0.5	-0	0.497
Mof_C 	C 	1.82458e-33	0.4265	0.5	-0.321
Mof_C 	C 	-2.14001e-33	0.3507	0.5	0.56
Mof_C 	C 	0.5	0.9265	-0	-0.373
Mof_C 	C 	0.5	0.8507	-0	0.479
Mof_C 	C 	-2.14001e-33	0.5735	0.5	-0.321
Mof_C 	C 	1.82458e-33	0.6493	0.5	0.559
Mof_C 	C 	0.5	0.0735	-0	-0.403
Mof_C 	C 	0.5	0.1493	-0	0.497
Mof_O 	O 	0.1074	0.1074	0.5	-0.559
Mof_O 	O 	0.6074	0.6074	-0	-0.576
Mof_O 	O 	0.8926	0.8926	0.5	-0.58
Mof_O 	O 	0.3926	0.3926	-0	-0.578
Mof_O 	O 	0.8926	0.1074	0.5	-0.569
Mof_O 	O 	0.3926	0.6074	-0	-0.577
Mof_O 	O 	0.1074	0.8926	0.5	-0.569
Mof_O 	O 	0.6074	0.3926	-0	-0.577
_end
