data_functionalizedCrystal
_audit_creation_method	'EQeq! by Chris Wilmer'
_symmetry_space_group_name_H-M	'P1'
_symmetry_Int_Tables_number	1
_symmetry_cell_setting	triclinic
loop_
_symmetry_equiv_pos_as_xyz
  x,y,z
_cell_length_a	10.918
_cell_length_b	11.231
_cell_length_c	14.577
_cell_angle_alpha	112.006
_cell_angle_beta	107.771
_cell_angle_gamma	90.509
loop_
_atom_site_label
_atom_site_type_symbol
_atom_site_fract_x
_atom_site_fract_y
_atom_site_fract_z
_atom_site_charge
Mof_Zn	Zn	0.93623	0.05528	0.09797	1.199
Mof_Zn	Zn	0.50878	0.98673	0.78807	1.195
Mof_Zn	Zn	0.66069	0.51255	0.5029	1.157
Mof_Zn	Zn	0.66066	0.50711	0.00556	1.158
Mof_O 	O 	0.4641	0.8205	0.1179	-0.494
Mof_O 	O 	0.4988	0.6228	0.028	-0.611
Mof_O 	O 	0.5887	0.0785	0.1374	-0.411
Mof_O 	O 	0.7771	0.1302	0.1272	-0.425
Mof_O 	O 	0.8932	0.0145	0.9424	-0.545
Mof_O 	O 	0.6785	0.9727	0.8864	-0.441
Mof_O 	O 	0.4911	0.7952	0.6838	-0.5
Mof_O 	O 	0.5217	0.6024	0.5835	-0.621
Mof_N 	N 	0.7389	0.6988	0.0478	-0.256
Mof_N 	N 	0.8442	0.8923	0.0901	-0.249
Mof_N 	N 	0.1835	0.5996	0.0065	-0.255
Mof_N 	N 	0.7758	0.67	0.6343	-0.262
Mof_N 	N 	0.9181	0.8256	0.7758	-0.255
Mof_N 	N 	0.2101	0.572	0.5762	-0.274
Mof_C 	C 	0.5319	0.7467	0.0747	0.372
Mof_C 	C 	0.6608	0.7915	0.0755	-0.095
Mof_C 	C 	0.7251	0.9115	0.1005	-0.05
Mof_C 	C 	0.6934	0.0488	0.1241	0.303
Mof_C 	C 	0.8494	0.7648	0.0582	0.1
Mof_C 	C 	0.9637	0.7074	0.0387	-0.062
Mof_C 	C 	0.0838	0.749	0.1169	-0.072
Mof_H 	H 	0.0926	0.8146	0.1836	0.019
Mof_C 	C 	0.1906	0.6943	0.0972	0.038
Mof_H 	H 	0.2729	0.7258	0.1509	-0.038
Mof_C 	C 	0.0682	0.5635	0.9276	-0.001
Mof_H 	H 	0.0635	0.5016	0.8605	-0.02
Mof_C 	C 	0.9561	0.6143	0.9417	-0.056
Mof_H 	H 	0.8757	0.5855	0.8856	0.012
Mof_C 	C 	0.7839	0.9517	0.8726	0.32
Mof_C 	C 	0.7951	0.8468	0.778	-0.074
Mof_C 	C 	0.7085	0.7514	0.693	-0.101
Mof_C 	C 	0.5636	0.7175	0.6527	0.367
Mof_C 	C 	0.9011	0.7193	0.6886	0.096
Mof_C 	C 	0.0096	0.6685	0.6517	-0.03
Mof_C 	C 	0.035	0.5427	0.637	-0.101
Mof_H 	H 	0.9849	0.488	0.6525	0.028
Mof_C 	C 	0.1359	0.499	0.599	0.047
Mof_H 	H 	0.1529	0.413	0.5886	-0.047
Mof_C 	C 	0.1865	0.6939	0.5925	0.051
Mof_H 	H 	0.2379	0.746	0.5757	-0.044
Mof_C 	C 	0.0915	0.7469	0.6323	-0.095
Mof_H 	H 	0.0813	0.8353	0.6466	0.02
Mof_Zn	Zn	0.06377	0.94472	0.90203	1.2
Mof_Zn	Zn	0.49122	0.01327	0.21193	1.196
Mof_Zn	Zn	0.33931	0.48745	0.4971	1.158
Mof_Zn	Zn	0.33934	0.49289	0.99444	1.159
Mof_O 	O 	0.5359	0.1795	0.8821	-0.493
Mof_O 	O 	0.5012	0.3772	0.972	-0.61
Mof_O 	O 	0.4113	0.9215	0.8626	-0.411
Mof_O 	O 	0.2229	0.8698	0.8728	-0.425
Mof_O 	O 	0.1068	0.9855	0.0576	-0.545
Mof_O 	O 	0.3215	0.0273	0.1136	-0.441
Mof_O 	O 	0.5089	0.2048	0.3162	-0.5
Mof_O 	O 	0.4783	0.3976	0.4165	-0.621
Mof_N 	N 	0.2611	0.3012	0.9522	-0.256
Mof_N 	N 	0.1558	0.1077	0.9099	-0.249
Mof_N 	N 	0.8165	0.4004	0.9935	-0.255
Mof_N 	N 	0.2242	0.33	0.3657	-0.262
Mof_N 	N 	0.0819	0.1744	0.2242	-0.255
Mof_N 	N 	0.7899	0.428	0.4238	-0.274
Mof_C 	C 	0.4681	0.2533	0.9253	0.372
Mof_C 	C 	0.3392	0.2085	0.9245	-0.095
Mof_C 	C 	0.2749	0.0885	0.8995	-0.05
Mof_C 	C 	0.3066	0.9512	0.8759	0.303
Mof_C 	C 	0.1506	0.2352	0.9418	0.1
Mof_C 	C 	0.0363	0.2926	0.9613	-0.062
Mof_C 	C 	0.9162	0.251	0.8831	-0.072
Mof_H 	H 	0.9074	0.1854	0.8164	0.019
Mof_C 	C 	0.8094	0.3057	0.9028	0.038
Mof_H 	H 	0.7271	0.2742	0.8491	-0.038
Mof_C 	C 	0.9318	0.4365	0.0724	-0.001
Mof_H 	H 	0.9365	0.4984	0.1395	-0.02
Mof_C 	C 	0.0439	0.3857	0.0583	-0.056
Mof_H 	H 	0.1243	0.4145	0.1144	0.012
Mof_C 	C 	0.2161	0.0483	0.1274	0.32
Mof_C 	C 	0.2049	0.1532	0.222	-0.074
Mof_C 	C 	0.2915	0.2486	0.307	-0.101
Mof_C 	C 	0.4364	0.2825	0.3473	0.367
Mof_C 	C 	0.0989	0.2807	0.3114	0.096
Mof_C 	C 	0.9904	0.3315	0.3483	-0.03
Mof_C 	C 	0.965	0.4573	0.363	-0.101
Mof_H 	H 	0.0151	0.512	0.3475	0.028
Mof_C 	C 	0.8641	0.501	0.401	0.047
Mof_H 	H 	0.8471	0.587	0.4114	-0.047
Mof_C 	C 	0.8135	0.3061	0.4075	0.051
Mof_H 	H 	0.7621	0.254	0.4243	-0.044
Mof_C 	C 	0.9085	0.2531	0.3677	-0.095
Mof_H 	H 	0.9187	0.1647	0.3534	0.02
_end
