data_functionalizedCrystal
_audit_creation_method	'EQeq! by Chris Wilmer'
_symmetry_space_group_name_H-M	'P1'
_symmetry_Int_Tables_number	1
_symmetry_cell_setting	triclinic
loop_
_symmetry_equiv_pos_as_xyz
  x,y,z
_cell_length_a	7.3329
_cell_length_b	14.372
_cell_length_c	18.07
_cell_angle_alpha	90
_cell_angle_beta	90.869
_cell_angle_gamma	90
loop_
_atom_site_label
_atom_site_type_symbol
_atom_site_fract_x
_atom_site_fract_y
_atom_site_fract_z
_atom_site_charge
Mof_Mn	Mn	0.27072	0.56515	0.79612	0.603
Mof_Mn	Mn	0.75014	0.19498	0.94535	0.601
Mof_Mn	Mn	0.22928	0.06515	0.70388	0.601
Mof_Mn	Mn	0.74986	0.69498	0.55465	0.603
Mof_Mn	Mn	0.72928	0.43485	0.20388	0.603
Mof_Mn	Mn	0.24986	0.80502	0.05465	0.601
Mof_Mn	Mn	0.77072	0.93485	0.29612	0.601
Mof_Mn	Mn	0.25014	0.30502	0.44535	0.603
Mof_Mo	Mo	0.75624	0.33843	0.66654	0.983
Mof_Mo	Mo	0.74376	0.83843	0.83346	0.983
Mof_Mo	Mo	0.24376	0.66157	0.33347	0.983
Mof_Mo	Mo	0.25624	0.16157	0.16654	0.983
Mof_C 	C 	0.9636	0.42419	0.71723	-0.125
Mof_C 	C 	0.8094	0.28766	0.77848	-0.123
Mof_C 	C 	0.5651	0.41302	0.73463	-0.13
Mof_C 	C 	0.5471	0.23423	0.68726	-0.122
Mof_C 	C 	0.9109	0.21209	0.65495	-0.136
Mof_C 	C 	0.5926	0.31606	0.56687	-0.129
Mof_C 	C 	0.961	0.34983	0.58201	-0.122
Mof_C 	C 	0.7182	0.47655	0.61851	-0.113
Mof_C 	C 	0.5364	0.92419	0.78277	-0.125
Mof_C 	C 	0.6906	0.78766	0.72152	-0.123
Mof_C 	C 	0.9349	0.91302	0.76537	-0.131
Mof_C 	C 	0.9529	0.73423	0.81274	-0.123
Mof_C 	C 	0.5891	0.71209	0.84505	-0.136
Mof_C 	C 	0.9074	0.81606	0.93313	-0.129
Mof_C 	C 	0.539	0.84983	0.91799	-0.122
Mof_C 	C 	0.7818	0.97655	0.88149	-0.111
Mof_C 	C 	0.0364	0.57581	0.28277	-0.125
Mof_C 	C 	0.1906	0.71234	0.22152	-0.123
Mof_C 	C 	0.4349	0.58698	0.26537	-0.13
Mof_C 	C 	0.4529	0.76577	0.31274	-0.122
Mof_C 	C 	0.0891	0.78791	0.34505	-0.136
Mof_C 	C 	0.4074	0.68394	0.43313	-0.129
Mof_C 	C 	0.039	0.65017	0.41799	-0.122
Mof_C 	C 	0.2818	0.52345	0.38149	-0.113
Mof_C 	C 	0.4636	0.07581	0.21723	-0.125
Mof_C 	C 	0.3094	0.21234	0.27848	-0.123
Mof_C 	C 	0.0651	0.08698	0.23463	-0.131
Mof_C 	C 	0.0471	0.26577	0.18726	-0.123
Mof_C 	C 	0.4109	0.28791	0.15495	-0.136
Mof_C 	C 	0.0926	0.18394	0.06687	-0.129
Mof_C 	C 	0.461	0.15017	0.08201	-0.122
Mof_C 	C 	0.2182	0.02345	0.11851	-0.111
Mof_N 	N 	0.0685	0.47507	0.74214	-0.149
Mof_N 	N 	0.833	0.259	0.83758	-0.154
Mof_N 	N 	0.474	0.45356	0.77424	-0.147
Mof_N 	N 	0.4363	0.1794	0.69654	-0.151
Mof_N 	N 	0.0044	0.14764	0.65193	-0.151
Mof_N 	N 	0.504	0.30594	0.51438	-0.148
Mof_N 	N 	0.074	0.35122	0.53784	-0.146
Mof_N 	N 	0.7053	0.55026	0.59385	-0.143
Mof_N 	N 	0.4315	0.97507	0.75786	-0.149
Mof_N 	N 	0.667	0.759	0.66242	-0.154
Mof_N 	N 	0.026	0.95356	0.72576	-0.145
Mof_N 	N 	0.0637	0.6794	0.80346	-0.15
Mof_N 	N 	0.4956	0.64764	0.84807	-0.15
Mof_N 	N 	0.996	0.80594	0.98562	-0.147
Mof_N 	N 	0.426	0.85122	0.96216	-0.145
Mof_N 	N 	0.7947	0.05026	0.90615	-0.145
Mof_N 	N 	0.9315	0.52493	0.25786	-0.149
Mof_N 	N 	0.167	0.741	0.16242	-0.154
Mof_N 	N 	0.526	0.54644	0.22576	-0.147
Mof_N 	N 	0.5637	0.8206	0.30346	-0.151
Mof_N 	N 	0.9956	0.85236	0.34807	-0.151
Mof_N 	N 	0.496	0.69406	0.48562	-0.148
Mof_N 	N 	0.926	0.64878	0.46216	-0.146
Mof_N 	N 	0.2947	0.44974	0.40615	-0.143
Mof_N 	N 	0.5685	0.02493	0.24214	-0.149
Mof_N 	N 	0.333	0.241	0.33758	-0.154
Mof_N 	N 	0.974	0.04644	0.27424	-0.145
Mof_N 	N 	0.9363	0.3206	0.19654	-0.15
Mof_N 	N 	0.5044	0.35236	0.15193	-0.15
Mof_N 	N 	0.004	0.19406	0.01438	-0.147
Mof_N 	N 	0.574	0.14878	0.03784	-0.145
Mof_N 	N 	0.2053	0.94974	0.09385	-0.145
_end
