data_functionalizedCrystal
_audit_creation_method	'EQeq! by Chris Wilmer'
_symmetry_space_group_name_H-M	'P1'
_symmetry_Int_Tables_number	1
_symmetry_cell_setting	triclinic
loop_
_symmetry_equiv_pos_as_xyz
  x,y,z
_cell_length_a	6.5554
_cell_length_b	15.384
_cell_length_c	18.135
_cell_angle_alpha	90
_cell_angle_beta	90
_cell_angle_gamma	90
loop_
_atom_site_label
_atom_site_type_symbol
_atom_site_fract_x
_atom_site_fract_y
_atom_site_fract_z
_atom_site_charge
Mof_O 	O 	0.6868	0.6307	0.5696	-0.346
Mof_O 	O 	0.6862	0.6747	0.5866	-0.409
Mof_O 	O 	0.1868	0.1307	0.5696	-0.409
Mof_O 	O 	0.1862	0.1747	0.5866	-0.465
Mof_O 	O 	0.3132	0.3693	0.0696	-0.393
Mof_O 	O 	0.3138	0.3253	0.0866	-0.441
Mof_O 	O 	0.8132	0.8693	0.0696	-0.334
Mof_O 	O 	0.8138	0.8253	0.0866	-0.394
Mof_O 	O 	0.3132	0.6307	0.9304	-0.393
Mof_O 	O 	0.3138	0.6747	0.9134	-0.441
Mof_O 	O 	0.8132	0.1307	0.9304	-0.334
Mof_O 	O 	0.8138	0.1747	0.9134	-0.394
Mof_O 	O 	0.6868	0.3693	0.4304	-0.346
Mof_O 	O 	0.6862	0.3253	0.4134	-0.409
Mof_O 	O 	0.1868	0.8693	0.4304	-0.409
Mof_O 	O 	0.1862	0.8253	0.4134	-0.465
Mof_O 	O 	0.3132	0.3693	0.4304	-0.393
Mof_O 	O 	0.3138	0.3253	0.4134	-0.441
Mof_O 	O 	0.8132	0.8693	0.4304	-0.333
Mof_O 	O 	0.8138	0.8253	0.4134	-0.394
Mof_O 	O 	0.6868	0.6307	0.9304	-0.347
Mof_O 	O 	0.6862	0.6747	0.9134	-0.409
Mof_O 	O 	0.1868	0.1307	0.9304	-0.409
Mof_O 	O 	0.1862	0.1747	0.9134	-0.465
Mof_O 	O 	0.6868	0.3693	0.0696	-0.347
Mof_O 	O 	0.6862	0.3253	0.0866	-0.409
Mof_O 	O 	0.1868	0.8693	0.0696	-0.409
Mof_O 	O 	0.1862	0.8253	0.0866	-0.465
Mof_O 	O 	0.3132	0.6307	0.5696	-0.393
Mof_O 	O 	0.3138	0.6747	0.5866	-0.441
Mof_O 	O 	0.8132	0.1307	0.5696	-0.333
Mof_O 	O 	0.8138	0.1747	0.5866	-0.394
Mof_In	In	0.5	0.83529	0.42689	3.262
Mof_P 	P 	0.5	0.6641	0.54248	0.848
Mof_H 	H 	0.5	0.7395	0.5847	-0.026
Mof_O 	O 	0.5	0.7095	0.469	-0.792
Mof_O 	O 	0.5	0.7945	0.3172	-0.715
Mof_O 	O 	0.5	0.9785	0.4054	-0.573
Mof_O 	O 	0.5	0.1055	0.4623	-0.614
Mof_C 	C 	0.5	0.0239	0.4618	0.309
Mof_H 	H 	0.5	0.5762	0.5247	-0.023
Mof_In	In	4.42788e-33	0.33529	0.42689	3.011
Mof_P 	P 	1.94295e-32	0.1641	0.54248	0.748
Mof_H 	H 	1.98675e-32	0.2395	0.5847	-0.073
Mof_O 	O 	1.86674e-32	0.2095	0.469	-0.818
Mof_O 	O 	1.70928e-32	0.2945	0.3172	-0.791
Mof_O 	O 	4.20498e-33	0.4785	0.4054	-0.597
Mof_O 	O 	4.79517e-33	0.6055	0.4623	-0.641
Mof_C 	C 	3.23954e-32	0.5239	0.4618	0.282
Mof_H 	H 	1.92451e-32	0.0762	0.5247	-0.083
Mof_In	In	0.5	0.16471	0.92689	3.261
Mof_P 	P 	0.5	0.3359	0.04248	0.849
Mof_H 	H 	0.5	0.2605	0.0847	-0.026
Mof_O 	O 	0.5	0.2905	0.969	-0.793
Mof_O 	O 	0.5	0.2055	0.8172	-0.715
Mof_O 	O 	0.5	0.0215	0.9054	-0.574
Mof_O 	O 	0.5	0.8945	0.9623	-0.614
Mof_C 	C 	0.5	0.9761	0.9618	0.31
Mof_H 	H 	0.5	0.4238	0.0247	-0.023
Mof_In	In	9.61409e-33	0.66471	0.92689	3.014
Mof_P 	P 	1.7694e-32	0.8359	0.04248	0.748
Mof_H 	H 	-2.57213e-33	0.7605	0.0847	-0.073
Mof_O 	O 	3.76563e-32	0.7905	0.969	-0.818
Mof_O 	O 	8.47634e-33	0.7055	0.8172	-0.791
Mof_O 	O 	3.69966e-32	0.5215	0.9054	-0.598
Mof_O 	O 	3.75868e-32	0.3945	0.9623	-0.641
Mof_C 	C 	9.97619e-33	0.4761	0.9618	0.283
Mof_H 	H 	2.87243e-32	0.9238	0.0247	-0.083
Mof_In	In	0.5	0.83529	0.07311	3.261
Mof_P 	P 	0.5	0.6641	0.95752	0.849
Mof_H 	H 	0.5	0.7395	0.9153	-0.026
Mof_O 	O 	0.5	0.7095	0.031	-0.793
Mof_O 	O 	0.5	0.7945	0.1828	-0.715
Mof_O 	O 	0.5	0.9785	0.0946	-0.574
Mof_O 	O 	0.5	0.1055	0.0377	-0.614
Mof_C 	C 	0.5	0.0239	0.0382	0.31
Mof_H 	H 	0.5	0.5762	0.9753	-0.023
Mof_In	In	5.93434e-33	0.33529	0.07311	3.014
Mof_P 	P 	9.9318e-33	0.1641	0.95752	0.748
Mof_H 	H 	3.70993e-32	0.2395	0.9153	-0.073
Mof_O 	O 	-3.12913e-33	0.2095	0.031	-0.818
Mof_O 	O 	8.79743e-33	0.2945	0.1828	-0.791
Mof_O 	O 	9.81231e-34	0.4785	0.0946	-0.598
Mof_O 	O 	-3.92231e-33	0.6055	0.0377	-0.641
Mof_C 	C 	9.02292e-33	0.5239	0.0382	0.283
Mof_H 	H 	1.01162e-32	0.0762	0.9753	-0.083
Mof_In	In	0.5	0.16471	0.57311	3.262
Mof_P 	P 	0.5	0.3359	0.45752	0.848
Mof_H 	H 	0.5	0.2605	0.4153	-0.026
Mof_O 	O 	0.5	0.2905	0.531	-0.792
Mof_O 	O 	0.5	0.2055	0.6828	-0.715
Mof_O 	O 	0.5	0.0215	0.5946	-0.573
Mof_O 	O 	0.5	0.8945	0.5377	-0.614
Mof_C 	C 	0.5	0.9761	0.5382	0.309
Mof_H 	H 	0.5	0.4238	0.4753	-0.023
Mof_In	In	5.94454e-33	0.66471	0.57311	3.011
Mof_P 	P 	1.85483e-32	0.8359	0.45752	0.748
Mof_H 	H 	3.19131e-32	0.7605	0.4153	-0.073
Mof_O 	O 	4.69159e-32	0.7905	0.531	-0.818
Mof_O 	O 	4.84904e-32	0.7055	0.6828	-0.791
Mof_O 	O 	1.99702e-32	0.5215	0.5946	-0.597
Mof_O 	O 	-8.22546e-33	0.3945	0.5377	-0.641
Mof_C 	C 	5.58244e-33	0.4761	0.5382	0.282
Mof_H 	H 	4.93001e-33	0.9238	0.4753	-0.083
Mof_P 	P 	0.6081	0.8372	0.25	0.39
Mof_H 	H 	0.8264	0.8475	0.25	0.037
Mof_O 	O 	0.574	0.9326	0.25	-0.155
Mof_P 	P 	0.1081	0.3372	0.25	0.3
Mof_H 	H 	0.3264	0.3475	0.25	0.012
Mof_O 	O 	0.074	0.4326	0.25	-0.346
Mof_P 	P 	0.3919	0.1628	0.75	0.369
Mof_H 	H 	0.1736	0.1525	0.75	-0.053
Mof_O 	O 	0.426	0.0674	0.75	-0.197
Mof_P 	P 	0.8919	0.6628	0.75	0.601
Mof_H 	H 	0.6736	0.6525	0.75	-0.022
Mof_O 	O 	0.926	0.5674	0.75	0.016
Mof_P 	P 	0.3919	0.8372	0.25	0.369
Mof_H 	H 	0.1736	0.8475	0.25	-0.053
Mof_O 	O 	0.426	0.9326	0.25	-0.197
Mof_P 	P 	0.8919	0.3372	0.25	0.601
Mof_H 	H 	0.6736	0.3475	0.25	-0.022
Mof_O 	O 	0.926	0.4326	0.25	0.016
Mof_P 	P 	0.6081	0.1628	0.75	0.39
Mof_H 	H 	0.8264	0.1525	0.75	0.037
Mof_O 	O 	0.574	0.0674	0.75	-0.155
Mof_P 	P 	0.1081	0.6628	0.75	0.3
Mof_H 	H 	0.3264	0.6525	0.75	0.012
Mof_O 	O 	0.074	0.5674	0.75	-0.346
_end
