data_functionalizedCrystal
_audit_creation_method	'EQeq! by Chris Wilmer'
_symmetry_space_group_name_H-M	'P1'
_symmetry_Int_Tables_number	1
_symmetry_cell_setting	triclinic
loop_
_symmetry_equiv_pos_as_xyz
  x,y,z
_cell_length_a	6.4018
_cell_length_b	8.9909
_cell_length_c	26.271
_cell_angle_alpha	90
_cell_angle_beta	90
_cell_angle_gamma	90
loop_
_atom_site_label
_atom_site_type_symbol
_atom_site_fract_x
_atom_site_fract_y
_atom_site_fract_z
_atom_site_charge
Mof_Co	Co	1.09977e-32	1.66943e-32	0.71477	1.118
Mof_Co	Co	0.5	0	0.78523	1.137
Mof_Co	Co	-2.06528e-32	0	0.28523	1.118
Mof_Co	Co	0.5	0	0.21477	1.137
Mof_H 	H 	0.7544	0.8767	0.6265	0.043
Mof_H 	H 	0.7479	0.872	0.5394	0.086
Mof_H 	H 	0.2544	0.1233	0.8735	0.043
Mof_H 	H 	0.2479	0.128	0.9606	0.088
Mof_H 	H 	0.7456	0.8767	0.8735	0.053
Mof_H 	H 	0.7521	0.872	0.9606	0.102
Mof_H 	H 	0.2456	0.1233	0.6265	0.055
Mof_H 	H 	0.2521	0.128	0.5394	0.091
Mof_H 	H 	0.2456	0.1233	0.3735	0.055
Mof_H 	H 	0.2521	0.128	0.4606	0.091
Mof_H 	H 	0.7456	0.8767	0.1265	0.053
Mof_H 	H 	0.7521	0.872	0.0394	0.102
Mof_H 	H 	0.2544	0.1233	0.1265	0.043
Mof_H 	H 	0.2479	0.128	0.0394	0.088
Mof_H 	H 	0.7544	0.8767	0.3735	0.043
Mof_H 	H 	0.7479	0.872	0.4606	0.086
Mof_C 	C 	0.7563	0.4916	0.79401	0.357
Mof_C 	C 	0.7605	0.3372	0.7941	0.158
Mof_C 	C 	0.8572	0.9281	0.6087	0.258
Mof_C 	C 	0.8519	0.925	0.5561	0.091
Mof_C 	C 	0.2563	0.5084	0.70599	0.346
Mof_C 	C 	0.2605	0.6628	0.7059	0.156
Mof_C 	C 	0.3572	0.0719	0.8913	0.085
Mof_C 	C 	0.3519	0.075	0.9439	-0.085
Mof_C 	C 	0.7437	0.4916	0.70599	0.356
Mof_C 	C 	0.7395	0.3372	0.7059	0.158
Mof_C 	C 	0.6428	0.9281	0.8913	0.233
Mof_C 	C 	0.6481	0.925	0.9439	0.043
Mof_C 	C 	0.2437	0.5084	0.79401	0.345
Mof_C 	C 	0.2395	0.6628	0.7941	0.155
Mof_C 	C 	0.1428	0.0719	0.6087	0.07
Mof_C 	C 	0.1481	0.075	0.5561	-0.071
Mof_C 	C 	0.2437	0.5084	0.20599	0.345
Mof_C 	C 	0.2395	0.6628	0.2059	0.155
Mof_C 	C 	0.1428	0.0719	0.3913	0.07
Mof_C 	C 	0.1481	0.075	0.4439	-0.071
Mof_C 	C 	0.7437	0.4916	0.29401	0.356
Mof_C 	C 	0.7395	0.3372	0.2941	0.158
Mof_C 	C 	0.6428	0.9281	0.1087	0.233
Mof_C 	C 	0.6481	0.925	0.0561	0.043
Mof_C 	C 	0.2563	0.5084	0.29401	0.346
Mof_C 	C 	0.2605	0.6628	0.2941	0.156
Mof_C 	C 	0.3572	0.0719	0.1087	0.085
Mof_C 	C 	0.3519	0.075	0.0561	-0.085
Mof_C 	C 	0.7563	0.4916	0.20599	0.357
Mof_C 	C 	0.7605	0.3372	0.2059	0.158
Mof_C 	C 	0.8572	0.9281	0.3913	0.258
Mof_C 	C 	0.8519	0.925	0.4439	0.091
Mof_C 	C 	8.13477e-33	0	0.5287	-0.084
Mof_C 	C 	0.5	0	0.9713	-0.039
Mof_C 	C 	7.2516e-33	0	0.4713	-0.084
Mof_C 	C 	0.5	1.04339e-33	0.0287	-0.039
Mof_C 	C 	0.75	0.7417	0.75	0.466
Mof_C 	C 	0.75	0.5731	0.75	-0.275
Mof_C 	C 	0.75	0.256	0.75	0.06
Mof_C 	C 	0.25	0.2583	0.75	0.473
Mof_C 	C 	0.25	0.4269	0.75	-0.294
Mof_C 	C 	0.25	0.744	0.75	0.04
Mof_C 	C 	0.25	0.2583	0.25	0.473
Mof_C 	C 	0.25	0.4269	0.25	-0.294
Mof_C 	C 	0.25	0.744	0.25	0.04
Mof_C 	C 	0.75	0.7417	0.25	0.466
Mof_C 	C 	0.75	0.5731	0.25	-0.275
Mof_C 	C 	0.75	0.256	0.25	0.06
Mof_N 	N 	-2.36183e-32	0	0.635	-0.304
Mof_N 	N 	0.5	0	0.865	-0.28
Mof_N 	N 	-1.10783e-32	-8.34716e-33	0.365	-0.304
Mof_N 	N 	0.5	0	0.135	-0.28
Mof_O 	O 	0.8362	0.8042	0.71308	-0.337
Mof_O 	O 	0.3362	0.1958	0.78692	-0.425
Mof_O 	O 	0.6638	0.8042	0.78692	-0.351
Mof_O 	O 	0.1638	0.1958	0.71308	-0.432
Mof_O 	O 	0.1638	0.1958	0.28692	-0.432
Mof_O 	O 	0.6638	0.8042	0.21308	-0.351
Mof_O 	O 	0.3362	0.1958	0.21308	-0.425
Mof_O 	O 	0.8362	0.8042	0.28692	-0.337
Mof_O 	O 	0.75	0.1051	0.75	-0.442
Mof_O 	O 	0.25	0.8949	0.75	-0.342
Mof_O 	O 	0.25	0.8949	0.25	-0.342
Mof_O 	O 	0.75	0.1051	0.25	-0.442
Mof_F 	F 	0.766	0.5588	0.84013	-0.35
Mof_F 	F 	0.7728	0.2654	0.83923	-0.375
Mof_F 	F 	0.266	0.4412	0.65987	-0.368
Mof_F 	F 	0.2728	0.7346	0.66077	-0.355
Mof_F 	F 	0.734	0.5588	0.65987	-0.352
Mof_F 	F 	0.7272	0.2654	0.66077	-0.375
Mof_F 	F 	0.234	0.4412	0.84013	-0.371
Mof_F 	F 	0.2272	0.7346	0.83923	-0.359
Mof_F 	F 	0.234	0.4412	0.15987	-0.371
Mof_F 	F 	0.2272	0.7346	0.16077	-0.359
Mof_F 	F 	0.734	0.5588	0.34013	-0.352
Mof_F 	F 	0.7272	0.2654	0.33923	-0.375
Mof_F 	F 	0.266	0.4412	0.34013	-0.368
Mof_F 	F 	0.2728	0.7346	0.33923	-0.355
Mof_F 	F 	0.766	0.5588	0.15987	-0.35
Mof_F 	F 	0.7728	0.2654	0.16077	-0.375
_end
