data_functionalizedCrystal
_audit_creation_method	'EQeq! by Chris Wilmer'
_symmetry_space_group_name_H-M	'P1'
_symmetry_Int_Tables_number	1
_symmetry_cell_setting	triclinic
loop_
_symmetry_equiv_pos_as_xyz
  x,y,z
_cell_length_a	8.673
_cell_length_b	9.411
_cell_length_c	10.048
_cell_angle_alpha	63.708
_cell_angle_beta	76.113
_cell_angle_gamma	75.45
loop_
_atom_site_label
_atom_site_type_symbol
_atom_site_fract_x
_atom_site_fract_y
_atom_site_fract_z
_atom_site_charge
Mof_Nd	Nd	0.3298	0.36454	0.84235	2.587
Mof_O 	O 	0.0808	0.3024	0.0217	-0.465
Mof_O 	O 	0.3262	0.0794	0.9176	-0.494
Mof_O 	O 	0.5281	0.3094	0.6436	-0.477
Mof_O 	O 	0.5297	0.5244	0.8123	-0.462
Mof_O 	O 	0.4355	0.8228	0.0371	-0.446
Mof_O 	O 	0.8618	0.3972	0.1499	-0.467
Mof_O 	O 	0.6596	0.6073	0.9255	-0.456
Mof_O 	O 	0.662	0.4071	0.4079	-0.461
Mof_C 	C 	0.984	0.4109	0.05	0.278
Mof_C 	C 	0.4299	0.9737	0.9861	0.292
Mof_C 	C 	0.5555	0.4183	0.5148	0.273
Mof_C 	C 	0.5552	0.5387	0.9238	0.297
Mof_Nd	Nd	0.6702	0.63546	0.15765	2.588
Mof_O 	O 	0.9192	0.6976	0.9783	-0.464
Mof_O 	O 	0.6738	0.9206	0.0824	-0.494
Mof_O 	O 	0.4719	0.6906	0.3564	-0.477
Mof_O 	O 	0.4703	0.4756	0.1877	-0.462
Mof_O 	O 	0.5645	0.1772	0.9629	-0.446
Mof_O 	O 	0.1382	0.6028	0.8501	-0.467
Mof_O 	O 	0.3404	0.3927	0.0745	-0.456
Mof_O 	O 	0.338	0.5929	0.5921	-0.461
Mof_C 	C 	0.016	0.5891	0.95	0.278
Mof_C 	C 	0.5701	0.0263	0.0139	0.292
Mof_C 	C 	0.4445	0.5817	0.4852	0.273
Mof_C 	C 	0.4448	0.4613	0.0762	0.297
_end
