data_functionalizedCrystal
_audit_creation_method	'EQeq! by Chris Wilmer'
_symmetry_space_group_name_H-M	'P1'
_symmetry_Int_Tables_number	1
_symmetry_cell_setting	triclinic
loop_
_symmetry_equiv_pos_as_xyz
  x,y,z
_cell_length_a	10.8137
_cell_length_b	19.04
_cell_length_c	19.246
_cell_angle_alpha	90
_cell_angle_beta	98.338
_cell_angle_gamma	90
loop_
_atom_site_label
_atom_site_type_symbol
_atom_site_fract_x
_atom_site_fract_y
_atom_site_fract_z
_atom_site_charge
Mof_Eu	Eu	0.58507	0.37469	0.85702	1.727
Mof_N 	N 	0.7551	0.4623	0.9173	-0.175
Mof_C 	C 	0.7422	0.5075	0.9684	-0.102
Mof_H 	H 	0.6726	0.5031	0.9922	0.046
Mof_C 	C 	0.8273	0.5607	0.9879	0.231
Mof_N 	N 	0.9282	0.5676	0.9563	-0.17
Mof_C 	C 	0.9435	0.5218	0.9063	0.081
Mof_H 	H 	0.015	0.5251	0.8839	0.009
Mof_C 	C 	0.8578	0.4696	0.8862	-0.121
Mof_C 	C 	0.8063	0.6126	0.0432	-0.634
Mof_H 	H 	0.882	0.6173	0.0766	0.215
Mof_H 	H 	0.7388	0.5964	0.0673	0.205
Mof_H 	H 	0.7844	0.6578	0.0215	0.207
Mof_C 	C 	0.8711	0.4195	0.8279	0.407
Mof_O 	O 	0.9723	0.4173	0.8043	-0.479
Mof_O 	O 	0.7775	0.3829	0.8067	-0.535
Mof_N 	N 	0.4688	0.2601	0.8878	-0.172
Mof_C 	C 	0.5157	0.2077	0.9284	-0.086
Mof_H 	H 	0.5987	0.2109	0.9508	0.023
Mof_C 	C 	0.4471	0.1484	0.939	0.212
Mof_N 	N 	0.3314	0.1404	0.9061	-0.179
Mof_C 	C 	0.2834	0.1928	0.8649	0.076
Mof_H 	H 	0.2015	0.1887	0.841	-0.005
Mof_C 	C 	0.3508	0.253	0.8564	-0.114
Mof_C 	C 	0.501	0.0921	0.9876	-0.57
Mof_H 	H 	0.44	0.0778	0.0172	0.166
Mof_H 	H 	0.5754	0.1095	0.0167	0.171
Mof_H 	H 	0.5228	0.0521	0.9606	0.168
Mof_C 	C 	0.2979	0.3136	0.8135	0.421
Mof_O 	O 	0.1882	0.3088	0.7825	-0.496
Mof_O 	O 	0.3658	0.3667	0.8131	-0.525
Mof_N 	N 	0.4904	0.4914	0.8734	-0.211
Mof_N 	N 	0.5456	0.377	0.9802	-0.222
Mof_N 	N 	0.5765	0.2867	0.7637	-0.221
Mof_Eu	Eu	0.04951	0.37102	0.70109	1.248
Mof_Mo	Mo	0.46128	0.66168	0.854	1.035
Mof_C 	C 	0.4812	0.5508	0.8686	-0.119
Mof_C 	C 	0.5375	0.3642	0.0377	-0.12
Mof_C 	C 	0.5596	0.2434	0.7224	-0.124
Mof_C 	C 	0.6459	0.6427	0.8285	-0.15
Mof_N 	N 	0.7423	0.6342	0.8122	-0.086
Mof_C 	C 	0.2705	0.6276	0.8368	-0.161
Mof_N 	N 	0.1698	0.6073	0.8273	-0.091
Mof_C 	C 	0.4311	0.6139	0.7508	-0.142
Mof_N 	N 	0.415	0.5861	0.6975	-0.103
Mof_C 	C 	0.3511	0.7417	0.8949	-0.152
Mof_N 	N 	0.2888	0.783	0.9157	-0.128
Mof_C 	C 	0.5932	0.7374	0.9063	-0.146
Mof_N 	N 	0.6632	0.778	0.9318	-0.11
Mof_Eu	Eu	0.41493	0.87469	0.64298	1.727
Mof_N 	N 	0.2449	0.9623	0.5827	-0.175
Mof_C 	C 	0.2578	0.0075	0.5316	-0.103
Mof_H 	H 	0.3274	0.0031	0.5078	0.046
Mof_C 	C 	0.1727	0.0607	0.5121	0.232
Mof_N 	N 	0.0718	0.0676	0.5437	-0.169
Mof_C 	C 	0.0565	0.0218	0.5937	0.073
Mof_H 	H 	0.985	0.0251	0.6161	0.014
Mof_C 	C 	0.1422	0.9696	0.6138	-0.115
Mof_C 	C 	0.1937	0.1126	0.4568	-0.635
Mof_H 	H 	0.118	0.1173	0.4234	0.214
Mof_H 	H 	0.2612	0.0964	0.4327	0.205
Mof_H 	H 	0.2156	0.1578	0.4785	0.207
Mof_C 	C 	0.1289	0.9195	0.6721	0.405
Mof_O 	O 	0.0277	0.9173	0.6957	-0.477
Mof_O 	O 	0.2225	0.8829	0.6933	-0.534
Mof_N 	N 	0.5312	0.7601	0.6122	-0.172
Mof_C 	C 	0.4843	0.7077	0.5716	-0.09
Mof_H 	H 	0.4013	0.7109	0.5492	0.024
Mof_C 	C 	0.5529	0.6484	0.561	0.217
Mof_N 	N 	0.6686	0.6404	0.5939	-0.18
Mof_C 	C 	0.7166	0.6928	0.6351	0.076
Mof_H 	H 	0.7985	0.6887	0.659	-0.005
Mof_C 	C 	0.6492	0.753	0.6436	-0.115
Mof_C 	C 	0.499	0.5921	0.5124	-0.589
Mof_H 	H 	0.56	0.5778	0.4828	0.174
Mof_H 	H 	0.4246	0.6095	0.4833	0.178
Mof_H 	H 	0.4772	0.5521	0.5394	0.173
Mof_C 	C 	0.7021	0.8136	0.6865	0.421
Mof_O 	O 	0.8118	0.8088	0.7175	-0.496
Mof_O 	O 	0.6342	0.8667	0.6869	-0.525
Mof_N 	N 	0.5096	0.9914	0.6266	-0.211
Mof_N 	N 	0.4544	0.877	0.5198	-0.222
Mof_N 	N 	0.4235	0.7867	0.7363	-0.221
Mof_Eu	Eu	0.95049	0.87102	0.79891	1.242
Mof_Mo	Mo	0.53872	0.16168	0.646	1.035
Mof_C 	C 	0.5188	0.0508	0.6314	-0.118
Mof_C 	C 	0.4625	0.8642	0.4623	-0.119
Mof_C 	C 	0.4404	0.7434	0.7776	-0.124
Mof_C 	C 	0.3541	0.1427	0.6715	-0.15
Mof_N 	N 	0.2577	0.1342	0.6878	-0.086
Mof_C 	C 	0.7295	0.1276	0.6632	-0.161
Mof_N 	N 	0.8302	0.1073	0.6727	-0.091
Mof_C 	C 	0.5689	0.1139	0.7492	-0.141
Mof_N 	N 	0.585	0.0861	0.8025	-0.103
Mof_C 	C 	0.6489	0.2417	0.6051	-0.152
Mof_N 	N 	0.7112	0.283	0.5843	-0.128
Mof_C 	C 	0.4068	0.2374	0.5937	-0.146
Mof_N 	N 	0.3368	0.278	0.5682	-0.109
Mof_Eu	Eu	0.41493	0.62531	0.14298	1.727
Mof_N 	N 	0.2449	0.5377	0.0827	-0.175
Mof_C 	C 	0.2578	0.4925	0.0316	-0.102
Mof_H 	H 	0.3274	0.4969	0.0078	0.046
Mof_C 	C 	0.1727	0.4393	0.0121	0.231
Mof_N 	N 	0.0718	0.4324	0.0437	-0.17
Mof_C 	C 	0.0565	0.4782	0.0937	0.081
Mof_H 	H 	0.985	0.4749	0.1161	0.009
Mof_C 	C 	0.1422	0.5304	0.1138	-0.121
Mof_C 	C 	0.1937	0.3874	0.9568	-0.634
Mof_H 	H 	0.118	0.3827	0.9234	0.215
Mof_H 	H 	0.2612	0.4036	0.9327	0.205
Mof_H 	H 	0.2156	0.3422	0.9785	0.207
Mof_C 	C 	0.1289	0.5805	0.1721	0.407
Mof_O 	O 	0.0277	0.5827	0.1957	-0.479
Mof_O 	O 	0.2225	0.6171	0.1933	-0.535
Mof_N 	N 	0.5312	0.7399	0.1122	-0.172
Mof_C 	C 	0.4843	0.7923	0.0716	-0.086
Mof_H 	H 	0.4013	0.7891	0.0492	0.023
Mof_C 	C 	0.5529	0.8516	0.061	0.212
Mof_N 	N 	0.6686	0.8596	0.0939	-0.179
Mof_C 	C 	0.7166	0.8072	0.1351	0.076
Mof_H 	H 	0.7985	0.8113	0.159	-0.005
Mof_C 	C 	0.6492	0.747	0.1436	-0.114
Mof_C 	C 	0.499	0.9079	0.0124	-0.57
Mof_H 	H 	0.56	0.9222	0.9828	0.166
Mof_H 	H 	0.4246	0.8905	0.9833	0.171
Mof_H 	H 	0.4772	0.9479	0.0394	0.168
Mof_C 	C 	0.7021	0.6864	0.1865	0.421
Mof_O 	O 	0.8118	0.6912	0.2175	-0.496
Mof_O 	O 	0.6342	0.6333	0.1869	-0.525
Mof_N 	N 	0.5096	0.5086	0.1266	-0.211
Mof_N 	N 	0.4544	0.623	0.0198	-0.222
Mof_N 	N 	0.4235	0.7133	0.2363	-0.221
Mof_Eu	Eu	0.95049	0.62898	0.29891	1.248
Mof_Mo	Mo	0.53872	0.33832	0.146	1.035
Mof_C 	C 	0.5188	0.4492	0.1314	-0.119
Mof_C 	C 	0.4625	0.6358	0.9623	-0.12
Mof_C 	C 	0.4404	0.7566	0.2776	-0.124
Mof_C 	C 	0.3541	0.3573	0.1715	-0.15
Mof_N 	N 	0.2577	0.3658	0.1878	-0.086
Mof_C 	C 	0.7295	0.3724	0.1632	-0.161
Mof_N 	N 	0.8302	0.3927	0.1727	-0.091
Mof_C 	C 	0.5689	0.3861	0.2492	-0.142
Mof_N 	N 	0.585	0.4139	0.3025	-0.103
Mof_C 	C 	0.6489	0.2583	0.1051	-0.152
Mof_N 	N 	0.7112	0.217	0.0843	-0.128
Mof_C 	C 	0.4068	0.2626	0.0937	-0.146
Mof_N 	N 	0.3368	0.222	0.0682	-0.11
Mof_Eu	Eu	0.58507	0.12531	0.35702	1.727
Mof_N 	N 	0.7551	0.0377	0.4173	-0.175
Mof_C 	C 	0.7422	0.9925	0.4684	-0.103
Mof_H 	H 	0.6726	0.9969	0.4922	0.046
Mof_C 	C 	0.8273	0.9393	0.4879	0.232
Mof_N 	N 	0.9282	0.9324	0.4563	-0.169
Mof_C 	C 	0.9435	0.9782	0.4063	0.073
Mof_H 	H 	0.015	0.9749	0.3839	0.014
Mof_C 	C 	0.8578	0.0304	0.3862	-0.115
Mof_C 	C 	0.8063	0.8874	0.5432	-0.635
Mof_H 	H 	0.882	0.8827	0.5766	0.214
Mof_H 	H 	0.7388	0.9036	0.5673	0.205
Mof_H 	H 	0.7844	0.8422	0.5215	0.207
Mof_C 	C 	0.8711	0.0805	0.3279	0.405
Mof_O 	O 	0.9723	0.0827	0.3043	-0.477
Mof_O 	O 	0.7775	0.1171	0.3067	-0.534
Mof_N 	N 	0.4688	0.2399	0.3878	-0.172
Mof_C 	C 	0.5157	0.2923	0.4284	-0.09
Mof_H 	H 	0.5987	0.2891	0.4508	0.024
Mof_C 	C 	0.4471	0.3516	0.439	0.217
Mof_N 	N 	0.3314	0.3596	0.4061	-0.18
Mof_C 	C 	0.2834	0.3072	0.3649	0.076
Mof_H 	H 	0.2015	0.3113	0.341	-0.005
Mof_C 	C 	0.3508	0.247	0.3564	-0.115
Mof_C 	C 	0.501	0.4079	0.4876	-0.589
Mof_H 	H 	0.44	0.4222	0.5172	0.174
Mof_H 	H 	0.5754	0.3905	0.5167	0.178
Mof_H 	H 	0.5228	0.4479	0.4606	0.173
Mof_C 	C 	0.2979	0.1864	0.3135	0.421
Mof_O 	O 	0.1882	0.1912	0.2825	-0.496
Mof_O 	O 	0.3658	0.1333	0.3131	-0.525
Mof_N 	N 	0.4904	0.0086	0.3734	-0.211
Mof_N 	N 	0.5456	0.123	0.4802	-0.222
Mof_N 	N 	0.5765	0.2133	0.2637	-0.221
Mof_Eu	Eu	0.04951	0.12898	0.20109	1.242
Mof_Mo	Mo	0.46128	0.83832	0.354	1.035
Mof_C 	C 	0.4812	0.9492	0.3686	-0.118
Mof_C 	C 	0.5375	0.1358	0.5377	-0.119
Mof_C 	C 	0.5596	0.2566	0.2224	-0.124
Mof_C 	C 	0.6459	0.8573	0.3285	-0.15
Mof_N 	N 	0.7423	0.8658	0.3122	-0.086
Mof_C 	C 	0.2705	0.8724	0.3368	-0.161
Mof_N 	N 	0.1698	0.8927	0.3273	-0.091
Mof_C 	C 	0.4311	0.8861	0.2508	-0.141
Mof_N 	N 	0.415	0.9139	0.1975	-0.103
Mof_C 	C 	0.3511	0.7583	0.3949	-0.152
Mof_N 	N 	0.2888	0.717	0.4157	-0.128
Mof_C 	C 	0.5932	0.7626	0.4063	-0.146
Mof_N 	N 	0.6632	0.722	0.4318	-0.109
_end
