data_functionalizedCrystal
_audit_creation_method	'EQeq! by Chris Wilmer'
_symmetry_space_group_name_H-M	'P1'
_symmetry_Int_Tables_number	1
_symmetry_cell_setting	triclinic
loop_
_symmetry_equiv_pos_as_xyz
  x,y,z
_cell_length_a	21.8947
_cell_length_b	8.3062
_cell_length_c	23.2034
_cell_angle_alpha	90
_cell_angle_beta	100.053
_cell_angle_gamma	90
loop_
_atom_site_label
_atom_site_type_symbol
_atom_site_fract_x
_atom_site_fract_y
_atom_site_fract_z
_atom_site_charge
Mof_C 	C 	0.171	0.216	0.1768	0.422
Mof_C 	C 	0.1279	0.0872	0.1514	-0.232
Mof_C 	C 	0.0918	0.1198	0.0967	0.023
Mof_H 	H 	0.0959	0.2188	0.0791	0.05
Mof_C 	C 	0.0506	0.0098	0.0684	0.029
Mof_C 	C 	0.0439	0.8619	0.0958	0.022
Mof_H 	H 	0.0157	0.7859	0.0777	0.038
Mof_C 	C 	0.0788	0.8299	0.1492	-0.221
Mof_H 	H 	0.0735	0.7317	0.1669	0.102
Mof_C 	C 	0.1225	0.9388	0.1787	0.307
Mof_C 	C 	0.26	0.2973	0.3582	0.518
Mof_C 	C 	0.2808	0.3509	0.4204	-0.266
Mof_C 	C 	0.321	0.2537	0.4602	0.321
Mof_C 	C 	0.3422	0.3111	0.5164	-0.24
Mof_H 	H 	0.3693	0.2489	0.5427	0.133
Mof_C 	C 	0.3236	0.4579	0.5332	0.065
Mof_H 	H 	0.3383	0.4943	0.571	0.004
Mof_C 	C 	0.2831	0.5544	0.495	-0.001
Mof_C 	C 	0.2628	0.4987	0.4386	0.081
Mof_H 	H 	0.2364	0.5627	0.4124	0.014
Mof_Er	Er	0.24755	0.46526	0.22838	1.813
Mof_H 	H 	0.332	0.092	0.4103	0.265
Mof_N 	N 	0.0179	0.0538	0.0123	-0.078
Mof_N 	N 	0.265	0.7034	0.51817	-0.073
Mof_O 	O 	0.16953	0.3528	0.15388	-0.463
Mof_O 	O 	0.21077	0.1914	0.22433	-0.64
Mof_O 	O 	0.27086	0.1546	0.34514	-0.55
Mof_O 	O 	0.15584	0.8963	0.22953	-0.492
Mof_O 	O 	0.23443	0.4012	0.32299	-0.528
Mof_O 	O 	0.3407	0.1055	0.44712	-0.421
Mof_C 	C 	0.671	0.716	0.1768	0.427
Mof_C 	C 	0.6279	0.5872	0.1514	-0.241
Mof_C 	C 	0.5918	0.6198	0.0967	0.031
Mof_H 	H 	0.5959	0.7188	0.0791	0.048
Mof_C 	C 	0.5506	0.5098	0.0684	0.021
Mof_C 	C 	0.5439	0.3619	0.0958	0.033
Mof_H 	H 	0.5157	0.2859	0.0777	0.035
Mof_C 	C 	0.5788	0.3299	0.1492	-0.229
Mof_H 	H 	0.5735	0.2317	0.1669	0.106
Mof_C 	C 	0.6225	0.4388	0.1787	0.316
Mof_C 	C 	0.76	0.7973	0.3582	0.518
Mof_C 	C 	0.7808	0.8509	0.4204	-0.264
Mof_C 	C 	0.821	0.7537	0.4602	0.32
Mof_C 	C 	0.8422	0.8111	0.5164	-0.239
Mof_H 	H 	0.8693	0.7489	0.5427	0.133
Mof_C 	C 	0.8236	0.9579	0.5332	0.063
Mof_H 	H 	0.8383	0.9943	0.571	0.006
Mof_C 	C 	0.7831	0.0544	0.495	0.002
Mof_C 	C 	0.7628	0.9987	0.4386	0.075
Mof_H 	H 	0.7364	0.0627	0.4124	0.018
Mof_Er	Er	0.74755	0.96526	0.22838	1.804
Mof_H 	H 	0.832	0.592	0.4103	0.264
Mof_N 	N 	0.5179	0.5538	0.0123	-0.077
Mof_N 	N 	0.765	0.2034	0.51817	-0.074
Mof_O 	O 	0.66953	0.8528	0.15388	-0.464
Mof_O 	O 	0.71077	0.6914	0.22433	-0.642
Mof_O 	O 	0.77086	0.6546	0.34514	-0.552
Mof_O 	O 	0.65584	0.3963	0.22953	-0.494
Mof_O 	O 	0.73443	0.9012	0.32299	-0.528
Mof_O 	O 	0.8407	0.6055	0.44712	-0.421
Mof_C 	C 	0.829	0.216	0.3232	0.424
Mof_C 	C 	0.8721	0.0872	0.3486	-0.233
Mof_C 	C 	0.9082	0.1198	0.4033	0.026
Mof_H 	H 	0.9041	0.2188	0.4209	0.051
Mof_C 	C 	0.9494	0.0098	0.4316	0.027
Mof_C 	C 	0.9561	0.8619	0.4042	0.025
Mof_H 	H 	0.9843	0.7859	0.4223	0.037
Mof_C 	C 	0.9212	0.8299	0.3508	-0.223
Mof_H 	H 	0.9265	0.7317	0.3331	0.103
Mof_C 	C 	0.8775	0.9388	0.3213	0.308
Mof_C 	C 	0.74	0.2973	0.1418	0.518
Mof_C 	C 	0.7192	0.3509	0.0796	-0.267
Mof_C 	C 	0.679	0.2537	0.0398	0.323
Mof_C 	C 	0.6578	0.3111	0.9836	-0.243
Mof_H 	H 	0.6307	0.2489	0.9573	0.134
Mof_C 	C 	0.6764	0.4579	0.9668	0.067
Mof_H 	H 	0.6617	0.4943	0.929	0.004
Mof_C 	C 	0.7169	0.5544	0.005	-0.003
Mof_C 	C 	0.7372	0.4987	0.0614	0.082
Mof_H 	H 	0.7636	0.5627	0.0876	0.014
Mof_Er	Er	0.75245	0.46526	0.27162	1.813
Mof_H 	H 	0.668	0.092	0.0897	0.265
Mof_N 	N 	0.9821	0.0538	0.4877	-0.078
Mof_N 	N 	0.735	0.7034	0.98183	-0.072
Mof_O 	O 	0.83047	0.3528	0.34612	-0.463
Mof_O 	O 	0.78923	0.1914	0.27567	-0.64
Mof_O 	O 	0.72914	0.1546	0.15486	-0.55
Mof_O 	O 	0.84416	0.8963	0.27047	-0.493
Mof_O 	O 	0.76557	0.4012	0.17701	-0.528
Mof_O 	O 	0.6593	0.1055	0.05288	-0.421
Mof_C 	C 	0.329	0.716	0.3232	0.426
Mof_C 	C 	0.3721	0.5872	0.3486	-0.241
Mof_C 	C 	0.4082	0.6198	0.4033	0.031
Mof_H 	H 	0.4041	0.7188	0.4209	0.049
Mof_C 	C 	0.4494	0.5098	0.4316	0.021
Mof_C 	C 	0.4561	0.3619	0.4042	0.033
Mof_H 	H 	0.4843	0.2859	0.4223	0.035
Mof_C 	C 	0.4212	0.3299	0.3508	-0.229
Mof_H 	H 	0.4265	0.2317	0.3331	0.106
Mof_C 	C 	0.3775	0.4388	0.3213	0.316
Mof_C 	C 	0.24	0.7973	0.1418	0.516
Mof_C 	C 	0.2192	0.8509	0.0796	-0.261
Mof_C 	C 	0.179	0.7537	0.0398	0.316
Mof_C 	C 	0.1578	0.8111	0.9836	-0.234
Mof_H 	H 	0.1307	0.7489	0.9573	0.131
Mof_C 	C 	0.1764	0.9579	0.9668	0.059
Mof_H 	H 	0.1617	0.9943	0.929	0.008
Mof_C 	C 	0.2169	0.0544	0.005	0.007
Mof_C 	C 	0.2372	0.9987	0.0614	0.068
Mof_H 	H 	0.2636	0.0627	0.0876	0.021
Mof_Er	Er	0.25245	0.96526	0.27162	1.805
Mof_H 	H 	0.168	0.592	0.0897	0.264
Mof_N 	N 	0.4821	0.5538	0.4877	-0.077
Mof_N 	N 	0.235	0.2034	0.98183	-0.076
Mof_O 	O 	0.33047	0.8528	0.34612	-0.464
Mof_O 	O 	0.28923	0.6914	0.27567	-0.642
Mof_O 	O 	0.22914	0.6546	0.15486	-0.552
Mof_O 	O 	0.34416	0.3963	0.27047	-0.494
Mof_O 	O 	0.26557	0.9012	0.17701	-0.528
Mof_O 	O 	0.1593	0.6055	0.05288	-0.42
Mof_C 	C 	0.829	0.784	0.8232	0.423
Mof_C 	C 	0.8721	0.9128	0.8486	-0.231
Mof_C 	C 	0.9082	0.8802	0.9033	0.024
Mof_H 	H 	0.9041	0.7812	0.9209	0.051
Mof_C 	C 	0.9494	0.9902	0.9316	0.029
Mof_C 	C 	0.9561	0.1381	0.9042	0.022
Mof_H 	H 	0.9843	0.2141	0.9223	0.038
Mof_C 	C 	0.9212	0.1701	0.8508	-0.221
Mof_H 	H 	0.9265	0.2683	0.8331	0.102
Mof_C 	C 	0.8775	0.0612	0.8213	0.307
Mof_C 	C 	0.74	0.7027	0.6418	0.518
Mof_C 	C 	0.7192	0.6491	0.5796	-0.266
Mof_C 	C 	0.679	0.7463	0.5398	0.321
Mof_C 	C 	0.6578	0.6889	0.4836	-0.24
Mof_H 	H 	0.6307	0.7511	0.4573	0.133
Mof_C 	C 	0.6764	0.5421	0.4668	0.065
Mof_H 	H 	0.6617	0.5057	0.429	0.004
Mof_C 	C 	0.7169	0.4456	0.505	-0.001
Mof_C 	C 	0.7372	0.5013	0.5614	0.081
Mof_H 	H 	0.7636	0.4373	0.5876	0.014
Mof_Er	Er	0.75245	0.53474	0.77162	1.813
Mof_H 	H 	0.668	0.908	0.5897	0.265
Mof_N 	N 	0.9821	0.9462	0.9877	-0.078
Mof_N 	N 	0.735	0.2966	0.48183	-0.073
Mof_O 	O 	0.83047	0.6472	0.84612	-0.463
Mof_O 	O 	0.78923	0.8086	0.77567	-0.64
Mof_O 	O 	0.72914	0.8454	0.65486	-0.55
Mof_O 	O 	0.84416	0.1037	0.77047	-0.492
Mof_O 	O 	0.76557	0.5988	0.67701	-0.528
Mof_O 	O 	0.6593	0.8945	0.55288	-0.421
Mof_C 	C 	0.329	0.284	0.8232	0.427
Mof_C 	C 	0.3721	0.4128	0.8486	-0.241
Mof_C 	C 	0.4082	0.3802	0.9033	0.031
Mof_H 	H 	0.4041	0.2812	0.9209	0.048
Mof_C 	C 	0.4494	0.4902	0.9316	0.021
Mof_C 	C 	0.4561	0.6381	0.9042	0.033
Mof_H 	H 	0.4843	0.7141	0.9223	0.035
Mof_C 	C 	0.4212	0.6701	0.8508	-0.229
Mof_H 	H 	0.4265	0.7683	0.8331	0.106
Mof_C 	C 	0.3775	0.5612	0.8213	0.316
Mof_C 	C 	0.24	0.2027	0.6418	0.518
Mof_C 	C 	0.2192	0.1491	0.5796	-0.264
Mof_C 	C 	0.179	0.2463	0.5398	0.32
Mof_C 	C 	0.1578	0.1889	0.4836	-0.239
Mof_H 	H 	0.1307	0.2511	0.4573	0.133
Mof_C 	C 	0.1764	0.0421	0.4668	0.063
Mof_H 	H 	0.1617	0.0057	0.429	0.006
Mof_C 	C 	0.2169	0.9456	0.505	0.002
Mof_C 	C 	0.2372	0.0013	0.5614	0.075
Mof_H 	H 	0.2636	0.9373	0.5876	0.018
Mof_Er	Er	0.25245	0.03474	0.77162	1.804
Mof_H 	H 	0.168	0.408	0.5897	0.264
Mof_N 	N 	0.4821	0.4462	0.9877	-0.077
Mof_N 	N 	0.235	0.7966	0.48183	-0.074
Mof_O 	O 	0.33047	0.1472	0.84612	-0.464
Mof_O 	O 	0.28923	0.3086	0.77567	-0.642
Mof_O 	O 	0.22914	0.3454	0.65486	-0.552
Mof_O 	O 	0.34416	0.6037	0.77047	-0.494
Mof_O 	O 	0.26557	0.0988	0.67701	-0.528
Mof_O 	O 	0.1593	0.3945	0.55288	-0.421
Mof_C 	C 	0.171	0.784	0.6768	0.424
Mof_C 	C 	0.1279	0.9128	0.6514	-0.233
Mof_C 	C 	0.0918	0.8802	0.5967	0.026
Mof_H 	H 	0.0959	0.7812	0.5791	0.051
Mof_C 	C 	0.0506	0.9902	0.5684	0.027
Mof_C 	C 	0.0439	0.1381	0.5958	0.025
Mof_H 	H 	0.0157	0.2141	0.5777	0.037
Mof_C 	C 	0.0788	0.1701	0.6492	-0.223
Mof_H 	H 	0.0735	0.2683	0.6669	0.103
Mof_C 	C 	0.1225	0.0612	0.6787	0.308
Mof_C 	C 	0.26	0.7027	0.8582	0.518
Mof_C 	C 	0.2808	0.6491	0.9204	-0.267
Mof_C 	C 	0.321	0.7463	0.9602	0.323
Mof_C 	C 	0.3422	0.6889	0.0164	-0.243
Mof_H 	H 	0.3693	0.7511	0.0427	0.134
Mof_C 	C 	0.3236	0.5421	0.0332	0.067
Mof_H 	H 	0.3383	0.5057	0.071	0.004
Mof_C 	C 	0.2831	0.4456	0.995	-0.003
Mof_C 	C 	0.2628	0.5013	0.9386	0.082
Mof_H 	H 	0.2364	0.4373	0.9124	0.014
Mof_Er	Er	0.24755	0.53474	0.72838	1.813
Mof_H 	H 	0.332	0.908	0.9103	0.265
Mof_N 	N 	0.0179	0.9462	0.5123	-0.078
Mof_N 	N 	0.265	0.2966	0.01817	-0.072
Mof_O 	O 	0.16953	0.6472	0.65388	-0.463
Mof_O 	O 	0.21077	0.8086	0.72433	-0.64
Mof_O 	O 	0.27086	0.8454	0.84514	-0.55
Mof_O 	O 	0.15584	0.1037	0.72953	-0.493
Mof_O 	O 	0.23443	0.5988	0.82299	-0.528
Mof_O 	O 	0.3407	0.8945	0.94712	-0.421
Mof_C 	C 	0.671	0.284	0.6768	0.426
Mof_C 	C 	0.6279	0.4128	0.6514	-0.241
Mof_C 	C 	0.5918	0.3802	0.5967	0.031
Mof_H 	H 	0.5959	0.2812	0.5791	0.049
Mof_C 	C 	0.5506	0.4902	0.5684	0.021
Mof_C 	C 	0.5439	0.6381	0.5958	0.033
Mof_H 	H 	0.5157	0.7141	0.5777	0.035
Mof_C 	C 	0.5788	0.6701	0.6492	-0.229
Mof_H 	H 	0.5735	0.7683	0.6669	0.106
Mof_C 	C 	0.6225	0.5612	0.6787	0.316
Mof_C 	C 	0.76	0.2027	0.8582	0.516
Mof_C 	C 	0.7808	0.1491	0.9204	-0.261
Mof_C 	C 	0.821	0.2463	0.9602	0.316
Mof_C 	C 	0.8422	0.1889	0.0164	-0.234
Mof_H 	H 	0.8693	0.2511	0.0427	0.131
Mof_C 	C 	0.8236	0.0421	0.0332	0.059
Mof_H 	H 	0.8383	0.0057	0.071	0.008
Mof_C 	C 	0.7831	0.9456	0.995	0.007
Mof_C 	C 	0.7628	0.0013	0.9386	0.068
Mof_H 	H 	0.7364	0.9373	0.9124	0.021
Mof_Er	Er	0.74755	0.03474	0.72838	1.805
Mof_H 	H 	0.832	0.408	0.9103	0.264
Mof_N 	N 	0.5179	0.4462	0.5123	-0.077
Mof_N 	N 	0.765	0.7966	0.01817	-0.076
Mof_O 	O 	0.66953	0.1472	0.65388	-0.464
Mof_O 	O 	0.71077	0.3086	0.72433	-0.642
Mof_O 	O 	0.77086	0.3454	0.84514	-0.552
Mof_O 	O 	0.65584	0.6037	0.72953	-0.494
Mof_O 	O 	0.73443	0.0988	0.82299	-0.528
Mof_O 	O 	0.8407	0.3945	0.94712	-0.42
_end
