data_functionalizedCrystal
_audit_creation_method	'EQeq! by Chris Wilmer'
_symmetry_space_group_name_H-M	'P1'
_symmetry_Int_Tables_number	1
_symmetry_cell_setting	triclinic
loop_
_symmetry_equiv_pos_as_xyz
  x,y,z
_cell_length_a	6.082
_cell_length_b	10.5091
_cell_length_c	13.628
_cell_angle_alpha	72.398
_cell_angle_beta	88.98
_cell_angle_gamma	89.043
loop_
_atom_site_label
_atom_site_type_symbol
_atom_site_fract_x
_atom_site_fract_y
_atom_site_fract_z
_atom_site_charge
Mof_Pr	Pr	0.25128	0.66056	0.70878	2.199
Mof_N 	N 	0.0782	0.887	0.5755	-0.218
Mof_N 	N 	0.434	0.5569	0.8984	-0.223
Mof_N 	N 	0.0896	0.5722	0.5582	-0.217
Mof_O 	O 	0.4534	0.7712	0.5472	-0.495
Mof_O 	O 	0.0633	0.6982	0.8568	-0.518
Mof_O 	O 	0.8458	0.6414	0.6992	-0.536
Mof_O 	O 	0.5601	0.5239	0.6754	-0.521
Mof_C 	C 	0.1867	0.94	0.4861	-0.081
Mof_C 	C 	0.891	0.9474	0.589	0.093
Mof_C 	C 	0.3183	0.5732	0.9773	-0.085
Mof_C 	C 	0.6176	0.4827	0.9213	0.084
Mof_C 	C 	0.8828	0.5289	0.5746	-0.105
Mof_C 	C 	0.2049	0.5435	0.4852	0.094
Mof_C 	C 	0.4	0.8682	0.473	0.371
Mof_C 	C 	0.1096	0.6578	0.9506	0.369
Mof_C 	C 	0.7531	0.5677	0.6562	0.418
Mof_H 	H 	0.8105	0.9137	0.6497	-0.023
Mof_H 	H 	0.7037	0.4684	0.8685	-0.014
Mof_H 	H 	0.3494	0.5723	0.4732	-0.001
Mof_O 	O 	0.5028	0.9113	0.3898	-0.295
Mof_O 	O 	0.9981	0.6792	0.0208	-0.297
Mof_Pr	Pr	0.74872	0.33944	0.29122	2.2
Mof_N 	N 	0.9218	0.113	0.4245	-0.217
Mof_N 	N 	0.566	0.4431	0.1016	-0.223
Mof_N 	N 	0.9104	0.4278	0.4418	-0.217
Mof_O 	O 	0.5466	0.2288	0.4528	-0.495
Mof_O 	O 	0.9367	0.3018	0.1432	-0.518
Mof_O 	O 	0.1542	0.3586	0.3008	-0.536
Mof_O 	O 	0.4399	0.4761	0.3246	-0.521
Mof_C 	C 	0.8133	0.06	0.5139	-0.081
Mof_C 	C 	0.109	0.0526	0.411	0.093
Mof_C 	C 	0.6817	0.4268	0.0227	-0.085
Mof_C 	C 	0.3824	0.5173	0.0787	0.084
Mof_C 	C 	0.1172	0.4711	0.4254	-0.105
Mof_C 	C 	0.7951	0.4565	0.5148	0.094
Mof_C 	C 	0.6	0.1318	0.527	0.371
Mof_C 	C 	0.8904	0.3422	0.0494	0.369
Mof_C 	C 	0.2469	0.4323	0.3438	0.418
Mof_H 	H 	0.1895	0.0863	0.3503	-0.023
Mof_H 	H 	0.2963	0.5316	0.1315	-0.014
Mof_H 	H 	0.6506	0.4277	0.5268	-0.001
Mof_O 	O 	0.4972	0.0887	0.6102	-0.295
Mof_O 	O 	0.0019	0.3208	0.9792	-0.297
_end
