data_functionalizedCrystal
_audit_creation_method	'EQeq! by Chris Wilmer'
_symmetry_space_group_name_H-M	'P1'
_symmetry_Int_Tables_number	1
_symmetry_cell_setting	triclinic
loop_
_symmetry_equiv_pos_as_xyz
  x,y,z
_cell_length_a	17.629
_cell_length_b	19.797
_cell_length_c	13.2566
_cell_angle_alpha	90
_cell_angle_beta	131.7
_cell_angle_gamma	90
loop_
_atom_site_label
_atom_site_type_symbol
_atom_site_fract_x
_atom_site_fract_y
_atom_site_fract_z
_atom_site_charge
Mof_Ce	Ce	0.39237	0.01738	0.28468	1.959
Mof_Ce	Ce	0.10752	0.76738	0.2152	1.879
Mof_O 	O 	0.47184	0.11577	0.2593	-0.55
Mof_O 	O 	0.5607	0.21254	0.3324	-0.576
Mof_O 	O 	0.3979	0.00464	0.4808	-0.548
Mof_O 	O 	0.4427	0.0414	0.6745	-0.573
Mof_O 	O 	0.21291	0.86543	0.241	-0.538
Mof_O 	O 	0.2285	0.9623	0.1674	-0.571
Mof_O 	O 	0.91712	0.75488	0.0187	-0.504
Mof_O 	O 	0.76789	0.79146	0.8251	-0.562
Mof_N 	N 	0.4853	0.11131	0.4712	-0.21
Mof_N 	N 	0.0139	0.86069	0.0282	-0.257
Mof_C 	C 	0.5306	0.16279	0.4649	-0.128
Mof_C 	C 	0.5831	0.21266	0.5638	0.039
Mof_H 	H 	0.6164	0.2471	0.559	-0.024
Mof_C 	C 	0.5848	0.2099	0.6697	-0.14
Mof_H 	H 	0.6179	0.2432	0.736	0.043
Mof_C 	C 	0.5362	0.15661	0.6755	0.04
Mof_H 	H 	0.5355	0.1539	0.7449	-0.026
Mof_C 	C 	0.4891	0.10782	0.5757	-0.131
Mof_C 	C 	0.5199	0.16391	0.3418	0.42
Mof_C 	C 	0.4393	0.04646	0.5773	0.415
Mof_C 	C 	0.0661	0.91237	0.0352	-0.073
Mof_C 	C 	0.0194	0.9629	0.9361	-0.129
Mof_H 	H 	0.0574	0.9977	0.9412	0.019
Mof_C 	C 	0.9155	0.9596	0.8305	0.036
Mof_H 	H 	0.8823	0.9927	0.7638	-0.007
Mof_C 	C 	0.8611	0.90679	0.8245	-0.068
Mof_H 	H 	0.7909	0.9043	0.7553	0.015
Mof_C 	C 	0.9137	0.85776	0.9239	-0.037
Mof_C 	C 	0.1785	0.91354	0.1578	0.393
Mof_C 	C 	0.8624	0.79608	0.9228	0.381
Mof_Ce	Ce	0.89237	0.51738	0.28468	2.001
Mof_Ce	Ce	0.60752	0.26738	0.2152	1.973
Mof_O 	O 	0.97184	0.61577	0.2593	-0.498
Mof_O 	O 	0.0607	0.71254	0.3324	-0.566
Mof_O 	O 	0.8979	0.50464	0.4808	-0.541
Mof_O 	O 	0.9427	0.5414	0.6745	-0.56
Mof_O 	O 	0.71291	0.36543	0.241	-0.548
Mof_O 	O 	0.7285	0.4623	0.1674	-0.578
Mof_O 	O 	0.41712	0.25488	0.0187	-0.547
Mof_O 	O 	0.26789	0.29146	0.8251	-0.568
Mof_N 	N 	0.9853	0.61131	0.4712	-0.198
Mof_N 	N 	0.5139	0.36069	0.0282	-0.211
Mof_C 	C 	0.0306	0.66279	0.4649	-0.15
Mof_C 	C 	0.0831	0.71266	0.5638	0.008
Mof_H 	H 	0.1164	0.7471	0.559	-0.019
Mof_C 	C 	0.0848	0.7099	0.6697	-0.097
Mof_H 	H 	0.1179	0.7432	0.736	0.018
Mof_C 	C 	0.0362	0.65661	0.6755	-0.069
Mof_H 	H 	0.0355	0.6539	0.7449	-0.009
Mof_C 	C 	0.9891	0.60782	0.5757	-0.048
Mof_C 	C 	0.0199	0.66391	0.3418	0.351
Mof_C 	C 	0.9393	0.54646	0.5773	0.398
Mof_C 	C 	0.5661	0.41237	0.0352	-0.121
Mof_C 	C 	0.5194	0.4629	0.9361	0.027
Mof_H 	H 	0.5574	0.4977	0.9412	-0.025
Mof_C 	C 	0.4155	0.4596	0.8305	-0.138
Mof_H 	H 	0.3823	0.4927	0.7638	0.035
Mof_C 	C 	0.3611	0.40679	0.8245	0.036
Mof_H 	H 	0.2909	0.4043	0.7553	-0.031
Mof_C 	C 	0.4137	0.35776	0.9239	-0.132
Mof_C 	C 	0.6785	0.41354	0.1578	0.417
Mof_C 	C 	0.3624	0.29608	0.9228	0.409
Mof_Ce	Ce	0.39237	0.98262	0.78468	1.953
Mof_Ce	Ce	0.10752	0.23262	0.7152	1.876
Mof_O 	O 	0.47184	0.88423	0.7593	-0.552
Mof_O 	O 	0.5607	0.78746	0.8324	-0.579
Mof_O 	O 	0.3979	0.99536	0.9808	-0.556
Mof_O 	O 	0.4427	0.9586	0.1745	-0.575
Mof_O 	O 	0.21291	0.13457	0.741	-0.539
Mof_O 	O 	0.2285	0.0377	0.6674	-0.572
Mof_O 	O 	0.91712	0.24512	0.5187	-0.513
Mof_O 	O 	0.76789	0.20854	0.3251	-0.564
Mof_N 	N 	0.4853	0.88869	0.9712	-0.212
Mof_N 	N 	0.0139	0.13931	0.5282	-0.259
Mof_C 	C 	0.5306	0.83721	0.9649	-0.14
Mof_C 	C 	0.5831	0.78734	0.0638	0.055
Mof_H 	H 	0.6164	0.7529	0.059	-0.026
Mof_C 	C 	0.5848	0.7901	0.1697	-0.147
Mof_H 	H 	0.6179	0.7568	0.236	0.046
Mof_C 	C 	0.5362	0.84339	0.1755	0.045
Mof_H 	H 	0.5355	0.8461	0.2449	-0.026
Mof_C 	C 	0.4891	0.89218	0.0757	-0.128
Mof_C 	C 	0.5199	0.83609	0.8418	0.422
Mof_C 	C 	0.4393	0.95354	0.0773	0.425
Mof_C 	C 	0.0661	0.08763	0.5352	-0.083
Mof_C 	C 	0.0194	0.0371	0.4361	-0.115
Mof_H 	H 	0.0574	0.0023	0.4412	0.017
Mof_C 	C 	0.9155	0.0404	0.3305	0.031
Mof_H 	H 	0.8823	0.0073	0.2638	-0.004
Mof_C 	C 	0.8611	0.09321	0.3245	-0.064
Mof_H 	H 	0.7909	0.0957	0.2553	0.015
Mof_C 	C 	0.9137	0.14224	0.4239	-0.034
Mof_C 	C 	0.1785	0.08646	0.6578	0.395
Mof_C 	C 	0.8624	0.20392	0.4228	0.392
Mof_Ce	Ce	0.89237	0.48262	0.78468	1.991
Mof_Ce	Ce	0.60752	0.73262	0.7152	1.965
Mof_O 	O 	0.97184	0.38423	0.7593	-0.501
Mof_O 	O 	0.0607	0.28746	0.8324	-0.567
Mof_O 	O 	0.8979	0.49536	0.9808	-0.548
Mof_O 	O 	0.9427	0.4586	0.1745	-0.561
Mof_O 	O 	0.71291	0.63457	0.741	-0.549
Mof_O 	O 	0.7285	0.5377	0.6674	-0.579
Mof_O 	O 	0.41712	0.74512	0.5187	-0.552
Mof_O 	O 	0.26789	0.70854	0.3251	-0.569
Mof_N 	N 	0.9853	0.38869	0.9712	-0.202
Mof_N 	N 	0.5139	0.63931	0.5282	-0.212
Mof_C 	C 	0.0306	0.33721	0.9649	-0.154
Mof_C 	C 	0.0831	0.28734	0.0638	0.015
Mof_H 	H 	0.1164	0.2529	0.059	-0.02
Mof_C 	C 	0.0848	0.2901	0.1697	-0.098
Mof_H 	H 	0.1179	0.2568	0.236	0.02
Mof_C 	C 	0.0362	0.34339	0.1755	-0.069
Mof_H 	H 	0.0355	0.3461	0.2449	-0.008
Mof_C 	C 	0.9891	0.39218	0.0757	-0.043
Mof_C 	C 	0.0199	0.33609	0.8418	0.354
Mof_C 	C 	0.9393	0.45354	0.0773	0.406
Mof_C 	C 	0.5661	0.58763	0.5352	-0.13
Mof_C 	C 	0.5194	0.5371	0.4361	0.038
Mof_H 	H 	0.5574	0.5023	0.4412	-0.026
Mof_C 	C 	0.4155	0.5404	0.3305	-0.143
Mof_H 	H 	0.3823	0.5073	0.2638	0.039
Mof_C 	C 	0.3611	0.59321	0.3245	0.039
Mof_H 	H 	0.2909	0.5957	0.2553	-0.031
Mof_C 	C 	0.4137	0.64224	0.4239	-0.129
Mof_C 	C 	0.6785	0.58646	0.6578	0.419
Mof_C 	C 	0.3624	0.70392	0.4228	0.415
_end
