data_functionalizedCrystal
_audit_creation_method	'EQeq! by Chris Wilmer'
_symmetry_space_group_name_H-M	'P1'
_symmetry_Int_Tables_number	1
_symmetry_cell_setting	triclinic
loop_
_symmetry_equiv_pos_as_xyz
  x,y,z
_cell_length_a	21.879
_cell_length_b	23.701
_cell_length_c	19.687
_cell_angle_alpha	90
_cell_angle_beta	90
_cell_angle_gamma	90
loop_
_atom_site_label
_atom_site_type_symbol
_atom_site_fract_x
_atom_site_fract_y
_atom_site_fract_z
_atom_site_charge
Mof_Co	Co	0.1255	0.67709	0.51616	1.164
Mof_C 	C 	0.2401	0.667	0.6013	0.08
Mof_H 	H 	0.2524	0.6932	0.5688	-0.007
Mof_C 	C 	0.1713	0.6055	0.6412	0.057
Mof_H 	H 	0.1339	0.5873	0.6364	-0.006
Mof_C 	C 	0.282	0.6534	0.6537	0.063
Mof_H 	H 	0.32	0.6709	0.6559	0.006
Mof_C 	C 	0.2083	0.5909	0.6937	-0.041
Mof_H 	H 	0.1949	0.5647	0.7255	0.044
Mof_C 	C 	0.2655	0.6144	0.7005	0.013
Mof_C 	C 	0.3065	0.597	0.7561	0.109
Mof_C 	C 	0.3818	0.5966	0.8299	0.039
Mof_C 	C 	0.3483	0.5468	0.8356	-0.019
Mof_C 	C 	0.4373	0.6143	0.8632	0.055
Mof_C 	C 	0.453	0.6696	0.8746	-0.019
Mof_H 	H 	0.4277	0.6981	0.8582	0.03
Mof_C 	C 	0.4826	0.5756	0.8832	-0.043
Mof_H 	H 	0.4764	0.5375	0.8743	0.037
Mof_C 	C 	0.504	0.6837	0.9089	-0.003
Mof_H 	H 	0.5105	0.7217	0.9182	0.018
Mof_C 	C 	0.5349	0.5911	0.9147	0
Mof_H 	H 	0.5641	0.5642	0.9261	0.015
Mof_C 	C 	0.3552	0.4972	0.8784	0.142
Mof_C 	C 	0.4121	0.472	0.8913	-0.067
Mof_H 	H 	0.4477	0.4878	0.8738	0.044
Mof_C 	C 	0.3048	0.4706	0.9097	-0.078
Mof_H 	H 	0.266	0.4861	0.905	0.059
Mof_C 	C 	0.4148	0.4238	0.93	0.004
Mof_H 	H 	0.4526	0.4063	0.9354	0.02
Mof_C 	C 	0.3124	0.4225	0.9467	0.001
Mof_H 	H 	0.2781	0.4039	0.9634	0.023
Mof_C 	C 	0.2848	0.7002	0.3528	0.011
Mof_H 	H 	0.2634	0.6672	0.362	0.024
Mof_C 	C 	0.3298	0.6999	0.3046	-0.028
Mof_H 	H 	0.3393	0.6668	0.2816	0.027
Mof_C 	C 	0.44	0.7012	0.2167	-0.042
Mof_H 	H 	0.4295	0.6677	0.2382	0.034
Mof_C 	C 	0.4846	0.7002	0.1681	0.018
Mof_H 	H 	0.5032	0.6663	0.1563	0.02
Mof_N 	N 	0.18707	0.646	0.5955	-0.217
Mof_N 	N 	0.3539	0.6272	0.7801	-0.206
Mof_H 	H 	0.3647	0.6602	0.7664	0.114
Mof_N 	N 	0.3003	0.5495	0.7896	-0.124
Mof_N 	N 	0.54477	0.6481	0.9299	-0.221
Mof_N 	N 	0.36762	0.4012	0.9597	-0.244
Mof_O 	O 	0.20197	0.70307	0.4618	-0.446
Mof_O 	O 	0.56734	0.79658	0.0597	-0.45
Mof_C 	C 	0.225	0.6821	0.6222	-0.039
Mof_H 	H 	0.2285	0.7174	0.602	0.025
Mof_C 	C 	0.1929	0.5941	0.6188	-0.015
Mof_H 	H 	0.168	0.567	0.5987	0.013
Mof_C 	C 	0.2617	0.6705	0.6808	-0.159
Mof_H 	H 	0.2818	0.699	0.7044	0.074
Mof_C 	C 	0.2297	0.5761	0.6673	-0.062
Mof_H 	H 	0.2312	0.538	0.6786	0.048
Mof_C 	C 	0.4812	0.6469	0.8334	-0.122
Mof_H 	H 	0.4756	0.6582	0.7886	0.066
Mof_C 	C 	0.4487	0.6004	0.9319	-0.09
Mof_H 	H 	0.4209	0.5774	0.9545	0.049
Mof_C 	C 	0.5324	0.6633	0.8658	0.069
Mof_H 	H 	0.5602	0.6861	0.8429	-0
Mof_C 	C 	0.4977	0.6189	0.9656	0.037
Mof_H 	H 	0.5011	0.6128	0.0121	0.007
Mof_C 	C 	0.3712	0.5017	0.9438	-0.167
Mof_H 	H 	0.3793	0.5365	0.9636	0.079
Mof_C 	C 	0.3483	0.4424	0.8501	-0.143
Mof_H 	H 	0.3413	0.4373	0.8039	0.083
Mof_C 	C 	0.3751	0.4519	0.981	0.12
Mof_H 	H 	0.3842	0.4559	0.0269	-0.032
Mof_C 	C 	0.3525	0.3974	0.8935	0.088
Mof_H 	H 	0.3444	0.3617	0.8761	0
Mof_C 	C 	0.3044	0.7015	0.3764	-0.014
Mof_H 	H 	0.2968	0.6687	0.401	0.031
Mof_C 	C 	0.3496	0.7019	0.3276	-0.054
Mof_H 	H 	0.3723	0.6694	0.3198	0.038
Mof_C 	C 	0.4191	0.7032	0.194	-0.049
Mof_H 	H 	0.3937	0.6719	0.1979	0.036
Mof_C 	C 	0.4656	0.7037	0.1477	-0.008
Mof_H 	H 	0.4729	0.6712	0.1225	0.026
Mof_Co	Co	0.3745	0.32291	0.01616	1.162
Mof_C 	C 	0.2599	0.333	0.1013	0.079
Mof_H 	H 	0.2476	0.3068	0.0688	-0.008
Mof_C 	C 	0.3287	0.3945	0.1412	0.056
Mof_H 	H 	0.3661	0.4127	0.1364	-0.007
Mof_C 	C 	0.218	0.3466	0.1537	0.062
Mof_H 	H 	0.18	0.3291	0.1559	0.005
Mof_C 	C 	0.2917	0.4091	0.1937	-0.042
Mof_H 	H 	0.3051	0.4353	0.2255	0.043
Mof_C 	C 	0.2345	0.3856	0.2005	0.012
Mof_C 	C 	0.1935	0.403	0.2561	0.108
Mof_C 	C 	0.1182	0.4034	0.3299	0.038
Mof_C 	C 	0.1517	0.4532	0.3356	-0.02
Mof_C 	C 	0.0627	0.3857	0.3632	0.054
Mof_C 	C 	0.047	0.3304	0.3746	-0.021
Mof_H 	H 	0.0723	0.3019	0.3582	0.03
Mof_C 	C 	0.0174	0.4244	0.3832	-0.045
Mof_H 	H 	0.0236	0.4625	0.3743	0.036
Mof_C 	C 	0.996	0.3163	0.4089	-0.003
Mof_H 	H 	0.9895	0.2783	0.4182	0.017
Mof_C 	C 	0.9651	0.4089	0.4147	-0
Mof_H 	H 	0.9359	0.4358	0.4261	0.014
Mof_C 	C 	0.1448	0.5028	0.3784	0.14
Mof_C 	C 	0.0879	0.528	0.3913	-0.069
Mof_H 	H 	0.0523	0.5122	0.3738	0.045
Mof_C 	C 	0.1952	0.5294	0.4097	-0.079
Mof_H 	H 	0.234	0.5139	0.405	0.06
Mof_C 	C 	0.0852	0.5762	0.43	0.006
Mof_H 	H 	0.0474	0.5937	0.4354	0.019
Mof_C 	C 	0.1876	0.5775	0.4467	0.002
Mof_H 	H 	0.2219	0.5961	0.4634	0.022
Mof_C 	C 	0.2152	0.2998	0.8528	0.012
Mof_H 	H 	0.2366	0.3328	0.862	0.023
Mof_C 	C 	0.1702	0.3001	0.8046	-0.026
Mof_H 	H 	0.1607	0.3332	0.7816	0.026
Mof_C 	C 	0.06	0.2988	0.7167	-0.044
Mof_H 	H 	0.0705	0.3323	0.7382	0.035
Mof_C 	C 	0.0154	0.2998	0.6681	0.017
Mof_H 	H 	0.9968	0.3337	0.6563	0.02
Mof_N 	N 	0.31293	0.354	0.0955	-0.217
Mof_N 	N 	0.1461	0.3728	0.2801	-0.206
Mof_H 	H 	0.1353	0.3398	0.2664	0.113
Mof_N 	N 	0.1997	0.4505	0.2896	-0.124
Mof_N 	N 	0.95523	0.3519	0.4299	-0.221
Mof_N 	N 	0.13238	0.5988	0.4597	-0.244
Mof_O 	O 	0.29803	0.29693	0.9618	-0.446
Mof_O 	O 	0.93266	0.20342	0.5597	-0.451
Mof_C 	C 	0.275	0.3179	0.1222	-0.039
Mof_H 	H 	0.2715	0.2826	0.102	0.024
Mof_C 	C 	0.3071	0.4059	0.1188	-0.015
Mof_H 	H 	0.332	0.433	0.0987	0.013
Mof_C 	C 	0.2383	0.3295	0.1808	-0.159
Mof_H 	H 	0.2182	0.301	0.2044	0.074
Mof_C 	C 	0.2703	0.4239	0.1673	-0.062
Mof_H 	H 	0.2688	0.462	0.1786	0.048
Mof_C 	C 	0.0188	0.3531	0.3334	-0.122
Mof_H 	H 	0.0244	0.3418	0.2886	0.065
Mof_C 	C 	0.0513	0.3996	0.4319	-0.09
Mof_H 	H 	0.0791	0.4226	0.4545	0.049
Mof_C 	C 	0.9676	0.3367	0.3658	0.068
Mof_H 	H 	0.9398	0.3139	0.3429	-0
Mof_C 	C 	0.0023	0.3811	0.4656	0.037
Mof_H 	H 	0.9989	0.3872	0.5121	0.006
Mof_C 	C 	0.1288	0.4983	0.4438	-0.165
Mof_H 	H 	0.1207	0.4635	0.4636	0.078
Mof_C 	C 	0.1517	0.5576	0.3501	-0.142
Mof_H 	H 	0.1587	0.5627	0.3039	0.082
Mof_C 	C 	0.1249	0.5481	0.481	0.118
Mof_H 	H 	0.1158	0.5441	0.5269	-0.031
Mof_C 	C 	0.1475	0.6026	0.3935	0.086
Mof_H 	H 	0.1556	0.6383	0.3761	0.001
Mof_C 	C 	0.1956	0.2985	0.8764	-0.015
Mof_H 	H 	0.2032	0.3313	0.901	0.032
Mof_C 	C 	0.1504	0.2981	0.8276	-0.055
Mof_H 	H 	0.1277	0.3306	0.8198	0.038
Mof_C 	C 	0.0809	0.2968	0.694	-0.048
Mof_H 	H 	0.1063	0.3281	0.6979	0.036
Mof_C 	C 	0.0344	0.2963	0.6477	-0.005
Mof_H 	H 	0.0271	0.3288	0.6225	0.025
Mof_Co	Co	0.8745	0.17709	0.48384	1.163
Mof_C 	C 	0.7599	0.167	0.3987	0.079
Mof_H 	H 	0.7476	0.1932	0.4312	-0.008
Mof_C 	C 	0.8287	0.1055	0.3588	0.056
Mof_H 	H 	0.8661	0.0873	0.3636	-0.007
Mof_C 	C 	0.718	0.1534	0.3463	0.062
Mof_H 	H 	0.68	0.1709	0.3441	0.005
Mof_C 	C 	0.7917	0.0909	0.3063	-0.042
Mof_H 	H 	0.8051	0.0647	0.2745	0.043
Mof_C 	C 	0.7345	0.1144	0.2995	0.012
Mof_C 	C 	0.6935	0.097	0.2439	0.108
Mof_C 	C 	0.6182	0.0966	0.1701	0.04
Mof_C 	C 	0.6517	0.0468	0.1644	-0.023
Mof_C 	C 	0.5627	0.1143	0.1368	0.053
Mof_C 	C 	0.547	0.1696	0.1254	-0.018
Mof_H 	H 	0.5723	0.1981	0.1418	0.029
Mof_C 	C 	0.5174	0.0756	0.1168	-0.045
Mof_H 	H 	0.5236	0.0375	0.1257	0.036
Mof_C 	C 	0.496	0.1837	0.0911	-0.006
Mof_H 	H 	0.4895	0.2217	0.0818	0.018
Mof_C 	C 	0.4651	0.0911	0.0853	-0.001
Mof_H 	H 	0.4359	0.0642	0.0739	0.015
Mof_C 	C 	0.6448	0.9972	0.1216	0.147
Mof_C 	C 	0.5879	0.972	0.1087	-0.059
Mof_H 	H 	0.5523	0.9878	0.1262	0.041
Mof_C 	C 	0.6952	0.9706	0.0903	-0.071
Mof_H 	H 	0.734	0.9861	0.095	0.057
Mof_C 	C 	0.5852	0.9238	0.07	-0.007
Mof_H 	H 	0.5474	0.9063	0.0646	0.024
Mof_C 	C 	0.6876	0.9225	0.0533	-0.009
Mof_H 	H 	0.7219	0.9039	0.0366	0.027
Mof_C 	C 	0.7152	0.2002	0.6472	0.011
Mof_H 	H 	0.7366	0.1672	0.638	0.024
Mof_C 	C 	0.6702	0.1999	0.6954	-0.028
Mof_H 	H 	0.6607	0.1668	0.7184	0.027
Mof_C 	C 	0.56	0.2012	0.7833	-0.042
Mof_H 	H 	0.5705	0.1677	0.7618	0.034
Mof_C 	C 	0.5154	0.2002	0.8319	0.018
Mof_H 	H 	0.4968	0.1663	0.8437	0.02
Mof_N 	N 	0.81293	0.146	0.4045	-0.217
Mof_N 	N 	0.6461	0.1272	0.2199	-0.206
Mof_H 	H 	0.6353	0.1602	0.2336	0.114
Mof_N 	N 	0.6997	0.0495	0.2104	-0.124
Mof_N 	N 	0.45523	0.1481	0.0701	-0.221
Mof_N 	N 	0.63238	0.9012	0.0403	-0.245
Mof_O 	O 	0.79803	0.20307	0.5382	-0.446
Mof_O 	O 	0.43266	0.29658	0.9403	-0.451
Mof_C 	C 	0.775	0.1821	0.3778	-0.039
Mof_H 	H 	0.7715	0.2174	0.398	0.025
Mof_C 	C 	0.8071	0.0941	0.3812	-0.015
Mof_H 	H 	0.832	0.067	0.4013	0.013
Mof_C 	C 	0.7383	0.1705	0.3192	-0.159
Mof_H 	H 	0.7182	0.199	0.2956	0.074
Mof_C 	C 	0.7703	0.0761	0.3327	-0.062
Mof_H 	H 	0.7688	0.038	0.3214	0.048
Mof_C 	C 	0.5188	0.1469	0.1666	-0.123
Mof_H 	H 	0.5244	0.1582	0.2114	0.066
Mof_C 	C 	0.5513	0.1004	0.0681	-0.088
Mof_H 	H 	0.5791	0.0774	0.0455	0.047
Mof_C 	C 	0.4676	0.1633	0.1342	0.07
Mof_H 	H 	0.4398	0.1861	0.1571	-0.001
Mof_C 	C 	0.5023	0.1189	0.0344	0.035
Mof_H 	H 	0.4989	0.1128	0.9879	0.007
Mof_C 	C 	0.6288	0.0017	0.0562	-0.184
Mof_H 	H 	0.6207	0.0365	0.0364	0.085
Mof_C 	C 	0.6517	0.9424	0.1499	-0.154
Mof_H 	H 	0.6587	0.9373	0.1961	0.086
Mof_C 	C 	0.6249	0.9519	0.019	0.137
Mof_H 	H 	0.6158	0.9559	0.9731	-0.038
Mof_C 	C 	0.6475	0.8974	0.1065	0.099
Mof_H 	H 	0.6556	0.8617	0.1239	-0.004
Mof_C 	C 	0.6956	0.2015	0.6236	-0.014
Mof_H 	H 	0.7032	0.1687	0.599	0.031
Mof_C 	C 	0.6504	0.2019	0.6724	-0.054
Mof_H 	H 	0.6277	0.1694	0.6802	0.038
Mof_C 	C 	0.5809	0.2032	0.806	-0.049
Mof_H 	H 	0.6063	0.1719	0.8021	0.036
Mof_C 	C 	0.5344	0.2037	0.8523	-0.008
Mof_H 	H 	0.5271	0.1712	0.8775	0.026
Mof_Co	Co	0.6255	0.82291	0.98384	1.162
Mof_C 	C 	0.7401	0.833	0.8987	0.079
Mof_H 	H 	0.7524	0.8068	0.9312	-0.008
Mof_C 	C 	0.6713	0.8945	0.8588	0.057
Mof_H 	H 	0.6339	0.9127	0.8636	-0.008
Mof_C 	C 	0.782	0.8466	0.8463	0.062
Mof_H 	H 	0.82	0.8291	0.8441	0.005
Mof_C 	C 	0.7083	0.9091	0.8063	-0.041
Mof_H 	H 	0.6949	0.9353	0.7745	0.043
Mof_C 	C 	0.7655	0.8856	0.7995	0.012
Mof_C 	C 	0.8065	0.903	0.7439	0.108
Mof_C 	C 	0.8818	0.9034	0.6701	0.038
Mof_C 	C 	0.8483	0.9532	0.6644	-0.02
Mof_C 	C 	0.9373	0.8857	0.6368	0.054
Mof_C 	C 	0.953	0.8304	0.6254	-0.021
Mof_H 	H 	0.9277	0.8019	0.6418	0.03
Mof_C 	C 	0.9826	0.9244	0.6168	-0.045
Mof_H 	H 	0.9764	0.9625	0.6257	0.036
Mof_C 	C 	0.004	0.8163	0.5911	-0.003
Mof_H 	H 	0.0105	0.7783	0.5818	0.017
Mof_C 	C 	0.0349	0.9089	0.5853	-0.001
Mof_H 	H 	0.0641	0.9358	0.5739	0.014
Mof_C 	C 	0.8552	0.0028	0.6216	0.141
Mof_C 	C 	0.9121	0.028	0.6087	-0.069
Mof_H 	H 	0.9477	0.0122	0.6262	0.045
Mof_C 	C 	0.8048	0.0294	0.5903	-0.079
Mof_H 	H 	0.766	0.0139	0.595	0.06
Mof_C 	C 	0.9148	0.0762	0.57	0.005
Mof_H 	H 	0.9526	0.0937	0.5646	0.019
Mof_C 	C 	0.8124	0.0775	0.5533	0.002
Mof_H 	H 	0.7781	0.0961	0.5366	0.023
Mof_C 	C 	0.7848	0.7998	0.1472	0.012
Mof_H 	H 	0.7634	0.8328	0.138	0.023
Mof_C 	C 	0.8298	0.8001	0.1954	-0.026
Mof_H 	H 	0.8393	0.8332	0.2184	0.026
Mof_C 	C 	0.94	0.7988	0.2833	-0.044
Mof_H 	H 	0.9295	0.8323	0.2618	0.035
Mof_C 	C 	0.9846	0.7998	0.3319	0.017
Mof_H 	H 	0.0032	0.8337	0.3437	0.02
Mof_N 	N 	0.68707	0.854	0.9045	-0.217
Mof_N 	N 	0.8539	0.8728	0.7199	-0.206
Mof_H 	H 	0.8647	0.8398	0.7336	0.113
Mof_N 	N 	0.8003	0.9505	0.7104	-0.124
Mof_N 	N 	0.04477	0.8519	0.5701	-0.221
Mof_N 	N 	0.86762	0.0988	0.5403	-0.244
Mof_O 	O 	0.70197	0.79693	0.0382	-0.446
Mof_O 	O 	0.06734	0.70342	0.4403	-0.451
Mof_C 	C 	0.725	0.8179	0.8778	-0.039
Mof_H 	H 	0.7285	0.7826	0.898	0.024
Mof_C 	C 	0.6929	0.9059	0.8812	-0.016
Mof_H 	H 	0.668	0.933	0.9013	0.013
Mof_C 	C 	0.7617	0.8295	0.8192	-0.159
Mof_H 	H 	0.7818	0.801	0.7956	0.074
Mof_C 	C 	0.7297	0.9239	0.8327	-0.063
Mof_H 	H 	0.7312	0.962	0.8214	0.048
Mof_C 	C 	0.9812	0.8531	0.6666	-0.121
Mof_H 	H 	0.9756	0.8418	0.7114	0.065
Mof_C 	C 	0.9487	0.8996	0.5681	-0.09
Mof_H 	H 	0.9209	0.9226	0.5455	0.049
Mof_C 	C 	0.0324	0.8367	0.6342	0.068
Mof_H 	H 	0.0602	0.8139	0.6571	0
Mof_C 	C 	0.9977	0.8811	0.5344	0.038
Mof_H 	H 	0.0011	0.8872	0.4879	0.006
Mof_C 	C 	0.8712	0.9983	0.5562	-0.166
Mof_H 	H 	0.8793	0.9635	0.5364	0.078
Mof_C 	C 	0.8483	0.0576	0.6499	-0.143
Mof_H 	H 	0.8413	0.0627	0.6961	0.082
Mof_C 	C 	0.8751	0.0481	0.519	0.119
Mof_H 	H 	0.8842	0.0441	0.4731	-0.031
Mof_C 	C 	0.8525	0.1026	0.6065	0.087
Mof_H 	H 	0.8444	0.1383	0.6239	0.001
Mof_C 	C 	0.8044	0.7985	0.1236	-0.015
Mof_H 	H 	0.7968	0.8313	0.099	0.032
Mof_C 	C 	0.8496	0.7981	0.1724	-0.055
Mof_H 	H 	0.8723	0.8306	0.1802	0.038
Mof_C 	C 	0.9191	0.7968	0.306	-0.048
Mof_H 	H 	0.8937	0.8281	0.3021	0.036
Mof_C 	C 	0.9656	0.7963	0.3523	-0.005
Mof_H 	H 	0.9729	0.8288	0.3775	0.025
Mof_Co	Co	0.8745	0.32291	0.48384	1.163
Mof_C 	C 	0.7599	0.333	0.3987	0.079
Mof_H 	H 	0.7476	0.3068	0.4312	-0.008
Mof_C 	C 	0.8287	0.3945	0.3588	0.056
Mof_H 	H 	0.8661	0.4127	0.3636	-0.007
Mof_C 	C 	0.718	0.3466	0.3463	0.062
Mof_H 	H 	0.68	0.3291	0.3441	0.005
Mof_C 	C 	0.7917	0.4091	0.3063	-0.042
Mof_H 	H 	0.8051	0.4353	0.2745	0.043
Mof_C 	C 	0.7345	0.3856	0.2995	0.012
Mof_C 	C 	0.6935	0.403	0.2439	0.108
Mof_C 	C 	0.6182	0.4034	0.1701	0.038
Mof_C 	C 	0.6517	0.4532	0.1644	-0.02
Mof_C 	C 	0.5627	0.3857	0.1368	0.054
Mof_C 	C 	0.547	0.3304	0.1254	-0.02
Mof_H 	H 	0.5723	0.3019	0.1418	0.029
Mof_C 	C 	0.5174	0.4244	0.1168	-0.044
Mof_H 	H 	0.5236	0.4625	0.1257	0.036
Mof_C 	C 	0.496	0.3163	0.0911	-0.004
Mof_H 	H 	0.4895	0.2783	0.0818	0.017
Mof_C 	C 	0.4651	0.4089	0.0853	-0.001
Mof_H 	H 	0.4359	0.4358	0.0739	0.014
Mof_C 	C 	0.6448	0.5028	0.1216	0.141
Mof_C 	C 	0.5879	0.528	0.1087	-0.068
Mof_H 	H 	0.5523	0.5122	0.1262	0.044
Mof_C 	C 	0.6952	0.5294	0.0903	-0.078
Mof_H 	H 	0.734	0.5139	0.095	0.059
Mof_C 	C 	0.5852	0.5762	0.07	0.004
Mof_H 	H 	0.5474	0.5937	0.0646	0.02
Mof_C 	C 	0.6876	0.5775	0.0533	0.001
Mof_H 	H 	0.7219	0.5961	0.0366	0.023
Mof_C 	C 	0.7152	0.2998	0.6472	0.011
Mof_H 	H 	0.7366	0.3328	0.638	0.024
Mof_C 	C 	0.6702	0.3001	0.6954	-0.028
Mof_H 	H 	0.6607	0.3332	0.7184	0.027
Mof_C 	C 	0.56	0.2988	0.7833	-0.042
Mof_H 	H 	0.5705	0.3323	0.7618	0.034
Mof_C 	C 	0.5154	0.2998	0.8319	0.018
Mof_H 	H 	0.4968	0.3337	0.8437	0.02
Mof_N 	N 	0.81293	0.354	0.4045	-0.217
Mof_N 	N 	0.6461	0.3728	0.2199	-0.206
Mof_H 	H 	0.6353	0.3398	0.2336	0.114
Mof_N 	N 	0.6997	0.4505	0.2104	-0.124
Mof_N 	N 	0.45523	0.3519	0.0701	-0.221
Mof_N 	N 	0.63238	0.5988	0.0403	-0.244
Mof_O 	O 	0.79803	0.29693	0.5382	-0.446
Mof_O 	O 	0.43266	0.20342	0.9403	-0.45
Mof_C 	C 	0.775	0.3179	0.3778	-0.039
Mof_H 	H 	0.7715	0.2826	0.398	0.025
Mof_C 	C 	0.8071	0.4059	0.3812	-0.015
Mof_H 	H 	0.832	0.433	0.4013	0.013
Mof_C 	C 	0.7383	0.3295	0.3192	-0.159
Mof_H 	H 	0.7182	0.301	0.2956	0.074
Mof_C 	C 	0.7703	0.4239	0.3327	-0.062
Mof_H 	H 	0.7688	0.462	0.3214	0.048
Mof_C 	C 	0.5188	0.3531	0.1666	-0.122
Mof_H 	H 	0.5244	0.3418	0.2114	0.066
Mof_C 	C 	0.5513	0.3996	0.0681	-0.09
Mof_H 	H 	0.5791	0.4226	0.0455	0.049
Mof_C 	C 	0.4676	0.3367	0.1342	0.069
Mof_H 	H 	0.4398	0.3139	0.1571	-0
Mof_C 	C 	0.5023	0.3811	0.0344	0.037
Mof_H 	H 	0.4989	0.3872	0.9879	0.007
Mof_C 	C 	0.6288	0.4983	0.0562	-0.167
Mof_H 	H 	0.6207	0.4635	0.0364	0.079
Mof_C 	C 	0.6517	0.5576	0.1499	-0.143
Mof_H 	H 	0.6587	0.5627	0.1961	0.083
Mof_C 	C 	0.6249	0.5481	0.019	0.12
Mof_H 	H 	0.6158	0.5441	0.9731	-0.032
Mof_C 	C 	0.6475	0.6026	0.1065	0.088
Mof_H 	H 	0.6556	0.6383	0.1239	0
Mof_C 	C 	0.6956	0.2985	0.6236	-0.014
Mof_H 	H 	0.7032	0.3313	0.599	0.031
Mof_C 	C 	0.6504	0.2981	0.6724	-0.054
Mof_H 	H 	0.6277	0.3306	0.6802	0.038
Mof_C 	C 	0.5809	0.2968	0.806	-0.049
Mof_H 	H 	0.6063	0.3281	0.8021	0.036
Mof_C 	C 	0.5344	0.2963	0.8523	-0.008
Mof_H 	H 	0.5271	0.3288	0.8775	0.026
Mof_Co	Co	0.6255	0.67709	0.98384	1.162
Mof_C 	C 	0.7401	0.667	0.8987	0.079
Mof_H 	H 	0.7524	0.6932	0.9312	-0.008
Mof_C 	C 	0.6713	0.6055	0.8588	0.056
Mof_H 	H 	0.6339	0.5873	0.8636	-0.007
Mof_C 	C 	0.782	0.6534	0.8463	0.062
Mof_H 	H 	0.82	0.6709	0.8441	0.005
Mof_C 	C 	0.7083	0.5909	0.8063	-0.042
Mof_H 	H 	0.6949	0.5647	0.7745	0.043
Mof_C 	C 	0.7655	0.6144	0.7995	0.012
Mof_C 	C 	0.8065	0.597	0.7439	0.108
Mof_C 	C 	0.8818	0.5966	0.6701	0.038
Mof_C 	C 	0.8483	0.5468	0.6644	-0.02
Mof_C 	C 	0.9373	0.6143	0.6368	0.054
Mof_C 	C 	0.953	0.6696	0.6254	-0.021
Mof_H 	H 	0.9277	0.6981	0.6418	0.03
Mof_C 	C 	0.9826	0.5756	0.6168	-0.045
Mof_H 	H 	0.9764	0.5375	0.6257	0.036
Mof_C 	C 	0.004	0.6837	0.5911	-0.003
Mof_H 	H 	0.0105	0.7217	0.5818	0.017
Mof_C 	C 	0.0349	0.5911	0.5853	-0
Mof_H 	H 	0.0641	0.5642	0.5739	0.014
Mof_C 	C 	0.8552	0.4972	0.6216	0.14
Mof_C 	C 	0.9121	0.472	0.6087	-0.069
Mof_H 	H 	0.9477	0.4878	0.6262	0.045
Mof_C 	C 	0.8048	0.4706	0.5903	-0.079
Mof_H 	H 	0.766	0.4861	0.595	0.06
Mof_C 	C 	0.9148	0.4238	0.57	0.006
Mof_H 	H 	0.9526	0.4063	0.5646	0.019
Mof_C 	C 	0.8124	0.4225	0.5533	0.002
Mof_H 	H 	0.7781	0.4039	0.5366	0.022
Mof_C 	C 	0.7848	0.7002	0.1472	0.012
Mof_H 	H 	0.7634	0.6672	0.138	0.023
Mof_C 	C 	0.8298	0.6999	0.1954	-0.026
Mof_H 	H 	0.8393	0.6668	0.2184	0.026
Mof_C 	C 	0.94	0.7012	0.2833	-0.044
Mof_H 	H 	0.9295	0.6677	0.2618	0.035
Mof_C 	C 	0.9846	0.7002	0.3319	0.017
Mof_H 	H 	0.0032	0.6663	0.3437	0.02
Mof_N 	N 	0.68707	0.646	0.9045	-0.217
Mof_N 	N 	0.8539	0.6272	0.7199	-0.206
Mof_H 	H 	0.8647	0.6602	0.7336	0.113
Mof_N 	N 	0.8003	0.5495	0.7104	-0.124
Mof_N 	N 	0.04477	0.6481	0.5701	-0.221
Mof_N 	N 	0.86762	0.4012	0.5403	-0.244
Mof_O 	O 	0.70197	0.70307	0.0382	-0.446
Mof_O 	O 	0.06734	0.79658	0.4403	-0.451
Mof_C 	C 	0.725	0.6821	0.8778	-0.039
Mof_H 	H 	0.7285	0.7174	0.898	0.024
Mof_C 	C 	0.6929	0.5941	0.8812	-0.015
Mof_H 	H 	0.668	0.567	0.9013	0.013
Mof_C 	C 	0.7617	0.6705	0.8192	-0.159
Mof_H 	H 	0.7818	0.699	0.7956	0.074
Mof_C 	C 	0.7297	0.5761	0.8327	-0.062
Mof_H 	H 	0.7312	0.538	0.8214	0.048
Mof_C 	C 	0.9812	0.6469	0.6666	-0.122
Mof_H 	H 	0.9756	0.6582	0.7114	0.065
Mof_C 	C 	0.9487	0.6004	0.5681	-0.09
Mof_H 	H 	0.9209	0.5774	0.5455	0.049
Mof_C 	C 	0.0324	0.6633	0.6342	0.068
Mof_H 	H 	0.0602	0.6861	0.6571	-0
Mof_C 	C 	0.9977	0.6189	0.5344	0.037
Mof_H 	H 	0.0011	0.6128	0.4879	0.006
Mof_C 	C 	0.8712	0.5017	0.5562	-0.165
Mof_H 	H 	0.8793	0.5365	0.5364	0.078
Mof_C 	C 	0.8483	0.4424	0.6499	-0.142
Mof_H 	H 	0.8413	0.4373	0.6961	0.082
Mof_C 	C 	0.8751	0.4519	0.519	0.118
Mof_H 	H 	0.8842	0.4559	0.4731	-0.031
Mof_C 	C 	0.8525	0.3974	0.6065	0.086
Mof_H 	H 	0.8444	0.3617	0.6239	0.001
Mof_C 	C 	0.8044	0.7015	0.1236	-0.015
Mof_H 	H 	0.7968	0.6687	0.099	0.032
Mof_C 	C 	0.8496	0.7019	0.1724	-0.055
Mof_H 	H 	0.8723	0.6694	0.1802	0.038
Mof_C 	C 	0.9191	0.7032	0.306	-0.048
Mof_H 	H 	0.8937	0.6719	0.3021	0.036
Mof_C 	C 	0.9656	0.7037	0.3523	-0.005
Mof_H 	H 	0.9729	0.6712	0.3775	0.025
Mof_Co	Co	0.1255	0.82291	0.51616	1.163
Mof_C 	C 	0.2401	0.833	0.6013	0.079
Mof_H 	H 	0.2524	0.8068	0.5688	-0.008
Mof_C 	C 	0.1713	0.8945	0.6412	0.056
Mof_H 	H 	0.1339	0.9127	0.6364	-0.007
Mof_C 	C 	0.282	0.8466	0.6537	0.062
Mof_H 	H 	0.32	0.8291	0.6559	0.005
Mof_C 	C 	0.2083	0.9091	0.6937	-0.042
Mof_H 	H 	0.1949	0.9353	0.7255	0.043
Mof_C 	C 	0.2655	0.8856	0.7005	0.012
Mof_C 	C 	0.3065	0.903	0.7561	0.108
Mof_C 	C 	0.3818	0.9034	0.8299	0.04
Mof_C 	C 	0.3483	0.9532	0.8356	-0.023
Mof_C 	C 	0.4373	0.8857	0.8632	0.053
Mof_C 	C 	0.453	0.8304	0.8746	-0.018
Mof_H 	H 	0.4277	0.8019	0.8582	0.029
Mof_C 	C 	0.4826	0.9244	0.8832	-0.045
Mof_H 	H 	0.4764	0.9625	0.8743	0.036
Mof_C 	C 	0.504	0.8163	0.9089	-0.006
Mof_H 	H 	0.5105	0.7783	0.9182	0.018
Mof_C 	C 	0.5349	0.9089	0.9147	-0.001
Mof_H 	H 	0.5641	0.9358	0.9261	0.015
Mof_C 	C 	0.3552	0.0028	0.8784	0.147
Mof_C 	C 	0.4121	0.028	0.8913	-0.059
Mof_H 	H 	0.4477	0.0122	0.8738	0.041
Mof_C 	C 	0.3048	0.0294	0.9097	-0.071
Mof_H 	H 	0.266	0.0139	0.905	0.057
Mof_C 	C 	0.4148	0.0762	0.93	-0.007
Mof_H 	H 	0.4526	0.0937	0.9354	0.024
Mof_C 	C 	0.3124	0.0775	0.9467	-0.009
Mof_H 	H 	0.2781	0.0961	0.9634	0.027
Mof_C 	C 	0.2848	0.7998	0.3528	0.011
Mof_H 	H 	0.2634	0.8328	0.362	0.024
Mof_C 	C 	0.3298	0.8001	0.3046	-0.028
Mof_H 	H 	0.3393	0.8332	0.2816	0.027
Mof_C 	C 	0.44	0.7988	0.2167	-0.042
Mof_H 	H 	0.4295	0.8323	0.2382	0.034
Mof_C 	C 	0.4846	0.7998	0.1681	0.018
Mof_H 	H 	0.5032	0.8337	0.1563	0.02
Mof_N 	N 	0.18707	0.854	0.5955	-0.217
Mof_N 	N 	0.3539	0.8728	0.7801	-0.206
Mof_H 	H 	0.3647	0.8398	0.7664	0.114
Mof_N 	N 	0.3003	0.9505	0.7896	-0.124
Mof_N 	N 	0.54477	0.8519	0.9299	-0.221
Mof_N 	N 	0.36762	0.0988	0.9597	-0.245
Mof_O 	O 	0.20197	0.79693	0.4618	-0.446
Mof_O 	O 	0.56734	0.70342	0.0597	-0.451
Mof_C 	C 	0.225	0.8179	0.6222	-0.039
Mof_H 	H 	0.2285	0.7826	0.602	0.025
Mof_C 	C 	0.1929	0.9059	0.6188	-0.015
Mof_H 	H 	0.168	0.933	0.5987	0.013
Mof_C 	C 	0.2617	0.8295	0.6808	-0.159
Mof_H 	H 	0.2818	0.801	0.7044	0.074
Mof_C 	C 	0.2297	0.9239	0.6673	-0.062
Mof_H 	H 	0.2312	0.962	0.6786	0.048
Mof_C 	C 	0.4812	0.8531	0.8334	-0.123
Mof_H 	H 	0.4756	0.8418	0.7886	0.066
Mof_C 	C 	0.4487	0.8996	0.9319	-0.088
Mof_H 	H 	0.4209	0.9226	0.9545	0.047
Mof_C 	C 	0.5324	0.8367	0.8658	0.07
Mof_H 	H 	0.5602	0.8139	0.8429	-0.001
Mof_C 	C 	0.4977	0.8811	0.9656	0.035
Mof_H 	H 	0.5011	0.8872	0.0121	0.007
Mof_C 	C 	0.3712	0.9983	0.9438	-0.184
Mof_H 	H 	0.3793	0.9635	0.9636	0.085
Mof_C 	C 	0.3483	0.0576	0.8501	-0.154
Mof_H 	H 	0.3413	0.0627	0.8039	0.086
Mof_C 	C 	0.3751	0.0481	0.981	0.137
Mof_H 	H 	0.3842	0.0441	0.0269	-0.038
Mof_C 	C 	0.3525	0.1026	0.8935	0.099
Mof_H 	H 	0.3444	0.1383	0.8761	-0.004
Mof_C 	C 	0.3044	0.7985	0.3764	-0.014
Mof_H 	H 	0.2968	0.8313	0.401	0.031
Mof_C 	C 	0.3496	0.7981	0.3276	-0.054
Mof_H 	H 	0.3723	0.8306	0.3198	0.038
Mof_C 	C 	0.4191	0.7968	0.194	-0.049
Mof_H 	H 	0.3937	0.8281	0.1979	0.036
Mof_C 	C 	0.4656	0.7963	0.1477	-0.008
Mof_H 	H 	0.4729	0.8288	0.1225	0.026
Mof_Co	Co	0.3745	0.17709	0.01616	1.162
Mof_C 	C 	0.2599	0.167	0.1013	0.079
Mof_H 	H 	0.2476	0.1932	0.0688	-0.008
Mof_C 	C 	0.3287	0.1055	0.1412	0.057
Mof_H 	H 	0.3661	0.0873	0.1364	-0.008
Mof_C 	C 	0.218	0.1534	0.1537	0.062
Mof_H 	H 	0.18	0.1709	0.1559	0.005
Mof_C 	C 	0.2917	0.0909	0.1937	-0.041
Mof_H 	H 	0.3051	0.0647	0.2255	0.043
Mof_C 	C 	0.2345	0.1144	0.2005	0.012
Mof_C 	C 	0.1935	0.097	0.2561	0.108
Mof_C 	C 	0.1182	0.0966	0.3299	0.038
Mof_C 	C 	0.1517	0.0468	0.3356	-0.02
Mof_C 	C 	0.0627	0.1143	0.3632	0.054
Mof_C 	C 	0.047	0.1696	0.3746	-0.021
Mof_H 	H 	0.0723	0.1981	0.3582	0.03
Mof_C 	C 	0.0174	0.0756	0.3832	-0.045
Mof_H 	H 	0.0236	0.0375	0.3743	0.036
Mof_C 	C 	0.996	0.1837	0.4089	-0.003
Mof_H 	H 	0.9895	0.2217	0.4182	0.017
Mof_C 	C 	0.9651	0.0911	0.4147	-0.001
Mof_H 	H 	0.9359	0.0642	0.4261	0.014
Mof_C 	C 	0.1448	0.9972	0.3784	0.141
Mof_C 	C 	0.0879	0.972	0.3913	-0.069
Mof_H 	H 	0.0523	0.9878	0.3738	0.045
Mof_C 	C 	0.1952	0.9706	0.4097	-0.079
Mof_H 	H 	0.234	0.9861	0.405	0.06
Mof_C 	C 	0.0852	0.9238	0.43	0.005
Mof_H 	H 	0.0474	0.9063	0.4354	0.019
Mof_C 	C 	0.1876	0.9225	0.4467	0.002
Mof_H 	H 	0.2219	0.9039	0.4634	0.023
Mof_C 	C 	0.2152	0.2002	0.8528	0.012
Mof_H 	H 	0.2366	0.1672	0.862	0.023
Mof_C 	C 	0.1702	0.1999	0.8046	-0.026
Mof_H 	H 	0.1607	0.1668	0.7816	0.026
Mof_C 	C 	0.06	0.2012	0.7167	-0.044
Mof_H 	H 	0.0705	0.1677	0.7382	0.035
Mof_C 	C 	0.0154	0.2002	0.6681	0.017
Mof_H 	H 	0.9968	0.1663	0.6563	0.02
Mof_N 	N 	0.31293	0.146	0.0955	-0.217
Mof_N 	N 	0.1461	0.1272	0.2801	-0.206
Mof_H 	H 	0.1353	0.1602	0.2664	0.113
Mof_N 	N 	0.1997	0.0495	0.2896	-0.124
Mof_N 	N 	0.95523	0.1481	0.4299	-0.221
Mof_N 	N 	0.13238	0.9012	0.4597	-0.244
Mof_O 	O 	0.29803	0.20307	0.9618	-0.446
Mof_O 	O 	0.93266	0.29658	0.5597	-0.451
Mof_C 	C 	0.275	0.1821	0.1222	-0.039
Mof_H 	H 	0.2715	0.2174	0.102	0.024
Mof_C 	C 	0.3071	0.0941	0.1188	-0.016
Mof_H 	H 	0.332	0.067	0.0987	0.013
Mof_C 	C 	0.2383	0.1705	0.1808	-0.159
Mof_H 	H 	0.2182	0.199	0.2044	0.074
Mof_C 	C 	0.2703	0.0761	0.1673	-0.063
Mof_H 	H 	0.2688	0.038	0.1786	0.048
Mof_C 	C 	0.0188	0.1469	0.3334	-0.121
Mof_H 	H 	0.0244	0.1582	0.2886	0.065
Mof_C 	C 	0.0513	0.1004	0.4319	-0.09
Mof_H 	H 	0.0791	0.0774	0.4545	0.049
Mof_C 	C 	0.9676	0.1633	0.3658	0.068
Mof_H 	H 	0.9398	0.1861	0.3429	0
Mof_C 	C 	0.0023	0.1189	0.4656	0.038
Mof_H 	H 	0.9989	0.1128	0.5121	0.006
Mof_C 	C 	0.1288	0.0017	0.4438	-0.166
Mof_H 	H 	0.1207	0.0365	0.4636	0.078
Mof_C 	C 	0.1517	0.9424	0.3501	-0.143
Mof_H 	H 	0.1587	0.9373	0.3039	0.082
Mof_C 	C 	0.1249	0.9519	0.481	0.119
Mof_H 	H 	0.1158	0.9559	0.5269	-0.031
Mof_C 	C 	0.1475	0.8974	0.3935	0.087
Mof_H 	H 	0.1556	0.8617	0.3761	0.001
Mof_C 	C 	0.1956	0.2015	0.8764	-0.015
Mof_H 	H 	0.2032	0.1687	0.901	0.032
Mof_C 	C 	0.1504	0.2019	0.8276	-0.055
Mof_H 	H 	0.1277	0.1694	0.8198	0.038
Mof_C 	C 	0.0809	0.2032	0.694	-0.048
Mof_H 	H 	0.1063	0.1719	0.6979	0.036
Mof_C 	C 	0.0344	0.2037	0.6477	-0.005
Mof_H 	H 	0.0271	0.1712	0.6225	0.025
Mof_C 	C 	0.2199	0.75	0.4424	0.396
Mof_C 	C 	0.2701	0.75	0.3889	-0.101
Mof_C 	C 	0.3617	0.75	0.2901	0.018
Mof_C 	C 	0.4102	0.75	0.2349	0.026
Mof_C 	C 	0.5021	0.75	0.1364	-0.114
Mof_C 	C 	0.55	0.75	0.0812	0.405
Mof_O 	O 	0.12077	0.75	0.5686	-0.471
Mof_C 	C 	0.2801	0.25	0.9424	0.396
Mof_C 	C 	0.2299	0.25	0.8889	-0.1
Mof_C 	C 	0.1383	0.25	0.7901	0.018
Mof_C 	C 	0.0898	0.25	0.7349	0.027
Mof_C 	C 	0.9979	0.25	0.6364	-0.116
Mof_C 	C 	0.95	0.25	0.5812	0.405
Mof_O 	O 	0.37923	0.25	0.0686	-0.471
Mof_C 	C 	0.7801	0.25	0.5576	0.396
Mof_C 	C 	0.7299	0.25	0.6111	-0.101
Mof_C 	C 	0.6383	0.25	0.7099	0.018
Mof_C 	C 	0.5898	0.25	0.7651	0.026
Mof_C 	C 	0.4979	0.25	0.8636	-0.114
Mof_C 	C 	0.45	0.25	0.9188	0.405
Mof_O 	O 	0.87923	0.25	0.4314	-0.471
Mof_C 	C 	0.7199	0.75	0.0576	0.396
Mof_C 	C 	0.7701	0.75	0.1111	-0.1
Mof_C 	C 	0.8617	0.75	0.2099	0.018
Mof_C 	C 	0.9102	0.75	0.2651	0.027
Mof_C 	C 	0.0021	0.75	0.3636	-0.116
Mof_C 	C 	0.05	0.75	0.4188	0.405
Mof_O 	O 	0.62077	0.75	0.9314	-0.471
_end
