data_functionalizedCrystal
_audit_creation_method	'EQeq! by Chris Wilmer'
_symmetry_space_group_name_H-M	'P1'
_symmetry_Int_Tables_number	1
_symmetry_cell_setting	triclinic
loop_
_symmetry_equiv_pos_as_xyz
  x,y,z
_cell_length_a	23.157
_cell_length_b	27.317
_cell_length_c	22.592
_cell_angle_alpha	90
_cell_angle_beta	90
_cell_angle_gamma	90
loop_
_atom_site_label
_atom_site_type_symbol
_atom_site_fract_x
_atom_site_fract_y
_atom_site_fract_z
_atom_site_charge
Mof_Zn	Zn	0.76532	0.9897	0.63038	1.221
Mof_Zn	Zn	0.45807	0.66477	0.62781	1.224
Mof_Zn	Zn	0.50325	0.82887	0.87269	1.227
Mof_N 	N 	0.76152	0.96148	0.54829	-0.231
Mof_O 	O 	0.77281	0.94375	0.69611	-0.448
Mof_O 	O 	0.62496	0.83749	0.93984	-0.449
Mof_O 	O 	0.66869	0.57147	0.93751	-0.473
Mof_C 	C 	0.782	0.87375	0.85989	-0.132
Mof_O 	O 	0.83711	0.84307	0.93947	-0.453
Mof_O 	O 	0.54172	0.17046	0.80341	-0.464
Mof_O 	O 	0.56027	0.26569	0.62863	-0.516
Mof_O 	O 	0.6643	0.52893	0.85528	-0.466
Mof_C 	C 	0.6385	0.15237	0.60992	0.11
Mof_H 	H 	0.6536	0.1565	0.5721	0.016
Mof_O 	O 	0.58269	0.7398	0.94279	-0.451
Mof_O 	O 	0.50306	0.66268	0.69738	-0.464
Mof_O 	O 	0.88386	0.86693	0.85896	-0.485
Mof_O 	O 	0.52309	0.75968	0.87087	-0.503
Mof_O 	O 	0.57626	0.86185	0.86004	-0.479
Mof_N 	N 	0.99305	0.84809	0.95092	-0.236
Mof_C 	C 	0.6772	0.89102	0.80426	0.064
Mof_H 	H 	0.6422	0.8968	0.7853	0.045
Mof_O 	O 	0.62069	0.24581	0.55792	-0.475
Mof_C 	C 	0.6774	0.87081	0.86039	-0.131
Mof_C 	C 	0.60152	0.64683	0.89148	0.085
Mof_H 	H 	0.617	0.6514	0.929	0.036
Mof_C 	C 	0.73044	0.86277	0.88885	0.072
Mof_H 	H 	0.7312	0.8501	0.9271	0.047
Mof_C 	C 	0.6123	0.60329	0.86038	-0.146
Mof_C 	C 	0.8391	0.86025	0.8889	0.424
Mof_C 	C 	0.5427	0.67595	0.8097	0.077
Mof_H 	H 	0.5195	0.7	0.7929	0.04
Mof_C 	C 	0.7807	0.8946	0.80408	0.068
Mof_H 	H 	0.8151	0.9032	0.7855	0.043
Mof_C 	C 	0.622	0.85575	0.8899	0.417
Mof_C 	C 	0.6048	0.18909	0.63453	-0.17
Mof_C 	C 	0.5818	0.18242	0.6905	0.093
Mof_H 	H 	0.5599	0.2071	0.7078	0.034
Mof_C 	C 	0.6253	0.10289	0.6964	0.092
Mof_H 	H 	0.6317	0.074	0.7172	0.035
Mof_C 	C 	0.5528	0.63265	0.77923	-0.127
Mof_C 	C 	0.5882	0.59709	0.80393	0.076
Mof_H 	H 	0.5961	0.5687	0.7827	0.039
Mof_N 	N 	0.46846	0.84053	0.9511	-0.228
Mof_C 	C 	0.5641	0.1318	0.7813	0.368
Mof_C 	C 	0.726	0.92621	0.7147	0.355
Mof_C 	C 	0.72881	0.9028	0.77566	-0.114
Mof_O 	O 	0.5333	0.58592	0.69261	-0.298
Mof_O 	O 	0.68029	0.92733	0.68804	-0.301
Mof_C 	C 	0.5911	0.13921	0.72085	-0.136
Mof_C 	C 	0.6513	0.56514	0.88732	0.434
Mof_C 	C 	0.5279	0.6248	0.7186	0.365
Mof_C 	C 	0.5671	0.68349	0.86557	-0.146
Mof_C 	C 	0.6502	0.1094	0.64081	-0.17
Mof_O 	O 	0.5657	0.0926	0.80665	-0.3
Mof_C 	C 	0.5567	0.7317	0.8962	0.448
Mof_C 	C 	0.5937	0.23752	0.6044	0.46
Mof_C 	C 	0.0437	0.8678	0.9685	0.177
Mof_C 	C 	0.7568	0.91311	0.53044	0.061
Mof_C 	C 	0.0919	0.8851	0.934	-0.215
Mof_H 	H 	0.0925	0.8846	0.8928	0.115
Mof_O 	O 	0.70112	0.07314	0.56195	-0.483
Mof_O 	O 	0.70445	0.0371	0.64889	-0.478
Mof_C 	C 	0.6873	0.0703	0.6149	0.439
Mof_C 	C 	0.753	0.8698	0.564	-0.106
Mof_H 	H 	0.7513	0.87	0.6051	0.067
Mof_C 	C 	0.7519	0.8273	0.532	-0.016
Mof_H 	H 	0.7512	0.7976	0.552	0.04
Mof_C 	C 	0.138	0.9031	0.9688	0.163
Mof_H 	H 	0.1702	0.9156	0.9494	-0.009
Mof_C 	C 	0.4224	0.8682	0.9691	0.048
Mof_C 	C 	0.3778	0.8897	0.9363	-0.057
Mof_H 	H 	0.3783	0.8895	0.8951	0.052
Mof_C 	C 	0.3311	0.9119	0.9687	0.055
Mof_H 	H 	0.3007	0.9264	0.9482	0.021
Mof_C 	C 	0.5893	0.1606	0.0291	-0.054
Mof_C 	C 	0.6394	0.1449	0.0641	-0.081
Mof_C 	C 	0.6848	0.1276	0.0306	-0.021
Mof_H 	H 	0.6404	0.1464	0.1052	0.045
Mof_H 	H 	0.7171	0.1153	0.0501	0.025
Mof_Zn	Zn	0.23468	0.0103	0.63038	1.22
Mof_Zn	Zn	0.54193	0.33523	0.62781	1.223
Mof_Zn	Zn	0.49675	0.17113	0.87269	1.227
Mof_N 	N 	0.23848	0.03852	0.54829	-0.231
Mof_O 	O 	0.22719	0.05625	0.69611	-0.448
Mof_O 	O 	0.37504	0.16251	0.93984	-0.449
Mof_O 	O 	0.33131	0.42853	0.93751	-0.473
Mof_C 	C 	0.218	0.12625	0.85989	-0.132
Mof_O 	O 	0.16289	0.15693	0.93947	-0.453
Mof_O 	O 	0.45828	0.82954	0.80341	-0.464
Mof_O 	O 	0.43973	0.73431	0.62863	-0.516
Mof_O 	O 	0.3357	0.47107	0.85528	-0.466
Mof_C 	C 	0.3615	0.84763	0.60992	0.11
Mof_H 	H 	0.3464	0.8435	0.5721	0.016
Mof_O 	O 	0.41731	0.2602	0.94279	-0.451
Mof_O 	O 	0.49694	0.33732	0.69738	-0.464
Mof_O 	O 	0.11614	0.13307	0.85896	-0.485
Mof_O 	O 	0.47691	0.24032	0.87087	-0.503
Mof_O 	O 	0.42374	0.13815	0.86004	-0.479
Mof_N 	N 	0.00695	0.15191	0.95092	-0.236
Mof_C 	C 	0.3228	0.10898	0.80426	0.064
Mof_H 	H 	0.3578	0.1032	0.7853	0.045
Mof_O 	O 	0.37931	0.75419	0.55792	-0.475
Mof_C 	C 	0.3226	0.12919	0.86039	-0.131
Mof_C 	C 	0.39848	0.35317	0.89148	0.085
Mof_H 	H 	0.383	0.3486	0.929	0.036
Mof_C 	C 	0.26956	0.13723	0.88885	0.072
Mof_H 	H 	0.2688	0.1499	0.9271	0.047
Mof_C 	C 	0.3877	0.39671	0.86038	-0.146
Mof_C 	C 	0.1609	0.13975	0.8889	0.424
Mof_C 	C 	0.4573	0.32405	0.8097	0.077
Mof_H 	H 	0.4805	0.3	0.7929	0.04
Mof_C 	C 	0.2193	0.1054	0.80408	0.068
Mof_H 	H 	0.1849	0.0968	0.7855	0.043
Mof_C 	C 	0.378	0.14425	0.8899	0.417
Mof_C 	C 	0.3952	0.81091	0.63453	-0.17
Mof_C 	C 	0.4182	0.81758	0.6905	0.093
Mof_H 	H 	0.4401	0.7929	0.7078	0.034
Mof_C 	C 	0.3747	0.89711	0.6964	0.092
Mof_H 	H 	0.3683	0.926	0.7172	0.035
Mof_C 	C 	0.4472	0.36735	0.77923	-0.127
Mof_C 	C 	0.4118	0.40291	0.80393	0.076
Mof_H 	H 	0.4039	0.4313	0.7827	0.039
Mof_N 	N 	0.53154	0.15947	0.9511	-0.228
Mof_C 	C 	0.4359	0.8682	0.7813	0.368
Mof_C 	C 	0.274	0.07379	0.7147	0.355
Mof_C 	C 	0.27119	0.0972	0.77566	-0.114
Mof_O 	O 	0.4667	0.41408	0.69261	-0.298
Mof_O 	O 	0.31971	0.07267	0.68804	-0.301
Mof_C 	C 	0.4089	0.86079	0.72085	-0.136
Mof_C 	C 	0.3487	0.43486	0.88732	0.434
Mof_C 	C 	0.4721	0.3752	0.7186	0.365
Mof_C 	C 	0.4329	0.31651	0.86557	-0.146
Mof_C 	C 	0.3498	0.8906	0.64081	-0.17
Mof_O 	O 	0.4343	0.9074	0.80665	-0.3
Mof_C 	C 	0.4433	0.2683	0.8962	0.448
Mof_C 	C 	0.4063	0.76248	0.6044	0.46
Mof_C 	C 	0.9563	0.1322	0.9685	0.177
Mof_C 	C 	0.2432	0.08689	0.53044	0.061
Mof_C 	C 	0.9081	0.1149	0.934	-0.215
Mof_H 	H 	0.9075	0.1154	0.8928	0.115
Mof_O 	O 	0.29888	0.92686	0.56195	-0.483
Mof_O 	O 	0.29555	0.9629	0.64889	-0.478
Mof_C 	C 	0.3127	0.9297	0.6149	0.439
Mof_C 	C 	0.247	0.1302	0.564	-0.106
Mof_H 	H 	0.2487	0.13	0.6051	0.067
Mof_C 	C 	0.2481	0.1727	0.532	-0.016
Mof_H 	H 	0.2488	0.2024	0.552	0.04
Mof_C 	C 	0.862	0.0969	0.9688	0.163
Mof_H 	H 	0.8298	0.0844	0.9494	-0.009
Mof_C 	C 	0.5776	0.1318	0.9691	0.048
Mof_C 	C 	0.6222	0.1103	0.9363	-0.057
Mof_H 	H 	0.6217	0.1105	0.8951	0.052
Mof_C 	C 	0.6689	0.0881	0.9687	0.055
Mof_H 	H 	0.6993	0.0736	0.9482	0.021
Mof_C 	C 	0.4107	0.8394	0.0291	-0.054
Mof_C 	C 	0.3606	0.8551	0.0641	-0.081
Mof_C 	C 	0.3152	0.8724	0.0306	-0.021
Mof_H 	H 	0.3596	0.8536	0.1052	0.045
Mof_H 	H 	0.2829	0.8847	0.0501	0.025
Mof_Zn	Zn	0.73468	0.4897	0.86962	1.222
Mof_Zn	Zn	0.04193	0.16477	0.87219	1.225
Mof_Zn	Zn	0.99675	0.32887	0.62731	1.225
Mof_N 	N 	0.73848	0.46148	0.95171	-0.226
Mof_O 	O 	0.72719	0.44375	0.80389	-0.447
Mof_O 	O 	0.87504	0.33749	0.56016	-0.475
Mof_O 	O 	0.83131	0.07147	0.56249	-0.499
Mof_C 	C 	0.718	0.37375	0.64011	-0.143
Mof_O 	O 	0.66289	0.34307	0.56053	-0.479
Mof_O 	O 	0.95828	0.67046	0.69659	-0.465
Mof_O 	O 	0.93973	0.76569	0.87137	-0.508
Mof_O 	O 	0.8357	0.02893	0.64472	-0.472
Mof_C 	C 	0.8615	0.65237	0.89008	0.102
Mof_H 	H 	0.8464	0.6565	0.9279	0.03
Mof_O 	O 	0.91731	0.2398	0.55721	-0.477
Mof_O 	O 	0.99694	0.16268	0.80262	-0.463
Mof_O 	O 	0.61614	0.36693	0.64104	-0.491
Mof_O 	O 	0.97691	0.25968	0.62913	-0.51
Mof_O 	O 	0.92374	0.36185	0.63996	-0.485
Mof_N 	N 	0.50695	0.34809	0.54908	-0.243
Mof_C 	C 	0.8228	0.39102	0.69574	0.069
Mof_H 	H 	0.8578	0.3968	0.7147	0.044
Mof_O 	O 	0.87931	0.74581	0.94208	-0.448
Mof_C 	C 	0.8226	0.37081	0.63961	-0.142
Mof_C 	C 	0.89848	0.14683	0.60852	0.092
Mof_H 	H 	0.883	0.1514	0.571	0.022
Mof_C 	C 	0.76956	0.36277	0.61115	0.079
Mof_H 	H 	0.7688	0.3501	0.5729	0.034
Mof_C 	C 	0.8877	0.10329	0.63962	-0.157
Mof_C 	C 	0.6609	0.36025	0.6111	0.43
Mof_C 	C 	0.9573	0.17595	0.6903	0.082
Mof_H 	H 	0.9805	0.2	0.7071	0.038
Mof_C 	C 	0.7193	0.3946	0.69592	0.072
Mof_H 	H 	0.6849	0.4032	0.7145	0.041
Mof_C 	C 	0.878	0.35575	0.6101	0.423
Mof_C 	C 	0.8952	0.68909	0.86547	-0.158
Mof_C 	C 	0.9182	0.68242	0.8095	0.087
Mof_H 	H 	0.9401	0.7071	0.7922	0.037
Mof_C 	C 	0.8747	0.60289	0.8036	0.087
Mof_H 	H 	0.8683	0.574	0.7828	0.037
Mof_C 	C 	0.9472	0.13265	0.72077	-0.131
Mof_C 	C 	0.9118	0.09709	0.69607	0.081
Mof_H 	H 	0.9039	0.0687	0.7173	0.037
Mof_N 	N 	0.03154	0.34053	0.5489	-0.242
Mof_C 	C 	0.9359	0.6318	0.7187	0.368
Mof_C 	C 	0.774	0.42621	0.7853	0.354
Mof_C 	C 	0.77119	0.4028	0.72434	-0.118
Mof_O 	O 	0.9667	0.08592	0.80739	-0.296
Mof_O 	O 	0.81971	0.42733	0.81196	-0.298
Mof_C 	C 	0.9089	0.63921	0.77915	-0.131
Mof_C 	C 	0.8487	0.06514	0.61268	0.441
Mof_C 	C 	0.9721	0.1248	0.7814	0.366
Mof_C 	C 	0.9329	0.18349	0.63443	-0.157
Mof_C 	C 	0.8498	0.6094	0.85919	-0.158
Mof_O 	O 	0.9343	0.5926	0.69335	-0.302
Mof_C 	C 	0.9433	0.2317	0.6038	0.454
Mof_C 	C 	0.9063	0.73752	0.8956	0.455
Mof_C 	C 	0.4563	0.3678	0.5315	0.066
Mof_C 	C 	0.7432	0.41311	0.96956	0.2
Mof_C 	C 	0.4081	0.3851	0.566	-0.109
Mof_H 	H 	0.4075	0.3846	0.6072	0.074
Mof_O 	O 	0.79888	0.57314	0.93805	-0.456
Mof_O 	O 	0.79555	0.5371	0.85111	-0.473
Mof_C 	C 	0.8127	0.5703	0.8851	0.432
Mof_C 	C 	0.747	0.3698	0.936	-0.249
Mof_H 	H 	0.7487	0.37	0.8949	0.121
Mof_C 	C 	0.7481	0.3273	0.968	0.194
Mof_H 	H 	0.7488	0.2976	0.948	-0.02
Mof_C 	C 	0.362	0.4031	0.5312	-0.018
Mof_H 	H 	0.3298	0.4156	0.5506	0.04
Mof_C 	C 	0.0776	0.3682	0.5309	0.036
Mof_C 	C 	0.1222	0.3897	0.5637	-0.016
Mof_H 	H 	0.1217	0.3895	0.6049	0.036
Mof_C 	C 	0.1689	0.4119	0.5313	-0.045
Mof_H 	H 	0.1993	0.4264	0.5518	0.044
Mof_C 	C 	0.9107	0.6606	0.4709	0.022
Mof_C 	C 	0.8606	0.6449	0.4359	-0.094
Mof_C 	C 	0.8152	0.6276	0.4694	0.006
Mof_H 	H 	0.8596	0.6464	0.3948	0.05
Mof_H 	H 	0.7829	0.6153	0.4499	0.023
Mof_Zn	Zn	0.26532	0.5103	0.86962	1.222
Mof_Zn	Zn	0.95807	0.83523	0.87219	1.225
Mof_Zn	Zn	0.00325	0.67113	0.62731	1.225
Mof_N 	N 	0.26152	0.53852	0.95171	-0.226
Mof_O 	O 	0.27281	0.55625	0.80389	-0.447
Mof_O 	O 	0.12496	0.66251	0.56016	-0.475
Mof_O 	O 	0.16869	0.92853	0.56249	-0.499
Mof_C 	C 	0.282	0.62625	0.64011	-0.143
Mof_O 	O 	0.33711	0.65693	0.56053	-0.479
Mof_O 	O 	0.04172	0.32954	0.69659	-0.465
Mof_O 	O 	0.06027	0.23431	0.87137	-0.508
Mof_O 	O 	0.1643	0.97107	0.64472	-0.472
Mof_C 	C 	0.1385	0.34763	0.89008	0.102
Mof_H 	H 	0.1536	0.3435	0.9279	0.03
Mof_O 	O 	0.08269	0.7602	0.55721	-0.477
Mof_O 	O 	0.00306	0.83732	0.80262	-0.463
Mof_O 	O 	0.38386	0.63307	0.64104	-0.491
Mof_O 	O 	0.02309	0.74032	0.62913	-0.51
Mof_O 	O 	0.07626	0.63815	0.63996	-0.485
Mof_N 	N 	0.49305	0.65191	0.54908	-0.243
Mof_C 	C 	0.1772	0.60898	0.69574	0.069
Mof_H 	H 	0.1422	0.6032	0.7147	0.044
Mof_O 	O 	0.12069	0.25419	0.94208	-0.448
Mof_C 	C 	0.1774	0.62919	0.63961	-0.142
Mof_C 	C 	0.10152	0.85317	0.60852	0.092
Mof_H 	H 	0.117	0.8486	0.571	0.022
Mof_C 	C 	0.23044	0.63723	0.61115	0.079
Mof_H 	H 	0.2312	0.6499	0.5729	0.034
Mof_C 	C 	0.1123	0.89671	0.63962	-0.157
Mof_C 	C 	0.3391	0.63975	0.6111	0.43
Mof_C 	C 	0.0427	0.82405	0.6903	0.082
Mof_H 	H 	0.0195	0.8	0.7071	0.038
Mof_C 	C 	0.2807	0.6054	0.69592	0.072
Mof_H 	H 	0.3151	0.5968	0.7145	0.041
Mof_C 	C 	0.122	0.64425	0.6101	0.423
Mof_C 	C 	0.1048	0.31091	0.86547	-0.158
Mof_C 	C 	0.0818	0.31758	0.8095	0.087
Mof_H 	H 	0.0599	0.2929	0.7922	0.037
Mof_C 	C 	0.1253	0.39711	0.8036	0.087
Mof_H 	H 	0.1317	0.426	0.7828	0.037
Mof_C 	C 	0.0528	0.86735	0.72077	-0.131
Mof_C 	C 	0.0882	0.90291	0.69607	0.081
Mof_H 	H 	0.0961	0.9313	0.7173	0.037
Mof_N 	N 	0.96846	0.65947	0.5489	-0.242
Mof_C 	C 	0.0641	0.3682	0.7187	0.368
Mof_C 	C 	0.226	0.57379	0.7853	0.354
Mof_C 	C 	0.22881	0.5972	0.72434	-0.118
Mof_O 	O 	0.0333	0.91408	0.80739	-0.296
Mof_O 	O 	0.18029	0.57267	0.81196	-0.298
Mof_C 	C 	0.0911	0.36079	0.77915	-0.131
Mof_C 	C 	0.1513	0.93486	0.61268	0.441
Mof_C 	C 	0.0279	0.8752	0.7814	0.366
Mof_C 	C 	0.0671	0.81651	0.63443	-0.157
Mof_C 	C 	0.1502	0.3906	0.85919	-0.158
Mof_O 	O 	0.0657	0.4074	0.69335	-0.302
Mof_C 	C 	0.0567	0.7683	0.6038	0.454
Mof_C 	C 	0.0937	0.26248	0.8956	0.455
Mof_C 	C 	0.5437	0.6322	0.5315	0.066
Mof_C 	C 	0.2568	0.58689	0.96956	0.2
Mof_C 	C 	0.5919	0.6149	0.566	-0.109
Mof_H 	H 	0.5925	0.6154	0.6072	0.074
Mof_O 	O 	0.20112	0.42686	0.93805	-0.456
Mof_O 	O 	0.20445	0.4629	0.85111	-0.473
Mof_C 	C 	0.1873	0.4297	0.8851	0.432
Mof_C 	C 	0.253	0.6302	0.936	-0.249
Mof_H 	H 	0.2513	0.63	0.8949	0.121
Mof_C 	C 	0.2519	0.6727	0.968	0.194
Mof_H 	H 	0.2512	0.7024	0.948	-0.02
Mof_C 	C 	0.638	0.5969	0.5312	-0.018
Mof_H 	H 	0.6702	0.5844	0.5506	0.04
Mof_C 	C 	0.9224	0.6318	0.5309	0.036
Mof_C 	C 	0.8778	0.6103	0.5637	-0.016
Mof_H 	H 	0.8783	0.6105	0.6049	0.036
Mof_C 	C 	0.8311	0.5881	0.5313	-0.045
Mof_H 	H 	0.8007	0.5736	0.5518	0.044
Mof_C 	C 	0.0893	0.3394	0.4709	0.022
Mof_C 	C 	0.1394	0.3551	0.4359	-0.094
Mof_C 	C 	0.1848	0.3724	0.4694	0.006
Mof_H 	H 	0.1404	0.3536	0.3948	0.05
Mof_H 	H 	0.2171	0.3847	0.4499	0.023
Mof_Zn	Zn	0.23468	0.0103	0.36962	1.22
Mof_Zn	Zn	0.54193	0.33523	0.37219	1.223
Mof_Zn	Zn	0.49675	0.17113	0.12731	1.224
Mof_N 	N 	0.23848	0.03852	0.45171	-0.231
Mof_O 	O 	0.22719	0.05625	0.30389	-0.45
Mof_O 	O 	0.37504	0.16251	0.06016	-0.492
Mof_O 	O 	0.33131	0.42853	0.06249	-0.516
Mof_C 	C 	0.218	0.12625	0.14011	-0.154
Mof_O 	O 	0.16289	0.15693	0.06053	-0.495
Mof_O 	O 	0.45828	0.82954	0.19659	-0.467
Mof_O 	O 	0.43973	0.73431	0.37137	-0.517
Mof_O 	O 	0.3357	0.47107	0.14472	-0.477
Mof_C 	C 	0.3615	0.84763	0.39008	0.111
Mof_H 	H 	0.3464	0.8435	0.4279	0.015
Mof_O 	O 	0.41731	0.2602	0.05721	-0.495
Mof_O 	O 	0.49694	0.33732	0.30262	-0.466
Mof_O 	O 	0.11614	0.13307	0.14104	-0.496
Mof_O 	O 	0.47691	0.24032	0.12913	-0.515
Mof_O 	O 	0.42374	0.13815	0.13996	-0.49
Mof_N 	N 	0.00695	0.15191	0.04908	-0.231
Mof_C 	C 	0.3228	0.10898	0.19574	0.075
Mof_H 	H 	0.3578	0.1032	0.2147	0.04
Mof_O 	O 	0.37931	0.75419	0.44208	-0.475
Mof_C 	C 	0.3226	0.12919	0.13961	-0.153
Mof_C 	C 	0.39848	0.35317	0.10852	0.098
Mof_H 	H 	0.383	0.3486	0.071	0.008
Mof_C 	C 	0.26956	0.13723	0.11115	0.086
Mof_H 	H 	0.2688	0.1499	0.0729	0.021
Mof_C 	C 	0.3877	0.39671	0.13962	-0.168
Mof_C 	C 	0.1609	0.13975	0.1111	0.434
Mof_C 	C 	0.4573	0.32405	0.1903	0.087
Mof_H 	H 	0.4805	0.3	0.2071	0.035
Mof_C 	C 	0.2193	0.1054	0.19592	0.078
Mof_H 	H 	0.1849	0.0968	0.2145	0.037
Mof_C 	C 	0.378	0.14425	0.1101	0.426
Mof_C 	C 	0.3952	0.81091	0.36547	-0.171
Mof_C 	C 	0.4182	0.81758	0.3095	0.094
Mof_H 	H 	0.4401	0.7929	0.2922	0.033
Mof_C 	C 	0.3747	0.89711	0.3036	0.093
Mof_H 	H 	0.3683	0.926	0.2828	0.033
Mof_C 	C 	0.4472	0.36735	0.22077	-0.138
Mof_C 	C 	0.4118	0.40291	0.19607	0.086
Mof_H 	H 	0.4039	0.4313	0.2173	0.034
Mof_N 	N 	0.53154	0.15947	0.0489	-0.237
Mof_C 	C 	0.4359	0.8682	0.2187	0.37
Mof_C 	C 	0.274	0.07379	0.2853	0.358
Mof_C 	C 	0.27119	0.0972	0.22434	-0.125
Mof_O 	O 	0.4667	0.41408	0.30739	-0.3
Mof_O 	O 	0.31971	0.07267	0.31196	-0.303
Mof_C 	C 	0.4089	0.86079	0.27915	-0.139
Mof_C 	C 	0.3487	0.43486	0.11268	0.445
Mof_C 	C 	0.4721	0.3752	0.2814	0.368
Mof_C 	C 	0.4329	0.31651	0.13443	-0.168
Mof_C 	C 	0.3498	0.8906	0.35919	-0.171
Mof_O 	O 	0.4343	0.9074	0.19335	-0.306
Mof_C 	C 	0.4433	0.2683	0.1038	0.458
Mof_C 	C 	0.4063	0.76248	0.3956	0.461
Mof_C 	C 	0.9563	0.1322	0.0315	-0.042
Mof_C 	C 	0.2432	0.08689	0.46956	0.061
Mof_C 	C 	0.9081	0.1149	0.066	-0.002
Mof_H 	H 	0.9075	0.1154	0.1072	0.034
Mof_O 	O 	0.29888	0.92686	0.43805	-0.483
Mof_O 	O 	0.29555	0.9629	0.35111	-0.479
Mof_C 	C 	0.3127	0.9297	0.3851	0.439
Mof_C 	C 	0.247	0.1302	0.436	-0.106
Mof_H 	H 	0.2487	0.13	0.3949	0.067
Mof_C 	C 	0.2481	0.1727	0.468	-0.016
Mof_H 	H 	0.2488	0.2024	0.448	0.04
Mof_C 	C 	0.862	0.0969	0.0312	-0.198
Mof_H 	H 	0.8298	0.0844	0.0506	0.089
Mof_C 	C 	0.5776	0.1318	0.0309	0.029
Mof_C 	C 	0.6222	0.1103	0.0637	0.015
Mof_H 	H 	0.6217	0.1105	0.1049	0.023
Mof_C 	C 	0.6689	0.0881	0.0313	-0.14
Mof_H 	H 	0.6993	0.0736	0.0518	0.065
Mof_C 	C 	0.4107	0.8394	0.9709	0.097
Mof_C 	C 	0.3606	0.8551	0.9359	-0.097
Mof_C 	C 	0.3152	0.8724	0.9694	0.028
Mof_H 	H 	0.3596	0.8536	0.8948	0.053
Mof_H 	H 	0.2829	0.8847	0.9499	0.023
Mof_Zn	Zn	0.76532	0.9897	0.36962	1.22
Mof_Zn	Zn	0.45807	0.66477	0.37219	1.223
Mof_Zn	Zn	0.50325	0.82887	0.12731	1.224
Mof_N 	N 	0.76152	0.96148	0.45171	-0.231
Mof_O 	O 	0.77281	0.94375	0.30389	-0.45
Mof_O 	O 	0.62496	0.83749	0.06016	-0.492
Mof_O 	O 	0.66869	0.57147	0.06249	-0.516
Mof_C 	C 	0.782	0.87375	0.14011	-0.154
Mof_O 	O 	0.83711	0.84307	0.06053	-0.495
Mof_O 	O 	0.54172	0.17046	0.19659	-0.467
Mof_O 	O 	0.56027	0.26569	0.37137	-0.517
Mof_O 	O 	0.6643	0.52893	0.14472	-0.477
Mof_C 	C 	0.6385	0.15237	0.39008	0.111
Mof_H 	H 	0.6536	0.1565	0.4279	0.015
Mof_O 	O 	0.58269	0.7398	0.05721	-0.495
Mof_O 	O 	0.50306	0.66268	0.30262	-0.466
Mof_O 	O 	0.88386	0.86693	0.14104	-0.496
Mof_O 	O 	0.52309	0.75968	0.12913	-0.515
Mof_O 	O 	0.57626	0.86185	0.13996	-0.49
Mof_N 	N 	0.99305	0.84809	0.04908	-0.231
Mof_C 	C 	0.6772	0.89102	0.19574	0.075
Mof_H 	H 	0.6422	0.8968	0.2147	0.04
Mof_O 	O 	0.62069	0.24581	0.44208	-0.475
Mof_C 	C 	0.6774	0.87081	0.13961	-0.153
Mof_C 	C 	0.60152	0.64683	0.10852	0.098
Mof_H 	H 	0.617	0.6514	0.071	0.008
Mof_C 	C 	0.73044	0.86277	0.11115	0.086
Mof_H 	H 	0.7312	0.8501	0.0729	0.021
Mof_C 	C 	0.6123	0.60329	0.13962	-0.168
Mof_C 	C 	0.8391	0.86025	0.1111	0.434
Mof_C 	C 	0.5427	0.67595	0.1903	0.087
Mof_H 	H 	0.5195	0.7	0.2071	0.035
Mof_C 	C 	0.7807	0.8946	0.19592	0.078
Mof_H 	H 	0.8151	0.9032	0.2145	0.037
Mof_C 	C 	0.622	0.85575	0.1101	0.426
Mof_C 	C 	0.6048	0.18909	0.36547	-0.171
Mof_C 	C 	0.5818	0.18242	0.3095	0.094
Mof_H 	H 	0.5599	0.2071	0.2922	0.033
Mof_C 	C 	0.6253	0.10289	0.3036	0.093
Mof_H 	H 	0.6317	0.074	0.2828	0.033
Mof_C 	C 	0.5528	0.63265	0.22077	-0.138
Mof_C 	C 	0.5882	0.59709	0.19607	0.086
Mof_H 	H 	0.5961	0.5687	0.2173	0.034
Mof_N 	N 	0.46846	0.84053	0.0489	-0.237
Mof_C 	C 	0.5641	0.1318	0.2187	0.37
Mof_C 	C 	0.726	0.92621	0.2853	0.358
Mof_C 	C 	0.72881	0.9028	0.22434	-0.125
Mof_O 	O 	0.5333	0.58592	0.30739	-0.3
Mof_O 	O 	0.68029	0.92733	0.31196	-0.303
Mof_C 	C 	0.5911	0.13921	0.27915	-0.139
Mof_C 	C 	0.6513	0.56514	0.11268	0.445
Mof_C 	C 	0.5279	0.6248	0.2814	0.368
Mof_C 	C 	0.5671	0.68349	0.13443	-0.168
Mof_C 	C 	0.6502	0.1094	0.35919	-0.171
Mof_O 	O 	0.5657	0.0926	0.19335	-0.306
Mof_C 	C 	0.5567	0.7317	0.1038	0.458
Mof_C 	C 	0.5937	0.23752	0.3956	0.461
Mof_C 	C 	0.0437	0.8678	0.0315	-0.042
Mof_C 	C 	0.7568	0.91311	0.46956	0.061
Mof_C 	C 	0.0919	0.8851	0.066	-0.002
Mof_H 	H 	0.0925	0.8846	0.1072	0.034
Mof_O 	O 	0.70112	0.07314	0.43805	-0.483
Mof_O 	O 	0.70445	0.0371	0.35111	-0.479
Mof_C 	C 	0.6873	0.0703	0.3851	0.439
Mof_C 	C 	0.753	0.8698	0.436	-0.106
Mof_H 	H 	0.7513	0.87	0.3949	0.067
Mof_C 	C 	0.7519	0.8273	0.468	-0.016
Mof_H 	H 	0.7512	0.7976	0.448	0.04
Mof_C 	C 	0.138	0.9031	0.0312	-0.198
Mof_H 	H 	0.1702	0.9156	0.0506	0.089
Mof_C 	C 	0.4224	0.8682	0.0309	0.029
Mof_C 	C 	0.3778	0.8897	0.0637	0.015
Mof_H 	H 	0.3783	0.8895	0.1049	0.023
Mof_C 	C 	0.3311	0.9119	0.0313	-0.14
Mof_H 	H 	0.3007	0.9264	0.0518	0.065
Mof_C 	C 	0.5893	0.1606	0.9709	0.097
Mof_C 	C 	0.6394	0.1449	0.9359	-0.097
Mof_C 	C 	0.6848	0.1276	0.9694	0.028
Mof_H 	H 	0.6404	0.1464	0.8948	0.053
Mof_H 	H 	0.7171	0.1153	0.9499	0.023
Mof_Zn	Zn	0.26532	0.5103	0.13038	1.219
Mof_Zn	Zn	0.95807	0.83523	0.12781	1.222
Mof_Zn	Zn	0.00325	0.67113	0.37269	1.225
Mof_N 	N 	0.26152	0.53852	0.04829	-0.216
Mof_O 	O 	0.27281	0.55625	0.19611	-0.45
Mof_O 	O 	0.12496	0.66251	0.43984	-0.476
Mof_O 	O 	0.16869	0.92853	0.43751	-0.5
Mof_C 	C 	0.282	0.62625	0.35989	-0.145
Mof_O 	O 	0.33711	0.65693	0.43947	-0.479
Mof_O 	O 	0.04172	0.32954	0.30341	-0.466
Mof_O 	O 	0.06027	0.23431	0.12863	-0.522
Mof_O 	O 	0.1643	0.97107	0.35528	-0.473
Mof_C 	C 	0.1385	0.34763	0.10992	0.118
Mof_H 	H 	0.1536	0.3435	0.0721	0.002
Mof_O 	O 	0.08269	0.7602	0.44279	-0.478
Mof_O 	O 	0.00306	0.83732	0.19738	-0.466
Mof_O 	O 	0.38386	0.63307	0.35896	-0.492
Mof_O 	O 	0.02309	0.74032	0.37087	-0.511
Mof_O 	O 	0.07626	0.63815	0.36004	-0.487
Mof_N 	N 	0.49305	0.65191	0.45092	-0.243
Mof_C 	C 	0.1772	0.60898	0.30426	0.071
Mof_H 	H 	0.1422	0.6032	0.2853	0.041
Mof_O 	O 	0.12069	0.25419	0.05792	-0.492
Mof_C 	C 	0.1774	0.62919	0.36039	-0.144
Mof_C 	C 	0.10152	0.85317	0.39148	0.093
Mof_H 	H 	0.117	0.8486	0.429	0.021
Mof_C 	C 	0.23044	0.63723	0.38885	0.081
Mof_H 	H 	0.2312	0.6499	0.4271	0.033
Mof_C 	C 	0.1123	0.89671	0.36038	-0.159
Mof_C 	C 	0.3391	0.63975	0.3889	0.431
Mof_C 	C 	0.0427	0.82405	0.3097	0.083
Mof_H 	H 	0.0195	0.8	0.2929	0.037
Mof_C 	C 	0.2807	0.6054	0.30408	0.075
Mof_H 	H 	0.3151	0.5968	0.2855	0.039
Mof_C 	C 	0.122	0.64425	0.3899	0.423
Mof_C 	C 	0.1048	0.31091	0.13453	-0.181
Mof_C 	C 	0.0818	0.31758	0.1905	0.098
Mof_H 	H 	0.0599	0.2929	0.2078	0.031
Mof_C 	C 	0.1253	0.39711	0.1964	0.097
Mof_H 	H 	0.1317	0.426	0.2172	0.031
Mof_C 	C 	0.0528	0.86735	0.27923	-0.134
Mof_C 	C 	0.0882	0.90291	0.30393	0.082
Mof_H 	H 	0.0961	0.9313	0.2827	0.035
Mof_N 	N 	0.96846	0.65947	0.4511	-0.242
Mof_C 	C 	0.0641	0.3682	0.2813	0.37
Mof_C 	C 	0.226	0.57379	0.2147	0.359
Mof_C 	C 	0.22881	0.5972	0.27566	-0.122
Mof_O 	O 	0.0333	0.91408	0.19261	-0.3
Mof_O 	O 	0.18029	0.57267	0.18804	-0.305
Mof_C 	C 	0.0911	0.36079	0.22085	-0.143
Mof_C 	C 	0.1513	0.93486	0.38732	0.441
Mof_C 	C 	0.0279	0.8752	0.2186	0.368
Mof_C 	C 	0.0671	0.81651	0.36557	-0.158
Mof_C 	C 	0.1502	0.3906	0.14081	-0.181
Mof_O 	O 	0.0657	0.4074	0.30665	-0.304
Mof_C 	C 	0.0567	0.7683	0.3962	0.454
Mof_C 	C 	0.0937	0.26248	0.1044	0.464
Mof_C 	C 	0.5437	0.6322	0.4685	0.066
Mof_C 	C 	0.2568	0.58689	0.03044	-0.076
Mof_C 	C 	0.5919	0.6149	0.434	-0.109
Mof_H 	H 	0.5925	0.6154	0.3928	0.074
Mof_O 	O 	0.20112	0.42686	0.06195	-0.5
Mof_O 	O 	0.20445	0.4629	0.14889	-0.482
Mof_C 	C 	0.1873	0.4297	0.1149	0.443
Mof_C 	C 	0.253	0.6302	0.064	0.037
Mof_H 	H 	0.2513	0.63	0.1051	0.014
Mof_C 	C 	0.2519	0.6727	0.032	-0.225
Mof_H 	H 	0.2512	0.7024	0.052	0.099
Mof_C 	C 	0.638	0.5969	0.4688	-0.018
Mof_H 	H 	0.6702	0.5844	0.4494	0.04
Mof_C 	C 	0.9224	0.6318	0.4691	0.037
Mof_C 	C 	0.8778	0.6103	0.4363	-0.016
Mof_H 	H 	0.8783	0.6105	0.3951	0.036
Mof_C 	C 	0.8311	0.5881	0.4687	-0.045
Mof_H 	H 	0.8007	0.5736	0.4482	0.044
Mof_C 	C 	0.0893	0.3394	0.5291	0.023
Mof_C 	C 	0.1394	0.3551	0.5641	-0.094
Mof_C 	C 	0.1848	0.3724	0.5306	0.005
Mof_H 	H 	0.1404	0.3536	0.6052	0.05
Mof_H 	H 	0.2171	0.3847	0.5501	0.024
Mof_Zn	Zn	0.73468	0.4897	0.13038	1.219
Mof_Zn	Zn	0.04193	0.16477	0.12781	1.222
Mof_Zn	Zn	0.99675	0.32887	0.37269	1.225
Mof_N 	N 	0.73848	0.46148	0.04829	-0.216
Mof_O 	O 	0.72719	0.44375	0.19611	-0.45
Mof_O 	O 	0.87504	0.33749	0.43984	-0.476
Mof_O 	O 	0.83131	0.07147	0.43751	-0.5
Mof_C 	C 	0.718	0.37375	0.35989	-0.145
Mof_O 	O 	0.66289	0.34307	0.43947	-0.479
Mof_O 	O 	0.95828	0.67046	0.30341	-0.466
Mof_O 	O 	0.93973	0.76569	0.12863	-0.522
Mof_O 	O 	0.8357	0.02893	0.35528	-0.473
Mof_C 	C 	0.8615	0.65237	0.10992	0.118
Mof_H 	H 	0.8464	0.6565	0.0721	0.002
Mof_O 	O 	0.91731	0.2398	0.44279	-0.478
Mof_O 	O 	0.99694	0.16268	0.19738	-0.466
Mof_O 	O 	0.61614	0.36693	0.35896	-0.492
Mof_O 	O 	0.97691	0.25968	0.37087	-0.511
Mof_O 	O 	0.92374	0.36185	0.36004	-0.487
Mof_N 	N 	0.50695	0.34809	0.45092	-0.243
Mof_C 	C 	0.8228	0.39102	0.30426	0.071
Mof_H 	H 	0.8578	0.3968	0.2853	0.041
Mof_O 	O 	0.87931	0.74581	0.05792	-0.492
Mof_C 	C 	0.8226	0.37081	0.36039	-0.144
Mof_C 	C 	0.89848	0.14683	0.39148	0.093
Mof_H 	H 	0.883	0.1514	0.429	0.021
Mof_C 	C 	0.76956	0.36277	0.38885	0.081
Mof_H 	H 	0.7688	0.3501	0.4271	0.033
Mof_C 	C 	0.8877	0.10329	0.36038	-0.159
Mof_C 	C 	0.6609	0.36025	0.3889	0.431
Mof_C 	C 	0.9573	0.17595	0.3097	0.083
Mof_H 	H 	0.9805	0.2	0.2929	0.037
Mof_C 	C 	0.7193	0.3946	0.30408	0.075
Mof_H 	H 	0.6849	0.4032	0.2855	0.039
Mof_C 	C 	0.878	0.35575	0.3899	0.423
Mof_C 	C 	0.8952	0.68909	0.13453	-0.181
Mof_C 	C 	0.9182	0.68242	0.1905	0.098
Mof_H 	H 	0.9401	0.7071	0.2078	0.031
Mof_C 	C 	0.8747	0.60289	0.1964	0.097
Mof_H 	H 	0.8683	0.574	0.2172	0.031
Mof_C 	C 	0.9472	0.13265	0.27923	-0.134
Mof_C 	C 	0.9118	0.09709	0.30393	0.082
Mof_H 	H 	0.9039	0.0687	0.2827	0.035
Mof_N 	N 	0.03154	0.34053	0.4511	-0.242
Mof_C 	C 	0.9359	0.6318	0.2813	0.37
Mof_C 	C 	0.774	0.42621	0.2147	0.359
Mof_C 	C 	0.77119	0.4028	0.27566	-0.122
Mof_O 	O 	0.9667	0.08592	0.19261	-0.3
Mof_O 	O 	0.81971	0.42733	0.18804	-0.305
Mof_C 	C 	0.9089	0.63921	0.22085	-0.143
Mof_C 	C 	0.8487	0.06514	0.38732	0.441
Mof_C 	C 	0.9721	0.1248	0.2186	0.368
Mof_C 	C 	0.9329	0.18349	0.36557	-0.158
Mof_C 	C 	0.8498	0.6094	0.14081	-0.181
Mof_O 	O 	0.9343	0.5926	0.30665	-0.304
Mof_C 	C 	0.9433	0.2317	0.3962	0.454
Mof_C 	C 	0.9063	0.73752	0.1044	0.464
Mof_C 	C 	0.4563	0.3678	0.4685	0.066
Mof_C 	C 	0.7432	0.41311	0.03044	-0.076
Mof_C 	C 	0.4081	0.3851	0.434	-0.109
Mof_H 	H 	0.4075	0.3846	0.3928	0.074
Mof_O 	O 	0.79888	0.57314	0.06195	-0.5
Mof_O 	O 	0.79555	0.5371	0.14889	-0.482
Mof_C 	C 	0.8127	0.5703	0.1149	0.443
Mof_C 	C 	0.747	0.3698	0.064	0.037
Mof_H 	H 	0.7487	0.37	0.1051	0.014
Mof_C 	C 	0.7481	0.3273	0.032	-0.225
Mof_H 	H 	0.7488	0.2976	0.052	0.099
Mof_C 	C 	0.362	0.4031	0.4688	-0.018
Mof_H 	H 	0.3298	0.4156	0.4494	0.04
Mof_C 	C 	0.0776	0.3682	0.4691	0.037
Mof_C 	C 	0.1222	0.3897	0.4363	-0.016
Mof_H 	H 	0.1217	0.3895	0.3951	0.036
Mof_C 	C 	0.1689	0.4119	0.4687	-0.045
Mof_H 	H 	0.1993	0.4264	0.4482	0.044
Mof_C 	C 	0.9107	0.6606	0.5291	0.023
Mof_C 	C 	0.8606	0.6449	0.5641	-0.094
Mof_C 	C 	0.8152	0.6276	0.5306	0.005
Mof_H 	H 	0.8596	0.6464	0.6052	0.05
Mof_H 	H 	0.7829	0.6153	0.5501	0.024
Mof_Zn	Zn	0.5805	0.79654	-0	1.204
Mof_Zn	Zn	0.88157	0.80241	-0	1.203
Mof_Zn	Zn	0.73322	0.56886	-0	1.201
Mof_N 	N 	0.4993	0.82972	-0	-0.239
Mof_N 	N 	0.9633	0.83662	-0	-0.234
Mof_Zn	Zn	0.4195	0.20346	-0	1.204
Mof_Zn	Zn	0.11843	0.19759	-0	1.203
Mof_Zn	Zn	0.26678	0.43114	-0	1.201
Mof_N 	N 	0.5007	0.17028	-0	-0.239
Mof_N 	N 	0.0367	0.16338	-0	-0.234
Mof_Zn	Zn	0.9195	0.29654	0.5	1.22
Mof_Zn	Zn	0.61843	0.30241	0.5	1.219
Mof_Zn	Zn	0.76678	0.06886	0.5	1.217
Mof_N 	N 	0.0007	0.32972	0.5	-0.208
Mof_N 	N 	0.5367	0.33662	0.5	-0.203
Mof_Zn	Zn	0.0805	0.70346	0.5	1.22
Mof_Zn	Zn	0.38157	0.69759	0.5	1.219
Mof_Zn	Zn	0.23322	0.93114	0.5	1.217
Mof_N 	N 	0.9993	0.67028	0.5	-0.208
Mof_N 	N 	0.4633	0.66338	0.5	-0.203
Mof_N 	N 	0.76348	0.98939	0.5	-0.172
Mof_N 	N 	0.23652	0.01061	0.5	-0.172
Mof_N 	N 	0.73652	0.48939	-0	-0.202
Mof_N 	N 	0.26348	0.51061	-0	-0.202
_end
