data_functionalizedCrystal
_audit_creation_method	'EQeq! by Chris Wilmer'
_symmetry_space_group_name_H-M	'P1'
_symmetry_Int_Tables_number	1
_symmetry_cell_setting	triclinic
loop_
_symmetry_equiv_pos_as_xyz
  x,y,z
_cell_length_a	11.8998
_cell_length_b	18.9792
_cell_length_c	18.9792
_cell_angle_alpha	64.2478
_cell_angle_beta	77.9364
_cell_angle_gamma	102.064
loop_
_atom_site_label
_atom_site_type_symbol
_atom_site_fract_x
_atom_site_fract_y
_atom_site_fract_z
_atom_site_charge
Mof_Fe	Fe	0.5	3.20245e-17	0.5	0.708
Mof_Fe	Fe	4.80367e-17	0.5	0.5	0.707
Mof_Fe	Fe	0.5	0.5	-0	0.703
Mof_H 	H 	0.238	0.0641	0.6841	0.083
Mof_H 	H 	0.0504	0.9625	0.7223	0.001
Mof_H 	H 	0.0466	0.8747	0.6645	0.078
Mof_H 	H 	0.2214	0.8893	0.5735	0.003
Mof_H 	H 	0.8544	0.2533	0.4722	0.081
Mof_H 	H 	0.993	0.3677	0.4561	0.017
Mof_H 	H 	0.7308	0.409	0.5832	0.006
Mof_H 	H 	0.5852	0.2947	0.6021	0.078
Mof_H 	H 	0.9221	0.6841	0.2518	0.084
Mof_H 	H 	0.7727	0.7223	0.3152	0.015
Mof_H 	H 	0.7111	0.6645	0.4608	0.077
Mof_H 	H 	0.7949	0.5735	0.5372	0.008
Mof_H 	H 	0.3266	0.4722	0.2745	0.077
Mof_H 	H 	0.4491	0.4561	0.1762	0.006
Mof_H 	H 	0.314	0.5832	0.0078	-0.006
Mof_H 	H 	0.1873	0.6021	0.1032	0.071
Mof_H 	H 	0.1739	0.2518	0.0641	0.077
Mof_H 	H 	0.0879	0.3152	0.9625	-0.003
Mof_H 	H 	0.1719	0.4608	0.8747	0.08
Mof_H 	H 	0.3321	0.5372	0.8893	0.004
Mof_H 	H 	0.6011	0.2745	0.2533	0.078
Mof_H 	H 	0.6253	0.1762	0.3677	0.007
Mof_H 	H 	0.3218	0.0078	0.409	-0.006
Mof_H 	H 	0.2905	0.1032	0.2947	0.07
Mof_H 	H 	0.762	0.9359	0.3159	0.062
Mof_H 	H 	0.9496	0.0375	0.2777	0.033
Mof_H 	H 	0.9534	0.1253	0.3355	0.068
Mof_H 	H 	0.7786	0.1107	0.4265	0.012
Mof_H 	H 	0.1456	0.7467	0.5278	0.077
Mof_H 	H 	0.007	0.6323	0.5439	-0.003
Mof_H 	H 	0.2692	0.591	0.4168	0.005
Mof_H 	H 	0.4148	0.7053	0.3979	0.08
Mof_H 	H 	0.0779	0.3159	0.7482	0.06
Mof_H 	H 	0.2273	0.2777	0.6848	0.019
Mof_H 	H 	0.2889	0.3355	0.5392	0.068
Mof_H 	H 	0.2051	0.4265	0.4628	0.006
Mof_H 	H 	0.6734	0.5278	0.7255	0.081
Mof_H 	H 	0.5509	0.5439	0.8238	0.007
Mof_H 	H 	0.686	0.4168	0.9922	0.017
Mof_H 	H 	0.8127	0.3979	0.8968	0.087
Mof_H 	H 	0.8261	0.7482	0.9359	0.067
Mof_H 	H 	0.9121	0.6848	0.0375	0.038
Mof_H 	H 	0.8281	0.5392	0.1253	0.065
Mof_H 	H 	0.6679	0.4628	0.1107	0.011
Mof_H 	H 	0.3989	0.7255	0.7467	0.08
Mof_H 	H 	0.3747	0.8238	0.6323	0.006
Mof_H 	H 	0.6782	0.9922	0.591	0.017
Mof_H 	H 	0.7095	0.8968	0.7053	0.088
Mof_C 	C 	0.4577	0.0929	0.5788	0.086
Mof_C 	C 	0.61639	0.18784	0.54807	0.084
Mof_C 	C 	0.33503	0.03308	0.60769	0.054
Mof_C 	C 	0.23291	0.02752	0.66219	-0.162
Mof_C 	C 	0.12271	0.96806	0.68463	0.094
Mof_C 	C 	0.12105	0.91636	0.65021	-0.151
Mof_C 	C 	0.2255	0.92525	0.59625	0.097
Mof_C 	C 	0.70391	0.25998	0.53915	0.055
Mof_C 	C 	0.82688	0.28443	0.49559	-0.124
Mof_C 	C 	0.90917	0.35281	0.486	0.083
Mof_C 	C 	0.75606	0.37694	0.56026	0.084
Mof_C 	C 	0.66858	0.30869	0.57205	-0.124
Mof_C 	C 	0.0365	0.5788	0.3283	0.057
Mof_C 	C 	0.16446	0.54807	0.26409	0.082
Mof_C 	C 	0.94272	0.60769	0.35923	0.095
Mof_C 	C 	0.8951	0.66219	0.31029	-0.129
Mof_C 	C 	0.80734	0.68463	0.34731	0.054
Mof_C 	C 	0.77126	0.65021	0.43343	-0.132
Mof_C 	C 	0.82175	0.59625	0.4785	0.087
Mof_C 	C 	0.24306	0.53915	0.20087	0.051
Mof_C 	C 	0.32247	0.49559	0.21998	-0.127
Mof_C 	C 	0.39517	0.486	0.16119	0.078
Mof_C 	C 	0.31632	0.56026	0.0628	0.078
Mof_C 	C 	0.24063	0.57205	0.11926	-0.127
Mof_C 	C 	0.3648	0.3283	0.0929	0.083
Mof_C 	C 	0.42855	0.26409	0.18784	0.081
Mof_C 	C 	0.30195	0.35923	0.03308	0.05
Mof_C 	C 	0.20539	0.31029	0.02752	-0.168
Mof_C 	C 	0.15465	0.34731	0.96806	0.099
Mof_C 	C 	0.20469	0.43343	0.91636	-0.154
Mof_C 	C 	0.30025	0.4785	0.92525	0.098
Mof_C 	C 	0.44393	0.20087	0.25998	0.051
Mof_C 	C 	0.54245	0.21998	0.28443	-0.127
Mof_C 	C 	0.55636	0.16119	0.35281	0.078
Mof_C 	C 	0.37912	0.0628	0.37694	0.078
Mof_C 	C 	0.35989	0.11926	0.30869	-0.128
Mof_C 	C 	0.5423	0.9071	0.4212	0.094
Mof_C 	C 	0.38361	0.81216	0.45193	0.086
Mof_C 	C 	0.66497	0.96692	0.39231	0.067
Mof_C 	C 	0.76709	0.97248	0.33781	-0.061
Mof_C 	C 	0.87729	0.03194	0.31537	-0.016
Mof_C 	C 	0.87895	0.08364	0.34979	-0.099
Mof_C 	C 	0.7745	0.07475	0.40375	0.061
Mof_C 	C 	0.29609	0.74002	0.46085	0.056
Mof_C 	C 	0.17312	0.71557	0.50441	-0.129
Mof_C 	C 	0.09083	0.64719	0.514	0.079
Mof_C 	C 	0.24394	0.62306	0.43974	0.083
Mof_C 	C 	0.33142	0.69131	0.42795	-0.126
Mof_C 	C 	0.9635	0.4212	0.6717	0.123
Mof_C 	C 	0.83554	0.45193	0.73591	0.088
Mof_C 	C 	0.05728	0.39231	0.64077	0.025
Mof_C 	C 	0.1049	0.33781	0.68971	-0.094
Mof_C 	C 	0.19266	0.31537	0.65269	0.024
Mof_C 	C 	0.22874	0.34979	0.56657	-0.118
Mof_C 	C 	0.17825	0.40375	0.5215	0.071
Mof_C 	C 	0.75694	0.46085	0.79913	0.06
Mof_C 	C 	0.67753	0.50441	0.78002	-0.126
Mof_C 	C 	0.60483	0.514	0.83881	0.084
Mof_C 	C 	0.68368	0.43974	0.9372	0.088
Mof_C 	C 	0.75937	0.42795	0.88074	-0.123
Mof_C 	C 	0.6352	0.6717	0.9071	0.097
Mof_C 	C 	0.57145	0.73591	0.81216	0.089
Mof_C 	C 	0.69805	0.64077	0.96692	0.071
Mof_C 	C 	0.79461	0.68971	0.97248	-0.054
Mof_C 	C 	0.84535	0.65269	0.03194	-0.022
Mof_C 	C 	0.79531	0.56657	0.08364	-0.096
Mof_C 	C 	0.69975	0.5215	0.07475	0.059
Mof_C 	C 	0.55607	0.79913	0.74002	0.059
Mof_C 	C 	0.45755	0.78002	0.71557	-0.126
Mof_C 	C 	0.44364	0.83881	0.64719	0.084
Mof_C 	C 	0.62088	0.9372	0.62306	0.088
Mof_C 	C 	0.64011	0.88074	0.69131	-0.123
Mof_N 	N 	0.54759	0.08629	0.52932	-0.169
Mof_N 	N 	0.65239	0.14805	0.50828	-0.097
Mof_N 	N 	0.49505	0.15538	0.59313	-0.132
Mof_N 	N 	0.33481	0.98253	0.5734	-0.178
Mof_N 	N 	0.87598	0.40067	0.51763	-0.192
Mof_N 	N 	0.07691	0.52932	0.38439	-0.165
Mof_N 	N 	0.16067	0.50828	0.34367	-0.099
Mof_N 	N 	0.08818	0.59313	0.25149	-0.133
Mof_N 	N 	0.90821	0.5734	0.44407	-0.189
Mof_N 	N 	0.39361	0.51763	0.0817	-0.202
Mof_N 	N 	0.4613	0.38439	0.08629	-0.169
Mof_N 	N 	0.50434	0.34367	0.14805	-0.098
Mof_N 	N 	0.33967	0.25149	0.15538	-0.136
Mof_N 	N 	0.35228	0.44407	0.98253	-0.176
Mof_N 	N 	0.47531	0.0817	0.40067	-0.203
Mof_N 	N 	0.45241	0.91371	0.47068	-0.158
Mof_N 	N 	0.34761	0.85195	0.49172	-0.095
Mof_N 	N 	0.50495	0.84462	0.40687	-0.13
Mof_N 	N 	0.66519	0.01747	0.4266	-0.201
Mof_N 	N 	0.12402	0.59933	0.48237	-0.203
Mof_N 	N 	0.92309	0.47068	0.61561	-0.161
Mof_N 	N 	0.83933	0.49172	0.65633	-0.093
Mof_N 	N 	0.91182	0.40687	0.74851	-0.129
Mof_N 	N 	0.09179	0.4266	0.55593	-0.19
Mof_N 	N 	0.60639	0.48237	0.9183	-0.191
Mof_N 	N 	0.5387	0.61561	0.91371	-0.157
Mof_N 	N 	0.49566	0.65633	0.85195	-0.094
Mof_N 	N 	0.66033	0.74851	0.84462	-0.127
Mof_N 	N 	0.64772	0.55593	0.01747	-0.202
Mof_N 	N 	0.52469	0.9183	0.59933	-0.193
_end
