data_functionalizedCrystal
_audit_creation_method	'EQeq! by Chris Wilmer'
_symmetry_space_group_name_H-M	'P1'
_symmetry_Int_Tables_number	1
_symmetry_cell_setting	triclinic
loop_
_symmetry_equiv_pos_as_xyz
  x,y,z
_cell_length_a	17.1607
_cell_length_b	17.1607
_cell_length_c	17.1607
_cell_angle_alpha	90
_cell_angle_beta	90
_cell_angle_gamma	90
loop_
_atom_site_label
_atom_site_type_symbol
_atom_site_fract_x
_atom_site_fract_y
_atom_site_fract_z
_atom_site_charge
Mof_H 	H 	0.3667	0.0055	0.5687	0.171
Mof_H 	H 	0.387	0.977	0.597	0.001
Mof_H 	H 	0.6333	0.9945	0.5687	0.171
Mof_H 	H 	0.613	0.023	0.597	0.001
Mof_H 	H 	0.6333	0.0055	0.4313	0.171
Mof_H 	H 	0.613	0.977	0.403	0.002
Mof_H 	H 	0.3667	0.9945	0.4313	0.172
Mof_H 	H 	0.387	0.023	0.403	0.002
Mof_H 	H 	0.5687	0.3667	0.0055	0.172
Mof_H 	H 	0.597	0.387	0.977	0.002
Mof_H 	H 	0.5687	0.6333	0.9945	0.172
Mof_H 	H 	0.597	0.613	0.023	0.002
Mof_H 	H 	0.4313	0.6333	0.0055	0.172
Mof_H 	H 	0.403	0.613	0.977	0.002
Mof_H 	H 	0.4313	0.3667	0.9945	0.172
Mof_H 	H 	0.403	0.387	0.023	0.002
Mof_H 	H 	0.0055	0.5687	0.3667	0.172
Mof_H 	H 	0.977	0.597	0.387	0.002
Mof_H 	H 	0.9945	0.5687	0.6333	0.172
Mof_H 	H 	0.023	0.597	0.613	0.002
Mof_H 	H 	0.0055	0.4313	0.6333	0.172
Mof_H 	H 	0.977	0.403	0.613	0.002
Mof_H 	H 	0.9945	0.4313	0.3667	0.172
Mof_H 	H 	0.023	0.403	0.387	0.002
Mof_H 	H 	0.0055	0.3667	0.5687	0.172
Mof_H 	H 	0.977	0.387	0.597	0.002
Mof_H 	H 	0.9945	0.6333	0.5687	0.172
Mof_H 	H 	0.023	0.613	0.597	0.002
Mof_H 	H 	0.0055	0.6333	0.4313	0.172
Mof_H 	H 	0.977	0.613	0.403	0.002
Mof_H 	H 	0.9945	0.3667	0.4313	0.172
Mof_H 	H 	0.023	0.387	0.403	0.002
Mof_H 	H 	0.3667	0.5687	0.0055	0.172
Mof_H 	H 	0.387	0.597	0.977	0.002
Mof_H 	H 	0.6333	0.5687	0.9945	0.172
Mof_H 	H 	0.613	0.597	0.023	0.002
Mof_H 	H 	0.6333	0.4313	0.0055	0.172
Mof_H 	H 	0.613	0.403	0.977	0.002
Mof_H 	H 	0.3667	0.4313	0.9945	0.172
Mof_H 	H 	0.387	0.403	0.023	0.002
Mof_H 	H 	0.5687	0.0055	0.3667	0.172
Mof_H 	H 	0.597	0.977	0.387	0.002
Mof_H 	H 	0.5687	0.9945	0.6333	0.172
Mof_H 	H 	0.597	0.023	0.613	0.002
Mof_H 	H 	0.4313	0.0055	0.6333	0.172
Mof_H 	H 	0.403	0.977	0.613	0.002
Mof_H 	H 	0.4313	0.9945	0.3667	0.172
Mof_H 	H 	0.403	0.023	0.387	0.002
Mof_Zn	Zn	0.56551	0.43449	0.43449	1.208
Mof_Zn	Zn	0.43449	0.56551	0.43449	1.208
Mof_Zn	Zn	0.43449	0.43449	0.56551	1.208
Mof_Zn	Zn	0.56551	0.56551	0.56551	1.208
Mof_O 	O 	0.54697	0.32469	0.45303	-0.494
Mof_C 	C 	0.449	0.1678	0.551	-0.131
Mof_H 	H 	0.413	0.205	0.587	0.065
Mof_C 	C 	0.4509	0.0846	0.5491	0.2
Mof_H 	H 	0.3671	0.0705	0.6329	0.194
Mof_C 	C 	0.3996	0.0411	0.6004	-0.583
Mof_O 	O 	0.45303	0.67531	0.45303	-0.494
Mof_C 	C 	0.551	0.8322	0.551	-0.131
Mof_H 	H 	0.587	0.795	0.587	0.065
Mof_C 	C 	0.5491	0.9154	0.5491	0.2
Mof_H 	H 	0.6329	0.9295	0.6329	0.194
Mof_C 	C 	0.6004	0.9589	0.6004	-0.583
Mof_O 	O 	0.45303	0.32469	0.54697	-0.494
Mof_C 	C 	0.551	0.1678	0.449	-0.131
Mof_H 	H 	0.587	0.205	0.413	0.065
Mof_C 	C 	0.5491	0.0846	0.4509	0.2
Mof_H 	H 	0.6329	0.0705	0.3671	0.194
Mof_C 	C 	0.6004	0.0411	0.3996	-0.583
Mof_O 	O 	0.54697	0.67531	0.54697	-0.494
Mof_C 	C 	0.449	0.8322	0.449	-0.131
Mof_H 	H 	0.413	0.795	0.413	0.065
Mof_C 	C 	0.4509	0.9154	0.4509	0.2
Mof_H 	H 	0.3671	0.9295	0.3671	0.194
Mof_C 	C 	0.3996	0.9589	0.3996	-0.583
Mof_O 	O 	0.45303	0.54697	0.32469	-0.494
Mof_C 	C 	0.551	0.449	0.1678	-0.131
Mof_H 	H 	0.587	0.413	0.205	0.065
Mof_C 	C 	0.5491	0.4509	0.0846	0.2
Mof_H 	H 	0.6329	0.3671	0.0705	0.194
Mof_C 	C 	0.6004	0.3996	0.0411	-0.583
Mof_O 	O 	0.45303	0.45303	0.67531	-0.494
Mof_C 	C 	0.551	0.551	0.8322	-0.131
Mof_H 	H 	0.587	0.587	0.795	0.065
Mof_C 	C 	0.5491	0.5491	0.9154	0.2
Mof_H 	H 	0.6329	0.6329	0.9295	0.194
Mof_C 	C 	0.6004	0.6004	0.9589	-0.583
Mof_O 	O 	0.54697	0.45303	0.32469	-0.494
Mof_C 	C 	0.449	0.551	0.1678	-0.131
Mof_H 	H 	0.413	0.587	0.205	0.065
Mof_C 	C 	0.4509	0.5491	0.0846	0.2
Mof_H 	H 	0.3671	0.6329	0.0705	0.194
Mof_C 	C 	0.3996	0.6004	0.0411	-0.583
Mof_O 	O 	0.54697	0.54697	0.67531	-0.494
Mof_C 	C 	0.449	0.449	0.8322	-0.131
Mof_H 	H 	0.413	0.413	0.795	0.065
Mof_C 	C 	0.4509	0.4509	0.9154	0.2
Mof_H 	H 	0.3671	0.3671	0.9295	0.194
Mof_C 	C 	0.3996	0.3996	0.9589	-0.583
Mof_O 	O 	0.32469	0.45303	0.54697	-0.494
Mof_C 	C 	0.1678	0.551	0.449	-0.131
Mof_H 	H 	0.205	0.587	0.413	0.065
Mof_C 	C 	0.0846	0.5491	0.4509	0.2
Mof_H 	H 	0.0705	0.6329	0.3671	0.194
Mof_C 	C 	0.0411	0.6004	0.3996	-0.583
Mof_O 	O 	0.67531	0.45303	0.45303	-0.494
Mof_C 	C 	0.8322	0.551	0.551	-0.131
Mof_H 	H 	0.795	0.587	0.587	0.065
Mof_C 	C 	0.9154	0.5491	0.5491	0.2
Mof_H 	H 	0.9295	0.6329	0.6329	0.194
Mof_C 	C 	0.9589	0.6004	0.6004	-0.583
Mof_O 	O 	0.32469	0.54697	0.45303	-0.494
Mof_C 	C 	0.1678	0.449	0.551	-0.131
Mof_H 	H 	0.205	0.413	0.587	0.065
Mof_C 	C 	0.0846	0.4509	0.5491	0.2
Mof_H 	H 	0.0705	0.3671	0.6329	0.194
Mof_C 	C 	0.0411	0.3996	0.6004	-0.583
Mof_O 	O 	0.67531	0.54697	0.54697	-0.494
Mof_C 	C 	0.8322	0.449	0.449	-0.131
Mof_H 	H 	0.795	0.413	0.413	0.065
Mof_C 	C 	0.9154	0.4509	0.4509	0.2
Mof_H 	H 	0.9295	0.3671	0.3671	0.194
Mof_C 	C 	0.9589	0.3996	0.3996	-0.583
Mof_O 	O 	0.5	0.5	0.5	-0.963
Mof_C 	C 	0.5	0.2885	0.5	0.326
Mof_C 	C 	0.5	0.206	0.5	-0.035
Mof_C 	C 	0.5	0.0436	0.5	-0.133
Mof_C 	C 	0.5	0.7115	0.5	0.326
Mof_C 	C 	0.5	0.794	0.5	-0.035
Mof_C 	C 	0.5	0.9564	0.5	-0.133
Mof_C 	C 	0.5	0.5	0.2885	0.326
Mof_C 	C 	0.5	0.5	0.206	-0.035
Mof_C 	C 	0.5	0.5	0.0436	-0.133
Mof_C 	C 	0.5	0.5	0.7115	0.326
Mof_C 	C 	0.5	0.5	0.794	-0.035
Mof_C 	C 	0.5	0.5	0.9564	-0.133
Mof_C 	C 	0.2885	0.5	0.5	0.326
Mof_C 	C 	0.206	0.5	0.5	-0.035
Mof_C 	C 	0.0436	0.5	0.5	-0.133
Mof_C 	C 	0.7115	0.5	0.5	0.326
Mof_C 	C 	0.794	0.5	0.5	-0.035
Mof_C 	C 	0.9564	0.5	0.5	-0.133
_end
