data_functionalizedCrystal
_audit_creation_method	'EQeq! by Chris Wilmer'
_symmetry_space_group_name_H-M	'P1'
_symmetry_Int_Tables_number	1
_symmetry_cell_setting	triclinic
loop_
_symmetry_equiv_pos_as_xyz
  x,y,z
_cell_length_a	17.437
_cell_length_b	10.02
_cell_length_c	17.902
_cell_angle_alpha	90
_cell_angle_beta	117.903
_cell_angle_gamma	90
loop_
_atom_site_label
_atom_site_type_symbol
_atom_site_fract_x
_atom_site_fract_y
_atom_site_fract_z
_atom_site_charge
Mof_Zn	Zn	0.87593	0.85985	0.80651	1.154
Mof_Zn	Zn	0.65217	0.34939	0.67922	1.18
Mof_O 	O 	0.7616	0.2783	0.6448	-0.307
Mof_N 	N 	0.9562	0.8318	0.9319	-0.313
Mof_N 	N 	0.5594	0.3033	0.5602	-0.357
Mof_N 	N 	0.5354	0.1729	0.5356	-0.078
Mof_N 	N 	0.9749	0.6999	0.9606	-0.128
Mof_N 	N 	0.7143	0.5274	0.697	-0.295
Mof_N 	N 	0.7596	0.7077	0.663	-0.109
Mof_N 	N 	0.7089	0.6023	0.6316	-0.108
Mof_N 	N 	0.8012	0.6992	0.7494	-0.305
Mof_N 	N 	0.0589	0.9075	0.719	-0.3
Mof_N 	N 	0.9589	0.9055	0.7614	-0.343
Mof_N 	N 	0.7945	0.0067	0.7947	-0.27
Mof_N 	N 	0.711	0.194	0.757	-0.277
Mof_N 	N 	0.0694	0.0149	0.7686	-0.029
Mof_N 	N 	0.012	0.0148	0.7943	-0.023
Mof_C 	C 	0.7718	0.5853	0.7665	0.301
Mof_C 	C 	0.7569	0.9312	0.9099	-0.183
Mof_H 	H 	0.791	0.8547	0.9251	0.033
Mof_C 	C 	0.7978	0.5315	0.8531	-0.844
Mof_H 	H 	0.8392	0.5906	0.8946	0.251
Mof_H 	H 	0.8234	0.4448	0.8586	0.246
Mof_H 	H 	0.7475	0.5247	0.8616	0.249
Mof_C 	C 	0.658	0.0815	0.9282	0.132
Mof_H 	H 	0.6267	0.1025	0.9568	-0.023
Mof_C 	C 	0.708	0.9637	0.9494	-0.183
Mof_H 	H 	0.7079	0.9071	0.9905	0.037
Mof_C 	C 	0.9898	0.8433	0.7155	0.239
Mof_C 	C 	0.7656	0.1139	0.7436	0.068
Mof_C 	C 	0.7544	0.0163	0.846	0.113
Mof_C 	C 	0.7904	0.1448	0.6748	0.04
Mof_H 	H 	0.8538	0.1416	0.6993	0.016
Mof_C 	C 	0.7034	0.1331	0.8237	0.05
Mof_C 	C 	0.6545	0.1668	0.8656	-0.177
Mof_H 	H 	0.621	0.244	0.8516	0.067
Mof_C 	C 	0.7512	0.0458	0.6014	-0.154
Mof_H 	H 	0.7693	0.0685	0.5599	0.088
Mof_H 	H 	0.689	0.0494	0.5761	0.085
Mof_H 	H 	0.7705	0.9572	0.622	-0.029
Mof_C 	C 	0.9512	0.7153	0.667	-0.802
Mof_H 	H 	0.9018	0.6901	0.6739	0.242
Mof_H 	H 	0.9939	0.6456	0.6884	0.236
Mof_H 	H 	0.9336	0.7292	0.6082	0.246
Mof_H 	H 	0.5492	0.5607	0.55	0.362
Mof_H 	H 	0.4476	0.5607	0.499	0.374
Mof_H 	H 	0.5032	0.5607	0.451	0.367
Mof_H 	H 	0.9637	0.0897	0.9437	0.042
Mof_H 	H 	0.0581	0.0897	0.0193	0.102
Mof_H 	H 	0.9782	0.0897	0.037	0.081
Mof_Zn	Zn	0.37593	0.35985	0.80651	1.171
Mof_Zn	Zn	0.15217	0.84939	0.67922	1.164
Mof_O 	O 	0.2616	0.7783	0.6448	-0.368
Mof_N 	N 	0.4562	0.3318	0.9319	-0.342
Mof_N 	N 	0.0594	0.8033	0.5602	-0.305
Mof_N 	N 	0.0354	0.6729	0.5356	-0.074
Mof_N 	N 	0.4749	0.1999	0.9606	-0.098
Mof_N 	N 	0.2143	0.0274	0.697	-0.236
Mof_N 	N 	0.2596	0.2077	0.663	-0.097
Mof_N 	N 	0.2089	0.1023	0.6316	-0.071
Mof_N 	N 	0.3012	0.1992	0.7494	-0.275
Mof_N 	N 	0.5589	0.4075	0.719	-0.279
Mof_N 	N 	0.4589	0.4055	0.7614	-0.299
Mof_N 	N 	0.2945	0.5067	0.7947	-0.28
Mof_N 	N 	0.211	0.694	0.757	-0.27
Mof_N 	N 	0.5694	0.5149	0.7686	-0.092
Mof_N 	N 	0.512	0.5148	0.7943	-0.099
Mof_C 	C 	0.2718	0.0853	0.7665	0.211
Mof_C 	C 	0.2569	0.4312	0.9099	-0.111
Mof_H 	H 	0.291	0.3547	0.9251	0.028
Mof_C 	C 	0.2978	0.0315	0.8531	-0.38
Mof_H 	H 	0.3392	0.0906	0.8946	0.133
Mof_H 	H 	0.3234	0.9448	0.8586	0.036
Mof_H 	H 	0.2475	0.0247	0.8616	0.145
Mof_C 	C 	0.158	0.5815	0.9282	-0.036
Mof_H 	H 	0.1267	0.6025	0.9568	0.018
Mof_C 	C 	0.208	0.4637	0.9494	-0.036
Mof_H 	H 	0.2079	0.4071	0.9905	0.014
Mof_C 	C 	0.4898	0.3433	0.7155	0.294
Mof_C 	C 	0.2656	0.6139	0.7436	-0
Mof_C 	C 	0.2544	0.5163	0.846	0.018
Mof_C 	C 	0.2904	0.6448	0.6748	0.22
Mof_H 	H 	0.3538	0.6416	0.6993	-0.061
Mof_C 	C 	0.2034	0.6331	0.8237	0.039
Mof_C 	C 	0.1545	0.6668	0.8656	-0.118
Mof_H 	H 	0.121	0.744	0.8516	0.041
Mof_C 	C 	0.2512	0.5458	0.6014	-0.676
Mof_H 	H 	0.2693	0.5685	0.5599	0.218
Mof_H 	H 	0.189	0.5494	0.5761	0.224
Mof_H 	H 	0.2705	0.4572	0.622	0.198
Mof_C 	C 	0.4512	0.2153	0.667	-0.886
Mof_H 	H 	0.4018	0.1901	0.6739	0.28
Mof_H 	H 	0.4939	0.1456	0.6884	0.284
Mof_H 	H 	0.4336	0.2292	0.6082	0.285
Mof_H 	H 	0.0492	0.0607	0.55	0.228
Mof_H 	H 	0.9476	0.0607	0.499	0.225
Mof_H 	H 	0.0032	0.0607	0.451	0.243
Mof_H 	H 	0.4637	0.5897	0.9437	0.23
Mof_H 	H 	0.5581	0.5897	0.0193	0.27
Mof_H 	H 	0.4782	0.5897	0.037	0.267
Mof_Zn	Zn	0.12407	0.85985	0.19349	1.156
Mof_Zn	Zn	0.34783	0.34939	0.32078	1.179
Mof_O 	O 	0.2384	0.2783	0.3552	-0.3
Mof_N 	N 	0.0438	0.8318	0.0681	-0.282
Mof_N 	N 	0.4406	0.3033	0.4398	-0.357
Mof_N 	N 	0.4646	0.1729	0.4644	-0.078
Mof_N 	N 	0.0251	0.6999	0.0394	-0.062
Mof_N 	N 	0.2857	0.5274	0.303	-0.298
Mof_N 	N 	0.2404	0.7077	0.337	-0.109
Mof_N 	N 	0.2911	0.6023	0.3684	-0.107
Mof_N 	N 	0.1988	0.6992	0.2506	-0.308
Mof_N 	N 	0.9411	0.9075	0.281	-0.334
Mof_N 	N 	0.0411	0.9055	0.2386	-0.33
Mof_N 	N 	0.2055	0.0067	0.2053	-0.268
Mof_N 	N 	0.289	0.194	0.243	-0.277
Mof_N 	N 	0.9306	0.0149	0.2314	-0.037
Mof_N 	N 	0.988	0.0148	0.2057	-0.055
Mof_C 	C 	0.2282	0.5853	0.2335	0.323
Mof_C 	C 	0.2431	0.9312	0.0901	-0.181
Mof_H 	H 	0.209	0.8547	0.0749	0.047
Mof_C 	C 	0.2022	0.5315	0.1469	-0.911
Mof_H 	H 	0.1608	0.5906	0.1054	0.289
Mof_H 	H 	0.1766	0.4448	0.1414	0.282
Mof_H 	H 	0.2525	0.5247	0.1384	0.282
Mof_C 	C 	0.342	0.0815	0.0718	0.142
Mof_H 	H 	0.3733	0.1025	0.0432	-0.004
Mof_C 	C 	0.292	0.9637	0.0506	-0.175
Mof_H 	H 	0.2921	0.9071	0.0095	0.06
Mof_C 	C 	0.0102	0.8433	0.2845	0.313
Mof_C 	C 	0.2344	0.1139	0.2564	0.077
Mof_C 	C 	0.2456	0.0163	0.154	0.121
Mof_C 	C 	0.2096	0.1448	0.3252	0.026
Mof_H 	H 	0.1462	0.1416	0.3007	0.032
Mof_C 	C 	0.2966	0.1331	0.1763	0.053
Mof_C 	C 	0.3455	0.1668	0.1344	-0.17
Mof_H 	H 	0.379	0.244	0.1484	0.072
Mof_C 	C 	0.2488	0.0458	0.3986	-0.127
Mof_H 	H 	0.2307	0.0685	0.4401	0.084
Mof_H 	H 	0.311	0.0494	0.4239	0.077
Mof_H 	H 	0.2295	0.9572	0.378	-0.039
Mof_C 	C 	0.0488	0.7153	0.333	-0.891
Mof_H 	H 	0.0982	0.6901	0.3261	0.272
Mof_H 	H 	0.0061	0.6456	0.3116	0.283
Mof_H 	H 	0.0664	0.7292	0.3918	0.282
Mof_H 	H 	0.4508	0.5607	0.45	0.362
Mof_H 	H 	0.5524	0.5607	0.501	0.373
Mof_H 	H 	0.4968	0.5607	0.549	0.367
Mof_H 	H 	0.0363	0.0897	0.0563	0.077
Mof_H 	H 	0.9419	0.0897	0.9807	0.056
Mof_H 	H 	0.0218	0.0897	0.963	0.076
Mof_Zn	Zn	0.62407	0.35985	0.19349	1.172
Mof_Zn	Zn	0.84783	0.84939	0.32078	1.162
Mof_O 	O 	0.7384	0.7783	0.3552	-0.367
Mof_N 	N 	0.5438	0.3318	0.0681	-0.326
Mof_N 	N 	0.9406	0.8033	0.4398	-0.321
Mof_N 	N 	0.9646	0.6729	0.4644	-0.105
Mof_N 	N 	0.5251	0.1999	0.0394	-0.062
Mof_N 	N 	0.7857	0.0274	0.303	-0.241
Mof_N 	N 	0.7404	0.2077	0.337	-0.1
Mof_N 	N 	0.7911	0.1023	0.3684	-0.075
Mof_N 	N 	0.6988	0.1992	0.2506	-0.278
Mof_N 	N 	0.4411	0.4075	0.281	-0.279
Mof_N 	N 	0.5411	0.4055	0.2386	-0.298
Mof_N 	N 	0.7055	0.5067	0.2053	-0.28
Mof_N 	N 	0.789	0.694	0.243	-0.271
Mof_N 	N 	0.4306	0.5149	0.2314	-0.089
Mof_N 	N 	0.488	0.5148	0.2057	-0.094
Mof_C 	C 	0.7282	0.0853	0.2335	0.227
Mof_C 	C 	0.7431	0.4312	0.0901	-0.109
Mof_H 	H 	0.709	0.3547	0.0749	0.039
Mof_C 	C 	0.7022	0.0315	0.1469	-0.441
Mof_H 	H 	0.6608	0.0906	0.1054	0.164
Mof_H 	H 	0.6766	0.9448	0.1414	0.067
Mof_H 	H 	0.7525	0.0247	0.1384	0.173
Mof_C 	C 	0.842	0.5815	0.0718	-0.035
Mof_H 	H 	0.8733	0.6025	0.0432	0.03
Mof_C 	C 	0.792	0.4637	0.0506	-0.029
Mof_H 	H 	0.7921	0.4071	0.0095	0.035
Mof_C 	C 	0.5102	0.3433	0.2845	0.295
Mof_C 	C 	0.7344	0.6139	0.2564	0.001
Mof_C 	C 	0.7456	0.5163	0.154	0.02
Mof_C 	C 	0.7096	0.6448	0.3252	0.214
Mof_H 	H 	0.6462	0.6416	0.3007	-0.058
Mof_C 	C 	0.7966	0.6331	0.1763	0.035
Mof_C 	C 	0.8455	0.6668	0.1344	-0.113
Mof_H 	H 	0.879	0.744	0.1484	0.035
Mof_C 	C 	0.7488	0.5458	0.3986	-0.663
Mof_H 	H 	0.7307	0.5685	0.4401	0.213
Mof_H 	H 	0.811	0.5494	0.4239	0.215
Mof_H 	H 	0.7295	0.4572	0.378	0.192
Mof_C 	C 	0.5488	0.2153	0.333	-0.886
Mof_H 	H 	0.5982	0.1901	0.3261	0.28
Mof_H 	H 	0.5061	0.1456	0.3116	0.284
Mof_H 	H 	0.5664	0.2292	0.3918	0.284
Mof_H 	H 	0.9508	0.0607	0.45	0.169
Mof_H 	H 	0.0524	0.0607	0.501	0.203
Mof_H 	H 	0.9968	0.0607	0.549	0.176
Mof_H 	H 	0.5363	0.5897	0.0563	0.205
Mof_H 	H 	0.4419	0.5897	0.9807	0.2
Mof_H 	H 	0.5218	0.5897	0.963	0.199
Mof_C 	C 	0.5	0.3786	0.5	0.621
Mof_C 	C 	0.5	0.5287	0.5	-2.22
Mof_C 	C 	2.8254e-33	0.8786	0.5	0.321
Mof_C 	C 	2.8254e-33	0.0287	0.5	-1.167
Mof_C 	C 	-4.56619e-33	0.9056	-0	0.188
Mof_C 	C 	-0	0.0578	-0	-0.4
Mof_C 	C 	0.5	0.4056	-0	0.473
Mof_C 	C 	0.5	0.5578	-0	-1.407
_end
