data_functionalizedCrystal
_audit_creation_method	'EQeq! by Chris Wilmer'
_symmetry_space_group_name_H-M	'P1'
_symmetry_Int_Tables_number	1
_symmetry_cell_setting	triclinic
loop_
_symmetry_equiv_pos_as_xyz
  x,y,z
_cell_length_a	17.7099
_cell_length_b	17.7099
_cell_length_c	32.977
_cell_angle_alpha	90
_cell_angle_beta	90
_cell_angle_gamma	120
loop_
_atom_site_label
_atom_site_type_symbol
_atom_site_fract_x
_atom_site_fract_y
_atom_site_fract_z
_atom_site_charge
Mof_C 	C 	0.1286	0.7526	0.00858	-0.042
Mof_C 	C 	0.1823	0.7667	0.97539	0.028
Mof_C 	C 	0.1554	0.6277	0.98005	-0.001
Mof_H 	H 	0.1618	0.582	0.9701	0.058
Mof_C 	C 	0.103	0.6126	0.01361	0.058
Mof_H 	H 	0.0767	0.5583	0.0262	0.019
Mof_C 	C 	0.2307	0.8519	0.9531	0.327
Mof_C 	C 	0.1105	0.8215	0.02477	0.368
Mof_N 	N 	0.0899	0.6755	0.02796	-0.25
Mof_N 	N 	0.1973	0.7044	0.96121	-0.092
Mof_O 	O 	0.05791	0.79963	0.05449	-0.525
Mof_O 	O 	0.3071	0.904	0.96399	-0.471
Mof_O 	O 	0.3308	0.1973	0.07638	-0.431
Mof_O 	O 	0.1471	0.8928	0.00841	-0.224
Mof_C 	C 	0.79527	0.08593	0.34191	-0.044
Mof_C 	C 	0.84897	0.10003	0.30872	0.026
Mof_C 	C 	0.82207	0.96103	0.31338	0.046
Mof_H 	H 	0.82847	0.91533	0.30343	0.058
Mof_C 	C 	0.76967	0.94593	0.34694	0.108
Mof_H 	H 	0.74337	0.89163	0.35953	0.017
Mof_C 	C 	0.89737	0.18523	0.28643	0.328
Mof_C 	C 	0.77717	0.15483	0.3581	0.371
Mof_N 	N 	0.75657	0.00883	0.36129	-0.277
Mof_N 	N 	0.86397	0.03773	0.29454	-0.116
Mof_O 	O 	0.72458	0.13296	0.38782	-0.517
Mof_O 	O 	0.97377	0.23733	0.29732	-0.459
Mof_O 	O 	0.99747	0.53063	0.40971	-0.373
Mof_O 	O 	0.81377	0.22613	0.34174	-0.229
Mof_C 	C 	0.46193	0.41927	0.67525	-0.041
Mof_C 	C 	0.51563	0.43337	0.64206	0.027
Mof_C 	C 	0.48873	0.29437	0.64672	-0.002
Mof_H 	H 	0.49513	0.24867	0.63677	0.059
Mof_C 	C 	0.43633	0.27927	0.68028	0.067
Mof_H 	H 	0.41003	0.22497	0.69287	0.019
Mof_C 	C 	0.56403	0.51857	0.61977	0.334
Mof_C 	C 	0.44383	0.48817	0.69144	0.375
Mof_N 	N 	0.42323	0.34217	0.69463	-0.255
Mof_N 	N 	0.53063	0.37107	0.62788	-0.091
Mof_O 	O 	0.39124	0.4663	0.72116	-0.531
Mof_O 	O 	0.64043	0.57067	0.63066	-0.509
Mof_O 	O 	0.66413	0.86397	0.74305	-0.399
Mof_O 	O 	0.48043	0.55947	0.67508	-0.236
Mof_C 	C 	0.2474	0.376	0.00858	-0.044
Mof_C 	C 	0.2333	0.4156	0.97539	0.025
Mof_C 	C 	0.3723	0.5277	0.98005	-0
Mof_H 	H 	0.418	0.5798	0.9701	0.06
Mof_C 	C 	0.3874	0.4904	0.01361	0.066
Mof_H 	H 	0.4417	0.5184	0.0262	0.022
Mof_C 	C 	0.1481	0.3788	0.9531	0.341
Mof_C 	C 	0.1785	0.289	0.02477	0.379
Mof_N 	N 	0.3245	0.4144	0.02796	-0.254
Mof_N 	N 	0.2956	0.4929	0.96121	-0.091
Mof_O 	O 	0.20037	0.25828	0.05449	-0.542
Mof_O 	O 	0.096	0.4031	0.96399	-0.545
Mof_O 	O 	0.8027	0.1335	0.07638	-0.443
Mof_O 	O 	0.1072	0.2543	0.00841	-0.259
Mof_C 	C 	0.91407	0.70933	0.34191	-0.036
Mof_C 	C 	0.89997	0.74893	0.30872	0.036
Mof_C 	C 	0.03897	0.86103	0.31338	-0.044
Mof_H 	H 	0.08467	0.91313	0.30343	0.082
Mof_C 	C 	0.05407	0.82373	0.34694	0.032
Mof_H 	H 	0.10837	0.85173	0.35953	0.033
Mof_C 	C 	0.81477	0.71213	0.28643	0.334
Mof_C 	C 	0.84517	0.62233	0.3581	0.381
Mof_N 	N 	0.99117	0.74773	0.36129	-0.231
Mof_N 	N 	0.96227	0.82623	0.29454	-0.055
Mof_O 	O 	0.86704	0.59161	0.38782	-0.544
Mof_O 	O 	0.76267	0.73643	0.29732	-0.505
Mof_O 	O 	0.46937	0.46683	0.40971	-0.424
Mof_O 	O 	0.77387	0.58763	0.34174	-0.236
Mof_C 	C 	0.58073	0.04267	0.67525	-0.098
Mof_C 	C 	0.56663	0.08227	0.64206	0.051
Mof_C 	C 	0.70563	0.19437	0.64672	0.003
Mof_H 	H 	0.75133	0.24647	0.63677	0.061
Mof_C 	C 	0.72073	0.15707	0.68028	0.057
Mof_H 	H 	0.77503	0.18507	0.69287	0.028
Mof_C 	C 	0.48143	0.04547	0.61977	0.259
Mof_C 	C 	0.51183	0.95567	0.69144	0.427
Mof_N 	N 	0.65783	0.08107	0.69463	-0.242
Mof_N 	N 	0.62893	0.15957	0.62788	-0.098
Mof_O 	O 	0.5337	0.92495	0.72116	-0.506
Mof_O 	O 	0.42933	0.06977	0.63066	-0.523
Mof_O 	O 	0.13603	0.80017	0.74305	-0.413
Mof_O 	O 	0.44053	0.92097	0.67508	-0.233
Mof_C 	C 	0.624	0.8714	0.00858	-0.038
Mof_C 	C 	0.5844	0.8177	0.97539	0.031
Mof_C 	C 	0.4723	0.8446	0.98005	0.004
Mof_H 	H 	0.4202	0.8382	0.9701	0.064
Mof_C 	C 	0.5096	0.897	0.01361	0.073
Mof_H 	H 	0.4816	0.9233	0.0262	0.027
Mof_C 	C 	0.6212	0.7693	0.9531	0.333
Mof_C 	C 	0.711	0.8895	0.02477	0.379
Mof_N 	N 	0.5856	0.9101	0.02796	-0.258
Mof_N 	N 	0.5071	0.8027	0.96121	-0.09
Mof_O 	O 	0.74172	0.94209	0.05449	-0.527
Mof_O 	O 	0.5969	0.6929	0.96399	-0.509
Mof_O 	O 	0.8665	0.6692	0.07638	-0.397
Mof_O 	O 	0.7457	0.8529	0.00841	-0.224
Mof_C 	C 	0.29067	0.20473	0.34191	-0.043
Mof_C 	C 	0.25107	0.15103	0.30872	0.02
Mof_C 	C 	0.13897	0.17793	0.31338	-0.005
Mof_H 	H 	0.08687	0.17153	0.30343	0.045
Mof_C 	C 	0.17627	0.23033	0.34694	0.061
Mof_H 	H 	0.14827	0.25663	0.35953	0.016
Mof_C 	C 	0.28787	0.10263	0.28643	0.334
Mof_C 	C 	0.37767	0.22283	0.3581	0.373
Mof_N 	N 	0.25227	0.24343	0.36129	-0.255
Mof_N 	N 	0.17377	0.13603	0.29454	-0.1
Mof_O 	O 	0.40839	0.27542	0.38782	-0.532
Mof_O 	O 	0.26357	0.02623	0.29732	-0.518
Mof_O 	O 	0.53317	0.00253	0.40971	-0.475
Mof_O 	O 	0.41237	0.18623	0.34174	-0.239
Mof_C 	C 	0.95733	0.53807	0.67525	0.025
Mof_C 	C 	0.91773	0.48437	0.64206	0.001
Mof_C 	C 	0.80563	0.51127	0.64672	-0.001
Mof_H 	H 	0.75353	0.50487	0.63677	0.061
Mof_C 	C 	0.84293	0.56367	0.68028	0.071
Mof_H 	H 	0.81493	0.58997	0.69287	0.025
Mof_C 	C 	0.95453	0.43597	0.61977	0.41
Mof_C 	C 	0.04433	0.55617	0.69144	0.313
Mof_N 	N 	0.91893	0.57677	0.69463	-0.241
Mof_N 	N 	0.84043	0.46937	0.62788	-0.084
Mof_O 	O 	0.07505	0.60876	0.72116	-0.508
Mof_O 	O 	0.93023	0.35957	0.63066	-0.494
Mof_O 	O 	0.19983	0.33587	0.74305	-0.428
Mof_O 	O 	0.07903	0.51957	0.67508	-0.233
Mof_C 	C 	0.7526	0.1286	0.49142	-0.042
Mof_C 	C 	0.7667	0.1823	0.52461	0.026
Mof_C 	C 	0.6277	0.1554	0.51995	-0.004
Mof_H 	H 	0.582	0.1618	0.5299	0.057
Mof_C 	C 	0.6126	0.103	0.48639	0.059
Mof_H 	H 	0.5583	0.0767	0.4738	0.017
Mof_C 	C 	0.8519	0.2307	0.5469	0.328
Mof_C 	C 	0.8215	0.1105	0.47523	0.368
Mof_N 	N 	0.6755	0.0899	0.47204	-0.251
Mof_N 	N 	0.7044	0.1973	0.53879	-0.092
Mof_O 	O 	0.79963	0.05791	0.44551	-0.525
Mof_O 	O 	0.904	0.3071	0.53601	-0.472
Mof_O 	O 	0.1973	0.3308	0.42362	-0.431
Mof_O 	O 	0.8928	0.1471	0.49159	-0.223
Mof_C 	C 	0.41927	0.46193	0.82475	-0.041
Mof_C 	C 	0.43337	0.51563	0.85794	0.027
Mof_C 	C 	0.29437	0.48873	0.85328	-0.002
Mof_H 	H 	0.24867	0.49513	0.86323	0.059
Mof_C 	C 	0.27927	0.43633	0.81972	0.067
Mof_H 	H 	0.22497	0.41003	0.80713	0.019
Mof_C 	C 	0.51857	0.56403	0.88023	0.334
Mof_C 	C 	0.48817	0.44383	0.80856	0.375
Mof_N 	N 	0.34217	0.42323	0.80537	-0.255
Mof_N 	N 	0.37107	0.53063	0.87212	-0.091
Mof_O 	O 	0.4663	0.39124	0.77884	-0.531
Mof_O 	O 	0.57067	0.64043	0.86934	-0.509
Mof_O 	O 	0.86397	0.66413	0.75695	-0.4
Mof_O 	O 	0.55947	0.48043	0.82492	-0.236
Mof_C 	C 	0.08593	0.79527	0.15809	-0.044
Mof_C 	C 	0.10003	0.84897	0.19128	0.026
Mof_C 	C 	0.96103	0.82207	0.18662	0.046
Mof_H 	H 	0.91533	0.82847	0.19657	0.058
Mof_C 	C 	0.94593	0.76967	0.15306	0.108
Mof_H 	H 	0.89163	0.74337	0.14047	0.017
Mof_C 	C 	0.18523	0.89737	0.21357	0.328
Mof_C 	C 	0.15483	0.77717	0.1419	0.371
Mof_N 	N 	0.00883	0.75657	0.13871	-0.277
Mof_N 	N 	0.03773	0.86397	0.20546	-0.116
Mof_O 	O 	0.13296	0.72458	0.11218	-0.517
Mof_O 	O 	0.23733	0.97377	0.20268	-0.459
Mof_O 	O 	0.53063	0.99747	0.09029	-0.374
Mof_O 	O 	0.22613	0.81377	0.15826	-0.229
Mof_C 	C 	0.376	0.2474	0.49142	-0.044
Mof_C 	C 	0.4156	0.2333	0.52461	0.024
Mof_C 	C 	0.5277	0.3723	0.51995	-0.001
Mof_H 	H 	0.5798	0.418	0.5299	0.061
Mof_C 	C 	0.4904	0.3874	0.48639	0.066
Mof_H 	H 	0.5184	0.4417	0.4738	0.022
Mof_C 	C 	0.3788	0.1481	0.5469	0.341
Mof_C 	C 	0.289	0.1785	0.47523	0.379
Mof_N 	N 	0.4144	0.3245	0.47204	-0.254
Mof_N 	N 	0.4929	0.2956	0.53879	-0.091
Mof_O 	O 	0.25828	0.20037	0.44551	-0.541
Mof_O 	O 	0.4031	0.096	0.53601	-0.545
Mof_O 	O 	0.1335	0.8027	0.42362	-0.444
Mof_O 	O 	0.2543	0.1072	0.49159	-0.259
Mof_C 	C 	0.04267	0.58073	0.82475	-0.097
Mof_C 	C 	0.08227	0.56663	0.85794	0.051
Mof_C 	C 	0.19437	0.70563	0.85328	0.003
Mof_H 	H 	0.24647	0.75133	0.86323	0.061
Mof_C 	C 	0.15707	0.72073	0.81972	0.057
Mof_H 	H 	0.18507	0.77503	0.80713	0.028
Mof_C 	C 	0.04547	0.48143	0.88023	0.26
Mof_C 	C 	0.95567	0.51183	0.80856	0.426
Mof_N 	N 	0.08107	0.65783	0.80537	-0.242
Mof_N 	N 	0.15957	0.62893	0.87212	-0.098
Mof_O 	O 	0.92495	0.5337	0.77884	-0.506
Mof_O 	O 	0.06977	0.42933	0.86934	-0.523
Mof_O 	O 	0.80017	0.13603	0.75695	-0.413
Mof_O 	O 	0.92097	0.44053	0.82492	-0.233
Mof_C 	C 	0.70933	0.91407	0.15809	-0.036
Mof_C 	C 	0.74893	0.89997	0.19128	0.036
Mof_C 	C 	0.86103	0.03897	0.18662	-0.044
Mof_H 	H 	0.91313	0.08467	0.19657	0.082
Mof_C 	C 	0.82373	0.05407	0.15306	0.033
Mof_H 	H 	0.85173	0.10837	0.14047	0.033
Mof_C 	C 	0.71213	0.81477	0.21357	0.334
Mof_C 	C 	0.62233	0.84517	0.1419	0.381
Mof_N 	N 	0.74773	0.99117	0.13871	-0.231
Mof_N 	N 	0.82623	0.96227	0.20546	-0.056
Mof_O 	O 	0.59161	0.86704	0.11218	-0.544
Mof_O 	O 	0.73643	0.76267	0.20268	-0.505
Mof_O 	O 	0.46683	0.46937	0.09029	-0.424
Mof_O 	O 	0.58763	0.77387	0.15826	-0.236
Mof_C 	C 	0.8714	0.624	0.49142	-0.037
Mof_C 	C 	0.8177	0.5844	0.52461	0.031
Mof_C 	C 	0.8446	0.4723	0.51995	0.002
Mof_H 	H 	0.8382	0.4202	0.5299	0.065
Mof_C 	C 	0.897	0.5096	0.48639	0.075
Mof_H 	H 	0.9233	0.4816	0.4738	0.027
Mof_C 	C 	0.7693	0.6212	0.5469	0.333
Mof_C 	C 	0.8895	0.711	0.47523	0.379
Mof_N 	N 	0.9101	0.5856	0.47204	-0.259
Mof_N 	N 	0.8027	0.5071	0.53879	-0.09
Mof_O 	O 	0.94209	0.74172	0.44551	-0.527
Mof_O 	O 	0.6929	0.5969	0.53601	-0.509
Mof_O 	O 	0.6692	0.8665	0.42362	-0.397
Mof_O 	O 	0.8529	0.7457	0.49159	-0.224
Mof_C 	C 	0.53807	0.95733	0.82475	0.026
Mof_C 	C 	0.48437	0.91773	0.85794	0
Mof_C 	C 	0.51127	0.80563	0.85328	-0.001
Mof_H 	H 	0.50487	0.75353	0.86323	0.061
Mof_C 	C 	0.56367	0.84293	0.81972	0.071
Mof_H 	H 	0.58997	0.81493	0.80713	0.026
Mof_C 	C 	0.43597	0.95453	0.88023	0.411
Mof_C 	C 	0.55617	0.04433	0.80856	0.312
Mof_N 	N 	0.57677	0.91893	0.80537	-0.241
Mof_N 	N 	0.46937	0.84043	0.87212	-0.084
Mof_O 	O 	0.60876	0.07505	0.77884	-0.508
Mof_O 	O 	0.35957	0.93023	0.86934	-0.494
Mof_O 	O 	0.33587	0.19983	0.75695	-0.428
Mof_O 	O 	0.51957	0.07903	0.82492	-0.233
Mof_C 	C 	0.20473	0.29067	0.15809	-0.043
Mof_C 	C 	0.15103	0.25107	0.19128	0.02
Mof_C 	C 	0.17793	0.13897	0.18662	-0.005
Mof_H 	H 	0.17153	0.08687	0.19657	0.045
Mof_C 	C 	0.23033	0.17627	0.15306	0.061
Mof_H 	H 	0.25663	0.14827	0.14047	0.016
Mof_C 	C 	0.10263	0.28787	0.21357	0.334
Mof_C 	C 	0.22283	0.37767	0.1419	0.373
Mof_N 	N 	0.24343	0.25227	0.13871	-0.255
Mof_N 	N 	0.13603	0.17377	0.20546	-0.1
Mof_O 	O 	0.27542	0.40839	0.11218	-0.532
Mof_O 	O 	0.02623	0.26357	0.20268	-0.518
Mof_O 	O 	0.00253	0.53317	0.09029	-0.475
Mof_O 	O 	0.18623	0.41237	0.15826	-0.239
Mof_C 	C 	0.8714	0.2474	0.99142	-0.041
Mof_C 	C 	0.8177	0.2333	0.02461	0.029
Mof_C 	C 	0.8446	0.3723	0.01995	0.004
Mof_H 	H 	0.8382	0.418	0.0299	0.064
Mof_C 	C 	0.897	0.3874	0.98639	0.073
Mof_H 	H 	0.9233	0.4417	0.9738	0.027
Mof_C 	C 	0.7693	0.1481	0.0469	0.339
Mof_C 	C 	0.8895	0.1785	0.97523	0.383
Mof_N 	N 	0.9101	0.3245	0.97204	-0.258
Mof_N 	N 	0.8027	0.2956	0.03879	-0.09
Mof_O 	O 	0.94209	0.20037	0.94551	-0.537
Mof_O 	O 	0.6929	0.096	0.03601	-0.544
Mof_O 	O 	0.6692	0.8027	0.92362	-0.416
Mof_O 	O 	0.8529	0.1072	0.99159	-0.248
Mof_C 	C 	0.53807	0.58073	0.32475	-0.041
Mof_C 	C 	0.48437	0.56663	0.35794	0.027
Mof_C 	C 	0.51127	0.70563	0.35328	-0
Mof_H 	H 	0.50487	0.75133	0.36323	0.062
Mof_C 	C 	0.56367	0.72073	0.31972	0.067
Mof_H 	H 	0.58997	0.77503	0.30713	0.025
Mof_C 	C 	0.43597	0.48143	0.38023	0.334
Mof_C 	C 	0.55617	0.51183	0.30856	0.375
Mof_N 	N 	0.57677	0.65783	0.30537	-0.254
Mof_N 	N 	0.46937	0.62893	0.37212	-0.091
Mof_O 	O 	0.60876	0.5337	0.27884	-0.531
Mof_O 	O 	0.35957	0.42933	0.36934	-0.508
Mof_O 	O 	0.33587	0.13603	0.25695	-0.417
Mof_O 	O 	0.51957	0.44053	0.32492	-0.235
Mof_C 	C 	0.20473	0.91407	0.65809	-0.038
Mof_C 	C 	0.15103	0.89997	0.69128	0.029
Mof_C 	C 	0.17793	0.03897	0.68662	-0.048
Mof_H 	H 	0.17153	0.08467	0.69657	0.064
Mof_C 	C 	0.23033	0.05407	0.65306	0.025
Mof_H 	H 	0.25663	0.10837	0.64047	0.026
Mof_C 	C 	0.10263	0.81477	0.71357	0.334
Mof_C 	C 	0.22283	0.84517	0.6419	0.379
Mof_N 	N 	0.24343	0.99117	0.63871	-0.231
Mof_N 	N 	0.13603	0.96227	0.70546	-0.064
Mof_O 	O 	0.27542	0.86704	0.61218	-0.545
Mof_O 	O 	0.02623	0.76267	0.70268	-0.515
Mof_O 	O 	0.00253	0.46937	0.59029	-0.474
Mof_O 	O 	0.18623	0.77387	0.65826	-0.239
Mof_C 	C 	0.7526	0.624	0.99142	-0.039
Mof_C 	C 	0.7667	0.5844	0.02461	0.03
Mof_C 	C 	0.6277	0.4723	0.01995	-0.001
Mof_H 	H 	0.582	0.4202	0.0299	0.061
Mof_C 	C 	0.6126	0.5096	0.98639	0.067
Mof_H 	H 	0.5583	0.4816	0.9738	0.022
Mof_C 	C 	0.8519	0.6212	0.0469	0.327
Mof_C 	C 	0.8215	0.711	0.97523	0.372
Mof_N 	N 	0.6755	0.5856	0.97204	-0.255
Mof_N 	N 	0.7044	0.5071	0.03879	-0.091
Mof_O 	O 	0.79963	0.74172	0.94551	-0.521
Mof_O 	O 	0.904	0.5969	0.03601	-0.472
Mof_O 	O 	0.1973	0.8665	0.92362	-0.403
Mof_O 	O 	0.8928	0.7457	0.99159	-0.212
Mof_C 	C 	0.41927	0.95733	0.32475	0.025
Mof_C 	C 	0.43337	0.91773	0.35794	0
Mof_C 	C 	0.29437	0.80563	0.35328	-0.001
Mof_H 	H 	0.24867	0.75353	0.36323	0.06
Mof_C 	C 	0.27927	0.84293	0.31972	0.071
Mof_H 	H 	0.22497	0.81493	0.30713	0.023
Mof_C 	C 	0.51857	0.95453	0.38023	0.41
Mof_C 	C 	0.48817	0.04433	0.30856	0.313
Mof_N 	N 	0.34217	0.91893	0.30537	-0.241
Mof_N 	N 	0.37107	0.84043	0.37212	-0.084
Mof_O 	O 	0.4663	0.07505	0.27884	-0.508
Mof_O 	O 	0.57067	0.93023	0.36934	-0.495
Mof_O 	O 	0.86397	0.19983	0.25695	-0.403
Mof_O 	O 	0.55947	0.07903	0.32492	-0.233
Mof_C 	C 	0.08593	0.29067	0.65809	-0.046
Mof_C 	C 	0.10003	0.25107	0.69128	0.018
Mof_C 	C 	0.96103	0.13897	0.68662	0.043
Mof_H 	H 	0.91533	0.08687	0.69657	0.041
Mof_C 	C 	0.94593	0.17627	0.65306	0.102
Mof_H 	H 	0.89163	0.14827	0.64047	0.011
Mof_C 	C 	0.18523	0.28787	0.71357	0.334
Mof_C 	C 	0.15483	0.37767	0.6419	0.37
Mof_N 	N 	0.00883	0.25227	0.63871	-0.278
Mof_N 	N 	0.03773	0.17377	0.70546	-0.126
Mof_O 	O 	0.13296	0.40839	0.61218	-0.518
Mof_O 	O 	0.23733	0.26357	0.70268	-0.512
Mof_O 	O 	0.53063	0.53317	0.59029	-0.424
Mof_O 	O 	0.22613	0.41237	0.65826	-0.235
Mof_C 	C 	0.376	0.1286	0.99142	-0.045
Mof_C 	C 	0.4156	0.1823	0.02461	0.023
Mof_C 	C 	0.5277	0.1554	0.01995	-0.003
Mof_H 	H 	0.5798	0.1618	0.0299	0.057
Mof_C 	C 	0.4904	0.103	0.98639	0.058
Mof_H 	H 	0.5184	0.0767	0.9738	0.017
Mof_C 	C 	0.3788	0.2307	0.0469	0.335
Mof_C 	C 	0.289	0.1105	0.97523	0.371
Mof_N 	N 	0.4144	0.0899	0.97204	-0.25
Mof_N 	N 	0.4929	0.1973	0.03879	-0.092
Mof_O 	O 	0.25828	0.05791	0.94551	-0.535
Mof_O 	O 	0.4031	0.3071	0.03601	-0.509
Mof_O 	O 	0.1335	0.3308	0.92362	-0.451
Mof_O 	O 	0.2543	0.1471	0.99159	-0.247
Mof_C 	C 	0.04267	0.46193	0.32475	-0.099
Mof_C 	C 	0.08227	0.51563	0.35794	0.051
Mof_C 	C 	0.19437	0.48873	0.35328	0.002
Mof_H 	H 	0.24647	0.49513	0.36323	0.059
Mof_C 	C 	0.15707	0.43633	0.31972	0.057
Mof_H 	H 	0.18507	0.41003	0.30713	0.025
Mof_C 	C 	0.04547	0.56403	0.38023	0.259
Mof_C 	C 	0.95567	0.44383	0.30856	0.427
Mof_N 	N 	0.08107	0.42323	0.30537	-0.242
Mof_N 	N 	0.15957	0.53063	0.37212	-0.098
Mof_O 	O 	0.92495	0.39124	0.27884	-0.506
Mof_O 	O 	0.06977	0.64043	0.36934	-0.523
Mof_O 	O 	0.80017	0.66413	0.25695	-0.42
Mof_O 	O 	0.92097	0.48043	0.32492	-0.234
Mof_C 	C 	0.70933	0.79527	0.65809	-0.039
Mof_C 	C 	0.74893	0.84897	0.69128	0.035
Mof_C 	C 	0.86103	0.82207	0.68662	0.003
Mof_H 	H 	0.91313	0.82847	0.69657	0.078
Mof_C 	C 	0.82373	0.76967	0.65306	0.073
Mof_H 	H 	0.85173	0.74337	0.64047	0.029
Mof_C 	C 	0.71213	0.89737	0.71357	0.328
Mof_C 	C 	0.62233	0.77717	0.6419	0.376
Mof_N 	N 	0.74773	0.75657	0.63871	-0.254
Mof_N 	N 	0.82623	0.86397	0.70546	-0.081
Mof_O 	O 	0.59161	0.72458	0.61218	-0.53
Mof_O 	O 	0.73643	0.97377	0.70268	-0.456
Mof_O 	O 	0.46683	0.99747	0.59029	-0.373
Mof_O 	O 	0.58763	0.81377	0.65826	-0.23
Mof_C 	C 	0.2474	0.8714	0.50858	-0.04
Mof_C 	C 	0.2333	0.8177	0.47539	0.028
Mof_C 	C 	0.3723	0.8446	0.48005	0.002
Mof_H 	H 	0.418	0.8382	0.4701	0.064
Mof_C 	C 	0.3874	0.897	0.51361	0.074
Mof_H 	H 	0.4417	0.9233	0.5262	0.027
Mof_C 	C 	0.1481	0.7693	0.4531	0.34
Mof_C 	C 	0.1785	0.8895	0.52477	0.383
Mof_N 	N 	0.3245	0.9101	0.52796	-0.259
Mof_N 	N 	0.2956	0.8027	0.46121	-0.09
Mof_O 	O 	0.20037	0.94209	0.55449	-0.537
Mof_O 	O 	0.096	0.6929	0.46399	-0.545
Mof_O 	O 	0.8027	0.6692	0.57638	-0.417
Mof_O 	O 	0.1072	0.8529	0.50841	-0.247
Mof_C 	C 	0.91407	0.20473	0.84191	-0.038
Mof_C 	C 	0.89997	0.15103	0.80872	0.029
Mof_C 	C 	0.03897	0.17793	0.81338	-0.048
Mof_H 	H 	0.08467	0.17153	0.80343	0.064
Mof_C 	C 	0.05407	0.23033	0.84694	0.026
Mof_H 	H 	0.10837	0.25663	0.85953	0.026
Mof_C 	C 	0.81477	0.10263	0.78643	0.334
Mof_C 	C 	0.84517	0.22283	0.8581	0.379
Mof_N 	N 	0.99117	0.24343	0.86129	-0.232
Mof_N 	N 	0.96227	0.13603	0.79454	-0.064
Mof_O 	O 	0.86704	0.27542	0.88782	-0.545
Mof_O 	O 	0.76267	0.02623	0.79732	-0.515
Mof_O 	O 	0.46937	0.00253	0.90971	-0.475
Mof_O 	O 	0.77387	0.18623	0.84174	-0.239
Mof_C 	C 	0.58073	0.53807	0.17525	-0.041
Mof_C 	C 	0.56663	0.48437	0.14206	0.027
Mof_C 	C 	0.70563	0.51127	0.14672	-0
Mof_H 	H 	0.75133	0.50487	0.13677	0.062
Mof_C 	C 	0.72073	0.56367	0.18028	0.067
Mof_H 	H 	0.77503	0.58997	0.19287	0.025
Mof_C 	C 	0.48143	0.43597	0.11977	0.334
Mof_C 	C 	0.51183	0.55617	0.19144	0.375
Mof_N 	N 	0.65783	0.57677	0.19463	-0.254
Mof_N 	N 	0.62893	0.46937	0.12788	-0.091
Mof_O 	O 	0.5337	0.60876	0.22116	-0.531
Mof_O 	O 	0.42933	0.35957	0.13066	-0.508
Mof_O 	O 	0.13603	0.33587	0.24305	-0.417
Mof_O 	O 	0.44053	0.51957	0.17508	-0.235
Mof_C 	C 	0.624	0.7526	0.50858	-0.038
Mof_C 	C 	0.5844	0.7667	0.47539	0.03
Mof_C 	C 	0.4723	0.6277	0.48005	-0.001
Mof_H 	H 	0.4202	0.582	0.4701	0.061
Mof_C 	C 	0.5096	0.6126	0.51361	0.067
Mof_H 	H 	0.4816	0.5583	0.5262	0.022
Mof_C 	C 	0.6212	0.8519	0.4531	0.327
Mof_C 	C 	0.711	0.8215	0.52477	0.372
Mof_N 	N 	0.5856	0.6755	0.52796	-0.255
Mof_N 	N 	0.5071	0.7044	0.46121	-0.091
Mof_O 	O 	0.74172	0.79963	0.55449	-0.521
Mof_O 	O 	0.5969	0.904	0.46399	-0.472
Mof_O 	O 	0.8665	0.1973	0.57638	-0.404
Mof_O 	O 	0.7457	0.8928	0.50841	-0.212
Mof_C 	C 	0.29067	0.08593	0.84191	-0.046
Mof_C 	C 	0.25107	0.10003	0.80872	0.018
Mof_C 	C 	0.13897	0.96103	0.81338	0.044
Mof_H 	H 	0.08687	0.91533	0.80343	0.041
Mof_C 	C 	0.17627	0.94593	0.84694	0.103
Mof_H 	H 	0.14827	0.89163	0.85953	0.011
Mof_C 	C 	0.28787	0.18523	0.78643	0.334
Mof_C 	C 	0.37767	0.15483	0.8581	0.37
Mof_N 	N 	0.25227	0.00883	0.86129	-0.278
Mof_N 	N 	0.17377	0.03773	0.79454	-0.126
Mof_O 	O 	0.40839	0.13296	0.88782	-0.518
Mof_O 	O 	0.26357	0.23733	0.79732	-0.512
Mof_O 	O 	0.53317	0.53063	0.90971	-0.424
Mof_O 	O 	0.41237	0.22613	0.84174	-0.235
Mof_C 	C 	0.95733	0.41927	0.17525	0.026
Mof_C 	C 	0.91773	0.43337	0.14206	0
Mof_C 	C 	0.80563	0.29437	0.14672	-0.001
Mof_H 	H 	0.75353	0.24867	0.13677	0.06
Mof_C 	C 	0.84293	0.27927	0.18028	0.071
Mof_H 	H 	0.81493	0.22497	0.19287	0.023
Mof_C 	C 	0.95453	0.51857	0.11977	0.411
Mof_C 	C 	0.04433	0.48817	0.19144	0.312
Mof_N 	N 	0.91893	0.34217	0.19463	-0.241
Mof_N 	N 	0.84043	0.37107	0.12788	-0.084
Mof_O 	O 	0.07505	0.4663	0.22116	-0.507
Mof_O 	O 	0.93023	0.57067	0.13066	-0.495
Mof_O 	O 	0.19983	0.86397	0.24305	-0.403
Mof_O 	O 	0.07903	0.55947	0.17508	-0.233
Mof_C 	C 	0.1286	0.376	0.50858	-0.045
Mof_C 	C 	0.1823	0.4156	0.47539	0.023
Mof_C 	C 	0.1554	0.5277	0.48005	-0.004
Mof_H 	H 	0.1618	0.5798	0.4701	0.057
Mof_C 	C 	0.103	0.4904	0.51361	0.059
Mof_H 	H 	0.0767	0.5184	0.5262	0.017
Mof_C 	C 	0.2307	0.3788	0.4531	0.335
Mof_C 	C 	0.1105	0.289	0.52477	0.371
Mof_N 	N 	0.0899	0.4144	0.52796	-0.25
Mof_N 	N 	0.1973	0.4929	0.46121	-0.092
Mof_O 	O 	0.05791	0.25828	0.55449	-0.535
Mof_O 	O 	0.3071	0.4031	0.46399	-0.509
Mof_O 	O 	0.3308	0.1335	0.57638	-0.451
Mof_O 	O 	0.1471	0.2543	0.50841	-0.247
Mof_C 	C 	0.79527	0.70933	0.84191	-0.039
Mof_C 	C 	0.84897	0.74893	0.80872	0.034
Mof_C 	C 	0.82207	0.86103	0.81338	0.002
Mof_H 	H 	0.82847	0.91313	0.80343	0.079
Mof_C 	C 	0.76967	0.82373	0.84694	0.073
Mof_H 	H 	0.74337	0.85173	0.85953	0.029
Mof_C 	C 	0.89737	0.71213	0.78643	0.328
Mof_C 	C 	0.77717	0.62233	0.8581	0.376
Mof_N 	N 	0.75657	0.74773	0.86129	-0.254
Mof_N 	N 	0.86397	0.82623	0.79454	-0.081
Mof_O 	O 	0.72458	0.59161	0.88782	-0.53
Mof_O 	O 	0.97377	0.73643	0.79732	-0.457
Mof_O 	O 	0.99747	0.46683	0.90971	-0.373
Mof_O 	O 	0.81377	0.58763	0.84174	-0.23
Mof_C 	C 	0.46193	0.04267	0.17525	-0.098
Mof_C 	C 	0.51563	0.08227	0.14206	0.051
Mof_C 	C 	0.48873	0.19437	0.14672	0.002
Mof_H 	H 	0.49513	0.24647	0.13677	0.059
Mof_C 	C 	0.43633	0.15707	0.18028	0.057
Mof_H 	H 	0.41003	0.18507	0.19287	0.025
Mof_C 	C 	0.56403	0.04547	0.11977	0.26
Mof_C 	C 	0.44383	0.95567	0.19144	0.427
Mof_N 	N 	0.42323	0.08107	0.19463	-0.242
Mof_N 	N 	0.53063	0.15957	0.12788	-0.098
Mof_O 	O 	0.39124	0.92495	0.22116	-0.506
Mof_O 	O 	0.64043	0.06977	0.13066	-0.522
Mof_O 	O 	0.66413	0.80017	0.24305	-0.42
Mof_O 	O 	0.48043	0.92097	0.17508	-0.234
Mof_In	In	0.00534	0.67201	0.08333	2.282
Mof_In	In	0.33867	0.33867	0.75	2.4
Mof_In	In	0.32799	0.33333	0.08333	2.397
Mof_In	In	0.66667	0.99466	0.08333	2.521
Mof_In	In	0.33333	0.32799	0.41667	2.397
Mof_In	In	0.67201	0.00534	0.41667	2.284
Mof_In	In	-1.87218e-17	0.66133	0.75	2.247
Mof_In	In	0.99466	0.66667	0.41667	2.523
Mof_In	In	0.66133	0	0.75	2.245
Mof_In	In	0.99466	0.32799	0.91667	2.52
Mof_In	In	0.66133	0.66133	0.25	2.402
Mof_In	In	0.67201	0.66667	0.91667	2.404
Mof_In	In	0.33867	0	0.25	2.245
Mof_In	In	0.00534	0.33333	0.58333	2.28
Mof_In	In	0.33333	0.00534	0.91667	2.279
Mof_In	In	-6.24061e-18	0.33867	0.25	2.243
Mof_In	In	0.32799	0.99466	0.58333	2.522
Mof_In	In	0.66667	0.67201	0.58333	2.404
_end
