data_functionalizedCrystal
_audit_creation_method	'EQeq! by Chris Wilmer'
_symmetry_space_group_name_H-M	'P1'
_symmetry_Int_Tables_number	1
_symmetry_cell_setting	triclinic
loop_
_symmetry_equiv_pos_as_xyz
  x,y,z
_cell_length_a	21.5588
_cell_length_b	23.597
_cell_length_c	43.755
_cell_angle_alpha	92.3438
_cell_angle_beta	90
_cell_angle_gamma	117.182
loop_
_atom_site_label
_atom_site_type_symbol
_atom_site_fract_x
_atom_site_fract_y
_atom_site_fract_z
_atom_site_charge
Mof_In	In	0.34434	0.58502	0.49501	2.522
Mof_In	In	0.28075	0.0796	0.74405	1.638
Mof_In	In	0.24068	0.58502	0.99501	2.514
Mof_In	In	0.79885	0.0796	0.24405	1.632
Mof_H 	H 	0.2765	0.8698	0.7735	0.05
Mof_H 	H 	0.214	0.7514	0.5842	0.057
Mof_H 	H 	0.229	0.6808	0.5494	0.035
Mof_H 	H 	0.4315	0.7534	0.5767	0.038
Mof_H 	H 	0.4165	0.824	0.6114	0.072
Mof_H 	H 	0.3768	0.306	0.8193	0.062
Mof_H 	H 	0.3678	0.3776	0.8554	-0.012
Mof_H 	H 	0.1664	0.2514	0.8692	0.036
Mof_H 	H 	0.1753	0.1798	0.8331	0.083
Mof_H 	H 	0.3617	0.4082	0.9037	0.055
Mof_H 	H 	0.3545	0.4826	0.9387	0.039
Mof_H 	H 	0.1505	0.4172	0.9154	0.044
Mof_H 	H 	0.1576	0.3426	0.8805	0.067
Mof_H 	H 	0.3058	0.2996	0.715	0.054
Mof_H 	H 	0.2936	0.3006	0.7716	0.049
Mof_H 	H 	0.3035	0.0258	0.6309	0.038
Mof_H 	H 	0.4194	0.2968	0.6718	0.07
Mof_H 	H 	0.4261	0.3646	0.633	0.027
Mof_H 	H 	0.2202	0.2562	0.6136	0.025
Mof_H 	H 	0.2134	0.1884	0.6525	0.058
Mof_H 	H 	0.3521	0.9056	0.8744	0.038
Mof_H 	H 	0.3588	0.9752	0.8366	0.066
Mof_H 	H 	0.151	0.8722	0.8196	0.069
Mof_H 	H 	0.1443	0.8026	0.8575	0.04
Mof_H 	H 	0.2773	0.8646	0.7154	0.059
Mof_H 	H 	0.2625	0.1332	0.8584	0.051
Mof_H 	H 	0.3061	0.1326	0.6297	0.066
Mof_H 	H 	0.4025	0.913	0.6195	0.047
Mof_H 	H 	0.3911	0.9848	0.6547	0.084
Mof_H 	H 	0.1916	0.855	0.6695	0.067
Mof_H 	H 	0.2029	0.7832	0.6342	0.019
Mof_H 	H 	0.3321	0.7386	0.923	0.039
Mof_H 	H 	0.1325	0.6998	0.9408	0.046
Mof_H 	H 	0.1383	0.7732	0.9052	0.073
Mof_H 	H 	0.338	0.8122	0.8874	0.066
Mof_H 	H 	0.44	0.403	0.5905	0.079
Mof_H 	H 	0.231	0.3406	0.5925	0.077
Mof_H 	H 	0.2402	0.4132	0.5558	0.016
Mof_H 	H 	0.4493	0.4756	0.5538	0.017
Mof_H 	H 	0.258	0.0292	0.858	0.052
Mof_H 	H 	0.5933	0.8698	0.2735	0.051
Mof_H 	H 	0.5374	0.7514	0.0842	0.058
Mof_H 	H 	0.4518	0.6808	0.0494	0.037
Mof_H 	H 	0.3219	0.7534	0.0767	0.04
Mof_H 	H 	0.4075	0.824	0.1114	0.073
Mof_H 	H 	0.9292	0.306	0.3193	0.07
Mof_H 	H 	0.0098	0.3776	0.3554	-0.014
Mof_H 	H 	0.085	0.2514	0.3692	0.037
Mof_H 	H 	0.0045	0.1798	0.3331	0.082
Mof_H 	H 	0.0465	0.4082	0.4037	0.063
Mof_H 	H 	0.1281	0.4826	0.4387	0.04
Mof_H 	H 	0.2667	0.4172	0.4154	0.042
Mof_H 	H 	0.185	0.3426	0.3805	0.067
Mof_H 	H 	0.9938	0.2996	0.215	0.042
Mof_H 	H 	0.007	0.3006	0.2716	0.08
Mof_H 	H 	0.7223	0.0258	0.1309	0.037
Mof_H 	H 	0.8774	0.2968	0.1718	0.083
Mof_H 	H 	0.9385	0.3646	0.133	0.007
Mof_H 	H 	0.036	0.2562	0.1136	-0.004
Mof_H 	H 	0.975	0.1884	0.1525	0.075
Mof_H 	H 	0.5535	0.9056	0.3744	0.038
Mof_H 	H 	0.6164	0.9752	0.3366	0.066
Mof_H 	H 	0.7212	0.8722	0.3196	0.067
Mof_H 	H 	0.6583	0.8026	0.3575	0.037
Mof_H 	H 	0.5873	0.8646	0.2154	0.059
Mof_H 	H 	0.8707	0.1332	0.3584	0.048
Mof_H 	H 	0.8265	0.1326	0.1297	0.065
Mof_H 	H 	0.5105	0.913	0.1195	0.047
Mof_H 	H 	0.5937	0.9848	0.1547	0.084
Mof_H 	H 	0.6634	0.855	0.1695	0.066
Mof_H 	H 	0.5803	0.7832	0.1342	0.019
Mof_H 	H 	0.4065	0.7386	0.423	0.039
Mof_H 	H 	0.5673	0.6998	0.4408	0.044
Mof_H 	H 	0.6349	0.7732	0.4052	0.071
Mof_H 	H 	0.4742	0.8122	0.3874	0.066
Mof_H 	H 	0.963	0.403	0.0905	0.06
Mof_H 	H 	0.1096	0.3406	0.0925	0.084
Mof_H 	H 	0.173	0.4132	0.0558	0.015
Mof_H 	H 	0.0263	0.4756	0.0538	0.026
Mof_H 	H 	0.7712	0.0292	0.358	0.05
Mof_C 	C 	0.229	0.6686	0.9604	0.325
Mof_C 	C 	0.2616	0.9524	0.771	0.071
Mof_C 	C 	0.3502	0.502	0.5307	0.521
Mof_C 	C 	0.2723	0.8992	0.7605	-0.067
Mof_C 	C 	0.2874	0.2064	0.7686	0.092
Mof_C 	C 	0.2588	0.0286	0.8097	0.073
Mof_C 	C 	0.2809	0.1912	0.7994	-0.135
Mof_C 	C 	0.2581	0.7518	0.5827	-0.113
Mof_C 	C 	0.26702	0.70984	0.56202	0.022
Mof_C 	C 	0.33163	0.71046	0.55979	-0.086
Mof_C 	C 	0.3873	0.753	0.5782	0.024
Mof_C 	C 	0.3785	0.795	0.59885	-0.107
Mof_C 	C 	0.3139	0.7944	0.60108	0.06
Mof_C 	C 	0.2708	0.1298	0.8094	0.05
Mof_C 	C 	0.2768	0.236	0.82277	0.092
Mof_C 	C 	0.334	0.2948	0.8294	-0.132
Mof_C 	C 	0.3287	0.3374	0.8509	0.011
Mof_C 	C 	0.2663	0.3212	0.86572	-0.048
Mof_C 	C 	0.209	0.2624	0.8591	0.01
Mof_C 	C 	0.21435	0.2199	0.8376	-0.114
Mof_C 	C 	0.2603	0.3684	0.8888	0.056
Mof_C 	C 	0.3188	0.41	0.9061	-0.104
Mof_C 	C 	0.3146	0.4542	0.9268	0.009
Mof_C 	C 	0.2518	0.4568	0.9303	-0.066
Mof_C 	C 	0.1934	0.4154	0.9131	0.011
Mof_C 	C 	0.1975	0.371	0.8923	-0.101
Mof_C 	C 	0.301	0.2666	0.728	-0.081
Mof_C 	C 	0.3001	0.0326	0.6804	0.033
Mof_C 	C 	0.3445	0.6666	0.5362	0.354
Mof_C 	C 	0.2941	0.2672	0.7589	-0.082
Mof_C 	C 	0.3026	0.0508	0.6483	-0.048
Mof_C 	C 	0.2585	0.9736	0.7998	-0.108
Mof_C 	C 	0.3004	0.1274	0.6779	0.112
Mof_C 	C 	0.3158	0.2362	0.6658	0.089
Mof_C 	C 	0.379	0.2886	0.66	-0.118
Mof_C 	C 	0.3829	0.3288	0.6369	-0
Mof_C 	C 	0.3238	0.3168	0.6196	-0.041
Mof_C 	C 	0.2606	0.2644	0.6254	-0.005
Mof_C 	C 	0.2566	0.2242	0.6485	-0.114
Mof_C 	C 	0.3038	0.1848	0.6889	-0.163
Mof_C 	C 	0.2756	0.9568	0.7212	0.114
Mof_C 	C 	0.2475	0.8474	0.8695	-0.02
Mof_C 	C 	0.3113	0.8988	0.8633	-0.014
Mof_C 	C 	0.3152	0.94	0.8408	-0.097
Mof_C 	C 	0.2555	0.9302	0.8245	0.078
Mof_C 	C 	0.1918	0.879	0.8307	-0.097
Mof_C 	C 	0.1879	0.8376	0.8532	-0.014
Mof_C 	C 	0.2755	0.8966	0.7287	-0.094
Mof_C 	C 	0.2999	0.2054	0.7182	0.094
Mof_C 	C 	0.2639	0.1092	0.8407	-0.05
Mof_C 	C 	0.3037	0.1094	0.6473	-0.111
Mof_C 	C 	0.3038	0.8414	0.62353	-0.035
Mof_C 	C 	0.3596	0.9012	0.6296	0.008
Mof_C 	C 	0.35291	0.94382	0.6506	-0.104
Mof_C 	C 	0.2902	0.9266	0.66544	0.084
Mof_C 	C 	0.2344	0.8668	0.6593	-0.111
Mof_C 	C 	0.24115	0.8241	0.6384	-0.004
Mof_C 	C 	0.2828	0.9706	0.6895	-0.106
Mof_C 	C 	0.2927	0.7456	0.9194	0.022
Mof_C 	C 	0.2318	0.7124	0.9352	-0.074
Mof_C 	C 	0.1742	0.7226	0.9299	0.02
Mof_C 	C 	0.1776	0.7662	0.9088	-0.102
Mof_C 	C 	0.2387	0.7996	0.8929	0.06
Mof_C 	C 	0.2963	0.7894	0.8982	-0.104
Mof_C 	C 	0.3995	0.405	0.5835	-0.149
Mof_C 	C 	0.3347	0.365	0.595	0.09
Mof_C 	C 	0.2753	0.368	0.5847	-0.148
Mof_C 	C 	0.2808	0.4112	0.5629	0.085
Mof_C 	C 	0.3456	0.4512	0.5514	-0.176
Mof_C 	C 	0.405	0.4482	0.5617	0.086
Mof_C 	C 	0.2599	0.0518	0.8403	-0.088
Mof_C 	C 	0.247	0.5048	0.9523	0.274
Mof_C 	C 	0.4396	0.6686	0.4604	0.325
Mof_C 	C 	0.6908	0.9524	0.271	0.071
Mof_C 	C 	0.1518	0.502	0.0307	0.52
Mof_C 	C 	0.6269	0.8992	0.2605	-0.067
Mof_C 	C 	0.919	0.2064	0.2686	0.102
Mof_C 	C 	0.7698	0.0286	0.3097	0.071
Mof_C 	C 	0.9103	0.1912	0.2994	-0.139
Mof_C 	C 	0.4937	0.7518	0.0827	-0.113
Mof_C 	C 	0.44282	0.70984	0.06202	0.021
Mof_C 	C 	0.37883	0.71046	0.05979	-0.085
Mof_C 	C 	0.3657	0.753	0.0782	0.023
Mof_C 	C 	0.4165	0.795	0.09885	-0.106
Mof_C 	C 	0.4805	0.7944	0.10108	0.059
Mof_C 	C 	0.859	0.1298	0.3094	0.049
Mof_C 	C 	0.9592	0.236	0.32277	0.079
Mof_C 	C 	0.9608	0.2948	0.3294	-0.159
Mof_C 	C 	0.0087	0.3374	0.3509	0.042
Mof_C 	C 	0.0549	0.3212	0.36572	-0.054
Mof_C 	C 	0.0534	0.2624	0.3591	0.01
Mof_C 	C 	0.00555	0.2199	0.3376	-0.091
Mof_C 	C 	0.1081	0.3684	0.3888	0.062
Mof_C 	C 	0.0912	0.41	0.4061	-0.108
Mof_C 	C 	0.1396	0.4542	0.4268	0.013
Mof_C 	C 	0.205	0.4568	0.4303	-0.069
Mof_C 	C 	0.222	0.4154	0.4131	0.013
Mof_C 	C 	0.1735	0.371	0.3923	-0.104
Mof_C 	C 	0.9656	0.2666	0.228	-0.062
Mof_C 	C 	0.7325	0.0326	0.1804	0.031
Mof_C 	C 	0.3221	0.6666	0.0362	0.354
Mof_C 	C 	0.9731	0.2672	0.2589	-0.127
Mof_C 	C 	0.7482	0.0508	0.1483	-0.048
Mof_C 	C 	0.7151	0.9736	0.2998	-0.106
Mof_C 	C 	0.827	0.1274	0.1779	0.115
Mof_C 	C 	0.9204	0.2362	0.1658	0.125
Mof_C 	C 	0.9096	0.2886	0.16	-0.16
Mof_C 	C 	0.9459	0.3288	0.1369	0.047
Mof_C 	C 	0.993	0.3168	0.1196	-0.118
Mof_C 	C 	0.0038	0.2644	0.1254	0.093
Mof_C 	C 	0.9676	0.2242	0.1485	-0.188
Mof_C 	C 	0.881	0.1848	0.1889	-0.174
Mof_C 	C 	0.6812	0.9568	0.2212	0.114
Mof_C 	C 	0.5999	0.8474	0.3695	-0.021
Mof_C 	C 	0.5875	0.8988	0.3633	-0.014
Mof_C 	C 	0.6248	0.94	0.3408	-0.097
Mof_C 	C 	0.6747	0.9302	0.3245	0.078
Mof_C 	C 	0.6872	0.879	0.3307	-0.098
Mof_C 	C 	0.6497	0.8376	0.3532	-0.014
Mof_C 	C 	0.6211	0.8966	0.2287	-0.094
Mof_C 	C 	0.9055	0.2054	0.2182	0.091
Mof_C 	C 	0.8453	0.1092	0.3407	-0.051
Mof_C 	C 	0.8057	0.1094	0.1473	-0.114
Mof_C 	C 	0.5376	0.8414	0.12353	-0.034
Mof_C 	C 	0.5416	0.9012	0.1296	0.008
Mof_C 	C 	0.59091	0.94382	0.1506	-0.104
Mof_C 	C 	0.6364	0.9266	0.16544	0.083
Mof_C 	C 	0.6324	0.8668	0.1593	-0.111
Mof_C 	C 	0.58295	0.8241	0.1384	-0.005
Mof_C 	C 	0.6878	0.9706	0.1895	-0.105
Mof_C 	C 	0.4529	0.7456	0.4194	0.022
Mof_C 	C 	0.4806	0.7124	0.4352	-0.075
Mof_C 	C 	0.5484	0.7226	0.4299	0.02
Mof_C 	C 	0.5886	0.7662	0.4088	-0.102
Mof_C 	C 	0.5609	0.7996	0.3929	0.06
Mof_C 	C 	0.4931	0.7894	0.3982	-0.104
Mof_C 	C 	0.0055	0.405	0.0835	-0.125
Mof_C 	C 	0.0303	0.365	0.095	0.119
Mof_C 	C 	0.0927	0.368	0.0847	-0.161
Mof_C 	C 	0.1304	0.4112	0.0629	0.09
Mof_C 	C 	0.1056	0.4512	0.0514	-0.173
Mof_C 	C 	0.0432	0.4482	0.0617	0.077
Mof_C 	C 	0.7919	0.0518	0.3403	-0.088
Mof_C 	C 	0.2578	0.5048	0.4523	0.274
Mof_N 	N 	0.2679	0.075	0.7905	-0.357
Mof_N 	N 	0.2939	0.08	0.6969	-0.354
Mof_N 	N 	0.292	0.1712	0.7442	-0.363
Mof_N 	N 	0.2666	0.9882	0.7434	-0.356
Mof_N 	N 	0.8071	0.075	0.2905	-0.356
Mof_N 	N 	0.7861	0.08	0.1969	-0.354
Mof_N 	N 	0.8792	0.1712	0.2442	-0.364
Mof_N 	N 	0.7216	0.9882	0.2434	-0.355
Mof_O 	O 	0.1874	0.506	0.9558	-0.46
Mof_O 	O 	0.2822	0.6574	0.9603	-0.545
Mof_O 	O 	0.3977	0.6642	0.5339	-0.5
Mof_O 	O 	0.2987	0.5078	0.5267	-0.628
Mof_O 	O 	0.1768	0.638	0.974	-0.446
Mof_O 	O 	0.2911	0.631	0.5189	-0.561
Mof_O 	O 	0.4022	0.5378	0.5204	-0.562
Mof_O 	O 	0.3009	0.5406	0.9677	-0.476
Mof_O 	O 	0.3186	0.506	0.4558	-0.462
Mof_O 	O 	0.3752	0.6574	0.4603	-0.546
Mof_O 	O 	0.2665	0.6642	0.0339	-0.497
Mof_O 	O 	0.2091	0.5078	0.0267	-0.626
Mof_O 	O 	0.4612	0.638	0.474	-0.448
Mof_O 	O 	0.3399	0.631	0.0189	-0.558
Mof_O 	O 	0.1356	0.5378	0.0204	-0.557
Mof_O 	O 	0.2397	0.5406	0.4677	-0.476
Mof_In	In	0.08634	0.08518	0.36953	2.483
Mof_In	In	0.0399	0.58528	0.6184	1.654
Mof_In	In	0.99884	0.08518	0.86953	2.411
Mof_In	In	0.54538	0.58528	0.1184	1.64
Mof_H 	H 	0.0038	0.679	0.5103	0.081
Mof_H 	H 	0.0149	0.7514	0.4732	0.05
Mof_H 	H 	0.1724	0.8922	0.5232	0.037
Mof_H 	H 	0.1612	0.8196	0.5603	0.069
Mof_H 	H 	0.0548	0.3806	0.6494	0.05
Mof_H 	H 	0.075	0.3836	0.5934	0.059
Mof_H 	H 	0.1845	0.2474	0.4504	0.024
Mof_H 	H 	0.1822	0.3234	0.4858	0.078
Mof_H 	H 	0.9835	0.275	0.4592	0.058
Mof_H 	H 	0.9859	0.1992	0.4238	-0
Mof_H 	H 	0.0407	0.8014	0.6443	0.051
Mof_H 	H 	0.1039	0.5464	0.5062	0.069
Mof_H 	H 	0.1177	0.6568	0.5084	0.059
Mof_H 	H 	0.9128	0.8388	0.7607	0.063
Mof_H 	H 	0.1231	0.922	0.7714	0.047
Mof_H 	H 	0.1185	0.9978	0.8062	0.049
Mof_H 	H 	0.9082	0.9146	0.7955	0.048
Mof_H 	H 	0.1966	0.9176	0.4665	0.075
Mof_H 	H 	0.1968	0.99	0.4315	0.038
Mof_H 	H 	0.9856	0.9066	0.4322	0.019
Mof_H 	H 	0.9854	0.8342	0.4673	0.062
Mof_H 	H 	0.1813	0.417	0.4959	0.032
Mof_H 	H 	0.1774	0.4924	0.5314	0.079
Mof_H 	H 	0.972	0.3768	0.5438	0.049
Mof_H 	H 	0.976	0.3016	0.5084	0.008
Mof_H 	H 	0.9285	0.2938	0.7206	-0.001
Mof_H 	H 	0.9378	0.3666	0.684	0.067
Mof_H 	H 	0.1187	0.4976	0.7243	0.067
Mof_H 	H 	0.1095	0.4248	0.7609	0.027
Mof_H 	H 	0.0546	0.8034	0.5885	0.065
Mof_H 	H 	0.0255	0.643	0.7329	0.056
Mof_H 	H 	0.9086	0.25	0.7618	0.049
Mof_H 	H 	0.9008	0.1746	0.7967	0.039
Mof_H 	H 	0.1107	0.2664	0.8096	0.04
Mof_H 	H 	0.1185	0.3418	0.7747	0.059
Mof_H 	H 	0.9303	0.7312	0.6823	0.06
Mof_H 	H 	0.9258	0.8026	0.7199	0.031
Mof_H 	H 	0.1129	0.8312	0.7543	0.033
Mof_H 	H 	0.1174	0.7598	0.7167	0.063
Mof_H 	H 	0.0174	0.5344	0.7323	0.061
Mof_H 	H 	0.6752	0.679	0.0103	0.076
Mof_H 	H 	0.7365	0.7514	0.9732	0.043
Mof_H 	H 	0.7198	0.8922	0.0232	0.034
Mof_H 	H 	0.6584	0.8196	0.0603	0.07
Mof_H 	H 	0.3258	0.3806	0.1494	0.047
Mof_H 	H 	0.3086	0.3836	0.0934	0.059
Mof_H 	H 	0.0629	0.2474	0.9504	0.027
Mof_H 	H 	0.1412	0.3234	0.9858	0.079
Mof_H 	H 	0.2915	0.275	0.9592	0.077
Mof_H 	H 	0.2133	0.1992	0.9238	0.022
Mof_H 	H 	0.7607	0.8014	0.1443	0.046
Mof_H 	H 	0.4425	0.5464	0.0062	0.069
Mof_H 	H 	0.5391	0.6568	0.0084	0.059
Mof_H 	H 	0.926	0.8388	0.2607	0.044
Mof_H 	H 	0.7989	0.922	0.2714	0.039
Mof_H 	H 	0.8793	0.9978	0.3062	0.057
Mof_H 	H 	0.0064	0.9146	0.2955	0.077
Mof_H 	H 	0.721	0.9176	0.9665	0.076
Mof_H 	H 	0.7932	0.99	0.9315	0.036
Mof_H 	H 	0.921	0.9066	0.9322	0.036
Mof_H 	H 	0.8488	0.8342	0.9673	0.081
Mof_H 	H 	0.2357	0.417	0.9959	0.024
Mof_H 	H 	0.315	0.4924	0.0314	0.084
Mof_H 	H 	0.4048	0.3768	0.0438	0.072
Mof_H 	H 	0.3256	0.3016	0.0084	0.024
Mof_H 	H 	0.3653	0.2938	0.2206	-0.003
Mof_H 	H 	0.4288	0.3666	0.184	0.064
Mof_H 	H 	0.3789	0.4976	0.2243	0.065
Mof_H 	H 	0.3153	0.4248	0.2609	0.027
Mof_H 	H 	0.7488	0.8034	0.0885	0.061
Mof_H 	H 	0.6175	0.643	0.2329	0.053
Mof_H 	H 	0.3414	0.25	0.2618	0.046
Mof_H 	H 	0.2738	0.1746	0.2967	0.036
Mof_H 	H 	0.1557	0.2664	0.3096	0.041
Mof_H 	H 	0.2233	0.3418	0.2747	0.059
Mof_H 	H 	0.8009	0.7312	0.1823	0.055
Mof_H 	H 	0.8768	0.8026	0.2199	0.03
Mof_H 	H 	0.7183	0.8312	0.2543	0.036
Mof_H 	H 	0.6424	0.7598	0.2167	0.059
Mof_H 	H 	0.517	0.5344	0.2323	0.058
Mof_C 	C 	0.0782	0.5462	0.5543	0.122
Mof_C 	C 	0.0307	0.54	0.6848	0.097
Mof_C 	C 	0.08155	0.7425	0.53879	0.087
Mof_C 	C 	0.03802	0.72224	0.5129	-0.107
Mof_C 	C 	0.0447	0.7654	0.49091	0.011
Mof_C 	C 	0.0946	0.8286	0.49472	-0.033
Mof_C 	C 	0.13816	0.84892	0.5206	-0.009
Mof_C 	C 	0.1315	0.8058	0.5426	-0.11
Mof_C 	C 	0.0774	0.6396	0.5531	0.078
Mof_C 	C 	0.0148	0.0094	0.8279	0.337
Mof_C 	C 	0.0755	0.6976	0.5631	-0.14
Mof_C 	C 	0.0581	0.4662	0.5949	0.102
Mof_C 	C 	0.0564	0.4122	0.6362	-0.072
Mof_C 	C 	0.0654	0.4128	0.6055	-0.086
Mof_C 	C 	0.0598	0.7152	0.5929	0.1
Mof_C 	C 	0.0496	0.4682	0.6451	0.081
Mof_C 	C 	0.1437	0.253	0.4522	0.066
Mof_C 	C 	0.1424	0.2982	0.4732	-0.136
Mof_C 	C 	0.0827	0.3064	0.47587	0.086
Mof_C 	C 	0.0243	0.2694	0.4574	-0.116
Mof_C 	C 	0.0257	0.2244	0.43637	0.09
Mof_C 	C 	0.08537	0.21614	0.43373	-0.148
Mof_C 	C 	0.0452	0.7696	0.6318	-0.058
Mof_C 	C 	0.0678	0.4876	0.5647	-0.151
Mof_C 	C 	0.0444	0.7124	0.6429	0.061
Mof_C 	C 	0.0967	0.5686	0.5233	-0.087
Mof_C 	C 	0.1012	0.6278	0.5244	-0.063
Mof_C 	C 	0.9545	0.871	0.7699	-0.115
Mof_C 	C 	0.0184	0.8732	0.7628	0.063
Mof_C 	C 	0.0795	0.9206	0.7763	-0.098
Mof_C 	C 	0.0768	0.9656	0.7969	-0.002
Mof_C 	C 	0.0129	0.9634	0.8041	-0.041
Mof_C 	C 	0.9518	0.9162	0.7906	-0.005
Mof_C 	C 	0.0909	0.869	0.47019	0.071
Mof_C 	C 	0.1538	0.9154	0.4596	-0.122
Mof_C 	C 	0.15386	0.95832	0.4387	0.059
Mof_C 	C 	0.0912	0.955	0.42856	-0.121
Mof_C 	C 	0.0284	0.9088	0.4392	0.072
Mof_C 	C 	0.0283	0.8658	0.46	-0.094
Mof_C 	C 	0.0369	0.637	0.6847	0.081
Mof_C 	C 	0.0318	0.4832	0.6762	-0.143
Mof_C 	C 	0.07902	0.35224	0.49884	-0.051
Mof_C 	C 	0.1389	0.409	0.50566	0.013
Mof_C 	C 	0.1365	0.4536	0.52671	-0.108
Mof_C 	C 	0.07431	0.44162	0.54093	0.083
Mof_C 	C 	0.0145	0.385	0.53411	-0.094
Mof_C 	C 	0.01683	0.34026	0.5131	0.025
Mof_C 	C 	0.96705	0.3351	0.7213	-0.01
Mof_C 	C 	0.9726	0.3784	0.69958	-0.149
Mof_C 	C 	0.0291	0.439	0.70067	0.11
Mof_C 	C 	0.0801	0.4562	0.7235	-0.123
Mof_C 	C 	0.0746	0.413	0.74528	-0.002
Mof_C 	C 	0.0181	0.3524	0.7442	-0.027
Mof_C 	C 	0.0533	0.7716	0.6015	-0.094
Mof_C 	C 	0.0317	0.692	0.6744	-0.132
Mof_C 	C 	0.0281	0.6188	0.7155	-0.074
Mof_C 	C 	0.0143	0.303	0.76493	0.066
Mof_C 	C 	0.9497	0.2534	0.7715	-0.121
Mof_C 	C 	0.945	0.2086	0.7922	-0.021
Mof_C 	C 	0.005	0.2134	0.80641	-0.043
Mof_C 	C 	0.0697	0.2632	0.7999	0.002
Mof_C 	C 	0.0743	0.3078	0.7791	-0.102
Mof_C 	C 	0.0243	0.7388	0.696	0.099
Mof_C 	C 	0.9674	0.7514	0.6969	-0.13
Mof_C 	C 	0.9647	0.7938	0.7192	-0.031
Mof_C 	C 	0.0189	0.8236	0.74062	-0.011
Mof_C 	C 	0.0758	0.8108	0.7397	-0.017
Mof_C 	C 	0.0785	0.7684	0.7174	-0.11
Mof_C 	C 	0.0239	0.5592	0.7149	-0.087
Mof_C 	C 	0.0006	0.166	0.8307	0.304
Mof_C 	C 	0.0866	0.167	0.4128	0.398
Mof_C 	C 	0.0847	0.9998	0.4057	0.456
Mof_C 	C 	0.468	0.5462	0.0543	0.122
Mof_C 	C 	0.5093	0.54	0.1848	0.093
Mof_C 	C 	0.66095	0.7425	0.03879	0.086
Mof_C 	C 	0.68422	0.72224	0.0129	-0.107
Mof_C 	C 	0.7207	0.7654	0.99091	0.009
Mof_C 	C 	0.734	0.8286	0.99472	-0.044
Mof_C 	C 	0.71076	0.84892	0.0206	-0.002
Mof_C 	C 	0.6743	0.8058	0.0426	-0.114
Mof_C 	C 	0.5622	0.6396	0.0531	0.076
Mof_C 	C 	0.9946	0.0094	0.3279	0.282
Mof_C 	C 	0.6221	0.6976	0.0631	-0.141
Mof_C 	C 	0.4081	0.4662	0.0949	0.102
Mof_C 	C 	0.3558	0.4122	0.1362	-0.072
Mof_C 	C 	0.3474	0.4128	0.1055	-0.091
Mof_C 	C 	0.6554	0.7152	0.0929	0.098
Mof_C 	C 	0.4186	0.4682	0.1451	0.076
Mof_C 	C 	0.1093	0.253	0.9522	0.063
Mof_C 	C 	0.1558	0.2982	0.9732	-0.137
Mof_C 	C 	0.2237	0.3064	0.97587	0.093
Mof_C 	C 	0.2451	0.2694	0.9574	-0.14
Mof_C 	C 	0.1987	0.2244	0.93637	0.065
Mof_C 	C 	0.13077	0.21614	0.93373	-0.138
Mof_C 	C 	0.7244	0.7696	0.1318	-0.058
Mof_C 	C 	0.4198	0.4876	0.0647	-0.16
Mof_C 	C 	0.668	0.7124	0.1429	0.056
Mof_C 	C 	0.4719	0.5686	0.0233	-0.091
Mof_C 	C 	0.5266	0.6278	0.0244	-0.063
Mof_C 	C 	0.9165	0.871	0.2699	-0.062
Mof_C 	C 	0.8548	0.8732	0.2628	0.023
Mof_C 	C 	0.8411	0.9206	0.2763	-0.075
Mof_C 	C 	0.8888	0.9656	0.2969	-0.028
Mof_C 	C 	0.9505	0.9634	0.3041	-0.024
Mof_C 	C 	0.9644	0.9162	0.2906	-0.051
Mof_C 	C 	0.7781	0.869	0.97019	0.08
Mof_C 	C 	0.7616	0.9154	0.9596	-0.128
Mof_C 	C 	0.80446	0.95832	0.9387	0.059
Mof_C 	C 	0.8638	0.955	0.92856	-0.121
Mof_C 	C 	0.8804	0.9088	0.9392	0.052
Mof_C 	C 	0.8375	0.8658	0.96	-0.122
Mof_C 	C 	0.6001	0.637	0.1847	0.077
Mof_C 	C 	0.4514	0.4832	0.1762	-0.139
Mof_C 	C 	0.27322	0.35224	0.99884	-0.062
Mof_C 	C 	0.2701	0.409	0.00566	0.031
Mof_C 	C 	0.3171	0.4536	0.02671	-0.122
Mof_C 	C 	0.36731	0.44162	0.04093	0.098
Mof_C 	C 	0.3705	0.385	0.03411	-0.127
Mof_C 	C 	0.32343	0.34026	0.0131	0.015
Mof_C 	C 	0.36805	0.3351	0.2213	0.005
Mof_C 	C 	0.4058	0.3784	0.19958	-0.125
Mof_C 	C 	0.4099	0.439	0.20067	0.088
Mof_C 	C 	0.3761	0.4562	0.2235	-0.116
Mof_C 	C 	0.3384	0.413	0.24528	-0.004
Mof_C 	C 	0.3343	0.3524	0.2442	-0.041
Mof_C 	C 	0.7183	0.7716	0.1015	-0.097
Mof_C 	C 	0.6603	0.692	0.1744	-0.127
Mof_C 	C 	0.5907	0.6188	0.2155	-0.075
Mof_C 	C 	0.2887	0.303	0.26493	0.048
Mof_C 	C 	0.3037	0.2534	0.2715	-0.101
Mof_C 	C 	0.2636	0.2086	0.2922	-0.003
Mof_C 	C 	0.2084	0.2134	0.30641	-0.059
Mof_C 	C 	0.1935	0.2632	0.2999	0.004
Mof_C 	C 	0.2335	0.3078	0.2791	-0.099
Mof_C 	C 	0.7145	0.7388	0.196	0.073
Mof_C 	C 	0.784	0.7514	0.1969	-0.102
Mof_C 	C 	0.8291	0.7938	0.2192	-0.024
Mof_C 	C 	0.8047	0.8236	0.24062	-0.015
Mof_C 	C 	0.735	0.8108	0.2397	-0.026
Mof_C 	C 	0.6899	0.7684	0.2174	-0.099
Mof_C 	C 	0.5353	0.5592	0.2149	-0.088
Mof_C 	C 	0.1654	0.166	0.3307	0.286
Mof_C 	C 	0.0804	0.167	0.9128	0.391
Mof_C 	C 	0.9151	0.9998	0.9057	0.457
Mof_N 	N 	0.055	0.678	0.6173	-0.356
Mof_N 	N 	0.0685	0.589	0.5709	-0.336
Mof_N 	N 	0.0508	0.5036	0.6194	-0.36
Mof_N 	N 	0.0403	0.5892	0.666	-0.353
Mof_N 	N 	0.623	0.678	0.1173	-0.355
Mof_N 	N 	0.5205	0.589	0.0709	-0.336
Mof_N 	N 	0.4528	0.5036	0.1194	-0.359
Mof_N 	N 	0.5489	0.5892	0.166	-0.351
Mof_O 	O 	0.1415	0.1638	0.4087	-0.505
Mof_O 	O 	0.0328	0.0048	0.4021	-0.579
Mof_O 	O 	0.0518	0.1628	0.8377	-0.539
Mof_O 	O 	0.0657	0.0434	0.8431	-0.474
Mof_O 	O 	0.0351	0.1324	0.3962	-0.546
Mof_O 	O 	0.1414	0.0354	0.3924	-0.563
Mof_O 	O 	0.9574	0.0114	0.8311	-0.558
Mof_O 	O 	0.9364	0.1316	0.841	-0.435
Mof_O 	O 	0.0223	0.1638	0.9087	-0.488
Mof_O 	O 	0.972	0.0048	0.9021	-0.588
Mof_O 	O 	0.111	0.1628	0.3377	-0.543
Mof_O 	O 	0.9777	0.0434	0.3431	-0.481
Mof_O 	O 	0.0973	0.1324	0.8962	-0.537
Mof_O 	O 	0.894	0.0354	0.8924	-0.559
Mof_O 	O 	0.054	0.0114	0.3311	-0.529
Mof_O 	O 	0.1952	0.1316	0.341	-0.425
Mof_In	In	0.77536	0.63896	0.93853	2.76
Mof_In	In	0.79634	0.1306	0.68796	1.598
Mof_In	In	0.8636	0.63896	0.43853	2.756
Mof_In	In	0.33426	0.1306	0.18796	1.605
Mof_H 	H 	0.7994	0.3434	0.6593	0.047
Mof_H 	H 	0.7935	0.3418	0.7142	0.048
Mof_H 	H 	0.7817	0.9142	0.7178	0.056
Mof_H 	H 	0.8728	0.9016	0.847	0.111
Mof_H 	H 	0.8735	0.8274	0.8807	0.004
Mof_H 	H 	0.6639	0.7248	0.87	-0.015
Mof_H 	H 	0.6632	0.799	0.8363	0.1
Mof_H 	H 	0.8501	0.2802	0.7936	0.065
Mof_H 	H 	0.8497	0.3554	0.8301	0.033
Mof_H 	H 	0.6732	0.3428	0.7909	0.032
Mof_H 	H 	0.6738	0.2678	0.7544	0.06
Mof_H 	H 	0.7362	0.1598	0.7986	0.035
Mof_H 	H 	0.7365	0.0574	0.7992	0.077
Mof_H 	H 	0.8358	0.088	0.5769	0.055
Mof_H 	H 	0.6843	0.8304	0.7878	-0.009
Mof_H 	H 	0.8393	0.9776	0.8357	-0.009
Mof_H 	H 	0.8438	0.047	0.7981	0.142
Mof_H 	H 	0.6888	0.8998	0.7502	0.116
Mof_H 	H 	0.8096	0.1772	0.5717	0.052
Mof_H 	H 	0.9029	0.3498	0.6228	0.059
Mof_H 	H 	0.9103	0.4216	0.586	-0.013
Mof_H 	H 	0.7242	0.2922	0.5493	0.032
Mof_H 	H 	0.7167	0.2202	0.5861	0.076
Mof_H 	H 	0.8741	0.5408	0.8716	0.04
Mof_H 	H 	0.8721	0.4626	0.8364	0.063
Mof_H 	H 	0.661	0.3708	0.8392	0.065
Mof_H 	H 	0.663	0.449	0.8744	0.021
Mof_H 	H 	0.9262	0.9384	0.5827	0.039
Mof_H 	H 	0.915	0.0098	0.6184	0.005
Mof_H 	H 	0.7115	0.941	0.5934	0.098
Mof_H 	H 	0.7227	0.8698	0.5578	0.031
Mof_H 	H 	0.9302	0.45	0.5409	0.05
Mof_H 	H 	0.9457	0.5282	0.5063	0.03
Mof_H 	H 	0.7362	0.4604	0.4989	0.044
Mof_H 	H 	0.7207	0.3822	0.5335	0.063
Mof_H 	H 	0.7635	0.7772	0.4803	-0.007
Mof_H 	H 	0.9291	0.7804	0.5256	-0.015
Mof_H 	H 	0.9229	0.8516	0.5628	0.089
Mof_H 	H 	0.7573	0.8484	0.5175	0.101
Mof_H 	H 	0.8341	0.9378	0.6679	0.035
Mof_H 	H 	0.544	0.3434	0.1593	0.048
Mof_H 	H 	0.5483	0.3418	0.2142	0.05
Mof_H 	H 	0.1325	0.9142	0.2178	0.058
Mof_H 	H 	0.0288	0.9016	0.347	0.088
Mof_H 	H 	0.9539	0.8274	0.3807	0.037
Mof_H 	H 	0.0609	0.7248	0.37	0.008
Mof_H 	H 	0.1358	0.799	0.3363	0.083
Mof_H 	H 	0.4301	0.2802	0.2936	0.067
Mof_H 	H 	0.5057	0.3554	0.3301	0.036
Mof_H 	H 	0.6696	0.3428	0.2909	0.032
Mof_H 	H 	0.594	0.2678	0.2544	0.059
Mof_H 	H 	0.4236	0.1598	0.2986	0.035
Mof_H 	H 	0.3209	0.0574	0.2992	0.076
Mof_H 	H 	0.2522	0.088	0.0769	0.058
Mof_H 	H 	0.1461	0.8304	0.2878	-0.002
Mof_H 	H 	0.1383	0.9776	0.3357	-0.005
Mof_H 	H 	0.2032	0.047	0.2981	0.139
Mof_H 	H 	0.211	0.8998	0.2502	0.112
Mof_H 	H 	0.3676	0.1772	0.0717	0.053
Mof_H 	H 	0.4469	0.3498	0.1228	0.064
Mof_H 	H 	0.5113	0.4216	0.086	-0.009
Mof_H 	H 	0.568	0.2922	0.0493	0.031
Mof_H 	H 	0.5035	0.2202	0.0861	0.076
Mof_H 	H 	0.6667	0.5408	0.3716	0.043
Mof_H 	H 	0.5905	0.4626	0.3364	0.066
Mof_H 	H 	0.7098	0.3708	0.3392	0.065
Mof_H 	H 	0.786	0.449	0.3744	0.021
Mof_H 	H 	0.0122	0.9384	0.0827	0.049
Mof_H 	H 	0.0948	0.0098	0.1184	0.011
Mof_H 	H 	0.2295	0.941	0.0934	0.097
Mof_H 	H 	0.1471	0.8698	0.0578	0.034
Mof_H 	H 	0.5198	0.45	0.0409	0.057
Mof_H 	H 	0.5825	0.5282	0.0063	0.032
Mof_H 	H 	0.7242	0.4604	0.9989	0.035
Mof_H 	H 	0.6615	0.3822	0.0335	0.067
Mof_H 	H 	0.0137	0.7772	0.9803	0.036
Mof_H 	H 	0.8513	0.7804	0.0256	-0.006
Mof_H 	H 	0.9287	0.8516	0.0628	0.089
Mof_H 	H 	0.0911	0.8484	0.0175	0.083
Mof_H 	H 	0.1037	0.9378	0.1679	0.039
Mof_C 	C 	0.7789	0.0258	0.7459	-0.25
Mof_C 	C 	0.8032	0.1738	0.6208	0.082
Mof_C 	C 	0.7709	0.078	0.7539	0.174
Mof_C 	C 	0.767	0.7216	0.8996	0.475
Mof_C 	C 	0.782	0.0038	0.7149	0.087
Mof_C 	C 	0.7594	0.1674	0.7518	0.045
Mof_C 	C 	0.7983	0.3108	0.6716	-0.08
Mof_C 	C 	0.7924	0.3072	0.702	-0.072
Mof_C 	C 	0.7713	0.552	0.9002	0.289
Mof_C 	C 	0.7904	0.9502	0.7062	-0.081
Mof_C 	C 	0.768	0.8574	0.8385	0.162
Mof_C 	C 	0.8304	0.8658	0.8517	-0.2
Mof_C 	C 	0.8308	0.8216	0.8717	0.129
Mof_C 	C 	0.7688	0.7692	0.8785	-0.215
Mof_C 	C 	0.7062	0.7606	0.8653	0.119
Mof_C 	C 	0.7059	0.8048	0.8453	-0.198
Mof_C 	C 	0.8054	0.0106	0.6627	0.028
Mof_C 	C 	0.805	0.2326	0.632	-0.141
Mof_C 	C 	0.8011	0.0804	0.622	0.124
Mof_C 	C 	0.762	0.267	0.7706	0.078
Mof_C 	C 	0.8143	0.293	0.7931	-0.106
Mof_C 	C 	0.814	0.3376	0.8147	-0.013
Mof_C 	C 	0.7614	0.3562	0.8139	-0.028
Mof_C 	C 	0.7092	0.3302	0.7914	-0.016
Mof_C 	C 	0.7095	0.2856	0.7698	-0.107
Mof_C 	C 	0.7459	0.1398	0.7813	-0.025
Mof_C 	C 	0.7847	0.2522	0.7152	0.077
Mof_C 	C 	0.7479	0.085	0.7827	-0.159
Mof_C 	C 	0.8192	0.106	0.5927	-0.099
Mof_C 	C 	0.7701	0.2294	0.7443	-0.127
Mof_C 	C 	0.7167	0.8744	0.7899	0.115
Mof_C 	C 	0.7613	0.8974	0.8153	-0.157
Mof_C 	C 	0.8087	0.9618	0.8184	0.191
Mof_C 	C 	0.8114	0.003	0.796	-0.337
Mof_C 	C 	0.7666	0.9798	0.7706	0.276
Mof_C 	C 	0.7193	0.9156	0.7676	-0.246
Mof_C 	C 	0.8106	0.1568	0.5898	-0.06
Mof_C 	C 	0.8096	0.031	0.6331	-0.168
Mof_C 	C 	0.8091	0.2782	0.6079	0.092
Mof_C 	C 	0.8666	0.338	0.6079	-0.131
Mof_C 	C 	0.871	0.3808	0.5861	0.007
Mof_C 	C 	0.8179	0.3636	0.5642	-0.047
Mof_C 	C 	0.7604	0.3038	0.5642	0
Mof_C 	C 	0.756	0.2612	0.5861	-0.116
Mof_C 	C 	0.8308	0.5062	0.865	0.015
Mof_C 	C 	0.8297	0.4598	0.8441	-0.106
Mof_C 	C 	0.7663	0.4092	0.8345	0.057
Mof_C 	C 	0.7043	0.4054	0.8458	-0.111
Mof_C 	C 	0.7055	0.4518	0.8667	0.016
Mof_C 	C 	0.7687	0.5022	0.8763	-0.074
Mof_C 	C 	0.8025	0.2544	0.6621	0.083
Mof_C 	C 	0.8255	0.8974	0.5669	-0.042
Mof_C 	C 	0.8826	0.939	0.5849	-0.03
Mof_C 	C 	0.876	0.9814	0.6061	-0.041
Mof_C 	C 	0.8123	0.9822	0.6092	0.101
Mof_C 	C 	0.7551	0.9406	0.5912	-0.118
Mof_C 	C 	0.7618	0.8982	0.5701	0.007
Mof_C 	C 	0.824	0.4088	0.5404	0.054
Mof_C 	C 	0.8908	0.4522	0.5324	-0.112
Mof_C 	C 	0.9	0.4986	0.5118	0.006
Mof_C 	C 	0.8424	0.5016	0.4993	-0.071
Mof_C 	C 	0.7755	0.4582	0.5074	0.006
Mof_C 	C 	0.7663	0.4118	0.528	-0.108
Mof_C 	C 	0.8501	0.7246	0.4784	0.649
Mof_C 	C 	0.8468	0.5502	0.477	0.275
Mof_C 	C 	0.7959	0.7924	0.497	0.161
Mof_C 	C 	0.847	0.7722	0.4994	-0.287
Mof_C 	C 	0.8943	0.7942	0.5239	0.151
Mof_C 	C 	0.8905	0.8364	0.546	-0.193
Mof_C 	C 	0.8395	0.8566	0.5436	0.124
Mof_C 	C 	0.7922	0.8346	0.5191	-0.193
Mof_C 	C 	0.8134	0.9614	0.6777	-0.017
Mof_C 	C 	0.2469	0.0258	0.2459	-0.245
Mof_C 	C 	0.3706	0.1738	0.1208	0.083
Mof_C 	C 	0.3071	0.078	0.2539	0.173
Mof_C 	C 	0.9546	0.7216	0.3996	0.428
Mof_C 	C 	0.2218	0.0038	0.2149	0.087
Mof_C 	C 	0.408	0.1674	0.2518	0.045
Mof_C 	C 	0.5125	0.3108	0.1716	-0.08
Mof_C 	C 	0.5148	0.3072	0.202	-0.072
Mof_C 	C 	0.7807	0.552	0.4002	0.289
Mof_C 	C 	0.1598	0.9502	0.2062	-0.078
Mof_C 	C 	0.0894	0.8574	0.3385	0.113
Mof_C 	C 	0.0354	0.8658	0.3517	-0.116
Mof_C 	C 	0.9908	0.8216	0.3717	0.022
Mof_C 	C 	0.0004	0.7692	0.3785	-0.126
Mof_C 	C 	0.0544	0.7606	0.3653	0.06
Mof_C 	C 	0.0989	0.8048	0.3453	-0.146
Mof_C 	C 	0.2052	0.0106	0.1627	0.031
Mof_C 	C 	0.4276	0.2326	0.132	-0.14
Mof_C 	C 	0.2793	0.0804	0.122	0.125
Mof_C 	C 	0.505	0.267	0.2706	0.078
Mof_C 	C 	0.4787	0.293	0.2931	-0.105
Mof_C 	C 	0.5236	0.3376	0.3147	-0.013
Mof_C 	C 	0.5948	0.3562	0.3139	-0.027
Mof_C 	C 	0.621	0.3302	0.2914	-0.016
Mof_C 	C 	0.5761	0.2856	0.2698	-0.106
Mof_C 	C 	0.3939	0.1398	0.2813	-0.025
Mof_C 	C 	0.4675	0.2522	0.2152	0.078
Mof_C 	C 	0.3371	0.085	0.2827	-0.157
Mof_C 	C 	0.2868	0.106	0.0927	-0.098
Mof_C 	C 	0.4593	0.2294	0.2443	-0.127
Mof_C 	C 	0.1577	0.8744	0.2899	0.098
Mof_C 	C 	0.1361	0.8974	0.3153	-0.131
Mof_C 	C 	0.1531	0.9618	0.3184	0.174
Mof_C 	C 	0.1916	0.003	0.296	-0.323
Mof_C 	C 	0.2132	0.9798	0.2706	0.266
Mof_C 	C 	0.1963	0.9156	0.2676	-0.233
Mof_C 	C 	0.3462	0.1568	0.0898	-0.058
Mof_C 	C 	0.2214	0.031	0.1331	-0.167
Mof_C 	C 	0.4691	0.2782	0.1079	0.093
Mof_C 	C 	0.4714	0.338	0.1079	-0.131
Mof_C 	C 	0.5098	0.3808	0.0861	0.009
Mof_C 	C 	0.5457	0.3636	0.0642	-0.05
Mof_C 	C 	0.5434	0.3038	0.0642	0.003
Mof_C 	C 	0.5052	0.2612	0.0861	-0.117
Mof_C 	C 	0.6754	0.5062	0.365	0.016
Mof_C 	C 	0.6301	0.4598	0.3441	-0.105
Mof_C 	C 	0.6429	0.4092	0.3345	0.058
Mof_C 	C 	0.7011	0.4054	0.3458	-0.11
Mof_C 	C 	0.7463	0.4518	0.3667	0.016
Mof_C 	C 	0.7335	0.5022	0.3763	-0.073
Mof_C 	C 	0.4519	0.2544	0.1621	0.083
Mof_C 	C 	0.0719	0.8974	0.0669	-0.034
Mof_C 	C 	0.0564	0.939	0.0849	-0.03
Mof_C 	C 	0.1054	0.9814	0.1061	-0.039
Mof_C 	C 	0.1699	0.9822	0.1092	0.101
Mof_C 	C 	0.1855	0.9406	0.0912	-0.115
Mof_C 	C 	0.1364	0.8982	0.0701	0.005
Mof_C 	C 	0.5848	0.4088	0.0404	0.062
Mof_C 	C 	0.5614	0.4522	0.0324	-0.119
Mof_C 	C 	0.5986	0.4986	0.0118	0.018
Mof_C 	C 	0.6592	0.5016	0.9993	-0.084
Mof_C 	C 	0.6827	0.4582	0.0074	0.023
Mof_C 	C 	0.6455	0.4118	0.028	-0.117
Mof_C 	C 	0.8745	0.7246	0.9784	0.631
Mof_C 	C 	0.7034	0.5502	0.977	0.279
Mof_C 	C 	0.9965	0.7924	0.997	0.072
Mof_C 	C 	0.9252	0.7722	0.9994	-0.256
Mof_C 	C 	0.8999	0.7942	0.0239	0.137
Mof_C 	C 	0.9459	0.8364	0.046	-0.197
Mof_C 	C 	0.0171	0.8566	0.0436	0.121
Mof_C 	C 	0.0424	0.8346	0.0191	-0.13
Mof_C 	C 	0.148	0.9614	0.1777	-0.017
Mof_N 	N 	0.7756	0.123	0.7356	-0.349
Mof_N 	N 	0.7987	0.1258	0.6405	-0.356
Mof_N 	N 	0.7886	0.0392	0.6891	-0.34
Mof_N 	N 	0.7943	0.222	0.6886	-0.321
Mof_N 	N 	0.3474	0.123	0.2356	-0.349
Mof_N 	N 	0.3271	0.1258	0.1405	-0.356
Mof_N 	N 	0.2506	0.0392	0.1891	-0.34
Mof_N 	N 	0.4277	0.222	0.1886	-0.321
Mof_O 	O 	0.8287	0.592	0.9119	-0.527
Mof_O 	O 	0.8225	0.717	0.9044	-0.548
Mof_O 	O 	0.7251	0.6904	0.9184	-0.637
Mof_O 	O 	0.715	0.5572	0.9042	-0.544
Mof_O 	O 	0.8971	0.7106	0.4767	-0.67
Mof_O 	O 	0.7914	0.5554	0.4694	-0.465
Mof_O 	O 	0.8122	0.6984	0.4581	-0.619
Mof_O 	O 	0.9069	0.5932	0.4678	-0.562
Mof_O 	O 	0.7633	0.592	0.4119	-0.524
Mof_O 	O 	0.8945	0.717	0.4044	-0.536
Mof_O 	O 	0.9653	0.6904	0.4184	-0.632
Mof_O 	O 	0.8422	0.5572	0.4042	-0.544
Mof_O 	O 	0.8135	0.7106	0.9767	-0.661
Mof_O 	O 	0.764	0.5554	0.9694	-0.468
Mof_O 	O 	0.8862	0.6984	0.9581	-0.618
Mof_O 	O 	0.6863	0.5932	0.9678	-0.558
Mof_In	In	0.53245	0.52134	0.84068	1.637
Mof_In	In	0.45317	0.00956	0.08868	2.306
Mof_In	In	0.98889	0.52134	0.34068	1.603
Mof_In	In	0.55639	0.00956	0.58868	2.306
Mof_H 	H 	0.4512	0.1142	0.6476	0.027
Mof_H 	H 	0.4469	0.1902	0.6823	0.061
Mof_H 	H 	0.6557	0.2658	0.6971	0.07
Mof_H 	H 	0.66	0.1898	0.6623	0.008
Mof_H 	H 	0.5354	0.3084	0.8106	0.054
Mof_H 	H 	0.5319	0.7302	0.8122	0.059
Mof_H 	H 	0.5908	0.8386	0.0025	0.064
Mof_H 	H 	0.5762	0.9082	0.038	0.051
Mof_H 	H 	0.373	0.8354	0.0118	0.049
Mof_H 	H 	0.3876	0.7658	0.9763	0.07
Mof_H 	H 	0.4462	0.2298	0.7285	-0.008
Mof_H 	H 	0.4424	0.3044	0.7644	0.067
Mof_H 	H 	0.6457	0.4236	0.7492	0.066
Mof_H 	H 	0.6493	0.3488	0.7134	0.022
Mof_H 	H 	0.5682	0.1724	0.0193	0.037
Mof_H 	H 	0.5753	0.2464	0.9837	0.066
Mof_H 	H 	0.3664	0.1832	0.9881	0.064
Mof_H 	H 	0.3594	0.1094	0.0237	0.034
Mof_H 	H 	0.3834	0.2192	0.9386	0.029
Mof_H 	H 	0.3978	0.2946	0.9026	0.069
Mof_H 	H 	0.5842	0.4158	0.9422	0.072
Mof_H 	H 	0.5697	0.3404	0.9782	0.035
Mof_H 	H 	0.4841	0.4576	0.9542	0.062
Mof_H 	H 	0.5048	0.3008	0.8657	0.055
Mof_H 	H 	0.5165	0.5758	0.9553	0.058
Mof_H 	H 	0.5675	0.5778	0.7258	0.049
Mof_H 	H 	0.4618	0.7768	0.6946	0.065
Mof_H 	H 	0.4626	0.846	0.6576	0.027
Mof_H 	H 	0.6706	0.91	0.6479	0.032
Mof_H 	H 	0.6698	0.8408	0.6849	0.066
Mof_H 	H 	0.5615	0.4708	0.7257	0.063
Mof_H 	H 	0.5294	0.7356	0.8698	0.055
Mof_H 	H 	0.6638	0.702	0.7486	0.062
Mof_H 	H 	0.6633	0.7674	0.71	0.028
Mof_H 	H 	0.4678	0.7342	0.7328	0.028
Mof_H 	H 	0.4682	0.6686	0.7714	0.058
Mof_H 	H 	0.4133	0.6082	0.9303	0.074
Mof_H 	H 	0.3994	0.676	0.9672	0.04
Mof_H 	H 	0.6012	0.8062	0.9577	0.034
Mof_H 	H 	0.615	0.7384	0.9208	0.078
Mof_H 	H 	0.663	0.1142	0.1476	0.026
Mof_H 	H 	0.7433	0.1902	0.1823	0.06
Mof_H 	H 	0.6101	0.2658	0.1971	0.07
Mof_H 	H 	0.5298	0.1898	0.1623	0.008
Mof_H 	H 	0.773	0.3084	0.3106	0.054
Mof_H 	H 	0.1983	0.7302	0.3122	0.06
Mof_H 	H 	0.2478	0.8386	0.5025	0.064
Mof_H 	H 	0.332	0.9082	0.538	0.051
Mof_H 	H 	0.4624	0.8354	0.5118	0.049
Mof_H 	H 	0.3782	0.7658	0.4763	0.069
Mof_H 	H 	0.7836	0.2298	0.2285	-0.008
Mof_H 	H 	0.862	0.3044	0.2644	0.065
Mof_H 	H 	0.7779	0.4236	0.2492	0.066
Mof_H 	H 	0.6995	0.3488	0.2134	0.023
Mof_H 	H 	0.6042	0.1724	0.5193	0.04
Mof_H 	H 	0.6711	0.2464	0.4837	0.064
Mof_H 	H 	0.8168	0.1832	0.4881	0.06
Mof_H 	H 	0.75	0.1094	0.5237	0.036
Mof_H 	H 	0.8358	0.2192	0.4386	0.028
Mof_H 	H 	0.8968	0.2946	0.4026	0.065
Mof_H 	H 	0.8316	0.4158	0.4422	0.072
Mof_H 	H 	0.7707	0.3404	0.4782	0.037
Mof_H 	H 	0.9735	0.4576	0.4542	0.068
Mof_H 	H 	0.796	0.3008	0.3657	0.055
Mof_H 	H 	0.0593	0.5758	0.4553	0.053
Mof_H 	H 	0.0103	0.5778	0.2258	0.09
Mof_H 	H 	0.315	0.7768	0.1946	0.066
Mof_H 	H 	0.3834	0.846	0.1576	0.027
Mof_H 	H 	0.2394	0.91	0.1479	0.031
Mof_H 	H 	0.171	0.8408	0.1849	0.068
Mof_H 	H 	0.9093	0.4708	0.2257	0.046
Mof_H 	H 	0.2062	0.7356	0.3698	0.054
Mof_H 	H 	0.0382	0.702	0.2486	0.068
Mof_H 	H 	0.1041	0.7674	0.21	0.029
Mof_H 	H 	0.2664	0.7342	0.2328	0.027
Mof_H 	H 	0.2004	0.6686	0.2714	0.061
Mof_H 	H 	0.1949	0.6082	0.4303	0.074
Mof_H 	H 	0.2766	0.676	0.4672	0.04
Mof_H 	H 	0.205	0.8062	0.4577	0.034
Mof_H 	H 	0.1234	0.7384	0.4208	0.08
Mof_C 	C 	0.5639	0.573	0.7754	0.082
Mof_C 	C 	0.55599	0.14478	0.65168	-0.12
Mof_C 	C 	0.49268	0.14496	0.65761	0.037
Mof_C 	C 	0.4902	0.1902	0.6783	-0.129
Mof_C 	C 	0.55092	0.23524	0.69298	0.068
Mof_C 	C 	0.6142	0.235	0.687	-0.132
Mof_C 	C 	0.6167	0.1898	0.6664	0.045
Mof_C 	C 	0.4639	0.9254	0.0511	0.275
Mof_C 	C 	0.5163	0.5624	0.9052	0.099
Mof_C 	C 	0.5278	0.3382	0.8233	-0.097
Mof_C 	C 	0.5079	0.4696	0.9059	0.108
Mof_C 	C 	0.5496	0.4764	0.7744	0.131
Mof_C 	C 	0.5339	0.7	0.8254	-0.095
Mof_C 	C 	0.4905	0.7956	0.98606	0.054
Mof_C 	C 	0.5466	0.838	0.0044	-0.089
Mof_C 	C 	0.538	0.8794	0.0255	0.004
Mof_C 	C 	0.4733	0.8784	0.0283	-0.046
Mof_C 	C 	0.4172	0.836	0.0099	0.009
Mof_C 	C 	0.4259	0.7948	0.98883	-0.093
Mof_C 	C 	0.4565	0.0858	0.048	0.301
Mof_C 	C 	0.54818	0.28236	0.71756	-0.055
Mof_C 	C 	0.48669	0.26918	0.73272	0.014
Mof_C 	C 	0.4845	0.3136	0.75403	-0.136
Mof_C 	C 	0.54371	0.37102	0.76019	0.099
Mof_C 	C 	0.60521	0.38422	0.745	-0.128
Mof_C 	C 	0.6073	0.3398	0.72372	0.004
Mof_C 	C 	0.46314	0.13388	0.0248	-0.077
Mof_C 	C 	0.5272	0.1746	0.0129	0.023
Mof_C 	C 	0.5315	0.2186	0.9918	-0.114
Mof_C 	C 	0.47149	0.22178	0.98251	0.062
Mof_C 	C 	0.4074	0.181	0.9944	-0.112
Mof_C 	C 	0.4032	0.1372	0.0155	0.021
Mof_C 	C 	0.47511	0.27262	0.96182	-0.032
Mof_C 	C 	0.42412	0.25904	0.93936	-0.008
Mof_C 	C 	0.4327	0.3038	0.91796	-0.117
Mof_C 	C 	0.49235	0.3623	0.91903	0.093
Mof_C 	C 	0.54344	0.37588	0.9415	-0.113
Mof_C 	C 	0.5348	0.331	0.96289	-0.007
Mof_C 	C 	0.529	0.3954	0.8156	0.113
Mof_C 	C 	0.5405	0.6444	0.8157	0.103
Mof_C 	C 	0.4976	0.4852	0.9375	-0.086
Mof_C 	C 	0.5132	0.336	0.8536	-0.082
Mof_C 	C 	0.5407	0.4184	0.7845	-0.174
Mof_C 	C 	0.5113	0.548	0.938	-0.069
Mof_C 	C 	0.5296	0.6256	0.8974	-0.13
Mof_C 	C 	0.5123	0.392	0.8646	0.103
Mof_C 	C 	0.531	0.6446	0.8654	0.079
Mof_C 	C 	0.5023	0.409	0.8953	-0.151
Mof_C 	C 	0.5643	0.5536	0.7431	-0.064
Mof_C 	C 	0.5658	0.8024	0.6932	0.063
Mof_C 	C 	0.5042	0.8038	0.6851	-0.116
Mof_C 	C 	0.5047	0.845	0.66312	0.04
Mof_C 	C 	0.5667	0.8846	0.6493	-0.109
Mof_C 	C 	0.6282	0.883	0.6574	0.035
Mof_C 	C 	0.6277	0.8418	0.6793	-0.114
Mof_C 	C 	0.5593	0.4954	0.743	-0.107
Mof_C 	C 	0.5606	0.6306	0.7871	-0.15
Mof_C 	C 	0.5602	0.0982	0.6298	0.32
Mof_C 	C 	0.531	0.703	0.8569	-0.071
Mof_C 	C 	0.5689	0.9318	0.6257	0.385
Mof_C 	C 	0.56605	0.6791	0.76365	0.082
Mof_C 	C 	0.6239	0.7084	0.7454	-0.109
Mof_C 	C 	0.6237	0.7474	0.72247	-0.011
Mof_C 	C 	0.5655	0.757	0.71775	-0.03
Mof_C 	C 	0.5075	0.7276	0.736	-0.011
Mof_C 	C 	0.5078	0.6886	0.75893	-0.109
Mof_C 	C 	0.5155	0.667	0.92205	0.082
Mof_C 	C 	0.45142	0.64844	0.9358	-0.11
Mof_C 	C 	0.4431	0.6886	0.9578	0.006
Mof_C 	C 	0.4989	0.7474	0.96592	-0.029
Mof_C 	C 	0.56298	0.76596	0.9521	-0.008
Mof_C 	C 	0.5713	0.7258	0.9302	-0.108
Mof_C 	C 	0.0091	0.573	0.2754	0.135
Mof_C 	C 	0.58879	0.14478	0.15168	-0.121
Mof_C 	C 	0.65228	0.14496	0.15761	0.037
Mof_C 	C 	0.7	0.1902	0.1783	-0.129
Mof_C 	C 	0.68432	0.23524	0.19298	0.068
Mof_C 	C 	0.6208	0.235	0.187	-0.132
Mof_C 	C 	0.5731	0.1898	0.1664	0.044
Mof_C 	C 	0.4615	0.9254	0.5511	0.275
Mof_C 	C 	0.0461	0.5624	0.4052	0.109
Mof_C 	C 	0.8104	0.3382	0.3233	-0.096
Mof_C 	C 	0.9617	0.4696	0.4059	0.113
Mof_C 	C 	0.9268	0.4764	0.2744	0.116
Mof_C 	C 	0.1661	0.7	0.3254	-0.098
Mof_C 	C 	0.3051	0.7956	0.48606	0.056
Mof_C 	C 	0.2914	0.838	0.5044	-0.092
Mof_C 	C 	0.3414	0.8794	0.5255	0.005
Mof_C 	C 	0.4051	0.8784	0.5283	-0.046
Mof_C 	C 	0.4188	0.836	0.5099	0.005
Mof_C 	C 	0.3689	0.7948	0.48883	-0.089
Mof_C 	C 	0.6293	0.0858	0.548	0.298
Mof_C 	C 	0.73418	0.28236	0.21756	-0.054
Mof_C 	C 	0.78249	0.26918	0.23272	0.012
Mof_C 	C 	0.8291	0.3136	0.25403	-0.134
Mof_C 	C 	0.82731	0.37102	0.26019	0.095
Mof_C 	C 	0.77901	0.38422	0.245	-0.125
Mof_C 	C 	0.7325	0.3398	0.22372	0.002
Mof_C 	C 	0.67074	0.13388	0.5248	-0.071
Mof_C 	C 	0.6474	0.1746	0.5129	0.014
Mof_C 	C 	0.6871	0.2186	0.4918	-0.105
Mof_C 	C 	0.75029	0.22178	0.48251	0.056
Mof_C 	C 	0.7736	0.181	0.4944	-0.103
Mof_C 	C 	0.734	0.1372	0.5155	0.011
Mof_C 	C 	0.79751	0.27262	0.46182	-0.029
Mof_C 	C 	0.83492	0.25904	0.43936	-0.011
Mof_C 	C 	0.8711	0.3038	0.41796	-0.116
Mof_C 	C 	0.86995	0.3623	0.41903	0.092
Mof_C 	C 	0.83244	0.37588	0.4415	-0.112
Mof_C 	C 	0.7962	0.331	0.46289	-0.009
Mof_C 	C 	0.8664	0.3954	0.3156	0.11
Mof_C 	C 	0.1039	0.6444	0.3157	0.111
Mof_C 	C 	0.9876	0.4852	0.4375	-0.119
Mof_C 	C 	0.8228	0.336	0.3536	-0.083
Mof_C 	C 	0.8777	0.4184	0.2845	-0.168
Mof_C 	C 	0.0367	0.548	0.438	-0.04
Mof_C 	C 	0.096	0.6256	0.3974	-0.13
Mof_C 	C 	0.8797	0.392	0.3646	0.103
Mof_C 	C 	0.1136	0.6446	0.3654	0.08
Mof_C 	C 	0.9067	0.409	0.3953	-0.154
Mof_C 	C 	0.9893	0.5536	0.2431	-0.149
Mof_C 	C 	0.2366	0.8024	0.1932	0.065
Mof_C 	C 	0.2996	0.8038	0.1851	-0.117
Mof_C 	C 	0.3403	0.845	0.16312	0.041
Mof_C 	C 	0.3179	0.8846	0.1493	-0.11
Mof_C 	C 	0.2548	0.883	0.1574	0.036
Mof_C 	C 	0.2141	0.8418	0.1793	-0.115
Mof_C 	C 	0.9361	0.4954	0.243	-0.065
Mof_C 	C 	0.07	0.6306	0.2871	-0.164
Mof_C 	C 	0.538	0.0982	0.1298	0.32
Mof_C 	C 	0.172	0.703	0.3569	-0.07
Mof_C 	C 	0.3629	0.9318	0.1257	0.386
Mof_C 	C 	0.11305	0.6791	0.26365	0.091
Mof_C 	C 	0.0845	0.7084	0.2454	-0.115
Mof_C 	C 	0.1237	0.7474	0.22247	-0.006
Mof_C 	C 	0.1915	0.757	0.21775	-0.033
Mof_C 	C 	0.2201	0.7276	0.236	-0.007
Mof_C 	C 	0.1808	0.6886	0.25893	-0.115
Mof_C 	C 	0.1515	0.667	0.42205	0.082
Mof_C 	C 	0.19702	0.64844	0.4358	-0.11
Mof_C 	C 	0.2455	0.6886	0.4578	0.006
Mof_C 	C 	0.2485	0.7474	0.46592	-0.029
Mof_C 	C 	0.20298	0.76596	0.4521	-0.007
Mof_C 	C 	0.1545	0.7258	0.4302	-0.108
Mof_N 	N 	0.5178	0.5174	0.8875	-0.364
Mof_N 	N 	0.524	0.4274	0.84	-0.349
Mof_N 	N 	0.5391	0.6106	0.8403	-0.366
Mof_N 	N 	0.552	0.5226	0.7917	-0.343
Mof_N 	N 	0.9996	0.5174	0.3875	-0.372
Mof_N 	N 	0.9034	0.4274	0.34	-0.346
Mof_N 	N 	0.0715	0.6106	0.3403	-0.358
Mof_N 	N 	0.9706	0.5226	0.2917	-0.353
Mof_O 	O 	0.4063	0.925	0.0528	-0.455
Mof_O 	O 	0.4991	0.0588	0.6147	-0.457
Mof_O 	O 	0.6197	0.9638	0.6115	-0.49
Mof_O 	O 	0.4001	0.0538	0.0597	-0.498
Mof_O 	O 	0.5138	0.0872	0.0555	-0.484
Mof_O 	O 	0.5181	0.9614	0.0674	-0.423
Mof_O 	O 	0.6118	0.093	0.62433	-0.517
Mof_O 	O 	0.5162	0.9394	0.6247	-0.54
Mof_O 	O 	0.5187	0.925	0.5528	-0.455
Mof_O 	O 	0.5597	0.0588	0.1147	-0.457
Mof_O 	O 	0.3441	0.9638	0.1115	-0.49
Mof_O 	O 	0.6537	0.0538	0.5597	-0.498
Mof_O 	O 	0.5734	0.0872	0.5555	-0.483
Mof_O 	O 	0.4433	0.9614	0.5674	-0.423
Mof_O 	O 	0.4812	0.093	0.12433	-0.518
Mof_O 	O 	0.4232	0.9394	0.1247	-0.54
_end
