data_functionalizedCrystal
_audit_creation_method	'EQeq! by Chris Wilmer'
_symmetry_space_group_name_H-M	'P1'
_symmetry_Int_Tables_number	1
_symmetry_cell_setting	triclinic
loop_
_symmetry_equiv_pos_as_xyz
  x,y,z
_cell_length_a	19.2145
_cell_length_b	26.4088
_cell_length_c	17.7174
_cell_angle_alpha	90
_cell_angle_beta	118.431
_cell_angle_gamma	90
loop_
_atom_site_label
_atom_site_type_symbol
_atom_site_fract_x
_atom_site_fract_y
_atom_site_fract_z
_atom_site_charge
Mof_Cd	Cd	0.89816	0.6332	0.86642	0.3
Mof_K 	K 	0.69525	0.40755	0.28858	4.29
Mof_O 	O 	0.9048	0.59087	0.7592	-0.711
Mof_O 	O 	0.7842	0.67092	0.7759	-0.759
Mof_O 	O 	0.8244	0.40123	0.4305	-0.802
Mof_O 	O 	0.9424	0.43331	0.4679	-0.291
Mof_O 	O 	0.5316	0.83511	0.4142	-0.773
Mof_O 	O 	0.8637	0.7102	0.7359	-0.747
Mof_O 	O 	0.6267	0.33175	0.3181	-0.805
Mof_O 	O 	0.4613	0.80777	0.474	-0.334
Mof_O 	O 	0.5491	0.296	0.3612	-0.35
Mof_O 	O 	0.8022	0.548	0.7481	-0.847
Mof_C 	C 	0.8544	0.5578	0.7272	0.701
Mof_C 	C 	0.7968	0.7019	0.7281	0.598
Mof_C 	C 	0.8805	0.4314	0.4745	0.402
Mof_C 	C 	0.8253	0.2615	0.5147	-0.035
Mof_H 	H 	0.8761	0.2694	0.5247	0.067
Mof_C 	C 	0.6851	0.2746	0.4349	-0.196
Mof_C 	C 	0.5872	0.7503	0.5946	-0.116
Mof_H 	H 	0.5384	0.7474	0.5932	0.075
Mof_C 	C 	0.9199	0.5334	0.6393	0.19
Mof_H 	H 	0.9583	0.5581	0.6665	-0.094
Mof_C 	C 	0.5949	0.7798	0.5348	-0.115
Mof_C 	C 	0.6529	0.7247	0.6573	0.116
Mof_H 	H 	0.6478	0.7054	0.6982	-0.11
Mof_C 	C 	0.8613	0.5292	0.6632	-0.355
Mof_C 	C 	0.6683	0.7829	0.5356	-0.086
Mof_H 	H 	0.6734	0.8022	0.4945	-0.028
Mof_C 	C 	0.9259	0.5037	0.578	-0.138
Mof_H 	H 	0.9669	0.5091	0.5651	0.111
Mof_C 	C 	0.7329	0.7572	0.5976	0.079
Mof_H 	H 	0.7815	0.7595	0.5983	-0.064
Mof_C 	C 	0.7261	0.7279	0.6591	-0.313
Mof_C 	C 	0.8705	0.466	0.536	-0.092
Mof_C 	C 	0.8082	0.4596	0.5539	-0.097
Mof_H 	H 	0.77	0.4351	0.5247	-0.023
Mof_C 	C 	0.5253	0.8094	0.47	0.414
Mof_O 	O 	0.4542	0.4089	0.3268	-0.889
Mof_C 	C 	0.6157	0.3022	0.3672	0.515
Mof_C 	C 	0.7608	0.2859	0.4496	0.071
Mof_H 	H 	0.7684	0.3098	0.4157	-0.075
Mof_C 	C 	0.8022	0.4894	0.6146	0.092
Mof_H 	H 	0.7599	0.4843	0.6255	-0.063
Mof_C 	C 	0.5606	0.5309	0.5526	0.06
Mof_H 	H 	0.6028	0.5516	0.588	-0.171
Mof_C 	C 	0.5052	0.4688	0.4394	-0.289
Mof_C 	C 	0.5152	0.4346	0.3744	0.616
Mof_C 	C 	0.5673	0.4999	0.4917	-0.03
Mof_H 	H 	0.6134	0.5004	0.4867	-0.038
Mof_O 	O 	0.5761	0.4314	0.3741	-0.651
Mof_Cd	Cd	0.39816	0.1332	0.86642	0.244
Mof_K 	K 	0.19525	0.90755	0.28858	4.245
Mof_O 	O 	0.4048	0.09087	0.7592	-0.801
Mof_O 	O 	0.2842	0.17092	0.7759	-0.77
Mof_O 	O 	0.3244	0.90123	0.4305	-0.799
Mof_O 	O 	0.4424	0.93331	0.4679	-0.333
Mof_O 	O 	0.0316	0.33511	0.4142	-0.718
Mof_O 	O 	0.3637	0.2102	0.7359	-0.846
Mof_O 	O 	0.1267	0.83175	0.3181	-0.805
Mof_O 	O 	0.9613	0.30777	0.474	-0.21
Mof_O 	O 	0.0491	0.796	0.3612	-0.394
Mof_O 	O 	0.3022	0.048	0.7481	-0.864
Mof_C 	C 	0.3544	0.0578	0.7272	0.733
Mof_C 	C 	0.2968	0.2019	0.7281	0.633
Mof_C 	C 	0.3805	0.9314	0.4745	0.402
Mof_C 	C 	0.3253	0.7615	0.5147	-0.036
Mof_H 	H 	0.3761	0.7694	0.5247	0.054
Mof_C 	C 	0.1851	0.7746	0.4349	-0.207
Mof_C 	C 	0.0872	0.2503	0.5946	-0.173
Mof_H 	H 	0.0384	0.2474	0.5932	0.055
Mof_C 	C 	0.4199	0.0334	0.6393	0.211
Mof_H 	H 	0.4583	0.0581	0.6665	-0.155
Mof_C 	C 	0.0949	0.2798	0.5348	-0.054
Mof_C 	C 	0.1529	0.2247	0.6573	0.149
Mof_H 	H 	0.1478	0.2054	0.6982	-0.129
Mof_C 	C 	0.3613	0.0292	0.6632	-0.4
Mof_C 	C 	0.1683	0.2829	0.5356	-0.151
Mof_H 	H 	0.1734	0.3022	0.4945	-0.002
Mof_C 	C 	0.4259	0.0037	0.578	-0.161
Mof_H 	H 	0.4669	0.0091	0.5651	0.082
Mof_C 	C 	0.2329	0.2572	0.5976	0.127
Mof_H 	H 	0.2815	0.2595	0.5983	-0.096
Mof_C 	C 	0.2261	0.2279	0.6591	-0.361
Mof_C 	C 	0.3705	0.966	0.536	-0.099
Mof_C 	C 	0.3082	0.9596	0.5539	-0.111
Mof_H 	H 	0.27	0.9351	0.5247	-0.021
Mof_C 	C 	0.0253	0.3094	0.47	0.246
Mof_O 	O 	0.9542	0.9089	0.3268	-0.798
Mof_C 	C 	0.1157	0.8022	0.3672	0.519
Mof_C 	C 	0.2608	0.7859	0.4496	0.067
Mof_H 	H 	0.2684	0.8098	0.4157	-0.074
Mof_C 	C 	0.3022	0.9894	0.6146	0.104
Mof_H 	H 	0.2599	0.9843	0.6255	-0.074
Mof_C 	C 	0.0606	0.0309	0.5526	-0.35
Mof_H 	H 	0.1028	0.0516	0.588	-0.046
Mof_C 	C 	0.0052	0.9688	0.4394	-0.62
Mof_C 	C 	0.0152	0.9346	0.3744	0.585
Mof_C 	C 	0.0673	0.9999	0.4917	0.262
Mof_H 	H 	0.1134	0.0004	0.4867	-0.143
Mof_O 	O 	0.0761	0.9314	0.3741	-0.653
Mof_Cd	Cd	0.10184	0.6332	0.63358	0.227
Mof_K 	K 	0.30475	0.40755	0.21142	4.281
Mof_O 	O 	0.0952	0.59087	0.7408	-0.774
Mof_O 	O 	0.2158	0.67092	0.7241	-0.761
Mof_O 	O 	0.1756	0.40123	0.0695	-0.808
Mof_O 	O 	0.0576	0.43331	0.0321	-0.376
Mof_O 	O 	0.4684	0.83511	0.0858	-0.774
Mof_O 	O 	0.1363	0.7102	0.7641	-0.799
Mof_O 	O 	0.3733	0.33175	0.1819	-0.806
Mof_O 	O 	0.5387	0.80777	0.026	-0.332
Mof_O 	O 	0.4509	0.296	0.1388	-0.351
Mof_O 	O 	0.1978	0.548	0.7519	-0.86
Mof_C 	C 	0.1456	0.5578	0.7728	0.705
Mof_C 	C 	0.2032	0.7019	0.7719	0.609
Mof_C 	C 	0.1195	0.4314	0.0255	0.425
Mof_C 	C 	0.1747	0.2615	0.9853	-0.061
Mof_H 	H 	0.1239	0.2694	0.9753	0.048
Mof_C 	C 	0.3149	0.2746	0.0651	-0.212
Mof_C 	C 	0.4128	0.7503	0.9054	-0.127
Mof_H 	H 	0.4616	0.7474	0.9068	0.077
Mof_C 	C 	0.0801	0.5334	0.8607	0.17
Mof_H 	H 	0.0417	0.5581	0.8335	-0.157
Mof_C 	C 	0.4051	0.7798	0.9652	-0.112
Mof_C 	C 	0.3471	0.7247	0.8427	0.127
Mof_H 	H 	0.3522	0.7054	0.8018	-0.114
Mof_C 	C 	0.1387	0.5292	0.8368	-0.381
Mof_C 	C 	0.3317	0.7829	0.9644	-0.118
Mof_H 	H 	0.3266	0.8022	0.0055	-0.017
Mof_C 	C 	0.0741	0.5037	0.922	-0.137
Mof_H 	H 	0.0331	0.5091	0.9349	0.037
Mof_C 	C 	0.2671	0.7572	0.9024	0.098
Mof_H 	H 	0.2185	0.7595	0.9017	-0.086
Mof_C 	C 	0.2739	0.7279	0.8409	-0.334
Mof_C 	C 	0.1295	0.466	0.964	-0.141
Mof_C 	C 	0.1918	0.4596	0.9461	-0.088
Mof_H 	H 	0.23	0.4351	0.9753	-0.035
Mof_C 	C 	0.4747	0.8094	0.03	0.417
Mof_O 	O 	0.5458	0.4089	0.1732	-0.892
Mof_C 	C 	0.3843	0.3022	0.1328	0.52
Mof_C 	C 	0.2392	0.2859	0.0504	0.09
Mof_H 	H 	0.2316	0.3098	0.0843	-0.081
Mof_C 	C 	0.1978	0.4894	0.8854	0.078
Mof_H 	H 	0.2401	0.4843	0.8745	-0.066
Mof_C 	C 	0.4394	0.5309	0.9474	0.02
Mof_H 	H 	0.3972	0.5516	0.912	-0.159
Mof_C 	C 	0.4948	0.4688	0.0606	-0.314
Mof_C 	C 	0.4848	0.4346	0.1256	0.626
Mof_C 	C 	0.4327	0.4999	0.0083	0.007
Mof_H 	H 	0.3866	0.5004	0.0133	-0.049
Mof_O 	O 	0.4239	0.4314	0.1259	-0.653
Mof_Cd	Cd	0.60184	0.1332	0.63358	0.242
Mof_K 	K 	0.80475	0.90755	0.21142	4.388
Mof_O 	O 	0.5952	0.09087	0.7408	-0.801
Mof_O 	O 	0.7158	0.17092	0.7241	-0.779
Mof_O 	O 	0.6756	0.90123	0.0695	-0.815
Mof_O 	O 	0.5576	0.93331	0.0321	-0.336
Mof_O 	O 	0.9684	0.33511	0.0858	-0.688
Mof_O 	O 	0.6363	0.2102	0.7641	-0.846
Mof_O 	O 	0.8733	0.83175	0.1819	-0.785
Mof_O 	O 	0.0387	0.30777	0.026	-0.43
Mof_O 	O 	0.9509	0.796	0.1388	-0.285
Mof_O 	O 	0.6978	0.048	0.7519	-0.869
Mof_C 	C 	0.6456	0.0578	0.7728	0.736
Mof_C 	C 	0.7032	0.2019	0.7719	0.637
Mof_C 	C 	0.6195	0.9314	0.0255	0.418
Mof_C 	C 	0.6747	0.7615	0.9853	-0.056
Mof_H 	H 	0.6239	0.7694	0.9753	0.059
Mof_C 	C 	0.8149	0.7746	0.0651	-0.198
Mof_C 	C 	0.9128	0.2503	0.9054	-0.121
Mof_H 	H 	0.9616	0.2474	0.9068	0.118
Mof_C 	C 	0.5801	0.0334	0.8607	0.203
Mof_H 	H 	0.5417	0.0581	0.8335	-0.152
Mof_C 	C 	0.9051	0.2798	0.9652	-0.108
Mof_C 	C 	0.8471	0.2247	0.8427	0.147
Mof_H 	H 	0.8522	0.2054	0.8018	-0.113
Mof_C 	C 	0.6387	0.0292	0.8368	-0.394
Mof_C 	C 	0.8317	0.2829	0.9644	-0.12
Mof_H 	H 	0.8266	0.3022	0.0055	-0.001
Mof_C 	C 	0.5741	0.0037	0.922	-0.151
Mof_H 	H 	0.5331	0.0091	0.9349	0.075
Mof_C 	C 	0.7671	0.2572	0.9024	0.117
Mof_H 	H 	0.7185	0.2595	0.9017	-0.092
Mof_C 	C 	0.7739	0.2279	0.8409	-0.348
Mof_C 	C 	0.6295	0.966	0.964	-0.116
Mof_C 	C 	0.6918	0.9596	0.9461	-0.1
Mof_H 	H 	0.73	0.9351	0.9753	-0.029
Mof_C 	C 	0.9747	0.3094	0.03	0.529
Mof_O 	O 	0.0458	0.9089	0.1732	-0.961
Mof_C 	C 	0.8843	0.8022	0.1328	0.514
Mof_C 	C 	0.7392	0.7859	0.0504	0.088
Mof_H 	H 	0.7316	0.8098	0.0843	-0.082
Mof_C 	C 	0.6978	0.9894	0.8854	0.096
Mof_H 	H 	0.7401	0.9843	0.8745	-0.068
Mof_C 	C 	0.9394	0.0309	0.9474	0.442
Mof_H 	H 	0.8972	0.0516	0.912	-0.291
Mof_C 	C 	0.9948	0.9688	0.0606	0.023
Mof_C 	C 	0.9848	0.9346	0.1256	0.655
Mof_C 	C 	0.9327	0.9999	0.0083	-0.3
Mof_H 	H 	0.8866	0.0004	0.0133	0.063
Mof_O 	O 	0.9239	0.9314	0.1259	-0.636
Mof_Cd	Cd	0.10184	0.3668	0.13358	0.227
Mof_K 	K 	0.30475	0.59245	0.71142	4.262
Mof_O 	O 	0.0952	0.40913	0.2408	-0.776
Mof_O 	O 	0.2158	0.32908	0.2241	-0.762
Mof_O 	O 	0.1756	0.59877	0.5695	-0.805
Mof_O 	O 	0.0576	0.56669	0.5321	-0.377
Mof_O 	O 	0.4684	0.16489	0.5858	-0.772
Mof_O 	O 	0.1363	0.2898	0.2641	-0.799
Mof_O 	O 	0.3733	0.66825	0.6819	-0.801
Mof_O 	O 	0.5387	0.19223	0.526	-0.333
Mof_O 	O 	0.4509	0.704	0.6388	-0.349
Mof_O 	O 	0.1978	0.452	0.2519	-0.861
Mof_C 	C 	0.1456	0.4422	0.2728	0.709
Mof_C 	C 	0.2032	0.2981	0.2719	0.609
Mof_C 	C 	0.1195	0.5686	0.5255	0.412
Mof_C 	C 	0.1747	0.7385	0.4853	-0.018
Mof_H 	H 	0.1239	0.7306	0.4753	0.037
Mof_C 	C 	0.3149	0.7254	0.5651	-0.185
Mof_C 	C 	0.4128	0.2497	0.4054	-0.125
Mof_H 	H 	0.4616	0.2526	0.4068	0.079
Mof_C 	C 	0.0801	0.4666	0.3607	0.178
Mof_H 	H 	0.0417	0.4419	0.3335	-0.16
Mof_C 	C 	0.4051	0.2202	0.4652	-0.109
Mof_C 	C 	0.3471	0.2753	0.3427	0.125
Mof_H 	H 	0.3522	0.2946	0.3018	-0.113
Mof_C 	C 	0.1387	0.4708	0.3368	-0.386
Mof_C 	C 	0.3317	0.2171	0.4644	-0.098
Mof_H 	H 	0.3266	0.1978	0.5055	-0.029
Mof_C 	C 	0.0741	0.4963	0.422	-0.147
Mof_H 	H 	0.0331	0.4909	0.4349	0.043
Mof_C 	C 	0.2671	0.2428	0.4024	0.088
Mof_H 	H 	0.2185	0.2405	0.4017	-0.081
Mof_C 	C 	0.2739	0.2721	0.3409	-0.329
Mof_C 	C 	0.1295	0.534	0.464	-0.123
Mof_C 	C 	0.1918	0.5404	0.4461	-0.098
Mof_H 	H 	0.23	0.5649	0.4753	-0.028
Mof_C 	C 	0.4747	0.1906	0.53	0.411
Mof_O 	O 	0.5458	0.5911	0.6732	-0.888
Mof_C 	C 	0.3843	0.6978	0.6328	0.508
Mof_C 	C 	0.2392	0.7141	0.5504	0.047
Mof_H 	H 	0.2316	0.6902	0.5843	-0.067
Mof_C 	C 	0.1978	0.5106	0.3854	0.086
Mof_H 	H 	0.2401	0.5157	0.3745	-0.067
Mof_C 	C 	0.4394	0.4691	0.4474	0.06
Mof_H 	H 	0.3972	0.4484	0.412	-0.172
Mof_C 	C 	0.4948	0.5312	0.5606	-0.288
Mof_C 	C 	0.4848	0.5654	0.6256	0.615
Mof_C 	C 	0.4327	0.5001	0.5083	-0.031
Mof_H 	H 	0.3866	0.4996	0.5133	-0.038
Mof_O 	O 	0.4239	0.5686	0.6259	-0.65
Mof_Cd	Cd	0.60184	0.8668	0.13358	0.242
Mof_K 	K 	0.80475	0.09245	0.71142	4.375
Mof_O 	O 	0.5952	0.90913	0.2408	-0.803
Mof_O 	O 	0.7158	0.82908	0.2241	-0.779
Mof_O 	O 	0.6756	0.09877	0.5695	-0.813
Mof_O 	O 	0.5576	0.06669	0.5321	-0.335
Mof_O 	O 	0.9684	0.66489	0.5858	-0.686
Mof_O 	O 	0.6363	0.7898	0.2641	-0.845
Mof_O 	O 	0.8733	0.16825	0.6819	-0.781
Mof_O 	O 	0.0387	0.69223	0.526	-0.434
Mof_O 	O 	0.9509	0.204	0.6388	-0.283
Mof_O 	O 	0.6978	0.952	0.2519	-0.871
Mof_C 	C 	0.6456	0.9422	0.2728	0.74
Mof_C 	C 	0.7032	0.7981	0.2719	0.636
Mof_C 	C 	0.6195	0.0686	0.5255	0.406
Mof_C 	C 	0.6747	0.2385	0.4853	-0.019
Mof_H 	H 	0.6239	0.2306	0.4753	0.049
Mof_C 	C 	0.8149	0.2254	0.5651	-0.174
Mof_C 	C 	0.9128	0.7497	0.4054	-0.118
Mof_H 	H 	0.9616	0.7526	0.4068	0.12
Mof_C 	C 	0.5801	0.9666	0.3607	0.214
Mof_H 	H 	0.5417	0.9419	0.3335	-0.156
Mof_C 	C 	0.9051	0.7202	0.4652	-0.106
Mof_C 	C 	0.8471	0.7753	0.3427	0.145
Mof_H 	H 	0.8522	0.7946	0.3018	-0.112
Mof_C 	C 	0.6387	0.9708	0.3368	-0.401
Mof_C 	C 	0.8317	0.7171	0.4644	-0.098
Mof_H 	H 	0.8266	0.6978	0.5055	-0.013
Mof_C 	C 	0.5741	0.9963	0.422	-0.164
Mof_H 	H 	0.5331	0.9909	0.4349	0.082
Mof_C 	C 	0.7671	0.7428	0.4024	0.106
Mof_H 	H 	0.7185	0.7405	0.4017	-0.086
Mof_C 	C 	0.7739	0.7721	0.3409	-0.343
Mof_C 	C 	0.6295	0.034	0.464	-0.097
Mof_C 	C 	0.6918	0.0404	0.4461	-0.111
Mof_H 	H 	0.73	0.0649	0.4753	-0.021
Mof_C 	C 	0.9747	0.6906	0.53	0.526
Mof_O 	O 	0.0458	0.0911	0.6732	-0.959
Mof_C 	C 	0.8843	0.1978	0.6328	0.504
Mof_C 	C 	0.7392	0.2141	0.5504	0.052
Mof_H 	H 	0.7316	0.1902	0.5843	-0.07
Mof_C 	C 	0.6978	0.0106	0.3854	0.108
Mof_H 	H 	0.7401	0.0157	0.3745	-0.07
Mof_C 	C 	0.9394	0.9691	0.4474	0.471
Mof_H 	H 	0.8972	0.9484	0.412	-0.299
Mof_C 	C 	0.9948	0.0312	0.5606	0.045
Mof_C 	C 	0.9848	0.0654	0.6256	0.649
Mof_C 	C 	0.9327	0.0001	0.5083	-0.321
Mof_H 	H 	0.8866	0.9996	0.5133	0.066
Mof_O 	O 	0.9239	0.0686	0.6259	-0.634
Mof_Cd	Cd	0.89816	0.3668	0.36642	0.299
Mof_K 	K 	0.69525	0.59245	0.78858	4.271
Mof_O 	O 	0.9048	0.40913	0.2592	-0.714
Mof_O 	O 	0.7842	0.32908	0.2759	-0.76
Mof_O 	O 	0.8244	0.59877	0.9305	-0.8
Mof_O 	O 	0.9424	0.56669	0.9679	-0.292
Mof_O 	O 	0.5316	0.16489	0.9142	-0.772
Mof_O 	O 	0.8637	0.2898	0.2359	-0.747
Mof_O 	O 	0.6267	0.66825	0.8181	-0.801
Mof_O 	O 	0.4613	0.19223	0.974	-0.337
Mof_O 	O 	0.5491	0.704	0.8612	-0.349
Mof_O 	O 	0.8022	0.452	0.2481	-0.849
Mof_C 	C 	0.8544	0.4422	0.2272	0.704
Mof_C 	C 	0.7968	0.2981	0.2281	0.598
Mof_C 	C 	0.8805	0.5686	0.9745	0.389
Mof_C 	C 	0.8253	0.7385	0.0147	0
Mof_H 	H 	0.8761	0.7306	0.0247	0.057
Mof_C 	C 	0.6851	0.7254	0.9349	-0.173
Mof_C 	C 	0.5872	0.2497	0.0946	-0.114
Mof_H 	H 	0.5384	0.2526	0.0932	0.077
Mof_C 	C 	0.9199	0.4666	0.1393	0.197
Mof_H 	H 	0.9583	0.4419	0.1665	-0.097
Mof_C 	C 	0.5949	0.2202	0.0348	-0.113
Mof_C 	C 	0.6529	0.2753	0.1573	0.114
Mof_H 	H 	0.6478	0.2946	0.1982	-0.109
Mof_C 	C 	0.8613	0.4708	0.1632	-0.36
Mof_C 	C 	0.6683	0.2171	0.0356	-0.064
Mof_H 	H 	0.6734	0.1978	0.9945	-0.043
Mof_C 	C 	0.9259	0.4963	0.078	-0.147
Mof_H 	H 	0.9669	0.4909	0.0651	0.115
Mof_C 	C 	0.7329	0.2428	0.0976	0.068
Mof_H 	H 	0.7815	0.2405	0.0983	-0.058
Mof_C 	C 	0.7261	0.2721	0.1591	-0.308
Mof_C 	C 	0.8705	0.534	0.036	-0.077
Mof_C 	C 	0.8082	0.5404	0.0539	-0.105
Mof_H 	H 	0.77	0.5649	0.0247	-0.017
Mof_C 	C 	0.5253	0.1906	0.97	0.406
Mof_O 	O 	0.4542	0.5911	0.8268	-0.886
Mof_C 	C 	0.6157	0.6978	0.8672	0.505
Mof_C 	C 	0.7608	0.7141	0.9496	0.034
Mof_H 	H 	0.7684	0.6902	0.9157	-0.063
Mof_C 	C 	0.8022	0.5106	0.1146	0.099
Mof_H 	H 	0.7599	0.5157	0.1255	-0.064
Mof_C 	C 	0.5606	0.4691	0.0526	0.099
Mof_H 	H 	0.6028	0.4484	0.088	-0.184
Mof_C 	C 	0.5052	0.5312	0.9394	-0.263
Mof_C 	C 	0.5152	0.5654	0.8744	0.605
Mof_C 	C 	0.5673	0.5001	0.9917	-0.07
Mof_H 	H 	0.6134	0.4996	0.9867	-0.028
Mof_O 	O 	0.5761	0.5686	0.8741	-0.648
Mof_Cd	Cd	0.39816	0.8668	0.36642	0.244
Mof_K 	K 	0.19525	0.09245	0.78858	4.227
Mof_O 	O 	0.4048	0.90913	0.2592	-0.803
Mof_O 	O 	0.2842	0.82908	0.2759	-0.771
Mof_O 	O 	0.3244	0.09877	0.9305	-0.796
Mof_O 	O 	0.4424	0.06669	0.9679	-0.332
Mof_O 	O 	0.0316	0.66489	0.9142	-0.716
Mof_O 	O 	0.3637	0.7898	0.2359	-0.846
Mof_O 	O 	0.1267	0.16825	0.8181	-0.801
Mof_O 	O 	0.9613	0.69223	0.974	-0.214
Mof_O 	O 	0.0491	0.204	0.8612	-0.392
Mof_O 	O 	0.3022	0.952	0.2481	-0.867
Mof_C 	C 	0.3544	0.9422	0.2272	0.739
Mof_C 	C 	0.2968	0.7981	0.2281	0.633
Mof_C 	C 	0.3805	0.0686	0.9745	0.386
Mof_C 	C 	0.3253	0.2385	0.0147	0.006
Mof_H 	H 	0.3761	0.2306	0.0247	0.043
Mof_C 	C 	0.1851	0.2254	0.9349	-0.18
Mof_C 	C 	0.0872	0.7497	0.0946	-0.171
Mof_H 	H 	0.0384	0.7526	0.0932	0.058
Mof_C 	C 	0.4199	0.9666	0.1393	0.225
Mof_H 	H 	0.4583	0.9419	0.1665	-0.16
Mof_C 	C 	0.0949	0.7202	0.0348	-0.052
Mof_C 	C 	0.1529	0.7753	0.1573	0.147
Mof_H 	H 	0.1478	0.7946	0.1982	-0.128
Mof_C 	C 	0.3613	0.9708	0.1632	-0.411
Mof_C 	C 	0.1683	0.7171	0.0356	-0.129
Mof_H 	H 	0.1734	0.6978	0.9945	-0.016
Mof_C 	C 	0.4259	0.9963	0.078	-0.18
Mof_H 	H 	0.4669	0.9909	0.0651	0.089
Mof_C 	C 	0.2329	0.7428	0.0976	0.116
Mof_H 	H 	0.2815	0.7405	0.0983	-0.09
Mof_C 	C 	0.2261	0.7721	0.1591	-0.356
Mof_C 	C 	0.3705	0.034	0.036	-0.074
Mof_C 	C 	0.3082	0.0404	0.0539	-0.127
Mof_H 	H 	0.27	0.0649	0.0247	-0.012
Mof_C 	C 	0.0253	0.6906	0.97	0.241
Mof_O 	O 	0.9542	0.0911	0.8268	-0.795
Mof_C 	C 	0.1157	0.1978	0.8672	0.508
Mof_C 	C 	0.2608	0.2141	0.9496	0.025
Mof_H 	H 	0.2684	0.1902	0.9157	-0.061
Mof_C 	C 	0.3022	0.0106	0.1146	0.119
Mof_H 	H 	0.2599	0.0157	0.1255	-0.076
Mof_C 	C 	0.0606	0.9691	0.0526	-0.315
Mof_H 	H 	0.1028	0.9484	0.088	-0.057
Mof_C 	C 	0.0052	0.0312	0.9394	-0.6
Mof_C 	C 	0.0152	0.0654	0.8744	0.577
Mof_C 	C 	0.0673	0.0001	0.9917	0.23
Mof_H 	H 	0.1134	0.9996	0.9867	-0.136
Mof_O 	O 	0.0761	0.0686	0.8741	-0.651
Mof_Cd	Cd	0.5	0.3635	0.25	0.3
Mof_K 	K 	0.5	0.83051	0.25	4.227
Mof_Cd	Cd	1.27582e-33	0.8635	0.25	0.191
Mof_K 	K 	1.27582e-33	0.33051	0.25	3.68
Mof_Cd	Cd	0.5	0.6365	0.75	0.3
Mof_K 	K 	0.5	0.16949	0.75	4.218
Mof_Cd	Cd	3.82745e-33	0.1365	0.75	0.19
Mof_K 	K 	3.82745e-33	0.66949	0.75	3.666
_end
