data_functionalizedCrystal
_audit_creation_method	'EQeq! by Chris Wilmer'
_symmetry_space_group_name_H-M	'P1'
_symmetry_Int_Tables_number	1
_symmetry_cell_setting	triclinic
loop_
_symmetry_equiv_pos_as_xyz
  x,y,z
_cell_length_a	9.5051
_cell_length_b	14.6243
_cell_length_c	13.5603
_cell_angle_alpha	90
_cell_angle_beta	90
_cell_angle_gamma	90
loop_
_atom_site_label
_atom_site_type_symbol
_atom_site_fract_x
_atom_site_fract_y
_atom_site_fract_z
_atom_site_charge
Mof_O 	O 	0.0819	0.11096	0.55062	-0.6
Mof_O 	O 	0.90769	0.1183	0.44381	-0.609
Mof_C 	C 	0.0312	0.28949	0.61719	0.131
Mof_O 	O 	0.20456	0.39117	0.74982	-0.46
Mof_C 	C 	0.0066	0.37983	0.6435	-0.152
Mof_C 	C 	0.0879	0.42415	0.7253	0.342
Mof_C 	C 	0.9076	0.43011	0.5914	0.082
Mof_C 	C 	0.984	0.15192	0.50985	0.551
Mof_C 	C 	0.9566	0.24909	0.54051	-0.246
Mof_C 	C 	0.8572	0.30033	0.49019	0.138
Mof_C 	C 	0.8346	0.39042	0.5146	-0.183
Mof_O 	O 	0.03577	0.49361	0.76841	-0.434
Mof_H 	H 	0.096	0.2549	0.6496	0.005
Mof_H 	H 	0.804	0.2749	0.442	-0.008
Mof_H 	H 	0.881	0.488	0.617	0.015
Mof_H 	H 	0.769	0.422	0.478	0.099
Mof_O 	O 	0.4181	0.88904	0.55062	-0.487
Mof_O 	O 	0.59231	0.8817	0.44381	-0.462
Mof_C 	C 	0.4688	0.71051	0.61719	0.11
Mof_O 	O 	0.29544	0.60883	0.74982	-0.456
Mof_C 	C 	0.4934	0.62017	0.6435	-0.142
Mof_C 	C 	0.4121	0.57585	0.7253	0.339
Mof_C 	C 	0.5924	0.56989	0.5914	0.078
Mof_C 	C 	0.516	0.84808	0.50985	0.532
Mof_C 	C 	0.5434	0.75091	0.54051	-0.205
Mof_C 	C 	0.6428	0.69967	0.49019	0.123
Mof_C 	C 	0.6654	0.60958	0.5146	-0.166
Mof_O 	O 	0.46423	0.50639	0.76841	-0.437
Mof_H 	H 	0.404	0.7451	0.6496	0.016
Mof_H 	H 	0.696	0.7251	0.442	0.006
Mof_H 	H 	0.619	0.512	0.617	0.016
Mof_H 	H 	0.731	0.578	0.478	0.094
Mof_O 	O 	0.4181	0.61096	0.94938	-0.685
Mof_O 	O 	0.59231	0.6183	0.05619	-0.673
Mof_C 	C 	0.4688	0.78949	0.88281	0.152
Mof_O 	O 	0.29544	0.89117	0.75018	-0.331
Mof_C 	C 	0.4934	0.87983	0.8565	-0.135
Mof_C 	C 	0.4121	0.92415	0.7747	0.328
Mof_C 	C 	0.5924	0.93011	0.9086	0.127
Mof_C 	C 	0.516	0.65192	0.99015	0.641
Mof_C 	C 	0.5434	0.74909	0.95949	-0.277
Mof_C 	C 	0.6428	0.80033	0.00981	0.19
Mof_C 	C 	0.6654	0.89042	0.9854	-0.186
Mof_O 	O 	0.46423	0.99361	0.73159	-0.251
Mof_H 	H 	0.404	0.7549	0.8504	-0.004
Mof_H 	H 	0.696	0.7749	0.058	-0.02
Mof_H 	H 	0.619	0.988	0.883	0.086
Mof_H 	H 	0.731	0.922	0.022	0.164
Mof_O 	O 	0.0819	0.38904	0.94938	-0.683
Mof_O 	O 	0.90769	0.3817	0.05619	-0.679
Mof_C 	C 	0.0312	0.21051	0.88281	0.188
Mof_O 	O 	0.20456	0.10883	0.75018	-0.449
Mof_C 	C 	0.0066	0.12017	0.8565	-0.21
Mof_C 	C 	0.0879	0.07585	0.7747	0.35
Mof_C 	C 	0.9076	0.06989	0.9086	0.103
Mof_C 	C 	0.984	0.34808	0.99015	0.639
Mof_C 	C 	0.9566	0.25091	0.95949	-0.32
Mof_C 	C 	0.8572	0.19967	0.00981	0.201
Mof_C 	C 	0.8346	0.10958	0.9854	-0.269
Mof_O 	O 	0.03577	0.00639	0.73159	-0.479
Mof_H 	H 	0.096	0.2451	0.8504	-0.021
Mof_H 	H 	0.804	0.2251	0.058	-0.041
Mof_H 	H 	0.881	0.012	0.883	-0.074
Mof_H 	H 	0.769	0.078	0.022	0.071
Mof_O 	O 	0.9181	0.88904	0.44938	-0.486
Mof_O 	O 	0.09231	0.8817	0.55619	-0.465
Mof_C 	C 	0.9688	0.71051	0.38281	0.109
Mof_O 	O 	0.79544	0.60883	0.25018	-0.456
Mof_C 	C 	0.9934	0.62017	0.3565	-0.145
Mof_C 	C 	0.9121	0.57585	0.2747	0.34
Mof_C 	C 	0.0924	0.56989	0.4086	0.081
Mof_C 	C 	0.016	0.84808	0.49015	0.53
Mof_C 	C 	0.0434	0.75091	0.45949	-0.205
Mof_C 	C 	0.1428	0.69967	0.50981	0.124
Mof_C 	C 	0.1654	0.60958	0.4854	-0.168
Mof_O 	O 	0.96423	0.50639	0.23159	-0.438
Mof_H 	H 	0.904	0.7451	0.3504	0.016
Mof_H 	H 	0.196	0.7251	0.558	0.006
Mof_H 	H 	0.119	0.512	0.383	0.016
Mof_H 	H 	0.231	0.578	0.522	0.095
Mof_O 	O 	0.5819	0.11096	0.44938	-0.606
Mof_O 	O 	0.40769	0.1183	0.55619	-0.612
Mof_C 	C 	0.5312	0.28949	0.38281	0.125
Mof_O 	O 	0.70456	0.39117	0.25018	-0.461
Mof_C 	C 	0.5066	0.37983	0.3565	-0.155
Mof_C 	C 	0.5879	0.42415	0.2747	0.343
Mof_C 	C 	0.4076	0.43011	0.4086	0.089
Mof_C 	C 	0.484	0.15192	0.49015	0.557
Mof_C 	C 	0.4566	0.24909	0.45949	-0.242
Mof_C 	C 	0.3572	0.30033	0.50981	0.139
Mof_C 	C 	0.3346	0.39042	0.4854	-0.185
Mof_O 	O 	0.53577	0.49361	0.23159	-0.435
Mof_H 	H 	0.596	0.2549	0.3504	0.006
Mof_H 	H 	0.304	0.2749	0.558	-0.008
Mof_H 	H 	0.381	0.488	0.383	0.014
Mof_H 	H 	0.269	0.422	0.522	0.1
Mof_O 	O 	0.5819	0.38904	0.05062	-0.689
Mof_O 	O 	0.40769	0.3817	0.94381	-0.681
Mof_C 	C 	0.5312	0.21051	0.11719	0.179
Mof_O 	O 	0.70456	0.10883	0.24982	-0.449
Mof_C 	C 	0.5066	0.12017	0.1435	-0.216
Mof_C 	C 	0.5879	0.07585	0.2253	0.351
Mof_C 	C 	0.4076	0.06989	0.0914	0.111
Mof_C 	C 	0.484	0.34808	0.00985	0.647
Mof_C 	C 	0.4566	0.25091	0.04051	-0.31
Mof_C 	C 	0.3572	0.19967	0.99019	0.194
Mof_C 	C 	0.3346	0.10958	0.0146	-0.264
Mof_O 	O 	0.53577	0.00639	0.26841	-0.482
Mof_H 	H 	0.596	0.2451	0.1496	-0.018
Mof_H 	H 	0.304	0.2251	0.942	-0.038
Mof_H 	H 	0.381	0.012	0.117	-0.073
Mof_H 	H 	0.269	0.078	0.978	0.071
Mof_O 	O 	0.9181	0.61096	0.05062	-0.685
Mof_O 	O 	0.09231	0.6183	0.94381	-0.672
Mof_C 	C 	0.9688	0.78949	0.11719	0.154
Mof_O 	O 	0.79544	0.89117	0.24982	-0.329
Mof_C 	C 	0.9934	0.87983	0.1435	-0.136
Mof_C 	C 	0.9121	0.92415	0.2253	0.328
Mof_C 	C 	0.0924	0.93011	0.0914	0.127
Mof_C 	C 	0.016	0.65192	0.00985	0.64
Mof_C 	C 	0.0434	0.74909	0.04051	-0.281
Mof_C 	C 	0.1428	0.80033	0.99019	0.195
Mof_C 	C 	0.1654	0.89042	0.0146	-0.19
Mof_O 	O 	0.96423	0.99361	0.26841	-0.25
Mof_H 	H 	0.904	0.7549	0.1496	-0.004
Mof_H 	H 	0.196	0.7749	0.942	-0.022
Mof_H 	H 	0.119	0.988	0.117	0.085
Mof_H 	H 	0.231	0.922	0.978	0.164
Mof_Pr	Pr	0.25	0	0.60466	2.082
Mof_Pr	Pr	0.25	0.5	0.89534	2.843
Mof_Pr	Pr	0.75	-3.34803e-33	0.39534	2.071
Mof_Pr	Pr	0.75	0.5	0.10466	2.841
_end
