data_functionalizedCrystal
_audit_creation_method	'EQeq! by Chris Wilmer'
_symmetry_space_group_name_H-M	'P1'
_symmetry_Int_Tables_number	1
_symmetry_cell_setting	triclinic
loop_
_symmetry_equiv_pos_as_xyz
  x,y,z
_cell_length_a	14.6693
_cell_length_b	14.6693
_cell_length_c	14.6693
_cell_angle_alpha	109.471
_cell_angle_beta	109.471
_cell_angle_gamma	109.471
loop_
_atom_site_label
_atom_site_type_symbol
_atom_site_fract_x
_atom_site_fract_y
_atom_site_fract_z
_atom_site_charge
Mof_Zn	Zn	0.75	0.5	0.25	1.175
Mof_Zn	Zn	0.25	0.5	0.75	1.175
Mof_Zn	Zn	0.75	0.25	0.5	1.175
Mof_Zn	Zn	0.25	0.75	0.5	1.175
Mof_Zn	Zn	0.5	0.25	0.75	1.175
Mof_Zn	Zn	0.5	0.75	0.25	1.175
Mof_H 	H 	0.12525	0.65806	0.23926	0
Mof_H 	H 	0.5812	0.46719	0.34194	-0.002
Mof_H 	H 	-3.50882e-17	0.36545	0.47283	0.093
Mof_H 	H 	0.2417	0.44932	0.93075	0.078
Mof_H 	H 	0.36545	0.47284	-0	0.092
Mof_H 	H 	0.46719	0.5812	0.34194	-0.003
Mof_H 	H 	0.68905	0.20761	0.7583	0.086
Mof_H 	H 	0.7583	0.68905	0.20761	0.086
Mof_H 	H 	0.79238	0.48143	0.55068	0.084
Mof_H 	H 	0.46719	0.34194	0.5812	-0.003
Mof_H 	H 	0.51856	0.31094	0.06925	0.085
Mof_H 	H 	0.88599	0.76074	0.4188	-0.002
Mof_H 	H 	0.11401	0.53281	0.87475	-0.008
Mof_H 	H 	0.68905	0.7583	0.20761	0.086
Mof_H 	H 	0.48144	0.55069	0.79239	0.084
Mof_H 	H 	0.12525	0.23926	0.65806	-0.001
Mof_H 	H 	0.44931	0.93075	0.24169	0.078
Mof_H 	H 	0.52717	0.89262	0.52717	0.088
Mof_H 	H 	0.79238	0.55068	0.48143	0.084
Mof_H 	H 	0.4188	0.88599	0.76074	-0.002
Mof_H 	H 	0.47283	0.36544	-0	0.092
Mof_H 	H 	0.76074	0.88599	0.4188	-0.002
Mof_H 	H 	0.93075	0.2417	0.44931	0.078
Mof_H 	H 	0.31095	0.06925	0.51857	0.085
Mof_H 	H 	0.88599	0.4188	0.76074	-0.002
Mof_H 	H 	0.63455	0.10738	0.63455	0.093
Mof_H 	H 	0.06925	0.31095	0.51856	0.085
Mof_H 	H 	0.48144	0.79239	0.55069	0.084
Mof_H 	H 	0.52717	0.52717	0.89262	0.088
Mof_H 	H 	0.47283	0	0.36544	0.092
Mof_H 	H 	0.65806	0.23926	0.12525	-0.001
Mof_H 	H 	0.55069	0.79239	0.48144	0.084
Mof_H 	H 	0.55069	0.48144	0.79239	0.084
Mof_H 	H 	0.23926	0.65806	0.12525	-0.001
Mof_H 	H 	0.63455	0.63455	0.10738	0.093
Mof_H 	H 	0.2417	0.93075	0.44932	0.078
Mof_H 	H 	0.11401	0.87475	0.53281	-0.008
Mof_H 	H 	0.34194	0.46719	0.5812	-0.003
Mof_H 	H 	0.7583	0.20761	0.68905	0.086
Mof_H 	H 	0.20762	0.68906	0.75831	0.086
Mof_H 	H 	-1.16961e-17	0.47283	0.36545	0.092
Mof_H 	H 	0.53281	0.87475	0.11401	-0.008
Mof_H 	H 	0.23926	0.12525	0.65806	-0.001
Mof_H 	H 	0.10739	0.63456	0.63456	0.093
Mof_H 	H 	0.36545	0	0.47284	0.092
Mof_H 	H 	0.4188	0.76074	0.88599	-0.002
Mof_H 	H 	0.89261	0.52716	0.52716	0.088
Mof_H 	H 	0.87475	0.11401	0.53281	-0.008
Mof_H 	H 	0.87475	0.53281	0.11401	-0.008
Mof_H 	H 	0.31095	0.51857	0.06925	0.085
Mof_H 	H 	0.76074	0.4188	0.88599	-0.002
Mof_H 	H 	0.20762	0.75831	0.68906	0.086
Mof_H 	H 	0.5812	0.34194	0.46719	-0.003
Mof_H 	H 	0.65806	0.12525	0.23926	-0.001
Mof_H 	H 	0.93075	0.44931	0.2417	0.078
Mof_H 	H 	0.44931	0.24169	0.93075	0.078
Mof_H 	H 	0.34194	0.5812	0.46719	-0.003
Mof_H 	H 	0.06925	0.51856	0.31095	0.085
Mof_H 	H 	0.51856	0.06925	0.31094	0.085
Mof_H 	H 	0.53281	0.11401	0.87475	-0.008
Mof_C 	C 	0.05679	0.47682	0.79129	0.002
Mof_C 	C 	0.48918	0.48918	0.8069	-0.383
Mof_C 	C 	0.62976	0.24708	0.62976	0.162
Mof_C 	C 	0.94321	0.42003	0.7345	-0.025
Mof_C 	C 	0.37024	0.61732	-0	0.167
Mof_C 	C 	0.31447	0.52318	0.57997	-0.011
Mof_C 	C 	0.57997	0.52318	0.31447	-0.011
Mof_C 	C 	0.68228	0.1931	0.68228	-0.387
Mof_C 	C 	0.62976	0.62976	0.24708	0.162
Mof_C 	C 	-5.84804e-17	0.31772	0.51082	-0.372
Mof_C 	C 	0.37024	0	0.61732	0.167
Mof_C 	C 	0.48918	0.8069	0.48918	-0.383
Mof_C 	C 	0.57997	0.31447	0.52318	-0.011
Mof_C 	C 	-4.67843e-17	0.51082	0.31772	-0.372
Mof_C 	C 	0.68553	0.20871	0.2655	-0.01
Mof_C 	C 	0.94321	0.7345	0.42003	-0.025
Mof_C 	C 	0.61732	2.33922e-17	0.37024	0.167
Mof_C 	C 	-7.01765e-17	0.37024	0.61732	0.167
Mof_C 	C 	0.52318	0.31447	0.57997	-0.011
Mof_C 	C 	0.31772	0.51082	-0	-0.372
Mof_C 	C 	0.38268	0.38268	0.75292	0.16
Mof_C 	C 	0.68553	0.2655	0.20871	-0.01
Mof_C 	C 	0.61732	0.37024	-0	0.167
Mof_C 	C 	0.47682	0.05679	0.79129	0.002
Mof_C 	C 	0.47682	0.79129	0.05679	0.002
Mof_C 	C 	0.7345	0.42003	0.94321	-0.025
Mof_C 	C 	0.79129	0.05679	0.47682	0.002
Mof_C 	C 	0.51082	-2.33922e-17	0.31772	-0.372
Mof_C 	C 	0.7345	0.94321	0.42003	-0.025
Mof_C 	C 	0.68228	0.68228	0.1931	-0.387
Mof_C 	C 	0.24708	0.62976	0.62976	0.162
Mof_C 	C 	0.51082	0.31772	-0	-0.372
Mof_C 	C 	0.8069	0.48918	0.48918	-0.383
Mof_C 	C 	0.79129	0.47682	0.05679	0.002
Mof_C 	C 	0.2655	0.20871	0.68553	-0.01
Mof_C 	C 	0.20871	0.2655	0.68553	-0.01
Mof_C 	C 	0.42003	0.7345	0.94321	-0.025
Mof_C 	C 	0.31772	4.67843e-17	0.51082	-0.372
Mof_C 	C 	0.2655	0.68553	0.20871	-0.01
Mof_C 	C 	0.1931	0.68228	0.68228	-0.387
Mof_C 	C 	0.42003	0.94321	0.7345	-0.025
Mof_C 	C 	0.05679	0.79129	0.47682	0.002
Mof_C 	C 	0.52318	0.57997	0.31447	-0.011
Mof_C 	C 	0.75292	0.38268	0.38268	0.16
Mof_C 	C 	0.38268	0.75292	0.38268	0.16
Mof_C 	C 	0.20871	0.68553	0.2655	-0.01
Mof_C 	C 	1.16961e-17	0.61732	0.37024	0.167
Mof_C 	C 	0.31447	0.57997	0.52318	-0.011
Mof_N 	N 	0.27197	0.55523	0.64796	-0.3
Mof_N 	N 	0.09273	0.44477	0.71674	-0.302
Mof_N 	N 	0.72803	0.28326	0.37599	-0.3
Mof_N 	N 	0.71674	0.44477	0.09273	-0.302
Mof_N 	N 	0.55523	0.27197	0.64796	-0.3
Mof_N 	N 	0.55523	0.64796	0.27197	-0.3
Mof_N 	N 	0.35204	0.62401	0.90727	-0.302
Mof_N 	N 	0.64796	0.55523	0.27197	-0.3
Mof_N 	N 	0.72803	0.37599	0.28326	-0.3
Mof_N 	N 	0.44477	0.71674	0.09273	-0.302
Mof_N 	N 	0.62401	0.90727	0.35204	-0.302
Mof_N 	N 	0.37599	0.28326	0.72803	-0.3
Mof_N 	N 	0.27197	0.64796	0.55523	-0.3
Mof_N 	N 	0.90727	0.35204	0.62401	-0.302
Mof_N 	N 	0.28326	0.37599	0.72803	-0.3
Mof_N 	N 	0.09273	0.71674	0.44477	-0.302
Mof_N 	N 	0.35204	0.90727	0.62401	-0.302
Mof_N 	N 	0.44477	0.09273	0.71674	-0.302
Mof_N 	N 	0.71674	0.09273	0.44477	-0.302
Mof_N 	N 	0.90727	0.62401	0.35204	-0.302
Mof_N 	N 	0.37599	0.72803	0.28326	-0.3
Mof_N 	N 	0.62401	0.35204	0.90727	-0.302
Mof_N 	N 	0.28326	0.72803	0.37599	-0.3
Mof_N 	N 	0.64796	0.27197	0.55523	-0.3
_end
