data_functionalizedCrystal
_audit_creation_method	'EQeq! by Chris Wilmer'
_symmetry_space_group_name_H-M	'P1'
_symmetry_Int_Tables_number	1
_symmetry_cell_setting	triclinic
loop_
_symmetry_equiv_pos_as_xyz
  x,y,z
_cell_length_a	45.3941
_cell_length_b	45.3941
_cell_length_c	45.3941
_cell_angle_alpha	60
_cell_angle_beta	60
_cell_angle_gamma	60
loop_
_atom_site_label
_atom_site_type_symbol
_atom_site_fract_x
_atom_site_fract_y
_atom_site_fract_z
_atom_site_charge
Mof_N 	N 	0.30547	0.46651	0.73945	-0.258
Mof_N 	N 	0.27786	0.46462	0.53602	-0.264
Mof_C 	C 	0.33645	0.46069	0.72287	0.092
Mof_C 	C 	0.29455	0.44197	0.55461	0.1
Mof_S 	S 	0.37879	0.45409	0.69791	-0.063
Mof_S 	S 	0.31857	0.41045	0.58091	-0.061
Mof_N 	N 	0.25847	0.46717	0.71019	-0.224
Mof_C 	C 	0.22837	0.47223	0.70679	0.031
Mof_H 	H 	0.2057	0.4815	0.7231	0.013
Mof_C 	C 	0.22889	0.46443	0.68059	-0.047
Mof_C 	C 	0.26161	0.45083	0.65683	0.005
Mof_H 	H 	0.2626	0.4466	0.6378	0.037
Mof_C 	C 	0.29278	0.44336	0.66112	-0.098
Mof_H 	H 	0.3157	0.4325	0.6461	0.064
Mof_C 	C 	0.2902	0.4519	0.68788	0.056
Mof_H 	H 	0.3119	0.4467	0.6907	0.002
Mof_N 	N 	0.03691	0.49967	0.75769	-0.226
Mof_C 	C 	0.03579	0.50161	0.78679	0.055
Mof_H 	H 	0.0135	0.5047	0.8061	-0.002
Mof_C 	C 	0.06574	0.49924	0.78982	-0.096
Mof_H 	H 	0.0637	0.5015	0.8105	0.064
Mof_C 	C 	0.0989	0.49358	0.76236	0.004
Mof_H 	H 	0.12	0.4912	0.7642	0.038
Mof_C 	C 	0.10009	0.49165	0.73183	-0.049
Mof_C 	C 	0.06851	0.49497	0.73087	0.037
Mof_H 	H 	0.0693	0.4939	0.7101	0.013
Mof_C 	C 	0.13339	0.48825	0.70095	0.131
Mof_N 	N 	0.16435	0.47745	0.70665	-0.148
Mof_C 	C 	0.19423	0.47463	0.67659	0.131
Mof_N 	N 	0.19478	0.4815	0.64474	-0.153
Mof_C 	C 	0.16239	0.49285	0.64195	0.131
Mof_N 	N 	0.13091	0.49607	0.66961	-0.15
Mof_C 	C 	0.16127	0.50287	0.60627	-0.05
Mof_C 	C 	0.12922	0.51588	0.6	0.007
Mof_H 	H 	0.1066	0.519	0.6188	0.038
Mof_C 	C 	0.13128	0.52414	0.5655	-0.099
Mof_H 	H 	0.11	0.5326	0.5604	0.066
Mof_C 	C 	0.16442	0.52016	0.53822	0.059
Mof_H 	H 	0.1653	0.5259	0.5147	0.002
Mof_N 	N 	0.19511	0.50857	0.54401	-0.226
Mof_N 	N 	0.29707	0.50627	0.45579	-0.229
Mof_C 	C 	0.29713	0.53837	0.42907	0.054
Mof_H 	H 	0.275	0.558	0.43	0.001
Mof_C 	C 	0.3277	0.54398	0.40068	-0.099
Mof_H 	H 	0.3263	0.5669	0.3823	0.065
Mof_C 	C 	0.36015	0.51649	0.39897	0.008
Mof_H 	H 	0.3814	0.5202	0.3794	0.037
Mof_C 	C 	0.19333	0.50031	0.57743	0.037
Mof_H 	H 	0.215	0.4924	0.5816	0.011
Mof_C 	C 	0.3616	0.48304	0.42624	-0.054
Mof_C 	C 	0.32901	0.47953	0.45353	0.04
Mof_H 	H 	0.3295	0.4567	0.4717	0.012
Mof_C 	C 	0.39522	0.45242	0.42498	0.135
Mof_N 	N 	0.42236	0.455	0.39472	-0.153
Mof_N 	N 	0.46651	0.30547	0.98857	-0.258
Mof_N 	N 	0.46462	0.27786	0.2215	-0.264
Mof_C 	C 	0.46069	0.33645	0.97999	0.092
Mof_C 	C 	0.44197	0.29455	0.20887	0.1
Mof_S 	S 	0.45409	0.37879	0.96921	-0.063
Mof_S 	S 	0.41045	0.31857	0.19007	-0.061
Mof_N 	N 	0.46717	0.25847	0.06417	-0.224
Mof_C 	C 	0.47223	0.22837	0.09261	0.031
Mof_H 	H 	0.4815	0.2057	0.0897	0.013
Mof_C 	C 	0.46443	0.22889	0.12609	-0.047
Mof_C 	C 	0.45083	0.26161	0.13073	0.005
Mof_H 	H 	0.4466	0.2626	0.153	0.037
Mof_C 	C 	0.44336	0.29278	0.10274	-0.098
Mof_H 	H 	0.4325	0.3157	0.1057	0.064
Mof_C 	C 	0.4519	0.2902	0.07002	0.056
Mof_H 	H 	0.4467	0.3119	0.0507	0.002
Mof_N 	N 	0.49967	0.03691	0.20573	-0.226
Mof_C 	C 	0.50161	0.03579	0.17581	0.055
Mof_H 	H 	0.5047	0.0135	0.1757	-0.002
Mof_C 	C 	0.49924	0.06574	0.1452	-0.096
Mof_H 	H 	0.5015	0.0637	0.1243	0.064
Mof_C 	C 	0.49358	0.0989	0.14516	0.004
Mof_H 	H 	0.4912	0.12	0.1246	0.038
Mof_C 	C 	0.49165	0.10009	0.17643	-0.049
Mof_C 	C 	0.49497	0.06851	0.20565	0.037
Mof_H 	H 	0.4939	0.0693	0.2267	0.013
Mof_C 	C 	0.48825	0.13339	0.17741	0.131
Mof_N 	N 	0.47745	0.16435	0.15155	-0.148
Mof_C 	C 	0.47463	0.19423	0.15455	0.131
Mof_N 	N 	0.4815	0.19478	0.17898	-0.153
Mof_C 	C 	0.49285	0.16239	0.20281	0.131
Mof_N 	N 	0.49607	0.13091	0.20341	-0.15
Mof_C 	C 	0.50287	0.16127	0.22959	-0.05
Mof_C 	C 	0.51588	0.12922	0.2549	0.007
Mof_H 	H 	0.519	0.1066	0.2556	0.038
Mof_C 	C 	0.52414	0.13128	0.27908	-0.099
Mof_H 	H 	0.5326	0.11	0.297	0.066
Mof_C 	C 	0.52016	0.16442	0.2772	0.059
Mof_H 	H 	0.5259	0.1653	0.2941	0.002
Mof_N 	N 	0.50857	0.19511	0.25231	-0.226
Mof_N 	N 	0.50627	0.29707	0.24087	-0.229
Mof_C 	C 	0.53837	0.29713	0.23543	0.054
Mof_H 	H 	0.558	0.275	0.237	0.001
Mof_C 	C 	0.54398	0.3277	0.22764	-0.099
Mof_H 	H 	0.5669	0.3263	0.2245	0.065
Mof_C 	C 	0.51649	0.36015	0.22439	0.008
Mof_H 	H 	0.5202	0.3814	0.219	0.037
Mof_C 	C 	0.50031	0.19333	0.22893	0.037
Mof_H 	H 	0.4924	0.215	0.211	0.011
Mof_C 	C 	0.48304	0.3616	0.22912	-0.054
Mof_C 	C 	0.47953	0.32901	0.23793	0.04
Mof_H 	H 	0.4567	0.3295	0.2421	0.012
Mof_C 	C 	0.45242	0.39522	0.22738	0.135
Mof_N 	N 	0.455	0.42236	0.22792	-0.153
Mof_N 	N 	0.73945	0.98857	0.30547	-0.258
Mof_N 	N 	0.53602	0.2215	0.27786	-0.264
Mof_C 	C 	0.72287	0.97999	0.33645	0.092
Mof_C 	C 	0.55461	0.20887	0.29455	0.1
Mof_S 	S 	0.69791	0.96921	0.37879	-0.063
Mof_S 	S 	0.58091	0.19007	0.31857	-0.061
Mof_N 	N 	0.71019	0.06417	0.25847	-0.224
Mof_C 	C 	0.70679	0.09261	0.22837	0.031
Mof_H 	H 	0.7231	0.0897	0.2057	0.013
Mof_C 	C 	0.68059	0.12609	0.22889	-0.047
Mof_C 	C 	0.65683	0.13073	0.26161	0.005
Mof_H 	H 	0.6378	0.153	0.2626	0.037
Mof_C 	C 	0.66112	0.10274	0.29278	-0.098
Mof_H 	H 	0.6461	0.1057	0.3157	0.064
Mof_C 	C 	0.68788	0.07002	0.2902	0.056
Mof_H 	H 	0.6907	0.0507	0.3119	0.002
Mof_N 	N 	0.75769	0.20573	0.03691	-0.226
Mof_C 	C 	0.78679	0.17581	0.03579	0.055
Mof_H 	H 	0.8061	0.1757	0.0135	-0.002
Mof_C 	C 	0.78982	0.1452	0.06574	-0.096
Mof_H 	H 	0.8105	0.1243	0.0637	0.064
Mof_C 	C 	0.76236	0.14516	0.0989	0.004
Mof_H 	H 	0.7642	0.1246	0.12	0.038
Mof_C 	C 	0.73183	0.17643	0.10009	-0.049
Mof_C 	C 	0.73087	0.20565	0.06851	0.037
Mof_H 	H 	0.7101	0.2267	0.0693	0.013
Mof_C 	C 	0.70095	0.17741	0.13339	0.131
Mof_N 	N 	0.70665	0.15155	0.16435	-0.148
Mof_C 	C 	0.67659	0.15455	0.19423	0.131
Mof_N 	N 	0.64474	0.17898	0.19478	-0.153
Mof_C 	C 	0.64195	0.20281	0.16239	0.131
Mof_N 	N 	0.66961	0.20341	0.13091	-0.15
Mof_C 	C 	0.60627	0.22959	0.16127	-0.05
Mof_C 	C 	0.6	0.2549	0.12922	0.007
Mof_H 	H 	0.6188	0.2556	0.1066	0.038
Mof_C 	C 	0.5655	0.27908	0.13128	-0.099
Mof_H 	H 	0.5604	0.297	0.11	0.066
Mof_C 	C 	0.53822	0.2772	0.16442	0.059
Mof_H 	H 	0.5147	0.2941	0.1653	0.002
Mof_N 	N 	0.54401	0.25231	0.19511	-0.226
Mof_N 	N 	0.45579	0.24087	0.29707	-0.229
Mof_C 	C 	0.42907	0.23543	0.29713	0.054
Mof_H 	H 	0.43	0.237	0.275	0.001
Mof_C 	C 	0.40068	0.22764	0.3277	-0.099
Mof_H 	H 	0.3823	0.2245	0.3263	0.065
Mof_C 	C 	0.39897	0.22439	0.36015	0.008
Mof_H 	H 	0.3794	0.219	0.3814	0.037
Mof_C 	C 	0.57743	0.22893	0.19333	0.037
Mof_H 	H 	0.5816	0.211	0.215	0.011
Mof_C 	C 	0.42624	0.22912	0.3616	-0.054
Mof_C 	C 	0.45353	0.23793	0.32901	0.04
Mof_H 	H 	0.4717	0.2421	0.3295	0.012
Mof_C 	C 	0.42498	0.22738	0.39522	0.135
Mof_N 	N 	0.39472	0.22792	0.42236	-0.153
Mof_N 	N 	0.98857	0.73945	0.46651	-0.257
Mof_N 	N 	0.2215	0.53602	0.46462	-0.263
Mof_C 	C 	0.97999	0.72287	0.46069	0.093
Mof_C 	C 	0.20887	0.55461	0.44197	0.101
Mof_S 	S 	0.96921	0.69791	0.45409	-0.062
Mof_S 	S 	0.19007	0.58091	0.41045	-0.06
Mof_N 	N 	0.06417	0.71019	0.46717	-0.223
Mof_C 	C 	0.09261	0.70679	0.47223	0.032
Mof_H 	H 	0.0897	0.7231	0.4815	0.014
Mof_C 	C 	0.12609	0.68059	0.46443	-0.046
Mof_C 	C 	0.13073	0.65683	0.45083	0.006
Mof_H 	H 	0.153	0.6378	0.4466	0.038
Mof_C 	C 	0.10274	0.66112	0.44336	-0.097
Mof_H 	H 	0.1057	0.6461	0.4325	0.065
Mof_C 	C 	0.07002	0.68788	0.4519	0.057
Mof_H 	H 	0.0507	0.6907	0.4467	0.003
Mof_N 	N 	0.20573	0.75769	0.49967	-0.225
Mof_C 	C 	0.17581	0.78679	0.50161	0.056
Mof_H 	H 	0.1757	0.8061	0.5047	-0.001
Mof_C 	C 	0.1452	0.78982	0.49924	-0.095
Mof_H 	H 	0.1243	0.8105	0.5015	0.065
Mof_C 	C 	0.14516	0.76236	0.49358	0.005
Mof_H 	H 	0.1246	0.7642	0.4912	0.039
Mof_C 	C 	0.17643	0.73183	0.49165	-0.048
Mof_C 	C 	0.20565	0.73087	0.49497	0.038
Mof_H 	H 	0.2267	0.7101	0.4939	0.014
Mof_C 	C 	0.17741	0.70095	0.48825	0.132
Mof_N 	N 	0.15155	0.70665	0.47745	-0.147
Mof_C 	C 	0.15455	0.67659	0.47463	0.132
Mof_N 	N 	0.17898	0.64474	0.4815	-0.152
Mof_C 	C 	0.20281	0.64195	0.49285	0.132
Mof_N 	N 	0.20341	0.66961	0.49607	-0.149
Mof_C 	C 	0.22959	0.60627	0.50287	-0.049
Mof_C 	C 	0.2549	0.6	0.51588	0.008
Mof_H 	H 	0.2556	0.6188	0.519	0.039
Mof_C 	C 	0.27908	0.5655	0.52414	-0.098
Mof_H 	H 	0.297	0.5604	0.5326	0.067
Mof_C 	C 	0.2772	0.53822	0.52016	0.06
Mof_H 	H 	0.2941	0.5147	0.5259	0.003
Mof_N 	N 	0.25231	0.54401	0.50857	-0.225
Mof_N 	N 	0.24087	0.45579	0.50627	-0.228
Mof_C 	C 	0.23543	0.42907	0.53837	0.055
Mof_H 	H 	0.237	0.43	0.558	0.002
Mof_C 	C 	0.22764	0.40068	0.54398	-0.098
Mof_H 	H 	0.2245	0.3823	0.5669	0.066
Mof_C 	C 	0.22439	0.39897	0.51649	0.009
Mof_H 	H 	0.219	0.3794	0.5202	0.038
Mof_C 	C 	0.22893	0.57743	0.50031	0.038
Mof_H 	H 	0.211	0.5816	0.4924	0.012
Mof_C 	C 	0.22912	0.42624	0.48304	-0.053
Mof_C 	C 	0.23793	0.45353	0.47953	0.041
Mof_H 	H 	0.2421	0.4717	0.4567	0.013
Mof_C 	C 	0.22738	0.42498	0.45242	0.136
Mof_N 	N 	0.22792	0.39472	0.455	-0.152
Mof_N 	N 	0.73945	0.30547	0.46651	-0.257
Mof_N 	N 	0.53602	0.27786	0.46462	-0.263
Mof_C 	C 	0.72287	0.33645	0.46069	0.093
Mof_C 	C 	0.55461	0.29455	0.44197	0.101
Mof_S 	S 	0.69791	0.37879	0.45409	-0.062
Mof_S 	S 	0.58091	0.31857	0.41045	-0.06
Mof_N 	N 	0.71019	0.25847	0.46717	-0.223
Mof_C 	C 	0.70679	0.22837	0.47223	0.032
Mof_H 	H 	0.7231	0.2057	0.4815	0.014
Mof_C 	C 	0.68059	0.22889	0.46443	-0.046
Mof_C 	C 	0.65683	0.26161	0.45083	0.006
Mof_H 	H 	0.6378	0.2626	0.4466	0.038
Mof_C 	C 	0.66112	0.29278	0.44336	-0.097
Mof_H 	H 	0.6461	0.3157	0.4325	0.065
Mof_C 	C 	0.68788	0.2902	0.4519	0.057
Mof_H 	H 	0.6907	0.3119	0.4467	0.003
Mof_N 	N 	0.75769	0.03691	0.49967	-0.225
Mof_C 	C 	0.78679	0.03579	0.50161	0.056
Mof_H 	H 	0.8061	0.0135	0.5047	-0.001
Mof_C 	C 	0.78982	0.06574	0.49924	-0.095
Mof_H 	H 	0.8105	0.0637	0.5015	0.065
Mof_C 	C 	0.76236	0.0989	0.49358	0.005
Mof_H 	H 	0.7642	0.12	0.4912	0.039
Mof_C 	C 	0.73183	0.10009	0.49165	-0.048
Mof_C 	C 	0.73087	0.06851	0.49497	0.038
Mof_H 	H 	0.7101	0.0693	0.4939	0.014
Mof_C 	C 	0.70095	0.13339	0.48825	0.132
Mof_N 	N 	0.70665	0.16435	0.47745	-0.147
Mof_C 	C 	0.67659	0.19423	0.47463	0.132
Mof_N 	N 	0.64474	0.19478	0.4815	-0.152
Mof_C 	C 	0.64195	0.16239	0.49285	0.132
Mof_N 	N 	0.66961	0.13091	0.49607	-0.149
Mof_C 	C 	0.60627	0.16127	0.50287	-0.049
Mof_C 	C 	0.6	0.12922	0.51588	0.008
Mof_H 	H 	0.6188	0.1066	0.519	0.039
Mof_C 	C 	0.5655	0.13128	0.52414	-0.098
Mof_H 	H 	0.5604	0.11	0.5326	0.067
Mof_C 	C 	0.53822	0.16442	0.52016	0.06
Mof_H 	H 	0.5147	0.1653	0.5259	0.003
Mof_N 	N 	0.54401	0.19511	0.50857	-0.225
Mof_N 	N 	0.45579	0.29707	0.50627	-0.228
Mof_C 	C 	0.42907	0.29713	0.53837	0.055
Mof_H 	H 	0.43	0.275	0.558	0.002
Mof_C 	C 	0.40068	0.3277	0.54398	-0.098
Mof_H 	H 	0.3823	0.3263	0.5669	0.066
Mof_C 	C 	0.39897	0.36015	0.51649	0.009
Mof_H 	H 	0.3794	0.3814	0.5202	0.038
Mof_C 	C 	0.57743	0.19333	0.50031	0.038
Mof_H 	H 	0.5816	0.215	0.4924	0.012
Mof_C 	C 	0.42624	0.3616	0.48304	-0.053
Mof_C 	C 	0.45353	0.32901	0.47953	0.041
Mof_H 	H 	0.4717	0.3295	0.4567	0.013
Mof_C 	C 	0.42498	0.39522	0.45242	0.136
Mof_N 	N 	0.39472	0.42236	0.455	-0.152
Mof_N 	N 	0.98857	0.46651	0.30547	-0.257
Mof_N 	N 	0.2215	0.46462	0.27786	-0.263
Mof_C 	C 	0.97999	0.46069	0.33645	0.093
Mof_C 	C 	0.20887	0.44197	0.29455	0.101
Mof_S 	S 	0.96921	0.45409	0.37879	-0.062
Mof_S 	S 	0.19007	0.41045	0.31857	-0.06
Mof_N 	N 	0.06417	0.46717	0.25847	-0.223
Mof_C 	C 	0.09261	0.47223	0.22837	0.032
Mof_H 	H 	0.0897	0.4815	0.2057	0.014
Mof_C 	C 	0.12609	0.46443	0.22889	-0.046
Mof_C 	C 	0.13073	0.45083	0.26161	0.006
Mof_H 	H 	0.153	0.4466	0.2626	0.038
Mof_C 	C 	0.10274	0.44336	0.29278	-0.097
Mof_H 	H 	0.1057	0.4325	0.3157	0.065
Mof_C 	C 	0.07002	0.4519	0.2902	0.057
Mof_H 	H 	0.0507	0.4467	0.3119	0.003
Mof_N 	N 	0.20573	0.49967	0.03691	-0.225
Mof_C 	C 	0.17581	0.50161	0.03579	0.056
Mof_H 	H 	0.1757	0.5047	0.0135	-0.001
Mof_C 	C 	0.1452	0.49924	0.06574	-0.095
Mof_H 	H 	0.1243	0.5015	0.0637	0.065
Mof_C 	C 	0.14516	0.49358	0.0989	0.005
Mof_H 	H 	0.1246	0.4912	0.12	0.039
Mof_C 	C 	0.17643	0.49165	0.10009	-0.048
Mof_C 	C 	0.20565	0.49497	0.06851	0.038
Mof_H 	H 	0.2267	0.4939	0.0693	0.014
Mof_C 	C 	0.17741	0.48825	0.13339	0.132
Mof_N 	N 	0.15155	0.47745	0.16435	-0.147
Mof_C 	C 	0.15455	0.47463	0.19423	0.132
Mof_N 	N 	0.17898	0.4815	0.19478	-0.152
Mof_C 	C 	0.20281	0.49285	0.16239	0.132
Mof_N 	N 	0.20341	0.49607	0.13091	-0.149
Mof_C 	C 	0.22959	0.50287	0.16127	-0.049
Mof_C 	C 	0.2549	0.51588	0.12922	0.008
Mof_H 	H 	0.2556	0.519	0.1066	0.039
Mof_C 	C 	0.27908	0.52414	0.13128	-0.098
Mof_H 	H 	0.297	0.5326	0.11	0.067
Mof_C 	C 	0.2772	0.52016	0.16442	0.06
Mof_H 	H 	0.2941	0.5259	0.1653	0.003
Mof_N 	N 	0.25231	0.50857	0.19511	-0.225
Mof_N 	N 	0.24087	0.50627	0.29707	-0.228
Mof_C 	C 	0.23543	0.53837	0.29713	0.055
Mof_H 	H 	0.237	0.558	0.275	0.002
Mof_C 	C 	0.22764	0.54398	0.3277	-0.098
Mof_H 	H 	0.2245	0.5669	0.3263	0.066
Mof_C 	C 	0.22439	0.51649	0.36015	0.009
Mof_H 	H 	0.219	0.5202	0.3814	0.038
Mof_C 	C 	0.22893	0.50031	0.19333	0.038
Mof_H 	H 	0.211	0.4924	0.215	0.012
Mof_C 	C 	0.22912	0.48304	0.3616	-0.053
Mof_C 	C 	0.23793	0.47953	0.32901	0.041
Mof_H 	H 	0.2421	0.4567	0.3295	0.013
Mof_C 	C 	0.22738	0.45242	0.39522	0.136
Mof_N 	N 	0.22792	0.455	0.42236	-0.152
Mof_N 	N 	0.30547	0.73945	0.98857	-0.257
Mof_N 	N 	0.27786	0.53602	0.2215	-0.263
Mof_C 	C 	0.33645	0.72287	0.97999	0.093
Mof_C 	C 	0.29455	0.55461	0.20887	0.101
Mof_S 	S 	0.37879	0.69791	0.96921	-0.062
Mof_S 	S 	0.31857	0.58091	0.19007	-0.06
Mof_N 	N 	0.25847	0.71019	0.06417	-0.223
Mof_C 	C 	0.22837	0.70679	0.09261	0.032
Mof_H 	H 	0.2057	0.7231	0.0897	0.014
Mof_C 	C 	0.22889	0.68059	0.12609	-0.046
Mof_C 	C 	0.26161	0.65683	0.13073	0.006
Mof_H 	H 	0.2626	0.6378	0.153	0.038
Mof_C 	C 	0.29278	0.66112	0.10274	-0.097
Mof_H 	H 	0.3157	0.6461	0.1057	0.065
Mof_C 	C 	0.2902	0.68788	0.07002	0.057
Mof_H 	H 	0.3119	0.6907	0.0507	0.003
Mof_N 	N 	0.03691	0.75769	0.20573	-0.225
Mof_C 	C 	0.03579	0.78679	0.17581	0.056
Mof_H 	H 	0.0135	0.8061	0.1757	-0.001
Mof_C 	C 	0.06574	0.78982	0.1452	-0.095
Mof_H 	H 	0.0637	0.8105	0.1243	0.065
Mof_C 	C 	0.0989	0.76236	0.14516	0.005
Mof_H 	H 	0.12	0.7642	0.1246	0.039
Mof_C 	C 	0.10009	0.73183	0.17643	-0.048
Mof_C 	C 	0.06851	0.73087	0.20565	0.038
Mof_H 	H 	0.0693	0.7101	0.2267	0.014
Mof_C 	C 	0.13339	0.70095	0.17741	0.132
Mof_N 	N 	0.16435	0.70665	0.15155	-0.147
Mof_C 	C 	0.19423	0.67659	0.15455	0.132
Mof_N 	N 	0.19478	0.64474	0.17898	-0.152
Mof_C 	C 	0.16239	0.64195	0.20281	0.132
Mof_N 	N 	0.13091	0.66961	0.20341	-0.149
Mof_C 	C 	0.16127	0.60627	0.22959	-0.049
Mof_C 	C 	0.12922	0.6	0.2549	0.008
Mof_H 	H 	0.1066	0.6188	0.2556	0.039
Mof_C 	C 	0.13128	0.5655	0.27908	-0.098
Mof_H 	H 	0.11	0.5604	0.297	0.067
Mof_C 	C 	0.16442	0.53822	0.2772	0.06
Mof_H 	H 	0.1653	0.5147	0.2941	0.003
Mof_N 	N 	0.19511	0.54401	0.25231	-0.225
Mof_N 	N 	0.29707	0.45579	0.24087	-0.228
Mof_C 	C 	0.29713	0.42907	0.23543	0.055
Mof_H 	H 	0.275	0.43	0.237	0.002
Mof_C 	C 	0.3277	0.40068	0.22764	-0.098
Mof_H 	H 	0.3263	0.3823	0.2245	0.066
Mof_C 	C 	0.36015	0.39897	0.22439	0.009
Mof_H 	H 	0.3814	0.3794	0.219	0.038
Mof_C 	C 	0.19333	0.57743	0.22893	0.038
Mof_H 	H 	0.215	0.5816	0.211	0.012
Mof_C 	C 	0.3616	0.42624	0.22912	-0.053
Mof_C 	C 	0.32901	0.45353	0.23793	0.041
Mof_H 	H 	0.3295	0.4717	0.2421	0.013
Mof_C 	C 	0.39522	0.42498	0.22738	0.136
Mof_N 	N 	0.42236	0.39472	0.22792	-0.152
Mof_N 	N 	0.46651	0.98857	0.73945	-0.257
Mof_N 	N 	0.46462	0.2215	0.53602	-0.263
Mof_C 	C 	0.46069	0.97999	0.72287	0.093
Mof_C 	C 	0.44197	0.20887	0.55461	0.101
Mof_S 	S 	0.45409	0.96921	0.69791	-0.062
Mof_S 	S 	0.41045	0.19007	0.58091	-0.06
Mof_N 	N 	0.46717	0.06417	0.71019	-0.223
Mof_C 	C 	0.47223	0.09261	0.70679	0.032
Mof_H 	H 	0.4815	0.0897	0.7231	0.014
Mof_C 	C 	0.46443	0.12609	0.68059	-0.046
Mof_C 	C 	0.45083	0.13073	0.65683	0.006
Mof_H 	H 	0.4466	0.153	0.6378	0.038
Mof_C 	C 	0.44336	0.10274	0.66112	-0.097
Mof_H 	H 	0.4325	0.1057	0.6461	0.065
Mof_C 	C 	0.4519	0.07002	0.68788	0.057
Mof_H 	H 	0.4467	0.0507	0.6907	0.003
Mof_N 	N 	0.49967	0.20573	0.75769	-0.225
Mof_C 	C 	0.50161	0.17581	0.78679	0.056
Mof_H 	H 	0.5047	0.1757	0.8061	-0.001
Mof_C 	C 	0.49924	0.1452	0.78982	-0.095
Mof_H 	H 	0.5015	0.1243	0.8105	0.065
Mof_C 	C 	0.49358	0.14516	0.76236	0.005
Mof_H 	H 	0.4912	0.1246	0.7642	0.039
Mof_C 	C 	0.49165	0.17643	0.73183	-0.048
Mof_C 	C 	0.49497	0.20565	0.73087	0.038
Mof_H 	H 	0.4939	0.2267	0.7101	0.014
Mof_C 	C 	0.48825	0.17741	0.70095	0.132
Mof_N 	N 	0.47745	0.15155	0.70665	-0.147
Mof_C 	C 	0.47463	0.15455	0.67659	0.132
Mof_N 	N 	0.4815	0.17898	0.64474	-0.152
Mof_C 	C 	0.49285	0.20281	0.64195	0.132
Mof_N 	N 	0.49607	0.20341	0.66961	-0.149
Mof_C 	C 	0.50287	0.22959	0.60627	-0.049
Mof_C 	C 	0.51588	0.2549	0.6	0.008
Mof_H 	H 	0.519	0.2556	0.6188	0.039
Mof_C 	C 	0.52414	0.27908	0.5655	-0.098
Mof_H 	H 	0.5326	0.297	0.5604	0.067
Mof_C 	C 	0.52016	0.2772	0.53822	0.06
Mof_H 	H 	0.5259	0.2941	0.5147	0.003
Mof_N 	N 	0.50857	0.25231	0.54401	-0.225
Mof_N 	N 	0.50627	0.24087	0.45579	-0.228
Mof_C 	C 	0.53837	0.23543	0.42907	0.055
Mof_H 	H 	0.558	0.237	0.43	0.002
Mof_C 	C 	0.54398	0.22764	0.40068	-0.098
Mof_H 	H 	0.5669	0.2245	0.3823	0.066
Mof_C 	C 	0.51649	0.22439	0.39897	0.009
Mof_H 	H 	0.5202	0.219	0.3794	0.038
Mof_C 	C 	0.50031	0.22893	0.57743	0.038
Mof_H 	H 	0.4924	0.211	0.5816	0.012
Mof_C 	C 	0.48304	0.22912	0.42624	-0.053
Mof_C 	C 	0.47953	0.23793	0.45353	0.041
Mof_H 	H 	0.4567	0.2421	0.4717	0.013
Mof_C 	C 	0.45242	0.22738	0.42498	0.136
Mof_N 	N 	0.455	0.22792	0.39472	-0.152
Mof_N 	N 	0.46651	0.73945	0.30547	-0.257
Mof_N 	N 	0.46462	0.53602	0.27786	-0.263
Mof_C 	C 	0.46069	0.72287	0.33645	0.093
Mof_C 	C 	0.44197	0.55461	0.29455	0.101
Mof_S 	S 	0.45409	0.69791	0.37879	-0.062
Mof_S 	S 	0.41045	0.58091	0.31857	-0.06
Mof_N 	N 	0.46717	0.71019	0.25847	-0.223
Mof_C 	C 	0.47223	0.70679	0.22837	0.032
Mof_H 	H 	0.4815	0.7231	0.2057	0.014
Mof_C 	C 	0.46443	0.68059	0.22889	-0.046
Mof_C 	C 	0.45083	0.65683	0.26161	0.006
Mof_H 	H 	0.4466	0.6378	0.2626	0.038
Mof_C 	C 	0.44336	0.66112	0.29278	-0.097
Mof_H 	H 	0.4325	0.6461	0.3157	0.065
Mof_C 	C 	0.4519	0.68788	0.2902	0.057
Mof_H 	H 	0.4467	0.6907	0.3119	0.003
Mof_N 	N 	0.49967	0.75769	0.03691	-0.225
Mof_C 	C 	0.50161	0.78679	0.03579	0.056
Mof_H 	H 	0.5047	0.8061	0.0135	-0.001
Mof_C 	C 	0.49924	0.78982	0.06574	-0.095
Mof_H 	H 	0.5015	0.8105	0.0637	0.065
Mof_C 	C 	0.49358	0.76236	0.0989	0.005
Mof_H 	H 	0.4912	0.7642	0.12	0.039
Mof_C 	C 	0.49165	0.73183	0.10009	-0.048
Mof_C 	C 	0.49497	0.73087	0.06851	0.038
Mof_H 	H 	0.4939	0.7101	0.0693	0.014
Mof_C 	C 	0.48825	0.70095	0.13339	0.132
Mof_N 	N 	0.47745	0.70665	0.16435	-0.147
Mof_C 	C 	0.47463	0.67659	0.19423	0.132
Mof_N 	N 	0.4815	0.64474	0.19478	-0.152
Mof_C 	C 	0.49285	0.64195	0.16239	0.132
Mof_N 	N 	0.49607	0.66961	0.13091	-0.149
Mof_C 	C 	0.50287	0.60627	0.16127	-0.049
Mof_C 	C 	0.51588	0.6	0.12922	0.008
Mof_H 	H 	0.519	0.6188	0.1066	0.039
Mof_C 	C 	0.52414	0.5655	0.13128	-0.098
Mof_H 	H 	0.5326	0.5604	0.11	0.067
Mof_C 	C 	0.52016	0.53822	0.16442	0.06
Mof_H 	H 	0.5259	0.5147	0.1653	0.003
Mof_N 	N 	0.50857	0.54401	0.19511	-0.225
Mof_N 	N 	0.50627	0.45579	0.29707	-0.228
Mof_C 	C 	0.53837	0.42907	0.29713	0.055
Mof_H 	H 	0.558	0.43	0.275	0.002
Mof_C 	C 	0.54398	0.40068	0.3277	-0.098
Mof_H 	H 	0.5669	0.3823	0.3263	0.066
Mof_C 	C 	0.51649	0.39897	0.36015	0.009
Mof_H 	H 	0.5202	0.3794	0.3814	0.038
Mof_C 	C 	0.50031	0.57743	0.19333	0.038
Mof_H 	H 	0.4924	0.5816	0.215	0.012
Mof_C 	C 	0.48304	0.42624	0.3616	-0.053
Mof_C 	C 	0.47953	0.45353	0.32901	0.041
Mof_H 	H 	0.4567	0.4717	0.3295	0.013
Mof_C 	C 	0.45242	0.42498	0.39522	0.136
Mof_N 	N 	0.455	0.39472	0.42236	-0.152
Mof_N 	N 	0.30547	0.98857	0.46651	-0.257
Mof_N 	N 	0.27786	0.2215	0.46462	-0.263
Mof_C 	C 	0.33645	0.97999	0.46069	0.093
Mof_C 	C 	0.29455	0.20887	0.44197	0.101
Mof_S 	S 	0.37879	0.96921	0.45409	-0.062
Mof_S 	S 	0.31857	0.19007	0.41045	-0.06
Mof_N 	N 	0.25847	0.06417	0.46717	-0.223
Mof_C 	C 	0.22837	0.09261	0.47223	0.032
Mof_H 	H 	0.2057	0.0897	0.4815	0.014
Mof_C 	C 	0.22889	0.12609	0.46443	-0.046
Mof_C 	C 	0.26161	0.13073	0.45083	0.006
Mof_H 	H 	0.2626	0.153	0.4466	0.038
Mof_C 	C 	0.29278	0.10274	0.44336	-0.097
Mof_H 	H 	0.3157	0.1057	0.4325	0.065
Mof_C 	C 	0.2902	0.07002	0.4519	0.057
Mof_H 	H 	0.3119	0.0507	0.4467	0.003
Mof_N 	N 	0.03691	0.20573	0.49967	-0.225
Mof_C 	C 	0.03579	0.17581	0.50161	0.056
Mof_H 	H 	0.0135	0.1757	0.5047	-0.001
Mof_C 	C 	0.06574	0.1452	0.49924	-0.095
Mof_H 	H 	0.0637	0.1243	0.5015	0.065
Mof_C 	C 	0.0989	0.14516	0.49358	0.005
Mof_H 	H 	0.12	0.1246	0.4912	0.039
Mof_C 	C 	0.10009	0.17643	0.49165	-0.048
Mof_C 	C 	0.06851	0.20565	0.49497	0.038
Mof_H 	H 	0.0693	0.2267	0.4939	0.014
Mof_C 	C 	0.13339	0.17741	0.48825	0.132
Mof_N 	N 	0.16435	0.15155	0.47745	-0.147
Mof_C 	C 	0.19423	0.15455	0.47463	0.132
Mof_N 	N 	0.19478	0.17898	0.4815	-0.152
Mof_C 	C 	0.16239	0.20281	0.49285	0.132
Mof_N 	N 	0.13091	0.20341	0.49607	-0.149
Mof_C 	C 	0.16127	0.22959	0.50287	-0.049
Mof_C 	C 	0.12922	0.2549	0.51588	0.008
Mof_H 	H 	0.1066	0.2556	0.519	0.039
Mof_C 	C 	0.13128	0.27908	0.52414	-0.098
Mof_H 	H 	0.11	0.297	0.5326	0.067
Mof_C 	C 	0.16442	0.2772	0.52016	0.06
Mof_H 	H 	0.1653	0.2941	0.5259	0.003
Mof_N 	N 	0.19511	0.25231	0.50857	-0.225
Mof_N 	N 	0.29707	0.24087	0.50627	-0.228
Mof_C 	C 	0.29713	0.23543	0.53837	0.055
Mof_H 	H 	0.275	0.237	0.558	0.002
Mof_C 	C 	0.3277	0.22764	0.54398	-0.098
Mof_H 	H 	0.3263	0.2245	0.5669	0.066
Mof_C 	C 	0.36015	0.22439	0.51649	0.009
Mof_H 	H 	0.3814	0.219	0.5202	0.038
Mof_C 	C 	0.19333	0.22893	0.50031	0.038
Mof_H 	H 	0.215	0.211	0.4924	0.012
Mof_C 	C 	0.3616	0.22912	0.48304	-0.053
Mof_C 	C 	0.32901	0.23793	0.47953	0.041
Mof_H 	H 	0.3295	0.2421	0.4567	0.013
Mof_C 	C 	0.39522	0.22738	0.45242	0.136
Mof_N 	N 	0.42236	0.22792	0.455	-0.152
Mof_N 	N 	0.98857	0.30547	0.73945	-0.257
Mof_N 	N 	0.2215	0.27786	0.53602	-0.263
Mof_C 	C 	0.97999	0.33645	0.72287	0.093
Mof_C 	C 	0.20887	0.29455	0.55461	0.101
Mof_S 	S 	0.96921	0.37879	0.69791	-0.062
Mof_S 	S 	0.19007	0.31857	0.58091	-0.06
Mof_N 	N 	0.06417	0.25847	0.71019	-0.223
Mof_C 	C 	0.09261	0.22837	0.70679	0.032
Mof_H 	H 	0.0897	0.2057	0.7231	0.014
Mof_C 	C 	0.12609	0.22889	0.68059	-0.046
Mof_C 	C 	0.13073	0.26161	0.65683	0.006
Mof_H 	H 	0.153	0.2626	0.6378	0.038
Mof_C 	C 	0.10274	0.29278	0.66112	-0.097
Mof_H 	H 	0.1057	0.3157	0.6461	0.065
Mof_C 	C 	0.07002	0.2902	0.68788	0.057
Mof_H 	H 	0.0507	0.3119	0.6907	0.003
Mof_N 	N 	0.20573	0.03691	0.75769	-0.225
Mof_C 	C 	0.17581	0.03579	0.78679	0.056
Mof_H 	H 	0.1757	0.0135	0.8061	-0.001
Mof_C 	C 	0.1452	0.06574	0.78982	-0.095
Mof_H 	H 	0.1243	0.0637	0.8105	0.065
Mof_C 	C 	0.14516	0.0989	0.76236	0.005
Mof_H 	H 	0.1246	0.12	0.7642	0.039
Mof_C 	C 	0.17643	0.10009	0.73183	-0.048
Mof_C 	C 	0.20565	0.06851	0.73087	0.038
Mof_H 	H 	0.2267	0.0693	0.7101	0.014
Mof_C 	C 	0.17741	0.13339	0.70095	0.132
Mof_N 	N 	0.15155	0.16435	0.70665	-0.147
Mof_C 	C 	0.15455	0.19423	0.67659	0.132
Mof_N 	N 	0.17898	0.19478	0.64474	-0.152
Mof_C 	C 	0.20281	0.16239	0.64195	0.132
Mof_N 	N 	0.20341	0.13091	0.66961	-0.149
Mof_C 	C 	0.22959	0.16127	0.60627	-0.049
Mof_C 	C 	0.2549	0.12922	0.6	0.008
Mof_H 	H 	0.2556	0.1066	0.6188	0.039
Mof_C 	C 	0.27908	0.13128	0.5655	-0.098
Mof_H 	H 	0.297	0.11	0.5604	0.067
Mof_C 	C 	0.2772	0.16442	0.53822	0.06
Mof_H 	H 	0.2941	0.1653	0.5147	0.003
Mof_N 	N 	0.25231	0.19511	0.54401	-0.225
Mof_N 	N 	0.24087	0.29707	0.45579	-0.228
Mof_C 	C 	0.23543	0.29713	0.42907	0.055
Mof_H 	H 	0.237	0.275	0.43	0.002
Mof_C 	C 	0.22764	0.3277	0.40068	-0.098
Mof_H 	H 	0.2245	0.3263	0.3823	0.066
Mof_C 	C 	0.22439	0.36015	0.39897	0.009
Mof_H 	H 	0.219	0.3814	0.3794	0.038
Mof_C 	C 	0.22893	0.19333	0.57743	0.038
Mof_H 	H 	0.211	0.215	0.5816	0.012
Mof_C 	C 	0.22912	0.3616	0.42624	-0.053
Mof_C 	C 	0.23793	0.32901	0.45353	0.041
Mof_H 	H 	0.2421	0.3295	0.4717	0.013
Mof_C 	C 	0.22738	0.39522	0.42498	0.136
Mof_N 	N 	0.22792	0.42236	0.39472	-0.152
Mof_N 	N 	0.73945	0.46651	0.98857	-0.257
Mof_N 	N 	0.53602	0.46462	0.2215	-0.263
Mof_C 	C 	0.72287	0.46069	0.97999	0.093
Mof_C 	C 	0.55461	0.44197	0.20887	0.101
Mof_S 	S 	0.69791	0.45409	0.96921	-0.062
Mof_S 	S 	0.58091	0.41045	0.19007	-0.06
Mof_N 	N 	0.71019	0.46717	0.06417	-0.223
Mof_C 	C 	0.70679	0.47223	0.09261	0.032
Mof_H 	H 	0.7231	0.4815	0.0897	0.014
Mof_C 	C 	0.68059	0.46443	0.12609	-0.046
Mof_C 	C 	0.65683	0.45083	0.13073	0.006
Mof_H 	H 	0.6378	0.4466	0.153	0.038
Mof_C 	C 	0.66112	0.44336	0.10274	-0.097
Mof_H 	H 	0.6461	0.4325	0.1057	0.065
Mof_C 	C 	0.68788	0.4519	0.07002	0.057
Mof_H 	H 	0.6907	0.4467	0.0507	0.003
Mof_N 	N 	0.75769	0.49967	0.20573	-0.225
Mof_C 	C 	0.78679	0.50161	0.17581	0.056
Mof_H 	H 	0.8061	0.5047	0.1757	-0.001
Mof_C 	C 	0.78982	0.49924	0.1452	-0.095
Mof_H 	H 	0.8105	0.5015	0.1243	0.065
Mof_C 	C 	0.76236	0.49358	0.14516	0.005
Mof_H 	H 	0.7642	0.4912	0.1246	0.039
Mof_C 	C 	0.73183	0.49165	0.17643	-0.048
Mof_C 	C 	0.73087	0.49497	0.20565	0.038
Mof_H 	H 	0.7101	0.4939	0.2267	0.014
Mof_C 	C 	0.70095	0.48825	0.17741	0.132
Mof_N 	N 	0.70665	0.47745	0.15155	-0.147
Mof_C 	C 	0.67659	0.47463	0.15455	0.132
Mof_N 	N 	0.64474	0.4815	0.17898	-0.152
Mof_C 	C 	0.64195	0.49285	0.20281	0.132
Mof_N 	N 	0.66961	0.49607	0.20341	-0.149
Mof_C 	C 	0.60627	0.50287	0.22959	-0.049
Mof_C 	C 	0.6	0.51588	0.2549	0.008
Mof_H 	H 	0.6188	0.519	0.2556	0.039
Mof_C 	C 	0.5655	0.52414	0.27908	-0.098
Mof_H 	H 	0.5604	0.5326	0.297	0.067
Mof_C 	C 	0.53822	0.52016	0.2772	0.06
Mof_H 	H 	0.5147	0.5259	0.2941	0.003
Mof_N 	N 	0.54401	0.50857	0.25231	-0.225
Mof_N 	N 	0.45579	0.50627	0.24087	-0.228
Mof_C 	C 	0.42907	0.53837	0.23543	0.055
Mof_H 	H 	0.43	0.558	0.237	0.002
Mof_C 	C 	0.40068	0.54398	0.22764	-0.098
Mof_H 	H 	0.3823	0.5669	0.2245	0.066
Mof_C 	C 	0.39897	0.51649	0.22439	0.009
Mof_H 	H 	0.3794	0.5202	0.219	0.038
Mof_C 	C 	0.57743	0.50031	0.22893	0.038
Mof_H 	H 	0.5816	0.4924	0.211	0.012
Mof_C 	C 	0.42624	0.48304	0.22912	-0.053
Mof_C 	C 	0.45353	0.47953	0.23793	0.041
Mof_H 	H 	0.4717	0.4567	0.2421	0.013
Mof_C 	C 	0.42498	0.45242	0.22738	0.136
Mof_N 	N 	0.39472	0.455	0.22792	-0.152
Mof_N 	N 	0.19453	0.03349	0.51143	-0.257
Mof_N 	N 	0.22214	0.03538	0.2785	-0.263
Mof_C 	C 	0.16355	0.03931	0.52001	0.093
Mof_C 	C 	0.20545	0.05803	0.29113	0.101
Mof_S 	S 	0.12121	0.04591	0.53079	-0.062
Mof_S 	S 	0.18143	0.08955	0.30993	-0.06
Mof_N 	N 	0.24153	0.03283	0.43583	-0.223
Mof_C 	C 	0.27163	0.02777	0.40739	0.032
Mof_H 	H 	0.2943	0.0185	0.4103	0.014
Mof_C 	C 	0.27111	0.03557	0.37391	-0.046
Mof_C 	C 	0.23839	0.04917	0.36927	0.006
Mof_H 	H 	0.2374	0.0534	0.347	0.038
Mof_C 	C 	0.20722	0.05664	0.39726	-0.097
Mof_H 	H 	0.1843	0.0675	0.3943	0.065
Mof_C 	C 	0.2098	0.0481	0.42998	0.057
Mof_H 	H 	0.1881	0.0533	0.4493	0.003
Mof_N 	N 	0.46309	0.00033	0.29427	-0.225
Mof_C 	C 	0.46421	0.99839	0.32419	0.056
Mof_H 	H 	0.4865	0.9953	0.3243	-0.001
Mof_C 	C 	0.43426	0.00076	0.3548	-0.095
Mof_H 	H 	0.4363	0.9985	0.3757	0.065
Mof_C 	C 	0.4011	0.00642	0.35484	0.005
Mof_H 	H 	0.38	0.0088	0.3754	0.039
Mof_C 	C 	0.39991	0.00835	0.32357	-0.048
Mof_C 	C 	0.43149	0.00503	0.29435	0.038
Mof_H 	H 	0.4307	0.0061	0.2733	0.014
Mof_C 	C 	0.36661	0.01175	0.32259	0.132
Mof_N 	N 	0.33565	0.02255	0.34845	-0.147
Mof_C 	C 	0.30577	0.02537	0.34545	0.133
Mof_N 	N 	0.30522	0.0185	0.32102	-0.152
Mof_C 	C 	0.33761	0.00715	0.29719	0.132
Mof_N 	N 	0.36909	0.00393	0.29659	-0.149
Mof_C 	C 	0.33873	0.99713	0.27041	-0.049
Mof_C 	C 	0.37078	0.98412	0.2451	0.008
Mof_H 	H 	0.3934	0.981	0.2444	0.039
Mof_C 	C 	0.36872	0.97586	0.22092	-0.097
Mof_H 	H 	0.39	0.9674	0.203	0.067
Mof_C 	C 	0.33558	0.97984	0.2228	0.06
Mof_H 	H 	0.3347	0.9741	0.2059	0.003
Mof_N 	N 	0.30489	0.99143	0.24769	-0.225
Mof_N 	N 	0.20293	0.99373	0.25913	-0.228
Mof_C 	C 	0.20287	0.96163	0.26457	0.055
Mof_H 	H 	0.225	0.942	0.263	0.002
Mof_C 	C 	0.1723	0.95602	0.27236	-0.098
Mof_H 	H 	0.1737	0.9331	0.2755	0.066
Mof_C 	C 	0.13985	0.98351	0.27561	0.009
Mof_H 	H 	0.1186	0.9798	0.281	0.038
Mof_C 	C 	0.30667	0.99969	0.27107	0.038
Mof_H 	H 	0.285	0.0076	0.289	0.012
Mof_C 	C 	0.1384	0.01696	0.27088	-0.053
Mof_C 	C 	0.17099	0.02047	0.26207	0.041
Mof_H 	H 	0.1705	0.0433	0.2579	0.013
Mof_C 	C 	0.10478	0.04758	0.27262	0.136
Mof_N 	N 	0.07764	0.045	0.27208	-0.152
Mof_N 	N 	0.03349	0.19453	0.76055	-0.257
Mof_N 	N 	0.03538	0.22214	0.96398	-0.263
Mof_C 	C 	0.03931	0.16355	0.77713	0.093
Mof_C 	C 	0.05803	0.20545	0.94539	0.101
Mof_S 	S 	0.04591	0.12121	0.80209	-0.062
Mof_S 	S 	0.08955	0.18143	0.91909	-0.06
Mof_N 	N 	0.03283	0.24153	0.78981	-0.223
Mof_C 	C 	0.02777	0.27163	0.79321	0.032
Mof_H 	H 	0.0185	0.2943	0.7769	0.014
Mof_C 	C 	0.03557	0.27111	0.81941	-0.046
Mof_C 	C 	0.04917	0.23839	0.84317	0.006
Mof_H 	H 	0.0534	0.2374	0.8622	0.038
Mof_C 	C 	0.05664	0.20722	0.83888	-0.097
Mof_H 	H 	0.0675	0.1843	0.8539	0.065
Mof_C 	C 	0.0481	0.2098	0.81212	0.057
Mof_H 	H 	0.0533	0.1881	0.8093	0.003
Mof_N 	N 	0.00033	0.46309	0.74231	-0.225
Mof_C 	C 	0.99839	0.46421	0.71321	0.056
Mof_H 	H 	0.9953	0.4865	0.6939	-0.001
Mof_C 	C 	0.00076	0.43426	0.71018	-0.095
Mof_H 	H 	0.9985	0.4363	0.6895	0.065
Mof_C 	C 	0.00642	0.4011	0.73764	0.005
Mof_H 	H 	0.0088	0.38	0.7358	0.039
Mof_C 	C 	0.00835	0.39991	0.76817	-0.048
Mof_C 	C 	0.00503	0.43149	0.76913	0.038
Mof_H 	H 	0.0061	0.4307	0.7899	0.014
Mof_C 	C 	0.01175	0.36661	0.79905	0.132
Mof_N 	N 	0.02255	0.33565	0.79335	-0.147
Mof_C 	C 	0.02537	0.30577	0.82341	0.133
Mof_N 	N 	0.0185	0.30522	0.85526	-0.152
Mof_C 	C 	0.00715	0.33761	0.85805	0.132
Mof_N 	N 	0.00393	0.36909	0.83039	-0.149
Mof_C 	C 	0.99713	0.33873	0.89373	-0.049
Mof_C 	C 	0.98412	0.37078	0.9	0.008
Mof_H 	H 	0.981	0.3934	0.8812	0.039
Mof_C 	C 	0.97586	0.36872	0.9345	-0.097
Mof_H 	H 	0.9674	0.39	0.9396	0.067
Mof_C 	C 	0.97984	0.33558	0.96178	0.06
Mof_H 	H 	0.9741	0.3347	0.9853	0.003
Mof_N 	N 	0.99143	0.30489	0.95599	-0.225
Mof_N 	N 	0.99373	0.20293	0.04421	-0.228
Mof_C 	C 	0.96163	0.20287	0.07093	0.055
Mof_H 	H 	0.942	0.225	0.07	0.002
Mof_C 	C 	0.95602	0.1723	0.09932	-0.098
Mof_H 	H 	0.9331	0.1737	0.1177	0.066
Mof_C 	C 	0.98351	0.13985	0.10103	0.009
Mof_H 	H 	0.9798	0.1186	0.1206	0.038
Mof_C 	C 	0.99969	0.30667	0.92257	0.038
Mof_H 	H 	0.0076	0.285	0.9184	0.012
Mof_C 	C 	0.01696	0.1384	0.07376	-0.053
Mof_C 	C 	0.02047	0.17099	0.04647	0.041
Mof_H 	H 	0.0433	0.1705	0.0283	0.013
Mof_C 	C 	0.04758	0.10478	0.07502	0.136
Mof_N 	N 	0.045	0.07764	0.10528	-0.152
Mof_N 	N 	0.76055	0.51143	0.03349	-0.257
Mof_N 	N 	0.96398	0.2785	0.03538	-0.263
Mof_C 	C 	0.77713	0.52001	0.03931	0.093
Mof_C 	C 	0.94539	0.29113	0.05803	0.101
Mof_S 	S 	0.80209	0.53079	0.04591	-0.062
Mof_S 	S 	0.91909	0.30993	0.08955	-0.06
Mof_N 	N 	0.78981	0.43583	0.03283	-0.223
Mof_C 	C 	0.79321	0.40739	0.02777	0.032
Mof_H 	H 	0.7769	0.4103	0.0185	0.014
Mof_C 	C 	0.81941	0.37391	0.03557	-0.046
Mof_C 	C 	0.84317	0.36927	0.04917	0.006
Mof_H 	H 	0.8622	0.347	0.0534	0.038
Mof_C 	C 	0.83888	0.39726	0.05664	-0.097
Mof_H 	H 	0.8539	0.3943	0.0675	0.065
Mof_C 	C 	0.81212	0.42998	0.0481	0.057
Mof_H 	H 	0.8093	0.4493	0.0533	0.003
Mof_N 	N 	0.74231	0.29427	0.00033	-0.225
Mof_C 	C 	0.71321	0.32419	0.99839	0.056
Mof_H 	H 	0.6939	0.3243	0.9953	-0.001
Mof_C 	C 	0.71018	0.3548	0.00076	-0.095
Mof_H 	H 	0.6895	0.3757	0.9985	0.065
Mof_C 	C 	0.73764	0.35484	0.00642	0.005
Mof_H 	H 	0.7358	0.3754	0.0088	0.039
Mof_C 	C 	0.76817	0.32357	0.00835	-0.048
Mof_C 	C 	0.76913	0.29435	0.00503	0.038
Mof_H 	H 	0.7899	0.2733	0.0061	0.014
Mof_C 	C 	0.79905	0.32259	0.01175	0.132
Mof_N 	N 	0.79335	0.34845	0.02255	-0.147
Mof_C 	C 	0.82341	0.34545	0.02537	0.133
Mof_N 	N 	0.85526	0.32102	0.0185	-0.152
Mof_C 	C 	0.85805	0.29719	0.00715	0.132
Mof_N 	N 	0.83039	0.29659	0.00393	-0.149
Mof_C 	C 	0.89373	0.27041	0.99713	-0.049
Mof_C 	C 	0.9	0.2451	0.98412	0.008
Mof_H 	H 	0.8812	0.2444	0.981	0.039
Mof_C 	C 	0.9345	0.22092	0.97586	-0.097
Mof_H 	H 	0.9396	0.203	0.9674	0.067
Mof_C 	C 	0.96178	0.2228	0.97984	0.06
Mof_H 	H 	0.9853	0.2059	0.9741	0.003
Mof_N 	N 	0.95599	0.24769	0.99143	-0.225
Mof_N 	N 	0.04421	0.25913	0.99373	-0.228
Mof_C 	C 	0.07093	0.26457	0.96163	0.055
Mof_H 	H 	0.07	0.263	0.942	0.002
Mof_C 	C 	0.09932	0.27236	0.95602	-0.098
Mof_H 	H 	0.1177	0.2755	0.9331	0.066
Mof_C 	C 	0.10103	0.27561	0.98351	0.009
Mof_H 	H 	0.1206	0.281	0.9798	0.038
Mof_C 	C 	0.92257	0.27107	0.99969	0.038
Mof_H 	H 	0.9184	0.289	0.0076	0.012
Mof_C 	C 	0.07376	0.27088	0.01696	-0.053
Mof_C 	C 	0.04647	0.26207	0.02047	0.041
Mof_H 	H 	0.0283	0.2579	0.0433	0.013
Mof_C 	C 	0.07502	0.27262	0.04758	0.136
Mof_N 	N 	0.10528	0.27208	0.045	-0.152
Mof_N 	N 	0.51143	0.76055	0.19453	-0.257
Mof_N 	N 	0.2785	0.96398	0.22214	-0.263
Mof_C 	C 	0.52001	0.77713	0.16355	0.093
Mof_C 	C 	0.29113	0.94539	0.20545	0.101
Mof_S 	S 	0.53079	0.80209	0.12121	-0.062
Mof_S 	S 	0.30993	0.91909	0.18143	-0.06
Mof_N 	N 	0.43583	0.78981	0.24153	-0.223
Mof_C 	C 	0.40739	0.79321	0.27163	0.032
Mof_H 	H 	0.4103	0.7769	0.2943	0.014
Mof_C 	C 	0.37391	0.81941	0.27111	-0.046
Mof_C 	C 	0.36927	0.84317	0.23839	0.006
Mof_H 	H 	0.347	0.8622	0.2374	0.038
Mof_C 	C 	0.39726	0.83888	0.20722	-0.097
Mof_H 	H 	0.3943	0.8539	0.1843	0.065
Mof_C 	C 	0.42998	0.81212	0.2098	0.057
Mof_H 	H 	0.4493	0.8093	0.1881	0.003
Mof_N 	N 	0.29427	0.74231	0.46309	-0.225
Mof_C 	C 	0.32419	0.71321	0.46421	0.056
Mof_H 	H 	0.3243	0.6939	0.4865	-0.001
Mof_C 	C 	0.3548	0.71018	0.43426	-0.095
Mof_H 	H 	0.3757	0.6895	0.4363	0.065
Mof_C 	C 	0.35484	0.73764	0.4011	0.005
Mof_H 	H 	0.3754	0.7358	0.38	0.039
Mof_C 	C 	0.32357	0.76817	0.39991	-0.048
Mof_C 	C 	0.29435	0.76913	0.43149	0.038
Mof_H 	H 	0.2733	0.7899	0.4307	0.014
Mof_C 	C 	0.32259	0.79905	0.36661	0.132
Mof_N 	N 	0.34845	0.79335	0.33565	-0.147
Mof_C 	C 	0.34545	0.82341	0.30577	0.132
Mof_N 	N 	0.32102	0.85526	0.30522	-0.152
Mof_C 	C 	0.29719	0.85805	0.33761	0.132
Mof_N 	N 	0.29659	0.83039	0.36909	-0.149
Mof_C 	C 	0.27041	0.89373	0.33873	-0.049
Mof_C 	C 	0.2451	0.9	0.37078	0.008
Mof_H 	H 	0.2444	0.8812	0.3934	0.039
Mof_C 	C 	0.22092	0.9345	0.36872	-0.097
Mof_H 	H 	0.203	0.9396	0.39	0.067
Mof_C 	C 	0.2228	0.96178	0.33558	0.06
Mof_H 	H 	0.2059	0.9853	0.3347	0.003
Mof_N 	N 	0.24769	0.95599	0.30489	-0.225
Mof_N 	N 	0.25913	0.04421	0.20293	-0.228
Mof_C 	C 	0.26457	0.07093	0.20287	0.055
Mof_H 	H 	0.263	0.07	0.225	0.002
Mof_C 	C 	0.27236	0.09932	0.1723	-0.098
Mof_H 	H 	0.2755	0.1177	0.1737	0.066
Mof_C 	C 	0.27561	0.10103	0.13985	0.009
Mof_H 	H 	0.281	0.1206	0.1186	0.038
Mof_C 	C 	0.27107	0.92257	0.30667	0.038
Mof_H 	H 	0.289	0.9184	0.285	0.012
Mof_C 	C 	0.27088	0.07376	0.1384	-0.053
Mof_C 	C 	0.26207	0.04647	0.17099	0.041
Mof_H 	H 	0.2579	0.0283	0.1705	0.013
Mof_C 	C 	0.27262	0.07502	0.10478	0.136
Mof_N 	N 	0.27208	0.10528	0.07764	-0.152
Mof_N 	N 	0.76055	0.19453	0.51143	-0.257
Mof_N 	N 	0.96398	0.22214	0.2785	-0.263
Mof_C 	C 	0.77713	0.16355	0.52001	0.093
Mof_C 	C 	0.94539	0.20545	0.29113	0.101
Mof_S 	S 	0.80209	0.12121	0.53079	-0.062
Mof_S 	S 	0.91909	0.18143	0.30993	-0.06
Mof_N 	N 	0.78981	0.24153	0.43583	-0.223
Mof_C 	C 	0.79321	0.27163	0.40739	0.032
Mof_H 	H 	0.7769	0.2943	0.4103	0.014
Mof_C 	C 	0.81941	0.27111	0.37391	-0.046
Mof_C 	C 	0.84317	0.23839	0.36927	0.006
Mof_H 	H 	0.8622	0.2374	0.347	0.038
Mof_C 	C 	0.83888	0.20722	0.39726	-0.097
Mof_H 	H 	0.8539	0.1843	0.3943	0.065
Mof_C 	C 	0.81212	0.2098	0.42998	0.057
Mof_H 	H 	0.8093	0.1881	0.4493	0.003
Mof_N 	N 	0.74231	0.46309	0.29427	-0.225
Mof_C 	C 	0.71321	0.46421	0.32419	0.056
Mof_H 	H 	0.6939	0.4865	0.3243	-0.001
Mof_C 	C 	0.71018	0.43426	0.3548	-0.095
Mof_H 	H 	0.6895	0.4363	0.3757	0.065
Mof_C 	C 	0.73764	0.4011	0.35484	0.005
Mof_H 	H 	0.7358	0.38	0.3754	0.039
Mof_C 	C 	0.76817	0.39991	0.32357	-0.048
Mof_C 	C 	0.76913	0.43149	0.29435	0.038
Mof_H 	H 	0.7899	0.4307	0.2733	0.014
Mof_C 	C 	0.79905	0.36661	0.32259	0.132
Mof_N 	N 	0.79335	0.33565	0.34845	-0.147
Mof_C 	C 	0.82341	0.30577	0.34545	0.132
Mof_N 	N 	0.85526	0.30522	0.32102	-0.152
Mof_C 	C 	0.85805	0.33761	0.29719	0.132
Mof_N 	N 	0.83039	0.36909	0.29659	-0.149
Mof_C 	C 	0.89373	0.33873	0.27041	-0.049
Mof_C 	C 	0.9	0.37078	0.2451	0.008
Mof_H 	H 	0.8812	0.3934	0.2444	0.039
Mof_C 	C 	0.9345	0.36872	0.22092	-0.097
Mof_H 	H 	0.9396	0.39	0.203	0.067
Mof_C 	C 	0.96178	0.33558	0.2228	0.06
Mof_H 	H 	0.9853	0.3347	0.2059	0.003
Mof_N 	N 	0.95599	0.30489	0.24769	-0.225
Mof_N 	N 	0.04421	0.20293	0.25913	-0.228
Mof_C 	C 	0.07093	0.20287	0.26457	0.055
Mof_H 	H 	0.07	0.225	0.263	0.002
Mof_C 	C 	0.09932	0.1723	0.27236	-0.098
Mof_H 	H 	0.1177	0.1737	0.2755	0.066
Mof_C 	C 	0.10103	0.13985	0.27561	0.009
Mof_H 	H 	0.1206	0.1186	0.281	0.038
Mof_C 	C 	0.92257	0.30667	0.27107	0.038
Mof_H 	H 	0.9184	0.285	0.289	0.012
Mof_C 	C 	0.07376	0.1384	0.27088	-0.053
Mof_C 	C 	0.04647	0.17099	0.26207	0.041
Mof_H 	H 	0.0283	0.1705	0.2579	0.013
Mof_C 	C 	0.07502	0.10478	0.27262	0.136
Mof_N 	N 	0.10528	0.07764	0.27208	-0.152
Mof_N 	N 	0.51143	0.03349	0.76055	-0.257
Mof_N 	N 	0.2785	0.03538	0.96398	-0.263
Mof_C 	C 	0.52001	0.03931	0.77713	0.093
Mof_C 	C 	0.29113	0.05803	0.94539	0.101
Mof_S 	S 	0.53079	0.04591	0.80209	-0.062
Mof_S 	S 	0.30993	0.08955	0.91909	-0.06
Mof_N 	N 	0.43583	0.03283	0.78981	-0.223
Mof_C 	C 	0.40739	0.02777	0.79321	0.032
Mof_H 	H 	0.4103	0.0185	0.7769	0.014
Mof_C 	C 	0.37391	0.03557	0.81941	-0.046
Mof_C 	C 	0.36927	0.04917	0.84317	0.006
Mof_H 	H 	0.347	0.0534	0.8622	0.038
Mof_C 	C 	0.39726	0.05664	0.83888	-0.097
Mof_H 	H 	0.3943	0.0675	0.8539	0.065
Mof_C 	C 	0.42998	0.0481	0.81212	0.057
Mof_H 	H 	0.4493	0.0533	0.8093	0.003
Mof_N 	N 	0.29427	0.00033	0.74231	-0.225
Mof_C 	C 	0.32419	0.99839	0.71321	0.056
Mof_H 	H 	0.3243	0.9953	0.6939	-0.001
Mof_C 	C 	0.3548	0.00076	0.71018	-0.095
Mof_H 	H 	0.3757	0.9985	0.6895	0.065
Mof_C 	C 	0.35484	0.00642	0.73764	0.005
Mof_H 	H 	0.3754	0.0088	0.7358	0.039
Mof_C 	C 	0.32357	0.00835	0.76817	-0.048
Mof_C 	C 	0.29435	0.00503	0.76913	0.038
Mof_H 	H 	0.2733	0.0061	0.7899	0.014
Mof_C 	C 	0.32259	0.01175	0.79905	0.132
Mof_N 	N 	0.34845	0.02255	0.79335	-0.147
Mof_C 	C 	0.34545	0.02537	0.82341	0.133
Mof_N 	N 	0.32102	0.0185	0.85526	-0.152
Mof_C 	C 	0.29719	0.00715	0.85805	0.132
Mof_N 	N 	0.29659	0.00393	0.83039	-0.149
Mof_C 	C 	0.27041	0.99713	0.89373	-0.049
Mof_C 	C 	0.2451	0.98412	0.9	0.008
Mof_H 	H 	0.2444	0.981	0.8812	0.039
Mof_C 	C 	0.22092	0.97586	0.9345	-0.097
Mof_H 	H 	0.203	0.9674	0.9396	0.067
Mof_C 	C 	0.2228	0.97984	0.96178	0.06
Mof_H 	H 	0.2059	0.9741	0.9853	0.003
Mof_N 	N 	0.24769	0.99143	0.95599	-0.225
Mof_N 	N 	0.25913	0.99373	0.04421	-0.228
Mof_C 	C 	0.26457	0.96163	0.07093	0.055
Mof_H 	H 	0.263	0.942	0.07	0.002
Mof_C 	C 	0.27236	0.95602	0.09932	-0.098
Mof_H 	H 	0.2755	0.9331	0.1177	0.066
Mof_C 	C 	0.27561	0.98351	0.10103	0.009
Mof_H 	H 	0.281	0.9798	0.1206	0.038
Mof_C 	C 	0.27107	0.99969	0.92257	0.038
Mof_H 	H 	0.289	0.0076	0.9184	0.012
Mof_C 	C 	0.27088	0.01696	0.07376	-0.053
Mof_C 	C 	0.26207	0.02047	0.04647	0.041
Mof_H 	H 	0.2579	0.0433	0.0283	0.013
Mof_C 	C 	0.27262	0.04758	0.07502	0.136
Mof_N 	N 	0.27208	0.045	0.10528	-0.152
Mof_N 	N 	0.19453	0.76055	0.03349	-0.257
Mof_N 	N 	0.22214	0.96398	0.03538	-0.263
Mof_C 	C 	0.16355	0.77713	0.03931	0.093
Mof_C 	C 	0.20545	0.94539	0.05803	0.101
Mof_S 	S 	0.12121	0.80209	0.04591	-0.062
Mof_S 	S 	0.18143	0.91909	0.08955	-0.06
Mof_N 	N 	0.24153	0.78981	0.03283	-0.223
Mof_C 	C 	0.27163	0.79321	0.02777	0.032
Mof_H 	H 	0.2943	0.7769	0.0185	0.014
Mof_C 	C 	0.27111	0.81941	0.03557	-0.046
Mof_C 	C 	0.23839	0.84317	0.04917	0.006
Mof_H 	H 	0.2374	0.8622	0.0534	0.038
Mof_C 	C 	0.20722	0.83888	0.05664	-0.097
Mof_H 	H 	0.1843	0.8539	0.0675	0.065
Mof_C 	C 	0.2098	0.81212	0.0481	0.057
Mof_H 	H 	0.1881	0.8093	0.0533	0.003
Mof_N 	N 	0.46309	0.74231	0.00033	-0.225
Mof_C 	C 	0.46421	0.71321	0.99839	0.056
Mof_H 	H 	0.4865	0.6939	0.9953	-0.001
Mof_C 	C 	0.43426	0.71018	0.00076	-0.095
Mof_H 	H 	0.4363	0.6895	0.9985	0.065
Mof_C 	C 	0.4011	0.73764	0.00642	0.005
Mof_H 	H 	0.38	0.7358	0.0088	0.039
Mof_C 	C 	0.39991	0.76817	0.00835	-0.048
Mof_C 	C 	0.43149	0.76913	0.00503	0.038
Mof_H 	H 	0.4307	0.7899	0.0061	0.014
Mof_C 	C 	0.36661	0.79905	0.01175	0.132
Mof_N 	N 	0.33565	0.79335	0.02255	-0.147
Mof_C 	C 	0.30577	0.82341	0.02537	0.133
Mof_N 	N 	0.30522	0.85526	0.0185	-0.152
Mof_C 	C 	0.33761	0.85805	0.00715	0.132
Mof_N 	N 	0.36909	0.83039	0.00393	-0.149
Mof_C 	C 	0.33873	0.89373	0.99713	-0.049
Mof_C 	C 	0.37078	0.9	0.98412	0.008
Mof_H 	H 	0.3934	0.8812	0.981	0.039
Mof_C 	C 	0.36872	0.9345	0.97586	-0.097
Mof_H 	H 	0.39	0.9396	0.9674	0.067
Mof_C 	C 	0.33558	0.96178	0.97984	0.06
Mof_H 	H 	0.3347	0.9853	0.9741	0.003
Mof_N 	N 	0.30489	0.95599	0.99143	-0.225
Mof_N 	N 	0.20293	0.04421	0.99373	-0.228
Mof_C 	C 	0.20287	0.07093	0.96163	0.055
Mof_H 	H 	0.225	0.07	0.942	0.002
Mof_C 	C 	0.1723	0.09932	0.95602	-0.098
Mof_H 	H 	0.1737	0.1177	0.9331	0.066
Mof_C 	C 	0.13985	0.10103	0.98351	0.009
Mof_H 	H 	0.1186	0.1206	0.9798	0.038
Mof_C 	C 	0.30667	0.92257	0.99969	0.038
Mof_H 	H 	0.285	0.9184	0.0076	0.012
Mof_C 	C 	0.1384	0.07376	0.01696	-0.053
Mof_C 	C 	0.17099	0.04647	0.02047	0.041
Mof_H 	H 	0.1705	0.0283	0.0433	0.013
Mof_C 	C 	0.10478	0.07502	0.04758	0.136
Mof_N 	N 	0.07764	0.10528	0.045	-0.152
Mof_N 	N 	0.03349	0.51143	0.19453	-0.257
Mof_N 	N 	0.03538	0.2785	0.22214	-0.263
Mof_C 	C 	0.03931	0.52001	0.16355	0.093
Mof_C 	C 	0.05803	0.29113	0.20545	0.101
Mof_S 	S 	0.04591	0.53079	0.12121	-0.062
Mof_S 	S 	0.08955	0.30993	0.18143	-0.06
Mof_N 	N 	0.03283	0.43583	0.24153	-0.223
Mof_C 	C 	0.02777	0.40739	0.27163	0.032
Mof_H 	H 	0.0185	0.4103	0.2943	0.014
Mof_C 	C 	0.03557	0.37391	0.27111	-0.046
Mof_C 	C 	0.04917	0.36927	0.23839	0.006
Mof_H 	H 	0.0534	0.347	0.2374	0.038
Mof_C 	C 	0.05664	0.39726	0.20722	-0.097
Mof_H 	H 	0.0675	0.3943	0.1843	0.065
Mof_C 	C 	0.0481	0.42998	0.2098	0.057
Mof_H 	H 	0.0533	0.4493	0.1881	0.003
Mof_N 	N 	0.00033	0.29427	0.46309	-0.225
Mof_C 	C 	0.99839	0.32419	0.46421	0.056
Mof_H 	H 	0.9953	0.3243	0.4865	-0.001
Mof_C 	C 	0.00076	0.3548	0.43426	-0.095
Mof_H 	H 	0.9985	0.3757	0.4363	0.065
Mof_C 	C 	0.00642	0.35484	0.4011	0.005
Mof_H 	H 	0.0088	0.3754	0.38	0.039
Mof_C 	C 	0.00835	0.32357	0.39991	-0.048
Mof_C 	C 	0.00503	0.29435	0.43149	0.038
Mof_H 	H 	0.0061	0.2733	0.4307	0.014
Mof_C 	C 	0.01175	0.32259	0.36661	0.132
Mof_N 	N 	0.02255	0.34845	0.33565	-0.147
Mof_C 	C 	0.02537	0.34545	0.30577	0.133
Mof_N 	N 	0.0185	0.32102	0.30522	-0.152
Mof_C 	C 	0.00715	0.29719	0.33761	0.132
Mof_N 	N 	0.00393	0.29659	0.36909	-0.149
Mof_C 	C 	0.99713	0.27041	0.33873	-0.049
Mof_C 	C 	0.98412	0.2451	0.37078	0.008
Mof_H 	H 	0.981	0.2444	0.3934	0.039
Mof_C 	C 	0.97586	0.22092	0.36872	-0.097
Mof_H 	H 	0.9674	0.203	0.39	0.067
Mof_C 	C 	0.97984	0.2228	0.33558	0.06
Mof_H 	H 	0.9741	0.2059	0.3347	0.003
Mof_N 	N 	0.99143	0.24769	0.30489	-0.225
Mof_N 	N 	0.99373	0.25913	0.20293	-0.228
Mof_C 	C 	0.96163	0.26457	0.20287	0.055
Mof_H 	H 	0.942	0.263	0.225	0.002
Mof_C 	C 	0.95602	0.27236	0.1723	-0.098
Mof_H 	H 	0.9331	0.2755	0.1737	0.066
Mof_C 	C 	0.98351	0.27561	0.13985	0.009
Mof_H 	H 	0.9798	0.281	0.1186	0.038
Mof_C 	C 	0.99969	0.27107	0.30667	0.038
Mof_H 	H 	0.0076	0.289	0.285	0.012
Mof_C 	C 	0.01696	0.27088	0.1384	-0.053
Mof_C 	C 	0.02047	0.26207	0.17099	0.041
Mof_H 	H 	0.0433	0.2579	0.1705	0.013
Mof_C 	C 	0.04758	0.27262	0.10478	0.136
Mof_N 	N 	0.045	0.27208	0.07764	-0.152
Mof_N 	N 	0.03349	0.76055	0.51143	-0.257
Mof_N 	N 	0.03538	0.96398	0.2785	-0.263
Mof_C 	C 	0.03931	0.77713	0.52001	0.093
Mof_C 	C 	0.05803	0.94539	0.29113	0.101
Mof_S 	S 	0.04591	0.80209	0.53079	-0.062
Mof_S 	S 	0.08955	0.91909	0.30993	-0.06
Mof_N 	N 	0.03283	0.78981	0.43583	-0.223
Mof_C 	C 	0.02777	0.79321	0.40739	0.032
Mof_H 	H 	0.0185	0.7769	0.4103	0.014
Mof_C 	C 	0.03557	0.81941	0.37391	-0.046
Mof_C 	C 	0.04917	0.84317	0.36927	0.006
Mof_H 	H 	0.0534	0.8622	0.347	0.038
Mof_C 	C 	0.05664	0.83888	0.39726	-0.097
Mof_H 	H 	0.0675	0.8539	0.3943	0.065
Mof_C 	C 	0.0481	0.81212	0.42998	0.057
Mof_H 	H 	0.0533	0.8093	0.4493	0.003
Mof_N 	N 	0.00033	0.74231	0.29427	-0.225
Mof_C 	C 	0.99839	0.71321	0.32419	0.056
Mof_H 	H 	0.9953	0.6939	0.3243	-0.001
Mof_C 	C 	0.00076	0.71018	0.3548	-0.095
Mof_H 	H 	0.9985	0.6895	0.3757	0.065
Mof_C 	C 	0.00642	0.73764	0.35484	0.005
Mof_H 	H 	0.0088	0.7358	0.3754	0.039
Mof_C 	C 	0.00835	0.76817	0.32357	-0.048
Mof_C 	C 	0.00503	0.76913	0.29435	0.038
Mof_H 	H 	0.0061	0.7899	0.2733	0.014
Mof_C 	C 	0.01175	0.79905	0.32259	0.132
Mof_N 	N 	0.02255	0.79335	0.34845	-0.147
Mof_C 	C 	0.02537	0.82341	0.34545	0.133
Mof_N 	N 	0.0185	0.85526	0.32102	-0.152
Mof_C 	C 	0.00715	0.85805	0.29719	0.132
Mof_N 	N 	0.00393	0.83039	0.29659	-0.149
Mof_C 	C 	0.99713	0.89373	0.27041	-0.049
Mof_C 	C 	0.98412	0.9	0.2451	0.008
Mof_H 	H 	0.981	0.8812	0.2444	0.039
Mof_C 	C 	0.97586	0.9345	0.22092	-0.097
Mof_H 	H 	0.9674	0.9396	0.203	0.067
Mof_C 	C 	0.97984	0.96178	0.2228	0.06
Mof_H 	H 	0.9741	0.9853	0.2059	0.003
Mof_N 	N 	0.99143	0.95599	0.24769	-0.225
Mof_N 	N 	0.99373	0.04421	0.25913	-0.228
Mof_C 	C 	0.96163	0.07093	0.26457	0.055
Mof_H 	H 	0.942	0.07	0.263	0.002
Mof_C 	C 	0.95602	0.09932	0.27236	-0.098
Mof_H 	H 	0.9331	0.1177	0.2755	0.066
Mof_C 	C 	0.98351	0.10103	0.27561	0.009
Mof_H 	H 	0.9798	0.1206	0.281	0.038
Mof_C 	C 	0.99969	0.92257	0.27107	0.038
Mof_H 	H 	0.0076	0.9184	0.289	0.012
Mof_C 	C 	0.01696	0.07376	0.27088	-0.053
Mof_C 	C 	0.02047	0.04647	0.26207	0.041
Mof_H 	H 	0.0433	0.0283	0.2579	0.013
Mof_C 	C 	0.04758	0.07502	0.27262	0.136
Mof_N 	N 	0.045	0.10528	0.27208	-0.152
Mof_N 	N 	0.19453	0.51143	0.76055	-0.257
Mof_N 	N 	0.22214	0.2785	0.96398	-0.263
Mof_C 	C 	0.16355	0.52001	0.77713	0.093
Mof_C 	C 	0.20545	0.29113	0.94539	0.101
Mof_S 	S 	0.12121	0.53079	0.80209	-0.062
Mof_S 	S 	0.18143	0.30993	0.91909	-0.06
Mof_N 	N 	0.24153	0.43583	0.78981	-0.223
Mof_C 	C 	0.27163	0.40739	0.79321	0.032
Mof_H 	H 	0.2943	0.4103	0.7769	0.014
Mof_C 	C 	0.27111	0.37391	0.81941	-0.046
Mof_C 	C 	0.23839	0.36927	0.84317	0.006
Mof_H 	H 	0.2374	0.347	0.8622	0.038
Mof_C 	C 	0.20722	0.39726	0.83888	-0.097
Mof_H 	H 	0.1843	0.3943	0.8539	0.065
Mof_C 	C 	0.2098	0.42998	0.81212	0.057
Mof_H 	H 	0.1881	0.4493	0.8093	0.003
Mof_N 	N 	0.46309	0.29427	0.74231	-0.225
Mof_C 	C 	0.46421	0.32419	0.71321	0.056
Mof_H 	H 	0.4865	0.3243	0.6939	-0.001
Mof_C 	C 	0.43426	0.3548	0.71018	-0.095
Mof_H 	H 	0.4363	0.3757	0.6895	0.065
Mof_C 	C 	0.4011	0.35484	0.73764	0.005
Mof_H 	H 	0.38	0.3754	0.7358	0.039
Mof_C 	C 	0.39991	0.32357	0.76817	-0.048
Mof_C 	C 	0.43149	0.29435	0.76913	0.038
Mof_H 	H 	0.4307	0.2733	0.7899	0.014
Mof_C 	C 	0.36661	0.32259	0.79905	0.132
Mof_N 	N 	0.33565	0.34845	0.79335	-0.147
Mof_C 	C 	0.30577	0.34545	0.82341	0.132
Mof_N 	N 	0.30522	0.32102	0.85526	-0.152
Mof_C 	C 	0.33761	0.29719	0.85805	0.132
Mof_N 	N 	0.36909	0.29659	0.83039	-0.149
Mof_C 	C 	0.33873	0.27041	0.89373	-0.049
Mof_C 	C 	0.37078	0.2451	0.9	0.008
Mof_H 	H 	0.3934	0.2444	0.8812	0.039
Mof_C 	C 	0.36872	0.22092	0.9345	-0.097
Mof_H 	H 	0.39	0.203	0.9396	0.067
Mof_C 	C 	0.33558	0.2228	0.96178	0.06
Mof_H 	H 	0.3347	0.2059	0.9853	0.003
Mof_N 	N 	0.30489	0.24769	0.95599	-0.225
Mof_N 	N 	0.20293	0.25913	0.04421	-0.228
Mof_C 	C 	0.20287	0.26457	0.07093	0.055
Mof_H 	H 	0.225	0.263	0.07	0.002
Mof_C 	C 	0.1723	0.27236	0.09932	-0.098
Mof_H 	H 	0.1737	0.2755	0.1177	0.066
Mof_C 	C 	0.13985	0.27561	0.10103	0.009
Mof_H 	H 	0.1186	0.281	0.1206	0.038
Mof_C 	C 	0.30667	0.27107	0.92257	0.038
Mof_H 	H 	0.285	0.289	0.9184	0.012
Mof_C 	C 	0.1384	0.27088	0.07376	-0.053
Mof_C 	C 	0.17099	0.26207	0.04647	0.041
Mof_H 	H 	0.1705	0.2579	0.0283	0.013
Mof_C 	C 	0.10478	0.27262	0.07502	0.136
Mof_N 	N 	0.07764	0.27208	0.10528	-0.152
Mof_N 	N 	0.51143	0.19453	0.03349	-0.257
Mof_N 	N 	0.2785	0.22214	0.03538	-0.263
Mof_C 	C 	0.52001	0.16355	0.03931	0.093
Mof_C 	C 	0.29113	0.20545	0.05803	0.101
Mof_S 	S 	0.53079	0.12121	0.04591	-0.062
Mof_S 	S 	0.30993	0.18143	0.08955	-0.06
Mof_N 	N 	0.43583	0.24153	0.03283	-0.223
Mof_C 	C 	0.40739	0.27163	0.02777	0.032
Mof_H 	H 	0.4103	0.2943	0.0185	0.014
Mof_C 	C 	0.37391	0.27111	0.03557	-0.046
Mof_C 	C 	0.36927	0.23839	0.04917	0.006
Mof_H 	H 	0.347	0.2374	0.0534	0.038
Mof_C 	C 	0.39726	0.20722	0.05664	-0.097
Mof_H 	H 	0.3943	0.1843	0.0675	0.065
Mof_C 	C 	0.42998	0.2098	0.0481	0.057
Mof_H 	H 	0.4493	0.1881	0.0533	0.003
Mof_N 	N 	0.29427	0.46309	0.00033	-0.225
Mof_C 	C 	0.32419	0.46421	0.99839	0.056
Mof_H 	H 	0.3243	0.4865	0.9953	-0.001
Mof_C 	C 	0.3548	0.43426	0.00076	-0.095
Mof_H 	H 	0.3757	0.4363	0.9985	0.065
Mof_C 	C 	0.35484	0.4011	0.00642	0.005
Mof_H 	H 	0.3754	0.38	0.0088	0.039
Mof_C 	C 	0.32357	0.39991	0.00835	-0.048
Mof_C 	C 	0.29435	0.43149	0.00503	0.038
Mof_H 	H 	0.2733	0.4307	0.0061	0.014
Mof_C 	C 	0.32259	0.36661	0.01175	0.132
Mof_N 	N 	0.34845	0.33565	0.02255	-0.147
Mof_C 	C 	0.34545	0.30577	0.02537	0.133
Mof_N 	N 	0.32102	0.30522	0.0185	-0.152
Mof_C 	C 	0.29719	0.33761	0.00715	0.132
Mof_N 	N 	0.29659	0.36909	0.00393	-0.149
Mof_C 	C 	0.27041	0.33873	0.99713	-0.049
Mof_C 	C 	0.2451	0.37078	0.98412	0.008
Mof_H 	H 	0.2444	0.3934	0.981	0.039
Mof_C 	C 	0.22092	0.36872	0.97586	-0.097
Mof_H 	H 	0.203	0.39	0.9674	0.067
Mof_C 	C 	0.2228	0.33558	0.97984	0.06
Mof_H 	H 	0.2059	0.3347	0.9741	0.003
Mof_N 	N 	0.24769	0.30489	0.99143	-0.225
Mof_N 	N 	0.25913	0.20293	0.99373	-0.228
Mof_C 	C 	0.26457	0.20287	0.96163	0.055
Mof_H 	H 	0.263	0.225	0.942	0.002
Mof_C 	C 	0.27236	0.1723	0.95602	-0.098
Mof_H 	H 	0.2755	0.1737	0.9331	0.066
Mof_C 	C 	0.27561	0.13985	0.98351	0.009
Mof_H 	H 	0.281	0.1186	0.9798	0.038
Mof_C 	C 	0.27107	0.30667	0.99969	0.038
Mof_H 	H 	0.289	0.285	0.0076	0.012
Mof_C 	C 	0.27088	0.1384	0.01696	-0.053
Mof_C 	C 	0.26207	0.17099	0.02047	0.041
Mof_H 	H 	0.2579	0.1705	0.0433	0.013
Mof_C 	C 	0.27262	0.10478	0.04758	0.136
Mof_N 	N 	0.27208	0.07764	0.045	-0.152
Mof_N 	N 	0.76055	0.03349	0.19453	-0.257
Mof_N 	N 	0.96398	0.03538	0.22214	-0.263
Mof_C 	C 	0.77713	0.03931	0.16355	0.093
Mof_C 	C 	0.94539	0.05803	0.20545	0.101
Mof_S 	S 	0.80209	0.04591	0.12121	-0.062
Mof_S 	S 	0.91909	0.08955	0.18143	-0.06
Mof_N 	N 	0.78981	0.03283	0.24153	-0.223
Mof_C 	C 	0.79321	0.02777	0.27163	0.032
Mof_H 	H 	0.7769	0.0185	0.2943	0.014
Mof_C 	C 	0.81941	0.03557	0.27111	-0.046
Mof_C 	C 	0.84317	0.04917	0.23839	0.006
Mof_H 	H 	0.8622	0.0534	0.2374	0.038
Mof_C 	C 	0.83888	0.05664	0.20722	-0.097
Mof_H 	H 	0.8539	0.0675	0.1843	0.065
Mof_C 	C 	0.81212	0.0481	0.2098	0.057
Mof_H 	H 	0.8093	0.0533	0.1881	0.003
Mof_N 	N 	0.74231	0.00033	0.46309	-0.225
Mof_C 	C 	0.71321	0.99839	0.46421	0.056
Mof_H 	H 	0.6939	0.9953	0.4865	-0.001
Mof_C 	C 	0.71018	0.00076	0.43426	-0.095
Mof_H 	H 	0.6895	0.9985	0.4363	0.065
Mof_C 	C 	0.73764	0.00642	0.4011	0.005
Mof_H 	H 	0.7358	0.0088	0.38	0.039
Mof_C 	C 	0.76817	0.00835	0.39991	-0.048
Mof_C 	C 	0.76913	0.00503	0.43149	0.038
Mof_H 	H 	0.7899	0.0061	0.4307	0.014
Mof_C 	C 	0.79905	0.01175	0.36661	0.132
Mof_N 	N 	0.79335	0.02255	0.33565	-0.147
Mof_C 	C 	0.82341	0.02537	0.30577	0.133
Mof_N 	N 	0.85526	0.0185	0.30522	-0.152
Mof_C 	C 	0.85805	0.00715	0.33761	0.132
Mof_N 	N 	0.83039	0.00393	0.36909	-0.149
Mof_C 	C 	0.89373	0.99713	0.33873	-0.049
Mof_C 	C 	0.9	0.98412	0.37078	0.008
Mof_H 	H 	0.8812	0.981	0.3934	0.039
Mof_C 	C 	0.9345	0.97586	0.36872	-0.097
Mof_H 	H 	0.9396	0.9674	0.39	0.067
Mof_C 	C 	0.96178	0.97984	0.33558	0.06
Mof_H 	H 	0.9853	0.9741	0.3347	0.003
Mof_N 	N 	0.95599	0.99143	0.30489	-0.225
Mof_N 	N 	0.04421	0.99373	0.20293	-0.228
Mof_C 	C 	0.07093	0.96163	0.20287	0.055
Mof_H 	H 	0.07	0.942	0.225	0.002
Mof_C 	C 	0.09932	0.95602	0.1723	-0.098
Mof_H 	H 	0.1177	0.9331	0.1737	0.066
Mof_C 	C 	0.10103	0.98351	0.13985	0.009
Mof_H 	H 	0.1206	0.9798	0.1186	0.038
Mof_C 	C 	0.92257	0.99969	0.30667	0.038
Mof_H 	H 	0.9184	0.0076	0.285	0.012
Mof_C 	C 	0.07376	0.01696	0.1384	-0.053
Mof_C 	C 	0.04647	0.02047	0.17099	0.041
Mof_H 	H 	0.0283	0.0433	0.1705	0.013
Mof_C 	C 	0.07502	0.04758	0.10478	0.136
Mof_N 	N 	0.10528	0.045	0.07764	-0.152
Mof_N 	N 	0.69453	0.53349	0.26055	-0.257
Mof_N 	N 	0.72214	0.53538	0.46398	-0.263
Mof_C 	C 	0.66355	0.53931	0.27713	0.093
Mof_C 	C 	0.70545	0.55803	0.44539	0.101
Mof_S 	S 	0.62121	0.54591	0.30209	-0.062
Mof_S 	S 	0.68143	0.58955	0.41909	-0.06
Mof_N 	N 	0.74153	0.53283	0.28981	-0.223
Mof_C 	C 	0.77163	0.52777	0.29321	0.032
Mof_H 	H 	0.7943	0.5185	0.2769	0.014
Mof_C 	C 	0.77111	0.53557	0.31941	-0.046
Mof_C 	C 	0.73839	0.54917	0.34317	0.006
Mof_H 	H 	0.7374	0.5534	0.3622	0.038
Mof_C 	C 	0.70722	0.55664	0.33888	-0.097
Mof_H 	H 	0.6843	0.5675	0.3539	0.065
Mof_C 	C 	0.7098	0.5481	0.31212	0.057
Mof_H 	H 	0.6881	0.5533	0.3093	0.003
Mof_N 	N 	0.96309	0.50033	0.24231	-0.225
Mof_C 	C 	0.96421	0.49839	0.21321	0.056
Mof_H 	H 	0.9865	0.4953	0.1939	-0.001
Mof_C 	C 	0.93426	0.50076	0.21018	-0.095
Mof_H 	H 	0.9363	0.4985	0.1895	0.065
Mof_C 	C 	0.9011	0.50642	0.23764	0.005
Mof_H 	H 	0.88	0.5088	0.2358	0.039
Mof_C 	C 	0.89991	0.50835	0.26817	-0.048
Mof_C 	C 	0.93149	0.50503	0.26913	0.038
Mof_H 	H 	0.9307	0.5061	0.2899	0.014
Mof_C 	C 	0.86661	0.51175	0.29905	0.132
Mof_N 	N 	0.83565	0.52255	0.29335	-0.147
Mof_C 	C 	0.80577	0.52537	0.32341	0.132
Mof_N 	N 	0.80522	0.5185	0.35526	-0.152
Mof_C 	C 	0.83761	0.50715	0.35805	0.132
Mof_N 	N 	0.86909	0.50393	0.33039	-0.149
Mof_C 	C 	0.83873	0.49713	0.39373	-0.049
Mof_C 	C 	0.87078	0.48412	0.4	0.008
Mof_H 	H 	0.8934	0.481	0.3812	0.039
Mof_C 	C 	0.86872	0.47586	0.4345	-0.098
Mof_H 	H 	0.89	0.4674	0.4396	0.067
Mof_C 	C 	0.83558	0.47984	0.46178	0.06
Mof_H 	H 	0.8347	0.4741	0.4853	0.003
Mof_N 	N 	0.80489	0.49143	0.45599	-0.225
Mof_N 	N 	0.70293	0.49373	0.54421	-0.228
Mof_C 	C 	0.70287	0.46163	0.57093	0.055
Mof_H 	H 	0.725	0.442	0.57	0.002
Mof_C 	C 	0.6723	0.45602	0.59932	-0.098
Mof_H 	H 	0.6737	0.4331	0.6177	0.066
Mof_C 	C 	0.63985	0.48351	0.60103	0.009
Mof_H 	H 	0.6186	0.4798	0.6206	0.038
Mof_C 	C 	0.80667	0.49969	0.42257	0.038
Mof_H 	H 	0.785	0.5076	0.4184	0.012
Mof_C 	C 	0.6384	0.51696	0.57376	-0.053
Mof_C 	C 	0.67099	0.52047	0.54647	0.041
Mof_H 	H 	0.6705	0.5433	0.5283	0.013
Mof_C 	C 	0.60478	0.54758	0.57502	0.136
Mof_N 	N 	0.57764	0.545	0.60528	-0.152
Mof_N 	N 	0.53349	0.69453	0.01143	-0.257
Mof_N 	N 	0.53538	0.72214	0.7785	-0.263
Mof_C 	C 	0.53931	0.66355	0.02001	0.093
Mof_C 	C 	0.55803	0.70545	0.79113	0.101
Mof_S 	S 	0.54591	0.62121	0.03079	-0.062
Mof_S 	S 	0.58955	0.68143	0.80993	-0.06
Mof_N 	N 	0.53283	0.74153	0.93583	-0.223
Mof_C 	C 	0.52777	0.77163	0.90739	0.032
Mof_H 	H 	0.5185	0.7943	0.9103	0.014
Mof_C 	C 	0.53557	0.77111	0.87391	-0.046
Mof_C 	C 	0.54917	0.73839	0.86927	0.006
Mof_H 	H 	0.5534	0.7374	0.847	0.038
Mof_C 	C 	0.55664	0.70722	0.89726	-0.097
Mof_H 	H 	0.5675	0.6843	0.8943	0.065
Mof_C 	C 	0.5481	0.7098	0.92998	0.057
Mof_H 	H 	0.5533	0.6881	0.9493	0.003
Mof_N 	N 	0.50033	0.96309	0.79427	-0.225
Mof_C 	C 	0.49839	0.96421	0.82419	0.056
Mof_H 	H 	0.4953	0.9865	0.8243	-0.001
Mof_C 	C 	0.50076	0.93426	0.8548	-0.095
Mof_H 	H 	0.4985	0.9363	0.8757	0.065
Mof_C 	C 	0.50642	0.9011	0.85484	0.005
Mof_H 	H 	0.5088	0.88	0.8754	0.039
Mof_C 	C 	0.50835	0.89991	0.82357	-0.048
Mof_C 	C 	0.50503	0.93149	0.79435	0.038
Mof_H 	H 	0.5061	0.9307	0.7733	0.014
Mof_C 	C 	0.51175	0.86661	0.82259	0.132
Mof_N 	N 	0.52255	0.83565	0.84845	-0.147
Mof_C 	C 	0.52537	0.80577	0.84545	0.132
Mof_N 	N 	0.5185	0.80522	0.82102	-0.152
Mof_C 	C 	0.50715	0.83761	0.79719	0.132
Mof_N 	N 	0.50393	0.86909	0.79659	-0.149
Mof_C 	C 	0.49713	0.83873	0.77041	-0.049
Mof_C 	C 	0.48412	0.87078	0.7451	0.008
Mof_H 	H 	0.481	0.8934	0.7444	0.039
Mof_C 	C 	0.47586	0.86872	0.72092	-0.098
Mof_H 	H 	0.4674	0.89	0.703	0.067
Mof_C 	C 	0.47984	0.83558	0.7228	0.06
Mof_H 	H 	0.4741	0.8347	0.7059	0.003
Mof_N 	N 	0.49143	0.80489	0.74769	-0.225
Mof_N 	N 	0.49373	0.70293	0.75913	-0.228
Mof_C 	C 	0.46163	0.70287	0.76457	0.055
Mof_H 	H 	0.442	0.725	0.763	0.002
Mof_C 	C 	0.45602	0.6723	0.77236	-0.098
Mof_H 	H 	0.4331	0.6737	0.7755	0.066
Mof_C 	C 	0.48351	0.63985	0.77561	0.009
Mof_H 	H 	0.4798	0.6186	0.781	0.038
Mof_C 	C 	0.49969	0.80667	0.77107	0.038
Mof_H 	H 	0.5076	0.785	0.789	0.012
Mof_C 	C 	0.51696	0.6384	0.77088	-0.053
Mof_C 	C 	0.52047	0.67099	0.76207	0.041
Mof_H 	H 	0.5433	0.6705	0.7579	0.013
Mof_C 	C 	0.54758	0.60478	0.77262	0.136
Mof_N 	N 	0.545	0.57764	0.77208	-0.152
Mof_N 	N 	0.26055	0.01143	0.69453	-0.257
Mof_N 	N 	0.46398	0.7785	0.72214	-0.263
Mof_C 	C 	0.27713	0.02001	0.66355	0.093
Mof_C 	C 	0.44539	0.79113	0.70545	0.101
Mof_S 	S 	0.30209	0.03079	0.62121	-0.062
Mof_S 	S 	0.41909	0.80993	0.68143	-0.06
Mof_N 	N 	0.28981	0.93583	0.74153	-0.223
Mof_C 	C 	0.29321	0.90739	0.77163	0.032
Mof_H 	H 	0.2769	0.9103	0.7943	0.014
Mof_C 	C 	0.31941	0.87391	0.77111	-0.046
Mof_C 	C 	0.34317	0.86927	0.73839	0.006
Mof_H 	H 	0.3622	0.847	0.7374	0.038
Mof_C 	C 	0.33888	0.89726	0.70722	-0.097
Mof_H 	H 	0.3539	0.8943	0.6843	0.065
Mof_C 	C 	0.31212	0.92998	0.7098	0.057
Mof_H 	H 	0.3093	0.9493	0.6881	0.003
Mof_N 	N 	0.24231	0.79427	0.96309	-0.225
Mof_C 	C 	0.21321	0.82419	0.96421	0.056
Mof_H 	H 	0.1939	0.8243	0.9865	-0.001
Mof_C 	C 	0.21018	0.8548	0.93426	-0.095
Mof_H 	H 	0.1895	0.8757	0.9363	0.065
Mof_C 	C 	0.23764	0.85484	0.9011	0.005
Mof_H 	H 	0.2358	0.8754	0.88	0.039
Mof_C 	C 	0.26817	0.82357	0.89991	-0.048
Mof_C 	C 	0.26913	0.79435	0.93149	0.038
Mof_H 	H 	0.2899	0.7733	0.9307	0.014
Mof_C 	C 	0.29905	0.82259	0.86661	0.132
Mof_N 	N 	0.29335	0.84845	0.83565	-0.147
Mof_C 	C 	0.32341	0.84545	0.80577	0.132
Mof_N 	N 	0.35526	0.82102	0.80522	-0.152
Mof_C 	C 	0.35805	0.79719	0.83761	0.132
Mof_N 	N 	0.33039	0.79659	0.86909	-0.149
Mof_C 	C 	0.39373	0.77041	0.83873	-0.049
Mof_C 	C 	0.4	0.7451	0.87078	0.008
Mof_H 	H 	0.3812	0.7444	0.8934	0.039
Mof_C 	C 	0.4345	0.72092	0.86872	-0.098
Mof_H 	H 	0.4396	0.703	0.89	0.067
Mof_C 	C 	0.46178	0.7228	0.83558	0.06
Mof_H 	H 	0.4853	0.7059	0.8347	0.003
Mof_N 	N 	0.45599	0.74769	0.80489	-0.225
Mof_N 	N 	0.54421	0.75913	0.70293	-0.228
Mof_C 	C 	0.57093	0.76457	0.70287	0.055
Mof_H 	H 	0.57	0.763	0.725	0.002
Mof_C 	C 	0.59932	0.77236	0.6723	-0.098
Mof_H 	H 	0.6177	0.7755	0.6737	0.066
Mof_C 	C 	0.60103	0.77561	0.63985	0.009
Mof_H 	H 	0.6206	0.781	0.6186	0.038
Mof_C 	C 	0.42257	0.77107	0.80667	0.038
Mof_H 	H 	0.4184	0.789	0.785	0.012
Mof_C 	C 	0.57376	0.77088	0.6384	-0.053
Mof_C 	C 	0.54647	0.76207	0.67099	0.041
Mof_H 	H 	0.5283	0.7579	0.6705	0.013
Mof_C 	C 	0.57502	0.77262	0.60478	0.136
Mof_N 	N 	0.60528	0.77208	0.57764	-0.152
Mof_N 	N 	0.01143	0.26055	0.53349	-0.257
Mof_N 	N 	0.7785	0.46398	0.53538	-0.263
Mof_C 	C 	0.02001	0.27713	0.53931	0.093
Mof_C 	C 	0.79113	0.44539	0.55803	0.101
Mof_S 	S 	0.03079	0.30209	0.54591	-0.062
Mof_S 	S 	0.80993	0.41909	0.58955	-0.06
Mof_N 	N 	0.93583	0.28981	0.53283	-0.223
Mof_C 	C 	0.90739	0.29321	0.52777	0.032
Mof_H 	H 	0.9103	0.2769	0.5185	0.014
Mof_C 	C 	0.87391	0.31941	0.53557	-0.046
Mof_C 	C 	0.86927	0.34317	0.54917	0.006
Mof_H 	H 	0.847	0.3622	0.5534	0.038
Mof_C 	C 	0.89726	0.33888	0.55664	-0.097
Mof_H 	H 	0.8943	0.3539	0.5675	0.065
Mof_C 	C 	0.92998	0.31212	0.5481	0.057
Mof_H 	H 	0.9493	0.3093	0.5533	0.003
Mof_N 	N 	0.79427	0.24231	0.50033	-0.225
Mof_C 	C 	0.82419	0.21321	0.49839	0.056
Mof_H 	H 	0.8243	0.1939	0.4953	-0.001
Mof_C 	C 	0.8548	0.21018	0.50076	-0.095
Mof_H 	H 	0.8757	0.1895	0.4985	0.065
Mof_C 	C 	0.85484	0.23764	0.50642	0.005
Mof_H 	H 	0.8754	0.2358	0.5088	0.039
Mof_C 	C 	0.82357	0.26817	0.50835	-0.048
Mof_C 	C 	0.79435	0.26913	0.50503	0.038
Mof_H 	H 	0.7733	0.2899	0.5061	0.014
Mof_C 	C 	0.82259	0.29905	0.51175	0.132
Mof_N 	N 	0.84845	0.29335	0.52255	-0.147
Mof_C 	C 	0.84545	0.32341	0.52537	0.132
Mof_N 	N 	0.82102	0.35526	0.5185	-0.152
Mof_C 	C 	0.79719	0.35805	0.50715	0.132
Mof_N 	N 	0.79659	0.33039	0.50393	-0.149
Mof_C 	C 	0.77041	0.39373	0.49713	-0.049
Mof_C 	C 	0.7451	0.4	0.48412	0.008
Mof_H 	H 	0.7444	0.3812	0.481	0.039
Mof_C 	C 	0.72092	0.4345	0.47586	-0.098
Mof_H 	H 	0.703	0.4396	0.4674	0.067
Mof_C 	C 	0.7228	0.46178	0.47984	0.06
Mof_H 	H 	0.7059	0.4853	0.4741	0.003
Mof_N 	N 	0.74769	0.45599	0.49143	-0.225
Mof_N 	N 	0.75913	0.54421	0.49373	-0.228
Mof_C 	C 	0.76457	0.57093	0.46163	0.055
Mof_H 	H 	0.763	0.57	0.442	0.002
Mof_C 	C 	0.77236	0.59932	0.45602	-0.098
Mof_H 	H 	0.7755	0.6177	0.4331	0.066
Mof_C 	C 	0.77561	0.60103	0.48351	0.009
Mof_H 	H 	0.781	0.6206	0.4798	0.038
Mof_C 	C 	0.77107	0.42257	0.49969	0.038
Mof_H 	H 	0.789	0.4184	0.5076	0.012
Mof_C 	C 	0.77088	0.57376	0.51696	-0.053
Mof_C 	C 	0.76207	0.54647	0.52047	0.041
Mof_H 	H 	0.7579	0.5283	0.5433	0.013
Mof_C 	C 	0.77262	0.57502	0.54758	0.136
Mof_N 	N 	0.77208	0.60528	0.545	-0.152
Mof_N 	N 	0.26055	0.69453	0.53349	-0.257
Mof_N 	N 	0.46398	0.72214	0.53538	-0.263
Mof_C 	C 	0.27713	0.66355	0.53931	0.093
Mof_C 	C 	0.44539	0.70545	0.55803	0.101
Mof_S 	S 	0.30209	0.62121	0.54591	-0.062
Mof_S 	S 	0.41909	0.68143	0.58955	-0.06
Mof_N 	N 	0.28981	0.74153	0.53283	-0.223
Mof_C 	C 	0.29321	0.77163	0.52777	0.032
Mof_H 	H 	0.2769	0.7943	0.5185	0.014
Mof_C 	C 	0.31941	0.77111	0.53557	-0.046
Mof_C 	C 	0.34317	0.73839	0.54917	0.006
Mof_H 	H 	0.3622	0.7374	0.5534	0.038
Mof_C 	C 	0.33888	0.70722	0.55664	-0.097
Mof_H 	H 	0.3539	0.6843	0.5675	0.065
Mof_C 	C 	0.31212	0.7098	0.5481	0.057
Mof_H 	H 	0.3093	0.6881	0.5533	0.003
Mof_N 	N 	0.24231	0.96309	0.50033	-0.225
Mof_C 	C 	0.21321	0.96421	0.49839	0.056
Mof_H 	H 	0.1939	0.9865	0.4953	-0.001
Mof_C 	C 	0.21018	0.93426	0.50076	-0.095
Mof_H 	H 	0.1895	0.9363	0.4985	0.065
Mof_C 	C 	0.23764	0.9011	0.50642	0.005
Mof_H 	H 	0.2358	0.88	0.5088	0.039
Mof_C 	C 	0.26817	0.89991	0.50835	-0.048
Mof_C 	C 	0.26913	0.93149	0.50503	0.038
Mof_H 	H 	0.2899	0.9307	0.5061	0.014
Mof_C 	C 	0.29905	0.86661	0.51175	0.132
Mof_N 	N 	0.29335	0.83565	0.52255	-0.147
Mof_C 	C 	0.32341	0.80577	0.52537	0.132
Mof_N 	N 	0.35526	0.80522	0.5185	-0.152
Mof_C 	C 	0.35805	0.83761	0.50715	0.132
Mof_N 	N 	0.33039	0.86909	0.50393	-0.149
Mof_C 	C 	0.39373	0.83873	0.49713	-0.049
Mof_C 	C 	0.4	0.87078	0.48412	0.008
Mof_H 	H 	0.3812	0.8934	0.481	0.039
Mof_C 	C 	0.4345	0.86872	0.47586	-0.098
Mof_H 	H 	0.4396	0.89	0.4674	0.067
Mof_C 	C 	0.46178	0.83558	0.47984	0.06
Mof_H 	H 	0.4853	0.8347	0.4741	0.003
Mof_N 	N 	0.45599	0.80489	0.49143	-0.225
Mof_N 	N 	0.54421	0.70293	0.49373	-0.228
Mof_C 	C 	0.57093	0.70287	0.46163	0.055
Mof_H 	H 	0.57	0.725	0.442	0.002
Mof_C 	C 	0.59932	0.6723	0.45602	-0.098
Mof_H 	H 	0.6177	0.6737	0.4331	0.066
Mof_C 	C 	0.60103	0.63985	0.48351	0.009
Mof_H 	H 	0.6206	0.6186	0.4798	0.038
Mof_C 	C 	0.42257	0.80667	0.49969	0.038
Mof_H 	H 	0.4184	0.785	0.5076	0.012
Mof_C 	C 	0.57376	0.6384	0.51696	-0.053
Mof_C 	C 	0.54647	0.67099	0.52047	0.041
Mof_H 	H 	0.5283	0.6705	0.5433	0.013
Mof_C 	C 	0.57502	0.60478	0.54758	0.136
Mof_N 	N 	0.60528	0.57764	0.545	-0.152
Mof_N 	N 	0.01143	0.53349	0.69453	-0.257
Mof_N 	N 	0.7785	0.53538	0.72214	-0.263
Mof_C 	C 	0.02001	0.53931	0.66355	0.093
Mof_C 	C 	0.79113	0.55803	0.70545	0.101
Mof_S 	S 	0.03079	0.54591	0.62121	-0.062
Mof_S 	S 	0.80993	0.58955	0.68143	-0.06
Mof_N 	N 	0.93583	0.53283	0.74153	-0.223
Mof_C 	C 	0.90739	0.52777	0.77163	0.032
Mof_H 	H 	0.9103	0.5185	0.7943	0.014
Mof_C 	C 	0.87391	0.53557	0.77111	-0.046
Mof_C 	C 	0.86927	0.54917	0.73839	0.006
Mof_H 	H 	0.847	0.5534	0.7374	0.038
Mof_C 	C 	0.89726	0.55664	0.70722	-0.097
Mof_H 	H 	0.8943	0.5675	0.6843	0.065
Mof_C 	C 	0.92998	0.5481	0.7098	0.057
Mof_H 	H 	0.9493	0.5533	0.6881	0.003
Mof_N 	N 	0.79427	0.50033	0.96309	-0.225
Mof_C 	C 	0.82419	0.49839	0.96421	0.056
Mof_H 	H 	0.8243	0.4953	0.9865	-0.001
Mof_C 	C 	0.8548	0.50076	0.93426	-0.095
Mof_H 	H 	0.8757	0.4985	0.9363	0.065
Mof_C 	C 	0.85484	0.50642	0.9011	0.005
Mof_H 	H 	0.8754	0.5088	0.88	0.039
Mof_C 	C 	0.82357	0.50835	0.89991	-0.048
Mof_C 	C 	0.79435	0.50503	0.93149	0.038
Mof_H 	H 	0.7733	0.5061	0.9307	0.014
Mof_C 	C 	0.82259	0.51175	0.86661	0.132
Mof_N 	N 	0.84845	0.52255	0.83565	-0.147
Mof_C 	C 	0.84545	0.52537	0.80577	0.132
Mof_N 	N 	0.82102	0.5185	0.80522	-0.152
Mof_C 	C 	0.79719	0.50715	0.83761	0.132
Mof_N 	N 	0.79659	0.50393	0.86909	-0.149
Mof_C 	C 	0.77041	0.49713	0.83873	-0.049
Mof_C 	C 	0.7451	0.48412	0.87078	0.008
Mof_H 	H 	0.7444	0.481	0.8934	0.039
Mof_C 	C 	0.72092	0.47586	0.86872	-0.098
Mof_H 	H 	0.703	0.4674	0.89	0.067
Mof_C 	C 	0.7228	0.47984	0.83558	0.06
Mof_H 	H 	0.7059	0.4741	0.8347	0.003
Mof_N 	N 	0.74769	0.49143	0.80489	-0.225
Mof_N 	N 	0.75913	0.49373	0.70293	-0.228
Mof_C 	C 	0.76457	0.46163	0.70287	0.055
Mof_H 	H 	0.763	0.442	0.725	0.002
Mof_C 	C 	0.77236	0.45602	0.6723	-0.098
Mof_H 	H 	0.7755	0.4331	0.6737	0.066
Mof_C 	C 	0.77561	0.48351	0.63985	0.009
Mof_H 	H 	0.781	0.4798	0.6186	0.038
Mof_C 	C 	0.77107	0.49969	0.80667	0.038
Mof_H 	H 	0.789	0.5076	0.785	0.012
Mof_C 	C 	0.77088	0.51696	0.6384	-0.053
Mof_C 	C 	0.76207	0.52047	0.67099	0.041
Mof_H 	H 	0.7579	0.5433	0.6705	0.013
Mof_C 	C 	0.77262	0.54758	0.60478	0.136
Mof_N 	N 	0.77208	0.545	0.57764	-0.152
Mof_N 	N 	0.69453	0.26055	0.01143	-0.257
Mof_N 	N 	0.72214	0.46398	0.7785	-0.263
Mof_C 	C 	0.66355	0.27713	0.02001	0.093
Mof_C 	C 	0.70545	0.44539	0.79113	0.101
Mof_S 	S 	0.62121	0.30209	0.03079	-0.062
Mof_S 	S 	0.68143	0.41909	0.80993	-0.06
Mof_N 	N 	0.74153	0.28981	0.93583	-0.223
Mof_C 	C 	0.77163	0.29321	0.90739	0.032
Mof_H 	H 	0.7943	0.2769	0.9103	0.014
Mof_C 	C 	0.77111	0.31941	0.87391	-0.046
Mof_C 	C 	0.73839	0.34317	0.86927	0.006
Mof_H 	H 	0.7374	0.3622	0.847	0.038
Mof_C 	C 	0.70722	0.33888	0.89726	-0.097
Mof_H 	H 	0.6843	0.3539	0.8943	0.065
Mof_C 	C 	0.7098	0.31212	0.92998	0.057
Mof_H 	H 	0.6881	0.3093	0.9493	0.003
Mof_N 	N 	0.96309	0.24231	0.79427	-0.225
Mof_C 	C 	0.96421	0.21321	0.82419	0.056
Mof_H 	H 	0.9865	0.1939	0.8243	-0.001
Mof_C 	C 	0.93426	0.21018	0.8548	-0.095
Mof_H 	H 	0.9363	0.1895	0.8757	0.065
Mof_C 	C 	0.9011	0.23764	0.85484	0.005
Mof_H 	H 	0.88	0.2358	0.8754	0.039
Mof_C 	C 	0.89991	0.26817	0.82357	-0.048
Mof_C 	C 	0.93149	0.26913	0.79435	0.038
Mof_H 	H 	0.9307	0.2899	0.7733	0.014
Mof_C 	C 	0.86661	0.29905	0.82259	0.132
Mof_N 	N 	0.83565	0.29335	0.84845	-0.147
Mof_C 	C 	0.80577	0.32341	0.84545	0.132
Mof_N 	N 	0.80522	0.35526	0.82102	-0.152
Mof_C 	C 	0.83761	0.35805	0.79719	0.132
Mof_N 	N 	0.86909	0.33039	0.79659	-0.149
Mof_C 	C 	0.83873	0.39373	0.77041	-0.049
Mof_C 	C 	0.87078	0.4	0.7451	0.008
Mof_H 	H 	0.8934	0.3812	0.7444	0.039
Mof_C 	C 	0.86872	0.4345	0.72092	-0.098
Mof_H 	H 	0.89	0.4396	0.703	0.067
Mof_C 	C 	0.83558	0.46178	0.7228	0.06
Mof_H 	H 	0.8347	0.4853	0.7059	0.003
Mof_N 	N 	0.80489	0.45599	0.74769	-0.225
Mof_N 	N 	0.70293	0.54421	0.75913	-0.228
Mof_C 	C 	0.70287	0.57093	0.76457	0.055
Mof_H 	H 	0.725	0.57	0.763	0.002
Mof_C 	C 	0.6723	0.59932	0.77236	-0.098
Mof_H 	H 	0.6737	0.6177	0.7755	0.066
Mof_C 	C 	0.63985	0.60103	0.77561	0.009
Mof_H 	H 	0.6186	0.6206	0.781	0.038
Mof_C 	C 	0.80667	0.42257	0.77107	0.038
Mof_H 	H 	0.785	0.4184	0.789	0.012
Mof_C 	C 	0.6384	0.57376	0.77088	-0.053
Mof_C 	C 	0.67099	0.54647	0.76207	0.041
Mof_H 	H 	0.6705	0.5283	0.7579	0.013
Mof_C 	C 	0.60478	0.57502	0.77262	0.136
Mof_N 	N 	0.57764	0.60528	0.77208	-0.152
Mof_N 	N 	0.53349	0.01143	0.26055	-0.257
Mof_N 	N 	0.53538	0.7785	0.46398	-0.263
Mof_C 	C 	0.53931	0.02001	0.27713	0.093
Mof_C 	C 	0.55803	0.79113	0.44539	0.101
Mof_S 	S 	0.54591	0.03079	0.30209	-0.062
Mof_S 	S 	0.58955	0.80993	0.41909	-0.06
Mof_N 	N 	0.53283	0.93583	0.28981	-0.223
Mof_C 	C 	0.52777	0.90739	0.29321	0.032
Mof_H 	H 	0.5185	0.9103	0.2769	0.014
Mof_C 	C 	0.53557	0.87391	0.31941	-0.046
Mof_C 	C 	0.54917	0.86927	0.34317	0.006
Mof_H 	H 	0.5534	0.847	0.3622	0.038
Mof_C 	C 	0.55664	0.89726	0.33888	-0.097
Mof_H 	H 	0.5675	0.8943	0.3539	0.065
Mof_C 	C 	0.5481	0.92998	0.31212	0.057
Mof_H 	H 	0.5533	0.9493	0.3093	0.003
Mof_N 	N 	0.50033	0.79427	0.24231	-0.225
Mof_C 	C 	0.49839	0.82419	0.21321	0.056
Mof_H 	H 	0.4953	0.8243	0.1939	-0.001
Mof_C 	C 	0.50076	0.8548	0.21018	-0.095
Mof_H 	H 	0.4985	0.8757	0.1895	0.065
Mof_C 	C 	0.50642	0.85484	0.23764	0.005
Mof_H 	H 	0.5088	0.8754	0.2358	0.039
Mof_C 	C 	0.50835	0.82357	0.26817	-0.048
Mof_C 	C 	0.50503	0.79435	0.26913	0.038
Mof_H 	H 	0.5061	0.7733	0.2899	0.014
Mof_C 	C 	0.51175	0.82259	0.29905	0.132
Mof_N 	N 	0.52255	0.84845	0.29335	-0.147
Mof_C 	C 	0.52537	0.84545	0.32341	0.132
Mof_N 	N 	0.5185	0.82102	0.35526	-0.152
Mof_C 	C 	0.50715	0.79719	0.35805	0.132
Mof_N 	N 	0.50393	0.79659	0.33039	-0.149
Mof_C 	C 	0.49713	0.77041	0.39373	-0.049
Mof_C 	C 	0.48412	0.7451	0.4	0.008
Mof_H 	H 	0.481	0.7444	0.3812	0.039
Mof_C 	C 	0.47586	0.72092	0.4345	-0.098
Mof_H 	H 	0.4674	0.703	0.4396	0.067
Mof_C 	C 	0.47984	0.7228	0.46178	0.06
Mof_H 	H 	0.4741	0.7059	0.4853	0.003
Mof_N 	N 	0.49143	0.74769	0.45599	-0.225
Mof_N 	N 	0.49373	0.75913	0.54421	-0.228
Mof_C 	C 	0.46163	0.76457	0.57093	0.055
Mof_H 	H 	0.442	0.763	0.57	0.002
Mof_C 	C 	0.45602	0.77236	0.59932	-0.098
Mof_H 	H 	0.4331	0.7755	0.6177	0.066
Mof_C 	C 	0.48351	0.77561	0.60103	0.009
Mof_H 	H 	0.4798	0.781	0.6206	0.038
Mof_C 	C 	0.49969	0.77107	0.42257	0.038
Mof_H 	H 	0.5076	0.789	0.4184	0.012
Mof_C 	C 	0.51696	0.77088	0.57376	-0.053
Mof_C 	C 	0.52047	0.76207	0.54647	0.041
Mof_H 	H 	0.5433	0.7579	0.5283	0.013
Mof_C 	C 	0.54758	0.77262	0.57502	0.136
Mof_N 	N 	0.545	0.77208	0.60528	-0.152
Mof_N 	N 	0.53349	0.26055	0.69453	-0.257
Mof_N 	N 	0.53538	0.46398	0.72214	-0.263
Mof_C 	C 	0.53931	0.27713	0.66355	0.093
Mof_C 	C 	0.55803	0.44539	0.70545	0.101
Mof_S 	S 	0.54591	0.30209	0.62121	-0.062
Mof_S 	S 	0.58955	0.41909	0.68143	-0.06
Mof_N 	N 	0.53283	0.28981	0.74153	-0.223
Mof_C 	C 	0.52777	0.29321	0.77163	0.032
Mof_H 	H 	0.5185	0.2769	0.7943	0.014
Mof_C 	C 	0.53557	0.31941	0.77111	-0.046
Mof_C 	C 	0.54917	0.34317	0.73839	0.006
Mof_H 	H 	0.5534	0.3622	0.7374	0.038
Mof_C 	C 	0.55664	0.33888	0.70722	-0.097
Mof_H 	H 	0.5675	0.3539	0.6843	0.065
Mof_C 	C 	0.5481	0.31212	0.7098	0.057
Mof_H 	H 	0.5533	0.3093	0.6881	0.003
Mof_N 	N 	0.50033	0.24231	0.96309	-0.225
Mof_C 	C 	0.49839	0.21321	0.96421	0.056
Mof_H 	H 	0.4953	0.1939	0.9865	-0.001
Mof_C 	C 	0.50076	0.21018	0.93426	-0.095
Mof_H 	H 	0.4985	0.1895	0.9363	0.065
Mof_C 	C 	0.50642	0.23764	0.9011	0.005
Mof_H 	H 	0.5088	0.2358	0.88	0.039
Mof_C 	C 	0.50835	0.26817	0.89991	-0.048
Mof_C 	C 	0.50503	0.26913	0.93149	0.038
Mof_H 	H 	0.5061	0.2899	0.9307	0.014
Mof_C 	C 	0.51175	0.29905	0.86661	0.132
Mof_N 	N 	0.52255	0.29335	0.83565	-0.147
Mof_C 	C 	0.52537	0.32341	0.80577	0.132
Mof_N 	N 	0.5185	0.35526	0.80522	-0.152
Mof_C 	C 	0.50715	0.35805	0.83761	0.132
Mof_N 	N 	0.50393	0.33039	0.86909	-0.149
Mof_C 	C 	0.49713	0.39373	0.83873	-0.049
Mof_C 	C 	0.48412	0.4	0.87078	0.008
Mof_H 	H 	0.481	0.3812	0.8934	0.039
Mof_C 	C 	0.47586	0.4345	0.86872	-0.098
Mof_H 	H 	0.4674	0.4396	0.89	0.067
Mof_C 	C 	0.47984	0.46178	0.83558	0.06
Mof_H 	H 	0.4741	0.4853	0.8347	0.003
Mof_N 	N 	0.49143	0.45599	0.80489	-0.225
Mof_N 	N 	0.49373	0.54421	0.70293	-0.228
Mof_C 	C 	0.46163	0.57093	0.70287	0.055
Mof_H 	H 	0.442	0.57	0.725	0.002
Mof_C 	C 	0.45602	0.59932	0.6723	-0.098
Mof_H 	H 	0.4331	0.6177	0.6737	0.066
Mof_C 	C 	0.48351	0.60103	0.63985	0.009
Mof_H 	H 	0.4798	0.6206	0.6186	0.038
Mof_C 	C 	0.49969	0.42257	0.80667	0.038
Mof_H 	H 	0.5076	0.4184	0.785	0.012
Mof_C 	C 	0.51696	0.57376	0.6384	-0.053
Mof_C 	C 	0.52047	0.54647	0.67099	0.041
Mof_H 	H 	0.5433	0.5283	0.6705	0.013
Mof_C 	C 	0.54758	0.57502	0.60478	0.136
Mof_N 	N 	0.545	0.60528	0.57764	-0.152
Mof_N 	N 	0.69453	0.01143	0.53349	-0.257
Mof_N 	N 	0.72214	0.7785	0.53538	-0.263
Mof_C 	C 	0.66355	0.02001	0.53931	0.093
Mof_C 	C 	0.70545	0.79113	0.55803	0.101
Mof_S 	S 	0.62121	0.03079	0.54591	-0.062
Mof_S 	S 	0.68143	0.80993	0.58955	-0.06
Mof_N 	N 	0.74153	0.93583	0.53283	-0.223
Mof_C 	C 	0.77163	0.90739	0.52777	0.032
Mof_H 	H 	0.7943	0.9103	0.5185	0.014
Mof_C 	C 	0.77111	0.87391	0.53557	-0.046
Mof_C 	C 	0.73839	0.86927	0.54917	0.006
Mof_H 	H 	0.7374	0.847	0.5534	0.038
Mof_C 	C 	0.70722	0.89726	0.55664	-0.097
Mof_H 	H 	0.6843	0.8943	0.5675	0.065
Mof_C 	C 	0.7098	0.92998	0.5481	0.057
Mof_H 	H 	0.6881	0.9493	0.5533	0.003
Mof_N 	N 	0.96309	0.79427	0.50033	-0.225
Mof_C 	C 	0.96421	0.82419	0.49839	0.056
Mof_H 	H 	0.9865	0.8243	0.4953	-0.001
Mof_C 	C 	0.93426	0.8548	0.50076	-0.095
Mof_H 	H 	0.9363	0.8757	0.4985	0.065
Mof_C 	C 	0.9011	0.85484	0.50642	0.005
Mof_H 	H 	0.88	0.8754	0.5088	0.039
Mof_C 	C 	0.89991	0.82357	0.50835	-0.048
Mof_C 	C 	0.93149	0.79435	0.50503	0.038
Mof_H 	H 	0.9307	0.7733	0.5061	0.014
Mof_C 	C 	0.86661	0.82259	0.51175	0.132
Mof_N 	N 	0.83565	0.84845	0.52255	-0.147
Mof_C 	C 	0.80577	0.84545	0.52537	0.132
Mof_N 	N 	0.80522	0.82102	0.5185	-0.152
Mof_C 	C 	0.83761	0.79719	0.50715	0.132
Mof_N 	N 	0.86909	0.79659	0.50393	-0.149
Mof_C 	C 	0.83873	0.77041	0.49713	-0.049
Mof_C 	C 	0.87078	0.7451	0.48412	0.008
Mof_H 	H 	0.8934	0.7444	0.481	0.039
Mof_C 	C 	0.86872	0.72092	0.47586	-0.098
Mof_H 	H 	0.89	0.703	0.4674	0.067
Mof_C 	C 	0.83558	0.7228	0.47984	0.06
Mof_H 	H 	0.8347	0.7059	0.4741	0.003
Mof_N 	N 	0.80489	0.74769	0.49143	-0.225
Mof_N 	N 	0.70293	0.75913	0.49373	-0.228
Mof_C 	C 	0.70287	0.76457	0.46163	0.055
Mof_H 	H 	0.725	0.763	0.442	0.002
Mof_C 	C 	0.6723	0.77236	0.45602	-0.098
Mof_H 	H 	0.6737	0.7755	0.4331	0.066
Mof_C 	C 	0.63985	0.77561	0.48351	0.009
Mof_H 	H 	0.6186	0.781	0.4798	0.038
Mof_C 	C 	0.80667	0.77107	0.49969	0.038
Mof_H 	H 	0.785	0.789	0.5076	0.012
Mof_C 	C 	0.6384	0.77088	0.51696	-0.053
Mof_C 	C 	0.67099	0.76207	0.52047	0.041
Mof_H 	H 	0.6705	0.7579	0.5433	0.013
Mof_C 	C 	0.60478	0.77262	0.54758	0.136
Mof_N 	N 	0.57764	0.77208	0.545	-0.152
Mof_N 	N 	0.01143	0.69453	0.26055	-0.257
Mof_N 	N 	0.7785	0.72214	0.46398	-0.263
Mof_C 	C 	0.02001	0.66355	0.27713	0.093
Mof_C 	C 	0.79113	0.70545	0.44539	0.101
Mof_S 	S 	0.03079	0.62121	0.30209	-0.062
Mof_S 	S 	0.80993	0.68143	0.41909	-0.06
Mof_N 	N 	0.93583	0.74153	0.28981	-0.223
Mof_C 	C 	0.90739	0.77163	0.29321	0.032
Mof_H 	H 	0.9103	0.7943	0.2769	0.014
Mof_C 	C 	0.87391	0.77111	0.31941	-0.046
Mof_C 	C 	0.86927	0.73839	0.34317	0.006
Mof_H 	H 	0.847	0.7374	0.3622	0.038
Mof_C 	C 	0.89726	0.70722	0.33888	-0.097
Mof_H 	H 	0.8943	0.6843	0.3539	0.065
Mof_C 	C 	0.92998	0.7098	0.31212	0.057
Mof_H 	H 	0.9493	0.6881	0.3093	0.003
Mof_N 	N 	0.79427	0.96309	0.24231	-0.225
Mof_C 	C 	0.82419	0.96421	0.21321	0.056
Mof_H 	H 	0.8243	0.9865	0.1939	-0.001
Mof_C 	C 	0.8548	0.93426	0.21018	-0.095
Mof_H 	H 	0.8757	0.9363	0.1895	0.065
Mof_C 	C 	0.85484	0.9011	0.23764	0.005
Mof_H 	H 	0.8754	0.88	0.2358	0.039
Mof_C 	C 	0.82357	0.89991	0.26817	-0.048
Mof_C 	C 	0.79435	0.93149	0.26913	0.038
Mof_H 	H 	0.7733	0.9307	0.2899	0.014
Mof_C 	C 	0.82259	0.86661	0.29905	0.132
Mof_N 	N 	0.84845	0.83565	0.29335	-0.147
Mof_C 	C 	0.84545	0.80577	0.32341	0.132
Mof_N 	N 	0.82102	0.80522	0.35526	-0.152
Mof_C 	C 	0.79719	0.83761	0.35805	0.132
Mof_N 	N 	0.79659	0.86909	0.33039	-0.149
Mof_C 	C 	0.77041	0.83873	0.39373	-0.049
Mof_C 	C 	0.7451	0.87078	0.4	0.008
Mof_H 	H 	0.7444	0.8934	0.3812	0.039
Mof_C 	C 	0.72092	0.86872	0.4345	-0.098
Mof_H 	H 	0.703	0.89	0.4396	0.067
Mof_C 	C 	0.7228	0.83558	0.46178	0.06
Mof_H 	H 	0.7059	0.8347	0.4853	0.003
Mof_N 	N 	0.74769	0.80489	0.45599	-0.225
Mof_N 	N 	0.75913	0.70293	0.54421	-0.228
Mof_C 	C 	0.76457	0.70287	0.57093	0.055
Mof_H 	H 	0.763	0.725	0.57	0.002
Mof_C 	C 	0.77236	0.6723	0.59932	-0.098
Mof_H 	H 	0.7755	0.6737	0.6177	0.066
Mof_C 	C 	0.77561	0.63985	0.60103	0.009
Mof_H 	H 	0.781	0.6186	0.6206	0.038
Mof_C 	C 	0.77107	0.80667	0.42257	0.038
Mof_H 	H 	0.789	0.785	0.4184	0.012
Mof_C 	C 	0.77088	0.6384	0.57376	-0.053
Mof_C 	C 	0.76207	0.67099	0.54647	0.041
Mof_H 	H 	0.7579	0.6705	0.5283	0.013
Mof_C 	C 	0.77262	0.60478	0.57502	0.136
Mof_N 	N 	0.77208	0.57764	0.60528	-0.152
Mof_N 	N 	0.26055	0.53349	0.01143	-0.257
Mof_N 	N 	0.46398	0.53538	0.7785	-0.263
Mof_C 	C 	0.27713	0.53931	0.02001	0.093
Mof_C 	C 	0.44539	0.55803	0.79113	0.101
Mof_S 	S 	0.30209	0.54591	0.03079	-0.062
Mof_S 	S 	0.41909	0.58955	0.80993	-0.06
Mof_N 	N 	0.28981	0.53283	0.93583	-0.223
Mof_C 	C 	0.29321	0.52777	0.90739	0.032
Mof_H 	H 	0.2769	0.5185	0.9103	0.014
Mof_C 	C 	0.31941	0.53557	0.87391	-0.046
Mof_C 	C 	0.34317	0.54917	0.86927	0.006
Mof_H 	H 	0.3622	0.5534	0.847	0.038
Mof_C 	C 	0.33888	0.55664	0.89726	-0.097
Mof_H 	H 	0.3539	0.5675	0.8943	0.065
Mof_C 	C 	0.31212	0.5481	0.92998	0.057
Mof_H 	H 	0.3093	0.5533	0.9493	0.003
Mof_N 	N 	0.24231	0.50033	0.79427	-0.225
Mof_C 	C 	0.21321	0.49839	0.82419	0.056
Mof_H 	H 	0.1939	0.4953	0.8243	-0.001
Mof_C 	C 	0.21018	0.50076	0.8548	-0.095
Mof_H 	H 	0.1895	0.4985	0.8757	0.065
Mof_C 	C 	0.23764	0.50642	0.85484	0.005
Mof_H 	H 	0.2358	0.5088	0.8754	0.039
Mof_C 	C 	0.26817	0.50835	0.82357	-0.048
Mof_C 	C 	0.26913	0.50503	0.79435	0.038
Mof_H 	H 	0.2899	0.5061	0.7733	0.014
Mof_C 	C 	0.29905	0.51175	0.82259	0.132
Mof_N 	N 	0.29335	0.52255	0.84845	-0.147
Mof_C 	C 	0.32341	0.52537	0.84545	0.132
Mof_N 	N 	0.35526	0.5185	0.82102	-0.152
Mof_C 	C 	0.35805	0.50715	0.79719	0.132
Mof_N 	N 	0.33039	0.50393	0.79659	-0.149
Mof_C 	C 	0.39373	0.49713	0.77041	-0.049
Mof_C 	C 	0.4	0.48412	0.7451	0.008
Mof_H 	H 	0.3812	0.481	0.7444	0.039
Mof_C 	C 	0.4345	0.47586	0.72092	-0.098
Mof_H 	H 	0.4396	0.4674	0.703	0.067
Mof_C 	C 	0.46178	0.47984	0.7228	0.06
Mof_H 	H 	0.4853	0.4741	0.7059	0.003
Mof_N 	N 	0.45599	0.49143	0.74769	-0.225
Mof_N 	N 	0.54421	0.49373	0.75913	-0.228
Mof_C 	C 	0.57093	0.46163	0.76457	0.055
Mof_H 	H 	0.57	0.442	0.763	0.002
Mof_C 	C 	0.59932	0.45602	0.77236	-0.098
Mof_H 	H 	0.6177	0.4331	0.7755	0.066
Mof_C 	C 	0.60103	0.48351	0.77561	0.009
Mof_H 	H 	0.6206	0.4798	0.781	0.038
Mof_C 	C 	0.42257	0.49969	0.77107	0.038
Mof_H 	H 	0.4184	0.5076	0.789	0.012
Mof_C 	C 	0.57376	0.51696	0.77088	-0.053
Mof_C 	C 	0.54647	0.52047	0.76207	0.041
Mof_H 	H 	0.5283	0.5433	0.7579	0.013
Mof_C 	C 	0.57502	0.54758	0.77262	0.136
Mof_N 	N 	0.60528	0.545	0.77208	-0.152
Mof_N 	N 	0.80547	0.96651	0.48857	-0.257
Mof_N 	N 	0.77786	0.96462	0.7215	-0.263
Mof_C 	C 	0.83645	0.96069	0.47999	0.093
Mof_C 	C 	0.79455	0.94197	0.70887	0.101
Mof_S 	S 	0.87879	0.95409	0.46921	-0.062
Mof_S 	S 	0.81857	0.91045	0.69007	-0.06
Mof_N 	N 	0.75847	0.96717	0.56417	-0.223
Mof_C 	C 	0.72837	0.97223	0.59261	0.032
Mof_H 	H 	0.7057	0.9815	0.5897	0.014
Mof_C 	C 	0.72889	0.96443	0.62609	-0.046
Mof_C 	C 	0.76161	0.95083	0.63073	0.006
Mof_H 	H 	0.7626	0.9466	0.653	0.038
Mof_C 	C 	0.79278	0.94336	0.60274	-0.097
Mof_H 	H 	0.8157	0.9325	0.6057	0.065
Mof_C 	C 	0.7902	0.9519	0.57002	0.057
Mof_H 	H 	0.8119	0.9467	0.5507	0.003
Mof_N 	N 	0.53691	0.99967	0.70573	-0.225
Mof_C 	C 	0.53579	0.00161	0.67581	0.056
Mof_H 	H 	0.5135	0.0047	0.6757	-0.001
Mof_C 	C 	0.56574	0.99924	0.6452	-0.095
Mof_H 	H 	0.5637	0.0015	0.6243	0.065
Mof_C 	C 	0.5989	0.99358	0.64516	0.005
Mof_H 	H 	0.62	0.9912	0.6246	0.039
Mof_C 	C 	0.60009	0.99165	0.67643	-0.048
Mof_C 	C 	0.56851	0.99497	0.70565	0.038
Mof_H 	H 	0.5693	0.9939	0.7267	0.014
Mof_C 	C 	0.63339	0.98825	0.67741	0.132
Mof_N 	N 	0.66435	0.97745	0.65155	-0.147
Mof_C 	C 	0.69423	0.97463	0.65455	0.133
Mof_N 	N 	0.69478	0.9815	0.67898	-0.152
Mof_C 	C 	0.66239	0.99285	0.70281	0.132
Mof_N 	N 	0.63091	0.99607	0.70341	-0.149
Mof_C 	C 	0.66127	0.00287	0.72959	-0.049
Mof_C 	C 	0.62922	0.01588	0.7549	0.008
Mof_H 	H 	0.6066	0.019	0.7556	0.039
Mof_C 	C 	0.63128	0.02414	0.77908	-0.097
Mof_H 	H 	0.61	0.0326	0.797	0.067
Mof_C 	C 	0.66442	0.02016	0.7772	0.06
Mof_H 	H 	0.6653	0.0259	0.7941	0.003
Mof_N 	N 	0.69511	0.00857	0.75231	-0.225
Mof_N 	N 	0.79707	0.00627	0.74087	-0.228
Mof_C 	C 	0.79713	0.03837	0.73543	0.055
Mof_H 	H 	0.775	0.058	0.737	0.002
Mof_C 	C 	0.8277	0.04398	0.72764	-0.098
Mof_H 	H 	0.8263	0.0669	0.7245	0.066
Mof_C 	C 	0.86015	0.01649	0.72439	0.009
Mof_H 	H 	0.8814	0.0202	0.719	0.038
Mof_C 	C 	0.69333	0.00031	0.72893	0.038
Mof_H 	H 	0.715	0.9924	0.711	0.012
Mof_C 	C 	0.8616	0.98304	0.72912	-0.053
Mof_C 	C 	0.82901	0.97953	0.73793	0.041
Mof_H 	H 	0.8295	0.9567	0.7421	0.013
Mof_C 	C 	0.89522	0.95242	0.72738	0.136
Mof_N 	N 	0.92236	0.955	0.72792	-0.152
Mof_N 	N 	0.96651	0.80547	0.23945	-0.257
Mof_N 	N 	0.96462	0.77786	0.03602	-0.263
Mof_C 	C 	0.96069	0.83645	0.22287	0.093
Mof_C 	C 	0.94197	0.79455	0.05461	0.101
Mof_S 	S 	0.95409	0.87879	0.19791	-0.062
Mof_S 	S 	0.91045	0.81857	0.08091	-0.06
Mof_N 	N 	0.96717	0.75847	0.21019	-0.223
Mof_C 	C 	0.97223	0.72837	0.20679	0.032
Mof_H 	H 	0.9815	0.7057	0.2231	0.014
Mof_C 	C 	0.96443	0.72889	0.18059	-0.046
Mof_C 	C 	0.95083	0.76161	0.15683	0.006
Mof_H 	H 	0.9466	0.7626	0.1378	0.038
Mof_C 	C 	0.94336	0.79278	0.16112	-0.097
Mof_H 	H 	0.9325	0.8157	0.1461	0.065
Mof_C 	C 	0.9519	0.7902	0.18788	0.057
Mof_H 	H 	0.9467	0.8119	0.1907	0.003
Mof_N 	N 	0.99967	0.53691	0.25769	-0.225
Mof_C 	C 	0.00161	0.53579	0.28679	0.056
Mof_H 	H 	0.0047	0.5135	0.3061	-0.001
Mof_C 	C 	0.99924	0.56574	0.28982	-0.095
Mof_H 	H 	0.0015	0.5637	0.3105	0.065
Mof_C 	C 	0.99358	0.5989	0.26236	0.005
Mof_H 	H 	0.9912	0.62	0.2642	0.039
Mof_C 	C 	0.99165	0.60009	0.23183	-0.048
Mof_C 	C 	0.99497	0.56851	0.23087	0.038
Mof_H 	H 	0.9939	0.5693	0.2101	0.014
Mof_C 	C 	0.98825	0.63339	0.20095	0.132
Mof_N 	N 	0.97745	0.66435	0.20665	-0.147
Mof_C 	C 	0.97463	0.69423	0.17659	0.133
Mof_N 	N 	0.9815	0.69478	0.14474	-0.152
Mof_C 	C 	0.99285	0.66239	0.14195	0.132
Mof_N 	N 	0.99607	0.63091	0.16961	-0.149
Mof_C 	C 	0.00287	0.66127	0.10627	-0.049
Mof_C 	C 	0.01588	0.62922	0.1	0.008
Mof_H 	H 	0.019	0.6066	0.1188	0.039
Mof_C 	C 	0.02414	0.63128	0.0655	-0.097
Mof_H 	H 	0.0326	0.61	0.0604	0.067
Mof_C 	C 	0.02016	0.66442	0.03822	0.06
Mof_H 	H 	0.0259	0.6653	0.0147	0.003
Mof_N 	N 	0.00857	0.69511	0.04401	-0.225
Mof_N 	N 	0.00627	0.79707	0.95579	-0.228
Mof_C 	C 	0.03837	0.79713	0.92907	0.055
Mof_H 	H 	0.058	0.775	0.93	0.002
Mof_C 	C 	0.04398	0.8277	0.90068	-0.098
Mof_H 	H 	0.0669	0.8263	0.8823	0.066
Mof_C 	C 	0.01649	0.86015	0.89897	0.009
Mof_H 	H 	0.0202	0.8814	0.8794	0.038
Mof_C 	C 	0.00031	0.69333	0.07743	0.038
Mof_H 	H 	0.9924	0.715	0.0816	0.012
Mof_C 	C 	0.98304	0.8616	0.92624	-0.053
Mof_C 	C 	0.97953	0.82901	0.95353	0.041
Mof_H 	H 	0.9567	0.8295	0.9717	0.013
Mof_C 	C 	0.95242	0.89522	0.92498	0.136
Mof_N 	N 	0.955	0.92236	0.89472	-0.152
Mof_N 	N 	0.23945	0.48857	0.96651	-0.257
Mof_N 	N 	0.03602	0.7215	0.96462	-0.263
Mof_C 	C 	0.22287	0.47999	0.96069	0.093
Mof_C 	C 	0.05461	0.70887	0.94197	0.101
Mof_S 	S 	0.19791	0.46921	0.95409	-0.062
Mof_S 	S 	0.08091	0.69007	0.91045	-0.06
Mof_N 	N 	0.21019	0.56417	0.96717	-0.223
Mof_C 	C 	0.20679	0.59261	0.97223	0.032
Mof_H 	H 	0.2231	0.5897	0.9815	0.014
Mof_C 	C 	0.18059	0.62609	0.96443	-0.046
Mof_C 	C 	0.15683	0.63073	0.95083	0.006
Mof_H 	H 	0.1378	0.653	0.9466	0.038
Mof_C 	C 	0.16112	0.60274	0.94336	-0.097
Mof_H 	H 	0.1461	0.6057	0.9325	0.065
Mof_C 	C 	0.18788	0.57002	0.9519	0.057
Mof_H 	H 	0.1907	0.5507	0.9467	0.003
Mof_N 	N 	0.25769	0.70573	0.99967	-0.225
Mof_C 	C 	0.28679	0.67581	0.00161	0.056
Mof_H 	H 	0.3061	0.6757	0.0047	-0.001
Mof_C 	C 	0.28982	0.6452	0.99924	-0.095
Mof_H 	H 	0.3105	0.6243	0.0015	0.065
Mof_C 	C 	0.26236	0.64516	0.99358	0.005
Mof_H 	H 	0.2642	0.6246	0.9912	0.039
Mof_C 	C 	0.23183	0.67643	0.99165	-0.048
Mof_C 	C 	0.23087	0.70565	0.99497	0.038
Mof_H 	H 	0.2101	0.7267	0.9939	0.014
Mof_C 	C 	0.20095	0.67741	0.98825	0.132
Mof_N 	N 	0.20665	0.65155	0.97745	-0.147
Mof_C 	C 	0.17659	0.65455	0.97463	0.133
Mof_N 	N 	0.14474	0.67898	0.9815	-0.152
Mof_C 	C 	0.14195	0.70281	0.99285	0.132
Mof_N 	N 	0.16961	0.70341	0.99607	-0.149
Mof_C 	C 	0.10627	0.72959	0.00287	-0.049
Mof_C 	C 	0.1	0.7549	0.01588	0.008
Mof_H 	H 	0.1188	0.7556	0.019	0.039
Mof_C 	C 	0.0655	0.77908	0.02414	-0.097
Mof_H 	H 	0.0604	0.797	0.0326	0.067
Mof_C 	C 	0.03822	0.7772	0.02016	0.06
Mof_H 	H 	0.0147	0.7941	0.0259	0.003
Mof_N 	N 	0.04401	0.75231	0.00857	-0.225
Mof_N 	N 	0.95579	0.74087	0.00627	-0.228
Mof_C 	C 	0.92907	0.73543	0.03837	0.055
Mof_H 	H 	0.93	0.737	0.058	0.002
Mof_C 	C 	0.90068	0.72764	0.04398	-0.098
Mof_H 	H 	0.8823	0.7245	0.0669	0.066
Mof_C 	C 	0.89897	0.72439	0.01649	0.009
Mof_H 	H 	0.8794	0.719	0.0202	0.038
Mof_C 	C 	0.07743	0.72893	0.00031	0.038
Mof_H 	H 	0.0816	0.711	0.9924	0.012
Mof_C 	C 	0.92624	0.72912	0.98304	-0.053
Mof_C 	C 	0.95353	0.73793	0.97953	0.041
Mof_H 	H 	0.9717	0.7421	0.9567	0.013
Mof_C 	C 	0.92498	0.72738	0.95242	0.136
Mof_N 	N 	0.89472	0.72792	0.955	-0.152
Mof_N 	N 	0.48857	0.23945	0.80547	-0.257
Mof_N 	N 	0.7215	0.03602	0.77786	-0.263
Mof_C 	C 	0.47999	0.22287	0.83645	0.093
Mof_C 	C 	0.70887	0.05461	0.79455	0.101
Mof_S 	S 	0.46921	0.19791	0.87879	-0.062
Mof_S 	S 	0.69007	0.08091	0.81857	-0.06
Mof_N 	N 	0.56417	0.21019	0.75847	-0.223
Mof_C 	C 	0.59261	0.20679	0.72837	0.032
Mof_H 	H 	0.5897	0.2231	0.7057	0.014
Mof_C 	C 	0.62609	0.18059	0.72889	-0.046
Mof_C 	C 	0.63073	0.15683	0.76161	0.006
Mof_H 	H 	0.653	0.1378	0.7626	0.038
Mof_C 	C 	0.60274	0.16112	0.79278	-0.097
Mof_H 	H 	0.6057	0.1461	0.8157	0.065
Mof_C 	C 	0.57002	0.18788	0.7902	0.057
Mof_H 	H 	0.5507	0.1907	0.8119	0.003
Mof_N 	N 	0.70573	0.25769	0.53691	-0.225
Mof_C 	C 	0.67581	0.28679	0.53579	0.056
Mof_H 	H 	0.6757	0.3061	0.5135	-0.001
Mof_C 	C 	0.6452	0.28982	0.56574	-0.095
Mof_H 	H 	0.6243	0.3105	0.5637	0.065
Mof_C 	C 	0.64516	0.26236	0.5989	0.005
Mof_H 	H 	0.6246	0.2642	0.62	0.039
Mof_C 	C 	0.67643	0.23183	0.60009	-0.048
Mof_C 	C 	0.70565	0.23087	0.56851	0.038
Mof_H 	H 	0.7267	0.2101	0.5693	0.014
Mof_C 	C 	0.67741	0.20095	0.63339	0.132
Mof_N 	N 	0.65155	0.20665	0.66435	-0.147
Mof_C 	C 	0.65455	0.17659	0.69423	0.132
Mof_N 	N 	0.67898	0.14474	0.69478	-0.152
Mof_C 	C 	0.70281	0.14195	0.66239	0.132
Mof_N 	N 	0.70341	0.16961	0.63091	-0.149
Mof_C 	C 	0.72959	0.10627	0.66127	-0.049
Mof_C 	C 	0.7549	0.1	0.62922	0.008
Mof_H 	H 	0.7556	0.1188	0.6066	0.039
Mof_C 	C 	0.77908	0.0655	0.63128	-0.097
Mof_H 	H 	0.797	0.0604	0.61	0.067
Mof_C 	C 	0.7772	0.03822	0.66442	0.06
Mof_H 	H 	0.7941	0.0147	0.6653	0.003
Mof_N 	N 	0.75231	0.04401	0.69511	-0.225
Mof_N 	N 	0.74087	0.95579	0.79707	-0.228
Mof_C 	C 	0.73543	0.92907	0.79713	0.055
Mof_H 	H 	0.737	0.93	0.775	0.002
Mof_C 	C 	0.72764	0.90068	0.8277	-0.098
Mof_H 	H 	0.7245	0.8823	0.8263	0.066
Mof_C 	C 	0.72439	0.89897	0.86015	0.009
Mof_H 	H 	0.719	0.8794	0.8814	0.038
Mof_C 	C 	0.72893	0.07743	0.69333	0.038
Mof_H 	H 	0.711	0.0816	0.715	0.012
Mof_C 	C 	0.72912	0.92624	0.8616	-0.053
Mof_C 	C 	0.73793	0.95353	0.82901	0.041
Mof_H 	H 	0.7421	0.9717	0.8295	0.013
Mof_C 	C 	0.72738	0.92498	0.89522	0.136
Mof_N 	N 	0.72792	0.89472	0.92236	-0.152
Mof_N 	N 	0.23945	0.80547	0.48857	-0.257
Mof_N 	N 	0.03602	0.77786	0.7215	-0.263
Mof_C 	C 	0.22287	0.83645	0.47999	0.093
Mof_C 	C 	0.05461	0.79455	0.70887	0.101
Mof_S 	S 	0.19791	0.87879	0.46921	-0.062
Mof_S 	S 	0.08091	0.81857	0.69007	-0.06
Mof_N 	N 	0.21019	0.75847	0.56417	-0.223
Mof_C 	C 	0.20679	0.72837	0.59261	0.032
Mof_H 	H 	0.2231	0.7057	0.5897	0.014
Mof_C 	C 	0.18059	0.72889	0.62609	-0.046
Mof_C 	C 	0.15683	0.76161	0.63073	0.006
Mof_H 	H 	0.1378	0.7626	0.653	0.038
Mof_C 	C 	0.16112	0.79278	0.60274	-0.097
Mof_H 	H 	0.1461	0.8157	0.6057	0.065
Mof_C 	C 	0.18788	0.7902	0.57002	0.057
Mof_H 	H 	0.1907	0.8119	0.5507	0.003
Mof_N 	N 	0.25769	0.53691	0.70573	-0.225
Mof_C 	C 	0.28679	0.53579	0.67581	0.056
Mof_H 	H 	0.3061	0.5135	0.6757	-0.001
Mof_C 	C 	0.28982	0.56574	0.6452	-0.095
Mof_H 	H 	0.3105	0.5637	0.6243	0.065
Mof_C 	C 	0.26236	0.5989	0.64516	0.005
Mof_H 	H 	0.2642	0.62	0.6246	0.039
Mof_C 	C 	0.23183	0.60009	0.67643	-0.048
Mof_C 	C 	0.23087	0.56851	0.70565	0.038
Mof_H 	H 	0.2101	0.5693	0.7267	0.014
Mof_C 	C 	0.20095	0.63339	0.67741	0.132
Mof_N 	N 	0.20665	0.66435	0.65155	-0.147
Mof_C 	C 	0.17659	0.69423	0.65455	0.132
Mof_N 	N 	0.14474	0.69478	0.67898	-0.152
Mof_C 	C 	0.14195	0.66239	0.70281	0.132
Mof_N 	N 	0.16961	0.63091	0.70341	-0.149
Mof_C 	C 	0.10627	0.66127	0.72959	-0.049
Mof_C 	C 	0.1	0.62922	0.7549	0.008
Mof_H 	H 	0.1188	0.6066	0.7556	0.039
Mof_C 	C 	0.0655	0.63128	0.77908	-0.097
Mof_H 	H 	0.0604	0.61	0.797	0.067
Mof_C 	C 	0.03822	0.66442	0.7772	0.06
Mof_H 	H 	0.0147	0.6653	0.7941	0.003
Mof_N 	N 	0.04401	0.69511	0.75231	-0.225
Mof_N 	N 	0.95579	0.79707	0.74087	-0.228
Mof_C 	C 	0.92907	0.79713	0.73543	0.055
Mof_H 	H 	0.93	0.775	0.737	0.002
Mof_C 	C 	0.90068	0.8277	0.72764	-0.098
Mof_H 	H 	0.8823	0.8263	0.7245	0.066
Mof_C 	C 	0.89897	0.86015	0.72439	0.009
Mof_H 	H 	0.8794	0.8814	0.719	0.038
Mof_C 	C 	0.07743	0.69333	0.72893	0.038
Mof_H 	H 	0.0816	0.715	0.711	0.012
Mof_C 	C 	0.92624	0.8616	0.72912	-0.053
Mof_C 	C 	0.95353	0.82901	0.73793	0.041
Mof_H 	H 	0.9717	0.8295	0.7421	0.013
Mof_C 	C 	0.92498	0.89522	0.72738	0.136
Mof_N 	N 	0.89472	0.92236	0.72792	-0.152
Mof_N 	N 	0.48857	0.96651	0.23945	-0.257
Mof_N 	N 	0.7215	0.96462	0.03602	-0.263
Mof_C 	C 	0.47999	0.96069	0.22287	0.093
Mof_C 	C 	0.70887	0.94197	0.05461	0.101
Mof_S 	S 	0.46921	0.95409	0.19791	-0.062
Mof_S 	S 	0.69007	0.91045	0.08091	-0.06
Mof_N 	N 	0.56417	0.96717	0.21019	-0.223
Mof_C 	C 	0.59261	0.97223	0.20679	0.032
Mof_H 	H 	0.5897	0.9815	0.2231	0.014
Mof_C 	C 	0.62609	0.96443	0.18059	-0.046
Mof_C 	C 	0.63073	0.95083	0.15683	0.006
Mof_H 	H 	0.653	0.9466	0.1378	0.038
Mof_C 	C 	0.60274	0.94336	0.16112	-0.097
Mof_H 	H 	0.6057	0.9325	0.1461	0.065
Mof_C 	C 	0.57002	0.9519	0.18788	0.057
Mof_H 	H 	0.5507	0.9467	0.1907	0.003
Mof_N 	N 	0.70573	0.99967	0.25769	-0.225
Mof_C 	C 	0.67581	0.00161	0.28679	0.056
Mof_H 	H 	0.6757	0.0047	0.3061	-0.001
Mof_C 	C 	0.6452	0.99924	0.28982	-0.095
Mof_H 	H 	0.6243	0.0015	0.3105	0.065
Mof_C 	C 	0.64516	0.99358	0.26236	0.005
Mof_H 	H 	0.6246	0.9912	0.2642	0.039
Mof_C 	C 	0.67643	0.99165	0.23183	-0.048
Mof_C 	C 	0.70565	0.99497	0.23087	0.038
Mof_H 	H 	0.7267	0.9939	0.2101	0.014
Mof_C 	C 	0.67741	0.98825	0.20095	0.132
Mof_N 	N 	0.65155	0.97745	0.20665	-0.147
Mof_C 	C 	0.65455	0.97463	0.17659	0.133
Mof_N 	N 	0.67898	0.9815	0.14474	-0.152
Mof_C 	C 	0.70281	0.99285	0.14195	0.132
Mof_N 	N 	0.70341	0.99607	0.16961	-0.149
Mof_C 	C 	0.72959	0.00287	0.10627	-0.049
Mof_C 	C 	0.7549	0.01588	0.1	0.008
Mof_H 	H 	0.7556	0.019	0.1188	0.039
Mof_C 	C 	0.77908	0.02414	0.0655	-0.097
Mof_H 	H 	0.797	0.0326	0.0604	0.067
Mof_C 	C 	0.7772	0.02016	0.03822	0.06
Mof_H 	H 	0.7941	0.0259	0.0147	0.003
Mof_N 	N 	0.75231	0.00857	0.04401	-0.225
Mof_N 	N 	0.74087	0.00627	0.95579	-0.228
Mof_C 	C 	0.73543	0.03837	0.92907	0.055
Mof_H 	H 	0.737	0.058	0.93	0.002
Mof_C 	C 	0.72764	0.04398	0.90068	-0.098
Mof_H 	H 	0.7245	0.0669	0.8823	0.066
Mof_C 	C 	0.72439	0.01649	0.89897	0.009
Mof_H 	H 	0.719	0.0202	0.8794	0.038
Mof_C 	C 	0.72893	0.00031	0.07743	0.038
Mof_H 	H 	0.711	0.9924	0.0816	0.012
Mof_C 	C 	0.72912	0.98304	0.92624	-0.053
Mof_C 	C 	0.73793	0.97953	0.95353	0.041
Mof_H 	H 	0.7421	0.9567	0.9717	0.013
Mof_C 	C 	0.72738	0.95242	0.92498	0.136
Mof_N 	N 	0.72792	0.955	0.89472	-0.152
Mof_N 	N 	0.80547	0.23945	0.96651	-0.257
Mof_N 	N 	0.77786	0.03602	0.96462	-0.263
Mof_C 	C 	0.83645	0.22287	0.96069	0.093
Mof_C 	C 	0.79455	0.05461	0.94197	0.101
Mof_S 	S 	0.87879	0.19791	0.95409	-0.062
Mof_S 	S 	0.81857	0.08091	0.91045	-0.06
Mof_N 	N 	0.75847	0.21019	0.96717	-0.223
Mof_C 	C 	0.72837	0.20679	0.97223	0.032
Mof_H 	H 	0.7057	0.2231	0.9815	0.014
Mof_C 	C 	0.72889	0.18059	0.96443	-0.046
Mof_C 	C 	0.76161	0.15683	0.95083	0.006
Mof_H 	H 	0.7626	0.1378	0.9466	0.038
Mof_C 	C 	0.79278	0.16112	0.94336	-0.097
Mof_H 	H 	0.8157	0.1461	0.9325	0.065
Mof_C 	C 	0.7902	0.18788	0.9519	0.057
Mof_H 	H 	0.8119	0.1907	0.9467	0.003
Mof_N 	N 	0.53691	0.25769	0.99967	-0.225
Mof_C 	C 	0.53579	0.28679	0.00161	0.056
Mof_H 	H 	0.5135	0.3061	0.0047	-0.001
Mof_C 	C 	0.56574	0.28982	0.99924	-0.095
Mof_H 	H 	0.5637	0.3105	0.0015	0.065
Mof_C 	C 	0.5989	0.26236	0.99358	0.005
Mof_H 	H 	0.62	0.2642	0.9912	0.039
Mof_C 	C 	0.60009	0.23183	0.99165	-0.048
Mof_C 	C 	0.56851	0.23087	0.99497	0.038
Mof_H 	H 	0.5693	0.2101	0.9939	0.014
Mof_C 	C 	0.63339	0.20095	0.98825	0.132
Mof_N 	N 	0.66435	0.20665	0.97745	-0.147
Mof_C 	C 	0.69423	0.17659	0.97463	0.133
Mof_N 	N 	0.69478	0.14474	0.9815	-0.152
Mof_C 	C 	0.66239	0.14195	0.99285	0.132
Mof_N 	N 	0.63091	0.16961	0.99607	-0.149
Mof_C 	C 	0.66127	0.10627	0.00287	-0.049
Mof_C 	C 	0.62922	0.1	0.01588	0.008
Mof_H 	H 	0.6066	0.1188	0.019	0.039
Mof_C 	C 	0.63128	0.0655	0.02414	-0.097
Mof_H 	H 	0.61	0.0604	0.0326	0.067
Mof_C 	C 	0.66442	0.03822	0.02016	0.06
Mof_H 	H 	0.6653	0.0147	0.0259	0.003
Mof_N 	N 	0.69511	0.04401	0.00857	-0.225
Mof_N 	N 	0.79707	0.95579	0.00627	-0.228
Mof_C 	C 	0.79713	0.92907	0.03837	0.055
Mof_H 	H 	0.775	0.93	0.058	0.002
Mof_C 	C 	0.8277	0.90068	0.04398	-0.098
Mof_H 	H 	0.8263	0.8823	0.0669	0.066
Mof_C 	C 	0.86015	0.89897	0.01649	0.009
Mof_H 	H 	0.8814	0.8794	0.0202	0.038
Mof_C 	C 	0.69333	0.07743	0.00031	0.038
Mof_H 	H 	0.715	0.0816	0.9924	0.012
Mof_C 	C 	0.8616	0.92624	0.98304	-0.053
Mof_C 	C 	0.82901	0.95353	0.97953	0.041
Mof_H 	H 	0.8295	0.9717	0.9567	0.013
Mof_C 	C 	0.89522	0.92498	0.95242	0.136
Mof_N 	N 	0.92236	0.89472	0.955	-0.152
Mof_N 	N 	0.96651	0.48857	0.80547	-0.257
Mof_N 	N 	0.96462	0.7215	0.77786	-0.263
Mof_C 	C 	0.96069	0.47999	0.83645	0.093
Mof_C 	C 	0.94197	0.70887	0.79455	0.101
Mof_S 	S 	0.95409	0.46921	0.87879	-0.062
Mof_S 	S 	0.91045	0.69007	0.81857	-0.06
Mof_N 	N 	0.96717	0.56417	0.75847	-0.223
Mof_C 	C 	0.97223	0.59261	0.72837	0.032
Mof_H 	H 	0.9815	0.5897	0.7057	0.014
Mof_C 	C 	0.96443	0.62609	0.72889	-0.046
Mof_C 	C 	0.95083	0.63073	0.76161	0.006
Mof_H 	H 	0.9466	0.653	0.7626	0.038
Mof_C 	C 	0.94336	0.60274	0.79278	-0.097
Mof_H 	H 	0.9325	0.6057	0.8157	0.065
Mof_C 	C 	0.9519	0.57002	0.7902	0.057
Mof_H 	H 	0.9467	0.5507	0.8119	0.003
Mof_N 	N 	0.99967	0.70573	0.53691	-0.225
Mof_C 	C 	0.00161	0.67581	0.53579	0.056
Mof_H 	H 	0.0047	0.6757	0.5135	-0.001
Mof_C 	C 	0.99924	0.6452	0.56574	-0.095
Mof_H 	H 	0.0015	0.6243	0.5637	0.065
Mof_C 	C 	0.99358	0.64516	0.5989	0.005
Mof_H 	H 	0.9912	0.6246	0.62	0.039
Mof_C 	C 	0.99165	0.67643	0.60009	-0.048
Mof_C 	C 	0.99497	0.70565	0.56851	0.038
Mof_H 	H 	0.9939	0.7267	0.5693	0.014
Mof_C 	C 	0.98825	0.67741	0.63339	0.132
Mof_N 	N 	0.97745	0.65155	0.66435	-0.147
Mof_C 	C 	0.97463	0.65455	0.69423	0.133
Mof_N 	N 	0.9815	0.67898	0.69478	-0.152
Mof_C 	C 	0.99285	0.70281	0.66239	0.132
Mof_N 	N 	0.99607	0.70341	0.63091	-0.149
Mof_C 	C 	0.00287	0.72959	0.66127	-0.049
Mof_C 	C 	0.01588	0.7549	0.62922	0.008
Mof_H 	H 	0.019	0.7556	0.6066	0.039
Mof_C 	C 	0.02414	0.77908	0.63128	-0.097
Mof_H 	H 	0.0326	0.797	0.61	0.067
Mof_C 	C 	0.02016	0.7772	0.66442	0.06
Mof_H 	H 	0.0259	0.7941	0.6653	0.003
Mof_N 	N 	0.00857	0.75231	0.69511	-0.225
Mof_N 	N 	0.00627	0.74087	0.79707	-0.228
Mof_C 	C 	0.03837	0.73543	0.79713	0.055
Mof_H 	H 	0.058	0.737	0.775	0.002
Mof_C 	C 	0.04398	0.72764	0.8277	-0.098
Mof_H 	H 	0.0669	0.7245	0.8263	0.066
Mof_C 	C 	0.01649	0.72439	0.86015	0.009
Mof_H 	H 	0.0202	0.719	0.8814	0.038
Mof_C 	C 	0.00031	0.72893	0.69333	0.038
Mof_H 	H 	0.9924	0.711	0.715	0.012
Mof_C 	C 	0.98304	0.72912	0.8616	-0.053
Mof_C 	C 	0.97953	0.73793	0.82901	0.041
Mof_H 	H 	0.9567	0.7421	0.8295	0.013
Mof_C 	C 	0.95242	0.72738	0.89522	0.136
Mof_N 	N 	0.955	0.72792	0.92236	-0.152
Mof_N 	N 	0.96651	0.23945	0.48857	-0.257
Mof_N 	N 	0.96462	0.03602	0.7215	-0.263
Mof_C 	C 	0.96069	0.22287	0.47999	0.093
Mof_C 	C 	0.94197	0.05461	0.70887	0.101
Mof_S 	S 	0.95409	0.19791	0.46921	-0.062
Mof_S 	S 	0.91045	0.08091	0.69007	-0.06
Mof_N 	N 	0.96717	0.21019	0.56417	-0.223
Mof_C 	C 	0.97223	0.20679	0.59261	0.032
Mof_H 	H 	0.9815	0.2231	0.5897	0.014
Mof_C 	C 	0.96443	0.18059	0.62609	-0.046
Mof_C 	C 	0.95083	0.15683	0.63073	0.006
Mof_H 	H 	0.9466	0.1378	0.653	0.038
Mof_C 	C 	0.94336	0.16112	0.60274	-0.097
Mof_H 	H 	0.9325	0.1461	0.6057	0.065
Mof_C 	C 	0.9519	0.18788	0.57002	0.057
Mof_H 	H 	0.9467	0.1907	0.5507	0.003
Mof_N 	N 	0.99967	0.25769	0.70573	-0.225
Mof_C 	C 	0.00161	0.28679	0.67581	0.056
Mof_H 	H 	0.0047	0.3061	0.6757	-0.001
Mof_C 	C 	0.99924	0.28982	0.6452	-0.095
Mof_H 	H 	0.0015	0.3105	0.6243	0.065
Mof_C 	C 	0.99358	0.26236	0.64516	0.005
Mof_H 	H 	0.9912	0.2642	0.6246	0.039
Mof_C 	C 	0.99165	0.23183	0.67643	-0.048
Mof_C 	C 	0.99497	0.23087	0.70565	0.038
Mof_H 	H 	0.9939	0.2101	0.7267	0.014
Mof_C 	C 	0.98825	0.20095	0.67741	0.132
Mof_N 	N 	0.97745	0.20665	0.65155	-0.147
Mof_C 	C 	0.97463	0.17659	0.65455	0.133
Mof_N 	N 	0.9815	0.14474	0.67898	-0.152
Mof_C 	C 	0.99285	0.14195	0.70281	0.132
Mof_N 	N 	0.99607	0.16961	0.70341	-0.149
Mof_C 	C 	0.00287	0.10627	0.72959	-0.049
Mof_C 	C 	0.01588	0.1	0.7549	0.008
Mof_H 	H 	0.019	0.1188	0.7556	0.039
Mof_C 	C 	0.02414	0.0655	0.77908	-0.097
Mof_H 	H 	0.0326	0.0604	0.797	0.067
Mof_C 	C 	0.02016	0.03822	0.7772	0.06
Mof_H 	H 	0.0259	0.0147	0.7941	0.003
Mof_N 	N 	0.00857	0.04401	0.75231	-0.225
Mof_N 	N 	0.00627	0.95579	0.74087	-0.228
Mof_C 	C 	0.03837	0.92907	0.73543	0.055
Mof_H 	H 	0.058	0.93	0.737	0.002
Mof_C 	C 	0.04398	0.90068	0.72764	-0.098
Mof_H 	H 	0.0669	0.8823	0.7245	0.066
Mof_C 	C 	0.01649	0.89897	0.72439	0.009
Mof_H 	H 	0.0202	0.8794	0.719	0.038
Mof_C 	C 	0.00031	0.07743	0.72893	0.038
Mof_H 	H 	0.9924	0.0816	0.711	0.012
Mof_C 	C 	0.98304	0.92624	0.72912	-0.053
Mof_C 	C 	0.97953	0.95353	0.73793	0.041
Mof_H 	H 	0.9567	0.9717	0.7421	0.013
Mof_C 	C 	0.95242	0.92498	0.72738	0.136
Mof_N 	N 	0.955	0.89472	0.72792	-0.152
Mof_N 	N 	0.80547	0.48857	0.23945	-0.257
Mof_N 	N 	0.77786	0.7215	0.03602	-0.263
Mof_C 	C 	0.83645	0.47999	0.22287	0.093
Mof_C 	C 	0.79455	0.70887	0.05461	0.101
Mof_S 	S 	0.87879	0.46921	0.19791	-0.062
Mof_S 	S 	0.81857	0.69007	0.08091	-0.06
Mof_N 	N 	0.75847	0.56417	0.21019	-0.223
Mof_C 	C 	0.72837	0.59261	0.20679	0.032
Mof_H 	H 	0.7057	0.5897	0.2231	0.014
Mof_C 	C 	0.72889	0.62609	0.18059	-0.046
Mof_C 	C 	0.76161	0.63073	0.15683	0.006
Mof_H 	H 	0.7626	0.653	0.1378	0.038
Mof_C 	C 	0.79278	0.60274	0.16112	-0.097
Mof_H 	H 	0.8157	0.6057	0.1461	0.065
Mof_C 	C 	0.7902	0.57002	0.18788	0.057
Mof_H 	H 	0.8119	0.5507	0.1907	0.003
Mof_N 	N 	0.53691	0.70573	0.25769	-0.225
Mof_C 	C 	0.53579	0.67581	0.28679	0.056
Mof_H 	H 	0.5135	0.6757	0.3061	-0.001
Mof_C 	C 	0.56574	0.6452	0.28982	-0.095
Mof_H 	H 	0.5637	0.6243	0.3105	0.065
Mof_C 	C 	0.5989	0.64516	0.26236	0.005
Mof_H 	H 	0.62	0.6246	0.2642	0.039
Mof_C 	C 	0.60009	0.67643	0.23183	-0.048
Mof_C 	C 	0.56851	0.70565	0.23087	0.038
Mof_H 	H 	0.5693	0.7267	0.2101	0.014
Mof_C 	C 	0.63339	0.67741	0.20095	0.132
Mof_N 	N 	0.66435	0.65155	0.20665	-0.147
Mof_C 	C 	0.69423	0.65455	0.17659	0.132
Mof_N 	N 	0.69478	0.67898	0.14474	-0.152
Mof_C 	C 	0.66239	0.70281	0.14195	0.132
Mof_N 	N 	0.63091	0.70341	0.16961	-0.149
Mof_C 	C 	0.66127	0.72959	0.10627	-0.049
Mof_C 	C 	0.62922	0.7549	0.1	0.008
Mof_H 	H 	0.6066	0.7556	0.1188	0.039
Mof_C 	C 	0.63128	0.77908	0.0655	-0.097
Mof_H 	H 	0.61	0.797	0.0604	0.067
Mof_C 	C 	0.66442	0.7772	0.03822	0.06
Mof_H 	H 	0.6653	0.7941	0.0147	0.003
Mof_N 	N 	0.69511	0.75231	0.04401	-0.225
Mof_N 	N 	0.79707	0.74087	0.95579	-0.228
Mof_C 	C 	0.79713	0.73543	0.92907	0.055
Mof_H 	H 	0.775	0.737	0.93	0.002
Mof_C 	C 	0.8277	0.72764	0.90068	-0.098
Mof_H 	H 	0.8263	0.7245	0.8823	0.066
Mof_C 	C 	0.86015	0.72439	0.89897	0.009
Mof_H 	H 	0.8814	0.719	0.8794	0.038
Mof_C 	C 	0.69333	0.72893	0.07743	0.038
Mof_H 	H 	0.715	0.711	0.0816	0.012
Mof_C 	C 	0.8616	0.72912	0.92624	-0.053
Mof_C 	C 	0.82901	0.73793	0.95353	0.041
Mof_H 	H 	0.8295	0.7421	0.9717	0.013
Mof_C 	C 	0.89522	0.72738	0.92498	0.136
Mof_N 	N 	0.92236	0.72792	0.89472	-0.152
Mof_N 	N 	0.48857	0.80547	0.96651	-0.257
Mof_N 	N 	0.7215	0.77786	0.96462	-0.263
Mof_C 	C 	0.47999	0.83645	0.96069	0.093
Mof_C 	C 	0.70887	0.79455	0.94197	0.101
Mof_S 	S 	0.46921	0.87879	0.95409	-0.062
Mof_S 	S 	0.69007	0.81857	0.91045	-0.06
Mof_N 	N 	0.56417	0.75847	0.96717	-0.223
Mof_C 	C 	0.59261	0.72837	0.97223	0.032
Mof_H 	H 	0.5897	0.7057	0.9815	0.014
Mof_C 	C 	0.62609	0.72889	0.96443	-0.046
Mof_C 	C 	0.63073	0.76161	0.95083	0.006
Mof_H 	H 	0.653	0.7626	0.9466	0.038
Mof_C 	C 	0.60274	0.79278	0.94336	-0.097
Mof_H 	H 	0.6057	0.8157	0.9325	0.065
Mof_C 	C 	0.57002	0.7902	0.9519	0.057
Mof_H 	H 	0.5507	0.8119	0.9467	0.003
Mof_N 	N 	0.70573	0.53691	0.99967	-0.225
Mof_C 	C 	0.67581	0.53579	0.00161	0.056
Mof_H 	H 	0.6757	0.5135	0.0047	-0.001
Mof_C 	C 	0.6452	0.56574	0.99924	-0.095
Mof_H 	H 	0.6243	0.5637	0.0015	0.065
Mof_C 	C 	0.64516	0.5989	0.99358	0.005
Mof_H 	H 	0.6246	0.62	0.9912	0.039
Mof_C 	C 	0.67643	0.60009	0.99165	-0.048
Mof_C 	C 	0.70565	0.56851	0.99497	0.038
Mof_H 	H 	0.7267	0.5693	0.9939	0.014
Mof_C 	C 	0.67741	0.63339	0.98825	0.132
Mof_N 	N 	0.65155	0.66435	0.97745	-0.147
Mof_C 	C 	0.65455	0.69423	0.97463	0.133
Mof_N 	N 	0.67898	0.69478	0.9815	-0.152
Mof_C 	C 	0.70281	0.66239	0.99285	0.132
Mof_N 	N 	0.70341	0.63091	0.99607	-0.149
Mof_C 	C 	0.72959	0.66127	0.00287	-0.049
Mof_C 	C 	0.7549	0.62922	0.01588	0.008
Mof_H 	H 	0.7556	0.6066	0.019	0.039
Mof_C 	C 	0.77908	0.63128	0.02414	-0.097
Mof_H 	H 	0.797	0.61	0.0326	0.067
Mof_C 	C 	0.7772	0.66442	0.02016	0.06
Mof_H 	H 	0.7941	0.6653	0.0259	0.003
Mof_N 	N 	0.75231	0.69511	0.00857	-0.225
Mof_N 	N 	0.74087	0.79707	0.00627	-0.228
Mof_C 	C 	0.73543	0.79713	0.03837	0.055
Mof_H 	H 	0.737	0.775	0.058	0.002
Mof_C 	C 	0.72764	0.8277	0.04398	-0.098
Mof_H 	H 	0.7245	0.8263	0.0669	0.066
Mof_C 	C 	0.72439	0.86015	0.01649	0.009
Mof_H 	H 	0.719	0.8814	0.0202	0.038
Mof_C 	C 	0.72893	0.69333	0.00031	0.038
Mof_H 	H 	0.711	0.715	0.9924	0.012
Mof_C 	C 	0.72912	0.8616	0.98304	-0.053
Mof_C 	C 	0.73793	0.82901	0.97953	0.041
Mof_H 	H 	0.7421	0.8295	0.9567	0.013
Mof_C 	C 	0.72738	0.89522	0.95242	0.136
Mof_N 	N 	0.72792	0.92236	0.955	-0.152
Mof_N 	N 	0.23945	0.96651	0.80547	-0.257
Mof_N 	N 	0.03602	0.96462	0.77786	-0.263
Mof_C 	C 	0.22287	0.96069	0.83645	0.093
Mof_C 	C 	0.05461	0.94197	0.79455	0.101
Mof_S 	S 	0.19791	0.95409	0.87879	-0.062
Mof_S 	S 	0.08091	0.91045	0.81857	-0.06
Mof_N 	N 	0.21019	0.96717	0.75847	-0.223
Mof_C 	C 	0.20679	0.97223	0.72837	0.032
Mof_H 	H 	0.2231	0.9815	0.7057	0.014
Mof_C 	C 	0.18059	0.96443	0.72889	-0.046
Mof_C 	C 	0.15683	0.95083	0.76161	0.006
Mof_H 	H 	0.1378	0.9466	0.7626	0.038
Mof_C 	C 	0.16112	0.94336	0.79278	-0.097
Mof_H 	H 	0.1461	0.9325	0.8157	0.065
Mof_C 	C 	0.18788	0.9519	0.7902	0.057
Mof_H 	H 	0.1907	0.9467	0.8119	0.003
Mof_N 	N 	0.25769	0.99967	0.53691	-0.225
Mof_C 	C 	0.28679	0.00161	0.53579	0.056
Mof_H 	H 	0.3061	0.0047	0.5135	-0.001
Mof_C 	C 	0.28982	0.99924	0.56574	-0.095
Mof_H 	H 	0.3105	0.0015	0.5637	0.065
Mof_C 	C 	0.26236	0.99358	0.5989	0.005
Mof_H 	H 	0.2642	0.9912	0.62	0.039
Mof_C 	C 	0.23183	0.99165	0.60009	-0.048
Mof_C 	C 	0.23087	0.99497	0.56851	0.038
Mof_H 	H 	0.2101	0.9939	0.5693	0.014
Mof_C 	C 	0.20095	0.98825	0.63339	0.132
Mof_N 	N 	0.20665	0.97745	0.66435	-0.147
Mof_C 	C 	0.17659	0.97463	0.69423	0.133
Mof_N 	N 	0.14474	0.9815	0.69478	-0.152
Mof_C 	C 	0.14195	0.99285	0.66239	0.132
Mof_N 	N 	0.16961	0.99607	0.63091	-0.149
Mof_C 	C 	0.10627	0.00287	0.66127	-0.049
Mof_C 	C 	0.1	0.01588	0.62922	0.008
Mof_H 	H 	0.1188	0.019	0.6066	0.039
Mof_C 	C 	0.0655	0.02414	0.63128	-0.097
Mof_H 	H 	0.0604	0.0326	0.61	0.067
Mof_C 	C 	0.03822	0.02016	0.66442	0.06
Mof_H 	H 	0.0147	0.0259	0.6653	0.003
Mof_N 	N 	0.04401	0.00857	0.69511	-0.225
Mof_N 	N 	0.95579	0.00627	0.79707	-0.228
Mof_C 	C 	0.92907	0.03837	0.79713	0.055
Mof_H 	H 	0.93	0.058	0.775	0.002
Mof_C 	C 	0.90068	0.04398	0.8277	-0.098
Mof_H 	H 	0.8823	0.0669	0.8263	0.066
Mof_C 	C 	0.89897	0.01649	0.86015	0.009
Mof_H 	H 	0.8794	0.0202	0.8814	0.038
Mof_C 	C 	0.07743	0.00031	0.69333	0.038
Mof_H 	H 	0.0816	0.9924	0.715	0.012
Mof_C 	C 	0.92624	0.98304	0.8616	-0.053
Mof_C 	C 	0.95353	0.97953	0.82901	0.041
Mof_H 	H 	0.9717	0.9567	0.8295	0.013
Mof_C 	C 	0.92498	0.95242	0.89522	0.136
Mof_N 	N 	0.89472	0.955	0.92236	-0.152
Mof_Co	Co	0.25	0.48702	0.75	1.12
Mof_Co	Co	0.48702	0.25	0.01298	1.12
Mof_Co	Co	0.75	0.01298	0.25	1.12
Mof_Co	Co	0.01298	0.75	0.48702	1.12
Mof_Co	Co	0.75	0.25	0.48702	1.12
Mof_Co	Co	0.01298	0.48702	0.25	1.12
Mof_Co	Co	0.25	0.75	0.01298	1.12
Mof_Co	Co	0.48702	0.01298	0.75	1.12
Mof_Co	Co	0.48702	0.75	0.25	1.12
Mof_Co	Co	0.25	0.01298	0.48702	1.12
Mof_Co	Co	0.01298	0.25	0.75	1.12
Mof_Co	Co	0.75	0.48702	0.01298	1.12
Mof_Co	Co	0.75	0.51298	0.25	1.12
Mof_Co	Co	0.51298	0.75	0.98702	1.12
Mof_Co	Co	0.25	0.98702	0.75	1.12
Mof_Co	Co	0.98702	0.25	0.51298	1.12
Mof_Co	Co	0.25	0.75	0.51298	1.12
Mof_Co	Co	0.98702	0.51298	0.75	1.12
Mof_Co	Co	0.75	0.25	0.98702	1.12
Mof_Co	Co	0.51298	0.98702	0.25	1.12
Mof_Co	Co	0.51298	0.25	0.75	1.12
Mof_Co	Co	0.75	0.98702	0.51298	1.12
Mof_Co	Co	0.98702	0.75	0.25	1.12
Mof_Co	Co	0.25	0.51298	0.98702	1.12
Mof_Co	Co	0.24812	0.50188	0.50188	1.123
Mof_Co	Co	0.50188	0.24812	0.24812	1.123
Mof_Co	Co	0.50188	0.24812	0.50188	1.123
Mof_Co	Co	0.24812	0.50188	0.24812	1.123
Mof_Co	Co	0.50188	0.50188	0.24812	1.123
Mof_Co	Co	0.24812	0.24812	0.50188	1.123
Mof_Co	Co	0.25188	0.99812	0.25188	1.123
Mof_Co	Co	0.99812	0.25188	0.99812	1.123
Mof_Co	Co	0.99812	0.25188	0.25188	1.123
Mof_Co	Co	0.25188	0.99812	0.99812	1.123
Mof_Co	Co	0.99812	0.99812	0.25188	1.123
Mof_Co	Co	0.25188	0.25188	0.99812	1.123
Mof_Co	Co	0.75188	0.49812	0.49812	1.123
Mof_Co	Co	0.49812	0.75188	0.75188	1.123
Mof_Co	Co	0.49812	0.75188	0.49812	1.123
Mof_Co	Co	0.75188	0.49812	0.75188	1.123
Mof_Co	Co	0.49812	0.49812	0.75188	1.123
Mof_Co	Co	0.75188	0.75188	0.49812	1.123
Mof_Co	Co	0.74812	0.00188	0.74812	1.123
Mof_Co	Co	0.00188	0.74812	0.00188	1.123
Mof_Co	Co	0.00188	0.74812	0.74812	1.123
Mof_Co	Co	0.74812	0.00188	0.00188	1.123
Mof_Co	Co	0.00188	0.00188	0.74812	1.123
Mof_Co	Co	0.74812	0.74812	0.00188	1.123
_end
