data_functionalizedCrystal
_audit_creation_method	'EQeq! by Chris Wilmer'
_symmetry_space_group_name_H-M	'P1'
_symmetry_Int_Tables_number	1
_symmetry_cell_setting	triclinic
loop_
_symmetry_equiv_pos_as_xyz
  x,y,z
_cell_length_a	8.8524
_cell_length_b	20.7005
_cell_length_c	34.194
_cell_angle_alpha	90
_cell_angle_beta	90
_cell_angle_gamma	90
loop_
_atom_site_label
_atom_site_type_symbol
_atom_site_fract_x
_atom_site_fract_y
_atom_site_fract_z
_atom_site_charge
Mof_O 	O 	0.7391	0.33325	0.6792	-0.568
Mof_O 	O 	0.5055	0.45792	0.615	-0.575
Mof_O 	O 	0.5043	0.33436	0.65728	-0.584
Mof_C 	C 	0.6046	0.3202	0.68237	0.552
Mof_C 	C 	0.5481	0.2841	0.71752	-0.149
Mof_C 	C 	0.5996	0.2309	0.77811	0.02
Mof_H 	H 	0.6683	0.2179	0.7971	0.028
Mof_C 	C 	0.6515	0.2655	0.74567	-0.005
Mof_H 	H 	0.7532	0.2758	0.7431	0.046
Mof_C 	C 	0.7584	0.5913	0.62551	0.007
Mof_H 	H 	0.8495	0.569	0.6266	0.037
Mof_O 	O 	0.7391	0.83325	0.1792	-0.567
Mof_O 	O 	0.5055	0.95792	0.115	-0.574
Mof_O 	O 	0.5043	0.83436	0.15728	-0.584
Mof_C 	C 	0.6046	0.8202	0.18237	0.552
Mof_C 	C 	0.5481	0.7841	0.21752	-0.149
Mof_C 	C 	0.5996	0.7309	0.27811	0.019
Mof_H 	H 	0.6683	0.7179	0.2971	0.028
Mof_C 	C 	0.6515	0.7655	0.24567	-0.005
Mof_H 	H 	0.7532	0.7758	0.2431	0.046
Mof_C 	C 	0.7584	0.0913	0.12551	0.006
Mof_H 	H 	0.8495	0.069	0.1266	0.038
Mof_O 	O 	0.2391	0.33325	0.1792	-0.567
Mof_O 	O 	0.0055	0.45792	0.115	-0.573
Mof_O 	O 	0.0043	0.33436	0.15728	-0.584
Mof_C 	C 	0.1046	0.3202	0.18237	0.553
Mof_C 	C 	0.0481	0.2841	0.21752	-0.152
Mof_C 	C 	0.0996	0.2309	0.27811	0.014
Mof_H 	H 	0.1683	0.2179	0.2971	0.03
Mof_C 	C 	0.1515	0.2655	0.24567	-0.001
Mof_H 	H 	0.2532	0.2758	0.2431	0.045
Mof_C 	C 	0.2584	0.5913	0.12551	0.008
Mof_H 	H 	0.3495	0.569	0.1266	0.037
Mof_O 	O 	0.2391	0.83325	0.6792	-0.566
Mof_O 	O 	0.0055	0.95792	0.615	-0.572
Mof_O 	O 	0.0043	0.83436	0.65728	-0.582
Mof_C 	C 	0.1046	0.8202	0.68237	0.551
Mof_C 	C 	0.0481	0.7841	0.71752	-0.145
Mof_C 	C 	0.0996	0.7309	0.77811	0.023
Mof_H 	H 	0.1683	0.7179	0.7971	0.027
Mof_C 	C 	0.1515	0.7655	0.74567	-0.008
Mof_H 	H 	0.2532	0.7758	0.7431	0.047
Mof_C 	C 	0.2584	0.0913	0.62551	0.01
Mof_H 	H 	0.3495	0.069	0.6266	0.037
Mof_O 	O 	0.0109	0.41675	0.6792	-0.567
Mof_O 	O 	0.2445	0.29208	0.615	-0.574
Mof_O 	O 	0.2457	0.41564	0.65728	-0.584
Mof_C 	C 	0.1454	0.4298	0.68237	0.552
Mof_C 	C 	0.2019	0.4659	0.71752	-0.149
Mof_C 	C 	0.1504	0.5191	0.77811	0.02
Mof_H 	H 	0.0817	0.5321	0.7971	0.028
Mof_C 	C 	0.0985	0.4845	0.74567	-0.006
Mof_H 	H 	0.9968	0.4742	0.7431	0.046
Mof_C 	C 	0.9916	0.1587	0.62551	0.006
Mof_H 	H 	0.9005	0.181	0.6266	0.038
Mof_O 	O 	0.0109	0.91675	0.1792	-0.565
Mof_O 	O 	0.2445	0.79208	0.115	-0.573
Mof_O 	O 	0.2457	0.91564	0.15728	-0.585
Mof_C 	C 	0.1454	0.9298	0.18237	0.555
Mof_C 	C 	0.2019	0.9659	0.21752	-0.156
Mof_C 	C 	0.1504	0.0191	0.27811	0.008
Mof_H 	H 	0.0817	0.0321	0.2971	0.031
Mof_C 	C 	0.0985	0.9845	0.24567	0.01
Mof_H 	H 	0.9968	0.9742	0.2431	0.039
Mof_C 	C 	0.9916	0.6587	0.12551	0.004
Mof_H 	H 	0.9005	0.681	0.1266	0.038
Mof_O 	O 	0.5109	0.41675	0.1792	-0.567
Mof_O 	O 	0.7445	0.29208	0.115	-0.574
Mof_O 	O 	0.7457	0.41564	0.15728	-0.584
Mof_C 	C 	0.6454	0.4298	0.18237	0.552
Mof_C 	C 	0.7019	0.4659	0.21752	-0.149
Mof_C 	C 	0.6504	0.5191	0.27811	0.019
Mof_H 	H 	0.5817	0.5321	0.2971	0.028
Mof_C 	C 	0.5985	0.4845	0.24567	-0.005
Mof_H 	H 	0.4968	0.4742	0.2431	0.046
Mof_C 	C 	0.4916	0.1587	0.12551	0.008
Mof_H 	H 	0.4005	0.181	0.1266	0.037
Mof_O 	O 	0.5109	0.91675	0.6792	-0.566
Mof_O 	O 	0.7445	0.79208	0.615	-0.574
Mof_O 	O 	0.7457	0.91564	0.65728	-0.583
Mof_C 	C 	0.6454	0.9298	0.68237	0.549
Mof_C 	C 	0.7019	0.9659	0.71752	-0.142
Mof_C 	C 	0.6504	0.0191	0.77811	0.028
Mof_H 	H 	0.5817	0.0321	0.7971	0.026
Mof_C 	C 	0.5985	0.9845	0.74567	-0.013
Mof_H 	H 	0.4968	0.9742	0.7431	0.049
Mof_C 	C 	0.4916	0.6587	0.62551	0.007
Mof_H 	H 	0.4005	0.681	0.6266	0.038
Mof_O 	O 	0.0109	0.33325	0.0708	-0.567
Mof_O 	O 	0.2445	0.45792	0.135	-0.574
Mof_O 	O 	0.2457	0.33436	0.09272	-0.584
Mof_C 	C 	0.1454	0.3202	0.06763	0.552
Mof_C 	C 	0.2019	0.2841	0.03248	-0.149
Mof_C 	C 	0.1504	0.2309	0.97189	0.018
Mof_H 	H 	0.0817	0.2179	0.9529	0.028
Mof_C 	C 	0.0985	0.2655	0.00433	-0.004
Mof_H 	H 	0.9968	0.2758	0.0069	0.046
Mof_C 	C 	0.9916	0.5913	0.12449	0.006
Mof_H 	H 	0.9005	0.569	0.1234	0.038
Mof_O 	O 	0.0109	0.83325	0.5708	-0.565
Mof_O 	O 	0.2445	0.95792	0.635	-0.574
Mof_O 	O 	0.2457	0.83436	0.59272	-0.584
Mof_C 	C 	0.1454	0.8202	0.56763	0.553
Mof_C 	C 	0.2019	0.7841	0.53248	-0.151
Mof_C 	C 	0.1504	0.7309	0.47189	0.017
Mof_H 	H 	0.0817	0.7179	0.4529	0.029
Mof_C 	C 	0.0985	0.7655	0.50433	-0
Mof_H 	H 	0.9968	0.7758	0.5069	0.043
Mof_C 	C 	0.9916	0.0913	0.62449	0.011
Mof_H 	H 	0.9005	0.069	0.6234	0.037
Mof_O 	O 	0.5109	0.33325	0.5708	-0.567
Mof_O 	O 	0.7445	0.45792	0.635	-0.574
Mof_O 	O 	0.7457	0.33436	0.59272	-0.584
Mof_C 	C 	0.6454	0.3202	0.56763	0.552
Mof_C 	C 	0.7019	0.2841	0.53248	-0.147
Mof_C 	C 	0.6504	0.2309	0.47189	0.021
Mof_H 	H 	0.5817	0.2179	0.4529	0.028
Mof_C 	C 	0.5985	0.2655	0.50433	-0.007
Mof_H 	H 	0.4968	0.2758	0.5069	0.046
Mof_C 	C 	0.4916	0.5913	0.62449	0.007
Mof_H 	H 	0.4005	0.569	0.6234	0.038
Mof_O 	O 	0.5109	0.83325	0.0708	-0.567
Mof_O 	O 	0.7445	0.95792	0.135	-0.574
Mof_O 	O 	0.7457	0.83436	0.09272	-0.584
Mof_C 	C 	0.6454	0.8202	0.06763	0.552
Mof_C 	C 	0.7019	0.7841	0.03248	-0.148
Mof_C 	C 	0.6504	0.7309	0.97189	0.02
Mof_H 	H 	0.5817	0.7179	0.9529	0.028
Mof_C 	C 	0.5985	0.7655	0.00433	-0.006
Mof_H 	H 	0.4968	0.7758	0.0069	0.046
Mof_C 	C 	0.4916	0.0913	0.12449	0.006
Mof_H 	H 	0.4005	0.069	0.1234	0.038
Mof_O 	O 	0.7391	0.41675	0.0708	-0.567
Mof_O 	O 	0.5055	0.29208	0.135	-0.574
Mof_O 	O 	0.5043	0.41564	0.09272	-0.584
Mof_C 	C 	0.6046	0.4298	0.06763	0.552
Mof_C 	C 	0.5481	0.4659	0.03248	-0.149
Mof_C 	C 	0.5996	0.5191	0.97189	0.02
Mof_H 	H 	0.6683	0.5321	0.9529	0.028
Mof_C 	C 	0.6515	0.4845	0.00433	-0.005
Mof_H 	H 	0.7532	0.4742	0.0069	0.046
Mof_C 	C 	0.7584	0.1587	0.12449	0.008
Mof_H 	H 	0.8495	0.181	0.1234	0.037
Mof_O 	O 	0.7391	0.91675	0.5708	-0.567
Mof_O 	O 	0.5055	0.79208	0.635	-0.574
Mof_O 	O 	0.5043	0.91564	0.59272	-0.584
Mof_C 	C 	0.6046	0.9298	0.56763	0.552
Mof_C 	C 	0.5481	0.9659	0.53248	-0.149
Mof_C 	C 	0.5996	0.0191	0.47189	0.021
Mof_H 	H 	0.6683	0.0321	0.4529	0.028
Mof_C 	C 	0.6515	0.9845	0.50433	-0.006
Mof_H 	H 	0.7532	0.9742	0.5069	0.046
Mof_C 	C 	0.7584	0.6587	0.62449	0.007
Mof_H 	H 	0.8495	0.681	0.6234	0.037
Mof_O 	O 	0.2391	0.41675	0.5708	-0.567
Mof_O 	O 	0.0055	0.29208	0.635	-0.574
Mof_O 	O 	0.0043	0.41564	0.59272	-0.584
Mof_C 	C 	0.1046	0.4298	0.56763	0.552
Mof_C 	C 	0.0481	0.4659	0.53248	-0.149
Mof_C 	C 	0.0996	0.5191	0.47189	0.019
Mof_H 	H 	0.1683	0.5321	0.4529	0.028
Mof_C 	C 	0.1515	0.4845	0.50433	-0.005
Mof_H 	H 	0.2532	0.4742	0.5069	0.046
Mof_C 	C 	0.2584	0.1587	0.62449	0.005
Mof_H 	H 	0.3495	0.181	0.6234	0.038
Mof_O 	O 	0.2391	0.91675	0.0708	-0.566
Mof_O 	O 	0.0055	0.79208	0.135	-0.571
Mof_O 	O 	0.0043	0.91564	0.09272	-0.581
Mof_C 	C 	0.1046	0.9298	0.06763	0.551
Mof_C 	C 	0.0481	0.9659	0.03248	-0.145
Mof_C 	C 	0.0996	0.0191	0.97189	0.011
Mof_H 	H 	0.1683	0.0321	0.9529	0.03
Mof_C 	C 	0.1515	0.9845	0.00433	-0.001
Mof_H 	H 	0.2532	0.9742	0.0069	0.045
Mof_C 	C 	0.2584	0.6587	0.12449	0.006
Mof_H 	H 	0.3495	0.681	0.1234	0.038
Mof_O 	O 	0.2609	0.66675	0.3208	-0.567
Mof_O 	O 	0.4945	0.54208	0.385	-0.574
Mof_O 	O 	0.4957	0.66564	0.34272	-0.584
Mof_C 	C 	0.3954	0.6798	0.31763	0.552
Mof_C 	C 	0.4519	0.7159	0.28248	-0.149
Mof_C 	C 	0.4004	0.7691	0.22189	0.02
Mof_H 	H 	0.3317	0.7821	0.2029	0.028
Mof_C 	C 	0.3485	0.7345	0.25433	-0.005
Mof_H 	H 	0.2468	0.7242	0.2569	0.046
Mof_C 	C 	0.2416	0.4087	0.37449	0.007
Mof_H 	H 	0.1505	0.431	0.3734	0.037
Mof_O 	O 	0.2609	0.16675	0.8208	-0.567
Mof_O 	O 	0.4945	0.04208	0.885	-0.574
Mof_O 	O 	0.4957	0.16564	0.84272	-0.584
Mof_C 	C 	0.3954	0.1798	0.81763	0.552
Mof_C 	C 	0.4519	0.2159	0.78248	-0.149
Mof_C 	C 	0.4004	0.2691	0.72189	0.019
Mof_H 	H 	0.3317	0.2821	0.7029	0.028
Mof_C 	C 	0.3485	0.2345	0.75433	-0.005
Mof_H 	H 	0.2468	0.2242	0.7569	0.046
Mof_C 	C 	0.2416	0.9087	0.87449	0.006
Mof_H 	H 	0.1505	0.931	0.8734	0.038
Mof_O 	O 	0.7609	0.66675	0.8208	-0.567
Mof_O 	O 	0.9945	0.54208	0.885	-0.573
Mof_O 	O 	0.9957	0.66564	0.84272	-0.584
Mof_C 	C 	0.8954	0.6798	0.81763	0.553
Mof_C 	C 	0.9519	0.7159	0.78248	-0.152
Mof_C 	C 	0.9004	0.7691	0.72189	0.014
Mof_H 	H 	0.8317	0.7821	0.7029	0.03
Mof_C 	C 	0.8485	0.7345	0.75433	-0.001
Mof_H 	H 	0.7468	0.7242	0.7569	0.045
Mof_C 	C 	0.7416	0.4087	0.87449	0.008
Mof_H 	H 	0.6505	0.431	0.8734	0.037
Mof_O 	O 	0.7609	0.16675	0.3208	-0.566
Mof_O 	O 	0.9945	0.04208	0.385	-0.572
Mof_O 	O 	0.9957	0.16564	0.34272	-0.582
Mof_C 	C 	0.8954	0.1798	0.31763	0.551
Mof_C 	C 	0.9519	0.2159	0.28248	-0.145
Mof_C 	C 	0.9004	0.2691	0.22189	0.023
Mof_H 	H 	0.8317	0.2821	0.2029	0.027
Mof_C 	C 	0.8485	0.2345	0.25433	-0.008
Mof_H 	H 	0.7468	0.2242	0.2569	0.047
Mof_C 	C 	0.7416	0.9087	0.37449	0.01
Mof_H 	H 	0.6505	0.931	0.3734	0.037
Mof_O 	O 	0.9891	0.58325	0.3208	-0.567
Mof_O 	O 	0.7555	0.70792	0.385	-0.574
Mof_O 	O 	0.7543	0.58436	0.34272	-0.584
Mof_C 	C 	0.8546	0.5702	0.31763	0.552
Mof_C 	C 	0.7981	0.5341	0.28248	-0.149
Mof_C 	C 	0.8496	0.4809	0.22189	0.02
Mof_H 	H 	0.9183	0.4679	0.2029	0.028
Mof_C 	C 	0.9015	0.5155	0.25433	-0.006
Mof_H 	H 	0.0032	0.5258	0.2569	0.046
Mof_C 	C 	0.0084	0.8413	0.37449	0.006
Mof_H 	H 	0.0995	0.819	0.3734	0.038
Mof_O 	O 	0.9891	0.08325	0.8208	-0.565
Mof_O 	O 	0.7555	0.20792	0.885	-0.573
Mof_O 	O 	0.7543	0.08436	0.84272	-0.585
Mof_C 	C 	0.8546	0.0702	0.81763	0.555
Mof_C 	C 	0.7981	0.0341	0.78248	-0.156
Mof_C 	C 	0.8496	0.9809	0.72189	0.008
Mof_H 	H 	0.9183	0.9679	0.7029	0.031
Mof_C 	C 	0.9015	0.0155	0.75433	0.01
Mof_H 	H 	0.0032	0.0258	0.7569	0.039
Mof_C 	C 	0.0084	0.3413	0.87449	0.004
Mof_H 	H 	0.0995	0.319	0.8734	0.038
Mof_O 	O 	0.4891	0.58325	0.8208	-0.567
Mof_O 	O 	0.2555	0.70792	0.885	-0.574
Mof_O 	O 	0.2543	0.58436	0.84272	-0.584
Mof_C 	C 	0.3546	0.5702	0.81763	0.552
Mof_C 	C 	0.2981	0.5341	0.78248	-0.149
Mof_C 	C 	0.3496	0.4809	0.72189	0.019
Mof_H 	H 	0.4183	0.4679	0.7029	0.028
Mof_C 	C 	0.4015	0.5155	0.75433	-0.005
Mof_H 	H 	0.5032	0.5258	0.7569	0.046
Mof_C 	C 	0.5084	0.8413	0.87449	0.008
Mof_H 	H 	0.5995	0.819	0.8734	0.037
Mof_O 	O 	0.4891	0.08325	0.3208	-0.566
Mof_O 	O 	0.2555	0.20792	0.385	-0.574
Mof_O 	O 	0.2543	0.08436	0.34272	-0.583
Mof_C 	C 	0.3546	0.0702	0.31763	0.549
Mof_C 	C 	0.2981	0.0341	0.28248	-0.142
Mof_C 	C 	0.3496	0.9809	0.22189	0.028
Mof_H 	H 	0.4183	0.9679	0.2029	0.026
Mof_C 	C 	0.4015	0.0155	0.25433	-0.013
Mof_H 	H 	0.5032	0.0258	0.2569	0.049
Mof_C 	C 	0.5084	0.3413	0.37449	0.007
Mof_H 	H 	0.5995	0.319	0.3734	0.038
Mof_O 	O 	0.9891	0.66675	0.9292	-0.567
Mof_O 	O 	0.7555	0.54208	0.865	-0.574
Mof_O 	O 	0.7543	0.66564	0.90728	-0.584
Mof_C 	C 	0.8546	0.6798	0.93237	0.552
Mof_C 	C 	0.7981	0.7159	0.96752	-0.149
Mof_C 	C 	0.8496	0.7691	0.02811	0.018
Mof_H 	H 	0.9183	0.7821	0.0471	0.028
Mof_C 	C 	0.9015	0.7345	0.99567	-0.004
Mof_H 	H 	0.0032	0.7242	0.9931	0.046
Mof_C 	C 	0.0084	0.4087	0.87551	0.006
Mof_H 	H 	0.0995	0.431	0.8766	0.038
Mof_O 	O 	0.9891	0.16675	0.4292	-0.565
Mof_O 	O 	0.7555	0.04208	0.365	-0.574
Mof_O 	O 	0.7543	0.16564	0.40728	-0.584
Mof_C 	C 	0.8546	0.1798	0.43237	0.553
Mof_C 	C 	0.7981	0.2159	0.46752	-0.151
Mof_C 	C 	0.8496	0.2691	0.52811	0.017
Mof_H 	H 	0.9183	0.2821	0.5471	0.029
Mof_C 	C 	0.9015	0.2345	0.49567	-0
Mof_H 	H 	0.0032	0.2242	0.4931	0.043
Mof_C 	C 	0.0084	0.9087	0.37551	0.011
Mof_H 	H 	0.0995	0.931	0.3766	0.037
Mof_O 	O 	0.4891	0.66675	0.4292	-0.567
Mof_O 	O 	0.2555	0.54208	0.365	-0.574
Mof_O 	O 	0.2543	0.66564	0.40728	-0.584
Mof_C 	C 	0.3546	0.6798	0.43237	0.552
Mof_C 	C 	0.2981	0.7159	0.46752	-0.147
Mof_C 	C 	0.3496	0.7691	0.52811	0.021
Mof_H 	H 	0.4183	0.7821	0.5471	0.028
Mof_C 	C 	0.4015	0.7345	0.49567	-0.007
Mof_H 	H 	0.5032	0.7242	0.4931	0.046
Mof_C 	C 	0.5084	0.4087	0.37551	0.007
Mof_H 	H 	0.5995	0.431	0.3766	0.038
Mof_O 	O 	0.4891	0.16675	0.9292	-0.567
Mof_O 	O 	0.2555	0.04208	0.865	-0.574
Mof_O 	O 	0.2543	0.16564	0.90728	-0.584
Mof_C 	C 	0.3546	0.1798	0.93237	0.552
Mof_C 	C 	0.2981	0.2159	0.96752	-0.148
Mof_C 	C 	0.3496	0.2691	0.02811	0.02
Mof_H 	H 	0.4183	0.2821	0.0471	0.028
Mof_C 	C 	0.4015	0.2345	0.99567	-0.006
Mof_H 	H 	0.5032	0.2242	0.9931	0.046
Mof_C 	C 	0.5084	0.9087	0.87551	0.006
Mof_H 	H 	0.5995	0.931	0.8766	0.038
Mof_O 	O 	0.2609	0.58325	0.9292	-0.567
Mof_O 	O 	0.4945	0.70792	0.865	-0.574
Mof_O 	O 	0.4957	0.58436	0.90728	-0.584
Mof_C 	C 	0.3954	0.5702	0.93237	0.552
Mof_C 	C 	0.4519	0.5341	0.96752	-0.149
Mof_C 	C 	0.4004	0.4809	0.02811	0.02
Mof_H 	H 	0.3317	0.4679	0.0471	0.028
Mof_C 	C 	0.3485	0.5155	0.99567	-0.005
Mof_H 	H 	0.2468	0.5258	0.9931	0.046
Mof_C 	C 	0.2416	0.8413	0.87551	0.008
Mof_H 	H 	0.1505	0.819	0.8766	0.037
Mof_O 	O 	0.2609	0.08325	0.4292	-0.567
Mof_O 	O 	0.4945	0.20792	0.365	-0.574
Mof_O 	O 	0.4957	0.08436	0.40728	-0.584
Mof_C 	C 	0.3954	0.0702	0.43237	0.552
Mof_C 	C 	0.4519	0.0341	0.46752	-0.149
Mof_C 	C 	0.4004	0.9809	0.52811	0.021
Mof_H 	H 	0.3317	0.9679	0.5471	0.028
Mof_C 	C 	0.3485	0.0155	0.49567	-0.006
Mof_H 	H 	0.2468	0.0258	0.4931	0.046
Mof_C 	C 	0.2416	0.3413	0.37551	0.007
Mof_H 	H 	0.1505	0.319	0.3766	0.037
Mof_O 	O 	0.7609	0.58325	0.4292	-0.567
Mof_O 	O 	0.9945	0.70792	0.365	-0.574
Mof_O 	O 	0.9957	0.58436	0.40728	-0.584
Mof_C 	C 	0.8954	0.5702	0.43237	0.552
Mof_C 	C 	0.9519	0.5341	0.46752	-0.149
Mof_C 	C 	0.9004	0.4809	0.52811	0.019
Mof_H 	H 	0.8317	0.4679	0.5471	0.028
Mof_C 	C 	0.8485	0.5155	0.49567	-0.005
Mof_H 	H 	0.7468	0.5258	0.4931	0.046
Mof_C 	C 	0.7416	0.8413	0.37551	0.005
Mof_H 	H 	0.6505	0.819	0.3766	0.038
Mof_O 	O 	0.7609	0.08325	0.9292	-0.566
Mof_O 	O 	0.9945	0.20792	0.865	-0.571
Mof_O 	O 	0.9957	0.08436	0.90728	-0.581
Mof_C 	C 	0.8954	0.0702	0.93237	0.551
Mof_C 	C 	0.9519	0.0341	0.96752	-0.145
Mof_C 	C 	0.9004	0.9809	0.02811	0.011
Mof_H 	H 	0.8317	0.9679	0.0471	0.03
Mof_C 	C 	0.8485	0.0155	0.99567	-0.001
Mof_H 	H 	0.7468	0.0258	0.9931	0.045
Mof_C 	C 	0.7416	0.3413	0.87551	0.006
Mof_H 	H 	0.6505	0.319	0.8766	0.038
Mof_Sc	Sc	0.375	0.375	0.61411	1.977
Mof_Sc	Sc	0.375	0.875	0.11411	1.978
Mof_Sc	Sc	0.875	0.375	0.11411	1.976
Mof_Sc	Sc	0.875	0.875	0.61411	1.972
Mof_Sc	Sc	0.375	0.375	0.13589	1.978
Mof_Sc	Sc	0.375	0.875	0.63589	1.978
Mof_Sc	Sc	0.875	0.375	0.63589	1.977
Mof_Sc	Sc	0.875	0.875	0.13589	1.971
Mof_Sc	Sc	0.625	0.625	0.38589	1.977
Mof_Sc	Sc	0.625	0.125	0.88589	1.978
Mof_Sc	Sc	0.125	0.625	0.88589	1.976
Mof_Sc	Sc	0.125	0.125	0.38589	1.972
Mof_Sc	Sc	0.625	0.625	0.86411	1.978
Mof_Sc	Sc	0.625	0.125	0.36411	1.978
Mof_Sc	Sc	0.125	0.625	0.36411	1.977
Mof_Sc	Sc	0.125	0.125	0.86411	1.971
Mof_C 	C 	0.625	0.5579	0.625	-0.149
Mof_C 	C 	0.625	0.4858	0.625	0.548
Mof_C 	C 	0.625	0.0579	0.125	-0.148
Mof_C 	C 	0.625	0.9858	0.125	0.547
Mof_C 	C 	0.125	0.1921	0.625	-0.148
Mof_C 	C 	0.125	0.2642	0.625	0.548
Mof_C 	C 	0.125	0.6921	0.125	-0.145
Mof_C 	C 	0.125	0.7642	0.125	0.547
Mof_C 	C 	0.625	0.6921	0.625	-0.149
Mof_C 	C 	0.625	0.7642	0.625	0.548
Mof_C 	C 	0.125	0.5579	0.125	-0.148
Mof_C 	C 	0.125	0.4858	0.125	0.548
Mof_C 	C 	0.125	0.0579	0.625	-0.154
Mof_C 	C 	0.125	0.9858	0.625	0.551
Mof_C 	C 	0.625	0.1921	0.125	-0.149
Mof_C 	C 	0.625	0.2642	0.125	0.549
Mof_C 	C 	0.375	0.4421	0.375	-0.149
Mof_C 	C 	0.375	0.5142	0.375	0.548
Mof_C 	C 	0.375	0.9421	0.875	-0.148
Mof_C 	C 	0.375	0.0142	0.875	0.547
Mof_C 	C 	0.875	0.8079	0.375	-0.148
Mof_C 	C 	0.875	0.7358	0.375	0.548
Mof_C 	C 	0.875	0.3079	0.875	-0.145
Mof_C 	C 	0.875	0.2358	0.875	0.547
Mof_C 	C 	0.875	0.4421	0.875	-0.148
Mof_C 	C 	0.875	0.5142	0.875	0.548
Mof_C 	C 	0.875	0.9421	0.375	-0.154
Mof_C 	C 	0.875	0.0142	0.375	0.551
Mof_C 	C 	0.375	0.8079	0.875	-0.149
Mof_C 	C 	0.375	0.7358	0.875	0.549
Mof_C 	C 	0.375	0.3079	0.375	-0.149
Mof_C 	C 	0.375	0.2358	0.375	0.548
_end
