data_functionalizedCrystal
_audit_creation_method	'EQeq! by Chris Wilmer'
_symmetry_space_group_name_H-M	'P1'
_symmetry_Int_Tables_number	1
_symmetry_cell_setting	triclinic
loop_
_symmetry_equiv_pos_as_xyz
  x,y,z
_cell_length_a	21.2772
_cell_length_b	21.418
_cell_length_c	36.01
_cell_angle_alpha	90
_cell_angle_beta	90
_cell_angle_gamma	90
loop_
_atom_site_label
_atom_site_type_symbol
_atom_site_fract_x
_atom_site_fract_y
_atom_site_fract_z
_atom_site_charge
Mof_In	In	0.07272	0.83738	0.05048	1.456
Mof_In	In	0.08748	0.68969	0.10546	1.463
Mof_In	In	0.9235	0.74481	0.05273	1.48
Mof_In	In	0.98959	0.84376	0.14101	1.46
Mof_In	In	0.07936	0.54804	0.16271	1.434
Mof_In	In	0.92912	0.58353	0.11342	1.486
Mof_In	In	0.99057	0.68347	0.203	1.468
Mof_In	In	0.7829	0.64229	0.06845	1.436
Mof_In	In	0.82839	0.73661	0.15038	1.48
Mof_In	In	0.89719	0.82493	0.2294	1.448
Mof_S 	S 	0.1466	0.7537	0.06327	-0.735
Mof_S 	S 	0.9858	0.8066	0.01076	-0.735
Mof_S 	S 	0.0499	0.9097	0.10009	-0.737
Mof_S 	S 	0.1527	0.6028	0.1232	-0.744
Mof_S 	S 	0.9906	0.6537	0.07198	-1.126
Mof_S 	S 	0.0551	0.7519	0.1613	-1.107
Mof_S 	S 	0.8319	0.7067	0.02044	-0.73
Mof_S 	S 	0.8919	0.8057	0.10853	-1.12
Mof_S 	S 	0.9569	0.9019	0.19486	-0.741
Mof_S 	S 	0.9943	0.4964	0.13042	-0.752
Mof_S 	S 	0.0533	0.5959	0.22215	-0.736
Mof_S 	S 	0.8384	0.5449	0.08049	-0.745
Mof_S 	S 	0.8949	0.6457	0.16851	-1.132
Mof_S 	S 	0.9564	0.7401	0.25701	-0.743
Mof_S 	S 	0.7361	0.6949	0.12033	-0.751
Mof_S 	S 	0.7959	0.7943	0.20448	-0.749
Mof_N 	N 	0.1305	0.8872	0.0106	-0.297
Mof_N 	N 	0.2022	0.8901	0.9633	-0.299
Mof_N 	N 	0.127	0.4663	0.1849	-0.296
Mof_N 	N 	0.1305	0.3836	0.2236	-0.297
Mof_C 	C 	0.1789	0.8584	0.9922	0.088
Mof_H 	H 	0.1947	0.8188	0.9995	-0.039
Mof_C 	C 	0.1224	0.9431	0.9896	0.05
Mof_C 	C 	0.0784	0.9902	0.9944	-0.101
Mof_H 	H 	0.0468	0.9872	0.0129	0.042
Mof_C 	C 	0.0818	0.0409	0.9716	-0.022
Mof_H 	H 	0.0559	0.0762	0.9763	0.004
Mof_C 	C 	0.1239	0.0414	0.9409	-0.04
Mof_H 	H 	0.1224	0.0748	0.9236	0.011
Mof_C 	C 	0.1673	0.9931	0.9359	-0.096
Mof_H 	H 	0.1952	0.9928	0.9153	0.033
Mof_C 	C 	0.1683	0.945	0.9624	0.051
Mof_C 	C 	0.1042	0.4384	0.2166	0.086
Mof_H 	H 	0.0728	0.4566	0.2319	-0.043
Mof_C 	C 	0.1707	0.3736	0.1944	0.045
Mof_C 	C 	0.2141	0.3218	0.1859	-0.096
Mof_H 	H 	0.2172	0.2858	0.2012	0.032
Mof_C 	C 	0.2494	0.3293	0.1546	-0.031
Mof_H 	H 	0.2747	0.2955	0.1464	0.006
Mof_C 	C 	0.25	0.382	0.1349	-0.014
Mof_H 	H 	0.2811	0.3872	0.1164	0.006
Mof_C 	C 	0.2078	0.4298	0.14	-0.117
Mof_H 	H 	0.2057	0.4651	0.124	0.047
Mof_C 	C 	0.1696	0.4224	0.1694	0.058
Mof_In	In	0.42728	0.16262	0.55048	1.454
Mof_In	In	0.41252	0.31031	0.60546	1.462
Mof_In	In	0.5765	0.25519	0.55273	1.48
Mof_In	In	0.51041	0.15624	0.64101	1.464
Mof_In	In	0.42064	0.45196	0.66271	1.434
Mof_In	In	0.57088	0.41647	0.61342	1.487
Mof_In	In	0.50943	0.31653	0.703	1.47
Mof_In	In	0.7171	0.35771	0.56845	1.436
Mof_In	In	0.67161	0.26339	0.65038	1.48
Mof_In	In	0.60281	0.17507	0.7294	1.448
Mof_S 	S 	0.3534	0.2463	0.56327	-0.734
Mof_S 	S 	0.5142	0.1934	0.51076	-0.733
Mof_S 	S 	0.4501	0.0903	0.60009	-0.74
Mof_S 	S 	0.3473	0.3972	0.6232	-0.744
Mof_S 	S 	0.5094	0.3463	0.57198	-1.126
Mof_S 	S 	0.4449	0.2481	0.6613	-1.11
Mof_S 	S 	0.6681	0.2933	0.52044	-0.73
Mof_S 	S 	0.6081	0.1943	0.60853	-1.121
Mof_S 	S 	0.5431	0.0981	0.69486	-0.74
Mof_S 	S 	0.5057	0.5036	0.63042	-0.753
Mof_S 	S 	0.4467	0.4041	0.72215	-0.737
Mof_S 	S 	0.6616	0.4551	0.58049	-0.745
Mof_S 	S 	0.6051	0.3543	0.66851	-1.132
Mof_S 	S 	0.5436	0.2599	0.75701	-0.743
Mof_S 	S 	0.7639	0.3051	0.62033	-0.751
Mof_S 	S 	0.7041	0.2057	0.70448	-0.748
Mof_N 	N 	0.3695	0.1128	0.5106	-0.297
Mof_N 	N 	0.2978	0.1099	0.4633	-0.299
Mof_N 	N 	0.373	0.5337	0.6849	-0.296
Mof_N 	N 	0.3695	0.6164	0.7236	-0.297
Mof_C 	C 	0.3211	0.1416	0.4922	0.088
Mof_H 	H 	0.3053	0.1812	0.4995	-0.039
Mof_C 	C 	0.3776	0.0569	0.4896	0.05
Mof_C 	C 	0.4216	0.0098	0.4944	-0.102
Mof_H 	H 	0.4532	0.0128	0.5129	0.041
Mof_C 	C 	0.4182	0.9591	0.4716	-0.02
Mof_H 	H 	0.4441	0.9238	0.4763	0.005
Mof_C 	C 	0.3761	0.9586	0.4409	-0.036
Mof_H 	H 	0.3776	0.9252	0.4236	0.01
Mof_C 	C 	0.3327	0.0069	0.4359	-0.1
Mof_H 	H 	0.3048	0.0072	0.4153	0.034
Mof_C 	C 	0.3317	0.055	0.4624	0.052
Mof_C 	C 	0.3958	0.5616	0.7166	0.086
Mof_H 	H 	0.4272	0.5434	0.7319	-0.043
Mof_C 	C 	0.3293	0.6264	0.6944	0.045
Mof_C 	C 	0.2859	0.6782	0.6859	-0.096
Mof_H 	H 	0.2828	0.7142	0.7012	0.032
Mof_C 	C 	0.2506	0.6707	0.6546	-0.031
Mof_H 	H 	0.2253	0.7045	0.6464	0.006
Mof_C 	C 	0.25	0.618	0.6349	-0.014
Mof_H 	H 	0.2189	0.6128	0.6164	0.006
Mof_C 	C 	0.2922	0.5702	0.64	-0.117
Mof_H 	H 	0.2943	0.5349	0.624	0.047
Mof_C 	C 	0.3304	0.5776	0.6694	0.058
Mof_In	In	0.92728	0.33738	0.44952	1.456
Mof_In	In	0.91252	0.18969	0.39454	1.465
Mof_In	In	0.0765	0.24481	0.44727	1.48
Mof_In	In	0.01041	0.34376	0.35899	1.463
Mof_In	In	0.92064	0.04804	0.33729	1.436
Mof_In	In	0.07088	0.08353	0.38658	1.481
Mof_In	In	0.00943	0.18347	0.297	1.464
Mof_In	In	0.2171	0.14229	0.43155	1.436
Mof_In	In	0.17161	0.23661	0.34962	1.48
Mof_In	In	0.10281	0.32493	0.2706	1.448
Mof_S 	S 	0.8534	0.2537	0.43673	-0.735
Mof_S 	S 	0.0142	0.3066	0.48924	-0.734
Mof_S 	S 	0.9501	0.4097	0.39991	-0.739
Mof_S 	S 	0.8473	0.1028	0.3768	-0.744
Mof_S 	S 	0.0094	0.1537	0.42802	-1.127
Mof_S 	S 	0.9449	0.2519	0.3387	-1.108
Mof_S 	S 	0.1681	0.2067	0.47956	-0.73
Mof_S 	S 	0.1081	0.3057	0.39147	-1.121
Mof_S 	S 	0.0431	0.4019	0.30514	-0.74
Mof_S 	S 	0.0057	0.9964	0.36958	-0.748
Mof_S 	S 	0.9467	0.0959	0.27785	-0.734
Mof_S 	S 	0.1616	0.0449	0.41951	-0.746
Mof_S 	S 	0.1051	0.1457	0.33149	-1.132
Mof_S 	S 	0.0436	0.2401	0.24299	-0.743
Mof_S 	S 	0.2639	0.1949	0.37967	-0.751
Mof_S 	S 	0.2041	0.2943	0.29552	-0.749
Mof_N 	N 	0.8695	0.3872	0.4894	-0.297
Mof_N 	N 	0.7978	0.3901	0.5367	-0.299
Mof_N 	N 	0.873	0.9663	0.3151	-0.298
Mof_N 	N 	0.8695	0.8836	0.2764	-0.297
Mof_C 	C 	0.8211	0.3584	0.5078	0.088
Mof_H 	H 	0.8053	0.3188	0.5005	-0.039
Mof_C 	C 	0.8776	0.4431	0.5104	0.05
Mof_C 	C 	0.9216	0.4902	0.5056	-0.101
Mof_H 	H 	0.9532	0.4872	0.4871	0.041
Mof_C 	C 	0.9182	0.5409	0.5284	-0.02
Mof_H 	H 	0.9441	0.5762	0.5237	0.005
Mof_C 	C 	0.8761	0.5414	0.5591	-0.037
Mof_H 	H 	0.8776	0.5748	0.5764	0.01
Mof_C 	C 	0.8327	0.4931	0.5641	-0.098
Mof_H 	H 	0.8048	0.4928	0.5847	0.034
Mof_C 	C 	0.8317	0.445	0.5376	0.052
Mof_C 	C 	0.8958	0.9384	0.2834	0.086
Mof_H 	H 	0.9272	0.9566	0.2681	-0.044
Mof_C 	C 	0.8293	0.8736	0.3056	0.045
Mof_C 	C 	0.7859	0.8218	0.3141	-0.096
Mof_H 	H 	0.7828	0.7858	0.2988	0.032
Mof_C 	C 	0.7506	0.8293	0.3454	-0.031
Mof_H 	H 	0.7253	0.7955	0.3536	0.006
Mof_C 	C 	0.75	0.882	0.3651	-0.014
Mof_H 	H 	0.7189	0.8872	0.3836	0.006
Mof_C 	C 	0.7922	0.9298	0.36	-0.117
Mof_H 	H 	0.7943	0.9651	0.376	0.046
Mof_C 	C 	0.8304	0.9224	0.3306	0.057
Mof_In	In	0.57272	0.66262	0.94952	1.454
Mof_In	In	0.58748	0.81031	0.89454	1.462
Mof_In	In	0.4235	0.75519	0.94727	1.48
Mof_In	In	0.48959	0.65624	0.85899	1.464
Mof_In	In	0.57936	0.95196	0.83729	1.431
Mof_In	In	0.42912	0.91647	0.88658	1.486
Mof_In	In	0.49057	0.81653	0.797	1.47
Mof_In	In	0.2829	0.85771	0.93155	1.436
Mof_In	In	0.32839	0.76339	0.84962	1.48
Mof_In	In	0.39719	0.67507	0.7706	1.448
Mof_S 	S 	0.6466	0.7463	0.93673	-0.735
Mof_S 	S 	0.4858	0.6934	0.98924	-0.733
Mof_S 	S 	0.5499	0.5903	0.89991	-0.74
Mof_S 	S 	0.6527	0.8972	0.8768	-0.745
Mof_S 	S 	0.4906	0.8463	0.92802	-1.126
Mof_S 	S 	0.5551	0.7481	0.8387	-1.11
Mof_S 	S 	0.3319	0.7933	0.97956	-0.731
Mof_S 	S 	0.3919	0.6943	0.89147	-1.121
Mof_S 	S 	0.4569	0.5981	0.80514	-0.74
Mof_S 	S 	0.4943	0.0036	0.86958	-0.753
Mof_S 	S 	0.5533	0.9041	0.77785	-0.737
Mof_S 	S 	0.3384	0.9551	0.91951	-0.745
Mof_S 	S 	0.3949	0.8543	0.83149	-1.132
Mof_S 	S 	0.4564	0.7599	0.74299	-0.743
Mof_S 	S 	0.2361	0.8051	0.87967	-0.751
Mof_S 	S 	0.2959	0.7057	0.79552	-0.749
Mof_N 	N 	0.6305	0.6128	0.9894	-0.297
Mof_N 	N 	0.7022	0.6099	0.0367	-0.299
Mof_N 	N 	0.627	0.0337	0.8151	-0.296
Mof_N 	N 	0.6305	0.1164	0.7764	-0.297
Mof_C 	C 	0.6789	0.6416	0.0078	0.088
Mof_H 	H 	0.6947	0.6812	0.0005	-0.039
Mof_C 	C 	0.6224	0.5569	0.0104	0.05
Mof_C 	C 	0.5784	0.5098	0.0056	-0.102
Mof_H 	H 	0.5468	0.5128	0.9871	0.041
Mof_C 	C 	0.5818	0.4591	0.0284	-0.02
Mof_H 	H 	0.5559	0.4238	0.0237	0.005
Mof_C 	C 	0.6239	0.4586	0.0591	-0.038
Mof_H 	H 	0.6224	0.4252	0.0764	0.01
Mof_C 	C 	0.6673	0.5069	0.0641	-0.098
Mof_H 	H 	0.6952	0.5072	0.0847	0.034
Mof_C 	C 	0.6683	0.555	0.0376	0.052
Mof_C 	C 	0.6042	0.0616	0.7834	0.086
Mof_H 	H 	0.5728	0.0434	0.7681	-0.043
Mof_C 	C 	0.6707	0.1264	0.8056	0.045
Mof_C 	C 	0.7141	0.1782	0.8141	-0.096
Mof_H 	H 	0.7172	0.2142	0.7988	0.032
Mof_C 	C 	0.7494	0.1707	0.8454	-0.031
Mof_H 	H 	0.7747	0.2045	0.8536	0.006
Mof_C 	C 	0.75	0.118	0.8651	-0.014
Mof_H 	H 	0.7811	0.1128	0.8836	0.006
Mof_C 	C 	0.7078	0.0702	0.86	-0.117
Mof_H 	H 	0.7057	0.0349	0.876	0.047
Mof_C 	C 	0.6696	0.0776	0.8306	0.058
Mof_In	In	0.90422	0.43969	0.82318	1.44
Mof_In	In	0.89403	0.30634	0.88892	1.456
Mof_In	In	0.04847	0.42049	0.88354	1.458
Mof_In	In	0.00585	0.30576	0.79535	1.472
Mof_In	In	0.90435	0.16689	0.94985	1.463
Mof_In	In	0.04725	0.26817	0.95298	1.475
Mof_In	In	0.00502	0.15434	0.86565	1.475
Mof_In	In	0.18308	0.37657	0.94148	1.442
Mof_In	In	0.15837	0.27003	0.85975	1.474
Mof_In	In	0.11051	0.16593	0.78272	1.443
Mof_S 	S 	0.8276	0.3856	0.86055	-0.736
Mof_S 	S 	0.9822	0.5002	0.85663	-0.742
Mof_S 	S 	0.9415	0.3863	0.76773	-0.73
Mof_S 	S 	0.8304	0.2467	0.9311	-0.739
Mof_S 	S 	0.9822	0.3543	0.92546	-1.117
Mof_S 	S 	0.9399	0.2409	0.83806	-1.116
Mof_S 	S 	0.1326	0.4691	0.91755	-0.756
Mof_S 	S 	0.0924	0.3549	0.83181	-1.119
Mof_S 	S 	0.0479	0.2397	0.74682	-0.737
Mof_S 	S 	0.9858	0.201	0.9924	-0.736
Mof_S 	S 	0.9372	0.0919	0.90423	-0.74
Mof_S 	S 	0.1289	0.3171	0.98882	-0.74
Mof_S 	S 	0.0927	0.2036	0.90195	-1.118
Mof_S 	S 	0.0516	0.0904	0.8183	-0.749
Mof_S 	S 	0.2408	0.3169	0.89591	-0.749
Mof_S 	S 	0.2039	0.2083	0.81088	-0.757
Mof_N 	N 	0.854	0.5176	0.7968	-0.306
Mof_N 	N 	0.8526	0.603	0.7607	-0.305
Mof_N 	N 	0.8436	0.1109	0.9853	-0.303
Mof_N 	N 	0.7616	0.0925	0.023	-0.298
Mof_C 	C 	0.8818	0.5536	0.7718	0.132
Mof_H 	H 	0.9221	0.5434	0.7623	-0.069
Mof_C 	C 	0.7986	0.5487	0.803	0.056
Mof_C 	C 	0.751	0.5352	0.8289	-0.109
Mof_H 	H 	0.7533	0.5007	0.8454	0.05
Mof_C 	C 	0.6986	0.5775	0.8284	-0.04
Mof_H 	H 	0.6628	0.568	0.843	0.025
Mof_C 	C 	0.6983	0.633	0.8068	-0.028
Mof_H 	H 	0.6673	0.6645	0.8101	0.01
Mof_C 	C 	0.7453	0.6385	0.7811	-0.113
Mof_H 	H 	0.7417	0.6702	0.7628	0.045
Mof_C 	C 	0.7949	0.6024	0.7802	0.05
Mof_C 	C 	0.788	0.1301	0.9984	0.109
Mof_H 	H 	0.7689	0.168	0.9906	-0.048
Mof_C 	C 	0.8586	0.0597	0.0072	0.058
Mof_C 	C 	0.9088	0.0218	0.0056	-0.11
Mof_H 	H 	0.9413	0.0279	0.9879	0.044
Mof_C 	C 	0.911	0.9727	0.0315	-0.016
Mof_H 	H 	0.9471	0.9467	0.0328	-0.002
Mof_C 	C 	0.861	0.9622	0.0547	-0.036
Mof_H 	H 	0.8631	0.9286	0.0719	0.011
Mof_C 	C 	0.8079	0.9987	0.054	-0.109
Mof_H 	H 	0.7734	0.99	0.07	0.036
Mof_C 	C 	0.8062	0.0478	0.0298	0.054
Mof_In	In	0.59578	0.56031	0.32318	1.44
Mof_In	In	0.60597	0.69366	0.38892	1.456
Mof_In	In	0.45153	0.57951	0.38354	1.461
Mof_In	In	0.49415	0.69424	0.29535	1.475
Mof_In	In	0.59565	0.83311	0.44985	1.462
Mof_In	In	0.45275	0.73183	0.45298	1.481
Mof_In	In	0.49498	0.84566	0.36565	1.482
Mof_In	In	0.31692	0.62343	0.44148	1.442
Mof_In	In	0.34163	0.72997	0.35975	1.474
Mof_In	In	0.38949	0.83407	0.28272	1.443
Mof_S 	S 	0.6724	0.6144	0.36055	-0.736
Mof_S 	S 	0.5178	0.4998	0.35663	-0.743
Mof_S 	S 	0.5585	0.6137	0.26773	-0.732
Mof_S 	S 	0.6696	0.7533	0.4311	-0.739
Mof_S 	S 	0.5178	0.6457	0.42546	-1.12
Mof_S 	S 	0.5601	0.7591	0.33806	-1.12
Mof_S 	S 	0.3674	0.5309	0.41755	-0.756
Mof_S 	S 	0.4076	0.6451	0.33181	-1.12
Mof_S 	S 	0.4521	0.7603	0.24682	-0.737
Mof_S 	S 	0.5142	0.799	0.4924	-0.74
Mof_S 	S 	0.5628	0.9081	0.40423	-0.744
Mof_S 	S 	0.3711	0.6829	0.48882	-0.74
Mof_S 	S 	0.4073	0.7964	0.40195	-1.12
Mof_S 	S 	0.4484	0.9096	0.3183	-0.749
Mof_S 	S 	0.2592	0.6831	0.39591	-0.748
Mof_S 	S 	0.2961	0.7917	0.31088	-0.756
Mof_N 	N 	0.646	0.4824	0.2968	-0.306
Mof_N 	N 	0.6474	0.397	0.2607	-0.305
Mof_N 	N 	0.6564	0.8891	0.4853	-0.304
Mof_N 	N 	0.7384	0.9075	0.523	-0.297
Mof_C 	C 	0.6182	0.4464	0.2718	0.132
Mof_H 	H 	0.5779	0.4566	0.2623	-0.07
Mof_C 	C 	0.7014	0.4513	0.303	0.056
Mof_C 	C 	0.749	0.4648	0.3289	-0.109
Mof_H 	H 	0.7467	0.4993	0.3454	0.049
Mof_C 	C 	0.8014	0.4225	0.3284	-0.04
Mof_H 	H 	0.8372	0.432	0.343	0.026
Mof_C 	C 	0.8017	0.367	0.3068	-0.028
Mof_H 	H 	0.8327	0.3355	0.3101	0.01
Mof_C 	C 	0.7547	0.3615	0.2811	-0.113
Mof_H 	H 	0.7583	0.3298	0.2628	0.045
Mof_C 	C 	0.7051	0.3976	0.2802	0.05
Mof_C 	C 	0.712	0.8699	0.4984	0.108
Mof_H 	H 	0.7311	0.832	0.4906	-0.047
Mof_C 	C 	0.6414	0.9403	0.5072	0.063
Mof_C 	C 	0.5912	0.9782	0.5056	-0.118
Mof_H 	H 	0.5587	0.9721	0.4879	0.046
Mof_C 	C 	0.589	0.0273	0.5315	-0.006
Mof_H 	H 	0.5529	0.0533	0.5328	-0.004
Mof_C 	C 	0.639	0.0378	0.5547	-0.044
Mof_H 	H 	0.6369	0.0714	0.5719	0.014
Mof_C 	C 	0.6921	0.0013	0.554	-0.099
Mof_H 	H 	0.7266	0.01	0.57	0.034
Mof_C 	C 	0.6938	0.9522	0.5298	0.046
Mof_In	In	0.09578	0.93969	0.67682	1.446
Mof_In	In	0.10597	0.80634	0.61108	1.456
Mof_In	In	0.95153	0.92049	0.61646	1.457
Mof_In	In	0.99415	0.80576	0.70465	1.471
Mof_In	In	0.09565	0.66689	0.55015	1.463
Mof_In	In	0.95275	0.76817	0.54702	1.476
Mof_In	In	0.99498	0.65434	0.63435	1.48
Mof_In	In	0.81692	0.87657	0.55852	1.441
Mof_In	In	0.84163	0.77003	0.64025	1.474
Mof_In	In	0.88949	0.66593	0.71728	1.443
Mof_S 	S 	0.1724	0.8856	0.63945	-0.736
Mof_S 	S 	0.0178	0.0002	0.64337	-0.747
Mof_S 	S 	0.0585	0.8863	0.73227	-0.73
Mof_S 	S 	0.1696	0.7467	0.5689	-0.739
Mof_S 	S 	0.0178	0.8543	0.57454	-1.116
Mof_S 	S 	0.0601	0.7409	0.66194	-1.117
Mof_S 	S 	0.8674	0.9691	0.58245	-0.757
Mof_S 	S 	0.9076	0.8549	0.66819	-1.119
Mof_S 	S 	0.9521	0.7397	0.75318	-0.737
Mof_S 	S 	0.0142	0.701	0.5076	-0.737
Mof_S 	S 	0.0628	0.5919	0.59577	-0.743
Mof_S 	S 	0.8711	0.8171	0.51118	-0.74
Mof_S 	S 	0.9073	0.7036	0.59805	-1.119
Mof_S 	S 	0.9484	0.5904	0.6817	-0.748
Mof_S 	S 	0.7592	0.8169	0.60409	-0.749
Mof_S 	S 	0.7961	0.7083	0.68912	-0.757
Mof_N 	N 	0.146	0.0176	0.7032	-0.308
Mof_N 	N 	0.1474	0.103	0.7393	-0.305
Mof_N 	N 	0.1564	0.6109	0.5147	-0.304
Mof_N 	N 	0.2384	0.5925	0.477	-0.297
Mof_C 	C 	0.1182	0.0536	0.7282	0.132
Mof_H 	H 	0.0779	0.0434	0.7377	-0.07
Mof_C 	C 	0.2014	0.0487	0.697	0.056
Mof_C 	C 	0.249	0.0352	0.6711	-0.109
Mof_H 	H 	0.2467	0.0007	0.6546	0.049
Mof_C 	C 	0.3014	0.0775	0.6716	-0.04
Mof_H 	H 	0.3372	0.068	0.657	0.025
Mof_C 	C 	0.3017	0.133	0.6932	-0.028
Mof_H 	H 	0.3327	0.1645	0.6899	0.01
Mof_C 	C 	0.2547	0.1385	0.7189	-0.113
Mof_H 	H 	0.2583	0.1702	0.7372	0.045
Mof_C 	C 	0.2051	0.1024	0.7198	0.05
Mof_C 	C 	0.212	0.6301	0.5016	0.108
Mof_H 	H 	0.2311	0.668	0.5094	-0.047
Mof_C 	C 	0.1414	0.5597	0.4928	0.062
Mof_C 	C 	0.0912	0.5218	0.4944	-0.115
Mof_H 	H 	0.0587	0.5279	0.5121	0.045
Mof_C 	C 	0.089	0.4727	0.4685	-0.009
Mof_H 	H 	0.0529	0.4467	0.4672	-0.003
Mof_C 	C 	0.139	0.4622	0.4453	-0.041
Mof_H 	H 	0.1369	0.4286	0.4281	0.013
Mof_C 	C 	0.1921	0.4987	0.446	-0.103
Mof_H 	H 	0.2266	0.49	0.43	0.035
Mof_C 	C 	0.1938	0.5478	0.4702	0.049
Mof_In	In	0.40422	0.06031	0.17682	1.437
Mof_In	In	0.39403	0.19366	0.11108	1.456
Mof_In	In	0.54847	0.07951	0.11646	1.46
Mof_In	In	0.50585	0.19424	0.20465	1.476
Mof_In	In	0.40435	0.33311	0.05015	1.462
Mof_In	In	0.54725	0.23183	0.04702	1.481
Mof_In	In	0.50502	0.34566	0.13435	1.482
Mof_In	In	0.68308	0.12343	0.05852	1.442
Mof_In	In	0.65837	0.22997	0.14025	1.474
Mof_In	In	0.61051	0.33407	0.21728	1.443
Mof_S 	S 	0.3276	0.1144	0.13945	-0.737
Mof_S 	S 	0.4822	0.9998	0.14337	-0.743
Mof_S 	S 	0.4415	0.1137	0.23227	-0.732
Mof_S 	S 	0.3304	0.2533	0.0689	-0.74
Mof_S 	S 	0.4822	0.1457	0.07454	-1.121
Mof_S 	S 	0.4399	0.2591	0.16194	-1.12
Mof_S 	S 	0.6326	0.0309	0.08245	-0.757
Mof_S 	S 	0.5924	0.1451	0.16819	-1.12
Mof_S 	S 	0.5479	0.2603	0.25318	-0.737
Mof_S 	S 	0.4858	0.299	0.0076	-0.74
Mof_S 	S 	0.4372	0.4081	0.09577	-0.744
Mof_S 	S 	0.6289	0.1829	0.01118	-0.74
Mof_S 	S 	0.5927	0.2964	0.09805	-1.12
Mof_S 	S 	0.5516	0.4096	0.1817	-0.749
Mof_S 	S 	0.7408	0.1831	0.10409	-0.749
Mof_S 	S 	0.7039	0.2917	0.18912	-0.757
Mof_N 	N 	0.354	0.9824	0.2032	-0.306
Mof_N 	N 	0.3526	0.897	0.2393	-0.305
Mof_N 	N 	0.3436	0.3891	0.0147	-0.304
Mof_N 	N 	0.2616	0.4075	0.977	-0.297
Mof_C 	C 	0.3818	0.9464	0.2282	0.132
Mof_H 	H 	0.4221	0.9566	0.2377	-0.07
Mof_C 	C 	0.2986	0.9513	0.197	0.056
Mof_C 	C 	0.251	0.9648	0.1711	-0.109
Mof_H 	H 	0.2533	0.9993	0.1546	0.05
Mof_C 	C 	0.1986	0.9225	0.1716	-0.04
Mof_H 	H 	0.1628	0.932	0.157	0.026
Mof_C 	C 	0.1983	0.867	0.1932	-0.028
Mof_H 	H 	0.1673	0.8355	0.1899	0.01
Mof_C 	C 	0.2453	0.8615	0.2189	-0.113
Mof_H 	H 	0.2417	0.8298	0.2372	0.045
Mof_C 	C 	0.2949	0.8976	0.2198	0.05
Mof_C 	C 	0.288	0.3699	0.0016	0.108
Mof_H 	H 	0.2689	0.332	0.0094	-0.048
Mof_C 	C 	0.3586	0.4403	0.9928	0.062
Mof_C 	C 	0.4088	0.4782	0.9944	-0.115
Mof_H 	H 	0.4413	0.4721	0.0121	0.045
Mof_C 	C 	0.411	0.5273	0.9685	-0.01
Mof_H 	H 	0.4471	0.5533	0.9672	-0.003
Mof_C 	C 	0.361	0.5378	0.9453	-0.041
Mof_H 	H 	0.3631	0.5714	0.9281	0.013
Mof_C 	C 	0.3079	0.5013	0.946	-0.103
Mof_H 	H 	0.2734	0.51	0.93	0.035
Mof_C 	C 	0.3062	0.4522	0.9702	0.049
_end
