data_functionalizedCrystal
_audit_creation_method	'EQeq! by Chris Wilmer'
_symmetry_space_group_name_H-M	'P1'
_symmetry_Int_Tables_number	1
_symmetry_cell_setting	triclinic
loop_
_symmetry_equiv_pos_as_xyz
  x,y,z
_cell_length_a	14.3753
_cell_length_b	11.941
_cell_length_c	10.176
_cell_angle_alpha	90
_cell_angle_beta	91.102
_cell_angle_gamma	90
loop_
_atom_site_label
_atom_site_type_symbol
_atom_site_fract_x
_atom_site_fract_y
_atom_site_fract_z
_atom_site_charge
Mof_Ga	Ga	0.24892	0.50074	0.49654	3.862
Mof_Ga	Ga	0.08756	0.375	0.67343	3.406
Mof_Ga	Ga	0.41102	0.3618	0.34566	3.865
Mof_Ga	Ga	0.08628	0.63219	0.6602	3.447
Mof_Ga	Ga	0.40943	0.63365	0.33075	3.774
Mof_P 	P 	0.12517	0.30083	0.39212	0.97
Mof_P 	P 	0.12352	0.69281	0.37549	1.003
Mof_P 	P 	0.37583	0.69768	0.61121	1.013
Mof_P 	P 	0.3765	0.31177	0.62928	0.999
Mof_O 	O 	0.131	0.5005	0.5928	-2.177
Mof_O 	O 	0.3676	0.4991	0.3913	-2.282
Mof_O 	O 	0.2093	0.3767	0.3826	-1.05
Mof_O 	O 	0.2928	0.6195	0.6157	-1.036
Mof_O 	O 	0.041	0.359	0.325	-1.205
Mof_O 	O 	0.207	0.6147	0.3705	-1.057
Mof_O 	O 	0.0403	0.6341	0.3084	-1.19
Mof_O 	O 	0.1436	0.189	0.3196	-1.106
Mof_O 	O 	0.461	0.6388	0.673	-1.248
Mof_O 	O 	0.1443	0.8	0.2985	-1.167
Mof_O 	O 	0.1021	0.7291	0.5163	-1.041
Mof_O 	O 	0.2966	0.3942	0.6293	-1.029
Mof_O 	O 	0.395	0.27	0.489	-1.191
Mof_O 	O 	0.4638	0.3685	0.6917	-1.238
Mof_O 	O 	0.3558	0.8037	0.6876	-1.06
Mof_O 	O 	0.3514	0.2084	0.7099	-1.073
Mof_O 	O 	0.1076	0.2694	0.5365	-1.001
Mof_O 	O 	0.3949	0.7347	0.4686	-1.146
Mof_Ga	Ga	0.25108	0.00074	0.00346	3.554
Mof_Ga	Ga	0.41244	0.875	0.82657	3.321
Mof_Ga	Ga	0.08898	0.8618	0.15434	3.899
Mof_Ga	Ga	0.41372	0.13219	0.8398	3.448
Mof_Ga	Ga	0.09057	0.13365	0.16925	3.624
Mof_P 	P 	0.37483	0.80083	0.10788	0.979
Mof_P 	P 	0.37648	0.19281	0.12451	0.97
Mof_P 	P 	0.12417	0.19768	0.88879	1.027
Mof_P 	P 	0.1235	0.81177	0.87072	0.974
Mof_O 	O 	0.369	0.0005	0.9072	-2.089
Mof_O 	O 	0.1324	0.9991	0.1087	-2.187
Mof_O 	O 	0.2907	0.8767	0.1174	-0.988
Mof_O 	O 	0.2072	0.1195	0.8843	-0.975
Mof_O 	O 	0.459	0.859	0.175	-1.193
Mof_O 	O 	0.293	0.1147	0.1295	-1.017
Mof_O 	O 	0.4597	0.1341	0.1916	-1.177
Mof_O 	O 	0.3564	0.689	0.1804	-1.13
Mof_O 	O 	0.039	0.1388	0.827	-1.249
Mof_O 	O 	0.3557	0.3	0.2015	-1.162
Mof_O 	O 	0.3979	0.2291	0.9837	-1.018
Mof_O 	O 	0.2034	0.8942	0.8707	-0.987
Mof_O 	O 	0.105	0.77	0.011	-1.179
Mof_O 	O 	0.0362	0.8685	0.8083	-1.203
Mof_O 	O 	0.1442	0.3037	0.8124	-1.075
Mof_O 	O 	0.1486	0.7084	0.7901	-1.069
Mof_O 	O 	0.3924	0.7694	0.9635	-0.998
Mof_O 	O 	0.1051	0.2347	0.0314	-1.145
Mof_Ga	Ga	0.75108	0.49926	0.50346	3.863
Mof_Ga	Ga	0.91244	0.625	0.32657	3.407
Mof_Ga	Ga	0.58898	0.6382	0.65434	3.866
Mof_Ga	Ga	0.91372	0.36781	0.3398	3.448
Mof_Ga	Ga	0.59057	0.36635	0.66925	3.775
Mof_P 	P 	0.87483	0.69917	0.60788	0.971
Mof_P 	P 	0.87648	0.30719	0.62451	1.003
Mof_P 	P 	0.62417	0.30232	0.38879	1.013
Mof_P 	P 	0.6235	0.68823	0.37072	0.999
Mof_O 	O 	0.869	0.4995	0.4072	-2.177
Mof_O 	O 	0.6324	0.5009	0.6087	-2.282
Mof_O 	O 	0.7907	0.6233	0.6174	-1.05
Mof_O 	O 	0.7072	0.3805	0.3843	-1.036
Mof_O 	O 	0.959	0.641	0.675	-1.205
Mof_O 	O 	0.793	0.3853	0.6295	-1.057
Mof_O 	O 	0.9597	0.3659	0.6916	-1.19
Mof_O 	O 	0.8564	0.811	0.6804	-1.106
Mof_O 	O 	0.539	0.3612	0.327	-1.248
Mof_O 	O 	0.8557	0.2	0.7015	-1.167
Mof_O 	O 	0.8979	0.2709	0.4837	-1.041
Mof_O 	O 	0.7034	0.6058	0.3707	-1.029
Mof_O 	O 	0.605	0.73	0.511	-1.191
Mof_O 	O 	0.5362	0.6315	0.3083	-1.238
Mof_O 	O 	0.6442	0.1963	0.3124	-1.06
Mof_O 	O 	0.6486	0.7916	0.2901	-1.073
Mof_O 	O 	0.8924	0.7306	0.4635	-1.001
Mof_O 	O 	0.6051	0.2653	0.5314	-1.146
Mof_Ga	Ga	0.74892	0.99926	0.99654	3.554
Mof_Ga	Ga	0.58756	0.125	0.17343	3.321
Mof_Ga	Ga	0.91102	0.1382	0.84566	3.899
Mof_Ga	Ga	0.58628	0.86781	0.1602	3.448
Mof_Ga	Ga	0.90943	0.86635	0.83075	3.624
Mof_P 	P 	0.62517	0.19917	0.89212	0.979
Mof_P 	P 	0.62352	0.80719	0.87549	0.97
Mof_P 	P 	0.87583	0.80232	0.11121	1.027
Mof_P 	P 	0.8765	0.18823	0.12928	0.974
Mof_O 	O 	0.631	0.9995	0.0928	-2.089
Mof_O 	O 	0.8676	0.0009	0.8913	-2.187
Mof_O 	O 	0.7093	0.1233	0.8826	-0.988
Mof_O 	O 	0.7928	0.8805	0.1157	-0.975
Mof_O 	O 	0.541	0.141	0.825	-1.193
Mof_O 	O 	0.707	0.8853	0.8705	-1.017
Mof_O 	O 	0.5403	0.8659	0.8084	-1.177
Mof_O 	O 	0.6436	0.311	0.8196	-1.13
Mof_O 	O 	0.961	0.8612	0.173	-1.249
Mof_O 	O 	0.6443	0.7	0.7985	-1.162
Mof_O 	O 	0.6021	0.7709	0.0163	-1.018
Mof_O 	O 	0.7966	0.1058	0.1293	-0.987
Mof_O 	O 	0.895	0.23	0.989	-1.179
Mof_O 	O 	0.9638	0.1315	0.1917	-1.203
Mof_O 	O 	0.8558	0.6963	0.1876	-1.075
Mof_O 	O 	0.8514	0.2916	0.2099	-1.069
Mof_O 	O 	0.6076	0.2306	0.0365	-0.998
Mof_O 	O 	0.8949	0.7653	0.9686	-1.145
_end
