data_functionalizedCrystal
_audit_creation_method	'EQeq! by Chris Wilmer'
_symmetry_space_group_name_H-M	'P1'
_symmetry_Int_Tables_number	1
_symmetry_cell_setting	triclinic
loop_
_symmetry_equiv_pos_as_xyz
  x,y,z
_cell_length_a	12.355
_cell_length_b	33.452
_cell_length_c	12.952
_cell_angle_alpha	90
_cell_angle_beta	97.63
_cell_angle_gamma	90
loop_
_atom_site_label
_atom_site_type_symbol
_atom_site_fract_x
_atom_site_fract_y
_atom_site_fract_z
_atom_site_charge
Mof_Mn	Mn	0.7923	0.06795	0.39752	0.889
Mof_N 	N 	0.6109	0.13092	0.3078	-0.139
Mof_O 	O 	0.9664	0.0551	0.4029	-0.337
Mof_O 	O 	0.7211	0.01273	0.3487	-0.425
Mof_N 	N 	0.7929	0.08652	0.2279	-0.182
Mof_N 	N 	0.6345	0.10029	0.3763	-0.191
Mof_N 	N 	0.7406	0.12017	0.1894	-0.135
Mof_C 	C 	0.8231	0.06754	0.1451	0.31
Mof_O 	O 	0.9206	0.02624	0.6178	-0.405
Mof_O 	O 	0.7953	0.0696	0.5591	-0.436
Mof_O 	O 	0.938	0.11949	0.4126	-0.234
Mof_C 	C 	0.7014	0.14795	0.2608	0.017
Mof_H 	H 	0.677	0.1728	0.2232	0.015
Mof_H 	H 	0.7616	0.1549	0.3162	0.032
Mof_C 	C 	0.7643	0.97961	0.3716	0.426
Mof_C 	C 	1.07137e-17	0.09088	0.4016	0.18
Mof_C 	C 	0.2853	0.07079	0.3436	-0.175
Mof_H 	H 	0.3261	0.0485	0.3245	0.08
Mof_C 	C 	0.5375	0.0885	0.4014	0.272
Mof_C 	C 	0.503	0.13858	0.2893	0.254
Mof_C 	C 	0.8347	0.06039	0.741	-0.253
Mof_C 	C 	0.4526	0.11209	0.3488	-0.252
Mof_C 	C 	0.7887	0.089	0.0536	-0.297
Mof_C 	C 	0.3362	0.10776	0.3574	0.159
Mof_C 	C 	0.7032	0.94259	0.3342	-0.217
Mof_C 	C 	0.7361	0.12286	0.0843	0.286
Mof_C 	C 	0.1164	0.09769	0.3846	-0.109
Mof_C 	C 	0.8531	0.05111	0.6293	0.47
Mof_C 	C 	0.8055	0.07887	0.946	0.288
Mof_C 	C 	0.1634	0.13518	0.3966	0.044
Mof_H 	H 	0.1215	0.1575	0.4134	0.001
Mof_N 	N 	0.4373	0.78493	0.1729	-0.13
Mof_C 	C 	0.8827	0.02849	0.1574	-0.693
Mof_H 	H 	0.9321	0.0263	0.1044	0.237
Mof_H 	H 	0.83	0.0065	0.1489	0.228
Mof_H 	H 	0.9251	0.0271	0.2268	0.249
Mof_C 	C 	0.6817	0.15645	0.0221	-0.639
Mof_H 	H 	0.7188	0.1816	0.0437	0.22
Mof_H 	H 	0.6051	0.1581	0.0338	0.198
Mof_H 	H 	0.6856	0.1518	0.948	0.212
Mof_C 	C 	0.5044	0.83902	0.2487	-0.255
Mof_C 	C 	0.2727	0.13997	0.3837	-0.176
Mof_H 	H 	0.305	0.1657	0.3929	0.074
Mof_C 	C 	0.5768	0.87473	0.2752	0.197
Mof_C 	C 	0.5307	0.05402	0.4733	-0.653
Mof_H 	H 	0.5261	0.0291	0.4333	0.208
Mof_H 	H 	0.4655	0.0568	0.5084	0.218
Mof_H 	H 	0.5959	0.0535	0.5253	0.211
Mof_N 	N 	0.3686	0.79405	0.2475	-0.182
Mof_C 	C 	0.414	0.82623	0.293	0.251
Mof_C 	C 	0.5177	0.81177	0.172	0.236
Mof_C 	C 	0.7331	0.07	0.7663	0.087
Mof_H 	H 	0.6712	0.0695	0.7143	-0.015
Mof_C 	C 	0.456	0.16865	0.2125	-0.596
Mof_H 	H 	0.4907	0.1946	0.2291	0.179
Mof_H 	H 	0.3773	0.1709	0.2149	0.184
Mof_H 	H 	0.4687	0.1604	0.1425	0.179
Mof_C 	C 	0.5836	0.9024	0.2106	-0.236
Mof_H 	H 	0.5465	0.8999	0.1418	0.096
Mof_C 	C 	0.9213	0.0549	0.822	0.092
Mof_H 	H 	0.9888	0.0441	0.8075	0.018
Mof_C 	C 	0.3693	0.84505	0.3844	-0.597
Mof_H 	H 	0.3718	0.8742	0.3783	0.199
Mof_H 	H 	0.4134	0.8367	0.4493	0.188
Mof_H 	H 	0.2935	0.8365	0.3849	0.175
Mof_C 	C 	0.6065	0.80933	0.1	-0.582
Mof_H 	H 	0.6668	0.7927	0.1326	0.192
Mof_H 	H 	0.6336	0.8362	0.0882	0.191
Mof_H 	H 	0.5757	0.7975	0.0333	0.177
Mof_C 	C 	0.177	0.06535	0.3569	0.049
Mof_H 	H 	0.1443	0.0397	0.3471	0.01
Mof_C 	C 	0.9077	0.0653	0.9232	-0.178
Mof_H 	H 	0.9675	0.0633	0.9772	0.091
Mof_C 	C 	0.7215	0.0804	0.8681	-0.17
Mof_H 	H 	0.652	0.0889	0.8834	0.074
Mof_O 	O 	0.8557	0.9742	0.4238	-0.376
Mof_C 	C 	0.7105	0.9075	0.3972	-0.337
Mof_H 	H 	0.7673	0.9055	0.454	0.139
Mof_C 	C 	0.6312	0.8738	0.3764	0.169
Mof_H 	H 	0.6194	0.8541	0.4264	-0.036
Mof_C 	C 	0.6448	0.9367	0.2385	0.163
Mof_H 	H 	0.6458	0.9572	0.1878	-0.027
Mof_C 	C 	0.6882	0.8728	0.3126	-0.367
Mof_H 	H 	0.7221	0.8473	0.3212	0.146
Mof_C 	C 	0.7526	0.9073	0.3382	0.456
Mof_H 	H 	0.8293	0.9053	0.3577	-0.104
Mof_C 	C 	0.7928	0.0402	0.9082	-0.172
Mof_H 	H 	0.7722	0.0193	0.9511	0.079
Mof_C 	C 	0.8193	0.1108	0.8724	-0.171
Mof_H 	H 	0.8154	0.138	0.8928	0.086
Mof_C 	C 	0.5926	0.94668	0.2926	-0.078
Mof_H 	H 	0.5605	0.9725	0.285	0.056
Mof_C 	C 	0.5298	0.9126	0.2623	0.003
Mof_H 	H 	0.4554	0.9154	0.2331	0.019
Mof_C 	C 	0.8376	0.1014	0.775	0.104
Mof_H 	H 	0.8525	0.122	0.7284	-0.005
Mof_C 	C 	0.8109	0.0325	0.8054	0.102
Mof_H 	H 	0.8057	0.0057	0.7812	-0.007
Mof_Mn	Mn	0.2077	0.56795	0.60248	0.888
Mof_N 	N 	0.3891	0.63092	0.6922	-0.139
Mof_O 	O 	0.0336	0.5551	0.5971	-0.439
Mof_O 	O 	0.2789	0.51273	0.6513	-0.417
Mof_N 	N 	0.2071	0.58652	0.7721	-0.181
Mof_N 	N 	0.3655	0.60029	0.6237	-0.19
Mof_N 	N 	0.2594	0.62017	0.8106	-0.138
Mof_C 	C 	0.1769	0.56754	0.8549	0.28
Mof_O 	O 	0.0794	0.52624	0.3822	-0.454
Mof_O 	O 	0.2047	0.5696	0.4409	-0.444
Mof_O 	O 	0.062	0.61949	0.5874	-0.328
Mof_C 	C 	0.2986	0.64795	0.7392	0.022
Mof_H 	H 	0.323	0.6728	0.7768	0.009
Mof_H 	H 	0.2384	0.6549	0.6838	0.023
Mof_C 	C 	0.2357	0.47961	0.6284	0.423
Mof_C 	C 	-1.07137e-17	0.59088	0.5984	0.28
Mof_C 	C 	0.7147	0.57079	0.6564	-0.159
Mof_H 	H 	0.6739	0.5485	0.6755	0.08
Mof_C 	C 	0.4625	0.5885	0.5986	0.274
Mof_C 	C 	0.497	0.63858	0.7107	0.259
Mof_C 	C 	0.1653	0.56039	0.259	-0.273
Mof_C 	C 	0.5474	0.61209	0.6512	-0.25
Mof_C 	C 	0.2113	0.589	0.9464	-0.301
Mof_C 	C 	0.6638	0.60776	0.6426	0.154
Mof_C 	C 	0.2968	0.44259	0.6658	-0.227
Mof_C 	C 	0.2639	0.62286	0.9157	0.282
Mof_C 	C 	0.8836	0.59769	0.6154	-0.061
Mof_C 	C 	0.1469	0.55111	0.3707	0.483
Mof_C 	C 	0.1945	0.57887	0.054	0.3
Mof_C 	C 	0.8366	0.63518	0.6034	0.034
Mof_H 	H 	0.8785	0.6575	0.5866	0.041
Mof_N 	N 	0.5627	0.28493	0.8271	-0.129
Mof_C 	C 	0.1173	0.52849	0.8426	-0.617
Mof_H 	H 	0.0679	0.5263	0.8956	0.181
Mof_H 	H 	0.17	0.5065	0.8511	0.192
Mof_H 	H 	0.0749	0.5271	0.7732	0.195
Mof_C 	C 	0.3183	0.65645	0.9779	-0.649
Mof_H 	H 	0.2812	0.6816	0.9563	0.214
Mof_H 	H 	0.3949	0.6581	0.9662	0.2
Mof_H 	H 	0.3144	0.6518	0.052	0.216
Mof_C 	C 	0.4956	0.33902	0.7513	-0.254
Mof_C 	C 	0.7273	0.63997	0.6163	-0.157
Mof_H 	H 	0.695	0.6657	0.6071	0.076
Mof_C 	C 	0.4232	0.37473	0.7248	0.199
Mof_C 	C 	0.4693	0.55402	0.5267	-0.659
Mof_H 	H 	0.4739	0.5291	0.5667	0.213
Mof_H 	H 	0.5345	0.5568	0.4916	0.221
Mof_H 	H 	0.4041	0.5535	0.4747	0.214
Mof_N 	N 	0.6314	0.29405	0.7525	-0.184
Mof_C 	C 	0.586	0.32623	0.707	0.253
Mof_C 	C 	0.4823	0.31177	0.828	0.224
Mof_C 	C 	0.2669	0.57	0.2337	0.098
Mof_H 	H 	0.3288	0.5695	0.2857	-0.017
Mof_C 	C 	0.544	0.66865	0.7875	-0.609
Mof_H 	H 	0.5093	0.6946	0.7709	0.184
Mof_H 	H 	0.6227	0.6709	0.7851	0.197
Mof_H 	H 	0.5313	0.6604	0.8575	0.185
Mof_C 	C 	0.4164	0.4024	0.7894	-0.249
Mof_H 	H 	0.4535	0.3999	0.8582	0.096
Mof_C 	C 	0.0787	0.5549	0.178	0.097
Mof_H 	H 	0.0112	0.5441	0.1925	-0.028
Mof_C 	C 	0.6307	0.34505	0.6156	-0.605
Mof_H 	H 	0.6282	0.3742	0.6217	0.202
Mof_H 	H 	0.5866	0.3367	0.5507	0.191
Mof_H 	H 	0.7065	0.3365	0.6151	0.183
Mof_C 	C 	0.3935	0.30933	0.9	-0.549
Mof_H 	H 	0.3332	0.2927	0.8674	0.168
Mof_H 	H 	0.3664	0.3362	0.9118	0.171
Mof_H 	H 	0.4243	0.2975	0.9667	0.162
Mof_C 	C 	0.823	0.56535	0.6431	0.041
Mof_H 	H 	0.8557	0.5397	0.6529	0.04
Mof_C 	C 	0.0923	0.5653	0.0768	-0.194
Mof_H 	H 	0.0325	0.5633	0.0228	0.067
Mof_C 	C 	0.2785	0.5804	0.1319	-0.175
Mof_H 	H 	0.348	0.5889	0.1166	0.078
Mof_O 	O 	0.1443	0.4742	0.5762	-0.418
Mof_C 	C 	0.2895	0.4075	0.6028	-0.325
Mof_H 	H 	0.2327	0.4055	0.546	0.13
Mof_C 	C 	0.3688	0.3738	0.6236	0.165
Mof_H 	H 	0.3806	0.3541	0.5736	-0.037
Mof_C 	C 	0.3552	0.4367	0.7615	0.164
Mof_H 	H 	0.3542	0.4572	0.8122	-0.035
Mof_C 	C 	0.3118	0.3728	0.6874	-0.37
Mof_H 	H 	0.2779	0.3473	0.6788	0.133
Mof_C 	C 	0.2474	0.4073	0.6618	0.45
Mof_H 	H 	0.1707	0.4053	0.6423	-0.129
Mof_C 	C 	0.2072	0.5402	0.0918	-0.179
Mof_H 	H 	0.2278	0.5193	0.0489	0.077
Mof_C 	C 	0.1807	0.6108	0.1276	-0.184
Mof_H 	H 	0.1846	0.638	0.1072	0.081
Mof_C 	C 	0.4074	0.44668	0.7074	-0.077
Mof_H 	H 	0.4395	0.4725	0.715	0.053
Mof_C 	C 	0.4702	0.4126	0.7377	0.01
Mof_H 	H 	0.5446	0.4154	0.7669	0.016
Mof_C 	C 	0.1624	0.6014	0.225	0.107
Mof_H 	H 	0.1475	0.622	0.2716	-0.021
Mof_C 	C 	0.1891	0.5325	0.1946	0.106
Mof_H 	H 	0.1943	0.5057	0.2188	-0.016
Mof_Mn	Mn	0.2077	0.93205	0.60248	0.889
Mof_N 	N 	0.3891	0.86908	0.6922	-0.139
Mof_O 	O 	0.0336	0.9449	0.5971	-0.434
Mof_O 	O 	0.2789	0.98727	0.6513	-0.405
Mof_N 	N 	0.2071	0.91348	0.7721	-0.181
Mof_N 	N 	0.3655	0.89971	0.6237	-0.191
Mof_N 	N 	0.2594	0.87983	0.8106	-0.138
Mof_C 	C 	0.1769	0.93246	0.8549	0.283
Mof_O 	O 	0.0794	0.97376	0.3822	-0.446
Mof_O 	O 	0.2047	0.9304	0.4409	-0.442
Mof_O 	O 	0.062	0.88051	0.5874	-0.328
Mof_C 	C 	0.2986	0.85205	0.7392	0.022
Mof_H 	H 	0.323	0.8272	0.7768	0.009
Mof_H 	H 	0.2384	0.8451	0.6838	0.023
Mof_C 	C 	0.2357	0.02039	0.6284	0.406
Mof_C 	C 	-1.07137e-17	0.90912	0.5984	0.279
Mof_C 	C 	0.7147	0.92921	0.6564	-0.159
Mof_H 	H 	0.6739	0.9515	0.6755	0.082
Mof_C 	C 	0.4625	0.9115	0.5986	0.276
Mof_C 	C 	0.497	0.86142	0.7107	0.26
Mof_C 	C 	0.1653	0.93961	0.259	-0.271
Mof_C 	C 	0.5474	0.88791	0.6512	-0.251
Mof_C 	C 	0.2113	0.911	0.9464	-0.302
Mof_C 	C 	0.6638	0.89224	0.6426	0.155
Mof_C 	C 	0.2968	0.05741	0.6658	-0.22
Mof_C 	C 	0.2639	0.87714	0.9157	0.282
Mof_C 	C 	0.8836	0.90231	0.6154	-0.06
Mof_C 	C 	0.1469	0.94889	0.3707	0.48
Mof_C 	C 	0.1945	0.92113	0.054	0.299
Mof_C 	C 	0.8366	0.86482	0.6034	0.034
Mof_H 	H 	0.8785	0.8425	0.5866	0.041
Mof_N 	N 	0.5627	0.21507	0.8271	-0.129
Mof_C 	C 	0.1173	0.97151	0.8426	-0.627
Mof_H 	H 	0.0679	0.9737	0.8956	0.186
Mof_H 	H 	0.17	0.9935	0.8511	0.199
Mof_H 	H 	0.0749	0.9729	0.7732	0.201
Mof_C 	C 	0.3183	0.84355	0.9779	-0.649
Mof_H 	H 	0.2812	0.8184	0.9563	0.214
Mof_H 	H 	0.3949	0.8419	0.9662	0.2
Mof_H 	H 	0.3144	0.8482	0.052	0.216
Mof_C 	C 	0.4956	0.16098	0.7513	-0.253
Mof_C 	C 	0.7273	0.86003	0.6163	-0.157
Mof_H 	H 	0.695	0.8343	0.6071	0.076
Mof_C 	C 	0.4232	0.12527	0.7248	0.197
Mof_C 	C 	0.4693	0.94598	0.5267	-0.665
Mof_H 	H 	0.4739	0.9709	0.5667	0.218
Mof_H 	H 	0.5345	0.9432	0.4916	0.224
Mof_H 	H 	0.4041	0.9465	0.4747	0.217
Mof_N 	N 	0.6314	0.20595	0.7525	-0.184
Mof_C 	C 	0.586	0.17377	0.707	0.253
Mof_C 	C 	0.4823	0.18823	0.828	0.224
Mof_C 	C 	0.2669	0.93	0.2337	0.098
Mof_H 	H 	0.3288	0.9305	0.2857	-0.017
Mof_C 	C 	0.544	0.83135	0.7875	-0.609
Mof_H 	H 	0.5093	0.8054	0.7709	0.184
Mof_H 	H 	0.6227	0.8291	0.7851	0.198
Mof_H 	H 	0.5313	0.8396	0.8575	0.185
Mof_C 	C 	0.4164	0.0976	0.7894	-0.239
Mof_H 	H 	0.4535	0.1001	0.8582	0.093
Mof_C 	C 	0.0787	0.9451	0.178	0.096
Mof_H 	H 	0.0112	0.9559	0.1925	-0.025
Mof_C 	C 	0.6307	0.15495	0.6156	-0.605
Mof_H 	H 	0.6282	0.1258	0.6217	0.202
Mof_H 	H 	0.5866	0.1633	0.5507	0.191
Mof_H 	H 	0.7065	0.1635	0.6151	0.183
Mof_C 	C 	0.3935	0.19067	0.9	-0.548
Mof_H 	H 	0.3332	0.2073	0.8674	0.168
Mof_H 	H 	0.3664	0.1638	0.9118	0.17
Mof_H 	H 	0.4243	0.2025	0.9667	0.161
Mof_C 	C 	0.823	0.93465	0.6431	0.041
Mof_H 	H 	0.8557	0.9603	0.6529	0.043
Mof_C 	C 	0.0923	0.9347	0.0768	-0.193
Mof_H 	H 	0.0325	0.9367	0.0228	0.068
Mof_C 	C 	0.2785	0.9196	0.1319	-0.174
Mof_H 	H 	0.348	0.9111	0.1166	0.078
Mof_O 	O 	0.1443	0.0258	0.5762	-0.415
Mof_C 	C 	0.2895	0.0925	0.6028	-0.313
Mof_H 	H 	0.2327	0.0945	0.546	0.127
Mof_C 	C 	0.3688	0.1262	0.6236	0.156
Mof_H 	H 	0.3806	0.1459	0.5736	-0.033
Mof_C 	C 	0.3552	0.0633	0.7615	0.154
Mof_H 	H 	0.3542	0.0428	0.8122	-0.035
Mof_C 	C 	0.3118	0.1272	0.6874	-0.36
Mof_H 	H 	0.2779	0.1527	0.6788	0.13
Mof_C 	C 	0.2474	0.0927	0.6618	0.433
Mof_H 	H 	0.1707	0.0947	0.6423	-0.123
Mof_C 	C 	0.2072	0.9598	0.0918	-0.178
Mof_H 	H 	0.2278	0.9807	0.0489	0.079
Mof_C 	C 	0.1807	0.8892	0.1276	-0.183
Mof_H 	H 	0.1846	0.862	0.1072	0.081
Mof_C 	C 	0.4074	0.05332	0.7074	-0.071
Mof_H 	H 	0.4395	0.0275	0.715	0.047
Mof_C 	C 	0.4702	0.0874	0.7377	0.003
Mof_H 	H 	0.5446	0.0846	0.7669	0.018
Mof_C 	C 	0.1624	0.8986	0.225	0.106
Mof_H 	H 	0.1475	0.878	0.2716	-0.021
Mof_C 	C 	0.1891	0.9675	0.1946	0.105
Mof_H 	H 	0.1943	0.9943	0.2188	-0.012
Mof_Mn	Mn	0.7923	0.43205	0.39752	0.89
Mof_N 	N 	0.6109	0.36908	0.3078	-0.138
Mof_O 	O 	0.9664	0.4449	0.4029	-0.337
Mof_O 	O 	0.7211	0.48727	0.3487	-0.413
Mof_N 	N 	0.7929	0.41348	0.2279	-0.182
Mof_N 	N 	0.6345	0.39971	0.3763	-0.191
Mof_N 	N 	0.7406	0.37983	0.1894	-0.134
Mof_C 	C 	0.8231	0.43246	0.1451	0.314
Mof_O 	O 	0.9206	0.47376	0.6178	-0.402
Mof_O 	O 	0.7953	0.4304	0.5591	-0.434
Mof_O 	O 	0.938	0.38051	0.4126	-0.233
Mof_C 	C 	0.7014	0.35205	0.2608	0.018
Mof_H 	H 	0.677	0.3272	0.2232	0.016
Mof_H 	H 	0.7616	0.3451	0.3162	0.033
Mof_C 	C 	0.7643	0.52039	0.3716	0.413
Mof_C 	C 	1.07137e-17	0.40912	0.4016	0.18
Mof_C 	C 	0.2853	0.42921	0.3436	-0.175
Mof_H 	H 	0.3261	0.4515	0.3245	0.082
Mof_C 	C 	0.5375	0.4115	0.4014	0.274
Mof_C 	C 	0.503	0.36142	0.2893	0.255
Mof_C 	C 	0.8347	0.43961	0.741	-0.252
Mof_C 	C 	0.4526	0.38791	0.3488	-0.253
Mof_C 	C 	0.7887	0.411	0.0536	-0.298
Mof_C 	C 	0.3362	0.39224	0.3574	0.16
Mof_C 	C 	0.7032	0.55741	0.3342	-0.213
Mof_C 	C 	0.7361	0.37714	0.0843	0.287
Mof_C 	C 	0.1164	0.40231	0.3846	-0.11
Mof_C 	C 	0.8531	0.44889	0.6293	0.471
Mof_C 	C 	0.8055	0.42113	0.946	0.288
Mof_C 	C 	0.1634	0.36482	0.3966	0.045
Mof_H 	H 	0.1215	0.3425	0.4134	0.001
Mof_N 	N 	0.4373	0.71507	0.1729	-0.13
Mof_C 	C 	0.8827	0.47151	0.1574	-0.702
Mof_H 	H 	0.9321	0.4737	0.1044	0.241
Mof_H 	H 	0.83	0.4935	0.1489	0.233
Mof_H 	H 	0.9251	0.4729	0.2268	0.253
Mof_C 	C 	0.6817	0.34355	0.0221	-0.64
Mof_H 	H 	0.7188	0.3184	0.0437	0.22
Mof_H 	H 	0.6051	0.3419	0.0338	0.199
Mof_H 	H 	0.6856	0.3482	0.948	0.212
Mof_C 	C 	0.5044	0.66098	0.2487	-0.254
Mof_C 	C 	0.2727	0.36003	0.3837	-0.176
Mof_H 	H 	0.305	0.3343	0.3929	0.075
Mof_C 	C 	0.5768	0.62527	0.2752	0.195
Mof_C 	C 	0.5307	0.44598	0.4733	-0.66
Mof_H 	H 	0.5261	0.4709	0.4333	0.213
Mof_H 	H 	0.4655	0.4432	0.5084	0.221
Mof_H 	H 	0.5959	0.4465	0.5253	0.214
Mof_N 	N 	0.3686	0.70595	0.2475	-0.182
Mof_C 	C 	0.414	0.67377	0.293	0.251
Mof_C 	C 	0.5177	0.68823	0.172	0.235
Mof_C 	C 	0.7331	0.43	0.7663	0.088
Mof_H 	H 	0.6712	0.4305	0.7143	-0.014
Mof_C 	C 	0.456	0.33135	0.2125	-0.596
Mof_H 	H 	0.4907	0.3054	0.2291	0.179
Mof_H 	H 	0.3773	0.3291	0.2149	0.185
Mof_H 	H 	0.4687	0.3396	0.1425	0.179
Mof_C 	C 	0.5836	0.5976	0.2106	-0.23
Mof_H 	H 	0.5465	0.6001	0.1418	0.094
Mof_C 	C 	0.9213	0.4451	0.822	0.092
Mof_H 	H 	0.9888	0.4559	0.8075	0.02
Mof_C 	C 	0.3693	0.65495	0.3844	-0.597
Mof_H 	H 	0.3718	0.6258	0.3783	0.199
Mof_H 	H 	0.4134	0.6633	0.4493	0.188
Mof_H 	H 	0.2935	0.6635	0.3849	0.175
Mof_C 	C 	0.6065	0.69067	0.1	-0.581
Mof_H 	H 	0.6668	0.7073	0.1326	0.192
Mof_H 	H 	0.6336	0.6638	0.0882	0.191
Mof_H 	H 	0.5757	0.7025	0.0333	0.177
Mof_C 	C 	0.177	0.43465	0.3569	0.049
Mof_H 	H 	0.1443	0.4603	0.3471	0.013
Mof_C 	C 	0.9077	0.4347	0.9232	-0.178
Mof_H 	H 	0.9675	0.4367	0.9772	0.092
Mof_C 	C 	0.7215	0.4196	0.8681	-0.17
Mof_H 	H 	0.652	0.4111	0.8834	0.075
Mof_O 	O 	0.8557	0.5258	0.4238	-0.379
Mof_C 	C 	0.7105	0.5925	0.3972	-0.329
Mof_H 	H 	0.7673	0.5945	0.454	0.137
Mof_C 	C 	0.6312	0.6262	0.3764	0.163
Mof_H 	H 	0.6194	0.6459	0.4264	-0.033
Mof_C 	C 	0.6448	0.5633	0.2385	0.157
Mof_H 	H 	0.6458	0.5428	0.1878	-0.027
Mof_C 	C 	0.6882	0.6272	0.3126	-0.359
Mof_H 	H 	0.7221	0.6527	0.3212	0.144
Mof_C 	C 	0.7526	0.5927	0.3382	0.445
Mof_H 	H 	0.8293	0.5947	0.3577	-0.1
Mof_C 	C 	0.7928	0.4598	0.9082	-0.171
Mof_H 	H 	0.7722	0.4807	0.9511	0.081
Mof_C 	C 	0.8193	0.3892	0.8724	-0.171
Mof_H 	H 	0.8154	0.362	0.8928	0.086
Mof_C 	C 	0.5926	0.55332	0.2926	-0.074
Mof_H 	H 	0.5605	0.5275	0.285	0.051
Mof_C 	C 	0.5298	0.5874	0.2623	-0.002
Mof_H 	H 	0.4554	0.5846	0.2331	0.02
Mof_C 	C 	0.8376	0.3986	0.775	0.103
Mof_H 	H 	0.8525	0.378	0.7284	-0.005
Mof_C 	C 	0.8109	0.4675	0.8054	0.101
Mof_H 	H 	0.8057	0.4943	0.7812	-0.003
Mof_Mn	Mn	2.22623e-33	2.37893e-33	0.5	0.915
Mof_Mn	Mn	2.22623e-33	0.5	0.5	0.932
Mof_C 	C 	0.4123	0.75	0.106	0.004
Mof_H 	H 	0.3344	0.75	0.0759	0.045
Mof_H 	H 	0.4576	0.75	0.0484	0.01
Mof_Mn	Mn	0.23316	0.75	0.28068	0.594
Mof_Cl	Cl	0.134	0.75	0.0983	-0.464
Mof_C 	C 	0.5877	0.25	0.894	0.002
Mof_H 	H 	0.6656	0.25	0.9241	0.045
Mof_H 	H 	0.5424	0.25	0.9516	0.01
Mof_Mn	Mn	0.76684	0.25	0.71932	0.623
Mof_Cl	Cl	0.866	0.25	0.9017	-0.422
_end
