data_functionalizedCrystal
_audit_creation_method	'EQeq! by Chris Wilmer'
_symmetry_space_group_name_H-M	'P1'
_symmetry_Int_Tables_number	1
_symmetry_cell_setting	triclinic
loop_
_symmetry_equiv_pos_as_xyz
  x,y,z
_cell_length_a	5.5673
_cell_length_b	11.8214
_cell_length_c	22.7603
_cell_angle_alpha	100.356
_cell_angle_beta	90
_cell_angle_gamma	90
loop_
_atom_site_label
_atom_site_type_symbol
_atom_site_fract_x
_atom_site_fract_y
_atom_site_fract_z
_atom_site_charge
Mof_Ca	Ca	0.75585	0.63682	0.72287	1.558
Mof_Ca	Ca	0.25585	0.86318	0.77713	1.556
Mof_Ca	Ca	0.24415	0.36318	0.27713	1.558
Mof_Ca	Ca	0.74415	0.13682	0.22287	1.556
Mof_H 	H 	0.1996	0.1945	0.6189	0.072
Mof_H 	H 	0.1249	0.2318	0.4061	0.004
Mof_H 	H 	0.5541	0.4206	0.5372	0.09
Mof_H 	H 	0.5623	0.3388	0.6729	0.077
Mof_H 	H 	0.4783	0.1839	0.7197	0.023
Mof_H 	H 	0.1186	0.0439	0.6691	0.004
Mof_H 	H 	0.2066	0.2751	0.5078	0.074
Mof_H 	H 	0.4713	0.3731	0.4358	0.013
Mof_H 	H 	0.6996	0.3055	0.8811	0.073
Mof_H 	H 	0.6249	0.2682	0.0939	0.003
Mof_H 	H 	0.0541	0.0794	0.9628	0.093
Mof_H 	H 	0.0623	0.1612	0.8271	0.08
Mof_H 	H 	0.9783	0.3161	0.7803	0.019
Mof_H 	H 	0.6186	0.4561	0.8309	0.003
Mof_H 	H 	0.7066	0.2249	0.9922	0.075
Mof_H 	H 	0.9713	0.1269	0.0642	0.009
Mof_H 	H 	0.8004	0.8055	0.3811	0.072
Mof_H 	H 	0.8751	0.7682	0.5939	0.004
Mof_H 	H 	0.4459	0.5794	0.4628	0.09
Mof_H 	H 	0.4377	0.6612	0.3271	0.077
Mof_H 	H 	0.5217	0.8161	0.2803	0.023
Mof_H 	H 	0.8814	0.9561	0.3309	0.004
Mof_H 	H 	0.7934	0.7249	0.4922	0.074
Mof_H 	H 	0.5287	0.6269	0.5642	0.013
Mof_H 	H 	0.3004	0.6945	0.1189	0.073
Mof_H 	H 	0.3751	0.7318	0.9061	0.003
Mof_H 	H 	0.9459	0.9206	0.0372	0.093
Mof_H 	H 	0.9377	0.8388	0.1729	0.08
Mof_H 	H 	0.0217	0.6839	0.2197	0.019
Mof_H 	H 	0.3814	0.5439	0.1691	0.003
Mof_H 	H 	0.2934	0.7751	0.0078	0.075
Mof_H 	H 	0.0287	0.8731	0.9358	0.009
Mof_C 	C 	0.7414	0.00454	0.73489	0.481
Mof_C 	C 	0.7393	0.27674	0.34493	0.454
Mof_C 	C 	0.8908	0.35506	0.53136	0.014
Mof_C 	C 	0.8896	0.28106	0.64219	-0.004
Mof_C 	C 	0.0567	0.19296	0.63996	-0.099
Mof_C 	C 	0.0114	0.27025	0.43228	0.069
Mof_C 	C 	0.7927	0.30128	0.41069	-0.172
Mof_C 	C 	0.6687	0.38344	0.5108	-0.11
Mof_C 	C 	0.6728	0.27949	0.6719	-0.095
Mof_C 	C 	0.6244	0.18724	0.70025	0.055
Mof_C 	C 	0.0071	0.10262	0.6696	0.067
Mof_C 	C 	0.061	0.29655	0.49305	-0.105
Mof_C 	C 	0.7917	0.09982	0.69994	-0.171
Mof_C 	C 	0.6204	0.35546	0.45021	0.071
Mof_C 	C 	0.2414	0.49546	0.76511	0.485
Mof_C 	C 	0.2393	0.22326	0.15507	0.455
Mof_C 	C 	0.3908	0.14494	0.96864	0.017
Mof_C 	C 	0.3896	0.21894	0.85781	0.002
Mof_C 	C 	0.5567	0.30704	0.86004	-0.104
Mof_C 	C 	0.5114	0.22975	0.06772	0.072
Mof_C 	C 	0.2927	0.19872	0.08931	-0.175
Mof_C 	C 	0.1687	0.11656	0.9892	-0.116
Mof_C 	C 	0.1728	0.22051	0.8281	-0.1
Mof_C 	C 	0.1244	0.31276	0.79975	0.063
Mof_C 	C 	0.5071	0.39738	0.8304	0.066
Mof_C 	C 	0.561	0.20345	0.00695	-0.109
Mof_C 	C 	0.2917	0.40018	0.80006	-0.171
Mof_C 	C 	0.1204	0.14454	0.04979	0.078
Mof_C 	C 	0.2586	0.99546	0.26511	0.481
Mof_C 	C 	0.2607	0.72326	0.65507	0.454
Mof_C 	C 	0.1092	0.64494	0.46864	0.014
Mof_C 	C 	0.1104	0.71894	0.35781	-0.004
Mof_C 	C 	0.9433	0.80704	0.36004	-0.099
Mof_C 	C 	0.9886	0.72975	0.56772	0.069
Mof_C 	C 	0.2073	0.69872	0.58931	-0.172
Mof_C 	C 	0.3313	0.61656	0.4892	-0.11
Mof_C 	C 	0.3272	0.72051	0.3281	-0.095
Mof_C 	C 	0.3756	0.81276	0.29975	0.055
Mof_C 	C 	0.9929	0.89738	0.3304	0.067
Mof_C 	C 	0.939	0.70345	0.50695	-0.105
Mof_C 	C 	0.2083	0.90018	0.30006	-0.171
Mof_C 	C 	0.3796	0.64454	0.54979	0.071
Mof_C 	C 	0.7586	0.50454	0.23489	0.485
Mof_C 	C 	0.7607	0.77674	0.84493	0.455
Mof_C 	C 	0.6092	0.85506	0.03136	0.017
Mof_C 	C 	0.6104	0.78106	0.14219	0.002
Mof_C 	C 	0.4433	0.69296	0.13996	-0.104
Mof_C 	C 	0.4886	0.77025	0.93228	0.072
Mof_C 	C 	0.7073	0.80128	0.91069	-0.175
Mof_C 	C 	0.8313	0.88344	0.0108	-0.116
Mof_C 	C 	0.8272	0.77949	0.1719	-0.1
Mof_C 	C 	0.8756	0.68724	0.20025	0.063
Mof_C 	C 	0.4929	0.60262	0.1696	0.066
Mof_C 	C 	0.439	0.79655	0.99305	-0.109
Mof_C 	C 	0.7083	0.59982	0.19994	-0.171
Mof_C 	C 	0.8796	0.85546	0.95021	0.078
Mof_S 	S 	0.96363	0.39835	0.60768	0.31
Mof_S 	S 	0.46363	0.10165	0.89232	0.31
Mof_S 	S 	0.03637	0.60165	0.39232	0.31
Mof_S 	S 	0.53637	0.89835	0.10768	0.31
Mof_O 	O 	0.805	0.4931	0.63096	-0.355
Mof_O 	O 	0.9152	0.26226	0.30936	-0.583
Mof_O 	O 	0.2189	0.41534	0.61176	-0.249
Mof_O 	O 	0.5257	0.98423	0.74378	-0.483
Mof_O 	O 	0.9191	0.95695	0.75285	-0.494
Mof_O 	O 	0.5251	0.26758	0.32832	-0.516
Mof_O 	O 	0.305	0.0069	0.86904	-0.354
Mof_O 	O 	0.4152	0.23774	0.19064	-0.583
Mof_O 	O 	0.7189	0.08466	0.88824	-0.251
Mof_O 	O 	0.0257	0.51577	0.75622	-0.483
Mof_O 	O 	0.4191	0.54305	0.74715	-0.497
Mof_O 	O 	0.0251	0.23242	0.17168	-0.516
Mof_O 	O 	0.195	0.5069	0.36904	-0.355
Mof_O 	O 	0.0848	0.73774	0.69064	-0.583
Mof_O 	O 	0.7811	0.58466	0.38824	-0.249
Mof_O 	O 	0.4743	0.01577	0.25622	-0.483
Mof_O 	O 	0.0809	0.04305	0.24715	-0.494
Mof_O 	O 	0.4749	0.73242	0.67168	-0.516
Mof_O 	O 	0.695	0.9931	0.13096	-0.354
Mof_O 	O 	0.5848	0.76226	0.80936	-0.583
Mof_O 	O 	0.2811	0.91534	0.11176	-0.251
Mof_O 	O 	0.9743	0.48423	0.24378	-0.483
Mof_O 	O 	0.5809	0.45695	0.25285	-0.497
Mof_O 	O 	0.9749	0.76758	0.82832	-0.516
_end
