data_functionalizedCrystal
_audit_creation_method	'EQeq! by Chris Wilmer'
_symmetry_space_group_name_H-M	'P1'
_symmetry_Int_Tables_number	1
_symmetry_cell_setting	triclinic
loop_
_symmetry_equiv_pos_as_xyz
  x,y,z
_cell_length_a	41.286
_cell_length_b	41.286
_cell_length_c	41.286
_cell_angle_alpha	90
_cell_angle_beta	90
_cell_angle_gamma	90
loop_
_atom_site_label
_atom_site_type_symbol
_atom_site_fract_x
_atom_site_fract_y
_atom_site_fract_z
_atom_site_charge
Mof_O 	O 	0.712	0.37077	0.6708	-1.1
Mof_O 	O 	0.666	0.4168	0.6274	-0.469
Mof_C 	C 	0.75862	0.37862	0.71783	-0.066
Mof_H 	H 	0.7646	0.3787	0.6959	0.09
Mof_C 	C 	0.66653	0.48333	0.6256	-0.024
Mof_H 	H 	0.68	0.472	0.6111	0.055
Mof_O 	O 	0.7073	0.38231	0.6731	0.858
Mof_O 	O 	0.6727	0.417	0.6361	0.06
Mof_O 	O 	0.712	0.87077	0.1708	-1.098
Mof_O 	O 	0.666	0.9168	0.1274	-0.47
Mof_C 	C 	0.75862	0.87862	0.21783	-0.066
Mof_H 	H 	0.7646	0.8787	0.1959	0.09
Mof_C 	C 	0.66653	0.98333	0.1256	0.016
Mof_H 	H 	0.68	0.972	0.1111	0.044
Mof_O 	O 	0.7073	0.88231	0.1731	0.856
Mof_O 	O 	0.6727	0.917	0.1361	0.059
Mof_O 	O 	0.212	0.37077	0.1708	-1.102
Mof_O 	O 	0.166	0.4168	0.1274	-0.468
Mof_C 	C 	0.25862	0.37862	0.21783	-0.066
Mof_H 	H 	0.2646	0.3787	0.1959	0.09
Mof_C 	C 	0.16653	0.48333	0.1256	-0.025
Mof_H 	H 	0.18	0.472	0.1111	0.055
Mof_O 	O 	0.2073	0.38231	0.1731	0.86
Mof_O 	O 	0.1727	0.417	0.1361	0.059
Mof_O 	O 	0.212	0.87077	0.6708	-1.097
Mof_O 	O 	0.166	0.9168	0.6274	-0.47
Mof_C 	C 	0.25862	0.87862	0.71783	-0.066
Mof_H 	H 	0.2646	0.8787	0.6959	0.09
Mof_C 	C 	0.16653	0.98333	0.6256	0.016
Mof_H 	H 	0.18	0.972	0.6111	0.044
Mof_O 	O 	0.2073	0.88231	0.6731	0.855
Mof_O 	O 	0.1727	0.917	0.6361	0.059
Mof_O 	O 	0.288	0.62923	0.6708	-1.1
Mof_O 	O 	0.334	0.5832	0.6274	-0.469
Mof_C 	C 	0.24138	0.62138	0.71783	-0.066
Mof_H 	H 	0.2354	0.6213	0.6959	0.09
Mof_C 	C 	0.33347	0.51667	0.6256	-0.024
Mof_H 	H 	0.32	0.528	0.6111	0.055
Mof_O 	O 	0.2927	0.61769	0.6731	0.858
Mof_O 	O 	0.3273	0.583	0.6361	0.06
Mof_O 	O 	0.288	0.12923	0.1708	-1.105
Mof_O 	O 	0.334	0.0832	0.1274	-0.467
Mof_C 	C 	0.24138	0.12138	0.21783	-0.067
Mof_H 	H 	0.2354	0.1213	0.1959	0.09
Mof_C 	C 	0.33347	0.01667	0.1256	-0.065
Mof_H 	H 	0.32	0.028	0.1111	0.066
Mof_O 	O 	0.2927	0.11769	0.1731	0.863
Mof_O 	O 	0.3273	0.083	0.1361	0.06
Mof_O 	O 	0.788	0.62923	0.1708	-1.101
Mof_O 	O 	0.834	0.5832	0.1274	-0.469
Mof_C 	C 	0.74138	0.62138	0.21783	-0.066
Mof_H 	H 	0.7354	0.6213	0.1959	0.09
Mof_C 	C 	0.83347	0.51667	0.1256	-0.024
Mof_H 	H 	0.82	0.528	0.1111	0.055
Mof_O 	O 	0.7927	0.61769	0.1731	0.859
Mof_O 	O 	0.8273	0.583	0.1361	0.06
Mof_O 	O 	0.788	0.12923	0.6708	-1.104
Mof_O 	O 	0.834	0.0832	0.6274	-0.468
Mof_C 	C 	0.74138	0.12138	0.71783	-0.067
Mof_H 	H 	0.7354	0.1213	0.6959	0.089
Mof_C 	C 	0.83347	0.01667	0.6256	-0.064
Mof_H 	H 	0.82	0.028	0.6111	0.067
Mof_O 	O 	0.7927	0.11769	0.6731	0.862
Mof_O 	O 	0.8273	0.083	0.6361	0.061
Mof_O 	O 	0.288	0.37077	0.3292	-1.101
Mof_O 	O 	0.334	0.4168	0.3726	-0.469
Mof_C 	C 	0.24138	0.37862	0.28217	-0.066
Mof_H 	H 	0.2354	0.3787	0.3041	0.09
Mof_C 	C 	0.33347	0.48333	0.3744	-0.024
Mof_H 	H 	0.32	0.472	0.3889	0.055
Mof_O 	O 	0.2927	0.38231	0.3269	0.859
Mof_O 	O 	0.3273	0.417	0.3639	0.06
Mof_O 	O 	0.288	0.87077	0.8292	-1.097
Mof_O 	O 	0.334	0.9168	0.8726	-0.471
Mof_C 	C 	0.24138	0.87862	0.78217	-0.066
Mof_H 	H 	0.2354	0.8787	0.8041	0.09
Mof_C 	C 	0.33347	0.98333	0.8744	0.016
Mof_H 	H 	0.32	0.972	0.8889	0.044
Mof_O 	O 	0.2927	0.88231	0.8269	0.854
Mof_O 	O 	0.3273	0.917	0.8639	0.061
Mof_O 	O 	0.788	0.37077	0.8292	-1.1
Mof_O 	O 	0.834	0.4168	0.8726	-0.471
Mof_C 	C 	0.74138	0.37862	0.78217	-0.066
Mof_H 	H 	0.7354	0.3787	0.8041	0.09
Mof_C 	C 	0.83347	0.48333	0.8744	-0.024
Mof_H 	H 	0.82	0.472	0.8889	0.056
Mof_O 	O 	0.7927	0.38231	0.8269	0.858
Mof_O 	O 	0.8273	0.417	0.8639	0.062
Mof_O 	O 	0.788	0.87077	0.3292	-1.097
Mof_O 	O 	0.834	0.9168	0.3726	-0.471
Mof_C 	C 	0.74138	0.87862	0.28217	-0.066
Mof_H 	H 	0.7354	0.8787	0.3041	0.09
Mof_C 	C 	0.83347	0.98333	0.3744	0.016
Mof_H 	H 	0.82	0.972	0.3889	0.044
Mof_O 	O 	0.7927	0.88231	0.3269	0.855
Mof_O 	O 	0.8273	0.917	0.3639	0.061
Mof_O 	O 	0.712	0.62923	0.3292	-1.1
Mof_O 	O 	0.666	0.5832	0.3726	-0.469
Mof_C 	C 	0.75862	0.62138	0.28217	-0.066
Mof_H 	H 	0.7646	0.6213	0.3041	0.09
Mof_C 	C 	0.66653	0.51667	0.3744	-0.024
Mof_H 	H 	0.68	0.528	0.3889	0.055
Mof_O 	O 	0.7073	0.61769	0.3269	0.858
Mof_O 	O 	0.6727	0.583	0.3639	0.06
Mof_O 	O 	0.712	0.12923	0.8292	-1.103
Mof_O 	O 	0.666	0.0832	0.8726	-0.469
Mof_C 	C 	0.75862	0.12138	0.78217	-0.067
Mof_H 	H 	0.7646	0.1213	0.8041	0.089
Mof_C 	C 	0.66653	0.01667	0.8744	-0.064
Mof_H 	H 	0.68	0.028	0.8889	0.067
Mof_O 	O 	0.7073	0.11769	0.8269	0.861
Mof_O 	O 	0.6727	0.083	0.8639	0.062
Mof_O 	O 	0.212	0.62923	0.8292	-1.1
Mof_O 	O 	0.166	0.5832	0.8726	-0.469
Mof_C 	C 	0.25862	0.62138	0.78217	-0.066
Mof_H 	H 	0.2646	0.6213	0.8041	0.09
Mof_C 	C 	0.16653	0.51667	0.8744	-0.024
Mof_H 	H 	0.18	0.528	0.8889	0.056
Mof_O 	O 	0.2073	0.61769	0.8269	0.858
Mof_O 	O 	0.1727	0.583	0.8639	0.062
Mof_O 	O 	0.212	0.12923	0.3292	-1.103
Mof_O 	O 	0.166	0.0832	0.3726	-0.466
Mof_C 	C 	0.25862	0.12138	0.28217	-0.066
Mof_H 	H 	0.2646	0.1213	0.3041	0.091
Mof_C 	C 	0.16653	0.01667	0.3744	-0.064
Mof_H 	H 	0.18	0.028	0.3889	0.068
Mof_O 	O 	0.2073	0.11769	0.3269	0.864
Mof_O 	O 	0.1727	0.083	0.3639	0.061
Mof_O 	O 	0.6708	0.712	0.37077	-1.099
Mof_O 	O 	0.6274	0.666	0.4168	-0.468
Mof_C 	C 	0.71783	0.75862	0.37862	-0.065
Mof_H 	H 	0.6959	0.7646	0.3787	0.091
Mof_C 	C 	0.6256	0.66653	0.48333	-0.023
Mof_H 	H 	0.6111	0.68	0.472	0.056
Mof_O 	O 	0.6731	0.7073	0.38231	0.859
Mof_O 	O 	0.6361	0.6727	0.417	0.061
Mof_O 	O 	0.6708	0.212	0.87077	-1.096
Mof_O 	O 	0.6274	0.166	0.9168	-0.469
Mof_C 	C 	0.71783	0.25862	0.87862	-0.065
Mof_H 	H 	0.6959	0.2646	0.8787	0.091
Mof_C 	C 	0.6256	0.16653	0.98333	0.017
Mof_H 	H 	0.6111	0.18	0.972	0.045
Mof_O 	O 	0.6731	0.2073	0.88231	0.856
Mof_O 	O 	0.6361	0.1727	0.917	0.06
Mof_O 	O 	0.1708	0.712	0.87077	-1.097
Mof_O 	O 	0.1274	0.666	0.9168	-0.469
Mof_C 	C 	0.21783	0.75862	0.87862	-0.065
Mof_H 	H 	0.1959	0.7646	0.8787	0.091
Mof_C 	C 	0.1256	0.66653	0.98333	0.017
Mof_H 	H 	0.1111	0.68	0.972	0.045
Mof_O 	O 	0.1731	0.7073	0.88231	0.857
Mof_O 	O 	0.1361	0.6727	0.917	0.06
Mof_O 	O 	0.1708	0.212	0.37077	-1.101
Mof_O 	O 	0.1274	0.166	0.4168	-0.467
Mof_C 	C 	0.21783	0.25862	0.37862	-0.065
Mof_H 	H 	0.1959	0.2646	0.3787	0.091
Mof_C 	C 	0.1256	0.16653	0.48333	-0.024
Mof_H 	H 	0.1111	0.18	0.472	0.056
Mof_O 	O 	0.1731	0.2073	0.38231	0.861
Mof_O 	O 	0.1361	0.1727	0.417	0.06
Mof_O 	O 	0.6708	0.288	0.62923	-1.099
Mof_O 	O 	0.6274	0.334	0.5832	-0.468
Mof_C 	C 	0.71783	0.24138	0.62138	-0.065
Mof_H 	H 	0.6959	0.2354	0.6213	0.091
Mof_C 	C 	0.6256	0.33347	0.51667	-0.023
Mof_H 	H 	0.6111	0.32	0.528	0.056
Mof_O 	O 	0.6731	0.2927	0.61769	0.859
Mof_O 	O 	0.6361	0.3273	0.583	0.061
Mof_O 	O 	0.6708	0.788	0.12923	-1.103
Mof_O 	O 	0.6274	0.834	0.0832	-0.467
Mof_C 	C 	0.71783	0.74138	0.12138	-0.066
Mof_H 	H 	0.6959	0.7354	0.1213	0.09
Mof_C 	C 	0.6256	0.83347	0.01667	-0.063
Mof_H 	H 	0.6111	0.82	0.028	0.068
Mof_O 	O 	0.6731	0.7927	0.11769	0.863
Mof_O 	O 	0.6361	0.8273	0.083	0.062
Mof_O 	O 	0.1708	0.288	0.12923	-1.104
Mof_O 	O 	0.1274	0.334	0.0832	-0.466
Mof_C 	C 	0.21783	0.24138	0.12138	-0.066
Mof_H 	H 	0.1959	0.2354	0.1213	0.091
Mof_C 	C 	0.1256	0.33347	0.01667	-0.064
Mof_H 	H 	0.1111	0.32	0.028	0.067
Mof_O 	O 	0.1731	0.2927	0.11769	0.864
Mof_O 	O 	0.1361	0.3273	0.083	0.061
Mof_O 	O 	0.1708	0.788	0.62923	-1.1
Mof_O 	O 	0.1274	0.834	0.5832	-0.468
Mof_C 	C 	0.21783	0.74138	0.62138	-0.065
Mof_H 	H 	0.1959	0.7354	0.6213	0.091
Mof_C 	C 	0.1256	0.83347	0.51667	-0.023
Mof_H 	H 	0.1111	0.82	0.528	0.056
Mof_O 	O 	0.1731	0.7927	0.61769	0.86
Mof_O 	O 	0.1361	0.8273	0.583	0.061
Mof_O 	O 	0.3292	0.288	0.37077	-1.1
Mof_O 	O 	0.3726	0.334	0.4168	-0.468
Mof_C 	C 	0.28217	0.24138	0.37862	-0.065
Mof_H 	H 	0.3041	0.2354	0.3787	0.091
Mof_C 	C 	0.3744	0.33347	0.48333	-0.023
Mof_H 	H 	0.3889	0.32	0.472	0.056
Mof_O 	O 	0.3269	0.2927	0.38231	0.86
Mof_O 	O 	0.3639	0.3273	0.417	0.061
Mof_O 	O 	0.3292	0.788	0.87077	-1.096
Mof_O 	O 	0.3726	0.834	0.9168	-0.47
Mof_C 	C 	0.28217	0.74138	0.87862	-0.065
Mof_H 	H 	0.3041	0.7354	0.8787	0.091
Mof_C 	C 	0.3744	0.83347	0.98333	0.017
Mof_H 	H 	0.3889	0.82	0.972	0.045
Mof_O 	O 	0.3269	0.7927	0.88231	0.856
Mof_O 	O 	0.3639	0.8273	0.917	0.062
Mof_O 	O 	0.8292	0.288	0.87077	-1.096
Mof_O 	O 	0.8726	0.334	0.9168	-0.47
Mof_C 	C 	0.78217	0.24138	0.87862	-0.065
Mof_H 	H 	0.8041	0.2354	0.8787	0.091
Mof_C 	C 	0.8744	0.33347	0.98333	0.017
Mof_H 	H 	0.8889	0.32	0.972	0.045
Mof_O 	O 	0.8269	0.2927	0.88231	0.855
Mof_O 	O 	0.8639	0.3273	0.917	0.062
Mof_O 	O 	0.8292	0.788	0.37077	-1.099
Mof_O 	O 	0.8726	0.834	0.4168	-0.47
Mof_C 	C 	0.78217	0.74138	0.37862	-0.065
Mof_H 	H 	0.8041	0.7354	0.3787	0.091
Mof_C 	C 	0.8744	0.83347	0.48333	-0.023
Mof_H 	H 	0.8889	0.82	0.472	0.057
Mof_O 	O 	0.8269	0.7927	0.38231	0.859
Mof_O 	O 	0.8639	0.8273	0.417	0.063
Mof_O 	O 	0.3292	0.712	0.62923	-1.099
Mof_O 	O 	0.3726	0.666	0.5832	-0.468
Mof_C 	C 	0.28217	0.75862	0.62138	-0.065
Mof_H 	H 	0.3041	0.7646	0.6213	0.091
Mof_C 	C 	0.3744	0.66653	0.51667	-0.023
Mof_H 	H 	0.3889	0.68	0.528	0.056
Mof_O 	O 	0.3269	0.7073	0.61769	0.859
Mof_O 	O 	0.3639	0.6727	0.583	0.061
Mof_O 	O 	0.3292	0.212	0.12923	-1.103
Mof_O 	O 	0.3726	0.166	0.0832	-0.466
Mof_C 	C 	0.28217	0.25862	0.12138	-0.066
Mof_H 	H 	0.3041	0.2646	0.1213	0.091
Mof_C 	C 	0.3744	0.16653	0.01667	-0.064
Mof_H 	H 	0.3889	0.18	0.028	0.068
Mof_O 	O 	0.3269	0.2073	0.11769	0.864
Mof_O 	O 	0.3639	0.1727	0.083	0.061
Mof_O 	O 	0.8292	0.712	0.12923	-1.102
Mof_O 	O 	0.8726	0.666	0.0832	-0.468
Mof_C 	C 	0.78217	0.75862	0.12138	-0.066
Mof_H 	H 	0.8041	0.7646	0.1213	0.09
Mof_C 	C 	0.8744	0.66653	0.01667	-0.063
Mof_H 	H 	0.8889	0.68	0.028	0.068
Mof_O 	O 	0.8269	0.7073	0.11769	0.862
Mof_O 	O 	0.8639	0.6727	0.083	0.063
Mof_O 	O 	0.8292	0.212	0.62923	-1.099
Mof_O 	O 	0.8726	0.166	0.5832	-0.468
Mof_C 	C 	0.78217	0.25862	0.62138	-0.065
Mof_H 	H 	0.8041	0.2646	0.6213	0.091
Mof_C 	C 	0.8744	0.16653	0.51667	-0.023
Mof_H 	H 	0.8889	0.18	0.528	0.057
Mof_O 	O 	0.8269	0.2073	0.61769	0.859
Mof_O 	O 	0.8639	0.1727	0.583	0.062
Mof_O 	O 	0.37077	0.6708	0.712	-1.099
Mof_O 	O 	0.4168	0.6274	0.666	-0.468
Mof_C 	C 	0.37862	0.71783	0.75862	-0.065
Mof_H 	H 	0.3787	0.6959	0.7646	0.091
Mof_C 	C 	0.48333	0.6256	0.66653	-0.023
Mof_H 	H 	0.472	0.6111	0.68	0.056
Mof_O 	O 	0.38231	0.6731	0.7073	0.859
Mof_O 	O 	0.417	0.6361	0.6727	0.061
Mof_O 	O 	0.37077	0.1708	0.212	-1.101
Mof_O 	O 	0.4168	0.1274	0.166	-0.467
Mof_C 	C 	0.37862	0.21783	0.25862	-0.065
Mof_H 	H 	0.3787	0.1959	0.2646	0.091
Mof_C 	C 	0.48333	0.1256	0.16653	-0.024
Mof_H 	H 	0.472	0.1111	0.18	0.056
Mof_O 	O 	0.38231	0.1731	0.2073	0.861
Mof_O 	O 	0.417	0.1361	0.1727	0.06
Mof_O 	O 	0.87077	0.6708	0.212	-1.096
Mof_O 	O 	0.9168	0.6274	0.166	-0.469
Mof_C 	C 	0.87862	0.71783	0.25862	-0.065
Mof_H 	H 	0.8787	0.6959	0.2646	0.091
Mof_C 	C 	0.98333	0.6256	0.16653	0.017
Mof_H 	H 	0.972	0.6111	0.18	0.045
Mof_O 	O 	0.88231	0.6731	0.2073	0.856
Mof_O 	O 	0.917	0.6361	0.1727	0.06
Mof_O 	O 	0.87077	0.1708	0.712	-1.097
Mof_O 	O 	0.9168	0.1274	0.666	-0.469
Mof_C 	C 	0.87862	0.21783	0.75862	-0.065
Mof_H 	H 	0.8787	0.1959	0.7646	0.091
Mof_C 	C 	0.98333	0.1256	0.66653	0.017
Mof_H 	H 	0.972	0.1111	0.68	0.045
Mof_O 	O 	0.88231	0.1731	0.7073	0.857
Mof_O 	O 	0.917	0.1361	0.6727	0.06
Mof_O 	O 	0.62923	0.6708	0.288	-1.099
Mof_O 	O 	0.5832	0.6274	0.334	-0.468
Mof_C 	C 	0.62138	0.71783	0.24138	-0.065
Mof_H 	H 	0.6213	0.6959	0.2354	0.091
Mof_C 	C 	0.51667	0.6256	0.33347	-0.023
Mof_H 	H 	0.528	0.6111	0.32	0.056
Mof_O 	O 	0.61769	0.6731	0.2927	0.859
Mof_O 	O 	0.583	0.6361	0.3273	0.061
Mof_O 	O 	0.62923	0.1708	0.788	-1.1
Mof_O 	O 	0.5832	0.1274	0.834	-0.468
Mof_C 	C 	0.62138	0.21783	0.74138	-0.065
Mof_H 	H 	0.6213	0.1959	0.7354	0.091
Mof_C 	C 	0.51667	0.1256	0.83347	-0.023
Mof_H 	H 	0.528	0.1111	0.82	0.056
Mof_O 	O 	0.61769	0.1731	0.7927	0.86
Mof_O 	O 	0.583	0.1361	0.8273	0.061
Mof_O 	O 	0.12923	0.6708	0.788	-1.103
Mof_O 	O 	0.0832	0.6274	0.834	-0.467
Mof_C 	C 	0.12138	0.71783	0.74138	-0.066
Mof_H 	H 	0.1213	0.6959	0.7354	0.09
Mof_C 	C 	0.01667	0.6256	0.83347	-0.063
Mof_H 	H 	0.028	0.6111	0.82	0.068
Mof_O 	O 	0.11769	0.6731	0.7927	0.863
Mof_O 	O 	0.083	0.6361	0.8273	0.062
Mof_O 	O 	0.12923	0.1708	0.288	-1.104
Mof_O 	O 	0.0832	0.1274	0.334	-0.466
Mof_C 	C 	0.12138	0.21783	0.24138	-0.066
Mof_H 	H 	0.1213	0.1959	0.2354	0.091
Mof_C 	C 	0.01667	0.1256	0.33347	-0.064
Mof_H 	H 	0.028	0.1111	0.32	0.067
Mof_O 	O 	0.11769	0.1731	0.2927	0.864
Mof_O 	O 	0.083	0.1361	0.3273	0.061
Mof_O 	O 	0.37077	0.3292	0.288	-1.1
Mof_O 	O 	0.4168	0.3726	0.334	-0.468
Mof_C 	C 	0.37862	0.28217	0.24138	-0.065
Mof_H 	H 	0.3787	0.3041	0.2354	0.091
Mof_C 	C 	0.48333	0.3744	0.33347	-0.023
Mof_H 	H 	0.472	0.3889	0.32	0.056
Mof_O 	O 	0.38231	0.3269	0.2927	0.86
Mof_O 	O 	0.417	0.3639	0.3273	0.061
Mof_O 	O 	0.37077	0.8292	0.788	-1.099
Mof_O 	O 	0.4168	0.8726	0.834	-0.47
Mof_C 	C 	0.37862	0.78217	0.74138	-0.065
Mof_H 	H 	0.3787	0.8041	0.7354	0.091
Mof_C 	C 	0.48333	0.8744	0.83347	-0.023
Mof_H 	H 	0.472	0.8889	0.82	0.057
Mof_O 	O 	0.38231	0.8269	0.7927	0.859
Mof_O 	O 	0.417	0.8639	0.8273	0.063
Mof_O 	O 	0.87077	0.3292	0.788	-1.096
Mof_O 	O 	0.9168	0.3726	0.834	-0.47
Mof_C 	C 	0.87862	0.28217	0.74138	-0.065
Mof_H 	H 	0.8787	0.3041	0.7354	0.091
Mof_C 	C 	0.98333	0.3744	0.83347	0.017
Mof_H 	H 	0.972	0.3889	0.82	0.045
Mof_O 	O 	0.88231	0.3269	0.7927	0.856
Mof_O 	O 	0.917	0.3639	0.8273	0.062
Mof_O 	O 	0.87077	0.8292	0.288	-1.096
Mof_O 	O 	0.9168	0.8726	0.334	-0.47
Mof_C 	C 	0.87862	0.78217	0.24138	-0.065
Mof_H 	H 	0.8787	0.8041	0.2354	0.091
Mof_C 	C 	0.98333	0.8744	0.33347	0.017
Mof_H 	H 	0.972	0.8889	0.32	0.045
Mof_O 	O 	0.88231	0.8269	0.2927	0.855
Mof_O 	O 	0.917	0.8639	0.3273	0.062
Mof_O 	O 	0.62923	0.3292	0.712	-1.099
Mof_O 	O 	0.5832	0.3726	0.666	-0.468
Mof_C 	C 	0.62138	0.28217	0.75862	-0.065
Mof_H 	H 	0.6213	0.3041	0.7646	0.091
Mof_C 	C 	0.51667	0.3744	0.66653	-0.023
Mof_H 	H 	0.528	0.3889	0.68	0.056
Mof_O 	O 	0.61769	0.3269	0.7073	0.859
Mof_O 	O 	0.583	0.3639	0.6727	0.061
Mof_O 	O 	0.62923	0.8292	0.212	-1.099
Mof_O 	O 	0.5832	0.8726	0.166	-0.468
Mof_C 	C 	0.62138	0.78217	0.25862	-0.065
Mof_H 	H 	0.6213	0.8041	0.2646	0.091
Mof_C 	C 	0.51667	0.8744	0.16653	-0.023
Mof_H 	H 	0.528	0.8889	0.18	0.057
Mof_O 	O 	0.61769	0.8269	0.2073	0.859
Mof_O 	O 	0.583	0.8639	0.1727	0.062
Mof_O 	O 	0.12923	0.3292	0.212	-1.103
Mof_O 	O 	0.0832	0.3726	0.166	-0.466
Mof_C 	C 	0.12138	0.28217	0.25862	-0.066
Mof_H 	H 	0.1213	0.3041	0.2646	0.091
Mof_C 	C 	0.01667	0.3744	0.16653	-0.064
Mof_H 	H 	0.028	0.3889	0.18	0.068
Mof_O 	O 	0.11769	0.3269	0.2073	0.864
Mof_O 	O 	0.083	0.3639	0.1727	0.061
Mof_O 	O 	0.12923	0.8292	0.712	-1.102
Mof_O 	O 	0.0832	0.8726	0.666	-0.468
Mof_C 	C 	0.12138	0.78217	0.75862	-0.066
Mof_H 	H 	0.1213	0.8041	0.7646	0.09
Mof_C 	C 	0.01667	0.8744	0.66653	-0.063
Mof_H 	H 	0.028	0.8889	0.68	0.068
Mof_O 	O 	0.11769	0.8269	0.7073	0.862
Mof_O 	O 	0.083	0.8639	0.6727	0.063
Mof_O 	O 	0.37077	0.712	0.3292	-1.1
Mof_O 	O 	0.4168	0.666	0.3726	-0.468
Mof_C 	C 	0.37862	0.75862	0.28217	-0.065
Mof_H 	H 	0.3787	0.7646	0.3041	0.091
Mof_C 	C 	0.48333	0.66653	0.3744	-0.023
Mof_H 	H 	0.472	0.68	0.3889	0.056
Mof_O 	O 	0.38231	0.7073	0.3269	0.86
Mof_O 	O 	0.417	0.6727	0.3639	0.061
Mof_O 	O 	0.37077	0.212	0.8292	-1.099
Mof_O 	O 	0.4168	0.166	0.8726	-0.468
Mof_C 	C 	0.37862	0.25862	0.78217	-0.065
Mof_H 	H 	0.3787	0.2646	0.8041	0.091
Mof_C 	C 	0.48333	0.16653	0.8744	-0.023
Mof_H 	H 	0.472	0.18	0.8889	0.057
Mof_O 	O 	0.38231	0.2073	0.8269	0.859
Mof_O 	O 	0.417	0.1727	0.8639	0.062
Mof_O 	O 	0.87077	0.712	0.8292	-1.095
Mof_O 	O 	0.9168	0.666	0.8726	-0.47
Mof_C 	C 	0.87862	0.75862	0.78217	-0.065
Mof_H 	H 	0.8787	0.7646	0.8041	0.091
Mof_C 	C 	0.98333	0.66653	0.8744	0.017
Mof_H 	H 	0.972	0.68	0.8889	0.045
Mof_O 	O 	0.88231	0.7073	0.8269	0.855
Mof_O 	O 	0.917	0.6727	0.8639	0.062
Mof_O 	O 	0.87077	0.212	0.3292	-1.096
Mof_O 	O 	0.9168	0.166	0.3726	-0.469
Mof_C 	C 	0.87862	0.25862	0.28217	-0.065
Mof_H 	H 	0.8787	0.2646	0.3041	0.091
Mof_C 	C 	0.98333	0.16653	0.3744	0.017
Mof_H 	H 	0.972	0.18	0.3889	0.045
Mof_O 	O 	0.88231	0.2073	0.3269	0.856
Mof_O 	O 	0.917	0.1727	0.3639	0.06
Mof_O 	O 	0.62923	0.288	0.3292	-1.1
Mof_O 	O 	0.5832	0.334	0.3726	-0.468
Mof_C 	C 	0.62138	0.24138	0.28217	-0.065
Mof_H 	H 	0.6213	0.2354	0.3041	0.091
Mof_C 	C 	0.51667	0.33347	0.3744	-0.023
Mof_H 	H 	0.528	0.32	0.3889	0.056
Mof_O 	O 	0.61769	0.2927	0.3269	0.86
Mof_O 	O 	0.583	0.3273	0.3639	0.061
Mof_O 	O 	0.62923	0.788	0.8292	-1.099
Mof_O 	O 	0.5832	0.834	0.8726	-0.47
Mof_C 	C 	0.62138	0.74138	0.78217	-0.065
Mof_H 	H 	0.6213	0.7354	0.8041	0.091
Mof_C 	C 	0.51667	0.83347	0.8744	-0.023
Mof_H 	H 	0.528	0.82	0.8889	0.057
Mof_O 	O 	0.61769	0.7927	0.8269	0.858
Mof_O 	O 	0.583	0.8273	0.8639	0.063
Mof_O 	O 	0.12923	0.288	0.8292	-1.102
Mof_O 	O 	0.0832	0.334	0.8726	-0.468
Mof_C 	C 	0.12138	0.24138	0.78217	-0.066
Mof_H 	H 	0.1213	0.2354	0.8041	0.09
Mof_C 	C 	0.01667	0.33347	0.8744	-0.063
Mof_H 	H 	0.028	0.32	0.8889	0.068
Mof_O 	O 	0.11769	0.2927	0.8269	0.862
Mof_O 	O 	0.083	0.3273	0.8639	0.063
Mof_O 	O 	0.12923	0.788	0.3292	-1.103
Mof_O 	O 	0.0832	0.834	0.3726	-0.467
Mof_C 	C 	0.12138	0.74138	0.28217	-0.066
Mof_H 	H 	0.1213	0.7354	0.3041	0.09
Mof_C 	C 	0.01667	0.83347	0.3744	-0.063
Mof_H 	H 	0.028	0.82	0.3889	0.068
Mof_O 	O 	0.11769	0.7927	0.3269	0.863
Mof_O 	O 	0.083	0.8273	0.3639	0.062
Mof_O 	O 	0.37077	0.288	0.6708	-1.1
Mof_O 	O 	0.4168	0.334	0.6274	-0.468
Mof_C 	C 	0.37862	0.24138	0.71783	-0.065
Mof_H 	H 	0.3787	0.2354	0.6959	0.091
Mof_C 	C 	0.48333	0.33347	0.6256	-0.023
Mof_H 	H 	0.472	0.32	0.6111	0.056
Mof_O 	O 	0.38231	0.2927	0.6731	0.86
Mof_O 	O 	0.417	0.3273	0.6361	0.061
Mof_O 	O 	0.37077	0.788	0.1708	-1.1
Mof_O 	O 	0.4168	0.834	0.1274	-0.468
Mof_C 	C 	0.37862	0.74138	0.21783	-0.065
Mof_H 	H 	0.3787	0.7354	0.1959	0.091
Mof_C 	C 	0.48333	0.83347	0.1256	-0.024
Mof_H 	H 	0.472	0.82	0.1111	0.056
Mof_O 	O 	0.38231	0.7927	0.1731	0.861
Mof_O 	O 	0.417	0.8273	0.1361	0.061
Mof_O 	O 	0.87077	0.288	0.1708	-1.097
Mof_O 	O 	0.9168	0.334	0.1274	-0.469
Mof_C 	C 	0.87862	0.24138	0.21783	-0.065
Mof_H 	H 	0.8787	0.2354	0.1959	0.091
Mof_C 	C 	0.98333	0.33347	0.1256	0.017
Mof_H 	H 	0.972	0.32	0.1111	0.045
Mof_O 	O 	0.88231	0.2927	0.1731	0.857
Mof_O 	O 	0.917	0.3273	0.1361	0.06
Mof_O 	O 	0.87077	0.788	0.6708	-1.096
Mof_O 	O 	0.9168	0.834	0.6274	-0.47
Mof_C 	C 	0.87862	0.74138	0.71783	-0.065
Mof_H 	H 	0.8787	0.7354	0.6959	0.091
Mof_C 	C 	0.98333	0.83347	0.6256	0.017
Mof_H 	H 	0.972	0.82	0.6111	0.045
Mof_O 	O 	0.88231	0.7927	0.6731	0.856
Mof_O 	O 	0.917	0.8273	0.6361	0.062
Mof_O 	O 	0.62923	0.712	0.6708	-1.099
Mof_O 	O 	0.5832	0.666	0.6274	-0.468
Mof_C 	C 	0.62138	0.75862	0.71783	-0.065
Mof_H 	H 	0.6213	0.7646	0.6959	0.091
Mof_C 	C 	0.51667	0.66653	0.6256	-0.023
Mof_H 	H 	0.528	0.68	0.6111	0.056
Mof_O 	O 	0.61769	0.7073	0.6731	0.859
Mof_O 	O 	0.583	0.6727	0.6361	0.061
Mof_O 	O 	0.62923	0.212	0.1708	-1.1
Mof_O 	O 	0.5832	0.166	0.1274	-0.467
Mof_C 	C 	0.62138	0.25862	0.21783	-0.065
Mof_H 	H 	0.6213	0.2646	0.1959	0.091
Mof_C 	C 	0.51667	0.16653	0.1256	-0.024
Mof_H 	H 	0.528	0.18	0.1111	0.056
Mof_O 	O 	0.61769	0.2073	0.1731	0.861
Mof_O 	O 	0.583	0.1727	0.1361	0.059
Mof_O 	O 	0.12923	0.712	0.1708	-1.103
Mof_O 	O 	0.0832	0.666	0.1274	-0.466
Mof_C 	C 	0.12138	0.75862	0.21783	-0.066
Mof_H 	H 	0.1213	0.7646	0.1959	0.091
Mof_C 	C 	0.01667	0.66653	0.1256	-0.064
Mof_H 	H 	0.028	0.68	0.1111	0.067
Mof_O 	O 	0.11769	0.7073	0.1731	0.864
Mof_O 	O 	0.083	0.6727	0.1361	0.06
Mof_O 	O 	0.12923	0.212	0.6708	-1.103
Mof_O 	O 	0.0832	0.166	0.6274	-0.466
Mof_C 	C 	0.12138	0.25862	0.71783	-0.066
Mof_H 	H 	0.1213	0.2646	0.6959	0.091
Mof_C 	C 	0.01667	0.16653	0.6256	-0.064
Mof_H 	H 	0.028	0.18	0.6111	0.068
Mof_O 	O 	0.11769	0.2073	0.6731	0.863
Mof_O 	O 	0.083	0.1727	0.6361	0.061
Mof_O 	O 	0.712	0.6708	0.62923	-1.099
Mof_O 	O 	0.666	0.6274	0.5832	-0.468
Mof_C 	C 	0.75862	0.71783	0.62138	-0.065
Mof_H 	H 	0.7646	0.6959	0.6213	0.091
Mof_C 	C 	0.66653	0.6256	0.51667	-0.023
Mof_H 	H 	0.68	0.6111	0.528	0.056
Mof_O 	O 	0.7073	0.6731	0.61769	0.859
Mof_O 	O 	0.6727	0.6361	0.583	0.061
Mof_O 	O 	0.712	0.1708	0.12923	-1.103
Mof_O 	O 	0.666	0.1274	0.0832	-0.466
Mof_C 	C 	0.75862	0.21783	0.12138	-0.066
Mof_H 	H 	0.7646	0.1959	0.1213	0.091
Mof_C 	C 	0.66653	0.1256	0.01667	-0.064
Mof_H 	H 	0.68	0.1111	0.028	0.067
Mof_O 	O 	0.7073	0.1731	0.11769	0.864
Mof_O 	O 	0.6727	0.1361	0.083	0.06
Mof_O 	O 	0.212	0.6708	0.12923	-1.103
Mof_O 	O 	0.166	0.6274	0.0832	-0.466
Mof_C 	C 	0.25862	0.71783	0.12138	-0.066
Mof_H 	H 	0.2646	0.6959	0.1213	0.091
Mof_C 	C 	0.16653	0.6256	0.01667	-0.064
Mof_H 	H 	0.18	0.6111	0.028	0.068
Mof_O 	O 	0.2073	0.6731	0.11769	0.863
Mof_O 	O 	0.1727	0.6361	0.083	0.061
Mof_O 	O 	0.212	0.1708	0.62923	-1.1
Mof_O 	O 	0.166	0.1274	0.5832	-0.467
Mof_C 	C 	0.25862	0.21783	0.62138	-0.065
Mof_H 	H 	0.2646	0.1959	0.6213	0.091
Mof_C 	C 	0.16653	0.1256	0.51667	-0.024
Mof_H 	H 	0.18	0.1111	0.528	0.056
Mof_O 	O 	0.2073	0.1731	0.61769	0.861
Mof_O 	O 	0.1727	0.1361	0.583	0.059
Mof_O 	O 	0.288	0.6708	0.37077	-1.1
Mof_O 	O 	0.334	0.6274	0.4168	-0.468
Mof_C 	C 	0.24138	0.71783	0.37862	-0.065
Mof_H 	H 	0.2354	0.6959	0.3787	0.091
Mof_C 	C 	0.33347	0.6256	0.48333	-0.023
Mof_H 	H 	0.32	0.6111	0.472	0.056
Mof_O 	O 	0.2927	0.6731	0.38231	0.86
Mof_O 	O 	0.3273	0.6361	0.417	0.061
Mof_O 	O 	0.288	0.1708	0.87077	-1.097
Mof_O 	O 	0.334	0.1274	0.9168	-0.469
Mof_C 	C 	0.24138	0.21783	0.87862	-0.065
Mof_H 	H 	0.2354	0.1959	0.8787	0.091
Mof_C 	C 	0.33347	0.1256	0.98333	0.017
Mof_H 	H 	0.32	0.1111	0.972	0.045
Mof_O 	O 	0.2927	0.1731	0.88231	0.857
Mof_O 	O 	0.3273	0.1361	0.917	0.06
Mof_O 	O 	0.788	0.6708	0.87077	-1.096
Mof_O 	O 	0.834	0.6274	0.9168	-0.47
Mof_C 	C 	0.74138	0.71783	0.87862	-0.065
Mof_H 	H 	0.7354	0.6959	0.8787	0.091
Mof_C 	C 	0.83347	0.6256	0.98333	0.017
Mof_H 	H 	0.82	0.6111	0.972	0.045
Mof_O 	O 	0.7927	0.6731	0.88231	0.856
Mof_O 	O 	0.8273	0.6361	0.917	0.062
Mof_O 	O 	0.788	0.1708	0.37077	-1.1
Mof_O 	O 	0.834	0.1274	0.4168	-0.468
Mof_C 	C 	0.74138	0.21783	0.37862	-0.065
Mof_H 	H 	0.7354	0.1959	0.3787	0.091
Mof_C 	C 	0.83347	0.1256	0.48333	-0.024
Mof_H 	H 	0.82	0.1111	0.472	0.056
Mof_O 	O 	0.7927	0.1731	0.38231	0.861
Mof_O 	O 	0.8273	0.1361	0.417	0.061
Mof_O 	O 	0.288	0.3292	0.62923	-1.1
Mof_O 	O 	0.334	0.3726	0.5832	-0.468
Mof_C 	C 	0.24138	0.28217	0.62138	-0.065
Mof_H 	H 	0.2354	0.3041	0.6213	0.091
Mof_C 	C 	0.33347	0.3744	0.51667	-0.023
Mof_H 	H 	0.32	0.3889	0.528	0.056
Mof_O 	O 	0.2927	0.3269	0.61769	0.86
Mof_O 	O 	0.3273	0.3639	0.583	0.061
Mof_O 	O 	0.288	0.8292	0.12923	-1.102
Mof_O 	O 	0.334	0.8726	0.0832	-0.468
Mof_C 	C 	0.24138	0.78217	0.12138	-0.066
Mof_H 	H 	0.2354	0.8041	0.1213	0.09
Mof_C 	C 	0.33347	0.8744	0.01667	-0.063
Mof_H 	H 	0.32	0.8889	0.028	0.068
Mof_O 	O 	0.2927	0.8269	0.11769	0.862
Mof_O 	O 	0.3273	0.8639	0.083	0.063
Mof_O 	O 	0.788	0.3292	0.12923	-1.103
Mof_O 	O 	0.834	0.3726	0.0832	-0.467
Mof_C 	C 	0.74138	0.28217	0.12138	-0.066
Mof_H 	H 	0.7354	0.3041	0.1213	0.09
Mof_C 	C 	0.83347	0.3744	0.01667	-0.063
Mof_H 	H 	0.82	0.3889	0.028	0.068
Mof_O 	O 	0.7927	0.3269	0.11769	0.863
Mof_O 	O 	0.8273	0.3639	0.083	0.062
Mof_O 	O 	0.788	0.8292	0.62923	-1.099
Mof_O 	O 	0.834	0.8726	0.5832	-0.47
Mof_C 	C 	0.74138	0.78217	0.62138	-0.065
Mof_H 	H 	0.7354	0.8041	0.6213	0.091
Mof_C 	C 	0.83347	0.8744	0.51667	-0.023
Mof_H 	H 	0.82	0.8889	0.528	0.057
Mof_O 	O 	0.7927	0.8269	0.61769	0.858
Mof_O 	O 	0.8273	0.8639	0.583	0.063
Mof_O 	O 	0.712	0.3292	0.37077	-1.1
Mof_O 	O 	0.666	0.3726	0.4168	-0.468
Mof_C 	C 	0.75862	0.28217	0.37862	-0.065
Mof_H 	H 	0.7646	0.3041	0.3787	0.091
Mof_C 	C 	0.66653	0.3744	0.48333	-0.023
Mof_H 	H 	0.68	0.3889	0.472	0.056
Mof_O 	O 	0.7073	0.3269	0.38231	0.86
Mof_O 	O 	0.6727	0.3639	0.417	0.061
Mof_O 	O 	0.712	0.8292	0.87077	-1.095
Mof_O 	O 	0.666	0.8726	0.9168	-0.47
Mof_C 	C 	0.75862	0.78217	0.87862	-0.065
Mof_H 	H 	0.7646	0.8041	0.8787	0.091
Mof_C 	C 	0.66653	0.8744	0.98333	0.017
Mof_H 	H 	0.68	0.8889	0.972	0.045
Mof_O 	O 	0.7073	0.8269	0.88231	0.855
Mof_O 	O 	0.6727	0.8639	0.917	0.062
Mof_O 	O 	0.212	0.3292	0.87077	-1.096
Mof_O 	O 	0.166	0.3726	0.9168	-0.469
Mof_C 	C 	0.25862	0.28217	0.87862	-0.065
Mof_H 	H 	0.2646	0.3041	0.8787	0.091
Mof_C 	C 	0.16653	0.3744	0.98333	0.017
Mof_H 	H 	0.18	0.3889	0.972	0.045
Mof_O 	O 	0.2073	0.3269	0.88231	0.856
Mof_O 	O 	0.1727	0.3639	0.917	0.06
Mof_O 	O 	0.212	0.8292	0.37077	-1.099
Mof_O 	O 	0.166	0.8726	0.4168	-0.468
Mof_C 	C 	0.25862	0.78217	0.37862	-0.065
Mof_H 	H 	0.2646	0.8041	0.3787	0.091
Mof_C 	C 	0.16653	0.8744	0.48333	-0.023
Mof_H 	H 	0.18	0.8889	0.472	0.057
Mof_O 	O 	0.2073	0.8269	0.38231	0.859
Mof_O 	O 	0.1727	0.8639	0.417	0.062
Mof_O 	O 	0.6708	0.37077	0.288	-1.1
Mof_O 	O 	0.6274	0.4168	0.334	-0.468
Mof_C 	C 	0.71783	0.37862	0.24138	-0.065
Mof_H 	H 	0.6959	0.3787	0.2354	0.091
Mof_C 	C 	0.6256	0.48333	0.33347	-0.023
Mof_H 	H 	0.6111	0.472	0.32	0.056
Mof_O 	O 	0.6731	0.38231	0.2927	0.86
Mof_O 	O 	0.6361	0.417	0.3273	0.061
Mof_O 	O 	0.6708	0.87077	0.788	-1.096
Mof_O 	O 	0.6274	0.9168	0.834	-0.47
Mof_C 	C 	0.71783	0.87862	0.74138	-0.065
Mof_H 	H 	0.6959	0.8787	0.7354	0.091
Mof_C 	C 	0.6256	0.98333	0.83347	0.017
Mof_H 	H 	0.6111	0.972	0.82	0.045
Mof_O 	O 	0.6731	0.88231	0.7927	0.856
Mof_O 	O 	0.6361	0.917	0.8273	0.062
Mof_O 	O 	0.1708	0.37077	0.788	-1.1
Mof_O 	O 	0.1274	0.4168	0.834	-0.468
Mof_C 	C 	0.21783	0.37862	0.74138	-0.065
Mof_H 	H 	0.1959	0.3787	0.7354	0.091
Mof_C 	C 	0.1256	0.48333	0.83347	-0.024
Mof_H 	H 	0.1111	0.472	0.82	0.056
Mof_O 	O 	0.1731	0.38231	0.7927	0.861
Mof_O 	O 	0.1361	0.417	0.8273	0.061
Mof_O 	O 	0.1708	0.87077	0.288	-1.097
Mof_O 	O 	0.1274	0.9168	0.334	-0.469
Mof_C 	C 	0.21783	0.87862	0.24138	-0.065
Mof_H 	H 	0.1959	0.8787	0.2354	0.091
Mof_C 	C 	0.1256	0.98333	0.33347	0.017
Mof_H 	H 	0.1111	0.972	0.32	0.045
Mof_O 	O 	0.1731	0.88231	0.2927	0.857
Mof_O 	O 	0.1361	0.917	0.3273	0.06
Mof_O 	O 	0.6708	0.62923	0.712	-1.099
Mof_O 	O 	0.6274	0.5832	0.666	-0.468
Mof_C 	C 	0.71783	0.62138	0.75862	-0.065
Mof_H 	H 	0.6959	0.6213	0.7646	0.091
Mof_C 	C 	0.6256	0.51667	0.66653	-0.023
Mof_H 	H 	0.6111	0.528	0.68	0.056
Mof_O 	O 	0.6731	0.61769	0.7073	0.859
Mof_O 	O 	0.6361	0.583	0.6727	0.061
Mof_O 	O 	0.6708	0.12923	0.212	-1.103
Mof_O 	O 	0.6274	0.0832	0.166	-0.466
Mof_C 	C 	0.71783	0.12138	0.25862	-0.066
Mof_H 	H 	0.6959	0.1213	0.2646	0.091
Mof_C 	C 	0.6256	0.01667	0.16653	-0.064
Mof_H 	H 	0.6111	0.028	0.18	0.068
Mof_O 	O 	0.6731	0.11769	0.2073	0.863
Mof_O 	O 	0.6361	0.083	0.1727	0.061
Mof_O 	O 	0.1708	0.62923	0.212	-1.1
Mof_O 	O 	0.1274	0.5832	0.166	-0.467
Mof_C 	C 	0.21783	0.62138	0.25862	-0.065
Mof_H 	H 	0.1959	0.6213	0.2646	0.091
Mof_C 	C 	0.1256	0.51667	0.16653	-0.024
Mof_H 	H 	0.1111	0.528	0.18	0.056
Mof_O 	O 	0.1731	0.61769	0.2073	0.861
Mof_O 	O 	0.1361	0.583	0.1727	0.059
Mof_O 	O 	0.1708	0.12923	0.712	-1.103
Mof_O 	O 	0.1274	0.0832	0.666	-0.466
Mof_C 	C 	0.21783	0.12138	0.75862	-0.066
Mof_H 	H 	0.1959	0.1213	0.7646	0.091
Mof_C 	C 	0.1256	0.01667	0.66653	-0.064
Mof_H 	H 	0.1111	0.028	0.68	0.067
Mof_O 	O 	0.1731	0.11769	0.7073	0.864
Mof_O 	O 	0.1361	0.083	0.6727	0.06
Mof_O 	O 	0.3292	0.37077	0.712	-1.1
Mof_O 	O 	0.3726	0.4168	0.666	-0.468
Mof_C 	C 	0.28217	0.37862	0.75862	-0.065
Mof_H 	H 	0.3041	0.3787	0.7646	0.091
Mof_C 	C 	0.3744	0.48333	0.66653	-0.023
Mof_H 	H 	0.3889	0.472	0.68	0.056
Mof_O 	O 	0.3269	0.38231	0.7073	0.86
Mof_O 	O 	0.3639	0.417	0.6727	0.061
Mof_O 	O 	0.3292	0.87077	0.212	-1.096
Mof_O 	O 	0.3726	0.9168	0.166	-0.469
Mof_C 	C 	0.28217	0.87862	0.25862	-0.065
Mof_H 	H 	0.3041	0.8787	0.2646	0.091
Mof_C 	C 	0.3744	0.98333	0.16653	0.017
Mof_H 	H 	0.3889	0.972	0.18	0.045
Mof_O 	O 	0.3269	0.88231	0.2073	0.856
Mof_O 	O 	0.3639	0.917	0.1727	0.06
Mof_O 	O 	0.8292	0.37077	0.212	-1.099
Mof_O 	O 	0.8726	0.4168	0.166	-0.468
Mof_C 	C 	0.78217	0.37862	0.25862	-0.065
Mof_H 	H 	0.8041	0.3787	0.2646	0.091
Mof_C 	C 	0.8744	0.48333	0.16653	-0.023
Mof_H 	H 	0.8889	0.472	0.18	0.057
Mof_O 	O 	0.8269	0.38231	0.2073	0.859
Mof_O 	O 	0.8639	0.417	0.1727	0.062
Mof_O 	O 	0.8292	0.87077	0.712	-1.095
Mof_O 	O 	0.8726	0.9168	0.666	-0.47
Mof_C 	C 	0.78217	0.87862	0.75862	-0.065
Mof_H 	H 	0.8041	0.8787	0.7646	0.091
Mof_C 	C 	0.8744	0.98333	0.66653	0.017
Mof_H 	H 	0.8889	0.972	0.68	0.045
Mof_O 	O 	0.8269	0.88231	0.7073	0.855
Mof_O 	O 	0.8639	0.917	0.6727	0.062
Mof_O 	O 	0.3292	0.62923	0.288	-1.1
Mof_O 	O 	0.3726	0.5832	0.334	-0.468
Mof_C 	C 	0.28217	0.62138	0.24138	-0.065
Mof_H 	H 	0.3041	0.6213	0.2354	0.091
Mof_C 	C 	0.3744	0.51667	0.33347	-0.023
Mof_H 	H 	0.3889	0.528	0.32	0.056
Mof_O 	O 	0.3269	0.61769	0.2927	0.86
Mof_O 	O 	0.3639	0.583	0.3273	0.061
Mof_O 	O 	0.3292	0.12923	0.788	-1.103
Mof_O 	O 	0.3726	0.0832	0.834	-0.467
Mof_C 	C 	0.28217	0.12138	0.74138	-0.066
Mof_H 	H 	0.3041	0.1213	0.7354	0.09
Mof_C 	C 	0.3744	0.01667	0.83347	-0.063
Mof_H 	H 	0.3889	0.028	0.82	0.068
Mof_O 	O 	0.3269	0.11769	0.7927	0.863
Mof_O 	O 	0.3639	0.083	0.8273	0.062
Mof_O 	O 	0.8292	0.62923	0.788	-1.099
Mof_O 	O 	0.8726	0.5832	0.834	-0.47
Mof_C 	C 	0.78217	0.62138	0.74138	-0.065
Mof_H 	H 	0.8041	0.6213	0.7354	0.091
Mof_C 	C 	0.8744	0.51667	0.83347	-0.023
Mof_H 	H 	0.8889	0.528	0.82	0.057
Mof_O 	O 	0.8269	0.61769	0.7927	0.858
Mof_O 	O 	0.8639	0.583	0.8273	0.063
Mof_O 	O 	0.8292	0.12923	0.288	-1.102
Mof_O 	O 	0.8726	0.0832	0.334	-0.468
Mof_C 	C 	0.78217	0.12138	0.24138	-0.066
Mof_H 	H 	0.8041	0.1213	0.2354	0.09
Mof_C 	C 	0.8744	0.01667	0.33347	-0.063
Mof_H 	H 	0.8889	0.028	0.32	0.068
Mof_O 	O 	0.8269	0.11769	0.2927	0.862
Mof_O 	O 	0.8639	0.083	0.3273	0.063
Mof_O 	O 	0.288	0.62923	0.3292	-1.1
Mof_O 	O 	0.334	0.5832	0.3726	-0.468
Mof_C 	C 	0.24138	0.62138	0.28217	-0.065
Mof_H 	H 	0.2354	0.6213	0.3041	0.091
Mof_C 	C 	0.33347	0.51667	0.3744	-0.023
Mof_H 	H 	0.32	0.528	0.3889	0.056
Mof_O 	O 	0.2927	0.61769	0.3269	0.86
Mof_O 	O 	0.3273	0.583	0.3639	0.061
Mof_O 	O 	0.288	0.12923	0.8292	-1.102
Mof_O 	O 	0.334	0.0832	0.8726	-0.468
Mof_C 	C 	0.24138	0.12138	0.78217	-0.066
Mof_H 	H 	0.2354	0.1213	0.8041	0.09
Mof_C 	C 	0.33347	0.01667	0.8744	-0.063
Mof_H 	H 	0.32	0.028	0.8889	0.068
Mof_O 	O 	0.2927	0.11769	0.8269	0.862
Mof_O 	O 	0.3273	0.083	0.8639	0.063
Mof_O 	O 	0.788	0.62923	0.8292	-1.099
Mof_O 	O 	0.834	0.5832	0.8726	-0.47
Mof_C 	C 	0.74138	0.62138	0.78217	-0.065
Mof_H 	H 	0.7354	0.6213	0.8041	0.091
Mof_C 	C 	0.83347	0.51667	0.8744	-0.023
Mof_H 	H 	0.82	0.528	0.8889	0.057
Mof_O 	O 	0.7927	0.61769	0.8269	0.858
Mof_O 	O 	0.8273	0.583	0.8639	0.063
Mof_O 	O 	0.788	0.12923	0.3292	-1.103
Mof_O 	O 	0.834	0.0832	0.3726	-0.467
Mof_C 	C 	0.74138	0.12138	0.28217	-0.066
Mof_H 	H 	0.7354	0.1213	0.3041	0.09
Mof_C 	C 	0.83347	0.01667	0.3744	-0.063
Mof_H 	H 	0.82	0.028	0.3889	0.068
Mof_O 	O 	0.7927	0.11769	0.3269	0.863
Mof_O 	O 	0.8273	0.083	0.3639	0.062
Mof_O 	O 	0.712	0.37077	0.3292	-1.1
Mof_O 	O 	0.666	0.4168	0.3726	-0.468
Mof_C 	C 	0.75862	0.37862	0.28217	-0.065
Mof_H 	H 	0.7646	0.3787	0.3041	0.091
Mof_C 	C 	0.66653	0.48333	0.3744	-0.023
Mof_H 	H 	0.68	0.472	0.3889	0.056
Mof_O 	O 	0.7073	0.38231	0.3269	0.86
Mof_O 	O 	0.6727	0.417	0.3639	0.061
Mof_O 	O 	0.712	0.87077	0.8292	-1.095
Mof_O 	O 	0.666	0.9168	0.8726	-0.47
Mof_C 	C 	0.75862	0.87862	0.78217	-0.065
Mof_H 	H 	0.7646	0.8787	0.8041	0.091
Mof_C 	C 	0.66653	0.98333	0.8744	0.017
Mof_H 	H 	0.68	0.972	0.8889	0.045
Mof_O 	O 	0.7073	0.88231	0.8269	0.855
Mof_O 	O 	0.6727	0.917	0.8639	0.062
Mof_O 	O 	0.212	0.37077	0.8292	-1.099
Mof_O 	O 	0.166	0.4168	0.8726	-0.468
Mof_C 	C 	0.25862	0.37862	0.78217	-0.065
Mof_H 	H 	0.2646	0.3787	0.8041	0.091
Mof_C 	C 	0.16653	0.48333	0.8744	-0.023
Mof_H 	H 	0.18	0.472	0.8889	0.057
Mof_O 	O 	0.2073	0.38231	0.8269	0.859
Mof_O 	O 	0.1727	0.417	0.8639	0.062
Mof_O 	O 	0.212	0.87077	0.3292	-1.096
Mof_O 	O 	0.166	0.9168	0.3726	-0.469
Mof_C 	C 	0.25862	0.87862	0.28217	-0.065
Mof_H 	H 	0.2646	0.8787	0.3041	0.091
Mof_C 	C 	0.16653	0.98333	0.3744	0.017
Mof_H 	H 	0.18	0.972	0.3889	0.045
Mof_O 	O 	0.2073	0.88231	0.3269	0.856
Mof_O 	O 	0.1727	0.917	0.3639	0.06
Mof_O 	O 	0.712	0.62923	0.6708	-1.099
Mof_O 	O 	0.666	0.5832	0.6274	-0.468
Mof_C 	C 	0.75862	0.62138	0.71783	-0.065
Mof_H 	H 	0.7646	0.6213	0.6959	0.091
Mof_C 	C 	0.66653	0.51667	0.6256	-0.023
Mof_H 	H 	0.68	0.528	0.6111	0.056
Mof_O 	O 	0.7073	0.61769	0.6731	0.859
Mof_O 	O 	0.6727	0.583	0.6361	0.061
Mof_O 	O 	0.712	0.12923	0.1708	-1.103
Mof_O 	O 	0.666	0.0832	0.1274	-0.466
Mof_C 	C 	0.75862	0.12138	0.21783	-0.066
Mof_H 	H 	0.7646	0.1213	0.1959	0.091
Mof_C 	C 	0.66653	0.01667	0.1256	-0.064
Mof_H 	H 	0.68	0.028	0.1111	0.067
Mof_O 	O 	0.7073	0.11769	0.1731	0.864
Mof_O 	O 	0.6727	0.083	0.1361	0.06
Mof_O 	O 	0.212	0.62923	0.1708	-1.1
Mof_O 	O 	0.166	0.5832	0.1274	-0.467
Mof_C 	C 	0.25862	0.62138	0.21783	-0.065
Mof_H 	H 	0.2646	0.6213	0.1959	0.091
Mof_C 	C 	0.16653	0.51667	0.1256	-0.024
Mof_H 	H 	0.18	0.528	0.1111	0.056
Mof_O 	O 	0.2073	0.61769	0.1731	0.861
Mof_O 	O 	0.1727	0.583	0.1361	0.059
Mof_O 	O 	0.212	0.12923	0.6708	-1.103
Mof_O 	O 	0.166	0.0832	0.6274	-0.466
Mof_C 	C 	0.25862	0.12138	0.71783	-0.066
Mof_H 	H 	0.2646	0.1213	0.6959	0.091
Mof_C 	C 	0.16653	0.01667	0.6256	-0.064
Mof_H 	H 	0.18	0.028	0.6111	0.068
Mof_O 	O 	0.2073	0.11769	0.6731	0.863
Mof_O 	O 	0.1727	0.083	0.6361	0.061
Mof_O 	O 	0.288	0.37077	0.6708	-1.1
Mof_O 	O 	0.334	0.4168	0.6274	-0.468
Mof_C 	C 	0.24138	0.37862	0.71783	-0.065
Mof_H 	H 	0.2354	0.3787	0.6959	0.091
Mof_C 	C 	0.33347	0.48333	0.6256	-0.023
Mof_H 	H 	0.32	0.472	0.6111	0.056
Mof_O 	O 	0.2927	0.38231	0.6731	0.86
Mof_O 	O 	0.3273	0.417	0.6361	0.061
Mof_O 	O 	0.288	0.87077	0.1708	-1.097
Mof_O 	O 	0.334	0.9168	0.1274	-0.469
Mof_C 	C 	0.24138	0.87862	0.21783	-0.065
Mof_H 	H 	0.2354	0.8787	0.1959	0.091
Mof_C 	C 	0.33347	0.98333	0.1256	0.017
Mof_H 	H 	0.32	0.972	0.1111	0.045
Mof_O 	O 	0.2927	0.88231	0.1731	0.857
Mof_O 	O 	0.3273	0.917	0.1361	0.06
Mof_O 	O 	0.788	0.37077	0.1708	-1.1
Mof_O 	O 	0.834	0.4168	0.1274	-0.468
Mof_C 	C 	0.74138	0.37862	0.21783	-0.065
Mof_H 	H 	0.7354	0.3787	0.1959	0.091
Mof_C 	C 	0.83347	0.48333	0.1256	-0.024
Mof_H 	H 	0.82	0.472	0.1111	0.056
Mof_O 	O 	0.7927	0.38231	0.1731	0.861
Mof_O 	O 	0.8273	0.417	0.1361	0.061
Mof_O 	O 	0.788	0.87077	0.6708	-1.096
Mof_O 	O 	0.834	0.9168	0.6274	-0.47
Mof_C 	C 	0.74138	0.87862	0.71783	-0.065
Mof_H 	H 	0.7354	0.8787	0.6959	0.091
Mof_C 	C 	0.83347	0.98333	0.6256	0.017
Mof_H 	H 	0.82	0.972	0.6111	0.045
Mof_O 	O 	0.7927	0.88231	0.6731	0.856
Mof_O 	O 	0.8273	0.917	0.6361	0.062
Mof_O 	O 	0.3292	0.288	0.62923	-1.1
Mof_O 	O 	0.3726	0.334	0.5832	-0.468
Mof_C 	C 	0.28217	0.24138	0.62138	-0.065
Mof_H 	H 	0.3041	0.2354	0.6213	0.091
Mof_C 	C 	0.3744	0.33347	0.51667	-0.023
Mof_H 	H 	0.3889	0.32	0.528	0.056
Mof_O 	O 	0.3269	0.2927	0.61769	0.86
Mof_O 	O 	0.3639	0.3273	0.583	0.061
Mof_O 	O 	0.3292	0.788	0.12923	-1.103
Mof_O 	O 	0.3726	0.834	0.0832	-0.467
Mof_C 	C 	0.28217	0.74138	0.12138	-0.066
Mof_H 	H 	0.3041	0.7354	0.1213	0.09
Mof_C 	C 	0.3744	0.83347	0.01667	-0.063
Mof_H 	H 	0.3889	0.82	0.028	0.068
Mof_O 	O 	0.3269	0.7927	0.11769	0.863
Mof_O 	O 	0.3639	0.8273	0.083	0.062
Mof_O 	O 	0.8292	0.288	0.12923	-1.102
Mof_O 	O 	0.8726	0.334	0.0832	-0.468
Mof_C 	C 	0.78217	0.24138	0.12138	-0.066
Mof_H 	H 	0.8041	0.2354	0.1213	0.09
Mof_C 	C 	0.8744	0.33347	0.01667	-0.063
Mof_H 	H 	0.8889	0.32	0.028	0.068
Mof_O 	O 	0.8269	0.2927	0.11769	0.862
Mof_O 	O 	0.8639	0.3273	0.083	0.063
Mof_O 	O 	0.8292	0.788	0.62923	-1.099
Mof_O 	O 	0.8726	0.834	0.5832	-0.47
Mof_C 	C 	0.78217	0.74138	0.62138	-0.065
Mof_H 	H 	0.8041	0.7354	0.6213	0.091
Mof_C 	C 	0.8744	0.83347	0.51667	-0.023
Mof_H 	H 	0.8889	0.82	0.528	0.057
Mof_O 	O 	0.8269	0.7927	0.61769	0.858
Mof_O 	O 	0.8639	0.8273	0.583	0.063
Mof_O 	O 	0.3292	0.712	0.37077	-1.1
Mof_O 	O 	0.3726	0.666	0.4168	-0.468
Mof_C 	C 	0.28217	0.75862	0.37862	-0.065
Mof_H 	H 	0.3041	0.7646	0.3787	0.091
Mof_C 	C 	0.3744	0.66653	0.48333	-0.023
Mof_H 	H 	0.3889	0.68	0.472	0.056
Mof_O 	O 	0.3269	0.7073	0.38231	0.86
Mof_O 	O 	0.3639	0.6727	0.417	0.061
Mof_O 	O 	0.3292	0.212	0.87077	-1.096
Mof_O 	O 	0.3726	0.166	0.9168	-0.469
Mof_C 	C 	0.28217	0.25862	0.87862	-0.065
Mof_H 	H 	0.3041	0.2646	0.8787	0.091
Mof_C 	C 	0.3744	0.16653	0.98333	0.017
Mof_H 	H 	0.3889	0.18	0.972	0.045
Mof_O 	O 	0.3269	0.2073	0.88231	0.856
Mof_O 	O 	0.3639	0.1727	0.917	0.06
Mof_O 	O 	0.8292	0.712	0.87077	-1.095
Mof_O 	O 	0.8726	0.666	0.9168	-0.47
Mof_C 	C 	0.78217	0.75862	0.87862	-0.065
Mof_H 	H 	0.8041	0.7646	0.8787	0.091
Mof_C 	C 	0.8744	0.66653	0.98333	0.017
Mof_H 	H 	0.8889	0.68	0.972	0.045
Mof_O 	O 	0.8269	0.7073	0.88231	0.855
Mof_O 	O 	0.8639	0.6727	0.917	0.062
Mof_O 	O 	0.8292	0.212	0.37077	-1.099
Mof_O 	O 	0.8726	0.166	0.4168	-0.468
Mof_C 	C 	0.78217	0.25862	0.37862	-0.065
Mof_H 	H 	0.8041	0.2646	0.3787	0.091
Mof_C 	C 	0.8744	0.16653	0.48333	-0.023
Mof_H 	H 	0.8889	0.18	0.472	0.057
Mof_O 	O 	0.8269	0.2073	0.38231	0.859
Mof_O 	O 	0.8639	0.1727	0.417	0.062
Mof_O 	O 	0.6708	0.712	0.62923	-1.099
Mof_O 	O 	0.6274	0.666	0.5832	-0.468
Mof_C 	C 	0.71783	0.75862	0.62138	-0.065
Mof_H 	H 	0.6959	0.7646	0.6213	0.091
Mof_C 	C 	0.6256	0.66653	0.51667	-0.023
Mof_H 	H 	0.6111	0.68	0.528	0.056
Mof_O 	O 	0.6731	0.7073	0.61769	0.859
Mof_O 	O 	0.6361	0.6727	0.583	0.061
Mof_O 	O 	0.6708	0.212	0.12923	-1.103
Mof_O 	O 	0.6274	0.166	0.0832	-0.466
Mof_C 	C 	0.71783	0.25862	0.12138	-0.066
Mof_H 	H 	0.6959	0.2646	0.1213	0.091
Mof_C 	C 	0.6256	0.16653	0.01667	-0.064
Mof_H 	H 	0.6111	0.18	0.028	0.068
Mof_O 	O 	0.6731	0.2073	0.11769	0.863
Mof_O 	O 	0.6361	0.1727	0.083	0.061
Mof_O 	O 	0.1708	0.712	0.12923	-1.103
Mof_O 	O 	0.1274	0.666	0.0832	-0.466
Mof_C 	C 	0.21783	0.75862	0.12138	-0.066
Mof_H 	H 	0.1959	0.7646	0.1213	0.091
Mof_C 	C 	0.1256	0.66653	0.01667	-0.064
Mof_H 	H 	0.1111	0.68	0.028	0.067
Mof_O 	O 	0.1731	0.7073	0.11769	0.864
Mof_O 	O 	0.1361	0.6727	0.083	0.06
Mof_O 	O 	0.1708	0.212	0.62923	-1.1
Mof_O 	O 	0.1274	0.166	0.5832	-0.467
Mof_C 	C 	0.21783	0.25862	0.62138	-0.065
Mof_H 	H 	0.1959	0.2646	0.6213	0.091
Mof_C 	C 	0.1256	0.16653	0.51667	-0.024
Mof_H 	H 	0.1111	0.18	0.528	0.056
Mof_O 	O 	0.1731	0.2073	0.61769	0.861
Mof_O 	O 	0.1361	0.1727	0.583	0.059
Mof_O 	O 	0.6708	0.288	0.37077	-1.1
Mof_O 	O 	0.6274	0.334	0.4168	-0.468
Mof_C 	C 	0.71783	0.24138	0.37862	-0.065
Mof_H 	H 	0.6959	0.2354	0.3787	0.091
Mof_C 	C 	0.6256	0.33347	0.48333	-0.023
Mof_H 	H 	0.6111	0.32	0.472	0.056
Mof_O 	O 	0.6731	0.2927	0.38231	0.86
Mof_O 	O 	0.6361	0.3273	0.417	0.061
Mof_O 	O 	0.6708	0.788	0.87077	-1.096
Mof_O 	O 	0.6274	0.834	0.9168	-0.47
Mof_C 	C 	0.71783	0.74138	0.87862	-0.065
Mof_H 	H 	0.6959	0.7354	0.8787	0.091
Mof_C 	C 	0.6256	0.83347	0.98333	0.017
Mof_H 	H 	0.6111	0.82	0.972	0.045
Mof_O 	O 	0.6731	0.7927	0.88231	0.856
Mof_O 	O 	0.6361	0.8273	0.917	0.062
Mof_O 	O 	0.1708	0.288	0.87077	-1.097
Mof_O 	O 	0.1274	0.334	0.9168	-0.469
Mof_C 	C 	0.21783	0.24138	0.87862	-0.065
Mof_H 	H 	0.1959	0.2354	0.8787	0.091
Mof_C 	C 	0.1256	0.33347	0.98333	0.017
Mof_H 	H 	0.1111	0.32	0.972	0.045
Mof_O 	O 	0.1731	0.2927	0.88231	0.857
Mof_O 	O 	0.1361	0.3273	0.917	0.06
Mof_O 	O 	0.1708	0.788	0.37077	-1.1
Mof_O 	O 	0.1274	0.834	0.4168	-0.468
Mof_C 	C 	0.21783	0.74138	0.37862	-0.065
Mof_H 	H 	0.1959	0.7354	0.3787	0.091
Mof_C 	C 	0.1256	0.83347	0.48333	-0.024
Mof_H 	H 	0.1111	0.82	0.472	0.056
Mof_O 	O 	0.1731	0.7927	0.38231	0.861
Mof_O 	O 	0.1361	0.8273	0.417	0.061
Mof_O 	O 	0.62923	0.3292	0.288	-1.1
Mof_O 	O 	0.5832	0.3726	0.334	-0.468
Mof_C 	C 	0.62138	0.28217	0.24138	-0.065
Mof_H 	H 	0.6213	0.3041	0.2354	0.091
Mof_C 	C 	0.51667	0.3744	0.33347	-0.023
Mof_H 	H 	0.528	0.3889	0.32	0.056
Mof_O 	O 	0.61769	0.3269	0.2927	0.86
Mof_O 	O 	0.583	0.3639	0.3273	0.061
Mof_O 	O 	0.62923	0.8292	0.788	-1.099
Mof_O 	O 	0.5832	0.8726	0.834	-0.47
Mof_C 	C 	0.62138	0.78217	0.74138	-0.065
Mof_H 	H 	0.6213	0.8041	0.7354	0.091
Mof_C 	C 	0.51667	0.8744	0.83347	-0.023
Mof_H 	H 	0.528	0.8889	0.82	0.057
Mof_O 	O 	0.61769	0.8269	0.7927	0.858
Mof_O 	O 	0.583	0.8639	0.8273	0.063
Mof_O 	O 	0.12923	0.3292	0.788	-1.103
Mof_O 	O 	0.0832	0.3726	0.834	-0.467
Mof_C 	C 	0.12138	0.28217	0.74138	-0.066
Mof_H 	H 	0.1213	0.3041	0.7354	0.09
Mof_C 	C 	0.01667	0.3744	0.83347	-0.063
Mof_H 	H 	0.028	0.3889	0.82	0.068
Mof_O 	O 	0.11769	0.3269	0.7927	0.863
Mof_O 	O 	0.083	0.3639	0.8273	0.062
Mof_O 	O 	0.12923	0.8292	0.288	-1.102
Mof_O 	O 	0.0832	0.8726	0.334	-0.468
Mof_C 	C 	0.12138	0.78217	0.24138	-0.066
Mof_H 	H 	0.1213	0.8041	0.2354	0.09
Mof_C 	C 	0.01667	0.8744	0.33347	-0.063
Mof_H 	H 	0.028	0.8889	0.32	0.068
Mof_O 	O 	0.11769	0.8269	0.2927	0.862
Mof_O 	O 	0.083	0.8639	0.3273	0.063
Mof_O 	O 	0.37077	0.3292	0.712	-1.1
Mof_O 	O 	0.4168	0.3726	0.666	-0.468
Mof_C 	C 	0.37862	0.28217	0.75862	-0.065
Mof_H 	H 	0.3787	0.3041	0.7646	0.091
Mof_C 	C 	0.48333	0.3744	0.66653	-0.023
Mof_H 	H 	0.472	0.3889	0.68	0.056
Mof_O 	O 	0.38231	0.3269	0.7073	0.86
Mof_O 	O 	0.417	0.3639	0.6727	0.061
Mof_O 	O 	0.37077	0.8292	0.212	-1.099
Mof_O 	O 	0.4168	0.8726	0.166	-0.468
Mof_C 	C 	0.37862	0.78217	0.25862	-0.065
Mof_H 	H 	0.3787	0.8041	0.2646	0.091
Mof_C 	C 	0.48333	0.8744	0.16653	-0.023
Mof_H 	H 	0.472	0.8889	0.18	0.057
Mof_O 	O 	0.38231	0.8269	0.2073	0.859
Mof_O 	O 	0.417	0.8639	0.1727	0.062
Mof_O 	O 	0.87077	0.3292	0.212	-1.096
Mof_O 	O 	0.9168	0.3726	0.166	-0.469
Mof_C 	C 	0.87862	0.28217	0.25862	-0.065
Mof_H 	H 	0.8787	0.3041	0.2646	0.091
Mof_C 	C 	0.98333	0.3744	0.16653	0.017
Mof_H 	H 	0.972	0.3889	0.18	0.045
Mof_O 	O 	0.88231	0.3269	0.2073	0.856
Mof_O 	O 	0.917	0.3639	0.1727	0.06
Mof_O 	O 	0.87077	0.8292	0.712	-1.095
Mof_O 	O 	0.9168	0.8726	0.666	-0.47
Mof_C 	C 	0.87862	0.78217	0.75862	-0.065
Mof_H 	H 	0.8787	0.8041	0.7646	0.091
Mof_C 	C 	0.98333	0.8744	0.66653	0.017
Mof_H 	H 	0.972	0.8889	0.68	0.045
Mof_O 	O 	0.88231	0.8269	0.7073	0.855
Mof_O 	O 	0.917	0.8639	0.6727	0.062
Mof_O 	O 	0.62923	0.6708	0.712	-1.099
Mof_O 	O 	0.5832	0.6274	0.666	-0.468
Mof_C 	C 	0.62138	0.71783	0.75862	-0.065
Mof_H 	H 	0.6213	0.6959	0.7646	0.091
Mof_C 	C 	0.51667	0.6256	0.66653	-0.023
Mof_H 	H 	0.528	0.6111	0.68	0.056
Mof_O 	O 	0.61769	0.6731	0.7073	0.859
Mof_O 	O 	0.583	0.6361	0.6727	0.061
Mof_O 	O 	0.62923	0.1708	0.212	-1.1
Mof_O 	O 	0.5832	0.1274	0.166	-0.467
Mof_C 	C 	0.62138	0.21783	0.25862	-0.065
Mof_H 	H 	0.6213	0.1959	0.2646	0.091
Mof_C 	C 	0.51667	0.1256	0.16653	-0.024
Mof_H 	H 	0.528	0.1111	0.18	0.056
Mof_O 	O 	0.61769	0.1731	0.2073	0.861
Mof_O 	O 	0.583	0.1361	0.1727	0.059
Mof_O 	O 	0.12923	0.6708	0.212	-1.103
Mof_O 	O 	0.0832	0.6274	0.166	-0.466
Mof_C 	C 	0.12138	0.71783	0.25862	-0.066
Mof_H 	H 	0.1213	0.6959	0.2646	0.091
Mof_C 	C 	0.01667	0.6256	0.16653	-0.064
Mof_H 	H 	0.028	0.6111	0.18	0.068
Mof_O 	O 	0.11769	0.6731	0.2073	0.863
Mof_O 	O 	0.083	0.6361	0.1727	0.061
Mof_O 	O 	0.12923	0.1708	0.712	-1.103
Mof_O 	O 	0.0832	0.1274	0.666	-0.466
Mof_C 	C 	0.12138	0.21783	0.75862	-0.066
Mof_H 	H 	0.1213	0.1959	0.7646	0.091
Mof_C 	C 	0.01667	0.1256	0.66653	-0.064
Mof_H 	H 	0.028	0.1111	0.68	0.067
Mof_O 	O 	0.11769	0.1731	0.7073	0.864
Mof_O 	O 	0.083	0.1361	0.6727	0.06
Mof_O 	O 	0.37077	0.6708	0.288	-1.1
Mof_O 	O 	0.4168	0.6274	0.334	-0.468
Mof_C 	C 	0.37862	0.71783	0.24138	-0.065
Mof_H 	H 	0.3787	0.6959	0.2354	0.091
Mof_C 	C 	0.48333	0.6256	0.33347	-0.023
Mof_H 	H 	0.472	0.6111	0.32	0.056
Mof_O 	O 	0.38231	0.6731	0.2927	0.86
Mof_O 	O 	0.417	0.6361	0.3273	0.061
Mof_O 	O 	0.37077	0.1708	0.788	-1.1
Mof_O 	O 	0.4168	0.1274	0.834	-0.468
Mof_C 	C 	0.37862	0.21783	0.74138	-0.065
Mof_H 	H 	0.3787	0.1959	0.7354	0.091
Mof_C 	C 	0.48333	0.1256	0.83347	-0.024
Mof_H 	H 	0.472	0.1111	0.82	0.056
Mof_O 	O 	0.38231	0.1731	0.7927	0.861
Mof_O 	O 	0.417	0.1361	0.8273	0.061
Mof_O 	O 	0.87077	0.6708	0.788	-1.096
Mof_O 	O 	0.9168	0.6274	0.834	-0.47
Mof_C 	C 	0.87862	0.71783	0.74138	-0.065
Mof_H 	H 	0.8787	0.6959	0.7354	0.091
Mof_C 	C 	0.98333	0.6256	0.83347	0.017
Mof_H 	H 	0.972	0.6111	0.82	0.045
Mof_O 	O 	0.88231	0.6731	0.7927	0.856
Mof_O 	O 	0.917	0.6361	0.8273	0.062
Mof_O 	O 	0.87077	0.1708	0.288	-1.097
Mof_O 	O 	0.9168	0.1274	0.334	-0.469
Mof_C 	C 	0.87862	0.21783	0.24138	-0.065
Mof_H 	H 	0.8787	0.1959	0.2354	0.091
Mof_C 	C 	0.98333	0.1256	0.33347	0.017
Mof_H 	H 	0.972	0.1111	0.32	0.045
Mof_O 	O 	0.88231	0.1731	0.2927	0.857
Mof_O 	O 	0.917	0.1361	0.3273	0.06
Mof_O 	O 	0.62923	0.288	0.6708	-1.099
Mof_O 	O 	0.5832	0.334	0.6274	-0.468
Mof_C 	C 	0.62138	0.24138	0.71783	-0.065
Mof_H 	H 	0.6213	0.2354	0.6959	0.091
Mof_C 	C 	0.51667	0.33347	0.6256	-0.023
Mof_H 	H 	0.528	0.32	0.6111	0.056
Mof_O 	O 	0.61769	0.2927	0.6731	0.859
Mof_O 	O 	0.583	0.3273	0.6361	0.061
Mof_O 	O 	0.62923	0.788	0.1708	-1.1
Mof_O 	O 	0.5832	0.834	0.1274	-0.468
Mof_C 	C 	0.62138	0.74138	0.21783	-0.065
Mof_H 	H 	0.6213	0.7354	0.1959	0.091
Mof_C 	C 	0.51667	0.83347	0.1256	-0.023
Mof_H 	H 	0.528	0.82	0.1111	0.056
Mof_O 	O 	0.61769	0.7927	0.1731	0.86
Mof_O 	O 	0.583	0.8273	0.1361	0.061
Mof_O 	O 	0.12923	0.288	0.1708	-1.104
Mof_O 	O 	0.0832	0.334	0.1274	-0.466
Mof_C 	C 	0.12138	0.24138	0.21783	-0.066
Mof_H 	H 	0.1213	0.2354	0.1959	0.091
Mof_C 	C 	0.01667	0.33347	0.1256	-0.064
Mof_H 	H 	0.028	0.32	0.1111	0.067
Mof_O 	O 	0.11769	0.2927	0.1731	0.864
Mof_O 	O 	0.083	0.3273	0.1361	0.061
Mof_O 	O 	0.12923	0.788	0.6708	-1.103
Mof_O 	O 	0.0832	0.834	0.6274	-0.467
Mof_C 	C 	0.12138	0.74138	0.71783	-0.066
Mof_H 	H 	0.1213	0.7354	0.6959	0.09
Mof_C 	C 	0.01667	0.83347	0.6256	-0.063
Mof_H 	H 	0.028	0.82	0.6111	0.068
Mof_O 	O 	0.11769	0.7927	0.6731	0.863
Mof_O 	O 	0.083	0.8273	0.6361	0.062
Mof_O 	O 	0.37077	0.712	0.6708	-1.099
Mof_O 	O 	0.4168	0.666	0.6274	-0.468
Mof_C 	C 	0.37862	0.75862	0.71783	-0.065
Mof_H 	H 	0.3787	0.7646	0.6959	0.091
Mof_C 	C 	0.48333	0.66653	0.6256	-0.023
Mof_H 	H 	0.472	0.68	0.6111	0.056
Mof_O 	O 	0.38231	0.7073	0.6731	0.859
Mof_O 	O 	0.417	0.6727	0.6361	0.061
Mof_O 	O 	0.37077	0.212	0.1708	-1.101
Mof_O 	O 	0.4168	0.166	0.1274	-0.467
Mof_C 	C 	0.37862	0.25862	0.21783	-0.065
Mof_H 	H 	0.3787	0.2646	0.1959	0.091
Mof_C 	C 	0.48333	0.16653	0.1256	-0.024
Mof_H 	H 	0.472	0.18	0.1111	0.056
Mof_O 	O 	0.38231	0.2073	0.1731	0.861
Mof_O 	O 	0.417	0.1727	0.1361	0.06
Mof_O 	O 	0.87077	0.712	0.1708	-1.097
Mof_O 	O 	0.9168	0.666	0.1274	-0.469
Mof_C 	C 	0.87862	0.75862	0.21783	-0.065
Mof_H 	H 	0.8787	0.7646	0.1959	0.091
Mof_C 	C 	0.98333	0.66653	0.1256	0.017
Mof_H 	H 	0.972	0.68	0.1111	0.045
Mof_O 	O 	0.88231	0.7073	0.1731	0.857
Mof_O 	O 	0.917	0.6727	0.1361	0.06
Mof_O 	O 	0.87077	0.212	0.6708	-1.096
Mof_O 	O 	0.9168	0.166	0.6274	-0.469
Mof_C 	C 	0.87862	0.25862	0.71783	-0.065
Mof_H 	H 	0.8787	0.2646	0.6959	0.091
Mof_C 	C 	0.98333	0.16653	0.6256	0.017
Mof_H 	H 	0.972	0.18	0.6111	0.045
Mof_O 	O 	0.88231	0.2073	0.6731	0.856
Mof_O 	O 	0.917	0.1727	0.6361	0.06
Mof_O 	O 	0.62923	0.712	0.3292	-1.099
Mof_O 	O 	0.5832	0.666	0.3726	-0.468
Mof_C 	C 	0.62138	0.75862	0.28217	-0.065
Mof_H 	H 	0.6213	0.7646	0.3041	0.091
Mof_C 	C 	0.51667	0.66653	0.3744	-0.023
Mof_H 	H 	0.528	0.68	0.3889	0.056
Mof_O 	O 	0.61769	0.7073	0.3269	0.859
Mof_O 	O 	0.583	0.6727	0.3639	0.061
Mof_O 	O 	0.62923	0.212	0.8292	-1.099
Mof_O 	O 	0.5832	0.166	0.8726	-0.468
Mof_C 	C 	0.62138	0.25862	0.78217	-0.065
Mof_H 	H 	0.6213	0.2646	0.8041	0.091
Mof_C 	C 	0.51667	0.16653	0.8744	-0.023
Mof_H 	H 	0.528	0.18	0.8889	0.057
Mof_O 	O 	0.61769	0.2073	0.8269	0.859
Mof_O 	O 	0.583	0.1727	0.8639	0.062
Mof_O 	O 	0.12923	0.712	0.8292	-1.102
Mof_O 	O 	0.0832	0.666	0.8726	-0.468
Mof_C 	C 	0.12138	0.75862	0.78217	-0.066
Mof_H 	H 	0.1213	0.7646	0.8041	0.09
Mof_C 	C 	0.01667	0.66653	0.8744	-0.063
Mof_H 	H 	0.028	0.68	0.8889	0.068
Mof_O 	O 	0.11769	0.7073	0.8269	0.862
Mof_O 	O 	0.083	0.6727	0.8639	0.063
Mof_O 	O 	0.12923	0.212	0.3292	-1.103
Mof_O 	O 	0.0832	0.166	0.3726	-0.466
Mof_C 	C 	0.12138	0.25862	0.28217	-0.066
Mof_H 	H 	0.1213	0.2646	0.3041	0.091
Mof_C 	C 	0.01667	0.16653	0.3744	-0.064
Mof_H 	H 	0.028	0.18	0.3889	0.068
Mof_O 	O 	0.11769	0.2073	0.3269	0.864
Mof_O 	O 	0.083	0.1727	0.3639	0.061
Mof_O 	O 	0.37077	0.288	0.3292	-1.1
Mof_O 	O 	0.4168	0.334	0.3726	-0.468
Mof_C 	C 	0.37862	0.24138	0.28217	-0.065
Mof_H 	H 	0.3787	0.2354	0.3041	0.091
Mof_C 	C 	0.48333	0.33347	0.3744	-0.023
Mof_H 	H 	0.472	0.32	0.3889	0.056
Mof_O 	O 	0.38231	0.2927	0.3269	0.86
Mof_O 	O 	0.417	0.3273	0.3639	0.061
Mof_O 	O 	0.37077	0.788	0.8292	-1.099
Mof_O 	O 	0.4168	0.834	0.8726	-0.47
Mof_C 	C 	0.37862	0.74138	0.78217	-0.065
Mof_H 	H 	0.3787	0.7354	0.8041	0.091
Mof_C 	C 	0.48333	0.83347	0.8744	-0.023
Mof_H 	H 	0.472	0.82	0.8889	0.057
Mof_O 	O 	0.38231	0.7927	0.8269	0.859
Mof_O 	O 	0.417	0.8273	0.8639	0.063
Mof_O 	O 	0.87077	0.288	0.8292	-1.096
Mof_O 	O 	0.9168	0.334	0.8726	-0.47
Mof_C 	C 	0.87862	0.24138	0.78217	-0.065
Mof_H 	H 	0.8787	0.2354	0.8041	0.091
Mof_C 	C 	0.98333	0.33347	0.8744	0.017
Mof_H 	H 	0.972	0.32	0.8889	0.045
Mof_O 	O 	0.88231	0.2927	0.8269	0.855
Mof_O 	O 	0.917	0.3273	0.8639	0.062
Mof_O 	O 	0.87077	0.788	0.3292	-1.096
Mof_O 	O 	0.9168	0.834	0.3726	-0.47
Mof_C 	C 	0.87862	0.74138	0.28217	-0.065
Mof_H 	H 	0.8787	0.7354	0.3041	0.091
Mof_C 	C 	0.98333	0.83347	0.3744	0.017
Mof_H 	H 	0.972	0.82	0.3889	0.045
Mof_O 	O 	0.88231	0.7927	0.3269	0.856
Mof_O 	O 	0.917	0.8273	0.3639	0.062
Mof_O 	O 	0.288	0.3292	0.37077	-1.1
Mof_O 	O 	0.334	0.3726	0.4168	-0.468
Mof_C 	C 	0.24138	0.28217	0.37862	-0.065
Mof_H 	H 	0.2354	0.3041	0.3787	0.091
Mof_C 	C 	0.33347	0.3744	0.48333	-0.023
Mof_H 	H 	0.32	0.3889	0.472	0.056
Mof_O 	O 	0.2927	0.3269	0.38231	0.86
Mof_O 	O 	0.3273	0.3639	0.417	0.061
Mof_O 	O 	0.288	0.8292	0.87077	-1.096
Mof_O 	O 	0.334	0.8726	0.9168	-0.47
Mof_C 	C 	0.24138	0.78217	0.87862	-0.065
Mof_H 	H 	0.2354	0.8041	0.8787	0.091
Mof_C 	C 	0.33347	0.8744	0.98333	0.017
Mof_H 	H 	0.32	0.8889	0.972	0.045
Mof_O 	O 	0.2927	0.8269	0.88231	0.855
Mof_O 	O 	0.3273	0.8639	0.917	0.062
Mof_O 	O 	0.788	0.3292	0.87077	-1.096
Mof_O 	O 	0.834	0.3726	0.9168	-0.47
Mof_C 	C 	0.74138	0.28217	0.87862	-0.065
Mof_H 	H 	0.7354	0.3041	0.8787	0.091
Mof_C 	C 	0.83347	0.3744	0.98333	0.017
Mof_H 	H 	0.82	0.3889	0.972	0.045
Mof_O 	O 	0.7927	0.3269	0.88231	0.856
Mof_O 	O 	0.8273	0.3639	0.917	0.062
Mof_O 	O 	0.788	0.8292	0.37077	-1.099
Mof_O 	O 	0.834	0.8726	0.4168	-0.47
Mof_C 	C 	0.74138	0.78217	0.37862	-0.065
Mof_H 	H 	0.7354	0.8041	0.3787	0.091
Mof_C 	C 	0.83347	0.8744	0.48333	-0.023
Mof_H 	H 	0.82	0.8889	0.472	0.057
Mof_O 	O 	0.7927	0.8269	0.38231	0.859
Mof_O 	O 	0.8273	0.8639	0.417	0.063
Mof_O 	O 	0.712	0.3292	0.62923	-1.099
Mof_O 	O 	0.666	0.3726	0.5832	-0.468
Mof_C 	C 	0.75862	0.28217	0.62138	-0.065
Mof_H 	H 	0.7646	0.3041	0.6213	0.091
Mof_C 	C 	0.66653	0.3744	0.51667	-0.023
Mof_H 	H 	0.68	0.3889	0.528	0.056
Mof_O 	O 	0.7073	0.3269	0.61769	0.859
Mof_O 	O 	0.6727	0.3639	0.583	0.061
Mof_O 	O 	0.712	0.8292	0.12923	-1.102
Mof_O 	O 	0.666	0.8726	0.0832	-0.468
Mof_C 	C 	0.75862	0.78217	0.12138	-0.066
Mof_H 	H 	0.7646	0.8041	0.1213	0.09
Mof_C 	C 	0.66653	0.8744	0.01667	-0.063
Mof_H 	H 	0.68	0.8889	0.028	0.068
Mof_O 	O 	0.7073	0.8269	0.11769	0.862
Mof_O 	O 	0.6727	0.8639	0.083	0.063
Mof_O 	O 	0.212	0.3292	0.12923	-1.103
Mof_O 	O 	0.166	0.3726	0.0832	-0.466
Mof_C 	C 	0.25862	0.28217	0.12138	-0.066
Mof_H 	H 	0.2646	0.3041	0.1213	0.091
Mof_C 	C 	0.16653	0.3744	0.01667	-0.064
Mof_H 	H 	0.18	0.3889	0.028	0.068
Mof_O 	O 	0.2073	0.3269	0.11769	0.864
Mof_O 	O 	0.1727	0.3639	0.083	0.061
Mof_O 	O 	0.212	0.8292	0.62923	-1.099
Mof_O 	O 	0.166	0.8726	0.5832	-0.468
Mof_C 	C 	0.25862	0.78217	0.62138	-0.065
Mof_H 	H 	0.2646	0.8041	0.6213	0.091
Mof_C 	C 	0.16653	0.8744	0.51667	-0.023
Mof_H 	H 	0.18	0.8889	0.528	0.057
Mof_O 	O 	0.2073	0.8269	0.61769	0.859
Mof_O 	O 	0.1727	0.8639	0.583	0.062
Mof_O 	O 	0.712	0.6708	0.37077	-1.099
Mof_O 	O 	0.666	0.6274	0.4168	-0.468
Mof_C 	C 	0.75862	0.71783	0.37862	-0.065
Mof_H 	H 	0.7646	0.6959	0.3787	0.091
Mof_C 	C 	0.66653	0.6256	0.48333	-0.023
Mof_H 	H 	0.68	0.6111	0.472	0.056
Mof_O 	O 	0.7073	0.6731	0.38231	0.859
Mof_O 	O 	0.6727	0.6361	0.417	0.061
Mof_O 	O 	0.712	0.1708	0.87077	-1.097
Mof_O 	O 	0.666	0.1274	0.9168	-0.469
Mof_C 	C 	0.75862	0.21783	0.87862	-0.065
Mof_H 	H 	0.7646	0.1959	0.8787	0.091
Mof_C 	C 	0.66653	0.1256	0.98333	0.017
Mof_H 	H 	0.68	0.1111	0.972	0.045
Mof_O 	O 	0.7073	0.1731	0.88231	0.857
Mof_O 	O 	0.6727	0.1361	0.917	0.06
Mof_O 	O 	0.212	0.6708	0.87077	-1.096
Mof_O 	O 	0.166	0.6274	0.9168	-0.469
Mof_C 	C 	0.25862	0.71783	0.87862	-0.065
Mof_H 	H 	0.2646	0.6959	0.8787	0.091
Mof_C 	C 	0.16653	0.6256	0.98333	0.017
Mof_H 	H 	0.18	0.6111	0.972	0.045
Mof_O 	O 	0.2073	0.6731	0.88231	0.856
Mof_O 	O 	0.1727	0.6361	0.917	0.06
Mof_O 	O 	0.212	0.1708	0.37077	-1.101
Mof_O 	O 	0.166	0.1274	0.4168	-0.467
Mof_C 	C 	0.25862	0.21783	0.37862	-0.065
Mof_H 	H 	0.2646	0.1959	0.3787	0.091
Mof_C 	C 	0.16653	0.1256	0.48333	-0.024
Mof_H 	H 	0.18	0.1111	0.472	0.056
Mof_O 	O 	0.2073	0.1731	0.38231	0.861
Mof_O 	O 	0.1727	0.1361	0.417	0.06
Mof_O 	O 	0.288	0.6708	0.62923	-1.099
Mof_O 	O 	0.334	0.6274	0.5832	-0.468
Mof_C 	C 	0.24138	0.71783	0.62138	-0.065
Mof_H 	H 	0.2354	0.6959	0.6213	0.091
Mof_C 	C 	0.33347	0.6256	0.51667	-0.023
Mof_H 	H 	0.32	0.6111	0.528	0.056
Mof_O 	O 	0.2927	0.6731	0.61769	0.859
Mof_O 	O 	0.3273	0.6361	0.583	0.061
Mof_O 	O 	0.288	0.1708	0.12923	-1.104
Mof_O 	O 	0.334	0.1274	0.0832	-0.466
Mof_C 	C 	0.24138	0.21783	0.12138	-0.066
Mof_H 	H 	0.2354	0.1959	0.1213	0.091
Mof_C 	C 	0.33347	0.1256	0.01667	-0.064
Mof_H 	H 	0.32	0.1111	0.028	0.067
Mof_O 	O 	0.2927	0.1731	0.11769	0.864
Mof_O 	O 	0.3273	0.1361	0.083	0.061
Mof_O 	O 	0.788	0.6708	0.12923	-1.103
Mof_O 	O 	0.834	0.6274	0.0832	-0.467
Mof_C 	C 	0.74138	0.71783	0.12138	-0.066
Mof_H 	H 	0.7354	0.6959	0.1213	0.09
Mof_C 	C 	0.83347	0.6256	0.01667	-0.063
Mof_H 	H 	0.82	0.6111	0.028	0.068
Mof_O 	O 	0.7927	0.6731	0.11769	0.863
Mof_O 	O 	0.8273	0.6361	0.083	0.062
Mof_O 	O 	0.788	0.1708	0.62923	-1.1
Mof_O 	O 	0.834	0.1274	0.5832	-0.468
Mof_C 	C 	0.74138	0.21783	0.62138	-0.065
Mof_H 	H 	0.7354	0.1959	0.6213	0.091
Mof_C 	C 	0.83347	0.1256	0.51667	-0.023
Mof_H 	H 	0.82	0.1111	0.528	0.056
Mof_O 	O 	0.7927	0.1731	0.61769	0.86
Mof_O 	O 	0.8273	0.1361	0.583	0.061
Mof_O 	O 	0.3292	0.62923	0.712	-1.099
Mof_O 	O 	0.3726	0.5832	0.666	-0.468
Mof_C 	C 	0.28217	0.62138	0.75862	-0.065
Mof_H 	H 	0.3041	0.6213	0.7646	0.091
Mof_C 	C 	0.3744	0.51667	0.66653	-0.023
Mof_H 	H 	0.3889	0.528	0.68	0.056
Mof_O 	O 	0.3269	0.61769	0.7073	0.859
Mof_O 	O 	0.3639	0.583	0.6727	0.061
Mof_O 	O 	0.3292	0.12923	0.212	-1.103
Mof_O 	O 	0.3726	0.0832	0.166	-0.466
Mof_C 	C 	0.28217	0.12138	0.25862	-0.066
Mof_H 	H 	0.3041	0.1213	0.2646	0.091
Mof_C 	C 	0.3744	0.01667	0.16653	-0.064
Mof_H 	H 	0.3889	0.028	0.18	0.068
Mof_O 	O 	0.3269	0.11769	0.2073	0.864
Mof_O 	O 	0.3639	0.083	0.1727	0.061
Mof_O 	O 	0.8292	0.62923	0.212	-1.099
Mof_O 	O 	0.8726	0.5832	0.166	-0.468
Mof_C 	C 	0.78217	0.62138	0.25862	-0.065
Mof_H 	H 	0.8041	0.6213	0.2646	0.091
Mof_C 	C 	0.8744	0.51667	0.16653	-0.023
Mof_H 	H 	0.8889	0.528	0.18	0.057
Mof_O 	O 	0.8269	0.61769	0.2073	0.859
Mof_O 	O 	0.8639	0.583	0.1727	0.062
Mof_O 	O 	0.8292	0.12923	0.712	-1.102
Mof_O 	O 	0.8726	0.0832	0.666	-0.468
Mof_C 	C 	0.78217	0.12138	0.75862	-0.066
Mof_H 	H 	0.8041	0.1213	0.7646	0.09
Mof_C 	C 	0.8744	0.01667	0.66653	-0.063
Mof_H 	H 	0.8889	0.028	0.68	0.068
Mof_O 	O 	0.8269	0.11769	0.7073	0.862
Mof_O 	O 	0.8639	0.083	0.6727	0.063
Mof_O 	O 	0.3292	0.37077	0.288	-1.1
Mof_O 	O 	0.3726	0.4168	0.334	-0.468
Mof_C 	C 	0.28217	0.37862	0.24138	-0.065
Mof_H 	H 	0.3041	0.3787	0.2354	0.091
Mof_C 	C 	0.3744	0.48333	0.33347	-0.023
Mof_H 	H 	0.3889	0.472	0.32	0.056
Mof_O 	O 	0.3269	0.38231	0.2927	0.86
Mof_O 	O 	0.3639	0.417	0.3273	0.061
Mof_O 	O 	0.3292	0.87077	0.788	-1.096
Mof_O 	O 	0.3726	0.9168	0.834	-0.47
Mof_C 	C 	0.28217	0.87862	0.74138	-0.065
Mof_H 	H 	0.3041	0.8787	0.7354	0.091
Mof_C 	C 	0.3744	0.98333	0.83347	0.017
Mof_H 	H 	0.3889	0.972	0.82	0.045
Mof_O 	O 	0.3269	0.88231	0.7927	0.856
Mof_O 	O 	0.3639	0.917	0.8273	0.062
Mof_O 	O 	0.8292	0.37077	0.788	-1.099
Mof_O 	O 	0.8726	0.4168	0.834	-0.47
Mof_C 	C 	0.78217	0.37862	0.74138	-0.065
Mof_H 	H 	0.8041	0.3787	0.7354	0.091
Mof_C 	C 	0.8744	0.48333	0.83347	-0.023
Mof_H 	H 	0.8889	0.472	0.82	0.057
Mof_O 	O 	0.8269	0.38231	0.7927	0.859
Mof_O 	O 	0.8639	0.417	0.8273	0.063
Mof_O 	O 	0.8292	0.87077	0.288	-1.096
Mof_O 	O 	0.8726	0.9168	0.334	-0.47
Mof_C 	C 	0.78217	0.87862	0.24138	-0.065
Mof_H 	H 	0.8041	0.8787	0.2354	0.091
Mof_C 	C 	0.8744	0.98333	0.33347	0.017
Mof_H 	H 	0.8889	0.972	0.32	0.045
Mof_O 	O 	0.8269	0.88231	0.2927	0.855
Mof_O 	O 	0.8639	0.917	0.3273	0.062
Mof_O 	O 	0.6708	0.62923	0.288	-1.099
Mof_O 	O 	0.6274	0.5832	0.334	-0.468
Mof_C 	C 	0.71783	0.62138	0.24138	-0.065
Mof_H 	H 	0.6959	0.6213	0.2354	0.091
Mof_C 	C 	0.6256	0.51667	0.33347	-0.023
Mof_H 	H 	0.6111	0.528	0.32	0.056
Mof_O 	O 	0.6731	0.61769	0.2927	0.859
Mof_O 	O 	0.6361	0.583	0.3273	0.061
Mof_O 	O 	0.6708	0.12923	0.788	-1.103
Mof_O 	O 	0.6274	0.0832	0.834	-0.467
Mof_C 	C 	0.71783	0.12138	0.74138	-0.066
Mof_H 	H 	0.6959	0.1213	0.7354	0.09
Mof_C 	C 	0.6256	0.01667	0.83347	-0.063
Mof_H 	H 	0.6111	0.028	0.82	0.068
Mof_O 	O 	0.6731	0.11769	0.7927	0.863
Mof_O 	O 	0.6361	0.083	0.8273	0.062
Mof_O 	O 	0.1708	0.62923	0.788	-1.1
Mof_O 	O 	0.1274	0.5832	0.834	-0.468
Mof_C 	C 	0.21783	0.62138	0.74138	-0.065
Mof_H 	H 	0.1959	0.6213	0.7354	0.091
Mof_C 	C 	0.1256	0.51667	0.83347	-0.023
Mof_H 	H 	0.1111	0.528	0.82	0.056
Mof_O 	O 	0.1731	0.61769	0.7927	0.86
Mof_O 	O 	0.1361	0.583	0.8273	0.061
Mof_O 	O 	0.1708	0.12923	0.288	-1.104
Mof_O 	O 	0.1274	0.0832	0.334	-0.466
Mof_C 	C 	0.21783	0.12138	0.24138	-0.066
Mof_H 	H 	0.1959	0.1213	0.2354	0.091
Mof_C 	C 	0.1256	0.01667	0.33347	-0.064
Mof_H 	H 	0.1111	0.028	0.32	0.067
Mof_O 	O 	0.1731	0.11769	0.2927	0.864
Mof_O 	O 	0.1361	0.083	0.3273	0.061
Mof_O 	O 	0.6708	0.37077	0.712	-1.099
Mof_O 	O 	0.6274	0.4168	0.666	-0.468
Mof_C 	C 	0.71783	0.37862	0.75862	-0.065
Mof_H 	H 	0.6959	0.3787	0.7646	0.091
Mof_C 	C 	0.6256	0.48333	0.66653	-0.023
Mof_H 	H 	0.6111	0.472	0.68	0.056
Mof_O 	O 	0.6731	0.38231	0.7073	0.859
Mof_O 	O 	0.6361	0.417	0.6727	0.061
Mof_O 	O 	0.6708	0.87077	0.212	-1.096
Mof_O 	O 	0.6274	0.9168	0.166	-0.469
Mof_C 	C 	0.71783	0.87862	0.25862	-0.065
Mof_H 	H 	0.6959	0.8787	0.2646	0.091
Mof_C 	C 	0.6256	0.98333	0.16653	0.017
Mof_H 	H 	0.6111	0.972	0.18	0.045
Mof_O 	O 	0.6731	0.88231	0.2073	0.856
Mof_O 	O 	0.6361	0.917	0.1727	0.06
Mof_O 	O 	0.1708	0.37077	0.212	-1.101
Mof_O 	O 	0.1274	0.4168	0.166	-0.467
Mof_C 	C 	0.21783	0.37862	0.25862	-0.065
Mof_H 	H 	0.1959	0.3787	0.2646	0.091
Mof_C 	C 	0.1256	0.48333	0.16653	-0.024
Mof_H 	H 	0.1111	0.472	0.18	0.056
Mof_O 	O 	0.1731	0.38231	0.2073	0.861
Mof_O 	O 	0.1361	0.417	0.1727	0.06
Mof_O 	O 	0.1708	0.87077	0.712	-1.097
Mof_O 	O 	0.1274	0.9168	0.666	-0.469
Mof_C 	C 	0.21783	0.87862	0.75862	-0.065
Mof_H 	H 	0.1959	0.8787	0.7646	0.091
Mof_C 	C 	0.1256	0.98333	0.66653	0.017
Mof_H 	H 	0.1111	0.972	0.68	0.045
Mof_O 	O 	0.1731	0.88231	0.7073	0.857
Mof_O 	O 	0.1361	0.917	0.6727	0.06
Mof_Ni	Ni	0.68739	0.37177	0.62823	1.122
Mof_O 	O 	0.72532	0.46517	0.53483	-0.441
Mof_O 	O 	0.77923	0.46604	0.53396	-0.454
Mof_N 	N 	0.72897	0.39302	0.60698	-0.211
Mof_C 	C 	0.75831	0.38323	0.61677	0.04
Mof_H 	H 	0.7597	0.3672	0.6328	0.06
Mof_C 	C 	0.78673	0.39579	0.60421	-0.115
Mof_H 	H 	0.807	0.3885	0.6115	0.068
Mof_C 	C 	0.78449	0.41949	0.58051	0.052
Mof_H 	H 	0.8034	0.4284	0.5716	0.024
Mof_C 	C 	0.75456	0.43004	0.56996	-0.134
Mof_C 	C 	0.72732	0.41612	0.58388	0.07
Mof_H 	H 	0.7068	0.4231	0.5769	0.03
Mof_C 	C 	0.75247	0.45572	0.54428	0.384
Mof_Ni	Ni	0.68739	0.87177	0.12823	1.122
Mof_O 	O 	0.72532	0.96517	0.03483	-0.439
Mof_O 	O 	0.77923	0.96604	0.03396	-0.452
Mof_N 	N 	0.72897	0.89302	0.10698	-0.211
Mof_C 	C 	0.75831	0.88323	0.11677	0.04
Mof_H 	H 	0.7597	0.8672	0.1328	0.06
Mof_C 	C 	0.78673	0.89579	0.10421	-0.115
Mof_H 	H 	0.807	0.8885	0.1115	0.068
Mof_C 	C 	0.78449	0.91949	0.08051	0.052
Mof_H 	H 	0.8034	0.9284	0.0716	0.024
Mof_C 	C 	0.75456	0.93004	0.06996	-0.134
Mof_C 	C 	0.72732	0.91612	0.08388	0.069
Mof_H 	H 	0.7068	0.9231	0.0769	0.03
Mof_C 	C 	0.75247	0.95572	0.04428	0.384
Mof_Ni	Ni	0.18739	0.37177	0.12823	1.122
Mof_O 	O 	0.22532	0.46517	0.03483	-0.444
Mof_O 	O 	0.27923	0.46604	0.03396	-0.457
Mof_N 	N 	0.22897	0.39302	0.10698	-0.212
Mof_C 	C 	0.25831	0.38323	0.11677	0.04
Mof_H 	H 	0.2597	0.3672	0.1328	0.06
Mof_C 	C 	0.28673	0.39579	0.10421	-0.116
Mof_H 	H 	0.307	0.3885	0.1115	0.068
Mof_C 	C 	0.28449	0.41949	0.08051	0.052
Mof_H 	H 	0.3034	0.4284	0.0716	0.022
Mof_C 	C 	0.25456	0.43004	0.06996	-0.136
Mof_C 	C 	0.22732	0.41612	0.08388	0.07
Mof_H 	H 	0.2068	0.4231	0.0769	0.029
Mof_C 	C 	0.25247	0.45572	0.04428	0.385
Mof_Ni	Ni	0.18739	0.87177	0.62823	1.122
Mof_O 	O 	0.22532	0.96517	0.53483	-0.437
Mof_O 	O 	0.27923	0.96604	0.53396	-0.45
Mof_N 	N 	0.22897	0.89302	0.60698	-0.211
Mof_C 	C 	0.25831	0.88323	0.61677	0.04
Mof_H 	H 	0.2597	0.8672	0.6328	0.06
Mof_C 	C 	0.28673	0.89579	0.60421	-0.114
Mof_H 	H 	0.307	0.8885	0.6115	0.068
Mof_C 	C 	0.28449	0.91949	0.58051	0.052
Mof_H 	H 	0.3034	0.9284	0.5716	0.025
Mof_C 	C 	0.25456	0.93004	0.56996	-0.133
Mof_C 	C 	0.22732	0.91612	0.58388	0.069
Mof_H 	H 	0.2068	0.9231	0.5769	0.031
Mof_C 	C 	0.25247	0.95572	0.54428	0.384
Mof_Ni	Ni	0.31261	0.62823	0.62823	1.122
Mof_O 	O 	0.27468	0.53483	0.53483	-0.441
Mof_O 	O 	0.22077	0.53396	0.53396	-0.455
Mof_N 	N 	0.27103	0.60698	0.60698	-0.211
Mof_C 	C 	0.24169	0.61677	0.61677	0.04
Mof_H 	H 	0.2403	0.6328	0.6328	0.06
Mof_C 	C 	0.21327	0.60421	0.60421	-0.115
Mof_H 	H 	0.193	0.6115	0.6115	0.068
Mof_C 	C 	0.21551	0.58051	0.58051	0.052
Mof_H 	H 	0.1966	0.5716	0.5716	0.023
Mof_C 	C 	0.24544	0.56996	0.56996	-0.134
Mof_C 	C 	0.27268	0.58388	0.58388	0.07
Mof_H 	H 	0.2932	0.5769	0.5769	0.03
Mof_C 	C 	0.24753	0.54428	0.54428	0.385
Mof_Ni	Ni	0.31261	0.12823	0.12823	1.121
Mof_O 	O 	0.27468	0.03483	0.03483	-0.446
Mof_O 	O 	0.22077	0.03396	0.03396	-0.459
Mof_N 	N 	0.27103	0.10698	0.10698	-0.212
Mof_C 	C 	0.24169	0.11677	0.11677	0.04
Mof_H 	H 	0.2403	0.1328	0.1328	0.06
Mof_C 	C 	0.21327	0.10421	0.10421	-0.116
Mof_H 	H 	0.193	0.1115	0.1115	0.067
Mof_C 	C 	0.21551	0.08051	0.08051	0.052
Mof_H 	H 	0.1966	0.0716	0.0716	0.021
Mof_C 	C 	0.24544	0.06996	0.06996	-0.137
Mof_C 	C 	0.27268	0.08388	0.08388	0.07
Mof_H 	H 	0.2932	0.0769	0.0769	0.028
Mof_C 	C 	0.24753	0.04428	0.04428	0.385
Mof_Ni	Ni	0.81261	0.62823	0.12823	1.121
Mof_O 	O 	0.77468	0.53483	0.03483	-0.444
Mof_O 	O 	0.72077	0.53396	0.03396	-0.457
Mof_N 	N 	0.77103	0.60698	0.10698	-0.212
Mof_C 	C 	0.74169	0.61677	0.11677	0.04
Mof_H 	H 	0.7403	0.6328	0.1328	0.06
Mof_C 	C 	0.71327	0.60421	0.10421	-0.116
Mof_H 	H 	0.693	0.6115	0.1115	0.068
Mof_C 	C 	0.71551	0.58051	0.08051	0.052
Mof_H 	H 	0.6966	0.5716	0.0716	0.022
Mof_C 	C 	0.74544	0.56996	0.06996	-0.136
Mof_C 	C 	0.77268	0.58388	0.08388	0.069
Mof_H 	H 	0.7932	0.5769	0.0769	0.029
Mof_C 	C 	0.74753	0.54428	0.04428	0.385
Mof_Ni	Ni	0.81261	0.12823	0.62823	1.121
Mof_O 	O 	0.77468	0.03483	0.53483	-0.444
Mof_O 	O 	0.72077	0.03396	0.53396	-0.457
Mof_N 	N 	0.77103	0.10698	0.60698	-0.212
Mof_C 	C 	0.74169	0.11677	0.61677	0.04
Mof_H 	H 	0.7403	0.1328	0.6328	0.06
Mof_C 	C 	0.71327	0.10421	0.60421	-0.116
Mof_H 	H 	0.693	0.1115	0.6115	0.068
Mof_C 	C 	0.71551	0.08051	0.58051	0.052
Mof_H 	H 	0.6966	0.0716	0.5716	0.022
Mof_C 	C 	0.74544	0.06996	0.56996	-0.136
Mof_C 	C 	0.77268	0.08388	0.58388	0.069
Mof_H 	H 	0.7932	0.0769	0.5769	0.029
Mof_C 	C 	0.74753	0.04428	0.54428	0.385
Mof_Ni	Ni	0.31261	0.37177	0.37177	1.122
Mof_O 	O 	0.27468	0.46517	0.46517	-0.441
Mof_O 	O 	0.22077	0.46604	0.46604	-0.454
Mof_N 	N 	0.27103	0.39302	0.39302	-0.211
Mof_C 	C 	0.24169	0.38323	0.38323	0.04
Mof_H 	H 	0.2403	0.3672	0.3672	0.06
Mof_C 	C 	0.21327	0.39579	0.39579	-0.115
Mof_H 	H 	0.193	0.3885	0.3885	0.068
Mof_C 	C 	0.21551	0.41949	0.41949	0.052
Mof_H 	H 	0.1966	0.4284	0.4284	0.023
Mof_C 	C 	0.24544	0.43004	0.43004	-0.134
Mof_C 	C 	0.27268	0.41612	0.41612	0.07
Mof_H 	H 	0.2932	0.4231	0.4231	0.03
Mof_C 	C 	0.24753	0.45572	0.45572	0.385
Mof_Ni	Ni	0.31261	0.87177	0.87177	1.122
Mof_O 	O 	0.27468	0.96517	0.96517	-0.432
Mof_O 	O 	0.22077	0.96604	0.96604	-0.445
Mof_N 	N 	0.27103	0.89302	0.89302	-0.211
Mof_C 	C 	0.24169	0.88323	0.88323	0.04
Mof_H 	H 	0.2403	0.8672	0.8672	0.06
Mof_C 	C 	0.21327	0.89579	0.89579	-0.113
Mof_H 	H 	0.193	0.8885	0.8885	0.069
Mof_C 	C 	0.21551	0.91949	0.91949	0.051
Mof_H 	H 	0.1966	0.9284	0.9284	0.026
Mof_C 	C 	0.24544	0.93004	0.93004	-0.131
Mof_C 	C 	0.27268	0.91612	0.91612	0.069
Mof_H 	H 	0.2932	0.9231	0.9231	0.032
Mof_C 	C 	0.24753	0.95572	0.95572	0.383
Mof_Ni	Ni	0.81261	0.37177	0.87177	1.122
Mof_O 	O 	0.77468	0.46517	0.96517	-0.437
Mof_O 	O 	0.72077	0.46604	0.96604	-0.45
Mof_N 	N 	0.77103	0.39302	0.89302	-0.211
Mof_C 	C 	0.74169	0.38323	0.88323	0.04
Mof_H 	H 	0.7403	0.3672	0.8672	0.06
Mof_C 	C 	0.71327	0.39579	0.89579	-0.114
Mof_H 	H 	0.693	0.3885	0.8885	0.068
Mof_C 	C 	0.71551	0.41949	0.91949	0.051
Mof_H 	H 	0.6966	0.4284	0.9284	0.025
Mof_C 	C 	0.74544	0.43004	0.93004	-0.132
Mof_C 	C 	0.77268	0.41612	0.91612	0.069
Mof_H 	H 	0.7932	0.4231	0.9231	0.031
Mof_C 	C 	0.74753	0.45572	0.95572	0.384
Mof_Ni	Ni	0.81261	0.87177	0.37177	1.122
Mof_O 	O 	0.77468	0.96517	0.46517	-0.437
Mof_O 	O 	0.72077	0.96604	0.46604	-0.45
Mof_N 	N 	0.77103	0.89302	0.39302	-0.211
Mof_C 	C 	0.74169	0.88323	0.38323	0.04
Mof_H 	H 	0.7403	0.8672	0.3672	0.06
Mof_C 	C 	0.71327	0.89579	0.39579	-0.114
Mof_H 	H 	0.693	0.8885	0.3885	0.068
Mof_C 	C 	0.71551	0.91949	0.41949	0.051
Mof_H 	H 	0.6966	0.9284	0.4284	0.025
Mof_C 	C 	0.74544	0.93004	0.43004	-0.132
Mof_C 	C 	0.77268	0.91612	0.41612	0.069
Mof_H 	H 	0.7932	0.9231	0.4231	0.031
Mof_C 	C 	0.74753	0.95572	0.45572	0.384
Mof_Ni	Ni	0.68739	0.62823	0.37177	1.122
Mof_O 	O 	0.72532	0.53483	0.46517	-0.441
Mof_O 	O 	0.77923	0.53396	0.46604	-0.454
Mof_N 	N 	0.72897	0.60698	0.39302	-0.211
Mof_C 	C 	0.75831	0.61677	0.38323	0.04
Mof_H 	H 	0.7597	0.6328	0.3672	0.06
Mof_C 	C 	0.78673	0.60421	0.39579	-0.115
Mof_H 	H 	0.807	0.6115	0.3885	0.068
Mof_C 	C 	0.78449	0.58051	0.41949	0.052
Mof_H 	H 	0.8034	0.5716	0.4284	0.024
Mof_C 	C 	0.75456	0.56996	0.43004	-0.134
Mof_C 	C 	0.72732	0.58388	0.41612	0.07
Mof_H 	H 	0.7068	0.5769	0.4231	0.03
Mof_C 	C 	0.75247	0.54428	0.45572	0.384
Mof_Ni	Ni	0.68739	0.12823	0.87177	1.122
Mof_O 	O 	0.72532	0.03483	0.96517	-0.439
Mof_O 	O 	0.77923	0.03396	0.96604	-0.452
Mof_N 	N 	0.72897	0.10698	0.89302	-0.211
Mof_C 	C 	0.75831	0.11677	0.88323	0.04
Mof_H 	H 	0.7597	0.1328	0.8672	0.06
Mof_C 	C 	0.78673	0.10421	0.89579	-0.115
Mof_H 	H 	0.807	0.1115	0.8885	0.068
Mof_C 	C 	0.78449	0.08051	0.91949	0.052
Mof_H 	H 	0.8034	0.0716	0.9284	0.024
Mof_C 	C 	0.75456	0.06996	0.93004	-0.134
Mof_C 	C 	0.72732	0.08388	0.91612	0.069
Mof_H 	H 	0.7068	0.0769	0.9231	0.03
Mof_C 	C 	0.75247	0.04428	0.95572	0.384
Mof_Ni	Ni	0.18739	0.62823	0.87177	1.122
Mof_O 	O 	0.22532	0.53483	0.96517	-0.437
Mof_O 	O 	0.27923	0.53396	0.96604	-0.45
Mof_N 	N 	0.22897	0.60698	0.89302	-0.211
Mof_C 	C 	0.25831	0.61677	0.88323	0.04
Mof_H 	H 	0.2597	0.6328	0.8672	0.06
Mof_C 	C 	0.28673	0.60421	0.89579	-0.114
Mof_H 	H 	0.307	0.6115	0.8885	0.068
Mof_C 	C 	0.28449	0.58051	0.91949	0.052
Mof_H 	H 	0.3034	0.5716	0.9284	0.025
Mof_C 	C 	0.25456	0.56996	0.93004	-0.133
Mof_C 	C 	0.22732	0.58388	0.91612	0.069
Mof_H 	H 	0.2068	0.5769	0.9231	0.031
Mof_C 	C 	0.25247	0.54428	0.95572	0.384
Mof_Ni	Ni	0.18739	0.12823	0.37177	1.122
Mof_O 	O 	0.22532	0.03483	0.46517	-0.444
Mof_O 	O 	0.27923	0.03396	0.46604	-0.457
Mof_N 	N 	0.22897	0.10698	0.39302	-0.212
Mof_C 	C 	0.25831	0.11677	0.38323	0.04
Mof_H 	H 	0.2597	0.1328	0.3672	0.06
Mof_C 	C 	0.28673	0.10421	0.39579	-0.116
Mof_H 	H 	0.307	0.1115	0.3885	0.068
Mof_C 	C 	0.28449	0.08051	0.41949	0.052
Mof_H 	H 	0.3034	0.0716	0.4284	0.022
Mof_C 	C 	0.25456	0.06996	0.43004	-0.136
Mof_C 	C 	0.22732	0.08388	0.41612	0.07
Mof_H 	H 	0.2068	0.0769	0.4231	0.029
Mof_C 	C 	0.25247	0.04428	0.45572	0.385
Mof_Ni	Ni	0.62823	0.68739	0.37177	1.122
Mof_O 	O 	0.53483	0.72532	0.46517	-0.441
Mof_O 	O 	0.53396	0.77923	0.46604	-0.454
Mof_N 	N 	0.60698	0.72897	0.39302	-0.211
Mof_C 	C 	0.61677	0.75831	0.38323	0.04
Mof_H 	H 	0.6328	0.7597	0.3672	0.06
Mof_C 	C 	0.60421	0.78673	0.39579	-0.115
Mof_H 	H 	0.6115	0.807	0.3885	0.068
Mof_C 	C 	0.58051	0.78449	0.41949	0.052
Mof_H 	H 	0.5716	0.8034	0.4284	0.024
Mof_C 	C 	0.56996	0.75456	0.43004	-0.134
Mof_C 	C 	0.58388	0.72732	0.41612	0.07
Mof_H 	H 	0.5769	0.7068	0.4231	0.03
Mof_C 	C 	0.54428	0.75247	0.45572	0.384
Mof_Ni	Ni	0.62823	0.18739	0.87177	1.122
Mof_O 	O 	0.53483	0.22532	0.96517	-0.437
Mof_O 	O 	0.53396	0.27923	0.96604	-0.45
Mof_N 	N 	0.60698	0.22897	0.89302	-0.211
Mof_C 	C 	0.61677	0.25831	0.88323	0.04
Mof_H 	H 	0.6328	0.2597	0.8672	0.06
Mof_C 	C 	0.60421	0.28673	0.89579	-0.114
Mof_H 	H 	0.6115	0.307	0.8885	0.068
Mof_C 	C 	0.58051	0.28449	0.91949	0.052
Mof_H 	H 	0.5716	0.3034	0.9284	0.025
Mof_C 	C 	0.56996	0.25456	0.93004	-0.133
Mof_C 	C 	0.58388	0.22732	0.91612	0.069
Mof_H 	H 	0.5769	0.2068	0.9231	0.031
Mof_C 	C 	0.54428	0.25247	0.95572	0.384
Mof_Ni	Ni	0.12823	0.68739	0.87177	1.122
Mof_O 	O 	0.03483	0.72532	0.96517	-0.439
Mof_O 	O 	0.03396	0.77923	0.96604	-0.452
Mof_N 	N 	0.10698	0.72897	0.89302	-0.211
Mof_C 	C 	0.11677	0.75831	0.88323	0.04
Mof_H 	H 	0.1328	0.7597	0.8672	0.06
Mof_C 	C 	0.10421	0.78673	0.89579	-0.115
Mof_H 	H 	0.1115	0.807	0.8885	0.068
Mof_C 	C 	0.08051	0.78449	0.91949	0.052
Mof_H 	H 	0.0716	0.8034	0.9284	0.024
Mof_C 	C 	0.06996	0.75456	0.93004	-0.134
Mof_C 	C 	0.08388	0.72732	0.91612	0.069
Mof_H 	H 	0.0769	0.7068	0.9231	0.03
Mof_C 	C 	0.04428	0.75247	0.95572	0.384
Mof_Ni	Ni	0.12823	0.18739	0.37177	1.122
Mof_O 	O 	0.03483	0.22532	0.46517	-0.444
Mof_O 	O 	0.03396	0.27923	0.46604	-0.457
Mof_N 	N 	0.10698	0.22897	0.39302	-0.212
Mof_C 	C 	0.11677	0.25831	0.38323	0.04
Mof_H 	H 	0.1328	0.2597	0.3672	0.06
Mof_C 	C 	0.10421	0.28673	0.39579	-0.116
Mof_H 	H 	0.1115	0.307	0.3885	0.068
Mof_C 	C 	0.08051	0.28449	0.41949	0.052
Mof_H 	H 	0.0716	0.3034	0.4284	0.022
Mof_C 	C 	0.06996	0.25456	0.43004	-0.136
Mof_C 	C 	0.08388	0.22732	0.41612	0.07
Mof_H 	H 	0.0769	0.2068	0.4231	0.029
Mof_C 	C 	0.04428	0.25247	0.45572	0.385
Mof_Ni	Ni	0.62823	0.31261	0.62823	1.122
Mof_O 	O 	0.53483	0.27468	0.53483	-0.441
Mof_O 	O 	0.53396	0.22077	0.53396	-0.455
Mof_N 	N 	0.60698	0.27103	0.60698	-0.211
Mof_C 	C 	0.61677	0.24169	0.61677	0.04
Mof_H 	H 	0.6328	0.2403	0.6328	0.06
Mof_C 	C 	0.60421	0.21327	0.60421	-0.115
Mof_H 	H 	0.6115	0.193	0.6115	0.068
Mof_C 	C 	0.58051	0.21551	0.58051	0.052
Mof_H 	H 	0.5716	0.1966	0.5716	0.023
Mof_C 	C 	0.56996	0.24544	0.56996	-0.134
Mof_C 	C 	0.58388	0.27268	0.58388	0.07
Mof_H 	H 	0.5769	0.2932	0.5769	0.03
Mof_C 	C 	0.54428	0.24753	0.54428	0.385
Mof_Ni	Ni	0.62823	0.81261	0.12823	1.121
Mof_O 	O 	0.53483	0.77468	0.03483	-0.444
Mof_O 	O 	0.53396	0.72077	0.03396	-0.457
Mof_N 	N 	0.60698	0.77103	0.10698	-0.212
Mof_C 	C 	0.61677	0.74169	0.11677	0.04
Mof_H 	H 	0.6328	0.7403	0.1328	0.06
Mof_C 	C 	0.60421	0.71327	0.10421	-0.116
Mof_H 	H 	0.6115	0.693	0.1115	0.068
Mof_C 	C 	0.58051	0.71551	0.08051	0.052
Mof_H 	H 	0.5716	0.6966	0.0716	0.022
Mof_C 	C 	0.56996	0.74544	0.06996	-0.136
Mof_C 	C 	0.58388	0.77268	0.08388	0.069
Mof_H 	H 	0.5769	0.7932	0.0769	0.029
Mof_C 	C 	0.54428	0.74753	0.04428	0.385
Mof_Ni	Ni	0.12823	0.31261	0.12823	1.121
Mof_O 	O 	0.03483	0.27468	0.03483	-0.446
Mof_O 	O 	0.03396	0.22077	0.03396	-0.459
Mof_N 	N 	0.10698	0.27103	0.10698	-0.212
Mof_C 	C 	0.11677	0.24169	0.11677	0.04
Mof_H 	H 	0.1328	0.2403	0.1328	0.06
Mof_C 	C 	0.10421	0.21327	0.10421	-0.116
Mof_H 	H 	0.1115	0.193	0.1115	0.067
Mof_C 	C 	0.08051	0.21551	0.08051	0.052
Mof_H 	H 	0.0716	0.1966	0.0716	0.021
Mof_C 	C 	0.06996	0.24544	0.06996	-0.137
Mof_C 	C 	0.08388	0.27268	0.08388	0.07
Mof_H 	H 	0.0769	0.2932	0.0769	0.028
Mof_C 	C 	0.04428	0.24753	0.04428	0.385
Mof_Ni	Ni	0.12823	0.81261	0.62823	1.121
Mof_O 	O 	0.03483	0.77468	0.53483	-0.444
Mof_O 	O 	0.03396	0.72077	0.53396	-0.457
Mof_N 	N 	0.10698	0.77103	0.60698	-0.212
Mof_C 	C 	0.11677	0.74169	0.61677	0.04
Mof_H 	H 	0.1328	0.7403	0.6328	0.06
Mof_C 	C 	0.10421	0.71327	0.60421	-0.116
Mof_H 	H 	0.1115	0.693	0.6115	0.068
Mof_C 	C 	0.08051	0.71551	0.58051	0.052
Mof_H 	H 	0.0716	0.6966	0.5716	0.022
Mof_C 	C 	0.06996	0.74544	0.56996	-0.136
Mof_C 	C 	0.08388	0.77268	0.58388	0.069
Mof_H 	H 	0.0769	0.7932	0.5769	0.029
Mof_C 	C 	0.04428	0.74753	0.54428	0.385
Mof_Ni	Ni	0.37177	0.31261	0.37177	1.122
Mof_O 	O 	0.46517	0.27468	0.46517	-0.441
Mof_O 	O 	0.46604	0.22077	0.46604	-0.454
Mof_N 	N 	0.39302	0.27103	0.39302	-0.211
Mof_C 	C 	0.38323	0.24169	0.38323	0.04
Mof_H 	H 	0.3672	0.2403	0.3672	0.06
Mof_C 	C 	0.39579	0.21327	0.39579	-0.115
Mof_H 	H 	0.3885	0.193	0.3885	0.068
Mof_C 	C 	0.41949	0.21551	0.41949	0.052
Mof_H 	H 	0.4284	0.1966	0.4284	0.023
Mof_C 	C 	0.43004	0.24544	0.43004	-0.134
Mof_C 	C 	0.41612	0.27268	0.41612	0.07
Mof_H 	H 	0.4231	0.2932	0.4231	0.03
Mof_C 	C 	0.45572	0.24753	0.45572	0.385
Mof_Ni	Ni	0.37177	0.81261	0.87177	1.122
Mof_O 	O 	0.46517	0.77468	0.96517	-0.437
Mof_O 	O 	0.46604	0.72077	0.96604	-0.45
Mof_N 	N 	0.39302	0.77103	0.89302	-0.211
Mof_C 	C 	0.38323	0.74169	0.88323	0.04
Mof_H 	H 	0.3672	0.7403	0.8672	0.06
Mof_C 	C 	0.39579	0.71327	0.89579	-0.114
Mof_H 	H 	0.3885	0.693	0.8885	0.068
Mof_C 	C 	0.41949	0.71551	0.91949	0.051
Mof_H 	H 	0.4284	0.6966	0.9284	0.025
Mof_C 	C 	0.43004	0.74544	0.93004	-0.132
Mof_C 	C 	0.41612	0.77268	0.91612	0.069
Mof_H 	H 	0.4231	0.7932	0.9231	0.031
Mof_C 	C 	0.45572	0.74753	0.95572	0.384
Mof_Ni	Ni	0.87177	0.31261	0.87177	1.122
Mof_O 	O 	0.96517	0.27468	0.96517	-0.432
Mof_O 	O 	0.96604	0.22077	0.96604	-0.445
Mof_N 	N 	0.89302	0.27103	0.89302	-0.211
Mof_C 	C 	0.88323	0.24169	0.88323	0.04
Mof_H 	H 	0.8672	0.2403	0.8672	0.06
Mof_C 	C 	0.89579	0.21327	0.89579	-0.113
Mof_H 	H 	0.8885	0.193	0.8885	0.069
Mof_C 	C 	0.91949	0.21551	0.91949	0.051
Mof_H 	H 	0.9284	0.1966	0.9284	0.026
Mof_C 	C 	0.93004	0.24544	0.93004	-0.131
Mof_C 	C 	0.91612	0.27268	0.91612	0.069
Mof_H 	H 	0.9231	0.2932	0.9231	0.032
Mof_C 	C 	0.95572	0.24753	0.95572	0.383
Mof_Ni	Ni	0.87177	0.81261	0.37177	1.122
Mof_O 	O 	0.96517	0.77468	0.46517	-0.437
Mof_O 	O 	0.96604	0.72077	0.46604	-0.45
Mof_N 	N 	0.89302	0.77103	0.39302	-0.211
Mof_C 	C 	0.88323	0.74169	0.38323	0.04
Mof_H 	H 	0.8672	0.7403	0.3672	0.06
Mof_C 	C 	0.89579	0.71327	0.39579	-0.114
Mof_H 	H 	0.8885	0.693	0.3885	0.068
Mof_C 	C 	0.91949	0.71551	0.41949	0.051
Mof_H 	H 	0.9284	0.6966	0.4284	0.025
Mof_C 	C 	0.93004	0.74544	0.43004	-0.132
Mof_C 	C 	0.91612	0.77268	0.41612	0.069
Mof_H 	H 	0.9231	0.7932	0.4231	0.031
Mof_C 	C 	0.95572	0.74753	0.45572	0.384
Mof_Ni	Ni	0.37177	0.68739	0.62823	1.122
Mof_O 	O 	0.46517	0.72532	0.53483	-0.441
Mof_O 	O 	0.46604	0.77923	0.53396	-0.454
Mof_N 	N 	0.39302	0.72897	0.60698	-0.211
Mof_C 	C 	0.38323	0.75831	0.61677	0.04
Mof_H 	H 	0.3672	0.7597	0.6328	0.06
Mof_C 	C 	0.39579	0.78673	0.60421	-0.115
Mof_H 	H 	0.3885	0.807	0.6115	0.068
Mof_C 	C 	0.41949	0.78449	0.58051	0.052
Mof_H 	H 	0.4284	0.8034	0.5716	0.024
Mof_C 	C 	0.43004	0.75456	0.56996	-0.134
Mof_C 	C 	0.41612	0.72732	0.58388	0.07
Mof_H 	H 	0.4231	0.7068	0.5769	0.03
Mof_C 	C 	0.45572	0.75247	0.54428	0.384
Mof_Ni	Ni	0.37177	0.18739	0.12823	1.122
Mof_O 	O 	0.46517	0.22532	0.03483	-0.444
Mof_O 	O 	0.46604	0.27923	0.03396	-0.457
Mof_N 	N 	0.39302	0.22897	0.10698	-0.212
Mof_C 	C 	0.38323	0.25831	0.11677	0.04
Mof_H 	H 	0.3672	0.2597	0.1328	0.06
Mof_C 	C 	0.39579	0.28673	0.10421	-0.116
Mof_H 	H 	0.3885	0.307	0.1115	0.068
Mof_C 	C 	0.41949	0.28449	0.08051	0.052
Mof_H 	H 	0.4284	0.3034	0.0716	0.022
Mof_C 	C 	0.43004	0.25456	0.06996	-0.136
Mof_C 	C 	0.41612	0.22732	0.08388	0.07
Mof_H 	H 	0.4231	0.2068	0.0769	0.029
Mof_C 	C 	0.45572	0.25247	0.04428	0.385
Mof_Ni	Ni	0.87177	0.68739	0.12823	1.122
Mof_O 	O 	0.96517	0.72532	0.03483	-0.439
Mof_O 	O 	0.96604	0.77923	0.03396	-0.452
Mof_N 	N 	0.89302	0.72897	0.10698	-0.211
Mof_C 	C 	0.88323	0.75831	0.11677	0.04
Mof_H 	H 	0.8672	0.7597	0.1328	0.06
Mof_C 	C 	0.89579	0.78673	0.10421	-0.115
Mof_H 	H 	0.8885	0.807	0.1115	0.068
Mof_C 	C 	0.91949	0.78449	0.08051	0.052
Mof_H 	H 	0.9284	0.8034	0.0716	0.024
Mof_C 	C 	0.93004	0.75456	0.06996	-0.134
Mof_C 	C 	0.91612	0.72732	0.08388	0.069
Mof_H 	H 	0.9231	0.7068	0.0769	0.03
Mof_C 	C 	0.95572	0.75247	0.04428	0.384
Mof_Ni	Ni	0.87177	0.18739	0.62823	1.122
Mof_O 	O 	0.96517	0.22532	0.53483	-0.437
Mof_O 	O 	0.96604	0.27923	0.53396	-0.45
Mof_N 	N 	0.89302	0.22897	0.60698	-0.211
Mof_C 	C 	0.88323	0.25831	0.61677	0.04
Mof_H 	H 	0.8672	0.2597	0.6328	0.06
Mof_C 	C 	0.89579	0.28673	0.60421	-0.114
Mof_H 	H 	0.8885	0.307	0.6115	0.068
Mof_C 	C 	0.91949	0.28449	0.58051	0.052
Mof_H 	H 	0.9284	0.3034	0.5716	0.025
Mof_C 	C 	0.93004	0.25456	0.56996	-0.133
Mof_C 	C 	0.91612	0.22732	0.58388	0.069
Mof_H 	H 	0.9231	0.2068	0.5769	0.031
Mof_C 	C 	0.95572	0.25247	0.54428	0.384
Mof_Ni	Ni	0.37177	0.62823	0.68739	1.122
Mof_O 	O 	0.46517	0.53483	0.72532	-0.441
Mof_O 	O 	0.46604	0.53396	0.77923	-0.454
Mof_N 	N 	0.39302	0.60698	0.72897	-0.211
Mof_C 	C 	0.38323	0.61677	0.75831	0.04
Mof_H 	H 	0.3672	0.6328	0.7597	0.06
Mof_C 	C 	0.39579	0.60421	0.78673	-0.115
Mof_H 	H 	0.3885	0.6115	0.807	0.068
Mof_C 	C 	0.41949	0.58051	0.78449	0.052
Mof_H 	H 	0.4284	0.5716	0.8034	0.024
Mof_C 	C 	0.43004	0.56996	0.75456	-0.134
Mof_C 	C 	0.41612	0.58388	0.72732	0.07
Mof_H 	H 	0.4231	0.5769	0.7068	0.03
Mof_C 	C 	0.45572	0.54428	0.75247	0.384
Mof_Ni	Ni	0.37177	0.12823	0.18739	1.122
Mof_O 	O 	0.46517	0.03483	0.22532	-0.444
Mof_O 	O 	0.46604	0.03396	0.27923	-0.457
Mof_N 	N 	0.39302	0.10698	0.22897	-0.212
Mof_C 	C 	0.38323	0.11677	0.25831	0.04
Mof_H 	H 	0.3672	0.1328	0.2597	0.06
Mof_C 	C 	0.39579	0.10421	0.28673	-0.116
Mof_H 	H 	0.3885	0.1115	0.307	0.068
Mof_C 	C 	0.41949	0.08051	0.28449	0.052
Mof_H 	H 	0.4284	0.0716	0.3034	0.022
Mof_C 	C 	0.43004	0.06996	0.25456	-0.136
Mof_C 	C 	0.41612	0.08388	0.22732	0.07
Mof_H 	H 	0.4231	0.0769	0.2068	0.029
Mof_C 	C 	0.45572	0.04428	0.25247	0.385
Mof_Ni	Ni	0.87177	0.62823	0.18739	1.122
Mof_O 	O 	0.96517	0.53483	0.22532	-0.437
Mof_O 	O 	0.96604	0.53396	0.27923	-0.45
Mof_N 	N 	0.89302	0.60698	0.22897	-0.211
Mof_C 	C 	0.88323	0.61677	0.25831	0.04
Mof_H 	H 	0.8672	0.6328	0.2597	0.06
Mof_C 	C 	0.89579	0.60421	0.28673	-0.114
Mof_H 	H 	0.8885	0.6115	0.307	0.068
Mof_C 	C 	0.91949	0.58051	0.28449	0.052
Mof_H 	H 	0.9284	0.5716	0.3034	0.025
Mof_C 	C 	0.93004	0.56996	0.25456	-0.133
Mof_C 	C 	0.91612	0.58388	0.22732	0.069
Mof_H 	H 	0.9231	0.5769	0.2068	0.031
Mof_C 	C 	0.95572	0.54428	0.25247	0.384
Mof_Ni	Ni	0.87177	0.12823	0.68739	1.122
Mof_O 	O 	0.96517	0.03483	0.72532	-0.439
Mof_O 	O 	0.96604	0.03396	0.77923	-0.452
Mof_N 	N 	0.89302	0.10698	0.72897	-0.211
Mof_C 	C 	0.88323	0.11677	0.75831	0.04
Mof_H 	H 	0.8672	0.1328	0.7597	0.06
Mof_C 	C 	0.89579	0.10421	0.78673	-0.115
Mof_H 	H 	0.8885	0.1115	0.807	0.068
Mof_C 	C 	0.91949	0.08051	0.78449	0.052
Mof_H 	H 	0.9284	0.0716	0.8034	0.024
Mof_C 	C 	0.93004	0.06996	0.75456	-0.134
Mof_C 	C 	0.91612	0.08388	0.72732	0.069
Mof_H 	H 	0.9231	0.0769	0.7068	0.03
Mof_C 	C 	0.95572	0.04428	0.75247	0.384
Mof_Ni	Ni	0.62823	0.62823	0.31261	1.122
Mof_O 	O 	0.53483	0.53483	0.27468	-0.441
Mof_O 	O 	0.53396	0.53396	0.22077	-0.455
Mof_N 	N 	0.60698	0.60698	0.27103	-0.211
Mof_C 	C 	0.61677	0.61677	0.24169	0.04
Mof_H 	H 	0.6328	0.6328	0.2403	0.06
Mof_C 	C 	0.60421	0.60421	0.21327	-0.115
Mof_H 	H 	0.6115	0.6115	0.193	0.068
Mof_C 	C 	0.58051	0.58051	0.21551	0.052
Mof_H 	H 	0.5716	0.5716	0.1966	0.023
Mof_C 	C 	0.56996	0.56996	0.24544	-0.134
Mof_C 	C 	0.58388	0.58388	0.27268	0.07
Mof_H 	H 	0.5769	0.5769	0.2932	0.03
Mof_C 	C 	0.54428	0.54428	0.24753	0.385
Mof_Ni	Ni	0.62823	0.12823	0.81261	1.121
Mof_O 	O 	0.53483	0.03483	0.77468	-0.444
Mof_O 	O 	0.53396	0.03396	0.72077	-0.457
Mof_N 	N 	0.60698	0.10698	0.77103	-0.212
Mof_C 	C 	0.61677	0.11677	0.74169	0.04
Mof_H 	H 	0.6328	0.1328	0.7403	0.06
Mof_C 	C 	0.60421	0.10421	0.71327	-0.116
Mof_H 	H 	0.6115	0.1115	0.693	0.068
Mof_C 	C 	0.58051	0.08051	0.71551	0.052
Mof_H 	H 	0.5716	0.0716	0.6966	0.022
Mof_C 	C 	0.56996	0.06996	0.74544	-0.136
Mof_C 	C 	0.58388	0.08388	0.77268	0.069
Mof_H 	H 	0.5769	0.0769	0.7932	0.029
Mof_C 	C 	0.54428	0.04428	0.74753	0.385
Mof_Ni	Ni	0.12823	0.62823	0.81261	1.121
Mof_O 	O 	0.03483	0.53483	0.77468	-0.444
Mof_O 	O 	0.03396	0.53396	0.72077	-0.457
Mof_N 	N 	0.10698	0.60698	0.77103	-0.212
Mof_C 	C 	0.11677	0.61677	0.74169	0.04
Mof_H 	H 	0.1328	0.6328	0.7403	0.06
Mof_C 	C 	0.10421	0.60421	0.71327	-0.116
Mof_H 	H 	0.1115	0.6115	0.693	0.068
Mof_C 	C 	0.08051	0.58051	0.71551	0.052
Mof_H 	H 	0.0716	0.5716	0.6966	0.022
Mof_C 	C 	0.06996	0.56996	0.74544	-0.136
Mof_C 	C 	0.08388	0.58388	0.77268	0.069
Mof_H 	H 	0.0769	0.5769	0.7932	0.029
Mof_C 	C 	0.04428	0.54428	0.74753	0.385
Mof_Ni	Ni	0.12823	0.12823	0.31261	1.121
Mof_O 	O 	0.03483	0.03483	0.27468	-0.446
Mof_O 	O 	0.03396	0.03396	0.22077	-0.459
Mof_N 	N 	0.10698	0.10698	0.27103	-0.212
Mof_C 	C 	0.11677	0.11677	0.24169	0.04
Mof_H 	H 	0.1328	0.1328	0.2403	0.06
Mof_C 	C 	0.10421	0.10421	0.21327	-0.116
Mof_H 	H 	0.1115	0.1115	0.193	0.067
Mof_C 	C 	0.08051	0.08051	0.21551	0.052
Mof_H 	H 	0.0716	0.0716	0.1966	0.021
Mof_C 	C 	0.06996	0.06996	0.24544	-0.137
Mof_C 	C 	0.08388	0.08388	0.27268	0.07
Mof_H 	H 	0.0769	0.0769	0.2932	0.028
Mof_C 	C 	0.04428	0.04428	0.24753	0.385
Mof_Ni	Ni	0.37177	0.37177	0.31261	1.122
Mof_O 	O 	0.46517	0.46517	0.27468	-0.441
Mof_O 	O 	0.46604	0.46604	0.22077	-0.454
Mof_N 	N 	0.39302	0.39302	0.27103	-0.211
Mof_C 	C 	0.38323	0.38323	0.24169	0.04
Mof_H 	H 	0.3672	0.3672	0.2403	0.06
Mof_C 	C 	0.39579	0.39579	0.21327	-0.115
Mof_H 	H 	0.3885	0.3885	0.193	0.068
Mof_C 	C 	0.41949	0.41949	0.21551	0.052
Mof_H 	H 	0.4284	0.4284	0.1966	0.023
Mof_C 	C 	0.43004	0.43004	0.24544	-0.134
Mof_C 	C 	0.41612	0.41612	0.27268	0.07
Mof_H 	H 	0.4231	0.4231	0.2932	0.03
Mof_C 	C 	0.45572	0.45572	0.24753	0.385
Mof_Ni	Ni	0.37177	0.87177	0.81261	1.122
Mof_O 	O 	0.46517	0.96517	0.77468	-0.437
Mof_O 	O 	0.46604	0.96604	0.72077	-0.45
Mof_N 	N 	0.39302	0.89302	0.77103	-0.211
Mof_C 	C 	0.38323	0.88323	0.74169	0.04
Mof_H 	H 	0.3672	0.8672	0.7403	0.06
Mof_C 	C 	0.39579	0.89579	0.71327	-0.114
Mof_H 	H 	0.3885	0.8885	0.693	0.068
Mof_C 	C 	0.41949	0.91949	0.71551	0.051
Mof_H 	H 	0.4284	0.9284	0.6966	0.025
Mof_C 	C 	0.43004	0.93004	0.74544	-0.132
Mof_C 	C 	0.41612	0.91612	0.77268	0.069
Mof_H 	H 	0.4231	0.9231	0.7932	0.031
Mof_C 	C 	0.45572	0.95572	0.74753	0.384
Mof_Ni	Ni	0.87177	0.37177	0.81261	1.122
Mof_O 	O 	0.96517	0.46517	0.77468	-0.437
Mof_O 	O 	0.96604	0.46604	0.72077	-0.45
Mof_N 	N 	0.89302	0.39302	0.77103	-0.211
Mof_C 	C 	0.88323	0.38323	0.74169	0.04
Mof_H 	H 	0.8672	0.3672	0.7403	0.06
Mof_C 	C 	0.89579	0.39579	0.71327	-0.114
Mof_H 	H 	0.8885	0.3885	0.693	0.068
Mof_C 	C 	0.91949	0.41949	0.71551	0.051
Mof_H 	H 	0.9284	0.4284	0.6966	0.025
Mof_C 	C 	0.93004	0.43004	0.74544	-0.132
Mof_C 	C 	0.91612	0.41612	0.77268	0.069
Mof_H 	H 	0.9231	0.4231	0.7932	0.031
Mof_C 	C 	0.95572	0.45572	0.74753	0.384
Mof_Ni	Ni	0.87177	0.87177	0.31261	1.122
Mof_O 	O 	0.96517	0.96517	0.27468	-0.432
Mof_O 	O 	0.96604	0.96604	0.22077	-0.445
Mof_N 	N 	0.89302	0.89302	0.27103	-0.211
Mof_C 	C 	0.88323	0.88323	0.24169	0.04
Mof_H 	H 	0.8672	0.8672	0.2403	0.06
Mof_C 	C 	0.89579	0.89579	0.21327	-0.113
Mof_H 	H 	0.8885	0.8885	0.193	0.069
Mof_C 	C 	0.91949	0.91949	0.21551	0.051
Mof_H 	H 	0.9284	0.9284	0.1966	0.026
Mof_C 	C 	0.93004	0.93004	0.24544	-0.131
Mof_C 	C 	0.91612	0.91612	0.27268	0.069
Mof_H 	H 	0.9231	0.9231	0.2932	0.032
Mof_C 	C 	0.95572	0.95572	0.24753	0.383
Mof_Ni	Ni	0.62823	0.37177	0.68739	1.122
Mof_O 	O 	0.53483	0.46517	0.72532	-0.441
Mof_O 	O 	0.53396	0.46604	0.77923	-0.454
Mof_N 	N 	0.60698	0.39302	0.72897	-0.211
Mof_C 	C 	0.61677	0.38323	0.75831	0.04
Mof_H 	H 	0.6328	0.3672	0.7597	0.06
Mof_C 	C 	0.60421	0.39579	0.78673	-0.115
Mof_H 	H 	0.6115	0.3885	0.807	0.068
Mof_C 	C 	0.58051	0.41949	0.78449	0.052
Mof_H 	H 	0.5716	0.4284	0.8034	0.024
Mof_C 	C 	0.56996	0.43004	0.75456	-0.134
Mof_C 	C 	0.58388	0.41612	0.72732	0.07
Mof_H 	H 	0.5769	0.4231	0.7068	0.03
Mof_C 	C 	0.54428	0.45572	0.75247	0.384
Mof_Ni	Ni	0.62823	0.87177	0.18739	1.122
Mof_O 	O 	0.53483	0.96517	0.22532	-0.437
Mof_O 	O 	0.53396	0.96604	0.27923	-0.45
Mof_N 	N 	0.60698	0.89302	0.22897	-0.211
Mof_C 	C 	0.61677	0.88323	0.25831	0.04
Mof_H 	H 	0.6328	0.8672	0.2597	0.06
Mof_C 	C 	0.60421	0.89579	0.28673	-0.114
Mof_H 	H 	0.6115	0.8885	0.307	0.068
Mof_C 	C 	0.58051	0.91949	0.28449	0.052
Mof_H 	H 	0.5716	0.9284	0.3034	0.025
Mof_C 	C 	0.56996	0.93004	0.25456	-0.133
Mof_C 	C 	0.58388	0.91612	0.22732	0.069
Mof_H 	H 	0.5769	0.9231	0.2068	0.031
Mof_C 	C 	0.54428	0.95572	0.25247	0.384
Mof_Ni	Ni	0.12823	0.37177	0.18739	1.122
Mof_O 	O 	0.03483	0.46517	0.22532	-0.444
Mof_O 	O 	0.03396	0.46604	0.27923	-0.457
Mof_N 	N 	0.10698	0.39302	0.22897	-0.212
Mof_C 	C 	0.11677	0.38323	0.25831	0.04
Mof_H 	H 	0.1328	0.3672	0.2597	0.06
Mof_C 	C 	0.10421	0.39579	0.28673	-0.116
Mof_H 	H 	0.1115	0.3885	0.307	0.068
Mof_C 	C 	0.08051	0.41949	0.28449	0.052
Mof_H 	H 	0.0716	0.4284	0.3034	0.022
Mof_C 	C 	0.06996	0.43004	0.25456	-0.136
Mof_C 	C 	0.08388	0.41612	0.22732	0.07
Mof_H 	H 	0.0769	0.4231	0.2068	0.029
Mof_C 	C 	0.04428	0.45572	0.25247	0.385
Mof_Ni	Ni	0.12823	0.87177	0.68739	1.122
Mof_O 	O 	0.03483	0.96517	0.72532	-0.439
Mof_O 	O 	0.03396	0.96604	0.77923	-0.452
Mof_N 	N 	0.10698	0.89302	0.72897	-0.211
Mof_C 	C 	0.11677	0.88323	0.75831	0.04
Mof_H 	H 	0.1328	0.8672	0.7597	0.06
Mof_C 	C 	0.10421	0.89579	0.78673	-0.115
Mof_H 	H 	0.1115	0.8885	0.807	0.068
Mof_C 	C 	0.08051	0.91949	0.78449	0.052
Mof_H 	H 	0.0716	0.9284	0.8034	0.024
Mof_C 	C 	0.06996	0.93004	0.75456	-0.134
Mof_C 	C 	0.08388	0.91612	0.72732	0.069
Mof_H 	H 	0.0769	0.9231	0.7068	0.03
Mof_C 	C 	0.04428	0.95572	0.75247	0.384
Mof_Ni	Ni	0.37177	0.68739	0.37177	1.122
Mof_O 	O 	0.46517	0.72532	0.46517	-0.441
Mof_O 	O 	0.46604	0.77923	0.46604	-0.454
Mof_N 	N 	0.39302	0.72897	0.39302	-0.211
Mof_C 	C 	0.38323	0.75831	0.38323	0.04
Mof_H 	H 	0.3672	0.7597	0.3672	0.06
Mof_C 	C 	0.39579	0.78673	0.39579	-0.115
Mof_H 	H 	0.3885	0.807	0.3885	0.068
Mof_C 	C 	0.41949	0.78449	0.41949	0.052
Mof_H 	H 	0.4284	0.8034	0.4284	0.024
Mof_C 	C 	0.43004	0.75456	0.43004	-0.134
Mof_C 	C 	0.41612	0.72732	0.41612	0.07
Mof_H 	H 	0.4231	0.7068	0.4231	0.03
Mof_C 	C 	0.45572	0.75247	0.45572	0.384
Mof_Ni	Ni	0.37177	0.18739	0.87177	1.122
Mof_O 	O 	0.46517	0.22532	0.96517	-0.437
Mof_O 	O 	0.46604	0.27923	0.96604	-0.45
Mof_N 	N 	0.39302	0.22897	0.89302	-0.211
Mof_C 	C 	0.38323	0.25831	0.88323	0.04
Mof_H 	H 	0.3672	0.2597	0.8672	0.06
Mof_C 	C 	0.39579	0.28673	0.89579	-0.114
Mof_H 	H 	0.3885	0.307	0.8885	0.069
Mof_C 	C 	0.41949	0.28449	0.91949	0.052
Mof_H 	H 	0.4284	0.3034	0.9284	0.025
Mof_C 	C 	0.43004	0.25456	0.93004	-0.133
Mof_C 	C 	0.41612	0.22732	0.91612	0.069
Mof_H 	H 	0.4231	0.2068	0.9231	0.031
Mof_C 	C 	0.45572	0.25247	0.95572	0.384
Mof_Ni	Ni	0.87177	0.68739	0.87177	1.122
Mof_O 	O 	0.96517	0.72532	0.96517	-0.432
Mof_O 	O 	0.96604	0.77923	0.96604	-0.445
Mof_N 	N 	0.89302	0.72897	0.89302	-0.211
Mof_C 	C 	0.88323	0.75831	0.88323	0.04
Mof_H 	H 	0.8672	0.7597	0.8672	0.06
Mof_C 	C 	0.89579	0.78673	0.89579	-0.113
Mof_H 	H 	0.8885	0.807	0.8885	0.069
Mof_C 	C 	0.91949	0.78449	0.91949	0.051
Mof_H 	H 	0.9284	0.8034	0.9284	0.027
Mof_C 	C 	0.93004	0.75456	0.93004	-0.131
Mof_C 	C 	0.91612	0.72732	0.91612	0.069
Mof_H 	H 	0.9231	0.7068	0.9231	0.032
Mof_C 	C 	0.95572	0.75247	0.95572	0.383
Mof_Ni	Ni	0.87177	0.18739	0.37177	1.122
Mof_O 	O 	0.96517	0.22532	0.46517	-0.437
Mof_O 	O 	0.96604	0.27923	0.46604	-0.45
Mof_N 	N 	0.89302	0.22897	0.39302	-0.211
Mof_C 	C 	0.88323	0.25831	0.38323	0.04
Mof_H 	H 	0.8672	0.2597	0.3672	0.06
Mof_C 	C 	0.89579	0.28673	0.39579	-0.114
Mof_H 	H 	0.8885	0.307	0.3885	0.069
Mof_C 	C 	0.91949	0.28449	0.41949	0.052
Mof_H 	H 	0.9284	0.3034	0.4284	0.025
Mof_C 	C 	0.93004	0.25456	0.43004	-0.133
Mof_C 	C 	0.91612	0.22732	0.41612	0.069
Mof_H 	H 	0.9231	0.2068	0.4231	0.031
Mof_C 	C 	0.95572	0.25247	0.45572	0.384
Mof_Ni	Ni	0.62823	0.31261	0.37177	1.122
Mof_O 	O 	0.53483	0.27468	0.46517	-0.441
Mof_O 	O 	0.53396	0.22077	0.46604	-0.455
Mof_N 	N 	0.60698	0.27103	0.39302	-0.211
Mof_C 	C 	0.61677	0.24169	0.38323	0.04
Mof_H 	H 	0.6328	0.2403	0.3672	0.06
Mof_C 	C 	0.60421	0.21327	0.39579	-0.115
Mof_H 	H 	0.6115	0.193	0.3885	0.068
Mof_C 	C 	0.58051	0.21551	0.41949	0.052
Mof_H 	H 	0.5716	0.1966	0.4284	0.023
Mof_C 	C 	0.56996	0.24544	0.43004	-0.134
Mof_C 	C 	0.58388	0.27268	0.41612	0.07
Mof_H 	H 	0.5769	0.2932	0.4231	0.03
Mof_C 	C 	0.54428	0.24753	0.45572	0.385
Mof_Ni	Ni	0.62823	0.81261	0.87177	1.122
Mof_O 	O 	0.53483	0.77468	0.96517	-0.437
Mof_O 	O 	0.53396	0.72077	0.96604	-0.45
Mof_N 	N 	0.60698	0.77103	0.89302	-0.211
Mof_C 	C 	0.61677	0.74169	0.88323	0.04
Mof_H 	H 	0.6328	0.7403	0.8672	0.06
Mof_C 	C 	0.60421	0.71327	0.89579	-0.114
Mof_H 	H 	0.6115	0.693	0.8885	0.068
Mof_C 	C 	0.58051	0.71551	0.91949	0.051
Mof_H 	H 	0.5716	0.6966	0.9284	0.025
Mof_C 	C 	0.56996	0.74544	0.93004	-0.132
Mof_C 	C 	0.58388	0.77268	0.91612	0.069
Mof_H 	H 	0.5769	0.7932	0.9231	0.031
Mof_C 	C 	0.54428	0.74753	0.95572	0.384
Mof_Ni	Ni	0.12823	0.31261	0.87177	1.122
Mof_O 	O 	0.03483	0.27468	0.96517	-0.439
Mof_O 	O 	0.03396	0.22077	0.96604	-0.452
Mof_N 	N 	0.10698	0.27103	0.89302	-0.211
Mof_C 	C 	0.11677	0.24169	0.88323	0.04
Mof_H 	H 	0.1328	0.2403	0.8672	0.06
Mof_C 	C 	0.10421	0.21327	0.89579	-0.115
Mof_H 	H 	0.1115	0.193	0.8885	0.068
Mof_C 	C 	0.08051	0.21551	0.91949	0.052
Mof_H 	H 	0.0716	0.1966	0.9284	0.024
Mof_C 	C 	0.06996	0.24544	0.93004	-0.134
Mof_C 	C 	0.08388	0.27268	0.91612	0.069
Mof_H 	H 	0.0769	0.2932	0.9231	0.03
Mof_C 	C 	0.04428	0.24753	0.95572	0.384
Mof_Ni	Ni	0.12823	0.81261	0.37177	1.122
Mof_O 	O 	0.03483	0.77468	0.46517	-0.444
Mof_O 	O 	0.03396	0.72077	0.46604	-0.457
Mof_N 	N 	0.10698	0.77103	0.39302	-0.212
Mof_C 	C 	0.11677	0.74169	0.38323	0.04
Mof_H 	H 	0.1328	0.7403	0.3672	0.06
Mof_C 	C 	0.10421	0.71327	0.39579	-0.116
Mof_H 	H 	0.1115	0.693	0.3885	0.068
Mof_C 	C 	0.08051	0.71551	0.41949	0.052
Mof_H 	H 	0.0716	0.6966	0.4284	0.022
Mof_C 	C 	0.06996	0.74544	0.43004	-0.135
Mof_C 	C 	0.08388	0.77268	0.41612	0.069
Mof_H 	H 	0.0769	0.7932	0.4231	0.029
Mof_C 	C 	0.04428	0.74753	0.45572	0.385
Mof_Ni	Ni	0.37177	0.31261	0.62823	1.122
Mof_O 	O 	0.46517	0.27468	0.53483	-0.441
Mof_O 	O 	0.46604	0.22077	0.53396	-0.455
Mof_N 	N 	0.39302	0.27103	0.60698	-0.211
Mof_C 	C 	0.38323	0.24169	0.61677	0.04
Mof_H 	H 	0.3672	0.2403	0.6328	0.06
Mof_C 	C 	0.39579	0.21327	0.60421	-0.115
Mof_H 	H 	0.3885	0.193	0.6115	0.068
Mof_C 	C 	0.41949	0.21551	0.58051	0.052
Mof_H 	H 	0.4284	0.1966	0.5716	0.023
Mof_C 	C 	0.43004	0.24544	0.56996	-0.134
Mof_C 	C 	0.41612	0.27268	0.58388	0.07
Mof_H 	H 	0.4231	0.2932	0.5769	0.03
Mof_C 	C 	0.45572	0.24753	0.54428	0.385
Mof_Ni	Ni	0.37177	0.81261	0.12823	1.122
Mof_O 	O 	0.46517	0.77468	0.03483	-0.444
Mof_O 	O 	0.46604	0.72077	0.03396	-0.457
Mof_N 	N 	0.39302	0.77103	0.10698	-0.212
Mof_C 	C 	0.38323	0.74169	0.11677	0.04
Mof_H 	H 	0.3672	0.7403	0.1328	0.06
Mof_C 	C 	0.39579	0.71327	0.10421	-0.116
Mof_H 	H 	0.3885	0.693	0.1115	0.068
Mof_C 	C 	0.41949	0.71551	0.08051	0.052
Mof_H 	H 	0.4284	0.6966	0.0716	0.022
Mof_C 	C 	0.43004	0.74544	0.06996	-0.135
Mof_C 	C 	0.41612	0.77268	0.08388	0.069
Mof_H 	H 	0.4231	0.7932	0.0769	0.029
Mof_C 	C 	0.45572	0.74753	0.04428	0.385
Mof_Ni	Ni	0.87177	0.31261	0.12823	1.122
Mof_O 	O 	0.96517	0.27468	0.03483	-0.439
Mof_O 	O 	0.96604	0.22077	0.03396	-0.452
Mof_N 	N 	0.89302	0.27103	0.10698	-0.211
Mof_C 	C 	0.88323	0.24169	0.11677	0.04
Mof_H 	H 	0.8672	0.2403	0.1328	0.06
Mof_C 	C 	0.89579	0.21327	0.10421	-0.115
Mof_H 	H 	0.8885	0.193	0.1115	0.068
Mof_C 	C 	0.91949	0.21551	0.08051	0.052
Mof_H 	H 	0.9284	0.1966	0.0716	0.024
Mof_C 	C 	0.93004	0.24544	0.06996	-0.134
Mof_C 	C 	0.91612	0.27268	0.08388	0.069
Mof_H 	H 	0.9231	0.2932	0.0769	0.03
Mof_C 	C 	0.95572	0.24753	0.04428	0.384
Mof_Ni	Ni	0.87177	0.81261	0.62823	1.122
Mof_O 	O 	0.96517	0.77468	0.53483	-0.437
Mof_O 	O 	0.96604	0.72077	0.53396	-0.45
Mof_N 	N 	0.89302	0.77103	0.60698	-0.211
Mof_C 	C 	0.88323	0.74169	0.61677	0.04
Mof_H 	H 	0.8672	0.7403	0.6328	0.06
Mof_C 	C 	0.89579	0.71327	0.60421	-0.114
Mof_H 	H 	0.8885	0.693	0.6115	0.068
Mof_C 	C 	0.91949	0.71551	0.58051	0.051
Mof_H 	H 	0.9284	0.6966	0.5716	0.025
Mof_C 	C 	0.93004	0.74544	0.56996	-0.132
Mof_C 	C 	0.91612	0.77268	0.58388	0.069
Mof_H 	H 	0.9231	0.7932	0.5769	0.031
Mof_C 	C 	0.95572	0.74753	0.54428	0.384
Mof_Ni	Ni	0.62823	0.68739	0.62823	1.122
Mof_O 	O 	0.53483	0.72532	0.53483	-0.441
Mof_O 	O 	0.53396	0.77923	0.53396	-0.454
Mof_N 	N 	0.60698	0.72897	0.60698	-0.211
Mof_C 	C 	0.61677	0.75831	0.61677	0.04
Mof_H 	H 	0.6328	0.7597	0.6328	0.06
Mof_C 	C 	0.60421	0.78673	0.60421	-0.115
Mof_H 	H 	0.6115	0.807	0.6115	0.068
Mof_C 	C 	0.58051	0.78449	0.58051	0.052
Mof_H 	H 	0.5716	0.8034	0.5716	0.024
Mof_C 	C 	0.56996	0.75456	0.56996	-0.134
Mof_C 	C 	0.58388	0.72732	0.58388	0.069
Mof_H 	H 	0.5769	0.7068	0.5769	0.03
Mof_C 	C 	0.54428	0.75247	0.54428	0.384
Mof_Ni	Ni	0.62823	0.18739	0.12823	1.122
Mof_O 	O 	0.53483	0.22532	0.03483	-0.444
Mof_O 	O 	0.53396	0.27923	0.03396	-0.457
Mof_N 	N 	0.60698	0.22897	0.10698	-0.212
Mof_C 	C 	0.61677	0.25831	0.11677	0.04
Mof_H 	H 	0.6328	0.2597	0.1328	0.06
Mof_C 	C 	0.60421	0.28673	0.10421	-0.116
Mof_H 	H 	0.6115	0.307	0.1115	0.068
Mof_C 	C 	0.58051	0.28449	0.08051	0.052
Mof_H 	H 	0.5716	0.3034	0.0716	0.022
Mof_C 	C 	0.56996	0.25456	0.06996	-0.136
Mof_C 	C 	0.58388	0.22732	0.08388	0.07
Mof_H 	H 	0.5769	0.2068	0.0769	0.029
Mof_C 	C 	0.54428	0.25247	0.04428	0.385
Mof_Ni	Ni	0.12823	0.68739	0.12823	1.121
Mof_O 	O 	0.03483	0.72532	0.03483	-0.446
Mof_O 	O 	0.03396	0.77923	0.03396	-0.459
Mof_N 	N 	0.10698	0.72897	0.10698	-0.212
Mof_C 	C 	0.11677	0.75831	0.11677	0.04
Mof_H 	H 	0.1328	0.7597	0.1328	0.06
Mof_C 	C 	0.10421	0.78673	0.10421	-0.116
Mof_H 	H 	0.1115	0.807	0.1115	0.068
Mof_C 	C 	0.08051	0.78449	0.08051	0.052
Mof_H 	H 	0.0716	0.8034	0.0716	0.022
Mof_C 	C 	0.06996	0.75456	0.06996	-0.137
Mof_C 	C 	0.08388	0.72732	0.08388	0.07
Mof_H 	H 	0.0769	0.7068	0.0769	0.028
Mof_C 	C 	0.04428	0.75247	0.04428	0.385
Mof_Ni	Ni	0.12823	0.18739	0.62823	1.122
Mof_O 	O 	0.03483	0.22532	0.53483	-0.444
Mof_O 	O 	0.03396	0.27923	0.53396	-0.457
Mof_N 	N 	0.10698	0.22897	0.60698	-0.212
Mof_C 	C 	0.11677	0.25831	0.61677	0.04
Mof_H 	H 	0.1328	0.2597	0.6328	0.06
Mof_C 	C 	0.10421	0.28673	0.60421	-0.116
Mof_H 	H 	0.1115	0.307	0.6115	0.068
Mof_C 	C 	0.08051	0.28449	0.58051	0.052
Mof_H 	H 	0.0716	0.3034	0.5716	0.022
Mof_C 	C 	0.06996	0.25456	0.56996	-0.136
Mof_C 	C 	0.08388	0.22732	0.58388	0.07
Mof_H 	H 	0.0769	0.2068	0.5769	0.029
Mof_C 	C 	0.04428	0.25247	0.54428	0.385
Mof_Ni	Ni	0.68739	0.62823	0.62823	1.122
Mof_O 	O 	0.72532	0.53483	0.53483	-0.441
Mof_O 	O 	0.77923	0.53396	0.53396	-0.454
Mof_N 	N 	0.72897	0.60698	0.60698	-0.211
Mof_C 	C 	0.75831	0.61677	0.61677	0.04
Mof_H 	H 	0.7597	0.6328	0.6328	0.06
Mof_C 	C 	0.78673	0.60421	0.60421	-0.115
Mof_H 	H 	0.807	0.6115	0.6115	0.068
Mof_C 	C 	0.78449	0.58051	0.58051	0.052
Mof_H 	H 	0.8034	0.5716	0.5716	0.024
Mof_C 	C 	0.75456	0.56996	0.56996	-0.134
Mof_C 	C 	0.72732	0.58388	0.58388	0.069
Mof_H 	H 	0.7068	0.5769	0.5769	0.03
Mof_C 	C 	0.75247	0.54428	0.54428	0.384
Mof_Ni	Ni	0.68739	0.12823	0.12823	1.121
Mof_O 	O 	0.72532	0.03483	0.03483	-0.446
Mof_O 	O 	0.77923	0.03396	0.03396	-0.459
Mof_N 	N 	0.72897	0.10698	0.10698	-0.212
Mof_C 	C 	0.75831	0.11677	0.11677	0.04
Mof_H 	H 	0.7597	0.1328	0.1328	0.06
Mof_C 	C 	0.78673	0.10421	0.10421	-0.116
Mof_H 	H 	0.807	0.1115	0.1115	0.068
Mof_C 	C 	0.78449	0.08051	0.08051	0.052
Mof_H 	H 	0.8034	0.0716	0.0716	0.022
Mof_C 	C 	0.75456	0.06996	0.06996	-0.137
Mof_C 	C 	0.72732	0.08388	0.08388	0.07
Mof_H 	H 	0.7068	0.0769	0.0769	0.028
Mof_C 	C 	0.75247	0.04428	0.04428	0.385
Mof_Ni	Ni	0.18739	0.62823	0.12823	1.122
Mof_O 	O 	0.22532	0.53483	0.03483	-0.444
Mof_O 	O 	0.27923	0.53396	0.03396	-0.457
Mof_N 	N 	0.22897	0.60698	0.10698	-0.212
Mof_C 	C 	0.25831	0.61677	0.11677	0.04
Mof_H 	H 	0.2597	0.6328	0.1328	0.06
Mof_C 	C 	0.28673	0.60421	0.10421	-0.116
Mof_H 	H 	0.307	0.6115	0.1115	0.068
Mof_C 	C 	0.28449	0.58051	0.08051	0.052
Mof_H 	H 	0.3034	0.5716	0.0716	0.022
Mof_C 	C 	0.25456	0.56996	0.06996	-0.136
Mof_C 	C 	0.22732	0.58388	0.08388	0.07
Mof_H 	H 	0.2068	0.5769	0.0769	0.029
Mof_C 	C 	0.25247	0.54428	0.04428	0.385
Mof_Ni	Ni	0.18739	0.12823	0.62823	1.122
Mof_O 	O 	0.22532	0.03483	0.53483	-0.444
Mof_O 	O 	0.27923	0.03396	0.53396	-0.457
Mof_N 	N 	0.22897	0.10698	0.60698	-0.212
Mof_C 	C 	0.25831	0.11677	0.61677	0.04
Mof_H 	H 	0.2597	0.1328	0.6328	0.06
Mof_C 	C 	0.28673	0.10421	0.60421	-0.116
Mof_H 	H 	0.307	0.1115	0.6115	0.068
Mof_C 	C 	0.28449	0.08051	0.58051	0.052
Mof_H 	H 	0.3034	0.0716	0.5716	0.022
Mof_C 	C 	0.25456	0.06996	0.56996	-0.136
Mof_C 	C 	0.22732	0.08388	0.58388	0.07
Mof_H 	H 	0.2068	0.0769	0.5769	0.029
Mof_C 	C 	0.25247	0.04428	0.54428	0.385
Mof_Ni	Ni	0.31261	0.62823	0.37177	1.122
Mof_O 	O 	0.27468	0.53483	0.46517	-0.441
Mof_O 	O 	0.22077	0.53396	0.46604	-0.455
Mof_N 	N 	0.27103	0.60698	0.39302	-0.211
Mof_C 	C 	0.24169	0.61677	0.38323	0.04
Mof_H 	H 	0.2403	0.6328	0.3672	0.06
Mof_C 	C 	0.21327	0.60421	0.39579	-0.115
Mof_H 	H 	0.193	0.6115	0.3885	0.068
Mof_C 	C 	0.21551	0.58051	0.41949	0.052
Mof_H 	H 	0.1966	0.5716	0.4284	0.023
Mof_C 	C 	0.24544	0.56996	0.43004	-0.134
Mof_C 	C 	0.27268	0.58388	0.41612	0.07
Mof_H 	H 	0.2932	0.5769	0.4231	0.03
Mof_C 	C 	0.24753	0.54428	0.45572	0.385
Mof_Ni	Ni	0.31261	0.12823	0.87177	1.122
Mof_O 	O 	0.27468	0.03483	0.96517	-0.439
Mof_O 	O 	0.22077	0.03396	0.96604	-0.452
Mof_N 	N 	0.27103	0.10698	0.89302	-0.211
Mof_C 	C 	0.24169	0.11677	0.88323	0.04
Mof_H 	H 	0.2403	0.1328	0.8672	0.06
Mof_C 	C 	0.21327	0.10421	0.89579	-0.115
Mof_H 	H 	0.193	0.1115	0.8885	0.068
Mof_C 	C 	0.21551	0.08051	0.91949	0.052
Mof_H 	H 	0.1966	0.0716	0.9284	0.024
Mof_C 	C 	0.24544	0.06996	0.93004	-0.134
Mof_C 	C 	0.27268	0.08388	0.91612	0.069
Mof_H 	H 	0.2932	0.0769	0.9231	0.03
Mof_C 	C 	0.24753	0.04428	0.95572	0.384
Mof_Ni	Ni	0.81261	0.62823	0.87177	1.122
Mof_O 	O 	0.77468	0.53483	0.96517	-0.437
Mof_O 	O 	0.72077	0.53396	0.96604	-0.45
Mof_N 	N 	0.77103	0.60698	0.89302	-0.211
Mof_C 	C 	0.74169	0.61677	0.88323	0.04
Mof_H 	H 	0.7403	0.6328	0.8672	0.06
Mof_C 	C 	0.71327	0.60421	0.89579	-0.114
Mof_H 	H 	0.693	0.6115	0.8885	0.068
Mof_C 	C 	0.71551	0.58051	0.91949	0.051
Mof_H 	H 	0.6966	0.5716	0.9284	0.025
Mof_C 	C 	0.74544	0.56996	0.93004	-0.132
Mof_C 	C 	0.77268	0.58388	0.91612	0.069
Mof_H 	H 	0.7932	0.5769	0.9231	0.031
Mof_C 	C 	0.74753	0.54428	0.95572	0.384
Mof_Ni	Ni	0.81261	0.12823	0.37177	1.122
Mof_O 	O 	0.77468	0.03483	0.46517	-0.444
Mof_O 	O 	0.72077	0.03396	0.46604	-0.457
Mof_N 	N 	0.77103	0.10698	0.39302	-0.212
Mof_C 	C 	0.74169	0.11677	0.38323	0.04
Mof_H 	H 	0.7403	0.1328	0.3672	0.06
Mof_C 	C 	0.71327	0.10421	0.39579	-0.116
Mof_H 	H 	0.693	0.1115	0.3885	0.068
Mof_C 	C 	0.71551	0.08051	0.41949	0.052
Mof_H 	H 	0.6966	0.0716	0.4284	0.022
Mof_C 	C 	0.74544	0.06996	0.43004	-0.135
Mof_C 	C 	0.77268	0.08388	0.41612	0.069
Mof_H 	H 	0.7932	0.0769	0.4231	0.029
Mof_C 	C 	0.74753	0.04428	0.45572	0.385
Mof_Ni	Ni	0.31261	0.37177	0.62823	1.122
Mof_O 	O 	0.27468	0.46517	0.53483	-0.441
Mof_O 	O 	0.22077	0.46604	0.53396	-0.455
Mof_N 	N 	0.27103	0.39302	0.60698	-0.211
Mof_C 	C 	0.24169	0.38323	0.61677	0.04
Mof_H 	H 	0.2403	0.3672	0.6328	0.06
Mof_C 	C 	0.21327	0.39579	0.60421	-0.115
Mof_H 	H 	0.193	0.3885	0.6115	0.068
Mof_C 	C 	0.21551	0.41949	0.58051	0.052
Mof_H 	H 	0.1966	0.4284	0.5716	0.023
Mof_C 	C 	0.24544	0.43004	0.56996	-0.134
Mof_C 	C 	0.27268	0.41612	0.58388	0.07
Mof_H 	H 	0.2932	0.4231	0.5769	0.03
Mof_C 	C 	0.24753	0.45572	0.54428	0.385
Mof_Ni	Ni	0.31261	0.87177	0.12823	1.122
Mof_O 	O 	0.27468	0.96517	0.03483	-0.439
Mof_O 	O 	0.22077	0.96604	0.03396	-0.452
Mof_N 	N 	0.27103	0.89302	0.10698	-0.211
Mof_C 	C 	0.24169	0.88323	0.11677	0.04
Mof_H 	H 	0.2403	0.8672	0.1328	0.06
Mof_C 	C 	0.21327	0.89579	0.10421	-0.115
Mof_H 	H 	0.193	0.8885	0.1115	0.068
Mof_C 	C 	0.21551	0.91949	0.08051	0.052
Mof_H 	H 	0.1966	0.9284	0.0716	0.024
Mof_C 	C 	0.24544	0.93004	0.06996	-0.134
Mof_C 	C 	0.27268	0.91612	0.08388	0.069
Mof_H 	H 	0.2932	0.9231	0.0769	0.03
Mof_C 	C 	0.24753	0.95572	0.04428	0.384
Mof_Ni	Ni	0.81261	0.37177	0.12823	1.122
Mof_O 	O 	0.77468	0.46517	0.03483	-0.444
Mof_O 	O 	0.72077	0.46604	0.03396	-0.457
Mof_N 	N 	0.77103	0.39302	0.10698	-0.212
Mof_C 	C 	0.74169	0.38323	0.11677	0.04
Mof_H 	H 	0.7403	0.3672	0.1328	0.06
Mof_C 	C 	0.71327	0.39579	0.10421	-0.116
Mof_H 	H 	0.693	0.3885	0.1115	0.068
Mof_C 	C 	0.71551	0.41949	0.08051	0.052
Mof_H 	H 	0.6966	0.4284	0.0716	0.022
Mof_C 	C 	0.74544	0.43004	0.06996	-0.135
Mof_C 	C 	0.77268	0.41612	0.08388	0.069
Mof_H 	H 	0.7932	0.4231	0.0769	0.029
Mof_C 	C 	0.74753	0.45572	0.04428	0.385
Mof_Ni	Ni	0.81261	0.87177	0.62823	1.122
Mof_O 	O 	0.77468	0.96517	0.53483	-0.437
Mof_O 	O 	0.72077	0.96604	0.53396	-0.45
Mof_N 	N 	0.77103	0.89302	0.60698	-0.211
Mof_C 	C 	0.74169	0.88323	0.61677	0.04
Mof_H 	H 	0.7403	0.8672	0.6328	0.06
Mof_C 	C 	0.71327	0.89579	0.60421	-0.114
Mof_H 	H 	0.693	0.8885	0.6115	0.068
Mof_C 	C 	0.71551	0.91949	0.58051	0.051
Mof_H 	H 	0.6966	0.9284	0.5716	0.025
Mof_C 	C 	0.74544	0.93004	0.56996	-0.132
Mof_C 	C 	0.77268	0.91612	0.58388	0.069
Mof_H 	H 	0.7932	0.9231	0.5769	0.031
Mof_C 	C 	0.74753	0.95572	0.54428	0.384
Mof_Ni	Ni	0.68739	0.37177	0.37177	1.122
Mof_O 	O 	0.72532	0.46517	0.46517	-0.441
Mof_O 	O 	0.77923	0.46604	0.46604	-0.454
Mof_N 	N 	0.72897	0.39302	0.39302	-0.211
Mof_C 	C 	0.75831	0.38323	0.38323	0.04
Mof_H 	H 	0.7597	0.3672	0.3672	0.06
Mof_C 	C 	0.78673	0.39579	0.39579	-0.115
Mof_H 	H 	0.807	0.3885	0.3885	0.068
Mof_C 	C 	0.78449	0.41949	0.41949	0.052
Mof_H 	H 	0.8034	0.4284	0.4284	0.024
Mof_C 	C 	0.75456	0.43004	0.43004	-0.134
Mof_C 	C 	0.72732	0.41612	0.41612	0.07
Mof_H 	H 	0.7068	0.4231	0.4231	0.03
Mof_C 	C 	0.75247	0.45572	0.45572	0.384
Mof_Ni	Ni	0.68739	0.87177	0.87177	1.122
Mof_O 	O 	0.72532	0.96517	0.96517	-0.432
Mof_O 	O 	0.77923	0.96604	0.96604	-0.445
Mof_N 	N 	0.72897	0.89302	0.89302	-0.211
Mof_C 	C 	0.75831	0.88323	0.88323	0.04
Mof_H 	H 	0.7597	0.8672	0.8672	0.06
Mof_C 	C 	0.78673	0.89579	0.89579	-0.113
Mof_H 	H 	0.807	0.8885	0.8885	0.069
Mof_C 	C 	0.78449	0.91949	0.91949	0.051
Mof_H 	H 	0.8034	0.9284	0.9284	0.027
Mof_C 	C 	0.75456	0.93004	0.93004	-0.131
Mof_C 	C 	0.72732	0.91612	0.91612	0.069
Mof_H 	H 	0.7068	0.9231	0.9231	0.032
Mof_C 	C 	0.75247	0.95572	0.95572	0.383
Mof_Ni	Ni	0.18739	0.37177	0.87177	1.122
Mof_O 	O 	0.22532	0.46517	0.96517	-0.437
Mof_O 	O 	0.27923	0.46604	0.96604	-0.45
Mof_N 	N 	0.22897	0.39302	0.89302	-0.211
Mof_C 	C 	0.25831	0.38323	0.88323	0.04
Mof_H 	H 	0.2597	0.3672	0.8672	0.06
Mof_C 	C 	0.28673	0.39579	0.89579	-0.114
Mof_H 	H 	0.307	0.3885	0.8885	0.069
Mof_C 	C 	0.28449	0.41949	0.91949	0.052
Mof_H 	H 	0.3034	0.4284	0.9284	0.025
Mof_C 	C 	0.25456	0.43004	0.93004	-0.133
Mof_C 	C 	0.22732	0.41612	0.91612	0.069
Mof_H 	H 	0.2068	0.4231	0.9231	0.031
Mof_C 	C 	0.25247	0.45572	0.95572	0.384
Mof_Ni	Ni	0.18739	0.87177	0.37177	1.122
Mof_O 	O 	0.22532	0.96517	0.46517	-0.437
Mof_O 	O 	0.27923	0.96604	0.46604	-0.45
Mof_N 	N 	0.22897	0.89302	0.39302	-0.211
Mof_C 	C 	0.25831	0.88323	0.38323	0.04
Mof_H 	H 	0.2597	0.8672	0.3672	0.06
Mof_C 	C 	0.28673	0.89579	0.39579	-0.114
Mof_H 	H 	0.307	0.8885	0.3885	0.069
Mof_C 	C 	0.28449	0.91949	0.41949	0.052
Mof_H 	H 	0.3034	0.9284	0.4284	0.025
Mof_C 	C 	0.25456	0.93004	0.43004	-0.133
Mof_C 	C 	0.22732	0.91612	0.41612	0.069
Mof_H 	H 	0.2068	0.9231	0.4231	0.031
Mof_C 	C 	0.25247	0.95572	0.45572	0.384
Mof_Ni	Ni	0.62823	0.37177	0.31261	1.122
Mof_O 	O 	0.53483	0.46517	0.27468	-0.441
Mof_O 	O 	0.53396	0.46604	0.22077	-0.455
Mof_N 	N 	0.60698	0.39302	0.27103	-0.211
Mof_C 	C 	0.61677	0.38323	0.24169	0.04
Mof_H 	H 	0.6328	0.3672	0.2403	0.06
Mof_C 	C 	0.60421	0.39579	0.21327	-0.115
Mof_H 	H 	0.6115	0.3885	0.193	0.068
Mof_C 	C 	0.58051	0.41949	0.21551	0.052
Mof_H 	H 	0.5716	0.4284	0.1966	0.023
Mof_C 	C 	0.56996	0.43004	0.24544	-0.134
Mof_C 	C 	0.58388	0.41612	0.27268	0.07
Mof_H 	H 	0.5769	0.4231	0.2932	0.03
Mof_C 	C 	0.54428	0.45572	0.24753	0.385
Mof_Ni	Ni	0.62823	0.87177	0.81261	1.122
Mof_O 	O 	0.53483	0.96517	0.77468	-0.437
Mof_O 	O 	0.53396	0.96604	0.72077	-0.45
Mof_N 	N 	0.60698	0.89302	0.77103	-0.211
Mof_C 	C 	0.61677	0.88323	0.74169	0.04
Mof_H 	H 	0.6328	0.8672	0.7403	0.06
Mof_C 	C 	0.60421	0.89579	0.71327	-0.114
Mof_H 	H 	0.6115	0.8885	0.693	0.068
Mof_C 	C 	0.58051	0.91949	0.71551	0.051
Mof_H 	H 	0.5716	0.9284	0.6966	0.025
Mof_C 	C 	0.56996	0.93004	0.74544	-0.132
Mof_C 	C 	0.58388	0.91612	0.77268	0.069
Mof_H 	H 	0.5769	0.9231	0.7932	0.031
Mof_C 	C 	0.54428	0.95572	0.74753	0.384
Mof_Ni	Ni	0.12823	0.37177	0.81261	1.122
Mof_O 	O 	0.03483	0.46517	0.77468	-0.444
Mof_O 	O 	0.03396	0.46604	0.72077	-0.457
Mof_N 	N 	0.10698	0.39302	0.77103	-0.212
Mof_C 	C 	0.11677	0.38323	0.74169	0.04
Mof_H 	H 	0.1328	0.3672	0.7403	0.06
Mof_C 	C 	0.10421	0.39579	0.71327	-0.116
Mof_H 	H 	0.1115	0.3885	0.693	0.068
Mof_C 	C 	0.08051	0.41949	0.71551	0.052
Mof_H 	H 	0.0716	0.4284	0.6966	0.022
Mof_C 	C 	0.06996	0.43004	0.74544	-0.135
Mof_C 	C 	0.08388	0.41612	0.77268	0.069
Mof_H 	H 	0.0769	0.4231	0.7932	0.029
Mof_C 	C 	0.04428	0.45572	0.74753	0.385
Mof_Ni	Ni	0.12823	0.87177	0.31261	1.122
Mof_O 	O 	0.03483	0.96517	0.27468	-0.439
Mof_O 	O 	0.03396	0.96604	0.22077	-0.452
Mof_N 	N 	0.10698	0.89302	0.27103	-0.211
Mof_C 	C 	0.11677	0.88323	0.24169	0.04
Mof_H 	H 	0.1328	0.8672	0.2403	0.06
Mof_C 	C 	0.10421	0.89579	0.21327	-0.115
Mof_H 	H 	0.1115	0.8885	0.193	0.068
Mof_C 	C 	0.08051	0.91949	0.21551	0.052
Mof_H 	H 	0.0716	0.9284	0.1966	0.024
Mof_C 	C 	0.06996	0.93004	0.24544	-0.134
Mof_C 	C 	0.08388	0.91612	0.27268	0.069
Mof_H 	H 	0.0769	0.9231	0.2932	0.03
Mof_C 	C 	0.04428	0.95572	0.24753	0.384
Mof_Ni	Ni	0.62823	0.62823	0.68739	1.122
Mof_O 	O 	0.53483	0.53483	0.72532	-0.441
Mof_O 	O 	0.53396	0.53396	0.77923	-0.454
Mof_N 	N 	0.60698	0.60698	0.72897	-0.211
Mof_C 	C 	0.61677	0.61677	0.75831	0.04
Mof_H 	H 	0.6328	0.6328	0.7597	0.06
Mof_C 	C 	0.60421	0.60421	0.78673	-0.115
Mof_H 	H 	0.6115	0.6115	0.807	0.068
Mof_C 	C 	0.58051	0.58051	0.78449	0.052
Mof_H 	H 	0.5716	0.5716	0.8034	0.024
Mof_C 	C 	0.56996	0.56996	0.75456	-0.134
Mof_C 	C 	0.58388	0.58388	0.72732	0.069
Mof_H 	H 	0.5769	0.5769	0.7068	0.03
Mof_C 	C 	0.54428	0.54428	0.75247	0.384
Mof_Ni	Ni	0.62823	0.12823	0.18739	1.122
Mof_O 	O 	0.53483	0.03483	0.22532	-0.444
Mof_O 	O 	0.53396	0.03396	0.27923	-0.457
Mof_N 	N 	0.60698	0.10698	0.22897	-0.212
Mof_C 	C 	0.61677	0.11677	0.25831	0.04
Mof_H 	H 	0.6328	0.1328	0.2597	0.06
Mof_C 	C 	0.60421	0.10421	0.28673	-0.116
Mof_H 	H 	0.6115	0.1115	0.307	0.068
Mof_C 	C 	0.58051	0.08051	0.28449	0.052
Mof_H 	H 	0.5716	0.0716	0.3034	0.022
Mof_C 	C 	0.56996	0.06996	0.25456	-0.136
Mof_C 	C 	0.58388	0.08388	0.22732	0.07
Mof_H 	H 	0.5769	0.0769	0.2068	0.029
Mof_C 	C 	0.54428	0.04428	0.25247	0.385
Mof_Ni	Ni	0.12823	0.62823	0.18739	1.122
Mof_O 	O 	0.03483	0.53483	0.22532	-0.444
Mof_O 	O 	0.03396	0.53396	0.27923	-0.457
Mof_N 	N 	0.10698	0.60698	0.22897	-0.212
Mof_C 	C 	0.11677	0.61677	0.25831	0.04
Mof_H 	H 	0.1328	0.6328	0.2597	0.06
Mof_C 	C 	0.10421	0.60421	0.28673	-0.116
Mof_H 	H 	0.1115	0.6115	0.307	0.068
Mof_C 	C 	0.08051	0.58051	0.28449	0.052
Mof_H 	H 	0.0716	0.5716	0.3034	0.022
Mof_C 	C 	0.06996	0.56996	0.25456	-0.136
Mof_C 	C 	0.08388	0.58388	0.22732	0.07
Mof_H 	H 	0.0769	0.5769	0.2068	0.029
Mof_C 	C 	0.04428	0.54428	0.25247	0.385
Mof_Ni	Ni	0.12823	0.12823	0.68739	1.121
Mof_O 	O 	0.03483	0.03483	0.72532	-0.446
Mof_O 	O 	0.03396	0.03396	0.77923	-0.459
Mof_N 	N 	0.10698	0.10698	0.72897	-0.212
Mof_C 	C 	0.11677	0.11677	0.75831	0.04
Mof_H 	H 	0.1328	0.1328	0.7597	0.06
Mof_C 	C 	0.10421	0.10421	0.78673	-0.116
Mof_H 	H 	0.1115	0.1115	0.807	0.068
Mof_C 	C 	0.08051	0.08051	0.78449	0.052
Mof_H 	H 	0.0716	0.0716	0.8034	0.022
Mof_C 	C 	0.06996	0.06996	0.75456	-0.137
Mof_C 	C 	0.08388	0.08388	0.72732	0.07
Mof_H 	H 	0.0769	0.0769	0.7068	0.028
Mof_C 	C 	0.04428	0.04428	0.75247	0.385
Mof_Ni	Ni	0.37177	0.37177	0.68739	1.122
Mof_O 	O 	0.46517	0.46517	0.72532	-0.441
Mof_O 	O 	0.46604	0.46604	0.77923	-0.454
Mof_N 	N 	0.39302	0.39302	0.72897	-0.211
Mof_C 	C 	0.38323	0.38323	0.75831	0.04
Mof_H 	H 	0.3672	0.3672	0.7597	0.06
Mof_C 	C 	0.39579	0.39579	0.78673	-0.115
Mof_H 	H 	0.3885	0.3885	0.807	0.068
Mof_C 	C 	0.41949	0.41949	0.78449	0.052
Mof_H 	H 	0.4284	0.4284	0.8034	0.024
Mof_C 	C 	0.43004	0.43004	0.75456	-0.134
Mof_C 	C 	0.41612	0.41612	0.72732	0.07
Mof_H 	H 	0.4231	0.4231	0.7068	0.03
Mof_C 	C 	0.45572	0.45572	0.75247	0.384
Mof_Ni	Ni	0.37177	0.87177	0.18739	1.122
Mof_O 	O 	0.46517	0.96517	0.22532	-0.437
Mof_O 	O 	0.46604	0.96604	0.27923	-0.45
Mof_N 	N 	0.39302	0.89302	0.22897	-0.211
Mof_C 	C 	0.38323	0.88323	0.25831	0.04
Mof_H 	H 	0.3672	0.8672	0.2597	0.06
Mof_C 	C 	0.39579	0.89579	0.28673	-0.114
Mof_H 	H 	0.3885	0.8885	0.307	0.069
Mof_C 	C 	0.41949	0.91949	0.28449	0.052
Mof_H 	H 	0.4284	0.9284	0.3034	0.025
Mof_C 	C 	0.43004	0.93004	0.25456	-0.133
Mof_C 	C 	0.41612	0.91612	0.22732	0.069
Mof_H 	H 	0.4231	0.9231	0.2068	0.031
Mof_C 	C 	0.45572	0.95572	0.25247	0.384
Mof_Ni	Ni	0.87177	0.37177	0.18739	1.122
Mof_O 	O 	0.96517	0.46517	0.22532	-0.437
Mof_O 	O 	0.96604	0.46604	0.27923	-0.45
Mof_N 	N 	0.89302	0.39302	0.22897	-0.211
Mof_C 	C 	0.88323	0.38323	0.25831	0.04
Mof_H 	H 	0.8672	0.3672	0.2597	0.06
Mof_C 	C 	0.89579	0.39579	0.28673	-0.114
Mof_H 	H 	0.8885	0.3885	0.307	0.069
Mof_C 	C 	0.91949	0.41949	0.28449	0.052
Mof_H 	H 	0.9284	0.4284	0.3034	0.025
Mof_C 	C 	0.93004	0.43004	0.25456	-0.133
Mof_C 	C 	0.91612	0.41612	0.22732	0.069
Mof_H 	H 	0.9231	0.4231	0.2068	0.031
Mof_C 	C 	0.95572	0.45572	0.25247	0.384
Mof_Ni	Ni	0.87177	0.87177	0.68739	1.122
Mof_O 	O 	0.96517	0.96517	0.72532	-0.432
Mof_O 	O 	0.96604	0.96604	0.77923	-0.445
Mof_N 	N 	0.89302	0.89302	0.72897	-0.211
Mof_C 	C 	0.88323	0.88323	0.75831	0.04
Mof_H 	H 	0.8672	0.8672	0.7597	0.06
Mof_C 	C 	0.89579	0.89579	0.78673	-0.113
Mof_H 	H 	0.8885	0.8885	0.807	0.069
Mof_C 	C 	0.91949	0.91949	0.78449	0.051
Mof_H 	H 	0.9284	0.9284	0.8034	0.027
Mof_C 	C 	0.93004	0.93004	0.75456	-0.131
Mof_C 	C 	0.91612	0.91612	0.72732	0.069
Mof_H 	H 	0.9231	0.9231	0.7068	0.032
Mof_C 	C 	0.95572	0.95572	0.75247	0.383
Mof_Ni	Ni	0.37177	0.62823	0.31261	1.122
Mof_O 	O 	0.46517	0.53483	0.27468	-0.441
Mof_O 	O 	0.46604	0.53396	0.22077	-0.455
Mof_N 	N 	0.39302	0.60698	0.27103	-0.211
Mof_C 	C 	0.38323	0.61677	0.24169	0.04
Mof_H 	H 	0.3672	0.6328	0.2403	0.06
Mof_C 	C 	0.39579	0.60421	0.21327	-0.115
Mof_H 	H 	0.3885	0.6115	0.193	0.068
Mof_C 	C 	0.41949	0.58051	0.21551	0.052
Mof_H 	H 	0.4284	0.5716	0.1966	0.023
Mof_C 	C 	0.43004	0.56996	0.24544	-0.134
Mof_C 	C 	0.41612	0.58388	0.27268	0.07
Mof_H 	H 	0.4231	0.5769	0.2932	0.03
Mof_C 	C 	0.45572	0.54428	0.24753	0.385
Mof_Ni	Ni	0.37177	0.12823	0.81261	1.122
Mof_O 	O 	0.46517	0.03483	0.77468	-0.444
Mof_O 	O 	0.46604	0.03396	0.72077	-0.457
Mof_N 	N 	0.39302	0.10698	0.77103	-0.212
Mof_C 	C 	0.38323	0.11677	0.74169	0.04
Mof_H 	H 	0.3672	0.1328	0.7403	0.06
Mof_C 	C 	0.39579	0.10421	0.71327	-0.116
Mof_H 	H 	0.3885	0.1115	0.693	0.068
Mof_C 	C 	0.41949	0.08051	0.71551	0.052
Mof_H 	H 	0.4284	0.0716	0.6966	0.022
Mof_C 	C 	0.43004	0.06996	0.74544	-0.135
Mof_C 	C 	0.41612	0.08388	0.77268	0.069
Mof_H 	H 	0.4231	0.0769	0.7932	0.029
Mof_C 	C 	0.45572	0.04428	0.74753	0.385
Mof_Ni	Ni	0.87177	0.62823	0.81261	1.122
Mof_O 	O 	0.96517	0.53483	0.77468	-0.437
Mof_O 	O 	0.96604	0.53396	0.72077	-0.45
Mof_N 	N 	0.89302	0.60698	0.77103	-0.211
Mof_C 	C 	0.88323	0.61677	0.74169	0.04
Mof_H 	H 	0.8672	0.6328	0.7403	0.06
Mof_C 	C 	0.89579	0.60421	0.71327	-0.114
Mof_H 	H 	0.8885	0.6115	0.693	0.068
Mof_C 	C 	0.91949	0.58051	0.71551	0.051
Mof_H 	H 	0.9284	0.5716	0.6966	0.025
Mof_C 	C 	0.93004	0.56996	0.74544	-0.132
Mof_C 	C 	0.91612	0.58388	0.77268	0.069
Mof_H 	H 	0.9231	0.5769	0.7932	0.031
Mof_C 	C 	0.95572	0.54428	0.74753	0.384
Mof_Ni	Ni	0.87177	0.12823	0.31261	1.122
Mof_O 	O 	0.96517	0.03483	0.27468	-0.439
Mof_O 	O 	0.96604	0.03396	0.22077	-0.452
Mof_N 	N 	0.89302	0.10698	0.27103	-0.211
Mof_C 	C 	0.88323	0.11677	0.24169	0.04
Mof_H 	H 	0.8672	0.1328	0.2403	0.06
Mof_C 	C 	0.89579	0.10421	0.21327	-0.115
Mof_H 	H 	0.8885	0.1115	0.193	0.068
Mof_C 	C 	0.91949	0.08051	0.21551	0.052
Mof_H 	H 	0.9284	0.0716	0.1966	0.024
Mof_C 	C 	0.93004	0.06996	0.24544	-0.134
Mof_C 	C 	0.91612	0.08388	0.27268	0.069
Mof_H 	H 	0.9231	0.0769	0.2932	0.03
Mof_C 	C 	0.95572	0.04428	0.24753	0.384
Mof_Ni	Ni	0.78434	0.5	0.5	1.068
Mof_Ni	Ni	0.72018	0.5	0.5	1.061
Mof_Ni	Ni	0.78434	0	-0	1.059
Mof_Ni	Ni	0.72018	0	-0	1.052
Mof_Ni	Ni	0.28434	0.5	-0	1.063
Mof_Ni	Ni	0.22018	0.5	-0	1.056
Mof_Ni	Ni	0.28434	0	0.5	1.063
Mof_Ni	Ni	0.22018	0	0.5	1.056
Mof_Ni	Ni	0.21566	0.5	0.5	1.067
Mof_Ni	Ni	0.27982	0.5	0.5	1.061
Mof_Ni	Ni	0.21566	0	-0	1.059
Mof_Ni	Ni	0.27982	0	-0	1.053
Mof_Ni	Ni	0.71566	0.5	-0	1.063
Mof_Ni	Ni	0.77982	0.5	-0	1.057
Mof_Ni	Ni	0.71566	0	0.5	1.063
Mof_Ni	Ni	0.77982	0	0.5	1.057
Mof_Ni	Ni	0.5	0.78434	0.5	1.068
Mof_Ni	Ni	0.5	0.72018	0.5	1.061
Mof_Ni	Ni	0.5	0.28434	-0	1.063
Mof_Ni	Ni	0.5	0.22018	-0	1.056
Mof_Ni	Ni	-0	0.78434	-0	1.059
Mof_Ni	Ni	-0	0.72018	-0	1.052
Mof_Ni	Ni	1.8747e-33	0.28434	0.5	1.063
Mof_Ni	Ni	-3.86464e-33	0.22018	0.5	1.056
Mof_Ni	Ni	0.5	0.21566	0.5	1.067
Mof_Ni	Ni	0.5	0.27982	0.5	1.061
Mof_Ni	Ni	0.5	0.71566	-0	1.063
Mof_Ni	Ni	0.5	0.77982	-0	1.057
Mof_Ni	Ni	-0	0.21566	-0	1.059
Mof_Ni	Ni	-0	0.27982	-0	1.053
Mof_Ni	Ni	-9.60398e-33	0.71566	0.5	1.063
Mof_Ni	Ni	1.8747e-33	0.77982	0.5	1.057
Mof_Ni	Ni	0.5	0.5	0.78434	1.068
Mof_Ni	Ni	0.5	0.5	0.72018	1.061
Mof_Ni	Ni	0.5	0	0.28434	1.063
Mof_Ni	Ni	0.5	0	0.22018	1.056
Mof_Ni	Ni	3.93577e-33	0.5	0.28434	1.063
Mof_Ni	Ni	8.25543e-34	0.5	0.22018	1.056
Mof_Ni	Ni	-2.79854e-33	0	0.78434	1.059
Mof_Ni	Ni	2.70024e-33	0	0.72018	1.052
Mof_Ni	Ni	0.5	0.5	0.21566	1.067
Mof_Ni	Ni	0.5	0.5	0.27982	1.061
Mof_Ni	Ni	0.5	0	0.71566	1.063
Mof_Ni	Ni	0.5	0	0.77982	1.057
Mof_Ni	Ni	-1.45347e-32	0.5	0.71566	1.063
Mof_Ni	Ni	-2.81548e-33	0.5	0.77982	1.057
Mof_Ni	Ni	8.08595e-34	0	0.21566	1.059
Mof_Ni	Ni	1.04916e-33	0	0.27982	1.053
Mof_O 	O 	0.64859	0.35141	0.64859	-0.664
Mof_H 	H 	0.6624	0.3376	0.6624	0.224
Mof_O 	O 	0.64859	0.85141	0.14859	-0.664
Mof_H 	H 	0.6624	0.8376	0.1624	0.224
Mof_O 	O 	0.14859	0.35141	0.14859	-0.664
Mof_H 	H 	0.1624	0.3376	0.1624	0.224
Mof_O 	O 	0.14859	0.85141	0.64859	-0.664
Mof_H 	H 	0.1624	0.8376	0.6624	0.224
Mof_O 	O 	0.35141	0.64859	0.64859	-0.664
Mof_H 	H 	0.3376	0.6624	0.6624	0.224
Mof_O 	O 	0.35141	0.14859	0.14859	-0.664
Mof_H 	H 	0.3376	0.1624	0.1624	0.224
Mof_O 	O 	0.85141	0.64859	0.14859	-0.664
Mof_H 	H 	0.8376	0.6624	0.1624	0.224
Mof_O 	O 	0.85141	0.14859	0.64859	-0.664
Mof_H 	H 	0.8376	0.1624	0.6624	0.224
Mof_O 	O 	0.35141	0.35141	0.35141	-0.664
Mof_H 	H 	0.3376	0.3376	0.3376	0.224
Mof_O 	O 	0.35141	0.85141	0.85141	-0.663
Mof_H 	H 	0.3376	0.8376	0.8376	0.224
Mof_O 	O 	0.85141	0.35141	0.85141	-0.663
Mof_H 	H 	0.8376	0.3376	0.8376	0.224
Mof_O 	O 	0.85141	0.85141	0.35141	-0.663
Mof_H 	H 	0.8376	0.8376	0.3376	0.224
Mof_O 	O 	0.64859	0.64859	0.35141	-0.664
Mof_H 	H 	0.6624	0.6624	0.3376	0.224
Mof_O 	O 	0.64859	0.14859	0.85141	-0.664
Mof_H 	H 	0.6624	0.1624	0.8376	0.224
Mof_O 	O 	0.14859	0.64859	0.85141	-0.664
Mof_H 	H 	0.1624	0.6624	0.8376	0.224
Mof_O 	O 	0.14859	0.14859	0.35141	-0.664
Mof_H 	H 	0.1624	0.1624	0.3376	0.224
Mof_O 	O 	0.35141	0.64859	0.35141	-0.664
Mof_H 	H 	0.3376	0.6624	0.3376	0.224
Mof_O 	O 	0.35141	0.14859	0.85141	-0.664
Mof_H 	H 	0.3376	0.1624	0.8376	0.224
Mof_O 	O 	0.85141	0.64859	0.85141	-0.663
Mof_H 	H 	0.8376	0.6624	0.8376	0.223
Mof_O 	O 	0.85141	0.14859	0.35141	-0.664
Mof_H 	H 	0.8376	0.1624	0.3376	0.224
Mof_O 	O 	0.64859	0.35141	0.35141	-0.664
Mof_H 	H 	0.6624	0.3376	0.3376	0.224
Mof_O 	O 	0.64859	0.85141	0.85141	-0.663
Mof_H 	H 	0.6624	0.8376	0.8376	0.223
Mof_O 	O 	0.14859	0.35141	0.85141	-0.664
Mof_H 	H 	0.1624	0.3376	0.8376	0.224
Mof_O 	O 	0.14859	0.85141	0.35141	-0.664
Mof_H 	H 	0.1624	0.8376	0.3376	0.224
Mof_O 	O 	0.35141	0.35141	0.64859	-0.664
Mof_H 	H 	0.3376	0.3376	0.6624	0.224
Mof_O 	O 	0.35141	0.85141	0.14859	-0.664
Mof_H 	H 	0.3376	0.8376	0.1624	0.224
Mof_O 	O 	0.85141	0.35141	0.14859	-0.664
Mof_H 	H 	0.8376	0.3376	0.1624	0.224
Mof_O 	O 	0.85141	0.85141	0.64859	-0.663
Mof_H 	H 	0.8376	0.8376	0.6624	0.223
Mof_O 	O 	0.64859	0.64859	0.64859	-0.664
Mof_H 	H 	0.6624	0.6624	0.6624	0.224
Mof_O 	O 	0.64859	0.14859	0.14859	-0.664
Mof_H 	H 	0.6624	0.1624	0.1624	0.224
Mof_O 	O 	0.14859	0.64859	0.14859	-0.664
Mof_H 	H 	0.1624	0.6624	0.1624	0.224
Mof_O 	O 	0.14859	0.14859	0.64859	-0.664
Mof_H 	H 	0.1624	0.1624	0.6624	0.224
Mof_C 	C 	0.70016	0.37718	0.70016	-0.085
Mof_C 	C 	0.72615	0.37849	0.72615	0.124
Mof_C 	C 	0.64891	0.42999	0.64891	0.322
Mof_C 	C 	0.64685	0.46627	0.64685	-0.062
Mof_C 	C 	0.70016	0.87718	0.20016	-0.083
Mof_C 	C 	0.72615	0.87849	0.22615	0.123
Mof_C 	C 	0.64891	0.92999	0.14891	0.332
Mof_C 	C 	0.64685	0.96627	0.14685	-0.087
Mof_C 	C 	0.20016	0.37718	0.20016	-0.085
Mof_C 	C 	0.22615	0.37849	0.22615	0.124
Mof_C 	C 	0.14891	0.42999	0.14891	0.322
Mof_C 	C 	0.14685	0.46627	0.14685	-0.063
Mof_C 	C 	0.20016	0.87718	0.70016	-0.083
Mof_C 	C 	0.22615	0.87849	0.72615	0.123
Mof_C 	C 	0.14891	0.92999	0.64891	0.332
Mof_C 	C 	0.14685	0.96627	0.64685	-0.087
Mof_C 	C 	0.29984	0.62282	0.70016	-0.085
Mof_C 	C 	0.27385	0.62151	0.72615	0.124
Mof_C 	C 	0.35109	0.57001	0.64891	0.322
Mof_C 	C 	0.35315	0.53373	0.64685	-0.062
Mof_C 	C 	0.29984	0.12282	0.20016	-0.087
Mof_C 	C 	0.27385	0.12151	0.22615	0.124
Mof_C 	C 	0.35109	0.07001	0.14891	0.313
Mof_C 	C 	0.35315	0.03373	0.14685	-0.038
Mof_C 	C 	0.79984	0.62282	0.20016	-0.085
Mof_C 	C 	0.77385	0.62151	0.22615	0.124
Mof_C 	C 	0.85109	0.57001	0.14891	0.322
Mof_C 	C 	0.85315	0.53373	0.14685	-0.062
Mof_C 	C 	0.79984	0.12282	0.70016	-0.086
Mof_C 	C 	0.77385	0.12151	0.72615	0.124
Mof_C 	C 	0.85109	0.07001	0.64891	0.313
Mof_C 	C 	0.85315	0.03373	0.64685	-0.037
Mof_C 	C 	0.29984	0.37718	0.29984	-0.085
Mof_C 	C 	0.27385	0.37849	0.27385	0.124
Mof_C 	C 	0.35109	0.42999	0.35109	0.322
Mof_C 	C 	0.35315	0.46627	0.35315	-0.062
Mof_C 	C 	0.29984	0.87718	0.79984	-0.083
Mof_C 	C 	0.27385	0.87849	0.77385	0.123
Mof_C 	C 	0.35109	0.92999	0.85109	0.332
Mof_C 	C 	0.35315	0.96627	0.85315	-0.087
Mof_C 	C 	0.79984	0.37718	0.79984	-0.085
Mof_C 	C 	0.77385	0.37849	0.77385	0.123
Mof_C 	C 	0.85109	0.42999	0.85109	0.323
Mof_C 	C 	0.85315	0.46627	0.85315	-0.062
Mof_C 	C 	0.79984	0.87718	0.29984	-0.083
Mof_C 	C 	0.77385	0.87849	0.27385	0.123
Mof_C 	C 	0.85109	0.92999	0.35109	0.332
Mof_C 	C 	0.85315	0.96627	0.35315	-0.087
Mof_C 	C 	0.70016	0.62282	0.29984	-0.085
Mof_C 	C 	0.72615	0.62151	0.27385	0.124
Mof_C 	C 	0.64891	0.57001	0.35109	0.322
Mof_C 	C 	0.64685	0.53373	0.35315	-0.062
Mof_C 	C 	0.70016	0.12282	0.79984	-0.086
Mof_C 	C 	0.72615	0.12151	0.77385	0.124
Mof_C 	C 	0.64891	0.07001	0.85109	0.313
Mof_C 	C 	0.64685	0.03373	0.85315	-0.037
Mof_C 	C 	0.20016	0.62282	0.79984	-0.085
Mof_C 	C 	0.22615	0.62151	0.77385	0.124
Mof_C 	C 	0.14891	0.57001	0.85109	0.322
Mof_C 	C 	0.14685	0.53373	0.85315	-0.062
Mof_C 	C 	0.20016	0.12282	0.29984	-0.087
Mof_C 	C 	0.22615	0.12151	0.27385	0.124
Mof_C 	C 	0.14891	0.07001	0.35109	0.313
Mof_C 	C 	0.14685	0.03373	0.35315	-0.038
Mof_C 	C 	0.70016	0.70016	0.37718	-0.085
Mof_C 	C 	0.72615	0.72615	0.37849	0.124
Mof_C 	C 	0.64891	0.64891	0.42999	0.322
Mof_C 	C 	0.64685	0.64685	0.46627	-0.062
Mof_C 	C 	0.70016	0.20016	0.87718	-0.083
Mof_C 	C 	0.72615	0.22615	0.87849	0.123
Mof_C 	C 	0.64891	0.14891	0.92999	0.332
Mof_C 	C 	0.64685	0.14685	0.96627	-0.087
Mof_C 	C 	0.20016	0.70016	0.87718	-0.083
Mof_C 	C 	0.22615	0.72615	0.87849	0.123
Mof_C 	C 	0.14891	0.64891	0.92999	0.332
Mof_C 	C 	0.14685	0.64685	0.96627	-0.087
Mof_C 	C 	0.20016	0.20016	0.37718	-0.085
Mof_C 	C 	0.22615	0.22615	0.37849	0.124
Mof_C 	C 	0.14891	0.14891	0.42999	0.322
Mof_C 	C 	0.14685	0.14685	0.46627	-0.063
Mof_C 	C 	0.70016	0.29984	0.62282	-0.085
Mof_C 	C 	0.72615	0.27385	0.62151	0.124
Mof_C 	C 	0.64891	0.35109	0.57001	0.322
Mof_C 	C 	0.64685	0.35315	0.53373	-0.062
Mof_C 	C 	0.70016	0.79984	0.12282	-0.086
Mof_C 	C 	0.72615	0.77385	0.12151	0.124
Mof_C 	C 	0.64891	0.85109	0.07001	0.313
Mof_C 	C 	0.64685	0.85315	0.03373	-0.037
Mof_C 	C 	0.20016	0.29984	0.12282	-0.087
Mof_C 	C 	0.22615	0.27385	0.12151	0.124
Mof_C 	C 	0.14891	0.35109	0.07001	0.313
Mof_C 	C 	0.14685	0.35315	0.03373	-0.038
Mof_C 	C 	0.20016	0.79984	0.62282	-0.085
Mof_C 	C 	0.22615	0.77385	0.62151	0.124
Mof_C 	C 	0.14891	0.85109	0.57001	0.322
Mof_C 	C 	0.14685	0.85315	0.53373	-0.062
Mof_C 	C 	0.29984	0.29984	0.37718	-0.085
Mof_C 	C 	0.27385	0.27385	0.37849	0.124
Mof_C 	C 	0.35109	0.35109	0.42999	0.322
Mof_C 	C 	0.35315	0.35315	0.46627	-0.062
Mof_C 	C 	0.29984	0.79984	0.87718	-0.083
Mof_C 	C 	0.27385	0.77385	0.87849	0.123
Mof_C 	C 	0.35109	0.85109	0.92999	0.332
Mof_C 	C 	0.35315	0.85315	0.96627	-0.087
Mof_C 	C 	0.79984	0.29984	0.87718	-0.083
Mof_C 	C 	0.77385	0.27385	0.87849	0.123
Mof_C 	C 	0.85109	0.35109	0.92999	0.332
Mof_C 	C 	0.85315	0.35315	0.96627	-0.087
Mof_C 	C 	0.79984	0.79984	0.37718	-0.085
Mof_C 	C 	0.77385	0.77385	0.37849	0.123
Mof_C 	C 	0.85109	0.85109	0.42999	0.323
Mof_C 	C 	0.85315	0.85315	0.46627	-0.062
Mof_C 	C 	0.29984	0.70016	0.62282	-0.085
Mof_C 	C 	0.27385	0.72615	0.62151	0.124
Mof_C 	C 	0.35109	0.64891	0.57001	0.322
Mof_C 	C 	0.35315	0.64685	0.53373	-0.062
Mof_C 	C 	0.29984	0.20016	0.12282	-0.087
Mof_C 	C 	0.27385	0.22615	0.12151	0.124
Mof_C 	C 	0.35109	0.14891	0.07001	0.313
Mof_C 	C 	0.35315	0.14685	0.03373	-0.038
Mof_C 	C 	0.79984	0.70016	0.12282	-0.086
Mof_C 	C 	0.77385	0.72615	0.12151	0.124
Mof_C 	C 	0.85109	0.64891	0.07001	0.313
Mof_C 	C 	0.85315	0.64685	0.03373	-0.037
Mof_C 	C 	0.79984	0.20016	0.62282	-0.085
Mof_C 	C 	0.77385	0.22615	0.62151	0.124
Mof_C 	C 	0.85109	0.14891	0.57001	0.322
Mof_C 	C 	0.85315	0.14685	0.53373	-0.062
Mof_C 	C 	0.37718	0.70016	0.70016	-0.085
Mof_C 	C 	0.37849	0.72615	0.72615	0.124
Mof_C 	C 	0.42999	0.64891	0.64891	0.322
Mof_C 	C 	0.46627	0.64685	0.64685	-0.062
Mof_C 	C 	0.37718	0.20016	0.20016	-0.085
Mof_C 	C 	0.37849	0.22615	0.22615	0.124
Mof_C 	C 	0.42999	0.14891	0.14891	0.322
Mof_C 	C 	0.46627	0.14685	0.14685	-0.063
Mof_C 	C 	0.87718	0.70016	0.20016	-0.083
Mof_C 	C 	0.87849	0.72615	0.22615	0.123
Mof_C 	C 	0.92999	0.64891	0.14891	0.332
Mof_C 	C 	0.96627	0.64685	0.14685	-0.087
Mof_C 	C 	0.87718	0.20016	0.70016	-0.083
Mof_C 	C 	0.87849	0.22615	0.72615	0.123
Mof_C 	C 	0.92999	0.14891	0.64891	0.332
Mof_C 	C 	0.96627	0.14685	0.64685	-0.087
Mof_C 	C 	0.62282	0.70016	0.29984	-0.085
Mof_C 	C 	0.62151	0.72615	0.27385	0.124
Mof_C 	C 	0.57001	0.64891	0.35109	0.322
Mof_C 	C 	0.53373	0.64685	0.35315	-0.062
Mof_C 	C 	0.62282	0.20016	0.79984	-0.085
Mof_C 	C 	0.62151	0.22615	0.77385	0.124
Mof_C 	C 	0.57001	0.14891	0.85109	0.322
Mof_C 	C 	0.53373	0.14685	0.85315	-0.062
Mof_C 	C 	0.12282	0.70016	0.79984	-0.086
Mof_C 	C 	0.12151	0.72615	0.77385	0.124
Mof_C 	C 	0.07001	0.64891	0.85109	0.313
Mof_C 	C 	0.03373	0.64685	0.85315	-0.037
Mof_C 	C 	0.12282	0.20016	0.29984	-0.087
Mof_C 	C 	0.12151	0.22615	0.27385	0.124
Mof_C 	C 	0.07001	0.14891	0.35109	0.313
Mof_C 	C 	0.03373	0.14685	0.35315	-0.038
Mof_C 	C 	0.37718	0.29984	0.29984	-0.085
Mof_C 	C 	0.37849	0.27385	0.27385	0.124
Mof_C 	C 	0.42999	0.35109	0.35109	0.322
Mof_C 	C 	0.46627	0.35315	0.35315	-0.062
Mof_C 	C 	0.37718	0.79984	0.79984	-0.085
Mof_C 	C 	0.37849	0.77385	0.77385	0.123
Mof_C 	C 	0.42999	0.85109	0.85109	0.323
Mof_C 	C 	0.46627	0.85315	0.85315	-0.062
Mof_C 	C 	0.87718	0.29984	0.79984	-0.083
Mof_C 	C 	0.87849	0.27385	0.77385	0.123
Mof_C 	C 	0.92999	0.35109	0.85109	0.332
Mof_C 	C 	0.96627	0.35315	0.85315	-0.087
Mof_C 	C 	0.87718	0.79984	0.29984	-0.083
Mof_C 	C 	0.87849	0.77385	0.27385	0.123
Mof_C 	C 	0.92999	0.85109	0.35109	0.332
Mof_C 	C 	0.96627	0.85315	0.35315	-0.087
Mof_C 	C 	0.62282	0.29984	0.70016	-0.085
Mof_C 	C 	0.62151	0.27385	0.72615	0.124
Mof_C 	C 	0.57001	0.35109	0.64891	0.322
Mof_C 	C 	0.53373	0.35315	0.64685	-0.062
Mof_C 	C 	0.62282	0.79984	0.20016	-0.085
Mof_C 	C 	0.62151	0.77385	0.22615	0.124
Mof_C 	C 	0.57001	0.85109	0.14891	0.322
Mof_C 	C 	0.53373	0.85315	0.14685	-0.062
Mof_C 	C 	0.12282	0.29984	0.20016	-0.087
Mof_C 	C 	0.12151	0.27385	0.22615	0.124
Mof_C 	C 	0.07001	0.35109	0.14891	0.313
Mof_C 	C 	0.03373	0.35315	0.14685	-0.038
Mof_C 	C 	0.12282	0.79984	0.70016	-0.086
Mof_C 	C 	0.12151	0.77385	0.72615	0.124
Mof_C 	C 	0.07001	0.85109	0.64891	0.313
Mof_C 	C 	0.03373	0.85315	0.64685	-0.037
Mof_C 	C 	0.37718	0.70016	0.29984	-0.085
Mof_C 	C 	0.37849	0.72615	0.27385	0.124
Mof_C 	C 	0.42999	0.64891	0.35109	0.322
Mof_C 	C 	0.46627	0.64685	0.35315	-0.062
Mof_C 	C 	0.37718	0.20016	0.79984	-0.085
Mof_C 	C 	0.37849	0.22615	0.77385	0.124
Mof_C 	C 	0.42999	0.14891	0.85109	0.322
Mof_C 	C 	0.46627	0.14685	0.85315	-0.062
Mof_C 	C 	0.87718	0.70016	0.79984	-0.083
Mof_C 	C 	0.87849	0.72615	0.77385	0.123
Mof_C 	C 	0.92999	0.64891	0.85109	0.332
Mof_C 	C 	0.96627	0.64685	0.85315	-0.087
Mof_C 	C 	0.87718	0.20016	0.29984	-0.084
Mof_C 	C 	0.87849	0.22615	0.27385	0.124
Mof_C 	C 	0.92999	0.14891	0.35109	0.332
Mof_C 	C 	0.96627	0.14685	0.35315	-0.087
Mof_C 	C 	0.62282	0.29984	0.29984	-0.085
Mof_C 	C 	0.62151	0.27385	0.27385	0.124
Mof_C 	C 	0.57001	0.35109	0.35109	0.322
Mof_C 	C 	0.53373	0.35315	0.35315	-0.062
Mof_C 	C 	0.62282	0.79984	0.79984	-0.085
Mof_C 	C 	0.62151	0.77385	0.77385	0.123
Mof_C 	C 	0.57001	0.85109	0.85109	0.323
Mof_C 	C 	0.53373	0.85315	0.85315	-0.062
Mof_C 	C 	0.12282	0.29984	0.79984	-0.087
Mof_C 	C 	0.12151	0.27385	0.77385	0.124
Mof_C 	C 	0.07001	0.35109	0.85109	0.313
Mof_C 	C 	0.03373	0.35315	0.85315	-0.037
Mof_C 	C 	0.12282	0.79984	0.29984	-0.087
Mof_C 	C 	0.12151	0.77385	0.27385	0.124
Mof_C 	C 	0.07001	0.85109	0.35109	0.313
Mof_C 	C 	0.03373	0.85315	0.35315	-0.037
Mof_C 	C 	0.37718	0.29984	0.70016	-0.085
Mof_C 	C 	0.37849	0.27385	0.72615	0.124
Mof_C 	C 	0.42999	0.35109	0.64891	0.322
Mof_C 	C 	0.46627	0.35315	0.64685	-0.062
Mof_C 	C 	0.37718	0.79984	0.20016	-0.085
Mof_C 	C 	0.37849	0.77385	0.22615	0.124
Mof_C 	C 	0.42999	0.85109	0.14891	0.322
Mof_C 	C 	0.46627	0.85315	0.14685	-0.062
Mof_C 	C 	0.87718	0.29984	0.20016	-0.084
Mof_C 	C 	0.87849	0.27385	0.22615	0.124
Mof_C 	C 	0.92999	0.35109	0.14891	0.332
Mof_C 	C 	0.96627	0.35315	0.14685	-0.087
Mof_C 	C 	0.87718	0.79984	0.70016	-0.083
Mof_C 	C 	0.87849	0.77385	0.72615	0.123
Mof_C 	C 	0.92999	0.85109	0.64891	0.332
Mof_C 	C 	0.96627	0.85315	0.64685	-0.087
Mof_C 	C 	0.62282	0.70016	0.70016	-0.085
Mof_C 	C 	0.62151	0.72615	0.72615	0.123
Mof_C 	C 	0.57001	0.64891	0.64891	0.322
Mof_C 	C 	0.53373	0.64685	0.64685	-0.062
Mof_C 	C 	0.62282	0.20016	0.20016	-0.085
Mof_C 	C 	0.62151	0.22615	0.22615	0.124
Mof_C 	C 	0.57001	0.14891	0.14891	0.322
Mof_C 	C 	0.53373	0.14685	0.14685	-0.063
Mof_C 	C 	0.12282	0.70016	0.20016	-0.087
Mof_C 	C 	0.12151	0.72615	0.22615	0.124
Mof_C 	C 	0.07001	0.64891	0.14891	0.313
Mof_C 	C 	0.03373	0.64685	0.14685	-0.038
Mof_C 	C 	0.12282	0.20016	0.70016	-0.087
Mof_C 	C 	0.12151	0.22615	0.72615	0.124
Mof_C 	C 	0.07001	0.14891	0.64891	0.313
Mof_C 	C 	0.03373	0.14685	0.64685	-0.038
Mof_C 	C 	0.70016	0.70016	0.62282	-0.085
Mof_C 	C 	0.72615	0.72615	0.62151	0.123
Mof_C 	C 	0.64891	0.64891	0.57001	0.322
Mof_C 	C 	0.64685	0.64685	0.53373	-0.062
Mof_C 	C 	0.70016	0.20016	0.12282	-0.087
Mof_C 	C 	0.72615	0.22615	0.12151	0.124
Mof_C 	C 	0.64891	0.14891	0.07001	0.313
Mof_C 	C 	0.64685	0.14685	0.03373	-0.038
Mof_C 	C 	0.20016	0.70016	0.12282	-0.087
Mof_C 	C 	0.22615	0.72615	0.12151	0.124
Mof_C 	C 	0.14891	0.64891	0.07001	0.313
Mof_C 	C 	0.14685	0.64685	0.03373	-0.038
Mof_C 	C 	0.20016	0.20016	0.62282	-0.085
Mof_C 	C 	0.22615	0.22615	0.62151	0.124
Mof_C 	C 	0.14891	0.14891	0.57001	0.322
Mof_C 	C 	0.14685	0.14685	0.53373	-0.063
Mof_C 	C 	0.29984	0.70016	0.37718	-0.085
Mof_C 	C 	0.27385	0.72615	0.37849	0.124
Mof_C 	C 	0.35109	0.64891	0.42999	0.322
Mof_C 	C 	0.35315	0.64685	0.46627	-0.062
Mof_C 	C 	0.29984	0.20016	0.87718	-0.084
Mof_C 	C 	0.27385	0.22615	0.87849	0.124
Mof_C 	C 	0.35109	0.14891	0.92999	0.332
Mof_C 	C 	0.35315	0.14685	0.96627	-0.087
Mof_C 	C 	0.79984	0.70016	0.87718	-0.083
Mof_C 	C 	0.77385	0.72615	0.87849	0.123
Mof_C 	C 	0.85109	0.64891	0.92999	0.332
Mof_C 	C 	0.85315	0.64685	0.96627	-0.087
Mof_C 	C 	0.79984	0.20016	0.37718	-0.085
Mof_C 	C 	0.77385	0.22615	0.37849	0.124
Mof_C 	C 	0.85109	0.14891	0.42999	0.322
Mof_C 	C 	0.85315	0.14685	0.46627	-0.062
Mof_C 	C 	0.29984	0.29984	0.62282	-0.085
Mof_C 	C 	0.27385	0.27385	0.62151	0.124
Mof_C 	C 	0.35109	0.35109	0.57001	0.322
Mof_C 	C 	0.35315	0.35315	0.53373	-0.062
Mof_C 	C 	0.29984	0.79984	0.12282	-0.087
Mof_C 	C 	0.27385	0.77385	0.12151	0.124
Mof_C 	C 	0.35109	0.85109	0.07001	0.313
Mof_C 	C 	0.35315	0.85315	0.03373	-0.037
Mof_C 	C 	0.79984	0.29984	0.12282	-0.087
Mof_C 	C 	0.77385	0.27385	0.12151	0.124
Mof_C 	C 	0.85109	0.35109	0.07001	0.313
Mof_C 	C 	0.85315	0.35315	0.03373	-0.037
Mof_C 	C 	0.79984	0.79984	0.62282	-0.085
Mof_C 	C 	0.77385	0.77385	0.62151	0.123
Mof_C 	C 	0.85109	0.85109	0.57001	0.323
Mof_C 	C 	0.85315	0.85315	0.53373	-0.062
Mof_C 	C 	0.70016	0.29984	0.37718	-0.085
Mof_C 	C 	0.72615	0.27385	0.37849	0.124
Mof_C 	C 	0.64891	0.35109	0.42999	0.322
Mof_C 	C 	0.64685	0.35315	0.46627	-0.062
Mof_C 	C 	0.70016	0.79984	0.87718	-0.083
Mof_C 	C 	0.72615	0.77385	0.87849	0.123
Mof_C 	C 	0.64891	0.85109	0.92999	0.332
Mof_C 	C 	0.64685	0.85315	0.96627	-0.087
Mof_C 	C 	0.20016	0.29984	0.87718	-0.084
Mof_C 	C 	0.22615	0.27385	0.87849	0.124
Mof_C 	C 	0.14891	0.35109	0.92999	0.332
Mof_C 	C 	0.14685	0.35315	0.96627	-0.087
Mof_C 	C 	0.20016	0.79984	0.37718	-0.085
Mof_C 	C 	0.22615	0.77385	0.37849	0.124
Mof_C 	C 	0.14891	0.85109	0.42999	0.322
Mof_C 	C 	0.14685	0.85315	0.46627	-0.062
Mof_C 	C 	0.70016	0.37718	0.29984	-0.085
Mof_C 	C 	0.72615	0.37849	0.27385	0.124
Mof_C 	C 	0.64891	0.42999	0.35109	0.322
Mof_C 	C 	0.64685	0.46627	0.35315	-0.062
Mof_C 	C 	0.70016	0.87718	0.79984	-0.083
Mof_C 	C 	0.72615	0.87849	0.77385	0.123
Mof_C 	C 	0.64891	0.92999	0.85109	0.332
Mof_C 	C 	0.64685	0.96627	0.85315	-0.087
Mof_C 	C 	0.20016	0.37718	0.79984	-0.085
Mof_C 	C 	0.22615	0.37849	0.77385	0.124
Mof_C 	C 	0.14891	0.42999	0.85109	0.322
Mof_C 	C 	0.14685	0.46627	0.85315	-0.062
Mof_C 	C 	0.20016	0.87718	0.29984	-0.084
Mof_C 	C 	0.22615	0.87849	0.27385	0.124
Mof_C 	C 	0.14891	0.92999	0.35109	0.332
Mof_C 	C 	0.14685	0.96627	0.35315	-0.087
Mof_C 	C 	0.70016	0.62282	0.70016	-0.085
Mof_C 	C 	0.72615	0.62151	0.72615	0.123
Mof_C 	C 	0.64891	0.57001	0.64891	0.322
Mof_C 	C 	0.64685	0.53373	0.64685	-0.062
Mof_C 	C 	0.70016	0.12282	0.20016	-0.087
Mof_C 	C 	0.72615	0.12151	0.22615	0.124
Mof_C 	C 	0.64891	0.07001	0.14891	0.313
Mof_C 	C 	0.64685	0.03373	0.14685	-0.038
Mof_C 	C 	0.20016	0.62282	0.20016	-0.085
Mof_C 	C 	0.22615	0.62151	0.22615	0.124
Mof_C 	C 	0.14891	0.57001	0.14891	0.322
Mof_C 	C 	0.14685	0.53373	0.14685	-0.063
Mof_C 	C 	0.20016	0.12282	0.70016	-0.087
Mof_C 	C 	0.22615	0.12151	0.72615	0.124
Mof_C 	C 	0.14891	0.07001	0.64891	0.313
Mof_C 	C 	0.14685	0.03373	0.64685	-0.038
Mof_C 	C 	0.29984	0.37718	0.70016	-0.085
Mof_C 	C 	0.27385	0.37849	0.72615	0.124
Mof_C 	C 	0.35109	0.42999	0.64891	0.322
Mof_C 	C 	0.35315	0.46627	0.64685	-0.062
Mof_C 	C 	0.29984	0.87718	0.20016	-0.084
Mof_C 	C 	0.27385	0.87849	0.22615	0.124
Mof_C 	C 	0.35109	0.92999	0.14891	0.332
Mof_C 	C 	0.35315	0.96627	0.14685	-0.087
Mof_C 	C 	0.79984	0.37718	0.20016	-0.085
Mof_C 	C 	0.77385	0.37849	0.22615	0.124
Mof_C 	C 	0.85109	0.42999	0.14891	0.322
Mof_C 	C 	0.85315	0.46627	0.14685	-0.062
Mof_C 	C 	0.79984	0.87718	0.70016	-0.083
Mof_C 	C 	0.77385	0.87849	0.72615	0.123
Mof_C 	C 	0.85109	0.92999	0.64891	0.332
Mof_C 	C 	0.85315	0.96627	0.64685	-0.087
Mof_C 	C 	0.29984	0.62282	0.29984	-0.085
Mof_C 	C 	0.27385	0.62151	0.27385	0.124
Mof_C 	C 	0.35109	0.57001	0.35109	0.322
Mof_C 	C 	0.35315	0.53373	0.35315	-0.062
Mof_C 	C 	0.29984	0.12282	0.79984	-0.087
Mof_C 	C 	0.27385	0.12151	0.77385	0.124
Mof_C 	C 	0.35109	0.07001	0.85109	0.313
Mof_C 	C 	0.35315	0.03373	0.85315	-0.037
Mof_C 	C 	0.79984	0.62282	0.79984	-0.085
Mof_C 	C 	0.77385	0.62151	0.77385	0.123
Mof_C 	C 	0.85109	0.57001	0.85109	0.323
Mof_C 	C 	0.85315	0.53373	0.85315	-0.062
Mof_C 	C 	0.79984	0.12282	0.29984	-0.087
Mof_C 	C 	0.77385	0.12151	0.27385	0.124
Mof_C 	C 	0.85109	0.07001	0.35109	0.313
Mof_C 	C 	0.85315	0.03373	0.35315	-0.037
_end
