data_functionalizedCrystal
_audit_creation_method	'EQeq! by Chris Wilmer'
_symmetry_space_group_name_H-M	'P1'
_symmetry_Int_Tables_number	1
_symmetry_cell_setting	triclinic
loop_
_symmetry_equiv_pos_as_xyz
  x,y,z
_cell_length_a	8.3576
_cell_length_b	10.5283
_cell_length_c	17.4675
_cell_angle_alpha	98.741
_cell_angle_beta	97.008
_cell_angle_gamma	100.523
loop_
_atom_site_label
_atom_site_type_symbol
_atom_site_fract_x
_atom_site_fract_y
_atom_site_fract_z
_atom_site_charge
Mof_Gd	Gd	0.03334	0.18963	0.23674	1.935
Mof_Gd	Gd	0.52029	0.13507	0.29528	1.929
Mof_C 	C 	0.2759	0.2073	0.4101	0.457
Mof_C 	C 	0.1841	0.1962	0.4784	-0.199
Mof_C 	C 	0.2189	0.1121	0.5287	0.142
Mof_H 	H 	0.3036	0.0672	0.5219	0.012
Mof_C 	C 	0.1287	0.094	0.5894	-0.214
Mof_C 	C 	0.0046	0.1627	0.5987	0.121
Mof_H 	H 	0.9423	0.1506	0.6387	0.006
Mof_C 	C 	0.9717	0.2481	0.5502	-0.175
Mof_H 	H 	0.8889	0.2947	0.558	0.107
Mof_C 	C 	0.0607	0.2659	0.4896	0.122
Mof_H 	H 	0.038	0.3241	0.4567	-0.008
Mof_C 	C 	0.1641	0.9986	0.6416	0.505
Mof_C 	C 	0.3395	0.2271	0.1402	0.449
Mof_C 	C 	0.4163	0.2024	0.0682	-0.214
Mof_C 	C 	0.3275	0.12	0.0007	0.152
Mof_H 	H 	0.2176	0.0819	0.9998	-0.005
Mof_C 	C 	0.4015	0.0941	0.9348	-0.229
Mof_C 	C 	0.5657	0.1539	0.9368	0.139
Mof_H 	H 	0.6157	0.1387	0.8925	-0.011
Mof_C 	C 	0.6543	0.2347	0.0033	-0.195
Mof_H 	H 	0.764	0.2733	0.004	0.115
Mof_C 	C 	0.5803	0.259	0.0692	0.133
Mof_H 	H 	0.6407	0.3134	0.1143	0.003
Mof_C 	C 	0.3132	0.0014	0.8631	0.501
Mof_C 	C 	0.0265	0.4386	0.194	0.326
Mof_C 	C 	0.0274	0.5696	0.1709	-0.114
Mof_C 	C 	0.1226	0.683	0.2176	0.064
Mof_H 	H 	0.1844	0.6779	0.2646	0.04
Mof_C 	C 	0.1264	0.8047	0.1947	-0.148
Mof_C 	C 	0.033	0.8121	0.1248	0.072
Mof_H 	H 	0.0327	0.893	0.1096	0.014
Mof_C 	C 	0.9402	0.6981	0.0775	-0.135
Mof_H 	H 	0.88	0.7031	0.0301	0.09
Mof_C 	C 	0.9358	0.578	0.0997	0.058
Mof_H 	H 	0.8723	0.5025	0.0677	0.025
Mof_C 	C 	0.2405	0.9223	0.2424	0.391
Mof_C 	C 	0.7842	0.3674	0.3362	0.529
Mof_H 	H 	0.866	0.4432	0.3506	-0.135
Mof_O 	O 	0.22	0.2613	0.35555	-0.494
Mof_O 	O 	0.4028	0.1604	0.41014	-0.474
Mof_O 	O 	0.0639	0.9694	0.68729	-0.487
Mof_O 	O 	0.2919	0.9525	0.63458	-0.504
Mof_O 	O 	0.1857	0.2088	0.13264	-0.468
Mof_O 	O 	0.4337	0.2649	0.2063	-0.485
Mof_O 	O 	0.1622	0.9545	0.85882	-0.487
Mof_O 	O 	0.3973	0.9732	0.80983	-0.53
Mof_O 	O 	0.1247	0.4316	0.25459	-0.373
Mof_O 	O 	0.9296	0.3399	0.15591	-0.385
Mof_O 	O 	0.361	0.908	0.28845	-0.401
Mof_O 	O 	0.2239	0.037	0.23258	-0.552
Mof_O 	O 	0.6487	0.3671	0.35893	-0.434
Mof_O 	O 	0.8142	0.2707	0.295	-0.583
Mof_Gd	Gd	0.96666	0.81037	0.76326	1.936
Mof_Gd	Gd	0.47971	0.86493	0.70472	1.93
Mof_C 	C 	0.7241	0.7927	0.5899	0.458
Mof_C 	C 	0.8159	0.8038	0.5216	-0.198
Mof_C 	C 	0.7811	0.8879	0.4713	0.142
Mof_H 	H 	0.6964	0.9328	0.4781	0.012
Mof_C 	C 	0.8713	0.906	0.4106	-0.214
Mof_C 	C 	0.9954	0.8373	0.4013	0.121
Mof_H 	H 	0.0577	0.8494	0.3613	0.006
Mof_C 	C 	0.0283	0.7519	0.4498	-0.175
Mof_H 	H 	0.1111	0.7053	0.442	0.107
Mof_C 	C 	0.9393	0.7341	0.5104	0.122
Mof_H 	H 	0.962	0.6759	0.5433	-0.008
Mof_C 	C 	0.8359	0.0014	0.3584	0.505
Mof_C 	C 	0.6605	0.7729	0.8598	0.449
Mof_C 	C 	0.5837	0.7976	0.9318	-0.214
Mof_C 	C 	0.6725	0.88	0.9993	0.152
Mof_H 	H 	0.7824	0.9181	0.0002	-0.005
Mof_C 	C 	0.5985	0.9059	0.0652	-0.229
Mof_C 	C 	0.4343	0.8461	0.0632	0.139
Mof_H 	H 	0.3843	0.8613	0.1075	-0.011
Mof_C 	C 	0.3457	0.7653	0.9967	-0.195
Mof_H 	H 	0.236	0.7267	0.996	0.115
Mof_C 	C 	0.4197	0.741	0.9308	0.133
Mof_H 	H 	0.3593	0.6866	0.8857	0.003
Mof_C 	C 	0.6868	0.9986	0.1369	0.501
Mof_C 	C 	0.9735	0.5614	0.806	0.326
Mof_C 	C 	0.9726	0.4304	0.8291	-0.114
Mof_C 	C 	0.8774	0.317	0.7824	0.064
Mof_H 	H 	0.8156	0.3221	0.7354	0.04
Mof_C 	C 	0.8736	0.1953	0.8053	-0.148
Mof_C 	C 	0.967	0.1879	0.8752	0.072
Mof_H 	H 	0.9673	0.107	0.8904	0.014
Mof_C 	C 	0.0598	0.3019	0.9225	-0.135
Mof_H 	H 	0.12	0.2969	0.9699	0.09
Mof_C 	C 	0.0642	0.422	0.9003	0.058
Mof_H 	H 	0.1277	0.4975	0.9323	0.025
Mof_C 	C 	0.7595	0.0777	0.7576	0.391
Mof_C 	C 	0.2158	0.6326	0.6638	0.529
Mof_H 	H 	0.134	0.5568	0.6494	-0.135
Mof_O 	O 	0.78	0.7387	0.64445	-0.494
Mof_O 	O 	0.5972	0.8396	0.58986	-0.474
Mof_O 	O 	0.9361	0.0306	0.31271	-0.487
Mof_O 	O 	0.7081	0.0475	0.36542	-0.504
Mof_O 	O 	0.8143	0.7912	0.86736	-0.468
Mof_O 	O 	0.5663	0.7351	0.7937	-0.485
Mof_O 	O 	0.8378	0.0455	0.14118	-0.487
Mof_O 	O 	0.6027	0.0268	0.19017	-0.53
Mof_O 	O 	0.8753	0.5684	0.74541	-0.373
Mof_O 	O 	0.0704	0.6601	0.84409	-0.385
Mof_O 	O 	0.639	0.092	0.71155	-0.401
Mof_O 	O 	0.7761	0.963	0.76742	-0.552
Mof_O 	O 	0.3513	0.6329	0.64107	-0.434
Mof_O 	O 	0.1858	0.7293	0.705	-0.583
_end
