data_functionalizedCrystal
_audit_creation_method	'EQeq! by Chris Wilmer'
_symmetry_space_group_name_H-M	'P1'
_symmetry_Int_Tables_number	1
_symmetry_cell_setting	triclinic
loop_
_symmetry_equiv_pos_as_xyz
  x,y,z
_cell_length_a	14.8987
_cell_length_b	19.0203
_cell_length_c	30.0846
_cell_angle_alpha	97.3324
_cell_angle_beta	90
_cell_angle_gamma	113.057
loop_
_atom_site_label
_atom_site_type_symbol
_atom_site_fract_x
_atom_site_fract_y
_atom_site_fract_z
_atom_site_charge
Mof_Gd	Gd	0.36208	0.58271	0.64336	1.667
Mof_Gd	Gd	0.44618	0.82832	0.65688	1.667
Mof_Gd	Gd	0.22063	0.58271	0.14336	1.666
Mof_Gd	Gd	0.38214	0.82832	0.15688	1.666
Mof_H 	H 	0.404	0.8126	0.8103	0.021
Mof_H 	H 	0.4262	0.6078	0.7812	0.014
Mof_H 	H 	0.4204	0.5924	0.856	0.097
Mof_H 	H 	0.3965	0.5878	0.938	0.098
Mof_H 	H 	0.3411	0.8008	0.0049	0.031
Mof_H 	H 	0.3572	0.5972	0.0117	0.019
Mof_H 	H 	0.7621	0.85	0.6547	0.018
Mof_H 	H 	0.6535	0.6206	0.6483	-0
Mof_H 	H 	0.9184	0.855	0.6515	0.085
Mof_H 	H 	0.0764	0.837	0.6474	0.089
Mof_H 	H 	0.2065	0.802	0.6461	-0.044
Mof_H 	H 	0.0285	0.5792	0.6414	0.024
Mof_H 	H 	0.0801	0.3356	0.6018	0.055
Mof_H 	H 	0.1214	0.404	0.7342	0.056
Mof_H 	H 	0.982	0.2988	0.747	0.062
Mof_H 	H 	0.8293	0.1784	0.7474	0.069
Mof_H 	H 	0.7234	0.0512	0.6022	0.062
Mof_H 	H 	0.6915	0.0656	0.7355	0.054
Mof_H 	H 	0.4086	0.8126	0.3103	0.02
Mof_H 	H 	0.1816	0.6078	0.2812	0.014
Mof_H 	H 	0.172	0.5924	0.356	0.097
Mof_H 	H 	0.1913	0.5878	0.438	0.098
Mof_H 	H 	0.4597	0.8008	0.5049	0.031
Mof_H 	H 	0.24	0.5972	0.5117	0.019
Mof_H 	H 	0.0879	0.85	0.1547	0.018
Mof_H 	H 	0.9671	0.6206	0.1483	-0
Mof_H 	H 	0.9366	0.855	0.1515	0.085
Mof_H 	H 	0.7606	0.837	0.1474	0.089
Mof_H 	H 	0.5955	0.802	0.1461	-0.044
Mof_H 	H 	0.5507	0.5792	0.1414	0.024
Mof_H 	H 	0.2555	0.3356	0.1018	0.055
Mof_H 	H 	0.2826	0.404	0.2342	0.056
Mof_H 	H 	0.3168	0.2988	0.247	0.063
Mof_H 	H 	0.3491	0.1784	0.2474	0.069
Mof_H 	H 	0.3278	0.0512	0.1022	0.063
Mof_H 	H 	0.3741	0.0656	0.2355	0.054
Mof_C 	C 	0.41832	0.71884	0.73862	0.485
Mof_C 	C 	0.4154	0.7106	0.78782	-0.171
Mof_C 	C 	0.40551	0.76782	0.81905	0.077
Mof_C 	C 	0.41993	0.64566	0.8022	0.093
Mof_C 	C 	0.3981	0.7552	0.86367	-0.093
Mof_C 	C 	0.41541	0.63582	0.84706	-0.131
Mof_C 	C 	0.40344	0.69028	0.87823	0.066
Mof_C 	C 	0.38744	0.68728	0.92629	0.063
Mof_C 	C 	0.37139	0.75038	0.94723	-0.087
Mof_C 	C 	0.38363	0.62966	0.95093	-0.127
Mof_C 	C 	0.34995	0.7573	0.99141	0.074
Mof_C 	C 	0.3605	0.636	0.99501	0.086
Mof_C 	C 	0.342	0.698	0.01548	-0.167
Mof_C 	C 	0.31279	0.69938	0.06332	0.463
Mof_C 	C 	0.591	0.7346	0.65136	0.485
Mof_C 	C 	0.69258	0.73576	0.65129	-0.187
Mof_C 	C 	0.772	0.8044	0.6527	0.094
Mof_C 	C 	0.70631	0.66782	0.64928	0.091
Mof_C 	C 	0.86562	0.80804	0.6513	-0.137
Mof_C 	C 	0.79986	0.67212	0.64871	-0.103
Mof_C 	C 	0.87956	0.74012	0.6494	0.055
Mof_C 	C 	0.97415	0.7305	0.64679	0.071
Mof_C 	C 	0.06629	0.78538	0.6468	-0.167
Mof_C 	C 	0.96145	0.6541	0.64539	-0.105
Mof_C 	C 	0.14368	0.76416	0.646	0.123
Mof_C 	C 	0.03886	0.63112	0.64356	0.09
Mof_C 	C 	0.13154	0.68768	0.64506	-0.191
Mof_C 	C 	0.21983	0.66746	0.64645	0.465
Mof_C 	C 	0.20618	0.44816	0.66038	0.313
Mof_C 	C 	0.1153	0.38	0.66732	-0.071
Mof_C 	C 	0.06113	0.32866	0.63095	0.014
Mof_C 	C 	0.08494	0.36868	0.70999	0.008
Mof_C 	C 	0.97902	0.26744	0.63891	-0.061
Mof_C 	C 	0.00134	0.30588	0.71793	-0.084
Mof_C 	C 	0.94782	0.25444	0.68153	0.034
Mof_C 	C 	0.85872	0.18324	0.6816	0.032
Mof_C 	C 	0.82399	0.14358	0.63888	-0.058
Mof_C 	C 	0.8081	0.1532	0.71845	-0.082
Mof_C 	C 	0.74401	0.07642	0.63127	0.019
Mof_C 	C 	0.72608	0.08556	0.71109	0.016
Mof_C 	C 	0.69353	0.04606	0.66795	-0.077
Mof_C 	C 	0.60535	0.9723	0.66173	0.318
Mof_C 	C 	0.30052	0.71884	0.23862	0.485
Mof_C 	C 	0.2952	0.7106	0.28782	-0.171
Mof_C 	C 	0.36231	0.76782	0.31905	0.077
Mof_C 	C 	0.22573	0.64566	0.3022	0.094
Mof_C 	C 	0.3571	0.7552	0.36367	-0.093
Mof_C 	C 	0.22041	0.63582	0.34706	-0.132
Mof_C 	C 	0.28684	0.69028	0.37823	0.066
Mof_C 	C 	0.29984	0.68728	0.42629	0.063
Mof_C 	C 	0.37899	0.75038	0.44723	-0.087
Mof_C 	C 	0.24603	0.62966	0.45093	-0.127
Mof_C 	C 	0.40735	0.7573	0.49141	0.073
Mof_C 	C 	0.2755	0.636	0.49501	0.085
Mof_C 	C 	0.356	0.698	0.51548	-0.166
Mof_C 	C 	0.38659	0.69938	0.56332	0.463
Mof_C 	C 	0.1436	0.7346	0.15136	0.485
Mof_C 	C 	0.04318	0.73576	0.15129	-0.187
Mof_C 	C 	0.0324	0.8044	0.1527	0.094
Mof_C 	C 	0.96151	0.66782	0.14928	0.091
Mof_C 	C 	0.94242	0.80804	0.1513	-0.137
Mof_C 	C 	0.87226	0.67212	0.14871	-0.103
Mof_C 	C 	0.86056	0.74012	0.1494	0.055
Mof_C 	C 	0.75635	0.7305	0.14679	0.071
Mof_C 	C 	0.71909	0.78538	0.1468	-0.168
Mof_C 	C 	0.69265	0.6541	0.14539	-0.105
Mof_C 	C 	0.62048	0.76416	0.146	0.123
Mof_C 	C 	0.59226	0.63112	0.14356	0.09
Mof_C 	C 	0.55614	0.68768	0.14506	-0.191
Mof_C 	C 	0.44763	0.66746	0.14645	0.465
Mof_C 	C 	0.24198	0.44816	0.16038	0.313
Mof_C 	C 	0.2647	0.38	0.16732	-0.071
Mof_C 	C 	0.26753	0.32866	0.13095	0.014
Mof_C 	C 	0.28374	0.36868	0.20999	0.009
Mof_C 	C 	0.28842	0.26744	0.13891	-0.061
Mof_C 	C 	0.30454	0.30588	0.21793	-0.085
Mof_C 	C 	0.30662	0.25444	0.18153	0.034
Mof_C 	C 	0.32452	0.18324	0.1816	0.032
Mof_C 	C 	0.31959	0.14358	0.13888	-0.058
Mof_C 	C 	0.3451	0.1532	0.21845	-0.082
Mof_C 	C 	0.33241	0.07642	0.13127	0.019
Mof_C 	C 	0.35948	0.08556	0.21109	0.015
Mof_C 	C 	0.35253	0.04606	0.16795	-0.077
Mof_C 	C 	0.36695	0.9723	0.16173	0.318
Mof_S 	S 	0.37541	0.81378	0.90843	0.341
Mof_S 	S 	0.83753	0.59428	0.64809	0.339
Mof_S 	S 	0.89985	0.1932	0.598	0.321
Mof_S 	S 	0.43837	0.81378	0.40843	0.341
Mof_S 	S 	0.75675	0.59428	0.14809	0.339
Mof_S 	S 	0.29335	0.1932	0.098	0.321
Mof_O 	O 	0.43846	0.78392	0.72804	-0.475
Mof_O 	O 	0.39878	0.65736	0.71264	-0.497
Mof_O 	O 	0.45637	0.88694	0.91886	-0.215
Mof_O 	O 	0.28134	0.81548	0.9016	-0.22
Mof_O 	O 	0.32073	0.76346	0.08436	-0.464
Mof_O 	O 	0.28283	0.63666	0.07825	-0.477
Mof_O 	O 	0.58316	0.79752	0.66221	-0.461
Mof_O 	O 	0.52242	0.67124	0.64007	-0.509
Mof_O 	O 	0.82224	0.56408	0.69061	-0.224
Mof_O 	O 	0.8006	0.5408	0.60809	-0.232
Mof_O 	O 	0.30188	0.7222	0.65012	-0.536
Mof_O 	O 	0.20673	0.59846	0.64428	-0.42
Mof_O 	O 	0.23383	0.45506	0.62065	-0.395
Mof_O 	O 	0.25148	0.49596	0.69336	-0.368
Mof_O 	O 	0.94884	0.14828	0.5764	-0.207
Mof_O 	O 	0.84832	0.22284	0.57012	-0.209
Mof_O 	O 	0.58146	0.93272	0.62359	-0.36
Mof_O 	O 	0.55752	0.95044	0.69542	-0.41
Mof_O 	O 	0.34546	0.78392	0.22804	-0.475
Mof_O 	O 	0.25858	0.65736	0.21264	-0.497
Mof_O 	O 	0.43057	0.88694	0.41886	-0.215
Mof_O 	O 	0.53414	0.81548	0.4016	-0.22
Mof_O 	O 	0.44273	0.76346	0.58436	-0.464
Mof_O 	O 	0.35383	0.63666	0.57825	-0.477
Mof_O 	O 	0.21436	0.79752	0.16221	-0.461
Mof_O 	O 	0.14882	0.67124	0.14007	-0.509
Mof_O 	O 	0.74184	0.56408	0.19061	-0.224
Mof_O 	O 	0.7402	0.5408	0.10809	-0.232
Mof_O 	O 	0.42032	0.7222	0.15012	-0.536
Mof_O 	O 	0.39173	0.59846	0.14428	-0.42
Mof_O 	O 	0.22123	0.45506	0.12065	-0.395
Mof_O 	O 	0.24448	0.49596	0.19336	-0.368
Mof_O 	O 	0.19944	0.14828	0.0764	-0.207
Mof_O 	O 	0.37452	0.22284	0.07012	-0.209
Mof_O 	O 	0.35126	0.93272	0.12359	-0.36
Mof_O 	O 	0.39292	0.95044	0.19542	-0.41
Mof_Gd	Gd	0.77937	0.41729	0.85664	1.666
Mof_Gd	Gd	0.61785	0.17166	0.84312	1.666
Mof_Gd	Gd	0.63792	0.41729	0.35664	1.666
Mof_Gd	Gd	0.55381	0.17166	0.34312	1.666
Mof_H 	H 	0.5914	0.1874	0.6897	0.02
Mof_H 	H 	0.8184	0.3922	0.7188	0.014
Mof_H 	H 	0.828	0.4076	0.644	0.097
Mof_H 	H 	0.8087	0.4122	0.562	0.098
Mof_H 	H 	0.5403	0.1992	0.4951	0.031
Mof_H 	H 	0.76	0.4028	0.4883	0.019
Mof_H 	H 	0.9121	0.15	0.8453	0.018
Mof_H 	H 	0.0329	0.3794	0.8517	-0
Mof_H 	H 	0.0634	0.145	0.8485	0.085
Mof_H 	H 	0.2394	0.163	0.8526	0.089
Mof_H 	H 	0.4045	0.198	0.8539	-0.044
Mof_H 	H 	0.4493	0.4208	0.8586	0.024
Mof_H 	H 	0.7445	0.6644	0.8982	0.055
Mof_H 	H 	0.7174	0.596	0.7658	0.056
Mof_H 	H 	0.6832	0.7012	0.753	0.063
Mof_H 	H 	0.6509	0.8216	0.7526	0.069
Mof_H 	H 	0.6722	0.9488	0.8978	0.063
Mof_H 	H 	0.6259	0.9344	0.7645	0.054
Mof_H 	H 	0.596	0.1874	0.1897	0.021
Mof_H 	H 	0.5738	0.3922	0.2188	0.014
Mof_H 	H 	0.5796	0.4076	0.144	0.097
Mof_H 	H 	0.6035	0.4122	0.062	0.098
Mof_H 	H 	0.6589	0.1992	0.9951	0.031
Mof_H 	H 	0.6428	0.4028	0.9883	0.019
Mof_H 	H 	0.2379	0.15	0.3453	0.018
Mof_H 	H 	0.3465	0.3794	0.3517	-0
Mof_H 	H 	0.0816	0.145	0.3485	0.085
Mof_H 	H 	0.9236	0.163	0.3526	0.089
Mof_H 	H 	0.7935	0.198	0.3539	-0.044
Mof_H 	H 	0.9715	0.4208	0.3586	0.024
Mof_H 	H 	0.9199	0.6644	0.3982	0.055
Mof_H 	H 	0.8786	0.596	0.2658	0.056
Mof_H 	H 	0.018	0.7012	0.253	0.062
Mof_H 	H 	0.1707	0.8216	0.2526	0.069
Mof_H 	H 	0.2766	0.9488	0.3978	0.062
Mof_H 	H 	0.3085	0.9344	0.2645	0.054
Mof_C 	C 	0.69948	0.28116	0.76138	0.485
Mof_C 	C 	0.7048	0.2894	0.71218	-0.171
Mof_C 	C 	0.63769	0.23218	0.68095	0.077
Mof_C 	C 	0.77427	0.35434	0.6978	0.094
Mof_C 	C 	0.6429	0.2448	0.63633	-0.093
Mof_C 	C 	0.77959	0.36418	0.65294	-0.132
Mof_C 	C 	0.71316	0.30972	0.62177	0.066
Mof_C 	C 	0.70016	0.31272	0.57371	0.063
Mof_C 	C 	0.62101	0.24962	0.55277	-0.087
Mof_C 	C 	0.75397	0.37034	0.54907	-0.127
Mof_C 	C 	0.59265	0.2427	0.50859	0.073
Mof_C 	C 	0.7245	0.364	0.50499	0.085
Mof_C 	C 	0.644	0.302	0.48452	-0.166
Mof_C 	C 	0.61341	0.30062	0.43668	0.463
Mof_C 	C 	0.8564	0.2654	0.84864	0.485
Mof_C 	C 	0.95682	0.26424	0.84871	-0.187
Mof_C 	C 	0.9676	0.1956	0.8473	0.094
Mof_C 	C 	0.03849	0.33218	0.85072	0.091
Mof_C 	C 	0.05758	0.19196	0.8487	-0.137
Mof_C 	C 	0.12774	0.32788	0.85129	-0.103
Mof_C 	C 	0.13944	0.25988	0.8506	0.055
Mof_C 	C 	0.24365	0.2695	0.85321	0.071
Mof_C 	C 	0.28091	0.21462	0.8532	-0.168
Mof_C 	C 	0.30735	0.3459	0.85461	-0.105
Mof_C 	C 	0.37952	0.23584	0.854	0.123
Mof_C 	C 	0.40774	0.36888	0.85644	0.09
Mof_C 	C 	0.44386	0.31232	0.85494	-0.191
Mof_C 	C 	0.55237	0.33254	0.85355	0.465
Mof_C 	C 	0.75802	0.55184	0.83962	0.313
Mof_C 	C 	0.7353	0.62	0.83268	-0.071
Mof_C 	C 	0.73247	0.67134	0.86905	0.014
Mof_C 	C 	0.71626	0.63132	0.79001	0.009
Mof_C 	C 	0.71158	0.73256	0.86109	-0.061
Mof_C 	C 	0.69546	0.69412	0.78207	-0.085
Mof_C 	C 	0.69338	0.74556	0.81847	0.034
Mof_C 	C 	0.67548	0.81676	0.8184	0.032
Mof_C 	C 	0.68041	0.85642	0.86112	-0.058
Mof_C 	C 	0.6549	0.8468	0.78155	-0.082
Mof_C 	C 	0.66759	0.92358	0.86873	0.019
Mof_C 	C 	0.64052	0.91444	0.78891	0.015
Mof_C 	C 	0.64747	0.95394	0.83205	-0.077
Mof_C 	C 	0.63305	0.0277	0.83827	0.318
Mof_C 	C 	0.58168	0.28116	0.26138	0.485
Mof_C 	C 	0.5846	0.2894	0.21218	-0.171
Mof_C 	C 	0.59449	0.23218	0.18095	0.077
Mof_C 	C 	0.58007	0.35434	0.1978	0.093
Mof_C 	C 	0.6019	0.2448	0.13633	-0.093
Mof_C 	C 	0.58459	0.36418	0.15294	-0.131
Mof_C 	C 	0.59656	0.30972	0.12177	0.066
Mof_C 	C 	0.61256	0.31272	0.07371	0.063
Mof_C 	C 	0.62861	0.24962	0.05277	-0.087
Mof_C 	C 	0.61637	0.37034	0.04907	-0.127
Mof_C 	C 	0.65005	0.2427	0.00859	0.074
Mof_C 	C 	0.6395	0.364	0.00499	0.086
Mof_C 	C 	0.658	0.302	0.98452	-0.167
Mof_C 	C 	0.68721	0.30062	0.93668	0.463
Mof_C 	C 	0.409	0.2654	0.34864	0.485
Mof_C 	C 	0.30742	0.26424	0.34871	-0.187
Mof_C 	C 	0.228	0.1956	0.3473	0.094
Mof_C 	C 	0.29369	0.33218	0.35072	0.091
Mof_C 	C 	0.13438	0.19196	0.3487	-0.137
Mof_C 	C 	0.20014	0.32788	0.35129	-0.103
Mof_C 	C 	0.12044	0.25988	0.3506	0.055
Mof_C 	C 	0.02585	0.2695	0.35321	0.071
Mof_C 	C 	0.93371	0.21462	0.3532	-0.167
Mof_C 	C 	0.03855	0.3459	0.35461	-0.105
Mof_C 	C 	0.85632	0.23584	0.354	0.123
Mof_C 	C 	0.96114	0.36888	0.35644	0.09
Mof_C 	C 	0.86846	0.31232	0.35494	-0.191
Mof_C 	C 	0.78017	0.33254	0.35355	0.465
Mof_C 	C 	0.79382	0.55184	0.33962	0.313
Mof_C 	C 	0.8847	0.62	0.33268	-0.071
Mof_C 	C 	0.93887	0.67134	0.36905	0.014
Mof_C 	C 	0.91506	0.63132	0.29001	0.008
Mof_C 	C 	0.02098	0.73256	0.36109	-0.061
Mof_C 	C 	0.99866	0.69412	0.28207	-0.084
Mof_C 	C 	0.05218	0.74556	0.31847	0.034
Mof_C 	C 	0.14128	0.81676	0.3184	0.032
Mof_C 	C 	0.17601	0.85642	0.36112	-0.058
Mof_C 	C 	0.1919	0.8468	0.28155	-0.082
Mof_C 	C 	0.25599	0.92358	0.36873	0.019
Mof_C 	C 	0.27392	0.91444	0.28891	0.016
Mof_C 	C 	0.30647	0.95394	0.33205	-0.077
Mof_C 	C 	0.39465	0.0277	0.33827	0.318
Mof_S 	S 	0.56163	0.18622	0.59157	0.341
Mof_S 	S 	0.24325	0.40572	0.85191	0.339
Mof_S 	S 	0.70665	0.8068	0.902	0.321
Mof_S 	S 	0.62459	0.18622	0.09157	0.341
Mof_S 	S 	0.16247	0.40572	0.35191	0.339
Mof_S 	S 	0.10015	0.8068	0.402	0.321
Mof_O 	O 	0.65454	0.21608	0.77196	-0.474
Mof_O 	O 	0.74142	0.34264	0.78736	-0.497
Mof_O 	O 	0.56943	0.11306	0.58114	-0.215
Mof_O 	O 	0.46586	0.18452	0.5984	-0.22
Mof_O 	O 	0.55727	0.23654	0.41564	-0.464
Mof_O 	O 	0.64617	0.36334	0.42175	-0.477
Mof_O 	O 	0.78564	0.20248	0.83779	-0.461
Mof_O 	O 	0.85118	0.32876	0.85993	-0.509
Mof_O 	O 	0.25816	0.43592	0.80939	-0.224
Mof_O 	O 	0.2598	0.4592	0.89191	-0.232
Mof_O 	O 	0.57968	0.2778	0.84988	-0.536
Mof_O 	O 	0.60827	0.40154	0.85572	-0.42
Mof_O 	O 	0.77877	0.54494	0.87935	-0.395
Mof_O 	O 	0.75552	0.50404	0.80664	-0.368
Mof_O 	O 	0.80056	0.85172	0.9236	-0.207
Mof_O 	O 	0.62548	0.77716	0.92988	-0.209
Mof_O 	O 	0.64874	0.06728	0.87641	-0.36
Mof_O 	O 	0.60708	0.04956	0.80458	-0.41
Mof_O 	O 	0.56154	0.21608	0.27196	-0.474
Mof_O 	O 	0.60122	0.34264	0.28736	-0.497
Mof_O 	O 	0.54363	0.11306	0.08114	-0.215
Mof_O 	O 	0.71866	0.18452	0.0984	-0.22
Mof_O 	O 	0.67927	0.23654	0.91564	-0.464
Mof_O 	O 	0.71717	0.36334	0.92175	-0.477
Mof_O 	O 	0.41684	0.20248	0.33779	-0.461
Mof_O 	O 	0.47758	0.32876	0.35993	-0.509
Mof_O 	O 	0.17776	0.43592	0.30939	-0.224
Mof_O 	O 	0.1994	0.4592	0.39191	-0.232
Mof_O 	O 	0.69812	0.2778	0.34988	-0.536
Mof_O 	O 	0.79327	0.40154	0.35572	-0.42
Mof_O 	O 	0.76617	0.54494	0.37935	-0.395
Mof_O 	O 	0.74852	0.50404	0.30664	-0.368
Mof_O 	O 	0.05116	0.85172	0.4236	-0.207
Mof_O 	O 	0.15168	0.77716	0.42988	-0.209
Mof_O 	O 	0.41854	0.06728	0.37641	-0.36
Mof_O 	O 	0.44248	0.04956	0.30458	-0.41
_end
