data_functionalizedCrystal
_audit_creation_method	'EQeq! by Chris Wilmer'
_symmetry_space_group_name_H-M	'P1'
_symmetry_Int_Tables_number	1
_symmetry_cell_setting	triclinic
loop_
_symmetry_equiv_pos_as_xyz
  x,y,z
_cell_length_a	34.3413
_cell_length_b	10.0447
_cell_length_c	17.7382
_cell_angle_alpha	90
_cell_angle_beta	96.234
_cell_angle_gamma	90
loop_
_atom_site_label
_atom_site_type_symbol
_atom_site_fract_x
_atom_site_fract_y
_atom_site_fract_z
_atom_site_charge
Mof_Mg	Mg	0.22581	0.93787	0.23681	1.475
Mof_Mg	Mg	0.30357	0.71735	0.27617	1.45
Mof_O 	O 	0.24922	0.6335	0.25515	-0.592
Mof_O 	O 	0.30406	0.2055	0.6704	-0.572
Mof_O 	O 	0.39631	0.1964	0.42	-0.244
Mof_O 	O 	0.39811	0.8359	0.5727	-0.247
Mof_O 	O 	0.28002	0.9005	0.3071	-0.649
Mof_O 	O 	0.2284	0.9653	0.36027	-0.405
Mof_O 	O 	0.24974	0.0849	0.64006	-0.52
Mof_O 	O 	0.19765	0.7655	0.23042	-0.512
Mof_O 	O 	0.17709	0.059	0.20271	-0.402
Mof_O 	O 	0.23397	0.1499	0.23526	-0.402
Mof_O 	O 	0.06188	0.4332	0.2142	-0.221
Mof_O 	O 	0.12227	0.4899	0.0032	-0.212
Mof_N 	N 	0.09105	0.4589	0.10785	-0.182
Mof_N 	N 	0.39782	0.0151	0.4963	-0.186
Mof_C 	C 	0.27537	0.0318	0.4959	0.023
Mof_H 	H 	0.2483	0.034	0.4966	0.056
Mof_C 	C 	0.14382	0.314	0.1646	-0.09
Mof_H 	H 	0.1287	0.2402	0.1486	0.099
Mof_C 	C 	0.26441	0.9455	0.3638	0.336
Mof_C 	C 	0.18851	0.5355	0.2108	-0.079
Mof_C 	C 	0.19832	0.1593	0.2135	0.296
Mof_C 	C 	0.21431	0.653	0.2346	0.452
Mof_C 	C 	0.33995	0.0752	0.5583	-0.057
Mof_H 	H 	0.3565	0.1086	0.5989	0.059
Mof_C 	C 	0.47924	0.0033	0.4995	0.026
Mof_C 	C 	0.3547	0.023	0.4965	0.111
Mof_C 	C 	0.02002	0.4674	0.0987	-0.057
Mof_C 	C 	0.20374	0.4065	0.2226	-0
Mof_H 	H 	0.2293	0.3948	0.2451	0.049
Mof_C 	C 	0.09132	0.4836	0.0312	0.216
Mof_C 	C 	0.01863	0.4931	0.0224	0.035
Mof_C 	C 	0.12909	0.4419	0.152	0.134
Mof_C 	C 	0.45877	0.1025	0.4559	-0.066
Mof_C 	C 	0.18116	0.2978	0.2011	-0.022
Mof_C 	C 	0.29085	0.9834	0.4324	-0.084
Mof_C 	C 	0.29975	0.0775	0.5591	-0.094
Mof_C 	C 	0.15129	0.5508	0.1752	-0.065
Mof_H 	H 	0.141	0.6358	0.1668	0.088
Mof_C 	C 	0.28265	0.1267	0.6291	0.445
Mof_C 	C 	0.41533	0.1101	0.4539	0.212
Mof_C 	C 	0.33127	0.9802	0.4333	-0.1
Mof_H 	H 	0.3411	0.9515	0.3966	0.051
Mof_C 	C 	0.98534	0.4641	0.1341	-0.017
Mof_H 	H 	0.9898	0.4541	0.1875	0.067
Mof_C 	C 	0.0503	0.5224	0.9091	-0.023
Mof_H 	H 	0.0732	0.5297	0.8858	0.073
Mof_C 	C 	0.05281	0.4983	0.9858	-0.052
Mof_C 	C 	0.05827	0.455	0.1464	0.221
Mof_C 	C 	0.41657	0.9135	0.5397	0.211
Mof_C 	C 	0.46035	0.9096	0.5396	-0.066
Mof_C 	C 	0.51847	0.1861	0.4171	-0.031
Mof_H 	H 	0.5327	0.2642	0.4119	0.048
Mof_C 	C 	0.4782	0.1918	0.4155	-0.028
Mof_H 	H 	0.4651	0.2369	0.3746	0.046
Mof_Mg	Mg	0.77419	0.93787	0.26319	1.474
Mof_Mg	Mg	0.69643	0.71735	0.22383	1.449
Mof_O 	O 	0.75078	0.6335	0.24485	-0.592
Mof_O 	O 	0.69594	0.2055	0.8296	-0.572
Mof_O 	O 	0.60369	0.1964	0.08	-0.244
Mof_O 	O 	0.60189	0.8359	0.9273	-0.247
Mof_O 	O 	0.71998	0.9005	0.1929	-0.649
Mof_O 	O 	0.7716	0.9653	0.13973	-0.406
Mof_O 	O 	0.75026	0.0849	0.85994	-0.521
Mof_O 	O 	0.80235	0.7655	0.26958	-0.512
Mof_O 	O 	0.82291	0.059	0.29729	-0.402
Mof_O 	O 	0.76603	0.1499	0.26474	-0.402
Mof_O 	O 	0.93812	0.4332	0.2858	-0.221
Mof_O 	O 	0.87773	0.4899	0.4968	-0.212
Mof_N 	N 	0.90895	0.4589	0.39215	-0.182
Mof_N 	N 	0.60218	0.0151	0.0037	-0.187
Mof_C 	C 	0.72463	0.0318	0.0041	0.026
Mof_H 	H 	0.7517	0.034	0.0034	0.055
Mof_C 	C 	0.85618	0.314	0.3354	-0.09
Mof_H 	H 	0.8713	0.2402	0.3514	0.099
Mof_C 	C 	0.73559	0.9455	0.1362	0.336
Mof_C 	C 	0.81149	0.5355	0.2892	-0.079
Mof_C 	C 	0.80168	0.1593	0.2865	0.296
Mof_C 	C 	0.78569	0.653	0.2654	0.452
Mof_C 	C 	0.66005	0.0752	0.9417	-0.059
Mof_H 	H 	0.6435	0.1086	0.9011	0.06
Mof_C 	C 	0.52076	0.0033	0.0005	0.026
Mof_C 	C 	0.6453	0.023	0.0035	0.115
Mof_C 	C 	0.97998	0.4674	0.4013	-0.057
Mof_C 	C 	0.79626	0.4065	0.2774	-0
Mof_H 	H 	0.7707	0.3948	0.2549	0.049
Mof_C 	C 	0.90868	0.4836	0.4688	0.216
Mof_C 	C 	0.98137	0.4931	0.4776	0.035
Mof_C 	C 	0.87091	0.4419	0.348	0.134
Mof_C 	C 	0.54123	0.1025	0.0441	-0.066
Mof_C 	C 	0.81884	0.2978	0.2989	-0.022
Mof_C 	C 	0.70915	0.9834	0.0676	-0.085
Mof_C 	C 	0.70025	0.0775	0.9409	-0.095
Mof_C 	C 	0.84871	0.5508	0.3248	-0.065
Mof_H 	H 	0.859	0.6358	0.3332	0.088
Mof_C 	C 	0.71735	0.1267	0.8709	0.445
Mof_C 	C 	0.58467	0.1101	0.0461	0.212
Mof_C 	C 	0.66873	0.9802	0.0667	-0.103
Mof_H 	H 	0.6589	0.9515	0.1034	0.052
Mof_C 	C 	0.01466	0.4641	0.3659	-0.017
Mof_H 	H 	0.0102	0.4541	0.3125	0.067
Mof_C 	C 	0.9497	0.5224	0.5909	-0.023
Mof_H 	H 	0.9268	0.5297	0.6142	0.073
Mof_C 	C 	0.94719	0.4983	0.5142	-0.051
Mof_C 	C 	0.94173	0.455	0.3536	0.221
Mof_C 	C 	0.58343	0.9135	0.9603	0.211
Mof_C 	C 	0.53965	0.9096	0.9604	-0.066
Mof_C 	C 	0.48153	0.1861	0.0829	-0.031
Mof_H 	H 	0.4673	0.2642	0.0881	0.048
Mof_C 	C 	0.5218	0.1918	0.0845	-0.028
Mof_H 	H 	0.5349	0.2369	0.1254	0.046
Mof_Mg	Mg	0.77419	0.06213	0.76319	1.474
Mof_Mg	Mg	0.69643	0.28265	0.72383	1.449
Mof_O 	O 	0.75078	0.3665	0.74485	-0.592
Mof_O 	O 	0.69594	0.7945	0.3296	-0.572
Mof_O 	O 	0.60369	0.8036	0.58	-0.244
Mof_O 	O 	0.60189	0.1641	0.4273	-0.247
Mof_O 	O 	0.71998	0.0995	0.6929	-0.649
Mof_O 	O 	0.7716	0.0347	0.63973	-0.405
Mof_O 	O 	0.75026	0.9151	0.35994	-0.52
Mof_O 	O 	0.80235	0.2345	0.76958	-0.512
Mof_O 	O 	0.82291	0.941	0.79729	-0.402
Mof_O 	O 	0.76603	0.8501	0.76474	-0.402
Mof_O 	O 	0.93812	0.5668	0.7858	-0.221
Mof_O 	O 	0.87773	0.5101	0.9968	-0.212
Mof_N 	N 	0.90895	0.5411	0.89215	-0.182
Mof_N 	N 	0.60218	0.9849	0.5037	-0.186
Mof_C 	C 	0.72463	0.9682	0.5041	0.023
Mof_H 	H 	0.7517	0.966	0.5034	0.056
Mof_C 	C 	0.85618	0.686	0.8354	-0.09
Mof_H 	H 	0.8713	0.7598	0.8514	0.099
Mof_C 	C 	0.73559	0.0545	0.6362	0.336
Mof_C 	C 	0.81149	0.4645	0.7892	-0.079
Mof_C 	C 	0.80168	0.8407	0.7865	0.296
Mof_C 	C 	0.78569	0.347	0.7654	0.452
Mof_C 	C 	0.66005	0.9248	0.4417	-0.057
Mof_H 	H 	0.6435	0.8914	0.4011	0.059
Mof_C 	C 	0.52076	0.9967	0.5005	0.026
Mof_C 	C 	0.6453	0.977	0.5035	0.111
Mof_C 	C 	0.97998	0.5326	0.9013	-0.057
Mof_C 	C 	0.79626	0.5935	0.7774	-0
Mof_H 	H 	0.7707	0.6052	0.7549	0.049
Mof_C 	C 	0.90868	0.5164	0.9688	0.216
Mof_C 	C 	0.98137	0.5069	0.9776	0.035
Mof_C 	C 	0.87091	0.5581	0.848	0.134
Mof_C 	C 	0.54123	0.8975	0.5441	-0.066
Mof_C 	C 	0.81884	0.7022	0.7989	-0.022
Mof_C 	C 	0.70915	0.0166	0.5676	-0.084
Mof_C 	C 	0.70025	0.9225	0.4409	-0.094
Mof_C 	C 	0.84871	0.4492	0.8248	-0.065
Mof_H 	H 	0.859	0.3642	0.8332	0.088
Mof_C 	C 	0.71735	0.8733	0.3709	0.445
Mof_C 	C 	0.58467	0.8899	0.5461	0.212
Mof_C 	C 	0.66873	0.0198	0.5667	-0.1
Mof_H 	H 	0.6589	0.0485	0.6034	0.051
Mof_C 	C 	0.01466	0.5359	0.8659	-0.017
Mof_H 	H 	0.0102	0.5459	0.8125	0.067
Mof_C 	C 	0.9497	0.4776	0.0909	-0.023
Mof_H 	H 	0.9268	0.4703	0.1142	0.073
Mof_C 	C 	0.94719	0.5017	0.0142	-0.052
Mof_C 	C 	0.94173	0.545	0.8536	0.221
Mof_C 	C 	0.58343	0.0865	0.4603	0.211
Mof_C 	C 	0.53965	0.0904	0.4604	-0.066
Mof_C 	C 	0.48153	0.8139	0.5829	-0.031
Mof_H 	H 	0.4673	0.7358	0.5881	0.048
Mof_C 	C 	0.5218	0.8082	0.5845	-0.028
Mof_H 	H 	0.5349	0.7631	0.6254	0.046
Mof_Mg	Mg	0.22581	0.06213	0.73681	1.474
Mof_Mg	Mg	0.30357	0.28265	0.77617	1.449
Mof_O 	O 	0.24922	0.3665	0.75515	-0.592
Mof_O 	O 	0.30406	0.7945	0.1704	-0.572
Mof_O 	O 	0.39631	0.8036	0.92	-0.244
Mof_O 	O 	0.39811	0.1641	0.0727	-0.247
Mof_O 	O 	0.28002	0.0995	0.8071	-0.649
Mof_O 	O 	0.2284	0.0347	0.86027	-0.406
Mof_O 	O 	0.24974	0.9151	0.14006	-0.521
Mof_O 	O 	0.19765	0.2345	0.73042	-0.512
Mof_O 	O 	0.17709	0.941	0.70271	-0.402
Mof_O 	O 	0.23397	0.8501	0.73526	-0.402
Mof_O 	O 	0.06188	0.5668	0.7142	-0.221
Mof_O 	O 	0.12227	0.5101	0.5032	-0.212
Mof_N 	N 	0.09105	0.5411	0.60785	-0.182
Mof_N 	N 	0.39782	0.9849	0.9963	-0.187
Mof_C 	C 	0.27537	0.9682	0.9959	0.026
Mof_H 	H 	0.2483	0.966	0.9966	0.055
Mof_C 	C 	0.14382	0.686	0.6646	-0.09
Mof_H 	H 	0.1287	0.7598	0.6486	0.099
Mof_C 	C 	0.26441	0.0545	0.8638	0.336
Mof_C 	C 	0.18851	0.4645	0.7108	-0.079
Mof_C 	C 	0.19832	0.8407	0.7135	0.296
Mof_C 	C 	0.21431	0.347	0.7346	0.452
Mof_C 	C 	0.33995	0.9248	0.0583	-0.059
Mof_H 	H 	0.3565	0.8914	0.0989	0.06
Mof_C 	C 	0.47924	0.9967	0.9995	0.026
Mof_C 	C 	0.3547	0.977	0.9965	0.115
Mof_C 	C 	0.02002	0.5326	0.5987	-0.057
Mof_C 	C 	0.20374	0.5935	0.7226	-0
Mof_H 	H 	0.2293	0.6052	0.7451	0.049
Mof_C 	C 	0.09132	0.5164	0.5312	0.216
Mof_C 	C 	0.01863	0.5069	0.5224	0.035
Mof_C 	C 	0.12909	0.5581	0.652	0.134
Mof_C 	C 	0.45877	0.8975	0.9559	-0.066
Mof_C 	C 	0.18116	0.7022	0.7011	-0.022
Mof_C 	C 	0.29085	0.0166	0.9324	-0.085
Mof_C 	C 	0.29975	0.9225	0.0591	-0.095
Mof_C 	C 	0.15129	0.4492	0.6752	-0.065
Mof_H 	H 	0.141	0.3642	0.6668	0.088
Mof_C 	C 	0.28265	0.8733	0.1291	0.445
Mof_C 	C 	0.41533	0.8899	0.9539	0.212
Mof_C 	C 	0.33127	0.0198	0.9333	-0.103
Mof_H 	H 	0.3411	0.0485	0.8966	0.052
Mof_C 	C 	0.98534	0.5359	0.6341	-0.017
Mof_H 	H 	0.9898	0.5459	0.6875	0.067
Mof_C 	C 	0.0503	0.4776	0.4091	-0.023
Mof_H 	H 	0.0732	0.4703	0.3858	0.073
Mof_C 	C 	0.05281	0.5017	0.4858	-0.051
Mof_C 	C 	0.05827	0.545	0.6464	0.221
Mof_C 	C 	0.41657	0.0865	0.0397	0.211
Mof_C 	C 	0.46035	0.0904	0.0396	-0.066
Mof_C 	C 	0.51847	0.8139	0.9171	-0.031
Mof_H 	H 	0.5327	0.7358	0.9119	0.048
Mof_C 	C 	0.4782	0.8082	0.9155	-0.028
Mof_H 	H 	0.4651	0.7631	0.8746	0.046
_end
