data_functionalizedCrystal
_audit_creation_method	'EQeq! by Chris Wilmer'
_symmetry_space_group_name_H-M	'P1'
_symmetry_Int_Tables_number	1
_symmetry_cell_setting	triclinic
loop_
_symmetry_equiv_pos_as_xyz
  x,y,z
_cell_length_a	12.3398
_cell_length_b	13.4958
_cell_length_c	16.9799
_cell_angle_alpha	90
_cell_angle_beta	90
_cell_angle_gamma	90
loop_
_atom_site_label
_atom_site_type_symbol
_atom_site_fract_x
_atom_site_fract_y
_atom_site_fract_z
_atom_site_charge
Mof_In	In	0.28603	0.10486	0.13098	2.422
Mof_O 	O 	0.2707	0.285	0.10412	-0.457
Mof_O 	O 	0.3055	0.1707	0.01572	-0.571
Mof_O 	O 	0.6362	0.4846	0.9297	-0.483
Mof_O 	O 	0.6149	0.3725	0.83737	-0.561
Mof_O 	O 	0.3782	0.9739	0.07369	-0.483
Mof_O 	O 	0.2958	0.9536	0.18728	-0.509
Mof_O 	O 	0.6808	0.6611	0.24442	-0.535
Mof_O 	O 	0.5467	0.6412	0.32717	-0.569
Mof_C 	C 	0.3126	0.341	0.9721	-0.077
Mof_C 	C 	0.4268	0.3893	0.9861	0.502
Mof_C 	C 	0.4543	0.434	0.9045	-0.35
Mof_H 	H 	0.4318	0.5036	0.9046	0.128
Mof_C 	C 	0.3847	0.3781	0.8424	0.065
Mof_H 	H 	0.3342	0.4229	0.817	-0.005
Mof_H 	H 	0.4305	0.3483	0.8024	0.021
Mof_C 	C 	0.3249	0.2993	0.8885	-0.167
Mof_H 	H 	0.3659	0.238	0.8893	0.085
Mof_H 	H 	0.2544	0.2865	0.8653	0.074
Mof_C 	C 	0.2215	0.4166	0.9738	-0.364
Mof_H 	H 	0.1538	0.384	0.9636	0.128
Mof_H 	H 	0.2341	0.466	0.9342	0.116
Mof_H 	H 	0.219	0.4475	0.0247	0.123
Mof_C 	C 	0.5107	0.3107	0.0114	-0.897
Mof_H 	H 	0.4912	0.2845	0.062	0.282
Mof_H 	H 	0.5812	0.3405	0.0144	0.288
Mof_H 	H 	0.5119	0.2579	0.9734	0.291
Mof_C 	C 	0.4265	0.4673	0.0495	-0.999
Mof_H 	H 	0.4106	0.437	0.0994	0.315
Mof_H 	H 	0.3724	0.5162	0.0378	0.31
Mof_H 	H 	0.4964	0.4984	0.0519	0.323
Mof_C 	C 	0.2928	0.2613	0.035	0.301
Mof_C 	C 	0.5766	0.4303	0.889	0.39
Mof_C 	C 	0.3865	0.8102	0.1315	-0.079
Mof_C 	C 	0.5018	0.7984	0.1704	0.53
Mof_C 	C 	0.5011	0.6869	0.1937	-0.372
Mof_H 	H 	0.5238	0.6496	0.1471	0.129
Mof_C 	C 	0.3834	0.6576	0.2107	0.088
Mof_H 	H 	0.3636	0.5989	0.1811	-0.025
Mof_H 	H 	0.3733	0.6443	0.2664	0.001
Mof_C 	C 	0.3156	0.7458	0.1852	-0.181
Mof_H 	H 	0.2925	0.7835	0.2308	0.086
Mof_H 	H 	0.2517	0.7235	0.157	0.076
Mof_C 	C 	0.3825	0.7707	0.0471	-0.358
Mof_H 	H 	0.4283	0.8106	0.0141	0.131
Mof_H 	H 	0.3094	0.7735	0.028	0.127
Mof_H 	H 	0.4075	0.7034	0.0463	0.11
Mof_C 	C 	0.5948	0.8255	0.1152	-1.027
Mof_H 	H 	0.5913	0.8948	0.1029	0.328
Mof_H 	H 	0.589	0.7875	0.0676	0.322
Mof_H 	H 	0.6627	0.8111	0.1404	0.335
Mof_C 	C 	0.5114	0.8618	0.2446	-0.978
Mof_H 	H 	0.4537	0.8454	0.2802	0.316
Mof_H 	H 	0.5067	0.9306	0.2306	0.311
Mof_H 	H 	0.5798	0.8492	0.2695	0.309
Mof_C 	C 	0.3519	0.9184	0.1307	0.298
Mof_C 	C 	0.5806	0.662	0.2589	0.392
Mof_In	In	0.21397	0.89514	0.63098	2.425
Mof_O 	O 	0.2293	0.715	0.60412	-0.457
Mof_O 	O 	0.1945	0.8293	0.51572	-0.571
Mof_O 	O 	0.8638	0.5154	0.4297	-0.482
Mof_O 	O 	0.8851	0.6275	0.33737	-0.56
Mof_O 	O 	0.1218	0.0261	0.57369	-0.486
Mof_O 	O 	0.2042	0.0464	0.68728	-0.511
Mof_O 	O 	0.8192	0.3389	0.74442	-0.535
Mof_O 	O 	0.9533	0.3588	0.82717	-0.569
Mof_C 	C 	0.1874	0.659	0.4721	-0.078
Mof_C 	C 	0.0732	0.6107	0.4861	0.501
Mof_C 	C 	0.0457	0.566	0.4045	-0.351
Mof_H 	H 	0.0682	0.4964	0.4046	0.129
Mof_C 	C 	0.1153	0.6219	0.3424	0.065
Mof_H 	H 	0.1658	0.5771	0.317	-0.006
Mof_H 	H 	0.0695	0.6517	0.3024	0.021
Mof_C 	C 	0.1751	0.7007	0.3885	-0.166
Mof_H 	H 	0.1341	0.762	0.3893	0.085
Mof_H 	H 	0.2456	0.7135	0.3653	0.074
Mof_C 	C 	0.2785	0.5834	0.4738	-0.362
Mof_H 	H 	0.3462	0.616	0.4636	0.127
Mof_H 	H 	0.2659	0.534	0.4342	0.115
Mof_H 	H 	0.281	0.5525	0.5247	0.122
Mof_C 	C 	0.9893	0.6893	0.5114	-0.892
Mof_H 	H 	0.0088	0.7155	0.562	0.28
Mof_H 	H 	0.9188	0.6595	0.5144	0.287
Mof_H 	H 	0.9881	0.7421	0.4734	0.29
Mof_C 	C 	0.0735	0.5327	0.5495	-0.999
Mof_H 	H 	0.0894	0.563	0.5994	0.315
Mof_H 	H 	0.1276	0.4838	0.5378	0.31
Mof_H 	H 	0.0036	0.5016	0.5519	0.322
Mof_C 	C 	0.2072	0.7387	0.535	0.301
Mof_C 	C 	0.9234	0.5697	0.389	0.391
Mof_C 	C 	0.1135	0.1898	0.6315	-0.081
Mof_C 	C 	0.9982	0.2016	0.6704	0.53
Mof_C 	C 	0.9989	0.3131	0.6937	-0.372
Mof_H 	H 	0.9762	0.3504	0.6471	0.129
Mof_C 	C 	0.1166	0.3424	0.7107	0.087
Mof_H 	H 	0.1364	0.4011	0.6811	-0.024
Mof_H 	H 	0.1267	0.3557	0.7664	0.001
Mof_C 	C 	0.1844	0.2542	0.6852	-0.18
Mof_H 	H 	0.2075	0.2165	0.7308	0.086
Mof_H 	H 	0.2483	0.2765	0.657	0.076
Mof_C 	C 	0.1175	0.2293	0.5471	-0.354
Mof_H 	H 	0.0717	0.1894	0.5141	0.129
Mof_H 	H 	0.1906	0.2265	0.528	0.125
Mof_H 	H 	0.0925	0.2966	0.5463	0.108
Mof_C 	C 	0.9052	0.1745	0.6152	-1.024
Mof_H 	H 	0.9087	0.1052	0.6029	0.326
Mof_H 	H 	0.911	0.2125	0.5676	0.32
Mof_H 	H 	0.8373	0.1889	0.6404	0.333
Mof_C 	C 	0.9886	0.1382	0.7446	-0.978
Mof_H 	H 	0.0463	0.1546	0.7802	0.316
Mof_H 	H 	0.9933	0.0694	0.7306	0.311
Mof_H 	H 	0.9202	0.1508	0.7695	0.309
Mof_C 	C 	0.1481	0.0816	0.6307	0.298
Mof_C 	C 	0.9194	0.338	0.7589	0.392
Mof_In	In	0.71397	0.60486	0.36902	2.427
Mof_O 	O 	0.7293	0.785	0.39588	-0.457
Mof_O 	O 	0.6945	0.6707	0.48428	-0.571
Mof_O 	O 	0.3638	0.9846	0.5703	-0.482
Mof_O 	O 	0.3851	0.8725	0.66263	-0.561
Mof_O 	O 	0.6218	0.4739	0.42631	-0.486
Mof_O 	O 	0.7042	0.4536	0.31272	-0.511
Mof_O 	O 	0.3192	0.1611	0.25558	-0.535
Mof_O 	O 	0.4533	0.1412	0.17283	-0.569
Mof_C 	C 	0.6874	0.841	0.5279	-0.077
Mof_C 	C 	0.5732	0.8893	0.5139	0.503
Mof_C 	C 	0.5457	0.934	0.5955	-0.35
Mof_H 	H 	0.5682	0.0036	0.5954	0.129
Mof_C 	C 	0.6153	0.8781	0.6576	0.065
Mof_H 	H 	0.6658	0.9229	0.683	-0.006
Mof_H 	H 	0.5695	0.8483	0.6976	0.021
Mof_C 	C 	0.6751	0.7993	0.6115	-0.166
Mof_H 	H 	0.6341	0.738	0.6107	0.085
Mof_H 	H 	0.7456	0.7865	0.6347	0.074
Mof_C 	C 	0.7785	0.9166	0.5262	-0.363
Mof_H 	H 	0.8462	0.884	0.5364	0.128
Mof_H 	H 	0.7659	0.966	0.5658	0.116
Mof_H 	H 	0.781	0.9475	0.4753	0.123
Mof_C 	C 	0.4893	0.8107	0.4886	-0.898
Mof_H 	H 	0.5088	0.7845	0.438	0.283
Mof_H 	H 	0.4188	0.8405	0.4856	0.288
Mof_H 	H 	0.4881	0.7579	0.5266	0.292
Mof_C 	C 	0.5735	0.9673	0.4505	-0.998
Mof_H 	H 	0.5894	0.937	0.4006	0.315
Mof_H 	H 	0.6276	0.0162	0.4622	0.309
Mof_H 	H 	0.5036	0.9984	0.4481	0.322
Mof_C 	C 	0.7072	0.7613	0.465	0.301
Mof_C 	C 	0.4234	0.9303	0.611	0.39
Mof_C 	C 	0.6135	0.3102	0.3685	-0.08
Mof_C 	C 	0.4982	0.2984	0.3296	0.528
Mof_C 	C 	0.4989	0.1869	0.3063	-0.371
Mof_H 	H 	0.4762	0.1496	0.3529	0.128
Mof_C 	C 	0.6166	0.1576	0.2893	0.088
Mof_H 	H 	0.6364	0.0989	0.3189	-0.025
Mof_H 	H 	0.6267	0.1443	0.2336	0.001
Mof_C 	C 	0.6844	0.2458	0.3148	-0.18
Mof_H 	H 	0.7075	0.2835	0.2692	0.086
Mof_H 	H 	0.7483	0.2235	0.343	0.076
Mof_C 	C 	0.6175	0.2707	0.4529	-0.355
Mof_H 	H 	0.5717	0.3106	0.4859	0.129
Mof_H 	H 	0.6906	0.2735	0.472	0.126
Mof_H 	H 	0.5925	0.2034	0.4537	0.109
Mof_C 	C 	0.4052	0.3255	0.3848	-1.022
Mof_H 	H 	0.4087	0.3948	0.3971	0.325
Mof_H 	H 	0.411	0.2875	0.4324	0.32
Mof_H 	H 	0.3373	0.3111	0.3596	0.333
Mof_C 	C 	0.4886	0.3618	0.2554	-0.975
Mof_H 	H 	0.5463	0.3454	0.2198	0.315
Mof_H 	H 	0.4933	0.4306	0.2694	0.31
Mof_H 	H 	0.4202	0.3492	0.2305	0.308
Mof_C 	C 	0.6481	0.4184	0.3693	0.298
Mof_C 	C 	0.4194	0.162	0.2411	0.392
Mof_In	In	0.78603	0.39514	0.86902	2.427
Mof_O 	O 	0.7707	0.215	0.89588	-0.456
Mof_O 	O 	0.8055	0.3293	0.98428	-0.571
Mof_O 	O 	0.1362	0.0154	0.0703	-0.483
Mof_O 	O 	0.1149	0.1275	0.16263	-0.561
Mof_O 	O 	0.8782	0.5261	0.92631	-0.486
Mof_O 	O 	0.7958	0.5464	0.81272	-0.511
Mof_O 	O 	0.1808	0.8389	0.75558	-0.536
Mof_O 	O 	0.0467	0.8588	0.67283	-0.569
Mof_C 	C 	0.8126	0.159	0.0279	-0.074
Mof_C 	C 	0.9268	0.1107	0.0139	0.497
Mof_C 	C 	0.9543	0.066	0.0955	-0.353
Mof_H 	H 	0.9318	0.9964	0.0954	0.133
Mof_C 	C 	0.8847	0.1219	0.1576	0.068
Mof_H 	H 	0.8342	0.0771	0.183	-0.007
Mof_H 	H 	0.9305	0.1517	0.1976	0.02
Mof_C 	C 	0.8249	0.2007	0.1115	-0.169
Mof_H 	H 	0.8659	0.262	0.1107	0.086
Mof_H 	H 	0.7544	0.2135	0.1347	0.075
Mof_C 	C 	0.7215	0.0834	0.0262	-0.368
Mof_H 	H 	0.6538	0.116	0.0364	0.129
Mof_H 	H 	0.7341	0.034	0.0658	0.116
Mof_H 	H 	0.719	0.0525	0.9753	0.125
Mof_C 	C 	0.0107	0.1893	0.9886	-0.884
Mof_H 	H 	0.9912	0.2155	0.938	0.278
Mof_H 	H 	0.0812	0.1595	0.9856	0.285
Mof_H 	H 	0.0119	0.2421	0.0266	0.286
Mof_C 	C 	0.9265	0.0327	0.9505	-0.986
Mof_H 	H 	0.9106	0.063	0.9006	0.312
Mof_H 	H 	0.8724	0.9838	0.9622	0.304
Mof_H 	H 	0.9964	0.0016	0.9481	0.319
Mof_C 	C 	0.7928	0.2387	0.965	0.3
Mof_C 	C 	0.0766	0.0697	0.111	0.389
Mof_C 	C 	0.8865	0.6898	0.8685	-0.081
Mof_C 	C 	0.0018	0.7016	0.8296	0.529
Mof_C 	C 	0.0011	0.8131	0.8063	-0.372
Mof_H 	H 	0.0238	0.8504	0.8529	0.128
Mof_C 	C 	0.8834	0.8424	0.7893	0.088
Mof_H 	H 	0.8636	0.9011	0.8189	-0.025
Mof_H 	H 	0.8733	0.8557	0.7336	0.001
Mof_C 	C 	0.8156	0.7542	0.8148	-0.18
Mof_H 	H 	0.7925	0.7165	0.7692	0.085
Mof_H 	H 	0.7517	0.7765	0.843	0.076
Mof_C 	C 	0.8825	0.7293	0.9529	-0.352
Mof_H 	H 	0.9283	0.6894	0.9859	0.128
Mof_H 	H 	0.8094	0.7265	0.972	0.124
Mof_H 	H 	0.9075	0.7966	0.9537	0.107
Mof_C 	C 	0.0948	0.6745	0.8848	-1.022
Mof_H 	H 	0.0913	0.6052	0.8971	0.325
Mof_H 	H 	0.089	0.7125	0.9324	0.319
Mof_H 	H 	0.1627	0.6889	0.8596	0.332
Mof_C 	C 	0.0114	0.6382	0.7554	-0.978
Mof_H 	H 	0.9537	0.6546	0.7198	0.316
Mof_H 	H 	0.0067	0.5694	0.7694	0.31
Mof_H 	H 	0.0798	0.6508	0.7305	0.308
Mof_C 	C 	0.8519	0.5816	0.8693	0.298
Mof_C 	C 	0.0806	0.838	0.7411	0.392
_end
