data_functionalizedCrystal
_audit_creation_method	'EQeq! by Chris Wilmer'
_symmetry_space_group_name_H-M	'P1'
_symmetry_Int_Tables_number	1
_symmetry_cell_setting	triclinic
loop_
_symmetry_equiv_pos_as_xyz
  x,y,z
_cell_length_a	6.712
_cell_length_b	11.2486
_cell_length_c	17.965
_cell_angle_alpha	90
_cell_angle_beta	91.975
_cell_angle_gamma	90
loop_
_atom_site_label
_atom_site_type_symbol
_atom_site_fract_x
_atom_site_fract_y
_atom_site_fract_z
_atom_site_charge
Mof_O 	O 	0.3944	0.8785	0.4275	-0.631
Mof_C 	C 	0.238	0.8692	0.3946	0.597
Mof_C 	C 	0.2403	0.803	0.3187	-0.054
Mof_C 	C 	0.0716	0.7834	0.2778	-0.17
Mof_C 	C 	0.0806	0.7286	0.2082	-0.114
Mof_O 	O 	0.4302	0.598	0.0875	-0.917
Mof_H 	H 	0.5546	0.79	0.3237	0.077
Mof_H 	H 	0.5697	0.689	0.2018	0.043
Mof_H 	H 	0.25	0.3342	-0	0.246
Mof_O 	O 	0.8944	0.3785	0.9275	-0.596
Mof_C 	C 	0.738	0.3692	0.8946	0.702
Mof_C 	C 	0.7403	0.303	0.8187	-0.193
Mof_C 	C 	0.5716	0.2834	0.7778	0.015
Mof_C 	C 	0.5806	0.2286	0.7082	0.011
Mof_O 	O 	0.9302	0.098	0.5875	-0.613
Mof_H 	H 	0.0546	0.29	0.8237	-0.115
Mof_H 	H 	0.0697	0.189	0.7018	-0.148
Mof_H 	H 	0.75	0.8342	0.5	0.303
Mof_O 	O 	0.1056	0.8785	0.5725	-0.595
Mof_C 	C 	0.262	0.8692	0.6054	0.595
Mof_C 	C 	0.2597	0.803	0.6813	-0.056
Mof_C 	C 	0.4284	0.7834	0.7222	0.01
Mof_C 	C 	0.4194	0.7286	0.7918	0.043
Mof_O 	O 	0.0698	0.598	0.9125	-0.73
Mof_H 	H 	0.9454	0.79	0.6763	0.208
Mof_H 	H 	0.9303	0.689	0.7982	0.196
Mof_O 	O 	0.6056	0.3785	0.0725	-0.988
Mof_C 	C 	0.762	0.3692	0.1054	0.745
Mof_C 	C 	0.7597	0.303	0.1813	-0.259
Mof_C 	C 	0.9284	0.2834	0.2222	0.197
Mof_C 	C 	0.9194	0.2286	0.2918	0.148
Mof_O 	O 	0.5698	0.098	0.4125	-0.818
Mof_H 	H 	0.4454	0.29	0.1763	-0.017
Mof_H 	H 	0.4303	0.189	0.2982	-0.012
Mof_O 	O 	0.6056	0.1215	0.5725	-0.817
Mof_C 	C 	0.762	0.1308	0.6054	0.625
Mof_C 	C 	0.7597	0.197	0.6813	-0.216
Mof_C 	C 	0.9284	0.2166	0.7222	0.179
Mof_C 	C 	0.9194	0.2714	0.7918	0.167
Mof_O 	O 	0.5698	0.402	0.9125	-0.779
Mof_H 	H 	0.4454	0.21	0.6763	-0.003
Mof_H 	H 	0.4303	0.311	0.7982	0.018
Mof_O 	O 	0.1056	0.6215	0.0725	-0.922
Mof_C 	C 	0.262	0.6308	0.1054	0.725
Mof_C 	C 	0.2597	0.697	0.1813	-0.153
Mof_C 	C 	0.4284	0.7166	0.2222	0.048
Mof_C 	C 	0.4194	0.7714	0.2918	-0.009
Mof_O 	O 	0.0698	0.902	0.4125	-0.56
Mof_H 	H 	0.9454	0.71	0.1763	0.178
Mof_H 	H 	0.9303	0.811	0.2982	0.215
Mof_H 	H 	0.25	0.1658	0.5	0.299
Mof_O 	O 	0.8944	0.1215	0.4275	-0.617
Mof_C 	C 	0.738	0.1308	0.3946	0.61
Mof_C 	C 	0.7403	0.197	0.3187	-0.201
Mof_C 	C 	0.5716	0.2166	0.2778	-0.013
Mof_C 	C 	0.5806	0.2714	0.2082	0.025
Mof_O 	O 	0.9302	0.402	0.0875	-0.736
Mof_H 	H 	0.0546	0.21	0.3237	-0.141
Mof_H 	H 	0.0697	0.311	0.2018	-0.147
Mof_H 	H 	0.75	0.6658	-0	0.357
Mof_O 	O 	0.3944	0.6215	0.9275	-0.759
Mof_C 	C 	0.238	0.6308	0.8946	0.701
Mof_C 	C 	0.2403	0.697	0.8187	-0.102
Mof_C 	C 	0.0716	0.7166	0.7778	-0.118
Mof_C 	C 	0.0806	0.7714	0.7082	-0.149
Mof_O 	O 	0.4302	0.902	0.5875	-0.585
Mof_H 	H 	0.5546	0.71	0.8237	0.077
Mof_H 	H 	0.5697	0.811	0.7018	0.088
Mof_Ga	Ga	0.5	0	0.5	2.581
Mof_Ga	Ga	-0	0.5	-0	2.684
Mof_Ga	Ga	5.19065e-33	0	0.5	1.817
Mof_Ga	Ga	0.5	0.5	-0	3.445
Mof_O 	O 	0.25	0.0769	0.5	-1.201
Mof_O 	O 	0.75	0.5769	-0	-1.424
Mof_O 	O 	0.75	0.9231	0.5	-0.8
Mof_O 	O 	0.25	0.4231	-0	-1.497
_end
