data_functionalizedCrystal
_audit_creation_method	'EQeq! by Chris Wilmer'
_symmetry_space_group_name_H-M	'P1'
_symmetry_Int_Tables_number	1
_symmetry_cell_setting	triclinic
loop_
_symmetry_equiv_pos_as_xyz
  x,y,z
_cell_length_a	12.1678
_cell_length_b	22.691
_cell_length_c	34.3938
_cell_angle_alpha	90
_cell_angle_beta	90
_cell_angle_gamma	90
loop_
_atom_site_label
_atom_site_type_symbol
_atom_site_fract_x
_atom_site_fract_y
_atom_site_fract_z
_atom_site_charge
Mof_Zn	Zn	0.99281	0.57513	0.75201	1.245
Mof_N 	N 	0.0625	0.4898	0.74931	-0.224
Mof_N 	N 	0.1382	0.4005	0.74576	-0.218
Mof_O 	O 	0.9373	0.5412	0.80375	-0.473
Mof_O 	O 	0.9378	0.4632	0.84195	-0.485
Mof_C 	C 	0.1268	0.453	0.7289	0.137
Mof_O 	O 	0.0185	0.3465	0.83402	-0.528
Mof_O 	O 	0.1516	0.3121	0.79699	-0.468
Mof_C 	C 	0.0763	0.4028	0.77921	-0.09
Mof_C 	C 	0.0302	0.4576	0.78123	-0.07
Mof_C 	C 	0.1839	0.4694	0.6927	-0.092
Mof_N 	N 	0.2926	0.4391	0.63781	-0.288
Mof_C 	C 	0.0795	0.3511	0.8055	0.412
Mof_C 	C 	0.2539	0.5405	0.6476	-0.108
Mof_H 	H 	0.2607	0.5792	0.6391	0.071
Mof_C 	C 	0.1957	0.5275	0.6809	0.023
Mof_H 	H 	0.1643	0.5577	0.6954	0.02
Mof_C 	C 	0.3013	0.4955	0.6273	0.06
Mof_H 	H 	0.3417	0.5045	0.6052	-0.012
Mof_C 	C 	0.9621	0.4877	0.8114	0.391
Mof_C 	C 	0.2342	0.4265	0.67	0.043
Mof_H 	H 	0.2273	0.3873	0.6774	-0.028
Mof_Zn	Zn	0.99281	0.07513	0.25201	1.245
Mof_N 	N 	0.0625	0.9898	0.24931	-0.224
Mof_N 	N 	0.1382	0.9005	0.24576	-0.218
Mof_O 	O 	0.9373	0.0412	0.30375	-0.472
Mof_O 	O 	0.9378	0.9632	0.34195	-0.484
Mof_C 	C 	0.1268	0.953	0.2289	0.137
Mof_O 	O 	0.0185	0.8465	0.33402	-0.528
Mof_O 	O 	0.1516	0.8121	0.29699	-0.468
Mof_C 	C 	0.0763	0.9028	0.27921	-0.09
Mof_C 	C 	0.0302	0.9576	0.28123	-0.069
Mof_C 	C 	0.1839	0.9694	0.1927	-0.092
Mof_N 	N 	0.2926	0.9391	0.13781	-0.288
Mof_C 	C 	0.0795	0.8511	0.3055	0.412
Mof_C 	C 	0.2539	0.0405	0.1476	-0.108
Mof_H 	H 	0.2607	0.0792	0.1391	0.071
Mof_C 	C 	0.1957	0.0275	0.1809	0.022
Mof_H 	H 	0.1643	0.0577	0.1954	0.02
Mof_C 	C 	0.3013	0.9955	0.1273	0.061
Mof_H 	H 	0.3417	0.0045	0.1052	-0.013
Mof_C 	C 	0.9621	0.9877	0.3114	0.388
Mof_C 	C 	0.2342	0.9265	0.17	0.042
Mof_H 	H 	0.2273	0.8873	0.1774	-0.028
Mof_Zn	Zn	0.49281	0.57513	0.25201	1.244
Mof_N 	N 	0.5625	0.4898	0.24931	-0.225
Mof_N 	N 	0.6382	0.4005	0.24576	-0.219
Mof_O 	O 	0.4373	0.5412	0.30375	-0.474
Mof_O 	O 	0.4378	0.4632	0.34195	-0.486
Mof_C 	C 	0.6268	0.453	0.2289	0.136
Mof_O 	O 	0.5185	0.3465	0.33402	-0.529
Mof_O 	O 	0.6516	0.3121	0.29699	-0.469
Mof_C 	C 	0.5763	0.4028	0.27921	-0.091
Mof_C 	C 	0.5302	0.4576	0.28123	-0.072
Mof_C 	C 	0.6839	0.4694	0.1927	-0.094
Mof_N 	N 	0.7926	0.4391	0.13781	-0.289
Mof_C 	C 	0.5795	0.3511	0.3055	0.411
Mof_C 	C 	0.7539	0.5405	0.1476	-0.109
Mof_H 	H 	0.7607	0.5792	0.1391	0.07
Mof_C 	C 	0.6957	0.5275	0.1809	0.022
Mof_H 	H 	0.6643	0.5577	0.1954	0.018
Mof_C 	C 	0.8013	0.4955	0.1273	0.059
Mof_H 	H 	0.8417	0.5045	0.1052	-0.013
Mof_C 	C 	0.4621	0.4877	0.3114	0.39
Mof_C 	C 	0.7342	0.4265	0.17	0.042
Mof_H 	H 	0.7273	0.3873	0.1774	-0.029
Mof_Zn	Zn	0.49281	0.07513	0.75201	1.244
Mof_N 	N 	0.5625	0.9898	0.74931	-0.225
Mof_N 	N 	0.6382	0.9005	0.74576	-0.219
Mof_O 	O 	0.4373	0.0412	0.80375	-0.474
Mof_O 	O 	0.4378	0.9632	0.84195	-0.486
Mof_C 	C 	0.6268	0.953	0.7289	0.136
Mof_O 	O 	0.5185	0.8465	0.83402	-0.529
Mof_O 	O 	0.6516	0.8121	0.79699	-0.469
Mof_C 	C 	0.5763	0.9028	0.77921	-0.091
Mof_C 	C 	0.5302	0.9576	0.78123	-0.072
Mof_C 	C 	0.6839	0.9694	0.6927	-0.093
Mof_N 	N 	0.7926	0.9391	0.63781	-0.289
Mof_C 	C 	0.5795	0.8511	0.8055	0.411
Mof_C 	C 	0.7539	0.0405	0.6476	-0.106
Mof_H 	H 	0.7607	0.0792	0.6391	0.069
Mof_C 	C 	0.6957	0.0275	0.6809	0.021
Mof_H 	H 	0.6643	0.0577	0.6954	0.019
Mof_C 	C 	0.8013	0.9955	0.6273	0.056
Mof_H 	H 	0.8417	0.0045	0.6052	-0.011
Mof_C 	C 	0.4621	0.9877	0.8114	0.39
Mof_C 	C 	0.7342	0.9265	0.67	0.042
Mof_H 	H 	0.7273	0.8873	0.6774	-0.028
Mof_Zn	Zn	0.75719	0.17487	0.75201	1.244
Mof_N 	N 	0.6875	0.2602	0.74931	-0.225
Mof_N 	N 	0.6118	0.3495	0.74576	-0.219
Mof_O 	O 	0.8127	0.2088	0.80375	-0.474
Mof_O 	O 	0.8122	0.2868	0.84195	-0.486
Mof_C 	C 	0.6232	0.297	0.7289	0.136
Mof_O 	O 	0.7315	0.4035	0.83402	-0.529
Mof_O 	O 	0.5984	0.4379	0.79699	-0.469
Mof_C 	C 	0.6737	0.3472	0.77921	-0.091
Mof_C 	C 	0.7198	0.2924	0.78123	-0.072
Mof_C 	C 	0.5661	0.2806	0.6927	-0.094
Mof_N 	N 	0.4574	0.3109	0.63781	-0.289
Mof_C 	C 	0.6705	0.3989	0.8055	0.411
Mof_C 	C 	0.4961	0.2095	0.6476	-0.109
Mof_H 	H 	0.4893	0.1708	0.6391	0.07
Mof_C 	C 	0.5543	0.2225	0.6809	0.022
Mof_H 	H 	0.5857	0.1923	0.6954	0.018
Mof_C 	C 	0.4487	0.2545	0.6273	0.059
Mof_H 	H 	0.4083	0.2455	0.6052	-0.013
Mof_C 	C 	0.7879	0.2623	0.8114	0.39
Mof_C 	C 	0.5158	0.3235	0.67	0.042
Mof_H 	H 	0.5227	0.3627	0.6774	-0.029
Mof_Zn	Zn	0.75719	0.67487	0.25201	1.244
Mof_N 	N 	0.6875	0.7602	0.24931	-0.225
Mof_N 	N 	0.6118	0.8495	0.24576	-0.219
Mof_O 	O 	0.8127	0.7088	0.30375	-0.474
Mof_O 	O 	0.8122	0.7868	0.34195	-0.486
Mof_C 	C 	0.6232	0.797	0.2289	0.136
Mof_O 	O 	0.7315	0.9035	0.33402	-0.529
Mof_O 	O 	0.5984	0.9379	0.29699	-0.469
Mof_C 	C 	0.6737	0.8472	0.27921	-0.091
Mof_C 	C 	0.7198	0.7924	0.28123	-0.072
Mof_C 	C 	0.5661	0.7806	0.1927	-0.094
Mof_N 	N 	0.4574	0.8109	0.13781	-0.289
Mof_C 	C 	0.6705	0.8989	0.3055	0.411
Mof_C 	C 	0.4961	0.7095	0.1476	-0.109
Mof_H 	H 	0.4893	0.6708	0.1391	0.07
Mof_C 	C 	0.5543	0.7225	0.1809	0.022
Mof_H 	H 	0.5857	0.6923	0.1954	0.018
Mof_C 	C 	0.4487	0.7545	0.1273	0.059
Mof_H 	H 	0.4083	0.7455	0.1052	-0.013
Mof_C 	C 	0.7879	0.7623	0.3114	0.39
Mof_C 	C 	0.5158	0.8235	0.17	0.042
Mof_H 	H 	0.5227	0.8627	0.1774	-0.029
Mof_Zn	Zn	0.25719	0.17487	0.25201	1.244
Mof_N 	N 	0.1875	0.2602	0.24931	-0.225
Mof_N 	N 	0.1118	0.3495	0.24576	-0.219
Mof_O 	O 	0.3127	0.2088	0.30375	-0.474
Mof_O 	O 	0.3122	0.2868	0.34195	-0.486
Mof_C 	C 	0.1232	0.297	0.2289	0.135
Mof_O 	O 	0.2315	0.4035	0.33402	-0.529
Mof_O 	O 	0.0984	0.4379	0.29699	-0.469
Mof_C 	C 	0.1737	0.3472	0.27921	-0.091
Mof_C 	C 	0.2198	0.2924	0.28123	-0.072
Mof_C 	C 	0.0661	0.2806	0.1927	-0.092
Mof_N 	N 	0.9574	0.3109	0.13781	-0.288
Mof_C 	C 	0.1705	0.3989	0.3055	0.411
Mof_C 	C 	0.9961	0.2095	0.1476	-0.106
Mof_H 	H 	0.9893	0.1708	0.1391	0.07
Mof_C 	C 	0.0543	0.2225	0.1809	0.02
Mof_H 	H 	0.0857	0.1923	0.1954	0.019
Mof_C 	C 	0.9487	0.2545	0.1273	0.058
Mof_H 	H 	0.9083	0.2455	0.1052	-0.012
Mof_C 	C 	0.2879	0.2623	0.3114	0.39
Mof_C 	C 	0.0158	0.3235	0.17	0.041
Mof_H 	H 	0.0227	0.3627	0.1774	-0.028
Mof_Zn	Zn	0.25719	0.67487	0.75201	1.244
Mof_N 	N 	0.1875	0.7602	0.74931	-0.225
Mof_N 	N 	0.1118	0.8495	0.74576	-0.219
Mof_O 	O 	0.3127	0.7088	0.80375	-0.474
Mof_O 	O 	0.3122	0.7868	0.84195	-0.486
Mof_C 	C 	0.1232	0.797	0.7289	0.136
Mof_O 	O 	0.2315	0.9035	0.83402	-0.529
Mof_O 	O 	0.0984	0.9379	0.79699	-0.469
Mof_C 	C 	0.1737	0.8472	0.77921	-0.091
Mof_C 	C 	0.2198	0.7924	0.78123	-0.072
Mof_C 	C 	0.0661	0.7806	0.6927	-0.095
Mof_N 	N 	0.9574	0.8109	0.63781	-0.29
Mof_C 	C 	0.1705	0.8989	0.8055	0.411
Mof_C 	C 	0.9961	0.7095	0.6476	-0.111
Mof_H 	H 	0.9893	0.6708	0.6391	0.071
Mof_C 	C 	0.0543	0.7225	0.6809	0.025
Mof_H 	H 	0.0857	0.6923	0.6954	0.018
Mof_C 	C 	0.9487	0.7545	0.6273	0.06
Mof_H 	H 	0.9083	0.7455	0.6052	-0.013
Mof_C 	C 	0.2879	0.7623	0.8114	0.39
Mof_C 	C 	0.0158	0.8235	0.67	0.044
Mof_H 	H 	0.0227	0.8627	0.6774	-0.029
Mof_Zn	Zn	0.75719	0.57513	0.99799	1.244
Mof_N 	N 	0.6875	0.4898	0.00069	-0.224
Mof_N 	N 	0.6118	0.4005	0.00424	-0.219
Mof_O 	O 	0.8127	0.5412	0.94625	-0.474
Mof_O 	O 	0.8122	0.4632	0.90805	-0.486
Mof_C 	C 	0.6232	0.453	0.0211	0.136
Mof_O 	O 	0.7315	0.3465	0.91598	-0.529
Mof_O 	O 	0.5984	0.3121	0.95301	-0.469
Mof_C 	C 	0.6737	0.4028	0.97079	-0.091
Mof_C 	C 	0.7198	0.4576	0.96877	-0.072
Mof_C 	C 	0.5661	0.4694	0.0573	-0.093
Mof_N 	N 	0.4574	0.4391	0.11219	-0.289
Mof_C 	C 	0.6705	0.3511	0.9445	0.411
Mof_C 	C 	0.4961	0.5405	0.1024	-0.109
Mof_H 	H 	0.4893	0.5792	0.1109	0.07
Mof_C 	C 	0.5543	0.5275	0.0691	0.022
Mof_H 	H 	0.5857	0.5577	0.0546	0.018
Mof_C 	C 	0.4487	0.4955	0.1227	0.059
Mof_H 	H 	0.4083	0.5045	0.1448	-0.013
Mof_C 	C 	0.7879	0.4877	0.9386	0.39
Mof_C 	C 	0.5158	0.4265	0.08	0.042
Mof_H 	H 	0.5227	0.3873	0.0726	-0.029
Mof_Zn	Zn	0.75719	0.07513	0.49799	1.244
Mof_N 	N 	0.6875	0.9898	0.50069	-0.225
Mof_N 	N 	0.6118	0.9005	0.50424	-0.219
Mof_O 	O 	0.8127	0.0412	0.44625	-0.473
Mof_O 	O 	0.8122	0.9632	0.40805	-0.486
Mof_C 	C 	0.6232	0.953	0.5211	0.136
Mof_O 	O 	0.7315	0.8465	0.41598	-0.529
Mof_O 	O 	0.5984	0.8121	0.45301	-0.469
Mof_C 	C 	0.6737	0.9028	0.47079	-0.091
Mof_C 	C 	0.7198	0.9576	0.46877	-0.072
Mof_C 	C 	0.5661	0.9694	0.5573	-0.094
Mof_N 	N 	0.4574	0.9391	0.61219	-0.289
Mof_C 	C 	0.6705	0.8511	0.4445	0.411
Mof_C 	C 	0.4961	0.0405	0.6024	-0.11
Mof_H 	H 	0.4893	0.0792	0.6109	0.071
Mof_C 	C 	0.5543	0.0275	0.5691	0.023
Mof_H 	H 	0.5857	0.0577	0.5546	0.018
Mof_C 	C 	0.4487	0.9955	0.6227	0.06
Mof_H 	H 	0.4083	0.0045	0.6448	-0.013
Mof_C 	C 	0.7879	0.9877	0.4386	0.389
Mof_C 	C 	0.5158	0.9265	0.58	0.042
Mof_H 	H 	0.5227	0.8873	0.5726	-0.029
Mof_Zn	Zn	0.25719	0.57513	0.49799	1.244
Mof_N 	N 	0.1875	0.4898	0.50069	-0.225
Mof_N 	N 	0.1118	0.4005	0.50424	-0.219
Mof_O 	O 	0.3127	0.5412	0.44625	-0.474
Mof_O 	O 	0.3122	0.4632	0.40805	-0.486
Mof_C 	C 	0.1232	0.453	0.5211	0.136
Mof_O 	O 	0.2315	0.3465	0.41598	-0.529
Mof_O 	O 	0.0984	0.3121	0.45301	-0.469
Mof_C 	C 	0.1737	0.4028	0.47079	-0.091
Mof_C 	C 	0.2198	0.4576	0.46877	-0.072
Mof_C 	C 	0.0661	0.4694	0.5573	-0.094
Mof_N 	N 	0.9574	0.4391	0.61219	-0.289
Mof_C 	C 	0.1705	0.3511	0.4445	0.411
Mof_C 	C 	0.9961	0.5405	0.6024	-0.109
Mof_H 	H 	0.9893	0.5792	0.6109	0.07
Mof_C 	C 	0.0543	0.5275	0.5691	0.023
Mof_H 	H 	0.0857	0.5577	0.5546	0.018
Mof_C 	C 	0.9487	0.4955	0.6227	0.06
Mof_H 	H 	0.9083	0.5045	0.6448	-0.013
Mof_C 	C 	0.2879	0.4877	0.4386	0.39
Mof_C 	C 	0.0158	0.4265	0.58	0.042
Mof_H 	H 	0.0227	0.3873	0.5726	-0.029
Mof_Zn	Zn	0.25719	0.07513	0.99799	1.244
Mof_N 	N 	0.1875	0.9898	0.00069	-0.225
Mof_N 	N 	0.1118	0.9005	0.00424	-0.219
Mof_O 	O 	0.3127	0.0412	0.94625	-0.474
Mof_O 	O 	0.3122	0.9632	0.90805	-0.486
Mof_C 	C 	0.1232	0.953	0.0211	0.134
Mof_O 	O 	0.2315	0.8465	0.91598	-0.529
Mof_O 	O 	0.0984	0.8121	0.95301	-0.468
Mof_C 	C 	0.1737	0.9028	0.97079	-0.09
Mof_C 	C 	0.2198	0.9576	0.96877	-0.071
Mof_C 	C 	0.0661	0.9694	0.0573	-0.089
Mof_N 	N 	0.9574	0.9391	0.11219	-0.288
Mof_C 	C 	0.1705	0.8511	0.9445	0.411
Mof_C 	C 	0.9961	0.0405	0.1024	-0.099
Mof_H 	H 	0.9893	0.0792	0.1109	0.067
Mof_C 	C 	0.0543	0.0275	0.0691	0.014
Mof_H 	H 	0.0857	0.0577	0.0546	0.021
Mof_C 	C 	0.9487	0.9955	0.1227	0.051
Mof_H 	H 	0.9083	0.0045	0.1448	-0.009
Mof_C 	C 	0.2879	0.9877	0.9386	0.391
Mof_C 	C 	0.0158	0.9265	0.08	0.04
Mof_H 	H 	0.0227	0.8873	0.0726	-0.028
Mof_Zn	Zn	0.99281	0.17487	0.99799	1.244
Mof_N 	N 	0.0625	0.2602	0.00069	-0.225
Mof_N 	N 	0.1382	0.3495	0.00424	-0.22
Mof_O 	O 	0.9373	0.2088	0.94625	-0.474
Mof_O 	O 	0.9378	0.2868	0.90805	-0.486
Mof_C 	C 	0.1268	0.297	0.0211	0.136
Mof_O 	O 	0.0185	0.4035	0.91598	-0.529
Mof_O 	O 	0.1516	0.4379	0.95301	-0.468
Mof_C 	C 	0.0763	0.3472	0.97079	-0.09
Mof_C 	C 	0.0302	0.2924	0.96877	-0.071
Mof_C 	C 	0.1839	0.2806	0.0573	-0.094
Mof_N 	N 	0.2926	0.3109	0.11219	-0.289
Mof_C 	C 	0.0795	0.3989	0.9445	0.411
Mof_C 	C 	0.2539	0.2095	0.1024	-0.109
Mof_H 	H 	0.2607	0.1708	0.1109	0.07
Mof_C 	C 	0.1957	0.2225	0.0691	0.022
Mof_H 	H 	0.1643	0.1923	0.0546	0.018
Mof_C 	C 	0.3013	0.2545	0.1227	0.059
Mof_H 	H 	0.3417	0.2455	0.1448	-0.013
Mof_C 	C 	0.9621	0.2623	0.9386	0.39
Mof_C 	C 	0.2342	0.3235	0.08	0.042
Mof_H 	H 	0.2273	0.3627	0.0726	-0.029
Mof_Zn	Zn	0.99281	0.67487	0.49799	1.244
Mof_N 	N 	0.0625	0.7602	0.50069	-0.225
Mof_N 	N 	0.1382	0.8495	0.50424	-0.219
Mof_O 	O 	0.9373	0.7088	0.44625	-0.474
Mof_O 	O 	0.9378	0.7868	0.40805	-0.486
Mof_C 	C 	0.1268	0.797	0.5211	0.136
Mof_O 	O 	0.0185	0.9035	0.41598	-0.529
Mof_O 	O 	0.1516	0.9379	0.45301	-0.469
Mof_C 	C 	0.0763	0.8472	0.47079	-0.091
Mof_C 	C 	0.0302	0.7924	0.46877	-0.071
Mof_C 	C 	0.1839	0.7806	0.5573	-0.093
Mof_N 	N 	0.2926	0.8109	0.61219	-0.289
Mof_C 	C 	0.0795	0.8989	0.4445	0.411
Mof_C 	C 	0.2539	0.7095	0.6024	-0.109
Mof_H 	H 	0.2607	0.6708	0.6109	0.07
Mof_C 	C 	0.1957	0.7225	0.5691	0.022
Mof_H 	H 	0.1643	0.6923	0.5546	0.019
Mof_C 	C 	0.3013	0.7545	0.6227	0.059
Mof_H 	H 	0.3417	0.7455	0.6448	-0.013
Mof_C 	C 	0.9621	0.7623	0.4386	0.389
Mof_C 	C 	0.2342	0.8235	0.58	0.042
Mof_H 	H 	0.2273	0.8627	0.5726	-0.029
Mof_Zn	Zn	0.49281	0.17487	0.49799	1.244
Mof_N 	N 	0.5625	0.2602	0.50069	-0.225
Mof_N 	N 	0.6382	0.3495	0.50424	-0.219
Mof_O 	O 	0.4373	0.2088	0.44625	-0.474
Mof_O 	O 	0.4378	0.2868	0.40805	-0.486
Mof_C 	C 	0.6268	0.297	0.5211	0.136
Mof_O 	O 	0.5185	0.4035	0.41598	-0.529
Mof_O 	O 	0.6516	0.4379	0.45301	-0.469
Mof_C 	C 	0.5763	0.3472	0.47079	-0.091
Mof_C 	C 	0.5302	0.2924	0.46877	-0.072
Mof_C 	C 	0.6839	0.2806	0.5573	-0.094
Mof_N 	N 	0.7926	0.3109	0.61219	-0.289
Mof_C 	C 	0.5795	0.3989	0.4445	0.411
Mof_C 	C 	0.7539	0.2095	0.6024	-0.109
Mof_H 	H 	0.7607	0.1708	0.6109	0.07
Mof_C 	C 	0.6957	0.2225	0.5691	0.022
Mof_H 	H 	0.6643	0.1923	0.5546	0.018
Mof_C 	C 	0.8013	0.2545	0.6227	0.059
Mof_H 	H 	0.8417	0.2455	0.6448	-0.013
Mof_C 	C 	0.4621	0.2623	0.4386	0.39
Mof_C 	C 	0.7342	0.3235	0.58	0.042
Mof_H 	H 	0.7273	0.3627	0.5726	-0.029
Mof_Zn	Zn	0.49281	0.67487	0.99799	1.244
Mof_N 	N 	0.5625	0.7602	0.00069	-0.225
Mof_N 	N 	0.6382	0.8495	0.00424	-0.219
Mof_O 	O 	0.4373	0.7088	0.94625	-0.474
Mof_O 	O 	0.4378	0.7868	0.90805	-0.486
Mof_C 	C 	0.6268	0.797	0.0211	0.136
Mof_O 	O 	0.5185	0.9035	0.91598	-0.53
Mof_O 	O 	0.6516	0.9379	0.95301	-0.469
Mof_C 	C 	0.5763	0.8472	0.97079	-0.091
Mof_C 	C 	0.5302	0.7924	0.96877	-0.072
Mof_C 	C 	0.6839	0.7806	0.0573	-0.093
Mof_N 	N 	0.7926	0.8109	0.11219	-0.289
Mof_C 	C 	0.5795	0.8989	0.9445	0.411
Mof_C 	C 	0.7539	0.7095	0.1024	-0.109
Mof_H 	H 	0.7607	0.6708	0.1109	0.07
Mof_C 	C 	0.6957	0.7225	0.0691	0.022
Mof_H 	H 	0.6643	0.6923	0.0546	0.019
Mof_C 	C 	0.8013	0.7545	0.1227	0.059
Mof_H 	H 	0.8417	0.7455	0.1448	-0.013
Mof_C 	C 	0.4621	0.7623	0.9386	0.39
Mof_C 	C 	0.7342	0.8235	0.08	0.042
Mof_H 	H 	0.7273	0.8627	0.0726	-0.029
Mof_Zn	Zn	0.00719	0.42487	0.24799	1.244
Mof_N 	N 	0.9375	0.5102	0.25069	-0.225
Mof_N 	N 	0.8618	0.5995	0.25424	-0.219
Mof_O 	O 	0.0627	0.4588	0.19625	-0.474
Mof_O 	O 	0.0622	0.5368	0.15805	-0.486
Mof_C 	C 	0.8732	0.547	0.2711	0.136
Mof_O 	O 	0.9815	0.6535	0.16598	-0.529
Mof_O 	O 	0.8484	0.6879	0.20301	-0.469
Mof_C 	C 	0.9237	0.5972	0.22079	-0.091
Mof_C 	C 	0.9698	0.5424	0.21877	-0.071
Mof_C 	C 	0.8161	0.5306	0.3073	-0.093
Mof_N 	N 	0.7074	0.5609	0.36219	-0.289
Mof_C 	C 	0.9205	0.6489	0.1945	0.411
Mof_C 	C 	0.7461	0.4595	0.3524	-0.109
Mof_H 	H 	0.7393	0.4208	0.3609	0.07
Mof_C 	C 	0.8043	0.4725	0.3191	0.022
Mof_H 	H 	0.8357	0.4423	0.3046	0.019
Mof_C 	C 	0.6987	0.5045	0.3727	0.059
Mof_H 	H 	0.6583	0.4955	0.3948	-0.013
Mof_C 	C 	0.0379	0.5123	0.1886	0.39
Mof_C 	C 	0.7658	0.5735	0.33	0.042
Mof_H 	H 	0.7727	0.6127	0.3226	-0.029
Mof_Zn	Zn	0.00719	0.92487	0.74799	1.244
Mof_N 	N 	0.9375	0.0102	0.75069	-0.225
Mof_N 	N 	0.8618	0.0995	0.75424	-0.219
Mof_O 	O 	0.0627	0.9588	0.69625	-0.473
Mof_O 	O 	0.0622	0.0368	0.65805	-0.485
Mof_C 	C 	0.8732	0.047	0.7711	0.136
Mof_O 	O 	0.9815	0.1535	0.66598	-0.529
Mof_O 	O 	0.8484	0.1879	0.70301	-0.469
Mof_C 	C 	0.9237	0.0972	0.72079	-0.091
Mof_C 	C 	0.9698	0.0424	0.71877	-0.07
Mof_C 	C 	0.8161	0.0306	0.8073	-0.093
Mof_N 	N 	0.7074	0.0609	0.86219	-0.289
Mof_C 	C 	0.9205	0.1489	0.6945	0.411
Mof_C 	C 	0.7461	0.9595	0.8524	-0.109
Mof_H 	H 	0.7393	0.9208	0.8609	0.07
Mof_C 	C 	0.8043	0.9725	0.8191	0.021
Mof_H 	H 	0.8357	0.9423	0.8046	0.019
Mof_C 	C 	0.6987	0.0045	0.8727	0.06
Mof_H 	H 	0.6583	0.9955	0.8948	-0.013
Mof_C 	C 	0.0379	0.0123	0.6886	0.388
Mof_C 	C 	0.7658	0.0735	0.83	0.042
Mof_H 	H 	0.7727	0.1127	0.8226	-0.028
Mof_Zn	Zn	0.50719	0.42487	0.74799	1.244
Mof_N 	N 	0.4375	0.5102	0.75069	-0.225
Mof_N 	N 	0.3618	0.5995	0.75424	-0.219
Mof_O 	O 	0.5627	0.4588	0.69625	-0.474
Mof_O 	O 	0.5622	0.5368	0.65805	-0.486
Mof_C 	C 	0.3732	0.547	0.7711	0.136
Mof_O 	O 	0.4815	0.6535	0.66598	-0.529
Mof_O 	O 	0.3484	0.6879	0.70301	-0.469
Mof_C 	C 	0.4237	0.5972	0.72079	-0.091
Mof_C 	C 	0.4698	0.5424	0.71877	-0.072
Mof_C 	C 	0.3161	0.5306	0.8073	-0.094
Mof_N 	N 	0.2074	0.5609	0.86219	-0.289
Mof_C 	C 	0.4205	0.6489	0.6945	0.411
Mof_C 	C 	0.2461	0.4595	0.8524	-0.109
Mof_H 	H 	0.2393	0.4208	0.8609	0.07
Mof_C 	C 	0.3043	0.4725	0.8191	0.022
Mof_H 	H 	0.3357	0.4423	0.8046	0.018
Mof_C 	C 	0.1987	0.5045	0.8727	0.059
Mof_H 	H 	0.1583	0.4955	0.8948	-0.013
Mof_C 	C 	0.5379	0.5123	0.6886	0.39
Mof_C 	C 	0.2658	0.5735	0.83	0.042
Mof_H 	H 	0.2727	0.6127	0.8226	-0.029
Mof_Zn	Zn	0.50719	0.92487	0.24799	1.244
Mof_N 	N 	0.4375	0.0102	0.25069	-0.225
Mof_N 	N 	0.3618	0.0995	0.25424	-0.219
Mof_O 	O 	0.5627	0.9588	0.19625	-0.474
Mof_O 	O 	0.5622	0.0368	0.15805	-0.486
Mof_C 	C 	0.3732	0.047	0.2711	0.136
Mof_O 	O 	0.4815	0.1535	0.16598	-0.529
Mof_O 	O 	0.3484	0.1879	0.20301	-0.469
Mof_C 	C 	0.4237	0.0972	0.22079	-0.091
Mof_C 	C 	0.4698	0.0424	0.21877	-0.072
Mof_C 	C 	0.3161	0.0306	0.3073	-0.093
Mof_N 	N 	0.2074	0.0609	0.36219	-0.289
Mof_C 	C 	0.4205	0.1489	0.1945	0.411
Mof_C 	C 	0.2461	0.9595	0.3524	-0.106
Mof_H 	H 	0.2393	0.9208	0.3609	0.069
Mof_C 	C 	0.3043	0.9725	0.3191	0.021
Mof_H 	H 	0.3357	0.9423	0.3046	0.019
Mof_C 	C 	0.1987	0.0045	0.3727	0.056
Mof_H 	H 	0.1583	0.9955	0.3948	-0.011
Mof_C 	C 	0.5379	0.0123	0.1886	0.39
Mof_C 	C 	0.2658	0.0735	0.33	0.042
Mof_H 	H 	0.2727	0.1127	0.3226	-0.028
Mof_Zn	Zn	0.24281	0.82513	0.24799	1.244
Mof_N 	N 	0.3125	0.7398	0.25069	-0.225
Mof_N 	N 	0.3882	0.6505	0.25424	-0.219
Mof_O 	O 	0.1873	0.7912	0.19625	-0.474
Mof_O 	O 	0.1878	0.7132	0.15805	-0.486
Mof_C 	C 	0.3768	0.703	0.2711	0.136
Mof_O 	O 	0.2685	0.5965	0.16598	-0.529
Mof_O 	O 	0.4016	0.5621	0.20301	-0.469
Mof_C 	C 	0.3263	0.6528	0.22079	-0.091
Mof_C 	C 	0.2802	0.7076	0.21877	-0.072
Mof_C 	C 	0.4339	0.7194	0.3073	-0.094
Mof_N 	N 	0.5426	0.6891	0.36219	-0.289
Mof_C 	C 	0.3295	0.6011	0.1945	0.411
Mof_C 	C 	0.5039	0.7905	0.3524	-0.109
Mof_H 	H 	0.5107	0.8292	0.3609	0.07
Mof_C 	C 	0.4457	0.7775	0.3191	0.022
Mof_H 	H 	0.4143	0.8077	0.3046	0.018
Mof_C 	C 	0.5513	0.7455	0.3727	0.059
Mof_H 	H 	0.5917	0.7545	0.3948	-0.013
Mof_C 	C 	0.2121	0.7377	0.1886	0.39
Mof_C 	C 	0.4842	0.6765	0.33	0.042
Mof_H 	H 	0.4773	0.6373	0.3226	-0.029
Mof_Zn	Zn	0.24281	0.32513	0.74799	1.244
Mof_N 	N 	0.3125	0.2398	0.75069	-0.225
Mof_N 	N 	0.3882	0.1505	0.75424	-0.219
Mof_O 	O 	0.1873	0.2912	0.69625	-0.474
Mof_O 	O 	0.1878	0.2132	0.65805	-0.486
Mof_C 	C 	0.3768	0.203	0.7711	0.136
Mof_O 	O 	0.2685	0.0965	0.66598	-0.529
Mof_O 	O 	0.4016	0.0621	0.70301	-0.469
Mof_C 	C 	0.3263	0.1528	0.72079	-0.091
Mof_C 	C 	0.2802	0.2076	0.71877	-0.072
Mof_C 	C 	0.4339	0.2194	0.8073	-0.094
Mof_N 	N 	0.5426	0.1891	0.86219	-0.289
Mof_C 	C 	0.3295	0.1011	0.6945	0.411
Mof_C 	C 	0.5039	0.2905	0.8524	-0.109
Mof_H 	H 	0.5107	0.3292	0.8609	0.07
Mof_C 	C 	0.4457	0.2775	0.8191	0.022
Mof_H 	H 	0.4143	0.3077	0.8046	0.018
Mof_C 	C 	0.5513	0.2455	0.8727	0.059
Mof_H 	H 	0.5917	0.2545	0.8948	-0.013
Mof_C 	C 	0.2121	0.2377	0.6886	0.39
Mof_C 	C 	0.4842	0.1765	0.83	0.042
Mof_H 	H 	0.4773	0.1373	0.8226	-0.029
Mof_Zn	Zn	0.74281	0.82513	0.74799	1.244
Mof_N 	N 	0.8125	0.7398	0.75069	-0.225
Mof_N 	N 	0.8882	0.6505	0.75424	-0.219
Mof_O 	O 	0.6873	0.7912	0.69625	-0.474
Mof_O 	O 	0.6878	0.7132	0.65805	-0.486
Mof_C 	C 	0.8768	0.703	0.7711	0.135
Mof_O 	O 	0.7685	0.5965	0.66598	-0.529
Mof_O 	O 	0.9016	0.5621	0.70301	-0.469
Mof_C 	C 	0.8263	0.6528	0.72079	-0.091
Mof_C 	C 	0.7802	0.7076	0.71877	-0.072
Mof_C 	C 	0.9339	0.7194	0.8073	-0.092
Mof_N 	N 	0.0426	0.6891	0.86219	-0.288
Mof_C 	C 	0.8295	0.6011	0.6945	0.411
Mof_C 	C 	0.0039	0.7905	0.8524	-0.106
Mof_H 	H 	0.0107	0.8292	0.8609	0.07
Mof_C 	C 	0.9457	0.7775	0.8191	0.02
Mof_H 	H 	0.9143	0.8077	0.8046	0.019
Mof_C 	C 	0.0513	0.7455	0.8727	0.058
Mof_H 	H 	0.0917	0.7545	0.8948	-0.012
Mof_C 	C 	0.7121	0.7377	0.6886	0.39
Mof_C 	C 	0.9842	0.6765	0.83	0.041
Mof_H 	H 	0.9773	0.6373	0.8226	-0.028
Mof_Zn	Zn	0.74281	0.32513	0.24799	1.244
Mof_N 	N 	0.8125	0.2398	0.25069	-0.225
Mof_N 	N 	0.8882	0.1505	0.25424	-0.219
Mof_O 	O 	0.6873	0.2912	0.19625	-0.474
Mof_O 	O 	0.6878	0.2132	0.15805	-0.486
Mof_C 	C 	0.8768	0.203	0.2711	0.136
Mof_O 	O 	0.7685	0.0965	0.16598	-0.529
Mof_O 	O 	0.9016	0.0621	0.20301	-0.469
Mof_C 	C 	0.8263	0.1528	0.22079	-0.091
Mof_C 	C 	0.7802	0.2076	0.21877	-0.072
Mof_C 	C 	0.9339	0.2194	0.3073	-0.095
Mof_N 	N 	0.0426	0.1891	0.36219	-0.29
Mof_C 	C 	0.8295	0.1011	0.1945	0.411
Mof_C 	C 	0.0039	0.2905	0.3524	-0.111
Mof_H 	H 	0.0107	0.3292	0.3609	0.071
Mof_C 	C 	0.9457	0.2775	0.3191	0.025
Mof_H 	H 	0.9143	0.3077	0.3046	0.018
Mof_C 	C 	0.0513	0.2455	0.3727	0.06
Mof_H 	H 	0.0917	0.2545	0.3948	-0.013
Mof_C 	C 	0.7121	0.2377	0.1886	0.39
Mof_C 	C 	0.9842	0.1765	0.33	0.044
Mof_H 	H 	0.9773	0.1373	0.3226	-0.029
Mof_Zn	Zn	0.24281	0.42487	0.00201	1.244
Mof_N 	N 	0.3125	0.5102	0.99931	-0.224
Mof_N 	N 	0.3882	0.5995	0.99576	-0.219
Mof_O 	O 	0.1873	0.4588	0.05375	-0.474
Mof_O 	O 	0.1878	0.5368	0.09195	-0.486
Mof_C 	C 	0.3768	0.547	0.9789	0.136
Mof_O 	O 	0.2685	0.6535	0.08402	-0.529
Mof_O 	O 	0.4016	0.6879	0.04699	-0.469
Mof_C 	C 	0.3263	0.5972	0.02921	-0.091
Mof_C 	C 	0.2802	0.5424	0.03123	-0.072
Mof_C 	C 	0.4339	0.5306	0.9427	-0.093
Mof_N 	N 	0.5426	0.5609	0.88781	-0.289
Mof_C 	C 	0.3295	0.6489	0.0555	0.411
Mof_C 	C 	0.5039	0.4595	0.8976	-0.109
Mof_H 	H 	0.5107	0.4208	0.8891	0.07
Mof_C 	C 	0.4457	0.4725	0.9309	0.022
Mof_H 	H 	0.4143	0.4423	0.9454	0.018
Mof_C 	C 	0.5513	0.5045	0.8773	0.059
Mof_H 	H 	0.5917	0.4955	0.8552	-0.013
Mof_C 	C 	0.2121	0.5123	0.0614	0.39
Mof_C 	C 	0.4842	0.5735	0.92	0.042
Mof_H 	H 	0.4773	0.6127	0.9274	-0.029
Mof_Zn	Zn	0.24281	0.92487	0.50201	1.244
Mof_N 	N 	0.3125	0.0102	0.49931	-0.225
Mof_N 	N 	0.3882	0.0995	0.49576	-0.219
Mof_O 	O 	0.1873	0.9588	0.55375	-0.473
Mof_O 	O 	0.1878	0.0368	0.59195	-0.486
Mof_C 	C 	0.3768	0.047	0.4789	0.136
Mof_O 	O 	0.2685	0.1535	0.58402	-0.529
Mof_O 	O 	0.4016	0.1879	0.54699	-0.469
Mof_C 	C 	0.3263	0.0972	0.52921	-0.091
Mof_C 	C 	0.2802	0.0424	0.53123	-0.072
Mof_C 	C 	0.4339	0.0306	0.4427	-0.094
Mof_N 	N 	0.5426	0.0609	0.38781	-0.289
Mof_C 	C 	0.3295	0.1489	0.5555	0.411
Mof_C 	C 	0.5039	0.9595	0.3976	-0.11
Mof_H 	H 	0.5107	0.9208	0.3891	0.071
Mof_C 	C 	0.4457	0.9725	0.4309	0.023
Mof_H 	H 	0.4143	0.9423	0.4454	0.018
Mof_C 	C 	0.5513	0.0045	0.3773	0.06
Mof_H 	H 	0.5917	0.9955	0.3552	-0.013
Mof_C 	C 	0.2121	0.0123	0.5614	0.389
Mof_C 	C 	0.4842	0.0735	0.42	0.042
Mof_H 	H 	0.4773	0.1127	0.4274	-0.029
Mof_Zn	Zn	0.74281	0.42487	0.50201	1.244
Mof_N 	N 	0.8125	0.5102	0.49931	-0.225
Mof_N 	N 	0.8882	0.5995	0.49576	-0.219
Mof_O 	O 	0.6873	0.4588	0.55375	-0.474
Mof_O 	O 	0.6878	0.5368	0.59195	-0.486
Mof_C 	C 	0.8768	0.547	0.4789	0.136
Mof_O 	O 	0.7685	0.6535	0.58402	-0.529
Mof_O 	O 	0.9016	0.6879	0.54699	-0.469
Mof_C 	C 	0.8263	0.5972	0.52921	-0.091
Mof_C 	C 	0.7802	0.5424	0.53123	-0.072
Mof_C 	C 	0.9339	0.5306	0.4427	-0.094
Mof_N 	N 	0.0426	0.5609	0.38781	-0.289
Mof_C 	C 	0.8295	0.6489	0.5555	0.411
Mof_C 	C 	0.0039	0.4595	0.3976	-0.109
Mof_H 	H 	0.0107	0.4208	0.3891	0.07
Mof_C 	C 	0.9457	0.4725	0.4309	0.023
Mof_H 	H 	0.9143	0.4423	0.4454	0.018
Mof_C 	C 	0.0513	0.5045	0.3773	0.06
Mof_H 	H 	0.0917	0.4955	0.3552	-0.013
Mof_C 	C 	0.7121	0.5123	0.5614	0.39
Mof_C 	C 	0.9842	0.5735	0.42	0.042
Mof_H 	H 	0.9773	0.6127	0.4274	-0.029
Mof_Zn	Zn	0.74281	0.92487	0.00201	1.244
Mof_N 	N 	0.8125	0.0102	0.99931	-0.225
Mof_N 	N 	0.8882	0.0995	0.99576	-0.219
Mof_O 	O 	0.6873	0.9588	0.05375	-0.474
Mof_O 	O 	0.6878	0.0368	0.09195	-0.486
Mof_C 	C 	0.8768	0.047	0.9789	0.134
Mof_O 	O 	0.7685	0.1535	0.08402	-0.529
Mof_O 	O 	0.9016	0.1879	0.04699	-0.468
Mof_C 	C 	0.8263	0.0972	0.02921	-0.09
Mof_C 	C 	0.7802	0.0424	0.03123	-0.071
Mof_C 	C 	0.9339	0.0306	0.9427	-0.089
Mof_N 	N 	0.0426	0.0609	0.88781	-0.288
Mof_C 	C 	0.8295	0.1489	0.0555	0.411
Mof_C 	C 	0.0039	0.9595	0.8976	-0.099
Mof_H 	H 	0.0107	0.9208	0.8891	0.067
Mof_C 	C 	0.9457	0.9725	0.9309	0.014
Mof_H 	H 	0.9143	0.9423	0.9454	0.021
Mof_C 	C 	0.0513	0.0045	0.8773	0.051
Mof_H 	H 	0.0917	0.9955	0.8552	-0.009
Mof_C 	C 	0.7121	0.0123	0.0614	0.391
Mof_C 	C 	0.9842	0.0735	0.92	0.04
Mof_H 	H 	0.9773	0.1127	0.9274	-0.028
Mof_Zn	Zn	0.00719	0.82513	0.00201	1.244
Mof_N 	N 	0.9375	0.7398	0.99931	-0.225
Mof_N 	N 	0.8618	0.6505	0.99576	-0.22
Mof_O 	O 	0.0627	0.7912	0.05375	-0.474
Mof_O 	O 	0.0622	0.7132	0.09195	-0.486
Mof_C 	C 	0.8732	0.703	0.9789	0.136
Mof_O 	O 	0.9815	0.5965	0.08402	-0.529
Mof_O 	O 	0.8484	0.5621	0.04699	-0.468
Mof_C 	C 	0.9237	0.6528	0.02921	-0.09
Mof_C 	C 	0.9698	0.7076	0.03123	-0.071
Mof_C 	C 	0.8161	0.7194	0.9427	-0.094
Mof_N 	N 	0.7074	0.6891	0.88781	-0.289
Mof_C 	C 	0.9205	0.6011	0.0555	0.411
Mof_C 	C 	0.7461	0.7905	0.8976	-0.109
Mof_H 	H 	0.7393	0.8292	0.8891	0.07
Mof_C 	C 	0.8043	0.7775	0.9309	0.022
Mof_H 	H 	0.8357	0.8077	0.9454	0.018
Mof_C 	C 	0.6987	0.7455	0.8773	0.059
Mof_H 	H 	0.6583	0.7545	0.8552	-0.013
Mof_C 	C 	0.0379	0.7377	0.0614	0.39
Mof_C 	C 	0.7658	0.6765	0.92	0.042
Mof_H 	H 	0.7727	0.6373	0.9274	-0.029
Mof_Zn	Zn	0.00719	0.32513	0.50201	1.244
Mof_N 	N 	0.9375	0.2398	0.49931	-0.225
Mof_N 	N 	0.8618	0.1505	0.49576	-0.219
Mof_O 	O 	0.0627	0.2912	0.55375	-0.474
Mof_O 	O 	0.0622	0.2132	0.59195	-0.486
Mof_C 	C 	0.8732	0.203	0.4789	0.136
Mof_O 	O 	0.9815	0.0965	0.58402	-0.529
Mof_O 	O 	0.8484	0.0621	0.54699	-0.469
Mof_C 	C 	0.9237	0.1528	0.52921	-0.091
Mof_C 	C 	0.9698	0.2076	0.53123	-0.071
Mof_C 	C 	0.8161	0.2194	0.4427	-0.093
Mof_N 	N 	0.7074	0.1891	0.38781	-0.289
Mof_C 	C 	0.9205	0.1011	0.5555	0.411
Mof_C 	C 	0.7461	0.2905	0.3976	-0.109
Mof_H 	H 	0.7393	0.3292	0.3891	0.07
Mof_C 	C 	0.8043	0.2775	0.4309	0.022
Mof_H 	H 	0.8357	0.3077	0.4454	0.019
Mof_C 	C 	0.6987	0.2455	0.3773	0.059
Mof_H 	H 	0.6583	0.2545	0.3552	-0.013
Mof_C 	C 	0.0379	0.2377	0.5614	0.389
Mof_C 	C 	0.7658	0.1765	0.42	0.042
Mof_H 	H 	0.7727	0.1373	0.4274	-0.029
Mof_Zn	Zn	0.50719	0.82513	0.50201	1.244
Mof_N 	N 	0.4375	0.7398	0.49931	-0.225
Mof_N 	N 	0.3618	0.6505	0.49576	-0.219
Mof_O 	O 	0.5627	0.7912	0.55375	-0.474
Mof_O 	O 	0.5622	0.7132	0.59195	-0.486
Mof_C 	C 	0.3732	0.703	0.4789	0.136
Mof_O 	O 	0.4815	0.5965	0.58402	-0.529
Mof_O 	O 	0.3484	0.5621	0.54699	-0.469
Mof_C 	C 	0.4237	0.6528	0.52921	-0.091
Mof_C 	C 	0.4698	0.7076	0.53123	-0.072
Mof_C 	C 	0.3161	0.7194	0.4427	-0.094
Mof_N 	N 	0.2074	0.6891	0.38781	-0.289
Mof_C 	C 	0.4205	0.6011	0.5555	0.411
Mof_C 	C 	0.2461	0.7905	0.3976	-0.109
Mof_H 	H 	0.2393	0.8292	0.3891	0.07
Mof_C 	C 	0.3043	0.7775	0.4309	0.022
Mof_H 	H 	0.3357	0.8077	0.4454	0.018
Mof_C 	C 	0.1987	0.7455	0.3773	0.059
Mof_H 	H 	0.1583	0.7545	0.3552	-0.013
Mof_C 	C 	0.5379	0.7377	0.5614	0.39
Mof_C 	C 	0.2658	0.6765	0.42	0.042
Mof_H 	H 	0.2727	0.6373	0.4274	-0.029
Mof_Zn	Zn	0.50719	0.32513	0.00201	1.244
Mof_N 	N 	0.4375	0.2398	0.99931	-0.225
Mof_N 	N 	0.3618	0.1505	0.99576	-0.219
Mof_O 	O 	0.5627	0.2912	0.05375	-0.474
Mof_O 	O 	0.5622	0.2132	0.09195	-0.486
Mof_C 	C 	0.3732	0.203	0.9789	0.136
Mof_O 	O 	0.4815	0.0965	0.08402	-0.53
Mof_O 	O 	0.3484	0.0621	0.04699	-0.469
Mof_C 	C 	0.4237	0.1528	0.02921	-0.091
Mof_C 	C 	0.4698	0.2076	0.03123	-0.072
Mof_C 	C 	0.3161	0.2194	0.9427	-0.093
Mof_N 	N 	0.2074	0.1891	0.88781	-0.289
Mof_C 	C 	0.4205	0.1011	0.0555	0.411
Mof_C 	C 	0.2461	0.2905	0.8976	-0.109
Mof_H 	H 	0.2393	0.3292	0.8891	0.07
Mof_C 	C 	0.3043	0.2775	0.9309	0.022
Mof_H 	H 	0.3357	0.3077	0.9454	0.019
Mof_C 	C 	0.1987	0.2455	0.8773	0.059
Mof_H 	H 	0.1583	0.2545	0.8552	-0.013
Mof_C 	C 	0.5379	0.2377	0.0614	0.39
Mof_C 	C 	0.2658	0.1765	0.92	0.042
Mof_H 	H 	0.2727	0.1373	0.9274	-0.029
Mof_Tb	Tb	0.875	0.375	0.875	2.405
Mof_Tb	Tb	0.875	0.875	0.375	2.405
Mof_Tb	Tb	0.375	0.375	0.375	2.406
Mof_Tb	Tb	0.375	0.875	0.875	2.406
Mof_Tb	Tb	0.125	0.625	0.125	2.405
Mof_Tb	Tb	0.125	0.125	0.625	2.405
Mof_Tb	Tb	0.625	0.625	0.625	2.406
Mof_Tb	Tb	0.625	0.125	0.125	2.406
Mof_Zn	Zn	0.375	0.375	0.60632	1.115
Mof_Zn	Zn	0.375	0.875	0.10632	1.114
Mof_Zn	Zn	0.875	0.375	0.10632	1.115
Mof_Zn	Zn	0.875	0.875	0.60632	1.114
Mof_Zn	Zn	0.375	0.375	0.14368	1.115
Mof_Zn	Zn	0.375	0.875	0.64368	1.115
Mof_Zn	Zn	0.875	0.375	0.64368	1.115
Mof_Zn	Zn	0.875	0.875	0.14368	1.114
Mof_Zn	Zn	0.625	0.625	0.39368	1.115
Mof_Zn	Zn	0.625	0.125	0.89368	1.114
Mof_Zn	Zn	0.125	0.625	0.89368	1.115
Mof_Zn	Zn	0.125	0.125	0.39368	1.114
Mof_Zn	Zn	0.625	0.625	0.85632	1.115
Mof_Zn	Zn	0.625	0.125	0.35632	1.115
Mof_Zn	Zn	0.125	0.625	0.35632	1.115
Mof_Zn	Zn	0.125	0.125	0.85632	1.114
Mof_Cl	Cl	0.125	0.625	0.7529	-0.91
Mof_Cl	Cl	0.125	0.125	0.2529	-0.911
Mof_Cl	Cl	0.625	0.125	0.7529	-0.91
Mof_Cl	Cl	0.625	0.625	0.2529	-0.91
Mof_Cl	Cl	0.625	0.625	0.9971	-0.91
Mof_Cl	Cl	0.625	0.125	0.4971	-0.91
Mof_Cl	Cl	0.125	0.125	0.9971	-0.91
Mof_Cl	Cl	0.125	0.625	0.4971	-0.91
Mof_Cl	Cl	0.875	0.375	0.2471	-0.91
Mof_Cl	Cl	0.875	0.875	0.7471	-0.911
Mof_Cl	Cl	0.375	0.875	0.2471	-0.91
Mof_Cl	Cl	0.375	0.375	0.7471	-0.91
Mof_Cl	Cl	0.375	0.375	0.0029	-0.91
Mof_Cl	Cl	0.375	0.875	0.5029	-0.91
Mof_Cl	Cl	0.875	0.875	0.0029	-0.91
Mof_Cl	Cl	0.875	0.375	0.5029	-0.91
_end
