data_functionalizedCrystal
_audit_creation_method	'EQeq! by Chris Wilmer'
_symmetry_space_group_name_H-M	'P1'
_symmetry_Int_Tables_number	1
_symmetry_cell_setting	triclinic
loop_
_symmetry_equiv_pos_as_xyz
  x,y,z
_cell_length_a	16.1682
_cell_length_b	15.102
_cell_length_c	7.9846
_cell_angle_alpha	90
_cell_angle_beta	92.845
_cell_angle_gamma	90
loop_
_atom_site_label
_atom_site_type_symbol
_atom_site_fract_x
_atom_site_fract_y
_atom_site_fract_z
_atom_site_charge
Mof_Dy	Dy	0.45454	0.61618	0.04948	2.089
Mof_Ag	Ag	0.97316	0.73989	0.60071	0.445
Mof_O 	O 	0.35829	0.81592	0.719	-0.531
Mof_O 	O 	0.38143	0.68117	0.8281	-0.569
Mof_O 	O 	0.5762	0.633	0.908	-0.538
Mof_O 	O 	0.6306	0.49745	0.8632	-0.523
Mof_O 	O 	0.5347	0.6149	0.3147	-0.518
Mof_O 	O 	0.54781	0.497	0.1607	-0.65
Mof_N 	N 	0.0943	0.7527	0.9981	-0.187
Mof_N 	N 	0.8576	0.6967	0.6991	-0.193
Mof_C 	C 	0.2516	0.7494	0.8695	-0.127
Mof_C 	C 	0.2116	0.671	0.9112	-0.012
Mof_H 	H 	0.2372	0.6165	0.8967	0.012
Mof_C 	C 	0.1336	0.6753	0.9741	0.005
Mof_H 	H 	0.1072	0.6229	0.0008	-0.008
Mof_C 	C 	0.1333	0.8284	0.9589	0.007
Mof_H 	H 	0.1068	0.8821	0.976	-0.009
Mof_C 	C 	0.2109	0.8294	0.8945	-0.027
Mof_H 	H 	0.2358	0.8828	0.868	0.036
Mof_C 	C 	0.3367	0.7495	0.8008	0.461
Mof_C 	C 	0.6332	0.5809	0.8637	0.449
Mof_C 	C 	0.7113	0.6231	0.8058	-0.109
Mof_C 	C 	0.7156	0.7123	0.7613	-0.035
Mof_H 	H 	0.6693	0.7486	0.7668	0.035
Mof_C 	C 	0.7894	0.7458	0.7088	0.016
Mof_H 	H 	0.7917	0.8053	0.6791	-0.003
Mof_C 	C 	0.8533	0.6108	0.7457	0.005
Mof_H 	H 	0.9009	0.5763	0.7427	-0.015
Mof_C 	C 	0.7818	0.5719	0.7975	-0.043
Mof_H 	H 	0.781	0.5123	0.8264	0.039
Mof_C 	C 	0.5697	0.5411	0.2898	0.488
Mof_C 	C 	0.6271	0.5015	0.421	-0.352
Mof_H 	H 	0.6719	0.5418	0.4467	0.199
Mof_H 	H 	0.6487	0.4468	0.3804	0.488
Mof_H 	H 	0.5976	0.4905	0.5203	0.176
Mof_C 	C 	0.6444	0.5127	0.393	-0.126
Mof_H 	H 	0.6503	0.5488	0.4915	-0.023
Mof_H 	H 	0.6926	0.5191	0.3282	-0.011
Mof_H 	H 	0.6385	0.4518	0.4246	-0.337
Mof_Dy	Dy	0.54546	0.11618	0.45052	2.09
Mof_Ag	Ag	0.02684	0.23989	0.89929	0.443
Mof_O 	O 	0.64171	0.31592	0.781	-0.531
Mof_O 	O 	0.61857	0.18117	0.6719	-0.57
Mof_O 	O 	0.4238	0.133	0.592	-0.538
Mof_O 	O 	0.3694	0.99745	0.6368	-0.522
Mof_O 	O 	0.4653	0.1149	0.1853	-0.518
Mof_O 	O 	0.45219	0.997	0.3393	-0.652
Mof_N 	N 	0.9057	0.2527	0.5019	-0.188
Mof_N 	N 	0.1424	0.1967	0.8009	-0.193
Mof_C 	C 	0.7484	0.2494	0.6305	-0.128
Mof_C 	C 	0.7884	0.171	0.5888	-0.011
Mof_H 	H 	0.7628	0.1165	0.6033	0.011
Mof_C 	C 	0.8664	0.1753	0.5259	0.003
Mof_H 	H 	0.8928	0.1229	0.4992	-0.006
Mof_C 	C 	0.8667	0.3284	0.5411	0.006
Mof_H 	H 	0.8932	0.3821	0.524	-0.01
Mof_C 	C 	0.7891	0.3294	0.6055	-0.027
Mof_H 	H 	0.7642	0.3828	0.632	0.035
Mof_C 	C 	0.6633	0.2495	0.6992	0.461
Mof_C 	C 	0.3668	0.0809	0.6363	0.448
Mof_C 	C 	0.2887	0.1231	0.6942	-0.109
Mof_C 	C 	0.2844	0.2123	0.7387	-0.035
Mof_H 	H 	0.3307	0.2486	0.7332	0.035
Mof_C 	C 	0.2106	0.2458	0.7912	0.015
Mof_H 	H 	0.2083	0.3053	0.8209	-0.002
Mof_C 	C 	0.1467	0.1108	0.7543	0.005
Mof_H 	H 	0.0991	0.0763	0.7573	-0.016
Mof_C 	C 	0.2182	0.0719	0.7025	-0.043
Mof_H 	H 	0.219	0.0123	0.6736	0.038
Mof_C 	C 	0.4303	0.0411	0.2102	0.49
Mof_C 	C 	0.3729	0.0015	0.079	-0.352
Mof_H 	H 	0.3281	0.0418	0.0533	0.2
Mof_H 	H 	0.3513	0.9468	0.1196	0.483
Mof_H 	H 	0.4024	0.9905	0.9797	0.177
Mof_C 	C 	0.3556	0.0127	0.107	-0.128
Mof_H 	H 	0.3497	0.0488	0.0085	-0.023
Mof_H 	H 	0.3074	0.0191	0.1718	-0.01
Mof_H 	H 	0.3615	0.9518	0.0754	-0.332
Mof_Dy	Dy	0.54546	0.38382	0.95052	2.089
Mof_Ag	Ag	0.02684	0.26011	0.39929	0.445
Mof_O 	O 	0.64171	0.18408	0.281	-0.531
Mof_O 	O 	0.61857	0.31883	0.1719	-0.569
Mof_O 	O 	0.4238	0.367	0.092	-0.538
Mof_O 	O 	0.3694	0.50255	0.1368	-0.523
Mof_O 	O 	0.4653	0.3851	0.6853	-0.518
Mof_O 	O 	0.45219	0.503	0.8393	-0.65
Mof_N 	N 	0.9057	0.2473	0.0019	-0.187
Mof_N 	N 	0.1424	0.3033	0.3009	-0.193
Mof_C 	C 	0.7484	0.2506	0.1305	-0.127
Mof_C 	C 	0.7884	0.329	0.0888	-0.012
Mof_H 	H 	0.7628	0.3835	0.1033	0.012
Mof_C 	C 	0.8664	0.3247	0.0259	0.005
Mof_H 	H 	0.8928	0.3771	0.9992	-0.008
Mof_C 	C 	0.8667	0.1716	0.0411	0.007
Mof_H 	H 	0.8932	0.1179	0.024	-0.009
Mof_C 	C 	0.7891	0.1706	0.1055	-0.027
Mof_H 	H 	0.7642	0.1172	0.132	0.036
Mof_C 	C 	0.6633	0.2505	0.1992	0.461
Mof_C 	C 	0.3668	0.4191	0.1363	0.449
Mof_C 	C 	0.2887	0.3769	0.1942	-0.109
Mof_C 	C 	0.2844	0.2877	0.2387	-0.035
Mof_H 	H 	0.3307	0.2514	0.2332	0.035
Mof_C 	C 	0.2106	0.2542	0.2912	0.016
Mof_H 	H 	0.2083	0.1947	0.3209	-0.003
Mof_C 	C 	0.1467	0.3892	0.2543	0.005
Mof_H 	H 	0.0991	0.4237	0.2573	-0.015
Mof_C 	C 	0.2182	0.4281	0.2025	-0.043
Mof_H 	H 	0.219	0.4877	0.1736	0.039
Mof_C 	C 	0.4303	0.4589	0.7102	0.488
Mof_C 	C 	0.3729	0.4985	0.579	-0.352
Mof_H 	H 	0.3281	0.4582	0.5533	0.199
Mof_H 	H 	0.3513	0.5532	0.6196	0.488
Mof_H 	H 	0.4024	0.5095	0.4797	0.176
Mof_C 	C 	0.3556	0.4873	0.607	-0.126
Mof_H 	H 	0.3497	0.4512	0.5085	-0.023
Mof_H 	H 	0.3074	0.4809	0.6718	-0.011
Mof_H 	H 	0.3615	0.5482	0.5754	-0.337
Mof_Dy	Dy	0.45454	0.88382	0.54948	2.09
Mof_Ag	Ag	0.97316	0.76011	0.10071	0.443
Mof_O 	O 	0.35829	0.68408	0.219	-0.531
Mof_O 	O 	0.38143	0.81883	0.3281	-0.57
Mof_O 	O 	0.5762	0.867	0.408	-0.538
Mof_O 	O 	0.6306	0.00255	0.3632	-0.522
Mof_O 	O 	0.5347	0.8851	0.8147	-0.518
Mof_O 	O 	0.54781	0.003	0.6607	-0.652
Mof_N 	N 	0.0943	0.7473	0.4981	-0.188
Mof_N 	N 	0.8576	0.8033	0.1991	-0.193
Mof_C 	C 	0.2516	0.7506	0.3695	-0.128
Mof_C 	C 	0.2116	0.829	0.4112	-0.011
Mof_H 	H 	0.2372	0.8835	0.3967	0.011
Mof_C 	C 	0.1336	0.8247	0.4741	0.003
Mof_H 	H 	0.1072	0.8771	0.5008	-0.006
Mof_C 	C 	0.1333	0.6716	0.4589	0.006
Mof_H 	H 	0.1068	0.6179	0.476	-0.01
Mof_C 	C 	0.2109	0.6706	0.3945	-0.027
Mof_H 	H 	0.2358	0.6172	0.368	0.035
Mof_C 	C 	0.3367	0.7505	0.3008	0.461
Mof_C 	C 	0.6332	0.9191	0.3637	0.448
Mof_C 	C 	0.7113	0.8769	0.3058	-0.109
Mof_C 	C 	0.7156	0.7877	0.2613	-0.035
Mof_H 	H 	0.6693	0.7514	0.2668	0.035
Mof_C 	C 	0.7894	0.7542	0.2088	0.015
Mof_H 	H 	0.7917	0.6947	0.1791	-0.002
Mof_C 	C 	0.8533	0.8892	0.2457	0.005
Mof_H 	H 	0.9009	0.9237	0.2427	-0.016
Mof_C 	C 	0.7818	0.9281	0.2975	-0.043
Mof_H 	H 	0.781	0.9877	0.3264	0.038
Mof_C 	C 	0.5697	0.9589	0.7898	0.49
Mof_C 	C 	0.6271	0.9985	0.921	-0.352
Mof_H 	H 	0.6719	0.9582	0.9467	0.2
Mof_H 	H 	0.6487	0.0532	0.8804	0.483
Mof_H 	H 	0.5976	0.0095	0.0203	0.177
Mof_C 	C 	0.6444	0.9873	0.893	-0.128
Mof_H 	H 	0.6503	0.9512	0.9915	-0.023
Mof_H 	H 	0.6926	0.9809	0.8282	-0.01
Mof_H 	H 	0.6385	0.0482	0.9246	-0.332
_end
