data_functionalizedCrystal
_audit_creation_method	'EQeq! by Chris Wilmer'
_symmetry_space_group_name_H-M	'P1'
_symmetry_Int_Tables_number	1
_symmetry_cell_setting	triclinic
loop_
_symmetry_equiv_pos_as_xyz
  x,y,z
_cell_length_a	10.2492
_cell_length_b	11.0716
_cell_length_c	12.8991
_cell_angle_alpha	92.518
_cell_angle_beta	95.255
_cell_angle_gamma	107.331
loop_
_atom_site_label
_atom_site_type_symbol
_atom_site_fract_x
_atom_site_fract_y
_atom_site_fract_z
_atom_site_charge
Mof_Zn	Zn	0.6155	0.84909	0.6698	1.218
Mof_Zn	Zn	0.97877	0.71857	0.98951	1.241
Mof_Zn	Zn	0.38259	0.64828	0.32538	1.219
Mof_Zn	Zn	0.92425	0.55982	0.41275	1.24
Mof_Zn	Zn	0.08008	0.94119	0.58357	1.242
Mof_P 	P 	0.84357	0.91635	0.87777	0.471
Mof_P 	P 	0.15804	0.56979	0.11577	0.451
Mof_P 	P 	0.77677	0.7712	0.47915	0.486
Mof_P 	P 	0.22315	0.72693	0.518	0.479
Mof_O 	O 	0.7222	0.8438	0.80256	-0.447
Mof_O 	O 	0.8306	0.0471	0.9179	-0.486
Mof_H 	H 	0.7512	0.0478	0.9041	0.269
Mof_O 	O 	0.8698	0.8444	0.97023	-0.388
Mof_O 	O 	0.9856	0.0196	0.71886	-0.484
Mof_H 	H 	0.0034	0.096	0.7335	0.288
Mof_O 	O 	0.064	0.7717	0.8531	-0.421
Mof_O 	O 	0.0349	0.8069	0.68765	-0.431
Mof_O 	O 	0.133	0.6454	0.02454	-0.401
Mof_O 	O 	0.284	0.6443	0.18836	-0.428
Mof_O 	O 	0.1672	0.4395	0.07985	-0.399
Mof_O 	O 	0.0211	0.4828	0.28328	-0.483
Mof_H 	H 	0.0035	0.406	0.2709	0.277
Mof_O 	O 	0.9705	0.6958	0.3086	-0.427
Mof_O 	O 	0.9445	0.7275	0.14248	-0.425
Mof_O 	O 	0.8221	0.6542	0.4952	-0.418
Mof_O 	O 	0.8981	0.8935	0.48664	-0.573
Mof_O 	O 	0.6673	0.7785	0.54735	-0.465
Mof_O 	O 	0.5849	0.6387	0.3266	-0.486
Mof_H 	H 	0.5888	0.6028	0.2705	0.257
Mof_O 	O 	0.7178	0.9733	0.32551	-0.416
Mof_O 	O 	0.5073	0.8365	0.30527	-0.407
Mof_O 	O 	0.1018	0.6058	0.51359	-0.558
Mof_O 	O 	0.1791	0.8444	0.5008	-0.427
Mof_O 	O 	0.3309	0.7165	0.4496	-0.464
Mof_O 	O 	0.4163	0.8599	0.6714	-0.543
Mof_H 	H 	0.386	0.9205	0.6739	0.312
Mof_O 	O 	0.2769	0.5276	0.68005	-0.38
Mof_O 	O 	0.4887	0.6614	0.69856	-0.38
Mof_C 	C 	-0	0.9574	0.8119	-0.128
Mof_H 	H 	0.0757	0.0135	0.8598	0.102
Mof_C 	C 	0.0358	0.8371	0.7825	0.378
Mof_C 	C 	0.0052	0.5409	0.1877	-0.127
Mof_H 	H 	0.9266	0.4836	0.1432	0.066
Mof_C 	C 	0.9713	0.663	0.2143	0.359
Mof_C 	C 	0.695	0.7547	0.3438	-0.123
Mof_H 	H 	0.7632	0.7547	0.2953	0.084
Mof_C 	C 	0.6355	0.8628	0.3234	0.355
Mof_C 	C 	0.3046	0.7448	0.6532	-0.114
Mof_H 	H 	0.236	0.7475	0.7006	0.086
Mof_C 	C 	0.3605	0.6367	0.6785	0.354
Mof_Zn	Zn	0.3845	0.15091	0.3302	1.22
Mof_Zn	Zn	0.02123	0.28143	0.01049	1.245
Mof_Zn	Zn	0.61741	0.35172	0.67462	1.219
Mof_Zn	Zn	0.07575	0.44018	0.58725	1.243
Mof_Zn	Zn	0.91992	0.05881	0.41643	1.239
Mof_P 	P 	0.15643	0.08365	0.12223	0.479
Mof_P 	P 	0.84196	0.43021	0.88423	0.454
Mof_P 	P 	0.22323	0.2288	0.52085	0.485
Mof_P 	P 	0.77685	0.27307	0.482	0.479
Mof_O 	O 	0.2778	0.1562	0.19744	-0.446
Mof_O 	O 	0.1694	0.9529	0.0821	-0.483
Mof_H 	H 	0.2488	0.9522	0.0959	0.268
Mof_O 	O 	0.1302	0.1556	0.02977	-0.385
Mof_O 	O 	0.0144	0.9804	0.28114	-0.451
Mof_H 	H 	0.9966	0.904	0.2665	0.265
Mof_O 	O 	0.936	0.2283	0.1469	-0.428
Mof_O 	O 	0.9651	0.1931	0.31235	-0.439
Mof_O 	O 	0.867	0.3546	0.97546	-0.406
Mof_O 	O 	0.716	0.3557	0.81164	-0.43
Mof_O 	O 	0.8328	0.5605	0.92015	-0.402
Mof_O 	O 	0.9789	0.5172	0.71672	-0.478
Mof_H 	H 	0.9965	0.594	0.7291	0.268
Mof_O 	O 	0.0295	0.3042	0.6914	-0.427
Mof_O 	O 	0.0555	0.2725	0.85752	-0.426
Mof_O 	O 	0.1779	0.3458	0.5048	-0.414
Mof_O 	O 	0.1019	0.1065	0.51336	-0.566
Mof_O 	O 	0.3327	0.2215	0.45265	-0.464
Mof_O 	O 	0.4151	0.3613	0.6734	-0.486
Mof_H 	H 	0.4112	0.3972	0.7295	0.257
Mof_O 	O 	0.2822	0.0267	0.67449	-0.415
Mof_O 	O 	0.4927	0.1635	0.69473	-0.407
Mof_O 	O 	0.8982	0.3942	0.48641	-0.565
Mof_O 	O 	0.8209	0.1556	0.4992	-0.43
Mof_O 	O 	0.6691	0.2835	0.5504	-0.465
Mof_O 	O 	0.5837	0.1401	0.3286	-0.543
Mof_H 	H 	0.614	0.0795	0.3261	0.312
Mof_O 	O 	0.7231	0.4724	0.31995	-0.38
Mof_O 	O 	0.5113	0.3386	0.30144	-0.38
Mof_C 	C 	1.28027e-18	0.0426	0.1881	-0.139
Mof_H 	H 	0.9243	0.9865	0.1402	0.1
Mof_C 	C 	0.9642	0.1629	0.2175	0.376
Mof_C 	C 	0.9948	0.4591	0.8123	-0.168
Mof_H 	H 	0.0734	0.5164	0.8568	0.087
Mof_C 	C 	0.0287	0.337	0.7857	0.381
Mof_C 	C 	0.305	0.2453	0.6562	-0.122
Mof_H 	H 	0.2368	0.2453	0.7047	0.084
Mof_C 	C 	0.3645	0.1372	0.6766	0.355
Mof_C 	C 	0.6954	0.2552	0.3468	-0.114
Mof_H 	H 	0.764	0.2525	0.2994	0.085
Mof_C 	C 	0.6395	0.3633	0.3215	0.353
_end
