data_functionalizedCrystal
_audit_creation_method	'EQeq! by Chris Wilmer'
_symmetry_space_group_name_H-M	'P1'
_symmetry_Int_Tables_number	1
_symmetry_cell_setting	triclinic
loop_
_symmetry_equiv_pos_as_xyz
  x,y,z
_cell_length_a	14.0905
_cell_length_b	14.6762
_cell_length_c	21.5858
_cell_angle_alpha	89.937
_cell_angle_beta	85.402
_cell_angle_gamma	61.994
loop_
_atom_site_label
_atom_site_type_symbol
_atom_site_fract_x
_atom_site_fract_y
_atom_site_fract_z
_atom_site_charge
Mof_C 	C 	0.2213	0.324	0.74423	0.14
Mof_C 	C 	0.1599	0.4265	0.76459	-0.282
Mof_H 	H 	0.1173	0.4428	0.8023	0.152
Mof_C 	C 	0.1614	0.5036	0.72967	0.323
Mof_C 	C 	0.2208	0.4845	0.67292	-0.28
Mof_H 	H 	0.2194	0.5387	0.65	0.157
Mof_C 	C 	0.2821	0.3843	0.65076	0.134
Mof_C 	C 	0.2815	0.3033	0.68723	-0.182
Mof_H 	H 	0.3224	0.2352	0.6724	0.098
Mof_C 	C 	0.1391	0.1739	0.85852	0.079
Mof_H 	H 	0.0804	0.1868	0.8867	0.008
Mof_C 	C 	0.1382	0.2564	0.82499	-0.12
Mof_H 	H 	0.081	0.3227	0.8324	0.097
Mof_C 	C 	0.2223	0.2389	0.78109	0.039
Mof_C 	C 	0.3051	0.1402	0.77373	-0.121
Mof_H 	H 	0.3644	0.1249	0.7453	0.087
Mof_C 	C 	0.3002	0.0632	0.80888	0.09
Mof_H 	H 	0.3568	0.9965	0.802	-0.002
Mof_C 	C 	0.4338	0.2512	0.49771	0.085
Mof_H 	H 	0.4504	0.1903	0.4758	0.003
Mof_C 	C 	0.378	0.2692	0.55491	-0.122
Mof_H 	H 	0.3622	0.2186	0.5712	0.075
Mof_C 	C 	0.3449	0.3584	0.58858	0.036
Mof_C 	C 	0.3753	0.4263	0.56153	-0.118
Mof_H 	H 	0.3606	0.4866	0.5835	0.083
Mof_C 	C 	0.4276	0.4068	0.50197	0.074
Mof_H 	H 	0.4366	0.459	0.4824	0.009
Mof_C 	C 	0.0036	0.6568	0.7715	0.298
Mof_C 	C 	0.9775	0.722	0.82363	-0.248
Mof_H 	H 	0.0316	0.7209	0.8461	0.133
Mof_C 	C 	0.8699	0.7889	0.84189	0.128
Mof_C 	C 	0.7885	0.793	0.80811	-0.181
Mof_H 	H 	0.7168	0.8398	0.8199	0.102
Mof_C 	C 	0.8152	0.7264	0.75646	0.124
Mof_C 	C 	0.9232	0.6588	0.73767	-0.259
Mof_H 	H 	0.941	0.6152	0.7026	0.143
Mof_C 	C 	0.5532	0.8162	0.68715	0.094
Mof_H 	H 	0.4895	0.8778	0.6859	0.005
Mof_C 	C 	0.6321	0.8184	0.71703	-0.135
Mof_H 	H 	0.6212	0.8801	0.7356	0.094
Mof_C 	C 	0.729	0.7303	0.72052	0.047
Mof_C 	C 	0.7353	0.6417	0.69368	-0.133
Mof_H 	H 	0.7968	0.5788	0.6966	0.098
Mof_C 	C 	0.6523	0.6453	0.66296	0.084
Mof_H 	H 	0.6612	0.5846	0.644	0.005
Mof_C 	C 	0.9043	0.9219	0.9808	0.068
Mof_H 	H 	0.962	0.9224	0.9988	0.015
Mof_C 	C 	0.9236	0.8689	0.92874	-0.107
Mof_H 	H 	0.9937	0.8376	0.9096	0.073
Mof_C 	C 	0.8443	0.8565	0.9001	0.037
Mof_C 	C 	0.7406	0.919	0.92655	-0.114
Mof_H 	H 	0.6813	0.9225	0.9084	0.078
Mof_C 	C 	0.7265	0.9764	0.98089	0.077
Mof_H 	H 	0.6561	0.0182	0.9979	0.013
Mof_C 	C 	0.5555	0.429	0.30333	0.392
Mof_C 	C 	0.5172	0.5389	0.28611	-0.109
Mof_C 	C 	0.45	0.6183	0.33003	0.026
Mof_H 	H 	0.4285	0.6031	0.3688	0.037
Mof_C 	C 	0.4168	0.7192	0.31427	-0.08
Mof_H 	H 	0.374	0.7727	0.3432	0.071
Mof_C 	C 	0.4458	0.7415	0.25716	0.008
Mof_C 	C 	0.5141	0.6634	0.21301	-0.08
Mof_H 	H 	0.5342	0.6794	0.1741	0.074
Mof_C 	C 	0.551	0.5609	0.2292	0.03
Mof_H 	H 	0.5986	0.5075	0.2015	0.042
Mof_C 	C 	0.2653	0.9096	0.21765	0.011
Mof_C 	C 	0.1764	0.9864	0.25316	-0.093
Mof_H 	H 	0.186	0.0152	0.289	0.081
Mof_C 	C 	0.0738	0.0194	0.23462	0.042
Mof_H 	H 	0.0144	0.0711	0.2578	0.021
Mof_C 	C 	0.0592	0.9758	0.18166	-0.122
Mof_C 	C 	0.1479	0.8996	0.14639	0.034
Mof_H 	H 	0.1382	0.871	0.1106	0.037
Mof_C 	C 	0.2515	0.8659	0.16457	-0.082
Mof_H 	H 	0.3109	0.8143	0.1412	0.07
Mof_C 	C 	0.9517	0.012	0.15897	0.348
Mof_C 	C 	0.7045	0.0856	0.35425	0.396
Mof_C 	C 	0.7859	0.9758	0.34712	-0.134
Mof_C 	C 	0.7744	0.9033	0.38355	0.043
Mof_H 	H 	0.7131	0.9235	0.4111	0.032
Mof_C 	C 	0.8541	0.8	0.37916	-0.091
Mof_H 	H 	0.8459	0.7513	0.4034	0.074
Mof_C 	C 	0.946	0.7706	0.33821	0.016
Mof_C 	C 	0.9586	0.8422	0.30185	-0.08
Mof_H 	H 	0.0204	0.8218	0.2747	0.073
Mof_C 	C 	0.8784	0.9452	0.30586	0.035
Mof_H 	H 	0.8865	0.9935	0.2811	0.027
Mof_C 	C 	0.1185	0.6498	0.40174	0.013
Mof_C 	C 	0.0929	0.6211	0.45809	-0.088
Mof_H 	H 	0.05	0.5885	0.4622	0.075
Mof_C 	C 	0.1339	0.6428	0.50882	0.031
Mof_H 	H 	0.1126	0.6286	0.548	0.036
Mof_C 	C 	0.2016	0.6827	0.50563	-0.1
Mof_C 	C 	0.232	0.7071	0.44652	0.02
Mof_H 	H 	0.2798	0.7343	0.4425	0.039
Mof_C 	C 	0.1898	0.6902	0.39448	-0.082
Mof_H 	H 	0.2091	0.7058	0.3552	0.071
Mof_C 	C 	0.2478	0.7029	0.5622	0.356
Mof_C 	C 	0.7805	0.2564	0.09415	0.393
Mof_C 	C 	0.8014	0.3283	0.05279	-0.117
Mof_C 	C 	0.7997	0.4178	0.07951	0.028
Mof_H 	H 	0.78	0.434	0.1218	0.041
Mof_C 	C 	0.8268	0.4798	0.04332	-0.076
Mof_H 	H 	0.829	0.5365	0.061	0.079
Mof_C 	C 	0.851	0.4574	0.98033	0.015
Mof_C 	C 	0.8578	0.368	0.95344	-0.084
Mof_H 	H 	0.8791	0.3514	0.9113	0.074
Mof_C 	C 	0.8321	0.3047	0.99058	0.038
Mof_H 	H 	0.8357	0.2452	0.9731	0.034
Mof_C 	C 	0.7506	0.6204	0.90709	-0.001
Mof_C 	C 	0.6844	0.7071	0.94249	-0.072
Mof_H 	H 	0.7079	0.7241	0.9776	0.071
Mof_C 	C 	0.5802	0.7703	0.92544	0.011
Mof_H 	H 	0.5349	0.8303	0.9491	0.044
Mof_C 	C 	0.5442	0.745	0.87441	-0.084
Mof_C 	C 	0.6132	0.6565	0.83773	0.01
Mof_H 	H 	0.5901	0.6405	0.8021	0.049
Mof_C 	C 	0.7162	0.5924	0.85474	-0.068
Mof_H 	H 	0.7617	0.5317	0.8317	0.075
Mof_C 	C 	0.4301	0.8126	0.85781	0.348
Mof_N 	N 	0.2206	0.0779	0.85163	-0.223
Mof_N 	N 	0.4657	0.3142	0.47164	-0.222
Mof_N 	N 	0.5589	0.7316	0.65875	-0.222
Mof_N 	N 	0.804	0.9763	0.00978	-0.218
Mof_Ni	Ni	0.78772	0.04531	0.09797	1.095
Mof_Ni	Ni	0.72372	0.21476	0.22851	1.102
Mof_O 	O 	0.11147	0.60477	0.75252	-0.318
Mof_O 	O 	0.53115	0.41132	0.35707	-0.435
Mof_O 	O 	0.60823	0.3615	0.26063	-0.417
Mof_O 	O 	0.3893	0.93125	0.29269	-0.222
Mof_O 	O 	0.4584	0.87714	0.1827	-0.22
Mof_O 	O 	0.86463	0.07386	0.18976	-0.47
Mof_O 	O 	0.95048	0.97531	0.10642	-0.397
Mof_O 	O 	0.6378	0.11279	0.39938	-0.406
Mof_O 	O 	0.69445	0.15443	0.31743	-0.493
Mof_O 	O 	0.0069	0.57523	0.35085	-0.218
Mof_O 	O 	0.1247	0.6261	0.28055	-0.215
Mof_O 	O 	0.2058	0.6946	0.61281	-0.293
Mof_Ni	Ni	0.56837	0.2712	0.38901	1.108
Mof_O 	O 	0.32286	0.72475	0.55333	-0.393
Mof_O 	O 	0.7546	0.28352	0.15087	-0.417
Mof_O 	O 	0.78725	0.17809	0.06868	-0.433
Mof_O 	O 	0.90566	0.60375	0.9701	-0.214
Mof_O 	O 	0.95016	0.48152	0.87952	-0.226
Mof_O 	O 	0.37289	0.88368	0.89888	-0.421
Mof_O 	O 	0.40129	0.79341	0.80691	-0.42
Mof_S 	S 	0.39736	0.87228	0.2373	0.265
Mof_S 	S 	0.05218	0.64455	0.33661	0.249
Mof_S 	S 	0.87906	0.5416	0.93225	0.285
Mof_C 	C 	0.7787	0.676	0.25577	0.14
Mof_C 	C 	0.8401	0.5735	0.23541	-0.282
Mof_H 	H 	0.8827	0.5572	0.1977	0.152
Mof_C 	C 	0.8386	0.4964	0.27033	0.323
Mof_C 	C 	0.7792	0.5155	0.32708	-0.28
Mof_H 	H 	0.7806	0.4613	0.35	0.157
Mof_C 	C 	0.7179	0.6157	0.34924	0.134
Mof_C 	C 	0.7185	0.6967	0.31277	-0.182
Mof_H 	H 	0.6776	0.7648	0.3276	0.098
Mof_C 	C 	0.8609	0.8261	0.14148	0.079
Mof_H 	H 	0.9196	0.8132	0.1133	0.008
Mof_C 	C 	0.8618	0.7436	0.17501	-0.12
Mof_H 	H 	0.919	0.6773	0.1676	0.097
Mof_C 	C 	0.7777	0.7611	0.21891	0.039
Mof_C 	C 	0.6949	0.8598	0.22627	-0.121
Mof_H 	H 	0.6356	0.8751	0.2547	0.087
Mof_C 	C 	0.6998	0.9368	0.19112	0.09
Mof_H 	H 	0.6432	0.0035	0.198	-0.002
Mof_C 	C 	0.5662	0.7488	0.50229	0.085
Mof_H 	H 	0.5496	0.8097	0.5242	0.003
Mof_C 	C 	0.622	0.7308	0.44509	-0.122
Mof_H 	H 	0.6378	0.7814	0.4288	0.075
Mof_C 	C 	0.6551	0.6416	0.41142	0.036
Mof_C 	C 	0.6247	0.5737	0.43847	-0.118
Mof_H 	H 	0.6394	0.5134	0.4165	0.083
Mof_C 	C 	0.5724	0.5932	0.49803	0.074
Mof_H 	H 	0.5634	0.541	0.5176	0.009
Mof_C 	C 	0.9964	0.3432	0.2285	0.298
Mof_C 	C 	0.0225	0.278	0.17637	-0.248
Mof_H 	H 	0.9684	0.2791	0.1539	0.133
Mof_C 	C 	0.1301	0.2111	0.15811	0.128
Mof_C 	C 	0.2115	0.207	0.19189	-0.181
Mof_H 	H 	0.2832	0.1602	0.1801	0.102
Mof_C 	C 	0.1848	0.2736	0.24354	0.124
Mof_C 	C 	0.0768	0.3412	0.26233	-0.259
Mof_H 	H 	0.059	0.3848	0.2974	0.143
Mof_C 	C 	0.4468	0.1838	0.31285	0.094
Mof_H 	H 	0.5105	0.1222	0.3141	0.005
Mof_C 	C 	0.3679	0.1816	0.28297	-0.135
Mof_H 	H 	0.3788	0.1199	0.2644	0.094
Mof_C 	C 	0.271	0.2697	0.27948	0.047
Mof_C 	C 	0.2647	0.3583	0.30632	-0.133
Mof_H 	H 	0.2032	0.4212	0.3034	0.098
Mof_C 	C 	0.3477	0.3547	0.33704	0.084
Mof_H 	H 	0.3388	0.4154	0.356	0.005
Mof_C 	C 	0.0957	0.0781	0.0192	0.068
Mof_H 	H 	0.038	0.0776	0.0012	0.015
Mof_C 	C 	0.0764	0.1311	0.07126	-0.107
Mof_H 	H 	0.0063	0.1624	0.0904	0.073
Mof_C 	C 	0.1557	0.1435	0.0999	0.037
Mof_C 	C 	0.2594	0.081	0.07345	-0.114
Mof_H 	H 	0.3187	0.0775	0.0916	0.078
Mof_C 	C 	0.2735	0.0236	0.01911	0.077
Mof_H 	H 	0.3439	0.9818	0.0021	0.013
Mof_C 	C 	0.4445	0.571	0.69667	0.392
Mof_C 	C 	0.4828	0.4611	0.71389	-0.109
Mof_C 	C 	0.55	0.3817	0.66997	0.026
Mof_H 	H 	0.5715	0.3969	0.6312	0.037
Mof_C 	C 	0.5832	0.2808	0.68573	-0.08
Mof_H 	H 	0.626	0.2273	0.6568	0.071
Mof_C 	C 	0.5542	0.2585	0.74284	0.008
Mof_C 	C 	0.4859	0.3366	0.78699	-0.08
Mof_H 	H 	0.4658	0.3206	0.8259	0.074
Mof_C 	C 	0.449	0.4391	0.7708	0.03
Mof_H 	H 	0.4014	0.4925	0.7985	0.042
Mof_C 	C 	0.7347	0.0904	0.78235	0.011
Mof_C 	C 	0.8236	0.0136	0.74684	-0.093
Mof_H 	H 	0.814	0.9848	0.711	0.081
Mof_C 	C 	0.9262	0.9806	0.76538	0.042
Mof_H 	H 	0.9856	0.9289	0.7422	0.021
Mof_C 	C 	0.9408	0.0242	0.81834	-0.122
Mof_C 	C 	0.8521	0.1004	0.85361	0.034
Mof_H 	H 	0.8618	0.129	0.8894	0.037
Mof_C 	C 	0.7485	0.1341	0.83543	-0.082
Mof_H 	H 	0.6891	0.1857	0.8588	0.07
Mof_C 	C 	0.0483	0.988	0.84103	0.348
Mof_C 	C 	0.2955	0.9144	0.64575	0.396
Mof_C 	C 	0.2141	0.0242	0.65288	-0.134
Mof_C 	C 	0.2256	0.0967	0.61645	0.043
Mof_H 	H 	0.2869	0.0765	0.5889	0.032
Mof_C 	C 	0.1459	0.2	0.62084	-0.091
Mof_H 	H 	0.1541	0.2487	0.5966	0.074
Mof_C 	C 	0.054	0.2294	0.66179	0.016
Mof_C 	C 	0.0414	0.1578	0.69815	-0.08
Mof_H 	H 	0.9796	0.1782	0.7253	0.073
Mof_C 	C 	0.1216	0.0548	0.69414	0.035
Mof_H 	H 	0.1135	0.0065	0.7189	0.027
Mof_C 	C 	0.8815	0.3502	0.59826	0.013
Mof_C 	C 	0.9071	0.3789	0.54191	-0.088
Mof_H 	H 	0.95	0.4115	0.5378	0.075
Mof_C 	C 	0.8661	0.3572	0.49118	0.031
Mof_H 	H 	0.8874	0.3714	0.452	0.036
Mof_C 	C 	0.7984	0.3173	0.49437	-0.1
Mof_C 	C 	0.768	0.2929	0.55348	0.02
Mof_H 	H 	0.7202	0.2657	0.5575	0.039
Mof_C 	C 	0.8102	0.3098	0.60552	-0.082
Mof_H 	H 	0.7909	0.2942	0.6448	0.071
Mof_C 	C 	0.7522	0.2971	0.4378	0.356
Mof_C 	C 	0.2195	0.7436	0.90585	0.393
Mof_C 	C 	0.1986	0.6717	0.94721	-0.117
Mof_C 	C 	0.2003	0.5822	0.92049	0.028
Mof_H 	H 	0.22	0.566	0.8782	0.041
Mof_C 	C 	0.1732	0.5202	0.95668	-0.076
Mof_H 	H 	0.171	0.4635	0.939	0.079
Mof_C 	C 	0.149	0.5426	0.01967	0.015
Mof_C 	C 	0.1422	0.632	0.04656	-0.084
Mof_H 	H 	0.1209	0.6486	0.0887	0.074
Mof_C 	C 	0.1679	0.6953	0.00942	0.038
Mof_H 	H 	0.1643	0.7548	0.0269	0.034
Mof_C 	C 	0.2494	0.3796	0.09291	-0.001
Mof_C 	C 	0.3156	0.2929	0.05751	-0.072
Mof_H 	H 	0.2921	0.2759	0.0224	0.071
Mof_C 	C 	0.4198	0.2297	0.07456	0.011
Mof_H 	H 	0.4651	0.1697	0.0509	0.044
Mof_C 	C 	0.4558	0.255	0.12559	-0.084
Mof_C 	C 	0.3868	0.3435	0.16227	0.01
Mof_H 	H 	0.4099	0.3595	0.1979	0.049
Mof_C 	C 	0.2838	0.4076	0.14526	-0.068
Mof_H 	H 	0.2383	0.4683	0.1683	0.075
Mof_C 	C 	0.5699	0.1874	0.14219	0.348
Mof_N 	N 	0.7794	0.9221	0.14837	-0.223
Mof_N 	N 	0.5343	0.6858	0.52836	-0.222
Mof_N 	N 	0.4411	0.2684	0.34125	-0.222
Mof_N 	N 	0.196	0.0237	0.99022	-0.218
Mof_Ni	Ni	0.21228	0.95469	0.90203	1.095
Mof_Ni	Ni	0.27628	0.78524	0.77149	1.102
Mof_O 	O 	0.88853	0.39523	0.24748	-0.318
Mof_O 	O 	0.46885	0.58868	0.64293	-0.435
Mof_O 	O 	0.39177	0.6385	0.73937	-0.417
Mof_O 	O 	0.6107	0.06875	0.70731	-0.222
Mof_O 	O 	0.5416	0.12286	0.8173	-0.22
Mof_O 	O 	0.13537	0.92614	0.81024	-0.47
Mof_O 	O 	0.04952	0.02469	0.89358	-0.397
Mof_O 	O 	0.3622	0.88721	0.60062	-0.406
Mof_O 	O 	0.30555	0.84557	0.68257	-0.493
Mof_O 	O 	0.9931	0.42477	0.64915	-0.218
Mof_O 	O 	0.8753	0.3739	0.71945	-0.215
Mof_O 	O 	0.7942	0.3054	0.38719	-0.293
Mof_Ni	Ni	0.43163	0.7288	0.61099	1.108
Mof_O 	O 	0.67714	0.27525	0.44667	-0.393
Mof_O 	O 	0.2454	0.71648	0.84913	-0.417
Mof_O 	O 	0.21275	0.82191	0.93132	-0.433
Mof_O 	O 	0.09434	0.39625	0.0299	-0.214
Mof_O 	O 	0.04984	0.51848	0.12048	-0.226
Mof_O 	O 	0.62711	0.11632	0.10112	-0.421
Mof_O 	O 	0.59871	0.20659	0.19309	-0.42
Mof_S 	S 	0.60264	0.12772	0.7627	0.265
Mof_S 	S 	0.94782	0.35545	0.66339	0.249
Mof_S 	S 	0.12094	0.4584	0.06775	0.285
_end
