data_functionalizedCrystal
_audit_creation_method	'EQeq! by Chris Wilmer'
_symmetry_space_group_name_H-M	'P1'
_symmetry_Int_Tables_number	1
_symmetry_cell_setting	triclinic
loop_
_symmetry_equiv_pos_as_xyz
  x,y,z
_cell_length_a	8.7509
_cell_length_b	34.339
_cell_length_c	11.0652
_cell_angle_alpha	90
_cell_angle_beta	110.917
_cell_angle_gamma	90
loop_
_atom_site_label
_atom_site_type_symbol
_atom_site_fract_x
_atom_site_fract_y
_atom_site_fract_z
_atom_site_charge
Mof_O 	O 	0.9281	0.3873	0.4068	-0.446
Mof_O 	O 	0.6961	0.3678	0.4274	-0.518
Mof_O 	O 	0.8314	0.43148	0.1558	-0.435
Mof_O 	O 	0.6045	0.409	0.179	-0.558
Mof_O 	O 	0.8371	0.3445	0.1579	-0.497
Mof_O 	O 	0.6088	0.3228	0.174	-0.545
Mof_C 	C 	0.8433	0.3783	0.4722	0.452
Mof_C 	C 	0.9244	0.3795	0.6169	0.096
Mof_C 	C 	0.84	0.3894	0.6952	-0.237
Mof_H 	H 	0.7297	0.3961	0.6578	0.109
Mof_C 	C 	0.914	0.3897	0.8297	-0.1
Mof_H 	H 	0.8557	0.3966	0.8818	0.077
Mof_C 	C 	0.6826	0.4338	0.1379	0.489
Mof_C 	C 	0.5879	0.4678	0.0668	-0.113
Mof_C 	C 	0.6607	0.4923	-0	-0.013
Mof_H 	H 	0.7644	0.4871	0.9986	0.068
Mof_C 	C 	0.5697	0.525	0.9352	0.02
Mof_H 	H 	0.6162	0.5421	0.893	0.034
Mof_C 	C 	0.7294	0.3197	0.1397	0.535
Mof_C 	C 	0.741	0.2828	0.0682	-0.125
Mof_C 	C 	0.6211	0.2539	0.0482	0.007
Mof_H 	H 	0.5351	0.2566	0.0782	0.04
Mof_C 	C 	0.6386	0.221	0.9805	-0.001
Mof_H 	H 	0.564	0.2008	0.9684	0.036
Mof_C 	C 	0.833	0.3684	0.692	0.081
Mof_H 	H 	0.7242	0.3609	0.6522	0.014
Mof_C 	C 	0.903	0.3687	0.827	0.347
Mof_H 	H 	0.8427	0.3622	0.8783	-0.072
Mof_O 	O 	0.4281	0.8873	0.4068	-0.585
Mof_O 	O 	0.1961	0.8678	0.4274	-0.552
Mof_O 	O 	0.3314	0.93148	0.1558	-0.564
Mof_O 	O 	0.1045	0.909	0.179	-0.607
Mof_O 	O 	0.3371	0.8445	0.1579	-0.6
Mof_O 	O 	0.1088	0.8228	0.174	-0.563
Mof_C 	C 	0.3433	0.8783	0.4722	0.535
Mof_C 	C 	0.4244	0.8795	0.6169	-0.159
Mof_C 	C 	0.34	0.8894	0.6952	0.109
Mof_H 	H 	0.2297	0.8961	0.6578	-0.023
Mof_C 	C 	0.414	0.8897	0.8297	0.082
Mof_H 	H 	0.3557	0.8966	0.8818	0
Mof_C 	C 	0.1826	0.9338	0.1379	0.605
Mof_C 	C 	0.0879	0.9678	0.0668	-0.472
Mof_C 	C 	0.1607	0.9923	-0	0.282
Mof_H 	H 	0.2644	0.9871	0.9986	-0.063
Mof_C 	C 	0.0697	0.025	0.9352	-0.405
Mof_H 	H 	0.1162	0.0421	0.893	0.147
Mof_C 	C 	0.2294	0.8197	0.1397	0.551
Mof_C 	C 	0.241	0.7828	0.0682	-0.166
Mof_C 	C 	0.1211	0.7539	0.0482	0.001
Mof_H 	H 	0.0351	0.7566	0.0782	0.009
Mof_C 	C 	0.1386	0.721	0.9805	-0.01
Mof_H 	H 	0.064	0.7008	0.9684	0.006
Mof_C 	C 	0.333	0.8684	0.692	-0.097
Mof_H 	H 	0.2242	0.8609	0.6522	0.047
Mof_C 	C 	0.403	0.8687	0.827	-0.11
Mof_H 	H 	0.3427	0.8622	0.8783	0.055
Mof_O 	O 	0.0719	0.3873	0.0932	-0.613
Mof_O 	O 	0.3039	0.3678	0.0726	-0.571
Mof_O 	O 	0.1686	0.43148	0.3442	-0.54
Mof_O 	O 	0.3955	0.409	0.321	-0.576
Mof_O 	O 	0.1629	0.3445	0.3421	-0.589
Mof_O 	O 	0.3912	0.3228	0.326	-0.557
Mof_C 	C 	0.1567	0.3783	0.0278	0.586
Mof_C 	C 	0.0756	0.3795	0.8831	-0.375
Mof_C 	C 	0.16	0.3894	0.8048	0.425
Mof_H 	H 	0.2703	0.3961	0.8422	-0.109
Mof_C 	C 	0.086	0.3897	0.6703	0.259
Mof_H 	H 	0.1443	0.3966	0.6182	-0.061
Mof_C 	C 	0.3174	0.4338	0.3621	0.516
Mof_C 	C 	0.4121	0.4678	0.4332	-0.159
Mof_C 	C 	0.3393	0.4923	0.5	0.007
Mof_H 	H 	0.2356	0.4871	0.5014	0.017
Mof_C 	C 	0.4303	0.525	0.5648	-0.016
Mof_H 	H 	0.3838	0.5421	0.607	0.035
Mof_C 	C 	0.2706	0.3197	0.3603	0.536
Mof_C 	C 	0.259	0.2828	0.4318	-0.15
Mof_C 	C 	0.3789	0.2539	0.4518	-0.014
Mof_H 	H 	0.4649	0.2566	0.4218	0.054
Mof_C 	C 	0.3614	0.221	0.5195	0.017
Mof_H 	H 	0.436	0.2008	0.5316	0.032
Mof_C 	C 	0.167	0.3684	0.808	-0.276
Mof_H 	H 	0.2758	0.3609	0.8478	0.122
Mof_C 	C 	0.097	0.3687	0.673	-0.542
Mof_H 	H 	0.1573	0.3622	0.6217	0.193
Mof_O 	O 	0.5719	0.8873	0.0932	-0.571
Mof_O 	O 	0.8039	0.8678	0.0726	-0.461
Mof_O 	O 	0.6686	0.93148	0.3442	-0.496
Mof_O 	O 	0.8955	0.909	0.321	-0.442
Mof_O 	O 	0.6629	0.8445	0.3421	-0.582
Mof_O 	O 	0.8912	0.8228	0.326	-0.462
Mof_C 	C 	0.6567	0.8783	0.0278	0.514
Mof_C 	C 	0.5756	0.8795	0.8831	-0.128
Mof_C 	C 	0.66	0.8894	0.8048	0.081
Mof_H 	H 	0.7703	0.8961	0.8422	0.021
Mof_C 	C 	0.586	0.8897	0.6703	0.083
Mof_H 	H 	0.6443	0.8966	0.6182	0.012
Mof_C 	C 	0.8174	0.9338	0.3621	0.385
Mof_C 	C 	0.9121	0.9678	0.4332	0.213
Mof_C 	C 	0.8393	0.9923	0.5	-0.297
Mof_H 	H 	0.7356	0.9871	0.5014	0.152
Mof_C 	C 	0.9303	0.025	0.5648	0.413
Mof_H 	H 	0.8838	0.0421	0.607	-0.076
Mof_C 	C 	0.7706	0.8197	0.3603	0.537
Mof_C 	C 	0.759	0.7828	0.4318	-0.123
Mof_C 	C 	0.8789	0.7539	0.4518	0.003
Mof_H 	H 	0.9649	0.7566	0.4218	0.083
Mof_C 	C 	0.8614	0.721	0.5195	0.014
Mof_H 	H 	0.936	0.7008	0.5316	0.07
Mof_C 	C 	0.667	0.8684	0.808	-0.103
Mof_H 	H 	0.7758	0.8609	0.8478	0.091
Mof_C 	C 	0.597	0.8687	0.673	-0.085
Mof_H 	H 	0.6573	0.8622	0.6217	0.065
Mof_O 	O 	0.0719	0.6127	0.5932	-0.613
Mof_O 	O 	0.3039	0.6322	0.5726	-0.571
Mof_O 	O 	0.1686	0.56852	0.8442	-0.54
Mof_O 	O 	0.3955	0.591	0.821	-0.575
Mof_O 	O 	0.1629	0.6555	0.8421	-0.588
Mof_O 	O 	0.3912	0.6772	0.826	-0.557
Mof_C 	C 	0.1567	0.6217	0.5278	0.582
Mof_C 	C 	0.0756	0.6205	0.3831	-0.372
Mof_C 	C 	0.16	0.6106	0.3048	0.425
Mof_H 	H 	0.2703	0.6039	0.3422	-0.108
Mof_C 	C 	0.086	0.6103	0.1703	0.259
Mof_H 	H 	0.1443	0.6034	0.1182	-0.06
Mof_C 	C 	0.3174	0.5662	0.8621	0.515
Mof_C 	C 	0.4121	0.5322	0.9332	-0.158
Mof_C 	C 	0.3393	0.5077	-0	0.008
Mof_H 	H 	0.2356	0.5129	0.0014	0.019
Mof_C 	C 	0.4303	0.475	0.0648	-0.012
Mof_H 	H 	0.3838	0.4579	0.107	0.034
Mof_C 	C 	0.2706	0.6803	0.8603	0.533
Mof_C 	C 	0.259	0.7172	0.9318	-0.143
Mof_C 	C 	0.3789	0.7461	0.9518	-0.026
Mof_H 	H 	0.4649	0.7434	0.9218	0.057
Mof_C 	C 	0.3614	0.779	0.0195	0.029
Mof_H 	H 	0.436	0.7992	0.0316	0.029
Mof_C 	C 	0.167	0.6316	0.308	-0.277
Mof_H 	H 	0.2758	0.6391	0.3478	0.123
Mof_C 	C 	0.097	0.6313	0.173	-0.543
Mof_H 	H 	0.1573	0.6378	0.1217	0.195
Mof_O 	O 	0.5719	0.1127	0.5932	-0.571
Mof_O 	O 	0.8039	0.1322	0.5726	-0.461
Mof_O 	O 	0.6686	0.06852	0.8442	-0.497
Mof_O 	O 	0.8955	0.091	0.821	-0.442
Mof_O 	O 	0.6629	0.1555	0.8421	-0.582
Mof_O 	O 	0.8912	0.1772	0.826	-0.461
Mof_C 	C 	0.6567	0.1217	0.5278	0.511
Mof_C 	C 	0.5756	0.1205	0.3831	-0.124
Mof_C 	C 	0.66	0.1106	0.3048	0.079
Mof_H 	H 	0.7703	0.1039	0.3422	0.023
Mof_C 	C 	0.586	0.1103	0.1703	0.081
Mof_H 	H 	0.6443	0.1034	0.1182	0.013
Mof_C 	C 	0.8174	0.0662	0.8621	0.386
Mof_C 	C 	0.9121	0.0322	0.9332	0.209
Mof_C 	C 	0.8393	0.0077	-0	-0.293
Mof_H 	H 	0.7356	0.0129	0.0014	0.151
Mof_C 	C 	0.9303	0.975	0.0648	0.41
Mof_H 	H 	0.8838	0.9579	0.107	-0.075
Mof_C 	C 	0.7706	0.1803	0.8603	0.533
Mof_C 	C 	0.759	0.2172	0.9318	-0.114
Mof_C 	C 	0.8789	0.2461	0.9518	-0.011
Mof_H 	H 	0.9649	0.2434	0.9218	0.086
Mof_C 	C 	0.8614	0.279	0.0195	0.028
Mof_H 	H 	0.936	0.2992	0.0316	0.066
Mof_C 	C 	0.667	0.1316	0.308	-0.102
Mof_H 	H 	0.7758	0.1391	0.3478	0.092
Mof_C 	C 	0.597	0.1313	0.173	-0.084
Mof_H 	H 	0.6573	0.1378	0.1217	0.066
Mof_O 	O 	0.9281	0.6127	0.9068	-0.447
Mof_O 	O 	0.6961	0.6322	0.9274	-0.519
Mof_O 	O 	0.8314	0.56852	0.6558	-0.436
Mof_O 	O 	0.6045	0.591	0.679	-0.558
Mof_O 	O 	0.8371	0.6555	0.6579	-0.497
Mof_O 	O 	0.6088	0.6772	0.674	-0.545
Mof_C 	C 	0.8433	0.6217	0.9722	0.446
Mof_C 	C 	0.9244	0.6205	0.1169	0.099
Mof_C 	C 	0.84	0.6106	0.1952	-0.239
Mof_H 	H 	0.7297	0.6039	0.1578	0.109
Mof_C 	C 	0.914	0.6103	0.3297	-0.1
Mof_H 	H 	0.8557	0.6034	0.3818	0.079
Mof_C 	C 	0.6826	0.5662	0.6379	0.486
Mof_C 	C 	0.5879	0.5322	0.5668	-0.106
Mof_C 	C 	0.6607	0.5077	0.5	-0.031
Mof_H 	H 	0.7644	0.5129	0.4986	0.078
Mof_C 	C 	0.5697	0.475	0.4352	0.032
Mof_H 	H 	0.6162	0.4579	0.393	0.031
Mof_C 	C 	0.7294	0.6803	0.6397	0.531
Mof_C 	C 	0.741	0.7172	0.5682	-0.116
Mof_C 	C 	0.6211	0.7461	0.5482	-0.007
Mof_H 	H 	0.5351	0.7434	0.5782	0.044
Mof_C 	C 	0.6386	0.779	0.4805	0.015
Mof_H 	H 	0.564	0.7992	0.4684	0.032
Mof_C 	C 	0.833	0.6316	0.192	0.08
Mof_H 	H 	0.7242	0.6391	0.1522	0.015
Mof_C 	C 	0.903	0.6313	0.327	0.347
Mof_H 	H 	0.8427	0.6378	0.3783	-0.07
Mof_O 	O 	0.4281	0.1127	0.9068	-0.585
Mof_O 	O 	0.1961	0.1322	0.9274	-0.551
Mof_O 	O 	0.3314	0.06852	0.6558	-0.564
Mof_O 	O 	0.1045	0.091	0.679	-0.607
Mof_O 	O 	0.3371	0.1555	0.6579	-0.599
Mof_O 	O 	0.1088	0.1772	0.674	-0.563
Mof_C 	C 	0.3433	0.1217	0.9722	0.531
Mof_C 	C 	0.4244	0.1205	0.1169	-0.155
Mof_C 	C 	0.34	0.1106	0.1952	0.108
Mof_H 	H 	0.2297	0.1039	0.1578	-0.021
Mof_C 	C 	0.414	0.1103	0.3297	0.081
Mof_H 	H 	0.3557	0.1034	0.3818	0.001
Mof_C 	C 	0.1826	0.0662	0.6379	0.604
Mof_C 	C 	0.0879	0.0322	0.5668	-0.472
Mof_C 	C 	0.1607	0.0077	0.5	0.275
Mof_H 	H 	0.2644	0.0129	0.4986	-0.058
Mof_C 	C 	0.0697	0.975	0.4352	-0.403
Mof_H 	H 	0.1162	0.9579	0.393	0.147
Mof_C 	C 	0.2294	0.1803	0.6397	0.548
Mof_C 	C 	0.241	0.2172	0.5682	-0.158
Mof_C 	C 	0.1211	0.2461	0.5482	-0.011
Mof_H 	H 	0.0351	0.2434	0.5782	0.013
Mof_C 	C 	0.1386	0.279	0.4805	0.002
Mof_H 	H 	0.064	0.2992	0.4684	0.002
Mof_C 	C 	0.333	0.1316	0.192	-0.096
Mof_H 	H 	0.2242	0.1391	0.1522	0.048
Mof_C 	C 	0.403	0.1313	0.327	-0.11
Mof_H 	H 	0.3427	0.1378	0.3783	0.056
Mof_Sc	Sc	0.5	0.36605	0.25	1.939
Mof_Sc	Sc	1.6084e-33	0.86605	0.25	1.65
Mof_Sc	Sc	0.5	0.63395	0.75	1.937
Mof_Sc	Sc	7.32062e-17	0.13395	0.75	1.65
Mof_Sc	Sc	1.6084e-33	0.38725	0.25	1.662
Mof_Sc	Sc	0.5	0.88725	0.25	1.973
Mof_Sc	Sc	7.32062e-17	0.61275	0.75	1.66
Mof_Sc	Sc	0.5	0.11275	0.75	1.971
_end
