data_functionalizedCrystal
_audit_creation_method	'EQeq! by Chris Wilmer'
_symmetry_space_group_name_H-M	'P1'
_symmetry_Int_Tables_number	1
_symmetry_cell_setting	triclinic
loop_
_symmetry_equiv_pos_as_xyz
  x,y,z
_cell_length_a	25.1267
_cell_length_b	22.1514
_cell_length_c	13.6062
_cell_angle_alpha	90
_cell_angle_beta	90
_cell_angle_gamma	90
loop_
_atom_site_label
_atom_site_type_symbol
_atom_site_fract_x
_atom_site_fract_y
_atom_site_fract_z
_atom_site_charge
Mof_Gd	Gd	0.03291	0.82867	0.48271	1.318
Mof_Ru	Ru	0.35137	0.69869	0.25896	1.032
Mof_Ru	Ru	0.12938	0.65121	0.26092	1.014
Mof_C 	C 	0.24244	0.6628	0.3118	0.08
Mof_C 	C 	0.2029	0.6094	0.4354	0.126
Mof_H 	H 	0.1729	0.5939	0.4662	-0.023
Mof_C 	C 	0.2525	0.6012	0.4771	-0.192
Mof_H 	H 	0.2559	0.5796	0.5355	0.106
Mof_C 	C 	0.2966	0.625	0.432	0.128
Mof_H 	H 	0.33	0.619	0.4597	-0.017
Mof_C 	C 	0.23674	0.6958	0.219	0.072
Mof_C 	C 	0.1825	0.7316	0.0972	0.02
Mof_H 	H 	0.1489	0.7368	0.0697	0.032
Mof_C 	C 	0.2268	0.7571	0.0511	0.065
Mof_H 	H 	0.2231	0.7789	0.993	-0.037
Mof_C 	C 	0.2763	0.7493	0.0937	0.014
Mof_H 	H 	0.3063	0.7656	0.0634	0.057
Mof_C 	C 	0.3447	0.7791	0.3319	-0.178
Mof_C 	C 	0.1018	0.7393	0.6654	-0.2
Mof_C 	C 	0.9138	0.8228	0.3408	-0.182
Mof_C 	C 	0.3593	0.6196	0.1862	-0.177
Mof_C 	C 	0.1034	0.7265	0.3297	-0.174
Mof_C 	C 	0.07	0.6636	0.1684	-0.176
Mof_C 	C 	0.0833	0.603	0.3482	-0.197
Mof_C 	C 	0.1514	0.5751	0.187	-0.16
Mof_N 	N 	0.19797	0.6398	0.3507	-0.237
Mof_N 	N 	0.29209	0.6571	0.3477	-0.236
Mof_N 	N 	0.18785	0.69996	0.1804	-0.212
Mof_N 	N 	0.28168	0.71822	0.1792	-0.209
Mof_N 	N 	0.3424	0.8247	0.3713	-0.063
Mof_N 	N 	0.0768	0.7683	0.6087	-0.166
Mof_N 	N 	0.9508	0.8335	0.3881	-0.165
Mof_N 	N 	0.3644	0.5737	0.1451	-0.061
Mof_N 	N 	0.0851	0.7686	0.3667	-0.178
Mof_N 	N 	0.0345	0.671	0.1161	-0.135
Mof_N 	N 	0.05787	0.5744	0.4015	-0.163
Mof_N 	N 	0.1636	0.5318	0.1458	-0.04
Mof_O 	O 	0.0019	0.9331	0.5087	-0.193
Mof_O 	O 	0.9553	0.5816	0.0746	-0.165
Mof_O 	O 	0.107	0.8847	0.5261	-0.165
Mof_O 	O 	0.8702	0.6414	0.9817	-0.261
Mof_Gd	Gd	0.03291	0.32867	0.98271	1.113
Mof_Ru	Ru	0.35137	0.19869	0.75896	1.025
Mof_Ru	Ru	0.12938	0.15121	0.76092	1.009
Mof_C 	C 	0.24244	0.1628	0.8118	0.082
Mof_C 	C 	0.2029	0.1094	0.9354	0.236
Mof_H 	H 	0.1729	0.0939	0.9662	-0.087
Mof_C 	C 	0.2525	0.1012	0.9771	-0.454
Mof_H 	H 	0.2559	0.0796	0.0355	0.249
Mof_C 	C 	0.2966	0.125	0.932	0.238
Mof_H 	H 	0.33	0.119	0.9597	-0.086
Mof_C 	C 	0.23674	0.1958	0.719	0.073
Mof_C 	C 	0.1825	0.2316	0.5972	0.121
Mof_H 	H 	0.1489	0.2368	0.5697	-0.033
Mof_C 	C 	0.2268	0.2571	0.5511	-0.187
Mof_H 	H 	0.2231	0.2789	0.493	0.102
Mof_C 	C 	0.2763	0.2493	0.5937	0.118
Mof_H 	H 	0.3063	0.2656	0.5634	-0.01
Mof_C 	C 	0.3447	0.2791	0.8319	-0.189
Mof_C 	C 	0.1018	0.2393	0.1654	-0.19
Mof_C 	C 	0.9138	0.3228	0.8408	-0.203
Mof_C 	C 	0.3593	0.1196	0.6862	-0.198
Mof_C 	C 	0.1034	0.2265	0.8297	-0.191
Mof_C 	C 	0.07	0.1636	0.6684	-0.185
Mof_C 	C 	0.0833	0.103	0.8482	-0.208
Mof_C 	C 	0.1514	0.0751	0.687	-0.175
Mof_N 	N 	0.19797	0.1398	0.8507	-0.262
Mof_N 	N 	0.29209	0.1571	0.8477	-0.262
Mof_N 	N 	0.18785	0.19996	0.6804	-0.236
Mof_N 	N 	0.28168	0.21822	0.6792	-0.234
Mof_N 	N 	0.3424	0.3247	0.8713	-0.079
Mof_N 	N 	0.0768	0.2683	0.1087	-0.128
Mof_N 	N 	0.9508	0.3335	0.8881	-0.169
Mof_N 	N 	0.3644	0.0737	0.6451	-0.09
Mof_N 	N 	0.0851	0.2686	0.8667	-0.173
Mof_N 	N 	0.0345	0.171	0.6161	-0.168
Mof_N 	N 	0.05787	0.0744	0.9015	-0.165
Mof_N 	N 	0.1636	0.0318	0.6458	-0.058
Mof_O 	O 	0.0019	0.4331	0.0087	-0.157
Mof_O 	O 	0.9553	0.0816	0.5746	-0.19
Mof_O 	O 	0.107	0.3847	0.0261	-0.046
Mof_O 	O 	0.8702	0.1414	0.4817	-0.158
Mof_Gd	Gd	0.96709	0.17133	0.48271	1.38
Mof_Ru	Ru	0.64863	0.30131	0.25896	1.032
Mof_Ru	Ru	0.87062	0.34879	0.26092	1.017
Mof_C 	C 	0.75756	0.3372	0.3118	0.081
Mof_C 	C 	0.7971	0.3906	0.4354	0.126
Mof_H 	H 	0.8271	0.4061	0.4662	-0.022
Mof_C 	C 	0.7475	0.3988	0.4771	-0.191
Mof_H 	H 	0.7441	0.4204	0.5355	0.106
Mof_C 	C 	0.7034	0.375	0.432	0.128
Mof_H 	H 	0.67	0.381	0.4597	-0.017
Mof_C 	C 	0.76326	0.3042	0.219	0.071
Mof_C 	C 	0.8175	0.2684	0.0972	0.017
Mof_H 	H 	0.8511	0.2632	0.0697	0.034
Mof_C 	C 	0.7732	0.2429	0.0511	0.066
Mof_H 	H 	0.7769	0.2211	0.993	-0.041
Mof_C 	C 	0.7237	0.2507	0.0937	0.01
Mof_H 	H 	0.6937	0.2344	0.0634	0.056
Mof_C 	C 	0.6553	0.2209	0.3319	-0.181
Mof_C 	C 	0.8982	0.2607	0.6654	-0.194
Mof_C 	C 	0.0862	0.1772	0.3408	-0.193
Mof_C 	C 	0.6407	0.3804	0.1862	-0.177
Mof_C 	C 	0.8966	0.2735	0.3297	-0.171
Mof_C 	C 	0.93	0.3364	0.1684	-0.169
Mof_C 	C 	0.9167	0.397	0.3482	-0.19
Mof_C 	C 	0.8486	0.4249	0.187	-0.156
Mof_N 	N 	0.80203	0.3602	0.3507	-0.237
Mof_N 	N 	0.70791	0.3429	0.3477	-0.236
Mof_N 	N 	0.81215	0.30004	0.1804	-0.212
Mof_N 	N 	0.71832	0.28178	0.1792	-0.21
Mof_N 	N 	0.6576	0.1753	0.3713	-0.072
Mof_N 	N 	0.9232	0.2317	0.6087	-0.164
Mof_N 	N 	0.0492	0.1665	0.3881	-0.189
Mof_N 	N 	0.6356	0.4263	0.1451	-0.061
Mof_N 	N 	0.9149	0.2314	0.3667	-0.179
Mof_N 	N 	0.9655	0.329	0.1161	-0.113
Mof_N 	N 	0.94213	0.4256	0.4015	-0.152
Mof_N 	N 	0.8364	0.4682	0.1458	-0.038
Mof_O 	O 	0.9981	0.0669	0.5087	-0.189
Mof_O 	O 	0.0447	0.4184	0.0746	-0.171
Mof_O 	O 	0.893	0.1153	0.5261	-0.177
Mof_O 	O 	0.1298	0.3586	0.9817	-0.261
Mof_Gd	Gd	0.96709	0.67133	0.98271	1.187
Mof_Ru	Ru	0.64863	0.80131	0.75896	1.027
Mof_Ru	Ru	0.87062	0.84879	0.76092	1.015
Mof_C 	C 	0.75756	0.8372	0.8118	0.084
Mof_C 	C 	0.7971	0.8906	0.9354	0.238
Mof_H 	H 	0.8271	0.9061	0.9662	-0.081
Mof_C 	C 	0.7475	0.8988	0.9771	-0.448
Mof_H 	H 	0.7441	0.9204	0.0355	0.253
Mof_C 	C 	0.7034	0.875	0.932	0.24
Mof_H 	H 	0.67	0.881	0.9597	-0.082
Mof_C 	C 	0.76326	0.8042	0.719	0.073
Mof_C 	C 	0.8175	0.7684	0.5972	0.121
Mof_H 	H 	0.8511	0.7632	0.5697	-0.03
Mof_C 	C 	0.7732	0.7429	0.5511	-0.186
Mof_H 	H 	0.7769	0.7211	0.493	0.102
Mof_C 	C 	0.7237	0.7507	0.5937	0.118
Mof_H 	H 	0.6937	0.7344	0.5634	-0.01
Mof_C 	C 	0.6553	0.7209	0.8319	-0.189
Mof_C 	C 	0.8982	0.7607	0.1654	-0.181
Mof_C 	C 	0.0862	0.6772	0.8408	-0.21
Mof_C 	C 	0.6407	0.8804	0.6862	-0.192
Mof_C 	C 	0.8966	0.7735	0.8297	-0.185
Mof_C 	C 	0.93	0.8364	0.6684	-0.174
Mof_C 	C 	0.9167	0.897	0.8482	-0.194
Mof_C 	C 	0.8486	0.9249	0.687	-0.163
Mof_N 	N 	0.80203	0.8602	0.8507	-0.262
Mof_N 	N 	0.70791	0.8429	0.8477	-0.261
Mof_N 	N 	0.81215	0.80004	0.6804	-0.236
Mof_N 	N 	0.71832	0.78178	0.6792	-0.234
Mof_N 	N 	0.6576	0.6753	0.8713	-0.079
Mof_N 	N 	0.9232	0.7317	0.1087	-0.127
Mof_N 	N 	0.0492	0.6665	0.8881	-0.19
Mof_N 	N 	0.6356	0.9263	0.6451	-0.079
Mof_N 	N 	0.9149	0.7314	0.8667	-0.173
Mof_N 	N 	0.9655	0.829	0.6161	-0.144
Mof_N 	N 	0.94213	0.9256	0.9015	-0.142
Mof_N 	N 	0.8364	0.9682	0.6458	-0.041
Mof_O 	O 	0.9981	0.5669	0.0087	-0.135
Mof_O 	O 	0.0447	0.9184	0.5746	-0.182
Mof_O 	O 	0.893	0.6153	0.0261	-0.05
Mof_O 	O 	0.1298	0.8586	0.4817	-0.149
Mof_Gd	Gd	0.53291	0.67133	0.48271	1.348
Mof_Ru	Ru	0.85137	0.80131	0.25896	1.035
Mof_Ru	Ru	0.62938	0.84879	0.26092	1.018
Mof_C 	C 	0.74244	0.8372	0.3118	0.082
Mof_C 	C 	0.7029	0.8906	0.4354	0.128
Mof_H 	H 	0.6729	0.9061	0.4662	-0.02
Mof_C 	C 	0.7525	0.8988	0.4771	-0.19
Mof_H 	H 	0.7559	0.9204	0.5355	0.11
Mof_C 	C 	0.7966	0.875	0.432	0.129
Mof_H 	H 	0.83	0.881	0.4597	-0.014
Mof_C 	C 	0.73674	0.8042	0.219	0.072
Mof_C 	C 	0.6825	0.7684	0.0972	0.019
Mof_H 	H 	0.6489	0.7632	0.0697	0.032
Mof_C 	C 	0.7268	0.7429	0.0511	0.064
Mof_H 	H 	0.7231	0.7211	0.993	-0.039
Mof_C 	C 	0.7763	0.7507	0.0937	0.012
Mof_H 	H 	0.8063	0.7344	0.0634	0.056
Mof_C 	C 	0.8447	0.7209	0.3319	-0.178
Mof_C 	C 	0.6018	0.7607	0.6654	-0.197
Mof_C 	C 	0.4138	0.6772	0.3408	-0.188
Mof_C 	C 	0.8593	0.8804	0.1862	-0.171
Mof_C 	C 	0.6034	0.7735	0.3297	-0.173
Mof_C 	C 	0.57	0.8364	0.1684	-0.171
Mof_C 	C 	0.5833	0.897	0.3482	-0.19
Mof_C 	C 	0.6514	0.9249	0.187	-0.154
Mof_N 	N 	0.69797	0.8602	0.3507	-0.237
Mof_N 	N 	0.79209	0.8429	0.3477	-0.235
Mof_N 	N 	0.68785	0.80004	0.1804	-0.212
Mof_N 	N 	0.78168	0.78178	0.1792	-0.21
Mof_N 	N 	0.8424	0.6753	0.3713	-0.066
Mof_N 	N 	0.5768	0.7317	0.6087	-0.165
Mof_N 	N 	0.4508	0.6665	0.3881	-0.177
Mof_N 	N 	0.8644	0.9263	0.1451	-0.051
Mof_N 	N 	0.5851	0.7314	0.3667	-0.179
Mof_N 	N 	0.5345	0.829	0.1161	-0.124
Mof_N 	N 	0.55787	0.9256	0.4015	-0.149
Mof_N 	N 	0.6636	0.9682	0.1458	-0.031
Mof_O 	O 	0.5019	0.5669	0.5087	-0.192
Mof_O 	O 	0.4553	0.9184	0.0746	-0.16
Mof_O 	O 	0.607	0.6153	0.5261	-0.172
Mof_O 	O 	0.3702	0.8586	0.9817	-0.257
Mof_Gd	Gd	0.53291	0.17133	0.98271	1.142
Mof_Ru	Ru	0.85137	0.30131	0.75896	1.026
Mof_Ru	Ru	0.62938	0.34879	0.76092	1.01
Mof_C 	C 	0.74244	0.3372	0.8118	0.083
Mof_C 	C 	0.7029	0.3906	0.9354	0.238
Mof_H 	H 	0.6729	0.4061	0.9662	-0.086
Mof_C 	C 	0.7525	0.3988	0.9771	-0.452
Mof_H 	H 	0.7559	0.4204	0.0355	0.252
Mof_C 	C 	0.7966	0.375	0.932	0.239
Mof_H 	H 	0.83	0.381	0.9597	-0.083
Mof_C 	C 	0.73674	0.3042	0.719	0.072
Mof_C 	C 	0.6825	0.2684	0.5972	0.12
Mof_H 	H 	0.6489	0.2632	0.5697	-0.032
Mof_C 	C 	0.7268	0.2429	0.5511	-0.187
Mof_H 	H 	0.7231	0.2211	0.493	0.1
Mof_C 	C 	0.7763	0.2507	0.5937	0.116
Mof_H 	H 	0.8063	0.2344	0.5634	-0.011
Mof_C 	C 	0.8447	0.2209	0.8319	-0.188
Mof_C 	C 	0.6018	0.2607	0.1654	-0.188
Mof_C 	C 	0.4138	0.1772	0.8408	-0.209
Mof_C 	C 	0.8593	0.3804	0.6862	-0.193
Mof_C 	C 	0.6034	0.2735	0.8297	-0.189
Mof_C 	C 	0.57	0.3364	0.6684	-0.181
Mof_C 	C 	0.5833	0.397	0.8482	-0.202
Mof_C 	C 	0.6514	0.4249	0.687	-0.17
Mof_N 	N 	0.69797	0.3602	0.8507	-0.262
Mof_N 	N 	0.79209	0.3429	0.8477	-0.261
Mof_N 	N 	0.68785	0.30004	0.6804	-0.236
Mof_N 	N 	0.78168	0.28178	0.6792	-0.234
Mof_N 	N 	0.8424	0.1753	0.8713	-0.08
Mof_N 	N 	0.5768	0.2317	0.1087	-0.128
Mof_N 	N 	0.4508	0.1665	0.8881	-0.181
Mof_N 	N 	0.8644	0.4263	0.6451	-0.083
Mof_N 	N 	0.5851	0.2314	0.8667	-0.174
Mof_N 	N 	0.5345	0.329	0.6161	-0.156
Mof_N 	N 	0.55787	0.4256	0.9015	-0.166
Mof_N 	N 	0.6636	0.4682	0.6458	-0.05
Mof_O 	O 	0.5019	0.0669	0.0087	-0.155
Mof_O 	O 	0.4553	0.4184	0.5746	-0.187
Mof_O 	O 	0.607	0.1153	0.0261	-0.052
Mof_O 	O 	0.3702	0.3586	0.4817	-0.154
Mof_Gd	Gd	0.46709	0.32867	0.48271	1.345
Mof_Ru	Ru	0.14863	0.19869	0.25896	1.031
Mof_Ru	Ru	0.37062	0.15121	0.26092	1.015
Mof_C 	C 	0.25756	0.1628	0.3118	0.08
Mof_C 	C 	0.2971	0.1094	0.4354	0.124
Mof_H 	H 	0.3271	0.0939	0.4662	-0.025
Mof_C 	C 	0.2475	0.1012	0.4771	-0.193
Mof_H 	H 	0.2441	0.0796	0.5355	0.103
Mof_C 	C 	0.2034	0.125	0.432	0.126
Mof_H 	H 	0.17	0.119	0.4597	-0.02
Mof_C 	C 	0.26326	0.1958	0.219	0.071
Mof_C 	C 	0.3175	0.2316	0.0972	0.017
Mof_H 	H 	0.3511	0.2368	0.0697	0.033
Mof_C 	C 	0.2732	0.2571	0.0511	0.067
Mof_H 	H 	0.2769	0.2789	0.993	-0.041
Mof_C 	C 	0.2237	0.2493	0.0937	0.011
Mof_H 	H 	0.1937	0.2656	0.0634	0.058
Mof_C 	C 	0.1553	0.2791	0.3319	-0.181
Mof_C 	C 	0.3982	0.2393	0.6654	-0.198
Mof_C 	C 	0.5862	0.3228	0.3408	-0.189
Mof_C 	C 	0.1407	0.1196	0.1862	-0.18
Mof_C 	C 	0.3966	0.2265	0.3297	-0.173
Mof_C 	C 	0.43	0.1636	0.1684	-0.175
Mof_C 	C 	0.4167	0.103	0.3482	-0.197
Mof_C 	C 	0.3486	0.0751	0.187	-0.162
Mof_N 	N 	0.30203	0.1398	0.3507	-0.237
Mof_N 	N 	0.20791	0.1571	0.3477	-0.236
Mof_N 	N 	0.31215	0.19996	0.1804	-0.211
Mof_N 	N 	0.21832	0.21822	0.1792	-0.209
Mof_N 	N 	0.1576	0.3247	0.3713	-0.07
Mof_N 	N 	0.4232	0.2683	0.6087	-0.165
Mof_N 	N 	0.5492	0.3335	0.3881	-0.178
Mof_N 	N 	0.1356	0.0737	0.1451	-0.065
Mof_N 	N 	0.4149	0.2686	0.3667	-0.179
Mof_N 	N 	0.4655	0.171	0.1161	-0.124
Mof_N 	N 	0.44213	0.0744	0.4015	-0.162
Mof_N 	N 	0.3364	0.0318	0.1458	-0.046
Mof_O 	O 	0.4981	0.4331	0.5087	-0.192
Mof_O 	O 	0.5447	0.0816	0.0746	-0.174
Mof_O 	O 	0.393	0.3847	0.5261	-0.171
Mof_O 	O 	0.6298	0.1414	0.9817	-0.265
Mof_Gd	Gd	0.46709	0.82867	0.98271	1.152
Mof_Ru	Ru	0.14863	0.69869	0.75896	1.026
Mof_Ru	Ru	0.37062	0.65121	0.76092	1.011
Mof_C 	C 	0.25756	0.6628	0.8118	0.083
Mof_C 	C 	0.2971	0.6094	0.9354	0.239
Mof_H 	H 	0.3271	0.5939	0.9662	-0.086
Mof_C 	C 	0.2475	0.6012	0.9771	-0.454
Mof_H 	H 	0.2441	0.5796	0.0355	0.252
Mof_C 	C 	0.2034	0.625	0.932	0.24
Mof_H 	H 	0.17	0.619	0.9597	-0.086
Mof_C 	C 	0.26326	0.6958	0.719	0.074
Mof_C 	C 	0.3175	0.7316	0.5972	0.122
Mof_H 	H 	0.3511	0.7368	0.5697	-0.031
Mof_C 	C 	0.2732	0.7571	0.5511	-0.186
Mof_H 	H 	0.2769	0.7789	0.493	0.104
Mof_C 	C 	0.2237	0.7493	0.5937	0.119
Mof_H 	H 	0.1937	0.7656	0.5634	-0.008
Mof_C 	C 	0.1553	0.7791	0.8319	-0.189
Mof_C 	C 	0.3982	0.7393	0.1654	-0.186
Mof_C 	C 	0.5862	0.8228	0.8408	-0.205
Mof_C 	C 	0.1407	0.6196	0.6862	-0.198
Mof_C 	C 	0.3966	0.7265	0.8297	-0.187
Mof_C 	C 	0.43	0.6636	0.6684	-0.18
Mof_C 	C 	0.4167	0.603	0.8482	-0.202
Mof_C 	C 	0.3486	0.5751	0.687	-0.17
Mof_N 	N 	0.30203	0.6398	0.8507	-0.263
Mof_N 	N 	0.20791	0.6571	0.8477	-0.262
Mof_N 	N 	0.31215	0.69996	0.6804	-0.236
Mof_N 	N 	0.21832	0.71822	0.6792	-0.233
Mof_N 	N 	0.1576	0.8247	0.8713	-0.074
Mof_N 	N 	0.4232	0.7683	0.1087	-0.128
Mof_N 	N 	0.5492	0.8335	0.8881	-0.179
Mof_N 	N 	0.1356	0.5737	0.6451	-0.087
Mof_N 	N 	0.4149	0.7686	0.8667	-0.172
Mof_N 	N 	0.4655	0.671	0.6161	-0.156
Mof_N 	N 	0.44213	0.5744	0.9015	-0.166
Mof_N 	N 	0.3364	0.5318	0.6458	-0.05
Mof_O 	O 	0.4981	0.9331	0.0087	-0.137
Mof_O 	O 	0.5447	0.5816	0.5746	-0.187
Mof_O 	O 	0.393	0.8847	0.0261	-0.043
Mof_O 	O 	0.6298	0.6414	0.4817	-0.154
Mof_Gd	Gd	-5.68441e-33	0.5	0.48378	0.805
Mof_Gd	Gd	8.66402e-33	6.66664e-33	0.98378	0.675
Mof_Gd	Gd	0.5	0	0.48378	0.791
Mof_Gd	Gd	0.5	0.5	0.98378	0.761
_end
