data_functionalizedCrystal
_audit_creation_method	'EQeq! by Chris Wilmer'
_symmetry_space_group_name_H-M	'P1'
_symmetry_Int_Tables_number	1
_symmetry_cell_setting	triclinic
loop_
_symmetry_equiv_pos_as_xyz
  x,y,z
_cell_length_a	6.5634
_cell_length_b	25.3343
_cell_length_c	7.84
_cell_angle_alpha	90
_cell_angle_beta	90.718
_cell_angle_gamma	90
loop_
_atom_site_label
_atom_site_type_symbol
_atom_site_fract_x
_atom_site_fract_y
_atom_site_fract_z
_atom_site_charge
Mof_Co	Co	0.12349	0.21413	0.94253	1.173
Mof_O 	O 	0.9354	0.24035	0.7446	-0.414
Mof_O 	O 	0.3192	0.18483	0.1273	-0.409
Mof_C 	C 	0.9324	0.28953	0.7285	0.333
Mof_C 	C 	0.077	0.32241	0.8433	-0.054
Mof_H 	H 	0.1315	0.3526	0.7753	0.051
Mof_N 	N 	0.2496	0.28962	0.9038	-0.325
Mof_H 	H 	0.3036	0.3028	0.0039	0.126
Mof_H 	H 	0.3506	0.2884	0.8235	0.125
Mof_C 	C 	0.9594	0.3443	0.994	-0.302
Mof_H 	H 	0.8389	0.3634	0.9485	0.123
Mof_H 	H 	0.0471	0.3706	0.0528	0.114
Mof_C 	C 	0.886	0.30479	0.1273	0.411
Mof_O 	O 	0.9266	0.25628	0.1137	-0.427
Mof_O 	O 	0.7874	0.32531	0.247	-0.419
Mof_N 	N 	0.9427	0.14503	0.9814	-0.219
Mof_C 	C 	0.7492	0.14361	0.924	0.089
Mof_H 	H 	0.6977	0.1736	0.8649	0.001
Mof_C 	C 	0.621	0.10104	0.946	-0.169
Mof_H 	H 	0.4864	0.1016	0.9002	0.094
Mof_C 	C 	0.6911	0.05743	0.0357	0.117
Mof_C 	C 	0.8904	0.05864	0.0961	-0.16
Mof_H 	H 	0.9442	0.0295	0.1582	0.078
Mof_C 	C 	0.0114	0.10248	0.0658	0.071
Mof_H 	H 	0.1484	0.1023	0.1066	0.005
Mof_C 	C 	0.5472	0.0118	0.0757	-0.145
Mof_H 	H 	0.6243	0.9842	0.1384	0.065
Mof_H 	H 	0.4387	0.0248	0.1515	0.068
Mof_Co	Co	0.37651	0.71413	0.55747	1.182
Mof_O 	O 	0.5646	0.74035	0.7554	-0.415
Mof_O 	O 	0.1808	0.68483	0.3727	-0.41
Mof_C 	C 	0.5676	0.78953	0.7715	0.314
Mof_C 	C 	0.423	0.82241	0.6567	-0.015
Mof_H 	H 	0.3685	0.8526	0.7247	0.044
Mof_N 	N 	0.2504	0.78962	0.5962	-0.325
Mof_H 	H 	0.1964	0.8028	0.4961	0.127
Mof_H 	H 	0.1494	0.7884	0.6765	0.128
Mof_C 	C 	0.5406	0.8443	0.506	-0.347
Mof_H 	H 	0.6611	0.8634	0.5515	0.134
Mof_H 	H 	0.4529	0.8706	0.4472	0.131
Mof_C 	C 	0.614	0.80479	0.3727	0.422
Mof_O 	O 	0.5734	0.75628	0.3863	-0.437
Mof_O 	O 	0.7126	0.82531	0.253	-0.428
Mof_N 	N 	0.5573	0.64503	0.5186	-0.23
Mof_C 	C 	0.7508	0.64361	0.576	0.1
Mof_H 	H 	0.8023	0.6736	0.6351	-0.006
Mof_C 	C 	0.879	0.60104	0.554	-0.193
Mof_H 	H 	0.0136	0.6016	0.5998	0.108
Mof_C 	C 	0.8089	0.55743	0.4643	0.13
Mof_C 	C 	0.6096	0.55864	0.4039	-0.179
Mof_H 	H 	0.5558	0.5295	0.3418	0.084
Mof_C 	C 	0.4886	0.60248	0.4342	0.09
Mof_H 	H 	0.3516	0.6023	0.3934	-0
Mof_C 	C 	0.9528	0.5118	0.4243	-0.154
Mof_H 	H 	0.8757	0.4842	0.3616	0.068
Mof_H 	H 	0.0613	0.5248	0.3485	0.072
Mof_Co	Co	0.87651	0.78587	0.05747	1.174
Mof_O 	O 	0.0646	0.75965	0.2554	-0.413
Mof_O 	O 	0.6808	0.81517	0.8727	-0.408
Mof_C 	C 	0.0676	0.71047	0.2715	0.334
Mof_C 	C 	0.923	0.67759	0.1567	-0.053
Mof_H 	H 	0.8685	0.6474	0.2247	0.052
Mof_N 	N 	0.7504	0.71038	0.0962	-0.324
Mof_H 	H 	0.6964	0.6972	0.9961	0.127
Mof_H 	H 	0.6494	0.7116	0.1765	0.125
Mof_C 	C 	0.0406	0.6557	0.006	-0.302
Mof_H 	H 	0.1611	0.6366	0.0515	0.123
Mof_H 	H 	0.9529	0.6294	0.9472	0.114
Mof_C 	C 	0.114	0.69521	0.8727	0.411
Mof_O 	O 	0.0734	0.74372	0.8863	-0.427
Mof_O 	O 	0.2126	0.67469	0.753	-0.419
Mof_N 	N 	0.0573	0.85497	0.0186	-0.219
Mof_C 	C 	0.2508	0.85639	0.076	0.089
Mof_H 	H 	0.3023	0.8264	0.1351	0.001
Mof_C 	C 	0.379	0.89896	0.054	-0.169
Mof_H 	H 	0.5136	0.8984	0.0998	0.094
Mof_C 	C 	0.3089	0.94257	0.9643	0.117
Mof_C 	C 	0.1096	0.94136	0.9039	-0.16
Mof_H 	H 	0.0558	0.9705	0.8418	0.078
Mof_C 	C 	0.9886	0.89752	0.9342	0.071
Mof_H 	H 	0.8516	0.8977	0.8934	0.005
Mof_C 	C 	0.4528	0.9882	0.9243	-0.145
Mof_H 	H 	0.3757	0.0158	0.8616	0.065
Mof_H 	H 	0.5613	0.9752	0.8485	0.068
Mof_Co	Co	0.62349	0.28587	0.44253	1.182
Mof_O 	O 	0.4354	0.25965	0.2446	-0.415
Mof_O 	O 	0.8192	0.31517	0.6273	-0.41
Mof_C 	C 	0.4324	0.21047	0.2285	0.314
Mof_C 	C 	0.577	0.17759	0.3433	-0.015
Mof_H 	H 	0.6315	0.1474	0.2753	0.044
Mof_N 	N 	0.7496	0.21038	0.4038	-0.325
Mof_H 	H 	0.8036	0.1972	0.5039	0.127
Mof_H 	H 	0.8506	0.2116	0.3235	0.128
Mof_C 	C 	0.4594	0.1557	0.494	-0.347
Mof_H 	H 	0.3389	0.1366	0.4485	0.134
Mof_H 	H 	0.5471	0.1294	0.5528	0.131
Mof_C 	C 	0.386	0.19521	0.6273	0.422
Mof_O 	O 	0.4266	0.24372	0.6137	-0.437
Mof_O 	O 	0.2874	0.17469	0.747	-0.428
Mof_N 	N 	0.4427	0.35497	0.4814	-0.23
Mof_C 	C 	0.2492	0.35639	0.424	0.1
Mof_H 	H 	0.1977	0.3264	0.3649	-0.006
Mof_C 	C 	0.121	0.39896	0.446	-0.193
Mof_H 	H 	0.9864	0.3984	0.4002	0.108
Mof_C 	C 	0.1911	0.44257	0.5357	0.13
Mof_C 	C 	0.3904	0.44136	0.5961	-0.179
Mof_H 	H 	0.4442	0.4705	0.6582	0.084
Mof_C 	C 	0.5114	0.39752	0.5658	0.09
Mof_H 	H 	0.6484	0.3977	0.6066	-0
Mof_C 	C 	0.0472	0.4882	0.5757	-0.154
Mof_H 	H 	0.1243	0.5158	0.6384	0.068
Mof_H 	H 	0.9387	0.4752	0.6515	0.072
_end
