data_functionalizedCrystal
_audit_creation_method	'EQeq! by Chris Wilmer'
_symmetry_space_group_name_H-M	'P1'
_symmetry_Int_Tables_number	1
_symmetry_cell_setting	triclinic
loop_
_symmetry_equiv_pos_as_xyz
  x,y,z
_cell_length_a	18.786
_cell_length_b	16.768
_cell_length_c	12.803
_cell_angle_alpha	90
_cell_angle_beta	100.02
_cell_angle_gamma	90
loop_
_atom_site_label
_atom_site_type_symbol
_atom_site_fract_x
_atom_site_fract_y
_atom_site_fract_z
_atom_site_charge
Mof_Zn	Zn	0.78935	0.55165	0.66777	1.231
Mof_O 	O 	0.8181	0.6469	0.6027	-0.372
Mof_O 	O 	0.8328	0.5564	0.5119	0.093
Mof_O 	O 	0.7935	0.6783	0.5574	-0.117
Mof_O 	O 	0.8462	0.5653	0.559	-0.546
Mof_O 	O 	0.7676	0.4245	0.8167	-0.321
Mof_O 	O 	0.8507	0.4619	0.7319	-0.443
Mof_O 	O 	0.9736	0.866	0.2196	-0.125
Mof_N 	N 	0.6843	0.5258	0.6004	-0.274
Mof_C 	C 	0.6401	0.4943	0.6554	0.106
Mof_H 	H 	0.659	0.4787	0.7243	-0.011
Mof_C 	C 	0.5688	0.482	0.6214	-0.145
Mof_H 	H 	0.5407	0.4585	0.666	0.085
Mof_C 	C 	0.5379	0.5048	0.5198	0.067
Mof_C 	C 	0.5856	0.5384	0.4619	-0.143
Mof_H 	H 	0.5687	0.5553	0.3929	0.083
Mof_C 	C 	0.6573	0.5476	0.5038	0.095
Mof_H 	H 	0.6879	0.5701	0.4619	-0.005
Mof_N 	N 	0.7757	0.6233	0.7913	-0.255
Mof_C 	C 	0.7573	0.7214	0.9551	0.029
Mof_C 	C 	0.8153	0.606	0.8883	0.216
Mof_H 	H 	0.8478	0.5636	0.8976	-0.05
Mof_C 	C 	0.8053	0.6538	0.9719	-0.181
Mof_H 	H 	0.8298	0.6425	0.0398	0.091
Mof_C 	C 	0.7216	0.7318	0.857	0.193
Mof_H 	H 	0.6904	0.7747	0.8401	-0.016
Mof_C 	C 	0.7325	0.6757	0.7795	0.142
Mof_H 	H 	0.7034	0.6801	0.7132	-0.033
Mof_C 	C 	0.76	0.6	0.8856	-0.169
Mof_H 	H 	0.7609	0.5453	0.8974	0.071
Mof_C 	C 	0.7431	0.6457	0.9664	0.071
Mof_H 	H 	0.7236	0.6254	0.0229	-0.004
Mof_C 	C 	0.7566	0.7588	0.8582	-0.299
Mof_H 	H 	0.751	0.8133	0.8466	0.132
Mof_C 	C 	0.7659	0.7007	0.7778	-0.088
Mof_H 	H 	0.7648	0.7201	0.7095	0.073
Mof_C 	C 	0.9526	0.778	0.4147	-0.132
Mof_H 	H 	0.9747	0.826	0.4375	0.094
Mof_C 	C 	0.9121	0.7382	0.4796	0.081
Mof_H 	H 	0.9095	0.7588	0.5462	0.018
Mof_C 	C 	0.8766	0.6705	0.4476	-0.15
Mof_C 	C 	0.8787	0.6436	0.3447	-0.005
Mof_C 	C 	0.9227	0.6818	0.285	-0.089
Mof_H 	H 	0.9268	0.6615	0.2187	0.076
Mof_C 	C 	0.9603	0.749	0.3211	0.059
Mof_C 	C 	0.9829	0.7915	0.2282	0.035
Mof_C 	C 	0.8349	0.63	0.5212	0.494
Mof_C 	C 	0.8295	0.4183	0.7961	0.331
Mof_Zn	Zn	0.28935	0.05165	0.66777	1.232
Mof_O 	O 	0.3181	0.1469	0.6027	-0.371
Mof_O 	O 	0.3328	0.0564	0.5119	0.094
Mof_O 	O 	0.2935	0.1783	0.5574	-0.116
Mof_O 	O 	0.3462	0.0653	0.559	-0.547
Mof_O 	O 	0.2676	0.9245	0.8167	-0.32
Mof_O 	O 	0.3507	0.9619	0.7319	-0.442
Mof_O 	O 	0.4736	0.366	0.2196	-0.126
Mof_N 	N 	0.1843	0.0258	0.6004	-0.275
Mof_C 	C 	0.1401	0.9943	0.6554	0.107
Mof_H 	H 	0.159	0.9787	0.7243	-0.011
Mof_C 	C 	0.0688	0.982	0.6214	-0.145
Mof_H 	H 	0.0407	0.9585	0.666	0.085
Mof_C 	C 	0.0379	0.0048	0.5198	0.066
Mof_C 	C 	0.0856	0.0384	0.4619	-0.143
Mof_H 	H 	0.0687	0.0553	0.3929	0.084
Mof_C 	C 	0.1573	0.0476	0.5038	0.095
Mof_H 	H 	0.1879	0.0701	0.4619	-0.005
Mof_N 	N 	0.2757	0.1233	0.7913	-0.256
Mof_C 	C 	0.2573	0.2214	0.9551	0.029
Mof_C 	C 	0.3153	0.106	0.8883	0.225
Mof_H 	H 	0.3478	0.0636	0.8976	-0.054
Mof_C 	C 	0.3053	0.1538	0.9719	-0.191
Mof_H 	H 	0.3298	0.1425	0.0398	0.097
Mof_C 	C 	0.2216	0.2318	0.857	0.195
Mof_H 	H 	0.1904	0.2747	0.8401	-0.016
Mof_C 	C 	0.2325	0.1757	0.7795	0.143
Mof_H 	H 	0.2034	0.1801	0.7132	-0.033
Mof_C 	C 	0.26	0.1	0.8856	-0.174
Mof_H 	H 	0.2609	0.0453	0.8974	0.071
Mof_C 	C 	0.2431	0.1457	0.9664	0.072
Mof_H 	H 	0.2236	0.1254	0.0229	-0.003
Mof_C 	C 	0.2566	0.2588	0.8582	-0.301
Mof_H 	H 	0.251	0.3133	0.8466	0.133
Mof_C 	C 	0.2659	0.2007	0.7778	-0.088
Mof_H 	H 	0.2648	0.2201	0.7095	0.073
Mof_C 	C 	0.4526	0.278	0.4147	-0.133
Mof_H 	H 	0.4747	0.326	0.4375	0.095
Mof_C 	C 	0.4121	0.2382	0.4796	0.081
Mof_H 	H 	0.4095	0.2588	0.5462	0.018
Mof_C 	C 	0.3766	0.1705	0.4476	-0.15
Mof_C 	C 	0.3787	0.1436	0.3447	-0.004
Mof_C 	C 	0.4227	0.1818	0.285	-0.09
Mof_H 	H 	0.4268	0.1615	0.2187	0.077
Mof_C 	C 	0.4603	0.249	0.3211	0.06
Mof_C 	C 	0.4829	0.2915	0.2282	0.04
Mof_C 	C 	0.3349	0.13	0.5212	0.494
Mof_C 	C 	0.3295	0.9183	0.7961	0.331
Mof_Zn	Zn	0.21065	0.55165	0.83223	1.232
Mof_O 	O 	0.1819	0.6469	0.8973	-0.372
Mof_O 	O 	0.1672	0.5564	0.9881	0.094
Mof_O 	O 	0.2065	0.6783	0.9426	-0.115
Mof_O 	O 	0.1538	0.5653	0.941	-0.546
Mof_O 	O 	0.2324	0.4245	0.6833	-0.321
Mof_O 	O 	0.1493	0.4619	0.7681	-0.443
Mof_O 	O 	0.0264	0.866	0.2804	-0.127
Mof_N 	N 	0.3157	0.5258	0.8996	-0.275
Mof_C 	C 	0.3599	0.4943	0.8446	0.107
Mof_H 	H 	0.341	0.4787	0.7757	-0.011
Mof_C 	C 	0.4312	0.482	0.8786	-0.146
Mof_H 	H 	0.4593	0.4585	0.834	0.085
Mof_C 	C 	0.4621	0.5048	0.9802	0.067
Mof_C 	C 	0.4144	0.5384	0.0381	-0.145
Mof_H 	H 	0.4313	0.5553	0.1071	0.084
Mof_C 	C 	0.3427	0.5476	0.9962	0.097
Mof_H 	H 	0.3121	0.5701	0.0381	-0.006
Mof_N 	N 	0.2243	0.6233	0.7087	-0.255
Mof_C 	C 	0.2427	0.7214	0.5449	0.028
Mof_C 	C 	0.1847	0.606	0.6117	0.217
Mof_H 	H 	0.1522	0.5636	0.6024	-0.051
Mof_C 	C 	0.1947	0.6538	0.5281	-0.183
Mof_H 	H 	0.1702	0.6425	0.4602	0.092
Mof_C 	C 	0.2784	0.7318	0.643	0.193
Mof_H 	H 	0.3096	0.7747	0.6599	-0.016
Mof_C 	C 	0.2675	0.6757	0.7205	0.142
Mof_H 	H 	0.2966	0.6801	0.7868	-0.033
Mof_C 	C 	0.24	0.6	0.6144	-0.17
Mof_H 	H 	0.2391	0.5453	0.6026	0.07
Mof_C 	C 	0.2569	0.6457	0.5336	0.071
Mof_H 	H 	0.2764	0.6254	0.4771	-0.004
Mof_C 	C 	0.2434	0.7588	0.6418	-0.299
Mof_H 	H 	0.249	0.8133	0.6534	0.132
Mof_C 	C 	0.2341	0.7007	0.7222	-0.088
Mof_H 	H 	0.2352	0.7201	0.7905	0.073
Mof_C 	C 	0.0474	0.778	0.0853	-0.129
Mof_H 	H 	0.0253	0.826	0.0625	0.093
Mof_C 	C 	0.0879	0.7382	0.0204	0.076
Mof_H 	H 	0.0905	0.7588	0.9538	0.021
Mof_C 	C 	0.1234	0.6705	0.0524	-0.149
Mof_C 	C 	0.1213	0.6436	0.1553	-0.005
Mof_C 	C 	0.0773	0.6818	0.215	-0.088
Mof_H 	H 	0.0732	0.6615	0.2813	0.076
Mof_C 	C 	0.0397	0.749	0.1789	0.058
Mof_C 	C 	0.0171	0.7915	0.2718	0.045
Mof_C 	C 	0.1651	0.63	0.9788	0.494
Mof_C 	C 	0.1705	0.4183	0.7039	0.331
Mof_Zn	Zn	0.71065	0.05165	0.83223	1.232
Mof_O 	O 	0.6819	0.1469	0.8973	-0.371
Mof_O 	O 	0.6672	0.0564	0.9881	0.091
Mof_O 	O 	0.7065	0.1783	0.9426	-0.116
Mof_O 	O 	0.6538	0.0653	0.941	-0.544
Mof_O 	O 	0.7324	0.9245	0.6833	-0.321
Mof_O 	O 	0.6493	0.9619	0.7681	-0.442
Mof_O 	O 	0.5264	0.366	0.2804	-0.125
Mof_N 	N 	0.8157	0.0258	0.8996	-0.272
Mof_C 	C 	0.8599	0.9943	0.8446	0.105
Mof_H 	H 	0.841	0.9787	0.7757	-0.01
Mof_C 	C 	0.9312	0.982	0.8786	-0.138
Mof_H 	H 	0.9593	0.9585	0.834	0.083
Mof_C 	C 	0.9621	0.0048	0.9802	0.058
Mof_C 	C 	0.9144	0.0384	0.0381	-0.127
Mof_H 	H 	0.9313	0.0553	0.1071	0.079
Mof_C 	C 	0.8427	0.0476	0.9962	0.08
Mof_H 	H 	0.8121	0.0701	0.0381	0.002
Mof_N 	N 	0.7243	0.1233	0.7087	-0.256
Mof_C 	C 	0.7427	0.2214	0.5449	0.028
Mof_C 	C 	0.6847	0.106	0.6117	0.218
Mof_H 	H 	0.6522	0.0636	0.6024	-0.051
Mof_C 	C 	0.6947	0.1538	0.5281	-0.183
Mof_H 	H 	0.6702	0.1425	0.4602	0.093
Mof_C 	C 	0.7784	0.2318	0.643	0.193
Mof_H 	H 	0.8096	0.2747	0.6599	-0.016
Mof_C 	C 	0.7675	0.1757	0.7205	0.142
Mof_H 	H 	0.7966	0.1801	0.7868	-0.033
Mof_C 	C 	0.74	0.1	0.6144	-0.17
Mof_H 	H 	0.7391	0.0453	0.6026	0.07
Mof_C 	C 	0.7569	0.1457	0.5336	0.071
Mof_H 	H 	0.7764	0.1254	0.4771	-0.004
Mof_C 	C 	0.7434	0.2588	0.6418	-0.299
Mof_H 	H 	0.749	0.3133	0.6534	0.132
Mof_C 	C 	0.7341	0.2007	0.7222	-0.088
Mof_H 	H 	0.7352	0.2201	0.7905	0.073
Mof_C 	C 	0.5474	0.278	0.0853	-0.134
Mof_H 	H 	0.5253	0.326	0.0625	0.096
Mof_C 	C 	0.5879	0.2382	0.0204	0.084
Mof_H 	H 	0.5905	0.2588	0.9538	0.016
Mof_C 	C 	0.6234	0.1705	0.0524	-0.149
Mof_C 	C 	0.6213	0.1436	0.1553	-0.004
Mof_C 	C 	0.5773	0.1818	0.215	-0.09
Mof_H 	H 	0.5732	0.1615	0.2813	0.077
Mof_C 	C 	0.5397	0.249	0.1789	0.061
Mof_C 	C 	0.5171	0.2915	0.2718	0.038
Mof_C 	C 	0.6651	0.13	0.9788	0.492
Mof_C 	C 	0.6705	0.9183	0.7039	0.33
Mof_Zn	Zn	0.21065	0.44835	0.33223	1.232
Mof_O 	O 	0.1819	0.3531	0.3973	-0.371
Mof_O 	O 	0.1672	0.4436	0.4881	0.094
Mof_O 	O 	0.2065	0.3217	0.4426	-0.116
Mof_O 	O 	0.1538	0.4347	0.441	-0.546
Mof_O 	O 	0.2324	0.5755	0.1833	-0.321
Mof_O 	O 	0.1493	0.5381	0.2681	-0.443
Mof_O 	O 	0.0264	0.134	0.7804	-0.125
Mof_N 	N 	0.3157	0.4742	0.3996	-0.274
Mof_C 	C 	0.3599	0.5057	0.3446	0.106
Mof_H 	H 	0.341	0.5213	0.2757	-0.011
Mof_C 	C 	0.4312	0.518	0.3786	-0.145
Mof_H 	H 	0.4593	0.5415	0.334	0.085
Mof_C 	C 	0.4621	0.4952	0.4802	0.067
Mof_C 	C 	0.4144	0.4616	0.5381	-0.143
Mof_H 	H 	0.4313	0.4447	0.6071	0.083
Mof_C 	C 	0.3427	0.4524	0.4962	0.095
Mof_H 	H 	0.3121	0.4299	0.5381	-0.005
Mof_N 	N 	0.2243	0.3767	0.2087	-0.255
Mof_C 	C 	0.2427	0.2786	0.0449	0.029
Mof_C 	C 	0.1847	0.394	0.1117	0.216
Mof_H 	H 	0.1522	0.4364	0.1024	-0.05
Mof_C 	C 	0.1947	0.3462	0.0281	-0.181
Mof_H 	H 	0.1702	0.3575	0.9602	0.091
Mof_C 	C 	0.2784	0.2682	0.143	0.193
Mof_H 	H 	0.3096	0.2253	0.1599	-0.016
Mof_C 	C 	0.2675	0.3243	0.2205	0.142
Mof_H 	H 	0.2966	0.3199	0.2868	-0.033
Mof_C 	C 	0.24	0.4	0.1144	-0.169
Mof_H 	H 	0.2391	0.4547	0.1026	0.071
Mof_C 	C 	0.2569	0.3543	0.0336	0.071
Mof_H 	H 	0.2764	0.3746	0.9771	-0.004
Mof_C 	C 	0.2434	0.2412	0.1418	-0.299
Mof_H 	H 	0.249	0.1867	0.1534	0.132
Mof_C 	C 	0.2341	0.2993	0.2222	-0.088
Mof_H 	H 	0.2352	0.2799	0.2905	0.073
Mof_C 	C 	0.0474	0.222	0.5853	-0.132
Mof_H 	H 	0.0253	0.174	0.5625	0.094
Mof_C 	C 	0.0879	0.2618	0.5204	0.081
Mof_H 	H 	0.0905	0.2412	0.4538	0.018
Mof_C 	C 	0.1234	0.3295	0.5524	-0.15
Mof_C 	C 	0.1213	0.3564	0.6553	-0.005
Mof_C 	C 	0.0773	0.3182	0.715	-0.089
Mof_H 	H 	0.0732	0.3385	0.7813	0.076
Mof_C 	C 	0.0397	0.251	0.6789	0.059
Mof_C 	C 	0.0171	0.2085	0.7718	0.035
Mof_C 	C 	0.1651	0.37	0.4788	0.494
Mof_C 	C 	0.1705	0.5817	0.2039	0.331
Mof_Zn	Zn	0.71065	0.94835	0.33223	1.232
Mof_O 	O 	0.6819	0.8531	0.3973	-0.371
Mof_O 	O 	0.6672	0.9436	0.4881	0.094
Mof_O 	O 	0.7065	0.8217	0.4426	-0.116
Mof_O 	O 	0.6538	0.9347	0.441	-0.547
Mof_O 	O 	0.7324	0.0755	0.1833	-0.32
Mof_O 	O 	0.6493	0.0381	0.2681	-0.442
Mof_O 	O 	0.5264	0.634	0.7804	-0.126
Mof_N 	N 	0.8157	0.9742	0.3996	-0.275
Mof_C 	C 	0.8599	0.0057	0.3446	0.107
Mof_H 	H 	0.841	0.0213	0.2757	-0.011
Mof_C 	C 	0.9312	0.018	0.3786	-0.145
Mof_H 	H 	0.9593	0.0415	0.334	0.085
Mof_C 	C 	0.9621	0.9952	0.4802	0.066
Mof_C 	C 	0.9144	0.9616	0.5381	-0.143
Mof_H 	H 	0.9313	0.9447	0.6071	0.084
Mof_C 	C 	0.8427	0.9524	0.4962	0.095
Mof_H 	H 	0.8121	0.9299	0.5381	-0.005
Mof_N 	N 	0.7243	0.8767	0.2087	-0.256
Mof_C 	C 	0.7427	0.7786	0.0449	0.029
Mof_C 	C 	0.6847	0.894	0.1117	0.225
Mof_H 	H 	0.6522	0.9364	0.1024	-0.054
Mof_C 	C 	0.6947	0.8462	0.0281	-0.191
Mof_H 	H 	0.6702	0.8575	0.9602	0.097
Mof_C 	C 	0.7784	0.7682	0.143	0.195
Mof_H 	H 	0.8096	0.7253	0.1599	-0.016
Mof_C 	C 	0.7675	0.8243	0.2205	0.143
Mof_H 	H 	0.7966	0.8199	0.2868	-0.033
Mof_C 	C 	0.74	0.9	0.1144	-0.174
Mof_H 	H 	0.7391	0.9547	0.1026	0.071
Mof_C 	C 	0.7569	0.8543	0.0336	0.072
Mof_H 	H 	0.7764	0.8746	0.9771	-0.003
Mof_C 	C 	0.7434	0.7412	0.1418	-0.301
Mof_H 	H 	0.749	0.6867	0.1534	0.133
Mof_C 	C 	0.7341	0.7993	0.2222	-0.088
Mof_H 	H 	0.7352	0.7799	0.2905	0.073
Mof_C 	C 	0.5474	0.722	0.5853	-0.133
Mof_H 	H 	0.5253	0.674	0.5625	0.095
Mof_C 	C 	0.5879	0.7618	0.5204	0.081
Mof_H 	H 	0.5905	0.7412	0.4538	0.018
Mof_C 	C 	0.6234	0.8295	0.5524	-0.15
Mof_C 	C 	0.6213	0.8564	0.6553	-0.004
Mof_C 	C 	0.5773	0.8182	0.715	-0.09
Mof_H 	H 	0.5732	0.8385	0.7813	0.077
Mof_C 	C 	0.5397	0.751	0.6789	0.06
Mof_C 	C 	0.5171	0.7085	0.7718	0.04
Mof_C 	C 	0.6651	0.87	0.4788	0.494
Mof_C 	C 	0.6705	0.0817	0.2039	0.331
Mof_Zn	Zn	0.78935	0.44835	0.16777	1.232
Mof_O 	O 	0.8181	0.3531	0.1027	-0.372
Mof_O 	O 	0.8328	0.4436	0.0119	0.094
Mof_O 	O 	0.7935	0.3217	0.0574	-0.115
Mof_O 	O 	0.8462	0.4347	0.059	-0.546
Mof_O 	O 	0.7676	0.5755	0.3167	-0.321
Mof_O 	O 	0.8507	0.5381	0.2319	-0.443
Mof_O 	O 	0.9736	0.134	0.7196	-0.127
Mof_N 	N 	0.6843	0.4742	0.1004	-0.275
Mof_C 	C 	0.6401	0.5057	0.1554	0.107
Mof_H 	H 	0.659	0.5213	0.2243	-0.011
Mof_C 	C 	0.5688	0.518	0.1214	-0.146
Mof_H 	H 	0.5407	0.5415	0.166	0.085
Mof_C 	C 	0.5379	0.4952	0.0198	0.067
Mof_C 	C 	0.5856	0.4616	0.9619	-0.145
Mof_H 	H 	0.5687	0.4447	0.8929	0.084
Mof_C 	C 	0.6573	0.4524	0.0038	0.097
Mof_H 	H 	0.6879	0.4299	0.9619	-0.006
Mof_N 	N 	0.7757	0.3767	0.2913	-0.255
Mof_C 	C 	0.7573	0.2786	0.4551	0.028
Mof_C 	C 	0.8153	0.394	0.3883	0.217
Mof_H 	H 	0.8478	0.4364	0.3976	-0.051
Mof_C 	C 	0.8053	0.3462	0.4719	-0.183
Mof_H 	H 	0.8298	0.3575	0.5398	0.092
Mof_C 	C 	0.7216	0.2682	0.357	0.193
Mof_H 	H 	0.6904	0.2253	0.3401	-0.016
Mof_C 	C 	0.7325	0.3243	0.2795	0.142
Mof_H 	H 	0.7034	0.3199	0.2132	-0.033
Mof_C 	C 	0.76	0.4	0.3856	-0.17
Mof_H 	H 	0.7609	0.4547	0.3974	0.07
Mof_C 	C 	0.7431	0.3543	0.4664	0.071
Mof_H 	H 	0.7236	0.3746	0.5229	-0.004
Mof_C 	C 	0.7566	0.2412	0.3582	-0.299
Mof_H 	H 	0.751	0.1867	0.3466	0.132
Mof_C 	C 	0.7659	0.2993	0.2778	-0.088
Mof_H 	H 	0.7648	0.2799	0.2095	0.073
Mof_C 	C 	0.9526	0.222	0.9147	-0.129
Mof_H 	H 	0.9747	0.174	0.9375	0.093
Mof_C 	C 	0.9121	0.2618	0.9796	0.076
Mof_H 	H 	0.9095	0.2412	0.0462	0.021
Mof_C 	C 	0.8766	0.3295	0.9476	-0.149
Mof_C 	C 	0.8787	0.3564	0.8447	-0.005
Mof_C 	C 	0.9227	0.3182	0.785	-0.088
Mof_H 	H 	0.9268	0.3385	0.7187	0.076
Mof_C 	C 	0.9603	0.251	0.8211	0.058
Mof_C 	C 	0.9829	0.2085	0.7282	0.045
Mof_C 	C 	0.8349	0.37	0.0212	0.494
Mof_C 	C 	0.8295	0.5817	0.2961	0.331
Mof_Zn	Zn	0.28935	0.94835	0.16777	1.232
Mof_O 	O 	0.3181	0.8531	0.1027	-0.371
Mof_O 	O 	0.3328	0.9436	0.0119	0.091
Mof_O 	O 	0.2935	0.8217	0.0574	-0.116
Mof_O 	O 	0.3462	0.9347	0.059	-0.544
Mof_O 	O 	0.2676	0.0755	0.3167	-0.321
Mof_O 	O 	0.3507	0.0381	0.2319	-0.442
Mof_O 	O 	0.4736	0.634	0.7196	-0.125
Mof_N 	N 	0.1843	0.9742	0.1004	-0.272
Mof_C 	C 	0.1401	0.0057	0.1554	0.105
Mof_H 	H 	0.159	0.0213	0.2243	-0.01
Mof_C 	C 	0.0688	0.018	0.1214	-0.138
Mof_H 	H 	0.0407	0.0415	0.166	0.083
Mof_C 	C 	0.0379	0.9952	0.0198	0.058
Mof_C 	C 	0.0856	0.9616	0.9619	-0.127
Mof_H 	H 	0.0687	0.9447	0.8929	0.079
Mof_C 	C 	0.1573	0.9524	0.0038	0.08
Mof_H 	H 	0.1879	0.9299	0.9619	0.002
Mof_N 	N 	0.2757	0.8767	0.2913	-0.256
Mof_C 	C 	0.2573	0.7786	0.4551	0.028
Mof_C 	C 	0.3153	0.894	0.3883	0.218
Mof_H 	H 	0.3478	0.9364	0.3976	-0.051
Mof_C 	C 	0.3053	0.8462	0.4719	-0.183
Mof_H 	H 	0.3298	0.8575	0.5398	0.093
Mof_C 	C 	0.2216	0.7682	0.357	0.193
Mof_H 	H 	0.1904	0.7253	0.3401	-0.016
Mof_C 	C 	0.2325	0.8243	0.2795	0.142
Mof_H 	H 	0.2034	0.8199	0.2132	-0.033
Mof_C 	C 	0.26	0.9	0.3856	-0.17
Mof_H 	H 	0.2609	0.9547	0.3974	0.07
Mof_C 	C 	0.2431	0.8543	0.4664	0.071
Mof_H 	H 	0.2236	0.8746	0.5229	-0.004
Mof_C 	C 	0.2566	0.7412	0.3582	-0.299
Mof_H 	H 	0.251	0.6867	0.3466	0.132
Mof_C 	C 	0.2659	0.7993	0.2778	-0.088
Mof_H 	H 	0.2648	0.7799	0.2095	0.073
Mof_C 	C 	0.4526	0.722	0.9147	-0.134
Mof_H 	H 	0.4747	0.674	0.9375	0.096
Mof_C 	C 	0.4121	0.7618	0.9796	0.084
Mof_H 	H 	0.4095	0.7412	0.0462	0.016
Mof_C 	C 	0.3766	0.8295	0.9476	-0.149
Mof_C 	C 	0.3787	0.8564	0.8447	-0.004
Mof_C 	C 	0.4227	0.8182	0.785	-0.09
Mof_H 	H 	0.4268	0.8385	0.7187	0.077
Mof_C 	C 	0.4603	0.751	0.8211	0.061
Mof_C 	C 	0.4829	0.7085	0.7282	0.038
Mof_C 	C 	0.3349	0.87	0.0212	0.492
Mof_C 	C 	0.3295	0.0817	0.2961	0.33
_end
