data_functionalizedCrystal
_audit_creation_method	'EQeq! by Chris Wilmer'
_symmetry_space_group_name_H-M	'P1'
_symmetry_Int_Tables_number	1
_symmetry_cell_setting	triclinic
loop_
_symmetry_equiv_pos_as_xyz
  x,y,z
_cell_length_a	11.6918
_cell_length_b	11.6918
_cell_length_c	13.8937
_cell_angle_alpha	90
_cell_angle_beta	90
_cell_angle_gamma	120
loop_
_atom_site_label
_atom_site_type_symbol
_atom_site_fract_x
_atom_site_fract_y
_atom_site_fract_z
_atom_site_charge
Mof_Ti	Ti	0.50222	0.18541	0.33954	1.915
Mof_Ti	Ti	0.52601	0.75748	0.83941	1.524
Mof_O 	O 	0.49607	0.58217	0.77594	-0.44
Mof_O 	O 	0.44321	0.2653	0.44215	-0.569
Mof_O 	O 	0.2753	0.44675	0.70826	-0.472
Mof_O 	O 	0.56912	0.46938	0.44127	-0.649
Mof_O 	O 	0.4722	0.67679	0.95422	-0.549
Mof_O 	O 	0.46704	0.24305	0.2284	-0.649
Mof_O 	O 	0.38707	0.4757	0.88495	-0.527
Mof_O 	O 	0.53363	0.45961	0.2616	-0.604
Mof_C 	C 	0.45667	0.37945	0.4549	0.571
Mof_C 	C 	0.39952	0.50179	0.72811	0.339
Mof_C 	C 	0.32975	0.37092	0.4836	-0.177
Mof_C 	C 	0.4535	0.43161	0.66332	-0.037
Mof_C 	C 	0.37426	0.50796	0.51891	0.044
Mof_C 	C 	0.34446	0.28729	0.64496	0.001
Mof_C 	C 	0.48833	0.54335	0.58692	0.015
Mof_C 	C 	0.25125	0.27553	0.56392	0.043
Mof_C 	C 	0.58904	0.44705	0.0171	0.02
Mof_C 	C 	0.3931	0.33823	0.11772	-0.117
Mof_C 	C 	0.45617	0.32244	0.02734	0.031
Mof_C 	C 	0.35579	0.44461	0.11582	0.025
Mof_C 	C 	0.48451	0.5723	0.10616	0.04
Mof_C 	C 	0.56345	0.56272	0.01346	-0.084
Mof_C 	C 	0.46195	0.56337	0.93953	0.382
Mof_C 	C 	0.47501	0.35543	0.21212	0.497
Mof_Ti	Ti	0.81459	0.31681	0.33954	1.917
Mof_Ti	Ti	0.24252	0.76853	0.83941	1.523
Mof_O 	O 	0.41783	0.9139	0.77594	-0.44
Mof_O 	O 	0.7347	0.17791	0.44215	-0.569
Mof_O 	O 	0.55325	0.82855	0.70826	-0.472
Mof_O 	O 	0.53062	0.09974	0.44127	-0.649
Mof_O 	O 	0.32321	0.79541	0.95422	-0.549
Mof_O 	O 	0.75695	0.22399	0.2284	-0.649
Mof_O 	O 	0.5243	0.91137	0.88495	-0.527
Mof_O 	O 	0.54039	0.07402	0.2616	-0.603
Mof_C 	C 	0.62055	0.07722	0.4549	0.573
Mof_C 	C 	0.49821	0.89773	0.72811	0.337
Mof_C 	C 	0.62908	0.95883	0.4836	-0.18
Mof_C 	C 	0.56839	0.02189	0.66332	-0.033
Mof_C 	C 	0.49204	0.8663	0.51891	0.045
Mof_C 	C 	0.71271	0.05717	0.64496	0.003
Mof_C 	C 	0.45665	0.94498	0.58692	0.013
Mof_C 	C 	0.72447	0.97572	0.56392	0.042
Mof_C 	C 	0.55295	0.14199	0.0171	0.02
Mof_C 	C 	0.66177	0.05487	0.11772	-0.115
Mof_C 	C 	0.67756	0.13373	0.02734	0.031
Mof_C 	C 	0.55539	0.91118	0.11582	0.024
Mof_C 	C 	0.4277	0.91221	0.10616	0.037
Mof_C 	C 	0.43728	0.00073	0.01346	-0.08
Mof_C 	C 	0.43663	0.89858	0.93953	0.38
Mof_C 	C 	0.64457	0.11958	0.21212	0.497
Mof_Ti	Ti	0.68319	0.49778	0.33954	1.915
Mof_Ti	Ti	0.23147	0.47399	0.83941	1.524
Mof_O 	O 	0.0861	0.50393	0.77594	-0.44
Mof_O 	O 	0.82209	0.55679	0.44215	-0.569
Mof_O 	O 	0.17145	0.7247	0.70826	-0.472
Mof_O 	O 	0.90026	0.43088	0.44127	-0.649
Mof_O 	O 	0.20459	0.5278	0.95422	-0.549
Mof_O 	O 	0.77601	0.53296	0.2284	-0.649
Mof_O 	O 	0.08863	0.61293	0.88495	-0.527
Mof_O 	O 	0.92598	0.46637	0.2616	-0.604
Mof_C 	C 	0.92278	0.54333	0.4549	0.573
Mof_C 	C 	0.10227	0.60048	0.72811	0.337
Mof_C 	C 	0.04117	0.67025	0.4836	-0.18
Mof_C 	C 	0.97811	0.5465	0.66332	-0.033
Mof_C 	C 	0.1337	0.62574	0.51891	0.044
Mof_C 	C 	0.94283	0.65554	0.64496	0.002
Mof_C 	C 	0.05502	0.51167	0.58692	0.013
Mof_C 	C 	0.02428	0.74875	0.56392	0.041
Mof_C 	C 	0.85801	0.41096	0.0171	0.02
Mof_C 	C 	0.94513	0.6069	0.11772	-0.115
Mof_C 	C 	0.86627	0.54383	0.02734	0.031
Mof_C 	C 	0.08882	0.64421	0.11582	0.023
Mof_C 	C 	0.08779	0.51549	0.10616	0.038
Mof_C 	C 	0.99927	0.43655	0.01346	-0.08
Mof_C 	C 	0.10142	0.53805	0.93953	0.38
Mof_C 	C 	0.88042	0.52499	0.21212	0.497
Mof_O 	O 	0.33333	0.66667	0.80382	-0.665
Mof_O 	O 	0.66667	0.33333	0.3355	-1.055
_end
