data_functionalizedCrystal
_audit_creation_method	'EQeq! by Chris Wilmer'
_symmetry_space_group_name_H-M	'P1'
_symmetry_Int_Tables_number	1
_symmetry_cell_setting	triclinic
loop_
_symmetry_equiv_pos_as_xyz
  x,y,z
_cell_length_a	29.368
_cell_length_b	29.368
_cell_length_c	20.868
_cell_angle_alpha	90
_cell_angle_beta	90
_cell_angle_gamma	120
loop_
_atom_site_label
_atom_site_type_symbol
_atom_site_fract_x
_atom_site_fract_y
_atom_site_fract_z
_atom_site_charge
Mof_O 	O 	0.4319	0.71292	0.99409	-0.397
Mof_O 	O 	0.39703	0.62654	0.97645	-0.419
Mof_C 	C 	0.43305	0.67053	0.9946	0.357
Mof_C 	C 	0.48292	0.67281	0.0176	-0.089
Mof_C 	C 	0.57501	0.67181	0.0516	0.005
Mof_C 	C 	0.62308	0.6694	0.0688	0.082
Mof_C 	C 	0.62152	0.62121	0.069	-0.125
Mof_H 	H 	0.5897	0.5898	0.0593	0.063
Mof_C 	C 	0.7124	0.5665	0.0735	-0.047
Mof_H 	H 	0.7447	0.598	0.0658	0.037
Mof_C 	C 	0.711	0.5187	0.0748	0.013
Mof_H 	H 	0.743	0.5184	0.0693	0.02
Mof_C 	C 	0.5288	0.7177	0.029	0.002
Mof_H 	H 	0.5304	0.7505	0.0231	0.024
Mof_C 	C 	0.5735	0.7173	0.0491	-0.027
Mof_H 	H 	0.6037	0.7493	0.0613	0.026
Mof_C 	C 	0.5238	0.6237	0.0523	-0.021
Mof_H 	H 	0.5208	0.5915	0.0658	0.028
Mof_C 	C 	0.4798	0.6255	0.0332	-0.019
Mof_H 	H 	0.4469	0.5938	0.0306	0.04
Mof_C 	C 	0.5212	0.7115	0.0524	-0.013
Mof_H 	H 	0.5159	0.739	0.0677	0.035
Mof_C 	C 	0.568	0.7132	0.0671	-0.029
Mof_H 	H 	0.5953	0.7432	0.088	0.027
Mof_C 	C 	0.5406	0.6341	0.0041	-0.067
Mof_H 	H 	0.5495	0.6104	0.9844	0.046
Mof_C 	C 	0.4943	0.6335	0.9885	0.005
Mof_H 	H 	0.4701	0.6081	0.9593	0.027
Mof_C 	C 	0.636	0.5301	0.044	-0.082
Mof_H 	H 	0.6124	0.5341	0.0167	0.05
Mof_C 	C 	0.6378	0.4829	0.0417	0.032
Mof_H 	H 	0.618	0.4575	0.0099	0.022
Mof_O 	O 	0.09857	0.04625	0.32742	-0.397
Mof_O 	O 	0.0637	0.95987	0.30978	-0.416
Mof_C 	C 	0.09972	0.00386	0.32793	0.352
Mof_C 	C 	0.14959	0.00614	0.35093	-0.092
Mof_C 	C 	0.24168	0.00514	0.38493	0.002
Mof_C 	C 	0.28975	0.00273	0.40213	0.073
Mof_C 	C 	0.28819	0.95454	0.40233	-0.111
Mof_H 	H 	0.25637	0.92313	0.39263	0.06
Mof_C 	C 	0.37907	0.89983	0.40683	-0.048
Mof_H 	H 	0.41137	0.93133	0.39913	0.04
Mof_C 	C 	0.37767	0.85203	0.40813	0.015
Mof_H 	H 	0.40967	0.85173	0.40263	0.021
Mof_C 	C 	0.19547	0.05103	0.36233	0.003
Mof_H 	H 	0.19707	0.08383	0.35643	0.025
Mof_C 	C 	0.24017	0.05063	0.38243	-0.027
Mof_H 	H 	0.27037	0.08263	0.39463	0.027
Mof_C 	C 	0.19047	0.95703	0.38563	-0.011
Mof_H 	H 	0.18747	0.92483	0.39913	0.027
Mof_C 	C 	0.14647	0.95883	0.36653	-0.023
Mof_H 	H 	0.11357	0.92713	0.36393	0.043
Mof_C 	C 	0.18787	0.04483	0.38573	-0.012
Mof_H 	H 	0.18257	0.07233	0.40103	0.036
Mof_C 	C 	0.23467	0.04653	0.40043	-0.028
Mof_H 	H 	0.26197	0.07653	0.42133	0.027
Mof_C 	C 	0.20727	0.96743	0.33743	-0.07
Mof_H 	H 	0.21617	0.94373	0.31773	0.049
Mof_C 	C 	0.16097	0.96683	0.32183	0.014
Mof_H 	H 	0.13677	0.94143	0.29263	0.025
Mof_C 	C 	0.30267	0.86343	0.37733	-0.082
Mof_H 	H 	0.27907	0.86743	0.35003	0.051
Mof_C 	C 	0.30447	0.81623	0.37503	0.032
Mof_H 	H 	0.28467	0.79083	0.34323	0.023
Mof_O 	O 	0.76523	0.37959	0.66076	-0.396
Mof_O 	O 	0.73036	0.29321	0.64312	-0.418
Mof_C 	C 	0.76638	0.3372	0.66127	0.358
Mof_C 	C 	0.81625	0.33948	0.68427	-0.087
Mof_C 	C 	0.90834	0.33848	0.71827	0.006
Mof_C 	C 	0.95641	0.33607	0.73547	0.086
Mof_C 	C 	0.95485	0.28788	0.73567	-0.119
Mof_H 	H 	0.92303	0.25647	0.72597	0.062
Mof_C 	C 	0.04573	0.23317	0.74017	-0.043
Mof_H 	H 	0.07803	0.26467	0.73247	0.037
Mof_C 	C 	0.04433	0.18537	0.74147	0.011
Mof_H 	H 	0.07633	0.18507	0.73597	0.022
Mof_C 	C 	0.86213	0.38437	0.69567	0.003
Mof_H 	H 	0.86373	0.41717	0.68977	0.025
Mof_C 	C 	0.90683	0.38397	0.71577	-0.026
Mof_H 	H 	0.93703	0.41597	0.72797	0.028
Mof_C 	C 	0.85713	0.29037	0.71897	-0.016
Mof_H 	H 	0.85413	0.25817	0.73247	0.028
Mof_C 	C 	0.81313	0.29217	0.69987	-0.022
Mof_H 	H 	0.78023	0.26047	0.69727	0.042
Mof_C 	C 	0.85453	0.37817	0.71907	-0.013
Mof_H 	H 	0.84923	0.40567	0.73437	0.036
Mof_C 	C 	0.90133	0.37987	0.73377	-0.028
Mof_H 	H 	0.92863	0.40987	0.75467	0.028
Mof_C 	C 	0.87393	0.30077	0.67077	-0.069
Mof_H 	H 	0.88283	0.27707	0.65107	0.048
Mof_C 	C 	0.82763	0.30017	0.65517	0.009
Mof_H 	H 	0.80343	0.27477	0.62597	0.027
Mof_C 	C 	0.96933	0.19677	0.71067	-0.077
Mof_H 	H 	0.94573	0.20077	0.68337	0.05
Mof_C 	C 	0.97113	0.14957	0.70837	0.036
Mof_H 	H 	0.95133	0.12417	0.67657	0.023
Mof_O 	O 	0.28708	0.71898	0.99409	-0.396
Mof_O 	O 	0.37346	0.77049	0.97645	-0.418
Mof_C 	C 	0.32947	0.76252	0.9946	0.358
Mof_C 	C 	0.32719	0.81011	0.0176	-0.088
Mof_C 	C 	0.32819	0.9032	0.0516	0.002
Mof_C 	C 	0.3306	0.95368	0.0688	0.095
Mof_C 	C 	0.37879	0.00031	0.069	-0.147
Mof_H 	H 	0.4102	0.9999	0.0593	0.075
Mof_C 	C 	0.4335	0.1459	0.0735	-0.043
Mof_H 	H 	0.402	0.1467	0.0658	0.037
Mof_C 	C 	0.4813	0.1923	0.0748	0.012
Mof_H 	H 	0.4816	0.2246	0.0693	0.022
Mof_C 	C 	0.2823	0.8111	0.029	0.002
Mof_H 	H 	0.2495	0.7799	0.0231	0.025
Mof_C 	C 	0.2827	0.8562	0.0491	-0.025
Mof_H 	H 	0.2507	0.8544	0.0613	0.026
Mof_C 	C 	0.3763	0.9001	0.0523	-0.019
Mof_H 	H 	0.4085	0.9293	0.0658	0.03
Mof_C 	C 	0.3745	0.8543	0.0332	-0.016
Mof_H 	H 	0.4062	0.8531	0.0306	0.041
Mof_C 	C 	0.2885	0.8097	0.0524	-0.013
Mof_H 	H 	0.261	0.7769	0.0677	0.036
Mof_C 	C 	0.2868	0.8548	0.0671	-0.027
Mof_H 	H 	0.2568	0.8521	0.088	0.027
Mof_C 	C 	0.3659	0.9065	0.0041	-0.064
Mof_H 	H 	0.3896	0.9391	0.9844	0.047
Mof_C 	C 	0.3665	0.8608	0.9885	0.004
Mof_H 	H 	0.3919	0.862	0.9593	0.029
Mof_C 	C 	0.4699	0.1059	0.044	-0.079
Mof_H 	H 	0.4659	0.0783	0.0167	0.049
Mof_C 	C 	0.5171	0.1549	0.0417	0.033
Mof_H 	H 	0.5425	0.1605	0.0099	0.023
Mof_O 	O 	0.95375	0.05231	0.32742	-0.397
Mof_O 	O 	0.04013	0.10382	0.30978	-0.422
Mof_C 	C 	0.99614	0.09585	0.32793	0.363
Mof_C 	C 	0.99386	0.14344	0.35093	-0.083
Mof_C 	C 	0.99486	0.23653	0.38493	0.009
Mof_C 	C 	0.99727	0.28701	0.40213	0.092
Mof_C 	C 	0.04546	0.33364	0.40233	-0.138
Mof_H 	H 	0.07687	0.33323	0.39263	0.068
Mof_C 	C 	0.10017	0.47923	0.40683	-0.042
Mof_H 	H 	0.06867	0.48003	0.39913	0.036
Mof_C 	C 	0.14797	0.52563	0.40813	0.012
Mof_H 	H 	0.14827	0.55793	0.40263	0.022
Mof_C 	C 	0.94897	0.14443	0.36233	0.003
Mof_H 	H 	0.91617	0.11323	0.35643	0.025
Mof_C 	C 	0.94937	0.18953	0.38243	-0.026
Mof_H 	H 	0.91737	0.18773	0.39463	0.027
Mof_C 	C 	0.04297	0.23343	0.38563	-0.021
Mof_H 	H 	0.07517	0.26263	0.39913	0.029
Mof_C 	C 	0.04117	0.18763	0.36653	-0.021
Mof_H 	H 	0.07287	0.18643	0.36393	0.042
Mof_C 	C 	0.95517	0.14303	0.38573	-0.013
Mof_H 	H 	0.92767	0.11023	0.40103	0.036
Mof_C 	C 	0.95347	0.18813	0.40043	-0.028
Mof_H 	H 	0.92347	0.18543	0.42133	0.028
Mof_C 	C 	0.03257	0.23983	0.33743	-0.068
Mof_H 	H 	0.05627	0.27243	0.31773	0.046
Mof_C 	C 	0.03317	0.19413	0.32183	0.003
Mof_H 	H 	0.05857	0.19533	0.29263	0.028
Mof_C 	C 	0.13657	0.43923	0.37733	-0.079
Mof_H 	H 	0.13257	0.41163	0.35003	0.05
Mof_C 	C 	0.18377	0.48823	0.37503	0.033
Mof_H 	H 	0.20917	0.49383	0.34323	0.023
Mof_O 	O 	0.62041	0.38565	0.66076	-0.396
Mof_O 	O 	0.70679	0.43716	0.64312	-0.418
Mof_C 	C 	0.6628	0.42919	0.66127	0.358
Mof_C 	C 	0.66052	0.47678	0.68427	-0.087
Mof_C 	C 	0.66152	0.56987	0.71827	0.006
Mof_C 	C 	0.66393	0.62035	0.73547	0.083
Mof_C 	C 	0.71212	0.66698	0.73567	-0.124
Mof_H 	H 	0.74353	0.66657	0.72597	0.064
Mof_C 	C 	0.76683	0.81257	0.74017	-0.045
Mof_H 	H 	0.73533	0.81337	0.73247	0.038
Mof_C 	C 	0.81463	0.85897	0.74147	0.014
Mof_H 	H 	0.81493	0.89127	0.73597	0.022
Mof_C 	C 	0.61563	0.47777	0.69567	0.003
Mof_H 	H 	0.58283	0.44657	0.68977	0.025
Mof_C 	C 	0.61603	0.52287	0.71577	-0.026
Mof_H 	H 	0.58403	0.52107	0.72797	0.027
Mof_C 	C 	0.70963	0.56677	0.71897	-0.016
Mof_H 	H 	0.74183	0.59597	0.73247	0.028
Mof_C 	C 	0.70783	0.52097	0.69987	-0.022
Mof_H 	H 	0.73953	0.51977	0.69727	0.043
Mof_C 	C 	0.62183	0.47637	0.71907	-0.013
Mof_H 	H 	0.59433	0.44357	0.73437	0.036
Mof_C 	C 	0.62013	0.52147	0.73377	-0.028
Mof_H 	H 	0.59013	0.51877	0.75467	0.028
Mof_C 	C 	0.69923	0.57317	0.67077	-0.069
Mof_H 	H 	0.72293	0.60577	0.65107	0.048
Mof_C 	C 	0.69983	0.52747	0.65517	0.009
Mof_H 	H 	0.72523	0.52867	0.62597	0.027
Mof_C 	C 	0.80323	0.77257	0.71067	-0.08
Mof_H 	H 	0.79923	0.74497	0.68337	0.051
Mof_C 	C 	0.85043	0.82157	0.70837	0.033
Mof_H 	H 	0.87583	0.82717	0.67657	0.023
Mof_O 	O 	0.28102	0.5681	0.99409	-0.396
Mof_O 	O 	0.22951	0.60297	0.97645	-0.418
Mof_C 	C 	0.23748	0.56695	0.9946	0.359
Mof_C 	C 	0.18989	0.51708	0.0176	-0.089
Mof_C 	C 	0.0968	0.42499	0.0516	0.011
Mof_C 	C 	0.04632	0.37692	0.0688	0.07
Mof_C 	C 	0.99969	0.37848	0.069	-0.101
Mof_H 	H 	0.0001	0.4103	0.0593	0.052
Mof_C 	C 	0.8541	0.2876	0.0735	-0.048
Mof_H 	H 	0.8533	0.2553	0.0658	0.039
Mof_C 	C 	0.8077	0.289	0.0748	0.016
Mof_H 	H 	0.7754	0.257	0.0693	0.021
Mof_C 	C 	0.1889	0.4712	0.029	0.003
Mof_H 	H 	0.2201	0.4696	0.0231	0.025
Mof_C 	C 	0.1438	0.4265	0.0491	-0.027
Mof_H 	H 	0.1456	0.3963	0.0613	0.027
Mof_C 	C 	0.0999	0.4762	0.0523	-0.021
Mof_H 	H 	0.0707	0.4792	0.0658	0.029
Mof_C 	C 	0.1457	0.5202	0.0332	-0.017
Mof_H 	H 	0.1469	0.5531	0.0306	0.041
Mof_C 	C 	0.1903	0.4788	0.0524	-0.012
Mof_H 	H 	0.2231	0.4841	0.0677	0.036
Mof_C 	C 	0.1452	0.432	0.0671	-0.029
Mof_H 	H 	0.1479	0.4047	0.088	0.028
Mof_C 	C 	0.0935	0.4594	0.0041	-0.068
Mof_H 	H 	0.0609	0.4505	0.9844	0.047
Mof_C 	C 	0.1392	0.5057	0.9885	0.006
Mof_H 	H 	0.138	0.5299	0.9593	0.027
Mof_C 	C 	0.8941	0.364	0.044	-0.083
Mof_H 	H 	0.9217	0.3876	0.0167	0.052
Mof_C 	C 	0.8451	0.3622	0.0417	0.033
Mof_H 	H 	0.8395	0.382	0.0099	0.023
Mof_O 	O 	0.94769	0.90143	0.32742	-0.392
Mof_O 	O 	0.89618	0.9363	0.30978	-0.415
Mof_C 	C 	0.90415	0.90028	0.32793	0.357
Mof_C 	C 	0.85656	0.85041	0.35093	-0.086
Mof_C 	C 	0.76347	0.75832	0.38493	0.006
Mof_C 	C 	0.71299	0.71025	0.40213	0.083
Mof_C 	C 	0.66636	0.71181	0.40233	-0.124
Mof_H 	H 	0.66677	0.74363	0.39263	0.064
Mof_C 	C 	0.52077	0.62093	0.40683	-0.045
Mof_H 	H 	0.51997	0.58863	0.39913	0.038
Mof_C 	C 	0.47437	0.62233	0.40813	0.014
Mof_H 	H 	0.44207	0.59033	0.40263	0.022
Mof_C 	C 	0.85557	0.80453	0.36233	0.003
Mof_H 	H 	0.88677	0.80293	0.35643	0.025
Mof_C 	C 	0.81047	0.75983	0.38243	-0.026
Mof_H 	H 	0.81227	0.72963	0.39463	0.027
Mof_C 	C 	0.76657	0.80953	0.38563	-0.015
Mof_H 	H 	0.73737	0.81253	0.39913	0.028
Mof_C 	C 	0.81237	0.85353	0.36653	-0.022
Mof_H 	H 	0.81357	0.88643	0.36393	0.043
Mof_C 	C 	0.85697	0.81213	0.38573	-0.013
Mof_H 	H 	0.88977	0.81743	0.40103	0.037
Mof_C 	C 	0.81187	0.76533	0.40043	-0.028
Mof_H 	H 	0.81457	0.73803	0.42133	0.028
Mof_C 	C 	0.76017	0.79273	0.33743	-0.069
Mof_H 	H 	0.72757	0.78383	0.31773	0.048
Mof_C 	C 	0.80587	0.83903	0.32183	0.009
Mof_H 	H 	0.80467	0.86323	0.29263	0.027
Mof_C 	C 	0.56077	0.69733	0.37733	-0.08
Mof_H 	H 	0.58837	0.72093	0.35003	0.051
Mof_C 	C 	0.51177	0.69553	0.37503	0.032
Mof_H 	H 	0.50617	0.71533	0.34323	0.023
Mof_O 	O 	0.61435	0.23477	0.66076	-0.396
Mof_O 	O 	0.56284	0.26964	0.64312	-0.418
Mof_C 	C 	0.57081	0.23362	0.66127	0.358
Mof_C 	C 	0.52322	0.18375	0.68427	-0.087
Mof_C 	C 	0.43013	0.09166	0.71827	0.006
Mof_C 	C 	0.37965	0.04359	0.73547	0.082
Mof_C 	C 	0.33302	0.04515	0.73567	-0.123
Mof_H 	H 	0.33343	0.07697	0.72597	0.063
Mof_C 	C 	0.18743	0.95427	0.74017	-0.042
Mof_H 	H 	0.18663	0.92197	0.73247	0.037
Mof_C 	C 	0.14103	0.95567	0.74147	0.014
Mof_H 	H 	0.10873	0.92367	0.73597	0.021
Mof_C 	C 	0.52223	0.13787	0.69567	0.003
Mof_H 	H 	0.55343	0.13627	0.68977	0.025
Mof_C 	C 	0.47713	0.09317	0.71577	-0.026
Mof_H 	H 	0.47893	0.06297	0.72797	0.026
Mof_C 	C 	0.43323	0.14287	0.71897	-0.016
Mof_H 	H 	0.40403	0.14587	0.73247	0.028
Mof_C 	C 	0.47903	0.18687	0.69987	-0.022
Mof_H 	H 	0.48023	0.21977	0.69727	0.042
Mof_C 	C 	0.52363	0.14547	0.71907	-0.013
Mof_H 	H 	0.55643	0.15077	0.73437	0.036
Mof_C 	C 	0.47853	0.09867	0.73377	-0.028
Mof_H 	H 	0.48123	0.07137	0.75467	0.027
Mof_C 	C 	0.42683	0.12607	0.67077	-0.069
Mof_H 	H 	0.39423	0.11717	0.65107	0.047
Mof_C 	C 	0.47253	0.17237	0.65517	0.009
Mof_H 	H 	0.47133	0.19657	0.62597	0.027
Mof_C 	C 	0.22743	0.03067	0.71067	-0.082
Mof_H 	H 	0.25503	0.05427	0.68337	0.051
Mof_C 	C 	0.17843	0.02887	0.70837	0.033
Mof_H 	H 	0.17283	0.04867	0.67657	0.022
Mof_O 	O 	0.71292	0.4319	0.50591	-0.396
Mof_O 	O 	0.62654	0.39703	0.52355	-0.418
Mof_C 	C 	0.67053	0.43305	0.5054	0.358
Mof_C 	C 	0.67281	0.48292	0.4824	-0.087
Mof_C 	C 	0.67181	0.57501	0.4484	0.006
Mof_C 	C 	0.6694	0.62308	0.4312	0.083
Mof_C 	C 	0.62121	0.62152	0.431	-0.124
Mof_H 	H 	0.5898	0.5897	0.4407	0.064
Mof_C 	C 	0.5665	0.7124	0.4265	-0.045
Mof_H 	H 	0.598	0.7447	0.4342	0.038
Mof_C 	C 	0.5187	0.711	0.4252	0.014
Mof_H 	H 	0.5184	0.743	0.4307	0.021
Mof_C 	C 	0.7177	0.5288	0.471	0.003
Mof_H 	H 	0.7505	0.5304	0.4769	0.025
Mof_C 	C 	0.7173	0.5735	0.4509	-0.026
Mof_H 	H 	0.7493	0.6037	0.4387	0.027
Mof_C 	C 	0.6237	0.5238	0.4477	-0.016
Mof_H 	H 	0.5915	0.5208	0.4342	0.028
Mof_C 	C 	0.6255	0.4798	0.4668	-0.022
Mof_H 	H 	0.5938	0.4469	0.4694	0.042
Mof_C 	C 	0.7115	0.5212	0.4476	-0.013
Mof_H 	H 	0.739	0.5159	0.4323	0.036
Mof_C 	C 	0.7132	0.568	0.4329	-0.028
Mof_H 	H 	0.7432	0.5953	0.412	0.028
Mof_C 	C 	0.6341	0.5406	0.4959	-0.069
Mof_H 	H 	0.6104	0.5495	0.5156	0.048
Mof_C 	C 	0.6335	0.4943	0.5115	0.009
Mof_H 	H 	0.6081	0.4701	0.5407	0.027
Mof_C 	C 	0.5301	0.636	0.456	-0.081
Mof_H 	H 	0.5341	0.6124	0.4833	0.051
Mof_C 	C 	0.4829	0.6378	0.4583	0.033
Mof_H 	H 	0.4575	0.618	0.4901	0.023
Mof_O 	O 	0.37959	0.76523	0.83924	-0.396
Mof_O 	O 	0.29321	0.73036	0.85688	-0.418
Mof_C 	C 	0.3372	0.76638	0.83873	0.358
Mof_C 	C 	0.33948	0.81625	0.81573	-0.087
Mof_C 	C 	0.33848	0.90834	0.78173	0.006
Mof_C 	C 	0.33607	0.95641	0.76453	0.086
Mof_C 	C 	0.28788	0.95485	0.76433	-0.119
Mof_H 	H 	0.25647	0.92303	0.77403	0.062
Mof_C 	C 	0.23317	0.04573	0.75983	-0.043
Mof_H 	H 	0.26467	0.07803	0.76753	0.037
Mof_C 	C 	0.18537	0.04433	0.75853	0.011
Mof_H 	H 	0.18507	0.07633	0.76403	0.022
Mof_C 	C 	0.38437	0.86213	0.80433	0.003
Mof_H 	H 	0.41717	0.86373	0.81023	0.025
Mof_C 	C 	0.38397	0.90683	0.78423	-0.026
Mof_H 	H 	0.41597	0.93703	0.77203	0.028
Mof_C 	C 	0.29037	0.85713	0.78103	-0.016
Mof_H 	H 	0.25817	0.85413	0.76753	0.028
Mof_C 	C 	0.29217	0.81313	0.80013	-0.022
Mof_H 	H 	0.26047	0.78023	0.80273	0.042
Mof_C 	C 	0.37817	0.85453	0.78093	-0.013
Mof_H 	H 	0.40567	0.84923	0.76563	0.036
Mof_C 	C 	0.37987	0.90133	0.76623	-0.028
Mof_H 	H 	0.40987	0.92863	0.74533	0.028
Mof_C 	C 	0.30077	0.87393	0.82923	-0.069
Mof_H 	H 	0.27707	0.88283	0.84893	0.048
Mof_C 	C 	0.30017	0.82763	0.84483	0.009
Mof_H 	H 	0.27477	0.80343	0.87403	0.027
Mof_C 	C 	0.19677	0.96933	0.78933	-0.077
Mof_H 	H 	0.20077	0.94573	0.81663	0.05
Mof_C 	C 	0.14957	0.97113	0.79163	0.036
Mof_H 	H 	0.12417	0.95133	0.82343	0.023
Mof_O 	O 	0.04625	0.09857	0.17258	-0.396
Mof_O 	O 	0.95987	0.0637	0.19022	-0.415
Mof_C 	C 	0.00386	0.09972	0.17207	0.353
Mof_C 	C 	0.00614	0.14959	0.14907	-0.091
Mof_C 	C 	0.00514	0.24168	0.11507	0.003
Mof_C 	C 	0.00273	0.28975	0.09787	0.074
Mof_C 	C 	0.95454	0.28819	0.09767	-0.111
Mof_H 	H 	0.92313	0.25637	0.10737	0.06
Mof_C 	C 	0.89983	0.37907	0.09317	-0.047
Mof_H 	H 	0.93133	0.41137	0.10087	0.04
Mof_C 	C 	0.85203	0.37767	0.09187	0.015
Mof_H 	H 	0.85173	0.40967	0.09737	0.021
Mof_C 	C 	0.05103	0.19547	0.13767	0.003
Mof_H 	H 	0.08383	0.19707	0.14357	0.025
Mof_C 	C 	0.05063	0.24017	0.11757	-0.027
Mof_H 	H 	0.08263	0.27037	0.10537	0.027
Mof_C 	C 	0.95703	0.19047	0.11437	-0.011
Mof_H 	H 	0.92483	0.18747	0.10087	0.027
Mof_C 	C 	0.95883	0.14647	0.13347	-0.023
Mof_H 	H 	0.92713	0.11357	0.13607	0.043
Mof_C 	C 	0.04483	0.18787	0.11427	-0.012
Mof_H 	H 	0.07233	0.18257	0.09897	0.035
Mof_C 	C 	0.04653	0.23467	0.09957	-0.028
Mof_H 	H 	0.07653	0.26197	0.07867	0.027
Mof_C 	C 	0.96743	0.20727	0.16257	-0.07
Mof_H 	H 	0.94373	0.21617	0.18227	0.049
Mof_C 	C 	0.96683	0.16097	0.17817	0.015
Mof_H 	H 	0.94143	0.13677	0.20737	0.025
Mof_C 	C 	0.86343	0.30267	0.12267	-0.081
Mof_H 	H 	0.86743	0.27907	0.14997	0.051
Mof_C 	C 	0.81623	0.30447	0.12497	0.032
Mof_H 	H 	0.79083	0.28467	0.15677	0.023
Mof_O 	O 	0.71898	0.28708	0.50591	-0.396
Mof_O 	O 	0.77049	0.37346	0.52355	-0.418
Mof_C 	C 	0.76252	0.32947	0.5054	0.358
Mof_C 	C 	0.81011	0.32719	0.4824	-0.086
Mof_C 	C 	0.9032	0.32819	0.4484	0.001
Mof_C 	C 	0.95368	0.3306	0.4312	0.096
Mof_C 	C 	0.00031	0.37879	0.431	-0.148
Mof_H 	H 	0.9999	0.4102	0.4407	0.075
Mof_C 	C 	0.1459	0.4335	0.4265	-0.042
Mof_H 	H 	0.1467	0.402	0.4342	0.036
Mof_C 	C 	0.1923	0.4813	0.4252	0.012
Mof_H 	H 	0.2246	0.4816	0.4307	0.022
Mof_C 	C 	0.8111	0.2823	0.471	0.002
Mof_H 	H 	0.7799	0.2495	0.4769	0.025
Mof_C 	C 	0.8562	0.2827	0.4509	-0.025
Mof_H 	H 	0.8544	0.2507	0.4387	0.026
Mof_C 	C 	0.9001	0.3763	0.4477	-0.015
Mof_H 	H 	0.9293	0.4085	0.4342	0.028
Mof_C 	C 	0.8543	0.3745	0.4668	-0.022
Mof_H 	H 	0.8531	0.4062	0.4694	0.043
Mof_C 	C 	0.8097	0.2885	0.4476	-0.013
Mof_H 	H 	0.7769	0.261	0.4323	0.036
Mof_C 	C 	0.8548	0.2868	0.4329	-0.027
Mof_H 	H 	0.8521	0.2568	0.412	0.027
Mof_C 	C 	0.9065	0.3659	0.4959	-0.068
Mof_H 	H 	0.9391	0.3896	0.5156	0.048
Mof_C 	C 	0.8608	0.3665	0.5115	0.008
Mof_H 	H 	0.862	0.3919	0.5407	0.027
Mof_C 	C 	0.1059	0.4699	0.456	-0.079
Mof_H 	H 	0.0783	0.4659	0.4833	0.049
Mof_C 	C 	0.1549	0.5171	0.4583	0.033
Mof_H 	H 	0.1605	0.5425	0.4901	0.023
Mof_O 	O 	0.38565	0.62041	0.83924	-0.396
Mof_O 	O 	0.43716	0.70679	0.85688	-0.418
Mof_C 	C 	0.42919	0.6628	0.83873	0.358
Mof_C 	C 	0.47678	0.66052	0.81573	-0.087
Mof_C 	C 	0.56987	0.66152	0.78173	0.006
Mof_C 	C 	0.62035	0.66393	0.76453	0.083
Mof_C 	C 	0.66698	0.71212	0.76433	-0.124
Mof_H 	H 	0.66657	0.74353	0.77403	0.064
Mof_C 	C 	0.81257	0.76683	0.75983	-0.045
Mof_H 	H 	0.81337	0.73533	0.76753	0.038
Mof_C 	C 	0.85897	0.81463	0.75853	0.014
Mof_H 	H 	0.89127	0.81493	0.76403	0.022
Mof_C 	C 	0.47777	0.61563	0.80433	0.003
Mof_H 	H 	0.44657	0.58283	0.81023	0.025
Mof_C 	C 	0.52287	0.61603	0.78423	-0.026
Mof_H 	H 	0.52107	0.58403	0.77203	0.027
Mof_C 	C 	0.56677	0.70963	0.78103	-0.016
Mof_H 	H 	0.59597	0.74183	0.76753	0.028
Mof_C 	C 	0.52097	0.70783	0.80013	-0.022
Mof_H 	H 	0.51977	0.73953	0.80273	0.043
Mof_C 	C 	0.47637	0.62183	0.78093	-0.013
Mof_H 	H 	0.44357	0.59433	0.76563	0.036
Mof_C 	C 	0.52147	0.62013	0.76623	-0.028
Mof_H 	H 	0.51877	0.59013	0.74533	0.028
Mof_C 	C 	0.57317	0.69923	0.82923	-0.069
Mof_H 	H 	0.60577	0.72293	0.84893	0.048
Mof_C 	C 	0.52747	0.69983	0.84483	0.009
Mof_H 	H 	0.52867	0.72523	0.87403	0.027
Mof_C 	C 	0.77257	0.80323	0.78933	-0.08
Mof_H 	H 	0.74497	0.79923	0.81663	0.051
Mof_C 	C 	0.82157	0.85043	0.79163	0.033
Mof_H 	H 	0.82717	0.87583	0.82343	0.023
Mof_O 	O 	0.05231	0.95375	0.17258	-0.397
Mof_O 	O 	0.10382	0.04013	0.19022	-0.422
Mof_C 	C 	0.09585	0.99614	0.17207	0.363
Mof_C 	C 	0.14344	0.99386	0.14907	-0.083
Mof_C 	C 	0.23653	0.99486	0.11507	0.009
Mof_C 	C 	0.28701	0.99727	0.09787	0.091
Mof_C 	C 	0.33364	0.04546	0.09767	-0.137
Mof_H 	H 	0.33323	0.07687	0.10737	0.067
Mof_C 	C 	0.47923	0.10017	0.09317	-0.042
Mof_H 	H 	0.48003	0.06867	0.10087	0.036
Mof_C 	C 	0.52563	0.14797	0.09187	0.012
Mof_H 	H 	0.55793	0.14827	0.09737	0.022
Mof_C 	C 	0.14443	0.94897	0.13767	0.003
Mof_H 	H 	0.11323	0.91617	0.14357	0.025
Mof_C 	C 	0.18953	0.94937	0.11757	-0.026
Mof_H 	H 	0.18773	0.91737	0.10537	0.027
Mof_C 	C 	0.23343	0.04297	0.11437	-0.021
Mof_H 	H 	0.26263	0.07517	0.10087	0.029
Mof_C 	C 	0.18763	0.04117	0.13347	-0.021
Mof_H 	H 	0.18643	0.07287	0.13607	0.042
Mof_C 	C 	0.14303	0.95517	0.11427	-0.013
Mof_H 	H 	0.11023	0.92767	0.09897	0.036
Mof_C 	C 	0.18813	0.95347	0.09957	-0.028
Mof_H 	H 	0.18543	0.92347	0.07867	0.028
Mof_C 	C 	0.23983	0.03257	0.16257	-0.068
Mof_H 	H 	0.27243	0.05627	0.18227	0.046
Mof_C 	C 	0.19413	0.03317	0.17817	0.004
Mof_H 	H 	0.19533	0.05857	0.20737	0.028
Mof_C 	C 	0.43923	0.13657	0.12267	-0.079
Mof_H 	H 	0.41163	0.13257	0.14997	0.05
Mof_C 	C 	0.48823	0.18377	0.12497	0.033
Mof_H 	H 	0.49383	0.20917	0.15677	0.023
Mof_O 	O 	0.5681	0.28102	0.50591	-0.396
Mof_O 	O 	0.60297	0.22951	0.52355	-0.418
Mof_C 	C 	0.56695	0.23748	0.5054	0.358
Mof_C 	C 	0.51708	0.18989	0.4824	-0.087
Mof_C 	C 	0.42499	0.0968	0.4484	0.01
Mof_C 	C 	0.37692	0.04632	0.4312	0.07
Mof_C 	C 	0.37848	0.99969	0.431	-0.101
Mof_H 	H 	0.4103	0.0001	0.4407	0.052
Mof_C 	C 	0.2876	0.8541	0.4265	-0.048
Mof_H 	H 	0.2553	0.8533	0.4342	0.039
Mof_C 	C 	0.289	0.8077	0.4252	0.016
Mof_H 	H 	0.257	0.7754	0.4307	0.021
Mof_C 	C 	0.4712	0.1889	0.471	0.003
Mof_H 	H 	0.4696	0.2201	0.4769	0.025
Mof_C 	C 	0.4265	0.1438	0.4509	-0.027
Mof_H 	H 	0.3963	0.1456	0.4387	0.027
Mof_C 	C 	0.4762	0.0999	0.4477	-0.017
Mof_H 	H 	0.4792	0.0707	0.4342	0.028
Mof_C 	C 	0.5202	0.1457	0.4668	-0.022
Mof_H 	H 	0.5531	0.1469	0.4694	0.042
Mof_C 	C 	0.4788	0.1903	0.4476	-0.012
Mof_H 	H 	0.4841	0.2231	0.4323	0.036
Mof_C 	C 	0.432	0.1452	0.4329	-0.029
Mof_H 	H 	0.4047	0.1479	0.412	0.028
Mof_C 	C 	0.4594	0.0935	0.4959	-0.071
Mof_H 	H 	0.4505	0.0609	0.5156	0.047
Mof_C 	C 	0.5057	0.1392	0.5115	0.01
Mof_H 	H 	0.5299	0.138	0.5407	0.026
Mof_C 	C 	0.364	0.8941	0.456	-0.082
Mof_H 	H 	0.3876	0.9217	0.4833	0.053
Mof_C 	C 	0.3622	0.8451	0.4583	0.033
Mof_H 	H 	0.382	0.8395	0.4901	0.023
Mof_O 	O 	0.23477	0.61435	0.83924	-0.396
Mof_O 	O 	0.26964	0.56284	0.85688	-0.418
Mof_C 	C 	0.23362	0.57081	0.83873	0.358
Mof_C 	C 	0.18375	0.52322	0.81573	-0.087
Mof_C 	C 	0.09166	0.43013	0.78173	0.006
Mof_C 	C 	0.04359	0.37965	0.76453	0.082
Mof_C 	C 	0.04515	0.33302	0.76433	-0.123
Mof_H 	H 	0.07697	0.33343	0.77403	0.063
Mof_C 	C 	0.95427	0.18743	0.75983	-0.042
Mof_H 	H 	0.92197	0.18663	0.76753	0.037
Mof_C 	C 	0.95567	0.14103	0.75853	0.014
Mof_H 	H 	0.92367	0.10873	0.76403	0.021
Mof_C 	C 	0.13787	0.52223	0.80433	0.003
Mof_H 	H 	0.13627	0.55343	0.81023	0.025
Mof_C 	C 	0.09317	0.47713	0.78423	-0.026
Mof_H 	H 	0.06297	0.47893	0.77203	0.026
Mof_C 	C 	0.14287	0.43323	0.78103	-0.016
Mof_H 	H 	0.14587	0.40403	0.76753	0.028
Mof_C 	C 	0.18687	0.47903	0.80013	-0.022
Mof_H 	H 	0.21977	0.48023	0.80273	0.042
Mof_C 	C 	0.14547	0.52363	0.78093	-0.013
Mof_H 	H 	0.15077	0.55643	0.76563	0.036
Mof_C 	C 	0.09867	0.47853	0.76623	-0.028
Mof_H 	H 	0.07137	0.48123	0.74533	0.027
Mof_C 	C 	0.12607	0.42683	0.82923	-0.069
Mof_H 	H 	0.11717	0.39423	0.84893	0.047
Mof_C 	C 	0.17237	0.47253	0.84483	0.009
Mof_H 	H 	0.19657	0.47133	0.87403	0.027
Mof_C 	C 	0.03067	0.22743	0.78933	-0.082
Mof_H 	H 	0.05427	0.25503	0.81663	0.051
Mof_C 	C 	0.02887	0.17843	0.79163	0.033
Mof_H 	H 	0.04867	0.17283	0.82343	0.022
Mof_O 	O 	0.90143	0.94769	0.17258	-0.392
Mof_O 	O 	0.9363	0.89618	0.19022	-0.415
Mof_C 	C 	0.90028	0.90415	0.17207	0.357
Mof_C 	C 	0.85041	0.85656	0.14907	-0.086
Mof_C 	C 	0.75832	0.76347	0.11507	0.006
Mof_C 	C 	0.71025	0.71299	0.09787	0.083
Mof_C 	C 	0.71181	0.66636	0.09767	-0.124
Mof_H 	H 	0.74363	0.66677	0.10737	0.064
Mof_C 	C 	0.62093	0.52077	0.09317	-0.045
Mof_H 	H 	0.58863	0.51997	0.10087	0.038
Mof_C 	C 	0.62233	0.47437	0.09187	0.013
Mof_H 	H 	0.59033	0.44207	0.09737	0.022
Mof_C 	C 	0.80453	0.85557	0.13767	0.003
Mof_H 	H 	0.80293	0.88677	0.14357	0.025
Mof_C 	C 	0.75983	0.81047	0.11757	-0.026
Mof_H 	H 	0.72963	0.81227	0.10537	0.027
Mof_C 	C 	0.80953	0.76657	0.11437	-0.015
Mof_H 	H 	0.81253	0.73737	0.10087	0.028
Mof_C 	C 	0.85353	0.81237	0.13347	-0.022
Mof_H 	H 	0.88643	0.81357	0.13607	0.043
Mof_C 	C 	0.81213	0.85697	0.11427	-0.013
Mof_H 	H 	0.81743	0.88977	0.09897	0.037
Mof_C 	C 	0.76533	0.81187	0.09957	-0.028
Mof_H 	H 	0.73803	0.81457	0.07867	0.028
Mof_C 	C 	0.79273	0.76017	0.16257	-0.069
Mof_H 	H 	0.78383	0.72757	0.18227	0.048
Mof_C 	C 	0.83903	0.80587	0.17817	0.009
Mof_H 	H 	0.86323	0.80467	0.20737	0.027
Mof_C 	C 	0.69733	0.56077	0.12267	-0.08
Mof_H 	H 	0.72093	0.58837	0.14997	0.051
Mof_C 	C 	0.69553	0.51177	0.12497	0.032
Mof_H 	H 	0.71533	0.50617	0.15677	0.023
Mof_O 	O 	0.5681	0.28708	0.00591	-0.396
Mof_O 	O 	0.60297	0.37346	0.02355	-0.418
Mof_C 	C 	0.56695	0.32947	0.0054	0.357
Mof_C 	C 	0.51708	0.32719	0.9824	-0.086
Mof_C 	C 	0.42499	0.32819	0.9484	0.006
Mof_C 	C 	0.37692	0.3306	0.9312	0.083
Mof_C 	C 	0.37848	0.37879	0.931	-0.124
Mof_H 	H 	0.4103	0.4102	0.9407	0.064
Mof_C 	C 	0.2876	0.4335	0.9265	-0.045
Mof_H 	H 	0.2553	0.402	0.9342	0.038
Mof_C 	C 	0.289	0.4813	0.9252	0.014
Mof_H 	H 	0.257	0.4816	0.9307	0.022
Mof_C 	C 	0.4712	0.2823	0.971	0.003
Mof_H 	H 	0.4696	0.2495	0.9769	0.025
Mof_C 	C 	0.4265	0.2827	0.9509	-0.026
Mof_H 	H 	0.3963	0.2507	0.9387	0.027
Mof_C 	C 	0.4762	0.3763	0.9477	-0.012
Mof_H 	H 	0.4792	0.4085	0.9342	0.027
Mof_C 	C 	0.5202	0.3745	0.9668	-0.026
Mof_H 	H 	0.5531	0.4062	0.9694	0.044
Mof_C 	C 	0.4788	0.2885	0.9476	-0.013
Mof_H 	H 	0.4841	0.261	0.9323	0.036
Mof_C 	C 	0.432	0.2868	0.9329	-0.028
Mof_H 	H 	0.4047	0.2568	0.912	0.027
Mof_C 	C 	0.4594	0.3659	0.9959	-0.072
Mof_H 	H 	0.4505	0.3896	0.0156	0.048
Mof_C 	C 	0.5057	0.3665	0.0115	0.012
Mof_H 	H 	0.5299	0.3919	0.0407	0.026
Mof_C 	C 	0.364	0.4699	0.956	-0.08
Mof_H 	H 	0.3876	0.4659	0.9833	0.051
Mof_C 	C 	0.3622	0.5171	0.9583	0.033
Mof_H 	H 	0.382	0.5425	0.9901	0.023
Mof_O 	O 	0.23477	0.62041	0.33924	-0.396
Mof_O 	O 	0.26964	0.70679	0.35688	-0.418
Mof_C 	C 	0.23362	0.6628	0.33873	0.358
Mof_C 	C 	0.18375	0.66052	0.31573	-0.087
Mof_C 	C 	0.09166	0.66152	0.28173	0.006
Mof_C 	C 	0.04359	0.66393	0.26453	0.082
Mof_C 	C 	0.04515	0.71212	0.26433	-0.123
Mof_H 	H 	0.07697	0.74353	0.27403	0.063
Mof_C 	C 	0.95427	0.76683	0.25983	-0.041
Mof_H 	H 	0.92197	0.73533	0.26753	0.037
Mof_C 	C 	0.95567	0.81463	0.25853	0.014
Mof_H 	H 	0.92367	0.81493	0.26403	0.022
Mof_C 	C 	0.13787	0.61563	0.30433	0.003
Mof_H 	H 	0.13627	0.58283	0.31023	0.025
Mof_C 	C 	0.09317	0.61603	0.28423	-0.026
Mof_H 	H 	0.06297	0.58403	0.27203	0.026
Mof_C 	C 	0.14287	0.70963	0.28103	-0.016
Mof_H 	H 	0.14587	0.74183	0.26753	0.028
Mof_C 	C 	0.18687	0.70783	0.30013	-0.022
Mof_H 	H 	0.21977	0.73953	0.30273	0.042
Mof_C 	C 	0.14547	0.62183	0.28093	-0.013
Mof_H 	H 	0.15077	0.59433	0.26563	0.036
Mof_C 	C 	0.09867	0.62013	0.26623	-0.028
Mof_H 	H 	0.07137	0.59013	0.24533	0.027
Mof_C 	C 	0.12607	0.69923	0.32923	-0.069
Mof_H 	H 	0.11717	0.72293	0.34893	0.047
Mof_C 	C 	0.17237	0.69983	0.34483	0.009
Mof_H 	H 	0.19657	0.72523	0.37403	0.027
Mof_C 	C 	0.03067	0.80323	0.28933	-0.082
Mof_H 	H 	0.05427	0.79923	0.31663	0.051
Mof_C 	C 	0.02887	0.85043	0.29163	0.034
Mof_H 	H 	0.04867	0.87583	0.32343	0.022
Mof_O 	O 	0.90143	0.95375	0.67258	-0.395
Mof_O 	O 	0.9363	0.04013	0.69022	-0.421
Mof_C 	C 	0.90028	0.99614	0.67207	0.363
Mof_C 	C 	0.85041	0.99386	0.64907	-0.082
Mof_C 	C 	0.75832	0.99486	0.61507	0.009
Mof_C 	C 	0.71025	0.99727	0.59787	0.092
Mof_C 	C 	0.71181	0.04546	0.59767	-0.139
Mof_H 	H 	0.74363	0.07687	0.60737	0.068
Mof_C 	C 	0.62093	0.10017	0.59317	-0.042
Mof_H 	H 	0.58863	0.06867	0.60087	0.036
Mof_C 	C 	0.62233	0.14797	0.59187	0.011
Mof_H 	H 	0.59033	0.14827	0.59737	0.022
Mof_C 	C 	0.80453	0.94897	0.63767	0.003
Mof_H 	H 	0.80293	0.91617	0.64357	0.025
Mof_C 	C 	0.75983	0.94937	0.61757	-0.026
Mof_H 	H 	0.72963	0.91737	0.60537	0.026
Mof_C 	C 	0.80953	0.04297	0.61437	-0.021
Mof_H 	H 	0.81253	0.07517	0.60087	0.029
Mof_C 	C 	0.85353	0.04117	0.63347	-0.021
Mof_H 	H 	0.88643	0.07287	0.63607	0.042
Mof_C 	C 	0.81213	0.95517	0.61427	-0.013
Mof_H 	H 	0.81743	0.92767	0.59897	0.037
Mof_C 	C 	0.76533	0.95347	0.59957	-0.028
Mof_H 	H 	0.73803	0.92347	0.57867	0.028
Mof_C 	C 	0.79273	0.03257	0.66257	-0.068
Mof_H 	H 	0.78383	0.05627	0.68227	0.046
Mof_C 	C 	0.83903	0.03317	0.67817	0.003
Mof_H 	H 	0.86323	0.05857	0.70737	0.028
Mof_C 	C 	0.69733	0.13657	0.62267	-0.079
Mof_H 	H 	0.72093	0.13257	0.64997	0.05
Mof_C 	C 	0.69553	0.18377	0.62497	0.033
Mof_H 	H 	0.71533	0.20917	0.65677	0.023
Mof_O 	O 	0.71292	0.28102	0.00591	-0.396
Mof_O 	O 	0.62654	0.22951	0.02355	-0.418
Mof_C 	C 	0.67053	0.23748	0.0054	0.358
Mof_C 	C 	0.67281	0.18989	0.9824	-0.087
Mof_C 	C 	0.67181	0.0968	0.9484	0.01
Mof_C 	C 	0.6694	0.04632	0.9312	0.07
Mof_C 	C 	0.62121	0.99969	0.931	-0.1
Mof_H 	H 	0.5898	0.0001	0.9407	0.052
Mof_C 	C 	0.5665	0.8541	0.9265	-0.047
Mof_H 	H 	0.598	0.8533	0.9342	0.039
Mof_C 	C 	0.5187	0.8077	0.9252	0.015
Mof_H 	H 	0.5184	0.7754	0.9307	0.021
Mof_C 	C 	0.7177	0.1889	0.971	0.003
Mof_H 	H 	0.7505	0.2201	0.9769	0.025
Mof_C 	C 	0.7173	0.1438	0.9509	-0.027
Mof_H 	H 	0.7493	0.1456	0.9387	0.027
Mof_C 	C 	0.6237	0.0999	0.9477	-0.014
Mof_H 	H 	0.5915	0.0707	0.9342	0.027
Mof_C 	C 	0.6255	0.1457	0.9668	-0.025
Mof_H 	H 	0.5938	0.1469	0.9694	0.043
Mof_C 	C 	0.7115	0.1903	0.9476	-0.013
Mof_H 	H 	0.739	0.2231	0.9323	0.036
Mof_C 	C 	0.7132	0.1452	0.9329	-0.029
Mof_H 	H 	0.7432	0.1479	0.912	0.028
Mof_C 	C 	0.6341	0.0935	0.9959	-0.073
Mof_H 	H 	0.6104	0.0609	0.0156	0.048
Mof_C 	C 	0.6335	0.1392	0.0115	0.012
Mof_H 	H 	0.6081	0.138	0.0407	0.025
Mof_C 	C 	0.5301	0.8941	0.956	-0.082
Mof_H 	H 	0.5341	0.9217	0.9833	0.053
Mof_C 	C 	0.4829	0.8451	0.9583	0.033
Mof_H 	H 	0.4575	0.8395	0.9901	0.023
Mof_O 	O 	0.37959	0.61435	0.33924	-0.396
Mof_O 	O 	0.29321	0.56284	0.35688	-0.418
Mof_C 	C 	0.3372	0.57081	0.33873	0.358
Mof_C 	C 	0.33948	0.52322	0.31573	-0.087
Mof_C 	C 	0.33848	0.43013	0.28173	0.006
Mof_C 	C 	0.33607	0.37965	0.26453	0.083
Mof_C 	C 	0.28788	0.33302	0.26433	-0.124
Mof_H 	H 	0.25647	0.33343	0.27403	0.064
Mof_C 	C 	0.23317	0.18743	0.25983	-0.045
Mof_H 	H 	0.26467	0.18663	0.26753	0.038
Mof_C 	C 	0.18537	0.14103	0.25853	0.014
Mof_H 	H 	0.18507	0.10873	0.26403	0.021
Mof_C 	C 	0.38437	0.52223	0.30433	0.003
Mof_H 	H 	0.41717	0.55343	0.31023	0.025
Mof_C 	C 	0.38397	0.47713	0.28423	-0.026
Mof_H 	H 	0.41597	0.47893	0.27203	0.027
Mof_C 	C 	0.29037	0.43323	0.28103	-0.016
Mof_H 	H 	0.25817	0.40403	0.26753	0.028
Mof_C 	C 	0.29217	0.47903	0.30013	-0.022
Mof_H 	H 	0.26047	0.48023	0.30273	0.042
Mof_C 	C 	0.37817	0.52363	0.28093	-0.013
Mof_H 	H 	0.40567	0.55643	0.26563	0.036
Mof_C 	C 	0.37987	0.47853	0.26623	-0.028
Mof_H 	H 	0.40987	0.48123	0.24533	0.028
Mof_C 	C 	0.30077	0.42683	0.32923	-0.069
Mof_H 	H 	0.27707	0.39423	0.34893	0.047
Mof_C 	C 	0.30017	0.47253	0.34483	0.009
Mof_H 	H 	0.27477	0.47133	0.37403	0.027
Mof_C 	C 	0.19677	0.22743	0.28933	-0.08
Mof_H 	H 	0.20077	0.25503	0.31663	0.051
Mof_C 	C 	0.14957	0.17843	0.29163	0.033
Mof_H 	H 	0.12417	0.17283	0.32343	0.023
Mof_O 	O 	0.04625	0.94769	0.67258	-0.393
Mof_O 	O 	0.95987	0.89618	0.69022	-0.413
Mof_C 	C 	0.00386	0.90415	0.67207	0.352
Mof_C 	C 	0.00614	0.85656	0.64907	-0.091
Mof_C 	C 	0.00514	0.76347	0.61507	0.003
Mof_C 	C 	0.00273	0.71299	0.59787	0.074
Mof_C 	C 	0.95454	0.66636	0.59767	-0.11
Mof_H 	H 	0.92313	0.66677	0.60737	0.06
Mof_C 	C 	0.89983	0.52077	0.59317	-0.048
Mof_H 	H 	0.93133	0.51997	0.60087	0.04
Mof_C 	C 	0.85203	0.47437	0.59187	0.016
Mof_H 	H 	0.85173	0.44207	0.59737	0.021
Mof_C 	C 	0.05103	0.85557	0.63767	0.003
Mof_H 	H 	0.08383	0.88677	0.64357	0.025
Mof_C 	C 	0.05063	0.81047	0.61757	-0.027
Mof_H 	H 	0.08263	0.81227	0.60537	0.027
Mof_C 	C 	0.95703	0.76657	0.61437	-0.01
Mof_H 	H 	0.92483	0.73737	0.60087	0.027
Mof_C 	C 	0.95883	0.81237	0.63347	-0.023
Mof_H 	H 	0.92713	0.81357	0.63607	0.043
Mof_C 	C 	0.04483	0.85697	0.61427	-0.013
Mof_H 	H 	0.07233	0.88977	0.59897	0.036
Mof_C 	C 	0.04653	0.81187	0.59957	-0.028
Mof_H 	H 	0.07653	0.81457	0.57867	0.027
Mof_C 	C 	0.96743	0.76017	0.66257	-0.07
Mof_H 	H 	0.94373	0.72757	0.68227	0.049
Mof_C 	C 	0.96683	0.80587	0.67817	0.015
Mof_H 	H 	0.94143	0.80467	0.70737	0.025
Mof_C 	C 	0.86343	0.56077	0.62267	-0.082
Mof_H 	H 	0.86743	0.58837	0.64997	0.052
Mof_C 	C 	0.81623	0.51177	0.62497	0.033
Mof_H 	H 	0.79083	0.50617	0.65677	0.023
Mof_O 	O 	0.71898	0.4319	0.00591	-0.396
Mof_O 	O 	0.77049	0.39703	0.02355	-0.418
Mof_C 	C 	0.76252	0.43305	0.0054	0.357
Mof_C 	C 	0.81011	0.48292	0.9824	-0.085
Mof_C 	C 	0.9032	0.57501	0.9484	0.001
Mof_C 	C 	0.95368	0.62308	0.9312	0.096
Mof_C 	C 	0.00031	0.62152	0.931	-0.148
Mof_H 	H 	0.9999	0.5897	0.9407	0.075
Mof_C 	C 	0.1459	0.7124	0.9265	-0.042
Mof_H 	H 	0.1467	0.7447	0.9342	0.037
Mof_C 	C 	0.1923	0.711	0.9252	0.012
Mof_H 	H 	0.2246	0.743	0.9307	0.022
Mof_C 	C 	0.8111	0.5288	0.971	0.002
Mof_H 	H 	0.7799	0.5304	0.9769	0.025
Mof_C 	C 	0.8562	0.5735	0.9509	-0.025
Mof_H 	H 	0.8544	0.6037	0.9387	0.027
Mof_C 	C 	0.9001	0.5238	0.9477	-0.012
Mof_H 	H 	0.9293	0.5208	0.9342	0.027
Mof_C 	C 	0.8543	0.4798	0.9668	-0.025
Mof_H 	H 	0.8531	0.4469	0.9694	0.044
Mof_C 	C 	0.8097	0.5212	0.9476	-0.014
Mof_H 	H 	0.7769	0.5159	0.9323	0.036
Mof_C 	C 	0.8548	0.568	0.9329	-0.027
Mof_H 	H 	0.8521	0.5953	0.912	0.027
Mof_C 	C 	0.9065	0.5406	0.9959	-0.07
Mof_H 	H 	0.9391	0.5495	0.0156	0.048
Mof_C 	C 	0.8608	0.4943	0.0115	0.01
Mof_H 	H 	0.862	0.4701	0.0407	0.026
Mof_C 	C 	0.1059	0.636	0.956	-0.079
Mof_H 	H 	0.0783	0.6124	0.9833	0.049
Mof_C 	C 	0.1549	0.6378	0.9583	0.033
Mof_H 	H 	0.1605	0.618	0.9901	0.023
Mof_O 	O 	0.38565	0.76523	0.33924	-0.396
Mof_O 	O 	0.43716	0.73036	0.35688	-0.418
Mof_C 	C 	0.42919	0.76638	0.33873	0.358
Mof_C 	C 	0.47678	0.81625	0.31573	-0.087
Mof_C 	C 	0.56987	0.90834	0.28173	0.006
Mof_C 	C 	0.62035	0.95641	0.26453	0.086
Mof_C 	C 	0.66698	0.95485	0.26433	-0.119
Mof_H 	H 	0.66657	0.92303	0.27403	0.062
Mof_C 	C 	0.81257	0.04573	0.25983	-0.042
Mof_H 	H 	0.81337	0.07803	0.26753	0.037
Mof_C 	C 	0.85897	0.04433	0.25853	0.011
Mof_H 	H 	0.89127	0.07633	0.26403	0.022
Mof_C 	C 	0.47777	0.86213	0.30433	0.003
Mof_H 	H 	0.44657	0.86373	0.31023	0.025
Mof_C 	C 	0.52287	0.90683	0.28423	-0.026
Mof_H 	H 	0.52107	0.93703	0.27203	0.028
Mof_C 	C 	0.56677	0.85713	0.28103	-0.016
Mof_H 	H 	0.59597	0.85413	0.26753	0.028
Mof_C 	C 	0.52097	0.81313	0.30013	-0.022
Mof_H 	H 	0.51977	0.78023	0.30273	0.043
Mof_C 	C 	0.47637	0.85453	0.28093	-0.013
Mof_H 	H 	0.44357	0.84923	0.26563	0.036
Mof_C 	C 	0.52147	0.90133	0.26623	-0.028
Mof_H 	H 	0.51877	0.92863	0.24533	0.028
Mof_C 	C 	0.57317	0.87393	0.32923	-0.069
Mof_H 	H 	0.60577	0.88283	0.34893	0.048
Mof_C 	C 	0.52747	0.82763	0.34483	0.009
Mof_H 	H 	0.52867	0.80343	0.37403	0.027
Mof_C 	C 	0.77257	0.96933	0.28933	-0.077
Mof_H 	H 	0.74497	0.94573	0.31663	0.05
Mof_C 	C 	0.82157	0.97113	0.29163	0.036
Mof_H 	H 	0.82717	0.95133	0.32343	0.023
Mof_O 	O 	0.05231	0.09857	0.67258	-0.397
Mof_O 	O 	0.10382	0.0637	0.69022	-0.419
Mof_C 	C 	0.09585	0.09972	0.67207	0.358
Mof_C 	C 	0.14344	0.14959	0.64907	-0.087
Mof_C 	C 	0.23653	0.24168	0.61507	0.006
Mof_C 	C 	0.28701	0.28975	0.59787	0.083
Mof_C 	C 	0.33364	0.28819	0.59767	-0.124
Mof_H 	H 	0.33323	0.25637	0.60737	0.064
Mof_C 	C 	0.47923	0.37907	0.59317	-0.045
Mof_H 	H 	0.48003	0.41137	0.60087	0.038
Mof_C 	C 	0.52563	0.37767	0.59187	0.014
Mof_H 	H 	0.55793	0.40967	0.59737	0.022
Mof_C 	C 	0.14443	0.19547	0.63767	0.003
Mof_H 	H 	0.11323	0.19707	0.64357	0.025
Mof_C 	C 	0.18953	0.24017	0.61757	-0.027
Mof_H 	H 	0.18773	0.27037	0.60537	0.027
Mof_C 	C 	0.23343	0.19047	0.61437	-0.016
Mof_H 	H 	0.26263	0.18747	0.60087	0.028
Mof_C 	C 	0.18763	0.14647	0.63347	-0.022
Mof_H 	H 	0.18643	0.11357	0.63607	0.042
Mof_C 	C 	0.14303	0.18787	0.61427	-0.012
Mof_H 	H 	0.11023	0.18257	0.59897	0.035
Mof_C 	C 	0.18813	0.23467	0.59957	-0.028
Mof_H 	H 	0.18543	0.26197	0.57867	0.027
Mof_C 	C 	0.23983	0.20727	0.66257	-0.069
Mof_H 	H 	0.27243	0.21617	0.68227	0.047
Mof_C 	C 	0.19413	0.16097	0.67817	0.009
Mof_H 	H 	0.19533	0.13677	0.70737	0.027
Mof_C 	C 	0.43923	0.30267	0.62267	-0.08
Mof_H 	H 	0.41163	0.27907	0.64997	0.051
Mof_C 	C 	0.48823	0.30447	0.62497	0.032
Mof_H 	H 	0.49383	0.28467	0.65677	0.023
Mof_O 	O 	0.28708	0.5681	0.49409	-0.396
Mof_O 	O 	0.37346	0.60297	0.47645	-0.418
Mof_C 	C 	0.32947	0.56695	0.4946	0.358
Mof_C 	C 	0.32719	0.51708	0.5176	-0.087
Mof_C 	C 	0.32819	0.42499	0.5516	0.006
Mof_C 	C 	0.3306	0.37692	0.5688	0.083
Mof_C 	C 	0.37879	0.37848	0.569	-0.124
Mof_H 	H 	0.4102	0.4103	0.5593	0.064
Mof_C 	C 	0.4335	0.2876	0.5735	-0.045
Mof_H 	H 	0.402	0.2553	0.5658	0.038
Mof_C 	C 	0.4813	0.289	0.5748	0.014
Mof_H 	H 	0.4816	0.257	0.5693	0.021
Mof_C 	C 	0.2823	0.4712	0.529	0.003
Mof_H 	H 	0.2495	0.4696	0.5231	0.025
Mof_C 	C 	0.2827	0.4265	0.5491	-0.026
Mof_H 	H 	0.2507	0.3963	0.5613	0.027
Mof_C 	C 	0.3763	0.4762	0.5523	-0.016
Mof_H 	H 	0.4085	0.4792	0.5658	0.028
Mof_C 	C 	0.3745	0.5202	0.5332	-0.022
Mof_H 	H 	0.4062	0.5531	0.5306	0.042
Mof_C 	C 	0.2885	0.4788	0.5524	-0.013
Mof_H 	H 	0.261	0.4841	0.5677	0.036
Mof_C 	C 	0.2868	0.432	0.5671	-0.028
Mof_H 	H 	0.2568	0.4047	0.588	0.028
Mof_C 	C 	0.3659	0.4594	0.5041	-0.069
Mof_H 	H 	0.3896	0.4505	0.4844	0.048
Mof_C 	C 	0.3665	0.5057	0.4885	0.009
Mof_H 	H 	0.3919	0.5299	0.4593	0.027
Mof_C 	C 	0.4699	0.364	0.544	-0.081
Mof_H 	H 	0.4659	0.3876	0.5167	0.051
Mof_C 	C 	0.5171	0.3622	0.5417	0.033
Mof_H 	H 	0.5425	0.382	0.5099	0.023
Mof_O 	O 	0.95375	0.90143	0.82742	-0.395
Mof_O 	O 	0.04013	0.9363	0.80978	-0.42
Mof_C 	C 	0.99614	0.90028	0.82793	0.363
Mof_C 	C 	0.99386	0.85041	0.85093	-0.082
Mof_C 	C 	0.99486	0.75832	0.88493	0.009
Mof_C 	C 	0.99727	0.71025	0.90213	0.092
Mof_C 	C 	0.04546	0.71181	0.90233	-0.138
Mof_H 	H 	0.07687	0.74363	0.89263	0.068
Mof_C 	C 	0.10017	0.62093	0.90683	-0.042
Mof_H 	H 	0.06867	0.58863	0.89913	0.036
Mof_C 	C 	0.14797	0.62233	0.90813	0.012
Mof_H 	H 	0.14827	0.59033	0.90263	0.022
Mof_C 	C 	0.94897	0.80453	0.86233	0.003
Mof_H 	H 	0.91617	0.80293	0.85643	0.025
Mof_C 	C 	0.94937	0.75983	0.88243	-0.026
Mof_H 	H 	0.91737	0.72963	0.89463	0.027
Mof_C 	C 	0.04297	0.80953	0.88563	-0.02
Mof_H 	H 	0.07517	0.81253	0.89913	0.029
Mof_C 	C 	0.04117	0.85353	0.86653	-0.021
Mof_H 	H 	0.07287	0.88643	0.86393	0.042
Mof_C 	C 	0.95517	0.81213	0.88573	-0.013
Mof_H 	H 	0.92767	0.81743	0.90103	0.037
Mof_C 	C 	0.95347	0.76533	0.90043	-0.028
Mof_H 	H 	0.92347	0.73803	0.92133	0.028
Mof_C 	C 	0.03257	0.79273	0.83743	-0.068
Mof_H 	H 	0.05627	0.78383	0.81773	0.046
Mof_C 	C 	0.03317	0.83903	0.82183	0.003
Mof_H 	H 	0.05857	0.86323	0.79263	0.028
Mof_C 	C 	0.13657	0.69733	0.87733	-0.079
Mof_H 	H 	0.13257	0.72093	0.85003	0.05
Mof_C 	C 	0.18377	0.69553	0.87503	0.033
Mof_H 	H 	0.20917	0.71533	0.84323	0.023
Mof_O 	O 	0.62041	0.23477	0.16076	-0.396
Mof_O 	O 	0.70679	0.26964	0.14312	-0.418
Mof_C 	C 	0.6628	0.23362	0.16127	0.358
Mof_C 	C 	0.66052	0.18375	0.18427	-0.087
Mof_C 	C 	0.66152	0.09166	0.21827	0.006
Mof_C 	C 	0.66393	0.04359	0.23547	0.082
Mof_C 	C 	0.71212	0.04515	0.23567	-0.123
Mof_H 	H 	0.74353	0.07697	0.22597	0.063
Mof_C 	C 	0.76683	0.95427	0.24017	-0.041
Mof_H 	H 	0.73533	0.92197	0.23247	0.037
Mof_C 	C 	0.81463	0.95567	0.24147	0.014
Mof_H 	H 	0.81493	0.92367	0.23597	0.022
Mof_C 	C 	0.61563	0.13787	0.19567	0.003
Mof_H 	H 	0.58283	0.13627	0.18977	0.025
Mof_C 	C 	0.61603	0.09317	0.21577	-0.026
Mof_H 	H 	0.58403	0.06297	0.22797	0.026
Mof_C 	C 	0.70963	0.14287	0.21897	-0.016
Mof_H 	H 	0.74183	0.14587	0.23247	0.028
Mof_C 	C 	0.70783	0.18687	0.19987	-0.022
Mof_H 	H 	0.73953	0.21977	0.19727	0.042
Mof_C 	C 	0.62183	0.14547	0.21907	-0.013
Mof_H 	H 	0.59433	0.15077	0.23437	0.036
Mof_C 	C 	0.62013	0.09867	0.23377	-0.028
Mof_H 	H 	0.59013	0.07137	0.25467	0.027
Mof_C 	C 	0.69923	0.12607	0.17077	-0.069
Mof_H 	H 	0.72293	0.11717	0.15107	0.047
Mof_C 	C 	0.69983	0.17237	0.15517	0.009
Mof_H 	H 	0.72523	0.19657	0.12597	0.027
Mof_C 	C 	0.80323	0.03067	0.21067	-0.082
Mof_H 	H 	0.79923	0.05427	0.18337	0.051
Mof_C 	C 	0.85043	0.02887	0.20837	0.034
Mof_H 	H 	0.87583	0.04867	0.17657	0.022
Mof_O 	O 	0.28102	0.71292	0.49409	-0.396
Mof_O 	O 	0.22951	0.62654	0.47645	-0.418
Mof_C 	C 	0.23748	0.67053	0.4946	0.358
Mof_C 	C 	0.18989	0.67281	0.5176	-0.087
Mof_C 	C 	0.0968	0.67181	0.5516	0.01
Mof_C 	C 	0.04632	0.6694	0.5688	0.07
Mof_C 	C 	0.99969	0.62121	0.569	-0.1
Mof_H 	H 	0.0001	0.5898	0.5593	0.052
Mof_C 	C 	0.8541	0.5665	0.5735	-0.048
Mof_H 	H 	0.8533	0.598	0.5658	0.039
Mof_C 	C 	0.8077	0.5187	0.5748	0.016
Mof_H 	H 	0.7754	0.5184	0.5693	0.021
Mof_C 	C 	0.1889	0.7177	0.529	0.003
Mof_H 	H 	0.2201	0.7505	0.5231	0.025
Mof_C 	C 	0.1438	0.7173	0.5491	-0.027
Mof_H 	H 	0.1456	0.7493	0.5613	0.027
Mof_C 	C 	0.0999	0.6237	0.5523	-0.017
Mof_H 	H 	0.0707	0.5915	0.5658	0.028
Mof_C 	C 	0.1457	0.6255	0.5332	-0.022
Mof_H 	H 	0.1469	0.5938	0.5306	0.042
Mof_C 	C 	0.1903	0.7115	0.5524	-0.012
Mof_H 	H 	0.2231	0.739	0.5677	0.036
Mof_C 	C 	0.1452	0.7132	0.5671	-0.029
Mof_H 	H 	0.1479	0.7432	0.588	0.028
Mof_C 	C 	0.0935	0.6341	0.5041	-0.071
Mof_H 	H 	0.0609	0.6104	0.4844	0.047
Mof_C 	C 	0.1392	0.6335	0.4885	0.01
Mof_H 	H 	0.138	0.6081	0.4593	0.026
Mof_C 	C 	0.8941	0.5301	0.544	-0.082
Mof_H 	H 	0.9217	0.5341	0.5167	0.053
Mof_C 	C 	0.8451	0.4829	0.5417	0.033
Mof_H 	H 	0.8395	0.4575	0.5099	0.023
Mof_O 	O 	0.94769	0.04625	0.82742	-0.393
Mof_O 	O 	0.89618	0.95987	0.80978	-0.413
Mof_C 	C 	0.90415	0.00386	0.82793	0.352
Mof_C 	C 	0.85656	0.00614	0.85093	-0.091
Mof_C 	C 	0.76347	0.00514	0.88493	0.003
Mof_C 	C 	0.71299	0.00273	0.90213	0.074
Mof_C 	C 	0.66636	0.95454	0.90233	-0.11
Mof_H 	H 	0.66677	0.92313	0.89263	0.06
Mof_C 	C 	0.52077	0.89983	0.90683	-0.048
Mof_H 	H 	0.51997	0.93133	0.89913	0.04
Mof_C 	C 	0.47437	0.85203	0.90813	0.016
Mof_H 	H 	0.44207	0.85173	0.90263	0.021
Mof_C 	C 	0.85557	0.05103	0.86233	0.003
Mof_H 	H 	0.88677	0.08383	0.85643	0.025
Mof_C 	C 	0.81047	0.05063	0.88243	-0.027
Mof_H 	H 	0.81227	0.08263	0.89463	0.027
Mof_C 	C 	0.76657	0.95703	0.88563	-0.01
Mof_H 	H 	0.73737	0.92483	0.89913	0.027
Mof_C 	C 	0.81237	0.95883	0.86653	-0.023
Mof_H 	H 	0.81357	0.92713	0.86393	0.043
Mof_C 	C 	0.85697	0.04483	0.88573	-0.013
Mof_H 	H 	0.88977	0.07233	0.90103	0.036
Mof_C 	C 	0.81187	0.04653	0.90043	-0.028
Mof_H 	H 	0.81457	0.07653	0.92133	0.027
Mof_C 	C 	0.76017	0.96743	0.83743	-0.07
Mof_H 	H 	0.72757	0.94373	0.81773	0.049
Mof_C 	C 	0.80587	0.96683	0.82183	0.015
Mof_H 	H 	0.80467	0.94143	0.79263	0.025
Mof_C 	C 	0.56077	0.86343	0.87733	-0.082
Mof_H 	H 	0.58837	0.86743	0.85003	0.052
Mof_C 	C 	0.51177	0.81623	0.87503	0.033
Mof_H 	H 	0.50617	0.79083	0.84323	0.023
Mof_O 	O 	0.61435	0.37959	0.16076	-0.396
Mof_O 	O 	0.56284	0.29321	0.14312	-0.418
Mof_C 	C 	0.57081	0.3372	0.16127	0.358
Mof_C 	C 	0.52322	0.33948	0.18427	-0.087
Mof_C 	C 	0.43013	0.33848	0.21827	0.006
Mof_C 	C 	0.37965	0.33607	0.23547	0.083
Mof_C 	C 	0.33302	0.28788	0.23567	-0.124
Mof_H 	H 	0.33343	0.25647	0.22597	0.064
Mof_C 	C 	0.18743	0.23317	0.24017	-0.045
Mof_H 	H 	0.18663	0.26467	0.23247	0.038
Mof_C 	C 	0.14103	0.18537	0.24147	0.014
Mof_H 	H 	0.10873	0.18507	0.23597	0.021
Mof_C 	C 	0.52223	0.38437	0.19567	0.003
Mof_H 	H 	0.55343	0.41717	0.18977	0.025
Mof_C 	C 	0.47713	0.38397	0.21577	-0.026
Mof_H 	H 	0.47893	0.41597	0.22797	0.027
Mof_C 	C 	0.43323	0.29037	0.21897	-0.016
Mof_H 	H 	0.40403	0.25817	0.23247	0.028
Mof_C 	C 	0.47903	0.29217	0.19987	-0.022
Mof_H 	H 	0.48023	0.26047	0.19727	0.042
Mof_C 	C 	0.52363	0.37817	0.21907	-0.013
Mof_H 	H 	0.55643	0.40567	0.23437	0.036
Mof_C 	C 	0.47853	0.37987	0.23377	-0.028
Mof_H 	H 	0.48123	0.40987	0.25467	0.028
Mof_C 	C 	0.42683	0.30077	0.17077	-0.069
Mof_H 	H 	0.39423	0.27707	0.15107	0.047
Mof_C 	C 	0.47253	0.30017	0.15517	0.009
Mof_H 	H 	0.47133	0.27477	0.12597	0.027
Mof_C 	C 	0.22743	0.19677	0.21067	-0.08
Mof_H 	H 	0.25503	0.20077	0.18337	0.051
Mof_C 	C 	0.17843	0.14957	0.20837	0.033
Mof_H 	H 	0.17283	0.12417	0.17657	0.023
Mof_O 	O 	0.4319	0.71898	0.49409	-0.396
Mof_O 	O 	0.39703	0.77049	0.47645	-0.418
Mof_C 	C 	0.43305	0.76252	0.4946	0.358
Mof_C 	C 	0.48292	0.81011	0.5176	-0.086
Mof_C 	C 	0.57501	0.9032	0.5516	0.001
Mof_C 	C 	0.62308	0.95368	0.5688	0.096
Mof_C 	C 	0.62152	0.00031	0.569	-0.149
Mof_H 	H 	0.5897	0.9999	0.5593	0.076
Mof_C 	C 	0.7124	0.1459	0.5735	-0.043
Mof_H 	H 	0.7447	0.1467	0.5658	0.037
Mof_C 	C 	0.711	0.1923	0.5748	0.012
Mof_H 	H 	0.743	0.2246	0.5693	0.022
Mof_C 	C 	0.5288	0.8111	0.529	0.002
Mof_H 	H 	0.5304	0.7799	0.5231	0.025
Mof_C 	C 	0.5735	0.8562	0.5491	-0.025
Mof_H 	H 	0.6037	0.8544	0.5613	0.027
Mof_C 	C 	0.5238	0.9001	0.5523	-0.015
Mof_H 	H 	0.5208	0.9293	0.5658	0.028
Mof_C 	C 	0.4798	0.8543	0.5332	-0.022
Mof_H 	H 	0.4469	0.8531	0.5306	0.043
Mof_C 	C 	0.5212	0.8097	0.5524	-0.013
Mof_H 	H 	0.5159	0.7769	0.5677	0.036
Mof_C 	C 	0.568	0.8548	0.5671	-0.027
Mof_H 	H 	0.5953	0.8521	0.588	0.027
Mof_C 	C 	0.5406	0.9065	0.5041	-0.067
Mof_H 	H 	0.5495	0.9391	0.4844	0.048
Mof_C 	C 	0.4943	0.8608	0.4885	0.008
Mof_H 	H 	0.4701	0.862	0.4593	0.027
Mof_C 	C 	0.636	0.1059	0.544	-0.079
Mof_H 	H 	0.6124	0.0783	0.5167	0.049
Mof_C 	C 	0.6378	0.1549	0.5417	0.033
Mof_H 	H 	0.618	0.1605	0.5099	0.023
Mof_O 	O 	0.09857	0.05231	0.82742	-0.397
Mof_O 	O 	0.0637	0.10382	0.80978	-0.419
Mof_C 	C 	0.09972	0.09585	0.82793	0.358
Mof_C 	C 	0.14959	0.14344	0.85093	-0.087
Mof_C 	C 	0.24168	0.23653	0.88493	0.006
Mof_C 	C 	0.28975	0.28701	0.90213	0.083
Mof_C 	C 	0.28819	0.33364	0.90233	-0.124
Mof_H 	H 	0.25637	0.33323	0.89263	0.064
Mof_C 	C 	0.37907	0.47923	0.90683	-0.045
Mof_H 	H 	0.41137	0.48003	0.89913	0.038
Mof_C 	C 	0.37767	0.52563	0.90813	0.014
Mof_H 	H 	0.40967	0.55793	0.90263	0.021
Mof_C 	C 	0.19547	0.14443	0.86233	0.003
Mof_H 	H 	0.19707	0.11323	0.85643	0.025
Mof_C 	C 	0.24017	0.18953	0.88243	-0.027
Mof_H 	H 	0.27037	0.18773	0.89463	0.027
Mof_C 	C 	0.19047	0.23343	0.88563	-0.016
Mof_H 	H 	0.18747	0.26263	0.89913	0.028
Mof_C 	C 	0.14647	0.18763	0.86653	-0.022
Mof_H 	H 	0.11357	0.18643	0.86393	0.042
Mof_C 	C 	0.18787	0.14303	0.88573	-0.012
Mof_H 	H 	0.18257	0.11023	0.90103	0.035
Mof_C 	C 	0.23467	0.18813	0.90043	-0.028
Mof_H 	H 	0.26197	0.18543	0.92133	0.027
Mof_C 	C 	0.20727	0.23983	0.83743	-0.069
Mof_H 	H 	0.21617	0.27243	0.81773	0.047
Mof_C 	C 	0.16097	0.19413	0.82183	0.009
Mof_H 	H 	0.13677	0.19533	0.79263	0.027
Mof_C 	C 	0.30267	0.43923	0.87733	-0.08
Mof_H 	H 	0.27907	0.41163	0.85003	0.051
Mof_C 	C 	0.30447	0.48823	0.87503	0.033
Mof_H 	H 	0.28467	0.49383	0.84323	0.023
Mof_O 	O 	0.76523	0.38565	0.16076	-0.396
Mof_O 	O 	0.73036	0.43716	0.14312	-0.418
Mof_C 	C 	0.76638	0.42919	0.16127	0.358
Mof_C 	C 	0.81625	0.47678	0.18427	-0.087
Mof_C 	C 	0.90834	0.56987	0.21827	0.006
Mof_C 	C 	0.95641	0.62035	0.23547	0.086
Mof_C 	C 	0.95485	0.66698	0.23567	-0.118
Mof_H 	H 	0.92303	0.66657	0.22597	0.062
Mof_C 	C 	0.04573	0.81257	0.24017	-0.042
Mof_H 	H 	0.07803	0.81337	0.23247	0.037
Mof_C 	C 	0.04433	0.85897	0.24147	0.011
Mof_H 	H 	0.07633	0.89127	0.23597	0.022
Mof_C 	C 	0.86213	0.47777	0.19567	0.003
Mof_H 	H 	0.86373	0.44657	0.18977	0.025
Mof_C 	C 	0.90683	0.52287	0.21577	-0.026
Mof_H 	H 	0.93703	0.52107	0.22797	0.028
Mof_C 	C 	0.85713	0.56677	0.21897	-0.016
Mof_H 	H 	0.85413	0.59597	0.23247	0.028
Mof_C 	C 	0.81313	0.52097	0.19987	-0.022
Mof_H 	H 	0.78023	0.51977	0.19727	0.043
Mof_C 	C 	0.85453	0.47637	0.21907	-0.013
Mof_H 	H 	0.84923	0.44357	0.23437	0.036
Mof_C 	C 	0.90133	0.52147	0.23377	-0.028
Mof_H 	H 	0.92863	0.51877	0.25467	0.028
Mof_C 	C 	0.87393	0.57317	0.17077	-0.069
Mof_H 	H 	0.88283	0.60577	0.15107	0.048
Mof_C 	C 	0.82763	0.52747	0.15517	0.009
Mof_H 	H 	0.80343	0.52867	0.12597	0.027
Mof_C 	C 	0.96933	0.77257	0.21067	-0.077
Mof_H 	H 	0.94573	0.74497	0.18337	0.05
Mof_C 	C 	0.97113	0.82157	0.20837	0.036
Mof_H 	H 	0.95133	0.82717	0.17657	0.023
Mof_Ni	Ni	0.66667	0.40174	0.08333	1.123
Mof_N 	N 	0.66667	0.47306	0.08333	-0.205
Mof_N 	N 	0.66667	0.71479	0.08333	-0.136
Mof_C 	C 	0.66667	0.61928	0.08333	0.046
Mof_C 	C 	0.66667	0.56868	0.08333	0.05
Mof_Ni	Ni	0.59826	0.26492	0.08333	1.123
Mof_N 	N 	0.52694	0.1936	0.08333	-0.204
Mof_N 	N 	0.28521	0.95187	0.08333	-0.139
Mof_C 	C 	0.38072	0.04738	0.08333	0.058
Mof_C 	C 	0.43132	0.09798	0.08333	0.043
Mof_Ni	Ni	0.73508	0.33333	0.08333	1.123
Mof_N 	N 	0.8064	0.33333	0.08333	-0.205
Mof_N 	N 	0.04813	0.33333	0.08333	-0.133
Mof_C 	C 	0.95262	0.33333	0.08333	0.034
Mof_C 	C 	0.90202	0.33333	0.08333	0.057
Mof_Ni	Ni	0.40174	0.66667	0.41667	1.123
Mof_N 	N 	0.47306	0.66667	0.41667	-0.205
Mof_N 	N 	0.71479	0.66667	0.41667	-0.136
Mof_C 	C 	0.61928	0.66667	0.41667	0.046
Mof_C 	C 	0.56868	0.66667	0.41667	0.05
Mof_Ni	Ni	0.06841	-1.29563e-32	0.75	1.122
Mof_N 	N 	0.13973	-1.29563e-32	0.75	-0.207
Mof_N 	N 	0.38146	-1.29563e-32	0.75	-0.139
Mof_C 	C 	0.28595	-1.29563e-32	0.75	0.041
Mof_C 	C 	0.23535	-1.29563e-32	0.75	0.045
Mof_Ni	Ni	0.26492	0.59826	0.41667	1.123
Mof_N 	N 	0.1936	0.52694	0.41667	-0.204
Mof_N 	N 	0.95187	0.28521	0.41667	-0.139
Mof_C 	C 	0.04738	0.38072	0.41667	0.058
Mof_C 	C 	0.09798	0.43132	0.41667	0.043
Mof_Ni	Ni	0.93159	0.93159	0.75	1.125
Mof_N 	N 	0.86027	0.86027	0.75	-0.205
Mof_N 	N 	0.61854	0.61854	0.75	-0.136
Mof_C 	C 	0.71405	0.71405	0.75	0.046
Mof_C 	C 	0.76465	0.76465	0.75	0.05
Mof_Ni	Ni	0.33333	0.73508	0.41667	1.123
Mof_N 	N 	0.33333	0.8064	0.41667	-0.205
Mof_N 	N 	0.33333	0.04813	0.41667	-0.133
Mof_C 	C 	0.33333	0.95262	0.41667	0.034
Mof_C 	C 	0.33333	0.90202	0.41667	0.057
Mof_Ni	Ni	-6.91485e-18	0.06841	0.75	1.122
Mof_N 	N 	7.67262e-18	0.13973	0.75	-0.207
Mof_N 	N 	2.22601e-17	0.38146	0.75	-0.139
Mof_C 	C 	2.22601e-17	0.28595	0.75	0.041
Mof_C 	C 	-6.91485e-18	0.23535	0.75	0.045
Mof_Ni	Ni	0.33333	0.59826	0.91667	1.123
Mof_N 	N 	0.33333	0.52694	0.91667	-0.205
Mof_N 	N 	0.33333	0.28521	0.91667	-0.136
Mof_C 	C 	0.33333	0.38072	0.91667	0.046
Mof_C 	C 	0.33333	0.43132	0.91667	0.05
Mof_Ni	Ni	-8.01048e-17	0.93159	0.25	1.123
Mof_N 	N 	3.6595e-17	0.86027	0.25	-0.208
Mof_N 	N 	-2.17549e-17	0.61854	0.25	-0.139
Mof_C 	C 	-2.17549e-17	0.71405	0.25	0.041
Mof_C 	C 	-2.17549e-17	0.76465	0.25	0.044
Mof_Ni	Ni	0.40174	0.73508	0.91667	1.123
Mof_N 	N 	0.47306	0.8064	0.91667	-0.205
Mof_N 	N 	0.71479	0.04813	0.91667	-0.133
Mof_C 	C 	0.61928	0.95262	0.91667	0.033
Mof_C 	C 	0.56868	0.90202	0.91667	0.058
Mof_Ni	Ni	0.06841	0.06841	0.25	1.123
Mof_N 	N 	0.13973	0.13973	0.25	-0.205
Mof_N 	N 	0.38146	0.38146	0.25	-0.136
Mof_C 	C 	0.28595	0.28595	0.25	0.046
Mof_C 	C 	0.23535	0.23535	0.25	0.05
Mof_Ni	Ni	0.26492	0.66667	0.91667	1.123
Mof_N 	N 	0.1936	0.66667	0.91667	-0.204
Mof_N 	N 	0.95187	0.66667	0.91667	-0.139
Mof_C 	C 	0.04738	0.66667	0.91667	0.058
Mof_C 	C 	0.09798	0.66667	0.91667	0.043
Mof_Ni	Ni	0.93159	0	0.25	1.123
Mof_N 	N 	0.86027	0	0.25	-0.208
Mof_N 	N 	0.61854	0	0.25	-0.139
Mof_C 	C 	0.71405	0	0.25	0.041
Mof_C 	C 	0.76465	0	0.25	0.044
Mof_Ni	Ni	0.59826	0.33333	0.58333	1.123
Mof_N 	N 	0.52694	0.33333	0.58333	-0.205
Mof_N 	N 	0.28521	0.33333	0.58333	-0.136
Mof_C 	C 	0.38072	0.33333	0.58333	0.046
Mof_C 	C 	0.43132	0.33333	0.58333	0.05
Mof_Ni	Ni	0.73508	0.40174	0.58333	1.123
Mof_N 	N 	0.8064	0.47306	0.58333	-0.205
Mof_N 	N 	0.04813	0.71479	0.58333	-0.133
Mof_C 	C 	0.95262	0.61928	0.58333	0.033
Mof_C 	C 	0.90202	0.56868	0.58333	0.058
Mof_Ni	Ni	0.66667	0.26492	0.58333	1.123
Mof_N 	N 	0.66667	0.1936	0.58333	-0.204
Mof_N 	N 	0.66667	0.95187	0.58333	-0.139
Mof_C 	C 	0.66667	0.04738	0.58333	0.059
Mof_C 	C 	0.66667	0.09798	0.58333	0.043
Mof_O 	O 	0.66667	0.33333	0.08333	-0.711
Mof_O 	O 	-1.29563e-32	-1.29563e-32	0.75	-0.713
Mof_O 	O 	0.33333	0.66667	0.41667	-0.711
Mof_O 	O 	0.33333	0.66667	0.91667	-0.711
Mof_O 	O 	-1.61953e-33	0	0.25	-0.713
Mof_O 	O 	0.66667	0.33333	0.58333	-0.711
Mof_H 	H 	0.66667	0.33333	0.1313	0.127
Mof_H 	H 	0.33333	0.66667	0.46463	0.127
Mof_H 	H 	-0	0	0.79797	0.124
Mof_H 	H 	0.33333	0.66667	0.3687	0.127
Mof_H 	H 	-1.29563e-32	0	0.70203	0.124
Mof_H 	H 	0.66667	0.33333	0.03537	0.127
Mof_H 	H 	0.33333	0.66667	0.8687	0.127
Mof_H 	H 	-0	3.23907e-33	0.20203	0.124
Mof_H 	H 	0.66667	0.33333	0.53537	0.127
Mof_H 	H 	0.66667	0.33333	0.6313	0.127
Mof_H 	H 	0.33333	0.66667	0.96463	0.127
Mof_H 	H 	-0	-3.23907e-33	0.29797	0.124
_end
