data_functionalizedCrystal
_audit_creation_method	'EQeq! by Chris Wilmer'
_symmetry_space_group_name_H-M	'P1'
_symmetry_Int_Tables_number	1
_symmetry_cell_setting	triclinic
loop_
_symmetry_equiv_pos_as_xyz
  x,y,z
_cell_length_a	12.3588
_cell_length_b	15.5011
_cell_length_c	34.305
_cell_angle_alpha	90
_cell_angle_beta	90
_cell_angle_gamma	90
loop_
_atom_site_label
_atom_site_type_symbol
_atom_site_fract_x
_atom_site_fract_y
_atom_site_fract_z
_atom_site_charge
Mof_Cu	Cu	0.65009	0.64229	0.5137	0.9
Mof_S 	S 	0.88049	0.62863	0.30933	-0.068
Mof_C 	C 	0.8154	0.2317	0.3333	-0.613
Mof_H 	H 	0.8771	0.1938	0.3281	0.167
Mof_H 	H 	0.7503	0.2079	0.3211	0.186
Mof_H 	H 	0.8041	0.236	0.3616	0.198
Mof_C 	C 	0.8374	0.3184	0.3172	0.246
Mof_C 	C 	0.8256	0.4572	0.3066	0.103
Mof_C 	C 	0.7893	0.5464	0.3061	-0.04
Mof_C 	C 	0.6881	0.5752	0.2988	-0.035
Mof_H 	H 	0.6269	0.5387	0.2958	0.038
Mof_C 	C 	0.6843	0.6666	0.296	-0.041
Mof_H 	H 	0.6196	0.6982	0.2916	0.041
Mof_C 	C 	0.7827	0.7038	0.3004	-0.035
Mof_C 	C 	0.814	0.7943	0.2956	0.104
Mof_C 	C 	0.8175	0.9339	0.3023	0.284
Mof_C 	C 	0.7955	0.0219	0.3164	-0.665
Mof_H 	H 	0.8396	0.0631	0.3017	0.171
Mof_H 	H 	0.8136	0.0257	0.3442	0.203
Mof_H 	H 	0.7187	0.0353	0.3127	0.199
Mof_C 	C 	0.7023	0.4019	0.3583	0.109
Mof_C 	C 	0.6007	0.3628	0.3563	-0.126
Mof_H 	H 	0.5806	0.329	0.3344	0.063
Mof_C 	C 	0.5296	0.3748	0.3875	0.002
Mof_H 	H 	0.4617	0.3461	0.3876	0.019
Mof_C 	C 	0.5579	0.429	0.4185	-0.052
Mof_H 	H 	0.5073	0.4397	0.4387	0.056
Mof_C 	C 	0.6612	0.468	0.4198	-0.039
Mof_C 	C 	0.7306	0.4535	0.3892	-0.095
Mof_H 	H 	0.8	0.4799	0.3894	0.081
Mof_C 	C 	0.6922	0.5278	0.4508	0.319
Mof_C 	C 	0.6975	0.8537	0.3488	0.125
Mof_C 	C 	0.5938	0.8878	0.3468	-0.132
Mof_H 	H 	0.5683	0.9144	0.3236	0.074
Mof_C 	C 	0.5289	0.8818	0.3793	0.023
Mof_H 	H 	0.4588	0.9069	0.3788	0.037
Mof_C 	C 	0.5634	0.8401	0.413	-0.06
Mof_H 	H 	0.5167	0.8352	0.4348	0.076
Mof_C 	C 	0.6676	0.8056	0.4141	-0.026
Mof_C 	C 	0.7349	0.8123	0.3816	-0.102
Mof_H 	H 	0.8058	0.7886	0.382	0.087
Mof_C 	C 	0.702	0.7536	0.4483	0.324
Mof_N 	N 	0.7796	0.3912	0.327	-0.181
Mof_N 	N 	0.9134	0.3382	0.2923	-0.241
Mof_N 	N 	0.9081	0.4272	0.2859	-0.206
Mof_N 	N 	0.7684	0.8616	0.31556	-0.19
Mof_N 	N 	0.8899	0.823	0.2718	-0.203
Mof_N 	N 	0.8913	0.9128	0.2756	-0.238
Mof_O 	O 	0.6188	0.5554	0.47413	-0.396
Mof_O 	O 	0.7903	0.553	0.4521	-0.396
Mof_O 	O 	0.6333	0.7328	0.47364	-0.401
Mof_O 	O 	0.8012	0.7302	0.449	-0.39
Mof_Cu	Cu	0.15009	0.14229	0.0137	0.898
Mof_S 	S 	0.38049	0.12863	0.80933	-0.086
Mof_C 	C 	0.3154	0.7317	0.8333	-0.606
Mof_H 	H 	0.3771	0.6938	0.8281	0.162
Mof_H 	H 	0.2503	0.7079	0.8211	0.184
Mof_H 	H 	0.3041	0.736	0.8616	0.195
Mof_C 	C 	0.3374	0.8184	0.8172	0.243
Mof_C 	C 	0.3256	0.9572	0.8066	0.131
Mof_C 	C 	0.2893	0.0464	0.8061	-0.072
Mof_C 	C 	0.1881	0.0752	0.7988	-0.02
Mof_H 	H 	0.1269	0.0387	0.7958	0.02
Mof_C 	C 	0.1843	0.1666	0.796	-0.053
Mof_H 	H 	0.1196	0.1982	0.7916	0.039
Mof_C 	C 	0.2827	0.2038	0.8004	-0.029
Mof_C 	C 	0.314	0.2943	0.7956	0.097
Mof_C 	C 	0.3175	0.4339	0.8023	0.239
Mof_C 	C 	0.2955	0.5219	0.8164	-0.594
Mof_H 	H 	0.3396	0.5631	0.8017	0.152
Mof_H 	H 	0.3136	0.5257	0.8442	0.187
Mof_H 	H 	0.2187	0.5353	0.8127	0.185
Mof_C 	C 	0.2023	0.9019	0.8583	0.106
Mof_C 	C 	0.1007	0.8628	0.8563	-0.1
Mof_H 	H 	0.0806	0.829	0.8344	0.051
Mof_C 	C 	0.0296	0.8748	0.8875	-0.051
Mof_H 	H 	0.9617	0.8461	0.8876	0.056
Mof_C 	C 	0.0579	0.929	0.9185	-0.034
Mof_H 	H 	0.0073	0.9397	0.9387	0.052
Mof_C 	C 	0.1612	0.968	0.9198	-0.018
Mof_C 	C 	0.2306	0.9535	0.8892	-0.095
Mof_H 	H 	0.3	0.9799	0.8894	0.088
Mof_C 	C 	0.1922	0.0278	0.9508	0.294
Mof_C 	C 	0.1975	0.3537	0.8488	0.093
Mof_C 	C 	0.0938	0.3878	0.8468	-0.09
Mof_H 	H 	0.0683	0.4144	0.8236	0.048
Mof_C 	C 	0.0289	0.3818	0.8793	-0.059
Mof_H 	H 	0.9588	0.4069	0.8788	0.071
Mof_C 	C 	0.0634	0.3401	0.913	-0.019
Mof_H 	H 	0.0167	0.3352	0.9348	0.05
Mof_C 	C 	0.1676	0.3056	0.9141	-0.057
Mof_C 	C 	0.2349	0.3123	0.8816	-0.078
Mof_H 	H 	0.3058	0.2886	0.882	0.073
Mof_C 	C 	0.202	0.2536	0.9483	0.333
Mof_N 	N 	0.2796	0.8912	0.827	-0.183
Mof_N 	N 	0.4134	0.8382	0.7923	-0.247
Mof_N 	N 	0.4081	0.9272	0.7859	-0.21
Mof_N 	N 	0.2684	0.3616	0.81556	-0.18
Mof_N 	N 	0.3899	0.323	0.7718	-0.21
Mof_N 	N 	0.3913	0.4128	0.7756	-0.243
Mof_O 	O 	0.1188	0.0554	0.97413	-0.403
Mof_O 	O 	0.2903	0.053	0.9521	-0.402
Mof_O 	O 	0.1333	0.2328	0.97364	-0.412
Mof_O 	O 	0.3012	0.2302	0.949	-0.399
Mof_Cu	Cu	0.84991	0.35771	0.0137	0.904
Mof_S 	S 	0.61951	0.37137	0.80933	-0.084
Mof_C 	C 	0.6846	0.7683	0.8333	-0.617
Mof_H 	H 	0.6229	0.8062	0.8281	0.167
Mof_H 	H 	0.7497	0.7921	0.8211	0.192
Mof_H 	H 	0.6959	0.764	0.8616	0.201
Mof_C 	C 	0.6626	0.6816	0.8172	0.247
Mof_C 	C 	0.6744	0.5428	0.8066	0.101
Mof_C 	C 	0.7107	0.4536	0.8061	-0.037
Mof_C 	C 	0.8119	0.4248	0.7988	-0.036
Mof_H 	H 	0.8731	0.4613	0.7958	0.042
Mof_C 	C 	0.8157	0.3334	0.796	-0.041
Mof_H 	H 	0.8804	0.3018	0.7916	0.045
Mof_C 	C 	0.7173	0.2962	0.8004	-0.033
Mof_C 	C 	0.686	0.2057	0.7956	0.1
Mof_C 	C 	0.6825	0.0661	0.8023	0.209
Mof_C 	C 	0.7045	0.9781	0.8164	-0.547
Mof_H 	H 	0.6604	0.9369	0.8017	0.145
Mof_H 	H 	0.6864	0.9743	0.8442	0.184
Mof_H 	H 	0.7813	0.9647	0.8127	0.184
Mof_C 	C 	0.7977	0.5981	0.8583	0.128
Mof_C 	C 	0.8993	0.6372	0.8563	-0.163
Mof_H 	H 	0.9194	0.671	0.8344	0.082
Mof_C 	C 	0.9704	0.6252	0.8875	0.074
Mof_H 	H 	0.0383	0.6539	0.8876	-0.019
Mof_C 	C 	0.9421	0.571	0.9185	-0.089
Mof_H 	H 	0.9927	0.5603	0.9387	0.078
Mof_C 	C 	0.8388	0.532	0.9198	-0.017
Mof_C 	C 	0.7694	0.5465	0.8892	-0.114
Mof_H 	H 	0.7	0.5201	0.8894	0.084
Mof_C 	C 	0.8078	0.4722	0.9508	0.312
Mof_C 	C 	0.8025	0.1463	0.8488	0.132
Mof_C 	C 	0.9062	0.1122	0.8468	-0.171
Mof_H 	H 	0.9317	0.0856	0.8236	0.083
Mof_C 	C 	0.9711	0.1182	0.8793	0.088
Mof_H 	H 	0.0412	0.0931	0.8788	-0.009
Mof_C 	C 	0.9366	0.1599	0.913	-0.099
Mof_H 	H 	0.9833	0.1648	0.9348	0.095
Mof_C 	C 	0.8324	0.1944	0.9141	-0.01
Mof_C 	C 	0.7651	0.1877	0.8816	-0.119
Mof_H 	H 	0.6942	0.2114	0.882	0.086
Mof_C 	C 	0.798	0.2464	0.9483	0.316
Mof_N 	N 	0.7204	0.6088	0.827	-0.184
Mof_N 	N 	0.5866	0.6618	0.7923	-0.249
Mof_N 	N 	0.5919	0.5728	0.7859	-0.212
Mof_N 	N 	0.7316	0.1384	0.81556	-0.182
Mof_N 	N 	0.6101	0.177	0.7718	-0.211
Mof_N 	N 	0.6087	0.0872	0.7756	-0.242
Mof_O 	O 	0.8812	0.4446	0.97413	-0.387
Mof_O 	O 	0.7097	0.447	0.9521	-0.397
Mof_O 	O 	0.8667	0.2672	0.97364	-0.395
Mof_O 	O 	0.6988	0.2698	0.949	-0.395
Mof_Cu	Cu	0.34991	0.85771	0.5137	0.903
Mof_S 	S 	0.11951	0.87137	0.30933	-0.095
Mof_C 	C 	0.1846	0.2683	0.3333	-0.598
Mof_H 	H 	0.1229	0.3062	0.3281	0.154
Mof_H 	H 	0.2497	0.2921	0.3211	0.183
Mof_H 	H 	0.1959	0.264	0.3616	0.19
Mof_C 	C 	0.1626	0.1816	0.3172	0.237
Mof_C 	C 	0.1744	0.0428	0.3066	0.067
Mof_C 	C 	0.2107	0.9536	0.3061	-0
Mof_C 	C 	0.3119	0.9248	0.2988	-0.053
Mof_H 	H 	0.3731	0.9613	0.2958	0.053
Mof_C 	C 	0.3157	0.8334	0.296	-0.032
Mof_H 	H 	0.3804	0.8018	0.2916	0.039
Mof_C 	C 	0.2173	0.7962	0.3004	-0.035
Mof_C 	C 	0.186	0.7057	0.2956	0.099
Mof_C 	C 	0.1825	0.5661	0.3023	0.238
Mof_C 	C 	0.2045	0.4781	0.3164	-0.592
Mof_H 	H 	0.1604	0.4369	0.3017	0.149
Mof_H 	H 	0.1864	0.4743	0.3442	0.184
Mof_H 	H 	0.2813	0.4647	0.3127	0.187
Mof_C 	C 	0.2977	0.0981	0.3583	0.086
Mof_C 	C 	0.3993	0.1372	0.3563	-0.111
Mof_H 	H 	0.4194	0.171	0.3344	0.056
Mof_C 	C 	0.4704	0.1252	0.3875	-0.021
Mof_H 	H 	0.5383	0.1539	0.3876	0.026
Mof_C 	C 	0.4421	0.071	0.4185	-0.029
Mof_H 	H 	0.4927	0.0603	0.4387	0.042
Mof_C 	C 	0.3388	0.032	0.4198	-0.088
Mof_C 	C 	0.2694	0.0465	0.3892	-0.07
Mof_H 	H 	0.2	0.0201	0.3894	0.058
Mof_C 	C 	0.3078	0.9722	0.4508	0.355
Mof_C 	C 	0.3025	0.6463	0.3488	0.114
Mof_C 	C 	0.4062	0.6122	0.3468	-0.129
Mof_H 	H 	0.4317	0.5856	0.3236	0.068
Mof_C 	C 	0.4711	0.6182	0.3793	0.016
Mof_H 	H 	0.5412	0.5931	0.3788	0.033
Mof_C 	C 	0.4366	0.6599	0.413	-0.059
Mof_H 	H 	0.4833	0.6648	0.4348	0.073
Mof_C 	C 	0.3324	0.6944	0.4141	-0.033
Mof_C 	C 	0.2651	0.6877	0.3816	-0.098
Mof_H 	H 	0.1942	0.7114	0.382	0.078
Mof_C 	C 	0.298	0.7464	0.4483	0.325
Mof_N 	N 	0.2204	0.1088	0.327	-0.174
Mof_N 	N 	0.0866	0.1618	0.2923	-0.252
Mof_N 	N 	0.0919	0.0728	0.2859	-0.217
Mof_N 	N 	0.2316	0.6384	0.31556	-0.184
Mof_N 	N 	0.1101	0.677	0.2718	-0.214
Mof_N 	N 	0.1087	0.5872	0.2756	-0.246
Mof_O 	O 	0.3812	0.9446	0.47413	-0.395
Mof_O 	O 	0.2097	0.947	0.4521	-0.402
Mof_O 	O 	0.3667	0.7672	0.47364	-0.403
Mof_O 	O 	0.1988	0.7698	0.449	-0.398
Mof_Cu	Cu	0.34991	0.14229	0.9863	0.9
Mof_S 	S 	0.11951	0.12863	0.19067	-0.099
Mof_C 	C 	0.1846	0.7317	0.1667	-0.601
Mof_H 	H 	0.1229	0.6938	0.1719	0.156
Mof_H 	H 	0.2497	0.7079	0.1789	0.184
Mof_H 	H 	0.1959	0.736	0.1384	0.192
Mof_C 	C 	0.1626	0.8184	0.1828	0.24
Mof_C 	C 	0.1744	0.9572	0.1934	0.129
Mof_C 	C 	0.2107	0.0464	0.1939	-0.07
Mof_C 	C 	0.3119	0.0752	0.2012	-0.02
Mof_H 	H 	0.3731	0.0387	0.2042	0.024
Mof_C 	C 	0.3157	0.1666	0.204	-0.053
Mof_H 	H 	0.3804	0.1982	0.2084	0.044
Mof_C 	C 	0.2173	0.2038	0.1996	-0.027
Mof_C 	C 	0.186	0.2943	0.2044	0.096
Mof_C 	C 	0.1825	0.4339	0.1977	0.238
Mof_C 	C 	0.2045	0.5219	0.1836	-0.593
Mof_H 	H 	0.1604	0.5631	0.1983	0.149
Mof_H 	H 	0.1864	0.5257	0.1558	0.185
Mof_H 	H 	0.2813	0.5353	0.1873	0.187
Mof_C 	C 	0.2977	0.9019	0.1417	0.125
Mof_C 	C 	0.3993	0.8628	0.1437	-0.137
Mof_H 	H 	0.4194	0.829	0.1656	0.069
Mof_C 	C 	0.4704	0.8748	0.1125	0.021
Mof_H 	H 	0.5383	0.8461	0.1124	0.017
Mof_C 	C 	0.4421	0.929	0.0815	-0.071
Mof_H 	H 	0.4927	0.9397	0.0613	0.073
Mof_C 	C 	0.3388	0.968	0.0802	0.003
Mof_C 	C 	0.2694	0.9535	0.1108	-0.115
Mof_H 	H 	0.2	0.9799	0.1106	0.091
Mof_C 	C 	0.3078	0.0278	0.0492	0.286
Mof_C 	C 	0.3025	0.3537	0.1512	0.113
Mof_C 	C 	0.4062	0.3878	0.1532	-0.129
Mof_H 	H 	0.4317	0.4144	0.1764	0.068
Mof_C 	C 	0.4711	0.3818	0.1207	0.016
Mof_H 	H 	0.5412	0.4069	0.1212	0.033
Mof_C 	C 	0.4366	0.3401	0.087	-0.058
Mof_H 	H 	0.4833	0.3352	0.0652	0.073
Mof_C 	C 	0.3324	0.3056	0.0859	-0.035
Mof_C 	C 	0.2651	0.3123	0.1184	-0.098
Mof_H 	H 	0.1942	0.2886	0.118	0.076
Mof_C 	C 	0.298	0.2536	0.0517	0.326
Mof_N 	N 	0.2204	0.8912	0.173	-0.186
Mof_N 	N 	0.0866	0.8382	0.2077	-0.251
Mof_N 	N 	0.0919	0.9272	0.2141	-0.216
Mof_N 	N 	0.2316	0.3616	0.18444	-0.183
Mof_N 	N 	0.1101	0.323	0.2282	-0.213
Mof_N 	N 	0.1087	0.4128	0.2244	-0.246
Mof_O 	O 	0.3812	0.0554	0.02587	-0.395
Mof_O 	O 	0.2097	0.053	0.0479	-0.402
Mof_O 	O 	0.3667	0.2328	0.02636	-0.404
Mof_O 	O 	0.1988	0.2302	0.051	-0.401
Mof_Cu	Cu	0.84991	0.64229	0.4863	0.904
Mof_S 	S 	0.61951	0.62863	0.69067	-0.084
Mof_C 	C 	0.6846	0.2317	0.6667	-0.607
Mof_H 	H 	0.6229	0.1938	0.6719	0.16
Mof_H 	H 	0.7497	0.2079	0.6789	0.186
Mof_H 	H 	0.6959	0.236	0.6384	0.194
Mof_C 	C 	0.6626	0.3184	0.6828	0.243
Mof_C 	C 	0.6744	0.4572	0.6934	0.101
Mof_C 	C 	0.7107	0.5464	0.6939	-0.037
Mof_C 	C 	0.8119	0.5752	0.7012	-0.035
Mof_H 	H 	0.8731	0.5387	0.7042	0.042
Mof_C 	C 	0.8157	0.6666	0.704	-0.041
Mof_H 	H 	0.8804	0.6982	0.7084	0.046
Mof_C 	C 	0.7173	0.7038	0.6996	-0.033
Mof_C 	C 	0.686	0.7943	0.7044	0.102
Mof_C 	C 	0.6825	0.9339	0.6977	0.282
Mof_C 	C 	0.7045	0.0219	0.6836	-0.663
Mof_H 	H 	0.6604	0.0631	0.6983	0.168
Mof_H 	H 	0.6864	0.0257	0.6558	0.2
Mof_H 	H 	0.7813	0.0353	0.6873	0.201
Mof_C 	C 	0.7977	0.4019	0.6417	0.127
Mof_C 	C 	0.8993	0.3628	0.6437	-0.162
Mof_H 	H 	0.9194	0.329	0.6656	0.08
Mof_C 	C 	0.9704	0.3748	0.6125	0.071
Mof_H 	H 	0.0383	0.3461	0.6124	-0.018
Mof_C 	C 	0.9421	0.429	0.5815	-0.088
Mof_H 	H 	0.9927	0.4397	0.5613	0.077
Mof_C 	C 	0.8388	0.468	0.5802	-0.019
Mof_C 	C 	0.7694	0.4535	0.6108	-0.113
Mof_H 	H 	0.7	0.4799	0.6106	0.084
Mof_C 	C 	0.8078	0.5278	0.5492	0.312
Mof_C 	C 	0.8025	0.8537	0.6512	0.146
Mof_C 	C 	0.9062	0.8878	0.6532	-0.173
Mof_H 	H 	0.9317	0.9144	0.6764	0.095
Mof_C 	C 	0.9711	0.8818	0.6207	0.101
Mof_H 	H 	0.0412	0.9069	0.6212	-0.003
Mof_C 	C 	0.9366	0.8401	0.587	-0.1
Mof_H 	H 	0.9833	0.8352	0.5652	0.1
Mof_C 	C 	0.8324	0.8056	0.5859	-0.002
Mof_C 	C 	0.7651	0.8123	0.6184	-0.123
Mof_H 	H 	0.6942	0.7886	0.618	0.09
Mof_C 	C 	0.798	0.7536	0.5517	0.316
Mof_N 	N 	0.7204	0.3912	0.673	-0.183
Mof_N 	N 	0.5866	0.3382	0.7077	-0.248
Mof_N 	N 	0.5919	0.4272	0.7141	-0.212
Mof_N 	N 	0.7316	0.8616	0.68444	-0.193
Mof_N 	N 	0.6101	0.823	0.7282	-0.21
Mof_N 	N 	0.6087	0.9128	0.7244	-0.242
Mof_O 	O 	0.8812	0.5554	0.52587	-0.388
Mof_O 	O 	0.7097	0.553	0.5479	-0.397
Mof_O 	O 	0.8667	0.7328	0.52636	-0.392
Mof_O 	O 	0.6988	0.7302	0.551	-0.392
Mof_Cu	Cu	0.15009	0.85771	0.4863	0.9
Mof_S 	S 	0.38049	0.87137	0.69067	-0.08
Mof_C 	C 	0.3154	0.2683	0.6667	-0.602
Mof_H 	H 	0.3771	0.3062	0.6719	0.16
Mof_H 	H 	0.2503	0.2921	0.6789	0.183
Mof_H 	H 	0.3041	0.264	0.6384	0.193
Mof_C 	C 	0.3374	0.1816	0.6828	0.239
Mof_C 	C 	0.3256	0.0428	0.6934	0.068
Mof_C 	C 	0.2893	0.9536	0.6939	-0.002
Mof_C 	C 	0.1881	0.9248	0.7012	-0.053
Mof_H 	H 	0.1269	0.9613	0.7042	0.048
Mof_C 	C 	0.1843	0.8334	0.704	-0.032
Mof_H 	H 	0.1196	0.8018	0.7084	0.033
Mof_C 	C 	0.2827	0.7962	0.6996	-0.037
Mof_C 	C 	0.314	0.7057	0.7044	0.1
Mof_C 	C 	0.3175	0.5661	0.6977	0.239
Mof_C 	C 	0.2955	0.4781	0.6836	-0.593
Mof_H 	H 	0.3396	0.4369	0.6983	0.152
Mof_H 	H 	0.3136	0.4743	0.6558	0.187
Mof_H 	H 	0.2187	0.4647	0.6873	0.185
Mof_C 	C 	0.2023	0.0981	0.6417	0.07
Mof_C 	C 	0.1007	0.1372	0.6437	-0.076
Mof_H 	H 	0.0806	0.171	0.6656	0.039
Mof_C 	C 	0.0296	0.1252	0.6125	-0.087
Mof_H 	H 	0.9617	0.1539	0.6124	0.062
Mof_C 	C 	0.0579	0.071	0.5815	0.006
Mof_H 	H 	0.0073	0.0603	0.5613	0.023
Mof_C 	C 	0.1612	0.032	0.5802	-0.107
Mof_C 	C 	0.2306	0.0465	0.6108	-0.053
Mof_H 	H 	0.3	0.0201	0.6106	0.055
Mof_C 	C 	0.1922	0.9722	0.5492	0.362
Mof_C 	C 	0.1975	0.6463	0.6512	0.094
Mof_C 	C 	0.0938	0.6122	0.6532	-0.089
Mof_H 	H 	0.0683	0.5856	0.6764	0.048
Mof_C 	C 	0.0289	0.6182	0.6207	-0.06
Mof_H 	H 	0.9588	0.5931	0.6212	0.072
Mof_C 	C 	0.0634	0.6599	0.587	-0.019
Mof_H 	H 	0.0167	0.6648	0.5652	0.049
Mof_C 	C 	0.1676	0.6944	0.5859	-0.057
Mof_C 	C 	0.2349	0.6877	0.6184	-0.079
Mof_H 	H 	0.3058	0.7114	0.618	0.075
Mof_C 	C 	0.202	0.7464	0.5517	0.333
Mof_N 	N 	0.2796	0.1088	0.673	-0.172
Mof_N 	N 	0.4134	0.1618	0.7077	-0.248
Mof_N 	N 	0.4081	0.0728	0.7141	-0.211
Mof_N 	N 	0.2684	0.6384	0.68444	-0.181
Mof_N 	N 	0.3899	0.677	0.7282	-0.211
Mof_N 	N 	0.3913	0.5872	0.7244	-0.243
Mof_O 	O 	0.1188	0.9446	0.52587	-0.404
Mof_O 	O 	0.2903	0.947	0.5479	-0.401
Mof_O 	O 	0.1333	0.7672	0.52636	-0.411
Mof_O 	O 	0.3012	0.7698	0.551	-0.397
Mof_Cu	Cu	0.65009	0.35771	0.9863	0.901
Mof_S 	S 	0.88049	0.37137	0.19067	-0.068
Mof_C 	C 	0.8154	0.7683	0.1667	-0.622
Mof_H 	H 	0.8771	0.8062	0.1719	0.174
Mof_H 	H 	0.7503	0.7921	0.1789	0.192
Mof_H 	H 	0.8041	0.764	0.1384	0.205
Mof_C 	C 	0.8374	0.6816	0.1828	0.25
Mof_C 	C 	0.8256	0.5428	0.1934	0.103
Mof_C 	C 	0.7893	0.4536	0.1939	-0.039
Mof_C 	C 	0.6881	0.4248	0.2012	-0.035
Mof_H 	H 	0.6269	0.4613	0.2042	0.038
Mof_C 	C 	0.6843	0.3334	0.204	-0.041
Mof_H 	H 	0.6196	0.3018	0.2084	0.04
Mof_C 	C 	0.7827	0.2962	0.1996	-0.035
Mof_C 	C 	0.814	0.2057	0.2044	0.102
Mof_C 	C 	0.8175	0.0661	0.1977	0.21
Mof_C 	C 	0.7955	0.9781	0.1836	-0.548
Mof_H 	H 	0.8396	0.9369	0.1983	0.147
Mof_H 	H 	0.8136	0.9743	0.1558	0.187
Mof_H 	H 	0.7187	0.9647	0.1873	0.182
Mof_C 	C 	0.7023	0.5981	0.1417	0.11
Mof_C 	C 	0.6007	0.6372	0.1437	-0.127
Mof_H 	H 	0.5806	0.671	0.1656	0.064
Mof_C 	C 	0.5296	0.6252	0.1125	0.003
Mof_H 	H 	0.4617	0.6539	0.1124	0.02
Mof_C 	C 	0.5579	0.571	0.0815	-0.052
Mof_H 	H 	0.5073	0.5603	0.0613	0.057
Mof_C 	C 	0.6612	0.532	0.0802	-0.038
Mof_C 	C 	0.7306	0.5465	0.1108	-0.095
Mof_H 	H 	0.8	0.5201	0.1106	0.081
Mof_C 	C 	0.6922	0.4722	0.0492	0.319
Mof_C 	C 	0.6975	0.1463	0.1512	0.113
Mof_C 	C 	0.5938	0.1122	0.1532	-0.133
Mof_H 	H 	0.5683	0.0856	0.1764	0.064
Mof_C 	C 	0.5289	0.1182	0.1207	0.016
Mof_H 	H 	0.4588	0.0931	0.1212	0.027
Mof_C 	C 	0.5634	0.1599	0.087	-0.062
Mof_H 	H 	0.5167	0.1648	0.0652	0.073
Mof_C 	C 	0.6676	0.1944	0.0859	-0.031
Mof_C 	C 	0.7349	0.1877	0.1184	-0.1
Mof_H 	H 	0.8058	0.2114	0.118	0.083
Mof_C 	C 	0.702	0.2464	0.0517	0.323
Mof_N 	N 	0.7796	0.6088	0.173	-0.182
Mof_N 	N 	0.9134	0.6618	0.2077	-0.242
Mof_N 	N 	0.9081	0.5728	0.2141	-0.205
Mof_N 	N 	0.7684	0.1384	0.18444	-0.18
Mof_N 	N 	0.8899	0.177	0.2282	-0.205
Mof_N 	N 	0.8913	0.0872	0.2244	-0.238
Mof_O 	O 	0.6188	0.4446	0.02587	-0.395
Mof_O 	O 	0.7903	0.447	0.0479	-0.396
Mof_O 	O 	0.6333	0.2672	0.02636	-0.403
Mof_O 	O 	0.8012	0.2698	0.051	-0.393
Mof_Cu	Cu	1.03882e-32	0.25	0.26001	0.826
Mof_Cu	Cu	0.5	0.75	0.76001	0.838
Mof_Cu	Cu	1.01798e-32	0.75	0.23999	0.827
Mof_Cu	Cu	0.5	0.25	0.73999	0.837
Mof_Cu	Cu	0.00537	0.5	0.25	0.829
Mof_Cu	Cu	0.49463	0.5	0.75	0.84
Mof_Cu	Cu	0.99463	0	0.25	0.839
Mof_Cu	Cu	0.50537	1.53643e-32	0.75	0.828
_end
