data_functionalizedCrystal
_audit_creation_method	'EQeq! by Chris Wilmer'
_symmetry_space_group_name_H-M	'P1'
_symmetry_Int_Tables_number	1
_symmetry_cell_setting	triclinic
loop_
_symmetry_equiv_pos_as_xyz
  x,y,z
_cell_length_a	8.7796
_cell_length_b	10.0297
_cell_length_c	10.1561
_cell_angle_alpha	119.587
_cell_angle_beta	115.607
_cell_angle_gamma	90.0045
loop_
_atom_site_label
_atom_site_type_symbol
_atom_site_fract_x
_atom_site_fract_y
_atom_site_fract_z
_atom_site_charge
Mof_Zn	Zn	0.70419	0.88772	0.72458	1.173
Mof_Zn	Zn	0.47961	0.16314	0.27542	1.18
Mof_H 	H 	0.603	0.6066	0.754	0.189
Mof_H 	H 	0.5345	0.4279	0.6592	0.13
Mof_H 	H 	0.1246	0.3059	0.122	0.125
Mof_H 	H 	0.9875	0.2194	0.9438	0.137
Mof_H 	H 	0.349	0.8526	0.246	0.183
Mof_H 	H 	0.3753	0.7687	0.3408	0.124
Mof_H 	H 	0.5026	0.1839	0.878	0.127
Mof_H 	H 	0.5437	0.2756	0.0562	0.132
Mof_C 	C 	0.5736	0.5249	0.544	0.204
Mof_C 	C 	0.0922	0.0755	0.9962	0.241
Mof_C 	C 	0.5296	0.9809	0.456	0.158
Mof_C 	C 	0.596	0.0793	0.0038	0.208
Mof_N 	N 	0.6112	0.657	0.5472	-0.284
Mof_N 	N 	0.5907	0.6044	0.3872	-0.083
Mof_N 	N 	0.5701	0.5221	0.6726	-0.38
Mof_N 	N 	0.5325	0.3969	0.3894	-0.282
Mof_N 	N 	0.5438	0.4534	0.2944	-0.089
Mof_N 	N 	0.0292	0.8244	0.8936	-0.068
Mof_N 	N 	0.1828	0.888	0.0256	-0.097
Mof_N 	N 	0.9642	0.9401	0.8688	-0.301
Mof_N 	N 	0.2284	0.0478	0.095	-0.273
Mof_N 	N 	0.0804	0.2176	0.0178	-0.339
Mof_N 	N 	0.564	0.1098	0.4528	-0.263
Mof_N 	N 	0.7035	0.2172	0.6128	-0.08
Mof_N 	N 	0.3975	0.8495	0.3274	-0.369
Mof_N 	N 	0.6431	0.0075	0.6106	-0.257
Mof_N 	N 	0.7494	0.159	0.7056	-0.086
Mof_N 	N 	0.6356	0.9308	0.1064	-0.095
Mof_N 	N 	0.6572	0.8624	0.9744	-0.085
Mof_N 	N 	0.5954	0.0713	0.1312	-0.261
Mof_N 	N 	0.6334	0.9528	0.905	-0.29
Mof_N 	N 	0.5626	0.1998	0.9822	-0.329
_end
