data_functionalizedCrystal
_audit_creation_method	'EQeq! by Chris Wilmer'
_symmetry_space_group_name_H-M	'P1'
_symmetry_Int_Tables_number	1
_symmetry_cell_setting	triclinic
loop_
_symmetry_equiv_pos_as_xyz
  x,y,z
_cell_length_a	6.6921
_cell_length_b	13.2239
_cell_length_c	13.7023
_cell_angle_alpha	90
_cell_angle_beta	90
_cell_angle_gamma	90
loop_
_atom_site_label
_atom_site_type_symbol
_atom_site_fract_x
_atom_site_fract_y
_atom_site_fract_z
_atom_site_charge
Mof_Ca	Ca	2.6842e-32	0.75	0.78471	1.134
Mof_Ca	Ca	0.5	0.25	0.71529	1.281
Mof_Ca	Ca	6.85724e-33	0.25	0.21529	0.987
Mof_Ca	Ca	0.5	0.75	0.28471	1.299
Mof_Cu	Cu	0.5	5.20445e-33	0.5	0.888
Mof_Cu	Cu	-0	0.5	-0	0.821
Mof_Cu	Cu	0.5	0.5	0.5	0.934
Mof_Cu	Cu	-0	0	-0	0.771
Mof_H 	H 	0.3726	0.8993	0.7799	0.202
Mof_H 	H 	0.5777	0.8868	0.727	0.222
Mof_H 	H 	0.1274	0.3993	0.7201	0.25
Mof_H 	H 	0.9223	0.3868	0.773	0.379
Mof_H 	H 	0.6274	0.6007	0.7799	0.25
Mof_H 	H 	0.4223	0.6132	0.727	0.239
Mof_H 	H 	0.8726	0.1007	0.7201	0.176
Mof_H 	H 	0.0777	0.1132	0.773	0.09
Mof_H 	H 	0.6274	0.1007	0.2201	0.255
Mof_H 	H 	0.4223	0.1132	0.273	0.258
Mof_H 	H 	0.8726	0.6007	0.2799	0.165
Mof_H 	H 	0.0777	0.6132	0.227	0.073
Mof_H 	H 	0.3726	0.3993	0.2201	0.208
Mof_H 	H 	0.5777	0.3868	0.273	0.243
Mof_H 	H 	0.1274	0.8993	0.2799	0.225
Mof_H 	H 	0.9223	0.8868	0.227	0.343
Mof_C 	C 	0.3415	0.8527	0.6387	0.511
Mof_C 	C 	0.4431	0.9129	0.7194	-0.564
Mof_C 	C 	0.4571	0.0256	0.7075	0.389
Mof_C 	C 	0.1585	0.3527	0.8613	0.58
Mof_C 	C 	0.0569	0.4129	0.7806	-0.907
Mof_C 	C 	0.0429	0.5256	0.7925	0.416
Mof_C 	C 	0.6585	0.6473	0.6387	0.56
Mof_C 	C 	0.5569	0.5871	0.7194	-0.717
Mof_C 	C 	0.5429	0.4744	0.7075	0.537
Mof_C 	C 	0.8415	0.1473	0.8613	0.515
Mof_C 	C 	0.9431	0.0871	0.7806	-0.558
Mof_C 	C 	0.9571	0.9744	0.7925	0.694
Mof_C 	C 	0.6585	0.1473	0.3613	0.588
Mof_C 	C 	0.5569	0.0871	0.2806	-0.863
Mof_C 	C 	0.5429	0.9744	0.2925	0.667
Mof_C 	C 	0.8415	0.6473	0.1387	0.512
Mof_C 	C 	0.9431	0.5871	0.2194	-0.469
Mof_C 	C 	0.9571	0.4744	0.2075	0.613
Mof_C 	C 	0.3415	0.3527	0.3613	0.543
Mof_C 	C 	0.4431	0.4129	0.2806	-0.717
Mof_C 	C 	0.4571	0.5256	0.2925	0.52
Mof_C 	C 	0.1585	0.8527	0.1387	0.556
Mof_C 	C 	0.0569	0.9129	0.2194	-0.753
Mof_C 	C 	0.0429	0.0256	0.2075	0.276
Mof_O 	O 	0.3672	0.8791	0.551	-0.431
Mof_O 	O 	0.2448	0.7765	0.6632	-0.458
Mof_O 	O 	0.5018	0.0662	0.6264	-0.531
Mof_O 	O 	0.4335	0.0807	0.7798	-0.435
Mof_O 	O 	0.1328	0.3791	0.949	-0.428
Mof_O 	O 	0.2552	0.2765	0.8368	-0.477
Mof_O 	O 	0.9982	0.5662	0.8736	-0.321
Mof_O 	O 	0.0665	0.5807	0.7202	-0.458
Mof_O 	O 	0.6328	0.6209	0.551	-0.448
Mof_O 	O 	0.7552	0.7235	0.6632	-0.397
Mof_O 	O 	0.4982	0.4338	0.6264	-0.541
Mof_O 	O 	0.5665	0.4193	0.7798	-0.43
Mof_O 	O 	0.8672	0.1209	0.949	-0.344
Mof_O 	O 	0.7448	0.2235	0.8368	-0.414
Mof_O 	O 	0.0018	0.9338	0.8736	-0.563
Mof_O 	O 	0.9335	0.9193	0.7202	-0.386
Mof_O 	O 	0.6328	0.1209	0.449	-0.478
Mof_O 	O 	0.7552	0.2235	0.3368	-0.403
Mof_O 	O 	0.4982	0.9338	0.3736	-0.529
Mof_O 	O 	0.5665	0.9193	0.2202	-0.457
Mof_O 	O 	0.8672	0.6209	0.051	-0.434
Mof_O 	O 	0.7448	0.7235	0.1632	-0.435
Mof_O 	O 	0.0018	0.4338	0.1264	-0.669
Mof_O 	O 	0.9335	0.4193	0.2798	-0.386
Mof_O 	O 	0.3672	0.3791	0.449	-0.481
Mof_O 	O 	0.2448	0.2765	0.3368	-0.47
Mof_O 	O 	0.5018	0.5662	0.3736	-0.539
Mof_O 	O 	0.4335	0.5807	0.2202	-0.467
Mof_O 	O 	0.1328	0.8791	0.051	-0.494
Mof_O 	O 	0.2552	0.7765	0.1632	-0.493
Mof_O 	O 	0.9982	0.0662	0.1264	-0.377
Mof_O 	O 	0.0665	0.0807	0.2798	-0.448
_end
