data_functionalizedCrystal
_audit_creation_method	'EQeq! by Chris Wilmer'
_symmetry_space_group_name_H-M	'P1'
_symmetry_Int_Tables_number	1
_symmetry_cell_setting	triclinic
loop_
_symmetry_equiv_pos_as_xyz
  x,y,z
_cell_length_a	21.872
_cell_length_b	21.872
_cell_length_c	21.872
_cell_angle_alpha	90
_cell_angle_beta	90
_cell_angle_gamma	90
loop_
_atom_site_label
_atom_site_type_symbol
_atom_site_fract_x
_atom_site_fract_y
_atom_site_fract_z
_atom_site_charge
Mof_Fe	Fe	0.26092	0.67949	0.80347	0.988
Mof_O 	O 	0.3498	0.6654	0.7956	-0.389
Mof_O 	O 	0.3927	0.7499	0.7547	-0.39
Mof_O 	O 	0.6262	0.7634	0.7741	-0.385
Mof_O 	O 	0.6712	0.6809	0.8143	-0.402
Mof_C 	C 	0.3956	0.6968	0.7762	0.385
Mof_C 	C 	0.4574	0.6692	0.7848	-0.084
Mof_C 	C 	0.4612	0.6065	0.7944	-0.053
Mof_H 	H 	0.4252	0.583	0.795	0.079
Mof_C 	C 	0.5146	0.5794	0.8027	0.08
Mof_C 	C 	0.5717	0.6128	0.8028	-0.037
Mof_H 	H 	0.6094	0.593	0.8087	0.07
Mof_C 	C 	0.5104	0.7025	0.7831	0.036
Mof_H 	H 	0.5086	0.7446	0.7746	0.045
Mof_C 	C 	0.568	0.6748	0.7938	-0.099
Mof_C 	C 	0.6258	0.7076	0.7939	0.399
Mof_N 	N 	0.5241	0.5126	0.8049	-0.08
Mof_Fe	Fe	0.73908	0.32051	0.80347	0.988
Mof_O 	O 	0.6502	0.3346	0.7956	-0.389
Mof_O 	O 	0.6073	0.2501	0.7547	-0.39
Mof_O 	O 	0.3738	0.2366	0.7741	-0.385
Mof_O 	O 	0.3288	0.3191	0.8143	-0.402
Mof_C 	C 	0.6044	0.3032	0.7762	0.385
Mof_C 	C 	0.5426	0.3308	0.7848	-0.084
Mof_C 	C 	0.5388	0.3935	0.7944	-0.053
Mof_H 	H 	0.5748	0.417	0.795	0.079
Mof_C 	C 	0.4854	0.4206	0.8027	0.08
Mof_C 	C 	0.4283	0.3872	0.8028	-0.037
Mof_H 	H 	0.3906	0.407	0.8087	0.07
Mof_C 	C 	0.4896	0.2975	0.7831	0.036
Mof_H 	H 	0.4914	0.2554	0.7746	0.045
Mof_C 	C 	0.432	0.3252	0.7938	-0.099
Mof_C 	C 	0.3742	0.2924	0.7939	0.399
Mof_N 	N 	0.4759	0.4874	0.8049	-0.08
Mof_Fe	Fe	0.73908	0.67949	0.19653	0.988
Mof_O 	O 	0.6502	0.6654	0.2044	-0.389
Mof_O 	O 	0.6073	0.7499	0.2453	-0.39
Mof_O 	O 	0.3738	0.7634	0.2259	-0.385
Mof_O 	O 	0.3288	0.6809	0.1857	-0.402
Mof_C 	C 	0.6044	0.6968	0.2238	0.385
Mof_C 	C 	0.5426	0.6692	0.2152	-0.083
Mof_C 	C 	0.5388	0.6065	0.2056	-0.052
Mof_H 	H 	0.5748	0.583	0.205	0.08
Mof_C 	C 	0.4854	0.5794	0.1973	0.081
Mof_C 	C 	0.4283	0.6128	0.1972	-0.036
Mof_H 	H 	0.3906	0.593	0.1913	0.071
Mof_C 	C 	0.4896	0.7025	0.2169	0.037
Mof_H 	H 	0.4914	0.7446	0.2254	0.046
Mof_C 	C 	0.432	0.6748	0.2062	-0.098
Mof_C 	C 	0.3742	0.7076	0.2061	0.4
Mof_N 	N 	0.4759	0.5126	0.1951	-0.079
Mof_Fe	Fe	0.26092	0.32051	0.19653	0.989
Mof_O 	O 	0.3498	0.3346	0.2044	-0.388
Mof_O 	O 	0.3927	0.2501	0.2453	-0.389
Mof_O 	O 	0.6262	0.2366	0.2259	-0.384
Mof_O 	O 	0.6712	0.3191	0.1857	-0.401
Mof_C 	C 	0.3956	0.3032	0.2238	0.386
Mof_C 	C 	0.4574	0.3308	0.2152	-0.083
Mof_C 	C 	0.4612	0.3935	0.2056	-0.052
Mof_H 	H 	0.4252	0.417	0.205	0.08
Mof_C 	C 	0.5146	0.4206	0.1973	0.081
Mof_C 	C 	0.5717	0.3872	0.1972	-0.036
Mof_H 	H 	0.6094	0.407	0.1913	0.071
Mof_C 	C 	0.5104	0.2975	0.2169	0.037
Mof_H 	H 	0.5086	0.2554	0.2254	0.046
Mof_C 	C 	0.568	0.3252	0.2062	-0.098
Mof_C 	C 	0.6258	0.2924	0.2061	0.4
Mof_N 	N 	0.5241	0.4874	0.1951	-0.079
Mof_Fe	Fe	0.80347	0.26092	0.67949	0.989
Mof_O 	O 	0.7956	0.3498	0.6654	-0.388
Mof_O 	O 	0.7547	0.3927	0.7499	-0.389
Mof_O 	O 	0.7741	0.6262	0.7634	-0.384
Mof_O 	O 	0.8143	0.6712	0.6809	-0.401
Mof_C 	C 	0.7762	0.3956	0.6968	0.386
Mof_C 	C 	0.7848	0.4574	0.6692	-0.083
Mof_C 	C 	0.7944	0.4612	0.6065	-0.052
Mof_H 	H 	0.795	0.4252	0.583	0.08
Mof_C 	C 	0.8027	0.5146	0.5794	0.081
Mof_C 	C 	0.8028	0.5717	0.6128	-0.036
Mof_H 	H 	0.8087	0.6094	0.593	0.071
Mof_C 	C 	0.7831	0.5104	0.7025	0.037
Mof_H 	H 	0.7746	0.5086	0.7446	0.046
Mof_C 	C 	0.7938	0.568	0.6748	-0.098
Mof_C 	C 	0.7939	0.6258	0.7076	0.4
Mof_N 	N 	0.8049	0.5241	0.5126	-0.079
Mof_Fe	Fe	0.80347	0.73908	0.32051	0.989
Mof_O 	O 	0.7956	0.6502	0.3346	-0.388
Mof_O 	O 	0.7547	0.6073	0.2501	-0.389
Mof_O 	O 	0.7741	0.3738	0.2366	-0.384
Mof_O 	O 	0.8143	0.3288	0.3191	-0.401
Mof_C 	C 	0.7762	0.6044	0.3032	0.386
Mof_C 	C 	0.7848	0.5426	0.3308	-0.083
Mof_C 	C 	0.7944	0.5388	0.3935	-0.052
Mof_H 	H 	0.795	0.5748	0.417	0.08
Mof_C 	C 	0.8027	0.4854	0.4206	0.081
Mof_C 	C 	0.8028	0.4283	0.3872	-0.036
Mof_H 	H 	0.8087	0.3906	0.407	0.071
Mof_C 	C 	0.7831	0.4896	0.2975	0.037
Mof_H 	H 	0.7746	0.4914	0.2554	0.046
Mof_C 	C 	0.7938	0.432	0.3252	-0.098
Mof_C 	C 	0.7939	0.3742	0.2924	0.4
Mof_N 	N 	0.8049	0.4759	0.4874	-0.079
Mof_Fe	Fe	0.19653	0.73908	0.67949	0.989
Mof_O 	O 	0.2044	0.6502	0.6654	-0.388
Mof_O 	O 	0.2453	0.6073	0.7499	-0.389
Mof_O 	O 	0.2259	0.3738	0.7634	-0.384
Mof_O 	O 	0.1857	0.3288	0.6809	-0.401
Mof_C 	C 	0.2238	0.6044	0.6968	0.386
Mof_C 	C 	0.2152	0.5426	0.6692	-0.083
Mof_C 	C 	0.2056	0.5388	0.6065	-0.052
Mof_H 	H 	0.205	0.5748	0.583	0.08
Mof_C 	C 	0.1973	0.4854	0.5794	0.081
Mof_C 	C 	0.1972	0.4283	0.6128	-0.036
Mof_H 	H 	0.1913	0.3906	0.593	0.071
Mof_C 	C 	0.2169	0.4896	0.7025	0.037
Mof_H 	H 	0.2254	0.4914	0.7446	0.046
Mof_C 	C 	0.2062	0.432	0.6748	-0.098
Mof_C 	C 	0.2061	0.3742	0.7076	0.4
Mof_N 	N 	0.1951	0.4759	0.5126	-0.079
Mof_Fe	Fe	0.19653	0.26092	0.32051	0.989
Mof_O 	O 	0.2044	0.3498	0.3346	-0.388
Mof_O 	O 	0.2453	0.3927	0.2501	-0.389
Mof_O 	O 	0.2259	0.6262	0.2366	-0.384
Mof_O 	O 	0.1857	0.6712	0.3191	-0.401
Mof_C 	C 	0.2238	0.3956	0.3032	0.386
Mof_C 	C 	0.2152	0.4574	0.3308	-0.083
Mof_C 	C 	0.2056	0.4612	0.3935	-0.052
Mof_H 	H 	0.205	0.4252	0.417	0.08
Mof_C 	C 	0.1973	0.5146	0.4206	0.081
Mof_C 	C 	0.1972	0.5717	0.3872	-0.036
Mof_H 	H 	0.1913	0.6094	0.407	0.071
Mof_C 	C 	0.2169	0.5104	0.2975	0.037
Mof_H 	H 	0.2254	0.5086	0.2554	0.046
Mof_C 	C 	0.2062	0.568	0.3252	-0.098
Mof_C 	C 	0.2061	0.6258	0.2924	0.4
Mof_N 	N 	0.1951	0.5241	0.4874	-0.079
Mof_Fe	Fe	0.67949	0.80347	0.26092	0.989
Mof_O 	O 	0.6654	0.7956	0.3498	-0.388
Mof_O 	O 	0.7499	0.7547	0.3927	-0.389
Mof_O 	O 	0.7634	0.7741	0.6262	-0.384
Mof_O 	O 	0.6809	0.8143	0.6712	-0.401
Mof_C 	C 	0.6968	0.7762	0.3956	0.386
Mof_C 	C 	0.6692	0.7848	0.4574	-0.083
Mof_C 	C 	0.6065	0.7944	0.4612	-0.052
Mof_H 	H 	0.583	0.795	0.4252	0.08
Mof_C 	C 	0.5794	0.8027	0.5146	0.081
Mof_C 	C 	0.6128	0.8028	0.5717	-0.036
Mof_H 	H 	0.593	0.8087	0.6094	0.071
Mof_C 	C 	0.7025	0.7831	0.5104	0.037
Mof_H 	H 	0.7446	0.7746	0.5086	0.046
Mof_C 	C 	0.6748	0.7938	0.568	-0.098
Mof_C 	C 	0.7076	0.7939	0.6258	0.4
Mof_N 	N 	0.5126	0.8049	0.5241	-0.079
Mof_Fe	Fe	0.32051	0.80347	0.73908	0.989
Mof_O 	O 	0.3346	0.7956	0.6502	-0.388
Mof_O 	O 	0.2501	0.7547	0.6073	-0.389
Mof_O 	O 	0.2366	0.7741	0.3738	-0.384
Mof_O 	O 	0.3191	0.8143	0.3288	-0.401
Mof_C 	C 	0.3032	0.7762	0.6044	0.386
Mof_C 	C 	0.3308	0.7848	0.5426	-0.083
Mof_C 	C 	0.3935	0.7944	0.5388	-0.052
Mof_H 	H 	0.417	0.795	0.5748	0.08
Mof_C 	C 	0.4206	0.8027	0.4854	0.081
Mof_C 	C 	0.3872	0.8028	0.4283	-0.036
Mof_H 	H 	0.407	0.8087	0.3906	0.071
Mof_C 	C 	0.2975	0.7831	0.4896	0.037
Mof_H 	H 	0.2554	0.7746	0.4914	0.046
Mof_C 	C 	0.3252	0.7938	0.432	-0.098
Mof_C 	C 	0.2924	0.7939	0.3742	0.4
Mof_N 	N 	0.4874	0.8049	0.4759	-0.079
Mof_Fe	Fe	0.67949	0.19653	0.73908	0.989
Mof_O 	O 	0.6654	0.2044	0.6502	-0.388
Mof_O 	O 	0.7499	0.2453	0.6073	-0.389
Mof_O 	O 	0.7634	0.2259	0.3738	-0.384
Mof_O 	O 	0.6809	0.1857	0.3288	-0.401
Mof_C 	C 	0.6968	0.2238	0.6044	0.386
Mof_C 	C 	0.6692	0.2152	0.5426	-0.083
Mof_C 	C 	0.6065	0.2056	0.5388	-0.052
Mof_H 	H 	0.583	0.205	0.5748	0.08
Mof_C 	C 	0.5794	0.1973	0.4854	0.081
Mof_C 	C 	0.6128	0.1972	0.4283	-0.036
Mof_H 	H 	0.593	0.1913	0.3906	0.071
Mof_C 	C 	0.7025	0.2169	0.4896	0.037
Mof_H 	H 	0.7446	0.2254	0.4914	0.046
Mof_C 	C 	0.6748	0.2062	0.432	-0.098
Mof_C 	C 	0.7076	0.2061	0.3742	0.4
Mof_N 	N 	0.5126	0.1951	0.4759	-0.079
Mof_Fe	Fe	0.32051	0.19653	0.26092	0.989
Mof_O 	O 	0.3346	0.2044	0.3498	-0.388
Mof_O 	O 	0.2501	0.2453	0.3927	-0.389
Mof_O 	O 	0.2366	0.2259	0.6262	-0.384
Mof_O 	O 	0.3191	0.1857	0.6712	-0.401
Mof_C 	C 	0.3032	0.2238	0.3956	0.386
Mof_C 	C 	0.3308	0.2152	0.4574	-0.083
Mof_C 	C 	0.3935	0.2056	0.4612	-0.052
Mof_H 	H 	0.417	0.205	0.4252	0.08
Mof_C 	C 	0.4206	0.1973	0.5146	0.081
Mof_C 	C 	0.3872	0.1972	0.5717	-0.036
Mof_H 	H 	0.407	0.1913	0.6094	0.071
Mof_C 	C 	0.2975	0.2169	0.5104	0.037
Mof_H 	H 	0.2554	0.2254	0.5086	0.046
Mof_C 	C 	0.3252	0.2062	0.568	-0.098
Mof_C 	C 	0.2924	0.2061	0.6258	0.4
Mof_N 	N 	0.4874	0.1951	0.5241	-0.079
Mof_Fe	Fe	0.17949	0.76092	0.30347	0.989
Mof_O 	O 	0.1654	0.8498	0.2956	-0.388
Mof_O 	O 	0.2499	0.8927	0.2547	-0.389
Mof_O 	O 	0.2634	0.1262	0.2741	-0.384
Mof_O 	O 	0.1809	0.1712	0.3143	-0.401
Mof_C 	C 	0.1968	0.8956	0.2762	0.386
Mof_C 	C 	0.1692	0.9574	0.2848	-0.083
Mof_C 	C 	0.1065	0.9612	0.2944	-0.052
Mof_H 	H 	0.083	0.9252	0.295	0.08
Mof_C 	C 	0.0794	0.0146	0.3027	0.081
Mof_C 	C 	0.1128	0.0717	0.3028	-0.036
Mof_H 	H 	0.093	0.1094	0.3087	0.071
Mof_C 	C 	0.2025	0.0104	0.2831	0.037
Mof_H 	H 	0.2446	0.0086	0.2746	0.046
Mof_C 	C 	0.1748	0.068	0.2938	-0.098
Mof_C 	C 	0.2076	0.1258	0.2939	0.4
Mof_N 	N 	0.0126	0.0241	0.3049	-0.079
Mof_Fe	Fe	0.82051	0.23908	0.30347	0.989
Mof_O 	O 	0.8346	0.1502	0.2956	-0.388
Mof_O 	O 	0.7501	0.1073	0.2547	-0.389
Mof_O 	O 	0.7366	0.8738	0.2741	-0.384
Mof_O 	O 	0.8191	0.8288	0.3143	-0.401
Mof_C 	C 	0.8032	0.1044	0.2762	0.386
Mof_C 	C 	0.8308	0.0426	0.2848	-0.083
Mof_C 	C 	0.8935	0.0388	0.2944	-0.052
Mof_H 	H 	0.917	0.0748	0.295	0.08
Mof_C 	C 	0.9206	0.9854	0.3027	0.081
Mof_C 	C 	0.8872	0.9283	0.3028	-0.036
Mof_H 	H 	0.907	0.8906	0.3087	0.071
Mof_C 	C 	0.7975	0.9896	0.2831	0.037
Mof_H 	H 	0.7554	0.9914	0.2746	0.046
Mof_C 	C 	0.8252	0.932	0.2938	-0.098
Mof_C 	C 	0.7924	0.8742	0.2939	0.4
Mof_N 	N 	0.9874	0.9759	0.3049	-0.079
Mof_Fe	Fe	0.17949	0.23908	0.69653	0.989
Mof_O 	O 	0.1654	0.1502	0.7044	-0.388
Mof_O 	O 	0.2499	0.1073	0.7453	-0.389
Mof_O 	O 	0.2634	0.8738	0.7259	-0.384
Mof_O 	O 	0.1809	0.8288	0.6857	-0.401
Mof_C 	C 	0.1968	0.1044	0.7238	0.386
Mof_C 	C 	0.1692	0.0426	0.7152	-0.083
Mof_C 	C 	0.1065	0.0388	0.7056	-0.052
Mof_H 	H 	0.083	0.0748	0.705	0.08
Mof_C 	C 	0.0794	0.9854	0.6973	0.081
Mof_C 	C 	0.1128	0.9283	0.6972	-0.036
Mof_H 	H 	0.093	0.8906	0.6913	0.071
Mof_C 	C 	0.2025	0.9896	0.7169	0.037
Mof_H 	H 	0.2446	0.9914	0.7254	0.046
Mof_C 	C 	0.1748	0.932	0.7062	-0.098
Mof_C 	C 	0.2076	0.8742	0.7061	0.4
Mof_N 	N 	0.0126	0.9759	0.6951	-0.079
Mof_Fe	Fe	0.82051	0.76092	0.69653	0.989
Mof_O 	O 	0.8346	0.8498	0.7044	-0.388
Mof_O 	O 	0.7501	0.8927	0.7453	-0.389
Mof_O 	O 	0.7366	0.1262	0.7259	-0.384
Mof_O 	O 	0.8191	0.1712	0.6857	-0.401
Mof_C 	C 	0.8032	0.8956	0.7238	0.386
Mof_C 	C 	0.8308	0.9574	0.7152	-0.083
Mof_C 	C 	0.8935	0.9612	0.7056	-0.052
Mof_H 	H 	0.917	0.9252	0.705	0.08
Mof_C 	C 	0.9206	0.0146	0.6973	0.081
Mof_C 	C 	0.8872	0.0717	0.6972	-0.036
Mof_H 	H 	0.907	0.1094	0.6913	0.071
Mof_C 	C 	0.7975	0.0104	0.7169	0.037
Mof_H 	H 	0.7554	0.0086	0.7254	0.046
Mof_C 	C 	0.8252	0.068	0.7062	-0.098
Mof_C 	C 	0.7924	0.1258	0.7061	0.4
Mof_N 	N 	0.9874	0.0241	0.6951	-0.079
Mof_Fe	Fe	0.76092	0.30347	0.17949	0.989
Mof_O 	O 	0.8498	0.2956	0.1654	-0.388
Mof_O 	O 	0.8927	0.2547	0.2499	-0.389
Mof_O 	O 	0.1262	0.2741	0.2634	-0.384
Mof_O 	O 	0.1712	0.3143	0.1809	-0.401
Mof_C 	C 	0.8956	0.2762	0.1968	0.386
Mof_C 	C 	0.9574	0.2848	0.1692	-0.083
Mof_C 	C 	0.9612	0.2944	0.1065	-0.052
Mof_H 	H 	0.9252	0.295	0.083	0.08
Mof_C 	C 	0.0146	0.3027	0.0794	0.081
Mof_C 	C 	0.0717	0.3028	0.1128	-0.036
Mof_H 	H 	0.1094	0.3087	0.093	0.071
Mof_C 	C 	0.0104	0.2831	0.2025	0.037
Mof_H 	H 	0.0086	0.2746	0.2446	0.046
Mof_C 	C 	0.068	0.2938	0.1748	-0.098
Mof_C 	C 	0.1258	0.2939	0.2076	0.4
Mof_N 	N 	0.0241	0.3049	0.0126	-0.079
Mof_Fe	Fe	0.23908	0.30347	0.82051	0.989
Mof_O 	O 	0.1502	0.2956	0.8346	-0.388
Mof_O 	O 	0.1073	0.2547	0.7501	-0.389
Mof_O 	O 	0.8738	0.2741	0.7366	-0.384
Mof_O 	O 	0.8288	0.3143	0.8191	-0.401
Mof_C 	C 	0.1044	0.2762	0.8032	0.386
Mof_C 	C 	0.0426	0.2848	0.8308	-0.083
Mof_C 	C 	0.0388	0.2944	0.8935	-0.052
Mof_H 	H 	0.0748	0.295	0.917	0.08
Mof_C 	C 	0.9854	0.3027	0.9206	0.081
Mof_C 	C 	0.9283	0.3028	0.8872	-0.036
Mof_H 	H 	0.8906	0.3087	0.907	0.071
Mof_C 	C 	0.9896	0.2831	0.7975	0.037
Mof_H 	H 	0.9914	0.2746	0.7554	0.046
Mof_C 	C 	0.932	0.2938	0.8252	-0.098
Mof_C 	C 	0.8742	0.2939	0.7924	0.4
Mof_N 	N 	0.9759	0.3049	0.9874	-0.079
Mof_Fe	Fe	0.23908	0.69653	0.17949	0.989
Mof_O 	O 	0.1502	0.7044	0.1654	-0.388
Mof_O 	O 	0.1073	0.7453	0.2499	-0.389
Mof_O 	O 	0.8738	0.7259	0.2634	-0.384
Mof_O 	O 	0.8288	0.6857	0.1809	-0.401
Mof_C 	C 	0.1044	0.7238	0.1968	0.386
Mof_C 	C 	0.0426	0.7152	0.1692	-0.083
Mof_C 	C 	0.0388	0.7056	0.1065	-0.052
Mof_H 	H 	0.0748	0.705	0.083	0.08
Mof_C 	C 	0.9854	0.6973	0.0794	0.081
Mof_C 	C 	0.9283	0.6972	0.1128	-0.036
Mof_H 	H 	0.8906	0.6913	0.093	0.071
Mof_C 	C 	0.9896	0.7169	0.2025	0.037
Mof_H 	H 	0.9914	0.7254	0.2446	0.046
Mof_C 	C 	0.932	0.7062	0.1748	-0.098
Mof_C 	C 	0.8742	0.7061	0.2076	0.4
Mof_N 	N 	0.9759	0.6951	0.0126	-0.079
Mof_Fe	Fe	0.76092	0.69653	0.82051	0.989
Mof_O 	O 	0.8498	0.7044	0.8346	-0.388
Mof_O 	O 	0.8927	0.7453	0.7501	-0.389
Mof_O 	O 	0.1262	0.7259	0.7366	-0.384
Mof_O 	O 	0.1712	0.6857	0.8191	-0.401
Mof_C 	C 	0.8956	0.7238	0.8032	0.386
Mof_C 	C 	0.9574	0.7152	0.8308	-0.083
Mof_C 	C 	0.9612	0.7056	0.8935	-0.052
Mof_H 	H 	0.9252	0.705	0.917	0.08
Mof_C 	C 	0.0146	0.6973	0.9206	0.081
Mof_C 	C 	0.0717	0.6972	0.8872	-0.036
Mof_H 	H 	0.1094	0.6913	0.907	0.071
Mof_C 	C 	0.0104	0.7169	0.7975	0.037
Mof_H 	H 	0.0086	0.7254	0.7554	0.046
Mof_C 	C 	0.068	0.7062	0.8252	-0.098
Mof_C 	C 	0.1258	0.7061	0.7924	0.4
Mof_N 	N 	0.0241	0.6951	0.9874	-0.079
Mof_Fe	Fe	0.30347	0.17949	0.76092	0.989
Mof_O 	O 	0.2956	0.1654	0.8498	-0.388
Mof_O 	O 	0.2547	0.2499	0.8927	-0.389
Mof_O 	O 	0.2741	0.2634	0.1262	-0.384
Mof_O 	O 	0.3143	0.1809	0.1712	-0.401
Mof_C 	C 	0.2762	0.1968	0.8956	0.386
Mof_C 	C 	0.2848	0.1692	0.9574	-0.083
Mof_C 	C 	0.2944	0.1065	0.9612	-0.052
Mof_H 	H 	0.295	0.083	0.9252	0.08
Mof_C 	C 	0.3027	0.0794	0.0146	0.081
Mof_C 	C 	0.3028	0.1128	0.0717	-0.036
Mof_H 	H 	0.3087	0.093	0.1094	0.071
Mof_C 	C 	0.2831	0.2025	0.0104	0.037
Mof_H 	H 	0.2746	0.2446	0.0086	0.046
Mof_C 	C 	0.2938	0.1748	0.068	-0.098
Mof_C 	C 	0.2939	0.2076	0.1258	0.4
Mof_N 	N 	0.3049	0.0126	0.0241	-0.079
Mof_Fe	Fe	0.30347	0.82051	0.23908	0.989
Mof_O 	O 	0.2956	0.8346	0.1502	-0.388
Mof_O 	O 	0.2547	0.7501	0.1073	-0.389
Mof_O 	O 	0.2741	0.7366	0.8738	-0.384
Mof_O 	O 	0.3143	0.8191	0.8288	-0.401
Mof_C 	C 	0.2762	0.8032	0.1044	0.386
Mof_C 	C 	0.2848	0.8308	0.0426	-0.083
Mof_C 	C 	0.2944	0.8935	0.0388	-0.052
Mof_H 	H 	0.295	0.917	0.0748	0.08
Mof_C 	C 	0.3027	0.9206	0.9854	0.081
Mof_C 	C 	0.3028	0.8872	0.9283	-0.036
Mof_H 	H 	0.3087	0.907	0.8906	0.071
Mof_C 	C 	0.2831	0.7975	0.9896	0.037
Mof_H 	H 	0.2746	0.7554	0.9914	0.046
Mof_C 	C 	0.2938	0.8252	0.932	-0.098
Mof_C 	C 	0.2939	0.7924	0.8742	0.4
Mof_N 	N 	0.3049	0.9874	0.9759	-0.079
Mof_Fe	Fe	0.69653	0.17949	0.23908	0.989
Mof_O 	O 	0.7044	0.1654	0.1502	-0.388
Mof_O 	O 	0.7453	0.2499	0.1073	-0.389
Mof_O 	O 	0.7259	0.2634	0.8738	-0.384
Mof_O 	O 	0.6857	0.1809	0.8288	-0.401
Mof_C 	C 	0.7238	0.1968	0.1044	0.386
Mof_C 	C 	0.7152	0.1692	0.0426	-0.083
Mof_C 	C 	0.7056	0.1065	0.0388	-0.052
Mof_H 	H 	0.705	0.083	0.0748	0.08
Mof_C 	C 	0.6973	0.0794	0.9854	0.081
Mof_C 	C 	0.6972	0.1128	0.9283	-0.036
Mof_H 	H 	0.6913	0.093	0.8906	0.071
Mof_C 	C 	0.7169	0.2025	0.9896	0.037
Mof_H 	H 	0.7254	0.2446	0.9914	0.046
Mof_C 	C 	0.7062	0.1748	0.932	-0.098
Mof_C 	C 	0.7061	0.2076	0.8742	0.4
Mof_N 	N 	0.6951	0.0126	0.9759	-0.079
Mof_Fe	Fe	0.69653	0.82051	0.76092	0.989
Mof_O 	O 	0.7044	0.8346	0.8498	-0.388
Mof_O 	O 	0.7453	0.7501	0.8927	-0.389
Mof_O 	O 	0.7259	0.7366	0.1262	-0.384
Mof_O 	O 	0.6857	0.8191	0.1712	-0.401
Mof_C 	C 	0.7238	0.8032	0.8956	0.386
Mof_C 	C 	0.7152	0.8308	0.9574	-0.083
Mof_C 	C 	0.7056	0.8935	0.9612	-0.052
Mof_H 	H 	0.705	0.917	0.9252	0.08
Mof_C 	C 	0.6973	0.9206	0.0146	0.081
Mof_C 	C 	0.6972	0.8872	0.0717	-0.036
Mof_H 	H 	0.6913	0.907	0.1094	0.071
Mof_C 	C 	0.7169	0.7975	0.0104	0.037
Mof_H 	H 	0.7254	0.7554	0.0086	0.046
Mof_C 	C 	0.7062	0.8252	0.068	-0.098
Mof_C 	C 	0.7061	0.7924	0.1258	0.4
Mof_N 	N 	0.6951	0.9874	0.0241	-0.079
Mof_O 	O 	0.2601	0.7399	0.7399	-0.535
Mof_O 	O 	0.7399	0.2601	0.7399	-0.535
Mof_O 	O 	0.7399	0.7399	0.2601	-0.535
Mof_O 	O 	0.2601	0.2601	0.2601	-0.535
Mof_O 	O 	0.2399	0.7601	0.2399	-0.535
Mof_O 	O 	0.7601	0.2399	0.2399	-0.535
Mof_O 	O 	0.2399	0.2399	0.7601	-0.535
Mof_O 	O 	0.7601	0.7601	0.7601	-0.535
_end
