data_functionalizedCrystal
_audit_creation_method	'EQeq! by Chris Wilmer'
_symmetry_space_group_name_H-M	'P1'
_symmetry_Int_Tables_number	1
_symmetry_cell_setting	triclinic
loop_
_symmetry_equiv_pos_as_xyz
  x,y,z
_cell_length_a	27.4756
_cell_length_b	27.4756
_cell_length_c	27.4756
_cell_angle_alpha	90
_cell_angle_beta	90
_cell_angle_gamma	90
loop_
_atom_site_label
_atom_site_type_symbol
_atom_site_fract_x
_atom_site_fract_y
_atom_site_fract_z
_atom_site_charge
Mof_C 	C 	0.2933	0.8528	0.5162	4.045
Mof_H 	H 	0.286	0.8847	0.5274	-7.619
Mof_C 	C 	0.2574	0.8165	0.5152	-1.953
Mof_H 	H 	0.225	0.8237	0.5248	0.273
Mof_F 	F 	0.2751	0.8964	0.5313	5.923
Mof_C 	C 	0.2933	0.3528	0.0162	4.029
Mof_H 	H 	0.286	0.3847	0.0274	-7.75
Mof_C 	C 	0.2574	0.3165	0.0152	-1.723
Mof_H 	H 	0.225	0.3237	0.0248	0.199
Mof_F 	F 	0.2751	0.3964	0.0313	6.054
Mof_C 	C 	0.7933	0.8528	0.0162	4.002
Mof_H 	H 	0.786	0.8847	0.0274	-7.788
Mof_C 	C 	0.7574	0.8165	0.0152	-1.576
Mof_H 	H 	0.725	0.8237	0.0248	0.155
Mof_F 	F 	0.7751	0.8964	0.0313	6.104
Mof_C 	C 	0.7933	0.3528	0.5162	4.055
Mof_H 	H 	0.786	0.3847	0.5274	-7.64
Mof_C 	C 	0.7574	0.3165	0.5152	-1.953
Mof_H 	H 	0.725	0.3237	0.5248	0.274
Mof_F 	F 	0.7751	0.3964	0.5313	5.94
Mof_C 	C 	0.7067	0.1472	0.5162	4.06
Mof_H 	H 	0.714	0.1153	0.5274	-7.684
Mof_C 	C 	0.7426	0.1835	0.5152	-1.912
Mof_H 	H 	0.775	0.1763	0.5248	0.26
Mof_F 	F 	0.7249	0.1036	0.5313	5.978
Mof_C 	C 	0.7067	0.6472	0.0162	4.009
Mof_H 	H 	0.714	0.6153	0.0274	-7.815
Mof_C 	C 	0.7426	0.6835	0.0152	-1.567
Mof_H 	H 	0.775	0.6763	0.0248	0.152
Mof_F 	F 	0.7249	0.6036	0.0313	6.125
Mof_C 	C 	0.2067	0.1472	0.0162	4.035
Mof_H 	H 	0.214	0.1153	0.0274	-7.769
Mof_C 	C 	0.2426	0.1835	0.0152	-1.716
Mof_H 	H 	0.275	0.1763	0.0248	0.197
Mof_F 	F 	0.2249	0.1036	0.0313	6.069
Mof_C 	C 	0.2067	0.6472	0.5162	4.049
Mof_H 	H 	0.214	0.6153	0.5274	-7.655
Mof_C 	C 	0.2426	0.6835	0.5152	-1.91
Mof_H 	H 	0.275	0.6763	0.5248	0.26
Mof_F 	F 	0.2249	0.6036	0.5313	5.956
Mof_C 	C 	0.7067	0.8528	0.4838	4.044
Mof_H 	H 	0.714	0.8847	0.4726	-7.599
Mof_C 	C 	0.7426	0.8165	0.4848	-1.96
Mof_H 	H 	0.775	0.8237	0.4752	0.279
Mof_F 	F 	0.7249	0.8964	0.4687	5.907
Mof_C 	C 	0.7067	0.3528	0.9838	4.084
Mof_H 	H 	0.714	0.3847	0.9726	-7.501
Mof_C 	C 	0.7426	0.3165	0.9848	-2.241
Mof_H 	H 	0.775	0.3237	0.9752	0.366
Mof_F 	F 	0.7249	0.3964	0.9687	5.796
Mof_C 	C 	0.2067	0.8528	0.9838	4.076
Mof_H 	H 	0.214	0.8847	0.9726	-7.479
Mof_C 	C 	0.2426	0.8165	0.9848	-2.239
Mof_H 	H 	0.275	0.8237	0.9752	0.366
Mof_F 	F 	0.2249	0.8964	0.9687	5.779
Mof_C 	C 	0.2067	0.3528	0.4838	4.052
Mof_H 	H 	0.214	0.3847	0.4726	-7.64
Mof_C 	C 	0.2426	0.3165	0.4848	-1.938
Mof_H 	H 	0.275	0.3237	0.4752	0.269
Mof_F 	F 	0.2249	0.3964	0.4687	5.94
Mof_C 	C 	0.2933	0.1472	0.4838	4.063
Mof_H 	H 	0.286	0.1153	0.4726	-7.669
Mof_C 	C 	0.2574	0.1835	0.4848	-1.948
Mof_H 	H 	0.225	0.1763	0.4752	0.27
Mof_F 	F 	0.2751	0.1036	0.4687	5.963
Mof_C 	C 	0.2933	0.6472	0.9838	4.088
Mof_H 	H 	0.286	0.6153	0.9726	-7.51
Mof_C 	C 	0.2574	0.6835	0.9848	-2.246
Mof_H 	H 	0.225	0.6763	0.9752	0.366
Mof_F 	F 	0.2751	0.6036	0.9687	5.803
Mof_C 	C 	0.7933	0.1472	0.9838	4.099
Mof_H 	H 	0.786	0.1153	0.9726	-7.54
Mof_C 	C 	0.7574	0.1835	0.9848	-2.247
Mof_H 	H 	0.725	0.1763	0.9752	0.366
Mof_F 	F 	0.7751	0.1036	0.9687	5.825
Mof_C 	C 	0.7933	0.6472	0.4838	4.057
Mof_H 	H 	0.786	0.6153	0.4726	-7.634
Mof_C 	C 	0.7574	0.6835	0.4848	-1.971
Mof_H 	H 	0.725	0.6763	0.4752	0.28
Mof_F 	F 	0.7751	0.6036	0.4687	5.934
Mof_C 	C 	0.5162	0.2933	0.8528	4.046
Mof_H 	H 	0.5274	0.286	0.8847	-7.618
Mof_C 	C 	0.5152	0.2574	0.8165	-1.952
Mof_H 	H 	0.5248	0.225	0.8237	0.274
Mof_F 	F 	0.5313	0.2751	0.8964	5.924
Mof_C 	C 	0.5162	0.7933	0.3528	4.055
Mof_H 	H 	0.5274	0.786	0.3847	-7.64
Mof_C 	C 	0.5152	0.7574	0.3165	-1.953
Mof_H 	H 	0.5248	0.725	0.3237	0.274
Mof_F 	F 	0.5313	0.7751	0.3964	5.94
Mof_C 	C 	0.0162	0.2933	0.3528	4.03
Mof_H 	H 	0.0274	0.286	0.3847	-7.749
Mof_C 	C 	0.0152	0.2574	0.3165	-1.723
Mof_H 	H 	0.0248	0.225	0.3237	0.199
Mof_F 	F 	0.0313	0.2751	0.3964	6.054
Mof_C 	C 	0.0162	0.7933	0.8528	4.002
Mof_H 	H 	0.0274	0.786	0.8847	-7.788
Mof_C 	C 	0.0152	0.7574	0.8165	-1.576
Mof_H 	H 	0.0248	0.725	0.8237	0.155
Mof_F 	F 	0.0313	0.7751	0.8964	6.104
Mof_C 	C 	0.5162	0.7067	0.1472	4.06
Mof_H 	H 	0.5274	0.714	0.1153	-7.684
Mof_C 	C 	0.5152	0.7426	0.1835	-1.912
Mof_H 	H 	0.5248	0.775	0.1763	0.26
Mof_F 	F 	0.5313	0.7249	0.1036	5.978
Mof_C 	C 	0.5162	0.2067	0.6472	4.049
Mof_H 	H 	0.5274	0.214	0.6153	-7.655
Mof_C 	C 	0.5152	0.2426	0.6835	-1.91
Mof_H 	H 	0.5248	0.275	0.6763	0.26
Mof_F 	F 	0.5313	0.2249	0.6036	5.956
Mof_C 	C 	0.0162	0.7067	0.6472	4.009
Mof_H 	H 	0.0274	0.714	0.6153	-7.815
Mof_C 	C 	0.0152	0.7426	0.6835	-1.567
Mof_H 	H 	0.0248	0.775	0.6763	0.152
Mof_F 	F 	0.0313	0.7249	0.6036	6.125
Mof_C 	C 	0.0162	0.2067	0.1472	4.035
Mof_H 	H 	0.0274	0.214	0.1153	-7.769
Mof_C 	C 	0.0152	0.2426	0.1835	-1.716
Mof_H 	H 	0.0248	0.275	0.1763	0.197
Mof_F 	F 	0.0313	0.2249	0.1036	6.069
Mof_C 	C 	0.4838	0.7067	0.8528	4.044
Mof_H 	H 	0.4726	0.714	0.8847	-7.599
Mof_C 	C 	0.4848	0.7426	0.8165	-1.96
Mof_H 	H 	0.4752	0.775	0.8237	0.279
Mof_F 	F 	0.4687	0.7249	0.8964	5.907
Mof_C 	C 	0.4838	0.2067	0.3528	4.052
Mof_H 	H 	0.4726	0.214	0.3847	-7.64
Mof_C 	C 	0.4848	0.2426	0.3165	-1.938
Mof_H 	H 	0.4752	0.275	0.3237	0.269
Mof_F 	F 	0.4687	0.2249	0.3964	5.94
Mof_C 	C 	0.9838	0.7067	0.3528	4.084
Mof_H 	H 	0.9726	0.714	0.3847	-7.501
Mof_C 	C 	0.9848	0.7426	0.3165	-2.241
Mof_H 	H 	0.9752	0.775	0.3237	0.366
Mof_F 	F 	0.9687	0.7249	0.3964	5.796
Mof_C 	C 	0.9838	0.2067	0.8528	4.076
Mof_H 	H 	0.9726	0.214	0.8847	-7.479
Mof_C 	C 	0.9848	0.2426	0.8165	-2.239
Mof_H 	H 	0.9752	0.275	0.8237	0.366
Mof_F 	F 	0.9687	0.2249	0.8964	5.779
Mof_C 	C 	0.4838	0.2933	0.1472	4.063
Mof_H 	H 	0.4726	0.286	0.1153	-7.669
Mof_C 	C 	0.4848	0.2574	0.1835	-1.948
Mof_H 	H 	0.4752	0.225	0.1763	0.27
Mof_F 	F 	0.4687	0.2751	0.1036	5.963
Mof_C 	C 	0.4838	0.7933	0.6472	4.057
Mof_H 	H 	0.4726	0.786	0.6153	-7.634
Mof_C 	C 	0.4848	0.7574	0.6835	-1.971
Mof_H 	H 	0.4752	0.725	0.6763	0.28
Mof_F 	F 	0.4687	0.7751	0.6036	5.934
Mof_C 	C 	0.9838	0.2933	0.6472	4.088
Mof_H 	H 	0.9726	0.286	0.6153	-7.51
Mof_C 	C 	0.9848	0.2574	0.6835	-2.246
Mof_H 	H 	0.9752	0.225	0.6763	0.366
Mof_F 	F 	0.9687	0.2751	0.6036	5.803
Mof_C 	C 	0.9838	0.7933	0.1472	4.099
Mof_H 	H 	0.9726	0.786	0.1153	-7.54
Mof_C 	C 	0.9848	0.7574	0.1835	-2.247
Mof_H 	H 	0.9752	0.725	0.1763	0.366
Mof_F 	F 	0.9687	0.7751	0.1036	5.825
Mof_C 	C 	0.8528	0.5162	0.2933	4.046
Mof_H 	H 	0.8847	0.5274	0.286	-7.618
Mof_C 	C 	0.8165	0.5152	0.2574	-1.952
Mof_H 	H 	0.8237	0.5248	0.225	0.274
Mof_F 	F 	0.8964	0.5313	0.2751	5.924
Mof_C 	C 	0.8528	0.0162	0.7933	4.002
Mof_H 	H 	0.8847	0.0274	0.786	-7.788
Mof_C 	C 	0.8165	0.0152	0.7574	-1.576
Mof_H 	H 	0.8237	0.0248	0.725	0.155
Mof_F 	F 	0.8964	0.0313	0.7751	6.104
Mof_C 	C 	0.3528	0.5162	0.7933	4.055
Mof_H 	H 	0.3847	0.5274	0.786	-7.64
Mof_C 	C 	0.3165	0.5152	0.7574	-1.953
Mof_H 	H 	0.3237	0.5248	0.725	0.274
Mof_F 	F 	0.3964	0.5313	0.7751	5.94
Mof_C 	C 	0.3528	0.0162	0.2933	4.03
Mof_H 	H 	0.3847	0.0274	0.286	-7.749
Mof_C 	C 	0.3165	0.0152	0.2574	-1.723
Mof_H 	H 	0.3237	0.0248	0.225	0.199
Mof_F 	F 	0.3964	0.0313	0.2751	6.054
Mof_C 	C 	0.1472	0.5162	0.7067	4.06
Mof_H 	H 	0.1153	0.5274	0.714	-7.684
Mof_C 	C 	0.1835	0.5152	0.7426	-1.912
Mof_H 	H 	0.1763	0.5248	0.775	0.26
Mof_F 	F 	0.1036	0.5313	0.7249	5.978
Mof_C 	C 	0.1472	0.0162	0.2067	4.035
Mof_H 	H 	0.1153	0.0274	0.214	-7.769
Mof_C 	C 	0.1835	0.0152	0.2426	-1.716
Mof_H 	H 	0.1763	0.0248	0.275	0.197
Mof_F 	F 	0.1036	0.0313	0.2249	6.069
Mof_C 	C 	0.6472	0.5162	0.2067	4.049
Mof_H 	H 	0.6153	0.5274	0.214	-7.655
Mof_C 	C 	0.6835	0.5152	0.2426	-1.91
Mof_H 	H 	0.6763	0.5248	0.275	0.26
Mof_F 	F 	0.6036	0.5313	0.2249	5.956
Mof_C 	C 	0.6472	0.0162	0.7067	4.009
Mof_H 	H 	0.6153	0.0274	0.714	-7.815
Mof_C 	C 	0.6835	0.0152	0.7426	-1.567
Mof_H 	H 	0.6763	0.0248	0.775	0.152
Mof_F 	F 	0.6036	0.0313	0.7249	6.125
Mof_C 	C 	0.8528	0.4838	0.7067	4.044
Mof_H 	H 	0.8847	0.4726	0.714	-7.599
Mof_C 	C 	0.8165	0.4848	0.7426	-1.96
Mof_H 	H 	0.8237	0.4752	0.775	0.279
Mof_F 	F 	0.8964	0.4687	0.7249	5.907
Mof_C 	C 	0.8528	0.9838	0.2067	4.076
Mof_H 	H 	0.8847	0.9726	0.214	-7.479
Mof_C 	C 	0.8165	0.9848	0.2426	-2.239
Mof_H 	H 	0.8237	0.9752	0.275	0.366
Mof_F 	F 	0.8964	0.9687	0.2249	5.779
Mof_C 	C 	0.3528	0.4838	0.2067	4.052
Mof_H 	H 	0.3847	0.4726	0.214	-7.64
Mof_C 	C 	0.3165	0.4848	0.2426	-1.938
Mof_H 	H 	0.3237	0.4752	0.275	0.269
Mof_F 	F 	0.3964	0.4687	0.2249	5.94
Mof_C 	C 	0.3528	0.9838	0.7067	4.084
Mof_H 	H 	0.3847	0.9726	0.714	-7.501
Mof_C 	C 	0.3165	0.9848	0.7426	-2.241
Mof_H 	H 	0.3237	0.9752	0.775	0.366
Mof_F 	F 	0.3964	0.9687	0.7249	5.796
Mof_C 	C 	0.1472	0.4838	0.2933	4.063
Mof_H 	H 	0.1153	0.4726	0.286	-7.669
Mof_C 	C 	0.1835	0.4848	0.2574	-1.948
Mof_H 	H 	0.1763	0.4752	0.225	0.27
Mof_F 	F 	0.1036	0.4687	0.2751	5.963
Mof_C 	C 	0.1472	0.9838	0.7933	4.099
Mof_H 	H 	0.1153	0.9726	0.786	-7.54
Mof_C 	C 	0.1835	0.9848	0.7574	-2.247
Mof_H 	H 	0.1763	0.9752	0.725	0.366
Mof_F 	F 	0.1036	0.9687	0.7751	5.825
Mof_C 	C 	0.6472	0.4838	0.7933	4.057
Mof_H 	H 	0.6153	0.4726	0.786	-7.634
Mof_C 	C 	0.6835	0.4848	0.7574	-1.971
Mof_H 	H 	0.6763	0.4752	0.725	0.28
Mof_F 	F 	0.6036	0.4687	0.7751	5.934
Mof_C 	C 	0.6472	0.9838	0.2933	4.088
Mof_H 	H 	0.6153	0.9726	0.286	-7.51
Mof_C 	C 	0.6835	0.9848	0.2574	-2.246
Mof_H 	H 	0.6763	0.9752	0.225	0.366
Mof_F 	F 	0.6036	0.9687	0.2751	5.803
Mof_C 	C 	0.8528	0.2933	0.4838	4.046
Mof_H 	H 	0.8847	0.286	0.4726	-7.633
Mof_C 	C 	0.8165	0.2574	0.4848	-1.926
Mof_H 	H 	0.8237	0.225	0.4752	0.265
Mof_F 	F 	0.8964	0.2751	0.4687	5.938
Mof_C 	C 	0.8528	0.7933	0.9838	4.082
Mof_H 	H 	0.8847	0.786	0.9726	-7.457
Mof_C 	C 	0.8165	0.7574	0.9848	-2.301
Mof_H 	H 	0.8237	0.725	0.9752	0.386
Mof_F 	F 	0.8964	0.7751	0.9687	5.756
Mof_C 	C 	0.3528	0.2933	0.9838	4.08
Mof_H 	H 	0.3847	0.286	0.9726	-7.548
Mof_C 	C 	0.3165	0.2574	0.9848	-2.166
Mof_H 	H 	0.3237	0.225	0.9752	0.341
Mof_F 	F 	0.3964	0.2751	0.9687	5.841
Mof_C 	C 	0.3528	0.7933	0.4838	4.053
Mof_H 	H 	0.3847	0.786	0.4726	-7.652
Mof_C 	C 	0.3165	0.7574	0.4848	-1.931
Mof_H 	H 	0.3237	0.725	0.4752	0.267
Mof_F 	F 	0.3964	0.7751	0.4687	5.952
Mof_C 	C 	0.1472	0.7067	0.4838	4.067
Mof_H 	H 	0.1153	0.714	0.4726	-7.648
Mof_C 	C 	0.1835	0.7426	0.4848	-1.985
Mof_H 	H 	0.1763	0.775	0.4752	0.283
Mof_F 	F 	0.1036	0.7249	0.4687	5.942
Mof_C 	C 	0.1472	0.2067	0.9838	4.089
Mof_H 	H 	0.1153	0.214	0.9726	-7.554
Mof_C 	C 	0.1835	0.2426	0.9848	-2.182
Mof_H 	H 	0.1763	0.275	0.9752	0.345
Mof_F 	F 	0.1036	0.2249	0.9687	5.842
Mof_C 	C 	0.6472	0.7067	0.9838	4.094
Mof_H 	H 	0.6153	0.714	0.9726	-7.467
Mof_C 	C 	0.6835	0.7426	0.9848	-2.322
Mof_H 	H 	0.6763	0.775	0.9752	0.393
Mof_F 	F 	0.6036	0.7249	0.9687	5.759
Mof_C 	C 	0.6472	0.2067	0.4838	4.057
Mof_H 	H 	0.6153	0.214	0.4726	-7.621
Mof_C 	C 	0.6835	0.2426	0.4848	-1.979
Mof_H 	H 	0.6763	0.275	0.4752	0.282
Mof_F 	F 	0.6036	0.2249	0.4687	5.921
Mof_C 	C 	0.8528	0.7067	0.5162	4.036
Mof_H 	H 	0.8847	0.714	0.5274	-7.619
Mof_C 	C 	0.8165	0.7426	0.5152	-1.913
Mof_H 	H 	0.8237	0.775	0.5248	0.264
Mof_F 	F 	0.8964	0.7249	0.5313	5.93
Mof_C 	C 	0.8528	0.2067	0.0162	4.01
Mof_H 	H 	0.8847	0.214	0.0274	-7.752
Mof_C 	C 	0.8165	0.2426	0.0152	-1.643
Mof_H 	H 	0.8237	0.275	0.0248	0.176
Mof_F 	F 	0.8964	0.2249	0.0313	6.066
Mof_C 	C 	0.3528	0.7067	0.0162	4.017
Mof_H 	H 	0.3847	0.714	0.0274	-7.773
Mof_C 	C 	0.3165	0.7426	0.0152	-1.645
Mof_H 	H 	0.3237	0.775	0.0248	0.177
Mof_F 	F 	0.3964	0.7249	0.0313	6.082
Mof_C 	C 	0.3528	0.2067	0.5162	4.052
Mof_H 	H 	0.3847	0.214	0.5274	-7.634
Mof_C 	C 	0.3165	0.2426	0.5152	-1.949
Mof_H 	H 	0.3237	0.275	0.5248	0.272
Mof_F 	F 	0.3964	0.2249	0.5313	5.935
Mof_C 	C 	0.1472	0.2933	0.5162	4.066
Mof_H 	H 	0.1153	0.286	0.5274	-7.67
Mof_C 	C 	0.1835	0.2574	0.5152	-1.947
Mof_H 	H 	0.1763	0.225	0.5248	0.27
Mof_F 	F 	0.1036	0.2751	0.5313	5.963
Mof_C 	C 	0.1472	0.7933	0.0162	4.031
Mof_H 	H 	0.1153	0.786	0.0274	-7.813
Mof_C 	C 	0.1835	0.7574	0.0152	-1.652
Mof_H 	H 	0.1763	0.725	0.0248	0.176
Mof_F 	F 	0.1036	0.7751	0.0313	6.113
Mof_C 	C 	0.6472	0.2933	0.0162	4.021
Mof_H 	H 	0.6153	0.286	0.0274	-7.787
Mof_C 	C 	0.6835	0.2574	0.0152	-1.643
Mof_H 	H 	0.6763	0.225	0.0248	0.174
Mof_F 	F 	0.6036	0.2751	0.0313	6.093
Mof_C 	C 	0.6472	0.7933	0.5162	4.051
Mof_H 	H 	0.6153	0.786	0.5274	-7.661
Mof_C 	C 	0.6835	0.7574	0.5152	-1.913
Mof_H 	H 	0.6763	0.725	0.5248	0.262
Mof_F 	F 	0.6036	0.7751	0.5313	5.962
Mof_C 	C 	0.2933	0.5162	0.1472	4.066
Mof_H 	H 	0.286	0.5274	0.1153	-7.67
Mof_C 	C 	0.2574	0.5152	0.1835	-1.947
Mof_H 	H 	0.225	0.5248	0.1763	0.27
Mof_F 	F 	0.2751	0.5313	0.1036	5.963
Mof_C 	C 	0.2933	0.0162	0.6472	4.021
Mof_H 	H 	0.286	0.0274	0.6153	-7.787
Mof_C 	C 	0.2574	0.0152	0.6835	-1.643
Mof_H 	H 	0.225	0.0248	0.6763	0.174
Mof_F 	F 	0.2751	0.0313	0.6036	6.093
Mof_C 	C 	0.7933	0.5162	0.6472	4.051
Mof_H 	H 	0.786	0.5274	0.6153	-7.661
Mof_C 	C 	0.7574	0.5152	0.6835	-1.913
Mof_H 	H 	0.725	0.5248	0.6763	0.262
Mof_F 	F 	0.7751	0.5313	0.6036	5.962
Mof_C 	C 	0.7933	0.0162	0.1472	4.031
Mof_H 	H 	0.786	0.0274	0.1153	-7.813
Mof_C 	C 	0.7574	0.0152	0.1835	-1.652
Mof_H 	H 	0.725	0.0248	0.1763	0.176
Mof_F 	F 	0.7751	0.0313	0.1036	6.113
Mof_C 	C 	0.7067	0.5162	0.8528	4.036
Mof_H 	H 	0.714	0.5274	0.8847	-7.619
Mof_C 	C 	0.7426	0.5152	0.8165	-1.913
Mof_H 	H 	0.775	0.5248	0.8237	0.264
Mof_F 	F 	0.7249	0.5313	0.8964	5.93
Mof_C 	C 	0.7067	0.0162	0.3528	4.017
Mof_H 	H 	0.714	0.0274	0.3847	-7.773
Mof_C 	C 	0.7426	0.0152	0.3165	-1.645
Mof_H 	H 	0.775	0.0248	0.3237	0.177
Mof_F 	F 	0.7249	0.0313	0.3964	6.082
Mof_C 	C 	0.2067	0.5162	0.3528	4.052
Mof_H 	H 	0.214	0.5274	0.3847	-7.634
Mof_C 	C 	0.2426	0.5152	0.3165	-1.949
Mof_H 	H 	0.275	0.5248	0.3237	0.272
Mof_F 	F 	0.2249	0.5313	0.3964	5.935
Mof_C 	C 	0.2067	0.0162	0.8528	4.01
Mof_H 	H 	0.214	0.0274	0.8847	-7.752
Mof_C 	C 	0.2426	0.0152	0.8165	-1.643
Mof_H 	H 	0.275	0.0248	0.8237	0.176
Mof_F 	F 	0.2249	0.0313	0.8964	6.066
Mof_C 	C 	0.7067	0.4838	0.1472	4.067
Mof_H 	H 	0.714	0.4726	0.1153	-7.648
Mof_C 	C 	0.7426	0.4848	0.1835	-1.985
Mof_H 	H 	0.775	0.4752	0.1763	0.283
Mof_F 	F 	0.7249	0.4687	0.1036	5.942
Mof_C 	C 	0.7067	0.9838	0.6472	4.094
Mof_H 	H 	0.714	0.9726	0.6153	-7.467
Mof_C 	C 	0.7426	0.9848	0.6835	-2.322
Mof_H 	H 	0.775	0.9752	0.6763	0.393
Mof_F 	F 	0.7249	0.9687	0.6036	5.759
Mof_C 	C 	0.2067	0.4838	0.6472	4.057
Mof_H 	H 	0.214	0.4726	0.6153	-7.621
Mof_C 	C 	0.2426	0.4848	0.6835	-1.979
Mof_H 	H 	0.275	0.4752	0.6763	0.282
Mof_F 	F 	0.2249	0.4687	0.6036	5.921
Mof_C 	C 	0.2067	0.9838	0.1472	4.089
Mof_H 	H 	0.214	0.9726	0.1153	-7.554
Mof_C 	C 	0.2426	0.9848	0.1835	-2.182
Mof_H 	H 	0.275	0.9752	0.1763	0.345
Mof_F 	F 	0.2249	0.9687	0.1036	5.842
Mof_C 	C 	0.2933	0.4838	0.8528	4.046
Mof_H 	H 	0.286	0.4726	0.8847	-7.633
Mof_C 	C 	0.2574	0.4848	0.8165	-1.926
Mof_H 	H 	0.225	0.4752	0.8237	0.265
Mof_F 	F 	0.2751	0.4687	0.8964	5.938
Mof_C 	C 	0.2933	0.9838	0.3528	4.08
Mof_H 	H 	0.286	0.9726	0.3847	-7.548
Mof_C 	C 	0.2574	0.9848	0.3165	-2.166
Mof_H 	H 	0.225	0.9752	0.3237	0.341
Mof_F 	F 	0.2751	0.9687	0.3964	5.841
Mof_C 	C 	0.7933	0.4838	0.3528	4.053
Mof_H 	H 	0.786	0.4726	0.3847	-7.652
Mof_C 	C 	0.7574	0.4848	0.3165	-1.931
Mof_H 	H 	0.725	0.4752	0.3237	0.267
Mof_F 	F 	0.7751	0.4687	0.3964	5.952
Mof_C 	C 	0.7933	0.9838	0.8528	4.082
Mof_H 	H 	0.786	0.9726	0.8847	-7.457
Mof_C 	C 	0.7574	0.9848	0.8165	-2.301
Mof_H 	H 	0.725	0.9752	0.8237	0.386
Mof_F 	F 	0.7751	0.9687	0.8964	5.756
Mof_C 	C 	0.5162	0.8528	0.7067	4.036
Mof_H 	H 	0.5274	0.8847	0.714	-7.619
Mof_C 	C 	0.5152	0.8165	0.7426	-1.913
Mof_H 	H 	0.5248	0.8237	0.775	0.264
Mof_F 	F 	0.5313	0.8964	0.7249	5.93
Mof_C 	C 	0.5162	0.3528	0.2067	4.052
Mof_H 	H 	0.5274	0.3847	0.214	-7.634
Mof_C 	C 	0.5152	0.3165	0.2426	-1.949
Mof_H 	H 	0.5248	0.3237	0.275	0.272
Mof_F 	F 	0.5313	0.3964	0.2249	5.935
Mof_C 	C 	0.0162	0.8528	0.2067	4.01
Mof_H 	H 	0.0274	0.8847	0.214	-7.752
Mof_C 	C 	0.0152	0.8165	0.2426	-1.643
Mof_H 	H 	0.0248	0.8237	0.275	0.176
Mof_F 	F 	0.0313	0.8964	0.2249	6.066
Mof_C 	C 	0.0162	0.3528	0.7067	4.017
Mof_H 	H 	0.0274	0.3847	0.714	-7.773
Mof_C 	C 	0.0152	0.3165	0.7426	-1.645
Mof_H 	H 	0.0248	0.3237	0.775	0.177
Mof_F 	F 	0.0313	0.3964	0.7249	6.082
Mof_C 	C 	0.5162	0.1472	0.2933	4.066
Mof_H 	H 	0.5274	0.1153	0.286	-7.67
Mof_C 	C 	0.5152	0.1835	0.2574	-1.947
Mof_H 	H 	0.5248	0.1763	0.225	0.27
Mof_F 	F 	0.5313	0.1036	0.2751	5.963
Mof_C 	C 	0.5162	0.6472	0.7933	4.051
Mof_H 	H 	0.5274	0.6153	0.786	-7.661
Mof_C 	C 	0.5152	0.6835	0.7574	-1.913
Mof_H 	H 	0.5248	0.6763	0.725	0.262
Mof_F 	F 	0.5313	0.6036	0.7751	5.962
Mof_C 	C 	0.0162	0.1472	0.7933	4.031
Mof_H 	H 	0.0274	0.1153	0.786	-7.813
Mof_C 	C 	0.0152	0.1835	0.7574	-1.652
Mof_H 	H 	0.0248	0.1763	0.725	0.176
Mof_F 	F 	0.0313	0.1036	0.7751	6.113
Mof_C 	C 	0.0162	0.6472	0.2933	4.021
Mof_H 	H 	0.0274	0.6153	0.286	-7.787
Mof_C 	C 	0.0152	0.6835	0.2574	-1.643
Mof_H 	H 	0.0248	0.6763	0.225	0.174
Mof_F 	F 	0.0313	0.6036	0.2751	6.093
Mof_C 	C 	0.4838	0.8528	0.2933	4.046
Mof_H 	H 	0.4726	0.8847	0.286	-7.633
Mof_C 	C 	0.4848	0.8165	0.2574	-1.926
Mof_H 	H 	0.4752	0.8237	0.225	0.265
Mof_F 	F 	0.4687	0.8964	0.2751	5.938
Mof_C 	C 	0.4838	0.3528	0.7933	4.053
Mof_H 	H 	0.4726	0.3847	0.786	-7.652
Mof_C 	C 	0.4848	0.3165	0.7574	-1.931
Mof_H 	H 	0.4752	0.3237	0.725	0.267
Mof_F 	F 	0.4687	0.3964	0.7751	5.952
Mof_C 	C 	0.9838	0.8528	0.7933	4.082
Mof_H 	H 	0.9726	0.8847	0.786	-7.457
Mof_C 	C 	0.9848	0.8165	0.7574	-2.301
Mof_H 	H 	0.9752	0.8237	0.725	0.386
Mof_F 	F 	0.9687	0.8964	0.7751	5.756
Mof_C 	C 	0.9838	0.3528	0.2933	4.08
Mof_H 	H 	0.9726	0.3847	0.286	-7.548
Mof_C 	C 	0.9848	0.3165	0.2574	-2.166
Mof_H 	H 	0.9752	0.3237	0.225	0.341
Mof_F 	F 	0.9687	0.3964	0.2751	5.841
Mof_C 	C 	0.4838	0.1472	0.7067	4.067
Mof_H 	H 	0.4726	0.1153	0.714	-7.648
Mof_C 	C 	0.4848	0.1835	0.7426	-1.985
Mof_H 	H 	0.4752	0.1763	0.775	0.283
Mof_F 	F 	0.4687	0.1036	0.7249	5.942
Mof_C 	C 	0.4838	0.6472	0.2067	4.057
Mof_H 	H 	0.4726	0.6153	0.214	-7.621
Mof_C 	C 	0.4848	0.6835	0.2426	-1.979
Mof_H 	H 	0.4752	0.6763	0.275	0.282
Mof_F 	F 	0.4687	0.6036	0.2249	5.921
Mof_C 	C 	0.9838	0.1472	0.2067	4.089
Mof_H 	H 	0.9726	0.1153	0.214	-7.554
Mof_C 	C 	0.9848	0.1835	0.2426	-2.182
Mof_H 	H 	0.9752	0.1763	0.275	0.345
Mof_F 	F 	0.9687	0.1036	0.2249	5.842
Mof_C 	C 	0.9838	0.6472	0.7067	4.094
Mof_H 	H 	0.9726	0.6153	0.714	-7.467
Mof_C 	C 	0.9848	0.6835	0.7426	-2.322
Mof_H 	H 	0.9752	0.6763	0.775	0.393
Mof_F 	F 	0.9687	0.6036	0.7249	5.759
Mof_C 	C 	0.7067	0.1472	0.4838	4.067
Mof_H 	H 	0.714	0.1153	0.4726	-7.648
Mof_C 	C 	0.7426	0.1835	0.4848	-1.985
Mof_H 	H 	0.775	0.1763	0.4752	0.283
Mof_F 	F 	0.7249	0.1036	0.4687	5.942
Mof_C 	C 	0.7067	0.6472	0.9838	4.094
Mof_H 	H 	0.714	0.6153	0.9726	-7.467
Mof_C 	C 	0.7426	0.6835	0.9848	-2.322
Mof_H 	H 	0.775	0.6763	0.9752	0.393
Mof_F 	F 	0.7249	0.6036	0.9687	5.759
Mof_C 	C 	0.2067	0.1472	0.9838	4.089
Mof_H 	H 	0.214	0.1153	0.9726	-7.554
Mof_C 	C 	0.2426	0.1835	0.9848	-2.182
Mof_H 	H 	0.275	0.1763	0.9752	0.345
Mof_F 	F 	0.2249	0.1036	0.9687	5.842
Mof_C 	C 	0.2067	0.6472	0.4838	4.057
Mof_H 	H 	0.214	0.6153	0.4726	-7.621
Mof_C 	C 	0.2426	0.6835	0.4848	-1.979
Mof_H 	H 	0.275	0.6763	0.4752	0.282
Mof_F 	F 	0.2249	0.6036	0.4687	5.921
Mof_C 	C 	0.2933	0.8528	0.4838	4.046
Mof_H 	H 	0.286	0.8847	0.4726	-7.633
Mof_C 	C 	0.2574	0.8165	0.4848	-1.926
Mof_H 	H 	0.225	0.8237	0.4752	0.265
Mof_F 	F 	0.2751	0.8964	0.4687	5.938
Mof_C 	C 	0.2933	0.3528	0.9838	4.08
Mof_H 	H 	0.286	0.3847	0.9726	-7.548
Mof_C 	C 	0.2574	0.3165	0.9848	-2.166
Mof_H 	H 	0.225	0.3237	0.9752	0.341
Mof_F 	F 	0.2751	0.3964	0.9687	5.841
Mof_C 	C 	0.7933	0.8528	0.9838	4.082
Mof_H 	H 	0.786	0.8847	0.9726	-7.457
Mof_C 	C 	0.7574	0.8165	0.9848	-2.301
Mof_H 	H 	0.725	0.8237	0.9752	0.386
Mof_F 	F 	0.7751	0.8964	0.9687	5.756
Mof_C 	C 	0.7933	0.3528	0.4838	4.053
Mof_H 	H 	0.786	0.3847	0.4726	-7.652
Mof_C 	C 	0.7574	0.3165	0.4848	-1.931
Mof_H 	H 	0.725	0.3237	0.4752	0.267
Mof_F 	F 	0.7751	0.3964	0.4687	5.952
Mof_C 	C 	0.2933	0.1472	0.5162	4.066
Mof_H 	H 	0.286	0.1153	0.5274	-7.67
Mof_C 	C 	0.2574	0.1835	0.5152	-1.947
Mof_H 	H 	0.225	0.1763	0.5248	0.27
Mof_F 	F 	0.2751	0.1036	0.5313	5.963
Mof_C 	C 	0.2933	0.6472	0.0162	4.021
Mof_H 	H 	0.286	0.6153	0.0274	-7.787
Mof_C 	C 	0.2574	0.6835	0.0152	-1.643
Mof_H 	H 	0.225	0.6763	0.0248	0.174
Mof_F 	F 	0.2751	0.6036	0.0313	6.093
Mof_C 	C 	0.7933	0.1472	0.0162	4.031
Mof_H 	H 	0.786	0.1153	0.0274	-7.813
Mof_C 	C 	0.7574	0.1835	0.0152	-1.652
Mof_H 	H 	0.725	0.1763	0.0248	0.176
Mof_F 	F 	0.7751	0.1036	0.0313	6.113
Mof_C 	C 	0.7933	0.6472	0.5162	4.051
Mof_H 	H 	0.786	0.6153	0.5274	-7.661
Mof_C 	C 	0.7574	0.6835	0.5152	-1.913
Mof_H 	H 	0.725	0.6763	0.5248	0.262
Mof_F 	F 	0.7751	0.6036	0.5313	5.962
Mof_C 	C 	0.7067	0.8528	0.5162	4.036
Mof_H 	H 	0.714	0.8847	0.5274	-7.619
Mof_C 	C 	0.7426	0.8165	0.5152	-1.913
Mof_H 	H 	0.775	0.8237	0.5248	0.264
Mof_F 	F 	0.7249	0.8964	0.5313	5.93
Mof_C 	C 	0.7067	0.3528	0.0162	4.017
Mof_H 	H 	0.714	0.3847	0.0274	-7.773
Mof_C 	C 	0.7426	0.3165	0.0152	-1.645
Mof_H 	H 	0.775	0.3237	0.0248	0.177
Mof_F 	F 	0.7249	0.3964	0.0313	6.082
Mof_C 	C 	0.2067	0.8528	0.0162	4.01
Mof_H 	H 	0.214	0.8847	0.0274	-7.752
Mof_C 	C 	0.2426	0.8165	0.0152	-1.643
Mof_H 	H 	0.275	0.8237	0.0248	0.176
Mof_F 	F 	0.2249	0.8964	0.0313	6.066
Mof_C 	C 	0.2067	0.3528	0.5162	4.052
Mof_H 	H 	0.214	0.3847	0.5274	-7.634
Mof_C 	C 	0.2426	0.3165	0.5152	-1.949
Mof_H 	H 	0.275	0.3237	0.5248	0.272
Mof_F 	F 	0.2249	0.3964	0.5313	5.935
Mof_C 	C 	0.4838	0.7067	0.1472	4.067
Mof_H 	H 	0.4726	0.714	0.1153	-7.648
Mof_C 	C 	0.4848	0.7426	0.1835	-1.985
Mof_H 	H 	0.4752	0.775	0.1763	0.283
Mof_F 	F 	0.4687	0.7249	0.1036	5.942
Mof_C 	C 	0.4838	0.2067	0.6472	4.057
Mof_H 	H 	0.4726	0.214	0.6153	-7.621
Mof_C 	C 	0.4848	0.2426	0.6835	-1.979
Mof_H 	H 	0.4752	0.275	0.6763	0.282
Mof_F 	F 	0.4687	0.2249	0.6036	5.921
Mof_C 	C 	0.9838	0.7067	0.6472	4.094
Mof_H 	H 	0.9726	0.714	0.6153	-7.467
Mof_C 	C 	0.9848	0.7426	0.6835	-2.322
Mof_H 	H 	0.9752	0.775	0.6763	0.393
Mof_F 	F 	0.9687	0.7249	0.6036	5.759
Mof_C 	C 	0.9838	0.2067	0.1472	4.089
Mof_H 	H 	0.9726	0.214	0.1153	-7.554
Mof_C 	C 	0.9848	0.2426	0.1835	-2.182
Mof_H 	H 	0.9752	0.275	0.1763	0.345
Mof_F 	F 	0.9687	0.2249	0.1036	5.842
Mof_C 	C 	0.4838	0.2933	0.8528	4.046
Mof_H 	H 	0.4726	0.286	0.8847	-7.633
Mof_C 	C 	0.4848	0.2574	0.8165	-1.926
Mof_H 	H 	0.4752	0.225	0.8237	0.265
Mof_F 	F 	0.4687	0.2751	0.8964	5.938
Mof_C 	C 	0.4838	0.7933	0.3528	4.053
Mof_H 	H 	0.4726	0.786	0.3847	-7.652
Mof_C 	C 	0.4848	0.7574	0.3165	-1.931
Mof_H 	H 	0.4752	0.725	0.3237	0.267
Mof_F 	F 	0.4687	0.7751	0.3964	5.952
Mof_C 	C 	0.9838	0.2933	0.3528	4.08
Mof_H 	H 	0.9726	0.286	0.3847	-7.548
Mof_C 	C 	0.9848	0.2574	0.3165	-2.166
Mof_H 	H 	0.9752	0.225	0.3237	0.341
Mof_F 	F 	0.9687	0.2751	0.3964	5.841
Mof_C 	C 	0.9838	0.7933	0.8528	4.082
Mof_H 	H 	0.9726	0.786	0.8847	-7.457
Mof_C 	C 	0.9848	0.7574	0.8165	-2.301
Mof_H 	H 	0.9752	0.725	0.8237	0.386
Mof_F 	F 	0.9687	0.7751	0.8964	5.756
Mof_C 	C 	0.5162	0.2933	0.1472	4.066
Mof_H 	H 	0.5274	0.286	0.1153	-7.67
Mof_C 	C 	0.5152	0.2574	0.1835	-1.947
Mof_H 	H 	0.5248	0.225	0.1763	0.27
Mof_F 	F 	0.5313	0.2751	0.1036	5.963
Mof_C 	C 	0.5162	0.7933	0.6472	4.051
Mof_H 	H 	0.5274	0.786	0.6153	-7.661
Mof_C 	C 	0.5152	0.7574	0.6835	-1.913
Mof_H 	H 	0.5248	0.725	0.6763	0.262
Mof_F 	F 	0.5313	0.7751	0.6036	5.962
Mof_C 	C 	0.0162	0.2933	0.6472	4.021
Mof_H 	H 	0.0274	0.286	0.6153	-7.787
Mof_C 	C 	0.0152	0.2574	0.6835	-1.643
Mof_H 	H 	0.0248	0.225	0.6763	0.174
Mof_F 	F 	0.0313	0.2751	0.6036	6.093
Mof_C 	C 	0.0162	0.7933	0.1472	4.031
Mof_H 	H 	0.0274	0.786	0.1153	-7.813
Mof_C 	C 	0.0152	0.7574	0.1835	-1.652
Mof_H 	H 	0.0248	0.725	0.1763	0.176
Mof_F 	F 	0.0313	0.7751	0.1036	6.113
Mof_C 	C 	0.5162	0.7067	0.8528	4.036
Mof_H 	H 	0.5274	0.714	0.8847	-7.619
Mof_C 	C 	0.5152	0.7426	0.8165	-1.913
Mof_H 	H 	0.5248	0.775	0.8237	0.264
Mof_F 	F 	0.5313	0.7249	0.8964	5.93
Mof_C 	C 	0.5162	0.2067	0.3528	4.052
Mof_H 	H 	0.5274	0.214	0.3847	-7.634
Mof_C 	C 	0.5152	0.2426	0.3165	-1.949
Mof_H 	H 	0.5248	0.275	0.3237	0.272
Mof_F 	F 	0.5313	0.2249	0.3964	5.935
Mof_C 	C 	0.0162	0.7067	0.3528	4.017
Mof_H 	H 	0.0274	0.714	0.3847	-7.773
Mof_C 	C 	0.0152	0.7426	0.3165	-1.645
Mof_H 	H 	0.0248	0.775	0.3237	0.177
Mof_F 	F 	0.0313	0.7249	0.3964	6.082
Mof_C 	C 	0.0162	0.2067	0.8528	4.01
Mof_H 	H 	0.0274	0.214	0.8847	-7.752
Mof_C 	C 	0.0152	0.2426	0.8165	-1.643
Mof_H 	H 	0.0248	0.275	0.8237	0.176
Mof_F 	F 	0.0313	0.2249	0.8964	6.066
Mof_C 	C 	0.1472	0.4838	0.7067	4.067
Mof_H 	H 	0.1153	0.4726	0.714	-7.648
Mof_C 	C 	0.1835	0.4848	0.7426	-1.985
Mof_H 	H 	0.1763	0.4752	0.775	0.283
Mof_F 	F 	0.1036	0.4687	0.7249	5.942
Mof_C 	C 	0.1472	0.9838	0.2067	4.089
Mof_H 	H 	0.1153	0.9726	0.214	-7.554
Mof_C 	C 	0.1835	0.9848	0.2426	-2.182
Mof_H 	H 	0.1763	0.9752	0.275	0.345
Mof_F 	F 	0.1036	0.9687	0.2249	5.842
Mof_C 	C 	0.6472	0.4838	0.2067	4.057
Mof_H 	H 	0.6153	0.4726	0.214	-7.621
Mof_C 	C 	0.6835	0.4848	0.2426	-1.979
Mof_H 	H 	0.6763	0.4752	0.275	0.282
Mof_F 	F 	0.6036	0.4687	0.2249	5.921
Mof_C 	C 	0.6472	0.9838	0.7067	4.094
Mof_H 	H 	0.6153	0.9726	0.714	-7.467
Mof_C 	C 	0.6835	0.9848	0.7426	-2.322
Mof_H 	H 	0.6763	0.9752	0.775	0.393
Mof_F 	F 	0.6036	0.9687	0.7249	5.759
Mof_C 	C 	0.8528	0.4838	0.2933	4.046
Mof_H 	H 	0.8847	0.4726	0.286	-7.633
Mof_C 	C 	0.8165	0.4848	0.2574	-1.926
Mof_H 	H 	0.8237	0.4752	0.225	0.265
Mof_F 	F 	0.8964	0.4687	0.2751	5.938
Mof_C 	C 	0.8528	0.9838	0.7933	4.082
Mof_H 	H 	0.8847	0.9726	0.786	-7.457
Mof_C 	C 	0.8165	0.9848	0.7574	-2.301
Mof_H 	H 	0.8237	0.9752	0.725	0.386
Mof_F 	F 	0.8964	0.9687	0.7751	5.756
Mof_C 	C 	0.3528	0.4838	0.7933	4.053
Mof_H 	H 	0.3847	0.4726	0.786	-7.652
Mof_C 	C 	0.3165	0.4848	0.7574	-1.931
Mof_H 	H 	0.3237	0.4752	0.725	0.267
Mof_F 	F 	0.3964	0.4687	0.7751	5.952
Mof_C 	C 	0.3528	0.9838	0.2933	4.08
Mof_H 	H 	0.3847	0.9726	0.286	-7.548
Mof_C 	C 	0.3165	0.9848	0.2574	-2.166
Mof_H 	H 	0.3237	0.9752	0.225	0.341
Mof_F 	F 	0.3964	0.9687	0.2751	5.841
Mof_C 	C 	0.1472	0.5162	0.2933	4.066
Mof_H 	H 	0.1153	0.5274	0.286	-7.67
Mof_C 	C 	0.1835	0.5152	0.2574	-1.947
Mof_H 	H 	0.1763	0.5248	0.225	0.27
Mof_F 	F 	0.1036	0.5313	0.2751	5.963
Mof_C 	C 	0.1472	0.0162	0.7933	4.031
Mof_H 	H 	0.1153	0.0274	0.786	-7.813
Mof_C 	C 	0.1835	0.0152	0.7574	-1.652
Mof_H 	H 	0.1763	0.0248	0.725	0.176
Mof_F 	F 	0.1036	0.0313	0.7751	6.113
Mof_C 	C 	0.6472	0.5162	0.7933	4.051
Mof_H 	H 	0.6153	0.5274	0.786	-7.661
Mof_C 	C 	0.6835	0.5152	0.7574	-1.913
Mof_H 	H 	0.6763	0.5248	0.725	0.262
Mof_F 	F 	0.6036	0.5313	0.7751	5.962
Mof_C 	C 	0.6472	0.0162	0.2933	4.021
Mof_H 	H 	0.6153	0.0274	0.286	-7.787
Mof_C 	C 	0.6835	0.0152	0.2574	-1.643
Mof_H 	H 	0.6763	0.0248	0.225	0.174
Mof_F 	F 	0.6036	0.0313	0.2751	6.093
Mof_C 	C 	0.8528	0.5162	0.7067	4.036
Mof_H 	H 	0.8847	0.5274	0.714	-7.619
Mof_C 	C 	0.8165	0.5152	0.7426	-1.913
Mof_H 	H 	0.8237	0.5248	0.775	0.264
Mof_F 	F 	0.8964	0.5313	0.7249	5.93
Mof_C 	C 	0.8528	0.0162	0.2067	4.01
Mof_H 	H 	0.8847	0.0274	0.214	-7.752
Mof_C 	C 	0.8165	0.0152	0.2426	-1.643
Mof_H 	H 	0.8237	0.0248	0.275	0.176
Mof_F 	F 	0.8964	0.0313	0.2249	6.066
Mof_C 	C 	0.3528	0.5162	0.2067	4.052
Mof_H 	H 	0.3847	0.5274	0.214	-7.634
Mof_C 	C 	0.3165	0.5152	0.2426	-1.949
Mof_H 	H 	0.3237	0.5248	0.275	0.272
Mof_F 	F 	0.3964	0.5313	0.2249	5.935
Mof_C 	C 	0.3528	0.0162	0.7067	4.017
Mof_H 	H 	0.3847	0.0274	0.714	-7.773
Mof_C 	C 	0.3165	0.0152	0.7426	-1.645
Mof_H 	H 	0.3237	0.0248	0.775	0.177
Mof_F 	F 	0.3964	0.0313	0.7249	6.082
Mof_C 	C 	0.1472	0.7067	0.5162	4.06
Mof_H 	H 	0.1153	0.714	0.5274	-7.684
Mof_C 	C 	0.1835	0.7426	0.5152	-1.912
Mof_H 	H 	0.1763	0.775	0.5248	0.26
Mof_F 	F 	0.1036	0.7249	0.5313	5.978
Mof_C 	C 	0.1472	0.2067	0.0162	4.035
Mof_H 	H 	0.1153	0.214	0.0274	-7.769
Mof_C 	C 	0.1835	0.2426	0.0152	-1.716
Mof_H 	H 	0.1763	0.275	0.0248	0.197
Mof_F 	F 	0.1036	0.2249	0.0313	6.069
Mof_C 	C 	0.6472	0.7067	0.0162	4.009
Mof_H 	H 	0.6153	0.714	0.0274	-7.815
Mof_C 	C 	0.6835	0.7426	0.0152	-1.567
Mof_H 	H 	0.6763	0.775	0.0248	0.152
Mof_F 	F 	0.6036	0.7249	0.0313	6.125
Mof_C 	C 	0.6472	0.2067	0.5162	4.049
Mof_H 	H 	0.6153	0.214	0.5274	-7.655
Mof_C 	C 	0.6835	0.2426	0.5152	-1.91
Mof_H 	H 	0.6763	0.275	0.5248	0.26
Mof_F 	F 	0.6036	0.2249	0.5313	5.956
Mof_C 	C 	0.8528	0.2933	0.5162	4.046
Mof_H 	H 	0.8847	0.286	0.5274	-7.618
Mof_C 	C 	0.8165	0.2574	0.5152	-1.952
Mof_H 	H 	0.8237	0.225	0.5248	0.274
Mof_F 	F 	0.8964	0.2751	0.5313	5.924
Mof_C 	C 	0.8528	0.7933	0.0162	4.002
Mof_H 	H 	0.8847	0.786	0.0274	-7.788
Mof_C 	C 	0.8165	0.7574	0.0152	-1.576
Mof_H 	H 	0.8237	0.725	0.0248	0.155
Mof_F 	F 	0.8964	0.7751	0.0313	6.104
Mof_C 	C 	0.3528	0.2933	0.0162	4.03
Mof_H 	H 	0.3847	0.286	0.0274	-7.749
Mof_C 	C 	0.3165	0.2574	0.0152	-1.723
Mof_H 	H 	0.3237	0.225	0.0248	0.199
Mof_F 	F 	0.3964	0.2751	0.0313	6.054
Mof_C 	C 	0.3528	0.7933	0.5162	4.055
Mof_H 	H 	0.3847	0.786	0.5274	-7.64
Mof_C 	C 	0.3165	0.7574	0.5152	-1.953
Mof_H 	H 	0.3237	0.725	0.5248	0.274
Mof_F 	F 	0.3964	0.7751	0.5313	5.94
Mof_C 	C 	0.1472	0.2933	0.4838	4.063
Mof_H 	H 	0.1153	0.286	0.4726	-7.669
Mof_C 	C 	0.1835	0.2574	0.4848	-1.948
Mof_H 	H 	0.1763	0.225	0.4752	0.27
Mof_F 	F 	0.1036	0.2751	0.4687	5.963
Mof_C 	C 	0.1472	0.7933	0.9838	4.099
Mof_H 	H 	0.1153	0.786	0.9726	-7.54
Mof_C 	C 	0.1835	0.7574	0.9848	-2.247
Mof_H 	H 	0.1763	0.725	0.9752	0.366
Mof_F 	F 	0.1036	0.7751	0.9687	5.825
Mof_C 	C 	0.6472	0.2933	0.9838	4.088
Mof_H 	H 	0.6153	0.286	0.9726	-7.51
Mof_C 	C 	0.6835	0.2574	0.9848	-2.246
Mof_H 	H 	0.6763	0.225	0.9752	0.366
Mof_F 	F 	0.6036	0.2751	0.9687	5.803
Mof_C 	C 	0.6472	0.7933	0.4838	4.057
Mof_H 	H 	0.6153	0.786	0.4726	-7.634
Mof_C 	C 	0.6835	0.7574	0.4848	-1.971
Mof_H 	H 	0.6763	0.725	0.4752	0.28
Mof_F 	F 	0.6036	0.7751	0.4687	5.934
Mof_C 	C 	0.8528	0.7067	0.4838	4.044
Mof_H 	H 	0.8847	0.714	0.4726	-7.599
Mof_C 	C 	0.8165	0.7426	0.4848	-1.96
Mof_H 	H 	0.8237	0.775	0.4752	0.279
Mof_F 	F 	0.8964	0.7249	0.4687	5.907
Mof_C 	C 	0.8528	0.2067	0.9838	4.076
Mof_H 	H 	0.8847	0.214	0.9726	-7.479
Mof_C 	C 	0.8165	0.2426	0.9848	-2.239
Mof_H 	H 	0.8237	0.275	0.9752	0.366
Mof_F 	F 	0.8964	0.2249	0.9687	5.779
Mof_C 	C 	0.3528	0.7067	0.9838	4.084
Mof_H 	H 	0.3847	0.714	0.9726	-7.501
Mof_C 	C 	0.3165	0.7426	0.9848	-2.241
Mof_H 	H 	0.3237	0.775	0.9752	0.366
Mof_F 	F 	0.3964	0.7249	0.9687	5.796
Mof_C 	C 	0.3528	0.2067	0.4838	4.052
Mof_H 	H 	0.3847	0.214	0.4726	-7.64
Mof_C 	C 	0.3165	0.2426	0.4848	-1.938
Mof_H 	H 	0.3237	0.275	0.4752	0.269
Mof_F 	F 	0.3964	0.2249	0.4687	5.94
Mof_C 	C 	0.7067	0.4838	0.8528	4.044
Mof_H 	H 	0.714	0.4726	0.8847	-7.599
Mof_C 	C 	0.7426	0.4848	0.8165	-1.96
Mof_H 	H 	0.775	0.4752	0.8237	0.279
Mof_F 	F 	0.7249	0.4687	0.8964	5.907
Mof_C 	C 	0.7067	0.9838	0.3528	4.084
Mof_H 	H 	0.714	0.9726	0.3847	-7.501
Mof_C 	C 	0.7426	0.9848	0.3165	-2.241
Mof_H 	H 	0.775	0.9752	0.3237	0.366
Mof_F 	F 	0.7249	0.9687	0.3964	5.796
Mof_C 	C 	0.2067	0.4838	0.3528	4.052
Mof_H 	H 	0.214	0.4726	0.3847	-7.64
Mof_C 	C 	0.2426	0.4848	0.3165	-1.938
Mof_H 	H 	0.275	0.4752	0.3237	0.269
Mof_F 	F 	0.2249	0.4687	0.3964	5.94
Mof_C 	C 	0.2067	0.9838	0.8528	4.076
Mof_H 	H 	0.214	0.9726	0.8847	-7.479
Mof_C 	C 	0.2426	0.9848	0.8165	-2.239
Mof_H 	H 	0.275	0.9752	0.8237	0.366
Mof_F 	F 	0.2249	0.9687	0.8964	5.779
Mof_C 	C 	0.2933	0.4838	0.1472	4.063
Mof_H 	H 	0.286	0.4726	0.1153	-7.669
Mof_C 	C 	0.2574	0.4848	0.1835	-1.948
Mof_H 	H 	0.225	0.4752	0.1763	0.27
Mof_F 	F 	0.2751	0.4687	0.1036	5.963
Mof_C 	C 	0.2933	0.9838	0.6472	4.088
Mof_H 	H 	0.286	0.9726	0.6153	-7.51
Mof_C 	C 	0.2574	0.9848	0.6835	-2.246
Mof_H 	H 	0.225	0.9752	0.6763	0.366
Mof_F 	F 	0.2751	0.9687	0.6036	5.803
Mof_C 	C 	0.7933	0.4838	0.6472	4.057
Mof_H 	H 	0.786	0.4726	0.6153	-7.634
Mof_C 	C 	0.7574	0.4848	0.6835	-1.971
Mof_H 	H 	0.725	0.4752	0.6763	0.28
Mof_F 	F 	0.7751	0.4687	0.6036	5.934
Mof_C 	C 	0.7933	0.9838	0.1472	4.099
Mof_H 	H 	0.786	0.9726	0.1153	-7.54
Mof_C 	C 	0.7574	0.9848	0.1835	-2.247
Mof_H 	H 	0.725	0.9752	0.1763	0.366
Mof_F 	F 	0.7751	0.9687	0.1036	5.825
Mof_C 	C 	0.2933	0.5162	0.8528	4.046
Mof_H 	H 	0.286	0.5274	0.8847	-7.618
Mof_C 	C 	0.2574	0.5152	0.8165	-1.952
Mof_H 	H 	0.225	0.5248	0.8237	0.274
Mof_F 	F 	0.2751	0.5313	0.8964	5.924
Mof_C 	C 	0.2933	0.0162	0.3528	4.03
Mof_H 	H 	0.286	0.0274	0.3847	-7.749
Mof_C 	C 	0.2574	0.0152	0.3165	-1.723
Mof_H 	H 	0.225	0.0248	0.3237	0.199
Mof_F 	F 	0.2751	0.0313	0.3964	6.054
Mof_C 	C 	0.7933	0.5162	0.3528	4.055
Mof_H 	H 	0.786	0.5274	0.3847	-7.64
Mof_C 	C 	0.7574	0.5152	0.3165	-1.953
Mof_H 	H 	0.725	0.5248	0.3237	0.274
Mof_F 	F 	0.7751	0.5313	0.3964	5.94
Mof_C 	C 	0.7933	0.0162	0.8528	4.002
Mof_H 	H 	0.786	0.0274	0.8847	-7.788
Mof_C 	C 	0.7574	0.0152	0.8165	-1.576
Mof_H 	H 	0.725	0.0248	0.8237	0.155
Mof_F 	F 	0.7751	0.0313	0.8964	6.104
Mof_C 	C 	0.7067	0.5162	0.1472	4.06
Mof_H 	H 	0.714	0.5274	0.1153	-7.684
Mof_C 	C 	0.7426	0.5152	0.1835	-1.912
Mof_H 	H 	0.775	0.5248	0.1763	0.26
Mof_F 	F 	0.7249	0.5313	0.1036	5.978
Mof_C 	C 	0.7067	0.0162	0.6472	4.009
Mof_H 	H 	0.714	0.0274	0.6153	-7.815
Mof_C 	C 	0.7426	0.0152	0.6835	-1.567
Mof_H 	H 	0.775	0.0248	0.6763	0.152
Mof_F 	F 	0.7249	0.0313	0.6036	6.125
Mof_C 	C 	0.2067	0.5162	0.6472	4.049
Mof_H 	H 	0.214	0.5274	0.6153	-7.655
Mof_C 	C 	0.2426	0.5152	0.6835	-1.91
Mof_H 	H 	0.275	0.5248	0.6763	0.26
Mof_F 	F 	0.2249	0.5313	0.6036	5.956
Mof_C 	C 	0.2067	0.0162	0.1472	4.035
Mof_H 	H 	0.214	0.0274	0.1153	-7.769
Mof_C 	C 	0.2426	0.0152	0.1835	-1.716
Mof_H 	H 	0.275	0.0248	0.1763	0.197
Mof_F 	F 	0.2249	0.0313	0.1036	6.069
Mof_C 	C 	0.4838	0.1472	0.2933	4.063
Mof_H 	H 	0.4726	0.1153	0.286	-7.669
Mof_C 	C 	0.4848	0.1835	0.2574	-1.948
Mof_H 	H 	0.4752	0.1763	0.225	0.27
Mof_F 	F 	0.4687	0.1036	0.2751	5.963
Mof_C 	C 	0.4838	0.6472	0.7933	4.057
Mof_H 	H 	0.4726	0.6153	0.786	-7.634
Mof_C 	C 	0.4848	0.6835	0.7574	-1.971
Mof_H 	H 	0.4752	0.6763	0.725	0.28
Mof_F 	F 	0.4687	0.6036	0.7751	5.934
Mof_C 	C 	0.9838	0.1472	0.7933	4.099
Mof_H 	H 	0.9726	0.1153	0.786	-7.54
Mof_C 	C 	0.9848	0.1835	0.7574	-2.247
Mof_H 	H 	0.9752	0.1763	0.725	0.366
Mof_F 	F 	0.9687	0.1036	0.7751	5.825
Mof_C 	C 	0.9838	0.6472	0.2933	4.088
Mof_H 	H 	0.9726	0.6153	0.286	-7.51
Mof_C 	C 	0.9848	0.6835	0.2574	-2.246
Mof_H 	H 	0.9752	0.6763	0.225	0.366
Mof_F 	F 	0.9687	0.6036	0.2751	5.803
Mof_C 	C 	0.4838	0.8528	0.7067	4.044
Mof_H 	H 	0.4726	0.8847	0.714	-7.599
Mof_C 	C 	0.4848	0.8165	0.7426	-1.96
Mof_H 	H 	0.4752	0.8237	0.775	0.279
Mof_F 	F 	0.4687	0.8964	0.7249	5.907
Mof_C 	C 	0.4838	0.3528	0.2067	4.052
Mof_H 	H 	0.4726	0.3847	0.214	-7.64
Mof_C 	C 	0.4848	0.3165	0.2426	-1.938
Mof_H 	H 	0.4752	0.3237	0.275	0.269
Mof_F 	F 	0.4687	0.3964	0.2249	5.94
Mof_C 	C 	0.9838	0.8528	0.2067	4.076
Mof_H 	H 	0.9726	0.8847	0.214	-7.479
Mof_C 	C 	0.9848	0.8165	0.2426	-2.239
Mof_H 	H 	0.9752	0.8237	0.275	0.366
Mof_F 	F 	0.9687	0.8964	0.2249	5.779
Mof_C 	C 	0.9838	0.3528	0.7067	4.084
Mof_H 	H 	0.9726	0.3847	0.714	-7.501
Mof_C 	C 	0.9848	0.3165	0.7426	-2.241
Mof_H 	H 	0.9752	0.3237	0.775	0.366
Mof_F 	F 	0.9687	0.3964	0.7249	5.796
Mof_C 	C 	0.5162	0.1472	0.7067	4.06
Mof_H 	H 	0.5274	0.1153	0.714	-7.684
Mof_C 	C 	0.5152	0.1835	0.7426	-1.912
Mof_H 	H 	0.5248	0.1763	0.775	0.26
Mof_F 	F 	0.5313	0.1036	0.7249	5.978
Mof_C 	C 	0.5162	0.6472	0.2067	4.049
Mof_H 	H 	0.5274	0.6153	0.214	-7.655
Mof_C 	C 	0.5152	0.6835	0.2426	-1.91
Mof_H 	H 	0.5248	0.6763	0.275	0.26
Mof_F 	F 	0.5313	0.6036	0.2249	5.956
Mof_C 	C 	0.0162	0.1472	0.2067	4.035
Mof_H 	H 	0.0274	0.1153	0.214	-7.769
Mof_C 	C 	0.0152	0.1835	0.2426	-1.716
Mof_H 	H 	0.0248	0.1763	0.275	0.197
Mof_F 	F 	0.0313	0.1036	0.2249	6.069
Mof_C 	C 	0.0162	0.6472	0.7067	4.009
Mof_H 	H 	0.0274	0.6153	0.714	-7.815
Mof_C 	C 	0.0152	0.6835	0.7426	-1.567
Mof_H 	H 	0.0248	0.6763	0.775	0.152
Mof_F 	F 	0.0313	0.6036	0.7249	6.125
Mof_C 	C 	0.5162	0.8528	0.2933	4.046
Mof_H 	H 	0.5274	0.8847	0.286	-7.618
Mof_C 	C 	0.5152	0.8165	0.2574	-1.952
Mof_H 	H 	0.5248	0.8237	0.225	0.274
Mof_F 	F 	0.5313	0.8964	0.2751	5.924
Mof_C 	C 	0.5162	0.3528	0.7933	4.055
Mof_H 	H 	0.5274	0.3847	0.786	-7.64
Mof_C 	C 	0.5152	0.3165	0.7574	-1.953
Mof_H 	H 	0.5248	0.3237	0.725	0.274
Mof_F 	F 	0.5313	0.3964	0.7751	5.94
Mof_C 	C 	0.0162	0.8528	0.7933	4.002
Mof_H 	H 	0.0274	0.8847	0.786	-7.788
Mof_C 	C 	0.0152	0.8165	0.7574	-1.576
Mof_H 	H 	0.0248	0.8237	0.725	0.155
Mof_F 	F 	0.0313	0.8964	0.7751	6.104
Mof_C 	C 	0.0162	0.3528	0.2933	4.03
Mof_H 	H 	0.0274	0.3847	0.286	-7.749
Mof_C 	C 	0.0152	0.3165	0.2574	-1.723
Mof_H 	H 	0.0248	0.3237	0.225	0.199
Mof_F 	F 	0.0313	0.3964	0.2751	6.054
Mof_Tb	Tb	0.5	0.90003	0.5	2.684
Mof_Tb	Tb	0.5	0.40003	-0	2.696
Mof_Tb	Tb	-0	0.90003	-0	2.71
Mof_Tb	Tb	-2.99351e-33	0.40003	0.5	2.696
Mof_Tb	Tb	0.5	0.09997	0.5	2.685
Mof_Tb	Tb	0.5	0.59997	-0	2.698
Mof_Tb	Tb	-0	0.09997	-0	2.702
Mof_Tb	Tb	-2.99351e-33	0.59997	0.5	2.698
Mof_Tb	Tb	0.5	0.5	0.90003	2.684
Mof_Tb	Tb	0.5	0	0.40003	2.696
Mof_Tb	Tb	-3.36833e-33	0.5	0.40003	2.696
Mof_Tb	Tb	3.37457e-33	9.73641e-33	0.90003	2.71
Mof_Tb	Tb	0.5	0.5	0.09997	2.685
Mof_Tb	Tb	0.5	4.8682e-33	0.59997	2.698
Mof_Tb	Tb	-2.61868e-33	0.5	0.59997	2.698
Mof_Tb	Tb	3.74827e-34	1.21705e-33	0.09997	2.702
Mof_Tb	Tb	0.90003	0.5	0.5	2.684
Mof_Tb	Tb	0.90003	0	-0	2.71
Mof_Tb	Tb	0.40003	0.5	-0	2.696
Mof_Tb	Tb	0.40003	0	0.5	2.696
Mof_Tb	Tb	0.09997	0.5	0.5	2.685
Mof_Tb	Tb	0.09997	0	-0	2.702
Mof_Tb	Tb	0.59997	0.5	-0	2.698
Mof_Tb	Tb	0.59997	0	0.5	2.698
Mof_O 	O 	0.54594	0.95406	0.45406	-0.962
Mof_O 	O 	0.45406	0.04594	0.45406	-0.959
Mof_O 	O 	0.45406	0.95406	0.54594	-0.962
Mof_O 	O 	0.54594	0.04594	0.54594	-0.959
Mof_O 	O 	0.45406	0.54594	0.95406	-0.962
Mof_O 	O 	0.45406	0.45406	0.04594	-0.959
Mof_O 	O 	0.54594	0.45406	0.95406	-0.962
Mof_O 	O 	0.54594	0.54594	0.04594	-0.959
Mof_O 	O 	0.95406	0.45406	0.54594	-0.962
Mof_O 	O 	0.95406	0.95406	0.04594	-0.967
Mof_O 	O 	0.04594	0.45406	0.45406	-0.959
Mof_O 	O 	0.04594	0.95406	0.95406	-0.967
Mof_O 	O 	0.95406	0.54594	0.45406	-0.962
Mof_O 	O 	0.95406	0.04594	0.95406	-0.967
Mof_O 	O 	0.04594	0.54594	0.54594	-0.959
Mof_O 	O 	0.04594	0.04594	0.04594	-0.961
Mof_O 	O 	0.95406	0.54594	0.54594	-0.962
Mof_O 	O 	0.95406	0.04594	0.04594	-0.963
Mof_O 	O 	0.04594	0.45406	0.54594	-0.959
Mof_O 	O 	0.04594	0.95406	0.04594	-0.963
Mof_O 	O 	0.95406	0.45406	0.45406	-0.961
Mof_O 	O 	0.95406	0.95406	0.95406	-0.973
Mof_O 	O 	0.04594	0.54594	0.45406	-0.959
Mof_O 	O 	0.04594	0.04594	0.95406	-0.963
Mof_O 	O 	0.54594	0.45406	0.04594	-0.959
Mof_O 	O 	0.45406	0.45406	0.95406	-0.961
Mof_O 	O 	0.45406	0.54594	0.04594	-0.959
Mof_O 	O 	0.54594	0.54594	0.95406	-0.962
Mof_O 	O 	0.45406	0.95406	0.45406	-0.961
Mof_O 	O 	0.45406	0.04594	0.54594	-0.959
Mof_O 	O 	0.54594	0.95406	0.54594	-0.962
Mof_O 	O 	0.54594	0.04594	0.45406	-0.959
Mof_O 	O 	0.4234	0.86437	0.5	-1.213
Mof_O 	O 	0.4234	0.36437	-0	-1.213
Mof_O 	O 	0.9234	0.86437	-0	-1.213
Mof_O 	O 	0.9234	0.36437	0.5	-1.214
Mof_O 	O 	0.5766	0.13563	0.5	-1.214
Mof_O 	O 	0.5766	0.63563	-0	-1.212
Mof_O 	O 	0.0766	0.13563	-0	-1.216
Mof_O 	O 	0.0766	0.63563	0.5	-1.216
Mof_O 	O 	0.5766	0.86437	0.5	-1.212
Mof_O 	O 	0.5766	0.36437	-0	-1.212
Mof_O 	O 	0.0766	0.86437	-0	-1.216
Mof_O 	O 	0.0766	0.36437	0.5	-1.216
Mof_O 	O 	0.4234	0.13563	0.5	-1.214
Mof_O 	O 	0.4234	0.63563	-0	-1.212
Mof_O 	O 	0.9234	0.13563	-0	-1.213
Mof_O 	O 	0.9234	0.63563	0.5	-1.214
Mof_O 	O 	0.5	0.4234	0.86437	-1.213
Mof_O 	O 	0.5	0.9234	0.36437	-1.214
Mof_O 	O 	6.23437e-33	0.4234	0.36437	-1.213
Mof_O 	O 	3.24087e-33	0.9234	0.86437	-1.213
Mof_O 	O 	0.5	0.5766	0.13563	-1.214
Mof_O 	O 	0.5	0.0766	0.63563	-1.216
Mof_O 	O 	7.25144e-33	0.5766	0.63563	-1.212
Mof_O 	O 	-7.0852e-34	0.0766	0.13563	-1.216
Mof_O 	O 	0.5	0.5766	0.86437	-1.212
Mof_O 	O 	0.5	0.0766	0.36437	-1.216
Mof_O 	O 	1.36617e-33	0.5766	0.36437	-1.212
Mof_O 	O 	3.24087e-33	0.0766	0.86437	-1.216
Mof_O 	O 	0.5	0.4234	0.13563	-1.214
Mof_O 	O 	0.5	0.9234	0.63563	-1.214
Mof_O 	O 	2.38323e-33	0.4234	0.63563	-1.212
Mof_O 	O 	-3.14262e-33	0.9234	0.13563	-1.213
Mof_O 	O 	0.86437	0.5	0.4234	-1.213
Mof_O 	O 	0.86437	9.73641e-33	0.9234	-1.213
Mof_O 	O 	0.36437	0.5	0.9234	-1.214
Mof_O 	O 	0.36437	4.8682e-33	0.4234	-1.213
Mof_O 	O 	0.13563	0.5	0.5766	-1.214
Mof_O 	O 	0.13563	0	0.0766	-1.216
Mof_O 	O 	0.63563	0.5	0.0766	-1.216
Mof_O 	O 	0.63563	9.73641e-33	0.5766	-1.212
Mof_O 	O 	0.86437	0.5	0.5766	-1.212
Mof_O 	O 	0.86437	0	0.0766	-1.216
Mof_O 	O 	0.36437	0.5	0.0766	-1.216
Mof_O 	O 	0.36437	9.73641e-33	0.5766	-1.212
Mof_O 	O 	0.13563	0.5	0.4234	-1.214
Mof_O 	O 	0.13563	9.73641e-33	0.9234	-1.213
Mof_O 	O 	0.63563	0.5	0.9234	-1.214
Mof_O 	O 	0.63563	4.8682e-33	0.4234	-1.212
Mof_O 	O 	0.86437	0.4234	0.5	-1.213
Mof_O 	O 	0.86437	0.9234	-0	-1.213
Mof_O 	O 	0.36437	0.4234	-0	-1.213
Mof_O 	O 	0.36437	0.9234	0.5	-1.214
Mof_O 	O 	0.13563	0.5766	0.5	-1.214
Mof_O 	O 	0.13563	0.0766	-0	-1.216
Mof_O 	O 	0.63563	0.5766	-0	-1.212
Mof_O 	O 	0.63563	0.0766	0.5	-1.216
Mof_O 	O 	0.86437	0.5766	0.5	-1.212
Mof_O 	O 	0.86437	0.0766	-0	-1.216
Mof_O 	O 	0.36437	0.5766	-0	-1.212
Mof_O 	O 	0.36437	0.0766	0.5	-1.216
Mof_O 	O 	0.13563	0.4234	0.5	-1.214
Mof_O 	O 	0.13563	0.9234	-0	-1.213
Mof_O 	O 	0.63563	0.4234	-0	-1.212
Mof_O 	O 	0.63563	0.9234	0.5	-1.214
Mof_O 	O 	0.4234	0.5	0.13563	-1.214
Mof_O 	O 	0.4234	0	0.63563	-1.212
Mof_O 	O 	0.9234	0.5	0.63563	-1.214
Mof_O 	O 	0.9234	1.21705e-33	0.13563	-1.213
Mof_O 	O 	0.5766	0.5	0.86437	-1.212
Mof_O 	O 	0.5766	4.8682e-33	0.36437	-1.212
Mof_O 	O 	0.0766	0.5	0.36437	-1.216
Mof_O 	O 	0.0766	9.73641e-33	0.86437	-1.216
Mof_O 	O 	0.5766	0.5	0.13563	-1.214
Mof_O 	O 	0.5766	0	0.63563	-1.212
Mof_O 	O 	0.0766	0.5	0.63563	-1.216
Mof_O 	O 	0.0766	1.21705e-33	0.13563	-1.216
Mof_O 	O 	0.4234	0.5	0.86437	-1.213
Mof_O 	O 	0.4234	4.8682e-33	0.36437	-1.213
Mof_O 	O 	0.9234	0.5	0.36437	-1.214
Mof_O 	O 	0.9234	9.73641e-33	0.86437	-1.213
Mof_O 	O 	0.5	0.86437	0.5766	-1.212
Mof_O 	O 	0.5	0.36437	0.0766	-1.216
Mof_O 	O 	2.87204e-34	0.86437	0.0766	-1.216
Mof_O 	O 	-2.7063e-33	0.36437	0.5766	-1.212
Mof_O 	O 	0.5	0.13563	0.4234	-1.214
Mof_O 	O 	0.5	0.63563	0.9234	-1.214
Mof_O 	O 	-6.27421e-33	0.13563	0.9234	-1.213
Mof_O 	O 	6.4557e-33	0.63563	0.4234	-1.212
Mof_O 	O 	0.5	0.86437	0.4234	-1.213
Mof_O 	O 	0.5	0.36437	0.9234	-1.214
Mof_O 	O 	3.4622e-33	0.86437	0.9234	-1.213
Mof_O 	O 	6.4557e-33	0.36437	0.4234	-1.213
Mof_O 	O 	0.5	0.13563	0.5766	-1.214
Mof_O 	O 	0.5	0.63563	0.0766	-1.216
Mof_O 	O 	-9.29847e-34	0.13563	0.0766	-1.216
Mof_O 	O 	1.18983e-32	0.63563	0.5766	-1.212
Mof_C 	C 	0.3405	0.8405	0.5	-4.982
Mof_C 	C 	0.3808	0.8808	0.5	2.418
Mof_C 	C 	0.2698	0.7698	0.5	1.556
Mof_C 	C 	0.3405	0.3405	-0	-4.986
Mof_C 	C 	0.3808	0.3808	-0	2.42
Mof_C 	C 	0.2698	0.2698	-0	1.562
Mof_C 	C 	0.6595	0.1595	0.5	-4.994
Mof_C 	C 	0.6192	0.1192	0.5	2.421
Mof_C 	C 	0.7302	0.2302	0.5	1.565
Mof_C 	C 	0.6595	0.6595	-0	-4.98
Mof_C 	C 	0.6192	0.6192	-0	2.419
Mof_C 	C 	0.7302	0.7302	-0	1.569
Mof_C 	C 	0.6595	0.8405	0.5	-4.978
Mof_C 	C 	0.6192	0.8808	0.5	2.417
Mof_C 	C 	0.7302	0.7698	0.5	1.559
Mof_C 	C 	0.6595	0.3405	-0	-4.981
Mof_C 	C 	0.6192	0.3808	-0	2.419
Mof_C 	C 	0.7302	0.2698	-0	1.564
Mof_C 	C 	0.3405	0.1595	0.5	-4.994
Mof_C 	C 	0.3808	0.1192	0.5	2.421
Mof_C 	C 	0.2698	0.2302	0.5	1.562
Mof_C 	C 	0.3405	0.6595	-0	-4.981
Mof_C 	C 	0.3808	0.6192	-0	2.419
Mof_C 	C 	0.2698	0.7302	-0	1.564
Mof_C 	C 	0.5	0.3405	0.8405	-4.982
Mof_C 	C 	0.5	0.3808	0.8808	2.418
Mof_C 	C 	0.5	0.2698	0.7698	1.556
Mof_C 	C 	1.27667e-33	0.3405	0.3405	-4.986
Mof_C 	C 	1.42777e-33	0.3808	0.3808	2.42
Mof_C 	C 	3.44569e-33	0.2698	0.2698	1.562
Mof_C 	C 	0.5	0.6595	0.1595	-4.994
Mof_C 	C 	0.5	0.6192	0.1192	2.421
Mof_C 	C 	0.5	0.7302	0.2302	1.565
Mof_C 	C 	2.47273e-33	0.6595	0.6595	-4.98
Mof_C 	C 	-7.41478e-33	0.6192	0.6192	2.419
Mof_C 	C 	2.73781e-33	0.7302	0.7302	1.569
Mof_C 	C 	0.5	0.6595	0.8405	-4.978
Mof_C 	C 	0.5	0.6192	0.8808	2.417
Mof_C 	C 	0.5	0.7302	0.7698	1.559
Mof_C 	C 	3.71077e-33	0.6595	0.3405	-4.981
Mof_C 	C 	-8.30864e-33	0.6192	0.3808	2.419
Mof_C 	C 	8.3139e-33	0.7302	0.2698	1.564
Mof_C 	C 	0.5	0.3405	0.1595	-4.994
Mof_C 	C 	0.5	0.3808	0.1192	2.421
Mof_C 	C 	0.5	0.2698	0.2302	1.562
Mof_C 	C 	2.47273e-33	0.3405	0.6595	-4.981
Mof_C 	C 	-1.2283e-32	0.3808	0.6192	2.419
Mof_C 	C 	2.73781e-33	0.2698	0.7302	1.564
Mof_C 	C 	0.8405	0.5	0.3405	-4.982
Mof_C 	C 	0.8808	0.5	0.3808	2.418
Mof_C 	C 	0.7698	0.5	0.2698	1.556
Mof_C 	C 	0.8405	0	0.8405	-4.966
Mof_C 	C 	0.8808	0	0.8808	2.417
Mof_C 	C 	0.7698	0	0.7698	1.561
Mof_C 	C 	0.1595	0.5	0.6595	-4.994
Mof_C 	C 	0.1192	0.5	0.6192	2.421
Mof_C 	C 	0.2302	0.5	0.7302	1.565
Mof_C 	C 	0.1595	2.4341e-33	0.1595	-4.996
Mof_C 	C 	0.1192	0	0.1192	2.423
Mof_C 	C 	0.2302	2.4341e-33	0.2302	1.568
Mof_C 	C 	0.8405	0.5	0.6595	-4.978
Mof_C 	C 	0.8808	0.5	0.6192	2.417
Mof_C 	C 	0.7698	0.5	0.7302	1.559
Mof_C 	C 	0.8405	2.4341e-33	0.1595	-4.984
Mof_C 	C 	0.8808	0	0.1192	2.421
Mof_C 	C 	0.7698	2.4341e-33	0.2302	1.566
Mof_C 	C 	0.1595	0.5	0.3405	-4.994
Mof_C 	C 	0.1192	0.5	0.3808	2.421
Mof_C 	C 	0.2302	0.5	0.2698	1.562
Mof_C 	C 	0.1595	0	0.8405	-4.984
Mof_C 	C 	0.1192	0	0.8808	2.421
Mof_C 	C 	0.2302	0	0.7698	1.566
Mof_C 	C 	0.8405	0.3405	0.5	-4.982
Mof_C 	C 	0.8808	0.3808	0.5	2.418
Mof_C 	C 	0.7698	0.2698	0.5	1.556
Mof_C 	C 	0.8405	0.8405	-0	-4.966
Mof_C 	C 	0.8808	0.8808	-0	2.417
Mof_C 	C 	0.7698	0.7698	-0	1.561
Mof_C 	C 	0.1595	0.6595	0.5	-4.994
Mof_C 	C 	0.1192	0.6192	0.5	2.421
Mof_C 	C 	0.2302	0.7302	0.5	1.565
Mof_C 	C 	0.1595	0.1595	-0	-4.996
Mof_C 	C 	0.1192	0.1192	-0	2.423
Mof_C 	C 	0.2302	0.2302	-0	1.568
Mof_C 	C 	0.8405	0.6595	0.5	-4.978
Mof_C 	C 	0.8808	0.6192	0.5	2.417
Mof_C 	C 	0.7698	0.7302	0.5	1.559
Mof_C 	C 	0.8405	0.1595	-0	-4.984
Mof_C 	C 	0.8808	0.1192	-0	2.421
Mof_C 	C 	0.7698	0.2302	-0	1.566
Mof_C 	C 	0.1595	0.3405	0.5	-4.994
Mof_C 	C 	0.1192	0.3808	0.5	2.421
Mof_C 	C 	0.2302	0.2698	0.5	1.562
Mof_C 	C 	0.1595	0.8405	-0	-4.984
Mof_C 	C 	0.1192	0.8808	-0	2.421
Mof_C 	C 	0.2302	0.7698	-0	1.566
Mof_C 	C 	0.3405	0.5	0.1595	-4.994
Mof_C 	C 	0.3808	0.5	0.1192	2.421
Mof_C 	C 	0.2698	0.5	0.2302	1.562
Mof_C 	C 	0.3405	4.8682e-33	0.6595	-4.981
Mof_C 	C 	0.3808	0	0.6192	2.419
Mof_C 	C 	0.2698	0	0.7302	1.564
Mof_C 	C 	0.6595	0.5	0.8405	-4.978
Mof_C 	C 	0.6192	0.5	0.8808	2.417
Mof_C 	C 	0.7302	0.5	0.7698	1.559
Mof_C 	C 	0.6595	2.4341e-33	0.3405	-4.981
Mof_C 	C 	0.6192	0	0.3808	2.419
Mof_C 	C 	0.7302	4.8682e-33	0.2698	1.564
Mof_C 	C 	0.6595	0.5	0.1595	-4.994
Mof_C 	C 	0.6192	0.5	0.1192	2.421
Mof_C 	C 	0.7302	0.5	0.2302	1.565
Mof_C 	C 	0.6595	4.8682e-33	0.6595	-4.98
Mof_C 	C 	0.6192	0	0.6192	2.419
Mof_C 	C 	0.7302	0	0.7302	1.569
Mof_C 	C 	0.3405	0.5	0.8405	-4.982
Mof_C 	C 	0.3808	0.5	0.8808	2.418
Mof_C 	C 	0.2698	0.5	0.7698	1.556
Mof_C 	C 	0.3405	2.4341e-33	0.3405	-4.986
Mof_C 	C 	0.3808	0	0.3808	2.42
Mof_C 	C 	0.2698	4.8682e-33	0.2698	1.562
Mof_C 	C 	0.5	0.8405	0.6595	-4.978
Mof_C 	C 	0.5	0.8808	0.6192	2.417
Mof_C 	C 	0.5	0.7698	0.7302	1.559
Mof_C 	C 	-1.83607e-33	0.8405	0.1595	-4.984
Mof_C 	C 	-7.70123e-34	0.8808	0.1192	2.421
Mof_C 	C 	-1.57099e-33	0.7698	0.2302	1.566
Mof_C 	C 	0.5	0.1595	0.3405	-4.994
Mof_C 	C 	0.5	0.1192	0.3808	2.421
Mof_C 	C 	0.5	0.2302	0.2698	1.562
Mof_C 	C 	-6.58504e-33	0.1595	0.8405	-4.984
Mof_C 	C 	3.30247e-33	0.1192	0.8808	2.421
Mof_C 	C 	-6.85012e-33	0.2302	0.7698	1.566
Mof_C 	C 	0.5	0.8405	0.3405	-4.982
Mof_C 	C 	0.5	0.8808	0.3808	2.418
Mof_C 	C 	0.5	0.7698	0.2698	1.556
Mof_C 	C 	-1.63214e-32	0.8405	0.8405	-4.966
Mof_C 	C 	3.30247e-33	0.8808	0.8808	2.417
Mof_C 	C 	2.88629e-33	0.7698	0.7698	1.561
Mof_C 	C 	0.5	0.1595	0.6595	-4.994
Mof_C 	C 	0.5	0.1192	0.6192	2.421
Mof_C 	C 	0.5	0.2302	0.7302	1.565
Mof_C 	C 	3.03213e-33	0.1595	0.1595	-4.996
Mof_C 	C 	4.46928e-34	0.1192	0.1192	2.423
Mof_C 	C 	8.63112e-34	0.2302	0.2302	1.568
_end
