data_functionalizedCrystal
_audit_creation_method	'EQeq! by Chris Wilmer'
_symmetry_space_group_name_H-M	'P1'
_symmetry_Int_Tables_number	1
_symmetry_cell_setting	triclinic
loop_
_symmetry_equiv_pos_as_xyz
  x,y,z
_cell_length_a	13.1007
_cell_length_b	13.1007
_cell_length_c	25.985
_cell_angle_alpha	90
_cell_angle_beta	90
_cell_angle_gamma	120
loop_
_atom_site_label
_atom_site_type_symbol
_atom_site_fract_x
_atom_site_fract_y
_atom_site_fract_z
_atom_site_charge
Mof_N 	N 	0.8497	0.8873	0.45173	-0.225
Mof_C 	C 	0.8482	0.8323	0.40865	0.086
Mof_C 	C 	0.7347	0.8549	0.46018	0.004
Mof_N 	N 	0.7392	0.7668	0.38952	-0.117
Mof_H 	H 	0.91679	0.83865	0.39307	0
Mof_C 	C 	0.666	0.7808	0.42208	-0.004
Mof_H 	H 	0.70667	0.88025	0.48836	0.021
Mof_C 	C 	0.703	0.701	0.3379	0.043
Mof_H 	H 	0.58289	0.74563	0.41892	0.028
Mof_C 	C 	0.7002	0.5803	0.3498	-0.058
Mof_H 	H 	0.76169	0.74581	0.31072	0.009
Mof_H 	H 	0.62484	0.68636	0.32677	0.032
Mof_C 	C 	0.5625	0.4827	0.3084	-0.05
Mof_H 	H 	0.65103	0.54499	0.38078	-0.006
Mof_H 	H 	0.66018	0.52575	0.32073	0.069
Mof_C 	C 	0.6046	0.5618	0.3563	-0.12
Mof_C 	C 	0.7068	0.687	0.3482	-0.07
Mof_H 	H 	0.62854	0.52314	0.38255	0.079
Mof_H 	H 	0.53694	0.56655	0.3704	0.057
Mof_H 	H 	0.77693	0.68202	0.3382	0.058
Mof_H 	H 	0.68666	0.72161	0.31869	0.006
Mof_N 	N 	0.51637	0.22063	0.78506	-0.232
Mof_C 	C 	0.51487	0.16563	0.74198	0.081
Mof_C 	C 	0.40137	0.18823	0.79351	0
Mof_N 	N 	0.40587	0.10013	0.72285	-0.118
Mof_H 	H 	0.58346	0.17198	0.7264	-0.008
Mof_C 	C 	0.33267	0.11413	0.75541	-0.008
Mof_H 	H 	0.37334	0.21358	0.82169	0.017
Mof_C 	C 	0.36967	0.03433	0.67123	0.032
Mof_H 	H 	0.24956	0.07896	0.75225	0.023
Mof_C 	C 	0.36687	0.91363	0.68313	-0.036
Mof_H 	H 	0.42836	0.07914	0.64405	0.007
Mof_H 	H 	0.29151	0.01969	0.6601	0.024
Mof_C 	C 	0.22917	0.81603	0.64173	-0.059
Mof_H 	H 	0.3177	0.87832	0.71411	-0.003
Mof_H 	H 	0.32685	0.85908	0.65406	0.065
Mof_C 	C 	0.27127	0.89513	0.68963	-0.113
Mof_C 	C 	0.37347	0.02033	0.68153	-0.077
Mof_H 	H 	0.29521	0.85647	0.71588	0.072
Mof_H 	H 	0.20361	0.89988	0.70373	0.059
Mof_H 	H 	0.4436	0.01535	0.67153	0.053
Mof_H 	H 	0.35333	0.05494	0.65202	0.015
Mof_N 	N 	0.18303	0.55397	0.1184	-0.228
Mof_C 	C 	0.18153	0.49897	0.07532	0.083
Mof_C 	C 	0.06803	0.52157	0.12685	-0.028
Mof_N 	N 	0.07253	0.43347	0.05619	-0.131
Mof_H 	H 	0.25012	0.50532	0.05974	-0.008
Mof_C 	C 	0.99933	0.44747	0.08875	0.033
Mof_H 	H 	0.04	0.54692	0.15503	0.025
Mof_C 	C 	0.03633	0.36767	0.00457	0.044
Mof_H 	H 	0.91622	0.4123	0.08559	0.017
Mof_C 	C 	0.03353	0.24697	0.01647	-0.107
Mof_H 	H 	0.09502	0.41248	0.97739	0.009
Mof_H 	H 	0.95817	0.35303	0.99344	0.047
Mof_C 	C 	0.89583	0.14937	0.97507	-0.054
Mof_H 	H 	0.98436	0.21166	0.04745	-0.027
Mof_H 	H 	0.99351	0.19242	0.9874	0.088
Mof_C 	C 	0.93793	0.22847	0.02297	-0.088
Mof_C 	C 	0.04013	0.35367	0.01487	-0.07
Mof_H 	H 	0.96187	0.18981	0.04922	0.107
Mof_H 	H 	0.87027	0.23322	0.03707	0.045
Mof_H 	H 	0.11026	0.34869	0.00487	0.065
Mof_H 	H 	0.01999	0.38828	0.98536	-0.012
Mof_N 	N 	0.1127	0.9624	0.45173	-0.22
Mof_C 	C 	0.1677	0.0159	0.40865	0.048
Mof_C 	C 	0.1451	0.8798	0.46018	0.004
Mof_N 	N 	0.2332	0.9724	0.38952	-0.097
Mof_H 	H 	0.16135	0.07814	0.39307	0
Mof_C 	C 	0.2192	0.8852	0.42208	-0.008
Mof_H 	H 	0.11975	0.82642	0.48836	0.017
Mof_C 	C 	0.299	0.002	0.3379	0.036
Mof_H 	H 	0.25437	0.83726	0.41892	0.029
Mof_C 	C 	0.4197	0.1199	0.3498	-0.023
Mof_H 	H 	0.25419	0.01588	0.31072	-0.005
Mof_H 	H 	0.31364	0.93848	0.32677	0.032
Mof_C 	C 	0.5173	0.0798	0.3084	-0.046
Mof_H 	H 	0.45501	0.10604	0.38078	0.003
Mof_H 	H 	0.47425	0.13443	0.32073	0.059
Mof_C 	C 	0.4382	0.0428	0.3563	-0.153
Mof_C 	C 	0.313	0.0198	0.3482	-0.108
Mof_H 	H 	0.47686	0.1054	0.38255	0.07
Mof_H 	H 	0.43345	0.97039	0.3704	0.076
Mof_H 	H 	0.31798	0.09491	0.3382	0.065
Mof_H 	H 	0.27839	0.96505	0.31869	0.035
Mof_N 	N 	0.77937	0.29573	0.78506	-0.232
Mof_C 	C 	0.83437	0.34923	0.74198	0.085
Mof_C 	C 	0.81177	0.21313	0.79351	0.001
Mof_N 	N 	0.89987	0.30573	0.72285	-0.12
Mof_H 	H 	0.82802	0.41147	0.7264	-0.007
Mof_C 	C 	0.88587	0.21853	0.75541	-0.003
Mof_H 	H 	0.78642	0.15975	0.82169	0.018
Mof_C 	C 	0.96567	0.33533	0.67123	0.053
Mof_H 	H 	0.92104	0.17059	0.75225	0.028
Mof_C 	C 	0.08637	0.45323	0.68313	-0.081
Mof_H 	H 	0.92086	0.34921	0.64405	0.007
Mof_H 	H 	0.98031	0.27181	0.6601	0.038
Mof_C 	C 	0.18397	0.41313	0.64173	-0.058
Mof_H 	H 	0.12168	0.43937	0.71411	-0.01
Mof_H 	H 	0.14092	0.46776	0.65406	0.076
Mof_C 	C 	0.10487	0.37613	0.68963	-0.119
Mof_C 	C 	0.97967	0.35313	0.68153	-0.064
Mof_H 	H 	0.14353	0.43873	0.71588	0.087
Mof_H 	H 	0.10012	0.30372	0.70373	0.051
Mof_H 	H 	0.98465	0.42824	0.67153	0.064
Mof_H 	H 	0.94506	0.29838	0.65202	-0.002
Mof_N 	N 	0.44603	0.62907	0.1184	-0.232
Mof_C 	C 	0.50103	0.68257	0.07532	0.084
Mof_C 	C 	0.47843	0.54647	0.12685	0.002
Mof_N 	N 	0.56653	0.63907	0.05619	-0.118
Mof_H 	H 	0.49468	0.74481	0.05974	-0.007
Mof_C 	C 	0.55253	0.55187	0.08875	-0.005
Mof_H 	H 	0.45308	0.49309	0.15503	0.018
Mof_C 	C 	0.63233	0.66867	0.00457	0.042
Mof_H 	H 	0.5877	0.50393	0.08559	0.028
Mof_C 	C 	0.75303	0.78657	0.01647	-0.055
Mof_H 	H 	0.58752	0.68255	0.97739	0.007
Mof_H 	H 	0.64697	0.60515	0.99344	0.032
Mof_C 	C 	0.85063	0.74647	0.97507	-0.059
Mof_H 	H 	0.78834	0.77271	0.04745	-0.002
Mof_H 	H 	0.80758	0.8011	0.9874	0.072
Mof_C 	C 	0.77153	0.70947	0.02297	-0.119
Mof_C 	C 	0.64633	0.68647	0.01487	-0.071
Mof_H 	H 	0.81019	0.77207	0.04922	0.078
Mof_H 	H 	0.76678	0.63706	0.03707	0.058
Mof_H 	H 	0.65131	0.76158	0.00487	0.058
Mof_H 	H 	0.61172	0.63172	0.98536	0.006
Mof_N 	N 	0.0376	0.1503	0.45173	-0.246
Mof_C 	C 	0.9841	0.1518	0.40865	0.117
Mof_C 	C 	0.1202	0.2653	0.46018	-0.002
Mof_N 	N 	0.0276	0.2608	0.38952	-0.141
Mof_H 	H 	0.92186	0.08321	0.39307	-0.02
Mof_C 	C 	0.1148	0.334	0.42208	-0.004
Mof_H 	H 	0.17358	0.29333	0.48836	0.019
Mof_C 	C 	0.998	0.297	0.3379	0.049
Mof_H 	H 	0.16274	0.41711	0.41892	0.025
Mof_C 	C 	0.8801	0.2998	0.3498	-0.086
Mof_H 	H 	0.98412	0.23831	0.31072	0.017
Mof_H 	H 	0.06152	0.37516	0.32677	0.031
Mof_C 	C 	0.9202	0.4375	0.3084	-0.058
Mof_H 	H 	0.89396	0.34897	0.38078	-0.013
Mof_H 	H 	0.86557	0.33982	0.32073	0.077
Mof_C 	C 	0.9572	0.3954	0.3563	-0.088
Mof_C 	C 	0.9802	0.2932	0.3482	-0.032
Mof_H 	H 	0.8946	0.37146	0.38255	0.086
Mof_H 	H 	0.02961	0.46306	0.3704	0.039
Mof_H 	H 	0.90509	0.22307	0.3382	0.05
Mof_H 	H 	0.03495	0.31334	0.31869	-0.022
Mof_N 	N 	0.70427	0.48363	0.78506	-0.232
Mof_C 	C 	0.65077	0.48513	0.74198	0.083
Mof_C 	C 	0.78687	0.59863	0.79351	0.003
Mof_N 	N 	0.69427	0.59413	0.72285	-0.119
Mof_H 	H 	0.58853	0.41654	0.7264	-0.007
Mof_C 	C 	0.78147	0.66733	0.75541	-0.005
Mof_H 	H 	0.84025	0.62666	0.82169	0.021
Mof_C 	C 	0.66467	0.63033	0.67123	0.043
Mof_H 	H 	0.82941	0.75044	0.75225	0.031
Mof_C 	C 	0.54677	0.63313	0.68313	-0.05
Mof_H 	H 	0.65079	0.57164	0.64405	0.008
Mof_H 	H 	0.72819	0.70849	0.6601	0.033
Mof_C 	C 	0.58687	0.77083	0.64173	-0.037
Mof_H 	H 	0.56063	0.6823	0.71411	-0.002
Mof_H 	H 	0.53224	0.67315	0.65406	0.064
Mof_C 	C 	0.62387	0.72873	0.68963	-0.129
Mof_C 	C 	0.64687	0.62653	0.68153	-0.069
Mof_H 	H 	0.56127	0.70479	0.71588	0.077
Mof_H 	H 	0.69628	0.79639	0.70373	0.062
Mof_H 	H 	0.57176	0.5564	0.67153	0.057
Mof_H 	H 	0.70162	0.64667	0.65202	0.005
Mof_N 	N 	0.37093	0.81697	0.1184	-0.236
Mof_C 	C 	0.31743	0.81847	0.07532	0.084
Mof_C 	C 	0.45353	0.93197	0.12685	0.032
Mof_N 	N 	0.36093	0.92747	0.05619	-0.107
Mof_H 	H 	0.25519	0.74988	0.05974	-0.008
Mof_C 	C 	0.44813	0.00067	0.08875	-0.046
Mof_H 	H 	0.50691	0.96	0.15503	0.013
Mof_C 	C 	0.33133	0.96367	0.00457	0.043
Mof_H 	H 	0.49607	0.08378	0.08559	0.038
Mof_C 	C 	0.21343	0.96647	0.01647	-0.004
Mof_H 	H 	0.31745	0.90498	0.97739	0.005
Mof_H 	H 	0.39485	0.04183	0.99344	0.017
Mof_C 	C 	0.25353	0.10417	0.97507	-0.041
Mof_H 	H 	0.22729	0.01564	0.04745	0.014
Mof_H 	H 	0.1989	0.00649	0.9874	0.045
Mof_C 	C 	0.29053	0.06207	0.02297	-0.156
Mof_C 	C 	0.31353	0.95987	0.01487	-0.068
Mof_H 	H 	0.22793	0.03813	0.04922	0.051
Mof_H 	H 	0.36294	0.12973	0.03707	0.069
Mof_H 	H 	0.23842	0.88974	0.00487	0.05
Mof_H 	H 	0.36828	0.98001	0.98536	0.022
Mof_N 	N 	0.1503	0.1127	0.54827	-0.236
Mof_C 	C 	0.1518	0.1677	0.59135	0.081
Mof_C 	C 	0.2653	0.1451	0.53982	-0
Mof_N 	N 	0.2608	0.2332	0.61048	-0.119
Mof_H 	H 	0.08321	0.16135	0.60693	-0.013
Mof_C 	C 	0.334	0.2192	0.57792	-0.007
Mof_H 	H 	0.29333	0.11975	0.51164	0.016
Mof_C 	C 	0.297	0.299	0.6621	0.042
Mof_H 	H 	0.41711	0.25437	0.58108	0.027
Mof_C 	C 	0.2998	0.4197	0.6502	-0.053
Mof_H 	H 	0.23831	0.25419	0.68928	0.005
Mof_H 	H 	0.37516	0.31364	0.67323	0.031
Mof_C 	C 	0.4375	0.5173	0.6916	-0.053
Mof_H 	H 	0.34897	0.45501	0.61922	-0.004
Mof_H 	H 	0.33982	0.47425	0.67927	0.068
Mof_C 	C 	0.3954	0.4382	0.6437	-0.121
Mof_C 	C 	0.2932	0.313	0.6518	-0.07
Mof_H 	H 	0.37146	0.47686	0.61745	0.077
Mof_H 	H 	0.46306	0.43345	0.6296	0.058
Mof_H 	H 	0.22307	0.31798	0.6618	0.057
Mof_H 	H 	0.31334	0.27839	0.68131	0.007
Mof_N 	N 	0.81697	0.44603	0.8816	-0.236
Mof_C 	C 	0.81847	0.50103	0.92468	0.084
Mof_C 	C 	0.93197	0.47843	0.87315	0.031
Mof_N 	N 	0.92747	0.56653	0.94381	-0.107
Mof_H 	H 	0.74988	0.49468	0.94026	-0.007
Mof_C 	C 	0.00067	0.55253	0.91125	-0.044
Mof_H 	H 	0.96	0.45308	0.84497	0.013
Mof_C 	C 	0.96367	0.63233	0.99543	0.043
Mof_H 	H 	0.08378	0.5877	0.91441	0.038
Mof_C 	C 	0.96647	0.75303	0.98353	-0.013
Mof_H 	H 	0.90498	0.58752	0.02261	0.005
Mof_H 	H 	0.04183	0.64697	0.00656	0.018
Mof_C 	C 	0.10417	0.85063	0.02493	-0.052
Mof_H 	H 	0.01564	0.78834	0.95255	0.014
Mof_H 	H 	0.00649	0.80758	0.0126	0.053
Mof_C 	C 	0.06207	0.77153	0.97703	-0.147
Mof_C 	C 	0.95987	0.64633	0.98513	-0.069
Mof_H 	H 	0.03813	0.81019	0.95078	0.054
Mof_H 	H 	0.12973	0.76678	0.96293	0.068
Mof_H 	H 	0.88974	0.65131	0.99513	0.052
Mof_H 	H 	0.98001	0.61172	0.01464	0.022
Mof_N 	N 	0.48363	0.77937	0.21494	-0.232
Mof_C 	C 	0.48513	0.83437	0.25802	0.085
Mof_C 	C 	0.59863	0.81177	0.20649	0.002
Mof_N 	N 	0.59413	0.89987	0.27715	-0.119
Mof_H 	H 	0.41654	0.82802	0.2736	-0.007
Mof_C 	C 	0.66733	0.88587	0.24459	-0.003
Mof_H 	H 	0.62666	0.78642	0.17831	0.02
Mof_C 	C 	0.63033	0.96567	0.32877	0.053
Mof_H 	H 	0.75044	0.92104	0.24775	0.031
Mof_C 	C 	0.63313	0.08637	0.31687	-0.074
Mof_H 	H 	0.57164	0.92086	0.35595	0.007
Mof_H 	H 	0.70849	0.98031	0.3399	0.038
Mof_C 	C 	0.77083	0.18397	0.35827	-0.043
Mof_H 	H 	0.6823	0.12168	0.28589	-0.007
Mof_H 	H 	0.67315	0.14092	0.34594	0.071
Mof_C 	C 	0.72873	0.10487	0.31037	-0.128
Mof_C 	C 	0.62653	0.97967	0.31847	-0.063
Mof_H 	H 	0.70479	0.14353	0.28412	0.085
Mof_H 	H 	0.79639	0.10012	0.29627	0.056
Mof_H 	H 	0.5564	0.98465	0.32847	0.063
Mof_H 	H 	0.64667	0.94506	0.34798	-0.003
Mof_N 	N 	0.8873	0.0376	0.54827	-0.239
Mof_C 	C 	0.8323	0.9841	0.59135	0.114
Mof_C 	C 	0.8549	0.1202	0.53982	-0
Mof_N 	N 	0.7668	0.0276	0.61048	-0.138
Mof_H 	H 	0.83865	0.92186	0.60693	-0.013
Mof_C 	C 	0.7808	0.1148	0.57792	-0.003
Mof_H 	H 	0.88025	0.17358	0.51164	0.022
Mof_C 	C 	0.701	0.998	0.6621	0.049
Mof_H 	H 	0.74563	0.16274	0.58108	0.026
Mof_C 	C 	0.5803	0.8801	0.6502	-0.087
Mof_H 	H 	0.74581	0.98412	0.68928	0.017
Mof_H 	H 	0.68636	0.06152	0.67323	0.031
Mof_C 	C 	0.4827	0.9202	0.6916	-0.057
Mof_H 	H 	0.54499	0.89396	0.61922	-0.013
Mof_H 	H 	0.52575	0.86557	0.67927	0.077
Mof_C 	C 	0.5618	0.9572	0.6437	-0.087
Mof_C 	C 	0.687	0.9802	0.6518	-0.037
Mof_H 	H 	0.52314	0.8946	0.61745	0.086
Mof_H 	H 	0.56655	0.02961	0.6296	0.039
Mof_H 	H 	0.68202	0.90509	0.6618	0.052
Mof_H 	H 	0.72161	0.03495	0.68131	-0.019
Mof_N 	N 	0.55397	0.37093	0.8816	-0.232
Mof_C 	C 	0.49897	0.31743	0.92468	0.083
Mof_C 	C 	0.52157	0.45353	0.87315	0.001
Mof_N 	N 	0.43347	0.36093	0.94381	-0.119
Mof_H 	H 	0.50532	0.25519	0.94026	-0.008
Mof_C 	C 	0.44747	0.44813	0.91125	-0.006
Mof_H 	H 	0.54692	0.50691	0.84497	0.019
Mof_C 	C 	0.36767	0.33133	0.99543	0.043
Mof_H 	H 	0.4123	0.49607	0.91441	0.027
Mof_C 	C 	0.24697	0.21343	0.98353	-0.057
Mof_H 	H 	0.41248	0.31745	0.02261	0.007
Mof_H 	H 	0.35303	0.39485	0.00656	0.031
Mof_C 	C 	0.14937	0.25353	0.02493	-0.042
Mof_H 	H 	0.21166	0.22729	0.95255	-0.009
Mof_H 	H 	0.19242	0.1989	0.0126	0.065
Mof_C 	C 	0.22847	0.29053	0.97703	-0.123
Mof_C 	C 	0.35367	0.31353	0.98513	-0.069
Mof_H 	H 	0.18981	0.22793	0.95078	0.08
Mof_H 	H 	0.23322	0.36294	0.96293	0.056
Mof_H 	H 	0.34869	0.23842	0.99513	0.057
Mof_H 	H 	0.38828	0.36828	0.01464	0.006
Mof_N 	N 	0.22063	0.70427	0.21494	-0.232
Mof_C 	C 	0.16563	0.65077	0.25802	0.081
Mof_C 	C 	0.18823	0.78687	0.20649	0.002
Mof_N 	N 	0.10013	0.69427	0.27715	-0.118
Mof_H 	H 	0.17198	0.58853	0.2736	-0.008
Mof_C 	C 	0.11413	0.78147	0.24459	-0.008
Mof_H 	H 	0.21358	0.84025	0.17831	0.02
Mof_C 	C 	0.03433	0.66467	0.32877	0.033
Mof_H 	H 	0.07896	0.82941	0.24775	0.028
Mof_C 	C 	0.91363	0.54677	0.31687	-0.032
Mof_H 	H 	0.07914	0.65079	0.35595	0.007
Mof_H 	H 	0.01969	0.72819	0.3399	0.027
Mof_C 	C 	0.81603	0.58687	0.35827	-0.045
Mof_H 	H 	0.87832	0.56063	0.28589	0
Mof_H 	H 	0.85908	0.53224	0.34594	0.061
Mof_C 	C 	0.89513	0.62387	0.31037	-0.122
Mof_C 	C 	0.02033	0.64687	0.31847	-0.076
Mof_H 	H 	0.85647	0.56127	0.28412	0.071
Mof_H 	H 	0.89988	0.69628	0.29627	0.064
Mof_H 	H 	0.01535	0.57176	0.32847	0.052
Mof_H 	H 	0.05494	0.70162	0.34798	0.014
Mof_N 	N 	0.9624	0.8497	0.54827	-0.217
Mof_C 	C 	0.0159	0.8482	0.59135	0.054
Mof_C 	C 	0.8798	0.7347	0.53982	0.005
Mof_N 	N 	0.9724	0.7392	0.61048	-0.099
Mof_H 	H 	0.07814	0.91679	0.60693	0.005
Mof_C 	C 	0.8852	0.666	0.57792	-0.007
Mof_H 	H 	0.82642	0.70667	0.51164	0.019
Mof_C 	C 	0.002	0.703	0.6621	0.038
Mof_H 	H 	0.83726	0.58289	0.58108	0.029
Mof_C 	C 	0.1199	0.7002	0.6502	-0.027
Mof_H 	H 	0.01588	0.76169	0.68928	-0.001
Mof_H 	H 	0.93848	0.62484	0.67323	0.033
Mof_C 	C 	0.0798	0.5625	0.6916	-0.044
Mof_H 	H 	0.10604	0.65103	0.61922	0.003
Mof_H 	H 	0.13443	0.66018	0.67927	0.06
Mof_C 	C 	0.0428	0.6046	0.6437	-0.153
Mof_C 	C 	0.0198	0.7068	0.6518	-0.104
Mof_H 	H 	0.1054	0.62854	0.61745	0.072
Mof_H 	H 	0.97039	0.53694	0.6296	0.076
Mof_H 	H 	0.09491	0.77693	0.6618	0.065
Mof_H 	H 	0.96505	0.68666	0.68131	0.031
Mof_N 	N 	0.62907	0.18303	0.8816	-0.228
Mof_C 	C 	0.68257	0.18153	0.92468	0.083
Mof_C 	C 	0.54647	0.06803	0.87315	-0.027
Mof_N 	N 	0.63907	0.07253	0.94381	-0.13
Mof_H 	H 	0.74481	0.25012	0.94026	-0.007
Mof_C 	C 	0.55187	0.99933	0.91125	0.032
Mof_H 	H 	0.49309	0.04	0.84497	0.024
Mof_C 	C 	0.66867	0.03633	0.99543	0.043
Mof_H 	H 	0.50393	0.91622	0.91441	0.017
Mof_C 	C 	0.78657	0.03353	0.98353	-0.097
Mof_H 	H 	0.68255	0.09502	0.02261	0.01
Mof_H 	H 	0.60515	0.95817	0.00656	0.046
Mof_C 	C 	0.74647	0.89583	0.02493	-0.059
Mof_H 	H 	0.77271	0.98436	0.95255	-0.02
Mof_H 	H 	0.8011	0.99351	0.0126	0.087
Mof_C 	C 	0.70947	0.93793	0.97703	-0.093
Mof_C 	C 	0.68647	0.04013	0.98513	-0.071
Mof_H 	H 	0.77207	0.96187	0.95078	0.101
Mof_H 	H 	0.63706	0.87027	0.96293	0.048
Mof_H 	H 	0.76158	0.11026	0.99513	0.064
Mof_H 	H 	0.63172	0.01999	0.01464	-0.01
Mof_N 	N 	0.29573	0.51637	0.21494	-0.232
Mof_C 	C 	0.34923	0.51487	0.25802	0.083
Mof_C 	C 	0.21313	0.40137	0.20649	0
Mof_N 	N 	0.30573	0.40587	0.27715	-0.119
Mof_H 	H 	0.41147	0.58346	0.2736	-0.007
Mof_C 	C 	0.21853	0.33267	0.24459	-0.006
Mof_H 	H 	0.15975	0.37334	0.17831	0.016
Mof_C 	C 	0.33533	0.36967	0.32877	0.042
Mof_H 	H 	0.17059	0.24956	0.24775	0.023
Mof_C 	C 	0.45323	0.36687	0.31687	-0.061
Mof_H 	H 	0.34921	0.42836	0.35595	0.007
Mof_H 	H 	0.27181	0.29151	0.3399	0.03
Mof_C 	C 	0.41313	0.22917	0.35827	-0.067
Mof_H 	H 	0.43937	0.3177	0.28589	-0.008
Mof_H 	H 	0.46776	0.32685	0.34594	0.073
Mof_C 	C 	0.37613	0.27127	0.31037	-0.111
Mof_C 	C 	0.35313	0.37347	0.31847	-0.071
Mof_H 	H 	0.43873	0.29521	0.28412	0.08
Mof_H 	H 	0.30372	0.20361	0.29627	0.052
Mof_H 	H 	0.42824	0.4436	0.32847	0.059
Mof_H 	H 	0.29838	0.35333	0.34798	0.007
Mof_Co	Co	-0	0	0.5	1.1
Mof_Co	Co	0.66667	0.33333	0.83333	1.112
Mof_Co	Co	0.33333	0.66667	0.16667	1.112
_end
