data_functionalizedCrystal
_audit_creation_method	'EQeq! by Chris Wilmer'
_symmetry_space_group_name_H-M	'P1'
_symmetry_Int_Tables_number	1
_symmetry_cell_setting	triclinic
loop_
_symmetry_equiv_pos_as_xyz
  x,y,z
_cell_length_a	13.8665
_cell_length_b	13.8665
_cell_length_c	15.056
_cell_angle_alpha	90
_cell_angle_beta	90
_cell_angle_gamma	120
loop_
_atom_site_label
_atom_site_type_symbol
_atom_site_fract_x
_atom_site_fract_y
_atom_site_fract_z
_atom_site_charge
Mof_Al	Al	0.6592	0.1019	0.4286	4.219
Mof_P 	P 	0.8913	0.3241	0.4456	1.316
Mof_O 	O 	0.7923	0.2124	0.4688	-1.344
Mof_O 	O 	0.862	0.4141	0.456	-1.459
Mof_O 	O 	0.9822	0.3416	0.509	-1.301
Mof_O 	O 	0.9303	0.3231	0.3529	-1.421
Mof_Al	Al	0.32587	0.43523	0.76193	4.218
Mof_P 	P 	0.55797	0.65743	0.77893	1.316
Mof_O 	O 	0.45897	0.54573	0.80213	-1.345
Mof_O 	O 	0.52867	0.74743	0.78933	-1.46
Mof_O 	O 	0.64887	0.67493	0.84233	-1.304
Mof_O 	O 	0.59697	0.65643	0.68623	-1.422
Mof_Al	Al	0.99253	0.76857	0.09527	4.171
Mof_P 	P 	0.22463	0.99077	0.11227	1.328
Mof_O 	O 	0.12563	0.87907	0.13547	-1.326
Mof_O 	O 	0.19533	0.08077	0.12267	-1.467
Mof_O 	O 	0.31553	0.00827	0.17567	-1.314
Mof_O 	O 	0.26363	0.98977	0.01957	-1.387
Mof_Al	Al	0.8981	0.5573	0.4286	4.219
Mof_P 	P 	0.6759	0.5672	0.4456	1.316
Mof_O 	O 	0.7876	0.5799	0.4688	-1.345
Mof_O 	O 	0.5859	0.4479	0.456	-1.46
Mof_O 	O 	0.6584	0.6406	0.509	-1.304
Mof_O 	O 	0.6769	0.6072	0.3529	-1.422
Mof_Al	Al	0.56477	0.89063	0.76193	4.217
Mof_P 	P 	0.34257	0.90053	0.77893	1.311
Mof_O 	O 	0.45427	0.91323	0.80213	-1.348
Mof_O 	O 	0.25257	0.78123	0.78933	-1.46
Mof_O 	O 	0.32507	0.97393	0.84233	-1.29
Mof_O 	O 	0.34357	0.94053	0.68623	-1.422
Mof_Al	Al	0.23143	0.22397	0.09527	4.221
Mof_P 	P 	0.00923	0.23387	0.11227	1.327
Mof_O 	O 	0.12093	0.24657	0.13547	-1.345
Mof_O 	O 	0.91923	0.11457	0.12267	-1.456
Mof_O 	O 	0.99173	0.30727	0.17567	-1.313
Mof_O 	O 	0.01023	0.27387	0.01957	-1.406
Mof_Al	Al	0.4427	0.3408	0.4286	4.22
Mof_P 	P 	0.4328	0.1087	0.4456	1.315
Mof_O 	O 	0.4201	0.2077	0.4688	-1.346
Mof_O 	O 	0.5521	0.138	0.456	-1.46
Mof_O 	O 	0.3594	0.0178	0.509	-1.302
Mof_O 	O 	0.3928	0.0697	0.3529	-1.423
Mof_Al	Al	0.10937	0.67413	0.76193	4.216
Mof_P 	P 	0.09947	0.44203	0.77893	1.313
Mof_O 	O 	0.08677	0.54103	0.80213	-1.347
Mof_O 	O 	0.21877	0.47133	0.78933	-1.46
Mof_O 	O 	0.02607	0.35113	0.84233	-1.297
Mof_O 	O 	0.05947	0.40303	0.68623	-1.422
Mof_Al	Al	0.77603	0.00747	0.09527	4.123
Mof_P 	P 	0.76613	0.77537	0.11227	1.308
Mof_O 	O 	0.75343	0.87437	0.13547	-1.32
Mof_O 	O 	0.88543	0.80467	0.12267	-1.45
Mof_O 	O 	0.69273	0.68447	0.17567	-1.301
Mof_O 	O 	0.72613	0.73637	0.01957	-1.42
Mof_Al	Al	0.3408	0.8981	0.5714	4.218
Mof_P 	P 	0.1087	0.6759	0.5544	1.315
Mof_O 	O 	0.2077	0.7876	0.5312	-1.345
Mof_O 	O 	0.138	0.5859	0.544	-1.46
Mof_O 	O 	0.0178	0.6584	0.491	-1.302
Mof_O 	O 	0.0697	0.6769	0.6471	-1.422
Mof_Al	Al	0.00747	0.23143	0.90473	4.171
Mof_P 	P 	0.77537	0.00923	0.88773	1.328
Mof_O 	O 	0.87437	0.12093	0.86453	-1.326
Mof_O 	O 	0.80467	0.91923	0.87733	-1.467
Mof_O 	O 	0.68447	0.99173	0.82433	-1.314
Mof_O 	O 	0.73637	0.01023	0.98043	-1.387
Mof_Al	Al	0.67413	0.56477	0.23807	4.217
Mof_P 	P 	0.44203	0.34257	0.22107	1.315
Mof_O 	O 	0.54103	0.45427	0.19787	-1.346
Mof_O 	O 	0.47133	0.25257	0.21067	-1.461
Mof_O 	O 	0.35113	0.32507	0.15767	-1.304
Mof_O 	O 	0.40303	0.34357	0.31377	-1.422
Mof_Al	Al	0.1019	0.4427	0.5714	4.219
Mof_P 	P 	0.3241	0.4328	0.5544	1.316
Mof_O 	O 	0.2124	0.4201	0.5312	-1.345
Mof_O 	O 	0.4141	0.5521	0.544	-1.46
Mof_O 	O 	0.3416	0.3594	0.491	-1.304
Mof_O 	O 	0.3231	0.3928	0.6471	-1.422
Mof_Al	Al	0.76857	0.77603	0.90473	4.221
Mof_P 	P 	0.99077	0.76613	0.88773	1.327
Mof_O 	O 	0.87907	0.75343	0.86453	-1.345
Mof_O 	O 	0.08077	0.88543	0.87733	-1.456
Mof_O 	O 	0.00827	0.69273	0.82433	-1.313
Mof_O 	O 	0.98977	0.72613	0.98043	-1.406
Mof_Al	Al	0.43523	0.10937	0.23807	4.217
Mof_P 	P 	0.65743	0.09947	0.22107	1.311
Mof_O 	O 	0.54573	0.08677	0.19787	-1.348
Mof_O 	O 	0.74743	0.21877	0.21067	-1.46
Mof_O 	O 	0.67493	0.02607	0.15767	-1.29
Mof_O 	O 	0.65643	0.05947	0.31377	-1.422
Mof_Al	Al	0.5573	0.6592	0.5714	4.22
Mof_P 	P 	0.5672	0.8913	0.5544	1.315
Mof_O 	O 	0.5799	0.7923	0.5312	-1.346
Mof_O 	O 	0.4479	0.862	0.544	-1.46
Mof_O 	O 	0.6406	0.9822	0.491	-1.302
Mof_O 	O 	0.6072	0.9303	0.6471	-1.423
Mof_Al	Al	0.22397	0.99253	0.90473	4.123
Mof_P 	P 	0.23387	0.22463	0.88773	1.308
Mof_O 	O 	0.24657	0.12563	0.86453	-1.32
Mof_O 	O 	0.11457	0.19533	0.87733	-1.45
Mof_O 	O 	0.30727	0.31553	0.82433	-1.301
Mof_O 	O 	0.27387	0.26363	0.98043	-1.42
Mof_Al	Al	0.89063	0.32587	0.23807	4.216
Mof_P 	P 	0.90053	0.55797	0.22107	1.313
Mof_O 	O 	0.91323	0.45897	0.19787	-1.347
Mof_O 	O 	0.78123	0.52867	0.21067	-1.46
Mof_O 	O 	0.97393	0.64887	0.15767	-1.297
Mof_O 	O 	0.94053	0.59697	0.31377	-1.422
_end
