data_functionalizedCrystal
_audit_creation_method	'EQeq! by Chris Wilmer'
_symmetry_space_group_name_H-M	'P1'
_symmetry_Int_Tables_number	1
_symmetry_cell_setting	triclinic
loop_
_symmetry_equiv_pos_as_xyz
  x,y,z
_cell_length_a	13.983
_cell_length_b	23.7756
_cell_length_c	23.7756
_cell_angle_alpha	76.6763
_cell_angle_beta	72.8988
_cell_angle_gamma	72.8987
loop_
_atom_site_label
_atom_site_type_symbol
_atom_site_fract_x
_atom_site_fract_y
_atom_site_fract_z
_atom_site_charge
Mof_Ni	Ni	0.92433	0.24338	0.64506	1.08
Mof_Ni	Ni	0.8037	0.06798	0.32162	1.053
Mof_Ni	Ni	0.68723	0.74338	0.14506	1.081
Mof_Ni	Ni	0.3067	0.56798	0.82162	1.053
Mof_H 	H 	0.7403	0.066	0.7476	0.29
Mof_H 	H 	0.6302	0.8944	0.0346	0.293
Mof_H 	H 	0.0422	0.0434	0.3494	0.295
Mof_H 	H 	0.559	0.0463	0.3505	0.268
Mof_H 	H 	0.8782	0.1648	0.8296	0.011
Mof_H 	H 	0.8596	0.1702	0.9294	0.032
Mof_H 	H 	0.843	0.1225	0.0283	0.056
Mof_H 	H 	0.7542	0.0486	0.0606	0.032
Mof_H 	H 	0.7132	0.0054	0.9952	0.086
Mof_H 	H 	0.6806	0.9815	0.8629	0.095
Mof_H 	H 	0.6483	0.9935	0.9287	0.094
Mof_H 	H 	0.9299	0.7771	0.9721	0.043
Mof_H 	H 	0.0637	0.7814	0.8814	0.058
Mof_H 	H 	0.1271	0.8307	0.7875	0.054
Mof_H 	H 	0.0306	0.9219	0.7511	0.02
Mof_H 	H 	0.8707	0.9641	0.8085	0.095
Mof_H 	H 	0.9854	0.2259	0.3701	0.018
Mof_H 	H 	0.0876	0.2843	0.3851	0.038
Mof_H 	H 	0.2438	0.2927	0.3935	0.07
Mof_H 	H 	0.3858	0.2117	0.3853	0.017
Mof_H 	H 	0.3716	0.1224	0.3686	0.105
Mof_H 	H 	0.3297	0.034	0.3868	0.078
Mof_H 	H 	0.269	0.0066	0.359	0.076
Mof_H 	H 	0.6177	0.0253	0.1611	0.037
Mof_H 	H 	0.5137	0.0103	0.1037	0.046
Mof_H 	H 	0.3568	0.0016	0.0968	0.06
Mof_H 	H 	0.2166	0.0088	0.1788	0.029
Mof_H 	H 	0.2334	0.0247	0.2677	0.096
Mof_H 	H 	0.0437	0.3922	0.824	0.143
Mof_H 	H 	0.9504	0.3704	0.8698	0.135
Mof_H 	H 	0.9626	0.3608	0.6624	-0.006
Mof_H 	H 	0.9918	0.403	0.7328	0.117
Mof_H 	H 	0.0077	0.2467	0.8437	0.126
Mof_H 	H 	0.9784	0.2046	0.7734	-0.01
Mof_H 	H 	0.0828	0.2745	0.8835	-0.018
Mof_H 	H 	0.0709	0.3253	0.9189	-0.009
Mof_H 	H 	0.221	0.3052	0.811	0.124
Mof_H 	H 	0.2459	0.2858	0.8734	0.128
Mof_H 	H 	0.3492	0.47	0.7456	-0.021
Mof_H 	H 	0.3035	0.3816	0.7548	0.103
Mof_H 	H 	0.1749	0.3863	0.9291	0.124
Mof_H 	H 	0.2206	0.4749	0.9199	-0.009
Mof_H 	H 	0.0721	0.1481	0.6981	-0.02
Mof_H 	H 	0.2433	0.1018	0.6762	0.145
Mof_H 	H 	0.2754	0.1905	0.5111	0.156
Mof_H 	H 	0.1038	0.2368	0.5322	-0.019
Mof_H 	H 	0.4238	0.1231	0.6027	0.177
Mof_H 	H 	0.4231	0.1253	0.5369	0.163
Mof_H 	H 	0.4297	0.0294	0.5494	-0.031
Mof_H 	H 	0.3865	0.0249	0.6185	-0.027
Mof_H 	H 	0.556	0.041	0.6182	0.154
Mof_H 	H 	0.5571	0.9769	0.6089	0.162
Mof_H 	H 	0.6723	0.9834	0.4022	-0.024
Mof_H 	H 	0.581	0.9651	0.4983	0.137
Mof_H 	H 	0.6605	0.0957	0.5379	0.121
Mof_H 	H 	0.6908	0.1346	0.4354	-0.02
Mof_H 	H 	0.9461	0.566	0.2476	0.286
Mof_H 	H 	0.9408	0.3944	0.5346	0.291
Mof_H 	H 	0.065	0.5434	0.8494	0.29
Mof_H 	H 	0.5442	0.5463	0.8505	0.268
Mof_H 	H 	0.6274	0.6648	0.3296	0.011
Mof_H 	H 	0.5408	0.6702	0.4294	0.033
Mof_H 	H 	0.5062	0.6225	0.5283	0.058
Mof_H 	H 	0.6366	0.5486	0.5606	0.033
Mof_H 	H 	0.7862	0.5054	0.4952	0.086
Mof_H 	H 	0.975	0.4815	0.3629	0.093
Mof_H 	H 	0.9295	0.4935	0.4287	0.095
Mof_H 	H 	0.8209	0.2771	0.4721	0.05
Mof_H 	H 	0.7735	0.2814	0.3814	0.068
Mof_H 	H 	0.7547	0.3307	0.2875	0.043
Mof_H 	H 	0.7964	0.4219	0.2511	0.03
Mof_H 	H 	0.8567	0.4641	0.3085	0.085
Mof_H 	H 	0.9186	0.7259	0.8701	0.025
Mof_H 	H 	0.743	0.7843	0.8851	0.037
Mof_H 	H 	0.57	0.7927	0.8935	0.068
Mof_H 	H 	0.5172	0.7117	0.8853	0.017
Mof_H 	H 	0.6374	0.6224	0.8686	0.105
Mof_H 	H 	0.7495	0.534	0.8868	0.076
Mof_H 	H 	0.8654	0.5066	0.859	0.072
Mof_H 	H 	0.6959	0.5253	0.6611	0.03
Mof_H 	H 	0.8723	0.5103	0.6037	0.029
Mof_H 	H 	0.0448	0.5016	0.5968	0.089
Mof_H 	H 	0.0958	0.5088	0.6788	0.006
Mof_H 	H 	0.9742	0.5247	0.7677	0.111
Mof_H 	H 	0.2401	0.8922	0.324	0.141
Mof_H 	H 	0.3094	0.8704	0.3698	0.14
Mof_H 	H 	0.5142	0.8608	0.1624	-0.002
Mof_H 	H 	0.3724	0.903	0.2328	0.111
Mof_H 	H 	0.4019	0.7467	0.3437	0.108
Mof_H 	H 	0.5436	0.7046	0.2734	-0.002
Mof_H 	H 	0.2592	0.7745	0.3835	-0.02
Mof_H 	H 	0.1849	0.8253	0.4189	-0.012
Mof_H 	H 	0.1628	0.8052	0.311	0.127
Mof_H 	H 	0.0949	0.7858	0.3734	0.133
Mof_H 	H 	0.9352	0.97	0.2456	-0.021
Mof_H 	H 	0.0601	0.8816	0.2548	0.103
Mof_H 	H 	0.0097	0.8863	0.4291	0.139
Mof_H 	H 	0.8846	0.9749	0.4199	-0.016
Mof_H 	H 	0.5817	0.6481	0.1981	-0.023
Mof_H 	H 	0.4787	0.6018	0.1762	0.145
Mof_H 	H 	0.523	0.6905	0.0111	0.157
Mof_H 	H 	0.6272	0.7368	0.0322	-0.02
Mof_H 	H 	0.3504	0.6231	0.1027	0.178
Mof_H 	H 	0.4147	0.6253	0.0369	0.164
Mof_H 	H 	0.4915	0.5294	0.0494	-0.032
Mof_H 	H 	0.4701	0.5249	0.1185	-0.029
Mof_H 	H 	0.2848	0.541	0.1182	0.155
Mof_H 	H 	0.3571	0.4769	0.1089	0.165
Mof_H 	H 	0.4421	0.4834	0.9022	-0.021
Mof_H 	H 	0.4556	0.4651	0.9983	0.135
Mof_H 	H 	0.2059	0.5957	0.0379	0.121
Mof_H 	H 	0.2392	0.6346	0.9354	-0.018
Mof_C 	C 	0.8356	0.1453	0.7347	0.476
Mof_C 	C 	0.7403	0.8018	0.0556	0.373
Mof_C 	C 	0.8434	0.1346	0.8406	0.056
Mof_C 	C 	0.8195	0.1143	0.7967	-0.239
Mof_C 	C 	0.7729	0.0659	0.8179	0.231
Mof_C 	C 	0.7592	0.035	0.876	-0.067
Mof_C 	C 	0.7732	0.0601	0.9207	0.067
Mof_C 	C 	0.8159	0.1102	0.9004	-0.048
Mof_C 	C 	0.8363	0.1356	0.9418	-0.022
Mof_C 	C 	0.8205	0.1094	0.0016	-0.074
Mof_C 	C 	0.7715	0.063	0.02	0.011
Mof_C 	C 	0.746	0.0366	0.9816	-0.116
Mof_C 	C 	0.7069	0.9843	0.8953	-0.105
Mof_C 	C 	0.8912	0.8137	0.9575	0.014
Mof_C 	C 	0.7955	0.8389	0.9919	-0.154
Mof_C 	C 	0.7377	0.8936	0.97	0.225
Mof_C 	C 	0.7756	0.9232	0.9138	-0.072
Mof_C 	C 	0.8715	0.8979	0.8793	0.071
Mof_C 	C 	0.9292	0.8432	0.9012	-0.035
Mof_C 	C 	0.025	0.818	0.8668	-0.021
Mof_C 	C 	0.063	0.8475	0.8105	-0.071
Mof_C 	C 	0.0052	0.9023	0.7887	0.025
Mof_C 	C 	0.9094	0.9275	0.8231	-0.13
Mof_C 	C 	0.9288	0.1401	0.3551	0.39
Mof_C 	C 	0.6773	0.0419	0.2493	0.334
Mof_C 	C 	0.0423	0.1934	0.3668	0.064
Mof_C 	C 	0.0337	0.14	0.3568	-0.222
Mof_C 	C 	0.1188	0.0915	0.3519	0.261
Mof_C 	C 	0.2124	0.0964	0.357	-0.101
Mof_C 	C 	0.221	0.1499	0.3669	0.094
Mof_C 	C 	0.1359	0.1984	0.3718	-0.064
Mof_C 	C 	0.1445	0.2518	0.3818	0.001
Mof_C 	C 	0.238	0.2569	0.3869	-0.091
Mof_C 	C 	0.3232	0.2083	0.3819	0.034
Mof_C 	C 	0.3146	0.1549	0.3719	-0.142
Mof_C 	C 	0.2994	0.0399	0.3535	-0.084
Mof_C 	C 	0.5616	0.0281	0.1939	0.013
Mof_C 	C 	0.5715	0.0377	0.2473	-0.163
Mof_C 	C 	0.4876	0.042	0.2964	0.199
Mof_C 	C 	0.3936	0.0368	0.2922	-0.072
Mof_C 	C 	0.3835	0.0272	0.239	0.067
Mof_C 	C 	0.4676	0.0228	0.1898	-0.029
Mof_C 	C 	0.4575	0.0132	0.1366	-0.03
Mof_C 	C 	0.3635	0.008	0.1324	-0.069
Mof_C 	C 	0.2795	0.0123	0.1815	0.011
Mof_C 	C 	0.2896	0.0218	0.2348	-0.123
Mof_C 	C 	0.0168	0.3573	0.8431	-0.351
Mof_C 	C 	0.9716	0.338	0.6988	0.101
Mof_C 	C 	0.9891	0.3632	0.741	-0.245
Mof_C 	C 	0.0027	0.329	0.7952	0.232
Mof_C 	C 	0.9986	0.2696	0.8074	-0.26
Mof_C 	C 	0.9811	0.2443	0.7653	0.111
Mof_C 	C 	0.0899	0.3148	0.8794	0.138
Mof_C 	C 	0.2037	0.3164	0.8502	-0.334
Mof_C 	C 	0.3143	0.4533	0.7823	0.095
Mof_C 	C 	0.2869	0.4003	0.7879	-0.219
Mof_C 	C 	0.2347	0.3752	0.8428	0.199
Mof_C 	C 	0.2099	0.4031	0.8923	-0.223
Mof_C 	C 	0.2372	0.4562	0.8868	0.102
Mof_C 	C 	0.1124	0.1571	0.6601	0.139
Mof_C 	C 	0.216	0.1292	0.6468	-0.287
Mof_C 	C 	0.2801	0.1406	0.5912	0.337
Mof_C 	C 	0.2346	0.1817	0.5491	-0.339
Mof_C 	C 	0.1312	0.2097	0.5619	0.164
Mof_C 	C 	0.3932	0.1097	0.5779	-0.439
Mof_C 	C 	0.4325	0.0425	0.5845	0.211
Mof_C 	C 	0.5421	0.019	0.5928	-0.418
Mof_C 	C 	0.6666	0.0078	0.429	0.134
Mof_C 	C 	0.612	0.9969	0.4871	-0.266
Mof_C 	C 	0.6018	0.0308	0.5296	0.252
Mof_C 	C 	0.6513	0.0771	0.5103	-0.257
Mof_C 	C 	0.6865	0.0954	0.4496	0.121
Mof_C 	C 	0.7844	0.6453	0.2347	0.474
Mof_C 	C 	0.9023	0.3018	0.5556	0.369
Mof_C 	C 	0.6814	0.6346	0.3406	0.057
Mof_C 	C 	0.7695	0.6143	0.2967	-0.239
Mof_C 	C 	0.8433	0.5659	0.3179	0.232
Mof_C 	C 	0.8298	0.535	0.376	-0.069
Mof_C 	C 	0.746	0.5601	0.4207	0.068
Mof_C 	C 	0.6735	0.6102	0.4004	-0.049
Mof_C 	C 	0.5863	0.6356	0.4418	-0.02
Mof_C 	C 	0.5685	0.6094	0.5016	-0.074
Mof_C 	C 	0.6455	0.563	0.52	0.011
Mof_C 	C 	0.7358	0.5366	0.4816	-0.115
Mof_C 	C 	0.9135	0.4843	0.3953	-0.105
Mof_C 	C 	0.8376	0.3137	0.4575	-0.001
Mof_C 	C 	0.8737	0.3389	0.4919	-0.146
Mof_C 	C 	0.8987	0.3936	0.47	0.221
Mof_C 	C 	0.8874	0.4232	0.4138	-0.065
Mof_C 	C 	0.8513	0.3979	0.3793	0.051
Mof_C 	C 	0.8264	0.3432	0.4012	-0.008
Mof_C 	C 	0.7902	0.318	0.3668	-0.053
Mof_C 	C 	0.779	0.3475	0.3105	-0.043
Mof_C 	C 	0.8038	0.4023	0.2887	-0.009
Mof_C 	C 	0.84	0.4275	0.3231	-0.099
Mof_C 	C 	0.076	0.6401	0.8551	0.403
Mof_C 	C 	0.5315	0.5419	0.7493	0.337
Mof_C 	C 	0.8975	0.6934	0.8668	0.052
Mof_C 	C 	0.9695	0.64	0.8568	-0.23
Mof_C 	C 	0.9378	0.5915	0.8519	0.255
Mof_C 	C 	0.8342	0.5964	0.857	-0.101
Mof_C 	C 	0.7622	0.6499	0.8669	0.092
Mof_C 	C 	0.7939	0.6984	0.8718	-0.059
Mof_C 	C 	0.7219	0.7518	0.8818	-0.004
Mof_C 	C 	0.6182	0.7569	0.8869	-0.089
Mof_C 	C 	0.5866	0.7083	0.8819	0.032
Mof_C 	C 	0.6586	0.6549	0.8719	-0.14
Mof_C 	C 	0.8072	0.5399	0.8535	-0.078
Mof_C 	C 	0.7164	0.5281	0.6939	0.033
Mof_C 	C 	0.6435	0.5377	0.7473	-0.173
Mof_C 	C 	0.674	0.542	0.7964	0.207
Mof_C 	C 	0.7774	0.5368	0.7922	-0.087
Mof_C 	C 	0.8503	0.5272	0.739	0.098
Mof_C 	C 	0.8198	0.5228	0.6898	-0.061
Mof_C 	C 	0.8927	0.5132	0.6366	0.017
Mof_C 	C 	0.9961	0.508	0.6324	-0.139
Mof_C 	C 	0.0267	0.5123	0.6815	0.078
Mof_C 	C 	0.9538	0.5218	0.7348	-0.174
Mof_C 	C 	0.2828	0.8573	0.3431	-0.352
Mof_C 	C 	0.4916	0.838	0.1988	0.09
Mof_C 	C 	0.4067	0.8632	0.241	-0.221
Mof_C 	C 	0.3731	0.829	0.2952	0.203
Mof_C 	C 	0.4244	0.7696	0.3074	-0.222
Mof_C 	C 	0.5093	0.7443	0.2653	0.094
Mof_C 	C 	0.2159	0.8148	0.3794	0.143
Mof_C 	C 	0.1297	0.8164	0.3502	-0.345
Mof_C 	C 	0.9501	0.9533	0.2823	0.088
Mof_C 	C 	0.0249	0.9003	0.2879	-0.217
Mof_C 	C 	0.0473	0.8752	0.3428	0.216
Mof_C 	C 	0.9947	0.9031	0.3923	-0.254
Mof_C 	C 	0.9198	0.9562	0.3868	0.114
Mof_C 	C 	0.5704	0.6571	0.1601	0.139
Mof_C 	C 	0.508	0.6292	0.1468	-0.289
Mof_C 	C 	0.4881	0.6406	0.0912	0.339
Mof_C 	C 	0.5346	0.6817	0.0491	-0.341
Mof_C 	C 	0.5972	0.7097	0.0619	0.165
Mof_C 	C 	0.4192	0.6097	0.0779	-0.442
Mof_C 	C 	0.4405	0.5425	0.0845	0.214
Mof_C 	C 	0.3461	0.519	0.0928	-0.422
Mof_C 	C 	0.3966	0.5078	0.929	0.126
Mof_C 	C 	0.404	0.4969	0.9871	-0.26
Mof_C 	C 	0.3378	0.5308	0.0296	0.25
Mof_C 	C 	0.2613	0.5771	0.0103	-0.252
Mof_C 	C 	0.2685	0.5954	0.9496	0.117
Mof_N 	N 	0.0676	0.1982	0.6176	-0.27
Mof_N 	N 	0.7142	0.055	0.4102	-0.248
Mof_N 	N 	0.9677	0.2785	0.7109	-0.227
Mof_N 	N 	0.2894	0.4813	0.8319	-0.243
Mof_N 	N 	0.6166	0.6982	0.1176	-0.273
Mof_N 	N 	0.3206	0.555	0.9102	-0.246
Mof_N 	N 	0.5429	0.7785	0.2109	-0.221
Mof_N 	N 	0.8974	0.9813	0.3319	-0.245
Mof_O 	O 	0.8849	0.1814	0.7126	-0.493
Mof_O 	O 	0.8191	0.1258	0.6958	-0.354
Mof_O 	O 	0.6638	0.8214	0.0816	-0.478
Mof_O 	O 	0.806	0.7503	0.0633	-0.396
Mof_O 	O 	0.7361	0.044	0.78	-0.44
Mof_O 	O 	0.6417	0.9162	0.0026	-0.442
Mof_O 	O 	0.919	0.0906	0.3478	-0.451
Mof_O 	O 	0.8557	0.1832	0.3598	-0.322
Mof_O 	O 	0.6907	0.0483	0.2989	-0.447
Mof_O 	O 	0.7477	0.0456	0.2016	-0.292
Mof_O 	O 	0.1028	0.0387	0.3493	-0.464
Mof_O 	O 	0.5003	0.0436	0.354	-0.424
Mof_O 	O 	0.7211	0.6814	0.2126	-0.491
Mof_O 	O 	0.8593	0.6258	0.1958	-0.353
Mof_O 	O 	0.9332	0.3214	0.5816	-0.478
Mof_O 	O 	0.8804	0.2503	0.5633	-0.397
Mof_O 	O 	0.9399	0.544	0.28	-0.442
Mof_O 	O 	0.9395	0.4162	0.5026	-0.444
Mof_O 	O 	0.1426	0.5906	0.8478	-0.45
Mof_O 	O 	0.1013	0.6832	0.8598	-0.322
Mof_O 	O 	0.4621	0.5483	0.7989	-0.448
Mof_O 	O 	0.5051	0.5456	0.7016	-0.292
Mof_O 	O 	0.0092	0.5387	0.8493	-0.457
Mof_O 	O 	0.6021	0.5436	0.854	-0.426
Mof_Ni	Ni	0.18723	0.64506	0.24338	1.08
Mof_Ni	Ni	0.8067	0.32162	0.06798	1.052
Mof_Ni	Ni	0.42433	0.14506	0.74338	1.08
Mof_Ni	Ni	0.3037	0.82162	0.56798	1.052
Mof_H 	H 	0.4461	0.7476	0.066	0.289
Mof_H 	H 	0.4408	0.0346	0.8944	0.291
Mof_H 	H 	0.565	0.3494	0.0434	0.291
Mof_H 	H 	0.0442	0.3505	0.0463	0.27
Mof_H 	H 	0.1274	0.8296	0.1648	0.012
Mof_H 	H 	0.0408	0.9294	0.1702	0.036
Mof_H 	H 	0.0062	0.0283	0.1225	0.059
Mof_H 	H 	0.1366	0.0606	0.0486	0.034
Mof_H 	H 	0.2862	0.9952	0.0054	0.086
Mof_H 	H 	0.475	0.8629	0.9815	0.097
Mof_H 	H 	0.4295	0.9287	0.9935	0.096
Mof_H 	H 	0.3209	0.9721	0.7771	0.05
Mof_H 	H 	0.2735	0.8814	0.7814	0.068
Mof_H 	H 	0.2547	0.7875	0.8307	0.043
Mof_H 	H 	0.2964	0.7511	0.9219	0.031
Mof_H 	H 	0.3567	0.8085	0.9641	0.084
Mof_H 	H 	0.4186	0.3701	0.2259	0.029
Mof_H 	H 	0.243	0.3851	0.2843	0.038
Mof_H 	H 	0.07	0.3935	0.2927	0.07
Mof_H 	H 	0.0172	0.3853	0.2117	0.021
Mof_H 	H 	0.1374	0.3686	0.1224	0.105
Mof_H 	H 	0.2495	0.3868	0.034	0.078
Mof_H 	H 	0.3654	0.359	0.0066	0.076
Mof_H 	H 	0.1959	0.1611	0.0253	0.037
Mof_H 	H 	0.3723	0.1037	0.0103	0.046
Mof_H 	H 	0.5448	0.0968	0.0016	0.06
Mof_H 	H 	0.5958	0.1788	0.0088	0.028
Mof_H 	H 	0.4742	0.2677	0.0247	0.096
Mof_H 	H 	0.7401	0.824	0.3922	0.14
Mof_H 	H 	0.8094	0.8698	0.3704	0.138
Mof_H 	H 	0.0142	0.6624	0.3608	0.011
Mof_H 	H 	0.8724	0.7328	0.403	0.107
Mof_H 	H 	0.9019	0.8437	0.2467	0.109
Mof_H 	H 	0.0436	0.7734	0.2046	-0.005
Mof_H 	H 	0.7592	0.8835	0.2745	-0.018
Mof_H 	H 	0.6849	0.9189	0.3253	-0.01
Mof_H 	H 	0.6628	0.811	0.3052	0.123
Mof_H 	H 	0.5949	0.8734	0.2858	0.128
Mof_H 	H 	0.4352	0.7456	0.47	-0.021
Mof_H 	H 	0.5601	0.7548	0.3816	0.103
Mof_H 	H 	0.5097	0.9291	0.3863	0.123
Mof_H 	H 	0.3846	0.9199	0.4749	-0.01
Mof_H 	H 	0.0817	0.6981	0.1481	-0.013
Mof_H 	H 	0.9787	0.6762	0.1018	0.123
Mof_H 	H 	0.023	0.5111	0.1905	0.147
Mof_H 	H 	0.1272	0.5322	0.2368	-0.014
Mof_H 	H 	0.8504	0.6027	0.1231	0.169
Mof_H 	H 	0.9147	0.5369	0.1253	0.154
Mof_H 	H 	0.9915	0.5494	0.0294	-0.027
Mof_H 	H 	0.9701	0.6185	0.0249	-0.023
Mof_H 	H 	0.7848	0.6182	0.041	0.151
Mof_H 	H 	0.8571	0.6089	0.9769	0.159
Mof_H 	H 	0.9421	0.4022	0.9834	-0.024
Mof_H 	H 	0.9556	0.4983	0.9651	0.134
Mof_H 	H 	0.7059	0.5379	0.0957	0.12
Mof_H 	H 	0.7392	0.4354	0.1346	-0.019
Mof_H 	H 	0.2403	0.2476	0.566	0.29
Mof_H 	H 	0.1302	0.5346	0.3944	0.292
Mof_H 	H 	0.5422	0.8494	0.5434	0.291
Mof_H 	H 	0.059	0.8505	0.5463	0.264
Mof_H 	H 	0.3782	0.3296	0.6648	0.011
Mof_H 	H 	0.3596	0.4294	0.6702	0.033
Mof_H 	H 	0.343	0.5283	0.6225	0.058
Mof_H 	H 	0.2542	0.5606	0.5486	0.033
Mof_H 	H 	0.2132	0.4952	0.5054	0.086
Mof_H 	H 	0.1806	0.3629	0.4815	0.098
Mof_H 	H 	0.1483	0.4287	0.4935	0.098
Mof_H 	H 	0.4299	0.4721	0.2771	0.051
Mof_H 	H 	0.5637	0.3814	0.2814	0.068
Mof_H 	H 	0.6271	0.2875	0.3307	0.043
Mof_H 	H 	0.5306	0.2511	0.4219	0.031
Mof_H 	H 	0.3707	0.3085	0.4641	0.085
Mof_H 	H 	0.4854	0.8701	0.7259	0.029
Mof_H 	H 	0.5876	0.8851	0.7843	0.038
Mof_H 	H 	0.7438	0.8935	0.7927	0.068
Mof_H 	H 	0.8858	0.8853	0.7117	0.016
Mof_H 	H 	0.8716	0.8686	0.6224	0.102
Mof_H 	H 	0.8297	0.8868	0.534	0.077
Mof_H 	H 	0.769	0.859	0.5066	0.076
Mof_H 	H 	0.1177	0.6611	0.5253	0.038
Mof_H 	H 	0.0137	0.6037	0.5103	0.057
Mof_H 	H 	0.8568	0.5968	0.5016	0.054
Mof_H 	H 	0.7166	0.6788	0.5088	0.031
Mof_H 	H 	0.7334	0.7677	0.5247	0.093
Mof_H 	H 	0.5437	0.324	0.8922	0.14
Mof_H 	H 	0.4504	0.3698	0.8704	0.138
Mof_H 	H 	0.4626	0.1624	0.8608	-0.001
Mof_H 	H 	0.4918	0.2328	0.903	0.11
Mof_H 	H 	0.5077	0.3437	0.7467	0.107
Mof_H 	H 	0.4784	0.2734	0.7046	-0.002
Mof_H 	H 	0.5828	0.3835	0.7745	-0.018
Mof_H 	H 	0.5709	0.4189	0.8253	-0.01
Mof_H 	H 	0.721	0.311	0.8052	0.124
Mof_H 	H 	0.7459	0.3734	0.7858	0.128
Mof_H 	H 	0.8492	0.2456	0.97	-0.022
Mof_H 	H 	0.8035	0.2548	0.8816	0.103
Mof_H 	H 	0.6749	0.4291	0.8863	0.124
Mof_H 	H 	0.7206	0.4199	0.9749	-0.01
Mof_H 	H 	0.5721	0.1981	0.6481	-0.022
Mof_H 	H 	0.7433	0.1762	0.6018	0.143
Mof_H 	H 	0.7754	0.0111	0.6905	0.155
Mof_H 	H 	0.6038	0.0322	0.7368	-0.019
Mof_H 	H 	0.9238	0.1027	0.6231	0.173
Mof_H 	H 	0.9231	0.0369	0.6253	0.159
Mof_H 	H 	0.9297	0.0494	0.5294	-0.028
Mof_H 	H 	0.8865	0.1185	0.5249	-0.024
Mof_H 	H 	0.056	0.1182	0.541	0.152
Mof_H 	H 	0.0571	0.1089	0.4769	0.16
Mof_H 	H 	0.1723	0.9022	0.4834	-0.02
Mof_H 	H 	0.081	0.9983	0.4651	0.135
Mof_H 	H 	0.1605	0.0379	0.5957	0.119
Mof_H 	H 	0.1908	0.9354	0.6346	-0.017
Mof_C 	C 	0.2844	0.7347	0.1453	0.475
Mof_C 	C 	0.4023	0.0556	0.8018	0.372
Mof_C 	C 	0.1814	0.8406	0.1346	0.055
Mof_C 	C 	0.2695	0.7967	0.1143	-0.238
Mof_C 	C 	0.3433	0.8179	0.0659	0.23
Mof_C 	C 	0.3298	0.876	0.035	-0.064
Mof_C 	C 	0.246	0.9207	0.0601	0.066
Mof_C 	C 	0.1735	0.9004	0.1102	-0.046
Mof_C 	C 	0.0863	0.9418	0.1356	-0.023
Mof_C 	C 	0.0685	0.0016	0.1094	-0.071
Mof_C 	C 	0.1455	0.02	0.063	0.012
Mof_C 	C 	0.2358	0.9816	0.0366	-0.115
Mof_C 	C 	0.4135	0.8953	0.9843	-0.112
Mof_C 	C 	0.3376	0.9575	0.8137	-0.001
Mof_C 	C 	0.3737	0.9919	0.8389	-0.146
Mof_C 	C 	0.3987	0.97	0.8936	0.218
Mof_C 	C 	0.3874	0.9138	0.9232	-0.061
Mof_C 	C 	0.3513	0.8793	0.8979	0.049
Mof_C 	C 	0.3264	0.9012	0.8432	-0.007
Mof_C 	C 	0.2902	0.8668	0.818	-0.055
Mof_C 	C 	0.279	0.8105	0.8475	-0.041
Mof_C 	C 	0.3038	0.7887	0.9023	-0.01
Mof_C 	C 	0.34	0.8231	0.9275	-0.096
Mof_C 	C 	0.576	0.3551	0.1401	0.396
Mof_C 	C 	0.0315	0.2493	0.0419	0.342
Mof_C 	C 	0.3975	0.3668	0.1934	0.048
Mof_C 	C 	0.4695	0.3568	0.14	-0.223
Mof_C 	C 	0.4378	0.3519	0.0915	0.259
Mof_C 	C 	0.3342	0.357	0.0964	-0.099
Mof_C 	C 	0.2622	0.3669	0.1499	0.09
Mof_C 	C 	0.2939	0.3718	0.1984	-0.056
Mof_C 	C 	0.2219	0.3818	0.2518	-0.005
Mof_C 	C 	0.1182	0.3869	0.2569	-0.087
Mof_C 	C 	0.0866	0.3819	0.2083	0.031
Mof_C 	C 	0.1586	0.3719	0.1549	-0.138
Mof_C 	C 	0.3072	0.3535	0.0399	-0.085
Mof_C 	C 	0.2164	0.1939	0.0281	0.015
Mof_C 	C 	0.1435	0.2473	0.0377	-0.165
Mof_C 	C 	0.174	0.2964	0.042	0.201
Mof_C 	C 	0.2774	0.2922	0.0368	-0.073
Mof_C 	C 	0.3503	0.239	0.0272	0.067
Mof_C 	C 	0.3198	0.1898	0.0228	-0.029
Mof_C 	C 	0.3927	0.1366	0.0132	-0.029
Mof_C 	C 	0.4961	0.1324	0.008	-0.069
Mof_C 	C 	0.5267	0.1815	0.0123	0.011
Mof_C 	C 	0.4538	0.2348	0.0218	-0.123
Mof_C 	C 	0.7828	0.8431	0.3573	-0.348
Mof_C 	C 	0.9916	0.6988	0.338	0.067
Mof_C 	C 	0.9067	0.741	0.3632	-0.212
Mof_C 	C 	0.8731	0.7952	0.329	0.2
Mof_C 	C 	0.9244	0.8074	0.2696	-0.231
Mof_C 	C 	0.0093	0.7653	0.2443	0.104
Mof_C 	C 	0.7159	0.8794	0.3148	0.135
Mof_C 	C 	0.6297	0.8502	0.3164	-0.333
Mof_C 	C 	0.4501	0.7823	0.4533	0.094
Mof_C 	C 	0.5249	0.7879	0.4003	-0.219
Mof_C 	C 	0.5473	0.8428	0.3752	0.199
Mof_C 	C 	0.4947	0.8923	0.4031	-0.222
Mof_C 	C 	0.4198	0.8868	0.4562	0.101
Mof_C 	C 	0.0704	0.6601	0.1571	0.115
Mof_C 	C 	0.008	0.6468	0.1292	-0.239
Mof_C 	C 	0.9881	0.5912	0.1406	0.295
Mof_C 	C 	0.0346	0.5491	0.1817	-0.305
Mof_C 	C 	0.0972	0.5619	0.2097	0.148
Mof_C 	C 	0.9192	0.5779	0.1097	-0.411
Mof_C 	C 	0.9405	0.5845	0.0425	0.194
Mof_C 	C 	0.8461	0.5928	0.019	-0.407
Mof_C 	C 	0.8966	0.429	0.0078	0.13
Mof_C 	C 	0.904	0.4871	0.9969	-0.261
Mof_C 	C 	0.8378	0.5296	0.0308	0.247
Mof_C 	C 	0.7613	0.5103	0.0771	-0.253
Mof_C 	C 	0.7685	0.4496	0.0954	0.119
Mof_C 	C 	0.3356	0.2347	0.6453	0.476
Mof_C 	C 	0.2403	0.5556	0.3018	0.369
Mof_C 	C 	0.3434	0.3406	0.6346	0.057
Mof_C 	C 	0.3195	0.2967	0.6143	-0.239
Mof_C 	C 	0.2729	0.3179	0.5659	0.232
Mof_C 	C 	0.2592	0.376	0.535	-0.067
Mof_C 	C 	0.2732	0.4207	0.5601	0.067
Mof_C 	C 	0.3159	0.4004	0.6102	-0.048
Mof_C 	C 	0.3363	0.4418	0.6356	-0.02
Mof_C 	C 	0.3205	0.5016	0.6094	-0.074
Mof_C 	C 	0.2715	0.52	0.563	0.011
Mof_C 	C 	0.246	0.4816	0.5366	-0.115
Mof_C 	C 	0.2069	0.3953	0.4843	-0.11
Mof_C 	C 	0.3912	0.4575	0.3137	-0.002
Mof_C 	C 	0.2955	0.4919	0.3389	-0.144
Mof_C 	C 	0.2377	0.47	0.3936	0.22
Mof_C 	C 	0.2756	0.4138	0.4232	-0.062
Mof_C 	C 	0.3715	0.3793	0.3979	0.05
Mof_C 	C 	0.4292	0.4012	0.3432	-0.007
Mof_C 	C 	0.525	0.3668	0.318	-0.054
Mof_C 	C 	0.563	0.3105	0.3475	-0.042
Mof_C 	C 	0.5052	0.2887	0.4023	-0.01
Mof_C 	C 	0.4094	0.3231	0.4275	-0.097
Mof_C 	C 	0.4288	0.8551	0.6401	0.396
Mof_C 	C 	0.1773	0.7493	0.5419	0.331
Mof_C 	C 	0.5423	0.8668	0.6934	0.048
Mof_C 	C 	0.5337	0.8568	0.64	-0.223
Mof_C 	C 	0.6188	0.8519	0.5915	0.259
Mof_C 	C 	0.7124	0.857	0.5964	-0.098
Mof_C 	C 	0.721	0.8669	0.6499	0.089
Mof_C 	C 	0.6359	0.8718	0.6984	-0.056
Mof_C 	C 	0.6445	0.8818	0.7518	-0.006
Mof_C 	C 	0.738	0.8869	0.7569	-0.087
Mof_C 	C 	0.8232	0.8819	0.7083	0.03
Mof_C 	C 	0.8146	0.8719	0.6549	-0.138
Mof_C 	C 	0.7994	0.8535	0.5399	-0.088
Mof_C 	C 	0.0616	0.6939	0.5281	0.013
Mof_C 	C 	0.0715	0.7473	0.5377	-0.151
Mof_C 	C 	0.9876	0.7964	0.542	0.182
Mof_C 	C 	0.8936	0.7922	0.5368	-0.066
Mof_C 	C 	0.8835	0.739	0.5272	0.059
Mof_C 	C 	0.9676	0.6898	0.5228	-0.025
Mof_C 	C 	0.9575	0.6366	0.5132	-0.051
Mof_C 	C 	0.8635	0.6324	0.508	-0.055
Mof_C 	C 	0.7795	0.6815	0.5123	0
Mof_C 	C 	0.7896	0.7348	0.5218	-0.115
Mof_C 	C 	0.5168	0.3431	0.8573	-0.348
Mof_C 	C 	0.4716	0.1988	0.838	0.089
Mof_C 	C 	0.4891	0.241	0.8632	-0.22
Mof_C 	C 	0.5027	0.2952	0.829	0.201
Mof_C 	C 	0.4986	0.3074	0.7696	-0.22
Mof_C 	C 	0.4811	0.2653	0.7443	0.093
Mof_C 	C 	0.5899	0.3794	0.8148	0.135
Mof_C 	C 	0.7037	0.3502	0.8164	-0.333
Mof_C 	C 	0.8143	0.2823	0.9533	0.094
Mof_C 	C 	0.7869	0.2879	0.9003	-0.22
Mof_C 	C 	0.7347	0.3428	0.8752	0.199
Mof_C 	C 	0.7099	0.3923	0.9031	-0.223
Mof_C 	C 	0.7372	0.3868	0.9562	0.101
Mof_C 	C 	0.6124	0.1601	0.6571	0.136
Mof_C 	C 	0.716	0.1468	0.6292	-0.285
Mof_C 	C 	0.7801	0.0912	0.6406	0.332
Mof_C 	C 	0.7346	0.0491	0.6817	-0.337
Mof_C 	C 	0.6312	0.0619	0.7097	0.162
Mof_C 	C 	0.8932	0.0779	0.6097	-0.429
Mof_C 	C 	0.9325	0.0845	0.5425	0.195
Mof_C 	C 	0.0421	0.0928	0.519	-0.404
Mof_C 	C 	0.1666	0.929	0.5078	0.125
Mof_C 	C 	0.112	0.9871	0.4969	-0.256
Mof_C 	C 	0.1018	0.0296	0.5308	0.246
Mof_C 	C 	0.1513	0.0103	0.5771	-0.247
Mof_C 	C 	0.1865	0.9496	0.5954	0.115
Mof_N 	N 	0.1166	0.6176	0.1982	-0.266
Mof_N 	N 	0.8206	0.4102	0.055	-0.247
Mof_N 	N 	0.0429	0.7109	0.2785	-0.216
Mof_N 	N 	0.3974	0.8319	0.4813	-0.243
Mof_N 	N 	0.5676	0.1176	0.6982	-0.272
Mof_N 	N 	0.2142	0.9102	0.555	-0.245
Mof_N 	N 	0.4677	0.2109	0.7785	-0.221
Mof_N 	N 	0.7894	0.3319	0.9813	-0.243
Mof_O 	O 	0.2211	0.7126	0.1814	-0.491
Mof_O 	O 	0.3593	0.6958	0.1258	-0.353
Mof_O 	O 	0.4332	0.0816	0.8214	-0.477
Mof_O 	O 	0.3804	0.0633	0.7503	-0.395
Mof_O 	O 	0.4399	0.78	0.044	-0.44
Mof_O 	O 	0.4395	0.0026	0.9162	-0.439
Mof_O 	O 	0.6426	0.3478	0.0906	-0.449
Mof_O 	O 	0.6013	0.3598	0.1832	-0.322
Mof_O 	O 	0.9621	0.2989	0.0483	-0.455
Mof_O 	O 	0.0051	0.2016	0.0456	-0.29
Mof_O 	O 	0.5092	0.3493	0.0387	-0.463
Mof_O 	O 	0.1021	0.354	0.0436	-0.424
Mof_O 	O 	0.3849	0.2126	0.6814	-0.491
Mof_O 	O 	0.3191	0.1958	0.6258	-0.353
Mof_O 	O 	0.1638	0.5816	0.3214	-0.475
Mof_O 	O 	0.306	0.5633	0.2503	-0.395
Mof_O 	O 	0.2361	0.28	0.544	-0.44
Mof_O 	O 	0.1417	0.5026	0.4162	-0.44
Mof_O 	O 	0.419	0.8478	0.5906	-0.449
Mof_O 	O 	0.3557	0.8598	0.6832	-0.322
Mof_O 	O 	0.1907	0.7989	0.5483	-0.445
Mof_O 	O 	0.2477	0.7016	0.5456	-0.29
Mof_O 	O 	0.6028	0.8493	0.5387	-0.464
Mof_O 	O 	0.0003	0.854	0.5436	-0.414
_end
