data_functionalizedCrystal
_audit_creation_method	'EQeq! by Chris Wilmer'
_symmetry_space_group_name_H-M	'P1'
_symmetry_Int_Tables_number	1
_symmetry_cell_setting	triclinic
loop_
_symmetry_equiv_pos_as_xyz
  x,y,z
_cell_length_a	20.344
_cell_length_b	20.344
_cell_length_c	20.344
_cell_angle_alpha	90
_cell_angle_beta	90
_cell_angle_gamma	90
loop_
_atom_site_label
_atom_site_type_symbol
_atom_site_fract_x
_atom_site_fract_y
_atom_site_fract_z
_atom_site_charge
Mof_Mo	Mo	0.71894	0.81258	0.18742	0.352
Mof_N 	N 	0.6784	0.9245	0.0755	-0.147
Mof_C 	C 	0.6877	0.8846	0.1154	-0.03
Mof_Mo	Mo	0.21894	0.31258	0.68742	0.352
Mof_N 	N 	0.1784	0.4245	0.5755	-0.166
Mof_C 	C 	0.1877	0.3846	0.6154	-0.036
Mof_Mo	Mo	0.28106	0.18742	0.18742	0.354
Mof_N 	N 	0.3216	0.0755	0.0755	-0.165
Mof_C 	C 	0.3123	0.1154	0.1154	-0.044
Mof_Mo	Mo	0.78106	0.68742	0.68742	0.348
Mof_N 	N 	0.8216	0.5755	0.5755	-0.163
Mof_C 	C 	0.8123	0.6154	0.6154	-0.028
Mof_Mo	Mo	0.28106	0.81258	0.81258	0.352
Mof_N 	N 	0.3216	0.9245	0.9245	-0.131
Mof_C 	C 	0.3123	0.8846	0.8846	-0.02
Mof_Mo	Mo	0.78106	0.31258	0.31258	0.349
Mof_N 	N 	0.8216	0.4245	0.4245	-0.163
Mof_C 	C 	0.8123	0.3846	0.3846	-0.028
Mof_Mo	Mo	0.71894	0.18742	0.81258	0.351
Mof_N 	N 	0.6784	0.0755	0.9245	-0.148
Mof_C 	C 	0.6877	0.1154	0.8846	-0.031
Mof_Mo	Mo	0.21894	0.68742	0.31258	0.352
Mof_N 	N 	0.1784	0.5755	0.4245	-0.166
Mof_C 	C 	0.1877	0.6154	0.3846	-0.036
Mof_Mo	Mo	0.18742	0.71894	0.81258	0.351
Mof_N 	N 	0.0755	0.6784	0.9245	-0.148
Mof_C 	C 	0.1154	0.6877	0.8846	-0.031
Mof_Mo	Mo	0.68742	0.21894	0.31258	0.352
Mof_N 	N 	0.5755	0.1784	0.4245	-0.166
Mof_C 	C 	0.6154	0.1877	0.3846	-0.036
Mof_Mo	Mo	0.18742	0.28106	0.18742	0.354
Mof_N 	N 	0.0755	0.3216	0.0755	-0.165
Mof_C 	C 	0.1154	0.3123	0.1154	-0.044
Mof_Mo	Mo	0.68742	0.78106	0.68742	0.348
Mof_N 	N 	0.5755	0.8216	0.5755	-0.163
Mof_C 	C 	0.6154	0.8123	0.6154	-0.028
Mof_Mo	Mo	0.81258	0.28106	0.81258	0.352
Mof_N 	N 	0.9245	0.3216	0.9245	-0.131
Mof_C 	C 	0.8846	0.3123	0.8846	-0.02
Mof_Mo	Mo	0.31258	0.78106	0.31258	0.349
Mof_N 	N 	0.4245	0.8216	0.4245	-0.163
Mof_C 	C 	0.3846	0.8123	0.3846	-0.028
Mof_Mo	Mo	0.81258	0.71894	0.18742	0.351
Mof_N 	N 	0.9245	0.6784	0.0755	-0.148
Mof_C 	C 	0.8846	0.6877	0.1154	-0.031
Mof_Mo	Mo	0.31258	0.21894	0.68742	0.352
Mof_N 	N 	0.4245	0.1784	0.5755	-0.166
Mof_C 	C 	0.3846	0.1877	0.6154	-0.036
Mof_Mo	Mo	0.81258	0.18742	0.71894	0.351
Mof_N 	N 	0.9245	0.0755	0.6784	-0.148
Mof_C 	C 	0.8846	0.1154	0.6877	-0.031
Mof_Mo	Mo	0.31258	0.68742	0.21894	0.352
Mof_N 	N 	0.4245	0.5755	0.1784	-0.166
Mof_C 	C 	0.3846	0.6154	0.1877	-0.036
Mof_Mo	Mo	0.18742	0.18742	0.28106	0.354
Mof_N 	N 	0.0755	0.0755	0.3216	-0.165
Mof_C 	C 	0.1154	0.1154	0.3123	-0.044
Mof_Mo	Mo	0.68742	0.68742	0.78106	0.348
Mof_N 	N 	0.5755	0.5755	0.8216	-0.163
Mof_C 	C 	0.6154	0.6154	0.8123	-0.028
Mof_Mo	Mo	0.81258	0.81258	0.28106	0.352
Mof_N 	N 	0.9245	0.9245	0.3216	-0.131
Mof_C 	C 	0.8846	0.8846	0.3123	-0.02
Mof_Mo	Mo	0.31258	0.31258	0.78106	0.349
Mof_N 	N 	0.4245	0.4245	0.8216	-0.163
Mof_C 	C 	0.3846	0.3846	0.8123	-0.028
Mof_Mo	Mo	0.18742	0.81258	0.71894	0.351
Mof_N 	N 	0.0755	0.9245	0.6784	-0.148
Mof_C 	C 	0.1154	0.8846	0.6877	-0.031
Mof_Mo	Mo	0.68742	0.31258	0.21894	0.352
Mof_N 	N 	0.5755	0.4245	0.1784	-0.166
Mof_C 	C 	0.6154	0.3846	0.1877	-0.036
Mof_Mo	Mo	0.81258	0.71894	0.81258	0.35
Mof_N 	N 	0.9245	0.6784	0.9245	-0.132
Mof_C 	C 	0.8846	0.6877	0.8846	-0.02
Mof_Mo	Mo	0.31258	0.21894	0.31258	0.353
Mof_N 	N 	0.4245	0.1784	0.4245	-0.166
Mof_C 	C 	0.3846	0.1877	0.3846	-0.037
Mof_Mo	Mo	0.18742	0.28106	0.81258	0.353
Mof_N 	N 	0.0755	0.3216	0.9245	-0.148
Mof_C 	C 	0.1154	0.3123	0.8846	-0.031
Mof_Mo	Mo	0.68742	0.78106	0.31258	0.349
Mof_N 	N 	0.5755	0.8216	0.4245	-0.163
Mof_C 	C 	0.6154	0.8123	0.3846	-0.028
Mof_Mo	Mo	0.81258	0.28106	0.18742	0.353
Mof_N 	N 	0.9245	0.3216	0.0755	-0.148
Mof_C 	C 	0.8846	0.3123	0.1154	-0.031
Mof_Mo	Mo	0.31258	0.78106	0.68742	0.349
Mof_N 	N 	0.4245	0.8216	0.5755	-0.163
Mof_C 	C 	0.3846	0.8123	0.6154	-0.028
Mof_Mo	Mo	0.18742	0.71894	0.18742	0.352
Mof_N 	N 	0.0755	0.6784	0.0755	-0.165
Mof_C 	C 	0.1154	0.6877	0.1154	-0.043
Mof_Mo	Mo	0.68742	0.21894	0.68742	0.352
Mof_N 	N 	0.5755	0.1784	0.5755	-0.166
Mof_C 	C 	0.6154	0.1877	0.6154	-0.036
Mof_Mo	Mo	0.71894	0.18742	0.18742	0.352
Mof_N 	N 	0.6784	0.0755	0.0755	-0.165
Mof_C 	C 	0.6877	0.1154	0.1154	-0.043
Mof_Mo	Mo	0.21894	0.68742	0.68742	0.352
Mof_N 	N 	0.1784	0.5755	0.5755	-0.166
Mof_C 	C 	0.1877	0.6154	0.6154	-0.036
Mof_Mo	Mo	0.28106	0.18742	0.81258	0.353
Mof_N 	N 	0.3216	0.0755	0.9245	-0.148
Mof_C 	C 	0.3123	0.1154	0.8846	-0.031
Mof_Mo	Mo	0.78106	0.68742	0.31258	0.349
Mof_N 	N 	0.8216	0.5755	0.4245	-0.163
Mof_C 	C 	0.8123	0.6154	0.3846	-0.028
Mof_Mo	Mo	0.28106	0.81258	0.18742	0.353
Mof_N 	N 	0.3216	0.9245	0.0755	-0.148
Mof_C 	C 	0.3123	0.8846	0.1154	-0.031
Mof_Mo	Mo	0.78106	0.31258	0.68742	0.349
Mof_N 	N 	0.8216	0.4245	0.5755	-0.163
Mof_C 	C 	0.8123	0.3846	0.6154	-0.028
Mof_Mo	Mo	0.71894	0.81258	0.81258	0.35
Mof_N 	N 	0.6784	0.9245	0.9245	-0.132
Mof_C 	C 	0.6877	0.8846	0.8846	-0.02
Mof_Mo	Mo	0.21894	0.31258	0.31258	0.353
Mof_N 	N 	0.1784	0.4245	0.4245	-0.166
Mof_C 	C 	0.1877	0.3846	0.3846	-0.037
Mof_Mo	Mo	0.18742	0.81258	0.28106	0.353
Mof_N 	N 	0.0755	0.9245	0.3216	-0.148
Mof_C 	C 	0.1154	0.8846	0.3123	-0.031
Mof_Mo	Mo	0.68742	0.31258	0.78106	0.349
Mof_N 	N 	0.5755	0.4245	0.8216	-0.163
Mof_C 	C 	0.6154	0.3846	0.8123	-0.028
Mof_Mo	Mo	0.18742	0.18742	0.71894	0.352
Mof_N 	N 	0.0755	0.0755	0.6784	-0.165
Mof_C 	C 	0.1154	0.1154	0.6877	-0.043
Mof_Mo	Mo	0.68742	0.68742	0.21894	0.352
Mof_N 	N 	0.5755	0.5755	0.1784	-0.166
Mof_C 	C 	0.6154	0.6154	0.1877	-0.036
Mof_Mo	Mo	0.81258	0.81258	0.71894	0.35
Mof_N 	N 	0.9245	0.9245	0.6784	-0.132
Mof_C 	C 	0.8846	0.8846	0.6877	-0.02
Mof_Mo	Mo	0.31258	0.31258	0.21894	0.353
Mof_N 	N 	0.4245	0.4245	0.1784	-0.166
Mof_C 	C 	0.3846	0.3846	0.1877	-0.037
Mof_Mo	Mo	0.81258	0.18742	0.28106	0.353
Mof_N 	N 	0.9245	0.0755	0.3216	-0.148
Mof_C 	C 	0.8846	0.1154	0.3123	-0.031
Mof_Mo	Mo	0.31258	0.68742	0.78106	0.349
Mof_N 	N 	0.4245	0.5755	0.8216	-0.163
Mof_C 	C 	0.3846	0.6154	0.8123	-0.028
Mof_Se	Se	0.72002	0.72002	0.10116	-0.227
Mof_Se	Se	0.22002	0.22002	0.60116	-0.219
Mof_Se	Se	0.27998	0.27998	0.10116	-0.231
Mof_Se	Se	0.77998	0.77998	0.60116	-0.199
Mof_Se	Se	0.27998	0.72002	0.89884	-0.186
Mof_Se	Se	0.77998	0.22002	0.39884	-0.209
Mof_Se	Se	0.72002	0.27998	0.89884	-0.186
Mof_Se	Se	0.22002	0.77998	0.39884	-0.209
Mof_Se	Se	0.10116	0.72002	0.72002	-0.227
Mof_Se	Se	0.60116	0.22002	0.22002	-0.219
Mof_Se	Se	0.10116	0.27998	0.27998	-0.231
Mof_Se	Se	0.60116	0.77998	0.77998	-0.199
Mof_Se	Se	0.89884	0.27998	0.72002	-0.186
Mof_Se	Se	0.39884	0.77998	0.22002	-0.209
Mof_Se	Se	0.89884	0.72002	0.27998	-0.186
Mof_Se	Se	0.39884	0.22002	0.77998	-0.209
Mof_Se	Se	0.72002	0.10116	0.72002	-0.227
Mof_Se	Se	0.22002	0.60116	0.22002	-0.219
Mof_Se	Se	0.27998	0.10116	0.27998	-0.231
Mof_Se	Se	0.77998	0.60116	0.77998	-0.199
Mof_Se	Se	0.72002	0.89884	0.27998	-0.186
Mof_Se	Se	0.22002	0.39884	0.77998	-0.209
Mof_Se	Se	0.27998	0.89884	0.72002	-0.186
Mof_Se	Se	0.77998	0.39884	0.22002	-0.209
Mof_Se	Se	0.72002	0.72002	0.89884	-0.185
Mof_Se	Se	0.22002	0.22002	0.39884	-0.219
Mof_Se	Se	0.27998	0.27998	0.89884	-0.187
Mof_Se	Se	0.77998	0.77998	0.39884	-0.199
Mof_Se	Se	0.72002	0.27998	0.10116	-0.229
Mof_Se	Se	0.22002	0.77998	0.60116	-0.209
Mof_Se	Se	0.27998	0.72002	0.10116	-0.229
Mof_Se	Se	0.77998	0.22002	0.60116	-0.209
Mof_Se	Se	0.72002	0.10116	0.27998	-0.229
Mof_Se	Se	0.22002	0.60116	0.77998	-0.209
Mof_Se	Se	0.27998	0.10116	0.72002	-0.229
Mof_Se	Se	0.77998	0.60116	0.22002	-0.209
Mof_Se	Se	0.27998	0.89884	0.27998	-0.187
Mof_Se	Se	0.77998	0.39884	0.77998	-0.199
Mof_Se	Se	0.72002	0.89884	0.72002	-0.185
Mof_Se	Se	0.22002	0.39884	0.22002	-0.219
Mof_Se	Se	0.10116	0.72002	0.27998	-0.229
Mof_Se	Se	0.60116	0.22002	0.77998	-0.209
Mof_Se	Se	0.10116	0.27998	0.72002	-0.229
Mof_Se	Se	0.60116	0.77998	0.22002	-0.209
Mof_Se	Se	0.89884	0.72002	0.72002	-0.185
Mof_Se	Se	0.39884	0.22002	0.22002	-0.219
Mof_Se	Se	0.89884	0.27998	0.27998	-0.187
Mof_Se	Se	0.39884	0.77998	0.77998	-0.199
Mof_Se	Se	0.83941	0.83941	0.16059	-0.14
Mof_Se	Se	0.33941	0.33941	0.66059	-0.159
Mof_Se	Se	0.16059	0.16059	0.16059	-0.173
Mof_Se	Se	0.66059	0.66059	0.66059	-0.158
Mof_Se	Se	0.16059	0.83941	0.83941	-0.14
Mof_Se	Se	0.66059	0.33941	0.33941	-0.159
Mof_Se	Se	0.83941	0.16059	0.83941	-0.14
Mof_Se	Se	0.33941	0.66059	0.33941	-0.159
Mof_Se	Se	0.83941	0.83941	0.83941	-0.125
Mof_Se	Se	0.33941	0.33941	0.33941	-0.159
Mof_Se	Se	0.16059	0.16059	0.83941	-0.156
Mof_Se	Se	0.66059	0.66059	0.33941	-0.159
Mof_Se	Se	0.83941	0.16059	0.16059	-0.156
Mof_Se	Se	0.33941	0.66059	0.66059	-0.159
Mof_Se	Se	0.16059	0.83941	0.16059	-0.156
Mof_Se	Se	0.66059	0.33941	0.66059	-0.159
Mof_Mn	Mn	0.6815	0	-0	0.665
Mof_Mn	Mn	0.1815	0.5	0.5	0.753
Mof_Mn	Mn	0.3185	0	-0	0.663
Mof_Mn	Mn	0.8185	0.5	0.5	0.772
Mof_Mn	Mn	-5.99613e-33	0.6815	-0	0.665
Mof_Mn	Mn	0.5	0.1815	0.5	0.753
Mof_Mn	Mn	-0	0.3185	-0	0.663
Mof_Mn	Mn	0.5	0.8185	0.5	0.772
Mof_Mn	Mn	-3.44092e-33	-5.99613e-33	0.6815	0.665
Mof_Mn	Mn	0.5	0.5	0.1815	0.753
Mof_Mn	Mn	1.19418e-33	0	0.3185	0.663
Mof_Mn	Mn	0.5	0.5	0.8185	0.772
Mof_O 	O 	0.787	0.962	-0	-0.055
Mof_O 	O 	0.287	0.462	0.5	-0.081
Mof_O 	O 	0.213	0.038	-0	-0.112
Mof_O 	O 	0.713	0.538	0.5	-0.081
Mof_O 	O 	0.213	0.962	-0	-0.057
Mof_O 	O 	0.713	0.462	0.5	-0.081
Mof_O 	O 	0.787	0.038	-0	-0.109
Mof_O 	O 	0.287	0.538	0.5	-0.081
Mof_O 	O 	-8.38535e-33	0.787	0.962	-0.055
Mof_O 	O 	0.5	0.287	0.462	-0.081
Mof_O 	O 	1.26675e-33	0.213	0.038	-0.112
Mof_O 	O 	0.5	0.713	0.538	-0.081
Mof_O 	O 	-2.03776e-32	0.213	0.962	-0.057
Mof_O 	O 	0.5	0.713	0.462	-0.081
Mof_O 	O 	-3.23035e-33	0.787	0.038	-0.109
Mof_O 	O 	0.5	0.287	0.538	-0.081
Mof_O 	O 	0.962	0	0.787	-0.055
Mof_O 	O 	0.462	0.5	0.287	-0.081
Mof_O 	O 	0.038	0	0.213	-0.112
Mof_O 	O 	0.538	0.5	0.713	-0.081
Mof_O 	O 	0.962	0	0.213	-0.057
Mof_O 	O 	0.462	0.5	0.713	-0.081
Mof_O 	O 	0.038	0	0.787	-0.109
Mof_O 	O 	0.538	0.5	0.287	-0.081
Mof_O 	O 	0.962	0.787	-0	-0.055
Mof_O 	O 	0.462	0.287	0.5	-0.081
Mof_O 	O 	0.038	0.213	-0	-0.112
Mof_O 	O 	0.538	0.713	0.5	-0.081
Mof_O 	O 	0.962	0.213	-0	-0.057
Mof_O 	O 	0.462	0.713	0.5	-0.081
Mof_O 	O 	0.038	0.787	-0	-0.109
Mof_O 	O 	0.538	0.287	0.5	-0.081
Mof_O 	O 	0.787	0	0.038	-0.109
Mof_O 	O 	0.287	0.5	0.538	-0.081
Mof_O 	O 	0.213	-1.19923e-32	0.962	-0.057
Mof_O 	O 	0.713	0.5	0.462	-0.081
Mof_O 	O 	0.213	0	0.038	-0.112
Mof_O 	O 	0.713	0.5	0.538	-0.081
Mof_O 	O 	0.787	-1.19923e-32	0.962	-0.055
Mof_O 	O 	0.287	0.5	0.462	-0.081
Mof_O 	O 	-1.56907e-32	0.962	0.213	-0.057
Mof_O 	O 	0.5	0.462	0.713	-0.081
Mof_O 	O 	-3.04536e-33	0.038	0.787	-0.109
Mof_O 	O 	0.5	0.538	0.287	-0.081
Mof_O 	O 	-1.50376e-32	0.962	0.787	-0.055
Mof_O 	O 	0.5	0.462	0.287	-0.081
Mof_O 	O 	7.98622e-34	0.038	0.213	-0.112
Mof_O 	O 	0.5	0.538	0.713	-0.081
_end
