data_functionalizedCrystal
_audit_creation_method	'EQeq! by Chris Wilmer'
_symmetry_space_group_name_H-M	'P1'
_symmetry_Int_Tables_number	1
_symmetry_cell_setting	triclinic
loop_
_symmetry_equiv_pos_as_xyz
  x,y,z
_cell_length_a	13.3997
_cell_length_b	13.6699
_cell_length_c	46.339
_cell_angle_alpha	97.6633
_cell_angle_beta	90
_cell_angle_gamma	119.348
loop_
_atom_site_label
_atom_site_type_symbol
_atom_site_fract_x
_atom_site_fract_y
_atom_site_fract_z
_atom_site_charge
Mof_Co	Co	0.3522	0.64284	0.88	1.172
Mof_Co	Co	0.31888	0.64344	0.78988	1.174
Mof_Co	Co	0.0131	0.9641	0.95622	1.167
Mof_Co	Co	0.70936	0.35716	0.62	1.172
Mof_Co	Co	0.67544	0.35656	0.71012	1.174
Mof_Co	Co	0.049	0.0359	0.54378	1.171
Mof_Co	Co	0.6478	0.35716	0.12	1.172
Mof_Co	Co	0.68112	0.35656	0.21012	1.174
Mof_Co	Co	0.9869	0.0359	0.04377	1.167
Mof_Co	Co	0.29064	0.64284	0.38	1.172
Mof_Co	Co	0.32456	0.64344	0.28988	1.174
Mof_Co	Co	0.951	0.9641	0.45622	1.17
Mof_H 	H 	0.6437	0.7704	0.9473	-0.056
Mof_H 	H 	0.6672	0.9176	0.0299	-0.142
Mof_H 	H 	0.3628	0.7438	0.9844	-0.156
Mof_H 	H 	0.5689	0.9128	0.0716	0.71
Mof_H 	H 	0.5897	0.0088	0.0533	0.72
Mof_H 	H 	0.4942	0.9724	0.0755	0.709
Mof_H 	H 	0.3289	0.761	0.0649	0.638
Mof_H 	H 	0.3182	0.6928	0.0339	0.66
Mof_H 	H 	0.4179	0.7206	0.0569	0.639
Mof_H 	H 	0.4127	0.9678	0.0192	0.676
Mof_H 	H 	0.3063	0.845	0.016	0.682
Mof_H 	H 	0.3401	0.9258	0.046	0.676
Mof_H 	H 	0.5764	0.5446	0.8656	-0.199
Mof_H 	H 	0.7394	0.4142	0.8159	-0.214
Mof_H 	H 	0.5029	0.4662	0.7789	-0.077
Mof_H 	H 	0.623	0.3162	0.8771	0.744
Mof_H 	H 	0.7246	0.3268	0.8585	0.763
Mof_H 	H 	0.7445	0.3594	0.8926	0.729
Mof_H 	H 	0.9049	0.5472	0.8859	0.894
Mof_H 	H 	0.8796	0.5074	0.8521	0.9
Mof_H 	H 	0.8863	0.6218	0.8659	0.894
Mof_H 	H 	0.7306	0.6076	0.8997	0.929
Mof_H 	H 	0.6265	0.4868	0.9015	0.912
Mof_H 	H 	0.7472	0.5234	0.9163	0.904
Mof_H 	H 	0.1829	0.8404	0.8896	-0.04
Mof_H 	H 	0.9518	0.8964	0.8508	-0.104
Mof_H 	H 	0.0948	0.737	0.8038	-0.113
Mof_H 	H 	0.9255	0.9174	0.7729	0.575
Mof_H 	H 	0.9747	0.9696	0.8053	0.592
Mof_H 	H 	0.0531	0.9544	0.7821	0.557
Mof_H 	H 	0.765	0.7402	0.785	0.599
Mof_H 	H 	0.7871	0.6802	0.8088	0.605
Mof_H 	H 	0.8029	0.8022	0.8173	0.604
Mof_H 	H 	0.021	0.7664	0.7624	0.606
Mof_H 	H 	0.9322	0.6588	0.7753	0.635
Mof_H 	H 	0.8892	0.7132	0.7542	0.617
Mof_H 	H 	0.6133	0.7508	0.8861	-0.017
Mof_H 	H 	0.7812	0.9158	0.8846	0.094
Mof_H 	H 	0.5964	0.0572	0.864	0.053
Mof_H 	H 	0.4335	0.8896	0.8668	-0.014
Mof_H 	H 	0.8	0.1734	0.868	0.024
Mof_H 	H 	0.9353	0.0888	0.8833	0.068
Mof_H 	H 	0.1432	0.218	0.8814	0.085
Mof_H 	H 	0.2949	0.397	0.8812	-0.023
Mof_H 	H 	0.0898	0.521	0.8792	-0.04
Mof_H 	H 	0.9335	0.3466	0.8786	0.056
Mof_H 	H 	0.0576	0.532	0.7811	-0.009
Mof_H 	H 	0.8898	0.3658	0.7816	0.092
Mof_H 	H 	0.0755	0.2318	0.8072	0.066
Mof_H 	H 	0.2377	0.3998	0.8049	-0.016
Mof_H 	H 	0.8732	0.1106	0.8003	0.033
Mof_H 	H 	0.7374	0.1944	0.7846	0.062
Mof_H 	H 	0.5299	0.065	0.7871	0.083
Mof_H 	H 	0.3789	0.8866	0.7884	-0.018
Mof_H 	H 	0.5833	0.763	0.7903	-0.026
Mof_H 	H 	0.7396	0.9382	0.7902	0.06
Mof_H 	H 	0.8467	0.717	0.9681	-0.013
Mof_H 	H 	0.8417	0.5498	0.9712	0.041
Mof_H 	H 	0.168	0.6904	0.9501	0.094
Mof_H 	H 	0.1656	0.855	0.9494	-0.018
Mof_H 	H 	0.9262	0.43	0.9658	0.016
Mof_H 	H 	0.1492	0.5174	0.9529	0.073
Mof_H 	H 	0.8888	0.2584	0.9542	0.054
Mof_H 	H 	0.8706	0.0836	0.9542	-0.032
Mof_H 	H 	0.2015	0.2122	0.959	-0.022
Mof_H 	H 	0.2284	0.3902	0.958	0.087
Mof_H 	H 	0.8733	0.2296	0.5527	-0.055
Mof_H 	H 	0.7496	0.0824	0.4701	-0.144
Mof_H 	H 	0.619	0.2562	0.5156	-0.156
Mof_H 	H 	0.6561	0.0872	0.4284	0.713
Mof_H 	H 	0.5809	0.9912	0.4467	0.726
Mof_H 	H 	0.5218	0.0276	0.4245	0.712
Mof_H 	H 	0.5679	0.239	0.4351	0.641
Mof_H 	H 	0.6254	0.3072	0.4661	0.662
Mof_H 	H 	0.6973	0.2794	0.4431	0.641
Mof_H 	H 	0.4449	0.0322	0.4808	0.679
Mof_H 	H 	0.4613	0.155	0.484	0.685
Mof_H 	H 	0.4143	0.0742	0.454	0.679
Mof_H 	H 	0.0318	0.4554	0.6344	-0.203
Mof_H 	H 	0.3252	0.5858	0.6841	-0.214
Mof_H 	H 	0.0367	0.5338	0.7211	-0.083
Mof_H 	H 	0.3068	0.6838	0.6229	0.737
Mof_H 	H 	0.3978	0.6732	0.6415	0.757
Mof_H 	H 	0.3851	0.6406	0.6074	0.722
Mof_H 	H 	0.3577	0.4528	0.6141	0.882
Mof_H 	H 	0.3722	0.4926	0.6479	0.888
Mof_H 	H 	0.2645	0.3782	0.6341	0.881
Mof_H 	H 	0.123	0.3924	0.6003	0.92
Mof_H 	H 	0.1397	0.5132	0.5985	0.903
Mof_H 	H 	0.2238	0.4766	0.5837	0.896
Mof_H 	H 	0.3425	0.1596	0.6104	-0.048
Mof_H 	H 	0.0554	0.1036	0.6492	-0.138
Mof_H 	H 	0.3578	0.263	0.6962	-0.122
Mof_H 	H 	0.0081	0.0826	0.7271	0.615
Mof_H 	H 	0.0051	0.0304	0.6947	0.631
Mof_H 	H 	0.0987	0.0456	0.7179	0.614
Mof_H 	H 	0.0248	0.2598	0.715	0.62
Mof_H 	H 	0.1069	0.3198	0.6912	0.628
Mof_H 	H 	0.0007	0.1978	0.6827	0.625
Mof_H 	H 	0.2546	0.2336	0.7376	0.663
Mof_H 	H 	0.2734	0.3412	0.7247	0.677
Mof_H 	H 	0.176	0.2868	0.7458	0.66
Mof_H 	H 	0.8625	0.2492	0.6139	-0.016
Mof_H 	H 	0.8654	0.0842	0.6154	0.096
Mof_H 	H 	0.5392	0.9428	0.636	0.055
Mof_H 	H 	0.5439	0.1104	0.6332	-0.015
Mof_H 	H 	0.6266	0.8266	0.632	0.023
Mof_H 	H 	0.8465	0.9112	0.6167	0.071
Mof_H 	H 	0.9252	0.782	0.6186	0.088
Mof_H 	H 	0.8979	0.603	0.6188	-0.021
Mof_H 	H 	0.5688	0.479	0.6208	-0.034
Mof_H 	H 	0.5869	0.6534	0.6214	0.045
Mof_H 	H 	0.5256	0.468	0.7189	-0.014
Mof_H 	H 	0.524	0.6342	0.7184	0.096
Mof_H 	H 	0.8437	0.7682	0.6928	0.065
Mof_H 	H 	0.8379	0.6002	0.6951	-0.012
Mof_H 	H 	0.7626	0.8894	0.6997	0.032
Mof_H 	H 	0.543	0.8056	0.7154	0.064
Mof_H 	H 	0.4649	0.935	0.7129	0.084
Mof_H 	H 	0.4923	0.1134	0.7116	-0.019
Mof_H 	H 	0.8203	0.237	0.7097	-0.025
Mof_H 	H 	0.8014	0.0618	0.7098	0.061
Mof_H 	H 	0.1297	0.283	0.5319	-0.013
Mof_H 	H 	0.2919	0.4502	0.5288	0.045
Mof_H 	H 	0.4776	0.3096	0.5499	0.098
Mof_H 	H 	0.3106	0.145	0.5506	-0.02
Mof_H 	H 	0.4962	0.57	0.5342	0.023
Mof_H 	H 	0.6318	0.4826	0.5471	0.067
Mof_H 	H 	0.6304	0.7416	0.5458	0.053
Mof_H 	H 	0.787	0.9164	0.5458	-0.03
Mof_H 	H 	0.9893	0.7878	0.541	-0.02
Mof_H 	H 	0.8382	0.6098	0.542	0.086
Mof_H 	H 	0.3563	0.2296	0.0527	-0.056
Mof_H 	H 	0.3328	0.0824	0.9701	-0.142
Mof_H 	H 	0.6372	0.2562	0.0156	-0.156
Mof_H 	H 	0.4311	0.0872	0.9284	0.71
Mof_H 	H 	0.4103	0.9912	0.9467	0.72
Mof_H 	H 	0.5058	0.0276	0.9245	0.709
Mof_H 	H 	0.6711	0.239	0.9351	0.638
Mof_H 	H 	0.6818	0.3072	0.9661	0.66
Mof_H 	H 	0.5821	0.2794	0.9431	0.639
Mof_H 	H 	0.5873	0.0322	0.9808	0.676
Mof_H 	H 	0.6937	0.155	0.984	0.682
Mof_H 	H 	0.6599	0.0742	0.954	0.676
Mof_H 	H 	0.4236	0.4554	0.1344	-0.199
Mof_H 	H 	0.2606	0.5858	0.1841	-0.214
Mof_H 	H 	0.4971	0.5338	0.2211	-0.077
Mof_H 	H 	0.377	0.6838	0.1229	0.744
Mof_H 	H 	0.2754	0.6732	0.1415	0.763
Mof_H 	H 	0.2555	0.6406	0.1074	0.729
Mof_H 	H 	0.0951	0.4528	0.1141	0.894
Mof_H 	H 	0.1204	0.4926	0.1479	0.9
Mof_H 	H 	0.1137	0.3782	0.1341	0.894
Mof_H 	H 	0.2694	0.3924	0.1003	0.929
Mof_H 	H 	0.3735	0.5132	0.0985	0.912
Mof_H 	H 	0.2528	0.4766	0.0837	0.904
Mof_H 	H 	0.8171	0.1596	0.1104	-0.04
Mof_H 	H 	0.0482	0.1036	0.1492	-0.104
Mof_H 	H 	0.9052	0.263	0.1962	-0.113
Mof_H 	H 	0.0745	0.0826	0.2271	0.575
Mof_H 	H 	0.0253	0.0304	0.1947	0.592
Mof_H 	H 	0.9469	0.0456	0.2179	0.557
Mof_H 	H 	0.235	0.2598	0.215	0.599
Mof_H 	H 	0.2129	0.3198	0.1912	0.605
Mof_H 	H 	0.1971	0.1978	0.1827	0.604
Mof_H 	H 	0.979	0.2336	0.2376	0.606
Mof_H 	H 	0.0678	0.3412	0.2247	0.635
Mof_H 	H 	0.1108	0.2868	0.2458	0.617
Mof_H 	H 	0.3867	0.2492	0.1139	-0.017
Mof_H 	H 	0.2188	0.0842	0.1154	0.094
Mof_H 	H 	0.4036	0.9428	0.136	0.053
Mof_H 	H 	0.5665	0.1104	0.1332	-0.014
Mof_H 	H 	0.2	0.8266	0.132	0.024
Mof_H 	H 	0.0647	0.9112	0.1167	0.068
Mof_H 	H 	0.8568	0.782	0.1186	0.085
Mof_H 	H 	0.7051	0.603	0.1188	-0.023
Mof_H 	H 	0.9102	0.479	0.1208	-0.04
Mof_H 	H 	0.0665	0.6534	0.1214	0.056
Mof_H 	H 	0.9424	0.468	0.2189	-0.009
Mof_H 	H 	0.1102	0.6342	0.2184	0.092
Mof_H 	H 	0.9245	0.7682	0.1928	0.066
Mof_H 	H 	0.7623	0.6002	0.1951	-0.016
Mof_H 	H 	0.1268	0.8894	0.1997	0.033
Mof_H 	H 	0.2626	0.8056	0.2154	0.062
Mof_H 	H 	0.4701	0.935	0.2129	0.083
Mof_H 	H 	0.6211	0.1134	0.2116	-0.018
Mof_H 	H 	0.4167	0.237	0.2097	-0.026
Mof_H 	H 	0.2604	0.0618	0.2098	0.06
Mof_H 	H 	0.1533	0.283	0.0319	-0.013
Mof_H 	H 	0.1583	0.4502	0.0288	0.041
Mof_H 	H 	0.832	0.3096	0.0499	0.094
Mof_H 	H 	0.8344	0.145	0.0506	-0.018
Mof_H 	H 	0.0738	0.57	0.0342	0.016
Mof_H 	H 	0.8508	0.4826	0.0471	0.073
Mof_H 	H 	0.1112	0.7416	0.0458	0.054
Mof_H 	H 	0.1294	0.9164	0.0458	-0.032
Mof_H 	H 	0.7985	0.7878	0.041	-0.022
Mof_H 	H 	0.7716	0.6098	0.042	0.087
Mof_H 	H 	0.1267	0.7704	0.4473	-0.055
Mof_H 	H 	0.2504	0.9176	0.5299	-0.144
Mof_H 	H 	0.381	0.7438	0.4844	-0.156
Mof_H 	H 	0.3439	0.9128	0.5716	0.713
Mof_H 	H 	0.4191	0.0088	0.5533	0.726
Mof_H 	H 	0.4782	0.9724	0.5755	0.712
Mof_H 	H 	0.4321	0.761	0.5649	0.641
Mof_H 	H 	0.3746	0.6928	0.5339	0.662
Mof_H 	H 	0.3027	0.7206	0.5569	0.641
Mof_H 	H 	0.5551	0.9678	0.5192	0.679
Mof_H 	H 	0.5387	0.845	0.516	0.685
Mof_H 	H 	0.5857	0.9258	0.546	0.679
Mof_H 	H 	0.9682	0.5446	0.3656	-0.203
Mof_H 	H 	0.6748	0.4142	0.3159	-0.214
Mof_H 	H 	0.9633	0.4662	0.2789	-0.083
Mof_H 	H 	0.6932	0.3162	0.3771	0.737
Mof_H 	H 	0.6022	0.3268	0.3585	0.757
Mof_H 	H 	0.6149	0.3594	0.3926	0.722
Mof_H 	H 	0.6423	0.5472	0.3859	0.882
Mof_H 	H 	0.6278	0.5074	0.3521	0.888
Mof_H 	H 	0.7355	0.6218	0.3659	0.881
Mof_H 	H 	0.877	0.6076	0.3997	0.92
Mof_H 	H 	0.8603	0.4868	0.4015	0.903
Mof_H 	H 	0.7762	0.5234	0.4163	0.896
Mof_H 	H 	0.6575	0.8404	0.3896	-0.048
Mof_H 	H 	0.9446	0.8964	0.3508	-0.138
Mof_H 	H 	0.6422	0.737	0.3038	-0.122
Mof_H 	H 	0.9919	0.9174	0.2729	0.615
Mof_H 	H 	0.9949	0.9696	0.3053	0.631
Mof_H 	H 	0.9013	0.9544	0.2821	0.614
Mof_H 	H 	0.9752	0.7402	0.285	0.62
Mof_H 	H 	0.8931	0.6802	0.3088	0.628
Mof_H 	H 	0.9993	0.8022	0.3173	0.625
Mof_H 	H 	0.7454	0.7664	0.2624	0.663
Mof_H 	H 	0.7266	0.6588	0.2753	0.677
Mof_H 	H 	0.824	0.7132	0.2542	0.66
Mof_H 	H 	0.1375	0.7508	0.3861	-0.016
Mof_H 	H 	0.1346	0.9158	0.3846	0.096
Mof_H 	H 	0.4608	0.0572	0.364	0.055
Mof_H 	H 	0.4561	0.8896	0.3668	-0.015
Mof_H 	H 	0.3734	0.1734	0.368	0.023
Mof_H 	H 	0.1535	0.0888	0.3833	0.071
Mof_H 	H 	0.0748	0.218	0.3814	0.088
Mof_H 	H 	0.1021	0.397	0.3812	-0.021
Mof_H 	H 	0.4312	0.521	0.3792	-0.034
Mof_H 	H 	0.4131	0.3466	0.3786	0.045
Mof_H 	H 	0.4744	0.532	0.2811	-0.014
Mof_H 	H 	0.476	0.3658	0.2816	0.096
Mof_H 	H 	0.1563	0.2318	0.3072	0.065
Mof_H 	H 	0.1621	0.3998	0.3049	-0.012
Mof_H 	H 	0.2374	0.1106	0.3003	0.032
Mof_H 	H 	0.457	0.1944	0.2846	0.064
Mof_H 	H 	0.5351	0.065	0.2871	0.084
Mof_H 	H 	0.5077	0.8866	0.2884	-0.019
Mof_H 	H 	0.1797	0.763	0.2903	-0.025
Mof_H 	H 	0.1986	0.9382	0.2902	0.061
Mof_H 	H 	0.8703	0.717	0.4681	-0.013
Mof_H 	H 	0.7081	0.5498	0.4712	0.045
Mof_H 	H 	0.5224	0.6904	0.4501	0.098
Mof_H 	H 	0.6894	0.855	0.4494	-0.02
Mof_H 	H 	0.5038	0.43	0.4658	0.023
Mof_H 	H 	0.3682	0.5174	0.4529	0.067
Mof_H 	H 	0.3696	0.2584	0.4542	0.053
Mof_H 	H 	0.213	0.0836	0.4542	-0.03
Mof_H 	H 	0.0107	0.2122	0.459	-0.02
Mof_H 	H 	0.1618	0.3902	0.458	0.086
Mof_C 	C 	0.49166	0.74532	0.96164	-0.353
Mof_C 	C 	0.6093	0.7874	0.96319	0.259
Mof_C 	C 	0.67558	0.85496	0.98844	-0.378
Mof_C 	C 	0.62256	0.87532	0.0127	0.429
Mof_C 	C 	0.50489	0.83398	0.01183	-0.783
Mof_C 	C 	0.44155	0.7705	0.98577	0.422
Mof_C 	C 	0.42301	0.68462	0.9331	0.381
Mof_C 	C 	0.80435	0.9111	0.98949	0.494
Mof_C 	C 	0.4465	0.8582	0.03809	1.706
Mof_C 	C 	0.5326	0.946	0.06177	-2.336
Mof_C 	C 	0.371	0.7482	0.04949	-2.209
Mof_C 	C 	0.3692	0.9034	0.02899	-2.228
Mof_C 	C 	0.52933	0.51486	0.82249	-0.448
Mof_C 	C 	0.58966	0.51732	0.84741	0.562
Mof_C 	C 	0.66941	0.47942	0.84543	-0.987
Mof_C 	C 	0.685	0.4378	0.81782	0.56
Mof_C 	C 	0.62241	0.43022	0.79291	-0.432
Mof_C 	C 	0.54467	0.46994	0.79543	0.326
Mof_C 	C 	0.44783	0.56086	0.82541	0.524
Mof_C 	C 	0.64111	0.38622	0.76326	0.413
Mof_C 	C 	0.7374	0.4834	0.87266	2.196
Mof_C 	C 	0.7042	0.3598	0.87548	-2.525
Mof_C 	C 	0.8633	0.5454	0.8688	-2.938
Mof_C 	C 	0.7079	0.5294	0.89992	-3.03
Mof_C 	C 	0.14857	0.77914	0.84661	-0.336
Mof_C 	C 	0.14012	0.83404	0.87294	0.202
Mof_C 	C 	0.06734	0.87988	0.87449	-0.303
Mof_C 	C 	0.00221	0.86782	0.84946	0.305
Mof_C 	C 	0.01018	0.81456	0.82254	-0.656
Mof_C 	C 	0.08597	0.77154	0.8216	0.349
Mof_C 	C 	0.22526	0.72732	0.84478	0.48
Mof_C 	C 	0.05235	0.9335	0.90345	0.348
Mof_C 	C 	0.9383	0.8044	0.79537	1.458
Mof_C 	C 	0.9764	0.9222	0.78827	-1.927
Mof_C 	C 	0.8114	0.7518	0.80226	-1.951
Mof_C 	C 	0.9459	0.7288	0.76944	-2.008
Mof_C 	C 	0.60987	0.81374	0.88183	0.086
Mof_C 	C 	0.71152	0.91284	0.8808	-0.192
Mof_C 	C 	0.70993	0.00806	0.87418	0.09
Mof_C 	C 	0.60234	0.99628	0.86875	-0.184
Mof_C 	C 	0.50426	0.89472	0.87041	0.059
Mof_C 	C 	0.8123	0.1166	0.87332	-0.086
Mof_C 	C 	0.92038	0.14516	0.87903	-0.115
Mof_C 	C 	0.01883	0.25906	0.87914	0.128
Mof_C 	C 	0.12965	0.2781	0.88057	-0.194
Mof_C 	C 	0.22093	0.38666	0.88079	0.107
Mof_C 	C 	0.10101	0.45922	0.8795	0.103
Mof_C 	C 	0.00645	0.3543	0.87903	-0.202
Mof_C 	C 	0.06099	0.46998	0.78606	0.06
Mof_C 	C 	0.95957	0.37054	0.78651	-0.183
Mof_C 	C 	0.96233	0.27766	0.79428	0.104
Mof_C 	C 	0.06969	0.29158	0.80146	-0.206
Mof_C 	C 	0.1669	0.3932	0.80015	0.067
Mof_C 	C 	0.86039	0.16718	0.79505	-0.092
Mof_C 	C 	0.75262	0.13864	0.78918	-0.116
Mof_C 	C 	0.65489	0.02438	0.78942	0.129
Mof_C 	C 	0.5437	0.0052	0.7882	-0.191
Mof_C 	C 	0.4529	0.897	0.78859	0.105
Mof_C 	C 	0.57199	0.82478	0.78985	0.1
Mof_C 	C 	0.66671	0.93042	0.78988	-0.185
Mof_C 	C 	0.9124	0.7118	0.96461	0.064
Mof_C 	C 	0.90845	0.6105	0.96628	-0.182
Mof_C 	C 	0.00377	0.59854	0.96061	0.069
Mof_C 	C 	0.10153	0.69366	0.95405	-0.194
Mof_C 	C 	0.09883	0.79186	0.95343	0.084
Mof_C 	C 	0.99646	0.48772	0.9614	-0.064
Mof_C 	C 	0.07725	0.4605	0.95658	-0.135
Mof_C 	C 	0.06138	0.34656	0.9567	0.139
Mof_C 	C 	0.9543	0.2514	0.95523	-0.186
Mof_C 	C 	0.94402	0.14624	0.95525	0.098
Mof_C 	C 	0.13727	0.22134	0.95789	0.106
Mof_C 	C 	0.15433	0.32926	0.95759	-0.195
Mof_C 	C 	0.74634	0.25468	0.53836	-0.353
Mof_C 	C 	0.8219	0.2126	0.53681	0.26
Mof_C 	C 	0.82062	0.14504	0.51156	-0.38
Mof_C 	C 	0.74724	0.12468	0.4873	0.432
Mof_C 	C 	0.67091	0.16602	0.48817	-0.788
Mof_C 	C 	0.67105	0.2295	0.51423	0.424
Mof_C 	C 	0.73839	0.31538	0.5669	0.381
Mof_C 	C 	0.89325	0.0889	0.51051	0.494
Mof_C 	C 	0.5883	0.1418	0.46191	1.713
Mof_C 	C 	0.5866	0.054	0.43823	-2.351
Mof_C 	C 	0.6228	0.2518	0.45051	-2.216
Mof_C 	C 	0.4658	0.0966	0.47101	-2.237
Mof_C 	C 	0.01447	0.48514	0.67751	-0.465
Mof_C 	C 	0.07234	0.48268	0.65259	0.566
Mof_C 	C 	0.18999	0.52058	0.65457	-0.985
Mof_C 	C 	0.2472	0.5622	0.68218	0.559
Mof_C 	C 	0.19219	0.56978	0.70709	-0.437
Mof_C 	C 	0.07473	0.53006	0.70457	0.333
Mof_C 	C 	0.88697	0.43914	0.67459	0.538
Mof_C 	C 	0.25489	0.61378	0.73674	0.414
Mof_C 	C 	0.254	0.5166	0.62734	2.177
Mof_C 	C 	0.3444	0.6402	0.62452	-2.505
Mof_C 	C 	0.3179	0.4546	0.6312	-2.907
Mof_C 	C 	0.1785	0.4706	0.60008	-3.005
Mof_C 	C 	0.36943	0.22086	0.65339	-0.354
Mof_C 	C 	0.30608	0.16596	0.62706	0.227
Mof_C 	C 	0.18746	0.12012	0.62551	-0.334
Mof_C 	C 	0.13439	0.13218	0.65054	0.368
Mof_C 	C 	0.19562	0.18544	0.67746	-0.697
Mof_C 	C 	0.31443	0.22846	0.6784	0.379
Mof_C 	C 	0.49794	0.27268	0.65522	0.488
Mof_C 	C 	0.11885	0.0665	0.59655	0.376
Mof_C 	C 	0.1339	0.1956	0.70463	1.548
Mof_C 	C 	0.0542	0.0778	0.71173	-2.083
Mof_C 	C 	0.0596	0.2482	0.69774	-2.036
Mof_C 	C 	0.2171	0.2712	0.73056	-2.166
Mof_C 	C 	0.79613	0.18626	0.61817	0.089
Mof_C 	C 	0.79868	0.08716	0.6192	-0.197
Mof_C 	C 	0.70187	0.99194	0.62582	0.096
Mof_C 	C 	0.60606	0.00372	0.63125	-0.19
Mof_C 	C 	0.60954	0.10528	0.62959	0.061
Mof_C 	C 	0.6957	0.8834	0.62668	-0.085
Mof_C 	C 	0.77522	0.85484	0.62097	-0.121
Mof_C 	C 	0.75977	0.74094	0.62086	0.13
Mof_C 	C 	0.85155	0.7219	0.61943	-0.193
Mof_C 	C 	0.83427	0.61334	0.61921	0.107
Mof_C 	C 	0.64179	0.54078	0.6205	0.095
Mof_C 	C 	0.65215	0.6457	0.62097	-0.183
Mof_C 	C 	0.59101	0.53002	0.71394	0.081
Mof_C 	C 	0.58903	0.62946	0.71349	-0.201
Mof_C 	C 	0.68467	0.72234	0.70572	0.095
Mof_C 	C 	0.77811	0.70842	0.69854	-0.189
Mof_C 	C 	0.7737	0.6068	0.69985	0.064
Mof_C 	C 	0.69321	0.83282	0.70495	-0.088
Mof_C 	C 	0.61398	0.86136	0.71082	-0.12
Mof_C 	C 	0.63051	0.97562	0.71058	0.134
Mof_C 	C 	0.5385	0.9948	0.7118	-0.197
Mof_C 	C 	0.5559	0.103	0.71141	0.109
Mof_C 	C 	0.74721	0.17522	0.71015	0.101
Mof_C 	C 	0.73629	0.06958	0.71012	-0.189
Mof_C 	C 	0.2006	0.2882	0.53539	0.063
Mof_C 	C 	0.29795	0.3895	0.53372	-0.195
Mof_C 	C 	0.40523	0.40146	0.53939	0.089
Mof_C 	C 	0.40787	0.30634	0.54595	-0.204
Mof_C 	C 	0.30697	0.20814	0.54657	0.091
Mof_C 	C 	0.50874	0.51228	0.5386	-0.087
Mof_C 	C 	0.61675	0.5395	0.54342	-0.118
Mof_C 	C 	0.71482	0.65344	0.5433	0.133
Mof_C 	C 	0.7029	0.7486	0.54477	-0.183
Mof_C 	C 	0.79778	0.85376	0.54475	0.098
Mof_C 	C 	0.91593	0.77866	0.54211	0.104
Mof_C 	C 	0.82507	0.67074	0.54241	-0.191
Mof_C 	C 	0.50834	0.25468	0.03836	-0.353
Mof_C 	C 	0.3907	0.2126	0.03681	0.259
Mof_C 	C 	0.32442	0.14504	0.01156	-0.378
Mof_C 	C 	0.37744	0.12468	0.9873	0.429
Mof_C 	C 	0.49511	0.16602	0.98817	-0.783
Mof_C 	C 	0.55845	0.2295	0.01423	0.422
Mof_C 	C 	0.57699	0.31538	0.0669	0.381
Mof_C 	C 	0.19565	0.0889	0.01051	0.494
Mof_C 	C 	0.5535	0.1418	0.96191	1.706
Mof_C 	C 	0.4674	0.054	0.93823	-2.336
Mof_C 	C 	0.629	0.2518	0.95051	-2.209
Mof_C 	C 	0.6308	0.0966	0.97101	-2.228
Mof_C 	C 	0.47067	0.48514	0.17751	-0.448
Mof_C 	C 	0.41034	0.48268	0.15259	0.562
Mof_C 	C 	0.33059	0.52058	0.15457	-0.987
Mof_C 	C 	0.315	0.5622	0.18218	0.56
Mof_C 	C 	0.37759	0.56978	0.20709	-0.432
Mof_C 	C 	0.45533	0.53006	0.20457	0.326
Mof_C 	C 	0.55217	0.43914	0.17459	0.524
Mof_C 	C 	0.35889	0.61378	0.23674	0.413
Mof_C 	C 	0.2626	0.5166	0.12734	2.197
Mof_C 	C 	0.2958	0.6402	0.12452	-2.525
Mof_C 	C 	0.1367	0.4546	0.1312	-2.938
Mof_C 	C 	0.2921	0.4706	0.10008	-3.03
Mof_C 	C 	0.85143	0.22086	0.15339	-0.336
Mof_C 	C 	0.85988	0.16596	0.12706	0.202
Mof_C 	C 	0.93266	0.12012	0.12551	-0.303
Mof_C 	C 	0.99779	0.13218	0.15054	0.305
Mof_C 	C 	0.98982	0.18544	0.17746	-0.656
Mof_C 	C 	0.91403	0.22846	0.1784	0.349
Mof_C 	C 	0.77474	0.27268	0.15522	0.48
Mof_C 	C 	0.94765	0.0665	0.09655	0.348
Mof_C 	C 	0.0617	0.1956	0.20463	1.458
Mof_C 	C 	0.0236	0.0778	0.21173	-1.927
Mof_C 	C 	0.1886	0.2482	0.19774	-1.951
Mof_C 	C 	0.0541	0.2712	0.23056	-2.008
Mof_C 	C 	0.39013	0.18626	0.11817	0.086
Mof_C 	C 	0.28848	0.08716	0.1192	-0.192
Mof_C 	C 	0.29007	0.99194	0.12582	0.09
Mof_C 	C 	0.39766	0.00372	0.13125	-0.184
Mof_C 	C 	0.49574	0.10528	0.12959	0.059
Mof_C 	C 	0.1877	0.8834	0.12668	-0.086
Mof_C 	C 	0.07962	0.85484	0.12097	-0.115
Mof_C 	C 	0.98117	0.74094	0.12086	0.128
Mof_C 	C 	0.87035	0.7219	0.11943	-0.194
Mof_C 	C 	0.77907	0.61334	0.11921	0.107
Mof_C 	C 	0.89899	0.54078	0.1205	0.103
Mof_C 	C 	0.99355	0.6457	0.12097	-0.202
Mof_C 	C 	0.93901	0.53002	0.21394	0.06
Mof_C 	C 	0.04043	0.62946	0.21349	-0.183
Mof_C 	C 	0.03767	0.72234	0.20572	0.104
Mof_C 	C 	0.93031	0.70842	0.19854	-0.206
Mof_C 	C 	0.8331	0.6068	0.19985	0.067
Mof_C 	C 	0.13961	0.83282	0.20495	-0.092
Mof_C 	C 	0.24738	0.86136	0.21082	-0.116
Mof_C 	C 	0.34511	0.97562	0.21058	0.129
Mof_C 	C 	0.4563	0.9948	0.2118	-0.191
Mof_C 	C 	0.5471	0.103	0.21141	0.105
Mof_C 	C 	0.42801	0.17522	0.21015	0.1
Mof_C 	C 	0.33329	0.06958	0.21012	-0.185
Mof_C 	C 	0.0876	0.2882	0.03539	0.064
Mof_C 	C 	0.09155	0.3895	0.03372	-0.182
Mof_C 	C 	0.99623	0.40146	0.03939	0.069
Mof_C 	C 	0.89847	0.30634	0.04595	-0.194
Mof_C 	C 	0.90117	0.20814	0.04657	0.084
Mof_C 	C 	0.00354	0.51228	0.0386	-0.064
Mof_C 	C 	0.92275	0.5395	0.04342	-0.135
Mof_C 	C 	0.93862	0.65344	0.0433	0.139
Mof_C 	C 	0.0457	0.7486	0.04477	-0.186
Mof_C 	C 	0.05598	0.85376	0.04475	0.098
Mof_C 	C 	0.86273	0.77866	0.04211	0.106
Mof_C 	C 	0.84567	0.67074	0.04241	-0.195
Mof_C 	C 	0.25366	0.74532	0.46164	-0.353
Mof_C 	C 	0.1781	0.7874	0.46319	0.26
Mof_C 	C 	0.17938	0.85496	0.48844	-0.38
Mof_C 	C 	0.25276	0.87532	0.5127	0.432
Mof_C 	C 	0.32909	0.83398	0.51183	-0.788
Mof_C 	C 	0.32895	0.7705	0.48577	0.424
Mof_C 	C 	0.26161	0.68462	0.4331	0.381
Mof_C 	C 	0.10675	0.9111	0.48949	0.494
Mof_C 	C 	0.4117	0.8582	0.53809	1.713
Mof_C 	C 	0.4134	0.946	0.56177	-2.351
Mof_C 	C 	0.3772	0.7482	0.54949	-2.216
Mof_C 	C 	0.5342	0.9034	0.52899	-2.237
Mof_C 	C 	0.98553	0.51486	0.32249	-0.465
Mof_C 	C 	0.92766	0.51732	0.34741	0.566
Mof_C 	C 	0.81001	0.47942	0.34543	-0.985
Mof_C 	C 	0.7528	0.4378	0.31782	0.559
Mof_C 	C 	0.80781	0.43022	0.29291	-0.437
Mof_C 	C 	0.92527	0.46994	0.29543	0.333
Mof_C 	C 	0.11303	0.56086	0.32541	0.538
Mof_C 	C 	0.74511	0.38622	0.26326	0.414
Mof_C 	C 	0.746	0.4834	0.37266	2.177
Mof_C 	C 	0.6556	0.3598	0.37548	-2.505
Mof_C 	C 	0.6821	0.5454	0.3688	-2.907
Mof_C 	C 	0.8215	0.5294	0.39992	-3.005
Mof_C 	C 	0.63057	0.77914	0.34661	-0.354
Mof_C 	C 	0.69392	0.83404	0.37294	0.227
Mof_C 	C 	0.81254	0.87988	0.37449	-0.334
Mof_C 	C 	0.86561	0.86782	0.34946	0.368
Mof_C 	C 	0.80438	0.81456	0.32254	-0.697
Mof_C 	C 	0.68557	0.77154	0.3216	0.379
Mof_C 	C 	0.50206	0.72732	0.34478	0.488
Mof_C 	C 	0.88115	0.9335	0.40345	0.376
Mof_C 	C 	0.8661	0.8044	0.29537	1.548
Mof_C 	C 	0.9458	0.9222	0.28827	-2.083
Mof_C 	C 	0.9404	0.7518	0.30226	-2.036
Mof_C 	C 	0.7829	0.7288	0.26944	-2.166
Mof_C 	C 	0.20387	0.81374	0.38183	0.089
Mof_C 	C 	0.20132	0.91284	0.3808	-0.197
Mof_C 	C 	0.29813	0.00806	0.37418	0.096
Mof_C 	C 	0.39394	0.99628	0.36875	-0.19
Mof_C 	C 	0.39046	0.89472	0.37041	0.061
Mof_C 	C 	0.3043	0.1166	0.37332	-0.085
Mof_C 	C 	0.22478	0.14516	0.37903	-0.121
Mof_C 	C 	0.24023	0.25906	0.37914	0.13
Mof_C 	C 	0.14845	0.2781	0.38057	-0.193
Mof_C 	C 	0.16573	0.38666	0.38079	0.107
Mof_C 	C 	0.35821	0.45922	0.3795	0.095
Mof_C 	C 	0.34785	0.3543	0.37903	-0.183
Mof_C 	C 	0.40899	0.46998	0.28606	0.081
Mof_C 	C 	0.41097	0.37054	0.28651	-0.201
Mof_C 	C 	0.31533	0.27766	0.29428	0.095
Mof_C 	C 	0.22189	0.29158	0.30146	-0.189
Mof_C 	C 	0.2263	0.3932	0.30015	0.064
Mof_C 	C 	0.30679	0.16718	0.29505	-0.088
Mof_C 	C 	0.38602	0.13864	0.28918	-0.12
Mof_C 	C 	0.36949	0.02438	0.28942	0.134
Mof_C 	C 	0.4615	0.0052	0.2882	-0.197
Mof_C 	C 	0.4441	0.897	0.28859	0.109
Mof_C 	C 	0.25279	0.82478	0.28985	0.101
Mof_C 	C 	0.26371	0.93042	0.28988	-0.189
Mof_C 	C 	0.7994	0.7118	0.46461	0.063
Mof_C 	C 	0.70205	0.6105	0.46628	-0.195
Mof_C 	C 	0.59477	0.59854	0.46061	0.089
Mof_C 	C 	0.59213	0.69366	0.45405	-0.204
Mof_C 	C 	0.69303	0.79186	0.45343	0.091
Mof_C 	C 	0.49126	0.48772	0.4614	-0.087
Mof_C 	C 	0.38325	0.4605	0.45658	-0.118
Mof_C 	C 	0.28518	0.34656	0.4567	0.133
Mof_C 	C 	0.2971	0.2514	0.45523	-0.183
Mof_C 	C 	0.20222	0.14624	0.45525	0.098
Mof_C 	C 	0.08407	0.22134	0.45789	0.104
Mof_C 	C 	0.17493	0.32926	0.45759	-0.191
Mof_N 	N 	0.50629	0.80338	0.87697	-0.235
Mof_N 	N 	0.20814	0.47728	0.88043	-0.239
Mof_N 	N 	0.16539	0.48258	0.79249	-0.237
Mof_N 	N 	0.46575	0.8073	0.78922	-0.237
Mof_N 	N 	0.00582	0.80324	0.95824	-0.235
Mof_N 	N 	0.03357	0.12914	0.95665	-0.244
Mof_N 	N 	0.70291	0.19662	0.62303	-0.236
Mof_N 	N 	0.73086	0.52272	0.61957	-0.237
Mof_N 	N 	0.68281	0.51742	0.70751	-0.238
Mof_N 	N 	0.65845	0.1927	0.71078	-0.238
Mof_N 	N 	0.20258	0.19676	0.54176	-0.233
Mof_N 	N 	0.90443	0.87086	0.54335	-0.242
Mof_N 	N 	0.49371	0.19662	0.12303	-0.235
Mof_N 	N 	0.79186	0.52272	0.11957	-0.239
Mof_N 	N 	0.83461	0.51742	0.20751	-0.237
Mof_N 	N 	0.53425	0.1927	0.21078	-0.237
Mof_N 	N 	0.99418	0.19676	0.04176	-0.235
Mof_N 	N 	0.96643	0.87086	0.04335	-0.244
Mof_N 	N 	0.29709	0.80338	0.37697	-0.236
Mof_N 	N 	0.26914	0.47728	0.38043	-0.237
Mof_N 	N 	0.31719	0.48258	0.29249	-0.238
Mof_N 	N 	0.34155	0.8073	0.28922	-0.238
Mof_N 	N 	0.79742	0.80324	0.45824	-0.233
Mof_N 	N 	0.09557	0.12914	0.45665	-0.242
Mof_O 	O 	0.45361	0.62806	0.91536	-0.406
Mof_O 	O 	0.34029	0.69786	0.92608	-0.416
Mof_O 	O 	0.84834	0.89554	0.96668	-0.485
Mof_O 	O 	0.85898	0.97242	0.0126	-0.503
Mof_O 	O 	0.41188	0.56918	0.84977	-0.508
Mof_O 	O 	0.42171	0.58628	0.80257	-0.498
Mof_O 	O 	0.55897	0.33674	0.74406	-0.42
Mof_O 	O 	0.73959	0.40398	0.75744	-0.419
Mof_O 	O 	0.26223	0.71736	0.82059	-0.496
Mof_O 	O 	0.24771	0.7001	0.86761	-0.487
Mof_O 	O 	0.13652	0.98708	0.92204	-0.399
Mof_O 	O 	0.95522	0.91804	0.90916	-0.403
Mof_O 	O 	0.82555	0.37194	0.58464	-0.404
Mof_O 	O 	0.64243	0.30214	0.57392	-0.415
Mof_O 	O 	0.9528	0.10446	0.53332	-0.487
Mof_O 	O 	0.88656	0.02758	0.4874	-0.508
Mof_O 	O 	0.8427	0.43082	0.65023	-0.509
Mof_O 	O 	0.83543	0.41372	0.69743	-0.498
Mof_O 	O 	0.22223	0.66326	0.75594	-0.421
Mof_O 	O 	0.33561	0.59602	0.74256	-0.423
Mof_O 	O 	0.54487	0.28264	0.67941	-0.498
Mof_O 	O 	0.54761	0.2999	0.63239	-0.488
Mof_O 	O 	0.14944	0.01292	0.57796	-0.404
Mof_O 	O 	0.03718	0.08196	0.59084	-0.421
Mof_O 	O 	0.54639	0.37194	0.08464	-0.406
Mof_O 	O 	0.65971	0.30214	0.07392	-0.416
Mof_O 	O 	0.15166	0.10446	0.03332	-0.485
Mof_O 	O 	0.14102	0.02758	0.9874	-0.503
Mof_O 	O 	0.58812	0.43082	0.15023	-0.508
Mof_O 	O 	0.57829	0.41372	0.19743	-0.498
Mof_O 	O 	0.44103	0.66326	0.25594	-0.42
Mof_O 	O 	0.26041	0.59602	0.24256	-0.419
Mof_O 	O 	0.73777	0.28264	0.17941	-0.496
Mof_O 	O 	0.75229	0.2999	0.13239	-0.487
Mof_O 	O 	0.86348	0.01292	0.07796	-0.399
Mof_O 	O 	0.04478	0.08196	0.09084	-0.403
Mof_O 	O 	0.17445	0.62806	0.41536	-0.404
Mof_O 	O 	0.35757	0.69786	0.42608	-0.415
Mof_O 	O 	0.0472	0.89554	0.46668	-0.487
Mof_O 	O 	0.11344	0.97242	0.5126	-0.508
Mof_O 	O 	0.1573	0.56918	0.34977	-0.509
Mof_O 	O 	0.16457	0.58628	0.30257	-0.498
Mof_O 	O 	0.77777	0.33674	0.24406	-0.421
Mof_O 	O 	0.66439	0.40398	0.25744	-0.423
Mof_O 	O 	0.45513	0.71736	0.32059	-0.498
Mof_O 	O 	0.45239	0.7001	0.36761	-0.488
Mof_O 	O 	0.85056	0.98708	0.42204	-0.404
Mof_O 	O 	0.96282	0.91804	0.40916	-0.421
_end
