data_functionalizedCrystal
_audit_creation_method	'EQeq! by Chris Wilmer'
_symmetry_space_group_name_H-M	'P1'
_symmetry_Int_Tables_number	1
_symmetry_cell_setting	triclinic
loop_
_symmetry_equiv_pos_as_xyz
  x,y,z
_cell_length_a	13.8783
_cell_length_b	20.3674
_cell_length_c	21.0344
_cell_angle_alpha	62.572
_cell_angle_beta	82.489
_cell_angle_gamma	73.85
loop_
_atom_site_label
_atom_site_type_symbol
_atom_site_fract_x
_atom_site_fract_y
_atom_site_fract_z
_atom_site_charge
Mof_Mn	Mn	0.08736	0.31757	0.33984	0.993
Mof_Mn	Mn	0.31424	0.2919	0.42329	0.755
Mof_Mn	Mn	0.87694	0.24908	0.44151	0.829
Mof_H 	H 	0.3254	0.0973	0.1869	0.095
Mof_H 	H 	0.0425	0.0655	0.7014	0.095
Mof_H 	H 	0.2841	0.8704	0.9293	0.307
Mof_H 	H 	0.6309	0.1428	0.9322	0.288
Mof_H 	H 	0.204	0.9264	0.8694	0.314
Mof_H 	H 	0.7893	0.12	0.5954	0.005
Mof_H 	H 	0.0972	0.5415	0.1746	-0.003
Mof_H 	H 	0.6638	0.8422	0.9621	0.285
Mof_H 	H 	0.1872	0.2678	0.5682	-0.026
Mof_H 	H 	0.068	0.1652	0.9638	0.304
Mof_H 	H 	0.3162	0.5245	0.2917	-0
Mof_H 	H 	0.2014	0.208	0.6926	0.091
Mof_H 	H 	0.0083	0.1612	0.9078	0.305
Mof_H 	H 	0.6292	0.6175	0.2111	0.086
Mof_H 	H 	0.0329	0.123	0.579	-0.026
Mof_H 	H 	0.9608	0.5279	0.2844	0.014
Mof_H 	H 	0.6913	0.4901	0.2853	0.019
Mof_H 	H 	0.8757	0.1417	0.2982	0.006
Mof_H 	H 	0.9149	0.0777	0.2275	0.087
Mof_H 	H 	0.1793	0.8535	0.9335	0.314
Mof_H 	H 	0.0575	0.2751	0.1782	0.006
Mof_H 	H 	0.4841	0.2064	0.2776	0
Mof_H 	H 	0.1878	0.8689	0.1758	0.31
Mof_H 	H 	0.5464	0.1464	0.9887	0.282
Mof_H 	H 	0.7853	0.0277	0.7264	0.08
Mof_H 	H 	0.5235	0.1384	0.9219	0.291
Mof_H 	H 	0.2371	0.1514	0.2592	0.003
Mof_H 	H 	0.0987	0.6649	0.1002	0.097
Mof_H 	H 	0.1206	0.1657	0.893	0.309
Mof_H 	H 	0.6511	0.9098	0.2143	0.298
Mof_H 	H 	0.6409	0.8352	0.214	0.297
Mof_H 	H 	0.3181	0.6499	0.2165	0.099
Mof_H 	H 	0.0947	0.2143	0.1062	0.09
Mof_H 	H 	0.0778	0.8661	0.1696	0.306
Mof_H 	H 	0.545	0.9006	0.2074	0.302
Mof_H 	H 	0.5589	0.27	0.6207	0.013
Mof_H 	H 	0.0971	0.9349	0.1763	0.314
Mof_H 	H 	0.5545	0.1933	0.7412	0.069
Mof_H 	H 	0.7697	0.8206	0.995	0.283
Mof_H 	H 	0.901	0.6543	0.2103	0.085
Mof_H 	H 	0.7408	0.8916	0.9206	0.291
Mof_H 	H 	0.5722	0.1491	0.2065	0.097
Mof_C 	C 	0.9658	0.2134	0.2468	-0.166
Mof_C 	C 	0.1268	0.1275	0.7114	0.163
Mof_C 	C 	0.733	0.5233	0.2706	0.079
Mof_C 	C 	0.1419	0.5632	0.183	0.129
Mof_C 	C 	0.6007	0.1756	0.7129	-0.163
Mof_C 	C 	0.1725	0.9382	0.9617	0.442
Mof_C 	C 	0.5735	0.1243	0.9565	-0.889
Mof_C 	C 	0.1426	0.6368	0.1388	-0.218
Mof_C 	C 	0.6015	0.2214	0.6412	0.063
Mof_C 	C 	0.1013	0.02	0.0412	-0.351
Mof_C 	C 	0.2089	0.6715	0.1504	0.168
Mof_C 	C 	0.7395	0.1306	0.6258	0.046
Mof_C 	C 	0.5096	0.0824	0.1459	-0.172
Mof_C 	C 	0.6449	0.9923	0.9639	-0.303
Mof_C 	C 	0.3041	0.152	0.2483	0.11
Mof_C 	C 	0.0735	0.1051	0.6749	-0.22
Mof_C 	C 	0.8586	0.6215	0.2251	-0.181
Mof_C 	C 	0.0092	0.1402	0.1588	0.153
Mof_C 	C 	0.3577	0.1193	0.2052	-0.212
Mof_C 	C 	0.106	0.0604	0.966	0.425
Mof_C 	C 	0.873	0.4111	0.3463	0.38
Mof_C 	C 	0.6647	0.8799	0.0785	-0.338
Mof_C 	C 	0.549	0.0492	0.1101	0.125
Mof_C 	C 	0.1682	0.1904	0.6703	-0.214
Mof_C 	C 	0.2045	0.7507	0.107	-0.176
Mof_C 	C 	0.6254	0.9255	0.114	0.389
Mof_C 	C 	0.3523	0.186	0.2752	-0.181
Mof_C 	C 	0.7395	0.0751	0.7071	-0.16
Mof_C 	C 	0.0513	0.1989	0.1449	-0.205
Mof_C 	C 	0.6658	0.1936	0.6016	-0.13
Mof_C 	C 	0.6041	0.0389	0.9981	0.37
Mof_C 	C 	0.5046	0.1502	0.2164	-0.212
Mof_C 	C 	0.0662	0.1402	0.6016	0.127
Mof_C 	C 	0.1222	0.899	0.1568	-0.954
Mof_C 	C 	0.6565	0.0272	0.8877	0.116
Mof_C 	C 	0.4568	0.1184	0.189	0.173
Mof_C 	C 	0.9208	0.1554	0.2604	0.098
Mof_C 	C 	0.6959	0.5992	0.2257	-0.17
Mof_C 	C 	0.1918	0.819	0.0726	0.123
Mof_C 	C 	0.0637	0.0629	0.083	0.135
Mof_C 	C 	0.9519	0.2488	0.298	0.395
Mof_C 	C 	0.7609	0.6498	0.2015	0.132
Mof_C 	C 	0.1401	0.0174	0.9273	-0.372
Mof_C 	C 	0.7218	0.73	0.1561	-0.151
Mof_C 	C 	0.2922	0.2243	0.3208	0.435
Mof_C 	C 	0.1006	0.2401	0.4819	0.383
Mof_C 	C 	0.9433	0.1177	0.2175	-0.199
Mof_C 	C 	0.1643	0.9011	0.0365	-0.382
Mof_C 	C 	0.1591	0.2266	0.5954	0.115
Mof_C 	C 	0.1083	0.2011	0.5616	-0.21
Mof_C 	C 	0.4514	0.1845	0.2595	0.115
Mof_C 	C 	0.8318	0.495	0.2947	-0.142
Mof_C 	C 	0.0728	0.1458	0.9294	-0.952
Mof_C 	C 	0.0291	0.235	0.1884	0.109
Mof_C 	C 	0.6608	0.2464	0.5159	0.347
Mof_C 	C 	0.6705	0.0983	0.7483	0.112
Mof_C 	C 	0.6146	0.8894	0.1948	-0.914
Mof_C 	C 	0.2727	0.5531	0.2529	0.117
Mof_C 	C 	0.2137	0.893	0.9196	-0.962
Mof_C 	C 	0.6633	0.0582	0.8244	-0.158
Mof_C 	C 	0.2735	0.6282	0.2079	-0.212
Mof_C 	C 	0.2068	0.438	0.2898	0.423
Mof_C 	C 	0.716	0.8621	0.9671	-0.88
Mof_C 	C 	0.8941	0.546	0.2699	0.083
Mof_C 	C 	0.1401	0.0572	0.8505	0.149
Mof_C 	C 	0.6954	0.7983	0.1199	0.097
Mof_C 	C 	0.1359	0.0886	0.7881	-0.196
Mof_C 	C 	0.593	0.0038	0.0745	-0.319
Mof_C 	C 	0.0383	0.0972	0.1163	-0.18
Mof_C 	C 	0.2064	0.5204	0.2398	-0.187
Mof_C 	C 	0.6745	0.9122	0.0043	0.373
Mof_C 	C 	0.1285	0.9414	0.0762	0.432
Mof_O 	O 	0.8134	0.3689	0.3701	-0.36
Mof_O 	O 	0.2012	0.2325	0.3246	-0.414
Mof_O 	O 	0.1498	0.4098	0.2742	-0.404
Mof_O 	O 	0.0424	0.2266	0.4512	-0.438
Mof_O 	O 	0.3423	0.2442	0.3504	-0.411
Mof_O 	O 	0.5823	0.3022	0.4946	-0.268
Mof_O 	O 	0.7258	0.2306	0.4787	-0.37
Mof_O 	O 	0.9006	0.2217	0.3534	-0.377
Mof_O 	O 	0.1557	0.2867	0.4458	-0.437
Mof_O 	O 	0.2623	0.4054	0.3432	-0.398
Mof_O 	O 	0.9903	0.3042	0.2802	-0.391
Mof_O 	O 	0.9628	0.3921	0.3637	-0.395
Mof_Mn	Mn	0.91264	0.68243	0.66016	0.994
Mof_Mn	Mn	0.68576	0.7081	0.57671	0.756
Mof_Mn	Mn	0.12306	0.75092	0.55849	0.83
Mof_H 	H 	0.9053	0.7857	0.8938	0.09
Mof_H 	H 	0.9671	0.877	0.421	-0.026
Mof_H 	H 	0.0851	0.9223	0.7725	0.087
Mof_H 	H 	0.2303	0.1794	0.005	0.283
Mof_H 	H 	0.6746	0.9027	0.8131	0.096
Mof_H 	H 	0.4455	0.8067	0.2588	0.069
Mof_H 	H 	0.3362	0.1578	0.0379	0.285
Mof_H 	H 	0.8207	0.1465	0.0665	0.314
Mof_H 	H 	0.3087	0.5099	0.7147	0.019
Mof_H 	H 	0.7629	0.8486	0.7408	0.003
Mof_H 	H 	0.2592	0.1084	0.0794	0.291
Mof_H 	H 	0.9028	0.4585	0.8254	-0.003
Mof_H 	H 	0.8122	0.1311	0.8242	0.31
Mof_H 	H 	0.7986	0.792	0.3074	0.091
Mof_H 	H 	0.3691	0.8572	0.0678	0.289
Mof_H 	H 	0.099	0.3457	0.7897	0.085
Mof_H 	H 	0.3489	0.0902	0.7857	0.298
Mof_H 	H 	0.4536	0.8536	0.0113	0.282
Mof_H 	H 	0.2147	0.9723	0.2736	0.08
Mof_H 	H 	0.4411	0.73	0.3793	0.013
Mof_H 	H 	0.9425	0.7249	0.8218	0.006
Mof_H 	H 	0.1243	0.8583	0.7018	0.006
Mof_H 	H 	0.3591	0.1648	0.786	0.297
Mof_H 	H 	0.796	0.0736	0.1306	0.315
Mof_H 	H 	0.4278	0.8509	0.7935	0.097
Mof_H 	H 	0.0392	0.4721	0.7156	0.014
Mof_H 	H 	0.9222	0.1339	0.8304	0.306
Mof_H 	H 	0.9013	0.3351	0.8998	0.097
Mof_H 	H 	0.7159	0.1296	0.0707	0.308
Mof_H 	H 	0.5159	0.7936	0.7224	0
Mof_H 	H 	0.9917	0.8388	0.0922	0.305
Mof_H 	H 	0.6838	0.4755	0.7083	-0
Mof_H 	H 	0.9029	0.0651	0.8237	0.314
Mof_H 	H 	0.455	0.0994	0.7926	0.302
Mof_H 	H 	0.932	0.8348	0.0362	0.304
Mof_H 	H 	0.4765	0.8616	0.0781	0.291
Mof_H 	H 	0.9575	0.9345	0.2986	0.096
Mof_H 	H 	0.8794	0.8343	0.107	0.309
Mof_H 	H 	0.6819	0.3501	0.7835	0.099
Mof_H 	H 	0.8128	0.7322	0.4318	-0.026
Mof_H 	H 	0.2107	0.88	0.4046	0.005
Mof_H 	H 	0.3708	0.3825	0.7889	0.086
Mof_C 	C 	0.8641	0.9114	0.2119	-0.196
Mof_C 	C 	0.8987	0.98	0.9588	-0.351
Mof_C 	C 	0.3367	0.9418	0.1756	-0.158
Mof_C 	C 	0.3041	0.4008	0.7743	-0.17
Mof_C 	C 	0.7911	0.3285	0.8496	0.168
Mof_C 	C 	0.3255	0.0878	0.9957	0.373
Mof_C 	C 	0.7863	0.107	0.0804	-0.962
Mof_C 	C 	0.7936	0.4796	0.7602	-0.187
Mof_C 	C 	0.2391	0.3502	0.7985	0.132
Mof_C 	C 	0.8357	0.0989	0.9635	-0.382
Mof_C 	C 	0.5432	0.8816	0.811	0.173
Mof_C 	C 	0.1682	0.505	0.7053	-0.142
Mof_C 	C 	0.3295	0.9017	0.2517	0.112
Mof_C 	C 	0.8994	0.7599	0.5181	0.383
Mof_C 	C 	0.9265	0.8949	0.3251	-0.22
Mof_C 	C 	0.9272	0.8542	0.0706	-0.952
Mof_C 	C 	0.0342	0.7866	0.7532	-0.166
Mof_C 	C 	0.894	0.9396	0.034	0.425
Mof_C 	C 	0.8732	0.8725	0.2886	0.163
Mof_C 	C 	0.7932	0.562	0.7102	0.423
Mof_C 	C 	0.2782	0.27	0.8439	-0.151
Mof_C 	C 	0.6959	0.848	0.7517	0.11
Mof_C 	C 	0.8778	0.101	0.8432	-0.954
Mof_C 	C 	0.4954	0.8498	0.7836	-0.212
Mof_C 	C 	0.5486	0.8155	0.7405	0.115
Mof_C 	C 	0.8715	0.0586	0.9238	0.432
Mof_C 	C 	0.267	0.4767	0.7294	0.079
Mof_C 	C 	0.3551	0.0077	0.0361	-0.303
Mof_C 	C 	0.127	0.5889	0.6537	0.38
Mof_C 	C 	0.6423	0.8807	0.7948	-0.212
Mof_C 	C 	0.8082	0.181	0.9274	0.123
Mof_C 	C 	0.7955	0.2493	0.893	-0.176
Mof_C 	C 	0.9338	0.8598	0.3984	0.127
Mof_C 	C 	0.9709	0.765	0.8116	0.109
Mof_C 	C 	0.8318	0.8096	0.3297	-0.214
Mof_C 	C 	0.2605	0.8694	0.3742	0.046
Mof_C 	C 	0.3392	0.7536	0.4841	0.347
Mof_C 	C 	0.284	0.1379	0.0329	-0.88
Mof_C 	C 	0.0567	0.8823	0.7825	-0.199
Mof_C 	C 	0.2605	0.9249	0.2929	-0.16
Mof_C 	C 	0.0481	0.7512	0.702	0.395
Mof_C 	C 	0.9908	0.8598	0.8412	0.153
Mof_C 	C 	0.8275	0.0618	0.0383	0.442
Mof_C 	C 	0.1414	0.3785	0.7749	-0.181
Mof_C 	C 	0.8599	0.9428	0.1495	0.149
Mof_C 	C 	0.3435	0.9728	0.1123	0.116
Mof_C 	C 	0.4904	0.9176	0.8541	-0.172
Mof_C 	C 	0.3993	0.8244	0.2871	-0.163
Mof_C 	C 	0.6477	0.814	0.7248	-0.181
Mof_C 	C 	0.407	0.9962	0.9255	-0.319
Mof_C 	C 	0.3353	0.1201	0.9215	-0.338
Mof_C 	C 	0.3746	0.0745	0.886	0.389
Mof_C 	C 	0.3342	0.8064	0.3984	-0.13
Mof_C 	C 	0.3959	0.9611	0.0019	0.37
Mof_C 	C 	0.4265	0.8757	0.0435	-0.889
Mof_C 	C 	0.8599	0.9826	0.0727	-0.372
Mof_C 	C 	0.0792	0.8446	0.7396	0.098
Mof_C 	C 	0.3046	0.2017	0.8801	0.097
Mof_C 	C 	0.3985	0.7786	0.3588	0.063
Mof_C 	C 	0.3854	0.1106	0.8052	-0.914
Mof_C 	C 	0.9487	0.8011	0.8551	-0.205
Mof_C 	C 	0.1059	0.454	0.7301	0.083
Mof_C 	C 	0.7273	0.4469	0.7471	0.117
Mof_C 	C 	0.9363	0.9371	0.917	0.135
Mof_C 	C 	0.8409	0.7734	0.4046	0.115
Mof_C 	C 	0.7265	0.3718	0.7921	-0.212
Mof_C 	C 	0.8574	0.3632	0.8612	-0.218
Mof_C 	C 	0.7078	0.7757	0.6792	0.435
Mof_C 	C 	0.451	0.9508	0.8899	0.125
Mof_C 	C 	0.9617	0.9028	0.8837	-0.18
Mof_C 	C 	0.8581	0.4368	0.817	0.129
Mof_C 	C 	0.8917	0.7989	0.4384	-0.21
Mof_O 	O 	0.6577	0.7558	0.6496	-0.411
Mof_O 	O 	0.2742	0.7694	0.5213	-0.37
Mof_O 	O 	0.0994	0.7783	0.6466	-0.377
Mof_O 	O 	0.0372	0.6079	0.6363	-0.395
Mof_O 	O 	0.7377	0.5946	0.6568	-0.398
Mof_O 	O 	0.8443	0.7133	0.5542	-0.437
Mof_O 	O 	0.9576	0.7734	0.5488	-0.438
Mof_O 	O 	0.4177	0.6978	0.5054	-0.268
Mof_O 	O 	0.8502	0.5902	0.7258	-0.404
Mof_O 	O 	0.0097	0.6958	0.7198	-0.391
Mof_O 	O 	0.1866	0.6311	0.6299	-0.36
Mof_O 	O 	0.7988	0.7675	0.6754	-0.414
_end
