data_functionalizedCrystal
_audit_creation_method	'EQeq! by Chris Wilmer'
_symmetry_space_group_name_H-M	'P1'
_symmetry_Int_Tables_number	1
_symmetry_cell_setting	triclinic
loop_
_symmetry_equiv_pos_as_xyz
  x,y,z
_cell_length_a	19.61
_cell_length_b	9.409
_cell_length_c	20.32
_cell_angle_alpha	90
_cell_angle_beta	125.31
_cell_angle_gamma	90
loop_
_atom_site_label
_atom_site_type_symbol
_atom_site_fract_x
_atom_site_fract_y
_atom_site_fract_z
_atom_site_charge
Mof_Cu	Cu	0.2495	0.9991	0.0667	0.785
Mof_Cu	Cu	0.7517	0.7441	0.4271	0.877
Mof_C 	C 	0.9762	0.0608	0.8883	0.019
Mof_C 	C 	0.0673	0.0511	0.9202	-0.028
Mof_C 	C 	0.1197	0.9948	0.0052	-0.169
Mof_C 	C 	0.1461	0.9583	0.0727	-0.116
Mof_C 	C 	0.1514	0.9161	0.1452	-0.001
Mof_C 	C 	0.938	0.9145	0.8737	-0.013
Mof_C 	C 	0.3802	0.9956	0.145	-0.161
Mof_C 	C 	0.357	0.918	0.1731	-0.11
Mof_C 	C 	0.3543	0.8142	0.226	-0.007
Mof_C 	C 	0.4414	0.7624	0.2946	0.105
Mof_C 	C 	0.4764	0.6626	0.2629	-0.031
Mof_C 	C 	0.57	0.6278	0.3273	0.036
Mof_C 	C 	0.6241	0.7505	0.3384	-0.087
Mof_C 	C 	0.6481	0.8658	0.3338	-0.119
Mof_C 	C 	0.6543	0.011	0.3149	0.051
Mof_C 	C 	0.5691	0.0775	0.26	0.021
Mof_C 	C 	0.5206	0.0331	0.1726	0.004
Mof_C 	C 	0.4298	0.0837	0.1233	-0.032
Mof_C 	C 	0.8828	0.7815	0.4977	-0.057
Mof_C 	C 	0.8564	0.82	0.4315	-0.08
Mof_C 	C 	0.8519	0.8715	0.3593	0.016
Mof_C 	C 	0.9378	0.8793	0.3749	0.022
Mof_C 	C 	0.9739	0.7332	0.382	0.053
Mof_C 	C 	0.9328	0.7358	0.5835	0.028
Mof_S 	S 	0.739	0.8839	0.5768	0.317
Mof_O 	O 	0.7443	0.7665	0.5341	-0.278
Mof_O 	O 	0.7969	0.8785	0.6631	-0.203
Mof_O 	O 	0.7311	0.0224	0.5411	-0.291
Mof_C 	C 	0.6365	0.8552	0.5577	0.84
Mof_F 	F 	0.634	0.7299	0.5831	-0.479
Mof_F 	F 	0.6247	0.9505	0.5983	-0.481
Mof_F 	F 	0.5768	0.8702	0.4815	-0.468
Mof_Cu	Cu	0.7495	0.4991	0.0667	0.789
Mof_Cu	Cu	0.2517	0.2441	0.4271	0.879
Mof_C 	C 	0.4762	0.5608	0.8883	-0.002
Mof_C 	C 	0.5673	0.5511	0.9202	-0.05
Mof_C 	C 	0.6197	0.4948	0.0052	-0.144
Mof_C 	C 	0.6461	0.4583	0.0727	-0.122
Mof_C 	C 	0.6514	0.4161	0.1452	0.004
Mof_C 	C 	0.438	0.4145	0.8737	0.005
Mof_C 	C 	0.8802	0.4956	0.145	-0.132
Mof_C 	C 	0.857	0.418	0.1731	-0.119
Mof_C 	C 	0.8543	0.3142	0.226	0.001
Mof_C 	C 	0.9414	0.2624	0.2946	0.108
Mof_C 	C 	0.9764	0.1626	0.2629	-0.028
Mof_C 	C 	0.07	0.1278	0.3273	0.048
Mof_C 	C 	0.1241	0.2505	0.3384	-0.097
Mof_C 	C 	0.1481	0.3658	0.3338	-0.087
Mof_C 	C 	0.1543	0.511	0.3149	0.025
Mof_C 	C 	0.0691	0.5775	0.26	0.018
Mof_C 	C 	0.0206	0.5331	0.1726	-0.001
Mof_C 	C 	0.9298	0.5837	0.1233	-0.056
Mof_C 	C 	0.3828	0.2815	0.4977	-0.053
Mof_C 	C 	0.3564	0.32	0.4315	-0.076
Mof_C 	C 	0.3519	0.3715	0.3593	0.027
Mof_C 	C 	0.4378	0.3793	0.3749	0.03
Mof_C 	C 	0.4739	0.2332	0.382	0.06
Mof_C 	C 	0.4328	0.2358	0.5835	0.034
Mof_S 	S 	0.239	0.3839	0.5768	0.347
Mof_O 	O 	0.2443	0.2665	0.5341	-0.281
Mof_O 	O 	0.2969	0.3785	0.6631	-0.203
Mof_O 	O 	0.2311	0.5224	0.5411	-0.314
Mof_C 	C 	0.1365	0.3552	0.5577	0.836
Mof_F 	F 	0.134	0.2299	0.5831	-0.474
Mof_F 	F 	0.1247	0.4505	0.5983	-0.473
Mof_F 	F 	0.0768	0.3702	0.4815	-0.462
Mof_Cu	Cu	0.7505	0.9991	0.9333	0.785
Mof_Cu	Cu	0.2483	0.7441	0.5729	0.877
Mof_C 	C 	0.0238	0.0608	0.1117	0.019
Mof_C 	C 	0.9327	0.0511	0.0798	-0.028
Mof_C 	C 	0.8803	0.9948	0.9948	-0.169
Mof_C 	C 	0.8539	0.9583	0.9273	-0.116
Mof_C 	C 	0.8486	0.9161	0.8548	-0.001
Mof_C 	C 	0.062	0.9145	0.1263	-0.013
Mof_C 	C 	0.6198	0.9956	0.855	-0.161
Mof_C 	C 	0.643	0.918	0.8269	-0.11
Mof_C 	C 	0.6457	0.8142	0.774	-0.007
Mof_C 	C 	0.5586	0.7624	0.7054	0.105
Mof_C 	C 	0.5236	0.6626	0.7371	-0.031
Mof_C 	C 	0.43	0.6278	0.6727	0.036
Mof_C 	C 	0.3759	0.7505	0.6616	-0.087
Mof_C 	C 	0.3519	0.8658	0.6662	-0.119
Mof_C 	C 	0.3457	0.011	0.6851	0.051
Mof_C 	C 	0.4309	0.0775	0.74	0.021
Mof_C 	C 	0.4794	0.0331	0.8274	0.004
Mof_C 	C 	0.5702	0.0837	0.8767	-0.032
Mof_C 	C 	0.1172	0.7815	0.5023	-0.057
Mof_C 	C 	0.1436	0.82	0.5685	-0.08
Mof_C 	C 	0.1481	0.8715	0.6407	0.016
Mof_C 	C 	0.0622	0.8793	0.6251	0.022
Mof_C 	C 	0.0261	0.7332	0.618	0.053
Mof_C 	C 	0.0672	0.7358	0.4165	0.028
Mof_S 	S 	0.261	0.8839	0.4232	0.317
Mof_O 	O 	0.2557	0.7665	0.4659	-0.278
Mof_O 	O 	0.2031	0.8785	0.3369	-0.203
Mof_O 	O 	0.2689	0.0224	0.4589	-0.291
Mof_C 	C 	0.3635	0.8552	0.4423	0.84
Mof_F 	F 	0.366	0.7299	0.4169	-0.479
Mof_F 	F 	0.3753	0.9505	0.4017	-0.481
Mof_F 	F 	0.4232	0.8702	0.5185	-0.468
Mof_Cu	Cu	0.2505	0.4991	0.9333	0.789
Mof_Cu	Cu	0.7483	0.2441	0.5729	0.879
Mof_C 	C 	0.5238	0.5608	0.1117	-0.002
Mof_C 	C 	0.4327	0.5511	0.0798	-0.05
Mof_C 	C 	0.3803	0.4948	0.9948	-0.144
Mof_C 	C 	0.3539	0.4583	0.9273	-0.122
Mof_C 	C 	0.3486	0.4161	0.8548	0.004
Mof_C 	C 	0.562	0.4145	0.1263	0.005
Mof_C 	C 	0.1198	0.4956	0.855	-0.132
Mof_C 	C 	0.143	0.418	0.8269	-0.119
Mof_C 	C 	0.1457	0.3142	0.774	0.001
Mof_C 	C 	0.0586	0.2624	0.7054	0.108
Mof_C 	C 	0.0236	0.1626	0.7371	-0.028
Mof_C 	C 	0.93	0.1278	0.6727	0.048
Mof_C 	C 	0.8759	0.2505	0.6616	-0.097
Mof_C 	C 	0.8519	0.3658	0.6662	-0.087
Mof_C 	C 	0.8457	0.511	0.6851	0.025
Mof_C 	C 	0.9309	0.5775	0.74	0.018
Mof_C 	C 	0.9794	0.5331	0.8274	-0.001
Mof_C 	C 	0.0702	0.5837	0.8767	-0.056
Mof_C 	C 	0.6172	0.2815	0.5023	-0.053
Mof_C 	C 	0.6436	0.32	0.5685	-0.076
Mof_C 	C 	0.6481	0.3715	0.6407	0.027
Mof_C 	C 	0.5622	0.3793	0.6251	0.03
Mof_C 	C 	0.5261	0.2332	0.618	0.06
Mof_C 	C 	0.5672	0.2358	0.4165	0.034
Mof_S 	S 	0.761	0.3839	0.4232	0.347
Mof_O 	O 	0.7557	0.2665	0.4659	-0.281
Mof_O 	O 	0.7031	0.3785	0.3369	-0.203
Mof_O 	O 	0.7689	0.5224	0.4589	-0.314
Mof_C 	C 	0.8635	0.3552	0.4423	0.836
Mof_F 	F 	0.866	0.2299	0.4169	-0.474
Mof_F 	F 	0.8753	0.4505	0.4017	-0.473
Mof_F 	F 	0.9232	0.3702	0.5185	-0.462
_end
