data_functionalizedCrystal
_audit_creation_method	'EQeq! by Chris Wilmer'
_symmetry_space_group_name_H-M	'P1'
_symmetry_Int_Tables_number	1
_symmetry_cell_setting	triclinic
loop_
_symmetry_equiv_pos_as_xyz
  x,y,z
_cell_length_a	22.8973
_cell_length_b	26.5061
_cell_length_c	31.6472
_cell_angle_alpha	90
_cell_angle_beta	90
_cell_angle_gamma	90
loop_
_atom_site_label
_atom_site_type_symbol
_atom_site_fract_x
_atom_site_fract_y
_atom_site_fract_z
_atom_site_charge
Mof_Zn	Zn	0.71904	0.6564	0.68091	1.236
Mof_Zn	Zn	0.61665	0.7175	0.73333	1.199
Mof_N 	N 	0.93159	0.48878	0.75105	-0.216
Mof_H 	H 	0.9125	0.4677	0.7357	0.123
Mof_N 	N 	0.7699	0.68724	0.45863	-0.217
Mof_H 	H 	0.7371	0.6727	0.4536	0.129
Mof_O 	O 	0.80837	0.69005	0.75133	-0.494
Mof_O 	O 	0.7739	0.62198	0.71739	-0.477
Mof_O 	O 	0.15156	0.38986	0.81589	-0.482
Mof_O 	O 	0.08576	0.35046	0.77479	-0.509
Mof_O 	O 	0.80687	0.70321	0.64747	-0.413
Mof_O 	O 	0.73446	0.65976	0.6199	-0.447
Mof_O 	O 	0.79747	0.7115	0.29665	-0.456
Mof_O 	O 	0.89244	0.72992	0.29341	-0.48
Mof_O 	O 	0.69205	0.72106	0.70481	-1.17
Mof_H 	H 	0.6921	0.7413	0.6894	0.53
Mof_C 	C 	0.81033	0.64433	0.74091	0.381
Mof_C 	C 	0.86072	0.61392	0.75705	-0.078
Mof_C 	C 	0.90248	0.63655	0.78355	-0.016
Mof_H 	H 	0.8976	0.6699	0.792	0.037
Mof_C 	C 	0.95055	0.60986	0.79706	-0.065
Mof_H 	H 	0.9783	0.6253	0.8142	0.05
Mof_C 	C 	0.95762	0.5597	0.785	-0.013
Mof_C 	C 	0.91539	0.53783	0.75906	0.086
Mof_C 	C 	0.86706	0.56449	0.74459	-0.074
Mof_H 	H 	0.8397	0.5493	0.727	0.07
Mof_C 	C 	0.0003	0.52188	0.79357	-0.008
Mof_C 	C 	0.05067	0.52039	0.81725	-0.07
Mof_H 	H 	0.0623	0.5483	0.8329	0.054
Mof_C 	C 	0.08354	0.47688	0.8174	-0.001
Mof_H 	H 	0.1178	0.476	0.8332	0.043
Mof_C 	C 	0.06722	0.43433	0.7947	-0.077
Mof_C 	C 	0.01631	0.43509	0.77166	-0.071
Mof_H 	H 	0.0043	0.4069	0.7565	0.064
Mof_C 	C 	0.98312	0.47912	0.77153	0.084
Mof_C 	C 	0.10481	0.38797	0.79526	0.387
Mof_C 	C 	0.7799	0.68677	0.6159	0.321
Mof_C 	C 	0.80129	0.69804	0.57274	-0.06
Mof_C 	C 	0.85382	0.72417	0.5682	-0.008
Mof_H 	H 	0.8742	0.7337	0.5924	0.027
Mof_C 	C 	0.87659	0.73636	0.5293	-0.068
Mof_H 	H 	0.9116	0.7539	0.5271	0.051
Mof_C 	C 	0.84606	0.72179	0.49319	-0.009
Mof_C 	C 	0.79226	0.69615	0.49822	0.093
Mof_C 	C 	0.77036	0.68446	0.53756	-0.082
Mof_H 	H 	0.735	0.6675	0.5402	0.075
Mof_C 	C 	0.85568	0.72742	0.44835	-0.015
Mof_C 	C 	0.90014	0.74732	0.4244	-0.06
Mof_H 	H 	0.9324	0.7618	0.4376	0.05
Mof_C 	C 	0.897	0.74591	0.38112	-0.015
Mof_H 	H 	0.9272	0.7594	0.365	0.044
Mof_C 	C 	0.84799	0.72402	0.36098	-0.056
Mof_C 	C 	0.80293	0.70449	0.38447	-0.086
Mof_H 	H 	0.77	0.6912	0.3714	0.078
Mof_C 	C 	0.80769	0.70509	0.42816	0.095
Mof_C 	C 	0.84531	0.72181	0.31382	0.351
Mof_Zn	Zn	0.78096	0.8436	0.68091	1.237
Mof_Zn	Zn	0.88335	0.7825	0.73333	1.2
Mof_N 	N 	0.56841	0.01122	0.75105	-0.215
Mof_H 	H 	0.5875	0.0323	0.7357	0.124
Mof_N 	N 	0.7301	0.81276	0.45863	-0.216
Mof_H 	H 	0.7629	0.8273	0.4536	0.13
Mof_O 	O 	0.69163	0.80995	0.75133	-0.493
Mof_O 	O 	0.7261	0.87802	0.71739	-0.476
Mof_O 	O 	0.34844	0.11014	0.81589	-0.481
Mof_O 	O 	0.41424	0.14954	0.77479	-0.508
Mof_O 	O 	0.69313	0.79679	0.64747	-0.412
Mof_O 	O 	0.76554	0.84024	0.6199	-0.446
Mof_O 	O 	0.70253	0.7885	0.29665	-0.455
Mof_O 	O 	0.60756	0.77008	0.29341	-0.479
Mof_O 	O 	0.80795	0.77894	0.70481	-1.169
Mof_H 	H 	0.8079	0.7587	0.6894	0.531
Mof_C 	C 	0.68967	0.85567	0.74091	0.381
Mof_C 	C 	0.63928	0.88608	0.75705	-0.078
Mof_C 	C 	0.59752	0.86345	0.78355	-0.015
Mof_H 	H 	0.6024	0.8301	0.792	0.037
Mof_C 	C 	0.54945	0.89014	0.79706	-0.065
Mof_H 	H 	0.5217	0.8747	0.8142	0.05
Mof_C 	C 	0.54238	0.9403	0.785	-0.013
Mof_C 	C 	0.58461	0.96217	0.75906	0.086
Mof_C 	C 	0.63294	0.93551	0.74459	-0.074
Mof_H 	H 	0.6603	0.9507	0.727	0.07
Mof_C 	C 	0.4997	0.97812	0.79357	-0.008
Mof_C 	C 	0.44933	0.97961	0.81725	-0.07
Mof_H 	H 	0.4377	0.9517	0.8329	0.054
Mof_C 	C 	0.41646	0.02312	0.8174	-0.001
Mof_H 	H 	0.3822	0.024	0.8332	0.043
Mof_C 	C 	0.43278	0.06567	0.7947	-0.077
Mof_C 	C 	0.48369	0.06491	0.77166	-0.071
Mof_H 	H 	0.4957	0.0931	0.7565	0.064
Mof_C 	C 	0.51688	0.02088	0.77153	0.084
Mof_C 	C 	0.39519	0.11203	0.79526	0.387
Mof_C 	C 	0.7201	0.81323	0.6159	0.321
Mof_C 	C 	0.69871	0.80196	0.57274	-0.06
Mof_C 	C 	0.64618	0.77583	0.5682	-0.008
Mof_H 	H 	0.6258	0.7663	0.5924	0.027
Mof_C 	C 	0.62341	0.76364	0.5293	-0.068
Mof_H 	H 	0.5884	0.7461	0.5271	0.051
Mof_C 	C 	0.65394	0.77821	0.49319	-0.009
Mof_C 	C 	0.70774	0.80385	0.49822	0.093
Mof_C 	C 	0.72964	0.81554	0.53756	-0.082
Mof_H 	H 	0.765	0.8325	0.5402	0.075
Mof_C 	C 	0.64432	0.77258	0.44835	-0.015
Mof_C 	C 	0.59986	0.75268	0.4244	-0.06
Mof_H 	H 	0.5676	0.7382	0.4376	0.05
Mof_C 	C 	0.603	0.75409	0.38112	-0.015
Mof_H 	H 	0.5728	0.7406	0.365	0.044
Mof_C 	C 	0.65201	0.77598	0.36098	-0.056
Mof_C 	C 	0.69707	0.79551	0.38447	-0.086
Mof_H 	H 	0.73	0.8088	0.3714	0.078
Mof_C 	C 	0.69231	0.79491	0.42816	0.095
Mof_C 	C 	0.65469	0.77819	0.31382	0.351
Mof_Zn	Zn	0.28096	0.1564	0.81909	1.237
Mof_Zn	Zn	0.38335	0.2175	0.76667	1.2
Mof_N 	N 	0.06841	0.98878	0.74895	-0.215
Mof_H 	H 	0.0875	0.9677	0.7643	0.124
Mof_N 	N 	0.2301	0.18724	0.04137	-0.216
Mof_H 	H 	0.2629	0.1727	0.0464	0.13
Mof_O 	O 	0.19163	0.19005	0.74867	-0.493
Mof_O 	O 	0.2261	0.12198	0.78261	-0.476
Mof_O 	O 	0.84844	0.88986	0.68411	-0.481
Mof_O 	O 	0.91424	0.85046	0.72521	-0.508
Mof_O 	O 	0.19313	0.20321	0.85253	-0.412
Mof_O 	O 	0.26554	0.15976	0.8801	-0.446
Mof_O 	O 	0.20253	0.2115	0.20335	-0.455
Mof_O 	O 	0.10756	0.22992	0.20659	-0.479
Mof_O 	O 	0.30795	0.22106	0.79519	-1.169
Mof_H 	H 	0.3079	0.2413	0.8106	0.531
Mof_C 	C 	0.18967	0.14433	0.75909	0.381
Mof_C 	C 	0.13928	0.11392	0.74295	-0.078
Mof_C 	C 	0.09752	0.13655	0.71645	-0.015
Mof_H 	H 	0.1024	0.1699	0.708	0.037
Mof_C 	C 	0.04945	0.10986	0.70294	-0.065
Mof_H 	H 	0.0217	0.1253	0.6858	0.05
Mof_C 	C 	0.04238	0.0597	0.715	-0.013
Mof_C 	C 	0.08461	0.03783	0.74094	0.086
Mof_C 	C 	0.13294	0.06449	0.75541	-0.074
Mof_H 	H 	0.1603	0.0493	0.773	0.07
Mof_C 	C 	0.9997	0.02188	0.70643	-0.008
Mof_C 	C 	0.94933	0.02039	0.68275	-0.07
Mof_H 	H 	0.9377	0.0483	0.6671	0.054
Mof_C 	C 	0.91646	0.97688	0.6826	-0.001
Mof_H 	H 	0.8822	0.976	0.6668	0.043
Mof_C 	C 	0.93278	0.93433	0.7053	-0.077
Mof_C 	C 	0.98369	0.93509	0.72834	-0.072
Mof_H 	H 	0.9957	0.9069	0.7435	0.065
Mof_C 	C 	0.01688	0.97912	0.72847	0.085
Mof_C 	C 	0.89519	0.88797	0.70474	0.387
Mof_C 	C 	0.2201	0.18677	0.8841	0.321
Mof_C 	C 	0.19871	0.19804	0.92726	-0.06
Mof_C 	C 	0.14618	0.22417	0.9318	-0.008
Mof_H 	H 	0.1258	0.2337	0.9076	0.027
Mof_C 	C 	0.12341	0.23636	0.9707	-0.068
Mof_H 	H 	0.0884	0.2539	0.9729	0.051
Mof_C 	C 	0.15394	0.22179	0.00681	-0.009
Mof_C 	C 	0.20774	0.19615	0.00178	0.093
Mof_C 	C 	0.22964	0.18446	0.96244	-0.082
Mof_H 	H 	0.265	0.1675	0.9598	0.075
Mof_C 	C 	0.14432	0.22742	0.05165	-0.015
Mof_C 	C 	0.09986	0.24732	0.0756	-0.06
Mof_H 	H 	0.0676	0.2618	0.0624	0.05
Mof_C 	C 	0.103	0.24591	0.11888	-0.015
Mof_H 	H 	0.0728	0.2594	0.135	0.044
Mof_C 	C 	0.15201	0.22402	0.13902	-0.056
Mof_C 	C 	0.19707	0.20449	0.11553	-0.086
Mof_H 	H 	0.23	0.1912	0.1286	0.078
Mof_C 	C 	0.19231	0.20509	0.07184	0.095
Mof_C 	C 	0.15469	0.22181	0.18618	0.351
Mof_Zn	Zn	0.21904	0.3436	0.81909	1.237
Mof_Zn	Zn	0.11665	0.2825	0.76667	1.2
Mof_N 	N 	0.43159	0.51122	0.74895	-0.215
Mof_H 	H 	0.4125	0.5323	0.7643	0.124
Mof_N 	N 	0.2699	0.31276	0.04137	-0.216
Mof_H 	H 	0.2371	0.3273	0.0464	0.13
Mof_O 	O 	0.30837	0.30995	0.74867	-0.493
Mof_O 	O 	0.2739	0.37802	0.78261	-0.476
Mof_O 	O 	0.65156	0.61014	0.68411	-0.481
Mof_O 	O 	0.58576	0.64954	0.72521	-0.508
Mof_O 	O 	0.30687	0.29679	0.85253	-0.412
Mof_O 	O 	0.23446	0.34024	0.8801	-0.446
Mof_O 	O 	0.29747	0.2885	0.20335	-0.455
Mof_O 	O 	0.39244	0.27008	0.20659	-0.479
Mof_O 	O 	0.19205	0.27894	0.79519	-1.169
Mof_H 	H 	0.1921	0.2587	0.8106	0.531
Mof_C 	C 	0.31033	0.35567	0.75909	0.381
Mof_C 	C 	0.36072	0.38608	0.74295	-0.078
Mof_C 	C 	0.40248	0.36345	0.71645	-0.015
Mof_H 	H 	0.3976	0.3301	0.708	0.037
Mof_C 	C 	0.45055	0.39014	0.70294	-0.065
Mof_H 	H 	0.4783	0.3747	0.6858	0.05
Mof_C 	C 	0.45762	0.4403	0.715	-0.013
Mof_C 	C 	0.41539	0.46217	0.74094	0.086
Mof_C 	C 	0.36706	0.43551	0.75541	-0.074
Mof_H 	H 	0.3397	0.4507	0.773	0.07
Mof_C 	C 	0.5003	0.47812	0.70643	-0.008
Mof_C 	C 	0.55067	0.47961	0.68275	-0.07
Mof_H 	H 	0.5623	0.4517	0.6671	0.054
Mof_C 	C 	0.58354	0.52312	0.6826	-0.001
Mof_H 	H 	0.6178	0.524	0.6668	0.043
Mof_C 	C 	0.56722	0.56567	0.7053	-0.077
Mof_C 	C 	0.51631	0.56491	0.72834	-0.071
Mof_H 	H 	0.5043	0.5931	0.7435	0.064
Mof_C 	C 	0.48312	0.52088	0.72847	0.084
Mof_C 	C 	0.60481	0.61203	0.70474	0.387
Mof_C 	C 	0.2799	0.31323	0.8841	0.321
Mof_C 	C 	0.30129	0.30196	0.92726	-0.06
Mof_C 	C 	0.35382	0.27583	0.9318	-0.008
Mof_H 	H 	0.3742	0.2663	0.9076	0.027
Mof_C 	C 	0.37659	0.26364	0.9707	-0.068
Mof_H 	H 	0.4116	0.2461	0.9729	0.051
Mof_C 	C 	0.34606	0.27821	0.00681	-0.009
Mof_C 	C 	0.29226	0.30385	0.00178	0.093
Mof_C 	C 	0.27036	0.31554	0.96244	-0.082
Mof_H 	H 	0.235	0.3325	0.9598	0.075
Mof_C 	C 	0.35568	0.27258	0.05165	-0.015
Mof_C 	C 	0.40014	0.25268	0.0756	-0.06
Mof_H 	H 	0.4324	0.2382	0.0624	0.05
Mof_C 	C 	0.397	0.25409	0.11888	-0.015
Mof_H 	H 	0.4272	0.2406	0.135	0.044
Mof_C 	C 	0.34799	0.27598	0.13902	-0.056
Mof_C 	C 	0.30293	0.29551	0.11553	-0.086
Mof_H 	H 	0.27	0.3088	0.1286	0.078
Mof_C 	C 	0.30769	0.29491	0.07184	0.095
Mof_C 	C 	0.34531	0.27819	0.18618	0.351
Mof_Zn	Zn	0.28096	0.3436	0.31909	1.237
Mof_Zn	Zn	0.38335	0.2825	0.26667	1.2
Mof_N 	N 	0.06841	0.51122	0.24895	-0.215
Mof_H 	H 	0.0875	0.5323	0.2643	0.124
Mof_N 	N 	0.2301	0.31276	0.54137	-0.216
Mof_H 	H 	0.2629	0.3273	0.5464	0.13
Mof_O 	O 	0.19163	0.30995	0.24867	-0.493
Mof_O 	O 	0.2261	0.37802	0.28261	-0.476
Mof_O 	O 	0.84844	0.61014	0.18411	-0.481
Mof_O 	O 	0.91424	0.64954	0.22521	-0.508
Mof_O 	O 	0.19313	0.29679	0.35253	-0.412
Mof_O 	O 	0.26554	0.34024	0.3801	-0.446
Mof_O 	O 	0.20253	0.2885	0.70335	-0.455
Mof_O 	O 	0.10756	0.27008	0.70659	-0.479
Mof_O 	O 	0.30795	0.27894	0.29519	-1.169
Mof_H 	H 	0.3079	0.2587	0.3106	0.531
Mof_C 	C 	0.18967	0.35567	0.25909	0.381
Mof_C 	C 	0.13928	0.38608	0.24295	-0.078
Mof_C 	C 	0.09752	0.36345	0.21645	-0.016
Mof_H 	H 	0.1024	0.3301	0.208	0.037
Mof_C 	C 	0.04945	0.39014	0.20294	-0.065
Mof_H 	H 	0.0217	0.3747	0.1858	0.05
Mof_C 	C 	0.04238	0.4403	0.215	-0.013
Mof_C 	C 	0.08461	0.46217	0.24094	0.086
Mof_C 	C 	0.13294	0.43551	0.25541	-0.074
Mof_H 	H 	0.1603	0.4507	0.273	0.07
Mof_C 	C 	0.9997	0.47812	0.20643	-0.008
Mof_C 	C 	0.94933	0.47961	0.18275	-0.07
Mof_H 	H 	0.9377	0.4517	0.1671	0.054
Mof_C 	C 	0.91646	0.52312	0.1826	-0.001
Mof_H 	H 	0.8822	0.524	0.1668	0.043
Mof_C 	C 	0.93278	0.56567	0.2053	-0.077
Mof_C 	C 	0.98369	0.56491	0.22834	-0.071
Mof_H 	H 	0.9957	0.5931	0.2435	0.064
Mof_C 	C 	0.01688	0.52088	0.22847	0.084
Mof_C 	C 	0.89519	0.61203	0.20474	0.387
Mof_C 	C 	0.2201	0.31323	0.3841	0.321
Mof_C 	C 	0.19871	0.30196	0.42726	-0.06
Mof_C 	C 	0.14618	0.27583	0.4318	-0.008
Mof_H 	H 	0.1258	0.2663	0.4076	0.027
Mof_C 	C 	0.12341	0.26364	0.4707	-0.068
Mof_H 	H 	0.0884	0.2461	0.4729	0.051
Mof_C 	C 	0.15394	0.27821	0.50681	-0.009
Mof_C 	C 	0.20774	0.30385	0.50178	0.093
Mof_C 	C 	0.22964	0.31554	0.46244	-0.082
Mof_H 	H 	0.265	0.3325	0.4598	0.075
Mof_C 	C 	0.14432	0.27258	0.55165	-0.015
Mof_C 	C 	0.09986	0.25268	0.5756	-0.06
Mof_H 	H 	0.0676	0.2382	0.5624	0.05
Mof_C 	C 	0.103	0.25409	0.61888	-0.015
Mof_H 	H 	0.0728	0.2406	0.635	0.044
Mof_C 	C 	0.15201	0.27598	0.63902	-0.056
Mof_C 	C 	0.19707	0.29551	0.61553	-0.086
Mof_H 	H 	0.23	0.3088	0.6286	0.078
Mof_C 	C 	0.19231	0.29491	0.57184	0.095
Mof_C 	C 	0.15469	0.27819	0.68618	0.351
Mof_Zn	Zn	0.21904	0.1564	0.31909	1.237
Mof_Zn	Zn	0.11665	0.2175	0.26667	1.2
Mof_N 	N 	0.43159	0.98878	0.24895	-0.215
Mof_H 	H 	0.4125	0.9677	0.2643	0.124
Mof_N 	N 	0.2699	0.18724	0.54137	-0.216
Mof_H 	H 	0.2371	0.1727	0.5464	0.13
Mof_O 	O 	0.30837	0.19005	0.24867	-0.493
Mof_O 	O 	0.2739	0.12198	0.28261	-0.476
Mof_O 	O 	0.65156	0.88986	0.18411	-0.481
Mof_O 	O 	0.58576	0.85046	0.22521	-0.508
Mof_O 	O 	0.30687	0.20321	0.35253	-0.412
Mof_O 	O 	0.23446	0.15976	0.3801	-0.446
Mof_O 	O 	0.29747	0.2115	0.70335	-0.455
Mof_O 	O 	0.39244	0.22992	0.70659	-0.479
Mof_O 	O 	0.19205	0.22106	0.29519	-1.169
Mof_H 	H 	0.1921	0.2413	0.3106	0.531
Mof_C 	C 	0.31033	0.14433	0.25909	0.381
Mof_C 	C 	0.36072	0.11392	0.24295	-0.078
Mof_C 	C 	0.40248	0.13655	0.21645	-0.015
Mof_H 	H 	0.3976	0.1699	0.208	0.037
Mof_C 	C 	0.45055	0.10986	0.20294	-0.065
Mof_H 	H 	0.4783	0.1253	0.1858	0.05
Mof_C 	C 	0.45762	0.0597	0.215	-0.013
Mof_C 	C 	0.41539	0.03783	0.24094	0.086
Mof_C 	C 	0.36706	0.06449	0.25541	-0.074
Mof_H 	H 	0.3397	0.0493	0.273	0.07
Mof_C 	C 	0.5003	0.02188	0.20643	-0.008
Mof_C 	C 	0.55067	0.02039	0.18275	-0.07
Mof_H 	H 	0.5623	0.0483	0.1671	0.054
Mof_C 	C 	0.58354	0.97688	0.1826	-0.001
Mof_H 	H 	0.6178	0.976	0.1668	0.043
Mof_C 	C 	0.56722	0.93433	0.2053	-0.077
Mof_C 	C 	0.51631	0.93509	0.22834	-0.071
Mof_H 	H 	0.5043	0.9069	0.2435	0.064
Mof_C 	C 	0.48312	0.97912	0.22847	0.084
Mof_C 	C 	0.60481	0.88797	0.20474	0.387
Mof_C 	C 	0.2799	0.18677	0.3841	0.321
Mof_C 	C 	0.30129	0.19804	0.42726	-0.06
Mof_C 	C 	0.35382	0.22417	0.4318	-0.008
Mof_H 	H 	0.3742	0.2337	0.4076	0.027
Mof_C 	C 	0.37659	0.23636	0.4707	-0.068
Mof_H 	H 	0.4116	0.2539	0.4729	0.051
Mof_C 	C 	0.34606	0.22179	0.50681	-0.009
Mof_C 	C 	0.29226	0.19615	0.50178	0.093
Mof_C 	C 	0.27036	0.18446	0.46244	-0.082
Mof_H 	H 	0.235	0.1675	0.4598	0.075
Mof_C 	C 	0.35568	0.22742	0.55165	-0.015
Mof_C 	C 	0.40014	0.24732	0.5756	-0.06
Mof_H 	H 	0.4324	0.2618	0.5624	0.05
Mof_C 	C 	0.397	0.24591	0.61888	-0.015
Mof_H 	H 	0.4272	0.2594	0.635	0.044
Mof_C 	C 	0.34799	0.22402	0.63902	-0.056
Mof_C 	C 	0.30293	0.20449	0.61553	-0.086
Mof_H 	H 	0.27	0.1912	0.6286	0.078
Mof_C 	C 	0.30769	0.20509	0.57184	0.095
Mof_C 	C 	0.34531	0.22181	0.68618	0.351
Mof_Zn	Zn	0.71904	0.8436	0.18091	1.237
Mof_Zn	Zn	0.61665	0.7825	0.23333	1.2
Mof_N 	N 	0.93159	0.01122	0.25105	-0.215
Mof_H 	H 	0.9125	0.0323	0.2357	0.124
Mof_N 	N 	0.7699	0.81276	0.95863	-0.216
Mof_H 	H 	0.7371	0.8273	0.9536	0.13
Mof_O 	O 	0.80837	0.80995	0.25133	-0.493
Mof_O 	O 	0.7739	0.87802	0.21739	-0.476
Mof_O 	O 	0.15156	0.11014	0.31589	-0.481
Mof_O 	O 	0.08576	0.14954	0.27479	-0.508
Mof_O 	O 	0.80687	0.79679	0.14747	-0.412
Mof_O 	O 	0.73446	0.84024	0.1199	-0.446
Mof_O 	O 	0.79747	0.7885	0.79665	-0.455
Mof_O 	O 	0.89244	0.77008	0.79341	-0.479
Mof_O 	O 	0.69205	0.77894	0.20481	-1.169
Mof_H 	H 	0.6921	0.7587	0.1894	0.531
Mof_C 	C 	0.81033	0.85567	0.24091	0.381
Mof_C 	C 	0.86072	0.88608	0.25705	-0.078
Mof_C 	C 	0.90248	0.86345	0.28355	-0.015
Mof_H 	H 	0.8976	0.8301	0.292	0.037
Mof_C 	C 	0.95055	0.89014	0.29706	-0.065
Mof_H 	H 	0.9783	0.8747	0.3142	0.05
Mof_C 	C 	0.95762	0.9403	0.285	-0.013
Mof_C 	C 	0.91539	0.96217	0.25906	0.086
Mof_C 	C 	0.86706	0.93551	0.24459	-0.074
Mof_H 	H 	0.8397	0.9507	0.227	0.07
Mof_C 	C 	0.0003	0.97812	0.29357	-0.008
Mof_C 	C 	0.05067	0.97961	0.31725	-0.07
Mof_H 	H 	0.0623	0.9517	0.3329	0.054
Mof_C 	C 	0.08354	0.02312	0.3174	-0.001
Mof_H 	H 	0.1178	0.024	0.3332	0.043
Mof_C 	C 	0.06722	0.06567	0.2947	-0.077
Mof_C 	C 	0.01631	0.06491	0.27166	-0.072
Mof_H 	H 	0.0043	0.0931	0.2565	0.065
Mof_C 	C 	0.98312	0.02088	0.27153	0.085
Mof_C 	C 	0.10481	0.11203	0.29526	0.387
Mof_C 	C 	0.7799	0.81323	0.1159	0.321
Mof_C 	C 	0.80129	0.80196	0.07274	-0.06
Mof_C 	C 	0.85382	0.77583	0.0682	-0.008
Mof_H 	H 	0.8742	0.7663	0.0924	0.027
Mof_C 	C 	0.87659	0.76364	0.0293	-0.068
Mof_H 	H 	0.9116	0.7461	0.0271	0.051
Mof_C 	C 	0.84606	0.77821	0.99319	-0.009
Mof_C 	C 	0.79226	0.80385	0.99822	0.093
Mof_C 	C 	0.77036	0.81554	0.03756	-0.082
Mof_H 	H 	0.735	0.8325	0.0402	0.075
Mof_C 	C 	0.85568	0.77258	0.94835	-0.015
Mof_C 	C 	0.90014	0.75268	0.9244	-0.06
Mof_H 	H 	0.9324	0.7382	0.9376	0.05
Mof_C 	C 	0.897	0.75409	0.88112	-0.015
Mof_H 	H 	0.9272	0.7406	0.865	0.044
Mof_C 	C 	0.84799	0.77598	0.86098	-0.056
Mof_C 	C 	0.80293	0.79551	0.88447	-0.086
Mof_H 	H 	0.77	0.8088	0.8714	0.078
Mof_C 	C 	0.80769	0.79491	0.92816	0.095
Mof_C 	C 	0.84531	0.77819	0.81382	0.351
Mof_Zn	Zn	0.78096	0.6564	0.18091	1.237
Mof_Zn	Zn	0.88335	0.7175	0.23333	1.2
Mof_N 	N 	0.56841	0.48878	0.25105	-0.215
Mof_H 	H 	0.5875	0.4677	0.2357	0.124
Mof_N 	N 	0.7301	0.68724	0.95863	-0.216
Mof_H 	H 	0.7629	0.6727	0.9536	0.13
Mof_O 	O 	0.69163	0.69005	0.25133	-0.493
Mof_O 	O 	0.7261	0.62198	0.21739	-0.476
Mof_O 	O 	0.34844	0.38986	0.31589	-0.481
Mof_O 	O 	0.41424	0.35046	0.27479	-0.508
Mof_O 	O 	0.69313	0.70321	0.14747	-0.412
Mof_O 	O 	0.76554	0.65976	0.1199	-0.446
Mof_O 	O 	0.70253	0.7115	0.79665	-0.455
Mof_O 	O 	0.60756	0.72992	0.79341	-0.479
Mof_O 	O 	0.80795	0.72106	0.20481	-1.169
Mof_H 	H 	0.8079	0.7413	0.1894	0.531
Mof_C 	C 	0.68967	0.64433	0.24091	0.381
Mof_C 	C 	0.63928	0.61392	0.25705	-0.078
Mof_C 	C 	0.59752	0.63655	0.28355	-0.015
Mof_H 	H 	0.6024	0.6699	0.292	0.037
Mof_C 	C 	0.54945	0.60986	0.29706	-0.065
Mof_H 	H 	0.5217	0.6253	0.3142	0.05
Mof_C 	C 	0.54238	0.5597	0.285	-0.013
Mof_C 	C 	0.58461	0.53783	0.25906	0.086
Mof_C 	C 	0.63294	0.56449	0.24459	-0.074
Mof_H 	H 	0.6603	0.5493	0.227	0.07
Mof_C 	C 	0.4997	0.52188	0.29357	-0.008
Mof_C 	C 	0.44933	0.52039	0.31725	-0.07
Mof_H 	H 	0.4377	0.5483	0.3329	0.054
Mof_C 	C 	0.41646	0.47688	0.3174	-0.001
Mof_H 	H 	0.3822	0.476	0.3332	0.043
Mof_C 	C 	0.43278	0.43433	0.2947	-0.077
Mof_C 	C 	0.48369	0.43509	0.27166	-0.071
Mof_H 	H 	0.4957	0.4069	0.2565	0.064
Mof_C 	C 	0.51688	0.47912	0.27153	0.084
Mof_C 	C 	0.39519	0.38797	0.29526	0.387
Mof_C 	C 	0.7201	0.68677	0.1159	0.321
Mof_C 	C 	0.69871	0.69804	0.07274	-0.06
Mof_C 	C 	0.64618	0.72417	0.0682	-0.008
Mof_H 	H 	0.6258	0.7337	0.0924	0.027
Mof_C 	C 	0.62341	0.73636	0.0293	-0.068
Mof_H 	H 	0.5884	0.7539	0.0271	0.051
Mof_C 	C 	0.65394	0.72179	0.99319	-0.009
Mof_C 	C 	0.70774	0.69615	0.99822	0.093
Mof_C 	C 	0.72964	0.68446	0.03756	-0.082
Mof_H 	H 	0.765	0.6675	0.0402	0.075
Mof_C 	C 	0.64432	0.72742	0.94835	-0.015
Mof_C 	C 	0.59986	0.74732	0.9244	-0.06
Mof_H 	H 	0.5676	0.7618	0.9376	0.05
Mof_C 	C 	0.603	0.74591	0.88112	-0.015
Mof_H 	H 	0.5728	0.7594	0.865	0.044
Mof_C 	C 	0.65201	0.72402	0.86098	-0.056
Mof_C 	C 	0.69707	0.70449	0.88447	-0.086
Mof_H 	H 	0.73	0.6912	0.8714	0.078
Mof_C 	C 	0.69231	0.70509	0.92816	0.095
Mof_C 	C 	0.65469	0.72181	0.81382	0.351
Mof_Zn	Zn	0.75	0.75	0.7511	1.24
Mof_Zn	Zn	0.25	0.25	0.7489	1.24
Mof_Zn	Zn	0.25	0.25	0.2489	1.24
Mof_Zn	Zn	0.75	0.75	0.2511	1.24
_end
