data_functionalizedCrystal
_audit_creation_method	'EQeq! by Chris Wilmer'
_symmetry_space_group_name_H-M	'P1'
_symmetry_Int_Tables_number	1
_symmetry_cell_setting	triclinic
loop_
_symmetry_equiv_pos_as_xyz
  x,y,z
_cell_length_a	13.851
_cell_length_b	13.851
_cell_length_c	58.358
_cell_angle_alpha	90
_cell_angle_beta	90
_cell_angle_gamma	120
loop_
_atom_site_label
_atom_site_type_symbol
_atom_site_fract_x
_atom_site_fract_y
_atom_site_fract_z
_atom_site_charge
Mof_C 	C 	0.2466	0.1598	0.01775	0.007
Mof_H 	H 	0.26	0.2116	0.0063	0.022
Mof_C 	C 	0.3236	0.1684	0.03312	0
Mof_H 	H 	0.3978	0.2245	0.0341	0.032
Mof_C 	C 	0.1637	0.0172	0.03898	0.061
Mof_H 	H 	0.1095	0.95	0.0453	0.022
Mof_C 	C 	0.3143	0.0487	0.06586	0.103
Mof_C 	C 	0.4174	0.12	0.07442	-0.048
Mof_H 	H 	0.4615	0.1907	0.0682	0.049
Mof_N 	N 	0.1473	0.0655	0.02125	-0.234
Mof_N 	N 	0.269	0.0768	0.04698	-0.13
Mof_N 	N 	0.2493	0.9506	0.07399	-0.08
Mof_C 	C 	0.91327	0.49313	0.35108	-0.018
Mof_H 	H 	0.92667	0.54493	0.33963	0.037
Mof_C 	C 	0.99027	0.50173	0.36645	0.055
Mof_H 	H 	0.06447	0.55783	0.36743	0.001
Mof_C 	C 	0.83037	0.35053	0.37231	0.108
Mof_H 	H 	0.77617	0.28333	0.37863	-0.003
Mof_C 	C 	0.98097	0.38203	0.39919	0.181
Mof_C 	C 	0.08407	0.45333	0.40775	-0.147
Mof_H 	H 	0.12817	0.52403	0.40153	0.081
Mof_N 	N 	0.81397	0.39883	0.35458	-0.232
Mof_N 	N 	0.93567	0.41013	0.38031	-0.153
Mof_N 	N 	0.91597	0.28393	0.40732	-0.103
Mof_C 	C 	0.57993	0.82647	0.68442	0.008
Mof_H 	H 	0.59333	0.87827	0.67297	0.027
Mof_C 	C 	0.65693	0.83507	0.69979	0.006
Mof_H 	H 	0.73113	0.89117	0.70077	0.037
Mof_C 	C 	0.49703	0.68387	0.70565	0.106
Mof_H 	H 	0.44283	0.61667	0.71197	-0.001
Mof_C 	C 	0.64763	0.71537	0.73253	0.143
Mof_C 	C 	0.75073	0.78667	0.74109	-0.086
Mof_H 	H 	0.79483	0.85737	0.73487	0.069
Mof_N 	N 	0.48063	0.73217	0.68792	-0.236
Mof_N 	N 	0.60233	0.74347	0.71365	-0.14
Mof_N 	N 	0.58263	0.61727	0.74066	-0.096
Mof_C 	C 	0.8402	0.0868	0.01775	0.005
Mof_H 	H 	0.7884	0.0484	0.0063	0.019
Mof_C 	C 	0.8316	0.1552	0.03312	0.006
Mof_H 	H 	0.7755	0.1733	0.0341	0.029
Mof_C 	C 	0.9828	0.1465	0.03898	0.145
Mof_H 	H 	0.05	0.1595	0.0453	-0.03
Mof_C 	C 	0.9513	0.2656	0.06586	0.175
Mof_C 	C 	0.88	0.2974	0.07442	-0.127
Mof_H 	H 	0.8093	0.2708	0.0682	0.077
Mof_N 	N 	0.9345	0.0818	0.02125	-0.24
Mof_N 	N 	0.9232	0.1922	0.04698	-0.151
Mof_N 	N 	0.0494	0.2987	0.07399	-0.114
Mof_C 	C 	0.50687	0.42013	0.35108	0.006
Mof_H 	H 	0.45507	0.38173	0.33963	0.023
Mof_C 	C 	0.49827	0.48853	0.36645	0.005
Mof_H 	H 	0.44217	0.50663	0.36743	0.031
Mof_C 	C 	0.64947	0.47983	0.37231	0.105
Mof_H 	H 	0.71667	0.49283	0.37863	0
Mof_C 	C 	0.61797	0.59893	0.39919	0.141
Mof_C 	C 	0.54667	0.63073	0.40775	-0.086
Mof_H 	H 	0.47597	0.60413	0.40153	0.063
Mof_N 	N 	0.60117	0.41513	0.35458	-0.236
Mof_N 	N 	0.58987	0.52553	0.38031	-0.14
Mof_N 	N 	0.71607	0.63203	0.40732	-0.094
Mof_C 	C 	0.17353	0.75347	0.68442	0.006
Mof_H 	H 	0.12173	0.71507	0.67297	0.022
Mof_C 	C 	0.16493	0.82187	0.69979	0.004
Mof_H 	H 	0.10883	0.83997	0.70077	0.031
Mof_C 	C 	0.31613	0.81317	0.70565	0.104
Mof_H 	H 	0.38333	0.82617	0.71197	0.001
Mof_C 	C 	0.28463	0.93227	0.73253	0.125
Mof_C 	C 	0.21333	0.96407	0.74109	-0.036
Mof_H 	H 	0.14263	0.93747	0.73487	0.047
Mof_N 	N 	0.26783	0.74847	0.68792	-0.236
Mof_N 	N 	0.25653	0.85887	0.71365	-0.137
Mof_N 	N 	0.38273	0.96537	0.74066	-0.083
Mof_C 	C 	0.9132	0.7534	0.01775	0.007
Mof_H 	H 	0.9516	0.74	0.0063	0.031
Mof_C 	C 	0.8448	0.6764	0.03312	0.008
Mof_H 	H 	0.8267	0.6022	0.0341	0.033
Mof_C 	C 	0.8535	0.8363	0.03898	0.108
Mof_H 	H 	0.8405	0.8905	0.0453	0.005
Mof_C 	C 	0.7344	0.6857	0.06586	0.143
Mof_C 	C 	0.7026	0.5826	0.07442	-0.088
Mof_H 	H 	0.7292	0.5385	0.0682	0.065
Mof_N 	N 	0.9182	0.8527	0.02125	-0.226
Mof_N 	N 	0.8078	0.731	0.04698	-0.14
Mof_N 	N 	0.7013	0.7507	0.07399	-0.094
Mof_C 	C 	0.57987	0.08673	0.35108	0.029
Mof_H 	H 	0.61827	0.07333	0.33963	0.012
Mof_C 	C 	0.51147	0.00973	0.36645	-0.046
Mof_H 	H 	0.49337	0.93553	0.36743	0.062
Mof_C 	C 	0.52017	0.16963	0.37231	0.102
Mof_H 	H 	0.50717	0.22383	0.37863	-0.001
Mof_C 	C 	0.40107	0.01903	0.39919	0.1
Mof_C 	C 	0.36927	0.91593	0.40775	-0.03
Mof_H 	H 	0.39587	0.87183	0.40153	0.047
Mof_N 	N 	0.58487	0.18603	0.35458	-0.239
Mof_N 	N 	0.47447	0.06433	0.38031	-0.129
Mof_N 	N 	0.36797	0.08403	0.40732	-0.091
Mof_C 	C 	0.24653	0.42007	0.68442	0.004
Mof_H 	H 	0.28493	0.40667	0.67297	0.023
Mof_C 	C 	0.17813	0.34307	0.69979	0.004
Mof_H 	H 	0.16003	0.26887	0.70077	0.026
Mof_C 	C 	0.18683	0.50297	0.70565	0.104
Mof_H 	H 	0.17383	0.55717	0.71197	-0.003
Mof_C 	C 	0.06773	0.35237	0.73253	0.153
Mof_C 	C 	0.03593	0.24927	0.74109	-0.14
Mof_H 	H 	0.06253	0.20517	0.73487	0.075
Mof_N 	N 	0.25153	0.51937	0.68792	-0.236
Mof_N 	N 	0.14113	0.39767	0.71365	-0.144
Mof_N 	N 	0.03463	0.41737	0.74066	-0.109
Mof_C 	C 	0.1598	0.2466	0.48225	0.006
Mof_H 	H 	0.2116	0.26	0.4937	0.022
Mof_C 	C 	0.1684	0.3236	0.46688	0
Mof_H 	H 	0.2245	0.3978	0.4659	0.032
Mof_C 	C 	0.0172	0.1637	0.46102	0.061
Mof_H 	H 	0.95	0.1095	0.4547	0.022
Mof_C 	C 	0.0487	0.3143	0.43414	0.103
Mof_C 	C 	0.12	0.4174	0.42558	-0.048
Mof_H 	H 	0.1907	0.4615	0.4318	0.049
Mof_N 	N 	0.0655	0.1473	0.47875	-0.234
Mof_N 	N 	0.0768	0.269	0.45302	-0.13
Mof_N 	N 	0.9506	0.2493	0.42601	-0.08
Mof_C 	C 	0.82647	0.57993	0.81558	0.008
Mof_H 	H 	0.87827	0.59333	0.82703	0.027
Mof_C 	C 	0.83507	0.65693	0.80021	0.006
Mof_H 	H 	0.89117	0.73113	0.79923	0.037
Mof_C 	C 	0.68387	0.49703	0.79435	0.106
Mof_H 	H 	0.61667	0.44283	0.78803	-0.001
Mof_C 	C 	0.71537	0.64763	0.76747	0.143
Mof_C 	C 	0.78667	0.75073	0.75891	-0.086
Mof_H 	H 	0.85737	0.79483	0.76513	0.069
Mof_N 	N 	0.73217	0.48063	0.81208	-0.236
Mof_N 	N 	0.74347	0.60233	0.78635	-0.14
Mof_N 	N 	0.61727	0.58263	0.75934	-0.096
Mof_C 	C 	0.49313	0.91327	0.14892	-0.018
Mof_H 	H 	0.54493	0.92667	0.16037	0.037
Mof_C 	C 	0.50173	0.99027	0.13355	0.055
Mof_H 	H 	0.55783	0.06447	0.13257	0.001
Mof_C 	C 	0.35053	0.83037	0.12769	0.108
Mof_H 	H 	0.28333	0.77617	0.12137	-0.003
Mof_C 	C 	0.38203	0.98097	0.10081	0.181
Mof_C 	C 	0.45333	0.08407	0.09225	-0.147
Mof_H 	H 	0.52403	0.12817	0.09847	0.081
Mof_N 	N 	0.39883	0.81397	0.14542	-0.232
Mof_N 	N 	0.41013	0.93567	0.11969	-0.153
Mof_N 	N 	0.28393	0.91597	0.09268	-0.103
Mof_C 	C 	0.0868	0.8402	0.48225	0.005
Mof_H 	H 	0.0484	0.7884	0.4937	0.019
Mof_C 	C 	0.1552	0.8316	0.46688	0.006
Mof_H 	H 	0.1733	0.7755	0.4659	0.029
Mof_C 	C 	0.1465	0.9828	0.46102	0.145
Mof_H 	H 	0.1595	0.05	0.4547	-0.029
Mof_C 	C 	0.2656	0.9513	0.43414	0.175
Mof_C 	C 	0.2974	0.88	0.42558	-0.127
Mof_H 	H 	0.2708	0.8093	0.4318	0.077
Mof_N 	N 	0.0818	0.9345	0.47875	-0.24
Mof_N 	N 	0.1922	0.9232	0.45302	-0.151
Mof_N 	N 	0.2987	0.0494	0.42601	-0.114
Mof_C 	C 	0.75347	0.17353	0.81558	0.006
Mof_H 	H 	0.71507	0.12173	0.82703	0.022
Mof_C 	C 	0.82187	0.16493	0.80021	0.004
Mof_H 	H 	0.83997	0.10883	0.79923	0.031
Mof_C 	C 	0.81317	0.31613	0.79435	0.104
Mof_H 	H 	0.82617	0.38333	0.78803	0.001
Mof_C 	C 	0.93227	0.28463	0.76747	0.125
Mof_C 	C 	0.96407	0.21333	0.75891	-0.036
Mof_H 	H 	0.93747	0.14263	0.76513	0.047
Mof_N 	N 	0.74847	0.26783	0.81208	-0.236
Mof_N 	N 	0.85887	0.25653	0.78635	-0.137
Mof_N 	N 	0.96537	0.38273	0.75934	-0.083
Mof_C 	C 	0.42013	0.50687	0.14892	0.006
Mof_H 	H 	0.38173	0.45507	0.16037	0.023
Mof_C 	C 	0.48853	0.49827	0.13355	0.005
Mof_H 	H 	0.50663	0.44217	0.13257	0.031
Mof_C 	C 	0.47983	0.64947	0.12769	0.105
Mof_H 	H 	0.49283	0.71667	0.12137	0
Mof_C 	C 	0.59893	0.61797	0.10081	0.141
Mof_C 	C 	0.63073	0.54667	0.09225	-0.086
Mof_H 	H 	0.60413	0.47597	0.09847	0.063
Mof_N 	N 	0.41513	0.60117	0.14542	-0.236
Mof_N 	N 	0.52553	0.58987	0.11969	-0.14
Mof_N 	N 	0.63203	0.71607	0.09268	-0.094
Mof_C 	C 	0.7534	0.9132	0.48225	0.007
Mof_H 	H 	0.74	0.9516	0.4937	0.031
Mof_C 	C 	0.6764	0.8448	0.46688	0.008
Mof_H 	H 	0.6022	0.8267	0.4659	0.033
Mof_C 	C 	0.8363	0.8535	0.46102	0.108
Mof_H 	H 	0.8905	0.8405	0.4547	0.005
Mof_C 	C 	0.6857	0.7344	0.43414	0.143
Mof_C 	C 	0.5826	0.7026	0.42558	-0.088
Mof_H 	H 	0.5385	0.7292	0.4318	0.065
Mof_N 	N 	0.8527	0.9182	0.47875	-0.226
Mof_N 	N 	0.731	0.8078	0.45302	-0.14
Mof_N 	N 	0.7507	0.7013	0.42601	-0.094
Mof_C 	C 	0.42007	0.24653	0.81558	0.004
Mof_H 	H 	0.40667	0.28493	0.82703	0.023
Mof_C 	C 	0.34307	0.17813	0.80021	0.004
Mof_H 	H 	0.26887	0.16003	0.79923	0.026
Mof_C 	C 	0.50297	0.18683	0.79435	0.104
Mof_H 	H 	0.55717	0.17383	0.78803	-0.003
Mof_C 	C 	0.35237	0.06773	0.76747	0.153
Mof_C 	C 	0.24927	0.03593	0.75891	-0.14
Mof_H 	H 	0.20517	0.06253	0.76513	0.075
Mof_N 	N 	0.51937	0.25153	0.81208	-0.236
Mof_N 	N 	0.39767	0.14113	0.78635	-0.144
Mof_N 	N 	0.41737	0.03463	0.75934	-0.109
Mof_C 	C 	0.08673	0.57987	0.14892	0.029
Mof_H 	H 	0.07333	0.61827	0.16037	0.012
Mof_C 	C 	0.00973	0.51147	0.13355	-0.046
Mof_H 	H 	0.93553	0.49337	0.13257	0.062
Mof_C 	C 	0.16963	0.52017	0.12769	0.102
Mof_H 	H 	0.22383	0.50717	0.12137	-0.001
Mof_C 	C 	0.01903	0.40107	0.10081	0.1
Mof_C 	C 	0.91593	0.36927	0.09225	-0.03
Mof_H 	H 	0.87183	0.39587	0.09847	0.047
Mof_N 	N 	0.18603	0.58487	0.14542	-0.239
Mof_N 	N 	0.06433	0.47447	0.11969	-0.129
Mof_N 	N 	0.08403	0.36797	0.09268	-0.091
Mof_C 	C 	0.7534	0.8402	0.98225	0.006
Mof_H 	H 	0.74	0.7884	0.9937	0.026
Mof_C 	C 	0.6764	0.8316	0.96688	0.009
Mof_H 	H 	0.6022	0.7755	0.9659	0.031
Mof_C 	C 	0.8363	0.9828	0.96102	0.143
Mof_H 	H 	0.8905	0.05	0.9547	-0.02
Mof_C 	C 	0.6857	0.9513	0.93414	0.175
Mof_C 	C 	0.5826	0.88	0.92558	-0.125
Mof_H 	H 	0.5385	0.8093	0.9318	0.078
Mof_N 	N 	0.8527	0.9345	0.97875	-0.233
Mof_N 	N 	0.731	0.9232	0.95302	-0.149
Mof_N 	N 	0.7507	0.0494	0.92601	-0.111
Mof_C 	C 	0.42007	0.17353	0.31558	0.004
Mof_H 	H 	0.40667	0.12173	0.32703	0.021
Mof_C 	C 	0.34307	0.16493	0.30021	0.003
Mof_H 	H 	0.26887	0.10883	0.29923	0.026
Mof_C 	C 	0.50297	0.31613	0.29435	0.104
Mof_H 	H 	0.55717	0.38333	0.28803	-0.001
Mof_C 	C 	0.35237	0.28463	0.26747	0.138
Mof_C 	C 	0.24927	0.21333	0.25891	-0.089
Mof_H 	H 	0.20517	0.14263	0.26513	0.058
Mof_N 	N 	0.51937	0.26783	0.31208	-0.236
Mof_N 	N 	0.39767	0.25653	0.28635	-0.141
Mof_N 	N 	0.41737	0.38273	0.25934	-0.096
Mof_C 	C 	0.08673	0.50687	0.64892	0.029
Mof_H 	H 	0.07333	0.45507	0.66037	0.011
Mof_C 	C 	0.00973	0.49827	0.63355	-0.046
Mof_H 	H 	0.93553	0.44217	0.63257	0.062
Mof_C 	C 	0.16963	0.64947	0.62769	0.102
Mof_H 	H 	0.22383	0.71667	0.62137	0.001
Mof_C 	C 	0.01903	0.61797	0.60081	0.102
Mof_C 	C 	0.91593	0.54667	0.59225	-0.031
Mof_H 	H 	0.87183	0.47597	0.59847	0.048
Mof_N 	N 	0.18603	0.60117	0.64542	-0.239
Mof_N 	N 	0.06433	0.58987	0.61969	-0.128
Mof_N 	N 	0.08403	0.71607	0.59268	-0.089
Mof_C 	C 	0.1598	0.9132	0.98225	0.007
Mof_H 	H 	0.2116	0.9516	0.9937	0.03
Mof_C 	C 	0.1684	0.8448	0.96688	0.004
Mof_H 	H 	0.2245	0.8267	0.9659	0.034
Mof_C 	C 	0.0172	0.8535	0.96102	0.069
Mof_H 	H 	0.95	0.8405	0.9547	0.025
Mof_C 	C 	0.0487	0.7344	0.93414	0.108
Mof_C 	C 	0.12	0.7026	0.92558	-0.05
Mof_H 	H 	0.1907	0.7292	0.9318	0.051
Mof_N 	N 	0.0655	0.9182	0.97875	-0.227
Mof_N 	N 	0.0768	0.8078	0.95302	-0.131
Mof_N 	N 	0.9506	0.7013	0.92601	-0.079
Mof_C 	C 	0.82647	0.24653	0.31558	0.006
Mof_H 	H 	0.87827	0.28493	0.32703	0.026
Mof_C 	C 	0.83507	0.17813	0.30021	0.006
Mof_H 	H 	0.89117	0.16003	0.29923	0.032
Mof_C 	C 	0.68387	0.18683	0.29435	0.105
Mof_H 	H 	0.61667	0.17383	0.28803	-0.003
Mof_C 	C 	0.71537	0.06773	0.26747	0.154
Mof_C 	C 	0.78667	0.03593	0.25891	-0.135
Mof_H 	H 	0.85737	0.06253	0.26513	0.08
Mof_N 	N 	0.73217	0.25153	0.31208	-0.236
Mof_N 	N 	0.74347	0.14113	0.28635	-0.143
Mof_N 	N 	0.61727	0.03463	0.25934	-0.108
Mof_C 	C 	0.49313	0.57987	0.64892	0.006
Mof_H 	H 	0.54493	0.61827	0.66037	0.025
Mof_C 	C 	0.50173	0.51147	0.63355	0.005
Mof_H 	H 	0.55783	0.49337	0.63257	0.032
Mof_C 	C 	0.35053	0.52017	0.62769	0.104
Mof_H 	H 	0.28333	0.50717	0.62137	-0.002
Mof_C 	C 	0.38203	0.40107	0.60081	0.14
Mof_C 	C 	0.45333	0.36927	0.59225	-0.089
Mof_H 	H 	0.52403	0.39587	0.59847	0.064
Mof_N 	N 	0.39883	0.58487	0.64542	-0.236
Mof_N 	N 	0.41013	0.47447	0.61969	-0.141
Mof_N 	N 	0.28393	0.36797	0.59268	-0.098
Mof_C 	C 	0.0868	0.2466	0.98225	0.004
Mof_H 	H 	0.0484	0.26	0.9937	0.017
Mof_C 	C 	0.1552	0.3236	0.96688	0.001
Mof_H 	H 	0.1733	0.3978	0.9659	0.03
Mof_C 	C 	0.1465	0.1637	0.96102	0.102
Mof_H 	H 	0.1595	0.1095	0.9547	-0.007
Mof_C 	C 	0.2656	0.3143	0.93414	0.138
Mof_C 	C 	0.2974	0.4174	0.92558	-0.087
Mof_H 	H 	0.2708	0.4615	0.9318	0.062
Mof_N 	N 	0.0818	0.1473	0.97875	-0.241
Mof_N 	N 	0.1922	0.269	0.95302	-0.141
Mof_N 	N 	0.2987	0.2493	0.92601	-0.098
Mof_C 	C 	0.75347	0.57993	0.31558	0.008
Mof_H 	H 	0.71507	0.59333	0.32703	0.025
Mof_C 	C 	0.82187	0.65693	0.30021	0.005
Mof_H 	H 	0.83997	0.73113	0.29923	0.036
Mof_C 	C 	0.81317	0.49703	0.29435	0.105
Mof_H 	H 	0.82617	0.44283	0.28803	0
Mof_C 	C 	0.93227	0.64763	0.26747	0.129
Mof_C 	C 	0.96407	0.75073	0.25891	-0.039
Mof_H 	H 	0.93747	0.79483	0.26513	0.054
Mof_N 	N 	0.74847	0.48063	0.31208	-0.236
Mof_N 	N 	0.85887	0.60233	0.28635	-0.137
Mof_N 	N 	0.96537	0.58263	0.25934	-0.084
Mof_C 	C 	0.42013	0.91327	0.64892	-0.018
Mof_H 	H 	0.38173	0.92667	0.66037	0.036
Mof_C 	C 	0.48853	0.99027	0.63355	0.056
Mof_H 	H 	0.50663	0.06447	0.63257	0
Mof_C 	C 	0.47983	0.83037	0.62769	0.108
Mof_H 	H 	0.49283	0.77617	0.62137	-0.002
Mof_C 	C 	0.59893	0.98097	0.60081	0.18
Mof_C 	C 	0.63073	0.08407	0.59225	-0.143
Mof_H 	H 	0.60413	0.12817	0.59847	0.08
Mof_N 	N 	0.41513	0.81397	0.64542	-0.232
Mof_N 	N 	0.52553	0.93567	0.61969	-0.152
Mof_N 	N 	0.63203	0.91597	0.59268	-0.101
Mof_C 	C 	0.8402	0.7534	0.51775	0.006
Mof_H 	H 	0.7884	0.74	0.5063	0.026
Mof_C 	C 	0.8316	0.6764	0.53312	0.009
Mof_H 	H 	0.7755	0.6022	0.5341	0.031
Mof_C 	C 	0.9828	0.8363	0.53898	0.143
Mof_H 	H 	0.05	0.8905	0.5453	-0.02
Mof_C 	C 	0.9513	0.6857	0.56586	0.175
Mof_C 	C 	0.88	0.5826	0.57442	-0.125
Mof_H 	H 	0.8093	0.5385	0.5682	0.078
Mof_N 	N 	0.9345	0.8527	0.52125	-0.233
Mof_N 	N 	0.9232	0.731	0.54698	-0.149
Mof_N 	N 	0.0494	0.7507	0.57399	-0.111
Mof_C 	C 	0.50687	0.08673	0.85108	0.029
Mof_H 	H 	0.45507	0.07333	0.83963	0.011
Mof_C 	C 	0.49827	0.00973	0.86645	-0.046
Mof_H 	H 	0.44217	0.93553	0.86743	0.062
Mof_C 	C 	0.64947	0.16963	0.87231	0.102
Mof_H 	H 	0.71667	0.22383	0.87863	0.001
Mof_C 	C 	0.61797	0.01903	0.89919	0.102
Mof_C 	C 	0.54667	0.91593	0.90775	-0.031
Mof_H 	H 	0.47597	0.87183	0.90153	0.048
Mof_N 	N 	0.60117	0.18603	0.85458	-0.239
Mof_N 	N 	0.58987	0.06433	0.88031	-0.128
Mof_N 	N 	0.71607	0.08403	0.90732	-0.089
Mof_C 	C 	0.17353	0.42007	0.18442	0.004
Mof_H 	H 	0.12173	0.40667	0.17297	0.021
Mof_C 	C 	0.16493	0.34307	0.19979	0.003
Mof_H 	H 	0.10883	0.26887	0.20077	0.026
Mof_C 	C 	0.31613	0.50297	0.20565	0.104
Mof_H 	H 	0.38333	0.55717	0.21197	-0.001
Mof_C 	C 	0.28463	0.35237	0.23253	0.138
Mof_C 	C 	0.21333	0.24927	0.24109	-0.089
Mof_H 	H 	0.14263	0.20517	0.23487	0.058
Mof_N 	N 	0.26783	0.51937	0.18792	-0.236
Mof_N 	N 	0.25653	0.39767	0.21365	-0.141
Mof_N 	N 	0.38273	0.41737	0.24066	-0.096
Mof_C 	C 	0.9132	0.1598	0.51775	0.007
Mof_H 	H 	0.9516	0.2116	0.5063	0.03
Mof_C 	C 	0.8448	0.1684	0.53312	0.004
Mof_H 	H 	0.8267	0.2245	0.5341	0.034
Mof_C 	C 	0.8535	0.0172	0.53898	0.069
Mof_H 	H 	0.8405	0.95	0.5453	0.025
Mof_C 	C 	0.7344	0.0487	0.56586	0.108
Mof_C 	C 	0.7026	0.12	0.57442	-0.05
Mof_H 	H 	0.7292	0.1907	0.5682	0.051
Mof_N 	N 	0.9182	0.0655	0.52125	-0.227
Mof_N 	N 	0.8078	0.0768	0.54698	-0.131
Mof_N 	N 	0.7013	0.9506	0.57399	-0.079
Mof_C 	C 	0.57987	0.49313	0.85108	0.006
Mof_H 	H 	0.61827	0.54493	0.83963	0.025
Mof_C 	C 	0.51147	0.50173	0.86645	0.005
Mof_H 	H 	0.49337	0.55783	0.86743	0.032
Mof_C 	C 	0.52017	0.35053	0.87231	0.104
Mof_H 	H 	0.50717	0.28333	0.87863	-0.002
Mof_C 	C 	0.40107	0.38203	0.89919	0.14
Mof_C 	C 	0.36927	0.45333	0.90775	-0.089
Mof_H 	H 	0.39587	0.52403	0.90153	0.064
Mof_N 	N 	0.58487	0.39883	0.85458	-0.236
Mof_N 	N 	0.47447	0.41013	0.88031	-0.141
Mof_N 	N 	0.36797	0.28393	0.90732	-0.098
Mof_C 	C 	0.24653	0.82647	0.18442	0.006
Mof_H 	H 	0.28493	0.87827	0.17297	0.026
Mof_C 	C 	0.17813	0.83507	0.19979	0.006
Mof_H 	H 	0.16003	0.89117	0.20077	0.032
Mof_C 	C 	0.18683	0.68387	0.20565	0.105
Mof_H 	H 	0.17383	0.61667	0.21197	-0.003
Mof_C 	C 	0.06773	0.71537	0.23253	0.154
Mof_C 	C 	0.03593	0.78667	0.24109	-0.135
Mof_H 	H 	0.06253	0.85737	0.23487	0.08
Mof_N 	N 	0.25153	0.73217	0.18792	-0.236
Mof_N 	N 	0.14113	0.74347	0.21365	-0.143
Mof_N 	N 	0.03463	0.61727	0.24066	-0.108
Mof_C 	C 	0.2466	0.0868	0.51775	0.004
Mof_H 	H 	0.26	0.0484	0.5063	0.017
Mof_C 	C 	0.3236	0.1552	0.53312	0.001
Mof_H 	H 	0.3978	0.1733	0.5341	0.03
Mof_C 	C 	0.1637	0.1465	0.53898	0.102
Mof_H 	H 	0.1095	0.1595	0.5453	-0.007
Mof_C 	C 	0.3143	0.2656	0.56586	0.138
Mof_C 	C 	0.4174	0.2974	0.57442	-0.087
Mof_H 	H 	0.4615	0.2708	0.5682	0.062
Mof_N 	N 	0.1473	0.0818	0.52125	-0.241
Mof_N 	N 	0.269	0.1922	0.54698	-0.141
Mof_N 	N 	0.2493	0.2987	0.57399	-0.098
Mof_C 	C 	0.91327	0.42013	0.85108	-0.018
Mof_H 	H 	0.92667	0.38173	0.83963	0.036
Mof_C 	C 	0.99027	0.48853	0.86645	0.056
Mof_H 	H 	0.06447	0.50663	0.86743	0
Mof_C 	C 	0.83037	0.47983	0.87231	0.108
Mof_H 	H 	0.77617	0.49283	0.87863	-0.002
Mof_C 	C 	0.98097	0.59893	0.89919	0.18
Mof_C 	C 	0.08407	0.63073	0.90775	-0.143
Mof_H 	H 	0.12817	0.60413	0.90153	0.08
Mof_N 	N 	0.81397	0.41513	0.85458	-0.232
Mof_N 	N 	0.93567	0.52553	0.88031	-0.152
Mof_N 	N 	0.91597	0.63203	0.90732	-0.101
Mof_C 	C 	0.57993	0.75347	0.18442	0.008
Mof_H 	H 	0.59333	0.71507	0.17297	0.025
Mof_C 	C 	0.65693	0.82187	0.19979	0.005
Mof_H 	H 	0.73113	0.83997	0.20077	0.036
Mof_C 	C 	0.49703	0.81317	0.20565	0.105
Mof_H 	H 	0.44283	0.82617	0.21197	0
Mof_C 	C 	0.64763	0.93227	0.23253	0.129
Mof_C 	C 	0.75073	0.96407	0.24109	-0.039
Mof_H 	H 	0.79483	0.93747	0.23487	0.054
Mof_N 	N 	0.48063	0.74847	0.18792	-0.236
Mof_N 	N 	0.60233	0.85887	0.21365	-0.137
Mof_N 	N 	0.58263	0.96537	0.24066	-0.084
Mof_Co	Co	-0	0	-0	1.099
Mof_Co	Co	0.66667	0.33333	0.33333	1.116
Mof_Co	Co	0.33333	0.66667	0.66667	1.116
Mof_Co	Co	2.0828e-32	0	0.5	1.099
Mof_Co	Co	0.66667	0.33333	0.83333	1.116
Mof_Co	Co	0.33333	0.66667	0.16667	1.116
_end
