data_functionalizedCrystal
_audit_creation_method	'EQeq! by Chris Wilmer'
_symmetry_space_group_name_H-M	'P1'
_symmetry_Int_Tables_number	1
_symmetry_cell_setting	triclinic
loop_
_symmetry_equiv_pos_as_xyz
  x,y,z
_cell_length_a	20.4375
_cell_length_b	7.8496
_cell_length_c	6.5934
_cell_angle_alpha	90
_cell_angle_beta	111.801
_cell_angle_gamma	90
loop_
_atom_site_label
_atom_site_type_symbol
_atom_site_fract_x
_atom_site_fract_y
_atom_site_fract_z
_atom_site_charge
Mof_Al	Al	-0	0	-0	2.046
Mof_C 	C 	0.17955	0.76771	0.46013	-0.162
Mof_C 	C 	0.20641	0.7065	0.30465	0.102
Mof_C 	C 	0.27883	0.66656	0.36956	0.115
Mof_C 	C 	0.32438	0.68783	0.58994	-0.339
Mof_C 	C 	0.29751	0.74905	0.74542	0.209
Mof_C 	C 	0.2251	0.78899	0.68051	0.127
Mof_C 	C 	0.10713	0.8077	0.39522	0.6
Mof_O 	O 	0.06716	0.789	0.20182	-0.495
Mof_O 	O 	0.08356	0.8614	0.53165	-0.549
Mof_C 	C 	0.39679	0.6479	0.65485	1.103
Mof_O 	O 	0.42037	0.5942	0.51842	-1.393
Mof_O 	O 	0.43676	0.6666	0.84825	-1.121
Mof_N 	N 	0.16086	0.68523	0.08427	-0.109
Mof_O 	O 	0.0026	0.8897	0.739	-0.704
Mof_Al	Al	0.5	0.5	-0	4.616
Mof_C 	C 	0.67955	0.26771	0.46013	-0.363
Mof_C 	C 	0.70641	0.2065	0.30465	0.121
Mof_C 	C 	0.77883	0.16656	0.36956	-0.075
Mof_C 	C 	0.82438	0.18783	0.58994	-0.185
Mof_C 	C 	0.79751	0.24905	0.74542	0.045
Mof_C 	C 	0.7251	0.28899	0.68051	0.094
Mof_C 	C 	0.60713	0.3077	0.39522	0.88
Mof_O 	O 	0.56716	0.289	0.20182	-0.96
Mof_O 	O 	0.58356	0.3614	0.53165	-1.201
Mof_C 	C 	0.89679	0.1479	0.65485	0.615
Mof_O 	O 	0.92037	0.0942	0.51842	-0.777
Mof_O 	O 	0.93676	0.1666	0.84825	-0.543
Mof_N 	N 	0.66086	0.18523	0.08427	-0.216
Mof_O 	O 	0.5026	0.3897	0.739	-1.738
Mof_Al	Al	7.23491e-18	0	0.5	2.337
Mof_C 	C 	0.17955	0.23229	0.96013	-0.051
Mof_C 	C 	0.20641	0.2935	0.80465	-0.011
Mof_C 	C 	0.27883	0.33344	0.86956	0.259
Mof_C 	C 	0.32438	0.31217	0.08994	-0.567
Mof_C 	C 	0.29751	0.25095	0.24542	0.15
Mof_C 	C 	0.2251	0.21101	0.18051	-0.188
Mof_C 	C 	0.10713	0.1923	0.89522	0.663
Mof_O 	O 	0.06716	0.211	0.70182	-0.622
Mof_O 	O 	0.08356	0.1386	0.03165	-0.824
Mof_C 	C 	0.39679	0.3521	0.15485	1.136
Mof_O 	O 	0.42037	0.4058	0.01842	-1.426
Mof_O 	O 	0.43676	0.3334	0.34825	-1.368
Mof_N 	N 	0.16086	0.31477	0.58427	-0.105
Mof_O 	O 	0.0026	0.1103	0.239	-1.055
Mof_Al	Al	0.5	0.5	0.5	5.126
Mof_C 	C 	0.67955	0.73229	0.96013	-0.153
Mof_C 	C 	0.70641	0.7935	0.80465	0.106
Mof_C 	C 	0.77883	0.83344	0.86956	0.295
Mof_C 	C 	0.82438	0.81217	0.08994	-0.332
Mof_C 	C 	0.79751	0.75095	0.24542	0.188
Mof_C 	C 	0.7251	0.71101	0.18051	-0.025
Mof_C 	C 	0.60713	0.6923	0.89522	0.989
Mof_O 	O 	0.56716	0.711	0.70182	-0.903
Mof_O 	O 	0.58356	0.6386	0.03165	-1.204
Mof_C 	C 	0.89679	0.8521	0.15485	0.707
Mof_O 	O 	0.92037	0.9058	0.01842	-0.553
Mof_O 	O 	0.93676	0.8334	0.34825	-0.53
Mof_N 	N 	0.66086	0.81477	0.58427	-0.043
Mof_O 	O 	0.5026	0.6103	0.239	-1.739
_end
