data_functionalizedCrystal
_audit_creation_method	'EQeq! by Chris Wilmer'
_symmetry_space_group_name_H-M	'P1'
_symmetry_Int_Tables_number	1
_symmetry_cell_setting	triclinic
loop_
_symmetry_equiv_pos_as_xyz
  x,y,z
_cell_length_a	7.3236
_cell_length_b	7.3236
_cell_length_c	8.318
_cell_angle_alpha	90
_cell_angle_beta	90
_cell_angle_gamma	120
loop_
_atom_site_label
_atom_site_type_symbol
_atom_site_fract_x
_atom_site_fract_y
_atom_site_fract_z
_atom_site_charge
Mof_O 	O 	0.10827	0.69447	0.10444	-0.281
Mof_O 	O 	0.30553	0.4138	0.10444	-0.311
Mof_O 	O 	0.5862	0.89173	0.10444	-0.225
Mof_O 	O 	0.89173	0.30553	0.60444	-0.274
Mof_O 	O 	0.69447	0.5862	0.60444	-0.294
Mof_O 	O 	0.4138	0.10827	0.60444	-0.309
Mof_O 	O 	0.69447	0.10827	0.89556	-0.208
Mof_O 	O 	0.4138	0.30553	0.89556	-0.238
Mof_O 	O 	0.89173	0.5862	0.89556	-0.173
Mof_O 	O 	0.30553	0.89173	0.39556	-0.257
Mof_O 	O 	0.5862	0.69447	0.39556	-0.298
Mof_O 	O 	0.10827	0.4138	0.39556	-0.319
Mof_Fe	Fe	0.33333	0.66667	0.25	0.874
Mof_Fe	Fe	0.66667	0.33333	0.75	0.889
Mof_C 	C 	-0	0.5645	-0	0.188
Mof_H 	H 	3.67808e-17	0.411	-0	-0.021
Mof_C 	C 	0.4355	0.4355	-0	0.247
Mof_H 	H 	0.589	0.589	-0	-0.01
Mof_C 	C 	0.5645	0	-0	0.156
Mof_H 	H 	0.411	0	-0	-0.02
Mof_C 	C 	4.01516e-18	0.4355	0.5	0.301
Mof_H 	H 	4.0796e-17	0.589	0.5	-0.013
Mof_C 	C 	0.5645	0.5645	0.5	0.358
Mof_H 	H 	0.411	0.411	0.5	-0.022
Mof_C 	C 	0.4355	0	0.5	0.274
Mof_H 	H 	0.589	0	0.5	-0.014
_end
