data_functionalizedCrystal
_audit_creation_method	'EQeq! by Chris Wilmer'
_symmetry_space_group_name_H-M	'P1'
_symmetry_Int_Tables_number	1
_symmetry_cell_setting	triclinic
loop_
_symmetry_equiv_pos_as_xyz
  x,y,z
_cell_length_a	10.772
_cell_length_b	21.7524
_cell_length_c	9.8578
_cell_angle_alpha	90
_cell_angle_beta	111.728
_cell_angle_gamma	90
loop_
_atom_site_label
_atom_site_type_symbol
_atom_site_fract_x
_atom_site_fract_y
_atom_site_fract_z
_atom_site_charge
Mof_Cu	Cu	0.96344	0.11005	0.56382	0.882
Mof_Cu	Cu	0.50815	0.86588	0.00403	0.875
Mof_O 	O 	0.78966	0.08348	0.5545	-0.409
Mof_O 	O 	0.66691	0.16845	0.4792	-0.286
Mof_O 	O 	0.15527	0.10078	0.62115	-0.421
Mof_O 	O 	0.1942	0.15644	0.4508	-0.282
Mof_O 	O 	0.4775	0.93373	0.8682	-0.403
Mof_O 	O 	0.6831	0.93968	0.8625	-0.287
Mof_O 	O 	0.79962	0.16548	0.8651	-0.231
Mof_N 	N 	0.9205	0.0832	0.3563	-0.19
Mof_N 	N 	0.6785	0.13408	0.0039	-0.246
Mof_N 	N 	0.4739	0.19894	0.8463	-0.205
Mof_N 	N 	0.4851	0.28784	0.6524	-0.172
Mof_C 	C 	0.8178	0.11053	0.2521	-0.036
Mof_H 	H 	0.7656	0.1379	0.2803	0.039
Mof_C 	C 	0.7855	0.10015	0.1043	0.097
Mof_C 	C 	0.9636	0.02704	0.1724	-0.042
Mof_H 	H 	0.0138	0.9975	0.1475	0.046
Mof_C 	C 	0.9925	0.04189	0.3158	0.025
Mof_H 	H 	0.0643	0.0227	0.3874	0.009
Mof_C 	C 	0.8587	0.05643	0.0642	-0.085
Mof_H 	H 	0.8381	0.0469	0.9663	0.078
Mof_C 	C 	0.371	0.23664	0.7841	0.022
Mof_H 	H 	0.294	0.2326	0.805	0.015
Mof_C 	C 	0.3785	0.28164	0.6887	0.011
Mof_H 	H 	0.3069	0.3084	0.6486	0.03
Mof_C 	C 	0.5865	0.24901	0.7135	0.038
Mof_H 	H 	0.6615	0.2516	0.6884	0.032
Mof_C 	C 	0.5826	0.20486	0.8137	-0.008
Mof_C 	C 	0.6989	0.16427	0.8971	0.184
Mof_C 	C 	0.6852	0.11602	0.5308	0.346
Mof_C 	C 	0.5804	0.08639	0.5766	-0.103
Mof_C 	C 	0.6131	0.03508	0.6673	0.042
Mof_H 	H 	0.6971	0.0172	0.6922	0.043
Mof_C 	C 	0.4543	0.11195	0.5372	0.043
Mof_H 	H 	0.4315	0.1458	0.4754	0.045
Mof_C 	C 	0.227	0.1178	0.5478	0.335
Mof_C 	C 	0.3608	0.08726	0.5896	-0.114
Mof_C 	C 	0.3954	0.0364	0.6823	0.026
Mof_H 	H 	0.3338	0.02	0.7181	0.037
Mof_C 	C 	0.5214	0.01021	0.7213	-0.11
Mof_C 	C 	0.5652	0.95686	0.8248	0.33
Mof_Cu	Cu	0.03656	0.61005	0.93618	0.88
Mof_Cu	Cu	0.49185	0.36588	0.49597	0.875
Mof_O 	O 	0.21034	0.58348	0.9455	-0.409
Mof_O 	O 	0.33309	0.66845	0.0208	-0.285
Mof_O 	O 	0.84473	0.60078	0.87885	-0.42
Mof_O 	O 	0.8058	0.65644	0.0492	-0.286
Mof_O 	O 	0.5225	0.43373	0.6318	-0.403
Mof_O 	O 	0.3169	0.43968	0.6375	-0.288
Mof_O 	O 	0.20038	0.66548	0.6349	-0.231
Mof_N 	N 	0.0795	0.5832	0.1437	-0.191
Mof_N 	N 	0.3215	0.63408	0.4961	-0.246
Mof_N 	N 	0.5261	0.69894	0.6537	-0.205
Mof_N 	N 	0.5149	0.78784	0.8476	-0.171
Mof_C 	C 	0.1822	0.61053	0.2479	-0.035
Mof_H 	H 	0.2344	0.6379	0.2197	0.039
Mof_C 	C 	0.2145	0.60015	0.3957	0.096
Mof_C 	C 	0.0364	0.52704	0.3276	-0.044
Mof_H 	H 	0.9862	0.4975	0.3525	0.046
Mof_C 	C 	0.0075	0.54189	0.1842	0.034
Mof_H 	H 	0.9357	0.5227	0.1126	0.002
Mof_C 	C 	0.1413	0.55643	0.4358	-0.082
Mof_H 	H 	0.1619	0.5469	0.5337	0.077
Mof_C 	C 	0.629	0.73664	0.7159	0.022
Mof_H 	H 	0.706	0.7326	0.695	0.016
Mof_C 	C 	0.6215	0.78164	0.8113	0.011
Mof_H 	H 	0.6931	0.8084	0.8514	0.03
Mof_C 	C 	0.4135	0.74901	0.7865	0.038
Mof_H 	H 	0.3385	0.7516	0.8116	0.032
Mof_C 	C 	0.4174	0.70486	0.6863	-0.008
Mof_C 	C 	0.3011	0.66427	0.6029	0.185
Mof_C 	C 	0.3148	0.61602	0.9692	0.345
Mof_C 	C 	0.4196	0.58639	0.9234	-0.104
Mof_C 	C 	0.3869	0.53508	0.8327	0.041
Mof_H 	H 	0.3029	0.5172	0.8078	0.044
Mof_C 	C 	0.5457	0.61195	0.9628	0.045
Mof_H 	H 	0.5685	0.6458	0.0246	0.043
Mof_C 	C 	0.773	0.6178	0.9522	0.339
Mof_C 	C 	0.6392	0.58726	0.9104	-0.115
Mof_C 	C 	0.6046	0.5364	0.8177	0.026
Mof_H 	H 	0.6662	0.52	0.7819	0.037
Mof_C 	C 	0.4786	0.51021	0.7787	-0.109
Mof_C 	C 	0.4348	0.45686	0.6752	0.33
Mof_Cu	Cu	0.03656	0.88995	0.43618	0.881
Mof_Cu	Cu	0.49185	0.13412	0.99597	0.874
Mof_O 	O 	0.21034	0.91652	0.4455	-0.409
Mof_O 	O 	0.33309	0.83155	0.5208	-0.286
Mof_O 	O 	0.84473	0.89922	0.37885	-0.421
Mof_O 	O 	0.8058	0.84356	0.5492	-0.282
Mof_O 	O 	0.5225	0.06627	0.1318	-0.403
Mof_O 	O 	0.3169	0.06032	0.1375	-0.287
Mof_O 	O 	0.20038	0.83452	0.1349	-0.231
Mof_N 	N 	0.0795	0.9168	0.6437	-0.19
Mof_N 	N 	0.3215	0.86592	0.9961	-0.246
Mof_N 	N 	0.5261	0.80106	0.1537	-0.205
Mof_N 	N 	0.5149	0.71216	0.3476	-0.172
Mof_C 	C 	0.1822	0.88947	0.7479	-0.036
Mof_H 	H 	0.2344	0.8621	0.7197	0.039
Mof_C 	C 	0.2145	0.89985	0.8957	0.097
Mof_C 	C 	0.0364	0.97296	0.8276	-0.042
Mof_H 	H 	0.9862	0.0025	0.8525	0.046
Mof_C 	C 	0.0075	0.95811	0.6842	0.025
Mof_H 	H 	0.9357	0.9773	0.6126	0.009
Mof_C 	C 	0.1413	0.94357	0.9358	-0.085
Mof_H 	H 	0.1619	0.9531	0.0337	0.078
Mof_C 	C 	0.629	0.76336	0.2159	0.022
Mof_H 	H 	0.706	0.7674	0.195	0.015
Mof_C 	C 	0.6215	0.71836	0.3113	0.011
Mof_H 	H 	0.6931	0.6916	0.3514	0.03
Mof_C 	C 	0.4135	0.75099	0.2865	0.038
Mof_H 	H 	0.3385	0.7484	0.3116	0.032
Mof_C 	C 	0.4174	0.79514	0.1863	-0.008
Mof_C 	C 	0.3011	0.83573	0.1029	0.184
Mof_C 	C 	0.3148	0.88398	0.4692	0.346
Mof_C 	C 	0.4196	0.91361	0.4234	-0.103
Mof_C 	C 	0.3869	0.96492	0.3327	0.042
Mof_H 	H 	0.3029	0.9828	0.3078	0.043
Mof_C 	C 	0.5457	0.88805	0.4628	0.043
Mof_H 	H 	0.5685	0.8542	0.5246	0.045
Mof_C 	C 	0.773	0.8822	0.4522	0.335
Mof_C 	C 	0.6392	0.91274	0.4104	-0.114
Mof_C 	C 	0.6046	0.9636	0.3177	0.026
Mof_H 	H 	0.6662	0.98	0.2819	0.037
Mof_C 	C 	0.4786	0.98979	0.2787	-0.11
Mof_C 	C 	0.4348	0.04314	0.1752	0.33
Mof_Cu	Cu	0.96344	0.38995	0.06382	0.88
Mof_Cu	Cu	0.50815	0.63412	0.50403	0.875
Mof_O 	O 	0.78966	0.41652	0.0545	-0.409
Mof_O 	O 	0.66691	0.33155	0.9792	-0.285
Mof_O 	O 	0.15527	0.39922	0.12115	-0.42
Mof_O 	O 	0.1942	0.34356	0.9508	-0.286
Mof_O 	O 	0.4775	0.56627	0.3682	-0.403
Mof_O 	O 	0.6831	0.56032	0.3625	-0.288
Mof_O 	O 	0.79962	0.33452	0.3651	-0.231
Mof_N 	N 	0.9205	0.4168	0.8563	-0.191
Mof_N 	N 	0.6785	0.36592	0.5039	-0.246
Mof_N 	N 	0.4739	0.30106	0.3463	-0.205
Mof_N 	N 	0.4851	0.21216	0.1524	-0.171
Mof_C 	C 	0.8178	0.38947	0.7521	-0.035
Mof_H 	H 	0.7656	0.3621	0.7803	0.039
Mof_C 	C 	0.7855	0.39985	0.6043	0.096
Mof_C 	C 	0.9636	0.47296	0.6724	-0.044
Mof_H 	H 	0.0138	0.5025	0.6475	0.046
Mof_C 	C 	0.9925	0.45811	0.8158	0.034
Mof_H 	H 	0.0643	0.4773	0.8874	0.002
Mof_C 	C 	0.8587	0.44357	0.5642	-0.082
Mof_H 	H 	0.8381	0.4531	0.4663	0.077
Mof_C 	C 	0.371	0.26336	0.2841	0.022
Mof_H 	H 	0.294	0.2674	0.305	0.016
Mof_C 	C 	0.3785	0.21836	0.1887	0.011
Mof_H 	H 	0.3069	0.1916	0.1486	0.03
Mof_C 	C 	0.5865	0.25099	0.2135	0.038
Mof_H 	H 	0.6615	0.2484	0.1884	0.032
Mof_C 	C 	0.5826	0.29514	0.3137	-0.008
Mof_C 	C 	0.6989	0.33573	0.3971	0.185
Mof_C 	C 	0.6852	0.38398	0.0308	0.345
Mof_C 	C 	0.5804	0.41361	0.0766	-0.104
Mof_C 	C 	0.6131	0.46492	0.1673	0.041
Mof_H 	H 	0.6971	0.4828	0.1922	0.044
Mof_C 	C 	0.4543	0.38805	0.0372	0.045
Mof_H 	H 	0.4315	0.3542	0.9754	0.043
Mof_C 	C 	0.227	0.3822	0.0478	0.339
Mof_C 	C 	0.3608	0.41274	0.0896	-0.115
Mof_C 	C 	0.3954	0.4636	0.1823	0.026
Mof_H 	H 	0.3338	0.48	0.2181	0.037
Mof_C 	C 	0.5214	0.48979	0.2213	-0.109
Mof_C 	C 	0.5652	0.54314	0.3248	0.33
_end
