data_functionalizedCrystal
_audit_creation_method	'EQeq! by Chris Wilmer'
_symmetry_space_group_name_H-M	'P1'
_symmetry_Int_Tables_number	1
_symmetry_cell_setting	triclinic
loop_
_symmetry_equiv_pos_as_xyz
  x,y,z
_cell_length_a	5.882
_cell_length_b	20.872
_cell_length_c	20.872
_cell_angle_alpha	90
_cell_angle_beta	90
_cell_angle_gamma	90
loop_
_atom_site_label
_atom_site_type_symbol
_atom_site_fract_x
_atom_site_fract_y
_atom_site_fract_z
_atom_site_charge
Mof_Cd	Cd	0.45997	0.76803	0.17012	0.456
Mof_Cd	Cd	0.54003	0.23197	0.82988	0.456
Mof_Cd	Cd	0.54003	0.26803	0.67012	0.456
Mof_Cd	Cd	0.95997	0.67012	0.23197	0.449
Mof_Cd	Cd	0.45997	0.73197	0.32988	0.456
Mof_Cd	Cd	0.04003	0.17012	0.73197	0.449
Mof_Cd	Cd	0.04003	0.32988	0.76803	0.449
Mof_Cd	Cd	0.95997	0.82988	0.26803	0.449
Mof_H 	H 	0.1101	0.1491	0.9854	0.003
Mof_H 	H 	0.6496	0.4503	0.7275	0.023
Mof_H 	H 	0.9876	0.9922	0.429	-0.018
Mof_H 	H 	0.3824	0.5079	0.5773	0.137
Mof_H 	H 	0.411	0.845	0.277	0.251
Mof_H 	H 	0.7612	0.9327	0.1449	0.018
Mof_H 	H 	0.1496	0.2275	0.5497	0.021
Mof_H 	H 	0.2741	0.0719	0.4145	0.138
Mof_H 	H 	0.1176	0.9227	0.5079	0.142
Mof_H 	H 	0.8824	0.0773	0.4921	0.142
Mof_H 	H 	0.8824	0.4227	0.0079	0.142
Mof_H 	H 	0.1496	0.2725	0.9503	0.021
Mof_H 	H 	0.6101	0.4854	0.8509	-0.004
Mof_H 	H 	0.089	0.277	0.655	0.249
Mof_H 	H 	0.7388	0.3551	0.9327	0.016
Mof_H 	H 	0.1101	0.3509	0.5146	-0
Mof_H 	H 	0.1176	0.5773	0.9921	0.142
Mof_H 	H 	0.2612	0.8551	0.4327	0.015
Mof_H 	H 	0.3824	0.9921	0.9227	0.133
Mof_H 	H 	0.9876	0.5078	0.071	-0.018
Mof_H 	H 	0.7741	0.5855	0.5719	0.133
Mof_H 	H 	0.589	0.345	0.777	0.251
Mof_H 	H 	0.2612	0.6449	0.0673	0.016
Mof_H 	H 	0.6176	0.4921	0.4227	0.137
Mof_H 	H 	0.5124	0.071	0.9922	-0.007
Mof_H 	H 	0.4876	0.571	0.4922	-0.013
Mof_H 	H 	0.3504	0.5497	0.2725	0.023
Mof_H 	H 	0.2259	0.0855	0.0719	0.13
Mof_H 	H 	0.911	0.777	0.155	0.249
Mof_H 	H 	0.8899	0.8509	0.0146	0.003
Mof_H 	H 	0.089	0.223	0.845	0.249
Mof_H 	H 	0.3899	0.9854	0.3509	-0.003
Mof_H 	H 	0.0124	0.0078	0.571	-0.018
Mof_H 	H 	0.7388	0.1449	0.5673	0.015
Mof_H 	H 	0.8504	0.7275	0.0497	0.021
Mof_H 	H 	0.8899	0.6491	0.4854	-0
Mof_H 	H 	0.6176	0.0079	0.0773	0.133
Mof_H 	H 	0.6101	0.0146	0.6491	-0.003
Mof_H 	H 	0.911	0.723	0.345	0.249
Mof_H 	H 	0.8504	0.7725	0.4503	0.021
Mof_H 	H 	0.3899	0.5146	0.1491	-0.004
Mof_H 	H 	0.5124	0.429	0.5078	-0.013
Mof_H 	H 	0.6496	0.0497	0.7725	0.022
Mof_H 	H 	0.7259	0.9281	0.5855	0.138
Mof_H 	H 	0.0124	0.4922	0.929	-0.018
Mof_H 	H 	0.2388	0.4327	0.6449	0.018
Mof_H 	H 	0.7259	0.5719	0.9145	0.138
Mof_H 	H 	0.4876	0.929	0.0078	-0.007
Mof_H 	H 	0.7612	0.5673	0.3551	0.018
Mof_H 	H 	0.2259	0.4145	0.4281	0.133
Mof_H 	H 	0.3504	0.9503	0.2275	0.022
Mof_H 	H 	0.2741	0.4281	0.0855	0.138
Mof_H 	H 	0.411	0.655	0.223	0.251
Mof_H 	H 	0.2388	0.0673	0.8551	0.018
Mof_H 	H 	0.589	0.155	0.723	0.251
Mof_H 	H 	0.7741	0.9145	0.9281	0.13
Mof_C 	C 	0.9049	0.9472	0.1567	0.097
Mof_C 	C 	0.6595	0.4252	0.4919	0.163
Mof_C 	C 	0.3405	0.9252	0.9919	0.149
Mof_C 	C 	0.6595	0.0748	0.0081	0.149
Mof_C 	C 	0.5073	0.5037	0.8794	0.162
Mof_C 	C 	0.2268	0.5423	0.2993	0.094
Mof_C 	C 	0.0786	0.0821	0.0561	-0.235
Mof_C 	C 	0.2211	0.9406	0.5364	-0.278
Mof_C 	C 	0.2991	0.0199	0.617	-0.206
Mof_C 	C 	0.5683	0.0823	0.4588	0.246
Mof_C 	C 	0.3405	0.5748	0.5081	0.163
Mof_C 	C 	0.2789	0.5364	0.5594	-0.267
Mof_C 	C 	0.7732	0.4577	0.7007	0.094
Mof_C 	C 	0.9317	0.0412	0.0823	0.225
Mof_C 	C 	0.2789	0.9636	0.9406	-0.256
Mof_C 	C 	0.1595	0.5081	0.9252	0.174
Mof_C 	C 	0.2732	0.2993	0.9577	0.094
Mof_C 	C 	0.9927	0.8794	0.9963	0.137
Mof_C 	C 	0.7991	0.117	0.9801	-0.184
Mof_C 	C 	0.7206	0.3423	0.5749	0.353
Mof_C 	C 	0.9049	0.5528	0.3433	0.099
Mof_C 	C 	0.2009	0.617	0.4801	-0.195
Mof_C 	C 	0.7268	0.7993	0.4577	0.094
Mof_C 	C 	0.0786	0.4179	0.4439	-0.244
Mof_C 	C 	0.7991	0.383	0.5199	-0.195
Mof_C 	C 	0.7009	0.5199	0.117	-0.208
Mof_C 	C 	0.5683	0.4177	0.0412	0.246
Mof_C 	C 	0.4214	0.4439	0.0821	-0.258
Mof_C 	C 	0.0951	0.0528	0.8433	0.097
Mof_C 	C 	0.7268	0.7007	0.0423	0.094
Mof_C 	C 	0.9317	0.4588	0.4177	0.234
Mof_C 	C 	0.4317	0.5823	0.9588	0.246
Mof_C 	C 	0.1595	0.9919	0.5748	0.173
Mof_C 	C 	0.5786	0.9439	0.5821	-0.257
Mof_C 	C 	0.7211	0.4636	0.4406	-0.267
Mof_C 	C 	0.7206	0.1577	0.9251	0.349
Mof_C 	C 	0.0683	0.9588	0.9177	0.225
Mof_C 	C 	0.0683	0.5412	0.5823	0.234
Mof_C 	C 	0.2794	0.8423	0.0749	0.349
Mof_C 	C 	0.0073	0.1206	0.0037	0.137
Mof_C 	C 	0.4049	0.8433	0.4472	0.11
Mof_C 	C 	0.5073	0.9963	0.6206	0.16
Mof_C 	C 	0.7789	0.0594	0.4636	-0.278
Mof_C 	C 	0.5951	0.1567	0.5528	0.11
Mof_C 	C 	0.4317	0.9177	0.5412	0.246
Mof_C 	C 	0.4049	0.6567	0.0528	0.11
Mof_C 	C 	0.2206	0.4251	0.8423	0.358
Mof_C 	C 	0.0951	0.4472	0.6567	0.099
Mof_C 	C 	0.4927	0.4963	0.1206	0.162
Mof_C 	C 	0.2732	0.2007	0.5423	0.094
Mof_C 	C 	0.7794	0.9251	0.3423	0.358
Mof_C 	C 	0.2991	0.4801	0.883	-0.208
Mof_C 	C 	0.2009	0.883	0.0199	-0.184
Mof_C 	C 	0.2794	0.6577	0.4251	0.353
Mof_C 	C 	0.2211	0.5594	0.9636	-0.279
Mof_C 	C 	0.4214	0.0561	0.4179	-0.257
Mof_C 	C 	0.9927	0.6206	0.5037	0.148
Mof_C 	C 	0.0073	0.3794	0.4963	0.148
Mof_C 	C 	0.7211	0.0364	0.0594	-0.256
Mof_C 	C 	0.7794	0.5749	0.1577	0.358
Mof_C 	C 	0.7789	0.4406	0.0364	-0.279
Mof_C 	C 	0.7732	0.0423	0.7993	0.095
Mof_C 	C 	0.5786	0.5561	0.9179	-0.258
Mof_C 	C 	0.9214	0.5821	0.5561	-0.244
Mof_C 	C 	0.5951	0.3433	0.9472	0.11
Mof_C 	C 	0.9214	0.9179	0.9439	-0.235
Mof_C 	C 	0.2268	0.9577	0.2007	0.095
Mof_C 	C 	0.2206	0.0749	0.6577	0.358
Mof_C 	C 	0.7009	0.9801	0.383	-0.206
Mof_C 	C 	0.8405	0.0081	0.4252	0.173
Mof_C 	C 	0.4927	0.0037	0.3794	0.16
Mof_C 	C 	0.8405	0.4919	0.0748	0.174
Mof_N 	N 	0.536	0.7002	0.0799	-0.147
Mof_N 	N 	0.964	0.0799	0.7998	-0.141
Mof_N 	N 	0.7176	0.6593	0.9943	-0.09
Mof_N 	N 	0.2824	0.1593	0.4943	-0.09
Mof_N 	N 	0.036	0.5799	0.2998	-0.141
Mof_N 	N 	0.036	0.9201	0.2002	-0.141
Mof_N 	N 	0.4911	0.132	0.5016	-0.133
Mof_N 	N 	0.7176	0.8407	0.5057	-0.09
Mof_N 	N 	0.964	0.4201	0.7002	-0.141
Mof_N 	N 	0.2176	0.4943	0.3407	-0.089
Mof_N 	N 	0.4911	0.368	0.9984	-0.133
Mof_N 	N 	0.7824	0.9943	0.8407	-0.09
Mof_N 	N 	0.5089	0.632	0.0016	-0.133
Mof_N 	N 	0.0089	0.5016	0.368	-0.127
Mof_N 	N 	0.464	0.2002	0.5799	-0.147
Mof_N 	N 	0.2176	0.0057	0.1593	-0.09
Mof_N 	N 	0.0089	0.9984	0.132	-0.124
Mof_N 	N 	0.2824	0.3407	0.0057	-0.09
Mof_N 	N 	0.464	0.2998	0.9201	-0.147
Mof_N 	N 	0.7824	0.5057	0.6593	-0.089
Mof_N 	N 	0.9911	0.4984	0.632	-0.127
Mof_N 	N 	0.5089	0.868	0.4984	-0.133
Mof_N 	N 	0.9911	0.0016	0.868	-0.124
Mof_N 	N 	0.536	0.7998	0.4201	-0.147
Mof_O 	O 	0.8456	0.2989	0.5956	-0.305
Mof_O 	O 	0.8346	0.7334	0.31242	-0.43
Mof_O 	O 	0.0298	0.4001	0.8552	-0.293
Mof_O 	O 	0.3346	0.68758	0.2334	-0.428
Mof_O 	O 	0.6654	0.18758	0.7334	-0.428
Mof_O 	O 	0.4702	0.6448	0.4001	-0.289
Mof_O 	O 	0.9702	0.5999	0.1448	-0.293
Mof_O 	O 	0.6544	0.9044	0.2989	-0.309
Mof_O 	O 	0.3456	0.0956	0.7011	-0.309
Mof_O 	O 	0.1654	0.2666	0.68758	-0.43
Mof_O 	O 	0.4702	0.8552	0.0999	-0.288
Mof_O 	O 	0.9702	0.9001	0.3552	-0.293
Mof_O 	O 	0.5298	0.1448	0.9001	-0.288
Mof_O 	O 	0.6544	0.5956	0.2011	-0.309
Mof_O 	O 	0.5298	0.3552	0.5999	-0.289
Mof_O 	O 	0.0298	0.0999	0.6448	-0.293
Mof_O 	O 	0.1544	0.7011	0.4044	-0.305
Mof_O 	O 	0.1654	0.2334	0.81242	-0.43
Mof_O 	O 	0.3456	0.4044	0.7989	-0.309
Mof_O 	O 	0.6654	0.31242	0.7666	-0.428
Mof_O 	O 	0.1544	0.7989	0.0956	-0.304
Mof_O 	O 	0.8456	0.2011	0.9044	-0.304
Mof_O 	O 	0.3346	0.81242	0.2666	-0.428
Mof_O 	O 	0.8346	0.7666	0.18758	-0.43
_end
