data_functionalizedCrystal
_audit_creation_method	'EQeq! by Chris Wilmer'
_symmetry_space_group_name_H-M	'P1'
_symmetry_Int_Tables_number	1
_symmetry_cell_setting	triclinic
loop_
_symmetry_equiv_pos_as_xyz
  x,y,z
_cell_length_a	9.841
_cell_length_b	10.226
_cell_length_c	13.404
_cell_angle_alpha	82.02
_cell_angle_beta	86.86
_cell_angle_gamma	65.1
loop_
_atom_site_label
_atom_site_type_symbol
_atom_site_fract_x
_atom_site_fract_y
_atom_site_fract_z
_atom_site_charge
Mof_Yb	Yb	0.33414	0.21872	0.18262	0.766
Mof_Cs	Cs	0.14983	0.5499	0.38392	2.517
Mof_Mo	Mo	0.7444	0.62576	0.23865	1.038
Mof_O 	O 	0.3495	0.4432	0.1842	-0.598
Mof_H 	H 	0.4534	0.4204	0.2009	0.13
Mof_N 	N 	0.9086	0.3374	0.4058	-0.317
Mof_N 	N 	0.7486	0.7409	0.4578	-0.31
Mof_N 	N 	0.4328	0.6099	0.3325	-0.311
Mof_N 	N 	0.4818	0.963	0.2078	-0.217
Mof_N 	N 	0.6772	0.3743	0.1503	-0.119
Mof_N 	N 	0.2938	0.28	0.0073	-0.174
Mof_N 	N 	0.0843	0.4115	0.1723	-0.209
Mof_N 	N 	0.9458	0.8192	0.2016	-0.175
Mof_C 	C 	0.8457	0.4394	0.3493	-0.397
Mof_C 	C 	0.7455	0.7034	0.3817	-0.402
Mof_C 	C 	0.5425	0.6172	0.3043	-0.188
Mof_C 	C 	0.5705	0.8449	0.2174	-0.162
Mof_C 	C 	0.7036	0.4616	0.178	-0.159
Mof_C 	C 	0.2809	0.3121	0.922	-0.119
Mof_C 	C 	0.9644	0.4891	0.1894	-0.264
Mof_C 	C 	0.8733	0.7549	0.2132	-0.321
Mof_C 	C 	0.3035	0.5629	0.1038	0.207
Mof_H 	H 	0.3657	0.5339	0.046	-0.041
Mof_H 	H 	0.3134	0.6441	0.1256	-0.099
Mof_H 	H 	0.2009	0.5905	0.0863	-0.075
Mof_Yb	Yb	0.66586	0.78128	0.81738	0.765
Mof_Cs	Cs	0.85017	0.4501	0.61608	2.516
Mof_Mo	Mo	0.2556	0.37424	0.76135	1.038
Mof_O 	O 	0.6505	0.5568	0.8158	-0.598
Mof_H 	H 	0.5466	0.5796	0.7991	0.13
Mof_N 	N 	0.0914	0.6626	0.5942	-0.317
Mof_N 	N 	0.2514	0.2591	0.5422	-0.31
Mof_N 	N 	0.5672	0.3901	0.6675	-0.311
Mof_N 	N 	0.5182	0.037	0.7922	-0.217
Mof_N 	N 	0.3228	0.6257	0.8497	-0.119
Mof_N 	N 	0.7062	0.72	0.9927	-0.174
Mof_N 	N 	0.9157	0.5885	0.8277	-0.209
Mof_N 	N 	0.0542	0.1808	0.7984	-0.175
Mof_C 	C 	0.1543	0.5606	0.6507	-0.397
Mof_C 	C 	0.2545	0.2966	0.6183	-0.402
Mof_C 	C 	0.4575	0.3828	0.6957	-0.188
Mof_C 	C 	0.4295	0.1551	0.7826	-0.162
Mof_C 	C 	0.2964	0.5384	0.822	-0.159
Mof_C 	C 	0.7191	0.6879	0.078	-0.119
Mof_C 	C 	0.0356	0.5109	0.8106	-0.264
Mof_C 	C 	0.1267	0.2451	0.7868	-0.321
Mof_C 	C 	0.6965	0.4371	0.8962	0.207
Mof_H 	H 	0.6343	0.4661	0.954	-0.041
Mof_H 	H 	0.6866	0.3559	0.8744	-0.099
Mof_H 	H 	0.7991	0.4095	0.9137	-0.075
_end
