data_functionalizedCrystal
_audit_creation_method	'EQeq! by Chris Wilmer'
_symmetry_space_group_name_H-M	'P1'
_symmetry_Int_Tables_number	1
_symmetry_cell_setting	triclinic
loop_
_symmetry_equiv_pos_as_xyz
  x,y,z
_cell_length_a	9.8184
_cell_length_b	11.2962
_cell_length_c	14.5847
_cell_angle_alpha	91.662
_cell_angle_beta	90
_cell_angle_gamma	90
loop_
_atom_site_label
_atom_site_type_symbol
_atom_site_fract_x
_atom_site_fract_y
_atom_site_fract_z
_atom_site_charge
Mof_Mg	Mg	0.5796	0.74355	0.36489	1.48
Mof_Mg	Mg	0.38886	0.75983	0.19074	1.483
Mof_Mg	Mg	0.0796	0.75645	0.13511	1.464
Mof_Mg	Mg	0.88886	0.74017	0.30926	1.487
Mof_Mg	Mg	0.4204	0.25645	0.63511	1.478
Mof_Mg	Mg	0.61114	0.24017	0.80926	1.481
Mof_Mg	Mg	0.9204	0.24355	0.86489	1.492
Mof_Mg	Mg	0.11114	0.25983	0.69074	1.475
Mof_Mg	Mg	0.5	0	0.5	1.474
Mof_Mg	Mg	-0	0.5	-0	1.452
Mof_Mg	Mg	0.5	0.5	0.5	1.482
Mof_Mg	Mg	-0	0	-0	1.444
Mof_H 	H 	0.455	0.0233	0.2381	-0.326
Mof_H 	H 	0.8812	0.9464	0.4511	-0.044
Mof_H 	H 	0.7951	0.5058	0.483	-0.089
Mof_H 	H 	0.741	0.6393	0.1307	-0.164
Mof_H 	H 	0.3426	0.8047	0.57	-0.109
Mof_H 	H 	0.2999	0.5224	0.2727	-0.173
Mof_H 	H 	0.955	0.4767	0.2619	-0.1
Mof_H 	H 	0.3812	0.5536	0.0489	-0.168
Mof_H 	H 	0.2951	0.9942	0.017	-0.144
Mof_H 	H 	0.241	0.8607	0.3693	-0.129
Mof_H 	H 	0.8426	0.6953	0.93	-0.132
Mof_H 	H 	0.7999	0.9776	0.2273	-0.159
Mof_H 	H 	0.545	0.9767	0.7619	0.069
Mof_H 	H 	0.1188	0.0536	0.5489	-0.199
Mof_H 	H 	0.2049	0.4942	0.517	-0.146
Mof_H 	H 	0.259	0.3607	0.8693	-0.095
Mof_H 	H 	0.6574	0.1953	0.43	-0.132
Mof_H 	H 	0.7001	0.4776	0.7273	-0.114
Mof_H 	H 	0.045	0.5233	0.7381	-0.152
Mof_H 	H 	0.6188	0.4464	0.9511	-0.074
Mof_H 	H 	0.7049	0.0058	0.983	-0.09
Mof_H 	H 	0.759	0.1393	0.6307	-0.135
Mof_H 	H 	0.1574	0.3047	0.07	-0.097
Mof_H 	H 	0.2001	0.0224	0.7727	-0.118
Mof_C 	C 	0.4795	0.9806	0.2908	0.943
Mof_C 	C 	0.7874	0.9266	0.44545	0.545
Mof_C 	C 	0.7761	0.5687	0.44308	0.538
Mof_C 	C 	0.6707	0.6703	0.16921	0.568
Mof_C 	C 	0.4002	0.7593	0.53025	0.557
Mof_C 	C 	0.3648	0.5499	0.31667	0.58
Mof_C 	C 	0.9795	0.5194	0.2092	0.565
Mof_C 	C 	0.2874	0.5734	0.05455	0.592
Mof_C 	C 	0.2761	0.9313	0.05692	0.577
Mof_C 	C 	0.1707	0.8297	0.33079	0.573
Mof_C 	C 	0.9002	0.7407	0.96975	0.765
Mof_C 	C 	0.8648	0.9501	0.18333	0.722
Mof_C 	C 	0.5205	0.0194	0.7092	0.217
Mof_C 	C 	0.2126	0.0734	0.55455	0.592
Mof_C 	C 	0.2239	0.4313	0.55692	0.571
Mof_C 	C 	0.3293	0.3297	0.83079	0.551
Mof_C 	C 	0.5998	0.2407	0.46975	0.573
Mof_C 	C 	0.6352	0.4501	0.68333	0.575
Mof_C 	C 	0.0205	0.4806	0.7908	0.588
Mof_C 	C 	0.7126	0.4266	0.94545	0.544
Mof_C 	C 	0.7239	0.0687	0.94308	0.53
Mof_C 	C 	0.8293	0.1703	0.66921	0.546
Mof_C 	C 	0.0998	0.2593	0.03025	0.307
Mof_C 	C 	0.1352	0.0499	0.81667	0.41
Mof_O 	O 	0.49366	0.86918	0.2808	-0.762
Mof_O 	O 	0.49487	0.03784	0.36337	-0.69
Mof_O 	O 	0.75614	0.84407	0.38748	-0.637
Mof_O 	O 	0.70692	0.98293	0.49466	-0.436
Mof_O 	O 	0.6521	0.60075	0.43644	-0.654
Mof_O 	O 	0.87386	0.61173	0.40264	-0.459
Mof_O 	O 	0.70071	0.69184	0.25297	-0.673
Mof_O 	O 	0.55777	0.6861	0.13357	-0.536
Mof_O 	O 	0.47437	0.81606	0.47474	-0.644
Mof_O 	O 	0.39675	0.65071	0.53694	-0.513
Mof_O 	O 	0.41886	0.65031	0.30378	-0.677
Mof_O 	O 	0.38926	0.48488	0.38133	-0.528
Mof_O 	O 	0.99366	0.63082	0.2192	-0.61
Mof_O 	O 	0.99487	0.46216	0.13663	-0.46
Mof_O 	O 	0.25614	0.65593	0.11252	-0.727
Mof_O 	O 	0.20692	0.51707	0.00534	-0.627
Mof_O 	O 	0.1521	0.89925	0.06356	-0.747
Mof_O 	O 	0.37386	0.88827	0.09736	-0.524
Mof_O 	O 	0.20071	0.80816	0.24703	-0.706
Mof_O 	O 	0.05777	0.8139	0.36643	-0.594
Mof_O 	O 	0.97437	0.68394	0.02526	-0.732
Mof_O 	O 	0.89675	0.84929	0.96306	-0.426
Mof_O 	O 	0.91886	0.84969	0.19622	-0.656
Mof_O 	O 	0.88926	0.01512	0.11867	-0.612
Mof_O 	O 	0.50634	0.13082	0.7192	-0.597
Mof_O 	O 	0.50513	0.96216	0.63663	-0.329
Mof_O 	O 	0.24386	0.15593	0.61252	-0.707
Mof_O 	O 	0.29308	0.01707	0.50534	-0.575
Mof_O 	O 	0.3479	0.39925	0.56356	-0.673
Mof_O 	O 	0.12614	0.38827	0.59736	-0.563
Mof_O 	O 	0.29929	0.30816	0.74703	-0.669
Mof_O 	O 	0.44223	0.3139	0.86643	-0.478
Mof_O 	O 	0.52563	0.18394	0.52526	-0.681
Mof_O 	O 	0.60325	0.34929	0.46306	-0.517
Mof_O 	O 	0.58114	0.34969	0.69622	-0.67
Mof_O 	O 	0.61074	0.51512	0.61867	-0.493
Mof_O 	O 	0.00634	0.36918	0.7808	-0.741
Mof_O 	O 	0.00513	0.53784	0.86337	-0.537
Mof_O 	O 	0.74386	0.34407	0.88748	-0.622
Mof_O 	O 	0.79308	0.48293	0.99466	-0.389
Mof_O 	O 	0.8479	0.10075	0.93644	-0.578
Mof_O 	O 	0.62614	0.11173	0.90264	-0.498
Mof_O 	O 	0.79929	0.19184	0.75297	-0.641
Mof_O 	O 	0.94223	0.1861	0.63357	-0.425
Mof_O 	O 	0.02563	0.31606	0.97474	-0.548
Mof_O 	O 	0.10325	0.15071	0.03694	-0.591
Mof_O 	O 	0.08114	0.15031	0.80378	-0.679
Mof_O 	O 	0.11074	0.98488	0.88133	-0.37
_end
