data_functionalizedCrystal
_audit_creation_method	'EQeq! by Chris Wilmer'
_symmetry_space_group_name_H-M	'P1'
_symmetry_Int_Tables_number	1
_symmetry_cell_setting	triclinic
loop_
_symmetry_equiv_pos_as_xyz
  x,y,z
_cell_length_a	16.1703
_cell_length_b	15.1042
_cell_length_c	7.9858
_cell_angle_alpha	90
_cell_angle_beta	92.845
_cell_angle_gamma	90
loop_
_atom_site_label
_atom_site_type_symbol
_atom_site_fract_x
_atom_site_fract_y
_atom_site_fract_z
_atom_site_charge
Mof_Sm	Sm	0.95247	0.88364	0.04772	2.364
Mof_Ag	Ag	0.47193	0.76177	0.60049	0.452
Mof_C 	C 	0.8319	0.7491	0.2966	0.505
Mof_C 	C 	0.7476	0.7499	0.3658	-0.167
Mof_C 	C 	0.708	0.829	0.3907	-0.001
Mof_H 	H 	0.7332	0.8822	0.3639	0.016
Mof_C 	C 	0.6304	0.829	0.4558	-0.009
Mof_H 	H 	0.6042	0.8829	0.4726	-0.007
Mof_C 	C 	0.6303	0.6778	0.4692	-0.008
Mof_H 	H 	0.6037	0.6253	0.4948	-0.005
Mof_C 	C 	0.7077	0.673	0.4062	0.012
Mof_H 	H 	0.7328	0.6184	0.3911	0
Mof_C 	C 	0.8665	0.0831	0.1375	0.5
Mof_C 	C 	0.7883	0.1243	0.194	-0.144
Mof_C 	C 	0.7177	0.0739	0.2021	-0.019
Mof_H 	H 	0.7186	0.0143	0.1728	0.029
Mof_C 	C 	0.6466	0.1114	0.2534	-0.007
Mof_H 	H 	0.5991	0.0767	0.2566	-0.011
Mof_C 	C 	0.7115	0.2455	0.2903	0.003
Mof_H 	H 	0.7096	0.3048	0.3216	-0.001
Mof_C 	C 	0.7843	0.2127	0.2376	-0.013
Mof_H 	H 	0.8304	0.249	0.231	0.021
Mof_O 	O 	0.8543	0.81567	0.2172	-0.6
Mof_O 	O 	0.8765	0.6813	0.322	-0.628
Mof_O 	O 	0.8699	0.0005	0.1391	-0.574
Mof_O 	O 	0.9236	0.1345	0.0941	-0.597
Mof_O 	O 	0.9496	0.99873	0.8377	-0.73
Mof_O 	O 	0.9636	0.1151	0.6844	-0.574
Mof_N 	N 	0.5915	0.754	0.4955	-0.186
Mof_N 	N 	0.6427	0.197	0.2995	-0.191
Mof_C 	C 	0.9284	0.0421	0.7094	0.568
Mof_C 	C 	0.8691	0.0029	0.577	-0.183
Mof_H 	H 	0.838	0.0496	0.5221	0.06
Mof_H 	H 	0.8318	0.9631	0.6293	-0.313
Mof_H 	H 	0.8997	0.9712	0.4966	-0.005
Mof_C 	C 	0.8508	0.0157	0.608	-0.404
Mof_H 	H 	0.8496	0.9525	0.5953	0.505
Mof_H 	H 	0.8506	0.0432	0.5	0.124
Mof_H 	H 	0.8031	0.0345	0.6656	0.169
Mof_Sm	Sm	0.04753	0.38364	0.45228	2.442
Mof_Ag	Ag	0.52807	0.26177	0.89951	0.45
Mof_C 	C 	0.1681	0.2491	0.2034	0.507
Mof_C 	C 	0.2524	0.2499	0.1342	-0.16
Mof_C 	C 	0.292	0.329	0.1093	-0.002
Mof_H 	H 	0.2668	0.3822	0.1361	0.021
Mof_C 	C 	0.3696	0.329	0.0442	-0.005
Mof_H 	H 	0.3958	0.3829	0.0274	-0.008
Mof_C 	C 	0.3697	0.1778	0.0308	-0.004
Mof_H 	H 	0.3963	0.1253	0.0052	-0.005
Mof_C 	C 	0.2923	0.173	0.0938	0.009
Mof_H 	H 	0.2672	0.1184	0.1089	0.005
Mof_C 	C 	0.1335	0.5831	0.3625	0.507
Mof_C 	C 	0.2117	0.6243	0.306	-0.149
Mof_C 	C 	0.2823	0.5739	0.2979	-0.016
Mof_H 	H 	0.2814	0.5143	0.3272	0.026
Mof_C 	C 	0.3534	0.6114	0.2466	-0.01
Mof_H 	H 	0.4009	0.5767	0.2434	-0.011
Mof_C 	C 	0.2885	0.7455	0.2097	0.001
Mof_H 	H 	0.2904	0.8048	0.1784	-0.002
Mof_C 	C 	0.2157	0.7127	0.2624	-0.011
Mof_H 	H 	0.1696	0.749	0.269	0.019
Mof_O 	O 	0.1457	0.31567	0.2828	-0.602
Mof_O 	O 	0.1235	0.1813	0.178	-0.621
Mof_O 	O 	0.1301	0.5005	0.3609	-0.591
Mof_O 	O 	0.0764	0.6345	0.4059	-0.607
Mof_O 	O 	0.0504	0.49873	0.6623	-0.745
Mof_O 	O 	0.0364	0.6151	0.8156	-0.583
Mof_N 	N 	0.4085	0.254	0.0045	-0.187
Mof_N 	N 	0.3573	0.697	0.2005	-0.189
Mof_C 	C 	0.0716	0.5421	0.7906	0.572
Mof_C 	C 	0.1309	0.5029	0.923	-0.198
Mof_H 	H 	0.162	0.5496	0.9779	0.047
Mof_H 	H 	0.1682	0.4631	0.8707	-0.25
Mof_H 	H 	0.1003	0.4712	0.0034	0.011
Mof_C 	C 	0.1492	0.5157	0.892	-0.403
Mof_H 	H 	0.1504	0.4525	0.9047	0.449
Mof_H 	H 	0.1494	0.5432	-0	0.14
Mof_H 	H 	0.1969	0.5345	0.8344	0.163
Mof_Sm	Sm	0.04753	0.11636	0.95228	2.395
Mof_Ag	Ag	0.52807	0.23823	0.39951	0.449
Mof_C 	C 	0.1681	0.2509	0.7034	0.507
Mof_C 	C 	0.2524	0.2501	0.6342	-0.164
Mof_C 	C 	0.292	0.171	0.6093	-0
Mof_H 	H 	0.2668	0.1178	0.6361	0.018
Mof_C 	C 	0.3696	0.171	0.5442	-0.007
Mof_H 	H 	0.3958	0.1171	0.5274	-0.007
Mof_C 	C 	0.3697	0.3222	0.5308	-0.006
Mof_H 	H 	0.3963	0.3747	0.5052	-0.005
Mof_C 	C 	0.2923	0.327	0.5938	0.011
Mof_H 	H 	0.2672	0.3816	0.6089	0.004
Mof_C 	C 	0.1335	0.9169	0.8625	0.5
Mof_C 	C 	0.2117	0.8757	0.806	-0.142
Mof_C 	C 	0.2823	0.9261	0.7979	-0.019
Mof_H 	H 	0.2814	0.9857	0.8272	0.031
Mof_C 	C 	0.3534	0.8886	0.7466	-0.005
Mof_H 	H 	0.4009	0.9233	0.7434	-0.011
Mof_C 	C 	0.2885	0.7545	0.7097	0.005
Mof_H 	H 	0.2904	0.6952	0.6784	-0
Mof_C 	C 	0.2157	0.7873	0.7624	-0.014
Mof_H 	H 	0.1696	0.751	0.769	0.022
Mof_O 	O 	0.1457	0.18433	0.7828	-0.601
Mof_O 	O 	0.1235	0.3187	0.678	-0.627
Mof_O 	O 	0.1301	0.9995	0.8609	-0.575
Mof_O 	O 	0.0764	0.8655	0.9059	-0.589
Mof_O 	O 	0.0504	0.00127	0.1623	-0.736
Mof_O 	O 	0.0364	0.8849	0.3156	-0.574
Mof_N 	N 	0.4085	0.246	0.5045	-0.187
Mof_N 	N 	0.3573	0.803	0.7005	-0.19
Mof_C 	C 	0.0716	0.9579	0.2906	0.569
Mof_C 	C 	0.1309	0.9971	0.423	-0.182
Mof_H 	H 	0.162	0.9504	0.4779	0.06
Mof_H 	H 	0.1682	0.0369	0.3707	-0.314
Mof_H 	H 	0.1003	0.0288	0.5034	-0.006
Mof_C 	C 	0.1492	0.9843	0.392	-0.405
Mof_H 	H 	0.1504	0.0475	0.4047	0.507
Mof_H 	H 	0.1494	0.9568	0.5	0.125
Mof_H 	H 	0.1969	0.9655	0.3344	0.168
Mof_Sm	Sm	0.95247	0.61636	0.54772	2.447
Mof_Ag	Ag	0.47193	0.73823	0.10049	0.43
Mof_C 	C 	0.8319	0.7509	0.7966	0.506
Mof_C 	C 	0.7476	0.7501	0.8658	-0.157
Mof_C 	C 	0.708	0.671	0.8907	-0.002
Mof_H 	H 	0.7332	0.6178	0.8639	0.024
Mof_C 	C 	0.6304	0.671	0.9558	-0.003
Mof_H 	H 	0.6042	0.6171	0.9726	-0.005
Mof_C 	C 	0.6303	0.8222	0.9692	-0.002
Mof_H 	H 	0.6037	0.8747	0.9948	-0.001
Mof_C 	C 	0.7077	0.827	0.9062	0.01
Mof_H 	H 	0.7328	0.8816	0.8911	0.008
Mof_C 	C 	0.8665	0.4169	0.6375	0.507
Mof_C 	C 	0.7883	0.3757	0.694	-0.148
Mof_C 	C 	0.7177	0.4261	0.7021	-0.016
Mof_H 	H 	0.7186	0.4857	0.6728	0.026
Mof_C 	C 	0.6466	0.3886	0.7534	-0.009
Mof_H 	H 	0.5991	0.4233	0.7566	-0.011
Mof_C 	C 	0.7115	0.2545	0.7903	0.002
Mof_H 	H 	0.7096	0.1952	0.8216	-0
Mof_C 	C 	0.7843	0.2873	0.7376	-0.01
Mof_H 	H 	0.8304	0.251	0.731	0.021
Mof_O 	O 	0.8543	0.68433	0.7172	-0.6
Mof_O 	O 	0.8765	0.8187	0.822	-0.613
Mof_O 	O 	0.8699	0.4995	0.6391	-0.591
Mof_O 	O 	0.9236	0.3655	0.5941	-0.605
Mof_O 	O 	0.9496	0.50127	0.3377	-0.745
Mof_O 	O 	0.9636	0.3849	0.1844	-0.585
Mof_N 	N 	0.5915	0.746	0.9955	-0.182
Mof_N 	N 	0.6427	0.303	0.7995	-0.19
Mof_C 	C 	0.9284	0.4579	0.2094	0.571
Mof_C 	C 	0.8691	0.4971	0.077	-0.245
Mof_H 	H 	0.838	0.4504	0.0221	0.063
Mof_H 	H 	0.8318	0.5369	0.1293	-0.067
Mof_H 	H 	0.8997	0.5288	0.9966	0.059
Mof_C 	C 	0.8508	0.4843	0.108	-0.361
Mof_H 	H 	0.8496	0.5475	0.0953	0.262
Mof_H 	H 	0.8506	0.4568	-0	0.121
Mof_H 	H 	0.8031	0.4655	0.1656	0.125
_end
