data_functionalizedCrystal
_audit_creation_method	'EQeq! by Chris Wilmer'
_symmetry_space_group_name_H-M	'P1'
_symmetry_Int_Tables_number	1
_symmetry_cell_setting	triclinic
loop_
_symmetry_equiv_pos_as_xyz
  x,y,z
_cell_length_a	39.2929
_cell_length_b	39.2929
_cell_length_c	39.2929
_cell_angle_alpha	60
_cell_angle_beta	60
_cell_angle_gamma	60
loop_
_atom_site_label
_atom_site_type_symbol
_atom_site_fract_x
_atom_site_fract_y
_atom_site_fract_z
_atom_site_charge
Mof_Zr	Zr	0.33088	0.95016	0.85948	3.172
Mof_Zr	Zr	0.8001	0.891	0.891	3.169
Mof_Zr	Zr	0.891	0.891	0.4179	3.169
Mof_Zr	Zr	0.891	0.4179	0.8001	3.168
Mof_Zr	Zr	0.891	0.8001	0.4179	3.168
Mof_Zr	Zr	0.33088	0.85948	0.85948	3.171
Mof_Zr	Zr	0.4179	0.8001	0.891	3.168
Mof_Zr	Zr	0.891	0.891	0.8001	3.168
Mof_Zr	Zr	0.891	0.4179	0.891	3.168
Mof_Zr	Zr	0.4179	0.891	0.891	3.168
Mof_Zr	Zr	0.85948	0.85948	0.33088	3.171
Mof_Zr	Zr	0.85948	0.33088	0.85948	3.171
Mof_Zr	Zr	0.85948	0.33088	0.95016	3.171
Mof_Zr	Zr	0.891	0.8001	0.891	3.168
Mof_Zr	Zr	0.85948	0.95016	0.85948	3.171
Mof_Zr	Zr	0.85948	0.95016	0.33088	3.171
Mof_Zr	Zr	0.95016	0.33088	0.85948	3.171
Mof_Zr	Zr	0.4179	0.891	0.8001	3.168
Mof_Zr	Zr	0.95016	0.85948	0.33088	3.171
Mof_Zr	Zr	0.8001	0.891	0.4179	3.168
Mof_Zr	Zr	0.33088	0.85948	0.95016	3.171
Mof_Zr	Zr	0.95016	0.85948	0.85948	3.171
Mof_Zr	Zr	0.8001	0.4179	0.891	3.168
Mof_Zr	Zr	0.85948	0.85948	0.95016	3.171
Mof_H 	H 	0.60317	0.68021	0.92595	0.028
Mof_H 	H 	0.95818	0.82844	0.14474	0.028
Mof_H 	H 	0.53518	0.82948	0.91632	-0.017
Mof_H 	H 	0.02983	0.21273	0.91937	-0.017
Mof_H 	H 	0.68021	0.79067	0.60317	0.028
Mof_H 	H 	0.82844	0.95818	0.06864	0.029
Mof_H 	H 	0.83807	0.21273	0.02983	-0.017
Mof_H 	H 	0.21273	0.83807	0.02983	-0.017
Mof_H 	H 	0.91632	0.71902	0.82948	-0.017
Mof_H 	H 	0.71902	0.53518	0.91632	-0.017
Mof_H 	H 	0.71902	0.53518	0.82948	-0.017
Mof_H 	H 	0.82948	0.91632	0.53518	-0.017
Mof_H 	H 	0.14474	0.06864	0.82844	0.028
Mof_H 	H 	0.82844	0.06864	0.95818	0.029
Mof_H 	H 	0.21273	0.02983	0.83807	-0.017
Mof_H 	H 	0.92595	0.68021	0.79067	0.028
Mof_H 	H 	0.92595	0.79067	0.68021	0.028
Mof_H 	H 	0.91937	0.83807	0.02983	-0.018
Mof_H 	H 	0.95818	0.06864	0.14474	0.029
Mof_H 	H 	0.14474	0.82844	0.06864	0.028
Mof_H 	H 	0.91632	0.53518	0.71902	-0.017
Mof_H 	H 	0.91632	0.71902	0.53518	-0.017
Mof_H 	H 	0.91632	0.82948	0.71902	-0.017
Mof_H 	H 	0.68021	0.60317	0.79067	0.028
Mof_H 	H 	0.21273	0.91937	0.02983	-0.017
Mof_H 	H 	0.91632	0.53518	0.82948	-0.017
Mof_H 	H 	0.53518	0.71902	0.91632	-0.017
Mof_H 	H 	0.06864	0.95818	0.82844	0.029
Mof_H 	H 	0.92595	0.68021	0.60317	0.028
Mof_H 	H 	0.68021	0.79067	0.92595	0.028
Mof_H 	H 	0.60317	0.92595	0.79067	0.028
Mof_H 	H 	0.14474	0.95818	0.82844	0.028
Mof_H 	H 	0.14474	0.95818	0.06864	0.029
Mof_H 	H 	0.02983	0.83807	0.91937	-0.018
Mof_H 	H 	0.91937	0.02983	0.21273	-0.017
Mof_H 	H 	0.71902	0.82948	0.91632	-0.017
Mof_H 	H 	0.83807	0.21273	0.91937	-0.017
Mof_H 	H 	0.95818	0.14474	0.06864	0.029
Mof_H 	H 	0.83807	0.02983	0.91937	-0.018
Mof_H 	H 	0.53518	0.91632	0.71902	-0.017
Mof_H 	H 	0.83807	0.91937	0.02983	-0.018
Mof_H 	H 	0.53518	0.71902	0.82948	-0.017
Mof_H 	H 	0.68021	0.92595	0.60317	0.028
Mof_H 	H 	0.91937	0.21273	0.83807	-0.017
Mof_H 	H 	0.79067	0.60317	0.92595	0.028
Mof_H 	H 	0.79067	0.92595	0.68021	0.028
Mof_H 	H 	0.95818	0.14474	0.82844	0.028
Mof_H 	H 	0.92595	0.60317	0.68021	0.028
Mof_H 	H 	0.53518	0.91632	0.82948	-0.017
Mof_H 	H 	0.71902	0.91632	0.53518	-0.017
Mof_H 	H 	0.82948	0.53518	0.71902	-0.017
Mof_H 	H 	0.21273	0.83807	0.91937	-0.017
Mof_H 	H 	0.91632	0.82948	0.53518	-0.017
Mof_H 	H 	0.95818	0.82844	0.06864	0.029
Mof_H 	H 	0.68021	0.92595	0.79067	0.028
Mof_H 	H 	0.60317	0.92595	0.68021	0.028
Mof_H 	H 	0.82948	0.91632	0.71902	-0.017
Mof_H 	H 	0.92595	0.79067	0.60317	0.028
Mof_H 	H 	0.95818	0.06864	0.82844	0.029
Mof_H 	H 	0.02983	0.91937	0.21273	-0.017
Mof_H 	H 	0.82844	0.06864	0.14474	0.028
Mof_H 	H 	0.79067	0.60317	0.68021	0.028
Mof_H 	H 	0.82844	0.95818	0.14474	0.028
Mof_H 	H 	0.06864	0.82844	0.95818	0.029
Mof_H 	H 	0.79067	0.92595	0.60317	0.028
Mof_H 	H 	0.83807	0.02983	0.21273	-0.017
Mof_H 	H 	0.71902	0.91632	0.82948	-0.017
Mof_H 	H 	0.79067	0.68021	0.60317	0.028
Mof_H 	H 	0.91937	0.83807	0.21273	-0.017
Mof_H 	H 	0.14474	0.06864	0.95818	0.029
Mof_H 	H 	0.91937	0.21273	0.02983	-0.017
Mof_H 	H 	0.02983	0.83807	0.21273	-0.017
Mof_H 	H 	0.02983	0.91937	0.83807	-0.018
Mof_H 	H 	0.60317	0.79067	0.68021	0.028
Mof_H 	H 	0.92595	0.60317	0.79067	0.028
Mof_H 	H 	0.91937	0.02983	0.83807	-0.018
Mof_H 	H 	0.21273	0.91937	0.83807	-0.017
Mof_H 	H 	0.06864	0.14474	0.82844	0.028
Mof_H 	H 	0.06864	0.82844	0.14474	0.028
Mof_H 	H 	0.82948	0.71902	0.53518	-0.017
Mof_H 	H 	0.79067	0.68021	0.92595	0.028
Mof_H 	H 	0.06864	0.95818	0.14474	0.029
Mof_H 	H 	0.71902	0.82948	0.53518	-0.017
Mof_H 	H 	0.53518	0.82948	0.71902	-0.017
Mof_H 	H 	0.82948	0.53518	0.91632	-0.017
Mof_H 	H 	0.83807	0.91937	0.21273	-0.017
Mof_H 	H 	0.68021	0.60317	0.92595	0.028
Mof_H 	H 	0.06864	0.14474	0.95818	0.029
Mof_H 	H 	0.60317	0.79067	0.92595	0.028
Mof_H 	H 	0.82844	0.14474	0.06864	0.028
Mof_H 	H 	0.82948	0.71902	0.91632	-0.017
Mof_H 	H 	0.14474	0.82844	0.95818	0.028
Mof_H 	H 	0.60317	0.68021	0.79067	0.028
Mof_H 	H 	0.02983	0.21273	0.83807	-0.017
Mof_H 	H 	0.21273	0.02983	0.91937	-0.017
Mof_H 	H 	0.82844	0.14474	0.95818	0.028
Mof_C 	C 	0.91882	0.7968	0.73494	0.04
Mof_C 	C 	0.82794	0.0165	0.0165	0.002
Mof_C 	C 	0.97139	0.83899	0.21823	-0.198
Mof_C 	C 	0.82794	0.13906	0.0165	-0.003
Mof_C 	C 	0.94676	0.94676	0.84862	0.532
Mof_C 	C 	0.71267	0.92429	0.58853	-0.082
Mof_C 	C 	0.9154	0.52968	0.77746	-0.196
Mof_C 	C 	0.97434	0.03618	0.15938	-0.087
Mof_C 	C 	0.70965	0.92899	0.65171	0.113
Mof_C 	C 	0.73235	0.60885	0.92645	-0.004
Mof_C 	C 	0.54944	0.73494	0.91882	0.04
Mof_C 	C 	0.83557	0.95205	0.01391	0.047
Mof_C 	C 	0.49005	0.80209	0.80209	0.53
Mof_C 	C 	0.97434	0.03618	0.8301	-0.088
Mof_C 	C 	0.7968	0.54944	0.73494	0.04
Mof_C 	C 	0.01391	0.83557	0.19847	0.044
Mof_C 	C 	0.8254	0.0392	0.0962	0.123
Mof_C 	C 	0.19847	0.01391	0.83557	0.044
Mof_C 	C 	0.77746	0.77746	0.9154	-0.196
Mof_C 	C 	0.58853	0.92429	0.77451	-0.082
Mof_C 	C 	0.01391	0.19847	0.83557	0.044
Mof_C 	C 	0.97139	0.21823	0.83899	-0.198
Mof_C 	C 	0.19847	0.95205	0.83557	0.041
Mof_C 	C 	0.92429	0.71267	0.58853	-0.082
Mof_C 	C 	0.97139	0.83899	0.97139	-0.203
Mof_C 	C 	0.91882	0.73494	0.54944	0.04
Mof_C 	C 	0.71267	0.77451	0.92429	-0.082
Mof_C 	C 	0.15938	0.97434	0.8301	-0.085
Mof_C 	C 	0.71267	0.77451	0.58853	-0.082
Mof_C 	C 	0.73235	0.73235	0.92645	-0.004
Mof_C 	C 	0.82794	0.0165	0.13906	-0.003
Mof_C 	C 	0.19847	0.83557	0.01391	0.044
Mof_C 	C 	0.73494	0.7968	0.54944	0.04
Mof_C 	C 	0.95205	0.83557	0.19847	0.041
Mof_C 	C 	0.0392	0.0962	0.8254	0.123
Mof_C 	C 	0.65171	0.70965	0.70965	0.113
Mof_C 	C 	0.03618	0.8301	0.15938	-0.082
Mof_C 	C 	0.97434	0.8301	0.15938	-0.085
Mof_C 	C 	0.80209	0.80209	0.49005	0.53
Mof_C 	C 	0.73494	0.91882	0.7968	0.04
Mof_C 	C 	0.91882	0.73494	0.7968	0.04
Mof_C 	C 	0.90577	0.80209	0.49005	0.53
Mof_C 	C 	0.73494	0.54944	0.7968	0.04
Mof_C 	C 	0.25786	0.94676	0.94676	0.532
Mof_C 	C 	0.58853	0.77451	0.71267	-0.082
Mof_C 	C 	0.8254	0.0962	0.0392	0.123
Mof_C 	C 	0.8301	0.15938	0.97434	-0.085
Mof_C 	C 	0.13906	0.0165	0.0165	0.001
Mof_C 	C 	0.21823	0.97139	0.83899	-0.198
Mof_C 	C 	0.54944	0.7968	0.91882	0.04
Mof_C 	C 	0.15938	0.8301	0.03618	-0.082
Mof_C 	C 	0.77451	0.58853	0.92429	-0.082
Mof_C 	C 	0.97434	0.15938	0.8301	-0.085
Mof_C 	C 	0.03618	0.15938	0.97434	-0.087
Mof_C 	C 	0.60885	0.73235	0.92645	-0.004
Mof_C 	C 	0.52968	0.77746	0.9154	-0.196
Mof_C 	C 	0.97434	0.15938	0.03618	-0.087
Mof_C 	C 	0.52968	0.9154	0.77746	-0.196
Mof_C 	C 	0.92429	0.58853	0.77451	-0.082
Mof_C 	C 	0.0165	0.13906	0.0165	0.001
Mof_C 	C 	0.8254	0.0392	0.0392	0.122
Mof_C 	C 	0.95205	0.01391	0.19847	0.046
Mof_C 	C 	0.21823	0.97139	0.97139	-0.202
Mof_C 	C 	0.7968	0.73494	0.91882	0.04
Mof_C 	C 	0.49005	0.80209	0.90577	0.53
Mof_C 	C 	0.80209	0.90577	0.49005	0.53
Mof_C 	C 	0.83557	0.01391	0.95205	0.047
Mof_C 	C 	0.58853	0.92429	0.71267	-0.082
Mof_C 	C 	0.54944	0.91882	0.7968	0.04
Mof_C 	C 	0.83557	0.01391	0.19847	0.044
Mof_C 	C 	0.92645	0.60885	0.73235	-0.004
Mof_C 	C 	0.83899	0.97139	0.21823	-0.198
Mof_C 	C 	0.77451	0.71267	0.92429	-0.082
Mof_C 	C 	0.15938	0.03618	0.8301	-0.082
Mof_C 	C 	0.94676	0.84862	0.25786	0.531
Mof_C 	C 	0.80209	0.49005	0.80209	0.53
Mof_C 	C 	0.80209	0.80209	0.90577	0.53
Mof_C 	C 	0.03618	0.8301	0.97434	-0.088
Mof_C 	C 	0.7968	0.91882	0.54944	0.04
Mof_C 	C 	0.54944	0.91882	0.73494	0.04
Mof_C 	C 	0.83899	0.97139	0.97139	-0.203
Mof_C 	C 	0.0165	0.0165	0.13906	0.001
Mof_C 	C 	0.8301	0.03618	0.15938	-0.082
Mof_C 	C 	0.73235	0.92645	0.73235	-0.004
Mof_C 	C 	0.7968	0.54944	0.91882	0.04
Mof_C 	C 	0.01391	0.83557	0.95205	0.047
Mof_C 	C 	0.65171	0.70965	0.92899	0.113
Mof_C 	C 	0.92429	0.58853	0.71267	-0.082
Mof_C 	C 	0.70965	0.65171	0.70965	0.113
Mof_C 	C 	0.7968	0.91882	0.73494	0.04
Mof_C 	C 	0.71267	0.58853	0.77451	-0.082
Mof_C 	C 	0.97139	0.97139	0.21823	-0.202
Mof_C 	C 	0.60885	0.73235	0.73235	-0.004
Mof_C 	C 	0.0165	0.82794	0.0165	0.002
Mof_C 	C 	0.77746	0.52968	0.77746	-0.196
Mof_C 	C 	0.0165	0.0165	0.82794	0.002
Mof_C 	C 	0.70965	0.65171	0.92899	0.113
Mof_C 	C 	0.8301	0.97434	0.03618	-0.088
Mof_C 	C 	0.0962	0.0392	0.8254	0.123
Mof_C 	C 	0.84862	0.94676	0.94676	0.532
Mof_C 	C 	0.77451	0.58853	0.71267	-0.082
Mof_C 	C 	0.90577	0.49005	0.80209	0.53
Mof_C 	C 	0.13906	0.0165	0.82794	-0.003
Mof_C 	C 	0.77451	0.92429	0.71267	-0.082
Mof_C 	C 	0.19847	0.01391	0.95205	0.046
Mof_C 	C 	0.92899	0.70965	0.65171	0.113
Mof_C 	C 	0.84862	0.94676	0.25786	0.531
Mof_C 	C 	0.65171	0.92899	0.70965	0.113
Mof_C 	C 	0.9154	0.77746	0.77746	-0.196
Mof_C 	C 	0.80209	0.90577	0.80209	0.53
Mof_C 	C 	0.73235	0.92645	0.60885	-0.004
Mof_C 	C 	0.58853	0.71267	0.92429	-0.082
Mof_C 	C 	0.01391	0.95205	0.19847	0.046
Mof_C 	C 	0.0165	0.13906	0.82794	-0.003
Mof_C 	C 	0.0392	0.0392	0.8254	0.122
Mof_C 	C 	0.25786	0.84862	0.94676	0.531
Mof_C 	C 	0.77451	0.92429	0.58853	-0.082
Mof_C 	C 	0.92899	0.70965	0.70965	0.113
Mof_C 	C 	0.83557	0.95205	0.19847	0.041
Mof_C 	C 	0.01391	0.19847	0.95205	0.046
Mof_C 	C 	0.73494	0.91882	0.54944	0.04
Mof_C 	C 	0.92899	0.65171	0.70965	0.113
Mof_C 	C 	0.49005	0.90577	0.80209	0.53
Mof_C 	C 	0.83557	0.19847	0.95205	0.041
Mof_C 	C 	0.60885	0.92645	0.73235	-0.004
Mof_C 	C 	0.03618	0.15938	0.8301	-0.082
Mof_C 	C 	0.19847	0.83557	0.95205	0.041
Mof_C 	C 	0.83899	0.21823	0.97139	-0.198
Mof_C 	C 	0.94676	0.84862	0.94676	0.532
Mof_C 	C 	0.92645	0.73235	0.60885	-0.004
Mof_C 	C 	0.0962	0.0392	0.0392	0.122
Mof_C 	C 	0.95205	0.83557	0.01391	0.047
Mof_C 	C 	0.77451	0.71267	0.58853	-0.082
Mof_C 	C 	0.03618	0.97434	0.15938	-0.087
Mof_C 	C 	0.0392	0.8254	0.0962	0.123
Mof_C 	C 	0.15938	0.97434	0.03618	-0.087
Mof_C 	C 	0.80209	0.49005	0.90577	0.53
Mof_C 	C 	0.71267	0.92429	0.77451	-0.082
Mof_C 	C 	0.91882	0.7968	0.54944	0.04
Mof_C 	C 	0.70965	0.92899	0.70965	0.113
Mof_C 	C 	0.95205	0.19847	0.83557	0.041
Mof_C 	C 	0.97434	0.8301	0.03618	-0.088
Mof_C 	C 	0.97139	0.21823	0.97139	-0.202
Mof_C 	C 	0.54944	0.73494	0.7968	0.04
Mof_C 	C 	0.90577	0.80209	0.80209	0.53
Mof_C 	C 	0.92429	0.71267	0.77451	-0.082
Mof_C 	C 	0.94676	0.94676	0.25786	0.532
Mof_C 	C 	0.13906	0.82794	0.0165	-0.003
Mof_C 	C 	0.95205	0.01391	0.83557	0.047
Mof_C 	C 	0.25786	0.94676	0.84862	0.531
Mof_C 	C 	0.77746	0.52968	0.9154	-0.196
Mof_C 	C 	0.92645	0.73235	0.73235	-0.004
Mof_C 	C 	0.0962	0.8254	0.0392	0.123
Mof_C 	C 	0.92429	0.77451	0.71267	-0.082
Mof_C 	C 	0.94676	0.25786	0.84862	0.531
Mof_C 	C 	0.73494	0.54944	0.91882	0.04
Mof_C 	C 	0.77746	0.9154	0.77746	-0.196
Mof_C 	C 	0.7968	0.73494	0.54944	0.04
Mof_C 	C 	0.91882	0.54944	0.7968	0.04
Mof_C 	C 	0.15938	0.03618	0.97434	-0.087
Mof_C 	C 	0.8301	0.97434	0.15938	-0.085
Mof_C 	C 	0.84862	0.25786	0.94676	0.531
Mof_C 	C 	0.91882	0.54944	0.73494	0.04
Mof_C 	C 	0.73494	0.7968	0.91882	0.04
Mof_C 	C 	0.94676	0.25786	0.94676	0.532
Mof_C 	C 	0.58853	0.77451	0.92429	-0.082
Mof_C 	C 	0.97139	0.97139	0.83899	-0.203
Mof_C 	C 	0.73235	0.60885	0.73235	-0.004
Mof_C 	C 	0.52968	0.77746	0.77746	-0.196
Mof_C 	C 	0.0392	0.8254	0.0392	0.122
Mof_C 	C 	0.9154	0.77746	0.52968	-0.196
Mof_C 	C 	0.0165	0.82794	0.13906	-0.003
Mof_C 	C 	0.15938	0.8301	0.97434	-0.085
Mof_C 	C 	0.92429	0.77451	0.58853	-0.082
Mof_C 	C 	0.8301	0.15938	0.03618	-0.082
Mof_C 	C 	0.21823	0.83899	0.97139	-0.198
Mof_C 	C 	0.19847	0.95205	0.01391	0.046
Mof_C 	C 	0.0392	0.0392	0.0962	0.122
Mof_C 	C 	0.03618	0.97434	0.8301	-0.088
Mof_C 	C 	0.95205	0.19847	0.01391	0.046
Mof_C 	C 	0.70965	0.70965	0.65171	0.113
Mof_C 	C 	0.71267	0.58853	0.92429	-0.082
Mof_C 	C 	0.8301	0.03618	0.97434	-0.088
Mof_C 	C 	0.83557	0.19847	0.01391	0.044
Mof_C 	C 	0.58853	0.71267	0.77451	-0.082
Mof_C 	C 	0.77746	0.77746	0.52968	-0.196
Mof_C 	C 	0.01391	0.95205	0.83557	0.047
Mof_C 	C 	0.0392	0.0962	0.0392	0.122
Mof_C 	C 	0.54944	0.7968	0.73494	0.04
Mof_C 	C 	0.73235	0.73235	0.60885	-0.004
Mof_C 	C 	0.77746	0.9154	0.52968	-0.196
Mof_C 	C 	0.70965	0.70965	0.92899	0.113
Mof_N 	N 	0.07757	0.82379	0.02107	-0.164
Mof_N 	N 	0.67081	0.72825	0.93013	-0.159
Mof_N 	N 	0.07757	0.82379	0.07757	-0.165
Mof_N 	N 	0.72825	0.67081	0.93013	-0.159
Mof_N 	N 	0.93013	0.67081	0.67081	-0.159
Mof_N 	N 	0.02107	0.07757	0.07757	-0.164
Mof_N 	N 	0.07757	0.07757	0.02107	-0.164
Mof_N 	N 	0.67081	0.67081	0.72825	-0.159
Mof_N 	N 	0.67081	0.72825	0.67081	-0.159
Mof_N 	N 	0.67081	0.93013	0.67081	-0.159
Mof_N 	N 	0.72825	0.93013	0.67081	-0.159
Mof_N 	N 	0.67081	0.93013	0.72825	-0.159
Mof_N 	N 	0.07757	0.07757	0.82379	-0.165
Mof_N 	N 	0.93013	0.72825	0.67081	-0.159
Mof_N 	N 	0.82379	0.07757	0.07757	-0.165
Mof_N 	N 	0.07757	0.02107	0.07757	-0.164
Mof_N 	N 	0.67081	0.67081	0.93013	-0.159
Mof_N 	N 	0.02107	0.07757	0.82379	-0.164
Mof_N 	N 	0.02107	0.82379	0.07757	-0.164
Mof_N 	N 	0.82379	0.02107	0.07757	-0.164
Mof_N 	N 	0.07757	0.02107	0.82379	-0.164
Mof_N 	N 	0.72825	0.67081	0.67081	-0.159
Mof_N 	N 	0.93013	0.67081	0.72825	-0.159
Mof_N 	N 	0.82379	0.07757	0.02107	-0.164
Mof_O 	O 	0.83727	0.83727	0.39777	-1.505
Mof_O 	O 	0.92769	0.83727	0.39777	-1.505
Mof_O 	O 	0.90756	0.27356	0.85318	-0.745
Mof_O 	O 	0.78315	0.47435	0.90121	-0.755
Mof_O 	O 	0.89682	0.89682	0.30954	-1.149
Mof_O 	O 	0.85318	0.9657	0.27356	-0.746
Mof_O 	O 	0.85318	0.90756	0.27356	-0.745
Mof_O 	O 	0.47435	0.78315	0.84129	-0.755
Mof_O 	O 	0.84129	0.90121	0.78315	-0.756
Mof_O 	O 	0.85318	0.27356	0.9657	-0.746
Mof_O 	O 	0.30954	0.89682	0.89682	-1.149
Mof_O 	O 	0.85355	0.43935	0.85355	-1.173
Mof_O 	O 	0.47435	0.84129	0.90121	-0.756
Mof_O 	O 	0.91316	0.35052	0.82316	-1.509
Mof_O 	O 	0.9657	0.27356	0.90756	-0.746
Mof_O 	O 	0.47435	0.90121	0.78315	-0.755
Mof_O 	O 	0.47435	0.78315	0.90121	-0.755
Mof_O 	O 	0.39777	0.83727	0.92769	-1.505
Mof_O 	O 	0.90756	0.27356	0.9657	-0.746
Mof_O 	O 	0.91316	0.82316	0.91316	-1.509
Mof_O 	O 	0.9657	0.90756	0.85318	-0.746
Mof_O 	O 	0.84129	0.47435	0.90121	-0.756
Mof_O 	O 	0.43935	0.85355	0.85355	-1.173
Mof_O 	O 	0.83727	0.92769	0.83727	-1.505
Mof_O 	O 	0.9657	0.27356	0.85318	-0.746
Mof_O 	O 	0.78315	0.90121	0.84129	-0.756
Mof_O 	O 	0.9657	0.85318	0.27356	-0.746
Mof_O 	O 	0.90756	0.9657	0.85318	-0.746
Mof_O 	O 	0.92769	0.39777	0.83727	-1.505
Mof_O 	O 	0.27356	0.9657	0.85318	-0.746
Mof_O 	O 	0.89682	0.89682	0.89682	-1.149
Mof_O 	O 	0.35052	0.82316	0.91316	-1.509
Mof_O 	O 	0.90121	0.84129	0.47435	-0.756
Mof_O 	O 	0.84129	0.90121	0.47435	-0.756
Mof_O 	O 	0.27356	0.85318	0.9657	-0.746
Mof_O 	O 	0.84129	0.78315	0.47435	-0.755
Mof_O 	O 	0.83727	0.92769	0.39777	-1.505
Mof_O 	O 	0.47435	0.84129	0.78315	-0.755
Mof_O 	O 	0.83727	0.83727	0.92769	-1.505
Mof_O 	O 	0.35052	0.91316	0.91316	-1.509
Mof_O 	O 	0.90121	0.84129	0.78315	-0.756
Mof_O 	O 	0.82316	0.91316	0.35052	-1.509
Mof_O 	O 	0.90121	0.78315	0.47435	-0.755
Mof_O 	O 	0.91316	0.35052	0.91316	-1.509
Mof_O 	O 	0.85318	0.9657	0.90756	-0.746
Mof_O 	O 	0.89682	0.30954	0.89682	-1.149
Mof_O 	O 	0.78315	0.84129	0.47435	-0.755
Mof_O 	O 	0.85318	0.27356	0.90756	-0.745
Mof_O 	O 	0.83727	0.39777	0.92769	-1.505
Mof_O 	O 	0.78315	0.84129	0.90121	-0.756
Mof_O 	O 	0.27356	0.85318	0.90756	-0.745
Mof_O 	O 	0.85355	0.85355	0.43935	-1.173
Mof_O 	O 	0.84129	0.47435	0.78315	-0.755
Mof_O 	O 	0.91316	0.91316	0.35052	-1.509
Mof_O 	O 	0.90121	0.78315	0.84129	-0.756
Mof_O 	O 	0.78315	0.47435	0.84129	-0.755
Mof_O 	O 	0.39777	0.83727	0.83727	-1.505
Mof_O 	O 	0.82316	0.35052	0.91316	-1.509
Mof_O 	O 	0.84129	0.78315	0.90121	-0.756
Mof_O 	O 	0.90121	0.47435	0.84129	-0.756
Mof_O 	O 	0.92769	0.83727	0.83727	-1.505
Mof_O 	O 	0.91316	0.91316	0.82316	-1.509
Mof_O 	O 	0.90756	0.85318	0.27356	-0.745
Mof_O 	O 	0.9657	0.90756	0.27356	-0.746
Mof_O 	O 	0.78315	0.90121	0.47435	-0.755
Mof_O 	O 	0.35052	0.91316	0.82316	-1.509
Mof_O 	O 	0.27356	0.9657	0.90756	-0.746
Mof_O 	O 	0.9657	0.85318	0.90756	-0.746
Mof_O 	O 	0.47435	0.90121	0.84129	-0.756
Mof_O 	O 	0.27356	0.90756	0.9657	-0.746
Mof_O 	O 	0.90756	0.9657	0.27356	-0.746
Mof_O 	O 	0.83727	0.39777	0.83727	-1.505
Mof_O 	O 	0.27356	0.90756	0.85318	-0.745
Mof_O 	O 	0.91316	0.82316	0.35052	-1.509
Mof_O 	O 	0.85355	0.85355	0.85355	-1.173
Mof_O 	O 	0.82316	0.91316	0.91316	-1.509
Mof_O 	O 	0.85318	0.90756	0.9657	-0.746
Mof_O 	O 	0.90121	0.47435	0.78315	-0.755
Mof_O 	O 	0.39777	0.92769	0.83727	-1.505
Mof_O 	O 	0.90756	0.85318	0.9657	-0.746
_end
