data_functionalizedCrystal
_audit_creation_method	'EQeq! by Chris Wilmer'
_symmetry_space_group_name_H-M	'P1'
_symmetry_Int_Tables_number	1
_symmetry_cell_setting	triclinic
loop_
_symmetry_equiv_pos_as_xyz
  x,y,z
_cell_length_a	9.0805
_cell_length_b	23.613
_cell_length_c	12.8303
_cell_angle_alpha	90
_cell_angle_beta	90
_cell_angle_gamma	90
loop_
_atom_site_label
_atom_site_type_symbol
_atom_site_fract_x
_atom_site_fract_y
_atom_site_fract_z
_atom_site_charge
Mof_K 	K 	0.1145	0.78795	0.9363	3.642
Mof_K 	K 	0.8855	0.21205	0.9363	3.642
Mof_K 	K 	0.6145	0.71205	0.0637	3.653
Mof_K 	K 	0.3855	0.28795	0.0637	3.653
Mof_U 	U 	0.14598	0.73306	0.65762	-0.012
Mof_U 	U 	0.63491	0.56842	0.92325	-0.01
Mof_U 	U 	0.69495	0.82827	0.85075	-0.081
Mof_U 	U 	0.85402	0.26694	0.65762	-0.013
Mof_U 	U 	0.36509	0.43158	0.92325	-0.011
Mof_U 	U 	0.30505	0.17173	0.85075	-0.081
Mof_U 	U 	0.64598	0.76694	0.34238	-0.01
Mof_U 	U 	0.13491	0.93158	0.07675	-0.015
Mof_U 	U 	0.19495	0.67173	0.14925	-0.083
Mof_U 	U 	0.35402	0.23306	0.34238	-0.01
Mof_U 	U 	0.86509	0.06842	0.07675	-0.015
Mof_U 	U 	0.80505	0.32827	0.14925	-0.083
Mof_P 	P 	0.3216	0.66227	0.8777	0.438
Mof_P 	P 	0.2284	0.55325	0.9646	0.446
Mof_P 	P 	0.8311	0.68551	0.8143	0.448
Mof_P 	P 	0.7473	0.74154	0.6173	0.434
Mof_P 	P 	0.6784	0.33773	0.8777	0.438
Mof_P 	P 	0.7716	0.44675	0.9646	0.446
Mof_P 	P 	0.1689	0.31449	0.8143	0.448
Mof_P 	P 	0.2527	0.25846	0.6173	0.434
Mof_P 	P 	0.8216	0.83773	0.1223	0.438
Mof_P 	P 	0.7284	0.94675	0.0354	0.444
Mof_P 	P 	0.3311	0.81449	0.1857	0.448
Mof_P 	P 	0.2473	0.75846	0.3827	0.434
Mof_P 	P 	0.1784	0.16227	0.1223	0.438
Mof_P 	P 	0.2716	0.05325	0.0354	0.444
Mof_P 	P 	0.6689	0.18551	0.1857	0.448
Mof_P 	P 	0.7527	0.24154	0.3827	0.434
Mof_H 	H 	0.1079	0.6094	0.8471	0.137
Mof_H 	H 	0.2467	0.5793	0.7934	0.158
Mof_H 	H 	0.7836	0.6455	0.6515	0.154
Mof_H 	H 	0.633	0.6666	0.704	0.146
Mof_H 	H 	0.8921	0.3906	0.8471	0.137
Mof_H 	H 	0.7533	0.4207	0.7934	0.158
Mof_H 	H 	0.2164	0.3545	0.6515	0.154
Mof_H 	H 	0.367	0.3334	0.704	0.146
Mof_H 	H 	0.6079	0.8906	0.1529	0.138
Mof_H 	H 	0.7467	0.9207	0.2066	0.159
Mof_H 	H 	0.2836	0.8545	0.3485	0.153
Mof_H 	H 	0.133	0.8334	0.296	0.144
Mof_H 	H 	0.3921	0.1094	0.1529	0.138
Mof_H 	H 	0.2533	0.0793	0.2066	0.159
Mof_H 	H 	0.7164	0.1455	0.3485	0.153
Mof_H 	H 	0.867	0.1666	0.296	0.144
Mof_C 	C 	0.2125	0.5989	0.8571	-0.346
Mof_C 	C 	0.7373	0.6767	0.6914	-0.335
Mof_C 	C 	0.7875	0.4011	0.8571	-0.346
Mof_C 	C 	0.2627	0.3233	0.6914	-0.335
Mof_C 	C 	0.7125	0.9011	0.1429	-0.346
Mof_C 	C 	0.2373	0.8233	0.3086	-0.335
Mof_C 	C 	0.2875	0.0989	0.1429	-0.346
Mof_C 	C 	0.7627	0.1767	0.3086	-0.335
Mof_O 	O 	0.8166	0.6295	0.8762	-0.332
Mof_O 	O 	0.3093	0.7015	0.7861	-0.39
Mof_O 	O 	0.6605	0.5897	0.0547	-0.375
Mof_O 	O 	0.9916	0.7005	0.7915	-0.46
Mof_O 	O 	0.1544	0.8015	0.7156	-0.388
Mof_O 	O 	0.6722	0.7867	0.6822	-0.207
Mof_O 	O 	0.6673	0.7324	0.5139	-0.171
Mof_O 	O 	0.7529	0.7327	0.8725	-0.645
Mof_O 	O 	0.1736	0.5814	0.0604	-0.227
Mof_O 	O 	0.8794	0.8453	0.824	-0.344
Mof_O 	O 	0.1469	0.4967	0.9421	-0.179
Mof_O 	O 	0.9113	0.7542	0.5977	-0.167
Mof_O 	O 	0.3899	0.5326	0.9706	-0.161
Mof_O 	O 	0.4822	0.6439	0.8948	-0.466
Mof_O 	O 	0.2582	0.6892	0.9752	-0.704
Mof_O 	O 	0.1834	0.3705	0.8762	-0.332
Mof_O 	O 	0.6907	0.2985	0.7861	-0.39
Mof_O 	O 	0.3395	0.4103	0.0547	-0.375
Mof_O 	O 	0.0084	0.2995	0.7915	-0.46
Mof_O 	O 	0.8456	0.1985	0.7156	-0.388
Mof_O 	O 	0.3278	0.2133	0.6822	-0.207
Mof_O 	O 	0.3327	0.2676	0.5139	-0.171
Mof_O 	O 	0.2471	0.2673	0.8725	-0.645
Mof_O 	O 	0.8264	0.4186	0.0604	-0.227
Mof_O 	O 	0.1206	0.1547	0.824	-0.344
Mof_O 	O 	0.8531	0.5033	0.9421	-0.179
Mof_O 	O 	0.0887	0.2458	0.5977	-0.167
Mof_O 	O 	0.6101	0.4674	0.9706	-0.161
Mof_O 	O 	0.5178	0.3561	0.8948	-0.466
Mof_O 	O 	0.7418	0.3108	0.9752	-0.704
Mof_O 	O 	0.3166	0.8705	0.1238	-0.333
Mof_O 	O 	0.8093	0.7985	0.2139	-0.389
Mof_O 	O 	0.1605	0.9103	0.9453	-0.374
Mof_O 	O 	0.4916	0.7995	0.2085	-0.463
Mof_O 	O 	0.6544	0.6985	0.2844	-0.387
Mof_O 	O 	0.1722	0.7133	0.3178	-0.209
Mof_O 	O 	0.1673	0.7676	0.4861	-0.173
Mof_O 	O 	0.2529	0.7673	0.1275	-0.647
Mof_O 	O 	0.6736	0.9186	0.9396	-0.222
Mof_O 	O 	0.3794	0.6547	0.176	-0.347
Mof_O 	O 	0.6469	0.0033	0.0579	-0.181
Mof_O 	O 	0.4113	0.7458	0.4023	-0.169
Mof_O 	O 	0.8899	0.9674	0.0294	-0.161
Mof_O 	O 	0.9822	0.8561	0.1052	-0.463
Mof_O 	O 	0.7582	0.8108	0.0248	-0.706
Mof_O 	O 	0.6834	0.1295	0.1238	-0.333
Mof_O 	O 	0.1907	0.2015	0.2139	-0.389
Mof_O 	O 	0.8395	0.0897	0.9453	-0.374
Mof_O 	O 	0.5084	0.2005	0.2085	-0.463
Mof_O 	O 	0.3456	0.3015	0.2844	-0.387
Mof_O 	O 	0.8278	0.2867	0.3178	-0.209
Mof_O 	O 	0.8327	0.2324	0.4861	-0.173
Mof_O 	O 	0.7471	0.2327	0.1275	-0.647
Mof_O 	O 	0.3264	0.0814	0.9396	-0.222
Mof_O 	O 	0.6206	0.3453	0.176	-0.347
Mof_O 	O 	0.3531	0.9967	0.0579	-0.181
Mof_O 	O 	0.5887	0.2542	0.4023	-0.169
Mof_O 	O 	0.1101	0.0326	0.0294	-0.161
Mof_O 	O 	0.0178	0.1439	0.1052	-0.463
Mof_O 	O 	0.2418	0.1892	0.0248	-0.706
_end
