data_functionalizedCrystal
_audit_creation_method	'EQeq! by Chris Wilmer'
_symmetry_space_group_name_H-M	'P1'
_symmetry_Int_Tables_number	1
_symmetry_cell_setting	triclinic
loop_
_symmetry_equiv_pos_as_xyz
  x,y,z
_cell_length_a	20.4751
_cell_length_b	20.4751
_cell_length_c	10.4075
_cell_angle_alpha	90
_cell_angle_beta	90
_cell_angle_gamma	120
loop_
_atom_site_label
_atom_site_type_symbol
_atom_site_fract_x
_atom_site_fract_y
_atom_site_fract_z
_atom_site_charge
Mof_Mn	Mn	0.37972	0.83466	0.71282	0.786
Mof_O 	O 	0.42351	0.75904	0.69959	-0.818
Mof_C 	C 	0.49204	0.78096	0.691	0.328
Mof_O 	O 	0.51925	0.73846	0.6863	-0.45
Mof_O 	O 	0.51498	0.90452	0.73422	-0.318
Mof_C 	C 	0.61539	0.15371	0.9276	0.493
Mof_C 	C 	0.60076	0.10543	0.809	-0.193
Mof_O 	O 	0.63338	0.19156	0.43195	-0.791
Mof_C 	C 	0.56827	0.02725	0.8225	-0.047
Mof_H 	H 	0.557	0.0057	0.904	0.056
Mof_C 	C 	0.5707	0.01362	0.5929	-0.044
Mof_H 	H 	0.561	0.9831	0.521	0.056
Mof_C 	C 	0.55295	0.98215	0.7158	0.125
Mof_C 	C 	0.6031	0.09121	0.5797	-0.207
Mof_C 	C 	0.61721	0.13651	0.6875	0.141
Mof_H 	H 	0.638	0.1883	0.6775	-0.126
Mof_O 	O 	0.59971	0.11777	0.03277	-0.436
Mof_C 	C 	0.61775	0.12455	0.4478	0.479
Mof_O 	O 	0.61117	0.08281	0.35269	-0.393
Mof_O 	O 	0.64057	0.22188	0.9158	-0.736
Mof_C 	C 	0.54854	0.86457	0.6784	0.186
Mof_H 	H 	0.5476	0.8738	0.5863	-0.047
Mof_C 	C 	0.6262	0.8876	0.7013	-0.668
Mof_H 	H 	0.6566	0.9412	0.6895	0.215
Mof_H 	H 	0.642	0.8623	0.6421	0.215
Mof_H 	H 	0.632	0.8749	0.7877	0.205
Mof_Mn	Mn	0.16534	0.54506	0.71282	0.787
Mof_O 	O 	0.24096	0.66447	0.69959	-0.818
Mof_C 	C 	0.21904	0.71108	0.691	0.328
Mof_O 	O 	0.26154	0.78079	0.6863	-0.45
Mof_O 	O 	0.09548	0.61046	0.73422	-0.317
Mof_C 	C 	0.84629	0.46168	0.9276	0.492
Mof_C 	C 	0.89457	0.49533	0.809	-0.193
Mof_O 	O 	0.80844	0.44182	0.43195	-0.791
Mof_C 	C 	0.97275	0.54102	0.8225	-0.046
Mof_H 	H 	0.9943	0.5513	0.904	0.056
Mof_C 	C 	0.98638	0.55708	0.5929	-0.043
Mof_H 	H 	0.0169	0.5779	0.521	0.055
Mof_C 	C 	0.01785	0.5708	0.7158	0.124
Mof_C 	C 	0.90879	0.51189	0.5797	-0.208
Mof_C 	C 	0.86349	0.4807	0.6875	0.141
Mof_H 	H 	0.8117	0.4497	0.6775	-0.126
Mof_O 	O 	0.88223	0.48194	0.03277	-0.435
Mof_C 	C 	0.87545	0.4932	0.4478	0.479
Mof_O 	O 	0.91719	0.52836	0.35269	-0.393
Mof_O 	O 	0.77812	0.41869	0.9158	-0.736
Mof_C 	C 	0.13543	0.68397	0.6784	0.185
Mof_H 	H 	0.1262	0.6738	0.5863	-0.047
Mof_C 	C 	0.1124	0.7386	0.7013	-0.666
Mof_H 	H 	0.0588	0.7154	0.6895	0.215
Mof_H 	H 	0.1377	0.7797	0.6421	0.215
Mof_H 	H 	0.1251	0.7571	0.7877	0.204
Mof_Mn	Mn	0.45494	0.62028	0.71282	0.787
Mof_O 	O 	0.33553	0.57649	0.69959	-0.818
Mof_C 	C 	0.28892	0.50796	0.691	0.328
Mof_O 	O 	0.21921	0.48075	0.6863	-0.45
Mof_O 	O 	0.38954	0.48502	0.73422	-0.318
Mof_C 	C 	0.53832	0.38461	0.9276	0.49
Mof_C 	C 	0.50467	0.39924	0.809	-0.192
Mof_O 	O 	0.55818	0.36662	0.43195	-0.791
Mof_C 	C 	0.45898	0.43173	0.8225	-0.049
Mof_H 	H 	0.4487	0.443	0.904	0.056
Mof_C 	C 	0.44292	0.4293	0.5929	-0.045
Mof_H 	H 	0.4221	0.439	0.521	0.056
Mof_C 	C 	0.4292	0.44705	0.7158	0.127
Mof_C 	C 	0.48811	0.3969	0.5797	-0.206
Mof_C 	C 	0.5193	0.38279	0.6875	0.14
Mof_H 	H 	0.5503	0.362	0.6775	-0.125
Mof_O 	O 	0.51806	0.40029	0.03277	-0.434
Mof_C 	C 	0.5068	0.38225	0.4478	0.478
Mof_O 	O 	0.47164	0.38883	0.35269	-0.392
Mof_O 	O 	0.58131	0.35943	0.9158	-0.735
Mof_C 	C 	0.31603	0.45146	0.6784	0.187
Mof_H 	H 	0.3262	0.4524	0.5863	-0.047
Mof_C 	C 	0.2614	0.3738	0.7013	-0.67
Mof_H 	H 	0.2846	0.3434	0.6895	0.216
Mof_H 	H 	0.2203	0.358	0.6421	0.216
Mof_H 	H 	0.2429	0.368	0.7877	0.205
Mof_Mn	Mn	0.62028	0.16534	0.21282	0.787
Mof_O 	O 	0.57649	0.24096	0.19959	-0.82
Mof_C 	C 	0.50796	0.21904	0.191	0.328
Mof_O 	O 	0.48075	0.26154	0.1863	-0.449
Mof_O 	O 	0.48502	0.09548	0.23422	-0.318
Mof_C 	C 	0.38461	0.84629	0.4276	0.498
Mof_C 	C 	0.39924	0.89457	0.309	-0.19
Mof_O 	O 	0.36662	0.80844	0.93195	-0.788
Mof_C 	C 	0.43173	0.97275	0.3225	-0.046
Mof_H 	H 	0.443	0.9943	0.404	0.057
Mof_C 	C 	0.4293	0.98638	0.0929	-0.043
Mof_H 	H 	0.439	0.0169	0.021	0.057
Mof_C 	C 	0.44705	0.01785	0.2158	0.125
Mof_C 	C 	0.3969	0.90879	0.0797	-0.193
Mof_C 	C 	0.38279	0.86349	0.1875	0.136
Mof_H 	H 	0.362	0.8117	0.1775	-0.12
Mof_O 	O 	0.40029	0.88223	0.53277	-0.441
Mof_C 	C 	0.38225	0.87545	0.9478	0.466
Mof_O 	O 	0.38883	0.91719	0.85269	-0.393
Mof_O 	O 	0.35943	0.77812	0.4158	-0.731
Mof_C 	C 	0.45146	0.13543	0.1784	0.189
Mof_H 	H 	0.4524	0.1262	0.0863	-0.047
Mof_C 	C 	0.3738	0.1124	0.2013	-0.676
Mof_H 	H 	0.3434	0.0588	0.1895	0.219
Mof_H 	H 	0.358	0.1377	0.1421	0.219
Mof_H 	H 	0.368	0.1251	0.2877	0.208
Mof_Mn	Mn	0.83466	0.45494	0.21282	0.787
Mof_O 	O 	0.75904	0.33553	0.19959	-0.82
Mof_C 	C 	0.78096	0.28892	0.191	0.328
Mof_O 	O 	0.73846	0.21921	0.1863	-0.45
Mof_O 	O 	0.90452	0.38954	0.23422	-0.317
Mof_C 	C 	0.15371	0.53832	0.4276	0.498
Mof_C 	C 	0.10543	0.50467	0.309	-0.191
Mof_O 	O 	0.19156	0.55818	0.93195	-0.788
Mof_C 	C 	0.02725	0.45898	0.3225	-0.046
Mof_H 	H 	0.0057	0.4487	0.404	0.057
Mof_C 	C 	0.01362	0.44292	0.0929	-0.042
Mof_H 	H 	0.9831	0.4221	0.021	0.056
Mof_C 	C 	0.98215	0.4292	0.2158	0.124
Mof_C 	C 	0.09121	0.48811	0.0797	-0.195
Mof_C 	C 	0.13651	0.5193	0.1875	0.136
Mof_H 	H 	0.1883	0.5503	0.1775	-0.12
Mof_O 	O 	0.11777	0.51806	0.53277	-0.441
Mof_C 	C 	0.12455	0.5068	0.9478	0.467
Mof_O 	O 	0.08281	0.47164	0.85269	-0.393
Mof_O 	O 	0.22188	0.58131	0.4158	-0.731
Mof_C 	C 	0.86457	0.31603	0.1784	0.188
Mof_H 	H 	0.8738	0.3262	0.0863	-0.047
Mof_C 	C 	0.8876	0.2614	0.2013	-0.673
Mof_H 	H 	0.9412	0.2846	0.1895	0.218
Mof_H 	H 	0.8623	0.2203	0.1421	0.218
Mof_H 	H 	0.8749	0.2429	0.2877	0.207
Mof_Mn	Mn	0.54506	0.37972	0.21282	0.787
Mof_O 	O 	0.66447	0.42351	0.19959	-0.82
Mof_C 	C 	0.71108	0.49204	0.191	0.328
Mof_O 	O 	0.78079	0.51925	0.1863	-0.449
Mof_O 	O 	0.61046	0.51498	0.23422	-0.32
Mof_C 	C 	0.46168	0.61539	0.4276	0.497
Mof_C 	C 	0.49533	0.60076	0.309	-0.187
Mof_O 	O 	0.44182	0.63338	0.93195	-0.788
Mof_C 	C 	0.54102	0.56827	0.3225	-0.052
Mof_H 	H 	0.5513	0.557	0.404	0.059
Mof_C 	C 	0.55708	0.5707	0.0929	-0.053
Mof_H 	H 	0.5779	0.561	0.021	0.062
Mof_C 	C 	0.5708	0.55295	0.2158	0.132
Mof_C 	C 	0.51189	0.6031	0.0797	-0.191
Mof_C 	C 	0.4807	0.61721	0.1875	0.133
Mof_H 	H 	0.4497	0.638	0.1775	-0.119
Mof_O 	O 	0.48194	0.59971	0.53277	-0.441
Mof_C 	C 	0.4932	0.61775	0.9478	0.466
Mof_O 	O 	0.52836	0.61117	0.85269	-0.392
Mof_O 	O 	0.41869	0.64057	0.4158	-0.73
Mof_C 	C 	0.68397	0.54854	0.1784	0.191
Mof_H 	H 	0.6738	0.5476	0.0863	-0.047
Mof_C 	C 	0.7386	0.6262	0.2013	-0.678
Mof_H 	H 	0.7154	0.6566	0.1895	0.22
Mof_H 	H 	0.7797	0.642	0.1421	0.22
Mof_H 	H 	0.7571	0.632	0.2877	0.209
Mof_Na	Na	0.66667	0.33333	0.02826	2.664
Mof_Na	Na	0.33333	0.66667	0.52826	2.644
Mof_K 	K 	0.33333	0.66667	0.9362	3.266
Mof_K 	K 	0.66667	0.33333	0.4362	3.288
_end
