data_functionalizedCrystal
_audit_creation_method	'EQeq! by Chris Wilmer'
_symmetry_space_group_name_H-M	'P1'
_symmetry_Int_Tables_number	1
_symmetry_cell_setting	triclinic
loop_
_symmetry_equiv_pos_as_xyz
  x,y,z
_cell_length_a	28.017
_cell_length_b	9.6175
_cell_length_c	8.2586
_cell_angle_alpha	90
_cell_angle_beta	90
_cell_angle_gamma	90
loop_
_atom_site_label
_atom_site_type_symbol
_atom_site_fract_x
_atom_site_fract_y
_atom_site_fract_z
_atom_site_charge
Mof_Gd	Gd	0.99625	0.41512	0.90705	1.822
Mof_O 	O 	0.07167	0.4783	0.9997	-0.501
Mof_O 	O 	0.06324	0.6118	0.2161	-0.506
Mof_O 	O 	0.45157	0.8855	0.9655	-0.484
Mof_O 	O 	0.45926	0.7963	0.2122	-0.499
Mof_O 	O 	0.22844	0.7774	0.3507	-0.153
Mof_O 	O 	0.30071	0.562	0.3162	-0.159
Mof_O 	O 	0.97769	0.412	0.2116	-0.571
Mof_O 	O 	0.92674	0.3057	0.051	-0.454
Mof_C 	C 	0.08779	0.5577	0.1076	0.467
Mof_C 	C 	0.13987	0.5937	0.1037	-0.113
Mof_C 	C 	0.16793	0.5563	0.9714	0.022
Mof_H 	H 	0.155	0.5068	0.8851	0.034
Mof_C 	C 	0.21589	0.5951	0.9716	-0.081
Mof_H 	H 	0.2349	0.571	0.8836	0.067
Mof_C 	C 	0.23621	0.6686	0.0993	-0.004
Mof_C 	C 	0.20708	0.7027	0.2312	0.102
Mof_C 	C 	0.15902	0.6663	0.2326	-0.065
Mof_H 	H 	0.1399	0.6907	0.32	0.07
Mof_C 	C 	0.28766	0.7074	0.0944	0.007
Mof_C 	C 	0.30458	0.7939	0.978	-0.093
Mof_H 	H 	0.2837	0.8288	0.9004	0.07
Mof_C 	C 	0.35279	0.8314	0.9725	0.032
Mof_H 	H 	0.3639	0.8896	0.8907	0.024
Mof_C 	C 	0.38376	0.7821	0.0884	-0.125
Mof_C 	C 	0.36694	0.6925	0.2064	-0.047
Mof_H 	H 	0.3878	0.6576	0.284	0.048
Mof_C 	C 	0.31923	0.6545	0.21	0.097
Mof_C 	C 	0.43528	0.8251	0.0866	0.452
Mof_C 	C 	0.2058	0.7836	0.5034	-0.245
Mof_H 	H 	0.2245	0.8399	0.5756	0.12
Mof_H 	H 	0.203	0.6915	0.547	0.116
Mof_H 	H 	0.1746	0.8237	0.4915	0.116
Mof_C 	C 	0.3282	0.5126	0.4468	-0.217
Mof_H 	H 	0.3097	0.4477	0.5089	0.108
Mof_H 	H 	0.3374	0.5892	0.5144	0.1
Mof_H 	H 	0.3562	0.4671	0.4061	0.097
Mof_C 	C 	0.93981	0.3435	0.1869	0.481
Mof_H 	H 	0.9209	0.3205	0.2755	-0.132
Mof_Gd	Gd	0.00375	0.58488	0.40705	1.824
Mof_O 	O 	0.92833	0.5217	0.4997	-0.503
Mof_O 	O 	0.93676	0.3882	0.7161	-0.506
Mof_O 	O 	0.54843	0.1145	0.4655	-0.486
Mof_O 	O 	0.54074	0.2037	0.7122	-0.499
Mof_O 	O 	0.77156	0.2226	0.8507	-0.16
Mof_O 	O 	0.69929	0.438	0.8162	-0.157
Mof_O 	O 	0.02231	0.588	0.7116	-0.571
Mof_O 	O 	0.07326	0.6943	0.551	-0.456
Mof_C 	C 	0.91221	0.4423	0.6076	0.467
Mof_C 	C 	0.86013	0.4063	0.6037	-0.112
Mof_C 	C 	0.83207	0.4437	0.4714	0.02
Mof_H 	H 	0.845	0.4932	0.3851	0.034
Mof_C 	C 	0.78411	0.4049	0.4716	-0.081
Mof_H 	H 	0.7651	0.429	0.3836	0.067
Mof_C 	C 	0.76379	0.3314	0.5993	-0.005
Mof_C 	C 	0.79292	0.2973	0.7312	0.105
Mof_C 	C 	0.84098	0.3337	0.7326	-0.066
Mof_H 	H 	0.8601	0.3093	0.82	0.071
Mof_C 	C 	0.71234	0.2926	0.5944	0.01
Mof_C 	C 	0.69542	0.2061	0.478	-0.095
Mof_H 	H 	0.7163	0.1712	0.4004	0.071
Mof_C 	C 	0.64721	0.1686	0.4725	0.032
Mof_H 	H 	0.6361	0.1104	0.3907	0.025
Mof_C 	C 	0.61624	0.2179	0.5884	-0.124
Mof_C 	C 	0.63306	0.3075	0.7064	-0.046
Mof_H 	H 	0.6122	0.3424	0.784	0.048
Mof_C 	C 	0.68077	0.3455	0.71	0.095
Mof_C 	C 	0.56472	0.1749	0.5866	0.454
Mof_C 	C 	0.7942	0.2164	0.0034	-0.22
Mof_H 	H 	0.7755	0.1601	0.0756	0.114
Mof_H 	H 	0.797	0.3085	0.047	0.109
Mof_H 	H 	0.8254	0.1763	0.9915	0.106
Mof_C 	C 	0.6718	0.4874	0.9468	-0.229
Mof_H 	H 	0.6903	0.5523	0.0089	0.111
Mof_H 	H 	0.6626	0.4108	0.0144	0.104
Mof_H 	H 	0.6438	0.5329	0.9061	0.1
Mof_C 	C 	0.06019	0.6565	0.6869	0.481
Mof_H 	H 	0.0791	0.6795	0.7755	-0.133
Mof_Gd	Gd	0.49625	0.08488	0.90705	1.819
Mof_O 	O 	0.57167	0.0217	0.9997	-0.505
Mof_O 	O 	0.56324	0.8882	0.2161	-0.507
Mof_O 	O 	0.95157	0.6145	0.9655	-0.488
Mof_O 	O 	0.95926	0.7037	0.2122	-0.499
Mof_O 	O 	0.72844	0.7226	0.3507	-0.153
Mof_O 	O 	0.80071	0.938	0.3162	-0.158
Mof_O 	O 	0.47769	0.088	0.2116	-0.57
Mof_O 	O 	0.42674	0.1943	0.051	-0.454
Mof_C 	C 	0.58779	0.9423	0.1076	0.468
Mof_C 	C 	0.63987	0.9063	0.1037	-0.116
Mof_C 	C 	0.66793	0.9437	0.9714	0.024
Mof_H 	H 	0.655	0.9932	0.8851	0.034
Mof_C 	C 	0.71589	0.9049	0.9716	-0.081
Mof_H 	H 	0.7349	0.929	0.8836	0.068
Mof_C 	C 	0.73621	0.8314	0.0993	-0.005
Mof_C 	C 	0.70708	0.7973	0.2312	0.102
Mof_C 	C 	0.65902	0.8337	0.2326	-0.063
Mof_H 	H 	0.6399	0.8093	0.32	0.07
Mof_C 	C 	0.78766	0.7926	0.0944	0.008
Mof_C 	C 	0.80458	0.7061	0.978	-0.093
Mof_H 	H 	0.7837	0.6712	0.9004	0.07
Mof_C 	C 	0.85279	0.6686	0.9725	0.031
Mof_H 	H 	0.8639	0.6104	0.8907	0.024
Mof_C 	C 	0.88376	0.7179	0.0884	-0.123
Mof_C 	C 	0.86694	0.8075	0.2064	-0.047
Mof_H 	H 	0.8878	0.8424	0.284	0.048
Mof_C 	C 	0.81923	0.8455	0.21	0.096
Mof_C 	C 	0.93528	0.6749	0.0866	0.456
Mof_C 	C 	0.7058	0.7164	0.5034	-0.246
Mof_H 	H 	0.7245	0.6601	0.5756	0.121
Mof_H 	H 	0.703	0.8085	0.547	0.116
Mof_H 	H 	0.6746	0.6763	0.4915	0.116
Mof_C 	C 	0.8282	0.9874	0.4468	-0.223
Mof_H 	H 	0.8097	0.0523	0.5089	0.109
Mof_H 	H 	0.8374	0.9108	0.5144	0.101
Mof_H 	H 	0.8562	0.0329	0.4061	0.099
Mof_C 	C 	0.43981	0.1565	0.1869	0.481
Mof_H 	H 	0.4209	0.1795	0.2755	-0.132
Mof_Gd	Gd	0.50375	0.91512	0.40705	1.822
Mof_O 	O 	0.42833	0.9783	0.4997	-0.504
Mof_O 	O 	0.43676	0.1118	0.7161	-0.506
Mof_O 	O 	0.04843	0.3855	0.4655	-0.487
Mof_O 	O 	0.04074	0.2963	0.7122	-0.499
Mof_O 	O 	0.27156	0.2774	0.8507	-0.156
Mof_O 	O 	0.19929	0.062	0.8162	-0.156
Mof_O 	O 	0.52231	0.912	0.7116	-0.571
Mof_O 	O 	0.57326	0.8057	0.551	-0.456
Mof_C 	C 	0.41221	0.0577	0.6076	0.468
Mof_C 	C 	0.36013	0.0937	0.6037	-0.112
Mof_C 	C 	0.33207	0.0563	0.4714	0.021
Mof_H 	H 	0.345	0.0068	0.3851	0.035
Mof_C 	C 	0.28411	0.0951	0.4716	-0.081
Mof_H 	H 	0.2651	0.071	0.3836	0.068
Mof_C 	C 	0.26379	0.1686	0.5993	-0.005
Mof_C 	C 	0.29292	0.2027	0.7312	0.104
Mof_C 	C 	0.34098	0.1663	0.7326	-0.065
Mof_H 	H 	0.3601	0.1907	0.82	0.07
Mof_C 	C 	0.21234	0.2074	0.5944	0.01
Mof_C 	C 	0.19542	0.2939	0.478	-0.095
Mof_H 	H 	0.2163	0.3288	0.4004	0.07
Mof_C 	C 	0.14721	0.3314	0.4725	0.032
Mof_H 	H 	0.1361	0.3896	0.3907	0.024
Mof_C 	C 	0.11624	0.2821	0.5884	-0.124
Mof_C 	C 	0.13306	0.1925	0.7064	-0.046
Mof_H 	H 	0.1122	0.1576	0.784	0.047
Mof_C 	C 	0.18077	0.1545	0.71	0.095
Mof_C 	C 	0.06472	0.3251	0.5866	0.455
Mof_C 	C 	0.2942	0.2836	0.0034	-0.234
Mof_H 	H 	0.2755	0.3399	0.0756	0.117
Mof_H 	H 	0.297	0.1915	0.047	0.113
Mof_H 	H 	0.3254	0.3237	0.9915	0.111
Mof_C 	C 	0.1718	0.0126	0.9468	-0.233
Mof_H 	H 	0.1903	0.9477	0.0089	0.11
Mof_H 	H 	0.1626	0.0892	0.0144	0.106
Mof_H 	H 	0.1438	0.9671	0.9061	0.103
Mof_C 	C 	0.56019	0.8435	0.6869	0.481
Mof_H 	H 	0.5791	0.8205	0.7755	-0.132
_end
