data_functionalizedCrystal
_audit_creation_method	'EQeq! by Chris Wilmer'
_symmetry_space_group_name_H-M	'P1'
_symmetry_Int_Tables_number	1
_symmetry_cell_setting	triclinic
loop_
_symmetry_equiv_pos_as_xyz
  x,y,z
_cell_length_a	15.972
_cell_length_b	9.863
_cell_length_c	15.156
_cell_angle_alpha	90
_cell_angle_beta	90
_cell_angle_gamma	90
loop_
_atom_site_label
_atom_site_type_symbol
_atom_site_fract_x
_atom_site_fract_y
_atom_site_fract_z
_atom_site_charge
Mof_P 	P 	0.8706	0.0334	0.8433	0.45
Mof_O 	O 	0.9142	0.0816	0.9273	-0.419
Mof_O 	O 	0.7913	0.1073	0.8253	-0.428
Mof_O 	O 	0.929	0.0414	0.7624	-0.173
Mof_O 	O 	0.8508	0.8774	0.8524	-0.111
Mof_P 	P 	0.8706	0.5334	0.3433	0.519
Mof_O 	O 	0.9142	0.5816	0.4273	-0.337
Mof_O 	O 	0.7913	0.6073	0.3253	-0.384
Mof_O 	O 	0.929	0.5414	0.2624	-0.125
Mof_O 	O 	0.8508	0.3774	0.3524	-0.151
Mof_P 	P 	0.3706	0.0334	0.3433	0.449
Mof_O 	O 	0.4142	0.0816	0.4273	-0.428
Mof_O 	O 	0.2913	0.1073	0.3253	-0.416
Mof_O 	O 	0.429	0.0414	0.2624	-0.214
Mof_O 	O 	0.3508	0.8774	0.3524	-0.094
Mof_P 	P 	0.3706	0.5334	0.8433	0.519
Mof_O 	O 	0.4142	0.5816	0.9273	-0.444
Mof_O 	O 	0.2913	0.6073	0.8253	-0.421
Mof_O 	O 	0.429	0.5414	0.7624	-0.187
Mof_O 	O 	0.3508	0.3774	0.8524	-0.225
Mof_P 	P 	0.1294	0.9666	0.8433	0.588
Mof_O 	O 	0.0858	0.9184	0.9273	-0.449
Mof_O 	O 	0.2087	0.8927	0.8253	-0.406
Mof_O 	O 	0.071	0.9586	0.7624	-0.196
Mof_O 	O 	0.1492	0.1226	0.8524	-0.302
Mof_P 	P 	0.1294	0.4666	0.3433	0.517
Mof_O 	O 	0.0858	0.4184	0.4273	-0.448
Mof_O 	O 	0.2087	0.3927	0.3253	-0.402
Mof_O 	O 	0.071	0.4586	0.2624	-0.225
Mof_O 	O 	0.1492	0.6226	0.3524	-0.171
Mof_P 	P 	0.6294	0.9666	0.3433	0.585
Mof_O 	O 	0.5858	0.9184	0.4273	-0.359
Mof_O 	O 	0.7087	0.8927	0.3253	-0.37
Mof_O 	O 	0.571	0.9586	0.2624	-0.137
Mof_O 	O 	0.6492	0.1226	0.3524	-0.229
Mof_P 	P 	0.6294	0.4666	0.8433	0.517
Mof_O 	O 	0.5858	0.4184	0.9273	-0.459
Mof_O 	O 	0.7087	0.3927	0.8253	-0.413
Mof_O 	O 	0.571	0.4586	0.7624	-0.187
Mof_O 	O 	0.6492	0.6226	0.8524	-0.191
Mof_P 	P 	0.1206	0.2166	0.0933	0.515
Mof_O 	O 	0.1642	0.1684	0.1773	-0.428
Mof_O 	O 	0.0413	0.1427	0.0753	-0.419
Mof_O 	O 	0.179	0.2086	0.0124	-0.146
Mof_O 	O 	0.1008	0.3726	0.1024	-0.171
Mof_P 	P 	0.1206	0.7166	0.5933	0.518
Mof_O 	O 	0.1642	0.6684	0.6773	-0.422
Mof_O 	O 	0.0413	0.6427	0.5753	-0.442
Mof_O 	O 	0.179	0.7086	0.5124	-0.182
Mof_O 	O 	0.1008	0.8726	0.6024	-0.167
Mof_P 	P 	0.6206	0.2166	0.5933	0.517
Mof_O 	O 	0.6642	0.1684	0.6773	-0.427
Mof_O 	O 	0.5413	0.1427	0.5753	-0.428
Mof_O 	O 	0.679	0.2086	0.5124	-0.193
Mof_O 	O 	0.6008	0.3726	0.6024	-0.167
Mof_P 	P 	0.6206	0.7166	0.0933	0.515
Mof_O 	O 	0.6642	0.6684	0.1773	-0.391
Mof_O 	O 	0.5413	0.6427	0.0753	-0.335
Mof_O 	O 	0.679	0.7086	0.0124	-0.114
Mof_O 	O 	0.6008	0.8726	0.1024	-0.109
Mof_P 	P 	0.3794	0.2834	0.0933	0.518
Mof_O 	O 	0.3358	0.3316	0.1773	-0.393
Mof_O 	O 	0.4587	0.3573	0.0753	-0.349
Mof_O 	O 	0.321	0.2914	0.0124	-0.133
Mof_O 	O 	0.3992	0.1274	0.1024	-0.173
Mof_P 	P 	0.3794	0.7834	0.5933	0.519
Mof_O 	O 	0.3358	0.8316	0.6773	-0.385
Mof_O 	O 	0.4587	0.8573	0.5753	-0.356
Mof_O 	O 	0.321	0.7914	0.5124	-0.166
Mof_O 	O 	0.3992	0.6274	0.6024	-0.17
Mof_P 	P 	0.8794	0.2834	0.5933	0.517
Mof_O 	O 	0.8358	0.3316	0.6773	-0.39
Mof_O 	O 	0.9587	0.3573	0.5753	-0.338
Mof_O 	O 	0.821	0.2914	0.5124	-0.178
Mof_O 	O 	0.8992	0.1274	0.6024	-0.168
Mof_P 	P 	0.8794	0.7834	0.0933	0.514
Mof_O 	O 	0.8358	0.8316	0.1773	-0.355
Mof_O 	O 	0.9587	0.8573	0.0753	-0.239
Mof_O 	O 	0.821	0.7914	0.0124	-0.099
Mof_O 	O 	0.8992	0.6274	0.1024	-0.111
Mof_Zn	Zn	1.41283e-32	1.0573e-32	0.9993	1.134
Mof_Zn	Zn	-3.51006e-33	0.5	0.4993	1.21
Mof_Zn	Zn	0.5	0	0.4993	1.217
Mof_Zn	Zn	0.5	0.5	0.9993	1.208
Mof_Zn	Zn	0.25	0.25	0.2493	1.248
Mof_Zn	Zn	0.25	0.75	0.7493	1.249
Mof_Zn	Zn	0.75	0.25	0.7493	1.247
Mof_Zn	Zn	0.75	0.75	0.2493	1.255
_end
