data_functionalizedCrystal
_audit_creation_method	'EQeq! by Chris Wilmer'
_symmetry_space_group_name_H-M	'P1'
_symmetry_Int_Tables_number	1
_symmetry_cell_setting	triclinic
loop_
_symmetry_equiv_pos_as_xyz
  x,y,z
_cell_length_a	7.0918
_cell_length_b	28.8888
_cell_length_c	19.0752
_cell_angle_alpha	90
_cell_angle_beta	90
_cell_angle_gamma	90
loop_
_atom_site_label
_atom_site_type_symbol
_atom_site_fract_x
_atom_site_fract_y
_atom_site_fract_z
_atom_site_charge
Mof_N 	N 	0.097	0.21746	0.42564	-0.229
Mof_C 	C 	0.15	0.19191	0.3729	0.104
Mof_H 	H 	0.2745	0.1858	0.3608	-0.032
Mof_C 	C 	0.158	0.0911	0.2015	0.021
Mof_H 	H 	0.2604	0.0723	0.191	0.034
Mof_C 	C 	0.161	0.1211	0.2615	-0.1
Mof_H 	H 	0.2676	0.1233	0.2895	0.055
Mof_C 	C 	0.142	0.1486	0.2314	-0.042
Mof_H 	H 	0.2371	0.1705	0.237	0.037
Mof_C 	C 	0.148	0.1177	0.1741	-0.033
Mof_H 	H 	0.251	0.1179	0.1441	0.045
Mof_O 	O 	0.1581	0.0468	0.0746	-0.448
Mof_N 	N 	0.597	0.71746	0.42564	-0.223
Mof_C 	C 	0.65	0.69191	0.3729	0.107
Mof_H 	H 	0.7745	0.6858	0.3608	-0.031
Mof_C 	C 	0.658	0.5911	0.2015	0.022
Mof_H 	H 	0.7604	0.5723	0.191	0.039
Mof_C 	C 	0.661	0.6211	0.2615	-0.1
Mof_H 	H 	0.7676	0.6233	0.2895	0.06
Mof_C 	C 	0.642	0.6486	0.2314	-0.044
Mof_H 	H 	0.7371	0.6705	0.237	0.041
Mof_C 	C 	0.648	0.6177	0.1741	-0.036
Mof_H 	H 	0.751	0.6179	0.1441	0.049
Mof_O 	O 	0.6581	0.5468	0.0746	-0.448
Mof_N 	N 	0.903	0.78254	0.42564	-0.22
Mof_C 	C 	0.85	0.80809	0.3729	0.125
Mof_H 	H 	0.7255	0.8142	0.3608	-0.037
Mof_C 	C 	0.842	0.9089	0.2015	0.026
Mof_H 	H 	0.7396	0.9277	0.191	0.043
Mof_C 	C 	0.839	0.8789	0.2615	-0.083
Mof_H 	H 	0.7324	0.8767	0.2895	0.056
Mof_C 	C 	0.858	0.8514	0.2314	-0.036
Mof_H 	H 	0.7629	0.8295	0.237	0.039
Mof_C 	C 	0.852	0.8823	0.1741	-0.022
Mof_H 	H 	0.749	0.8821	0.1441	0.045
Mof_O 	O 	0.8419	0.9532	0.0746	-0.416
Mof_N 	N 	0.403	0.28254	0.42564	-0.224
Mof_C 	C 	0.35	0.30809	0.3729	0.107
Mof_H 	H 	0.2255	0.3142	0.3608	-0.035
Mof_C 	C 	0.342	0.4089	0.2015	0.021
Mof_H 	H 	0.2396	0.4277	0.191	0.036
Mof_C 	C 	0.339	0.3789	0.2615	-0.1
Mof_H 	H 	0.2324	0.3767	0.2895	0.056
Mof_C 	C 	0.358	0.3514	0.2314	-0.043
Mof_H 	H 	0.2629	0.3295	0.237	0.037
Mof_C 	C 	0.352	0.3823	0.1741	-0.036
Mof_H 	H 	0.249	0.3821	0.1441	0.045
Mof_O 	O 	0.3419	0.4532	0.0746	-0.451
Mof_N 	N 	0.903	0.21746	0.57436	-0.22
Mof_C 	C 	0.85	0.19191	0.6271	0.124
Mof_H 	H 	0.7255	0.1858	0.6392	-0.036
Mof_C 	C 	0.842	0.0911	0.7985	0.016
Mof_H 	H 	0.7396	0.0723	0.809	0.042
Mof_C 	C 	0.839	0.1211	0.7385	-0.1
Mof_H 	H 	0.7324	0.1233	0.7105	0.059
Mof_C 	C 	0.858	0.1486	0.7686	-0.011
Mof_H 	H 	0.7629	0.1705	0.763	0.039
Mof_C 	C 	0.852	0.1177	0.8259	-0.02
Mof_H 	H 	0.749	0.1179	0.8559	0.065
Mof_O 	O 	0.8419	0.0468	0.9254	-0.369
Mof_N 	N 	0.403	0.71746	0.57436	-0.224
Mof_C 	C 	0.35	0.69191	0.6271	0.108
Mof_H 	H 	0.2255	0.6858	0.6392	-0.034
Mof_C 	C 	0.342	0.5911	0.7985	0.013
Mof_H 	H 	0.2396	0.5723	0.809	0.043
Mof_C 	C 	0.339	0.6211	0.7385	-0.109
Mof_H 	H 	0.2324	0.6233	0.7105	0.06
Mof_C 	C 	0.358	0.6486	0.7686	-0.023
Mof_H 	H 	0.2629	0.6705	0.763	0.039
Mof_C 	C 	0.352	0.6177	0.8259	-0.038
Mof_H 	H 	0.249	0.6179	0.8559	0.067
Mof_O 	O 	0.3419	0.5468	0.9254	-0.388
Mof_N 	N 	0.097	0.78254	0.57436	-0.229
Mof_C 	C 	0.15	0.80809	0.6271	0.106
Mof_H 	H 	0.2745	0.8142	0.6392	-0.03
Mof_C 	C 	0.158	0.9089	0.7985	0.013
Mof_H 	H 	0.2604	0.9277	0.809	0.048
Mof_C 	C 	0.161	0.8789	0.7385	-0.1
Mof_H 	H 	0.2676	0.8767	0.7105	0.06
Mof_C 	C 	0.142	0.8514	0.7686	-0.027
Mof_H 	H 	0.2371	0.8295	0.763	0.042
Mof_C 	C 	0.148	0.8823	0.8259	-0.04
Mof_H 	H 	0.251	0.8821	0.8559	0.069
Mof_O 	O 	0.1581	0.9532	0.9254	-0.368
Mof_N 	N 	0.597	0.28254	0.57436	-0.223
Mof_C 	C 	0.65	0.30809	0.6271	0.108
Mof_H 	H 	0.7745	0.3142	0.6392	-0.03
Mof_C 	C 	0.658	0.4089	0.7985	0.013
Mof_H 	H 	0.7604	0.4277	0.809	0.046
Mof_C 	C 	0.661	0.3789	0.7385	-0.109
Mof_H 	H 	0.7676	0.3767	0.7105	0.064
Mof_C 	C 	0.642	0.3514	0.7686	-0.024
Mof_H 	H 	0.7371	0.3295	0.763	0.043
Mof_C 	C 	0.648	0.3823	0.8259	-0.039
Mof_H 	H 	0.751	0.3821	0.8559	0.071
Mof_O 	O 	0.6581	0.4532	0.9254	-0.385
Mof_N 	N 	0.903	0.78254	0.57436	-0.219
Mof_C 	C 	0.85	0.80809	0.6271	0.126
Mof_H 	H 	0.7255	0.8142	0.6392	-0.035
Mof_C 	C 	0.842	0.9089	0.7985	0.018
Mof_H 	H 	0.7396	0.9277	0.809	0.049
Mof_C 	C 	0.839	0.8789	0.7385	-0.092
Mof_H 	H 	0.7324	0.8767	0.7105	0.06
Mof_C 	C 	0.858	0.8514	0.7686	-0.016
Mof_H 	H 	0.7629	0.8295	0.763	0.041
Mof_C 	C 	0.852	0.8823	0.8259	-0.024
Mof_H 	H 	0.749	0.8821	0.8559	0.067
Mof_O 	O 	0.8419	0.9532	0.9254	-0.353
Mof_N 	N 	0.403	0.28254	0.57436	-0.224
Mof_C 	C 	0.35	0.30809	0.6271	0.108
Mof_H 	H 	0.2255	0.3142	0.6392	-0.034
Mof_C 	C 	0.342	0.4089	0.7985	0.013
Mof_H 	H 	0.2396	0.4277	0.809	0.043
Mof_C 	C 	0.339	0.3789	0.7385	-0.109
Mof_H 	H 	0.2324	0.3767	0.7105	0.06
Mof_C 	C 	0.358	0.3514	0.7686	-0.023
Mof_H 	H 	0.2629	0.3295	0.763	0.039
Mof_C 	C 	0.352	0.3823	0.8259	-0.038
Mof_H 	H 	0.249	0.3821	0.8559	0.067
Mof_O 	O 	0.3419	0.4532	0.9254	-0.388
Mof_N 	N 	0.097	0.21746	0.57436	-0.229
Mof_C 	C 	0.15	0.19191	0.6271	0.104
Mof_H 	H 	0.2745	0.1858	0.6392	-0.031
Mof_C 	C 	0.158	0.0911	0.7985	0.012
Mof_H 	H 	0.2604	0.0723	0.809	0.041
Mof_C 	C 	0.161	0.1211	0.7385	-0.108
Mof_H 	H 	0.2676	0.1233	0.7105	0.059
Mof_C 	C 	0.142	0.1486	0.7686	-0.022
Mof_H 	H 	0.2371	0.1705	0.763	0.04
Mof_C 	C 	0.148	0.1177	0.8259	-0.036
Mof_H 	H 	0.251	0.1179	0.8559	0.067
Mof_O 	O 	0.1581	0.0468	0.9254	-0.384
Mof_N 	N 	0.597	0.71746	0.57436	-0.223
Mof_C 	C 	0.65	0.69191	0.6271	0.108
Mof_H 	H 	0.7745	0.6858	0.6392	-0.03
Mof_C 	C 	0.658	0.5911	0.7985	0.013
Mof_H 	H 	0.7604	0.5723	0.809	0.046
Mof_C 	C 	0.661	0.6211	0.7385	-0.109
Mof_H 	H 	0.7676	0.6233	0.7105	0.063
Mof_C 	C 	0.642	0.6486	0.7686	-0.024
Mof_H 	H 	0.7371	0.6705	0.763	0.043
Mof_C 	C 	0.648	0.6177	0.8259	-0.039
Mof_H 	H 	0.751	0.6179	0.8559	0.071
Mof_O 	O 	0.6581	0.5468	0.9254	-0.385
Mof_N 	N 	0.097	0.78254	0.42564	-0.229
Mof_C 	C 	0.15	0.80809	0.3729	0.105
Mof_H 	H 	0.2745	0.8142	0.3608	-0.032
Mof_C 	C 	0.158	0.9089	0.2015	0.022
Mof_H 	H 	0.2604	0.9277	0.191	0.042
Mof_C 	C 	0.161	0.8789	0.2615	-0.091
Mof_H 	H 	0.2676	0.8767	0.2895	0.056
Mof_C 	C 	0.142	0.8514	0.2314	-0.046
Mof_H 	H 	0.2371	0.8295	0.237	0.039
Mof_C 	C 	0.148	0.8823	0.1741	-0.037
Mof_H 	H 	0.251	0.8821	0.1441	0.047
Mof_O 	O 	0.1581	0.9532	0.0746	-0.43
Mof_N 	N 	0.597	0.28254	0.42564	-0.223
Mof_C 	C 	0.65	0.30809	0.3729	0.107
Mof_H 	H 	0.7745	0.3142	0.3608	-0.031
Mof_C 	C 	0.658	0.4089	0.2015	0.022
Mof_H 	H 	0.7604	0.4277	0.191	0.039
Mof_C 	C 	0.661	0.3789	0.2615	-0.1
Mof_H 	H 	0.7676	0.3767	0.2895	0.06
Mof_C 	C 	0.642	0.3514	0.2314	-0.044
Mof_H 	H 	0.7371	0.3295	0.237	0.041
Mof_C 	C 	0.648	0.3823	0.1741	-0.036
Mof_H 	H 	0.751	0.3821	0.1441	0.049
Mof_O 	O 	0.6581	0.4532	0.0746	-0.448
Mof_N 	N 	0.903	0.21746	0.42564	-0.22
Mof_C 	C 	0.85	0.19191	0.3729	0.123
Mof_H 	H 	0.7255	0.1858	0.3608	-0.038
Mof_C 	C 	0.842	0.0911	0.2015	0.025
Mof_H 	H 	0.7396	0.0723	0.191	0.036
Mof_C 	C 	0.839	0.1211	0.2615	-0.092
Mof_H 	H 	0.7324	0.1233	0.2895	0.055
Mof_C 	C 	0.858	0.1486	0.2314	-0.031
Mof_H 	H 	0.7629	0.1705	0.237	0.037
Mof_C 	C 	0.852	0.1177	0.1741	-0.017
Mof_H 	H 	0.749	0.1179	0.1441	0.042
Mof_O 	O 	0.8419	0.0468	0.0746	-0.433
Mof_N 	N 	0.403	0.71746	0.42564	-0.224
Mof_C 	C 	0.35	0.69191	0.3729	0.107
Mof_H 	H 	0.2255	0.6858	0.3608	-0.035
Mof_C 	C 	0.342	0.5911	0.2015	0.021
Mof_H 	H 	0.2396	0.5723	0.191	0.036
Mof_C 	C 	0.339	0.6211	0.2615	-0.1
Mof_H 	H 	0.2324	0.6233	0.2895	0.056
Mof_C 	C 	0.358	0.6486	0.2314	-0.043
Mof_H 	H 	0.2629	0.6705	0.237	0.037
Mof_C 	C 	0.352	0.6177	0.1741	-0.036
Mof_H 	H 	0.249	0.6179	0.1441	0.045
Mof_O 	O 	0.3419	0.5468	0.0746	-0.451
Mof_Cu	Cu	0.25	0.25	0.5	0.823
Mof_Cu	Cu	0.75	0.75	0.5	0.826
Mof_Cu	Cu	0.75	0.25	0.5	0.826
Mof_Cu	Cu	0.25	0.75	0.5	0.824
Mof_Cu	Cu	0.1881	0	-0	0.783
Mof_Cu	Cu	0.6881	0.5	-0	0.793
Mof_Cu	Cu	0.8119	0	-0	0.788
Mof_Cu	Cu	0.3119	0.5	-0	0.792
Mof_N 	N 	9.87724e-33	0.17595	0.3389	-0.174
Mof_C 	C 	1.57094e-32	0.1468	0.2767	0.098
Mof_C 	C 	1.61359e-33	0.0906	0.16	-0.076
Mof_C 	C 	9.1874e-34	0.056	0.0911	0.32
Mof_N 	N 	0.5	0.67595	0.3389	-0.168
Mof_C 	C 	0.5	0.6468	0.2767	0.121
Mof_C 	C 	0.5	0.5906	0.16	-0.054
Mof_C 	C 	0.5	0.556	0.0911	0.345
Mof_N 	N 	1.63367e-32	0.82405	0.3389	-0.174
Mof_C 	C 	-2.95067e-32	0.8532	0.2767	0.099
Mof_C 	C 	-1.61613e-33	0.9094	0.16	-0.068
Mof_C 	C 	-5.54071e-33	0.944	0.0911	0.318
Mof_N 	N 	0.5	0.32405	0.3389	-0.168
Mof_C 	C 	0.5	0.3532	0.2767	0.121
Mof_C 	C 	0.5	0.4094	0.16	-0.054
Mof_C 	C 	0.5	0.444	0.0911	0.345
Mof_N 	N 	-6.25172e-33	0.17595	0.6611	-0.173
Mof_C 	C 	-1.85433e-32	0.1468	0.7233	0.092
Mof_C 	C 	8.47137e-33	0.0906	0.84	-0.053
Mof_C 	C 	-1.66716e-32	0.056	0.9089	0.311
Mof_N 	N 	0.5	0.67595	0.6611	-0.166
Mof_C 	C 	0.5	0.6468	0.7233	0.116
Mof_C 	C 	0.5	0.5906	0.84	-0.031
Mof_C 	C 	0.5	0.556	0.9089	0.337
Mof_N 	N 	-4.50084e-32	0.82405	0.6611	-0.172
Mof_C 	C 	-1.85433e-32	0.8532	0.7233	0.093
Mof_C 	C 	3.43092e-32	0.9094	0.84	-0.046
Mof_C 	C 	-4.25094e-32	0.944	0.9089	0.309
Mof_N 	N 	0.5	0.32405	0.6611	-0.166
Mof_C 	C 	0.5	0.3532	0.7233	0.116
Mof_C 	C 	0.5	0.4094	0.84	-0.031
Mof_C 	C 	0.5	0.444	0.9089	0.337
Mof_Cl	Cl	0.5	0	-0	-0.59
Mof_Cl	Cl	-0	0.5	-0	-0.578
Mof_Cu	Cu	-0	0	-0	0.533
Mof_Cu	Cu	0.5	0.5	-0	0.548
_end
