data_functionalizedCrystal
_audit_creation_method	'EQeq! by Chris Wilmer'
_symmetry_space_group_name_H-M	'P1'
_symmetry_Int_Tables_number	1
_symmetry_cell_setting	triclinic
loop_
_symmetry_equiv_pos_as_xyz
  x,y,z
_cell_length_a	14.7097
_cell_length_b	21.832
_cell_length_c	26.719
_cell_angle_alpha	90
_cell_angle_beta	90
_cell_angle_gamma	90
loop_
_atom_site_label
_atom_site_type_symbol
_atom_site_fract_x
_atom_site_fract_y
_atom_site_fract_z
_atom_site_charge
Mof_Cu	Cu	0.75366	0.99866	0.46239	0.848
Mof_Cu	Cu	0.24634	0.49866	0.0376	0.848
Mof_Cu	Cu	0.25366	0.49866	0.53761	0.849
Mof_Cu	Cu	0.74634	0.99866	0.96239	0.849
Mof_H 	H 	0.765	0.875	0.51	-0.017
Mof_H 	H 	0.668	0.787	0.52	0.06
Mof_H 	H 	0.467	0.876	0.439	0.059
Mof_H 	H 	0.569	0.96	0.43	-0.019
Mof_H 	H 	0.499	0.742	0.458	0.06
Mof_H 	H 	0.429	0.787	0.488	0.057
Mof_H 	H 	0.496	0.76	0.566	0.055
Mof_H 	H 	0.572	0.719	0.537	0.054
Mof_H 	H 	0.542	0.619	0.567	0.057
Mof_H 	H 	0.443	0.531	0.567	-0.019
Mof_H 	H 	0.234	0.631	0.511	-0.017
Mof_H 	H 	0.326	0.723	0.513	0.058
Mof_H 	H 	0.614	0.998	0.544	-0.015
Mof_H 	H 	0.605	0.018	0.631	0.061
Mof_H 	H 	0.887	0.034	0.635	0.058
Mof_H 	H 	0.888	0.017	0.545	-0.013
Mof_H 	H 	0.797	0.066	0.707	0.059
Mof_H 	H 	0.686	0.062	0.706	0.061
Mof_H 	H 	0.805	0.958	0.716	0.061
Mof_H 	H 	0.694	0.954	0.715	0.061
Mof_H 	H 	0.771	0.08	0.786	0.057
Mof_H 	H 	0.769	0.084	0.876	-0.011
Mof_H 	H 	0.724	0.901	0.884	-0.011
Mof_H 	H 	0.721	0.893	0.795	0.057
Mof_H 	H 	0.235	0.375	0.99	-0.016
Mof_H 	H 	0.332	0.287	0.98	0.06
Mof_H 	H 	0.533	0.376	0.061	0.059
Mof_H 	H 	0.431	0.46	0.07	-0.019
Mof_H 	H 	0.501	0.242	0.042	0.06
Mof_H 	H 	0.571	0.287	0.012	0.057
Mof_H 	H 	0.504	0.26	0.934	0.055
Mof_H 	H 	0.428	0.219	0.963	0.054
Mof_H 	H 	0.458	0.119	0.933	0.057
Mof_H 	H 	0.557	0.031	0.933	-0.018
Mof_H 	H 	0.766	0.131	0.989	-0.017
Mof_H 	H 	0.674	0.223	0.987	0.058
Mof_H 	H 	0.386	0.498	0.956	-0.014
Mof_H 	H 	0.395	0.518	0.869	0.06
Mof_H 	H 	0.113	0.534	0.865	0.058
Mof_H 	H 	0.112	0.517	0.955	-0.013
Mof_H 	H 	0.203	0.566	0.793	0.059
Mof_H 	H 	0.314	0.562	0.794	0.061
Mof_H 	H 	0.195	0.458	0.784	0.062
Mof_H 	H 	0.306	0.454	0.785	0.061
Mof_H 	H 	0.229	0.58	0.714	0.058
Mof_H 	H 	0.231	0.584	0.624	-0.011
Mof_H 	H 	0.276	0.401	0.616	-0.011
Mof_H 	H 	0.279	0.393	0.705	0.058
Mof_H 	H 	0.265	0.375	0.49	-0.017
Mof_H 	H 	0.168	0.287	0.48	0.06
Mof_H 	H 	0.967	0.376	0.561	0.059
Mof_H 	H 	0.069	0.46	0.57	-0.019
Mof_H 	H 	0.999	0.242	0.542	0.059
Mof_H 	H 	0.929	0.287	0.512	0.056
Mof_H 	H 	0.996	0.26	0.434	0.056
Mof_H 	H 	0.072	0.219	0.463	0.054
Mof_H 	H 	0.042	0.119	0.433	0.056
Mof_H 	H 	0.943	0.031	0.433	-0.018
Mof_H 	H 	0.734	0.131	0.489	-0.017
Mof_H 	H 	0.826	0.223	0.487	0.059
Mof_H 	H 	0.114	0.498	0.456	-0.014
Mof_H 	H 	0.105	0.518	0.369	0.06
Mof_H 	H 	0.387	0.534	0.365	0.058
Mof_H 	H 	0.388	0.517	0.455	-0.013
Mof_H 	H 	0.297	0.566	0.293	0.059
Mof_H 	H 	0.186	0.562	0.294	0.061
Mof_H 	H 	0.305	0.458	0.284	0.061
Mof_H 	H 	0.194	0.454	0.285	0.061
Mof_H 	H 	0.271	0.58	0.214	0.058
Mof_H 	H 	0.269	0.584	0.124	-0.011
Mof_H 	H 	0.224	0.401	0.116	-0.011
Mof_H 	H 	0.221	0.393	0.205	0.058
Mof_H 	H 	0.735	0.875	0.01	-0.015
Mof_H 	H 	0.832	0.787	0.02	0.059
Mof_H 	H 	0.033	0.876	0.939	0.061
Mof_H 	H 	0.931	0.96	0.93	-0.02
Mof_H 	H 	0.001	0.742	0.958	0.059
Mof_H 	H 	0.071	0.787	0.988	0.056
Mof_H 	H 	0.004	0.76	0.066	0.055
Mof_H 	H 	0.928	0.719	0.037	0.054
Mof_H 	H 	0.958	0.619	0.067	0.057
Mof_H 	H 	0.057	0.531	0.067	-0.019
Mof_H 	H 	0.266	0.631	0.011	-0.017
Mof_H 	H 	0.174	0.723	0.013	0.059
Mof_H 	H 	0.886	0.998	0.044	-0.014
Mof_H 	H 	0.895	0.018	0.131	0.061
Mof_H 	H 	0.613	0.034	0.135	0.058
Mof_H 	H 	0.612	0.017	0.045	-0.013
Mof_H 	H 	0.703	0.066	0.207	0.059
Mof_H 	H 	0.814	0.062	0.206	0.061
Mof_H 	H 	0.695	0.958	0.216	0.062
Mof_H 	H 	0.806	0.954	0.215	0.061
Mof_H 	H 	0.729	0.08	0.286	0.058
Mof_H 	H 	0.731	0.084	0.376	-0.011
Mof_H 	H 	0.776	0.901	0.384	-0.011
Mof_H 	H 	0.779	0.893	0.295	0.058
Mof_C 	C 	0.7018	0.8749	0.49409	0.061
Mof_C 	C 	0.6457	0.8236	0.5008	-0.132
Mof_C 	C 	0.5585	0.8236	0.48125	0.091
Mof_C 	C 	0.5305	0.8747	0.45435	-0.137
Mof_C 	C 	0.5914	0.9231	0.44814	0.068
Mof_C 	C 	0.4936	0.7706	0.48802	-0.132
Mof_C 	C 	0.5064	0.7329	0.5348	-0.123
Mof_C 	C 	0.4437	0.6784	0.53798	0.087
Mof_C 	C 	0.4765	0.6228	0.55534	-0.132
Mof_C 	C 	0.4179	0.5723	0.55627	0.061
Mof_C 	C 	0.2992	0.6285	0.52407	0.06
Mof_C 	C 	0.3532	0.6826	0.5238	-0.128
Mof_C 	C 	0.6713	0.0061	0.56281	0.062
Mof_C 	C 	0.6665	0.0178	0.61386	-0.133
Mof_C 	C 	0.7454	0.0279	0.6412	0.09
Mof_C 	C 	0.8275	0.0267	0.61616	-0.126
Mof_C 	C 	0.8279	0.0172	0.56346	0.055
Mof_C 	C 	0.7437	0.0398	0.69704	-0.133
Mof_C 	C 	0.7471	0.98	0.72558	-0.133
Mof_C 	C 	0.7456	0.9862	0.78213	0.086
Mof_C 	C 	0.7599	0.041	0.80688	-0.125
Mof_C 	C 	0.7594	0.0428	0.85857	0.063
Mof_C 	C 	0.7342	0.9398	0.86308	0.062
Mof_C 	C 	0.7322	0.9346	0.81185	-0.13
Mof_C 	C 	0.2982	0.3749	0.00591	0.059
Mof_C 	C 	0.3543	0.3236	0.9992	-0.13
Mof_C 	C 	0.4415	0.3236	0.01875	0.09
Mof_C 	C 	0.4695	0.3747	0.04565	-0.136
Mof_C 	C 	0.4086	0.4231	0.05186	0.068
Mof_C 	C 	0.5064	0.2706	0.01198	-0.132
Mof_C 	C 	0.4936	0.2329	0.9652	-0.123
Mof_C 	C 	0.5563	0.1784	0.96202	0.087
Mof_C 	C 	0.5235	0.1228	0.94466	-0.132
Mof_C 	C 	0.5821	0.0723	0.94373	0.061
Mof_C 	C 	0.7008	0.1285	0.97593	0.061
Mof_C 	C 	0.6468	0.1826	0.9762	-0.128
Mof_C 	C 	0.3287	0.5061	0.93719	0.061
Mof_C 	C 	0.3335	0.5178	0.88614	-0.133
Mof_C 	C 	0.2546	0.5279	0.8588	0.09
Mof_C 	C 	0.1725	0.5267	0.88384	-0.126
Mof_C 	C 	0.1721	0.5172	0.93654	0.055
Mof_C 	C 	0.2563	0.5398	0.80296	-0.134
Mof_C 	C 	0.2529	0.48	0.77442	-0.133
Mof_C 	C 	0.2544	0.4862	0.71787	0.087
Mof_C 	C 	0.2401	0.541	0.69312	-0.126
Mof_C 	C 	0.2406	0.5428	0.64143	0.062
Mof_C 	C 	0.2658	0.4398	0.63692	0.062
Mof_C 	C 	0.2678	0.4346	0.68815	-0.13
Mof_C 	C 	0.2018	0.3749	0.50591	0.061
Mof_C 	C 	0.1457	0.3236	0.4992	-0.131
Mof_C 	C 	0.0585	0.3236	0.51875	0.09
Mof_C 	C 	0.0305	0.3747	0.54565	-0.137
Mof_C 	C 	0.0914	0.4231	0.55186	0.068
Mof_C 	C 	0.9936	0.2706	0.51198	-0.129
Mof_C 	C 	0.0064	0.2329	0.4652	-0.127
Mof_C 	C 	0.9437	0.1784	0.46202	0.088
Mof_C 	C 	0.9765	0.1228	0.44466	-0.131
Mof_C 	C 	0.9179	0.0723	0.44373	0.06
Mof_C 	C 	0.7992	0.1285	0.47593	0.061
Mof_C 	C 	0.8532	0.1826	0.4762	-0.128
Mof_C 	C 	0.1713	0.5061	0.43719	0.061
Mof_C 	C 	0.1665	0.5178	0.38614	-0.133
Mof_C 	C 	0.2454	0.5279	0.3588	0.09
Mof_C 	C 	0.3275	0.5267	0.38384	-0.126
Mof_C 	C 	0.3279	0.5172	0.43654	0.055
Mof_C 	C 	0.2437	0.5398	0.30296	-0.134
Mof_C 	C 	0.2471	0.48	0.27442	-0.133
Mof_C 	C 	0.2456	0.4862	0.21787	0.087
Mof_C 	C 	0.2599	0.541	0.19312	-0.126
Mof_C 	C 	0.2594	0.5428	0.14143	0.062
Mof_C 	C 	0.2342	0.4398	0.13692	0.062
Mof_C 	C 	0.2322	0.4346	0.18815	-0.13
Mof_C 	C 	0.7982	0.8749	0.99409	0.057
Mof_C 	C 	0.8543	0.8236	0.0008	-0.127
Mof_C 	C 	0.9415	0.8236	0.98125	0.087
Mof_C 	C 	0.9695	0.8747	0.95435	-0.138
Mof_C 	C 	0.9086	0.9231	0.94814	0.068
Mof_C 	C 	0.0064	0.7706	0.98802	-0.128
Mof_C 	C 	0.9936	0.7329	0.0348	-0.125
Mof_C 	C 	0.0563	0.6784	0.03798	0.088
Mof_C 	C 	0.0235	0.6228	0.05534	-0.134
Mof_C 	C 	0.0821	0.5723	0.05627	0.061
Mof_C 	C 	0.2008	0.6285	0.02407	0.061
Mof_C 	C 	0.1468	0.6826	0.0238	-0.128
Mof_C 	C 	0.8287	0.0061	0.06281	0.062
Mof_C 	C 	0.8335	0.0178	0.11386	-0.133
Mof_C 	C 	0.7546	0.0279	0.1412	0.091
Mof_C 	C 	0.6725	0.0267	0.11616	-0.126
Mof_C 	C 	0.6721	0.0172	0.06346	0.055
Mof_C 	C 	0.7563	0.0398	0.19704	-0.134
Mof_C 	C 	0.7529	0.98	0.22558	-0.133
Mof_C 	C 	0.7544	0.9862	0.28213	0.087
Mof_C 	C 	0.7401	0.041	0.30688	-0.126
Mof_C 	C 	0.7406	0.0428	0.35857	0.062
Mof_C 	C 	0.7658	0.9398	0.36308	0.062
Mof_C 	C 	0.7678	0.9346	0.31185	-0.13
Mof_N 	N 	0.6747	0.92312	0.46685	-0.238
Mof_N 	N 	0.3313	0.57589	0.54136	-0.234
Mof_N 	N 	0.7505	0.00716	0.53783	-0.235
Mof_N 	N 	0.7467	0.99316	0.88688	-0.238
Mof_N 	N 	0.3253	0.42312	0.03315	-0.238
Mof_N 	N 	0.6687	0.07589	0.95864	-0.234
Mof_N 	N 	0.2495	0.50716	0.96217	-0.235
Mof_N 	N 	0.2533	0.49316	0.61312	-0.238
Mof_N 	N 	0.1747	0.42312	0.53315	-0.238
Mof_N 	N 	0.8313	0.07589	0.45864	-0.234
Mof_N 	N 	0.2505	0.50716	0.46217	-0.235
Mof_N 	N 	0.2467	0.49316	0.11312	-0.238
Mof_N 	N 	0.8253	0.92312	0.96685	-0.238
Mof_N 	N 	0.1687	0.57589	0.04136	-0.234
Mof_N 	N 	0.7495	0.00716	0.03783	-0.235
Mof_N 	N 	0.7533	0.99316	0.38688	-0.238
Mof_Cu	Cu	0.74634	0.50134	0.46239	0.849
Mof_Cu	Cu	0.25366	0.00134	0.0376	0.849
Mof_Cu	Cu	0.24634	0.00134	0.53761	0.849
Mof_Cu	Cu	0.75366	0.50134	0.96239	0.849
Mof_H 	H 	0.735	0.625	0.51	-0.017
Mof_H 	H 	0.832	0.713	0.52	0.06
Mof_H 	H 	0.033	0.624	0.439	0.059
Mof_H 	H 	0.931	0.54	0.43	-0.019
Mof_H 	H 	0.001	0.758	0.458	0.059
Mof_H 	H 	0.071	0.713	0.488	0.056
Mof_H 	H 	0.004	0.74	0.566	0.056
Mof_H 	H 	0.928	0.781	0.537	0.054
Mof_H 	H 	0.958	0.881	0.567	0.056
Mof_H 	H 	0.057	0.969	0.567	-0.018
Mof_H 	H 	0.266	0.869	0.511	-0.017
Mof_H 	H 	0.174	0.777	0.513	0.059
Mof_H 	H 	0.886	0.502	0.544	-0.014
Mof_H 	H 	0.895	0.482	0.631	0.06
Mof_H 	H 	0.613	0.466	0.635	0.058
Mof_H 	H 	0.612	0.483	0.545	-0.013
Mof_H 	H 	0.703	0.434	0.707	0.059
Mof_H 	H 	0.814	0.438	0.706	0.061
Mof_H 	H 	0.695	0.542	0.716	0.061
Mof_H 	H 	0.806	0.546	0.715	0.061
Mof_H 	H 	0.729	0.42	0.786	0.058
Mof_H 	H 	0.731	0.416	0.876	-0.011
Mof_H 	H 	0.776	0.599	0.884	-0.011
Mof_H 	H 	0.779	0.607	0.795	0.058
Mof_H 	H 	0.265	0.125	0.99	-0.015
Mof_H 	H 	0.168	0.213	0.98	0.059
Mof_H 	H 	0.967	0.124	0.061	0.061
Mof_H 	H 	0.069	0.04	0.07	-0.02
Mof_H 	H 	0.999	0.258	0.042	0.059
Mof_H 	H 	0.929	0.213	0.012	0.056
Mof_H 	H 	0.996	0.24	0.934	0.055
Mof_H 	H 	0.072	0.281	0.963	0.054
Mof_H 	H 	0.042	0.381	0.933	0.057
Mof_H 	H 	0.943	0.469	0.933	-0.019
Mof_H 	H 	0.734	0.369	0.989	-0.017
Mof_H 	H 	0.826	0.277	0.987	0.059
Mof_H 	H 	0.114	0.002	0.956	-0.014
Mof_H 	H 	0.105	0.982	0.869	0.061
Mof_H 	H 	0.387	0.966	0.865	0.058
Mof_H 	H 	0.388	0.983	0.955	-0.013
Mof_H 	H 	0.297	0.934	0.793	0.059
Mof_H 	H 	0.186	0.938	0.794	0.061
Mof_H 	H 	0.305	0.042	0.784	0.062
Mof_H 	H 	0.194	0.046	0.785	0.061
Mof_H 	H 	0.271	0.92	0.714	0.058
Mof_H 	H 	0.269	0.916	0.624	-0.011
Mof_H 	H 	0.224	0.099	0.616	-0.011
Mof_H 	H 	0.221	0.107	0.705	0.058
Mof_H 	H 	0.235	0.125	0.49	-0.017
Mof_H 	H 	0.332	0.213	0.48	0.06
Mof_H 	H 	0.533	0.124	0.561	0.059
Mof_H 	H 	0.431	0.04	0.57	-0.019
Mof_H 	H 	0.501	0.258	0.542	0.06
Mof_H 	H 	0.571	0.213	0.512	0.057
Mof_H 	H 	0.504	0.24	0.434	0.055
Mof_H 	H 	0.428	0.281	0.463	0.054
Mof_H 	H 	0.458	0.381	0.433	0.057
Mof_H 	H 	0.557	0.469	0.433	-0.019
Mof_H 	H 	0.766	0.369	0.489	-0.017
Mof_H 	H 	0.674	0.277	0.487	0.058
Mof_H 	H 	0.386	0.002	0.456	-0.015
Mof_H 	H 	0.395	0.982	0.369	0.061
Mof_H 	H 	0.113	0.966	0.365	0.058
Mof_H 	H 	0.112	0.983	0.455	-0.013
Mof_H 	H 	0.203	0.934	0.293	0.059
Mof_H 	H 	0.314	0.938	0.294	0.061
Mof_H 	H 	0.195	0.042	0.284	0.061
Mof_H 	H 	0.306	0.046	0.285	0.061
Mof_H 	H 	0.229	0.92	0.214	0.057
Mof_H 	H 	0.231	0.916	0.124	-0.011
Mof_H 	H 	0.276	0.099	0.116	-0.011
Mof_H 	H 	0.279	0.107	0.205	0.057
Mof_H 	H 	0.765	0.625	0.01	-0.016
Mof_H 	H 	0.668	0.713	0.02	0.06
Mof_H 	H 	0.467	0.624	0.939	0.059
Mof_H 	H 	0.569	0.54	0.93	-0.019
Mof_H 	H 	0.499	0.758	0.958	0.06
Mof_H 	H 	0.429	0.713	0.988	0.057
Mof_H 	H 	0.496	0.74	0.066	0.055
Mof_H 	H 	0.572	0.781	0.037	0.054
Mof_H 	H 	0.542	0.881	0.067	0.057
Mof_H 	H 	0.443	0.969	0.067	-0.018
Mof_H 	H 	0.234	0.869	0.011	-0.017
Mof_H 	H 	0.326	0.777	0.013	0.058
Mof_H 	H 	0.614	0.502	0.044	-0.014
Mof_H 	H 	0.605	0.482	0.131	0.06
Mof_H 	H 	0.887	0.466	0.135	0.058
Mof_H 	H 	0.888	0.483	0.045	-0.013
Mof_H 	H 	0.797	0.434	0.207	0.059
Mof_H 	H 	0.686	0.438	0.206	0.061
Mof_H 	H 	0.805	0.542	0.216	0.062
Mof_H 	H 	0.694	0.546	0.215	0.061
Mof_H 	H 	0.771	0.42	0.286	0.058
Mof_H 	H 	0.769	0.416	0.376	-0.011
Mof_H 	H 	0.724	0.599	0.384	-0.011
Mof_H 	H 	0.721	0.607	0.295	0.058
Mof_C 	C 	0.7982	0.6251	0.49409	0.061
Mof_C 	C 	0.8543	0.6764	0.5008	-0.131
Mof_C 	C 	0.9415	0.6764	0.48125	0.09
Mof_C 	C 	0.9695	0.6253	0.45435	-0.137
Mof_C 	C 	0.9086	0.5769	0.44814	0.068
Mof_C 	C 	0.0064	0.7294	0.48802	-0.129
Mof_C 	C 	0.9936	0.7671	0.5348	-0.127
Mof_C 	C 	0.0563	0.8216	0.53798	0.088
Mof_C 	C 	0.0235	0.8772	0.55534	-0.131
Mof_C 	C 	0.0821	0.9277	0.55627	0.06
Mof_C 	C 	0.2008	0.8715	0.52407	0.061
Mof_C 	C 	0.1468	0.8174	0.5238	-0.128
Mof_C 	C 	0.8287	0.4939	0.56281	0.061
Mof_C 	C 	0.8335	0.4822	0.61386	-0.133
Mof_C 	C 	0.7546	0.4721	0.6412	0.09
Mof_C 	C 	0.6725	0.4733	0.61616	-0.126
Mof_C 	C 	0.6721	0.4828	0.56346	0.055
Mof_C 	C 	0.7563	0.4602	0.69704	-0.134
Mof_C 	C 	0.7529	0.52	0.72558	-0.133
Mof_C 	C 	0.7544	0.5138	0.78213	0.087
Mof_C 	C 	0.7401	0.459	0.80688	-0.126
Mof_C 	C 	0.7406	0.4572	0.85857	0.062
Mof_C 	C 	0.7658	0.5602	0.86308	0.062
Mof_C 	C 	0.7678	0.5654	0.81185	-0.13
Mof_C 	C 	0.2018	0.1251	0.00591	0.057
Mof_C 	C 	0.1457	0.1764	0.9992	-0.127
Mof_C 	C 	0.0585	0.1764	0.01875	0.087
Mof_C 	C 	0.0305	0.1253	0.04565	-0.138
Mof_C 	C 	0.0914	0.0769	0.05186	0.068
Mof_C 	C 	0.9936	0.2294	0.01198	-0.128
Mof_C 	C 	0.0064	0.2671	0.9652	-0.125
Mof_C 	C 	0.9437	0.3216	0.96202	0.088
Mof_C 	C 	0.9765	0.3772	0.94466	-0.134
Mof_C 	C 	0.9179	0.4277	0.94373	0.061
Mof_C 	C 	0.7992	0.3715	0.97593	0.061
Mof_C 	C 	0.8532	0.3174	0.9762	-0.128
Mof_C 	C 	0.1713	0.9939	0.93719	0.062
Mof_C 	C 	0.1665	0.9822	0.88614	-0.133
Mof_C 	C 	0.2454	0.9721	0.8588	0.091
Mof_C 	C 	0.3275	0.9733	0.88384	-0.126
Mof_C 	C 	0.3279	0.9828	0.93654	0.055
Mof_C 	C 	0.2437	0.9602	0.80296	-0.134
Mof_C 	C 	0.2471	0.02	0.77442	-0.133
Mof_C 	C 	0.2456	0.0138	0.71787	0.087
Mof_C 	C 	0.2599	0.959	0.69312	-0.126
Mof_C 	C 	0.2594	0.9572	0.64143	0.062
Mof_C 	C 	0.2342	0.0602	0.63692	0.062
Mof_C 	C 	0.2322	0.0654	0.68815	-0.13
Mof_C 	C 	0.2982	0.1251	0.50591	0.061
Mof_C 	C 	0.3543	0.1764	0.4992	-0.132
Mof_C 	C 	0.4415	0.1764	0.51875	0.091
Mof_C 	C 	0.4695	0.1253	0.54565	-0.137
Mof_C 	C 	0.4086	0.0769	0.55186	0.068
Mof_C 	C 	0.5064	0.2294	0.51198	-0.132
Mof_C 	C 	0.4936	0.2671	0.4652	-0.123
Mof_C 	C 	0.5563	0.3216	0.46202	0.087
Mof_C 	C 	0.5235	0.3772	0.44466	-0.132
Mof_C 	C 	0.5821	0.4277	0.44373	0.061
Mof_C 	C 	0.7008	0.3715	0.47593	0.06
Mof_C 	C 	0.6468	0.3174	0.4762	-0.128
Mof_C 	C 	0.3287	0.9939	0.43719	0.062
Mof_C 	C 	0.3335	0.9822	0.38614	-0.133
Mof_C 	C 	0.2546	0.9721	0.3588	0.09
Mof_C 	C 	0.1725	0.9733	0.38384	-0.126
Mof_C 	C 	0.1721	0.9828	0.43654	0.055
Mof_C 	C 	0.2563	0.9602	0.30296	-0.133
Mof_C 	C 	0.2529	0.02	0.27442	-0.133
Mof_C 	C 	0.2544	0.0138	0.21787	0.086
Mof_C 	C 	0.2401	0.959	0.19312	-0.125
Mof_C 	C 	0.2406	0.9572	0.14143	0.063
Mof_C 	C 	0.2658	0.0602	0.13692	0.062
Mof_C 	C 	0.2678	0.0654	0.18815	-0.13
Mof_C 	C 	0.7018	0.6251	0.99409	0.059
Mof_C 	C 	0.6457	0.6764	0.0008	-0.13
Mof_C 	C 	0.5585	0.6764	0.98125	0.09
Mof_C 	C 	0.5305	0.6253	0.95435	-0.136
Mof_C 	C 	0.5914	0.5769	0.94814	0.068
Mof_C 	C 	0.4936	0.7294	0.98802	-0.132
Mof_C 	C 	0.5064	0.7671	0.0348	-0.123
Mof_C 	C 	0.4437	0.8216	0.03798	0.087
Mof_C 	C 	0.4765	0.8772	0.05534	-0.132
Mof_C 	C 	0.4179	0.9277	0.05627	0.061
Mof_C 	C 	0.2992	0.8715	0.02407	0.061
Mof_C 	C 	0.3532	0.8174	0.0238	-0.128
Mof_C 	C 	0.6713	0.4939	0.06281	0.061
Mof_C 	C 	0.6665	0.4822	0.11386	-0.133
Mof_C 	C 	0.7454	0.4721	0.1412	0.09
Mof_C 	C 	0.8275	0.4733	0.11616	-0.126
Mof_C 	C 	0.8279	0.4828	0.06346	0.055
Mof_C 	C 	0.7437	0.4602	0.19704	-0.134
Mof_C 	C 	0.7471	0.52	0.22558	-0.133
Mof_C 	C 	0.7456	0.5138	0.28213	0.087
Mof_C 	C 	0.7599	0.459	0.30688	-0.126
Mof_C 	C 	0.7594	0.4572	0.35857	0.062
Mof_C 	C 	0.7342	0.5602	0.36308	0.062
Mof_C 	C 	0.7322	0.5654	0.31185	-0.13
Mof_N 	N 	0.8253	0.57688	0.46685	-0.238
Mof_N 	N 	0.1687	0.92411	0.54136	-0.234
Mof_N 	N 	0.7495	0.49284	0.53783	-0.235
Mof_N 	N 	0.7533	0.50684	0.88688	-0.238
Mof_N 	N 	0.1747	0.07688	0.03315	-0.238
Mof_N 	N 	0.8313	0.42411	0.95864	-0.234
Mof_N 	N 	0.2505	0.99284	0.96217	-0.235
Mof_N 	N 	0.2467	0.00684	0.61312	-0.238
Mof_N 	N 	0.3253	0.07688	0.53315	-0.238
Mof_N 	N 	0.6687	0.42411	0.45864	-0.234
Mof_N 	N 	0.2495	0.99284	0.46217	-0.235
Mof_N 	N 	0.2533	0.00684	0.11312	-0.238
Mof_N 	N 	0.6747	0.57688	0.96685	-0.238
Mof_N 	N 	0.3313	0.92411	0.04136	-0.234
Mof_N 	N 	0.7505	0.49284	0.03783	-0.235
Mof_N 	N 	0.7467	0.50684	0.38688	-0.238
_end
