data_functionalizedCrystal
_audit_creation_method	'EQeq! by Chris Wilmer'
_symmetry_space_group_name_H-M	'P1'
_symmetry_Int_Tables_number	1
_symmetry_cell_setting	triclinic
loop_
_symmetry_equiv_pos_as_xyz
  x,y,z
_cell_length_a	29.3187
_cell_length_b	29.3187
_cell_length_c	29.3187
_cell_angle_alpha	90
_cell_angle_beta	90
_cell_angle_gamma	90
loop_
_atom_site_label
_atom_site_type_symbol
_atom_site_fract_x
_atom_site_fract_y
_atom_site_fract_z
_atom_site_charge
Mof_N 	N 	0.4623	0.1118	0.262	-0.716
Mof_N 	N 	0.47707	0.1268	0.3026	-0.108
Mof_N 	N 	0.3806	0.1415	0.1944	-0.324
Mof_C 	C 	0.3648	0.123	0.1555	-0.073
Mof_H 	H 	0.3554	0.0929	0.1517	-0.021
Mof_H 	H 	0.4258	0.2371	0.198	0.044
Mof_H 	H 	0.3436	0.2499	0.2079	-0.059
Mof_H 	H 	0.4037	0.2504	0.2877	0.224
Mof_H 	H 	0.5309	0.0833	0.1842	1.034
Mof_H 	H 	0.4843	0.1079	0.1751	1.009
Mof_H 	H 	0.4848	0.0578	0.1936	1.025
Mof_N 	N 	0.9623	0.6118	0.762	-0.296
Mof_N 	N 	0.97707	0.6268	0.8026	-0.161
Mof_N 	N 	0.8806	0.6415	0.6944	-0.303
Mof_C 	C 	0.8648	0.623	0.6555	-0.016
Mof_H 	H 	0.8554	0.5929	0.6517	-0.011
Mof_H 	H 	0.9258	0.7371	0.698	0.086
Mof_H 	H 	0.8436	0.7499	0.7079	-0.063
Mof_H 	H 	0.9037	0.7504	0.7877	0.202
Mof_H 	H 	0.0309	0.5833	0.6842	-0.088
Mof_H 	H 	0.9843	0.6079	0.6751	-0.098
Mof_H 	H 	0.9848	0.5578	0.6936	-0.171
Mof_N 	N 	0.5377	0.8882	0.262	-0.583
Mof_N 	N 	0.52293	0.8732	0.3026	-0.074
Mof_N 	N 	0.6194	0.8585	0.1944	-0.325
Mof_C 	C 	0.6352	0.877	0.1555	-0.064
Mof_H 	H 	0.6446	0.9071	0.1517	-0.033
Mof_H 	H 	0.5742	0.7629	0.198	0.057
Mof_H 	H 	0.6564	0.7501	0.2079	-0.064
Mof_H 	H 	0.5963	0.7496	0.2877	0.227
Mof_H 	H 	0.4691	0.9167	0.1842	0.81
Mof_H 	H 	0.5157	0.8921	0.1751	0.797
Mof_H 	H 	0.5152	0.9422	0.1936	0.808
Mof_N 	N 	0.0377	0.3882	0.762	-1.037
Mof_N 	N 	0.02293	0.3732	0.8026	-0.117
Mof_N 	N 	0.1194	0.3585	0.6944	-0.334
Mof_C 	C 	0.1352	0.377	0.6555	-0.095
Mof_H 	H 	0.1446	0.4071	0.6517	-0.011
Mof_H 	H 	0.0742	0.2629	0.698	0.103
Mof_H 	H 	0.1564	0.2501	0.7079	-0.073
Mof_H 	H 	0.0963	0.2496	0.7877	0.243
Mof_H 	H 	0.9691	0.4167	0.6842	1.805
Mof_H 	H 	0.0157	0.3921	0.6751	1.92
Mof_H 	H 	0.0152	0.4422	0.6936	1.839
Mof_N 	N 	0.5377	0.1118	0.738	-0.62
Mof_N 	N 	0.52293	0.1268	0.6974	-0.113
Mof_N 	N 	0.6194	0.1415	0.8056	-0.322
Mof_C 	C 	0.6352	0.123	0.8445	-0.066
Mof_H 	H 	0.6446	0.0929	0.8483	-0.024
Mof_H 	H 	0.5742	0.2371	0.802	0.057
Mof_H 	H 	0.6564	0.2499	0.7921	-0.064
Mof_H 	H 	0.5963	0.2504	0.7123	0.227
Mof_H 	H 	0.4691	0.0833	0.8158	0.831
Mof_H 	H 	0.5157	0.1079	0.8249	0.818
Mof_H 	H 	0.5152	0.0578	0.8064	0.825
Mof_N 	N 	0.0377	0.6118	0.238	0.145
Mof_N 	N 	0.02293	0.6268	0.1974	-0.114
Mof_N 	N 	0.1194	0.6415	0.3056	-0.287
Mof_C 	C 	0.1352	0.623	0.3445	0.032
Mof_H 	H 	0.1446	0.5929	0.3483	-0.006
Mof_H 	H 	0.0742	0.7371	0.302	0.079
Mof_H 	H 	0.1564	0.7499	0.2921	-0.073
Mof_H 	H 	0.0963	0.7504	0.2123	0.246
Mof_H 	H 	0.9691	0.5833	0.3158	-1.085
Mof_H 	H 	0.0157	0.6079	0.3249	-1.124
Mof_H 	H 	0.0152	0.5578	0.3064	-1.077
Mof_N 	N 	0.4623	0.8882	0.738	-0.574
Mof_N 	N 	0.47707	0.8732	0.6974	-0.152
Mof_N 	N 	0.3806	0.8585	0.8056	-0.316
Mof_C 	C 	0.3648	0.877	0.8445	-0.054
Mof_H 	H 	0.3554	0.9071	0.8483	-0.032
Mof_H 	H 	0.4258	0.7629	0.802	0.067
Mof_H 	H 	0.3436	0.7501	0.7921	-0.066
Mof_H 	H 	0.4037	0.7496	0.7123	0.229
Mof_H 	H 	0.5309	0.9167	0.8158	0.606
Mof_H 	H 	0.4843	0.8921	0.8249	0.603
Mof_H 	H 	0.4848	0.9422	0.8064	0.561
Mof_N 	N 	0.9623	0.3882	0.238	-0.635
Mof_N 	N 	0.97707	0.3732	0.1974	-0.17
Mof_N 	N 	0.8806	0.3585	0.3056	-0.317
Mof_C 	C 	0.8648	0.377	0.3445	-0.053
Mof_H 	H 	0.8554	0.4071	0.3483	-0.012
Mof_H 	H 	0.9258	0.2629	0.302	0.048
Mof_H 	H 	0.8436	0.2501	0.2921	-0.057
Mof_H 	H 	0.9037	0.2496	0.2123	0.209
Mof_H 	H 	0.0309	0.4167	0.3158	0.728
Mof_H 	H 	0.9843	0.3921	0.3249	0.684
Mof_H 	H 	0.9848	0.4422	0.3064	0.719
Mof_N 	N 	0.262	0.4623	0.1118	-0.717
Mof_N 	N 	0.3026	0.47707	0.1268	-0.109
Mof_N 	N 	0.1944	0.3806	0.1415	-0.325
Mof_C 	C 	0.1555	0.3648	0.123	-0.073
Mof_H 	H 	0.1517	0.3554	0.0929	-0.021
Mof_H 	H 	0.198	0.4258	0.2371	0.044
Mof_H 	H 	0.2079	0.3436	0.2499	-0.059
Mof_H 	H 	0.2877	0.4037	0.2504	0.224
Mof_H 	H 	0.1842	0.5309	0.0833	1.034
Mof_H 	H 	0.1751	0.4843	0.1079	1.009
Mof_H 	H 	0.1936	0.4848	0.0578	1.025
Mof_N 	N 	0.762	0.9623	0.6118	-0.296
Mof_N 	N 	0.8026	0.97707	0.6268	-0.161
Mof_N 	N 	0.6944	0.8806	0.6415	-0.303
Mof_C 	C 	0.6555	0.8648	0.623	-0.016
Mof_H 	H 	0.6517	0.8554	0.5929	-0.011
Mof_H 	H 	0.698	0.9258	0.7371	0.086
Mof_H 	H 	0.7079	0.8436	0.7499	-0.063
Mof_H 	H 	0.7877	0.9037	0.7504	0.202
Mof_H 	H 	0.6842	0.0309	0.5833	-0.088
Mof_H 	H 	0.6751	0.9843	0.6079	-0.098
Mof_H 	H 	0.6936	0.9848	0.5578	-0.171
Mof_N 	N 	0.262	0.5377	0.8882	-0.583
Mof_N 	N 	0.3026	0.52293	0.8732	-0.074
Mof_N 	N 	0.1944	0.6194	0.8585	-0.325
Mof_C 	C 	0.1555	0.6352	0.877	-0.064
Mof_H 	H 	0.1517	0.6446	0.9071	-0.033
Mof_H 	H 	0.198	0.5742	0.7629	0.057
Mof_H 	H 	0.2079	0.6564	0.7501	-0.064
Mof_H 	H 	0.2877	0.5963	0.7496	0.227
Mof_H 	H 	0.1842	0.4691	0.9167	0.81
Mof_H 	H 	0.1751	0.5157	0.8921	0.797
Mof_H 	H 	0.1936	0.5152	0.9422	0.808
Mof_N 	N 	0.762	0.0377	0.3882	-1.037
Mof_N 	N 	0.8026	0.02293	0.3732	-0.117
Mof_N 	N 	0.6944	0.1194	0.3585	-0.334
Mof_C 	C 	0.6555	0.1352	0.377	-0.095
Mof_H 	H 	0.6517	0.1446	0.4071	-0.011
Mof_H 	H 	0.698	0.0742	0.2629	0.103
Mof_H 	H 	0.7079	0.1564	0.2501	-0.073
Mof_H 	H 	0.7877	0.0963	0.2496	0.243
Mof_H 	H 	0.6842	0.9691	0.4167	1.805
Mof_H 	H 	0.6751	0.0157	0.3921	1.92
Mof_H 	H 	0.6936	0.0152	0.4422	1.839
Mof_N 	N 	0.738	0.5377	0.1118	-0.62
Mof_N 	N 	0.6974	0.52293	0.1268	-0.113
Mof_N 	N 	0.8056	0.6194	0.1415	-0.322
Mof_C 	C 	0.8445	0.6352	0.123	-0.066
Mof_H 	H 	0.8483	0.6446	0.0929	-0.024
Mof_H 	H 	0.802	0.5742	0.2371	0.057
Mof_H 	H 	0.7921	0.6564	0.2499	-0.064
Mof_H 	H 	0.7123	0.5963	0.2504	0.227
Mof_H 	H 	0.8158	0.4691	0.0833	0.831
Mof_H 	H 	0.8249	0.5157	0.1079	0.818
Mof_H 	H 	0.8064	0.5152	0.0578	0.825
Mof_N 	N 	0.238	0.0377	0.6118	0.145
Mof_N 	N 	0.1974	0.02293	0.6268	-0.114
Mof_N 	N 	0.3056	0.1194	0.6415	-0.287
Mof_C 	C 	0.3445	0.1352	0.623	0.032
Mof_H 	H 	0.3483	0.1446	0.5929	-0.006
Mof_H 	H 	0.302	0.0742	0.7371	0.079
Mof_H 	H 	0.2921	0.1564	0.7499	-0.073
Mof_H 	H 	0.2123	0.0963	0.7504	0.246
Mof_H 	H 	0.3158	0.9691	0.5833	-1.085
Mof_H 	H 	0.3249	0.0157	0.6079	-1.124
Mof_H 	H 	0.3064	0.0152	0.5578	-1.077
Mof_N 	N 	0.738	0.4623	0.8882	-0.574
Mof_N 	N 	0.6974	0.47707	0.8732	-0.152
Mof_N 	N 	0.8056	0.3806	0.8585	-0.316
Mof_C 	C 	0.8445	0.3648	0.877	-0.054
Mof_H 	H 	0.8483	0.3554	0.9071	-0.032
Mof_H 	H 	0.802	0.4258	0.7629	0.067
Mof_H 	H 	0.7921	0.3436	0.7501	-0.066
Mof_H 	H 	0.7123	0.4037	0.7496	0.229
Mof_H 	H 	0.8158	0.5309	0.9167	0.606
Mof_H 	H 	0.8249	0.4843	0.8921	0.603
Mof_H 	H 	0.8064	0.4848	0.9422	0.561
Mof_N 	N 	0.238	0.9623	0.3882	-0.635
Mof_N 	N 	0.1974	0.97707	0.3732	-0.17
Mof_N 	N 	0.3056	0.8806	0.3585	-0.317
Mof_C 	C 	0.3445	0.8648	0.377	-0.053
Mof_H 	H 	0.3483	0.8554	0.4071	-0.012
Mof_H 	H 	0.302	0.9258	0.2629	0.048
Mof_H 	H 	0.2921	0.8436	0.2501	-0.057
Mof_H 	H 	0.2123	0.9037	0.2496	0.209
Mof_H 	H 	0.3158	0.0309	0.4167	0.728
Mof_H 	H 	0.3249	0.9843	0.3921	0.684
Mof_H 	H 	0.3064	0.9848	0.4422	0.719
Mof_N 	N 	0.1118	0.262	0.4623	-0.717
Mof_N 	N 	0.1268	0.3026	0.47707	-0.109
Mof_N 	N 	0.1415	0.1944	0.3806	-0.325
Mof_C 	C 	0.123	0.1555	0.3648	-0.073
Mof_H 	H 	0.0929	0.1517	0.3554	-0.021
Mof_H 	H 	0.2371	0.198	0.4258	0.044
Mof_H 	H 	0.2499	0.2079	0.3436	-0.059
Mof_H 	H 	0.2504	0.2877	0.4037	0.224
Mof_H 	H 	0.0833	0.1842	0.5309	1.034
Mof_H 	H 	0.1079	0.1751	0.4843	1.009
Mof_H 	H 	0.0578	0.1936	0.4848	1.025
Mof_N 	N 	0.6118	0.762	0.9623	-0.296
Mof_N 	N 	0.6268	0.8026	0.97707	-0.161
Mof_N 	N 	0.6415	0.6944	0.8806	-0.303
Mof_C 	C 	0.623	0.6555	0.8648	-0.016
Mof_H 	H 	0.5929	0.6517	0.8554	-0.011
Mof_H 	H 	0.7371	0.698	0.9258	0.086
Mof_H 	H 	0.7499	0.7079	0.8436	-0.063
Mof_H 	H 	0.7504	0.7877	0.9037	0.202
Mof_H 	H 	0.5833	0.6842	0.0309	-0.088
Mof_H 	H 	0.6079	0.6751	0.9843	-0.098
Mof_H 	H 	0.5578	0.6936	0.9848	-0.171
Mof_N 	N 	0.8882	0.262	0.5377	-0.583
Mof_N 	N 	0.8732	0.3026	0.52293	-0.074
Mof_N 	N 	0.8585	0.1944	0.6194	-0.325
Mof_C 	C 	0.877	0.1555	0.6352	-0.064
Mof_H 	H 	0.9071	0.1517	0.6446	-0.033
Mof_H 	H 	0.7629	0.198	0.5742	0.057
Mof_H 	H 	0.7501	0.2079	0.6564	-0.064
Mof_H 	H 	0.7496	0.2877	0.5963	0.227
Mof_H 	H 	0.9167	0.1842	0.4691	0.81
Mof_H 	H 	0.8921	0.1751	0.5157	0.797
Mof_H 	H 	0.9422	0.1936	0.5152	0.808
Mof_N 	N 	0.3882	0.762	0.0377	-1.037
Mof_N 	N 	0.3732	0.8026	0.02293	-0.117
Mof_N 	N 	0.3585	0.6944	0.1194	-0.334
Mof_C 	C 	0.377	0.6555	0.1352	-0.095
Mof_H 	H 	0.4071	0.6517	0.1446	-0.011
Mof_H 	H 	0.2629	0.698	0.0742	0.103
Mof_H 	H 	0.2501	0.7079	0.1564	-0.073
Mof_H 	H 	0.2496	0.7877	0.0963	0.243
Mof_H 	H 	0.4167	0.6842	0.9691	1.805
Mof_H 	H 	0.3921	0.6751	0.0157	1.92
Mof_H 	H 	0.4422	0.6936	0.0152	1.839
Mof_N 	N 	0.1118	0.738	0.5377	-0.62
Mof_N 	N 	0.1268	0.6974	0.52293	-0.113
Mof_N 	N 	0.1415	0.8056	0.6194	-0.322
Mof_C 	C 	0.123	0.8445	0.6352	-0.066
Mof_H 	H 	0.0929	0.8483	0.6446	-0.024
Mof_H 	H 	0.2371	0.802	0.5742	0.057
Mof_H 	H 	0.2499	0.7921	0.6564	-0.064
Mof_H 	H 	0.2504	0.7123	0.5963	0.227
Mof_H 	H 	0.0833	0.8158	0.4691	0.831
Mof_H 	H 	0.1079	0.8249	0.5157	0.818
Mof_H 	H 	0.0578	0.8064	0.5152	0.825
Mof_N 	N 	0.6118	0.238	0.0377	0.145
Mof_N 	N 	0.6268	0.1974	0.02293	-0.114
Mof_N 	N 	0.6415	0.3056	0.1194	-0.287
Mof_C 	C 	0.623	0.3445	0.1352	0.032
Mof_H 	H 	0.5929	0.3483	0.1446	-0.006
Mof_H 	H 	0.7371	0.302	0.0742	0.079
Mof_H 	H 	0.7499	0.2921	0.1564	-0.073
Mof_H 	H 	0.7504	0.2123	0.0963	0.246
Mof_H 	H 	0.5833	0.3158	0.9691	-1.085
Mof_H 	H 	0.6079	0.3249	0.0157	-1.124
Mof_H 	H 	0.5578	0.3064	0.0152	-1.077
Mof_N 	N 	0.8882	0.738	0.4623	-0.574
Mof_N 	N 	0.8732	0.6974	0.47707	-0.152
Mof_N 	N 	0.8585	0.8056	0.3806	-0.316
Mof_C 	C 	0.877	0.8445	0.3648	-0.054
Mof_H 	H 	0.9071	0.8483	0.3554	-0.032
Mof_H 	H 	0.7629	0.802	0.4258	0.067
Mof_H 	H 	0.7501	0.7921	0.3436	-0.066
Mof_H 	H 	0.7496	0.7123	0.4037	0.229
Mof_H 	H 	0.9167	0.8158	0.5309	0.606
Mof_H 	H 	0.8921	0.8249	0.4843	0.603
Mof_H 	H 	0.9422	0.8064	0.4848	0.561
Mof_N 	N 	0.3882	0.238	0.9623	-0.635
Mof_N 	N 	0.3732	0.1974	0.97707	-0.17
Mof_N 	N 	0.3585	0.3056	0.8806	-0.317
Mof_C 	C 	0.377	0.3445	0.8648	-0.053
Mof_H 	H 	0.4071	0.3483	0.8554	-0.012
Mof_H 	H 	0.2629	0.302	0.9258	0.048
Mof_H 	H 	0.2501	0.2921	0.8436	-0.057
Mof_H 	H 	0.2496	0.2123	0.9037	0.209
Mof_H 	H 	0.4167	0.3158	0.0309	0.728
Mof_H 	H 	0.3921	0.3249	0.9843	0.684
Mof_H 	H 	0.4422	0.3064	0.9848	0.719
Mof_N 	N 	0.1118	0.4623	0.738	-0.664
Mof_N 	N 	0.1268	0.47707	0.6974	-0.15
Mof_N 	N 	0.1415	0.3806	0.8056	-0.319
Mof_C 	C 	0.123	0.3648	0.8445	-0.065
Mof_H 	H 	0.0929	0.3554	0.8483	-0.022
Mof_H 	H 	0.2371	0.4258	0.802	0.056
Mof_H 	H 	0.2499	0.3436	0.7921	-0.062
Mof_H 	H 	0.2504	0.4037	0.7123	0.226
Mof_H 	H 	0.0833	0.5309	0.8158	0.83
Mof_H 	H 	0.1079	0.4843	0.8249	0.817
Mof_H 	H 	0.0578	0.4848	0.8064	0.802
Mof_N 	N 	0.6118	0.9623	0.238	0.125
Mof_N 	N 	0.6268	0.97707	0.1974	-0.164
Mof_N 	N 	0.6415	0.8806	0.3056	-0.286
Mof_C 	C 	0.623	0.8648	0.3445	0.029
Mof_H 	H 	0.5929	0.8554	0.3483	-0.009
Mof_H 	H 	0.7371	0.9258	0.302	0.055
Mof_H 	H 	0.7499	0.8436	0.2921	-0.06
Mof_H 	H 	0.7504	0.9037	0.2123	0.207
Mof_H 	H 	0.5833	0.0309	0.3158	-1.125
Mof_H 	H 	0.6079	0.9843	0.3249	-1.229
Mof_H 	H 	0.5578	0.9848	0.3064	-1.184
Mof_N 	N 	0.8882	0.5377	0.738	-0.53
Mof_N 	N 	0.8732	0.52293	0.6974	-0.115
Mof_N 	N 	0.8585	0.6194	0.8056	-0.319
Mof_C 	C 	0.877	0.6352	0.8445	-0.056
Mof_H 	H 	0.9071	0.6446	0.8483	-0.034
Mof_H 	H 	0.7629	0.5742	0.802	0.069
Mof_H 	H 	0.7501	0.6564	0.7921	-0.067
Mof_H 	H 	0.7496	0.5963	0.7123	0.23
Mof_H 	H 	0.9167	0.4691	0.8158	0.606
Mof_H 	H 	0.8921	0.5157	0.8249	0.604
Mof_H 	H 	0.9422	0.5152	0.8064	0.584
Mof_N 	N 	0.3882	0.0377	0.238	-0.616
Mof_N 	N 	0.3732	0.02293	0.1974	-0.12
Mof_N 	N 	0.3585	0.1194	0.3056	-0.318
Mof_C 	C 	0.377	0.1352	0.3445	-0.05
Mof_H 	H 	0.4071	0.1446	0.3483	-0.009
Mof_H 	H 	0.2629	0.0742	0.302	0.072
Mof_H 	H 	0.2501	0.1564	0.2921	-0.07
Mof_H 	H 	0.2496	0.0963	0.2123	0.248
Mof_H 	H 	0.4167	0.9691	0.3158	0.768
Mof_H 	H 	0.3921	0.0157	0.3249	0.789
Mof_H 	H 	0.4422	0.0152	0.3064	0.826
Mof_N 	N 	0.1118	0.5377	0.262	-0.673
Mof_N 	N 	0.1268	0.52293	0.3026	-0.072
Mof_N 	N 	0.1415	0.6194	0.1944	-0.329
Mof_C 	C 	0.123	0.6352	0.1555	-0.074
Mof_H 	H 	0.0929	0.6446	0.1517	-0.023
Mof_H 	H 	0.2371	0.5742	0.198	0.046
Mof_H 	H 	0.2499	0.6564	0.2079	-0.061
Mof_H 	H 	0.2504	0.5963	0.2877	0.225
Mof_H 	H 	0.0833	0.4691	0.1842	1.034
Mof_H 	H 	0.1079	0.5157	0.1751	1.01
Mof_H 	H 	0.0578	0.5152	0.1936	1.048
Mof_N 	N 	0.6118	0.0377	0.762	-0.276
Mof_N 	N 	0.6268	0.02293	0.8026	-0.111
Mof_N 	N 	0.6415	0.1194	0.6944	-0.304
Mof_C 	C 	0.623	0.1352	0.6555	-0.013
Mof_H 	H 	0.5929	0.1446	0.6517	-0.008
Mof_H 	H 	0.7371	0.0742	0.698	0.11
Mof_H 	H 	0.7499	0.1564	0.7079	-0.076
Mof_H 	H 	0.7504	0.0963	0.7877	0.241
Mof_H 	H 	0.5833	0.9691	0.6842	-0.048
Mof_H 	H 	0.6079	0.0157	0.6751	0.007
Mof_H 	H 	0.5578	0.0152	0.6936	-0.064
Mof_N 	N 	0.8882	0.4623	0.262	-0.627
Mof_N 	N 	0.8732	0.47707	0.3026	-0.111
Mof_N 	N 	0.8585	0.3806	0.1944	-0.322
Mof_C 	C 	0.877	0.3648	0.1555	-0.063
Mof_H 	H 	0.9071	0.3554	0.1517	-0.031
Mof_H 	H 	0.7629	0.4258	0.198	0.056
Mof_H 	H 	0.7501	0.3436	0.2079	-0.062
Mof_H 	H 	0.7496	0.4037	0.2877	0.226
Mof_H 	H 	0.9167	0.5309	0.1842	0.81
Mof_H 	H 	0.8921	0.4843	0.1751	0.796
Mof_H 	H 	0.9422	0.4848	0.1936	0.785
Mof_N 	N 	0.3882	0.9623	0.762	-1.056
Mof_N 	N 	0.3732	0.97707	0.8026	-0.167
Mof_N 	N 	0.3585	0.8806	0.6944	-0.333
Mof_C 	C 	0.377	0.8648	0.6555	-0.098
Mof_H 	H 	0.4071	0.8554	0.6517	-0.014
Mof_H 	H 	0.2629	0.9258	0.698	0.079
Mof_H 	H 	0.2501	0.8436	0.7079	-0.06
Mof_H 	H 	0.2496	0.9037	0.7877	0.204
Mof_H 	H 	0.4167	0.0309	0.6842	1.765
Mof_H 	H 	0.3921	0.9843	0.6751	1.815
Mof_H 	H 	0.4422	0.9848	0.6936	1.732
Mof_N 	N 	0.4623	0.262	0.8882	-0.627
Mof_N 	N 	0.47707	0.3026	0.8732	-0.111
Mof_N 	N 	0.3806	0.1944	0.8585	-0.322
Mof_C 	C 	0.3648	0.1555	0.877	-0.063
Mof_H 	H 	0.3554	0.1517	0.9071	-0.031
Mof_H 	H 	0.4258	0.198	0.7629	0.056
Mof_H 	H 	0.3436	0.2079	0.7501	-0.062
Mof_H 	H 	0.4037	0.2877	0.7496	0.226
Mof_H 	H 	0.5309	0.1842	0.9167	0.81
Mof_H 	H 	0.4843	0.1751	0.8921	0.796
Mof_H 	H 	0.4848	0.1936	0.9422	0.785
Mof_N 	N 	0.9623	0.762	0.3882	-1.056
Mof_N 	N 	0.97707	0.8026	0.3732	-0.167
Mof_N 	N 	0.8806	0.6944	0.3585	-0.333
Mof_C 	C 	0.8648	0.6555	0.377	-0.098
Mof_H 	H 	0.8554	0.6517	0.4071	-0.014
Mof_H 	H 	0.9258	0.698	0.2629	0.079
Mof_H 	H 	0.8436	0.7079	0.2501	-0.06
Mof_H 	H 	0.9037	0.7877	0.2496	0.204
Mof_H 	H 	0.0309	0.6842	0.4167	1.765
Mof_H 	H 	0.9843	0.6751	0.3921	1.815
Mof_H 	H 	0.9848	0.6936	0.4422	1.732
Mof_N 	N 	0.5377	0.262	0.1118	-0.673
Mof_N 	N 	0.52293	0.3026	0.1268	-0.072
Mof_N 	N 	0.6194	0.1944	0.1415	-0.329
Mof_C 	C 	0.6352	0.1555	0.123	-0.074
Mof_H 	H 	0.6446	0.1517	0.0929	-0.023
Mof_H 	H 	0.5742	0.198	0.2371	0.046
Mof_H 	H 	0.6564	0.2079	0.2499	-0.061
Mof_H 	H 	0.5963	0.2877	0.2504	0.225
Mof_H 	H 	0.4691	0.1842	0.0833	1.034
Mof_H 	H 	0.5157	0.1751	0.1079	1.01
Mof_H 	H 	0.5152	0.1936	0.0578	1.048
Mof_N 	N 	0.0377	0.762	0.6118	-0.276
Mof_N 	N 	0.02293	0.8026	0.6268	-0.111
Mof_N 	N 	0.1194	0.6944	0.6415	-0.304
Mof_C 	C 	0.1352	0.6555	0.623	-0.013
Mof_H 	H 	0.1446	0.6517	0.5929	-0.008
Mof_H 	H 	0.0742	0.698	0.7371	0.11
Mof_H 	H 	0.1564	0.7079	0.7499	-0.076
Mof_H 	H 	0.0963	0.7877	0.7504	0.241
Mof_H 	H 	0.9691	0.6842	0.5833	-0.048
Mof_H 	H 	0.0157	0.6751	0.6079	0.007
Mof_H 	H 	0.0152	0.6936	0.5578	-0.064
Mof_N 	N 	0.5377	0.738	0.8882	-0.53
Mof_N 	N 	0.52293	0.6974	0.8732	-0.115
Mof_N 	N 	0.6194	0.8056	0.8585	-0.319
Mof_C 	C 	0.6352	0.8445	0.877	-0.056
Mof_H 	H 	0.6446	0.8483	0.9071	-0.034
Mof_H 	H 	0.5742	0.802	0.7629	0.069
Mof_H 	H 	0.6564	0.7921	0.7501	-0.067
Mof_H 	H 	0.5963	0.7123	0.7496	0.23
Mof_H 	H 	0.4691	0.8158	0.9167	0.606
Mof_H 	H 	0.5157	0.8249	0.8921	0.604
Mof_H 	H 	0.5152	0.8064	0.9422	0.584
Mof_N 	N 	0.0377	0.238	0.3882	-0.616
Mof_N 	N 	0.02293	0.1974	0.3732	-0.12
Mof_N 	N 	0.1194	0.3056	0.3585	-0.318
Mof_C 	C 	0.1352	0.3445	0.377	-0.05
Mof_H 	H 	0.1446	0.3483	0.4071	-0.009
Mof_H 	H 	0.0742	0.302	0.2629	0.072
Mof_H 	H 	0.1564	0.2921	0.2501	-0.07
Mof_H 	H 	0.0963	0.2123	0.2496	0.248
Mof_H 	H 	0.9691	0.3158	0.4167	0.768
Mof_H 	H 	0.0157	0.3249	0.3921	0.789
Mof_H 	H 	0.0152	0.3064	0.4422	0.826
Mof_N 	N 	0.4623	0.738	0.1118	-0.664
Mof_N 	N 	0.47707	0.6974	0.1268	-0.15
Mof_N 	N 	0.3806	0.8056	0.1415	-0.319
Mof_C 	C 	0.3648	0.8445	0.123	-0.065
Mof_H 	H 	0.3554	0.8483	0.0929	-0.022
Mof_H 	H 	0.4258	0.802	0.2371	0.056
Mof_H 	H 	0.3436	0.7921	0.2499	-0.062
Mof_H 	H 	0.4037	0.7123	0.2504	0.226
Mof_H 	H 	0.5309	0.8158	0.0833	0.83
Mof_H 	H 	0.4843	0.8249	0.1079	0.817
Mof_H 	H 	0.4848	0.8064	0.0578	0.802
Mof_N 	N 	0.9623	0.238	0.6118	0.125
Mof_N 	N 	0.97707	0.1974	0.6268	-0.164
Mof_N 	N 	0.8806	0.3056	0.6415	-0.286
Mof_C 	C 	0.8648	0.3445	0.623	0.029
Mof_H 	H 	0.8554	0.3483	0.5929	-0.009
Mof_H 	H 	0.9258	0.302	0.7371	0.055
Mof_H 	H 	0.8436	0.2921	0.7499	-0.06
Mof_H 	H 	0.9037	0.2123	0.7504	0.207
Mof_H 	H 	0.0309	0.3158	0.5833	-1.125
Mof_H 	H 	0.9843	0.3249	0.6079	-1.229
Mof_H 	H 	0.9848	0.3064	0.5578	-1.184
Mof_N 	N 	0.262	0.1118	0.5377	-0.673
Mof_N 	N 	0.3026	0.1268	0.52293	-0.072
Mof_N 	N 	0.1944	0.1415	0.6194	-0.329
Mof_C 	C 	0.1555	0.123	0.6352	-0.074
Mof_H 	H 	0.1517	0.0929	0.6446	-0.023
Mof_H 	H 	0.198	0.2371	0.5742	0.046
Mof_H 	H 	0.2079	0.2499	0.6564	-0.061
Mof_H 	H 	0.2877	0.2504	0.5963	0.225
Mof_H 	H 	0.1842	0.0833	0.4691	1.034
Mof_H 	H 	0.1751	0.1079	0.5157	1.01
Mof_H 	H 	0.1936	0.0578	0.5152	1.048
Mof_N 	N 	0.762	0.6118	0.0377	-0.276
Mof_N 	N 	0.8026	0.6268	0.02293	-0.111
Mof_N 	N 	0.6944	0.6415	0.1194	-0.304
Mof_C 	C 	0.6555	0.623	0.1352	-0.013
Mof_H 	H 	0.6517	0.5929	0.1446	-0.008
Mof_H 	H 	0.698	0.7371	0.0742	0.11
Mof_H 	H 	0.7079	0.7499	0.1564	-0.076
Mof_H 	H 	0.7877	0.7504	0.0963	0.241
Mof_H 	H 	0.6842	0.5833	0.9691	-0.048
Mof_H 	H 	0.6751	0.6079	0.0157	0.007
Mof_H 	H 	0.6936	0.5578	0.0152	-0.064
Mof_N 	N 	0.262	0.8882	0.4623	-0.627
Mof_N 	N 	0.3026	0.8732	0.47707	-0.111
Mof_N 	N 	0.1944	0.8585	0.3806	-0.322
Mof_C 	C 	0.1555	0.877	0.3648	-0.063
Mof_H 	H 	0.1517	0.9071	0.3554	-0.031
Mof_H 	H 	0.198	0.7629	0.4258	0.056
Mof_H 	H 	0.2079	0.7501	0.3436	-0.062
Mof_H 	H 	0.2877	0.7496	0.4037	0.226
Mof_H 	H 	0.1842	0.9167	0.5309	0.81
Mof_H 	H 	0.1751	0.8921	0.4843	0.796
Mof_H 	H 	0.1936	0.9422	0.4848	0.785
Mof_N 	N 	0.762	0.3882	0.9623	-1.056
Mof_N 	N 	0.8026	0.3732	0.97707	-0.167
Mof_N 	N 	0.6944	0.3585	0.8806	-0.333
Mof_C 	C 	0.6555	0.377	0.8648	-0.098
Mof_H 	H 	0.6517	0.4071	0.8554	-0.014
Mof_H 	H 	0.698	0.2629	0.9258	0.079
Mof_H 	H 	0.7079	0.2501	0.8436	-0.06
Mof_H 	H 	0.7877	0.2496	0.9037	0.204
Mof_H 	H 	0.6842	0.4167	0.0309	1.765
Mof_H 	H 	0.6751	0.3921	0.9843	1.815
Mof_H 	H 	0.6936	0.4422	0.9848	1.732
Mof_N 	N 	0.738	0.1118	0.4623	-0.664
Mof_N 	N 	0.6974	0.1268	0.47707	-0.15
Mof_N 	N 	0.8056	0.1415	0.3806	-0.319
Mof_C 	C 	0.8445	0.123	0.3648	-0.065
Mof_H 	H 	0.8483	0.0929	0.3554	-0.022
Mof_H 	H 	0.802	0.2371	0.4258	0.056
Mof_H 	H 	0.7921	0.2499	0.3436	-0.062
Mof_H 	H 	0.7123	0.2504	0.4037	0.226
Mof_H 	H 	0.8158	0.0833	0.5309	0.83
Mof_H 	H 	0.8249	0.1079	0.4843	0.817
Mof_H 	H 	0.8064	0.0578	0.4848	0.802
Mof_N 	N 	0.238	0.6118	0.9623	0.125
Mof_N 	N 	0.1974	0.6268	0.97707	-0.164
Mof_N 	N 	0.3056	0.6415	0.8806	-0.286
Mof_C 	C 	0.3445	0.623	0.8648	0.029
Mof_H 	H 	0.3483	0.5929	0.8554	-0.009
Mof_H 	H 	0.302	0.7371	0.9258	0.055
Mof_H 	H 	0.2921	0.7499	0.8436	-0.06
Mof_H 	H 	0.2123	0.7504	0.9037	0.207
Mof_H 	H 	0.3158	0.5833	0.0309	-1.125
Mof_H 	H 	0.3249	0.6079	0.9843	-1.229
Mof_H 	H 	0.3064	0.5578	0.9848	-1.184
Mof_N 	N 	0.738	0.8882	0.5377	-0.53
Mof_N 	N 	0.6974	0.8732	0.52293	-0.115
Mof_N 	N 	0.8056	0.8585	0.6194	-0.319
Mof_C 	C 	0.8445	0.877	0.6352	-0.056
Mof_H 	H 	0.8483	0.9071	0.6446	-0.034
Mof_H 	H 	0.802	0.7629	0.5742	0.069
Mof_H 	H 	0.7921	0.7501	0.6564	-0.067
Mof_H 	H 	0.7123	0.7496	0.5963	0.23
Mof_H 	H 	0.8158	0.9167	0.4691	0.606
Mof_H 	H 	0.8249	0.8921	0.5157	0.604
Mof_H 	H 	0.8064	0.9422	0.5152	0.584
Mof_N 	N 	0.238	0.3882	0.0377	-0.616
Mof_N 	N 	0.1974	0.3732	0.02293	-0.12
Mof_N 	N 	0.3056	0.3585	0.1194	-0.318
Mof_C 	C 	0.3445	0.377	0.1352	-0.05
Mof_H 	H 	0.3483	0.4071	0.1446	-0.009
Mof_H 	H 	0.302	0.2629	0.0742	0.072
Mof_H 	H 	0.2921	0.2501	0.1564	-0.07
Mof_H 	H 	0.2123	0.2496	0.0963	0.248
Mof_H 	H 	0.3158	0.4167	0.9691	0.768
Mof_H 	H 	0.3249	0.3921	0.0157	0.789
Mof_H 	H 	0.3064	0.4422	0.0152	0.826
Mof_N 	N 	0.5377	0.8882	0.738	-0.53
Mof_N 	N 	0.52293	0.8732	0.6974	-0.115
Mof_N 	N 	0.6194	0.8585	0.8056	-0.319
Mof_C 	C 	0.6352	0.877	0.8445	-0.056
Mof_H 	H 	0.6446	0.9071	0.8483	-0.034
Mof_H 	H 	0.5742	0.7629	0.802	0.069
Mof_H 	H 	0.6564	0.7501	0.7921	-0.067
Mof_H 	H 	0.5963	0.7496	0.7123	0.23
Mof_H 	H 	0.4691	0.9167	0.8158	0.606
Mof_H 	H 	0.5157	0.8921	0.8249	0.604
Mof_H 	H 	0.5152	0.9422	0.8064	0.584
Mof_N 	N 	0.0377	0.3882	0.238	-0.616
Mof_N 	N 	0.02293	0.3732	0.1974	-0.12
Mof_N 	N 	0.1194	0.3585	0.3056	-0.318
Mof_C 	C 	0.1352	0.377	0.3445	-0.05
Mof_H 	H 	0.1446	0.4071	0.3483	-0.009
Mof_H 	H 	0.0742	0.2629	0.302	0.072
Mof_H 	H 	0.1564	0.2501	0.2921	-0.07
Mof_H 	H 	0.0963	0.2496	0.2123	0.248
Mof_H 	H 	0.9691	0.4167	0.3158	0.768
Mof_H 	H 	0.0157	0.3921	0.3249	0.789
Mof_H 	H 	0.0152	0.4422	0.3064	0.826
Mof_N 	N 	0.4623	0.1118	0.738	-0.664
Mof_N 	N 	0.47707	0.1268	0.6974	-0.15
Mof_N 	N 	0.3806	0.1415	0.8056	-0.319
Mof_C 	C 	0.3648	0.123	0.8445	-0.065
Mof_H 	H 	0.3554	0.0929	0.8483	-0.022
Mof_H 	H 	0.4258	0.2371	0.802	0.056
Mof_H 	H 	0.3436	0.2499	0.7921	-0.062
Mof_H 	H 	0.4037	0.2504	0.7123	0.226
Mof_H 	H 	0.5309	0.0833	0.8158	0.83
Mof_H 	H 	0.4843	0.1079	0.8249	0.817
Mof_H 	H 	0.4848	0.0578	0.8064	0.802
Mof_N 	N 	0.9623	0.6118	0.238	0.125
Mof_N 	N 	0.97707	0.6268	0.1974	-0.164
Mof_N 	N 	0.8806	0.6415	0.3056	-0.286
Mof_C 	C 	0.8648	0.623	0.3445	0.029
Mof_H 	H 	0.8554	0.5929	0.3483	-0.009
Mof_H 	H 	0.9258	0.7371	0.302	0.055
Mof_H 	H 	0.8436	0.7499	0.2921	-0.06
Mof_H 	H 	0.9037	0.7504	0.2123	0.207
Mof_H 	H 	0.0309	0.5833	0.3158	-1.125
Mof_H 	H 	0.9843	0.6079	0.3249	-1.229
Mof_H 	H 	0.9848	0.5578	0.3064	-1.184
Mof_N 	N 	0.4623	0.8882	0.262	-0.627
Mof_N 	N 	0.47707	0.8732	0.3026	-0.111
Mof_N 	N 	0.3806	0.8585	0.1944	-0.322
Mof_C 	C 	0.3648	0.877	0.1555	-0.063
Mof_H 	H 	0.3554	0.9071	0.1517	-0.031
Mof_H 	H 	0.4258	0.7629	0.198	0.056
Mof_H 	H 	0.3436	0.7501	0.2079	-0.062
Mof_H 	H 	0.4037	0.7496	0.2877	0.226
Mof_H 	H 	0.5309	0.9167	0.1842	0.81
Mof_H 	H 	0.4843	0.8921	0.1751	0.796
Mof_H 	H 	0.4848	0.9422	0.1936	0.785
Mof_N 	N 	0.9623	0.3882	0.762	-1.056
Mof_N 	N 	0.97707	0.3732	0.8026	-0.167
Mof_N 	N 	0.8806	0.3585	0.6944	-0.333
Mof_C 	C 	0.8648	0.377	0.6555	-0.098
Mof_H 	H 	0.8554	0.4071	0.6517	-0.014
Mof_H 	H 	0.9258	0.2629	0.698	0.079
Mof_H 	H 	0.8436	0.2501	0.7079	-0.06
Mof_H 	H 	0.9037	0.2496	0.7877	0.204
Mof_H 	H 	0.0309	0.4167	0.6842	1.765
Mof_H 	H 	0.9843	0.3921	0.6751	1.815
Mof_H 	H 	0.9848	0.4422	0.6936	1.732
Mof_N 	N 	0.5377	0.1118	0.262	-0.673
Mof_N 	N 	0.52293	0.1268	0.3026	-0.072
Mof_N 	N 	0.6194	0.1415	0.1944	-0.329
Mof_C 	C 	0.6352	0.123	0.1555	-0.074
Mof_H 	H 	0.6446	0.0929	0.1517	-0.023
Mof_H 	H 	0.5742	0.2371	0.198	0.046
Mof_H 	H 	0.6564	0.2499	0.2079	-0.061
Mof_H 	H 	0.5963	0.2504	0.2877	0.225
Mof_H 	H 	0.4691	0.0833	0.1842	1.034
Mof_H 	H 	0.5157	0.1079	0.1751	1.01
Mof_H 	H 	0.5152	0.0578	0.1936	1.048
Mof_N 	N 	0.0377	0.6118	0.762	-0.276
Mof_N 	N 	0.02293	0.6268	0.8026	-0.111
Mof_N 	N 	0.1194	0.6415	0.6944	-0.304
Mof_C 	C 	0.1352	0.623	0.6555	-0.013
Mof_H 	H 	0.1446	0.5929	0.6517	-0.008
Mof_H 	H 	0.0742	0.7371	0.698	0.11
Mof_H 	H 	0.1564	0.7499	0.7079	-0.076
Mof_H 	H 	0.0963	0.7504	0.7877	0.241
Mof_H 	H 	0.9691	0.5833	0.6842	-0.048
Mof_H 	H 	0.0157	0.6079	0.6751	0.007
Mof_H 	H 	0.0152	0.5578	0.6936	-0.064
Mof_N 	N 	0.738	0.5377	0.8882	-0.53
Mof_N 	N 	0.6974	0.52293	0.8732	-0.115
Mof_N 	N 	0.8056	0.6194	0.8585	-0.319
Mof_C 	C 	0.8445	0.6352	0.877	-0.056
Mof_H 	H 	0.8483	0.6446	0.9071	-0.034
Mof_H 	H 	0.802	0.5742	0.7629	0.069
Mof_H 	H 	0.7921	0.6564	0.7501	-0.067
Mof_H 	H 	0.7123	0.5963	0.7496	0.23
Mof_H 	H 	0.8158	0.4691	0.9167	0.606
Mof_H 	H 	0.8249	0.5157	0.8921	0.604
Mof_H 	H 	0.8064	0.5152	0.9422	0.584
Mof_N 	N 	0.238	0.0377	0.3882	-0.616
Mof_N 	N 	0.1974	0.02293	0.3732	-0.12
Mof_N 	N 	0.3056	0.1194	0.3585	-0.318
Mof_C 	C 	0.3445	0.1352	0.377	-0.05
Mof_H 	H 	0.3483	0.1446	0.4071	-0.009
Mof_H 	H 	0.302	0.0742	0.2629	0.072
Mof_H 	H 	0.2921	0.1564	0.2501	-0.07
Mof_H 	H 	0.2123	0.0963	0.2496	0.248
Mof_H 	H 	0.3158	0.9691	0.4167	0.768
Mof_H 	H 	0.3249	0.0157	0.3921	0.789
Mof_H 	H 	0.3064	0.0152	0.4422	0.826
Mof_N 	N 	0.738	0.4623	0.1118	-0.664
Mof_N 	N 	0.6974	0.47707	0.1268	-0.15
Mof_N 	N 	0.8056	0.3806	0.1415	-0.319
Mof_C 	C 	0.8445	0.3648	0.123	-0.065
Mof_H 	H 	0.8483	0.3554	0.0929	-0.022
Mof_H 	H 	0.802	0.4258	0.2371	0.056
Mof_H 	H 	0.7921	0.3436	0.2499	-0.062
Mof_H 	H 	0.7123	0.4037	0.2504	0.226
Mof_H 	H 	0.8158	0.5309	0.0833	0.83
Mof_H 	H 	0.8249	0.4843	0.1079	0.817
Mof_H 	H 	0.8064	0.4848	0.0578	0.802
Mof_N 	N 	0.238	0.9623	0.6118	0.125
Mof_N 	N 	0.1974	0.97707	0.6268	-0.164
Mof_N 	N 	0.3056	0.8806	0.6415	-0.286
Mof_C 	C 	0.3445	0.8648	0.623	0.029
Mof_H 	H 	0.3483	0.8554	0.5929	-0.009
Mof_H 	H 	0.302	0.9258	0.7371	0.055
Mof_H 	H 	0.2921	0.8436	0.7499	-0.06
Mof_H 	H 	0.2123	0.9037	0.7504	0.207
Mof_H 	H 	0.3158	0.0309	0.5833	-1.125
Mof_H 	H 	0.3249	0.9843	0.6079	-1.229
Mof_H 	H 	0.3064	0.9848	0.5578	-1.184
Mof_N 	N 	0.262	0.4623	0.8882	-0.627
Mof_N 	N 	0.3026	0.47707	0.8732	-0.111
Mof_N 	N 	0.1944	0.3806	0.8585	-0.322
Mof_C 	C 	0.1555	0.3648	0.877	-0.063
Mof_H 	H 	0.1517	0.3554	0.9071	-0.031
Mof_H 	H 	0.198	0.4258	0.7629	0.056
Mof_H 	H 	0.2079	0.3436	0.7501	-0.062
Mof_H 	H 	0.2877	0.4037	0.7496	0.226
Mof_H 	H 	0.1842	0.5309	0.9167	0.81
Mof_H 	H 	0.1751	0.4843	0.8921	0.796
Mof_H 	H 	0.1936	0.4848	0.9422	0.785
Mof_N 	N 	0.762	0.9623	0.3882	-1.056
Mof_N 	N 	0.8026	0.97707	0.3732	-0.167
Mof_N 	N 	0.6944	0.8806	0.3585	-0.333
Mof_C 	C 	0.6555	0.8648	0.377	-0.098
Mof_H 	H 	0.6517	0.8554	0.4071	-0.014
Mof_H 	H 	0.698	0.9258	0.2629	0.079
Mof_H 	H 	0.7079	0.8436	0.2501	-0.06
Mof_H 	H 	0.7877	0.9037	0.2496	0.204
Mof_H 	H 	0.6842	0.0309	0.4167	1.765
Mof_H 	H 	0.6751	0.9843	0.3921	1.815
Mof_H 	H 	0.6936	0.9848	0.4422	1.732
Mof_N 	N 	0.262	0.5377	0.1118	-0.673
Mof_N 	N 	0.3026	0.52293	0.1268	-0.072
Mof_N 	N 	0.1944	0.6194	0.1415	-0.329
Mof_C 	C 	0.1555	0.6352	0.123	-0.074
Mof_H 	H 	0.1517	0.6446	0.0929	-0.023
Mof_H 	H 	0.198	0.5742	0.2371	0.046
Mof_H 	H 	0.2079	0.6564	0.2499	-0.061
Mof_H 	H 	0.2877	0.5963	0.2504	0.225
Mof_H 	H 	0.1842	0.4691	0.0833	1.034
Mof_H 	H 	0.1751	0.5157	0.1079	1.01
Mof_H 	H 	0.1936	0.5152	0.0578	1.048
Mof_N 	N 	0.762	0.0377	0.6118	-0.276
Mof_N 	N 	0.8026	0.02293	0.6268	-0.111
Mof_N 	N 	0.6944	0.1194	0.6415	-0.304
Mof_C 	C 	0.6555	0.1352	0.623	-0.013
Mof_H 	H 	0.6517	0.1446	0.5929	-0.008
Mof_H 	H 	0.698	0.0742	0.7371	0.11
Mof_H 	H 	0.7079	0.1564	0.7499	-0.076
Mof_H 	H 	0.7877	0.0963	0.7504	0.241
Mof_H 	H 	0.6842	0.9691	0.5833	-0.048
Mof_H 	H 	0.6751	0.0157	0.6079	0.007
Mof_H 	H 	0.6936	0.0152	0.5578	-0.064
Mof_N 	N 	0.8882	0.738	0.5377	-0.53
Mof_N 	N 	0.8732	0.6974	0.52293	-0.115
Mof_N 	N 	0.8585	0.8056	0.6194	-0.319
Mof_C 	C 	0.877	0.8445	0.6352	-0.056
Mof_H 	H 	0.9071	0.8483	0.6446	-0.034
Mof_H 	H 	0.7629	0.802	0.5742	0.069
Mof_H 	H 	0.7501	0.7921	0.6564	-0.067
Mof_H 	H 	0.7496	0.7123	0.5963	0.23
Mof_H 	H 	0.9167	0.8158	0.4691	0.606
Mof_H 	H 	0.8921	0.8249	0.5157	0.604
Mof_H 	H 	0.9422	0.8064	0.5152	0.584
Mof_N 	N 	0.3882	0.238	0.0377	-0.616
Mof_N 	N 	0.3732	0.1974	0.02293	-0.12
Mof_N 	N 	0.3585	0.3056	0.1194	-0.318
Mof_C 	C 	0.377	0.3445	0.1352	-0.05
Mof_H 	H 	0.4071	0.3483	0.1446	-0.009
Mof_H 	H 	0.2629	0.302	0.0742	0.072
Mof_H 	H 	0.2501	0.2921	0.1564	-0.07
Mof_H 	H 	0.2496	0.2123	0.0963	0.248
Mof_H 	H 	0.4167	0.3158	0.9691	0.768
Mof_H 	H 	0.3921	0.3249	0.0157	0.789
Mof_H 	H 	0.4422	0.3064	0.0152	0.826
Mof_N 	N 	0.1118	0.738	0.4623	-0.664
Mof_N 	N 	0.1268	0.6974	0.47707	-0.15
Mof_N 	N 	0.1415	0.8056	0.3806	-0.319
Mof_C 	C 	0.123	0.8445	0.3648	-0.065
Mof_H 	H 	0.0929	0.8483	0.3554	-0.022
Mof_H 	H 	0.2371	0.802	0.4258	0.056
Mof_H 	H 	0.2499	0.7921	0.3436	-0.062
Mof_H 	H 	0.2504	0.7123	0.4037	0.226
Mof_H 	H 	0.0833	0.8158	0.5309	0.83
Mof_H 	H 	0.1079	0.8249	0.4843	0.817
Mof_H 	H 	0.0578	0.8064	0.4848	0.802
Mof_N 	N 	0.6118	0.238	0.9623	0.125
Mof_N 	N 	0.6268	0.1974	0.97707	-0.164
Mof_N 	N 	0.6415	0.3056	0.8806	-0.286
Mof_C 	C 	0.623	0.3445	0.8648	0.029
Mof_H 	H 	0.5929	0.3483	0.8554	-0.009
Mof_H 	H 	0.7371	0.302	0.9258	0.055
Mof_H 	H 	0.7499	0.2921	0.8436	-0.06
Mof_H 	H 	0.7504	0.2123	0.9037	0.207
Mof_H 	H 	0.5833	0.3158	0.0309	-1.125
Mof_H 	H 	0.6079	0.3249	0.9843	-1.229
Mof_H 	H 	0.5578	0.3064	0.9848	-1.184
Mof_N 	N 	0.8882	0.262	0.4623	-0.627
Mof_N 	N 	0.8732	0.3026	0.47707	-0.111
Mof_N 	N 	0.8585	0.1944	0.3806	-0.322
Mof_C 	C 	0.877	0.1555	0.3648	-0.063
Mof_H 	H 	0.9071	0.1517	0.3554	-0.031
Mof_H 	H 	0.7629	0.198	0.4258	0.056
Mof_H 	H 	0.7501	0.2079	0.3436	-0.062
Mof_H 	H 	0.7496	0.2877	0.4037	0.226
Mof_H 	H 	0.9167	0.1842	0.5309	0.81
Mof_H 	H 	0.8921	0.1751	0.4843	0.796
Mof_H 	H 	0.9422	0.1936	0.4848	0.785
Mof_N 	N 	0.3882	0.762	0.9623	-1.056
Mof_N 	N 	0.3732	0.8026	0.97707	-0.167
Mof_N 	N 	0.3585	0.6944	0.8806	-0.333
Mof_C 	C 	0.377	0.6555	0.8648	-0.098
Mof_H 	H 	0.4071	0.6517	0.8554	-0.014
Mof_H 	H 	0.2629	0.698	0.9258	0.079
Mof_H 	H 	0.2501	0.7079	0.8436	-0.06
Mof_H 	H 	0.2496	0.7877	0.9037	0.204
Mof_H 	H 	0.4167	0.6842	0.0309	1.765
Mof_H 	H 	0.3921	0.6751	0.9843	1.815
Mof_H 	H 	0.4422	0.6936	0.9848	1.732
Mof_N 	N 	0.1118	0.262	0.5377	-0.673
Mof_N 	N 	0.1268	0.3026	0.52293	-0.072
Mof_N 	N 	0.1415	0.1944	0.6194	-0.329
Mof_C 	C 	0.123	0.1555	0.6352	-0.074
Mof_H 	H 	0.0929	0.1517	0.6446	-0.023
Mof_H 	H 	0.2371	0.198	0.5742	0.046
Mof_H 	H 	0.2499	0.2079	0.6564	-0.061
Mof_H 	H 	0.2504	0.2877	0.5963	0.225
Mof_H 	H 	0.0833	0.1842	0.4691	1.034
Mof_H 	H 	0.1079	0.1751	0.5157	1.01
Mof_H 	H 	0.0578	0.1936	0.5152	1.048
Mof_N 	N 	0.6118	0.762	0.0377	-0.276
Mof_N 	N 	0.6268	0.8026	0.02293	-0.111
Mof_N 	N 	0.6415	0.6944	0.1194	-0.304
Mof_C 	C 	0.623	0.6555	0.1352	-0.013
Mof_H 	H 	0.5929	0.6517	0.1446	-0.008
Mof_H 	H 	0.7371	0.698	0.0742	0.11
Mof_H 	H 	0.7499	0.7079	0.1564	-0.076
Mof_H 	H 	0.7504	0.7877	0.0963	0.241
Mof_H 	H 	0.5833	0.6842	0.9691	-0.048
Mof_H 	H 	0.6079	0.6751	0.0157	0.007
Mof_H 	H 	0.5578	0.6936	0.0152	-0.064
Mof_N 	N 	0.8882	0.5377	0.262	-0.583
Mof_N 	N 	0.8732	0.52293	0.3026	-0.074
Mof_N 	N 	0.8585	0.6194	0.1944	-0.325
Mof_C 	C 	0.877	0.6352	0.1555	-0.064
Mof_H 	H 	0.9071	0.6446	0.1517	-0.033
Mof_H 	H 	0.7629	0.5742	0.198	0.057
Mof_H 	H 	0.7501	0.6564	0.2079	-0.064
Mof_H 	H 	0.7496	0.5963	0.2877	0.227
Mof_H 	H 	0.9167	0.4691	0.1842	0.81
Mof_H 	H 	0.8921	0.5157	0.1751	0.797
Mof_H 	H 	0.9422	0.5152	0.1936	0.808
Mof_N 	N 	0.3882	0.0377	0.762	-1.037
Mof_N 	N 	0.3732	0.02293	0.8026	-0.117
Mof_N 	N 	0.3585	0.1194	0.6944	-0.334
Mof_C 	C 	0.377	0.1352	0.6555	-0.095
Mof_H 	H 	0.4071	0.1446	0.6517	-0.011
Mof_H 	H 	0.2629	0.0742	0.698	0.103
Mof_H 	H 	0.2501	0.1564	0.7079	-0.073
Mof_H 	H 	0.2496	0.0963	0.7877	0.243
Mof_H 	H 	0.4167	0.9691	0.6842	1.805
Mof_H 	H 	0.3921	0.0157	0.6751	1.92
Mof_H 	H 	0.4422	0.0152	0.6936	1.839
Mof_N 	N 	0.1118	0.4623	0.262	-0.717
Mof_N 	N 	0.1268	0.47707	0.3026	-0.109
Mof_N 	N 	0.1415	0.3806	0.1944	-0.325
Mof_C 	C 	0.123	0.3648	0.1555	-0.073
Mof_H 	H 	0.0929	0.3554	0.1517	-0.021
Mof_H 	H 	0.2371	0.4258	0.198	0.044
Mof_H 	H 	0.2499	0.3436	0.2079	-0.059
Mof_H 	H 	0.2504	0.4037	0.2877	0.224
Mof_H 	H 	0.0833	0.5309	0.1842	1.034
Mof_H 	H 	0.1079	0.4843	0.1751	1.009
Mof_H 	H 	0.0578	0.4848	0.1936	1.025
Mof_N 	N 	0.6118	0.9623	0.762	-0.296
Mof_N 	N 	0.6268	0.97707	0.8026	-0.161
Mof_N 	N 	0.6415	0.8806	0.6944	-0.303
Mof_C 	C 	0.623	0.8648	0.6555	-0.016
Mof_H 	H 	0.5929	0.8554	0.6517	-0.011
Mof_H 	H 	0.7371	0.9258	0.698	0.086
Mof_H 	H 	0.7499	0.8436	0.7079	-0.063
Mof_H 	H 	0.7504	0.9037	0.7877	0.202
Mof_H 	H 	0.5833	0.0309	0.6842	-0.088
Mof_H 	H 	0.6079	0.9843	0.6751	-0.098
Mof_H 	H 	0.5578	0.9848	0.6936	-0.171
Mof_N 	N 	0.8882	0.4623	0.738	-0.574
Mof_N 	N 	0.8732	0.47707	0.6974	-0.152
Mof_N 	N 	0.8585	0.3806	0.8056	-0.316
Mof_C 	C 	0.877	0.3648	0.8445	-0.054
Mof_H 	H 	0.9071	0.3554	0.8483	-0.032
Mof_H 	H 	0.7629	0.4258	0.802	0.067
Mof_H 	H 	0.7501	0.3436	0.7921	-0.066
Mof_H 	H 	0.7496	0.4037	0.7123	0.229
Mof_H 	H 	0.9167	0.5309	0.8158	0.606
Mof_H 	H 	0.8921	0.4843	0.8249	0.603
Mof_H 	H 	0.9422	0.4848	0.8064	0.561
Mof_N 	N 	0.3882	0.9623	0.238	-0.635
Mof_N 	N 	0.3732	0.97707	0.1974	-0.17
Mof_N 	N 	0.3585	0.8806	0.3056	-0.317
Mof_C 	C 	0.377	0.8648	0.3445	-0.053
Mof_H 	H 	0.4071	0.8554	0.3483	-0.012
Mof_H 	H 	0.2629	0.9258	0.302	0.048
Mof_H 	H 	0.2501	0.8436	0.2921	-0.057
Mof_H 	H 	0.2496	0.9037	0.2123	0.209
Mof_H 	H 	0.4167	0.0309	0.3158	0.728
Mof_H 	H 	0.3921	0.9843	0.3249	0.684
Mof_H 	H 	0.4422	0.9848	0.3064	0.719
Mof_N 	N 	0.1118	0.5377	0.738	-0.62
Mof_N 	N 	0.1268	0.52293	0.6974	-0.113
Mof_N 	N 	0.1415	0.6194	0.8056	-0.322
Mof_C 	C 	0.123	0.6352	0.8445	-0.066
Mof_H 	H 	0.0929	0.6446	0.8483	-0.024
Mof_H 	H 	0.2371	0.5742	0.802	0.057
Mof_H 	H 	0.2499	0.6564	0.7921	-0.064
Mof_H 	H 	0.2504	0.5963	0.7123	0.227
Mof_H 	H 	0.0833	0.4691	0.8158	0.831
Mof_H 	H 	0.1079	0.5157	0.8249	0.818
Mof_H 	H 	0.0578	0.5152	0.8064	0.825
Mof_N 	N 	0.6118	0.0377	0.238	0.145
Mof_N 	N 	0.6268	0.02293	0.1974	-0.114
Mof_N 	N 	0.6415	0.1194	0.3056	-0.287
Mof_C 	C 	0.623	0.1352	0.3445	0.032
Mof_H 	H 	0.5929	0.1446	0.3483	-0.006
Mof_H 	H 	0.7371	0.0742	0.302	0.079
Mof_H 	H 	0.7499	0.1564	0.2921	-0.073
Mof_H 	H 	0.7504	0.0963	0.2123	0.246
Mof_H 	H 	0.5833	0.9691	0.3158	-1.085
Mof_H 	H 	0.6079	0.0157	0.3249	-1.124
Mof_H 	H 	0.5578	0.0152	0.3064	-1.077
Mof_N 	N 	0.5377	0.738	0.1118	-0.62
Mof_N 	N 	0.52293	0.6974	0.1268	-0.113
Mof_N 	N 	0.6194	0.8056	0.1415	-0.322
Mof_C 	C 	0.6352	0.8445	0.123	-0.066
Mof_H 	H 	0.6446	0.8483	0.0929	-0.024
Mof_H 	H 	0.5742	0.802	0.2371	0.057
Mof_H 	H 	0.6564	0.7921	0.2499	-0.064
Mof_H 	H 	0.5963	0.7123	0.2504	0.227
Mof_H 	H 	0.4691	0.8158	0.0833	0.831
Mof_H 	H 	0.5157	0.8249	0.1079	0.818
Mof_H 	H 	0.5152	0.8064	0.0578	0.825
Mof_N 	N 	0.0377	0.238	0.6118	0.145
Mof_N 	N 	0.02293	0.1974	0.6268	-0.114
Mof_N 	N 	0.1194	0.3056	0.6415	-0.287
Mof_C 	C 	0.1352	0.3445	0.623	0.032
Mof_H 	H 	0.1446	0.3483	0.5929	-0.006
Mof_H 	H 	0.0742	0.302	0.7371	0.079
Mof_H 	H 	0.1564	0.2921	0.7499	-0.073
Mof_H 	H 	0.0963	0.2123	0.7504	0.246
Mof_H 	H 	0.9691	0.3158	0.5833	-1.085
Mof_H 	H 	0.0157	0.3249	0.6079	-1.124
Mof_H 	H 	0.0152	0.3064	0.5578	-1.077
Mof_N 	N 	0.4623	0.738	0.8882	-0.574
Mof_N 	N 	0.47707	0.6974	0.8732	-0.152
Mof_N 	N 	0.3806	0.8056	0.8585	-0.316
Mof_C 	C 	0.3648	0.8445	0.877	-0.054
Mof_H 	H 	0.3554	0.8483	0.9071	-0.032
Mof_H 	H 	0.4258	0.802	0.7629	0.067
Mof_H 	H 	0.3436	0.7921	0.7501	-0.066
Mof_H 	H 	0.4037	0.7123	0.7496	0.229
Mof_H 	H 	0.5309	0.8158	0.9167	0.606
Mof_H 	H 	0.4843	0.8249	0.8921	0.603
Mof_H 	H 	0.4848	0.8064	0.9422	0.561
Mof_N 	N 	0.9623	0.238	0.3882	-0.635
Mof_N 	N 	0.97707	0.1974	0.3732	-0.17
Mof_N 	N 	0.8806	0.3056	0.3585	-0.317
Mof_C 	C 	0.8648	0.3445	0.377	-0.053
Mof_H 	H 	0.8554	0.3483	0.4071	-0.012
Mof_H 	H 	0.9258	0.302	0.2629	0.048
Mof_H 	H 	0.8436	0.2921	0.2501	-0.057
Mof_H 	H 	0.9037	0.2123	0.2496	0.209
Mof_H 	H 	0.0309	0.3158	0.4167	0.728
Mof_H 	H 	0.9843	0.3249	0.3921	0.684
Mof_H 	H 	0.9848	0.3064	0.4422	0.719
Mof_N 	N 	0.4623	0.262	0.1118	-0.717
Mof_N 	N 	0.47707	0.3026	0.1268	-0.109
Mof_N 	N 	0.3806	0.1944	0.1415	-0.325
Mof_C 	C 	0.3648	0.1555	0.123	-0.073
Mof_H 	H 	0.3554	0.1517	0.0929	-0.021
Mof_H 	H 	0.4258	0.198	0.2371	0.044
Mof_H 	H 	0.3436	0.2079	0.2499	-0.059
Mof_H 	H 	0.4037	0.2877	0.2504	0.224
Mof_H 	H 	0.5309	0.1842	0.0833	1.034
Mof_H 	H 	0.4843	0.1751	0.1079	1.009
Mof_H 	H 	0.4848	0.1936	0.0578	1.025
Mof_N 	N 	0.9623	0.762	0.6118	-0.296
Mof_N 	N 	0.97707	0.8026	0.6268	-0.161
Mof_N 	N 	0.8806	0.6944	0.6415	-0.303
Mof_C 	C 	0.8648	0.6555	0.623	-0.016
Mof_H 	H 	0.8554	0.6517	0.5929	-0.011
Mof_H 	H 	0.9258	0.698	0.7371	0.086
Mof_H 	H 	0.8436	0.7079	0.7499	-0.063
Mof_H 	H 	0.9037	0.7877	0.7504	0.202
Mof_H 	H 	0.0309	0.6842	0.5833	-0.088
Mof_H 	H 	0.9843	0.6751	0.6079	-0.098
Mof_H 	H 	0.9848	0.6936	0.5578	-0.171
Mof_N 	N 	0.5377	0.262	0.8882	-0.583
Mof_N 	N 	0.52293	0.3026	0.8732	-0.074
Mof_N 	N 	0.6194	0.1944	0.8585	-0.325
Mof_C 	C 	0.6352	0.1555	0.877	-0.064
Mof_H 	H 	0.6446	0.1517	0.9071	-0.033
Mof_H 	H 	0.5742	0.198	0.7629	0.057
Mof_H 	H 	0.6564	0.2079	0.7501	-0.064
Mof_H 	H 	0.5963	0.2877	0.7496	0.227
Mof_H 	H 	0.4691	0.1842	0.9167	0.81
Mof_H 	H 	0.5157	0.1751	0.8921	0.797
Mof_H 	H 	0.5152	0.1936	0.9422	0.808
Mof_N 	N 	0.0377	0.762	0.3882	-1.037
Mof_N 	N 	0.02293	0.8026	0.3732	-0.117
Mof_N 	N 	0.1194	0.6944	0.3585	-0.334
Mof_C 	C 	0.1352	0.6555	0.377	-0.095
Mof_H 	H 	0.1446	0.6517	0.4071	-0.011
Mof_H 	H 	0.0742	0.698	0.2629	0.103
Mof_H 	H 	0.1564	0.7079	0.2501	-0.073
Mof_H 	H 	0.0963	0.7877	0.2496	0.243
Mof_H 	H 	0.9691	0.6842	0.4167	1.805
Mof_H 	H 	0.0157	0.6751	0.3921	1.92
Mof_H 	H 	0.0152	0.6936	0.4422	1.839
Mof_N 	N 	0.738	0.8882	0.4623	-0.574
Mof_N 	N 	0.6974	0.8732	0.47707	-0.152
Mof_N 	N 	0.8056	0.8585	0.3806	-0.316
Mof_C 	C 	0.8445	0.877	0.3648	-0.054
Mof_H 	H 	0.8483	0.9071	0.3554	-0.032
Mof_H 	H 	0.802	0.7629	0.4258	0.067
Mof_H 	H 	0.7921	0.7501	0.3436	-0.066
Mof_H 	H 	0.7123	0.7496	0.4037	0.229
Mof_H 	H 	0.8158	0.9167	0.5309	0.606
Mof_H 	H 	0.8249	0.8921	0.4843	0.603
Mof_H 	H 	0.8064	0.9422	0.4848	0.561
Mof_N 	N 	0.238	0.3882	0.9623	-0.635
Mof_N 	N 	0.1974	0.3732	0.97707	-0.17
Mof_N 	N 	0.3056	0.3585	0.8806	-0.317
Mof_C 	C 	0.3445	0.377	0.8648	-0.053
Mof_H 	H 	0.3483	0.4071	0.8554	-0.012
Mof_H 	H 	0.302	0.2629	0.9258	0.048
Mof_H 	H 	0.2921	0.2501	0.8436	-0.057
Mof_H 	H 	0.2123	0.2496	0.9037	0.209
Mof_H 	H 	0.3158	0.4167	0.0309	0.728
Mof_H 	H 	0.3249	0.3921	0.9843	0.684
Mof_H 	H 	0.3064	0.4422	0.9848	0.719
Mof_N 	N 	0.738	0.1118	0.5377	-0.62
Mof_N 	N 	0.6974	0.1268	0.52293	-0.113
Mof_N 	N 	0.8056	0.1415	0.6194	-0.322
Mof_C 	C 	0.8445	0.123	0.6352	-0.066
Mof_H 	H 	0.8483	0.0929	0.6446	-0.024
Mof_H 	H 	0.802	0.2371	0.5742	0.057
Mof_H 	H 	0.7921	0.2499	0.6564	-0.064
Mof_H 	H 	0.7123	0.2504	0.5963	0.227
Mof_H 	H 	0.8158	0.0833	0.4691	0.831
Mof_H 	H 	0.8249	0.1079	0.5157	0.818
Mof_H 	H 	0.8064	0.0578	0.5152	0.825
Mof_N 	N 	0.238	0.6118	0.0377	0.145
Mof_N 	N 	0.1974	0.6268	0.02293	-0.114
Mof_N 	N 	0.3056	0.6415	0.1194	-0.287
Mof_C 	C 	0.3445	0.623	0.1352	0.032
Mof_H 	H 	0.3483	0.5929	0.1446	-0.006
Mof_H 	H 	0.302	0.7371	0.0742	0.079
Mof_H 	H 	0.2921	0.7499	0.1564	-0.073
Mof_H 	H 	0.2123	0.7504	0.0963	0.246
Mof_H 	H 	0.3158	0.5833	0.9691	-1.085
Mof_H 	H 	0.3249	0.6079	0.0157	-1.124
Mof_H 	H 	0.3064	0.5578	0.0152	-1.077
Mof_N 	N 	0.262	0.8882	0.5377	-0.583
Mof_N 	N 	0.3026	0.8732	0.52293	-0.074
Mof_N 	N 	0.1944	0.8585	0.6194	-0.325
Mof_C 	C 	0.1555	0.877	0.6352	-0.064
Mof_H 	H 	0.1517	0.9071	0.6446	-0.033
Mof_H 	H 	0.198	0.7629	0.5742	0.057
Mof_H 	H 	0.2079	0.7501	0.6564	-0.064
Mof_H 	H 	0.2877	0.7496	0.5963	0.227
Mof_H 	H 	0.1842	0.9167	0.4691	0.81
Mof_H 	H 	0.1751	0.8921	0.5157	0.797
Mof_H 	H 	0.1936	0.9422	0.5152	0.808
Mof_N 	N 	0.762	0.3882	0.0377	-1.037
Mof_N 	N 	0.8026	0.3732	0.02293	-0.117
Mof_N 	N 	0.6944	0.3585	0.1194	-0.334
Mof_C 	C 	0.6555	0.377	0.1352	-0.095
Mof_H 	H 	0.6517	0.4071	0.1446	-0.011
Mof_H 	H 	0.698	0.2629	0.0742	0.103
Mof_H 	H 	0.7079	0.2501	0.1564	-0.073
Mof_H 	H 	0.7877	0.2496	0.0963	0.243
Mof_H 	H 	0.6842	0.4167	0.9691	1.805
Mof_H 	H 	0.6751	0.3921	0.0157	1.92
Mof_H 	H 	0.6936	0.4422	0.0152	1.839
Mof_N 	N 	0.262	0.1118	0.4623	-0.717
Mof_N 	N 	0.3026	0.1268	0.47707	-0.109
Mof_N 	N 	0.1944	0.1415	0.3806	-0.325
Mof_C 	C 	0.1555	0.123	0.3648	-0.073
Mof_H 	H 	0.1517	0.0929	0.3554	-0.021
Mof_H 	H 	0.198	0.2371	0.4258	0.044
Mof_H 	H 	0.2079	0.2499	0.3436	-0.059
Mof_H 	H 	0.2877	0.2504	0.4037	0.224
Mof_H 	H 	0.1842	0.0833	0.5309	1.034
Mof_H 	H 	0.1751	0.1079	0.4843	1.009
Mof_H 	H 	0.1936	0.0578	0.4848	1.025
Mof_N 	N 	0.762	0.6118	0.9623	-0.296
Mof_N 	N 	0.8026	0.6268	0.97707	-0.161
Mof_N 	N 	0.6944	0.6415	0.8806	-0.303
Mof_C 	C 	0.6555	0.623	0.8648	-0.016
Mof_H 	H 	0.6517	0.5929	0.8554	-0.011
Mof_H 	H 	0.698	0.7371	0.9258	0.086
Mof_H 	H 	0.7079	0.7499	0.8436	-0.063
Mof_H 	H 	0.7877	0.7504	0.9037	0.202
Mof_H 	H 	0.6842	0.5833	0.0309	-0.088
Mof_H 	H 	0.6751	0.6079	0.9843	-0.098
Mof_H 	H 	0.6936	0.5578	0.9848	-0.171
Mof_Zn	Zn	0.39483	0.10517	0.25	1.156
Mof_Zn	Zn	0.60517	0.89483	0.25	1.166
Mof_Zn	Zn	0.60517	0.10517	0.75	1.161
Mof_Zn	Zn	0.39483	0.89483	0.75	1.152
Mof_Zn	Zn	0.25	0.39483	0.10517	1.156
Mof_Zn	Zn	0.25	0.60517	0.89483	1.166
Mof_Zn	Zn	0.75	0.60517	0.10517	1.161
Mof_Zn	Zn	0.75	0.39483	0.89483	1.152
Mof_Zn	Zn	0.10517	0.25	0.39483	1.156
Mof_Zn	Zn	0.89483	0.25	0.60517	1.166
Mof_Zn	Zn	0.10517	0.75	0.60517	1.161
Mof_Zn	Zn	0.89483	0.75	0.39483	1.152
Mof_Zn	Zn	0.10517	0.39483	0.75	1.151
Mof_Zn	Zn	0.89483	0.60517	0.75	1.161
Mof_Zn	Zn	0.10517	0.60517	0.25	1.165
Mof_Zn	Zn	0.89483	0.39483	0.25	1.156
Mof_Zn	Zn	0.39483	0.25	0.89483	1.156
Mof_Zn	Zn	0.60517	0.25	0.10517	1.165
Mof_Zn	Zn	0.60517	0.75	0.89483	1.161
Mof_Zn	Zn	0.39483	0.75	0.10517	1.151
Mof_Zn	Zn	0.25	0.10517	0.60517	1.165
Mof_Zn	Zn	0.25	0.89483	0.39483	1.156
Mof_Zn	Zn	0.75	0.10517	0.39483	1.151
Mof_Zn	Zn	0.75	0.89483	0.60517	1.161
Mof_Zn	Zn	0.60517	0.89483	0.75	1.161
Mof_Zn	Zn	0.10517	0.39483	0.25	1.156
Mof_Zn	Zn	0.39483	0.10517	0.75	1.151
Mof_Zn	Zn	0.39483	0.89483	0.25	1.156
Mof_Zn	Zn	0.60517	0.10517	0.25	1.165
Mof_Zn	Zn	0.75	0.60517	0.89483	1.161
Mof_Zn	Zn	0.25	0.10517	0.39483	1.156
Mof_Zn	Zn	0.75	0.39483	0.10517	1.151
Mof_Zn	Zn	0.25	0.39483	0.89483	1.156
Mof_Zn	Zn	0.25	0.60517	0.10517	1.165
Mof_Zn	Zn	0.89483	0.75	0.60517	1.161
Mof_Zn	Zn	0.39483	0.25	0.10517	1.156
Mof_Zn	Zn	0.10517	0.75	0.39483	1.151
Mof_Zn	Zn	0.89483	0.25	0.39483	1.156
Mof_Zn	Zn	0.10517	0.25	0.60517	1.165
Mof_Zn	Zn	0.89483	0.60517	0.25	1.166
Mof_Zn	Zn	0.89483	0.39483	0.75	1.152
Mof_Zn	Zn	0.10517	0.60517	0.75	1.161
Mof_Zn	Zn	0.60517	0.75	0.10517	1.161
Mof_Zn	Zn	0.39483	0.75	0.89483	1.152
Mof_Zn	Zn	0.60517	0.25	0.89483	1.166
Mof_Zn	Zn	0.75	0.89483	0.39483	1.152
Mof_Zn	Zn	0.75	0.10517	0.60517	1.161
Mof_Zn	Zn	0.25	0.89483	0.60517	1.166
Mof_C 	C 	0.5	0.1028	0.2378	2.155
Mof_C 	C 	0.5	0.0868	0.1945	-6.532
Mof_C 	C 	2.76631e-33	0.6028	0.7378	0.017
Mof_C 	C 	2.60396e-33	0.5868	0.6945	0.203
Mof_C 	C 	0.5	0.8972	0.2378	1.719
Mof_C 	C 	0.5	0.9132	0.1945	-5.187
Mof_C 	C 	-5.2469e-33	0.3972	0.7378	3.663
Mof_C 	C 	-5.40925e-33	0.4132	0.6945	-11.069
Mof_C 	C 	0.5	0.1028	0.7622	1.711
Mof_C 	C 	0.5	0.0868	0.8055	-5.29
Mof_C 	C 	6.993e-33	0.6028	0.2622	-2.035
Mof_C 	C 	-2.86116e-33	0.5868	0.3055	6.528
Mof_C 	C 	0.5	0.8972	0.7622	1.272
Mof_C 	C 	0.5	0.9132	0.8055	-3.94
Mof_C 	C 	1.09996e-32	0.3972	0.2622	1.612
Mof_C 	C 	1.14544e-33	0.4132	0.3055	-4.745
Mof_C 	C 	0.2378	0.5	0.1028	2.155
Mof_C 	C 	0.1945	0.5	0.0868	-6.532
Mof_C 	C 	0.7378	0	0.6028	0.017
Mof_C 	C 	0.6945	0	0.5868	0.203
Mof_C 	C 	0.2378	0.5	0.8972	1.719
Mof_C 	C 	0.1945	0.5	0.9132	-5.187
Mof_C 	C 	0.7378	0	0.3972	3.663
Mof_C 	C 	0.6945	4.0066e-33	0.4132	-11.069
Mof_C 	C 	0.7622	0.5	0.1028	1.711
Mof_C 	C 	0.8055	0.5	0.0868	-5.29
Mof_C 	C 	0.2622	0	0.6028	-2.035
Mof_C 	C 	0.3055	0	0.5868	6.528
Mof_C 	C 	0.7622	0.5	0.8972	1.272
Mof_C 	C 	0.8055	0.5	0.9132	-3.94
Mof_C 	C 	0.2622	0	0.3972	1.612
Mof_C 	C 	0.3055	4.0066e-33	0.4132	-4.745
Mof_C 	C 	0.1028	0.2378	0.5	2.155
Mof_C 	C 	0.0868	0.1945	0.5	-6.532
Mof_C 	C 	0.6028	0.7378	-0	0.017
Mof_C 	C 	0.5868	0.6945	-0	0.203
Mof_C 	C 	0.8972	0.2378	0.5	1.719
Mof_C 	C 	0.9132	0.1945	0.5	-5.187
Mof_C 	C 	0.3972	0.7378	-0	3.663
Mof_C 	C 	0.4132	0.6945	-0	-11.069
Mof_C 	C 	0.1028	0.7622	0.5	1.711
Mof_C 	C 	0.0868	0.8055	0.5	-5.29
Mof_C 	C 	0.6028	0.2622	-0	-2.035
Mof_C 	C 	0.5868	0.3055	-0	6.528
Mof_C 	C 	0.8972	0.7622	0.5	1.272
Mof_C 	C 	0.9132	0.8055	0.5	-3.94
Mof_C 	C 	0.3972	0.2622	-0	1.612
Mof_C 	C 	0.4132	0.3055	-0	-4.745
Mof_C 	C 	0.1028	0.5	0.7622	1.711
Mof_C 	C 	0.0868	0.5	0.8055	-5.29
Mof_C 	C 	0.6028	2.0033e-33	0.2622	-2.035
Mof_C 	C 	0.5868	0	0.3055	6.528
Mof_C 	C 	0.8972	0.5	0.7622	1.272
Mof_C 	C 	0.9132	0.5	0.8055	-3.94
Mof_C 	C 	0.3972	2.0033e-33	0.2622	1.612
Mof_C 	C 	0.4132	0	0.3055	-4.745
Mof_C 	C 	0.1028	0.5	0.2378	2.155
Mof_C 	C 	0.0868	0.5	0.1945	-6.532
Mof_C 	C 	0.6028	-8.01321e-33	0.7378	0.017
Mof_C 	C 	0.5868	0	0.6945	0.203
Mof_C 	C 	0.8972	0.5	0.2378	1.719
Mof_C 	C 	0.9132	0.5	0.1945	-5.187
Mof_C 	C 	0.3972	-8.01321e-33	0.7378	3.663
Mof_C 	C 	0.4132	0	0.6945	-11.069
Mof_C 	C 	0.5	0.2378	0.8972	1.719
Mof_C 	C 	0.5	0.1945	0.9132	-5.187
Mof_C 	C 	-2.51734e-33	0.7378	0.3972	3.663
Mof_C 	C 	-2.45735e-33	0.6945	0.4132	-11.069
Mof_C 	C 	0.5	0.2378	0.1028	2.155
Mof_C 	C 	0.5	0.1945	0.0868	-6.532
Mof_C 	C 	2.26014e-33	0.7378	0.6028	0.017
Mof_C 	C 	2.20015e-33	0.6945	0.5868	0.203
Mof_C 	C 	0.5	0.7622	0.8972	1.272
Mof_C 	C 	0.5	0.8055	0.9132	-3.94
Mof_C 	C 	1.35091e-32	0.2622	0.3972	1.612
Mof_C 	C 	1.54925e-33	0.3055	0.4132	-4.745
Mof_C 	C 	0.5	0.7622	0.1028	1.711
Mof_C 	C 	0.5	0.8055	0.0868	-5.29
Mof_C 	C 	1.02733e-32	0.2622	0.6028	-2.035
Mof_C 	C 	-5.81306e-33	0.3055	0.5868	6.528
Mof_C 	C 	0.2378	0.1028	0.5	2.155
Mof_C 	C 	0.1945	0.0868	0.5	-6.532
Mof_C 	C 	0.7378	0.6028	-0	0.017
Mof_C 	C 	0.6945	0.5868	-0	0.203
Mof_C 	C 	0.2378	0.8972	0.5	1.719
Mof_C 	C 	0.1945	0.9132	0.5	-5.187
Mof_C 	C 	0.7378	0.3972	-0	3.663
Mof_C 	C 	0.6945	0.4132	-0	-11.069
Mof_C 	C 	0.7622	0.1028	0.5	1.711
Mof_C 	C 	0.8055	0.0868	0.5	-5.29
Mof_C 	C 	0.2622	0.6028	-0	-2.035
Mof_C 	C 	0.3055	0.5868	-0	6.528
Mof_C 	C 	0.7622	0.8972	0.5	1.272
Mof_C 	C 	0.8055	0.9132	0.5	-3.94
Mof_C 	C 	0.2622	0.3972	-0	1.612
Mof_C 	C 	0.3055	0.4132	-0	-4.745
Mof_C 	C 	0.3901	0.1855	0.1855	0.105
Mof_C 	C 	0.4068	0.2161	0.2161	-0.323
Mof_C 	C 	0.3608	0.2342	0.2342	0.235
Mof_C 	C 	0.3851	0.267	0.267	-0.72
Mof_H 	H 	0.3617	0.28295	0.28295	0.219
Mof_C 	C 	0.8901	0.6855	0.6855	0.185
Mof_C 	C 	0.9068	0.7161	0.7161	-0.378
Mof_C 	C 	0.8608	0.7342	0.7342	0.236
Mof_C 	C 	0.8851	0.767	0.767	-0.68
Mof_H 	H 	0.8617	0.78295	0.78295	0.198
Mof_C 	C 	0.6099	0.8145	0.1855	0.125
Mof_C 	C 	0.5932	0.7839	0.2161	-0.342
Mof_C 	C 	0.6392	0.7658	0.2342	0.246
Mof_C 	C 	0.6149	0.733	0.267	-0.73
Mof_H 	H 	0.6383	0.71705	0.28295	0.221
Mof_C 	C 	0.1099	0.3145	0.6855	0.17
Mof_C 	C 	0.0932	0.2839	0.7161	-0.388
Mof_C 	C 	0.1392	0.2658	0.7342	0.277
Mof_C 	C 	0.1149	0.233	0.767	-0.771
Mof_H 	H 	0.1383	0.21705	0.78295	0.235
Mof_C 	C 	0.6099	0.1855	0.8145	0.125
Mof_C 	C 	0.5932	0.2161	0.7839	-0.342
Mof_C 	C 	0.6392	0.2342	0.7658	0.246
Mof_C 	C 	0.6149	0.267	0.733	-0.73
Mof_H 	H 	0.6383	0.28295	0.71705	0.221
Mof_C 	C 	0.1099	0.6855	0.3145	0.17
Mof_C 	C 	0.0932	0.7161	0.2839	-0.388
Mof_C 	C 	0.1392	0.7342	0.2658	0.277
Mof_C 	C 	0.1149	0.767	0.233	-0.771
Mof_H 	H 	0.1383	0.78295	0.21705	0.235
Mof_C 	C 	0.3901	0.8145	0.8145	0.139
Mof_C 	C 	0.4068	0.7839	0.7839	-0.354
Mof_C 	C 	0.3608	0.7658	0.7658	0.251
Mof_C 	C 	0.3851	0.733	0.733	-0.734
Mof_H 	H 	0.3617	0.71705	0.71705	0.223
Mof_C 	C 	0.8901	0.3145	0.3145	0.123
Mof_C 	C 	0.9068	0.2839	0.2839	-0.328
Mof_C 	C 	0.8608	0.2658	0.2658	0.223
Mof_C 	C 	0.8851	0.233	0.233	-0.689
Mof_H 	H 	0.8617	0.21705	0.21705	0.208
Mof_C 	C 	0.1855	0.3901	0.1855	0.105
Mof_C 	C 	0.2161	0.4068	0.2161	-0.323
Mof_C 	C 	0.2342	0.3608	0.2342	0.235
Mof_C 	C 	0.267	0.3851	0.267	-0.72
Mof_H 	H 	0.28295	0.3617	0.28295	0.219
Mof_C 	C 	0.6855	0.8901	0.6855	0.185
Mof_C 	C 	0.7161	0.9068	0.7161	-0.378
Mof_C 	C 	0.7342	0.8608	0.7342	0.236
Mof_C 	C 	0.767	0.8851	0.767	-0.68
Mof_H 	H 	0.78295	0.8617	0.78295	0.198
Mof_C 	C 	0.1855	0.6099	0.8145	0.125
Mof_C 	C 	0.2161	0.5932	0.7839	-0.342
Mof_C 	C 	0.2342	0.6392	0.7658	0.246
Mof_C 	C 	0.267	0.6149	0.733	-0.73
Mof_H 	H 	0.28295	0.6383	0.71705	0.221
Mof_C 	C 	0.6855	0.1099	0.3145	0.17
Mof_C 	C 	0.7161	0.0932	0.2839	-0.388
Mof_C 	C 	0.7342	0.1392	0.2658	0.277
Mof_C 	C 	0.767	0.1149	0.233	-0.771
Mof_H 	H 	0.78295	0.1383	0.21705	0.235
Mof_C 	C 	0.8145	0.6099	0.1855	0.125
Mof_C 	C 	0.7839	0.5932	0.2161	-0.342
Mof_C 	C 	0.7658	0.6392	0.2342	0.246
Mof_C 	C 	0.733	0.6149	0.267	-0.73
Mof_H 	H 	0.71705	0.6383	0.28295	0.221
Mof_C 	C 	0.3145	0.1099	0.6855	0.17
Mof_C 	C 	0.2839	0.0932	0.7161	-0.388
Mof_C 	C 	0.2658	0.1392	0.7342	0.277
Mof_C 	C 	0.233	0.1149	0.767	-0.771
Mof_H 	H 	0.21705	0.1383	0.78295	0.235
Mof_C 	C 	0.8145	0.3901	0.8145	0.139
Mof_C 	C 	0.7839	0.4068	0.7839	-0.354
Mof_C 	C 	0.7658	0.3608	0.7658	0.251
Mof_C 	C 	0.733	0.3851	0.733	-0.734
Mof_H 	H 	0.71705	0.3617	0.71705	0.223
Mof_C 	C 	0.3145	0.8901	0.3145	0.123
Mof_C 	C 	0.2839	0.9068	0.2839	-0.328
Mof_C 	C 	0.2658	0.8608	0.2658	0.223
Mof_C 	C 	0.233	0.8851	0.233	-0.689
Mof_H 	H 	0.21705	0.8617	0.21705	0.208
Mof_C 	C 	0.1855	0.1855	0.3901	0.105
Mof_C 	C 	0.2161	0.2161	0.4068	-0.323
Mof_C 	C 	0.2342	0.2342	0.3608	0.235
Mof_C 	C 	0.267	0.267	0.3851	-0.72
Mof_H 	H 	0.28295	0.28295	0.3617	0.219
Mof_C 	C 	0.6855	0.6855	0.8901	0.185
Mof_C 	C 	0.7161	0.7161	0.9068	-0.378
Mof_C 	C 	0.7342	0.7342	0.8608	0.236
Mof_C 	C 	0.767	0.767	0.8851	-0.68
Mof_H 	H 	0.78295	0.78295	0.8617	0.198
Mof_C 	C 	0.8145	0.1855	0.6099	0.125
Mof_C 	C 	0.7839	0.2161	0.5932	-0.342
Mof_C 	C 	0.7658	0.2342	0.6392	0.246
Mof_C 	C 	0.733	0.267	0.6149	-0.73
Mof_H 	H 	0.71705	0.28295	0.6383	0.221
Mof_C 	C 	0.3145	0.6855	0.1099	0.17
Mof_C 	C 	0.2839	0.7161	0.0932	-0.388
Mof_C 	C 	0.2658	0.7342	0.1392	0.277
Mof_C 	C 	0.233	0.767	0.1149	-0.771
Mof_H 	H 	0.21705	0.78295	0.1383	0.235
Mof_C 	C 	0.1855	0.8145	0.6099	0.125
Mof_C 	C 	0.2161	0.7839	0.5932	-0.342
Mof_C 	C 	0.2342	0.7658	0.6392	0.246
Mof_C 	C 	0.267	0.733	0.6149	-0.73
Mof_H 	H 	0.28295	0.71705	0.6383	0.221
Mof_C 	C 	0.6855	0.3145	0.1099	0.17
Mof_C 	C 	0.7161	0.2839	0.0932	-0.388
Mof_C 	C 	0.7342	0.2658	0.1392	0.277
Mof_C 	C 	0.767	0.233	0.1149	-0.771
Mof_H 	H 	0.78295	0.21705	0.1383	0.235
Mof_C 	C 	0.8145	0.8145	0.3901	0.139
Mof_C 	C 	0.7839	0.7839	0.4068	-0.354
Mof_C 	C 	0.7658	0.7658	0.3608	0.251
Mof_C 	C 	0.733	0.733	0.3851	-0.734
Mof_H 	H 	0.71705	0.71705	0.3617	0.223
Mof_C 	C 	0.3145	0.3145	0.8901	0.123
Mof_C 	C 	0.2839	0.2839	0.9068	-0.328
Mof_C 	C 	0.2658	0.2658	0.8608	0.223
Mof_C 	C 	0.233	0.233	0.8851	-0.689
Mof_H 	H 	0.21705	0.21705	0.8617	0.208
Mof_C 	C 	0.1855	0.3901	0.8145	0.122
Mof_C 	C 	0.2161	0.4068	0.7839	-0.339
Mof_C 	C 	0.2342	0.3608	0.7658	0.243
Mof_C 	C 	0.267	0.3851	0.733	-0.727
Mof_H 	H 	0.28295	0.3617	0.71705	0.221
Mof_C 	C 	0.6855	0.8901	0.3145	0.154
Mof_C 	C 	0.7161	0.9068	0.2839	-0.353
Mof_C 	C 	0.7342	0.8608	0.2658	0.23
Mof_C 	C 	0.767	0.8851	0.233	-0.685
Mof_H 	H 	0.78295	0.8617	0.21705	0.203
Mof_C 	C 	0.8145	0.6099	0.8145	0.142
Mof_C 	C 	0.7839	0.5932	0.7839	-0.358
Mof_C 	C 	0.7658	0.6392	0.7658	0.254
Mof_C 	C 	0.733	0.6149	0.733	-0.737
Mof_H 	H 	0.71705	0.6383	0.71705	0.223
Mof_C 	C 	0.3145	0.1099	0.3145	0.138
Mof_C 	C 	0.2839	0.0932	0.2839	-0.364
Mof_C 	C 	0.2658	0.1392	0.2658	0.27
Mof_C 	C 	0.233	0.1149	0.233	-0.775
Mof_H 	H 	0.21705	0.1383	0.21705	0.239
Mof_C 	C 	0.1855	0.6099	0.1855	0.108
Mof_C 	C 	0.2161	0.5932	0.2161	-0.327
Mof_C 	C 	0.2342	0.6392	0.2342	0.238
Mof_C 	C 	0.267	0.6149	0.267	-0.722
Mof_H 	H 	0.28295	0.6383	0.28295	0.219
Mof_C 	C 	0.6855	0.1099	0.6855	0.201
Mof_C 	C 	0.7161	0.0932	0.7161	-0.413
Mof_C 	C 	0.7342	0.1392	0.7342	0.283
Mof_C 	C 	0.767	0.1149	0.767	-0.766
Mof_H 	H 	0.78295	0.1383	0.78295	0.231
Mof_C 	C 	0.8145	0.3901	0.1855	0.122
Mof_C 	C 	0.7839	0.4068	0.2161	-0.339
Mof_C 	C 	0.7658	0.3608	0.2342	0.243
Mof_C 	C 	0.733	0.3851	0.267	-0.727
Mof_H 	H 	0.71705	0.3617	0.28295	0.221
Mof_C 	C 	0.3145	0.8901	0.6855	0.154
Mof_C 	C 	0.2839	0.9068	0.7161	-0.353
Mof_C 	C 	0.2658	0.8608	0.7342	0.23
Mof_C 	C 	0.233	0.8851	0.767	-0.685
Mof_H 	H 	0.21705	0.8617	0.78295	0.203
Mof_C 	C 	0.3901	0.1855	0.8145	0.122
Mof_C 	C 	0.4068	0.2161	0.7839	-0.339
Mof_C 	C 	0.3608	0.2342	0.7658	0.243
Mof_C 	C 	0.3851	0.267	0.733	-0.727
Mof_H 	H 	0.3617	0.28295	0.71705	0.221
Mof_C 	C 	0.8901	0.6855	0.3145	0.154
Mof_C 	C 	0.9068	0.7161	0.2839	-0.353
Mof_C 	C 	0.8608	0.7342	0.2658	0.23
Mof_C 	C 	0.8851	0.767	0.233	-0.685
Mof_H 	H 	0.8617	0.78295	0.21705	0.203
Mof_C 	C 	0.6099	0.1855	0.1855	0.108
Mof_C 	C 	0.5932	0.2161	0.2161	-0.327
Mof_C 	C 	0.6392	0.2342	0.2342	0.238
Mof_C 	C 	0.6149	0.267	0.267	-0.722
Mof_H 	H 	0.6383	0.28295	0.28295	0.219
Mof_C 	C 	0.1099	0.6855	0.6855	0.201
Mof_C 	C 	0.0932	0.7161	0.7161	-0.413
Mof_C 	C 	0.1392	0.7342	0.7342	0.283
Mof_C 	C 	0.1149	0.767	0.767	-0.766
Mof_H 	H 	0.1383	0.78295	0.78295	0.231
Mof_C 	C 	0.6099	0.8145	0.8145	0.142
Mof_C 	C 	0.5932	0.7839	0.7839	-0.358
Mof_C 	C 	0.6392	0.7658	0.7658	0.254
Mof_C 	C 	0.6149	0.733	0.733	-0.737
Mof_H 	H 	0.6383	0.71705	0.71705	0.223
Mof_C 	C 	0.1099	0.3145	0.3145	0.138
Mof_C 	C 	0.0932	0.2839	0.2839	-0.364
Mof_C 	C 	0.1392	0.2658	0.2658	0.27
Mof_C 	C 	0.1149	0.233	0.233	-0.775
Mof_H 	H 	0.1383	0.21705	0.21705	0.239
Mof_C 	C 	0.3901	0.8145	0.1855	0.122
Mof_C 	C 	0.4068	0.7839	0.2161	-0.339
Mof_C 	C 	0.3608	0.7658	0.2342	0.243
Mof_C 	C 	0.3851	0.733	0.267	-0.727
Mof_H 	H 	0.3617	0.71705	0.28295	0.221
Mof_C 	C 	0.8901	0.3145	0.6855	0.154
Mof_C 	C 	0.9068	0.2839	0.7161	-0.353
Mof_C 	C 	0.8608	0.2658	0.7342	0.23
Mof_C 	C 	0.8851	0.233	0.767	-0.685
Mof_H 	H 	0.8617	0.21705	0.78295	0.203
Mof_C 	C 	0.1855	0.1855	0.6099	0.108
Mof_C 	C 	0.2161	0.2161	0.5932	-0.327
Mof_C 	C 	0.2342	0.2342	0.6392	0.238
Mof_C 	C 	0.267	0.267	0.6149	-0.722
Mof_H 	H 	0.28295	0.28295	0.6383	0.219
Mof_C 	C 	0.6855	0.6855	0.1099	0.201
Mof_C 	C 	0.7161	0.7161	0.0932	-0.413
Mof_C 	C 	0.7342	0.7342	0.1392	0.283
Mof_C 	C 	0.767	0.767	0.1149	-0.766
Mof_H 	H 	0.78295	0.78295	0.1383	0.231
Mof_C 	C 	0.1855	0.8145	0.3901	0.122
Mof_C 	C 	0.2161	0.7839	0.4068	-0.339
Mof_C 	C 	0.2342	0.7658	0.3608	0.243
Mof_C 	C 	0.267	0.733	0.3851	-0.727
Mof_H 	H 	0.28295	0.71705	0.3617	0.221
Mof_C 	C 	0.6855	0.3145	0.8901	0.154
Mof_C 	C 	0.7161	0.2839	0.9068	-0.353
Mof_C 	C 	0.7342	0.2658	0.8608	0.23
Mof_C 	C 	0.767	0.233	0.8851	-0.685
Mof_H 	H 	0.78295	0.21705	0.8617	0.203
Mof_C 	C 	0.8145	0.1855	0.3901	0.122
Mof_C 	C 	0.7839	0.2161	0.4068	-0.339
Mof_C 	C 	0.7658	0.2342	0.3608	0.243
Mof_C 	C 	0.733	0.267	0.3851	-0.727
Mof_H 	H 	0.71705	0.28295	0.3617	0.221
Mof_C 	C 	0.3145	0.6855	0.8901	0.154
Mof_C 	C 	0.2839	0.7161	0.9068	-0.353
Mof_C 	C 	0.2658	0.7342	0.8608	0.23
Mof_C 	C 	0.233	0.767	0.8851	-0.685
Mof_H 	H 	0.21705	0.78295	0.8617	0.203
Mof_C 	C 	0.8145	0.8145	0.6099	0.142
Mof_C 	C 	0.7839	0.7839	0.5932	-0.358
Mof_C 	C 	0.7658	0.7658	0.6392	0.254
Mof_C 	C 	0.733	0.733	0.6149	-0.737
Mof_H 	H 	0.71705	0.71705	0.6383	0.223
Mof_C 	C 	0.3145	0.3145	0.1099	0.138
Mof_C 	C 	0.2839	0.2839	0.0932	-0.364
Mof_C 	C 	0.2658	0.2658	0.1392	0.27
Mof_C 	C 	0.233	0.233	0.1149	-0.775
Mof_H 	H 	0.21705	0.21705	0.1383	0.239
_end
