data_functionalizedCrystal
_audit_creation_method	'EQeq! by Chris Wilmer'
_symmetry_space_group_name_H-M	'P1'
_symmetry_Int_Tables_number	1
_symmetry_cell_setting	triclinic
loop_
_symmetry_equiv_pos_as_xyz
  x,y,z
_cell_length_a	18.5127
_cell_length_b	18.5127
_cell_length_c	78.4908
_cell_angle_alpha	90
_cell_angle_beta	90
_cell_angle_gamma	120
loop_
_atom_site_label
_atom_site_type_symbol
_atom_site_fract_x
_atom_site_fract_y
_atom_site_fract_z
_atom_site_charge
Mof_Zn	Zn	0.54303	0.05514	0.26546	1.231
Mof_O 	O 	0.425	0.3919	0.22912	-0.451
Mof_O 	O 	0.4687	0.3508	0.25186	-0.448
Mof_O 	O 	0.4487	0.0211	0.22555	-0.445
Mof_O 	O 	0.489	0.1004	0.24904	-0.461
Mof_O 	O 	0.5847	0.1315	0.28523	-0.463
Mof_N 	N 	0.6092	0.23932	0.3011	-0.168
Mof_C 	C 	0.4205	0.2623	0.22805	-0.086
Mof_C 	C 	0.4399	0.2068	0.23569	0.028
Mof_H 	H 	0.4591	0.2154	0.2471	0.051
Mof_C 	C 	0.4311	0.1385	0.22659	-0.089
Mof_C 	C 	0.4022	0.1256	0.20996	-0.026
Mof_H 	H 	0.3957	0.0785	0.2038	0.058
Mof_C 	C 	0.3825	0.1811	0.20212	0.012
Mof_C 	C 	0.392	0.2497	0.21166	-0.027
Mof_H 	H 	0.3783	0.288	0.2066	0.06
Mof_C 	C 	0.4392	0.3416	0.23711	0.377
Mof_C 	C 	0.4582	0.0822	0.23442	0.38
Mof_C 	C 	0.3572	0.1717	0.18397	-0.028
Mof_C 	C 	0.4146	0.1849	0.17105	0.016
Mof_C 	C 	0.4983	0.2052	0.17477	-0.061
Mof_H 	H 	0.5154	0.2093	0.1863	0.059
Mof_C 	C 	0.554	0.2187	0.16203	-0.032
Mof_H 	H 	0.6088	0.2308	0.1648	0.044
Mof_C 	C 	0.2757	0.1532	0.17977	0.017
Mof_C 	C 	0.2142	0.1367	0.19257	-0.063
Mof_H 	H 	0.2289	0.1387	0.2042	0.059
Mof_C 	C 	0.1353	0.1182	0.18851	-0.027
Mof_H 	H 	0.0958	0.1078	0.1973	0.04
Mof_C 	C 	0.6293	0.207	0.28612	0.197
Mof_C 	C 	0.5553	0.2209	0.3169	0.015
Mof_C 	C 	0.5535	0.1531	0.29635	0.184
Mof_C 	C 	0.6948	0.2959	0.2934	-0.045
Mof_C 	C 	0.5985	0.2938	0.31418	0.008
Mof_Zn	Zn	0.2097	0.38847	0.59879	1.233
Mof_O 	O 	0.09167	0.72523	0.56245	-0.45
Mof_O 	O 	0.13537	0.68413	0.58519	-0.447
Mof_O 	O 	0.11537	0.35443	0.55888	-0.443
Mof_O 	O 	0.15567	0.43373	0.58237	-0.459
Mof_O 	O 	0.25137	0.46483	0.61856	-0.462
Mof_N 	N 	0.27587	0.57265	0.63443	-0.167
Mof_C 	C 	0.08717	0.59563	0.56138	-0.084
Mof_C 	C 	0.10657	0.54013	0.56902	0.028
Mof_H 	H 	0.12577	0.54873	0.58043	0.052
Mof_C 	C 	0.09777	0.47183	0.55992	-0.088
Mof_C 	C 	0.06887	0.45893	0.54329	-0.027
Mof_H 	H 	0.06237	0.41183	0.53713	0.059
Mof_C 	C 	0.04917	0.51443	0.53545	0.015
Mof_C 	C 	0.05867	0.58303	0.54499	-0.027
Mof_H 	H 	0.04497	0.62133	0.53993	0.061
Mof_C 	C 	0.10587	0.67493	0.57044	0.378
Mof_C 	C 	0.12487	0.41553	0.56775	0.38
Mof_C 	C 	0.02387	0.50503	0.5173	-0.033
Mof_C 	C 	0.08127	0.51823	0.50438	0.02
Mof_C 	C 	0.16497	0.53853	0.5081	-0.064
Mof_H 	H 	0.18207	0.54263	0.51963	0.06
Mof_C 	C 	0.22067	0.55203	0.49536	-0.03
Mof_H 	H 	0.27547	0.56413	0.49813	0.044
Mof_C 	C 	0.94237	0.48653	0.5131	0.023
Mof_C 	C 	0.88087	0.47003	0.5259	-0.066
Mof_H 	H 	0.89557	0.47203	0.53753	0.062
Mof_C 	C 	0.80197	0.45153	0.52184	-0.023
Mof_H 	H 	0.76247	0.44113	0.53063	0.04
Mof_C 	C 	0.29597	0.54033	0.61945	0.197
Mof_C 	C 	0.22197	0.55423	0.65023	0.015
Mof_C 	C 	0.22017	0.48643	0.62968	0.184
Mof_C 	C 	0.36147	0.62923	0.62673	-0.045
Mof_C 	C 	0.26517	0.62713	0.64751	0.008
Mof_Zn	Zn	0.87636	0.72181	0.93213	1.233
Mof_O 	O 	0.75833	0.05857	0.89579	-0.45
Mof_O 	O 	0.80203	0.01747	0.91853	-0.447
Mof_O 	O 	0.78203	0.68777	0.89222	-0.443
Mof_O 	O 	0.82233	0.76707	0.91571	-0.459
Mof_O 	O 	0.91803	0.79817	0.9519	-0.461
Mof_N 	N 	0.94253	0.90599	0.96777	-0.167
Mof_C 	C 	0.75383	0.92897	0.89472	-0.081
Mof_C 	C 	0.77323	0.87347	0.90236	0.027
Mof_H 	H 	0.79243	0.88207	0.91377	0.053
Mof_C 	C 	0.76443	0.80517	0.89326	-0.087
Mof_C 	C 	0.73553	0.79227	0.87663	-0.026
Mof_H 	H 	0.72903	0.74517	0.87047	0.06
Mof_C 	C 	0.71583	0.84777	0.86879	0.015
Mof_C 	C 	0.72533	0.91637	0.87833	-0.028
Mof_H 	H 	0.71163	0.95467	0.87327	0.062
Mof_C 	C 	0.77253	0.00827	0.90378	0.375
Mof_C 	C 	0.79153	0.74887	0.90109	0.38
Mof_C 	C 	0.69053	0.83837	0.85064	-0.028
Mof_C 	C 	0.74793	0.85157	0.83772	0.016
Mof_C 	C 	0.83163	0.87187	0.84144	-0.06
Mof_H 	H 	0.84873	0.87597	0.85297	0.059
Mof_C 	C 	0.88733	0.88537	0.8287	-0.032
Mof_H 	H 	0.94213	0.89747	0.83147	0.046
Mof_C 	C 	0.60903	0.81987	0.84644	0.017
Mof_C 	C 	0.54753	0.80337	0.85924	-0.063
Mof_H 	H 	0.56223	0.80537	0.87087	0.06
Mof_C 	C 	0.46863	0.78487	0.85518	-0.026
Mof_H 	H 	0.42913	0.77447	0.86397	0.041
Mof_C 	C 	0.96263	0.87367	0.95279	0.196
Mof_C 	C 	0.88863	0.88757	0.98357	0.013
Mof_C 	C 	0.88683	0.81977	0.96302	0.185
Mof_C 	C 	0.02813	0.96257	0.96007	-0.038
Mof_C 	C 	0.93183	0.96047	0.98085	0.015
Mof_Zn	Zn	0.94486	0.48789	0.26546	1.233
Mof_O 	O 	0.6081	0.0331	0.22912	-0.451
Mof_O 	O 	0.6492	0.1179	0.25186	-0.447
Mof_O 	O 	0.9789	0.4276	0.22555	-0.442
Mof_O 	O 	0.8996	0.3886	0.24904	-0.459
Mof_O 	O 	0.8685	0.4532	0.28523	-0.461
Mof_N 	N 	0.76068	0.36988	0.3011	-0.167
Mof_C 	C 	0.7377	0.1582	0.22805	-0.085
Mof_C 	C 	0.7932	0.2331	0.23569	0.029
Mof_H 	H 	0.7846	0.2437	0.2471	0.052
Mof_C 	C 	0.8615	0.2926	0.22659	-0.088
Mof_C 	C 	0.8744	0.2766	0.20996	-0.025
Mof_H 	H 	0.9215	0.3172	0.2038	0.06
Mof_C 	C 	0.8189	0.2014	0.20212	0.012
Mof_C 	C 	0.7503	0.1423	0.21166	-0.025
Mof_H 	H 	0.712	0.0903	0.2066	0.06
Mof_C 	C 	0.6584	0.0976	0.23711	0.378
Mof_C 	C 	0.9178	0.376	0.23442	0.381
Mof_C 	C 	0.8283	0.1855	0.18397	-0.025
Mof_C 	C 	0.8151	0.2297	0.17105	0.014
Mof_C 	C 	0.7948	0.2931	0.17477	-0.059
Mof_H 	H 	0.7907	0.3061	0.1863	0.058
Mof_C 	C 	0.7813	0.3353	0.16203	-0.033
Mof_H 	H 	0.7692	0.378	0.1648	0.045
Mof_C 	C 	0.8468	0.1225	0.17977	0.011
Mof_C 	C 	0.8633	0.0775	0.19257	-0.053
Mof_H 	H 	0.8613	0.0902	0.2042	0.057
Mof_C 	C 	0.8818	0.0171	0.18851	-0.042
Mof_H 	H 	0.8922	0.988	0.1973	0.048
Mof_C 	C 	0.793	0.4223	0.28612	0.197
Mof_C 	C 	0.7791	0.3344	0.3169	0.016
Mof_C 	C 	0.8469	0.4004	0.29635	0.185
Mof_C 	C 	0.7041	0.3989	0.2934	-0.045
Mof_C 	C 	0.7062	0.3047	0.31418	0.008
Mof_Zn	Zn	0.61153	0.82122	0.59879	1.233
Mof_O 	O 	0.27477	0.36643	0.56245	-0.45
Mof_O 	O 	0.31587	0.45123	0.58519	-0.447
Mof_O 	O 	0.64557	0.76093	0.55888	-0.443
Mof_O 	O 	0.56627	0.72193	0.58237	-0.459
Mof_O 	O 	0.53517	0.78653	0.61856	-0.461
Mof_N 	N 	0.42735	0.70321	0.63443	-0.167
Mof_C 	C 	0.40437	0.49153	0.56138	-0.085
Mof_C 	C 	0.45987	0.56643	0.56902	0.029
Mof_H 	H 	0.45127	0.57703	0.58043	0.052
Mof_C 	C 	0.52817	0.62593	0.55992	-0.088
Mof_C 	C 	0.54107	0.60993	0.54329	-0.025
Mof_H 	H 	0.58817	0.65053	0.53713	0.06
Mof_C 	C 	0.48557	0.53473	0.53545	0.013
Mof_C 	C 	0.41697	0.47563	0.54499	-0.026
Mof_H 	H 	0.37867	0.42363	0.53993	0.061
Mof_C 	C 	0.32507	0.43093	0.57044	0.378
Mof_C 	C 	0.58447	0.70933	0.56775	0.381
Mof_C 	C 	0.49497	0.51883	0.5173	-0.028
Mof_C 	C 	0.48177	0.56303	0.50438	0.016
Mof_C 	C 	0.46147	0.62643	0.5081	-0.061
Mof_H 	H 	0.45737	0.63943	0.51963	0.059
Mof_C 	C 	0.44797	0.66863	0.49536	-0.032
Mof_H 	H 	0.43587	0.71133	0.49813	0.045
Mof_C 	C 	0.51347	0.45583	0.5131	0.017
Mof_C 	C 	0.52997	0.41083	0.5259	-0.063
Mof_H 	H 	0.52797	0.42353	0.53753	0.06
Mof_C 	C 	0.54847	0.35043	0.52184	-0.026
Mof_H 	H 	0.55887	0.32133	0.53063	0.041
Mof_C 	C 	0.45967	0.75563	0.61945	0.197
Mof_C 	C 	0.44577	0.66773	0.65023	0.016
Mof_C 	C 	0.51357	0.73373	0.62968	0.185
Mof_C 	C 	0.37077	0.73223	0.62673	-0.045
Mof_C 	C 	0.37287	0.63803	0.64751	0.008
Mof_Zn	Zn	0.27819	0.15456	0.93213	1.233
Mof_O 	O 	0.94143	0.69977	0.89579	-0.45
Mof_O 	O 	0.98253	0.78457	0.91853	-0.446
Mof_O 	O 	0.31223	0.09427	0.89222	-0.443
Mof_O 	O 	0.23293	0.05527	0.91571	-0.46
Mof_O 	O 	0.20183	0.11987	0.9519	-0.461
Mof_N 	N 	0.09401	0.03655	0.96777	-0.167
Mof_C 	C 	0.07103	0.82487	0.89472	-0.087
Mof_C 	C 	0.12653	0.89977	0.90236	0.029
Mof_H 	H 	0.11793	0.91037	0.91377	0.052
Mof_C 	C 	0.19483	0.95927	0.89326	-0.085
Mof_C 	C 	0.20773	0.94327	0.87663	-0.025
Mof_H 	H 	0.25483	0.98387	0.87047	0.06
Mof_C 	C 	0.15223	0.86807	0.86879	0.012
Mof_C 	C 	0.08363	0.80897	0.87833	-0.024
Mof_H 	H 	0.04533	0.75697	0.87327	0.06
Mof_C 	C 	0.99173	0.76427	0.90378	0.38
Mof_C 	C 	0.25113	0.04267	0.90109	0.378
Mof_C 	C 	0.16163	0.85217	0.85064	-0.024
Mof_C 	C 	0.14843	0.89637	0.83772	0.008
Mof_C 	C 	0.12813	0.95977	0.84144	-0.047
Mof_H 	H 	0.12403	0.97277	0.85297	0.054
Mof_C 	C 	0.11463	0.00197	0.8287	-0.053
Mof_H 	H 	0.10253	0.04467	0.83147	0.05
Mof_C 	C 	0.18013	0.78917	0.84644	0.014
Mof_C 	C 	0.19663	0.74417	0.85924	-0.061
Mof_H 	H 	0.19463	0.75687	0.87087	0.059
Mof_C 	C 	0.21513	0.68377	0.85518	-0.028
Mof_H 	H 	0.22553	0.65467	0.86397	0.041
Mof_C 	C 	0.12633	0.08897	0.95279	0.193
Mof_C 	C 	0.11243	0.00107	0.98357	0.008
Mof_C 	C 	0.18023	0.06707	0.96302	0.185
Mof_C 	C 	0.03743	0.06557	0.96007	-0.04
Mof_C 	C 	0.03953	0.97137	0.98085	0.017
Mof_Zn	Zn	0.51211	0.45697	0.26546	1.233
Mof_O 	O 	0.9669	0.575	0.22912	-0.449
Mof_O 	O 	0.8821	0.5313	0.25186	-0.446
Mof_O 	O 	0.5724	0.5513	0.22555	-0.443
Mof_O 	O 	0.6114	0.511	0.24904	-0.459
Mof_O 	O 	0.5468	0.4153	0.28523	-0.462
Mof_N 	N 	0.63012	0.3908	0.3011	-0.167
Mof_C 	C 	0.8418	0.5795	0.22805	-0.084
Mof_C 	C 	0.7669	0.5601	0.23569	0.028
Mof_H 	H 	0.7563	0.5409	0.2471	0.052
Mof_C 	C 	0.7074	0.5689	0.22659	-0.087
Mof_C 	C 	0.7234	0.5978	0.20996	-0.026
Mof_H 	H 	0.6828	0.6043	0.2038	0.06
Mof_C 	C 	0.7986	0.6175	0.20212	0.015
Mof_C 	C 	0.8577	0.608	0.21166	-0.027
Mof_H 	H 	0.9097	0.6217	0.2066	0.062
Mof_C 	C 	0.9024	0.5608	0.23711	0.378
Mof_C 	C 	0.624	0.5418	0.23442	0.38
Mof_C 	C 	0.8145	0.6428	0.18397	-0.031
Mof_C 	C 	0.7703	0.5854	0.17105	0.018
Mof_C 	C 	0.7069	0.5017	0.17477	-0.062
Mof_H 	H 	0.6939	0.4846	0.1863	0.059
Mof_C 	C 	0.6647	0.446	0.16203	-0.031
Mof_H 	H 	0.622	0.3912	0.1648	0.044
Mof_C 	C 	0.8775	0.7243	0.17977	0.023
Mof_C 	C 	0.9225	0.7858	0.19257	-0.074
Mof_H 	H 	0.9098	0.7711	0.2042	0.064
Mof_C 	C 	0.9829	0.8647	0.18851	-0.008
Mof_H 	H 	0.012	0.9042	0.1973	0.033
Mof_C 	C 	0.5777	0.3707	0.28612	0.197
Mof_C 	C 	0.6656	0.4447	0.3169	0.016
Mof_C 	C 	0.5996	0.4465	0.29635	0.185
Mof_C 	C 	0.6011	0.3052	0.2934	-0.045
Mof_C 	C 	0.6953	0.4015	0.31418	0.008
Mof_Zn	Zn	0.17878	0.7903	0.59879	1.233
Mof_O 	O 	0.63357	0.90833	0.56245	-0.45
Mof_O 	O 	0.54877	0.86463	0.58519	-0.446
Mof_O 	O 	0.23907	0.88463	0.55888	-0.443
Mof_O 	O 	0.27807	0.84433	0.58237	-0.459
Mof_O 	O 	0.21347	0.74863	0.61856	-0.462
Mof_N 	N 	0.29679	0.72413	0.63443	-0.167
Mof_C 	C 	0.50847	0.91283	0.56138	-0.085
Mof_C 	C 	0.43357	0.89343	0.56902	0.029
Mof_H 	H 	0.42297	0.87423	0.58043	0.052
Mof_C 	C 	0.37407	0.90223	0.55992	-0.088
Mof_C 	C 	0.39007	0.93113	0.54329	-0.024
Mof_H 	H 	0.34947	0.93763	0.53713	0.059
Mof_C 	C 	0.46527	0.95083	0.53545	0.012
Mof_C 	C 	0.52437	0.94133	0.54499	-0.025
Mof_H 	H 	0.57637	0.95503	0.53993	0.061
Mof_C 	C 	0.56907	0.89413	0.57044	0.378
Mof_C 	C 	0.29067	0.87513	0.56775	0.381
Mof_C 	C 	0.48117	0.97613	0.5173	-0.022
Mof_C 	C 	0.43697	0.91873	0.50438	0.012
Mof_C 	C 	0.37357	0.83503	0.5081	-0.058
Mof_H 	H 	0.36057	0.81793	0.51963	0.057
Mof_C 	C 	0.33137	0.77933	0.49536	-0.035
Mof_H 	H 	0.28867	0.72453	0.49813	0.045
Mof_C 	C 	0.54417	0.05763	0.5131	0.011
Mof_C 	C 	0.58917	0.11913	0.5259	-0.059
Mof_H 	H 	0.57647	0.10443	0.53753	0.058
Mof_C 	C 	0.64957	0.19803	0.52184	-0.029
Mof_H 	H 	0.67867	0.23753	0.53063	0.042
Mof_C 	C 	0.24437	0.70403	0.61945	0.197
Mof_C 	C 	0.33227	0.77803	0.65023	0.016
Mof_C 	C 	0.26627	0.77983	0.62968	0.185
Mof_C 	C 	0.26777	0.63853	0.62673	-0.045
Mof_C 	C 	0.36197	0.73483	0.64751	0.008
Mof_Zn	Zn	0.84544	0.12364	0.93213	1.233
Mof_O 	O 	0.30023	0.24167	0.89579	-0.45
Mof_O 	O 	0.21543	0.19797	0.91853	-0.447
Mof_O 	O 	0.90573	0.21797	0.89222	-0.443
Mof_O 	O 	0.94473	0.17767	0.91571	-0.459
Mof_O 	O 	0.88013	0.08197	0.9519	-0.461
Mof_N 	N 	0.96345	0.05747	0.96777	-0.167
Mof_C 	C 	0.17513	0.24617	0.89472	-0.085
Mof_C 	C 	0.10023	0.22677	0.90236	0.03
Mof_H 	H 	0.08963	0.20757	0.91377	0.051
Mof_C 	C 	0.04073	0.23557	0.89326	-0.091
Mof_C 	C 	0.05673	0.26447	0.87663	-0.025
Mof_H 	H 	0.01613	0.27097	0.87047	0.058
Mof_C 	C 	0.13193	0.28417	0.86879	0.014
Mof_C 	C 	0.19103	0.27467	0.87833	-0.026
Mof_H 	H 	0.24303	0.28837	0.87327	0.061
Mof_C 	C 	0.23573	0.22747	0.90378	0.378
Mof_C 	C 	0.95733	0.20847	0.90109	0.383
Mof_C 	C 	0.14783	0.30947	0.85064	-0.031
Mof_C 	C 	0.10363	0.25207	0.83772	0.022
Mof_C 	C 	0.04023	0.16837	0.84144	-0.073
Mof_H 	H 	0.02723	0.15127	0.85297	0.062
Mof_C 	C 	0.99803	0.11267	0.8287	-0.016
Mof_H 	H 	0.95533	0.05787	0.83147	0.039
Mof_C 	C 	0.21083	0.39097	0.84644	0.019
Mof_C 	C 	0.25583	0.45247	0.85924	-0.064
Mof_H 	H 	0.24313	0.43777	0.87087	0.06
Mof_C 	C 	0.31623	0.53137	0.85518	-0.025
Mof_H 	H 	0.34533	0.57087	0.86397	0.04
Mof_C 	C 	0.91103	0.03737	0.95279	0.192
Mof_C 	C 	0.99893	0.11137	0.98357	0.017
Mof_C 	C 	0.93293	0.11317	0.96302	0.185
Mof_C 	C 	0.93443	0.97187	0.96007	-0.033
Mof_C 	C 	0.02863	0.06817	0.98085	0.006
Mof_Zn	Zn	0.05514	0.54303	0.23454	1.232
Mof_O 	O 	0.3919	0.425	0.27088	-0.45
Mof_O 	O 	0.3508	0.4687	0.24814	-0.447
Mof_O 	O 	0.0211	0.4487	0.27445	-0.444
Mof_O 	O 	0.1004	0.489	0.25096	-0.46
Mof_O 	O 	0.1315	0.5847	0.21477	-0.462
Mof_N 	N 	0.23932	0.6092	0.1989	-0.167
Mof_C 	C 	0.2623	0.4205	0.27195	-0.085
Mof_C 	C 	0.2068	0.4399	0.26431	0.029
Mof_H 	H 	0.2154	0.4591	0.2529	0.052
Mof_C 	C 	0.1385	0.4311	0.27341	-0.088
Mof_C 	C 	0.1256	0.4022	0.29004	-0.025
Mof_H 	H 	0.0785	0.3957	0.2962	0.059
Mof_C 	C 	0.1811	0.3825	0.29788	0.013
Mof_C 	C 	0.2497	0.392	0.28834	-0.026
Mof_H 	H 	0.288	0.3783	0.2934	0.061
Mof_C 	C 	0.3416	0.4392	0.26289	0.378
Mof_C 	C 	0.0822	0.4582	0.26558	0.381
Mof_C 	C 	0.1717	0.3572	0.31603	-0.028
Mof_C 	C 	0.1849	0.4146	0.32895	0.016
Mof_C 	C 	0.2052	0.4983	0.32523	-0.061
Mof_H 	H 	0.2093	0.5154	0.3137	0.059
Mof_C 	C 	0.2187	0.554	0.33797	-0.032
Mof_H 	H 	0.2308	0.6088	0.3352	0.044
Mof_C 	C 	0.1532	0.2757	0.32023	0.017
Mof_C 	C 	0.1367	0.2142	0.30743	-0.063
Mof_H 	H 	0.1387	0.2289	0.2958	0.059
Mof_C 	C 	0.1182	0.1353	0.31149	-0.027
Mof_H 	H 	0.1078	0.0958	0.3027	0.04
Mof_C 	C 	0.207	0.6293	0.21388	0.197
Mof_C 	C 	0.2209	0.5553	0.1831	0.015
Mof_C 	C 	0.1531	0.5535	0.20365	0.184
Mof_C 	C 	0.2959	0.6948	0.2066	-0.045
Mof_C 	C 	0.2938	0.5985	0.18582	0.008
Mof_Zn	Zn	0.72181	0.87636	0.56787	1.233
Mof_O 	O 	0.05857	0.75833	0.60421	-0.45
Mof_O 	O 	0.01747	0.80203	0.58147	-0.447
Mof_O 	O 	0.68777	0.78203	0.60778	-0.443
Mof_O 	O 	0.76707	0.82233	0.58429	-0.459
Mof_O 	O 	0.79817	0.91803	0.5481	-0.461
Mof_N 	N 	0.90599	0.94253	0.53223	-0.167
Mof_C 	C 	0.92897	0.75383	0.60528	-0.081
Mof_C 	C 	0.87347	0.77323	0.59764	0.027
Mof_H 	H 	0.88207	0.79243	0.58623	0.053
Mof_C 	C 	0.80517	0.76443	0.60674	-0.087
Mof_C 	C 	0.79227	0.73553	0.62337	-0.026
Mof_H 	H 	0.74517	0.72903	0.62953	0.06
Mof_C 	C 	0.84777	0.71583	0.63121	0.015
Mof_C 	C 	0.91637	0.72533	0.62167	-0.028
Mof_H 	H 	0.95467	0.71163	0.62673	0.062
Mof_C 	C 	0.00827	0.77253	0.59622	0.375
Mof_C 	C 	0.74887	0.79153	0.59891	0.38
Mof_C 	C 	0.83837	0.69053	0.64936	-0.028
Mof_C 	C 	0.85157	0.74793	0.66228	0.016
Mof_C 	C 	0.87187	0.83163	0.65856	-0.06
Mof_H 	H 	0.87597	0.84873	0.64703	0.059
Mof_C 	C 	0.88537	0.88733	0.6713	-0.032
Mof_H 	H 	0.89747	0.94213	0.66853	0.046
Mof_C 	C 	0.81987	0.60903	0.65356	0.017
Mof_C 	C 	0.80337	0.54753	0.64076	-0.063
Mof_H 	H 	0.80537	0.56223	0.62913	0.06
Mof_C 	C 	0.78487	0.46863	0.64482	-0.026
Mof_H 	H 	0.77447	0.42913	0.63603	0.041
Mof_C 	C 	0.87367	0.96263	0.54721	0.196
Mof_C 	C 	0.88757	0.88863	0.51643	0.013
Mof_C 	C 	0.81977	0.88683	0.53698	0.185
Mof_C 	C 	0.96257	0.02813	0.53993	-0.038
Mof_C 	C 	0.96047	0.93183	0.51915	0.015
Mof_Zn	Zn	0.38847	0.2097	0.90121	1.233
Mof_O 	O 	0.72523	0.09167	0.93755	-0.45
Mof_O 	O 	0.68413	0.13537	0.91481	-0.447
Mof_O 	O 	0.35443	0.11537	0.94112	-0.443
Mof_O 	O 	0.43373	0.15567	0.91763	-0.459
Mof_O 	O 	0.46483	0.25137	0.88144	-0.462
Mof_N 	N 	0.57265	0.27587	0.86557	-0.167
Mof_C 	C 	0.59563	0.08717	0.93862	-0.084
Mof_C 	C 	0.54013	0.10657	0.93098	0.028
Mof_H 	H 	0.54873	0.12577	0.91957	0.052
Mof_C 	C 	0.47183	0.09777	0.94008	-0.088
Mof_C 	C 	0.45893	0.06887	0.95671	-0.027
Mof_H 	H 	0.41183	0.06237	0.96287	0.059
Mof_C 	C 	0.51443	0.04917	0.96455	0.015
Mof_C 	C 	0.58303	0.05867	0.95501	-0.027
Mof_H 	H 	0.62133	0.04497	0.96007	0.061
Mof_C 	C 	0.67493	0.10587	0.92956	0.378
Mof_C 	C 	0.41553	0.12487	0.93225	0.38
Mof_C 	C 	0.50503	0.02387	0.9827	-0.033
Mof_C 	C 	0.51823	0.08127	0.99562	0.02
Mof_C 	C 	0.53853	0.16497	0.9919	-0.064
Mof_H 	H 	0.54263	0.18207	0.98037	0.06
Mof_C 	C 	0.55203	0.22067	0.00464	-0.03
Mof_H 	H 	0.56413	0.27547	0.00187	0.044
Mof_C 	C 	0.48653	0.94237	0.9869	0.023
Mof_C 	C 	0.47003	0.88087	0.9741	-0.066
Mof_H 	H 	0.47203	0.89557	0.96247	0.062
Mof_C 	C 	0.45153	0.80197	0.97816	-0.023
Mof_H 	H 	0.44113	0.76247	0.96937	0.04
Mof_C 	C 	0.54033	0.29597	0.88055	0.197
Mof_C 	C 	0.55423	0.22197	0.84977	0.015
Mof_C 	C 	0.48643	0.22017	0.87032	0.184
Mof_C 	C 	0.62923	0.36147	0.87327	-0.045
Mof_C 	C 	0.62713	0.26517	0.85249	0.008
Mof_Zn	Zn	0.48789	0.94486	0.23454	1.233
Mof_O 	O 	0.0331	0.6081	0.27088	-0.451
Mof_O 	O 	0.1179	0.6492	0.24814	-0.447
Mof_O 	O 	0.4276	0.9789	0.27445	-0.442
Mof_O 	O 	0.3886	0.8996	0.25096	-0.459
Mof_O 	O 	0.4532	0.8685	0.21477	-0.461
Mof_N 	N 	0.36988	0.76068	0.1989	-0.167
Mof_C 	C 	0.1582	0.7377	0.27195	-0.085
Mof_C 	C 	0.2331	0.7932	0.26431	0.029
Mof_H 	H 	0.2437	0.7846	0.2529	0.052
Mof_C 	C 	0.2926	0.8615	0.27341	-0.088
Mof_C 	C 	0.2766	0.8744	0.29004	-0.025
Mof_H 	H 	0.3172	0.9215	0.2962	0.06
Mof_C 	C 	0.2014	0.8189	0.29788	0.012
Mof_C 	C 	0.1423	0.7503	0.28834	-0.025
Mof_H 	H 	0.0903	0.712	0.2934	0.06
Mof_C 	C 	0.0976	0.6584	0.26289	0.378
Mof_C 	C 	0.376	0.9178	0.26558	0.381
Mof_C 	C 	0.1855	0.8283	0.31603	-0.025
Mof_C 	C 	0.2297	0.8151	0.32895	0.014
Mof_C 	C 	0.2931	0.7948	0.32523	-0.059
Mof_H 	H 	0.3061	0.7907	0.3137	0.058
Mof_C 	C 	0.3353	0.7813	0.33797	-0.033
Mof_H 	H 	0.378	0.7692	0.3352	0.045
Mof_C 	C 	0.1225	0.8468	0.32023	0.011
Mof_C 	C 	0.0775	0.8633	0.30743	-0.053
Mof_H 	H 	0.0902	0.8613	0.2958	0.057
Mof_C 	C 	0.0171	0.8818	0.31149	-0.042
Mof_H 	H 	0.988	0.8922	0.3027	0.048
Mof_C 	C 	0.4223	0.793	0.21388	0.197
Mof_C 	C 	0.3344	0.7791	0.1831	0.016
Mof_C 	C 	0.4004	0.8469	0.20365	0.185
Mof_C 	C 	0.3989	0.7041	0.2066	-0.045
Mof_C 	C 	0.3047	0.7062	0.18582	0.008
Mof_Zn	Zn	0.15456	0.27819	0.56787	1.233
Mof_O 	O 	0.69977	0.94143	0.60421	-0.45
Mof_O 	O 	0.78457	0.98253	0.58147	-0.446
Mof_O 	O 	0.09427	0.31223	0.60778	-0.443
Mof_O 	O 	0.05527	0.23293	0.58429	-0.46
Mof_O 	O 	0.11987	0.20183	0.5481	-0.461
Mof_N 	N 	0.03655	0.09401	0.53223	-0.167
Mof_C 	C 	0.82487	0.07103	0.60528	-0.087
Mof_C 	C 	0.89977	0.12653	0.59764	0.029
Mof_H 	H 	0.91037	0.11793	0.58623	0.052
Mof_C 	C 	0.95927	0.19483	0.60674	-0.085
Mof_C 	C 	0.94327	0.20773	0.62337	-0.025
Mof_H 	H 	0.98387	0.25483	0.62953	0.06
Mof_C 	C 	0.86807	0.15223	0.63121	0.012
Mof_C 	C 	0.80897	0.08363	0.62167	-0.024
Mof_H 	H 	0.75697	0.04533	0.62673	0.06
Mof_C 	C 	0.76427	0.99173	0.59622	0.38
Mof_C 	C 	0.04267	0.25113	0.59891	0.378
Mof_C 	C 	0.85217	0.16163	0.64936	-0.024
Mof_C 	C 	0.89637	0.14843	0.66228	0.008
Mof_C 	C 	0.95977	0.12813	0.65856	-0.047
Mof_H 	H 	0.97277	0.12403	0.64703	0.054
Mof_C 	C 	0.00197	0.11463	0.6713	-0.053
Mof_H 	H 	0.04467	0.10253	0.66853	0.05
Mof_C 	C 	0.78917	0.18013	0.65356	0.014
Mof_C 	C 	0.74417	0.19663	0.64076	-0.061
Mof_H 	H 	0.75687	0.19463	0.62913	0.059
Mof_C 	C 	0.68377	0.21513	0.64482	-0.028
Mof_H 	H 	0.65467	0.22553	0.63603	0.041
Mof_C 	C 	0.08897	0.12633	0.54721	0.193
Mof_C 	C 	0.00107	0.11243	0.51643	0.008
Mof_C 	C 	0.06707	0.18023	0.53698	0.185
Mof_C 	C 	0.06557	0.03743	0.53993	-0.04
Mof_C 	C 	0.97137	0.03953	0.51915	0.017
Mof_Zn	Zn	0.82122	0.61153	0.90121	1.233
Mof_O 	O 	0.36643	0.27477	0.93755	-0.45
Mof_O 	O 	0.45123	0.31587	0.91481	-0.447
Mof_O 	O 	0.76093	0.64557	0.94112	-0.443
Mof_O 	O 	0.72193	0.56627	0.91763	-0.459
Mof_O 	O 	0.78653	0.53517	0.88144	-0.461
Mof_N 	N 	0.70321	0.42735	0.86557	-0.167
Mof_C 	C 	0.49153	0.40437	0.93862	-0.085
Mof_C 	C 	0.56643	0.45987	0.93098	0.029
Mof_H 	H 	0.57703	0.45127	0.91957	0.052
Mof_C 	C 	0.62593	0.52817	0.94008	-0.088
Mof_C 	C 	0.60993	0.54107	0.95671	-0.025
Mof_H 	H 	0.65053	0.58817	0.96287	0.06
Mof_C 	C 	0.53473	0.48557	0.96455	0.013
Mof_C 	C 	0.47563	0.41697	0.95501	-0.026
Mof_H 	H 	0.42363	0.37867	0.96007	0.061
Mof_C 	C 	0.43093	0.32507	0.92956	0.378
Mof_C 	C 	0.70933	0.58447	0.93225	0.381
Mof_C 	C 	0.51883	0.49497	0.9827	-0.028
Mof_C 	C 	0.56303	0.48177	0.99562	0.016
Mof_C 	C 	0.62643	0.46147	0.9919	-0.061
Mof_H 	H 	0.63943	0.45737	0.98037	0.059
Mof_C 	C 	0.66863	0.44797	0.00464	-0.032
Mof_H 	H 	0.71133	0.43587	0.00187	0.045
Mof_C 	C 	0.45583	0.51347	0.9869	0.017
Mof_C 	C 	0.41083	0.52997	0.9741	-0.063
Mof_H 	H 	0.42353	0.52797	0.96247	0.06
Mof_C 	C 	0.35043	0.54847	0.97816	-0.026
Mof_H 	H 	0.32133	0.55887	0.96937	0.041
Mof_C 	C 	0.75563	0.45967	0.88055	0.197
Mof_C 	C 	0.66773	0.44577	0.84977	0.016
Mof_C 	C 	0.73373	0.51357	0.87032	0.185
Mof_C 	C 	0.73223	0.37077	0.87327	-0.045
Mof_C 	C 	0.63803	0.37287	0.85249	0.008
Mof_Zn	Zn	0.45697	0.51211	0.23454	1.233
Mof_O 	O 	0.575	0.9669	0.27088	-0.449
Mof_O 	O 	0.5313	0.8821	0.24814	-0.446
Mof_O 	O 	0.5513	0.5724	0.27445	-0.443
Mof_O 	O 	0.511	0.6114	0.25096	-0.459
Mof_O 	O 	0.4153	0.5468	0.21477	-0.462
Mof_N 	N 	0.3908	0.63012	0.1989	-0.167
Mof_C 	C 	0.5795	0.8418	0.27195	-0.084
Mof_C 	C 	0.5601	0.7669	0.26431	0.028
Mof_H 	H 	0.5409	0.7563	0.2529	0.052
Mof_C 	C 	0.5689	0.7074	0.27341	-0.087
Mof_C 	C 	0.5978	0.7234	0.29004	-0.026
Mof_H 	H 	0.6043	0.6828	0.2962	0.06
Mof_C 	C 	0.6175	0.7986	0.29788	0.015
Mof_C 	C 	0.608	0.8577	0.28834	-0.027
Mof_H 	H 	0.6217	0.9097	0.2934	0.062
Mof_C 	C 	0.5608	0.9024	0.26289	0.378
Mof_C 	C 	0.5418	0.624	0.26558	0.38
Mof_C 	C 	0.6428	0.8145	0.31603	-0.031
Mof_C 	C 	0.5854	0.7703	0.32895	0.018
Mof_C 	C 	0.5017	0.7069	0.32523	-0.062
Mof_H 	H 	0.4846	0.6939	0.3137	0.059
Mof_C 	C 	0.446	0.6647	0.33797	-0.031
Mof_H 	H 	0.3912	0.622	0.3352	0.044
Mof_C 	C 	0.7243	0.8775	0.32023	0.023
Mof_C 	C 	0.7858	0.9225	0.30743	-0.074
Mof_H 	H 	0.7711	0.9098	0.2958	0.064
Mof_C 	C 	0.8647	0.9829	0.31149	-0.008
Mof_H 	H 	0.9042	0.012	0.3027	0.033
Mof_C 	C 	0.3707	0.5777	0.21388	0.197
Mof_C 	C 	0.4447	0.6656	0.1831	0.016
Mof_C 	C 	0.4465	0.5996	0.20365	0.185
Mof_C 	C 	0.3052	0.6011	0.2066	-0.045
Mof_C 	C 	0.4015	0.6953	0.18582	0.008
Mof_Zn	Zn	0.12364	0.84544	0.56787	1.233
Mof_O 	O 	0.24167	0.30023	0.60421	-0.45
Mof_O 	O 	0.19797	0.21543	0.58147	-0.447
Mof_O 	O 	0.21797	0.90573	0.60778	-0.443
Mof_O 	O 	0.17767	0.94473	0.58429	-0.459
Mof_O 	O 	0.08197	0.88013	0.5481	-0.461
Mof_N 	N 	0.05747	0.96345	0.53223	-0.167
Mof_C 	C 	0.24617	0.17513	0.60528	-0.085
Mof_C 	C 	0.22677	0.10023	0.59764	0.03
Mof_H 	H 	0.20757	0.08963	0.58623	0.051
Mof_C 	C 	0.23557	0.04073	0.60674	-0.091
Mof_C 	C 	0.26447	0.05673	0.62337	-0.025
Mof_H 	H 	0.27097	0.01613	0.62953	0.058
Mof_C 	C 	0.28417	0.13193	0.63121	0.014
Mof_C 	C 	0.27467	0.19103	0.62167	-0.026
Mof_H 	H 	0.28837	0.24303	0.62673	0.061
Mof_C 	C 	0.22747	0.23573	0.59622	0.378
Mof_C 	C 	0.20847	0.95733	0.59891	0.383
Mof_C 	C 	0.30947	0.14783	0.64936	-0.031
Mof_C 	C 	0.25207	0.10363	0.66228	0.022
Mof_C 	C 	0.16837	0.04023	0.65856	-0.073
Mof_H 	H 	0.15127	0.02723	0.64703	0.062
Mof_C 	C 	0.11267	0.99803	0.6713	-0.016
Mof_H 	H 	0.05787	0.95533	0.66853	0.039
Mof_C 	C 	0.39097	0.21083	0.65356	0.019
Mof_C 	C 	0.45247	0.25583	0.64076	-0.064
Mof_H 	H 	0.43777	0.24313	0.62913	0.06
Mof_C 	C 	0.53137	0.31623	0.64482	-0.025
Mof_H 	H 	0.57087	0.34533	0.63603	0.04
Mof_C 	C 	0.03737	0.91103	0.54721	0.192
Mof_C 	C 	0.11137	0.99893	0.51643	0.017
Mof_C 	C 	0.11317	0.93293	0.53698	0.185
Mof_C 	C 	0.97187	0.93443	0.53993	-0.033
Mof_C 	C 	0.06817	0.02863	0.51915	0.006
Mof_Zn	Zn	0.7903	0.17878	0.90121	1.233
Mof_O 	O 	0.90833	0.63357	0.93755	-0.45
Mof_O 	O 	0.86463	0.54877	0.91481	-0.446
Mof_O 	O 	0.88463	0.23907	0.94112	-0.443
Mof_O 	O 	0.84433	0.27807	0.91763	-0.459
Mof_O 	O 	0.74863	0.21347	0.88144	-0.462
Mof_N 	N 	0.72413	0.29679	0.86557	-0.167
Mof_C 	C 	0.91283	0.50847	0.93862	-0.085
Mof_C 	C 	0.89343	0.43357	0.93098	0.029
Mof_H 	H 	0.87423	0.42297	0.91957	0.052
Mof_C 	C 	0.90223	0.37407	0.94008	-0.088
Mof_C 	C 	0.93113	0.39007	0.95671	-0.024
Mof_H 	H 	0.93763	0.34947	0.96287	0.059
Mof_C 	C 	0.95083	0.46527	0.96455	0.012
Mof_C 	C 	0.94133	0.52437	0.95501	-0.025
Mof_H 	H 	0.95503	0.57637	0.96007	0.061
Mof_C 	C 	0.89413	0.56907	0.92956	0.378
Mof_C 	C 	0.87513	0.29067	0.93225	0.381
Mof_C 	C 	0.97613	0.48117	0.9827	-0.022
Mof_C 	C 	0.91873	0.43697	0.99562	0.012
Mof_C 	C 	0.83503	0.37357	0.9919	-0.058
Mof_H 	H 	0.81793	0.36057	0.98037	0.057
Mof_C 	C 	0.77933	0.33137	0.00464	-0.035
Mof_H 	H 	0.72453	0.28867	0.00187	0.045
Mof_C 	C 	0.05763	0.54417	0.9869	0.011
Mof_C 	C 	0.11913	0.58917	0.9741	-0.059
Mof_H 	H 	0.10443	0.57647	0.96247	0.058
Mof_C 	C 	0.19803	0.64957	0.97816	-0.029
Mof_H 	H 	0.23753	0.67867	0.96937	0.042
Mof_C 	C 	0.70403	0.24437	0.88055	0.197
Mof_C 	C 	0.77803	0.33227	0.84977	0.016
Mof_C 	C 	0.77983	0.26627	0.87032	0.185
Mof_C 	C 	0.63853	0.26777	0.87327	-0.045
Mof_C 	C 	0.73483	0.36197	0.85249	0.008
Mof_Zn	Zn	0.45697	0.94486	0.73454	1.233
Mof_O 	O 	0.575	0.6081	0.77088	-0.45
Mof_O 	O 	0.5313	0.6492	0.74814	-0.446
Mof_O 	O 	0.5513	0.9789	0.77445	-0.442
Mof_O 	O 	0.511	0.8996	0.75096	-0.459
Mof_O 	O 	0.4153	0.8685	0.71477	-0.461
Mof_N 	N 	0.3908	0.76068	0.6989	-0.167
Mof_C 	C 	0.5795	0.7377	0.77195	-0.084
Mof_C 	C 	0.5601	0.7932	0.76431	0.029
Mof_H 	H 	0.5409	0.7846	0.7529	0.052
Mof_C 	C 	0.5689	0.8615	0.77341	-0.088
Mof_C 	C 	0.5978	0.8744	0.79004	-0.026
Mof_H 	H 	0.6043	0.9215	0.7962	0.06
Mof_C 	C 	0.6175	0.8189	0.79788	0.014
Mof_C 	C 	0.608	0.7503	0.78834	-0.026
Mof_H 	H 	0.6217	0.712	0.7934	0.061
Mof_C 	C 	0.5608	0.6584	0.76289	0.378
Mof_C 	C 	0.5418	0.9178	0.76558	0.38
Mof_C 	C 	0.6428	0.8283	0.81603	-0.028
Mof_C 	C 	0.5854	0.8151	0.82895	0.016
Mof_C 	C 	0.5017	0.7948	0.82523	-0.06
Mof_H 	H 	0.4846	0.7907	0.8137	0.059
Mof_C 	C 	0.446	0.7813	0.83797	-0.032
Mof_H 	H 	0.3912	0.7692	0.8352	0.045
Mof_C 	C 	0.7243	0.8468	0.82023	0.017
Mof_C 	C 	0.7858	0.8633	0.80743	-0.063
Mof_H 	H 	0.7711	0.8613	0.7958	0.06
Mof_C 	C 	0.8647	0.8818	0.81149	-0.026
Mof_H 	H 	0.9042	0.8922	0.8027	0.042
Mof_C 	C 	0.3707	0.793	0.71388	0.197
Mof_C 	C 	0.4447	0.7791	0.6831	0.016
Mof_C 	C 	0.4465	0.8469	0.70365	0.185
Mof_C 	C 	0.3052	0.7041	0.7066	-0.045
Mof_C 	C 	0.4015	0.7062	0.68582	0.008
Mof_Zn	Zn	0.12364	0.27819	0.06787	1.233
Mof_O 	O 	0.24167	0.94143	0.10421	-0.45
Mof_O 	O 	0.19797	0.98253	0.08147	-0.447
Mof_O 	O 	0.21797	0.31223	0.10778	-0.443
Mof_O 	O 	0.17767	0.23293	0.08429	-0.46
Mof_O 	O 	0.08197	0.20183	0.0481	-0.461
Mof_N 	N 	0.05747	0.09401	0.03223	-0.167
Mof_C 	C 	0.24617	0.07103	0.10528	-0.088
Mof_C 	C 	0.22677	0.12653	0.09764	0.03
Mof_H 	H 	0.20757	0.11793	0.08623	0.051
Mof_C 	C 	0.23557	0.19483	0.10674	-0.089
Mof_C 	C 	0.26447	0.20773	0.12337	-0.024
Mof_H 	H 	0.27097	0.25483	0.12953	0.059
Mof_C 	C 	0.28417	0.15223	0.13121	0.012
Mof_C 	C 	0.27467	0.08363	0.12167	-0.024
Mof_H 	H 	0.28837	0.04533	0.12673	0.059
Mof_C 	C 	0.22747	0.99173	0.09622	0.381
Mof_C 	C 	0.20847	0.25113	0.09891	0.381
Mof_C 	C 	0.30947	0.16163	0.14936	-0.027
Mof_C 	C 	0.25207	0.14843	0.16228	0.016
Mof_C 	C 	0.16837	0.12813	0.15856	-0.061
Mof_H 	H 	0.15127	0.12403	0.14703	0.058
Mof_C 	C 	0.11267	0.11463	0.1713	-0.033
Mof_H 	H 	0.05787	0.10253	0.16853	0.043
Mof_C 	C 	0.39097	0.18013	0.15356	0.016
Mof_C 	C 	0.45247	0.19663	0.14076	-0.063
Mof_H 	H 	0.43777	0.19463	0.12913	0.06
Mof_C 	C 	0.53137	0.21513	0.14482	-0.027
Mof_H 	H 	0.57087	0.22553	0.13603	0.041
Mof_C 	C 	0.03737	0.12633	0.04721	0.191
Mof_C 	C 	0.11137	0.11243	0.01643	0.013
Mof_C 	C 	0.11317	0.18023	0.03698	0.185
Mof_C 	C 	0.97187	0.03743	0.03993	-0.035
Mof_C 	C 	0.06817	0.03953	0.01915	0.01
Mof_Zn	Zn	0.7903	0.61153	0.40121	1.233
Mof_O 	O 	0.90833	0.27477	0.43755	-0.45
Mof_O 	O 	0.86463	0.31587	0.41481	-0.446
Mof_O 	O 	0.88463	0.64557	0.44112	-0.443
Mof_O 	O 	0.84433	0.56627	0.41763	-0.459
Mof_O 	O 	0.74863	0.53517	0.38144	-0.462
Mof_N 	N 	0.72413	0.42735	0.36557	-0.167
Mof_C 	C 	0.91283	0.40437	0.43862	-0.085
Mof_C 	C 	0.89343	0.45987	0.43098	0.029
Mof_H 	H 	0.87423	0.45127	0.41957	0.052
Mof_C 	C 	0.90223	0.52817	0.44008	-0.088
Mof_C 	C 	0.93113	0.54107	0.45671	-0.024
Mof_H 	H 	0.93763	0.58817	0.46287	0.059
Mof_C 	C 	0.95083	0.48557	0.46455	0.012
Mof_C 	C 	0.94133	0.41697	0.45501	-0.025
Mof_H 	H 	0.95503	0.37867	0.46007	0.061
Mof_C 	C 	0.89413	0.32507	0.42956	0.378
Mof_C 	C 	0.87513	0.58447	0.43225	0.381
Mof_C 	C 	0.97613	0.49497	0.4827	-0.022
Mof_C 	C 	0.91873	0.48177	0.49562	0.012
Mof_C 	C 	0.83503	0.46147	0.4919	-0.058
Mof_H 	H 	0.81793	0.45737	0.48037	0.057
Mof_C 	C 	0.77933	0.44797	0.50464	-0.035
Mof_H 	H 	0.72453	0.43587	0.50187	0.045
Mof_C 	C 	0.05763	0.51347	0.4869	0.011
Mof_C 	C 	0.11913	0.52997	0.4741	-0.059
Mof_H 	H 	0.10443	0.52797	0.46247	0.058
Mof_C 	C 	0.19803	0.54847	0.47816	-0.029
Mof_H 	H 	0.23753	0.55887	0.46937	0.042
Mof_C 	C 	0.70403	0.45967	0.38055	0.197
Mof_C 	C 	0.77803	0.44577	0.34977	0.016
Mof_C 	C 	0.77983	0.51357	0.37032	0.185
Mof_C 	C 	0.63853	0.37077	0.37327	-0.045
Mof_C 	C 	0.73483	0.37287	0.35249	0.008
Mof_Zn	Zn	0.05514	0.51211	0.73454	1.232
Mof_O 	O 	0.3919	0.9669	0.77088	-0.449
Mof_O 	O 	0.3508	0.8821	0.74814	-0.446
Mof_O 	O 	0.0211	0.5724	0.77445	-0.444
Mof_O 	O 	0.1004	0.6114	0.75096	-0.46
Mof_O 	O 	0.1315	0.5468	0.71477	-0.462
Mof_N 	N 	0.23932	0.63012	0.6989	-0.167
Mof_C 	C 	0.2623	0.8418	0.77195	-0.084
Mof_C 	C 	0.2068	0.7669	0.76431	0.028
Mof_H 	H 	0.2154	0.7563	0.7529	0.052
Mof_C 	C 	0.1385	0.7074	0.77341	-0.088
Mof_C 	C 	0.1256	0.7234	0.79004	-0.026
Mof_H 	H 	0.0785	0.6828	0.7962	0.059
Mof_C 	C 	0.1811	0.7986	0.79788	0.015
Mof_C 	C 	0.2497	0.8577	0.78834	-0.027
Mof_H 	H 	0.288	0.9097	0.7934	0.062
Mof_C 	C 	0.3416	0.9024	0.76289	0.378
Mof_C 	C 	0.0822	0.624	0.76558	0.381
Mof_C 	C 	0.1717	0.8145	0.81603	-0.031
Mof_C 	C 	0.1849	0.7703	0.82895	0.018
Mof_C 	C 	0.2052	0.7069	0.82523	-0.062
Mof_H 	H 	0.2093	0.6939	0.8137	0.059
Mof_C 	C 	0.2187	0.6647	0.83797	-0.031
Mof_H 	H 	0.2308	0.622	0.8352	0.044
Mof_C 	C 	0.1532	0.8775	0.82023	0.024
Mof_C 	C 	0.1367	0.9225	0.80743	-0.075
Mof_H 	H 	0.1387	0.9098	0.7958	0.064
Mof_C 	C 	0.1182	0.9829	0.81149	-0.006
Mof_H 	H 	0.1078	0.012	0.8027	0.032
Mof_C 	C 	0.207	0.5777	0.71388	0.197
Mof_C 	C 	0.2209	0.6656	0.6831	0.015
Mof_C 	C 	0.1531	0.5996	0.70365	0.184
Mof_C 	C 	0.2959	0.6011	0.7066	-0.045
Mof_C 	C 	0.2938	0.6953	0.68582	0.008
Mof_Zn	Zn	0.72181	0.84544	0.06787	1.233
Mof_O 	O 	0.05857	0.30023	0.10421	-0.45
Mof_O 	O 	0.01747	0.21543	0.08147	-0.447
Mof_O 	O 	0.68777	0.90573	0.10778	-0.443
Mof_O 	O 	0.76707	0.94473	0.08429	-0.459
Mof_O 	O 	0.79817	0.88013	0.0481	-0.461
Mof_N 	N 	0.90599	0.96345	0.03223	-0.167
Mof_C 	C 	0.92897	0.17513	0.10528	-0.081
Mof_C 	C 	0.87347	0.10023	0.09764	0.028
Mof_H 	H 	0.88207	0.08963	0.08623	0.052
Mof_C 	C 	0.80517	0.04073	0.10674	-0.09
Mof_C 	C 	0.79227	0.05673	0.12337	-0.026
Mof_H 	H 	0.74517	0.01613	0.12953	0.059
Mof_C 	C 	0.84777	0.13193	0.13121	0.015
Mof_C 	C 	0.91637	0.19103	0.12167	-0.028
Mof_H 	H 	0.95467	0.24303	0.12673	0.062
Mof_C 	C 	0.00827	0.23573	0.09622	0.375
Mof_C 	C 	0.74887	0.95733	0.09891	0.383
Mof_C 	C 	0.83837	0.14783	0.14936	-0.031
Mof_C 	C 	0.85157	0.10363	0.16228	0.022
Mof_C 	C 	0.87187	0.04023	0.15856	-0.071
Mof_H 	H 	0.87597	0.02723	0.14703	0.062
Mof_C 	C 	0.88537	0.99803	0.1713	-0.017
Mof_H 	H 	0.89747	0.95533	0.16853	0.04
Mof_C 	C 	0.81987	0.21083	0.15356	0.019
Mof_C 	C 	0.80337	0.25583	0.14076	-0.064
Mof_H 	H 	0.80537	0.24313	0.12913	0.06
Mof_C 	C 	0.78487	0.31623	0.14482	-0.025
Mof_H 	H 	0.77447	0.34533	0.13603	0.041
Mof_C 	C 	0.87367	0.91103	0.04721	0.194
Mof_C 	C 	0.88757	0.99893	0.01643	0.016
Mof_C 	C 	0.81977	0.93293	0.03698	0.185
Mof_C 	C 	0.96257	0.93443	0.03993	-0.035
Mof_C 	C 	0.96047	0.02863	0.01915	0.009
Mof_Zn	Zn	0.38847	0.17878	0.40121	1.233
Mof_O 	O 	0.72523	0.63357	0.43755	-0.45
Mof_O 	O 	0.68413	0.54877	0.41481	-0.447
Mof_O 	O 	0.35443	0.23907	0.44112	-0.443
Mof_O 	O 	0.43373	0.27807	0.41763	-0.459
Mof_O 	O 	0.46483	0.21347	0.38144	-0.462
Mof_N 	N 	0.57265	0.29679	0.36557	-0.167
Mof_C 	C 	0.59563	0.50847	0.43862	-0.085
Mof_C 	C 	0.54013	0.43357	0.43098	0.029
Mof_H 	H 	0.54873	0.42297	0.41957	0.052
Mof_C 	C 	0.47183	0.37407	0.44008	-0.088
Mof_C 	C 	0.45893	0.39007	0.45671	-0.025
Mof_H 	H 	0.41183	0.34947	0.46287	0.059
Mof_C 	C 	0.51443	0.46527	0.46455	0.013
Mof_C 	C 	0.58303	0.52437	0.45501	-0.026
Mof_H 	H 	0.62133	0.57637	0.46007	0.061
Mof_C 	C 	0.67493	0.56907	0.42956	0.378
Mof_C 	C 	0.41553	0.29067	0.43225	0.381
Mof_C 	C 	0.50503	0.48117	0.4827	-0.028
Mof_C 	C 	0.51823	0.43697	0.49562	0.016
Mof_C 	C 	0.53853	0.37357	0.4919	-0.061
Mof_H 	H 	0.54263	0.36057	0.48037	0.058
Mof_C 	C 	0.55203	0.33137	0.50464	-0.033
Mof_H 	H 	0.56413	0.28867	0.50187	0.044
Mof_C 	C 	0.48653	0.54417	0.4869	0.017
Mof_C 	C 	0.47003	0.58917	0.4741	-0.063
Mof_H 	H 	0.47203	0.57647	0.46247	0.06
Mof_C 	C 	0.45153	0.64957	0.47816	-0.026
Mof_H 	H 	0.44113	0.67867	0.46937	0.041
Mof_C 	C 	0.54033	0.24437	0.38055	0.197
Mof_C 	C 	0.55423	0.33227	0.34977	0.015
Mof_C 	C 	0.48643	0.26627	0.37032	0.185
Mof_C 	C 	0.62923	0.26777	0.37327	-0.045
Mof_C 	C 	0.62713	0.36197	0.35249	0.008
Mof_Zn	Zn	0.48789	0.54303	0.73454	1.233
Mof_O 	O 	0.0331	0.425	0.77088	-0.451
Mof_O 	O 	0.1179	0.4687	0.74814	-0.447
Mof_O 	O 	0.4276	0.4487	0.77445	-0.443
Mof_O 	O 	0.3886	0.489	0.75096	-0.459
Mof_O 	O 	0.4532	0.5847	0.71477	-0.462
Mof_N 	N 	0.36988	0.6092	0.6989	-0.167
Mof_C 	C 	0.1582	0.4205	0.77195	-0.086
Mof_C 	C 	0.2331	0.4399	0.76431	0.029
Mof_H 	H 	0.2437	0.4591	0.7529	0.052
Mof_C 	C 	0.2926	0.4311	0.77341	-0.089
Mof_C 	C 	0.2766	0.4022	0.79004	-0.024
Mof_H 	H 	0.3172	0.3957	0.7962	0.059
Mof_C 	C 	0.2014	0.3825	0.79788	0.012
Mof_C 	C 	0.1423	0.392	0.78834	-0.025
Mof_H 	H 	0.0903	0.3783	0.7934	0.06
Mof_C 	C 	0.0976	0.4392	0.76289	0.378
Mof_C 	C 	0.376	0.4582	0.76558	0.381
Mof_C 	C 	0.1855	0.3572	0.81603	-0.025
Mof_C 	C 	0.2297	0.4146	0.82895	0.014
Mof_C 	C 	0.2931	0.4983	0.82523	-0.059
Mof_H 	H 	0.3061	0.5154	0.8137	0.058
Mof_C 	C 	0.3353	0.554	0.83797	-0.034
Mof_H 	H 	0.378	0.6088	0.8352	0.045
Mof_C 	C 	0.1225	0.2757	0.82023	0.01
Mof_C 	C 	0.0775	0.2142	0.80743	-0.053
Mof_H 	H 	0.0902	0.2289	0.7958	0.056
Mof_C 	C 	0.0171	0.1353	0.81149	-0.044
Mof_H 	H 	0.988	0.0958	0.8027	0.048
Mof_C 	C 	0.4223	0.6293	0.71388	0.197
Mof_C 	C 	0.3344	0.5553	0.6831	0.015
Mof_C 	C 	0.4004	0.5535	0.70365	0.185
Mof_C 	C 	0.3989	0.6948	0.7066	-0.045
Mof_C 	C 	0.3047	0.5985	0.68582	0.008
Mof_Zn	Zn	0.15456	0.87636	0.06787	1.233
Mof_O 	O 	0.69977	0.75833	0.10421	-0.45
Mof_O 	O 	0.78457	0.80203	0.08147	-0.446
Mof_O 	O 	0.09427	0.78203	0.10778	-0.443
Mof_O 	O 	0.05527	0.82233	0.08429	-0.459
Mof_O 	O 	0.11987	0.91803	0.0481	-0.461
Mof_N 	N 	0.03655	0.94253	0.03223	-0.167
Mof_C 	C 	0.82487	0.75383	0.10528	-0.084
Mof_C 	C 	0.89977	0.77323	0.09764	0.027
Mof_H 	H 	0.91037	0.79243	0.08623	0.053
Mof_C 	C 	0.95927	0.76443	0.10674	-0.084
Mof_C 	C 	0.94327	0.73553	0.12337	-0.026
Mof_H 	H 	0.98387	0.72903	0.12953	0.061
Mof_C 	C 	0.86807	0.71583	0.13121	0.013
Mof_C 	C 	0.80897	0.72533	0.12167	-0.026
Mof_H 	H 	0.75697	0.71163	0.12673	0.061
Mof_C 	C 	0.76427	0.77253	0.09622	0.378
Mof_C 	C 	0.04267	0.79153	0.09891	0.378
Mof_C 	C 	0.85217	0.69053	0.14936	-0.025
Mof_C 	C 	0.89637	0.74793	0.16228	0.009
Mof_C 	C 	0.95977	0.83163	0.15856	-0.047
Mof_H 	H 	0.97277	0.84873	0.14703	0.055
Mof_C 	C 	0.00197	0.88733	0.1713	-0.05
Mof_H 	H 	0.04467	0.94213	0.16853	0.051
Mof_C 	C 	0.78917	0.60903	0.15356	0.015
Mof_C 	C 	0.74417	0.54753	0.14076	-0.061
Mof_H 	H 	0.75687	0.56223	0.12913	0.059
Mof_C 	C 	0.68377	0.46863	0.14482	-0.027
Mof_H 	H 	0.65467	0.42913	0.13603	0.041
Mof_C 	C 	0.08897	0.96263	0.04721	0.196
Mof_C 	C 	0.00107	0.88863	0.01643	0.009
Mof_C 	C 	0.06707	0.88683	0.03698	0.185
Mof_C 	C 	0.06557	0.02813	0.03993	-0.041
Mof_C 	C 	0.97137	0.93183	0.01915	0.019
Mof_Zn	Zn	0.82122	0.2097	0.40121	1.233
Mof_O 	O 	0.36643	0.09167	0.43755	-0.45
Mof_O 	O 	0.45123	0.13537	0.41481	-0.447
Mof_O 	O 	0.76093	0.11537	0.44112	-0.443
Mof_O 	O 	0.72193	0.15567	0.41763	-0.459
Mof_O 	O 	0.78653	0.25137	0.38144	-0.461
Mof_N 	N 	0.70321	0.27587	0.36557	-0.167
Mof_C 	C 	0.49153	0.08717	0.43862	-0.084
Mof_C 	C 	0.56643	0.10657	0.43098	0.028
Mof_H 	H 	0.57703	0.12577	0.41957	0.052
Mof_C 	C 	0.62593	0.09777	0.44008	-0.088
Mof_C 	C 	0.60993	0.06887	0.45671	-0.027
Mof_H 	H 	0.65053	0.06237	0.46287	0.06
Mof_C 	C 	0.53473	0.04917	0.46455	0.015
Mof_C 	C 	0.47563	0.05867	0.45501	-0.027
Mof_H 	H 	0.42363	0.04497	0.46007	0.061
Mof_C 	C 	0.43093	0.10587	0.42956	0.378
Mof_C 	C 	0.70933	0.12487	0.43225	0.38
Mof_C 	C 	0.51883	0.02387	0.4827	-0.033
Mof_C 	C 	0.56303	0.08127	0.49562	0.02
Mof_C 	C 	0.62643	0.16497	0.4919	-0.064
Mof_H 	H 	0.63943	0.18207	0.48037	0.06
Mof_C 	C 	0.66863	0.22067	0.50464	-0.03
Mof_H 	H 	0.71133	0.27547	0.50187	0.044
Mof_C 	C 	0.45583	0.94237	0.4869	0.023
Mof_C 	C 	0.41083	0.88087	0.4741	-0.066
Mof_H 	H 	0.42353	0.89557	0.46247	0.062
Mof_C 	C 	0.35043	0.80197	0.47816	-0.023
Mof_H 	H 	0.32133	0.76247	0.46937	0.04
Mof_C 	C 	0.75563	0.29597	0.38055	0.197
Mof_C 	C 	0.66773	0.22197	0.34977	0.015
Mof_C 	C 	0.73373	0.22017	0.37032	0.184
Mof_C 	C 	0.73223	0.36147	0.37327	-0.045
Mof_C 	C 	0.63803	0.26517	0.35249	0.008
Mof_Zn	Zn	0.94486	0.45697	0.76546	1.233
Mof_O 	O 	0.6081	0.575	0.72912	-0.45
Mof_O 	O 	0.6492	0.5313	0.75186	-0.446
Mof_O 	O 	0.9789	0.5513	0.72555	-0.442
Mof_O 	O 	0.8996	0.511	0.74904	-0.459
Mof_O 	O 	0.8685	0.4153	0.78523	-0.461
Mof_N 	N 	0.76068	0.3908	0.8011	-0.167
Mof_C 	C 	0.7377	0.5795	0.72805	-0.084
Mof_C 	C 	0.7932	0.5601	0.73569	0.029
Mof_H 	H 	0.7846	0.5409	0.7471	0.052
Mof_C 	C 	0.8615	0.5689	0.72659	-0.088
Mof_C 	C 	0.8744	0.5978	0.70996	-0.026
Mof_H 	H 	0.9215	0.6043	0.7038	0.06
Mof_C 	C 	0.8189	0.6175	0.70212	0.014
Mof_C 	C 	0.7503	0.608	0.71166	-0.026
Mof_H 	H 	0.712	0.6217	0.7066	0.061
Mof_C 	C 	0.6584	0.5608	0.73711	0.378
Mof_C 	C 	0.9178	0.5418	0.73442	0.38
Mof_C 	C 	0.8283	0.6428	0.68397	-0.028
Mof_C 	C 	0.8151	0.5854	0.67105	0.016
Mof_C 	C 	0.7948	0.5017	0.67477	-0.06
Mof_H 	H 	0.7907	0.4846	0.6863	0.059
Mof_C 	C 	0.7813	0.446	0.66203	-0.032
Mof_H 	H 	0.7692	0.3912	0.6648	0.045
Mof_C 	C 	0.8468	0.7243	0.67977	0.017
Mof_C 	C 	0.8633	0.7858	0.69257	-0.063
Mof_H 	H 	0.8613	0.7711	0.7042	0.06
Mof_C 	C 	0.8818	0.8647	0.68851	-0.026
Mof_H 	H 	0.8922	0.9042	0.6973	0.042
Mof_C 	C 	0.793	0.3707	0.78612	0.197
Mof_C 	C 	0.7791	0.4447	0.8169	0.016
Mof_C 	C 	0.8469	0.4465	0.79635	0.185
Mof_C 	C 	0.7041	0.3052	0.7934	-0.045
Mof_C 	C 	0.7062	0.4015	0.81418	0.008
Mof_Zn	Zn	0.61153	0.7903	0.09879	1.233
Mof_O 	O 	0.27477	0.90833	0.06245	-0.45
Mof_O 	O 	0.31587	0.86463	0.08519	-0.446
Mof_O 	O 	0.64557	0.88463	0.05888	-0.443
Mof_O 	O 	0.56627	0.84433	0.08237	-0.459
Mof_O 	O 	0.53517	0.74863	0.11856	-0.462
Mof_N 	N 	0.42735	0.72413	0.13443	-0.167
Mof_C 	C 	0.40437	0.91283	0.06138	-0.085
Mof_C 	C 	0.45987	0.89343	0.06902	0.029
Mof_H 	H 	0.45127	0.87423	0.08043	0.052
Mof_C 	C 	0.52817	0.90223	0.05992	-0.088
Mof_C 	C 	0.54107	0.93113	0.04329	-0.024
Mof_H 	H 	0.58817	0.93763	0.03713	0.059
Mof_C 	C 	0.48557	0.95083	0.03545	0.012
Mof_C 	C 	0.41697	0.94133	0.04499	-0.025
Mof_H 	H 	0.37867	0.95503	0.03993	0.061
Mof_C 	C 	0.32507	0.89413	0.07044	0.378
Mof_C 	C 	0.58447	0.87513	0.06775	0.381
Mof_C 	C 	0.49497	0.97613	0.0173	-0.022
Mof_C 	C 	0.48177	0.91873	0.00438	0.012
Mof_C 	C 	0.46147	0.83503	0.0081	-0.058
Mof_H 	H 	0.45737	0.81793	0.01963	0.057
Mof_C 	C 	0.44797	0.77933	0.99536	-0.035
Mof_H 	H 	0.43587	0.72453	0.99813	0.045
Mof_C 	C 	0.51347	0.05763	0.0131	0.011
Mof_C 	C 	0.52997	0.11913	0.0259	-0.059
Mof_H 	H 	0.52797	0.10443	0.03753	0.058
Mof_C 	C 	0.54847	0.19803	0.02184	-0.029
Mof_H 	H 	0.55887	0.23753	0.03063	0.042
Mof_C 	C 	0.45967	0.70403	0.11945	0.197
Mof_C 	C 	0.44577	0.77803	0.15023	0.016
Mof_C 	C 	0.51357	0.77983	0.12968	0.185
Mof_C 	C 	0.37077	0.63853	0.12673	-0.045
Mof_C 	C 	0.37287	0.73483	0.14751	0.008
Mof_Zn	Zn	0.27819	0.12364	0.43213	1.233
Mof_O 	O 	0.94143	0.24167	0.39579	-0.45
Mof_O 	O 	0.98253	0.19797	0.41853	-0.447
Mof_O 	O 	0.31223	0.21797	0.39222	-0.443
Mof_O 	O 	0.23293	0.17767	0.41571	-0.46
Mof_O 	O 	0.20183	0.08197	0.4519	-0.461
Mof_N 	N 	0.09401	0.05747	0.46777	-0.167
Mof_C 	C 	0.07103	0.24617	0.39472	-0.088
Mof_C 	C 	0.12653	0.22677	0.40236	0.03
Mof_H 	H 	0.11793	0.20757	0.41377	0.051
Mof_C 	C 	0.19483	0.23557	0.39326	-0.089
Mof_C 	C 	0.20773	0.26447	0.37663	-0.024
Mof_H 	H 	0.25483	0.27097	0.37047	0.059
Mof_C 	C 	0.15223	0.28417	0.36879	0.012
Mof_C 	C 	0.08363	0.27467	0.37833	-0.024
Mof_H 	H 	0.04533	0.28837	0.37327	0.059
Mof_C 	C 	0.99173	0.22747	0.40378	0.381
Mof_C 	C 	0.25113	0.20847	0.40109	0.381
Mof_C 	C 	0.16163	0.30947	0.35064	-0.027
Mof_C 	C 	0.14843	0.25207	0.33772	0.016
Mof_C 	C 	0.12813	0.16837	0.34144	-0.061
Mof_H 	H 	0.12403	0.15127	0.35297	0.058
Mof_C 	C 	0.11463	0.11267	0.3287	-0.033
Mof_H 	H 	0.10253	0.05787	0.33147	0.043
Mof_C 	C 	0.18013	0.39097	0.34644	0.016
Mof_C 	C 	0.19663	0.45247	0.35924	-0.063
Mof_H 	H 	0.19463	0.43777	0.37087	0.06
Mof_C 	C 	0.21513	0.53137	0.35518	-0.027
Mof_H 	H 	0.22553	0.57087	0.36397	0.041
Mof_C 	C 	0.12633	0.03737	0.45279	0.191
Mof_C 	C 	0.11243	0.11137	0.48357	0.013
Mof_C 	C 	0.18023	0.11317	0.46302	0.185
Mof_C 	C 	0.03743	0.97187	0.46007	-0.035
Mof_C 	C 	0.03953	0.06817	0.48085	0.01
Mof_Zn	Zn	0.51211	0.05514	0.76546	1.232
Mof_O 	O 	0.9669	0.3919	0.72912	-0.449
Mof_O 	O 	0.8821	0.3508	0.75186	-0.446
Mof_O 	O 	0.5724	0.0211	0.72555	-0.444
Mof_O 	O 	0.6114	0.1004	0.74904	-0.46
Mof_O 	O 	0.5468	0.1315	0.78523	-0.462
Mof_N 	N 	0.63012	0.23932	0.8011	-0.167
Mof_C 	C 	0.8418	0.2623	0.72805	-0.084
Mof_C 	C 	0.7669	0.2068	0.73569	0.028
Mof_H 	H 	0.7563	0.2154	0.7471	0.052
Mof_C 	C 	0.7074	0.1385	0.72659	-0.088
Mof_C 	C 	0.7234	0.1256	0.70996	-0.026
Mof_H 	H 	0.6828	0.0785	0.7038	0.059
Mof_C 	C 	0.7986	0.1811	0.70212	0.015
Mof_C 	C 	0.8577	0.2497	0.71166	-0.027
Mof_H 	H 	0.9097	0.288	0.7066	0.062
Mof_C 	C 	0.9024	0.3416	0.73711	0.378
Mof_C 	C 	0.624	0.0822	0.73442	0.381
Mof_C 	C 	0.8145	0.1717	0.68397	-0.031
Mof_C 	C 	0.7703	0.1849	0.67105	0.018
Mof_C 	C 	0.7069	0.2052	0.67477	-0.062
Mof_H 	H 	0.6939	0.2093	0.6863	0.059
Mof_C 	C 	0.6647	0.2187	0.66203	-0.031
Mof_H 	H 	0.622	0.2308	0.6648	0.044
Mof_C 	C 	0.8775	0.1532	0.67977	0.024
Mof_C 	C 	0.9225	0.1367	0.69257	-0.075
Mof_H 	H 	0.9098	0.1387	0.7042	0.064
Mof_C 	C 	0.9829	0.1182	0.68851	-0.006
Mof_H 	H 	0.012	0.1078	0.6973	0.032
Mof_C 	C 	0.5777	0.207	0.78612	0.197
Mof_C 	C 	0.6656	0.2209	0.8169	0.015
Mof_C 	C 	0.5996	0.1531	0.79635	0.184
Mof_C 	C 	0.6011	0.2959	0.7934	-0.045
Mof_C 	C 	0.6953	0.2938	0.81418	0.008
Mof_Zn	Zn	0.17878	0.38847	0.09879	1.233
Mof_O 	O 	0.63357	0.72523	0.06245	-0.45
Mof_O 	O 	0.54877	0.68413	0.08519	-0.447
Mof_O 	O 	0.23907	0.35443	0.05888	-0.443
Mof_O 	O 	0.27807	0.43373	0.08237	-0.459
Mof_O 	O 	0.21347	0.46483	0.11856	-0.462
Mof_N 	N 	0.29679	0.57265	0.13443	-0.167
Mof_C 	C 	0.50847	0.59563	0.06138	-0.085
Mof_C 	C 	0.43357	0.54013	0.06902	0.029
Mof_H 	H 	0.42297	0.54873	0.08043	0.052
Mof_C 	C 	0.37407	0.47183	0.05992	-0.088
Mof_C 	C 	0.39007	0.45893	0.04329	-0.025
Mof_H 	H 	0.34947	0.41183	0.03713	0.059
Mof_C 	C 	0.46527	0.51443	0.03545	0.013
Mof_C 	C 	0.52437	0.58303	0.04499	-0.026
Mof_H 	H 	0.57637	0.62133	0.03993	0.061
Mof_C 	C 	0.56907	0.67493	0.07044	0.378
Mof_C 	C 	0.29067	0.41553	0.06775	0.381
Mof_C 	C 	0.48117	0.50503	0.0173	-0.028
Mof_C 	C 	0.43697	0.51823	0.00438	0.016
Mof_C 	C 	0.37357	0.53853	0.0081	-0.061
Mof_H 	H 	0.36057	0.54263	0.01963	0.058
Mof_C 	C 	0.33137	0.55203	0.99536	-0.033
Mof_H 	H 	0.28867	0.56413	0.99813	0.044
Mof_C 	C 	0.54417	0.48653	0.0131	0.017
Mof_C 	C 	0.58917	0.47003	0.0259	-0.063
Mof_H 	H 	0.57647	0.47203	0.03753	0.06
Mof_C 	C 	0.64957	0.45153	0.02184	-0.026
Mof_H 	H 	0.67867	0.44113	0.03063	0.041
Mof_C 	C 	0.24437	0.54033	0.11945	0.197
Mof_C 	C 	0.33227	0.55423	0.15023	0.015
Mof_C 	C 	0.26627	0.48643	0.12968	0.185
Mof_C 	C 	0.26777	0.62923	0.12673	-0.045
Mof_C 	C 	0.36197	0.62713	0.14751	0.008
Mof_Zn	Zn	0.84544	0.72181	0.43213	1.233
Mof_O 	O 	0.30023	0.05857	0.39579	-0.45
Mof_O 	O 	0.21543	0.01747	0.41853	-0.447
Mof_O 	O 	0.90573	0.68777	0.39222	-0.443
Mof_O 	O 	0.94473	0.76707	0.41571	-0.459
Mof_O 	O 	0.88013	0.79817	0.4519	-0.461
Mof_N 	N 	0.96345	0.90599	0.46777	-0.167
Mof_C 	C 	0.17513	0.92897	0.39472	-0.081
Mof_C 	C 	0.10023	0.87347	0.40236	0.028
Mof_H 	H 	0.08963	0.88207	0.41377	0.052
Mof_C 	C 	0.04073	0.80517	0.39326	-0.09
Mof_C 	C 	0.05673	0.79227	0.37663	-0.026
Mof_H 	H 	0.01613	0.74517	0.37047	0.059
Mof_C 	C 	0.13193	0.84777	0.36879	0.015
Mof_C 	C 	0.19103	0.91637	0.37833	-0.028
Mof_H 	H 	0.24303	0.95467	0.37327	0.062
Mof_C 	C 	0.23573	0.00827	0.40378	0.375
Mof_C 	C 	0.95733	0.74887	0.40109	0.383
Mof_C 	C 	0.14783	0.83837	0.35064	-0.031
Mof_C 	C 	0.10363	0.85157	0.33772	0.022
Mof_C 	C 	0.04023	0.87187	0.34144	-0.071
Mof_H 	H 	0.02723	0.87597	0.35297	0.062
Mof_C 	C 	0.99803	0.88537	0.3287	-0.017
Mof_H 	H 	0.95533	0.89747	0.33147	0.04
Mof_C 	C 	0.21083	0.81987	0.34644	0.019
Mof_C 	C 	0.25583	0.80337	0.35924	-0.064
Mof_H 	H 	0.24313	0.80537	0.37087	0.06
Mof_C 	C 	0.31623	0.78487	0.35518	-0.025
Mof_H 	H 	0.34533	0.77447	0.36397	0.041
Mof_C 	C 	0.91103	0.87367	0.45279	0.194
Mof_C 	C 	0.99893	0.88757	0.48357	0.016
Mof_C 	C 	0.93293	0.81977	0.46302	0.185
Mof_C 	C 	0.93443	0.96257	0.46007	-0.035
Mof_C 	C 	0.02863	0.96047	0.48085	0.009
Mof_Zn	Zn	0.54303	0.48789	0.76546	1.233
Mof_O 	O 	0.425	0.0331	0.72912	-0.451
Mof_O 	O 	0.4687	0.1179	0.75186	-0.447
Mof_O 	O 	0.4487	0.4276	0.72555	-0.443
Mof_O 	O 	0.489	0.3886	0.74904	-0.459
Mof_O 	O 	0.5847	0.4532	0.78523	-0.462
Mof_N 	N 	0.6092	0.36988	0.8011	-0.167
Mof_C 	C 	0.4205	0.1582	0.72805	-0.086
Mof_C 	C 	0.4399	0.2331	0.73569	0.029
Mof_H 	H 	0.4591	0.2437	0.7471	0.052
Mof_C 	C 	0.4311	0.2926	0.72659	-0.089
Mof_C 	C 	0.4022	0.2766	0.70996	-0.024
Mof_H 	H 	0.3957	0.3172	0.7038	0.059
Mof_C 	C 	0.3825	0.2014	0.70212	0.012
Mof_C 	C 	0.392	0.1423	0.71166	-0.025
Mof_H 	H 	0.3783	0.0903	0.7066	0.06
Mof_C 	C 	0.4392	0.0976	0.73711	0.378
Mof_C 	C 	0.4582	0.376	0.73442	0.381
Mof_C 	C 	0.3572	0.1855	0.68397	-0.025
Mof_C 	C 	0.4146	0.2297	0.67105	0.014
Mof_C 	C 	0.4983	0.2931	0.67477	-0.059
Mof_H 	H 	0.5154	0.3061	0.6863	0.058
Mof_C 	C 	0.554	0.3353	0.66203	-0.034
Mof_H 	H 	0.6088	0.378	0.6648	0.045
Mof_C 	C 	0.2757	0.1225	0.67977	0.01
Mof_C 	C 	0.2142	0.0775	0.69257	-0.053
Mof_H 	H 	0.2289	0.0902	0.7042	0.056
Mof_C 	C 	0.1353	0.0171	0.68851	-0.044
Mof_H 	H 	0.0958	0.988	0.6973	0.048
Mof_C 	C 	0.6293	0.4223	0.78612	0.197
Mof_C 	C 	0.5553	0.3344	0.8169	0.015
Mof_C 	C 	0.5535	0.4004	0.79635	0.185
Mof_C 	C 	0.6948	0.3989	0.7934	-0.045
Mof_C 	C 	0.5985	0.3047	0.81418	0.008
Mof_Zn	Zn	0.2097	0.82122	0.09879	1.233
Mof_O 	O 	0.09167	0.36643	0.06245	-0.45
Mof_O 	O 	0.13537	0.45123	0.08519	-0.447
Mof_O 	O 	0.11537	0.76093	0.05888	-0.443
Mof_O 	O 	0.15567	0.72193	0.08237	-0.459
Mof_O 	O 	0.25137	0.78653	0.11856	-0.461
Mof_N 	N 	0.27587	0.70321	0.13443	-0.167
Mof_C 	C 	0.08717	0.49153	0.06138	-0.084
Mof_C 	C 	0.10657	0.56643	0.06902	0.028
Mof_H 	H 	0.12577	0.57703	0.08043	0.052
Mof_C 	C 	0.09777	0.62593	0.05992	-0.088
Mof_C 	C 	0.06887	0.60993	0.04329	-0.027
Mof_H 	H 	0.06237	0.65053	0.03713	0.06
Mof_C 	C 	0.04917	0.53473	0.03545	0.015
Mof_C 	C 	0.05867	0.47563	0.04499	-0.027
Mof_H 	H 	0.04497	0.42363	0.03993	0.061
Mof_C 	C 	0.10587	0.43093	0.07044	0.378
Mof_C 	C 	0.12487	0.70933	0.06775	0.38
Mof_C 	C 	0.02387	0.51883	0.0173	-0.033
Mof_C 	C 	0.08127	0.56303	0.00438	0.02
Mof_C 	C 	0.16497	0.62643	0.0081	-0.064
Mof_H 	H 	0.18207	0.63943	0.01963	0.06
Mof_C 	C 	0.22067	0.66863	0.99536	-0.03
Mof_H 	H 	0.27547	0.71133	0.99813	0.044
Mof_C 	C 	0.94237	0.45583	0.0131	0.023
Mof_C 	C 	0.88087	0.41083	0.0259	-0.066
Mof_H 	H 	0.89557	0.42353	0.03753	0.062
Mof_C 	C 	0.80197	0.35043	0.02184	-0.023
Mof_H 	H 	0.76247	0.32133	0.03063	0.04
Mof_C 	C 	0.29597	0.75563	0.11945	0.197
Mof_C 	C 	0.22197	0.66773	0.15023	0.015
Mof_C 	C 	0.22017	0.73373	0.12968	0.184
Mof_C 	C 	0.36147	0.73223	0.12673	-0.045
Mof_C 	C 	0.26517	0.63803	0.14751	0.008
Mof_Zn	Zn	0.87636	0.15456	0.43213	1.233
Mof_O 	O 	0.75833	0.69977	0.39579	-0.45
Mof_O 	O 	0.80203	0.78457	0.41853	-0.446
Mof_O 	O 	0.78203	0.09427	0.39222	-0.443
Mof_O 	O 	0.82233	0.05527	0.41571	-0.459
Mof_O 	O 	0.91803	0.11987	0.4519	-0.461
Mof_N 	N 	0.94253	0.03655	0.46777	-0.167
Mof_C 	C 	0.75383	0.82487	0.39472	-0.084
Mof_C 	C 	0.77323	0.89977	0.40236	0.027
Mof_H 	H 	0.79243	0.91037	0.41377	0.053
Mof_C 	C 	0.76443	0.95927	0.39326	-0.084
Mof_C 	C 	0.73553	0.94327	0.37663	-0.026
Mof_H 	H 	0.72903	0.98387	0.37047	0.061
Mof_C 	C 	0.71583	0.86807	0.36879	0.013
Mof_C 	C 	0.72533	0.80897	0.37833	-0.026
Mof_H 	H 	0.71163	0.75697	0.37327	0.061
Mof_C 	C 	0.77253	0.76427	0.40378	0.378
Mof_C 	C 	0.79153	0.04267	0.40109	0.378
Mof_C 	C 	0.69053	0.85217	0.35064	-0.025
Mof_C 	C 	0.74793	0.89637	0.33772	0.009
Mof_C 	C 	0.83163	0.95977	0.34144	-0.047
Mof_H 	H 	0.84873	0.97277	0.35297	0.055
Mof_C 	C 	0.88733	0.00197	0.3287	-0.05
Mof_H 	H 	0.94213	0.04467	0.33147	0.051
Mof_C 	C 	0.60903	0.78917	0.34644	0.015
Mof_C 	C 	0.54753	0.74417	0.35924	-0.061
Mof_H 	H 	0.56223	0.75687	0.37087	0.059
Mof_C 	C 	0.46863	0.68377	0.35518	-0.027
Mof_H 	H 	0.42913	0.65467	0.36397	0.041
Mof_C 	C 	0.96263	0.08897	0.45279	0.196
Mof_C 	C 	0.88863	0.00107	0.48357	0.009
Mof_C 	C 	0.88683	0.06707	0.46302	0.185
Mof_C 	C 	0.02813	0.06557	0.46007	-0.041
Mof_C 	C 	0.93183	0.97137	0.48085	0.019
Mof_C 	C 	0.66667	0.33333	0.30147	0.177
Mof_C 	C 	0.33333	0.66667	0.6348	0.177
Mof_C 	C 	-3.46746e-32	6.93492e-32	0.96814	0.155
Mof_C 	C 	0.33333	0.66667	0.19853	0.177
Mof_C 	C 	-1.73373e-32	0	0.53186	0.155
Mof_C 	C 	0.66667	0.33333	0.8652	0.177
Mof_C 	C 	0.33333	0.66667	0.69853	0.177
Mof_C 	C 	-5.41791e-33	-2.16716e-33	0.03186	0.155
Mof_C 	C 	0.66667	0.33333	0.3652	0.177
Mof_C 	C 	0.66667	0.33333	0.80147	0.177
Mof_C 	C 	0.33333	0.66667	0.1348	0.177
Mof_C 	C 	-1.73373e-32	0	0.46814	0.155
_end
