data_functionalizedCrystal
_audit_creation_method	'EQeq! by Chris Wilmer'
_symmetry_space_group_name_H-M	'P1'
_symmetry_Int_Tables_number	1
_symmetry_cell_setting	triclinic
loop_
_symmetry_equiv_pos_as_xyz
  x,y,z
_cell_length_a	18.287
_cell_length_b	18.287
_cell_length_c	18.287
_cell_angle_alpha	105.112
_cell_angle_beta	105.112
_cell_angle_gamma	118.594
loop_
_atom_site_label
_atom_site_type_symbol
_atom_site_fract_x
_atom_site_fract_y
_atom_site_fract_z
_atom_site_charge
Mof_Cd	Cd	0.70111	0.21102	0.12247	0.455
Mof_Cd	Cd	0.52891	0.14618	0.21461	0.45
Mof_Cd	Cd	0.32907	0.12335	0.25784	0.455
Mof_Cd	Cd	0.13467	0.87682	0.20591	0.44
Mof_Cd	Cd	0.06857	0.85386	0.38283	0.44
Mof_Cd	Cd	0.91152	0.7889	0.49008	0.453
Mof_Cd	Cd	0.08855	0.57864	0.87753	0.458
Mof_Cd	Cd	0.93157	0.3143	0.78539	0.444
Mof_Cd	Cd	0.86551	0.07123	0.74216	0.456
Mof_Cd	Cd	0.67091	0.92876	0.79409	0.445
Mof_Cd	Cd	0.47103	0.68574	0.61717	0.444
Mof_Cd	Cd	0.29882	0.42144	0.50992	0.454
Mof_Cd	Cd	0.42136	0.29889	0.50991	0.455
Mof_Cd	Cd	0.6857	0.47109	0.61727	0.447
Mof_Cd	Cd	0.92877	0.67093	0.79428	0.451
Mof_Cd	Cd	0.07124	0.86533	0.74215	0.444
Mof_Cd	Cd	0.31426	0.93143	0.78529	0.435
Mof_Cd	Cd	0.57856	0.08848	0.87738	0.459
Mof_Cd	Cd	0.78898	0.91145	0.49009	0.451
Mof_Cd	Cd	0.85382	0.06843	0.38273	0.454
Mof_Cd	Cd	0.87665	0.13449	0.20572	0.456
Mof_Cd	Cd	0.12318	0.32909	0.25785	0.449
Mof_Cd	Cd	0.14614	0.52897	0.21471	0.444
Mof_Cd	Cd	0.2111	0.70118	0.12262	0.453
Mof_H 	H 	0.9478	0.5111	0.1747	0.36
Mof_H 	H 	0.8798	0.4834	0.216	0.366
Mof_H 	H 	0.8433	0.4236	0.1191	0.378
Mof_H 	H 	0.5878	0.0834	0.3658	0.263
Mof_H 	H 	0.6875	0.1332	0.4393	0.25
Mof_H 	H 	0.6294	0.027	0.3758	0.28
Mof_H 	H 	0.2562	0.8883	0.9413	0.336
Mof_H 	H 	0.2897	0.9724	0.0247	0.346
Mof_H 	H 	0.3069	0.8974	0.0303	0.321
Mof_H 	H 	0.8767	0.7377	0.9618	0.344
Mof_H 	H 	0.9626	0.8348	0.9814	0.349
Mof_H 	H 	0.9485	0.8136	0.0563	0.345
Mof_H 	H 	0.2765	0.8924	0.4981	0.249
Mof_H 	H 	0.3218	0.8835	0.5777	0.252
Mof_H 	H 	0.3407	0.9796	0.5879	0.26
Mof_H 	H 	0.7296	0.5109	0.3957	0.349
Mof_H 	H 	0.7014	0.5796	0.4162	0.361
Mof_H 	H 	0.6594	0.4931	0.4347	0.342
Mof_H 	H 	0.3364	0.7731	0.8253	0.359
Mof_H 	H 	0.2674	0.6638	0.784	0.366
Mof_H 	H 	0.3045	0.7242	0.8809	0.379
Mof_H 	H 	0.7176	0.222	0.6342	0.259
Mof_H 	H 	0.6939	0.2482	0.5607	0.248
Mof_H 	H 	0.6512	0.2536	0.6242	0.273
Mof_H 	H 	0.947	0.3149	0.0587	0.347
Mof_H 	H 	0.9477	0.265	0.9753	0.362
Mof_H 	H 	0.8671	0.2766	0.9697	0.333
Mof_H 	H 	0.7759	0.9149	0.0382	0.342
Mof_H 	H 	0.8534	0.9812	0.0186	0.347
Mof_H 	H 	0.7573	0.8922	0.9437	0.345
Mof_H 	H 	0.3943	0.7784	0.5019	0.252
Mof_H 	H 	0.3058	0.7441	0.4223	0.255
Mof_H 	H 	0.3917	0.7528	0.4121	0.267
Mof_H 	H 	0.1152	0.3339	0.6043	0.352
Mof_H 	H 	0.1634	0.2852	0.5838	0.364
Mof_H 	H 	0.0584	0.2247	0.5653	0.347
Mof_H 	H 	0.2269	0.0522	0.5633	0.374
Mof_H 	H 	0.3362	0.1202	0.6036	0.377
Mof_H 	H 	0.2758	0.1567	0.5803	0.388
Mof_H 	H 	0.778	0.4122	0.4956	0.257
Mof_H 	H 	0.7518	0.3125	0.4457	0.246
Mof_H 	H 	0.7464	0.3706	0.3976	0.272
Mof_H 	H 	0.6851	0.7438	0.6321	0.354
Mof_H 	H 	0.735	0.7103	0.6827	0.371
Mof_H 	H 	0.7234	0.6931	0.5905	0.342
Mof_H 	H 	0.0851	0.1233	0.861	0.338
Mof_H 	H 	0.0188	0.0374	0.8722	0.349
Mof_H 	H 	0.1078	0.0515	0.8651	0.342
Mof_H 	H 	0.2216	0.7235	0.6159	0.254
Mof_H 	H 	0.2559	0.6782	0.5617	0.256
Mof_H 	H 	0.2472	0.6593	0.6389	0.269
Mof_H 	H 	0.6661	0.2704	0.7813	0.349
Mof_H 	H 	0.7148	0.2986	0.8782	0.361
Mof_H 	H 	0.7753	0.3406	0.8337	0.342
Mof_H 	H 	0.4889	0.6636	0.4367	0.359
Mof_H 	H 	0.5166	0.7326	0.3964	0.365
Mof_H 	H 	0.5764	0.6955	0.4197	0.378
Mof_H 	H 	0.9166	0.2824	0.5044	0.256
Mof_H 	H 	0.8668	0.3061	0.5543	0.246
Mof_H 	H 	0.973	0.3488	0.6024	0.27
Mof_H 	H 	0.1117	0.053	0.3679	0.368
Mof_H 	H 	0.0276	0.0523	0.3173	0.385
Mof_H 	H 	0.1026	0.1329	0.4095	0.353
Mof_H 	H 	0.2623	0.2241	0.139	0.347
Mof_H 	H 	0.1652	0.1466	0.1278	0.356
Mof_H 	H 	0.1864	0.2427	0.1349	0.349
Mof_H 	H 	0.1076	0.6057	0.3841	0.254
Mof_H 	H 	0.1165	0.6942	0.4383	0.256
Mof_H 	H 	0.0204	0.6083	0.3611	0.269
Mof_H 	H 	0.4891	0.8848	0.2187	0.339
Mof_H 	H 	0.4204	0.8366	0.1218	0.353
Mof_H 	H 	0.5069	0.9416	0.1663	0.33
Mof_C 	C 	0.9216	0.4014	0.1944	0.396
Mof_C 	C 	0.896	0.4598	0.1744	-1.068
Mof_C 	C 	0.6882	0.1132	0.322	0.273
Mof_C 	C 	0.644	0.0867	0.3815	-0.779
Mof_C 	C 	0.3956	0.9873	0.9991	0.362
Mof_C 	C 	0.304	0.9314	0.9988	-0.94
Mof_C 	C 	0.0002	0.7477	0.0003	0.351
Mof_C 	C 	0.9413	0.7872	0.9999	-0.93
Mof_C 	C 	0.209	0.8864	0.5738	0.263
Mof_C 	C 	0.2951	0.913	0.5579	-0.763
Mof_C 	C 	0.7922	0.5968	0.52	0.365
Mof_C 	C 	0.7139	0.5402	0.4343	-1.009
Mof_C 	C 	0.207	0.7272	0.8056	0.397
Mof_C 	C 	0.2854	0.7216	0.8256	-1.069
Mof_C 	C 	0.7912	0.3662	0.678	0.268
Mof_C 	C 	0.7052	0.2625	0.6185	-0.771
Mof_C 	C 	0.9882	0.3965	0.0009	0.383
Mof_C 	C 	0.9326	0.3052	0.0012	-0.975
Mof_C 	C 	0.7474	0.9999	0.9997	0.346
Mof_C 	C 	0.7873	0.9414	0.0001	-0.929
Mof_C 	C 	0.3126	0.6352	0.4262	0.268
Mof_C 	C 	0.3551	0.7372	0.4421	-0.77
Mof_C 	C 	0.0768	0.2722	0.48	0.371
Mof_C 	C 	0.1059	0.2796	0.5657	-1.018
Mof_C 	C 	0.2728	0.0784	0.4798	0.417
Mof_C 	C 	0.2784	0.104	0.5638	-1.098
Mof_C 	C 	0.6338	0.3118	0.425	0.268
Mof_C 	C 	0.7375	0.356	0.4427	-0.768
Mof_C 	C 	0.6035	0.6044	0.5917	0.387
Mof_C 	C 	0.6948	0.696	0.6274	-0.999
Mof_C 	C 	0.0001	0.9998	0.7475	0.332
Mof_C 	C 	0.0586	0.0587	0.8459	-0.901
Mof_C 	C 	0.3648	0.791	0.6774	0.269
Mof_C 	C 	0.2628	0.7049	0.6179	-0.773
Mof_C 	C 	0.7278	0.2078	0.8046	0.366
Mof_C 	C 	0.7204	0.2861	0.8263	-1.01
Mof_C 	C 	0.5986	0.793	0.5202	0.395
Mof_C 	C 	0.5402	0.7146	0.4362	-1.066
Mof_C 	C 	0.8868	0.2088	0.575	0.266
Mof_C 	C 	0.9133	0.2948	0.5573	-0.766
Mof_C 	C 	0.0127	0.0118	0.4083	0.415
Mof_C 	C 	0.0686	0.0674	0.3726	-1.033
Mof_C 	C 	0.2523	0.2526	0.2525	0.359
Mof_C 	C 	0.2128	0.2127	0.1541	-0.94
Mof_C 	C 	0.1136	0.6874	0.3226	0.268
Mof_C 	C 	0.087	0.6449	0.3821	-0.773
Mof_C 	C 	0.4032	0.9232	0.1954	0.347
Mof_C 	C 	0.4598	0.8941	0.1737	-0.983
Mof_N 	N 	0.8627	0.3158	0.1871	-0.169
Mof_N 	N 	0.9154	0.2862	0.2106	-0.071
Mof_N 	N 	0.0033	0.352	0.2325	-0.073
Mof_N 	N 	0.0092	0.4251	0.2231	-0.181
Mof_N 	N 	0.6532	0.1338	0.264	-0.156
Mof_N 	N 	0.7104	0.1515	0.2261	-0.071
Mof_N 	N 	0.7741	0.1407	0.2612	-0.067
Mof_N 	N 	0.7643	0.1172	0.3219	-0.14
Mof_N 	N 	0.4786	0.0505	0.0703	-0.146
Mof_N 	N 	0.5406	0.0821	0.0407	-0.057
Mof_N 	N 	0.5004	0.0409	0.9593	-0.053
Mof_N 	N 	0.409	0.9812	0.93	-0.161
Mof_N 	N 	0.0648	0.7651	0.0697	-0.157
Mof_N 	N 	0.1008	0.7226	0.0408	-0.068
Mof_N 	N 	0.0594	0.6804	0.9592	-0.066
Mof_N 	N 	0.9933	0.6952	0.9303	-0.157
Mof_N 	N 	0.1297	0.866	0.5201	-0.159
Mof_N 	N 	0.0756	0.8492	0.5586	-0.071
Mof_N 	N 	0.1211	0.8597	0.6344	-0.071
Mof_N 	N 	0.2046	0.8821	0.6459	-0.142
Mof_N 	N 	0.8716	0.6849	0.5467	-0.159
Mof_N 	N 	0.9239	0.7144	0.6287	-0.07
Mof_N 	N 	0.8801	0.6482	0.6521	-0.072
Mof_N 	N 	0.7977	0.575	0.5837	-0.178
Mof_N 	N 	0.1287	0.6756	0.8129	-0.169
Mof_N 	N 	0.0756	0.7048	0.7894	-0.07
Mof_N 	N 	0.1195	0.7708	0.7675	-0.073
Mof_N 	N 	0.202	0.7861	0.7769	-0.182
Mof_N 	N 	0.8698	0.3892	0.736	-0.156
Mof_N 	N 	0.9254	0.4843	0.7739	-0.072
Mof_N 	N 	0.8795	0.5129	0.7388	-0.069
Mof_N 	N 	0.7953	0.4424	0.6781	-0.141
Mof_N 	N 	0.9802	0.4083	0.9297	-0.159
Mof_N 	N 	0.0414	0.4999	0.9593	-0.055
Mof_N 	N 	0.0816	0.5411	0.0407	-0.06
Mof_N 	N 	0.0512	0.479	0.07	-0.16
Mof_N 	N 	0.6954	0.9951	0.9303	-0.159
Mof_N 	N 	0.6818	0.06	0.9592	-0.063
Mof_N 	N 	0.7212	0.1002	0.0408	-0.067
Mof_N 	N 	0.7649	0.063	0.0697	-0.151
Mof_N 	N 	0.3459	0.6096	0.4799	-0.158
Mof_N 	N 	0.2906	0.517	0.4414	-0.07
Mof_N 	N 	0.2253	0.4867	0.3656	-0.07
Mof_N 	N 	0.2362	0.5587	0.3541	-0.141
Mof_N 	N 	0.1382	0.3249	0.4533	-0.16
Mof_N 	N 	0.0857	0.2952	0.3713	-0.069
Mof_N 	N 	0.9961	0.228	0.3479	-0.073
Mof_N 	N 	0.9913	0.214	0.4163	-0.18
Mof_N 	N 	0.3244	0.1373	0.4531	-0.172
Mof_N 	N 	0.2952	0.0846	0.3708	-0.064
Mof_N 	N 	0.2292	0.9967	0.3487	-0.082
Mof_N 	N 	0.2139	0.9908	0.4159	-0.192
Mof_N 	N 	0.6108	0.3468	0.4806	-0.156
Mof_N 	N 	0.5157	0.2896	0.4411	-0.071
Mof_N 	N 	0.4871	0.2259	0.3666	-0.068
Mof_N 	N 	0.5576	0.2357	0.3529	-0.141
Mof_N 	N 	0.5917	0.5214	0.5719	-0.157
Mof_N 	N 	0.5001	0.4594	0.5415	-0.059
Mof_N 	N 	0.4589	0.4996	0.5405	-0.058
Mof_N 	N 	0.521	0.591	0.5722	-0.16
Mof_N 	N 	0.0049	0.9352	0.7003	-0.155
Mof_N 	N 	0.94	0.8992	0.6218	-0.066
Mof_N 	N 	0.8998	0.9406	0.621	-0.072
Mof_N 	N 	0.937	0.0067	0.7019	-0.148
Mof_N 	N 	0.3904	0.8703	0.7363	-0.159
Mof_N 	N 	0.483	0.9244	0.7736	-0.073
Mof_N 	N 	0.5133	0.8789	0.7386	-0.071
Mof_N 	N 	0.4413	0.7954	0.6775	-0.141
Mof_N 	N 	0.6751	0.1284	0.8133	-0.158
Mof_N 	N 	0.7048	0.0761	0.7905	-0.066
Mof_N 	N 	0.772	0.1199	0.7681	-0.07
Mof_N 	N 	0.786	0.2023	0.7773	-0.178
Mof_N 	N 	0.6842	0.8713	0.5469	-0.17
Mof_N 	N 	0.7138	0.9244	0.6292	-0.073
Mof_N 	N 	0.648	0.8805	0.6513	-0.074
Mof_N 	N 	0.5749	0.798	0.5841	-0.182
Mof_N 	N 	0.8662	0.1302	0.5194	-0.155
Mof_N 	N 	0.8485	0.0746	0.5589	-0.069
Mof_N 	N 	0.8593	0.1205	0.6334	-0.068
Mof_N 	N 	0.8828	0.2047	0.6471	-0.141
Mof_N 	N 	0.9495	0.0198	0.4281	-0.159
Mof_N 	N 	0.9179	0.9586	0.4585	-0.063
Mof_N 	N 	0.9591	0.9184	0.4595	-0.058
Mof_N 	N 	0.0188	0.9488	0.4278	-0.174
Mof_N 	N 	0.2349	0.3046	0.2997	-0.157
Mof_N 	N 	0.2774	0.3182	0.3782	-0.066
Mof_N 	N 	0.3196	0.2788	0.379	-0.069
Mof_N 	N 	0.3048	0.2351	0.2981	-0.158
Mof_N 	N 	0.134	0.6541	0.2637	-0.158
Mof_N 	N 	0.1508	0.7094	0.2264	-0.07
Mof_N 	N 	0.1403	0.7747	0.2614	-0.07
Mof_N 	N 	0.1179	0.7638	0.3225	-0.141
Mof_N 	N 	0.3151	0.8618	0.1867	-0.157
Mof_N 	N 	0.2856	0.9143	0.2095	-0.076
Mof_N 	N 	0.3518	0.0039	0.2319	-0.064
Mof_N 	N 	0.425	0.0087	0.2227	-0.167
Mof_Cl	Cl	0.6537	0.29525	0.21115	-0.37
Mof_Cl	Cl	0.39764	0.1648	0.15844	-0.365
Mof_Cl	Cl	0.15603	1.23122e-17	0.15623	-0.389
Mof_Cl	Cl	0.99356	0.835	0.23276	-0.367
Mof_Cl	Cl	0.9162	0.70463	0.35863	-0.366
Mof_Cl	Cl	0.74588	0.74577	0.42679	-0.407
Mof_Cl	Cl	0.0841	0.44255	0.78885	-0.367
Mof_Cl	Cl	0.00636	0.2392	0.84156	-0.361
Mof_Cl	Cl	0.84377	0.9998	0.84377	-0.41
Mof_Cl	Cl	0.60224	0.7608	0.76724	-0.366
Mof_Cl	Cl	0.346	0.55757	0.64137	-0.366
Mof_Cl	Cl	0.31898	0.31909	0.57321	-0.408
Mof_Cl	Cl	0.55745	0.3463	0.64155	-0.369
Mof_Cl	Cl	0.7608	0.60236	0.76716	-0.369
Mof_Cl	Cl	0.0002	0.84397	0.84397	-0.404
Mof_Cl	Cl	0.2392	0.00644	0.84144	-0.35
Mof_Cl	Cl	0.44243	0.0838	0.78843	-0.358
Mof_Cl	Cl	0.68091	0.25412	0.99989	-0.409
Mof_Cl	Cl	0.70475	0.9159	0.35845	-0.376
Mof_Cl	Cl	0.8352	0.99364	0.23284	-0.381
Mof_Cl	Cl	-0	0.15623	0.15603	-0.396
Mof_Cl	Cl	0.165	0.39776	0.15856	-0.366
Mof_Cl	Cl	0.29537	0.654	0.21157	-0.367
Mof_Cl	Cl	0.25423	0.68102	0.00011	-0.41
_end
