data_functionalizedCrystal
_audit_creation_method	'EQeq! by Chris Wilmer'
_symmetry_space_group_name_H-M	'P1'
_symmetry_Int_Tables_number	1
_symmetry_cell_setting	triclinic
loop_
_symmetry_equiv_pos_as_xyz
  x,y,z
_cell_length_a	27.534
_cell_length_b	21.63
_cell_length_c	19.2968
_cell_angle_alpha	90
_cell_angle_beta	120.527
_cell_angle_gamma	90
loop_
_atom_site_label
_atom_site_type_symbol
_atom_site_fract_x
_atom_site_fract_y
_atom_site_fract_z
_atom_site_charge
Mof_Cu	Cu	0.12088	0.17335	0.13109	0.831
Mof_Cu	Cu	0.21369	0.11178	0.16528	0.897
Mof_Cu	Cu	0.18976	0.18203	0.41258	0.875
Mof_K 	K 	0.08638	0.24318	0.31557	4.376
Mof_C 	C 	0.10523	0.9934	0.2518	0.229
Mof_C 	C 	0.15084	0.0301	0.2979	-0.213
Mof_C 	C 	0.1841	0.0172	0.38	0.01
Mof_C 	C 	0.1694	0.9669	0.4128	-0.12
Mof_H 	H 	0.1919	0.9569	0.4669	0.084
Mof_C 	C 	0.122	0.9331	0.3644	0.086
Mof_H 	H 	0.1119	0.9008	0.3863	0.004
Mof_C 	C 	0.0884	0.9465	0.2825	-0.229
Mof_H 	H 	0.0556	0.9243	0.2499	0.11
Mof_C 	C 	0.02127	0.0108	0.1268	0.008
Mof_C 	C 	0.9981	0.0621	0.1423	0.145
Mof_H 	H 	0.0208	0.0886	0.1845	-0.107
Mof_C 	C 	0.9403	0.0738	0.094	-0.305
Mof_C 	C 	0.9072	0.033	0.0316	0.167
Mof_H 	H 	0.8686	0.0398	0.9996	-0.015
Mof_C 	C 	0.9317	0.98216	0.0172	-0.177
Mof_C 	C 	0.98825	0.9712	0.0649	0.047
Mof_H 	H 	0.0043	0.9369	0.0553	0.022
Mof_C 	C 	0.16488	0.0786	0.2554	0.452
Mof_C 	C 	0.2333	0.0563	0.4351	0.325
Mof_C 	C 	0.89484	0.9376	0.952	0.419
Mof_C 	C 	0.914	0.1282	0.1088	0.719
Mof_C 	C 	0.2304	0.1748	0.7776	0.235
Mof_C 	C 	0.2467	0.208	0.7313	-0.221
Mof_C 	C 	0.2341	0.1837	0.6559	-0.028
Mof_C 	C 	0.205	0.1283	0.631	-0.126
Mof_H 	H 	0.1962	0.1121	0.5812	0.074
Mof_C 	C 	0.1888	0.096	0.6781	0.064
Mof_H 	H 	0.1692	0.059	0.6598	0.02
Mof_C 	C 	0.2017	0.1192	0.7523	-0.236
Mof_H 	H 	0.1914	0.0979	0.7846	0.124
Mof_C 	C 	0.208	0.2157	0.8711	0.206
Mof_C 	C 	0.1678	0.259	0.8224	-0.142
Mof_H 	H 	0.1662	0.2726	0.7755	0.097
Mof_C 	C 	0.1312	0.2814	0.8429	-0.04
Mof_C 	C 	0.1323	0.2603	0.913	-0.024
Mof_H 	H 	0.1067	0.2756	0.9267	0.038
Mof_C 	C 	0.171	0.2174	0.9599	-0.036
Mof_C 	C 	0.2096	0.1947	0.9398	-0.136
Mof_H 	H 	0.2363	0.1655	0.9724	0.098
Mof_C 	C 	0.2803	0.2647	0.767	0.453
Mof_C 	C 	0.252	0.2157	0.605	0.296
Mof_C 	C 	0.1724	0.1916	0.0329	0.351
Mof_C 	C 	0.091	0.3296	0.7928	0.312
Mof_O 	O 	0.13122	0.12351	0.22513	-0.619
Mof_O 	O 	0.20637	0.06743	0.24732	-0.449
Mof_O 	O 	0.23407	0.1113	0.41462	-0.395
Mof_O 	O 	0.2704	0.0337	0.4985	-0.329
Mof_O 	O 	0.91978	0.89396	0.94036	-0.462
Mof_O 	O 	0.84293	0.94637	0.91495	-0.429
Mof_O 	O 	0.86144	0.12749	0.0758	-0.627
Mof_O 	O 	0.9443	0.1694	0.1496	-1.475
Mof_O 	O 	0.07854	0.00081	0.16801	-0.236
Mof_O 	O 	0.25334	0.31297	0.76509	-0.44
Mof_O 	O 	0.33287	0.25982	0.80109	-0.635
Mof_O 	O 	0.2689	0.27054	0.624	-0.467
Mof_O 	O 	0.2514	0.1864	0.5488	-0.341
Mof_O 	O 	0.21158	0.15571	0.07659	-0.416
Mof_O 	O 	0.13196	0.20676	0.04355	-0.435
Mof_O 	O 	0.0547	0.3485	0.8118	-0.448
Mof_O 	O 	0.0936	0.3524	0.7363	-0.364
Mof_O 	O 	0.24905	0.19544	0.85561	-0.288
Mof_O 	O 	0.144	0.2524	0.4033	-1.646
Mof_Cu	Cu	0.62088	0.67335	0.13109	0.832
Mof_Cu	Cu	0.71369	0.61178	0.16528	0.899
Mof_Cu	Cu	0.68976	0.68203	0.41258	0.875
Mof_K 	K 	0.58638	0.74318	0.31557	4.464
Mof_C 	C 	0.60523	0.4934	0.2518	0.24
Mof_C 	C 	0.65084	0.5301	0.2979	-0.219
Mof_C 	C 	0.6841	0.5172	0.38	0.014
Mof_C 	C 	0.6694	0.4669	0.4128	-0.123
Mof_H 	H 	0.6919	0.4569	0.4669	0.086
Mof_C 	C 	0.622	0.4331	0.3644	0.091
Mof_H 	H 	0.6119	0.4008	0.3863	0.002
Mof_C 	C 	0.5884	0.4465	0.2825	-0.237
Mof_H 	H 	0.5556	0.4243	0.2499	0.115
Mof_C 	C 	0.52127	0.5108	0.1268	0.078
Mof_C 	C 	0.4981	0.5621	0.1423	0.065
Mof_H 	H 	0.5208	0.5886	0.1845	-0.074
Mof_C 	C 	0.4403	0.5738	0.094	-0.262
Mof_C 	C 	0.4072	0.533	0.0316	0.117
Mof_H 	H 	0.3686	0.5398	0.9996	0.004
Mof_C 	C 	0.4317	0.48216	0.0172	-0.13
Mof_C 	C 	0.48825	0.4712	0.0649	-0.034
Mof_H 	H 	0.5043	0.4369	0.0553	0.057
Mof_C 	C 	0.66488	0.5786	0.2554	0.455
Mof_C 	C 	0.7333	0.5563	0.4351	0.324
Mof_C 	C 	0.39484	0.4376	0.952	0.401
Mof_C 	C 	0.414	0.6282	0.1088	0.698
Mof_C 	C 	0.7304	0.6748	0.7776	0.236
Mof_C 	C 	0.7467	0.708	0.7313	-0.222
Mof_C 	C 	0.7341	0.6837	0.6559	-0.028
Mof_C 	C 	0.705	0.6283	0.631	-0.126
Mof_H 	H 	0.6962	0.6121	0.5812	0.075
Mof_C 	C 	0.6888	0.596	0.6781	0.064
Mof_H 	H 	0.6692	0.559	0.6598	0.021
Mof_C 	C 	0.7017	0.6192	0.7523	-0.235
Mof_H 	H 	0.6914	0.5979	0.7846	0.125
Mof_C 	C 	0.708	0.7157	0.8711	0.207
Mof_C 	C 	0.6678	0.759	0.8224	-0.143
Mof_H 	H 	0.6662	0.7726	0.7755	0.097
Mof_C 	C 	0.6312	0.7814	0.8429	-0.038
Mof_C 	C 	0.6323	0.7603	0.913	-0.025
Mof_H 	H 	0.6067	0.7756	0.9267	0.039
Mof_C 	C 	0.671	0.7174	0.9599	-0.035
Mof_C 	C 	0.7096	0.6947	0.9398	-0.137
Mof_H 	H 	0.7363	0.6655	0.9724	0.098
Mof_C 	C 	0.7803	0.7647	0.767	0.454
Mof_C 	C 	0.752	0.7157	0.605	0.296
Mof_C 	C 	0.6724	0.6916	0.0329	0.351
Mof_C 	C 	0.591	0.8296	0.7928	0.311
Mof_O 	O 	0.63122	0.62351	0.22513	-0.623
Mof_O 	O 	0.70637	0.56743	0.24732	-0.45
Mof_O 	O 	0.73407	0.6113	0.41462	-0.394
Mof_O 	O 	0.7704	0.5337	0.4985	-0.328
Mof_O 	O 	0.41978	0.39396	0.94036	-0.46
Mof_O 	O 	0.34293	0.44637	0.91495	-0.425
Mof_O 	O 	0.36144	0.62749	0.0758	-0.62
Mof_O 	O 	0.4443	0.6694	0.1496	-1.457
Mof_O 	O 	0.57854	0.50081	0.16801	-0.254
Mof_O 	O 	0.75334	0.81297	0.76509	-0.44
Mof_O 	O 	0.83287	0.75982	0.80109	-0.637
Mof_O 	O 	0.7689	0.77054	0.624	-0.468
Mof_O 	O 	0.7514	0.6864	0.5488	-0.341
Mof_O 	O 	0.71158	0.65571	0.07659	-0.416
Mof_O 	O 	0.63196	0.70676	0.04355	-0.435
Mof_O 	O 	0.5547	0.8485	0.8118	-0.446
Mof_O 	O 	0.5936	0.8524	0.7363	-0.363
Mof_O 	O 	0.74905	0.69544	0.85561	-0.288
Mof_O 	O 	0.644	0.7524	0.4033	-1.67
Mof_Cu	Cu	0.87912	0.17335	0.36891	0.832
Mof_Cu	Cu	0.78631	0.11178	0.33472	0.899
Mof_Cu	Cu	0.81024	0.18203	0.08742	0.873
Mof_K 	K 	0.91362	0.24318	0.18443	4.559
Mof_C 	C 	0.89477	0.9934	0.2482	0.245
Mof_C 	C 	0.84916	0.0301	0.2021	-0.222
Mof_C 	C 	0.8159	0.0172	0.12	0.017
Mof_C 	C 	0.8306	0.9669	0.0872	-0.128
Mof_H 	H 	0.8081	0.9569	0.0331	0.087
Mof_C 	C 	0.878	0.9331	0.1356	0.096
Mof_H 	H 	0.8881	0.9008	0.1137	0.002
Mof_C 	C 	0.9116	0.9465	0.2175	-0.242
Mof_H 	H 	0.9444	0.9243	0.2501	0.119
Mof_C 	C 	0.97873	0.0108	0.3732	0.142
Mof_C 	C 	0.0019	0.0621	0.3577	-0.004
Mof_H 	H 	0.9792	0.0886	0.3155	-0.045
Mof_C 	C 	0.0597	0.0738	0.406	-0.226
Mof_C 	C 	0.0928	0.033	0.4684	0.083
Mof_H 	H 	0.1314	0.0398	0.5004	0.016
Mof_C 	C 	0.0683	0.98216	0.4828	-0.092
Mof_C 	C 	0.01175	0.9712	0.4351	-0.107
Mof_H 	H 	0.9957	0.9369	0.4447	0.089
Mof_C 	C 	0.83512	0.0786	0.2446	0.457
Mof_C 	C 	0.7667	0.0563	0.0649	0.324
Mof_C 	C 	0.10516	0.9376	0.548	0.387
Mof_C 	C 	0.086	0.1282	0.3912	0.682
Mof_C 	C 	0.7696	0.1748	0.7224	0.236
Mof_C 	C 	0.7533	0.208	0.7687	-0.221
Mof_C 	C 	0.7659	0.1837	0.8441	-0.028
Mof_C 	C 	0.795	0.1283	0.869	-0.125
Mof_H 	H 	0.8038	0.1121	0.9188	0.075
Mof_C 	C 	0.8112	0.096	0.8219	0.064
Mof_H 	H 	0.8308	0.059	0.8402	0.021
Mof_C 	C 	0.7983	0.1192	0.7477	-0.235
Mof_H 	H 	0.8086	0.0979	0.7154	0.125
Mof_C 	C 	0.792	0.2157	0.6289	0.208
Mof_C 	C 	0.8322	0.259	0.6776	-0.144
Mof_H 	H 	0.8338	0.2726	0.7245	0.098
Mof_C 	C 	0.8688	0.2814	0.6571	-0.036
Mof_C 	C 	0.8677	0.2603	0.587	-0.026
Mof_H 	H 	0.8933	0.2756	0.5733	0.041
Mof_C 	C 	0.829	0.2174	0.5401	-0.033
Mof_C 	C 	0.7904	0.1947	0.5602	-0.138
Mof_H 	H 	0.7637	0.1655	0.5276	0.099
Mof_C 	C 	0.7197	0.2647	0.733	0.453
Mof_C 	C 	0.748	0.2157	0.895	0.297
Mof_C 	C 	0.8276	0.1916	0.4671	0.35
Mof_C 	C 	0.909	0.3296	0.7072	0.311
Mof_O 	O 	0.86878	0.12351	0.27487	-0.626
Mof_O 	O 	0.79363	0.06743	0.25268	-0.451
Mof_O 	O 	0.76593	0.1113	0.08538	-0.394
Mof_O 	O 	0.7296	0.0337	0.0015	-0.328
Mof_O 	O 	0.08022	0.89396	0.55964	-0.459
Mof_O 	O 	0.15707	0.94637	0.58505	-0.421
Mof_O 	O 	0.13856	0.12749	0.4242	-0.613
Mof_O 	O 	0.0557	0.1694	0.3504	-1.442
Mof_O 	O 	0.92146	0.00081	0.33199	-0.269
Mof_O 	O 	0.74666	0.31297	0.73491	-0.439
Mof_O 	O 	0.66713	0.25982	0.69891	-0.636
Mof_O 	O 	0.7311	0.27054	0.876	-0.467
Mof_O 	O 	0.7486	0.1864	0.9512	-0.342
Mof_O 	O 	0.78842	0.15571	0.42341	-0.416
Mof_O 	O 	0.86804	0.20676	0.45645	-0.433
Mof_O 	O 	0.9453	0.3485	0.6882	-0.44
Mof_O 	O 	0.9064	0.3524	0.7637	-0.36
Mof_O 	O 	0.75095	0.19544	0.64439	-0.288
Mof_O 	O 	0.856	0.2524	0.0967	-1.695
Mof_Cu	Cu	0.37912	0.67335	0.36891	0.832
Mof_Cu	Cu	0.28631	0.61178	0.33472	0.898
Mof_Cu	Cu	0.31024	0.68203	0.08742	0.875
Mof_K 	K 	0.41362	0.74318	0.18443	4.456
Mof_C 	C 	0.39477	0.4934	0.2482	0.24
Mof_C 	C 	0.34916	0.5301	0.2021	-0.219
Mof_C 	C 	0.3159	0.5172	0.12	0.013
Mof_C 	C 	0.3306	0.4669	0.0872	-0.123
Mof_H 	H 	0.3081	0.4569	0.0331	0.085
Mof_C 	C 	0.378	0.4331	0.1356	0.091
Mof_H 	H 	0.3881	0.4008	0.1137	0.002
Mof_C 	C 	0.4116	0.4465	0.2175	-0.237
Mof_H 	H 	0.4444	0.4243	0.2501	0.115
Mof_C 	C 	0.47873	0.5108	0.3732	0.078
Mof_C 	C 	0.5019	0.5621	0.3577	0.065
Mof_H 	H 	0.4792	0.5886	0.3155	-0.074
Mof_C 	C 	0.5597	0.5738	0.406	-0.262
Mof_C 	C 	0.5928	0.533	0.4684	0.117
Mof_H 	H 	0.6314	0.5398	0.5004	0.004
Mof_C 	C 	0.5683	0.48216	0.4828	-0.13
Mof_C 	C 	0.51175	0.4712	0.4351	-0.034
Mof_H 	H 	0.4957	0.4369	0.4447	0.057
Mof_C 	C 	0.33512	0.5786	0.2446	0.455
Mof_C 	C 	0.2667	0.5563	0.0649	0.325
Mof_C 	C 	0.60516	0.4376	0.548	0.401
Mof_C 	C 	0.586	0.6282	0.3912	0.699
Mof_C 	C 	0.2696	0.6748	0.7224	0.235
Mof_C 	C 	0.2533	0.708	0.7687	-0.221
Mof_C 	C 	0.2659	0.6837	0.8441	-0.028
Mof_C 	C 	0.295	0.6283	0.869	-0.126
Mof_H 	H 	0.3038	0.6121	0.9188	0.075
Mof_C 	C 	0.3112	0.596	0.8219	0.064
Mof_H 	H 	0.3308	0.559	0.8402	0.021
Mof_C 	C 	0.2983	0.6192	0.7477	-0.235
Mof_H 	H 	0.3086	0.5979	0.7154	0.125
Mof_C 	C 	0.292	0.7157	0.6289	0.207
Mof_C 	C 	0.3322	0.759	0.6776	-0.143
Mof_H 	H 	0.3338	0.7726	0.7245	0.098
Mof_C 	C 	0.3688	0.7814	0.6571	-0.038
Mof_C 	C 	0.3677	0.7603	0.587	-0.025
Mof_H 	H 	0.3933	0.7756	0.5733	0.04
Mof_C 	C 	0.329	0.7174	0.5401	-0.034
Mof_C 	C 	0.2904	0.6947	0.5602	-0.137
Mof_H 	H 	0.2637	0.6655	0.5276	0.099
Mof_C 	C 	0.2197	0.7647	0.733	0.453
Mof_C 	C 	0.248	0.7157	0.895	0.297
Mof_C 	C 	0.3276	0.6916	0.4671	0.35
Mof_C 	C 	0.409	0.8296	0.7072	0.311
Mof_O 	O 	0.36878	0.62351	0.27487	-0.623
Mof_O 	O 	0.29363	0.56743	0.25268	-0.45
Mof_O 	O 	0.26593	0.6113	0.08538	-0.395
Mof_O 	O 	0.2296	0.5337	0.0015	-0.329
Mof_O 	O 	0.58022	0.39396	0.55964	-0.46
Mof_O 	O 	0.65707	0.44637	0.58505	-0.425
Mof_O 	O 	0.63856	0.62749	0.4242	-0.62
Mof_O 	O 	0.5557	0.6694	0.3504	-1.458
Mof_O 	O 	0.42146	0.50081	0.33199	-0.254
Mof_O 	O 	0.24666	0.81297	0.73491	-0.439
Mof_O 	O 	0.16713	0.75982	0.69891	-0.634
Mof_O 	O 	0.2311	0.77054	0.876	-0.466
Mof_O 	O 	0.2486	0.6864	0.9512	-0.341
Mof_O 	O 	0.28842	0.65571	0.42341	-0.416
Mof_O 	O 	0.36804	0.70676	0.45645	-0.434
Mof_O 	O 	0.4453	0.8485	0.6882	-0.446
Mof_O 	O 	0.4064	0.8524	0.7637	-0.363
Mof_O 	O 	0.25095	0.69544	0.64439	-0.288
Mof_O 	O 	0.356	0.7524	0.0967	-1.668
Mof_Cu	Cu	0.87912	0.82665	0.86891	0.832
Mof_Cu	Cu	0.78631	0.88822	0.83472	0.899
Mof_Cu	Cu	0.81024	0.81797	0.58742	0.873
Mof_K 	K 	0.91362	0.75682	0.68443	4.546
Mof_C 	C 	0.89477	0.0066	0.7482	0.243
Mof_C 	C 	0.84916	0.9699	0.7021	-0.221
Mof_C 	C 	0.8159	0.9828	0.62	0.015
Mof_C 	C 	0.8306	0.0331	0.5872	-0.126
Mof_H 	H 	0.8081	0.0431	0.5331	0.086
Mof_C 	C 	0.878	0.0669	0.6356	0.094
Mof_H 	H 	0.8881	0.0992	0.6137	0.002
Mof_C 	C 	0.9116	0.0535	0.7175	-0.24
Mof_H 	H 	0.9444	0.0757	0.7501	0.118
Mof_C 	C 	0.97873	0.9892	0.8732	0.131
Mof_C 	C 	0.0019	0.9379	0.8577	0.009
Mof_H 	H 	0.9792	0.9114	0.8155	-0.05
Mof_C 	C 	0.0597	0.9262	0.906	-0.235
Mof_C 	C 	0.0928	0.967	0.9684	0.097
Mof_H 	H 	0.1314	0.9602	0.0004	0.009
Mof_C 	C 	0.0683	0.01784	0.9828	-0.104
Mof_C 	C 	0.01175	0.0288	0.9351	-0.095
Mof_H 	H 	0.9957	0.0631	0.9447	0.083
Mof_C 	C 	0.83512	0.9214	0.7446	0.456
Mof_C 	C 	0.7667	0.9437	0.5649	0.324
Mof_C 	C 	0.10516	0.0624	0.048	0.392
Mof_C 	C 	0.086	0.8718	0.8912	0.686
Mof_C 	C 	0.7696	0.8252	0.2224	0.236
Mof_C 	C 	0.7533	0.792	0.2687	-0.221
Mof_C 	C 	0.7659	0.8163	0.3441	-0.028
Mof_C 	C 	0.795	0.8717	0.369	-0.126
Mof_H 	H 	0.8038	0.8879	0.4188	0.075
Mof_C 	C 	0.8112	0.904	0.3219	0.064
Mof_H 	H 	0.8308	0.941	0.3402	0.021
Mof_C 	C 	0.7983	0.8808	0.2477	-0.235
Mof_H 	H 	0.8086	0.9021	0.2154	0.125
Mof_C 	C 	0.792	0.7843	0.1289	0.208
Mof_C 	C 	0.8322	0.741	0.1776	-0.144
Mof_H 	H 	0.8338	0.7274	0.2245	0.098
Mof_C 	C 	0.8688	0.7186	0.1571	-0.036
Mof_C 	C 	0.8677	0.7397	0.087	-0.026
Mof_H 	H 	0.8933	0.7244	0.0733	0.041
Mof_C 	C 	0.829	0.7826	0.0401	-0.032
Mof_C 	C 	0.7904	0.8053	0.0602	-0.138
Mof_H 	H 	0.7637	0.8345	0.0276	0.099
Mof_C 	C 	0.7197	0.7353	0.233	0.453
Mof_C 	C 	0.748	0.7843	0.395	0.297
Mof_C 	C 	0.8276	0.8084	0.9671	0.349
Mof_C 	C 	0.909	0.6704	0.2072	0.31
Mof_O 	O 	0.86878	0.87649	0.77487	-0.626
Mof_O 	O 	0.79363	0.93257	0.75268	-0.451
Mof_O 	O 	0.76593	0.8887	0.58538	-0.395
Mof_O 	O 	0.7296	0.9663	0.5015	-0.329
Mof_O 	O 	0.08022	0.10604	0.05964	-0.46
Mof_O 	O 	0.15707	0.05363	0.08505	-0.422
Mof_O 	O 	0.13856	0.87251	0.9242	-0.614
Mof_O 	O 	0.0557	0.8306	0.8504	-1.445
Mof_O 	O 	0.92146	0.99919	0.83199	-0.266
Mof_O 	O 	0.74666	0.68703	0.23491	-0.439
Mof_O 	O 	0.66713	0.74018	0.19891	-0.636
Mof_O 	O 	0.7311	0.72946	0.376	-0.467
Mof_O 	O 	0.7486	0.8136	0.4512	-0.341
Mof_O 	O 	0.78842	0.84429	0.92341	-0.416
Mof_O 	O 	0.86804	0.79324	0.95645	-0.433
Mof_O 	O 	0.9453	0.6515	0.1882	-0.439
Mof_O 	O 	0.9064	0.6476	0.2637	-0.359
Mof_O 	O 	0.75095	0.80456	0.14439	-0.289
Mof_O 	O 	0.856	0.7476	0.5967	-1.691
Mof_Cu	Cu	0.37912	0.32665	0.86891	0.832
Mof_Cu	Cu	0.28631	0.38822	0.83472	0.898
Mof_Cu	Cu	0.31024	0.31797	0.58742	0.875
Mof_K 	K 	0.41362	0.25682	0.68443	4.455
Mof_C 	C 	0.39477	0.5066	0.7482	0.24
Mof_C 	C 	0.34916	0.4699	0.7021	-0.219
Mof_C 	C 	0.3159	0.4828	0.62	0.014
Mof_C 	C 	0.3306	0.5331	0.5872	-0.123
Mof_H 	H 	0.3081	0.5431	0.5331	0.086
Mof_C 	C 	0.378	0.5669	0.6356	0.091
Mof_H 	H 	0.3881	0.5992	0.6137	0.002
Mof_C 	C 	0.4116	0.5535	0.7175	-0.237
Mof_H 	H 	0.4444	0.5757	0.7501	0.115
Mof_C 	C 	0.47873	0.4892	0.8732	0.078
Mof_C 	C 	0.5019	0.4379	0.8577	0.065
Mof_H 	H 	0.4792	0.4114	0.8155	-0.074
Mof_C 	C 	0.5597	0.4262	0.906	-0.261
Mof_C 	C 	0.5928	0.467	0.9684	0.116
Mof_H 	H 	0.6314	0.4602	0.0004	0.005
Mof_C 	C 	0.5683	0.51784	0.9828	-0.13
Mof_C 	C 	0.51175	0.5288	0.9351	-0.034
Mof_H 	H 	0.4957	0.5631	0.9447	0.057
Mof_C 	C 	0.33512	0.4214	0.7446	0.455
Mof_C 	C 	0.2667	0.4437	0.5649	0.324
Mof_C 	C 	0.60516	0.5624	0.048	0.402
Mof_C 	C 	0.586	0.3718	0.8912	0.698
Mof_C 	C 	0.2696	0.3252	0.2224	0.235
Mof_C 	C 	0.2533	0.292	0.2687	-0.221
Mof_C 	C 	0.2659	0.3163	0.3441	-0.027
Mof_C 	C 	0.295	0.3717	0.369	-0.126
Mof_H 	H 	0.3038	0.3879	0.4188	0.075
Mof_C 	C 	0.3112	0.404	0.3219	0.064
Mof_H 	H 	0.3308	0.441	0.3402	0.021
Mof_C 	C 	0.2983	0.3808	0.2477	-0.235
Mof_H 	H 	0.3086	0.4021	0.2154	0.125
Mof_C 	C 	0.292	0.2843	0.1289	0.207
Mof_C 	C 	0.3322	0.241	0.1776	-0.143
Mof_H 	H 	0.3338	0.2274	0.2245	0.098
Mof_C 	C 	0.3688	0.2186	0.1571	-0.038
Mof_C 	C 	0.3677	0.2397	0.087	-0.025
Mof_H 	H 	0.3933	0.2244	0.0733	0.04
Mof_C 	C 	0.329	0.2826	0.0401	-0.034
Mof_C 	C 	0.2904	0.3053	0.0602	-0.138
Mof_H 	H 	0.2637	0.3345	0.0276	0.098
Mof_C 	C 	0.2197	0.2353	0.233	0.453
Mof_C 	C 	0.248	0.2843	0.395	0.297
Mof_C 	C 	0.3276	0.3084	0.9671	0.35
Mof_C 	C 	0.409	0.1704	0.2072	0.311
Mof_O 	O 	0.36878	0.37649	0.77487	-0.623
Mof_O 	O 	0.29363	0.43257	0.75268	-0.45
Mof_O 	O 	0.26593	0.3887	0.58538	-0.395
Mof_O 	O 	0.2296	0.4663	0.5015	-0.328
Mof_O 	O 	0.58022	0.60604	0.05964	-0.46
Mof_O 	O 	0.65707	0.55363	0.08505	-0.425
Mof_O 	O 	0.63856	0.37251	0.9242	-0.62
Mof_O 	O 	0.5557	0.3306	0.8504	-1.458
Mof_O 	O 	0.42146	0.49919	0.83199	-0.254
Mof_O 	O 	0.24666	0.18703	0.23491	-0.439
Mof_O 	O 	0.16713	0.24018	0.19891	-0.633
Mof_O 	O 	0.2311	0.22946	0.376	-0.465
Mof_O 	O 	0.2486	0.3136	0.4512	-0.341
Mof_O 	O 	0.28842	0.34429	0.92341	-0.416
Mof_O 	O 	0.36804	0.29324	0.95645	-0.435
Mof_O 	O 	0.4453	0.1515	0.1882	-0.445
Mof_O 	O 	0.4064	0.1476	0.2637	-0.362
Mof_O 	O 	0.25095	0.30456	0.14439	-0.288
Mof_O 	O 	0.356	0.2476	0.5967	-1.667
Mof_Cu	Cu	0.12088	0.82665	0.63109	0.832
Mof_Cu	Cu	0.21369	0.88822	0.66528	0.898
Mof_Cu	Cu	0.18976	0.81797	0.91258	0.876
Mof_K 	K 	0.08638	0.75682	0.81557	4.388
Mof_C 	C 	0.10523	0.0066	0.7518	0.231
Mof_C 	C 	0.15084	0.9699	0.7979	-0.214
Mof_C 	C 	0.1841	0.9828	0.88	0.012
Mof_C 	C 	0.1694	0.0331	0.9128	-0.122
Mof_H 	H 	0.1919	0.0431	0.9669	0.084
Mof_C 	C 	0.122	0.0669	0.8644	0.087
Mof_H 	H 	0.1119	0.0992	0.8863	0.003
Mof_C 	C 	0.0884	0.0535	0.7825	-0.231
Mof_H 	H 	0.0556	0.0757	0.7499	0.111
Mof_C 	C 	0.02127	0.9892	0.6268	0.017
Mof_C 	C 	0.9981	0.9379	0.6423	0.132
Mof_H 	H 	0.0208	0.9114	0.6845	-0.102
Mof_C 	C 	0.9403	0.9262	0.594	-0.296
Mof_C 	C 	0.9072	0.967	0.5316	0.151
Mof_H 	H 	0.8686	0.9602	0.4996	-0.007
Mof_C 	C 	0.9317	0.01784	0.5172	-0.167
Mof_C 	C 	0.98825	0.0288	0.5649	0.037
Mof_H 	H 	0.0043	0.0631	0.5553	0.027
Mof_C 	C 	0.16488	0.9214	0.7554	0.452
Mof_C 	C 	0.2333	0.9437	0.9351	0.325
Mof_C 	C 	0.89484	0.0624	0.452	0.415
Mof_C 	C 	0.914	0.8718	0.6088	0.715
Mof_C 	C 	0.2304	0.8252	0.2776	0.235
Mof_C 	C 	0.2467	0.792	0.2313	-0.221
Mof_C 	C 	0.2341	0.8163	0.1559	-0.028
Mof_C 	C 	0.205	0.8717	0.131	-0.126
Mof_H 	H 	0.1962	0.8879	0.0812	0.074
Mof_C 	C 	0.1888	0.904	0.1781	0.064
Mof_H 	H 	0.1692	0.941	0.1598	0.02
Mof_C 	C 	0.2017	0.8808	0.2523	-0.236
Mof_H 	H 	0.1914	0.9021	0.2846	0.124
Mof_C 	C 	0.208	0.7843	0.3711	0.206
Mof_C 	C 	0.1678	0.741	0.3224	-0.142
Mof_H 	H 	0.1662	0.7274	0.2755	0.097
Mof_C 	C 	0.1312	0.7186	0.3429	-0.039
Mof_C 	C 	0.1323	0.7397	0.413	-0.025
Mof_H 	H 	0.1067	0.7244	0.4267	0.039
Mof_C 	C 	0.171	0.7826	0.4599	-0.035
Mof_C 	C 	0.2096	0.8053	0.4398	-0.137
Mof_H 	H 	0.2363	0.8345	0.4724	0.098
Mof_C 	C 	0.2803	0.7353	0.267	0.453
Mof_C 	C 	0.252	0.7843	0.105	0.296
Mof_C 	C 	0.1724	0.8084	0.5329	0.351
Mof_C 	C 	0.091	0.6704	0.2928	0.312
Mof_O 	O 	0.13122	0.87649	0.72513	-0.62
Mof_O 	O 	0.20637	0.93257	0.74732	-0.45
Mof_O 	O 	0.23407	0.8887	0.91462	-0.395
Mof_O 	O 	0.2704	0.9663	0.9985	-0.329
Mof_O 	O 	0.91978	0.10604	0.44036	-0.461
Mof_O 	O 	0.84293	0.05363	0.41495	-0.428
Mof_O 	O 	0.86144	0.87251	0.5758	-0.626
Mof_O 	O 	0.9443	0.8306	0.6496	-1.473
Mof_O 	O 	0.07854	0.99919	0.66801	-0.239
Mof_O 	O 	0.25334	0.68703	0.26509	-0.44
Mof_O 	O 	0.33287	0.74018	0.30109	-0.635
Mof_O 	O 	0.2689	0.72946	0.124	-0.467
Mof_O 	O 	0.2514	0.8136	0.0488	-0.342
Mof_O 	O 	0.21158	0.84429	0.57659	-0.416
Mof_O 	O 	0.13196	0.79324	0.54355	-0.435
Mof_O 	O 	0.0547	0.6515	0.3118	-0.448
Mof_O 	O 	0.0936	0.6476	0.2363	-0.364
Mof_O 	O 	0.24905	0.80456	0.35561	-0.288
Mof_O 	O 	0.144	0.7476	0.9033	-1.649
Mof_Cu	Cu	0.62088	0.32665	0.63109	0.832
Mof_Cu	Cu	0.71369	0.38822	0.66528	0.898
Mof_Cu	Cu	0.68976	0.31797	0.91258	0.874
Mof_K 	K 	0.58638	0.25682	0.81557	4.463
Mof_C 	C 	0.60523	0.5066	0.7518	0.24
Mof_C 	C 	0.65084	0.4699	0.7979	-0.218
Mof_C 	C 	0.6841	0.4828	0.88	0.013
Mof_C 	C 	0.6694	0.5331	0.9128	-0.123
Mof_H 	H 	0.6919	0.5431	0.9669	0.085
Mof_C 	C 	0.622	0.5669	0.8644	0.091
Mof_H 	H 	0.6119	0.5992	0.8863	0.002
Mof_C 	C 	0.5884	0.5535	0.7825	-0.237
Mof_H 	H 	0.5556	0.5757	0.7499	0.114
Mof_C 	C 	0.52127	0.4892	0.6268	0.078
Mof_C 	C 	0.4981	0.4379	0.6423	0.065
Mof_H 	H 	0.5208	0.4114	0.6845	-0.074
Mof_C 	C 	0.4403	0.4262	0.594	-0.261
Mof_C 	C 	0.4072	0.467	0.5316	0.117
Mof_H 	H 	0.3686	0.4602	0.4996	0.004
Mof_C 	C 	0.4317	0.51784	0.5172	-0.13
Mof_C 	C 	0.48825	0.5288	0.5649	-0.034
Mof_H 	H 	0.5043	0.5631	0.5553	0.057
Mof_C 	C 	0.66488	0.4214	0.7554	0.455
Mof_C 	C 	0.7333	0.4437	0.9351	0.325
Mof_C 	C 	0.39484	0.5624	0.452	0.401
Mof_C 	C 	0.414	0.3718	0.6088	0.698
Mof_C 	C 	0.7304	0.3252	0.2776	0.236
Mof_C 	C 	0.7467	0.292	0.2313	-0.222
Mof_C 	C 	0.7341	0.3163	0.1559	-0.028
Mof_C 	C 	0.705	0.3717	0.131	-0.126
Mof_H 	H 	0.6962	0.3879	0.0812	0.075
Mof_C 	C 	0.6888	0.404	0.1781	0.064
Mof_H 	H 	0.6692	0.441	0.1598	0.021
Mof_C 	C 	0.7017	0.3808	0.2523	-0.235
Mof_H 	H 	0.6914	0.4021	0.2846	0.125
Mof_C 	C 	0.708	0.2843	0.3711	0.207
Mof_C 	C 	0.6678	0.241	0.3224	-0.143
Mof_H 	H 	0.6662	0.2274	0.2755	0.098
Mof_C 	C 	0.6312	0.2186	0.3429	-0.038
Mof_C 	C 	0.6323	0.2397	0.413	-0.025
Mof_H 	H 	0.6067	0.2244	0.4267	0.04
Mof_C 	C 	0.671	0.2826	0.4599	-0.034
Mof_C 	C 	0.7096	0.3053	0.4398	-0.138
Mof_H 	H 	0.7363	0.3345	0.4724	0.099
Mof_C 	C 	0.7803	0.2353	0.267	0.454
Mof_C 	C 	0.752	0.2843	0.105	0.296
Mof_C 	C 	0.6724	0.3084	0.5329	0.35
Mof_C 	C 	0.591	0.1704	0.2928	0.311
Mof_O 	O 	0.63122	0.37649	0.72513	-0.623
Mof_O 	O 	0.70637	0.43257	0.74732	-0.45
Mof_O 	O 	0.73407	0.3887	0.91462	-0.395
Mof_O 	O 	0.7704	0.4663	0.9985	-0.329
Mof_O 	O 	0.41978	0.60604	0.44036	-0.46
Mof_O 	O 	0.34293	0.55363	0.41495	-0.425
Mof_O 	O 	0.36144	0.37251	0.5758	-0.619
Mof_O 	O 	0.4443	0.3306	0.6496	-1.456
Mof_O 	O 	0.57854	0.49919	0.66801	-0.254
Mof_O 	O 	0.75334	0.18703	0.26509	-0.44
Mof_O 	O 	0.83287	0.24018	0.30109	-0.638
Mof_O 	O 	0.7689	0.22946	0.124	-0.468
Mof_O 	O 	0.7514	0.3136	0.0488	-0.34
Mof_O 	O 	0.71158	0.34429	0.57659	-0.416
Mof_O 	O 	0.63196	0.29324	0.54355	-0.434
Mof_O 	O 	0.5547	0.1515	0.3118	-0.445
Mof_O 	O 	0.5936	0.1476	0.2363	-0.362
Mof_O 	O 	0.74905	0.30456	0.35561	-0.288
Mof_O 	O 	0.644	0.2476	0.9033	-1.67
Mof_Cu	Cu	2.97183e-33	0.41027	0.75	0.774
Mof_Cu	Cu	0.5	0.91027	0.75	0.777
Mof_Cu	Cu	9.90611e-34	0.58973	0.25	0.774
Mof_Cu	Cu	0.5	0.08973	0.25	0.777
_end
