data_functionalizedCrystal
_audit_creation_method	'EQeq! by Chris Wilmer'
_symmetry_space_group_name_H-M	'P1'
_symmetry_Int_Tables_number	1
_symmetry_cell_setting	triclinic
loop_
_symmetry_equiv_pos_as_xyz
  x,y,z
_cell_length_a	14.424
_cell_length_b	17.798
_cell_length_c	17.195
_cell_angle_alpha	90
_cell_angle_beta	90
_cell_angle_gamma	90
loop_
_atom_site_label
_atom_site_type_symbol
_atom_site_fract_x
_atom_site_fract_y
_atom_site_fract_z
_atom_site_charge
Mof_Mn	Mn	0.99799	0.8364	0.7517	0.823
Mof_Mn	Mn	0.50776	0.32636	0.16425	0.827
Mof_S 	S 	0.0026	0.76437	0.45091	0.045
Mof_O 	O 	0.5417	0.41232	0.0816	-0.341
Mof_O 	O 	0.671	0.39151	0.1489	-0.277
Mof_O 	O 	0.1066	0.92709	0.7537	-0.327
Mof_O 	O 	0.0012	0.9321	0.8456	-0.326
Mof_O 	O 	0.0379	0.7366	0.676	-0.316
Mof_O 	O 	0.9938	0.8354	0.6085	-0.311
Mof_O 	O 	0.0081	0.7408	0.2803	-0.324
Mof_O 	O 	0.0275	0.6178	0.2818	-0.317
Mof_N 	N 	0.9177	0.7603	0.8283	-0.182
Mof_N 	N 	0.8449	0.8576	0.7327	-0.185
Mof_N 	N 	0.1001	0.7762	0.8317	-0.177
Mof_N 	N 	0.4176	0.248	0.0939	-0.183
Mof_N 	N 	0.3515	0.3594	0.1786	-0.177
Mof_N 	N 	0.5995	0.2308	0.1166	-0.177
Mof_C 	C 	0.8245	0.757	0.8242	0.073
Mof_C 	C 	0.7746	0.7033	0.8657	-0.133
Mof_H 	H 	0.7102	0.7026	0.8627	0.077
Mof_C 	C 	0.8202	0.6507	0.9116	0.072
Mof_C 	C 	0.9178	0.656	0.9152	-0.134
Mof_H 	H 	0.9512	0.622	0.9451	0.077
Mof_C 	C 	0.9638	0.7116	0.8743	0.071
Mof_C 	C 	0.7834	0.815	0.7727	0.07
Mof_C 	C 	0.6877	0.8259	0.7651	-0.132
Mof_H 	H 	0.6466	0.7953	0.7921	0.089
Mof_C 	C 	0.6547	0.8818	0.7177	0.068
Mof_H 	H 	0.5913	0.8898	0.7123	0.019
Mof_C 	C 	0.7181	0.9265	0.6778	-0.137
Mof_H 	H 	0.6979	0.9655	0.6461	0.09
Mof_C 	C 	0.8127	0.9116	0.6863	0.089
Mof_H 	H 	0.8549	0.9406	0.6585	0.002
Mof_C 	C 	0.0654	0.7222	0.878	0.077
Mof_C 	C 	0.1224	0.6802	0.9266	-0.138
Mof_H 	H 	0.0972	0.6431	0.9583	0.083
Mof_C 	C 	0.2156	0.6939	0.9275	0.069
Mof_H 	H 	0.2544	0.6659	0.9595	0.012
Mof_C 	C 	0.2521	0.7501	0.88	-0.146
Mof_H 	H 	0.3151	0.761	0.8804	0.092
Mof_C 	C 	0.1923	0.789	0.8325	0.093
Mof_H 	H 	0.2163	0.8257	0.7996	0.006
Mof_C 	C 	0.7707	0.5898	0.9559	-0.006
Mof_C 	C 	0.6787	0.5727	0.9415	-0.063
Mof_H 	H 	0.6471	0.5975	0.902	0.056
Mof_C 	C 	0.6333	0.519	0.9854	-0.021
Mof_H 	H 	0.5713	0.5088	0.975	0.045
Mof_C 	C 	0.678	0.4798	0.0449	-0.055
Mof_C 	C 	0.7712	0.4952	0.0574	-0.009
Mof_H 	H 	0.8035	0.4688	0.0953	0.05
Mof_C 	C 	0.8168	0.5493	0.0139	-0.051
Mof_H 	H 	0.8791	0.559	0.0235	0.059
Mof_C 	C 	0.6285	0.4248	0.0956	0.286
Mof_C 	C 	0.3261	0.2577	0.0892	0.075
Mof_C 	C 	0.2693	0.2112	0.0444	-0.122
Mof_H 	H 	0.2059	0.2203	0.0413	0.077
Mof_C 	C 	0.3093	0.1501	0.0037	0.059
Mof_C 	C 	0.4055	0.1412	0.0098	-0.107
Mof_H 	H 	0.4349	0.1023	0.9833	0.069
Mof_C 	C 	0.4572	0.1906	0.0556	0.069
Mof_C 	C 	0.2873	0.3196	0.1382	0.066
Mof_C 	C 	0.1931	0.3349	0.1433	-0.122
Mof_H 	H 	0.1505	0.3072	0.1146	0.078
Mof_C 	C 	0.1636	0.3921	0.1922	0.058
Mof_H 	H 	0.1007	0.4025	0.1975	0.023
Mof_C 	C 	0.2284	0.4335	0.2326	-0.136
Mof_H 	H 	0.2101	0.4727	0.265	0.093
Mof_C 	C 	0.3205	0.4157	0.2242	0.081
Mof_H 	H 	0.3638	0.4441	0.2515	0.01
Mof_C 	C 	0.5592	0.1811	0.067	0.063
Mof_C 	C 	0.6092	0.1243	0.0324	-0.098
Mof_H 	H 	0.5813	0.0924	0.9966	0.065
Mof_C 	C 	0.7018	0.1155	0.0518	0.043
Mof_H 	H 	0.7364	0.0769	0.0297	0.026
Mof_C 	C 	0.7425	0.1642	0.1038	-0.128
Mof_H 	H 	0.8042	0.1587	0.1184	0.088
Mof_C 	C 	0.6883	0.2217	0.1336	0.088
Mof_H 	H 	0.7158	0.2557	0.1675	0.015
Mof_C 	C 	0.251	0.0973	0.9581	0.038
Mof_C 	C 	0.156	0.0921	0.9711	-0.128
Mof_H 	H 	0.1292	0.1209	0.0102	0.094
Mof_C 	C 	0.1	0.0445	0.9269	0.039
Mof_H 	H 	0.0368	0.0413	0.9371	0.028
Mof_C 	C 	0.139	0.0018	0.8673	-0.103
Mof_C 	C 	0.2349	0.0045	0.8559	0.035
Mof_H 	H 	0.262	0.9745	0.8179	0.033
Mof_C 	C 	0.2896	0.0514	0.9003	-0.11
Mof_H 	H 	0.3533	0.0525	0.8918	0.084
Mof_C 	C 	0.0784	0.9515	0.8188	0.306
Mof_C 	C 	0.0278	0.7243	0.5392	-0.082
Mof_C 	C 	0.054	0.6497	0.5309	-0.02
Mof_H 	H 	0.069	0.6184	0.5723	0.051
Mof_C 	C 	0.055	0.6271	0.4525	-0.02
Mof_H 	H 	0.0723	0.5793	0.4362	0.048
Mof_C 	C 	0.028	0.6826	0.4028	-0.081
Mof_C 	C 	0.0195	0.7684	0.6118	0.297
Mof_C 	C 	0.0204	0.6806	0.316	0.294
Mof_Mn	Mn	0.49799	0.1636	0.7517	0.825
Mof_Mn	Mn	0.00776	0.67364	0.16425	0.825
Mof_S 	S 	0.5026	0.23563	0.45091	0.043
Mof_O 	O 	0.0417	0.58768	0.0816	-0.344
Mof_O 	O 	0.171	0.60849	0.1489	-0.278
Mof_O 	O 	0.6066	0.07291	0.7537	-0.329
Mof_O 	O 	0.5012	0.0679	0.8456	-0.329
Mof_O 	O 	0.5379	0.2634	0.676	-0.318
Mof_O 	O 	0.4938	0.1646	0.6085	-0.311
Mof_O 	O 	0.5081	0.2592	0.2803	-0.324
Mof_O 	O 	0.5275	0.3822	0.2818	-0.317
Mof_N 	N 	0.4177	0.2397	0.8283	-0.182
Mof_N 	N 	0.3449	0.1424	0.7327	-0.185
Mof_N 	N 	0.6001	0.2238	0.8317	-0.177
Mof_N 	N 	0.9176	0.752	0.0939	-0.182
Mof_N 	N 	0.8515	0.6406	0.1786	-0.177
Mof_N 	N 	0.0995	0.7692	0.1166	-0.178
Mof_C 	C 	0.3245	0.243	0.8242	0.073
Mof_C 	C 	0.2746	0.2967	0.8657	-0.132
Mof_H 	H 	0.2102	0.2974	0.8627	0.077
Mof_C 	C 	0.3202	0.3493	0.9116	0.07
Mof_C 	C 	0.4178	0.344	0.9152	-0.134
Mof_H 	H 	0.4512	0.378	0.9451	0.078
Mof_C 	C 	0.4638	0.2884	0.8743	0.074
Mof_C 	C 	0.2834	0.185	0.7727	0.07
Mof_C 	C 	0.1877	0.1741	0.7651	-0.132
Mof_H 	H 	0.1466	0.2047	0.7921	0.089
Mof_C 	C 	0.1547	0.1182	0.7177	0.068
Mof_H 	H 	0.0913	0.1102	0.7123	0.018
Mof_C 	C 	0.2181	0.0735	0.6778	-0.138
Mof_H 	H 	0.1979	0.0345	0.6461	0.09
Mof_C 	C 	0.3127	0.0884	0.6863	0.089
Mof_H 	H 	0.3549	0.0594	0.6585	0.002
Mof_C 	C 	0.5654	0.2778	0.878	0.074
Mof_C 	C 	0.6224	0.3198	0.9266	-0.137
Mof_H 	H 	0.5972	0.3569	0.9583	0.082
Mof_C 	C 	0.7156	0.3061	0.9275	0.068
Mof_H 	H 	0.7544	0.3341	0.9595	0.012
Mof_C 	C 	0.7521	0.2499	0.88	-0.145
Mof_H 	H 	0.8151	0.239	0.8804	0.092
Mof_C 	C 	0.6923	0.211	0.8325	0.093
Mof_H 	H 	0.7163	0.1743	0.7996	0.006
Mof_C 	C 	0.2707	0.4102	0.9559	-0
Mof_C 	C 	0.1787	0.4273	0.9415	-0.068
Mof_H 	H 	0.1471	0.4025	0.902	0.058
Mof_C 	C 	0.1333	0.481	0.9854	-0.013
Mof_H 	H 	0.0713	0.4912	0.975	0.043
Mof_C 	C 	0.178	0.5202	0.0449	-0.062
Mof_C 	C 	0.2712	0.5048	0.0574	-0.004
Mof_H 	H 	0.3035	0.5312	0.0953	0.048
Mof_C 	C 	0.3168	0.4507	0.0139	-0.058
Mof_H 	H 	0.3791	0.441	0.0235	0.061
Mof_C 	C 	0.1285	0.5752	0.0956	0.288
Mof_C 	C 	0.8261	0.7423	0.0892	0.075
Mof_C 	C 	0.7693	0.7888	0.0444	-0.122
Mof_H 	H 	0.7059	0.7797	0.0413	0.078
Mof_C 	C 	0.8093	0.8499	0.0037	0.059
Mof_C 	C 	0.9055	0.8588	0.0098	-0.103
Mof_H 	H 	0.9349	0.8977	0.9833	0.066
Mof_C 	C 	0.9572	0.8094	0.0556	0.068
Mof_C 	C 	0.7873	0.6804	0.1382	0.066
Mof_C 	C 	0.6931	0.6651	0.1433	-0.122
Mof_H 	H 	0.6505	0.6928	0.1146	0.078
Mof_C 	C 	0.6636	0.6079	0.1922	0.058
Mof_H 	H 	0.6007	0.5975	0.1975	0.024
Mof_C 	C 	0.7284	0.5665	0.2326	-0.136
Mof_H 	H 	0.7101	0.5273	0.265	0.093
Mof_C 	C 	0.8205	0.5843	0.2242	0.081
Mof_H 	H 	0.8638	0.5559	0.2515	0.01
Mof_C 	C 	0.0592	0.8189	0.067	0.065
Mof_C 	C 	0.1092	0.8757	0.0324	-0.105
Mof_H 	H 	0.0813	0.9076	0.9966	0.069
Mof_C 	C 	0.2018	0.8845	0.0518	0.047
Mof_H 	H 	0.2364	0.9231	0.0297	0.024
Mof_C 	C 	0.2425	0.8358	0.1038	-0.131
Mof_H 	H 	0.3042	0.8413	0.1184	0.088
Mof_C 	C 	0.1883	0.7783	0.1336	0.089
Mof_H 	H 	0.2158	0.7443	0.1675	0.015
Mof_C 	C 	0.751	0.9027	0.9581	0.039
Mof_C 	C 	0.656	0.9079	0.9711	-0.133
Mof_H 	H 	0.6292	0.8791	0.0102	0.097
Mof_C 	C 	0.6	0.9555	0.9269	0.041
Mof_H 	H 	0.5368	0.9587	0.9371	0.027
Mof_C 	C 	0.639	0.9982	0.8673	-0.103
Mof_C 	C 	0.7349	0.9955	0.8559	0.035
Mof_H 	H 	0.762	0.0255	0.8179	0.032
Mof_C 	C 	0.7896	0.9486	0.9003	-0.111
Mof_H 	H 	0.8533	0.9475	0.8918	0.084
Mof_C 	C 	0.5784	0.0485	0.8188	0.306
Mof_C 	C 	0.5278	0.2757	0.5392	-0.081
Mof_C 	C 	0.554	0.3503	0.5309	-0.02
Mof_H 	H 	0.569	0.3816	0.5723	0.051
Mof_C 	C 	0.555	0.3729	0.4525	-0.02
Mof_H 	H 	0.5723	0.4207	0.4362	0.048
Mof_C 	C 	0.528	0.3174	0.4028	-0.081
Mof_C 	C 	0.5195	0.2316	0.6118	0.295
Mof_C 	C 	0.5204	0.3194	0.316	0.294
Mof_Mn	Mn	0.00201	0.1636	0.2517	0.823
Mof_Mn	Mn	0.49224	0.67364	0.66425	0.825
Mof_S 	S 	0.9974	0.23563	0.95091	0.029
Mof_O 	O 	0.4583	0.58768	0.5816	-0.349
Mof_O 	O 	0.329	0.60849	0.6489	-0.281
Mof_O 	O 	0.8934	0.07291	0.2537	-0.327
Mof_O 	O 	0.9988	0.0679	0.3456	-0.326
Mof_O 	O 	0.9621	0.2634	0.176	-0.318
Mof_O 	O 	0.0062	0.1646	0.1085	-0.311
Mof_O 	O 	0.9919	0.2592	0.7803	-0.323
Mof_O 	O 	0.9725	0.3822	0.7818	-0.316
Mof_N 	N 	0.0823	0.2397	0.3283	-0.181
Mof_N 	N 	0.1551	0.1424	0.2327	-0.185
Mof_N 	N 	0.8999	0.2238	0.3317	-0.177
Mof_N 	N 	0.5824	0.752	0.5939	-0.184
Mof_N 	N 	0.6485	0.6406	0.6786	-0.177
Mof_N 	N 	0.4005	0.7692	0.6166	-0.181
Mof_C 	C 	0.1755	0.243	0.3242	0.071
Mof_C 	C 	0.2254	0.2967	0.3657	-0.124
Mof_H 	H 	0.2898	0.2974	0.3627	0.074
Mof_C 	C 	0.1798	0.3493	0.4116	0.059
Mof_C 	C 	0.0822	0.344	0.4152	-0.125
Mof_H 	H 	0.0488	0.378	0.4451	0.078
Mof_C 	C 	0.0362	0.2884	0.3743	0.071
Mof_C 	C 	0.2166	0.185	0.2727	0.072
Mof_C 	C 	0.3123	0.1741	0.2651	-0.133
Mof_H 	H 	0.3534	0.2047	0.2921	0.089
Mof_C 	C 	0.3453	0.1182	0.2177	0.068
Mof_H 	H 	0.4087	0.1102	0.2123	0.018
Mof_C 	C 	0.2819	0.0735	0.1778	-0.138
Mof_H 	H 	0.3021	0.0345	0.1461	0.091
Mof_C 	C 	0.1873	0.0884	0.1863	0.089
Mof_H 	H 	0.1451	0.0594	0.1585	0.002
Mof_C 	C 	0.9346	0.2778	0.378	0.079
Mof_C 	C 	0.8776	0.3198	0.4266	-0.137
Mof_H 	H 	0.9028	0.3569	0.4583	0.086
Mof_C 	C 	0.7844	0.3061	0.4275	0.07
Mof_H 	H 	0.7456	0.3341	0.4595	0.015
Mof_C 	C 	0.7479	0.2499	0.38	-0.145
Mof_H 	H 	0.6849	0.239	0.3804	0.093
Mof_C 	C 	0.8077	0.211	0.3325	0.094
Mof_H 	H 	0.7837	0.1743	0.2996	0.006
Mof_C 	C 	0.2293	0.4102	0.4559	0.032
Mof_C 	C 	0.3213	0.4273	0.4415	-0.097
Mof_H 	H 	0.3529	0.4025	0.402	0.068
Mof_C 	C 	0.3667	0.481	0.4854	0.024
Mof_H 	H 	0.4287	0.4912	0.475	0.032
Mof_C 	C 	0.322	0.5202	0.5449	-0.092
Mof_C 	C 	0.2288	0.5048	0.5574	0.024
Mof_H 	H 	0.1965	0.5312	0.5953	0.038
Mof_C 	C 	0.1832	0.4507	0.5139	-0.096
Mof_H 	H 	0.1209	0.441	0.5235	0.071
Mof_C 	C 	0.3715	0.5752	0.5956	0.297
Mof_C 	C 	0.6739	0.7423	0.5892	0.074
Mof_C 	C 	0.7307	0.7888	0.5444	-0.124
Mof_H 	H 	0.7941	0.7797	0.5413	0.076
Mof_C 	C 	0.6907	0.8499	0.5037	0.058
Mof_C 	C 	0.5945	0.8588	0.5098	-0.127
Mof_H 	H 	0.5651	0.8977	0.4833	0.083
Mof_C 	C 	0.5428	0.8094	0.5556	0.069
Mof_C 	C 	0.7127	0.6804	0.6382	0.065
Mof_C 	C 	0.8069	0.6651	0.6433	-0.122
Mof_H 	H 	0.8495	0.6928	0.6146	0.077
Mof_C 	C 	0.8364	0.6079	0.6922	0.057
Mof_H 	H 	0.8993	0.5975	0.6975	0.023
Mof_C 	C 	0.7716	0.5665	0.7326	-0.135
Mof_H 	H 	0.7899	0.5273	0.765	0.092
Mof_C 	C 	0.6795	0.5843	0.7242	0.081
Mof_H 	H 	0.6362	0.5559	0.7515	0.01
Mof_C 	C 	0.4408	0.8189	0.567	0.071
Mof_C 	C 	0.3908	0.8757	0.5324	-0.134
Mof_H 	H 	0.4187	0.9076	0.4966	0.084
Mof_C 	C 	0.2982	0.8845	0.5518	0.064
Mof_H 	H 	0.2636	0.9231	0.5297	0.014
Mof_C 	C 	0.2575	0.8358	0.6038	-0.144
Mof_H 	H 	0.1958	0.8413	0.6184	0.092
Mof_C 	C 	0.3117	0.7783	0.6336	0.095
Mof_H 	H 	0.2842	0.7443	0.6675	0.013
Mof_C 	C 	0.749	0.9027	0.4581	0.037
Mof_C 	C 	0.844	0.9079	0.4711	-0.104
Mof_H 	H 	0.8708	0.8791	0.5102	0.079
Mof_C 	C 	0.9	0.9555	0.4269	0.025
Mof_H 	H 	0.9632	0.9587	0.4371	0.034
Mof_C 	C 	0.861	0.9982	0.3673	-0.097
Mof_C 	C 	0.7651	0.9955	0.3559	0.031
Mof_H 	H 	0.738	0.0255	0.3179	0.034
Mof_C 	C 	0.7104	0.9486	0.4003	-0.105
Mof_H 	H 	0.6467	0.9475	0.3918	0.083
Mof_C 	C 	0.9216	0.0485	0.3188	0.304
Mof_C 	C 	0.9722	0.2757	0.0392	-0.076
Mof_C 	C 	0.946	0.3503	0.0309	0.003
Mof_H 	H 	0.931	0.3816	0.0723	0.045
Mof_C 	C 	0.945	0.3729	0.9525	-0.046
Mof_H 	H 	0.9277	0.4207	0.9362	0.054
Mof_C 	C 	0.972	0.3174	0.9028	-0.071
Mof_C 	C 	0.9805	0.2316	0.1118	0.299
Mof_C 	C 	0.9796	0.3194	0.816	0.291
Mof_Mn	Mn	0.50201	0.8364	0.2517	0.826
Mof_Mn	Mn	0.99224	0.32636	0.66425	0.825
Mof_S 	S 	0.4974	0.76437	0.95091	0.029
Mof_O 	O 	0.9583	0.41232	0.5816	-0.349
Mof_O 	O 	0.829	0.39151	0.6489	-0.281
Mof_O 	O 	0.3934	0.92709	0.2537	-0.328
Mof_O 	O 	0.4988	0.9321	0.3456	-0.328
Mof_O 	O 	0.4621	0.7366	0.176	-0.318
Mof_O 	O 	0.5062	0.8354	0.1085	-0.308
Mof_O 	O 	0.4919	0.7408	0.7803	-0.323
Mof_O 	O 	0.4725	0.6178	0.7818	-0.316
Mof_N 	N 	0.5823	0.7603	0.3283	-0.181
Mof_N 	N 	0.6551	0.8576	0.2327	-0.185
Mof_N 	N 	0.3999	0.7762	0.3317	-0.177
Mof_N 	N 	0.0824	0.248	0.5939	-0.184
Mof_N 	N 	0.1485	0.3594	0.6786	-0.177
Mof_N 	N 	0.9005	0.2308	0.6166	-0.181
Mof_C 	C 	0.6755	0.757	0.3242	0.071
Mof_C 	C 	0.7254	0.7033	0.3657	-0.124
Mof_H 	H 	0.7898	0.7026	0.3627	0.074
Mof_C 	C 	0.6798	0.6507	0.4116	0.06
Mof_C 	C 	0.5822	0.656	0.4152	-0.126
Mof_H 	H 	0.5488	0.622	0.4451	0.078
Mof_C 	C 	0.5362	0.7116	0.3743	0.072
Mof_C 	C 	0.7166	0.815	0.2727	0.071
Mof_C 	C 	0.8123	0.8259	0.2651	-0.133
Mof_H 	H 	0.8534	0.7953	0.2921	0.089
Mof_C 	C 	0.8453	0.8818	0.2177	0.068
Mof_H 	H 	0.9087	0.8898	0.2123	0.019
Mof_C 	C 	0.7819	0.9265	0.1778	-0.138
Mof_H 	H 	0.8021	0.9655	0.1461	0.092
Mof_C 	C 	0.6873	0.9116	0.1863	0.089
Mof_H 	H 	0.6451	0.9406	0.1585	0.002
Mof_C 	C 	0.4346	0.7222	0.378	0.077
Mof_C 	C 	0.3776	0.6802	0.4266	-0.136
Mof_H 	H 	0.4028	0.6431	0.4583	0.085
Mof_C 	C 	0.2844	0.6939	0.4275	0.07
Mof_H 	H 	0.2456	0.6659	0.4595	0.015
Mof_C 	C 	0.2479	0.7501	0.38	-0.144
Mof_H 	H 	0.1849	0.761	0.3804	0.092
Mof_C 	C 	0.3077	0.789	0.3325	0.093
Mof_H 	H 	0.2837	0.8257	0.2996	0.006
Mof_C 	C 	0.7293	0.5898	0.4559	0.032
Mof_C 	C 	0.8213	0.5727	0.4415	-0.097
Mof_H 	H 	0.8529	0.5975	0.402	0.068
Mof_C 	C 	0.8667	0.519	0.4854	0.024
Mof_H 	H 	0.9287	0.5088	0.475	0.033
Mof_C 	C 	0.822	0.4798	0.5449	-0.092
Mof_C 	C 	0.7288	0.4952	0.5574	0.024
Mof_H 	H 	0.6965	0.4688	0.5953	0.038
Mof_C 	C 	0.6832	0.5493	0.5139	-0.096
Mof_H 	H 	0.6209	0.559	0.5235	0.07
Mof_C 	C 	0.8715	0.4248	0.5956	0.297
Mof_C 	C 	0.1739	0.2577	0.5892	0.074
Mof_C 	C 	0.2307	0.2112	0.5444	-0.124
Mof_H 	H 	0.2941	0.2203	0.5413	0.076
Mof_C 	C 	0.1907	0.1501	0.5037	0.058
Mof_C 	C 	0.0945	0.1412	0.5098	-0.127
Mof_H 	H 	0.0651	0.1023	0.4833	0.082
Mof_C 	C 	0.0428	0.1906	0.5556	0.068
Mof_C 	C 	0.2127	0.3196	0.6382	0.065
Mof_C 	C 	0.3069	0.3349	0.6433	-0.122
Mof_H 	H 	0.3495	0.3072	0.6146	0.077
Mof_C 	C 	0.3364	0.3921	0.6922	0.057
Mof_H 	H 	0.3993	0.4025	0.6975	0.024
Mof_C 	C 	0.2716	0.4335	0.7326	-0.135
Mof_H 	H 	0.2899	0.4727	0.765	0.092
Mof_C 	C 	0.1795	0.4157	0.7242	0.081
Mof_H 	H 	0.1362	0.4441	0.7515	0.01
Mof_C 	C 	0.9408	0.1811	0.567	0.072
Mof_C 	C 	0.8908	0.1243	0.5324	-0.135
Mof_H 	H 	0.9187	0.0924	0.4966	0.085
Mof_C 	C 	0.7982	0.1155	0.5518	0.065
Mof_H 	H 	0.7636	0.0769	0.5297	0.014
Mof_C 	C 	0.7575	0.1642	0.6038	-0.144
Mof_H 	H 	0.6958	0.1587	0.6184	0.092
Mof_C 	C 	0.8117	0.2217	0.6336	0.095
Mof_H 	H 	0.7842	0.2557	0.6675	0.013
Mof_C 	C 	0.249	0.0973	0.4581	0.036
Mof_C 	C 	0.344	0.0921	0.4711	-0.103
Mof_H 	H 	0.3708	0.1209	0.5102	0.079
Mof_C 	C 	0.4	0.0445	0.4269	0.025
Mof_H 	H 	0.4632	0.0413	0.4371	0.035
Mof_C 	C 	0.361	0.0018	0.3673	-0.095
Mof_C 	C 	0.2651	0.0045	0.3559	0.029
Mof_H 	H 	0.238	0.9745	0.3179	0.035
Mof_C 	C 	0.2104	0.0514	0.4003	-0.104
Mof_H 	H 	0.1467	0.0525	0.3918	0.083
Mof_C 	C 	0.4216	0.9515	0.3188	0.303
Mof_C 	C 	0.4722	0.7243	0.0392	-0.076
Mof_C 	C 	0.446	0.6497	0.0309	-0.001
Mof_H 	H 	0.431	0.6184	0.0723	0.045
Mof_C 	C 	0.445	0.6271	0.9525	-0.042
Mof_H 	H 	0.4277	0.5793	0.9362	0.053
Mof_C 	C 	0.472	0.6826	0.9028	-0.072
Mof_C 	C 	0.4805	0.7684	0.1118	0.295
Mof_C 	C 	0.4796	0.6806	0.816	0.291
_end
