data_functionalizedCrystal
_audit_creation_method	'EQeq! by Chris Wilmer'
_symmetry_space_group_name_H-M	'P1'
_symmetry_Int_Tables_number	1
_symmetry_cell_setting	triclinic
loop_
_symmetry_equiv_pos_as_xyz
  x,y,z
_cell_length_a	7.6233
_cell_length_b	13.0266
_cell_length_c	29.191
_cell_angle_alpha	90
_cell_angle_beta	90
_cell_angle_gamma	102.998
loop_
_atom_site_label
_atom_site_type_symbol
_atom_site_fract_x
_atom_site_fract_y
_atom_site_fract_z
_atom_site_charge
Mof_Cd	Cd	0.8867	0.18018	0.00987	0.447
Mof_Cd	Cd	0.55252	0.18943	0.10504	0.492
Mof_Cd	Cd	0.6133	0.31982	0.50987	0.452
Mof_Cd	Cd	0.94748	0.31057	0.60504	0.497
Mof_Cd	Cd	0.1133	0.81982	0.99013	0.458
Mof_Cd	Cd	0.44748	0.81057	0.89496	0.493
Mof_Cd	Cd	0.3867	0.68018	0.49013	0.452
Mof_Cd	Cd	0.05252	0.68943	0.39496	0.481
Mof_Cd	Cd	0.5	0	-0	0.51
Mof_Cd	Cd	9.74309e-18	0.5	0.5	0.522
Mof_H 	H 	0.9141	0.4928	0.1493	0.069
Mof_H 	H 	0.523	0.5467	0.1197	0.049
Mof_H 	H 	0.4203	0.6559	0.1703	0.058
Mof_H 	H 	0.2397	0.8429	0.1436	0.06
Mof_H 	H 	0.6273	0.7982	0.1202	0.049
Mof_H 	H 	0.7326	0.6904	0.1711	0.062
Mof_H 	H 	0.4248	0.0033	0.1782	0.025
Mof_H 	H 	0.5151	0.9016	0.2332	0.085
Mof_H 	H 	0.0228	0.0453	0.2059	0.067
Mof_H 	H 	0.9194	0.1419	0.1509	0.034
Mof_H 	H 	0.6066	0.7995	0.2784	0.095
Mof_H 	H 	0.7112	0.7054	0.3331	0.017
Mof_H 	H 	0.2045	0.8557	0.3112	0.024
Mof_H 	H 	0.1117	0.9604	0.2576	0.102
Mof_H 	H 	0.57	0.194	0.0189	0.485
Mof_H 	H 	0.5859	0.0072	0.6493	0.032
Mof_H 	H 	0.977	0.9533	0.6197	0.063
Mof_H 	H 	0.0797	0.8441	0.6703	0.048
Mof_H 	H 	0.2603	0.6571	0.6436	0.05
Mof_H 	H 	0.8727	0.7018	0.6202	0.055
Mof_H 	H 	0.7674	0.8096	0.6711	0.057
Mof_H 	H 	0.0752	0.4967	0.6782	0.016
Mof_H 	H 	0.9849	0.5984	0.7332	0.096
Mof_H 	H 	0.4772	0.4547	0.7059	0.086
Mof_H 	H 	0.5806	0.3581	0.6509	0.025
Mof_H 	H 	0.8934	0.7005	0.7784	0.091
Mof_H 	H 	0.7888	0.7946	0.8331	0.02
Mof_H 	H 	0.2955	0.6443	0.8112	0.023
Mof_H 	H 	0.3883	0.5396	0.7576	0.092
Mof_H 	H 	0.93	0.306	0.5189	0.488
Mof_H 	H 	0.0859	0.5072	0.8507	0.051
Mof_H 	H 	0.477	0.4533	0.8803	0.054
Mof_H 	H 	0.5797	0.3441	0.8297	0.053
Mof_H 	H 	0.7603	0.1571	0.8564	0.05
Mof_H 	H 	0.3727	0.2018	0.8798	0.053
Mof_H 	H 	0.2674	0.3096	0.8289	0.056
Mof_H 	H 	0.5752	0.9967	0.8218	0.018
Mof_H 	H 	0.4849	0.0984	0.7668	0.098
Mof_H 	H 	0.9772	0.9547	0.7941	0.088
Mof_H 	H 	0.0806	0.8581	0.8491	0.026
Mof_H 	H 	0.3934	0.2005	0.7216	0.09
Mof_H 	H 	0.2888	0.2946	0.6669	0.019
Mof_H 	H 	0.7955	0.1443	0.6888	0.023
Mof_H 	H 	0.8883	0.0396	0.7424	0.088
Mof_H 	H 	0.43	0.806	0.9811	0.487
Mof_H 	H 	0.4141	0.9928	0.3507	0.075
Mof_H 	H 	0.023	0.0467	0.3803	0.032
Mof_H 	H 	0.9203	0.1559	0.3297	0.066
Mof_H 	H 	0.7397	0.3429	0.3564	0.054
Mof_H 	H 	0.1273	0.2982	0.3798	0.048
Mof_H 	H 	0.2326	0.1904	0.3289	0.054
Mof_H 	H 	0.9248	0.5033	0.3218	0.04
Mof_H 	H 	0.0151	0.4016	0.2668	0.083
Mof_H 	H 	0.5228	0.5453	0.2941	0.083
Mof_H 	H 	0.4194	0.6419	0.3491	0.027
Mof_H 	H 	0.1066	0.2995	0.2216	0.088
Mof_H 	H 	0.2112	0.2054	0.1669	0.017
Mof_H 	H 	0.7045	0.3557	0.1888	0.025
Mof_H 	H 	0.6117	0.4604	0.2424	0.093
Mof_H 	H 	0.07	0.694	0.4811	0.485
Mof_C 	C 	0.1572	0.5847	0.16416	-0.017
Mof_C 	C 	0.0366	0.5028	0.14339	-0.044
Mof_C 	C 	0.0981	0.4353	0.11367	-0.046
Mof_C 	C 	0.2832	0.4527	0.10461	-0.033
Mof_C 	C 	0.4004	0.5353	0.12582	-0.02
Mof_C 	C 	0.3398	0.6013	0.15586	-0.046
Mof_C 	C 	0.9618	0.3476	0.09115	0.337
Mof_C 	C 	0.3633	0.3849	0.07156	0.314
Mof_C 	C 	0.9962	0.7572	0.16215	0.003
Mof_C 	C 	0.1167	0.8347	0.1388	-0.048
Mof_C 	C 	0.0549	0.9006	0.10819	-0.051
Mof_C 	C 	0.869	0.8879	0.10155	-0.044
Mof_C 	C 	0.7506	0.808	0.12506	-0.012
Mof_C 	C 	0.8129	0.743	0.15543	-0.056
Mof_C 	C 	0.1965	0.9812	0.08351	0.325
Mof_C 	C 	0.7922	0.9603	0.07103	0.323
Mof_C 	C 	0.5475	0.0115	0.18347	0.072
Mof_C 	C 	0.6009	0.9499	0.21687	-0.104
Mof_C 	C 	0.7818	0.9598	0.22609	0.052
Mof_C 	C 	0.8996	0.0343	0.20066	-0.103
Mof_C 	C 	0.8363	0.0928	0.16757	0.072
Mof_C 	C 	0.8458	0.8931	0.26099	0.095
Mof_C 	C 	0.7292	0.8139	0.28474	-0.149
Mof_C 	C 	0.7936	0.757	0.31747	0.106
Mof_C 	C 	0.0821	0.8454	0.30507	0.09
Mof_C 	C 	0.0271	0.9081	0.27219	-0.155
Mof_C 	C 	0.3428	0.9153	0.66416	-0.05
Mof_C 	C 	0.4634	0.9972	0.64339	0.029
Mof_C 	C 	0.4019	0.0647	0.61367	-0.073
Mof_C 	C 	0.2168	0.0473	0.60461	-0.025
Mof_C 	C 	0.0996	0.9647	0.62582	-0.038
Mof_C 	C 	0.1602	0.8987	0.65586	-0.018
Mof_C 	C 	0.5382	0.1524	0.59115	0.34
Mof_C 	C 	0.1367	0.1151	0.57156	0.311
Mof_C 	C 	0.5038	0.7428	0.66215	-0.031
Mof_C 	C 	0.3833	0.6653	0.6388	-0.022
Mof_C 	C 	0.4451	0.5994	0.60819	-0.051
Mof_C 	C 	0.631	0.6121	0.60155	-0.044
Mof_C 	C 	0.7494	0.692	0.62506	-0.023
Mof_C 	C 	0.6871	0.757	0.65543	-0.037
Mof_C 	C 	0.3035	0.5188	0.58351	0.315
Mof_C 	C 	0.7078	0.5397	0.57103	0.31
Mof_C 	C 	0.9525	0.4885	0.68347	0.103
Mof_C 	C 	0.8991	0.5501	0.71687	-0.136
Mof_C 	C 	0.7182	0.5402	0.72609	0.068
Mof_C 	C 	0.6004	0.4657	0.70066	-0.129
Mof_C 	C 	0.6637	0.4072	0.66757	0.089
Mof_C 	C 	0.6542	0.6069	0.76099	0.066
Mof_C 	C 	0.7708	0.6861	0.78474	-0.135
Mof_C 	C 	0.7064	0.743	0.81747	0.096
Mof_C 	C 	0.4179	0.6546	0.80507	0.093
Mof_C 	C 	0.4729	0.5919	0.77219	-0.13
Mof_C 	C 	0.8428	0.4153	0.83584	-0.035
Mof_C 	C 	0.9634	0.4972	0.85661	-0.011
Mof_C 	C 	0.9019	0.5647	0.88633	-0.048
Mof_C 	C 	0.7168	0.5473	0.89539	-0.026
Mof_C 	C 	0.5996	0.4647	0.87418	-0.029
Mof_C 	C 	0.6602	0.3987	0.84414	-0.031
Mof_C 	C 	0.0382	0.6524	0.90885	0.331
Mof_C 	C 	0.6367	0.6151	0.92844	0.312
Mof_C 	C 	0.0038	0.2428	0.83785	-0.033
Mof_C 	C 	0.8833	0.1653	0.8612	-0.023
Mof_C 	C 	0.9451	0.0994	0.89181	-0.047
Mof_C 	C 	0.131	0.1121	0.89845	-0.045
Mof_C 	C 	0.2494	0.192	0.87494	-0.024
Mof_C 	C 	0.1871	0.257	0.84457	-0.037
Mof_C 	C 	0.8035	0.0188	0.91649	0.3
Mof_C 	C 	0.2078	0.0397	0.92897	0.299
Mof_C 	C 	0.4525	0.9885	0.81653	0.112
Mof_C 	C 	0.3991	0.0501	0.78313	-0.148
Mof_C 	C 	0.2182	0.0402	0.77391	0.061
Mof_C 	C 	0.1004	0.9657	0.79934	-0.12
Mof_C 	C 	0.1637	0.9072	0.83243	0.088
Mof_C 	C 	0.1542	0.1069	0.73901	0.064
Mof_C 	C 	0.2708	0.1861	0.71526	-0.135
Mof_C 	C 	0.2064	0.243	0.68253	0.095
Mof_C 	C 	0.9179	0.1546	0.69493	0.094
Mof_C 	C 	0.9729	0.0919	0.72781	-0.13
Mof_C 	C 	0.6572	0.0847	0.33584	-0.011
Mof_C 	C 	0.5366	0.0028	0.35661	-0.062
Mof_C 	C 	0.5981	0.9353	0.38633	-0.022
Mof_C 	C 	0.7832	0.9527	0.39539	-0.037
Mof_C 	C 	0.9004	0.0353	0.37418	0.001
Mof_C 	C 	0.8398	0.1013	0.34414	-0.06
Mof_C 	C 	0.4618	0.8476	0.40885	0.324
Mof_C 	C 	0.8633	0.8849	0.42844	0.317
Mof_C 	C 	0.4962	0.2572	0.33785	-0.026
Mof_C 	C 	0.6167	0.3347	0.3612	-0.027
Mof_C 	C 	0.5549	0.4006	0.39181	-0.047
Mof_C 	C 	0.369	0.3879	0.39845	-0.048
Mof_C 	C 	0.2506	0.308	0.37494	-0.02
Mof_C 	C 	0.3129	0.243	0.34457	-0.043
Mof_C 	C 	0.6965	0.4812	0.41649	0.313
Mof_C 	C 	0.2922	0.4603	0.42897	0.312
Mof_C 	C 	0.0475	0.5115	0.31653	0.062
Mof_C 	C 	0.1009	0.4499	0.28313	-0.114
Mof_C 	C 	0.2818	0.4598	0.27391	0.056
Mof_C 	C 	0.3996	0.5343	0.29934	-0.12
Mof_C 	C 	0.3363	0.5928	0.33243	0.083
Mof_C 	C 	0.3458	0.3931	0.23901	0.071
Mof_C 	C 	0.2292	0.3139	0.21526	-0.139
Mof_C 	C 	0.2936	0.257	0.18253	0.098
Mof_C 	C 	0.5821	0.3454	0.19493	0.094
Mof_C 	C 	0.5271	0.4081	0.22781	-0.133
Mof_S 	S 	0.07698	0.67277	0.20047	0.259
Mof_S 	S 	0.42302	0.82723	0.70047	0.302
Mof_S 	S 	0.92302	0.32723	0.79953	0.299
Mof_S 	S 	0.57698	0.17277	0.29953	0.285
Mof_N 	N 	0.6611	0.0821	0.15829	-0.138
Mof_N 	N 	0.9677	0.7709	0.32833	-0.137
Mof_N 	N 	0.8389	0.4179	0.65829	-0.145
Mof_N 	N 	0.5323	0.7291	0.82833	-0.143
Mof_N 	N 	0.3389	0.9179	0.84171	-0.145
Mof_N 	N 	0.0323	0.2291	0.67167	-0.145
Mof_N 	N 	0.1611	0.5821	0.34171	-0.138
Mof_N 	N 	0.4677	0.2709	0.17167	-0.144
Mof_O 	O 	0.8279	0.3069	0.11368	-0.293
Mof_O 	O 	0.9968	0.3271	0.05079	-0.278
Mof_O 	O 	0.3443	0.2909	0.07919	-0.271
Mof_O 	O 	0.4405	0.4327	0.0381	-0.227
Mof_O 	O 	0.2234	0.96342	0.04106	-0.288
Mof_O 	O 	0.2856	0.0547	0.10641	-0.278
Mof_O 	O 	0.8974	0.0444	0.05962	-0.273
Mof_O 	O 	0.6299	0.931	0.05986	-0.28
Mof_O 	O 	0.2299	0.7336	0.22464	-0.22
Mof_O 	O 	0.9241	0.6147	0.22555	-0.21
Mof_O 	O 	0.5997	0.1586	0.03164	-0.715
Mof_O 	O 	0.6721	0.1931	0.61368	-0.296
Mof_O 	O 	0.5032	0.1729	0.55079	-0.282
Mof_O 	O 	0.1557	0.2091	0.57919	-0.27
Mof_O 	O 	0.0595	0.0673	0.5381	-0.23
Mof_O 	O 	0.2766	0.53658	0.54106	-0.287
Mof_O 	O 	0.2144	0.4453	0.60641	-0.27
Mof_O 	O 	0.6026	0.4556	0.55962	-0.263
Mof_O 	O 	0.8701	0.569	0.55986	-0.276
Mof_O 	O 	0.2701	0.7664	0.72464	-0.228
Mof_O 	O 	0.5759	0.8853	0.72555	-0.223
Mof_O 	O 	0.9003	0.3414	0.53164	-0.713
Mof_O 	O 	0.1721	0.6931	0.88632	-0.293
Mof_O 	O 	0.0032	0.6729	0.94921	-0.278
Mof_O 	O 	0.6557	0.7091	0.92081	-0.266
Mof_O 	O 	0.5595	0.5673	0.9619	-0.218
Mof_O 	O 	0.7766	0.03658	0.95894	-0.279
Mof_O 	O 	0.7144	0.9453	0.89359	-0.256
Mof_O 	O 	0.1026	0.9556	0.94038	-0.252
Mof_O 	O 	0.3701	0.069	0.94014	-0.276
Mof_O 	O 	0.7701	0.2664	0.77536	-0.228
Mof_O 	O 	0.0759	0.3853	0.77445	-0.227
Mof_O 	O 	0.4003	0.8414	0.96836	-0.708
Mof_O 	O 	0.3279	0.8069	0.38632	-0.291
Mof_O 	O 	0.4968	0.8271	0.44921	-0.275
Mof_O 	O 	0.8443	0.7909	0.42081	-0.265
Mof_O 	O 	0.9405	0.9327	0.4619	-0.215
Mof_O 	O 	0.7234	0.46342	0.45894	-0.283
Mof_O 	O 	0.7856	0.5547	0.39359	-0.263
Mof_O 	O 	0.3974	0.5444	0.44038	-0.264
Mof_O 	O 	0.1299	0.431	0.44014	-0.284
Mof_O 	O 	0.7299	0.2336	0.27536	-0.222
Mof_O 	O 	0.4241	0.1147	0.27445	-0.227
Mof_O 	O 	0.0997	0.6586	0.46836	-0.715
_end
