data_functionalizedCrystal
_audit_creation_method	'EQeq! by Chris Wilmer'
_symmetry_space_group_name_H-M	'P1'
_symmetry_Int_Tables_number	1
_symmetry_cell_setting	triclinic
loop_
_symmetry_equiv_pos_as_xyz
  x,y,z
_cell_length_a	14.4693
_cell_length_b	28.8888
_cell_length_c	33.3629
_cell_angle_alpha	90
_cell_angle_beta	102.524
_cell_angle_gamma	90
loop_
_atom_site_label
_atom_site_type_symbol
_atom_site_fract_x
_atom_site_fract_y
_atom_site_fract_z
_atom_site_charge
Mof_Cu	Cu	0.39529	0.86702	0.79058	0.895
Mof_Cu	Cu	0.13	0.82993	0.26	0.911
Mof_Cu	Cu	0.87	0.32993	0.74	0.911
Mof_Cu	Cu	0.07334	0.21316	0.14668	0.893
Mof_Cu	Cu	0.60471	0.36702	0.20942	0.895
Mof_Cu	Cu	0.92666	0.71316	0.85332	0.893
Mof_Cu	Cu	0.84214	0.11867	0.68428	0.899
Mof_Cu	Cu	0.43433	0.49024	0.86866	0.905
Mof_Cu	Cu	0.72443	0.7893	0.44886	0.908
Mof_Cu	Cu	0.27557	0.2893	0.55114	0.908
Mof_Cu	Cu	0.17697	0.53758	0.35394	0.903
Mof_Cu	Cu	0.12111	0.9211	0.24222	0.899
Mof_Cu	Cu	0.52687	0.96172	0.05374	0.905
Mof_Cu	Cu	0.09289	0.1327	0.18578	0.898
Mof_Cu	Cu	0.15786	0.61867	0.31572	0.899
Mof_Cu	Cu	0.31452	0.26012	0.62904	0.913
Mof_Cu	Cu	0.47313	0.46172	0.94626	0.912
Mof_Cu	Cu	0.68548	0.76012	0.37096	0.913
Mof_Cu	Cu	0.64403	0.3852	0.28806	0.898
Mof_Cu	Cu	0.82303	0.03758	0.64606	0.904
Mof_Cu	Cu	0.90711	0.6327	0.81422	0.897
Mof_Cu	Cu	0.35597	0.8852	0.71194	0.897
Mof_Cu	Cu	0.56567	0.99024	0.13134	0.898
Mof_Cu	Cu	0.87889	0.4211	0.75778	0.9
Mof_H 	H 	0.0289	0.4705	0.5312	0.057
Mof_H 	H 	0.0075	0.675	0.7086	0.05
Mof_H 	H 	0.6704	0.1238	0.8368	0.06
Mof_H 	H 	0.5502	0.7513	0.609	0.05
Mof_H 	H 	0.8944	0.4848	0.291	0.064
Mof_H 	H 	0.9187	0.8339	0.3388	0.047
Mof_H 	H 	0.9893	0.4651	0.653	0.05
Mof_H 	H 	0.3338	0.9139	0.1666	0.061
Mof_H 	H 	0.4892	0.7664	0.6726	0.052
Mof_H 	H 	0.9925	0.175	0.2914	0.051
Mof_H 	H 	0.4079	0.1262	0.3358	0.065
Mof_H 	H 	0.9088	0.0879	0.5346	0.075
Mof_H 	H 	0.3346	0.0613	0.0048	0.079
Mof_H 	H 	0.2768	0.5009	0.1066	0.047
Mof_H 	H 	0.2989	0.175	0.2914	0.051
Mof_H 	H 	0.1329	0.418	0.5726	0.053
Mof_H 	H 	0.3806	0.8327	0.0748	0.065
Mof_H 	H 	0.8506	0.6529	0.9694	0.078
Mof_H 	H 	0.5799	0.3339	0.6612	0.049
Mof_H 	H 	0.7391	0.0764	0.7888	0.08
Mof_H 	H 	0.6942	0.8327	0.0748	0.065
Mof_H 	H 	0.3169	0.7151	0.1368	0.062
Mof_H 	H 	0.3517	0.2793	0.2192	0.046
Mof_H 	H 	0.9503	0.5764	0.2112	0.067
Mof_H 	H 	0.8675	0.2793	0.2192	0.046
Mof_H 	H 	0.8328	0.9139	0.1666	0.061
Mof_H 	H 	0.4397	0.418	0.5726	0.053
Mof_H 	H 	0.6702	0.0613	0.0048	0.079
Mof_H 	H 	0.3298	0.5613	0.9952	0.078
Mof_H 	H 	0.1056	0.9848	0.709	0.08
Mof_H 	H 	0.1188	0.6529	0.9694	0.078
Mof_H 	H 	0.4079	0.1704	0.5064	0.079
Mof_H 	H 	0.9252	0.0322	0.3608	0.073
Mof_H 	H 	0.4977	0.9705	0.4688	0.077
Mof_H 	H 	0.5108	0.2664	0.3274	0.053
Mof_H 	H 	0.3966	0.4848	0.291	0.064
Mof_H 	H 	0.4201	0.8339	0.3388	0.047
Mof_H 	H 	0.3296	0.6238	0.1632	0.064
Mof_H 	H 	0.4166	0.4808	0.1686	0.073
Mof_H 	H 	0.7446	0.7174	0.989	0.077
Mof_H 	H 	0.7755	0.5301	0.0426	0.066
Mof_H 	H 	0.3183	0.0838	0.1216	0.061
Mof_H 	H 	0.9335	0.6699	0.3784	0.063
Mof_H 	H 	0.6637	0.4651	0.653	0.051
Mof_H 	H 	0.4859	0.5329	0.4948	0.056
Mof_H 	H 	0.5603	0.918	0.4274	0.048
Mof_H 	H 	0.9207	0.7867	0.1514	0.064
Mof_H 	H 	0.6258	0.0879	0.5346	0.075
Mof_H 	H 	0.0089	0.5329	0.4948	0.056
Mof_H 	H 	0.8336	0.6238	0.1632	0.063
Mof_H 	H 	0.9015	0.6704	0.4936	0.079
Mof_H 	H 	0.9711	0.9705	0.4688	0.077
Mof_H 	H 	0.2307	0.7867	0.1514	0.064
Mof_H 	H 	0.4976	0.7191	0.5494	0.066
Mof_H 	H 	0.6483	0.7793	0.7808	0.045
Mof_H 	H 	0.2609	0.5764	0.2112	0.068
Mof_H 	H 	0.8671	0.918	0.4274	0.048
Mof_H 	H 	0.9279	0.1262	0.3358	0.065
Mof_H 	H 	0.8812	0.1529	0.0306	0.079
Mof_H 	H 	0.6817	0.5838	0.8784	0.059
Mof_H 	H 	0.0518	0.7191	0.5494	0.066
Mof_H 	H 	0.1801	0.2151	0.8632	0.063
Mof_H 	H 	0.2671	0.5301	0.0426	0.066
Mof_H 	H 	0.0912	0.5879	0.4654	0.074
Mof_H 	H 	0.9482	0.2191	0.4506	0.067
Mof_H 	H 	0.0107	0.9651	0.347	0.045
Mof_H 	H 	0.7364	0.2849	0.9722	0.045
Mof_H 	H 	0.0748	0.5322	0.6392	0.067
Mof_H 	H 	0.1325	0.7793	0.7808	0.045
Mof_H 	H 	0.7556	0.2174	0.011	0.077
Mof_H 	H 	0.752	0.4808	0.1686	0.073
Mof_H 	H 	0.5834	0.9808	0.8314	0.087
Mof_H 	H 	0.6194	0.3327	0.9252	0.066
Mof_H 	H 	0.3742	0.5879	0.4654	0.073
Mof_H 	H 	0.2554	0.2174	0.011	0.077
Mof_H 	H 	0.7329	0.0301	0.9574	0.07
Mof_H 	H 	0.0497	0.0764	0.7888	0.079
Mof_H 	H 	0.1494	0.1529	0.0306	0.079
Mof_H 	H 	0.6831	0.2151	0.8632	0.063
Mof_H 	H 	0.0813	0.3339	0.6612	0.049
Mof_H 	H 	0.2444	0.7174	0.989	0.077
Mof_H 	H 	0.1834	0.7664	0.6726	0.052
Mof_H 	H 	0.6034	0.9848	0.709	0.081
Mof_H 	H 	0.4449	0.6699	0.3784	0.063
Mof_H 	H 	0.9911	0.0329	0.5052	0.039
Mof_H 	H 	0.8199	0.7151	0.1368	0.062
Mof_H 	H 	0.5644	0.5322	0.6392	0.067
Mof_H 	H 	0.6662	0.4139	0.8334	0.063
Mof_H 	H 	0.8298	0.5009	0.1066	0.047
Mof_H 	H 	0.7232	0.0009	0.8934	0.047
Mof_H 	H 	0.2636	0.7849	0.0278	0.044
Mof_H 	H 	0.8166	0.2664	0.3274	0.053
Mof_H 	H 	0.4498	0.2513	0.391	0.05
Mof_H 	H 	0.0985	0.1704	0.5064	0.08
Mof_H 	H 	0.4356	0.0322	0.3608	0.073
Mof_H 	H 	0.8033	0.0838	0.1216	0.061
Mof_H 	H 	0.2245	0.0301	0.9574	0.07
Mof_H 	H 	0.0588	0.7513	0.609	0.05
Mof_H 	H 	0.7642	0.7849	0.0278	0.044
Mof_H 	H 	0.5551	0.1699	0.6216	0.063
Mof_H 	H 	0.0793	0.2867	0.8486	0.064
Mof_H 	H 	0.6654	0.5613	0.9952	0.078
Mof_H 	H 	0.1967	0.5838	0.8784	0.059
Mof_H 	H 	0.5024	0.2191	0.4506	0.067
Mof_H 	H 	0.7693	0.2867	0.8486	0.064
Mof_H 	H 	0.1664	0.1238	0.8368	0.06
Mof_H 	H 	0.5921	0.6704	0.4936	0.079
Mof_H 	H 	0.9412	0.2513	0.391	0.05
Mof_H 	H 	0.7011	0.675	0.7086	0.05
Mof_H 	H 	0.5023	0.4705	0.5312	0.057
Mof_H 	H 	0.5921	0.6262	0.6642	0.065
Mof_H 	H 	0.1702	0.0009	0.8934	0.047
Mof_H 	H 	0.1672	0.4139	0.8334	0.063
Mof_H 	H 	0.248	0.9808	0.8314	0.086
Mof_H 	H 	0.0665	0.1699	0.6216	0.063
Mof_H 	H 	0.0721	0.6262	0.6642	0.065
Mof_H 	H 	0.3058	0.3327	0.9252	0.066
Mof_H 	H 	0.3363	0.9651	0.347	0.044
Mof_H 	H 	0.2358	0.2849	0.9722	0.045
Mof_H 	H 	0.5141	0.0329	0.5052	0.039
Mof_C 	C 	0.93747	0.2193	0.39314	-0.044
Mof_C 	C 	0.91287	0.6797	0.43794	-0.038
Mof_C 	C 	0.822	0.6052	0.1398	-0.079
Mof_C 	C 	0.7075	0.2571	0.91	0.011
Mof_C 	C 	0.9041	0.2106	0.3202	-0.015
Mof_C 	C 	0.83265	0.7107	0.4249	0.314
Mof_C 	C 	0.8076	0.8047	0.1094	0.023
Mof_C 	C 	0.1217	0.3108	0.8572	-0.051
Mof_C 	C 	0.5105	0.914	0.4048	-0.018
Mof_C 	C 	0.3673	0.8797	0.1184	-0.051
Mof_C 	C 	0.08713	0.1797	0.56206	-0.037
Mof_C 	C 	0.76829	0.6993	0.78558	0.39
Mof_C 	C 	0.28878	0.5787	0.97556	-0.08
Mof_C 	C 	0.4423	0.2743	0.2682	-0.089
Mof_C 	C 	0.0659	0.6415	0.8836	0.337
Mof_C 	C 	0.19358	0.216	0.89176	-0.076
Mof_C 	C 	0.9154	0.5507	0.2158	-0.059
Mof_C 	C 	0.9529	0.6606	0.4058	-0.018
Mof_C 	C 	0.2009	0.1336	0.0398	-0.09
Mof_C 	C 	0.3266	0.8862	0.1522	-0.009
Mof_C 	C 	0.46498	0.1639	0.52456	-0.087
Mof_C 	C 	0.73031	0.3888	0.69462	0.391
Mof_C 	C 	0.2356	0.617	0.986	0.098
Mof_C 	C 	0.26572	0.5468	0.28724	0.351
Mof_C 	C 	0.72339	0.0968	0.93618	0.067
Mof_C 	C 	0.6327	0.3797	0.8816	-0.048
Mof_C 	C 	0.6805	0.0596	0.8574	0.002
Mof_C 	C 	0.98132	0.8968	0.33844	-0.095
Mof_C 	C 	0.947	0.0762	0.4128	0.015
Mof_C 	C 	0.64647	0.3376	0.90274	-0.05
Mof_C 	C 	0.0691	0.6424	0.6398	-0.082
Mof_C 	C 	0.25016	0.8122	0.73792	0.371
Mof_C 	C 	0.178	0.1052	0.8602	-0.069
Mof_C 	C 	0.31322	0.0787	0.02444	-0.081
Mof_C 	C 	0.9253	0.8626	0.3516	0.034
Mof_C 	C 	0.2925	0.7571	0.09	0.01
Mof_C 	C 	0.73428	0.0468	0.71276	0.336
Mof_C 	C 	0.1744	0.3862	0.8478	-0.01
Mof_C 	C 	0.01691	0.4403	0.64222	-0.014
Mof_C 	C 	0.18141	0.3326	0.60462	0.347
Mof_C 	C 	0.9792	0.0339	0.4766	0.005
Mof_C 	C 	0.9391	0.0339	0.3892	-0.088
Mof_C 	C 	0.37469	0.9403	0.35778	-0.007
Mof_C 	C 	0.7243	0.0489	0.9342	-0.09
Mof_C 	C 	0.5499	0.5339	0.6108	-0.086
Mof_C 	C 	0.8259	0.2743	0.2682	-0.089
Mof_C 	C 	0.5145	0.4982	0.5456	-0.068
Mof_C 	C 	0.61953	0.997	0.73546	-0.084
Mof_C 	C 	0.7511	0.8797	0.1184	-0.05
Mof_C 	C 	0.94042	0.6639	0.47544	-0.088
Mof_C 	C 	0.2186	0.1747	0.9596	0.1
Mof_C 	C 	0.2489	0.3797	0.8816	-0.048
Mof_C 	C 	0.64288	0.3968	0.66156	-0.088
Mof_C 	C 	0.70314	0.125	0.90088	-0.002
Mof_C 	C 	0.2377	0.2167	0.9826	-0.106
Mof_C 	C 	0.6554	0.0298	0.0726	0.401
Mof_C 	C 	0.88407	0.497	0.26454	-0.019
Mof_C 	C 	0.978	0.8591	0.1988	0.33
Mof_C 	C 	0.2496	0.117	0.014	0.099
Mof_C 	C 	0.62832	0.7615	0.75724	0.037
Mof_C 	C 	0.22744	0.2565	0.95868	-0.027
Mof_C 	C 	0.05195	0.6988	0.7137	-0.011
Mof_C 	C 	0.2034	0.5911	0.906	0
Mof_C 	C 	0.5828	0.5298	0.9274	0.403
Mof_C 	C 	0.5059	0.9334	0.764	0.298
Mof_C 	C 	0.947	0.2	0.4282	-0.081
Mof_C 	C 	0.35712	0.8968	0.33844	-0.094
Mof_C 	C 	0.1924	0.3047	0.8906	0.024
Mof_C 	C 	0.6033	0.9948	0.8096	-0.124
Mof_C 	C 	0.39556	0.6272	0.41832	-0.042
Mof_C 	C 	0.7644	0.117	0.014	0.1
Mof_C 	C 	0.59225	0.7107	0.4249	0.314
Mof_C 	C 	0.74373	0.8376	0.09726	-0.049
Mof_C 	C 	0.6734	0.3862	0.8478	-0.01
Mof_C 	C 	0.88239	0.8703	0.38198	-0.077
Mof_C 	C 	0.0846	0.0507	0.7842	-0.094
Mof_C 	C 	0.9341	0.1415	0.1164	0.336
Mof_C 	C 	0.4529	0.117	0.3974	-0.008
Mof_C 	C 	0.7901	0.5489	0.0658	-0.084
Mof_C 	C 	0.5631	0.6921	0.6416	0.033
Mof_C 	C 	0.9566	0.9936	0.4174	0.061
Mof_C 	C 	0.81859	0.8326	0.39538	0.349
Mof_C 	C 	0.053	0.7	0.5718	-0.08
Mof_C 	C 	0.14505	0.621	0.9161	-0.047
Mof_C 	C 	0.259	0.6747	0.0404	0.101
Mof_C 	C 	0.8155	0.5323	0.1038	-0.036
Mof_C 	C 	0.3446	0.5298	0.9274	0.403
Mof_C 	C 	0.4795	0.1472	0.4362	0.09
Mof_C 	C 	0.93306	0.2178	0.24792	-0.083
Mof_C 	C 	0.22895	0.121	0.0839	-0.045
Mof_C 	C 	0.4263	0.8626	0.3516	0.034
Mof_C 	C 	0.2645	0.8108	0.1428	-0.05
Mof_C 	C 	0.4855	0.9982	0.4544	-0.136
Mof_C 	C 	0.40692	0.6133	0.45844	-0.077
Mof_C 	C 	0.1057	0.414	0.5952	-0.027
Mof_C 	C 	0.31486	0.2178	0.24792	-0.083
Mof_C 	C 	0.7419	0.4334	0.236	0.307
Mof_C 	C 	0.01729	0.6993	0.78558	0.391
Mof_C 	C 	0.0434	0.4936	0.5826	0.039
Mof_C 	C 	0.4501	0.0339	0.3892	-0.088
Mof_C 	C 	0.42321	0.3326	0.60462	0.347
Mof_C 	C 	0.52507	0.6797	0.43794	-0.039
Mof_C 	C 	0.15616	0.0311	0.81552	0.074
Mof_C 	C 	0.8047	0.4783	0.2296	-0.018
Mof_C 	C 	0.0555	0.617	0.6026	-0.003
Mof_C 	C 	0.7623	0.7167	0.0174	-0.106
Mof_C 	C 	0.1845	0.0323	0.8962	-0.026
Mof_C 	C 	0.27661	0.5968	0.06382	0.063
Mof_C 	C 	0.53502	0.6639	0.47544	-0.087
Mof_C 	C 	0.6996	0.0507	0.7842	-0.096
Mof_C 	C 	0.51224	0.3122	0.26208	0.37
Mof_C 	C 	0.80642	0.716	0.10824	-0.075
Mof_C 	C 	0.26969	0.8888	0.30538	0.393
Mof_C 	C 	0.11593	0.997	0.73546	-0.081
Mof_C 	C 	0.02961	0.5777	0.54722	0.055
Mof_C 	C 	0.94848	0.1133	0.54156	-0.077
Mof_C 	C 	0.2749	0.8498	0.1636	-0.041
Mof_C 	C 	0.05152	0.6133	0.45844	-0.077
Mof_C 	C 	0.37168	0.2615	0.24276	0.036
Mof_C 	C 	0.25627	0.3376	0.90274	-0.05
Mof_C 	C 	0.5205	0.6472	0.5638	0.088
Mof_C 	C 	0.2883	0.5323	0.1038	-0.036
Mof_C 	C 	0.9215	0.1921	0.3584	0.031
Mof_C 	C 	0.8231	0.5596	0.1426	0.016
Mof_C 	C 	0.85495	0.121	0.0839	-0.045
Mof_C 	C 	0.34064	0.5311	0.18448	0.031
Mof_C 	C 	0.43472	0.9131	0.10724	0.312
Mof_C 	C 	0.74984	0.3122	0.26208	0.37
Mof_C 	C 	0.07522	0.6064	0.38384	0.419
Mof_C 	C 	0.7975	0.7571	0.09	0.01
Mof_C 	C 	0.1741	0.7743	0.7318	-0.091
Mof_C 	C 	0.71122	0.0787	0.02444	-0.081
Mof_C 	C 	0.77256	0.7565	0.04132	-0.027
Mof_C 	C 	0.20321	0.1752	0.91262	-0.002
Mof_C 	C 	0.7966	0.0911	0.094	-0.002
Mof_C 	C 	0.45567	0.2193	0.39314	-0.044
Mof_C 	C 	0.02152	0.5468	0.28724	0.352
Mof_C 	C 	0.2063	0.9948	0.8096	-0.122
Mof_C 	C 	0.8256	0.8862	0.1522	-0.009
Mof_C 	C 	0.7792	0.3591	0.8012	0.331
Mof_C 	C 	0.16735	0.2107	0.5751	0.314
Mof_C 	C 	0.741	0.1747	0.9596	0.1
Mof_C 	C 	0.4722	0.6396	0.4902	0.1
Mof_C 	C 	0.4812	0.2	0.4282	-0.081
Mof_C 	C 	0.8177	0.6415	0.8836	0.337
Mof_C 	C 	0.30862	0.6064	0.38384	0.419
Mof_C 	C 	0.48239	0.0777	0.45278	0.037
Mof_C 	C 	0.3018	0.8047	0.1094	0.022
Mof_C 	C 	0.5342	0.5762	0.5872	0.001
Mof_C 	C 	0.1769	0.0596	0.8574	0.003
Mof_C 	C 	0.7117	0.0323	0.8962	-0.026
Mof_C 	C 	0.9309	0.1424	0.3602	-0.078
Mof_C 	C 	0.4974	0.0339	0.4766	0.004
Mof_C 	C 	0.9567	0.1472	0.4362	0.09
Mof_C 	C 	0.29686	0.625	0.09912	0.003
Mof_C 	C 	0.7504	0.617	0.986	0.098
Mof_C 	C 	0.87108	0.2615	0.24276	0.036
Mof_C 	C 	0.97039	0.0777	0.45278	0.037
Mof_C 	C 	0.98309	0.9403	0.35778	-0.008
Mof_C 	C 	0.11761	0.3703	0.61802	-0.071
Mof_C 	C 	0.2581	0.9334	0.764	0.298
Mof_C 	C 	0.8887	0.8498	0.1636	-0.04
Mof_C 	C 	0.21279	0.0968	0.93618	0.067
Mof_C 	C 	0.0471	0.1606	0.5942	-0.017
Mof_C 	C 	0.5188	0.7	0.5718	-0.08
Mof_C 	C 	0.68678	0.5787	0.97556	-0.08
Mof_C 	C 	0.67252	0.9131	0.10724	0.312
Mof_C 	C 	0.5737	0.3626	0.6484	0.029
Mof_C 	C 	0.2099	0.0489	0.9342	-0.09
Mof_C 	C 	0.69818	0.216	0.89176	-0.076
Mof_C 	C 	0.2025	0.2571	0.91	0.011
Mof_C 	C 	0.23171	0.1993	0.21442	0.39
Mof_C 	C 	0.72568	0.0696	0.06616	-0.047
Mof_C 	C 	0.77105	0.621	0.9161	-0.047
Mof_C 	C 	0.4369	0.1921	0.3584	0.031
Mof_C 	C 	0.96431	0.3888	0.69462	0.391
Mof_C 	C 	0.48776	0.8122	0.73792	0.371
Mof_C 	C 	0.54433	0.7193	0.60686	-0.047
Mof_C 	C 	0.3004	0.5507	0.2158	-0.059
Mof_C 	C 	0.3178	0.6052	0.1398	-0.079
Mof_C 	C 	0.5577	0.7743	0.7318	-0.091
Mof_C 	C 	0.022	0.3591	0.8012	0.331
Mof_C 	C 	0.02276	0.6272	0.41832	-0.041
Mof_C 	C 	0.30182	0.716	0.10824	-0.075
Mof_C 	C 	0.92478	0.1064	0.61616	0.419
Mof_C 	C 	0.0747	0.3626	0.6484	0.029
Mof_C 	C 	0.66175	0.6988	0.7137	-0.011
Mof_C 	C 	0.3195	0.5596	0.1426	0.016
Mof_C 	C 	0.50041	0.3703	0.61802	-0.071
Mof_C 	C 	0.53684	0.7529	0.69248	-0.015
Mof_C 	C 	0.40775	0.2107	0.5751	0.314
Mof_C 	C 	0.06253	0.7193	0.60686	-0.047
Mof_C 	C 	0.26876	0.7565	0.04132	-0.027
Mof_C 	C 	0.2208	0.8591	0.1988	0.331
Mof_C 	C 	0.4161	0.2106	0.3202	-0.015
Mof_C 	C 	0.0609	0.5339	0.6108	-0.086
Mof_C 	C 	0.0433	0.6472	0.5638	0.088
Mof_C 	C 	0.5278	0.1396	0.5098	0.101
Mof_C 	C 	0.2757	0.5489	0.0658	-0.084
Mof_C 	C 	0.98271	0.1993	0.21442	0.391
Mof_C 	C 	0.67451	0.0275	0.74362	0.017
Mof_C 	C 	0.5471	0.617	0.6026	-0.003
Mof_C 	C 	0.19774	0.125	0.90088	-0.001
Mof_C 	C 	0.0785	0.6921	0.6416	0.033
Mof_C 	C 	0.55191	0.4479	0.60722	-0.006
Mof_C 	C 	0.60444	0.1272	0.58168	-0.041
Mof_C 	C 	0.62531	0.4403	0.64222	-0.015
Mof_C 	C 	0.56528	0.4131	0.89276	0.312
Mof_C 	C 	0.7355	0.3108	0.8572	-0.051
Mof_C 	C 	0.5471	0.1606	0.5942	-0.016
Mof_C 	C 	0.5839	0.7106	0.6798	-0.017
Mof_C 	C 	0.78721	0.5968	0.06382	0.063
Mof_C 	C 	0.51761	0.5777	0.54722	0.055
Mof_C 	C 	0.7251	0.3498	0.8364	-0.039
Mof_C 	C 	0.7449	0.2167	0.9826	-0.107
Mof_C 	C 	0.79679	0.6752	0.08738	-0.004
Mof_C 	C 	0.32549	0.5275	0.25638	-0.039
Mof_C 	C 	0.05958	0.1639	0.52456	-0.088
Mof_C 	C 	0.65952	0.5696	0.93384	-0.05
Mof_C 	C 	0.05531	0.4479	0.60722	-0.007
Mof_C 	C 	0.8783	0.8108	0.1428	-0.05
Mof_C 	C 	0.38047	0.497	0.26454	-0.019
Mof_C 	C 	0.73124	0.2565	0.95868	-0.027
Mof_C 	C 	0.33825	0.1988	0.2863	-0.012
Mof_C 	C 	0.03569	0.8888	0.30538	0.393
Mof_C 	C 	0.1823	0.1415	0.1164	0.336
Mof_C 	C 	0.06911	0.0275	0.74362	0.013
Mof_C 	C 	0.053	0.5762	0.5872	0.001
Mof_C 	C 	0.32748	0.4131	0.89276	0.312
Mof_C 	C 	0.5026	0.5339	0.5234	-0.055
Mof_C 	C 	0.70941	0.1752	0.91262	-0.002
Mof_C 	C 	0.4529	0.6606	0.4058	-0.016
Mof_C 	C 	0.15564	0.7529	0.69248	-0.015
Mof_C 	C 	0.5751	0.9783	0.7704	0.011
Mof_C 	C 	0.35353	0.8376	0.09726	-0.049
Mof_C 	C 	0.7026	0.5911	0.906	0
Mof_C 	C 	0.4172	0.0298	0.0726	0.401
Mof_C 	C 	0.68514	0.7178	0.75208	-0.085
Mof_C 	C 	0.018	0.6396	0.4902	0.102
Mof_C 	C 	0.2551	0.7167	0.0174	-0.107
Mof_C 	C 	0.94469	0.9479	0.39278	-0.022
Mof_C 	C 	0.46316	0.2529	0.30752	-0.016
Mof_C 	C 	0.9689	0.9982	0.4544	-0.137
Mof_C 	C 	0.06694	0.7178	0.75208	-0.085
Mof_C 	C 	0.4293	0.1424	0.3602	-0.078
Mof_C 	C 	0.1113	0.3498	0.8364	-0.039
Mof_C 	C 	0.84436	0.2529	0.30752	-0.016
Mof_C 	C 	0.97848	0.0468	0.71276	0.337
Mof_C 	C 	0.4249	0.4783	0.2296	-0.018
Mof_C 	C 	0.9445	0.117	0.3974	-0.008
Mof_C 	C 	0.12892	0.7615	0.75724	0.037
Mof_C 	C 	0.94805	0.1988	0.2863	-0.012
Mof_C 	C 	0.59308	0.1133	0.54156	-0.076
Mof_C 	C 	0.7937	0.4948	0.1904	-0.07
Mof_C 	C 	0.65936	0.0311	0.81552	0.076
Mof_C 	C 	0.0208	0.5339	0.5234	-0.055
Mof_C 	C 	0.7814	0.6747	0.0404	0.1
Mof_C 	C 	0.34048	0.0696	0.06616	-0.047
Mof_C 	C 	0.982	0.1396	0.5098	0.101
Mof_C 	C 	0.29059	0.6752	0.08738	-0.004
Mof_C 	C 	0.0959	0.7106	0.6798	-0.017
Mof_C 	C 	0.69138	0.1064	0.61616	0.419
Mof_C 	C 	0.97724	0.1272	0.58168	-0.041
Mof_C 	C 	0.27432	0.5696	0.93384	-0.05
Mof_C 	C 	0.6982	0.3047	0.8906	0.024
Mof_C 	C 	0.4658	0.0762	0.4128	0.015
Mof_C 	C 	0.84384	0.5311	0.18448	0.031
Mof_C 	C 	0.8943	0.914	0.4048	-0.018
Mof_C 	C 	0.47493	0.1797	0.56206	-0.038
Mof_C 	C 	0.3967	0.4948	0.1904	-0.07
Mof_C 	C 	0.44809	0.9479	0.39278	-0.022
Mof_C 	C 	0.0311	0.4982	0.5456	-0.068
Mof_C 	C 	0.93089	0.5275	0.25638	-0.04
Mof_C 	C 	0.2974	0.0911	0.094	-0.001
Mof_C 	C 	0.5707	0.6424	0.6398	-0.082
Mof_C 	C 	0.01868	0.3968	0.66156	-0.089
Mof_C 	C 	0.6822	0.1052	0.8602	-0.069
Mof_C 	C 	0.5392	0.4936	0.5826	0.039
Mof_C 	C 	0.1611	0.6336	0.9602	-0.089
Mof_C 	C 	0.7991	0.6336	0.9602	-0.089
Mof_C 	C 	0.1953	0.9783	0.7704	0.009
Mof_C 	C 	0.57679	0.8326	0.39538	0.349
Mof_C 	C 	0.4608	0.9936	0.4174	0.061
Mof_C 	C 	0.4895	0.414	0.5952	-0.027
Mof_C 	C 	0.80226	0.625	0.09912	0.003
Mof_C 	C 	0.8389	0.1336	0.0398	-0.09
Mof_C 	C 	0.49959	0.8703	0.38198	-0.077
Mof_C 	C 	0.4941	0.4334	0.236	0.307
Mof_N 	N 	0.22645	0.1331	0.9701	-0.149
Mof_N 	N 	0.74365	0.1331	0.9701	-0.149
Mof_N 	N 	0.77355	0.6331	0.0299	-0.148
Mof_N 	N 	0.03092	0.6249	0.53184	-0.152
Mof_N 	N 	0.49908	0.1249	0.46816	-0.149
Mof_N 	N 	0.25635	0.6331	0.0299	-0.148
Mof_N 	N 	0.50092	0.6249	0.53184	-0.152
Mof_N 	N 	0.96908	0.1249	0.46816	-0.149
Mof_O 	O 	0.25566	0.5192	0.31372	-0.405
Mof_O 	O 	0.40186	0.2151	0.61232	-0.381
Mof_O 	O 	0.02858	0.6148	0.85576	-0.39
Mof_O 	O 	0.20448	0.1602	0.22016	-0.428
Mof_O 	O 	0.73315	0.429	0.2733	-0.391
Mof_O 	O 	0.94461	0.3473	0.70102	-0.418
Mof_O 	O 	0.34838	0.5326	0.88596	-0.392
Mof_O 	O 	0.79951	0.4011	0.79622	-0.396
Mof_O 	O 	0.69237	0.4153	0.20394	-0.396
Mof_O 	O 	0.2226	0.3058	0.6328	-0.412
Mof_O 	O 	0.21046	0.2151	0.61232	-0.38
Mof_O 	O 	0.36929	0.2398	0.54678	-0.381
Mof_O 	O 	0.05806	0.5192	0.31372	-0.405
Mof_O 	O 	0.78954	0.7151	0.38768	-0.381
Mof_O 	O 	0.04664	0.9223	0.28548	-0.43
Mof_O 	O 	0.28586	0.5663	0.38992	-0.43
Mof_O 	O 	0.63071	0.7398	0.45322	-0.382
Mof_O 	O 	0.89594	0.0663	0.61008	-0.428
Mof_O 	O 	0.37273	0.4124	0.92966	-0.374
Mof_O 	O 	0.18938	0.3308	0.56756	-0.409
Mof_O 	O 	0.45985	0.929	0.7267	-0.391
Mof_O 	O 	0.30763	0.9153	0.79606	-0.396
Mof_O 	O 	0.91606	0.1311	0.64252	-0.453
Mof_O 	O 	0.23784	0.5876	0.28088	-0.404
Mof_O 	O 	0.51104	0.3189	0.22288	-0.382
Mof_O 	O 	0.48896	0.8189	0.77712	-0.383
Mof_O 	O 	0.98432	0.6602	0.77984	-0.43
Mof_O 	O 	0.97142	0.1148	0.14424	-0.388
Mof_O 	O 	0.65162	0.0326	0.11404	-0.385
Mof_O 	O 	0.76216	0.0876	0.71912	-0.399
Mof_O 	O 	0.01515	0.8237	0.2169	-0.398
Mof_O 	O 	0.17282	0.1148	0.14424	-0.388
Mof_O 	O 	0.99671	0.4011	0.79622	-0.396
Mof_O 	O 	0.27354	0.6311	0.35748	-0.454
Mof_O 	O 	0.14827	0.1822	0.11014	-0.389
Mof_O 	O 	0.75641	0.3473	0.70102	-0.418
Mof_O 	O 	0.52777	0.4423	0.86414	-0.387
Mof_O 	O 	0.46242	0.0326	0.11404	-0.385
Mof_O 	O 	0.51157	0.4153	0.20394	-0.396
Mof_O 	O 	0.53758	0.5326	0.88596	-0.392
Mof_O 	O 	0.76116	0.4223	0.71452	-0.428
Mof_O 	O 	0.23884	0.9223	0.28548	-0.43
Mof_O 	O 	0.62182	0.8308	0.43244	-0.41
Mof_O 	O 	0.73972	0.3343	0.29004	-0.43
Mof_O 	O 	0.04304	0.5876	0.28088	-0.404
Mof_O 	O 	0.20049	0.9011	0.20378	-0.398
Mof_O 	O 	0.61762	0.0071	0.04884	-0.483
Mof_O 	O 	0.48843	0.9153	0.79606	-0.396
Mof_O 	O 	0.28816	0.8189	0.77712	-0.383
Mof_O 	O 	0.00329	0.9011	0.20378	-0.397
Mof_O 	O 	0.26685	0.929	0.7267	-0.391
Mof_O 	O 	0.7774	0.8058	0.3672	-0.413
Mof_O 	O 	0.82718	0.6148	0.85576	-0.39
Mof_O 	O 	0.71184	0.3189	0.22288	-0.382
Mof_O 	O 	0.72646	0.1311	0.64252	-0.453
Mof_O 	O 	0.94194	0.0192	0.68628	-0.397
Mof_O 	O 	0.19432	0.2266	0.18744	-0.419
Mof_O 	O 	0.62727	0.9124	0.07034	-0.378
Mof_O 	O 	0.26028	0.8343	0.70996	-0.431
Mof_O 	O 	0.79825	0.3237	0.7831	-0.398
Mof_O 	O 	0.56878	0.5071	0.95116	-0.49
Mof_O 	O 	0.81062	0.8308	0.43244	-0.411
Mof_O 	O 	0.55032	0.3343	0.29004	-0.43
Mof_O 	O 	0.71414	0.0663	0.61008	-0.428
Mof_O 	O 	0.03813	0.6822	0.88986	-0.389
Mof_O 	O 	0.44968	0.8343	0.70996	-0.431
Mof_O 	O 	0.00688	0.7266	0.81256	-0.42
Mof_O 	O 	0.38238	0.5071	0.95116	-0.49
Mof_O 	O 	0.80568	0.7266	0.81256	-0.42
Mof_O 	O 	0.17749	0.2398	0.54678	-0.381
Mof_O 	O 	0.24359	0.8473	0.29898	-0.419
Mof_O 	O 	0.96187	0.1822	0.11014	-0.389
Mof_O 	O 	0.95696	0.0876	0.71912	-0.4
Mof_O 	O 	0.74434	0.0192	0.68628	-0.396
Mof_O 	O 	0.08394	0.6311	0.35748	-0.453
Mof_O 	O 	0.95336	0.4223	0.71452	-0.428
Mof_O 	O 	0.05539	0.8473	0.29898	-0.419
Mof_O 	O 	0.99312	0.2266	0.18744	-0.419
Mof_O 	O 	0.82251	0.7398	0.45322	-0.382
Mof_O 	O 	0.33637	0.4423	0.86414	-0.387
Mof_O 	O 	0.98485	0.3237	0.7831	-0.398
Mof_O 	O 	0.79552	0.6602	0.77984	-0.429
Mof_O 	O 	0.43122	0.0071	0.04884	-0.483
Mof_O 	O 	0.59814	0.7151	0.38768	-0.381
Mof_O 	O 	0.4102	0.3058	0.6328	-0.412
Mof_O 	O 	0.85173	0.6822	0.88986	-0.39
Mof_O 	O 	0.55693	0.4124	0.92966	-0.374
Mof_O 	O 	0.10406	0.5663	0.38992	-0.43
Mof_O 	O 	0.20175	0.8237	0.2169	-0.398
Mof_O 	O 	0.66363	0.9423	0.13586	-0.391
Mof_O 	O 	0.47223	0.9423	0.13586	-0.391
Mof_O 	O 	0.44307	0.9124	0.07034	-0.378
Mof_O 	O 	0.37818	0.3308	0.56756	-0.409
Mof_O 	O 	0.01568	0.1602	0.22016	-0.428
Mof_O 	O 	0.54015	0.429	0.2733	-0.391
Mof_O 	O 	0.5898	0.8058	0.3672	-0.413
_end
