data_functionalizedCrystal
_audit_creation_method	'EQeq! by Chris Wilmer'
_symmetry_space_group_name_H-M	'P1'
_symmetry_Int_Tables_number	1
_symmetry_cell_setting	triclinic
loop_
_symmetry_equiv_pos_as_xyz
  x,y,z
_cell_length_a	8.136
_cell_length_b	21.3945
_cell_length_c	22.8798
_cell_angle_alpha	82.374
_cell_angle_beta	82.746
_cell_angle_gamma	79.437
loop_
_atom_site_label
_atom_site_type_symbol
_atom_site_fract_x
_atom_site_fract_y
_atom_site_fract_z
_atom_site_charge
Mof_Tb	Tb	0.73836	0.09431	0.5352	2.038
Mof_Tb	Tb	0.96626	0.24779	0.59615	1.785
Mof_Tb	Tb	0.70057	0.5759	0.21622	1.793
Mof_Tb	Tb	0.11363	0.5283	0.0676	2.199
Mof_Tb	Tb	0.26164	0.90569	0.4648	2.038
Mof_Tb	Tb	0.03374	0.75221	0.40385	1.785
Mof_Tb	Tb	0.29943	0.4241	0.78378	1.793
Mof_Tb	Tb	0.88637	0.4717	0.9324	2.199
Mof_H 	H 	0.094	0.2299	0.3749	0.18
Mof_H 	H 	0.7306	0.2536	0.2674	0.189
Mof_H 	H 	0.5312	0.2552	0.3486	0.051
Mof_H 	H 	0.9414	0.3546	0.2467	0.125
Mof_H 	H 	0.9745	0.2862	0.0626	0.046
Mof_H 	H 	0.053	0.2136	0.1411	0.269
Mof_H 	H 	0.8421	0.9102	0.2837	0.133
Mof_H 	H 	0.5879	0.087	0.2463	0.254
Mof_H 	H 	0.6529	0.1144	0.3338	0.043
Mof_H 	H 	0.4646	0.9258	0.2865	0.143
Mof_H 	H 	0.7226	0.7548	0.1867	0.012
Mof_H 	H 	0.7751	0.8569	0.1513	0.245
Mof_H 	H 	0.8432	0.2823	0.9298	0.137
Mof_H 	H 	0.7433	0.1381	0.8515	0.256
Mof_H 	H 	0.836	0.1859	0.7622	0.007
Mof_H 	H 	0.4853	0.271	0.9166	0.129
Mof_H 	H 	0.4834	0.3096	0.1097	0.059
Mof_H 	H 	0.6442	0.2179	0.0773	0.233
Mof_H 	H 	0.906	0.7701	0.6251	0.179
Mof_H 	H 	0.2694	0.7464	0.7326	0.188
Mof_H 	H 	0.4688	0.7448	0.6514	0.051
Mof_H 	H 	0.0586	0.6454	0.7533	0.125
Mof_H 	H 	0.0255	0.7138	0.9374	0.046
Mof_H 	H 	0.947	0.7864	0.8589	0.269
Mof_H 	H 	0.1579	0.0898	0.7163	0.133
Mof_H 	H 	0.4121	0.913	0.7537	0.254
Mof_H 	H 	0.3471	0.8856	0.6662	0.043
Mof_H 	H 	0.5354	0.0742	0.7135	0.143
Mof_H 	H 	0.2774	0.2452	0.8133	0.012
Mof_H 	H 	0.2249	0.1431	0.8487	0.245
Mof_H 	H 	0.1568	0.7177	0.0702	0.137
Mof_H 	H 	0.2567	0.8619	0.1485	0.256
Mof_H 	H 	0.164	0.8141	0.2378	0.007
Mof_H 	H 	0.5147	0.729	0.0834	0.129
Mof_H 	H 	0.5166	0.6904	0.8903	0.059
Mof_H 	H 	0.3558	0.7821	0.9227	0.233
Mof_C 	C 	0.5591	0.2295	0.4624	0.415
Mof_C 	C 	0.6923	0.2378	0.4115	-0.162
Mof_C 	C 	0.8612	0.2329	0.4183	0.034
Mof_C 	C 	0.9811	0.2337	0.3694	-0.2
Mof_C 	C 	0.9332	0.24	0.3124	0.326
Mof_C 	C 	0.7644	0.2481	0.3053	-0.261
Mof_C 	C 	0.6446	0.2482	0.3541	0.144
Mof_C 	C 	0.9174	0.2273	0.4795	0.347
Mof_C 	C 	0.0653	0.2317	0.2571	-0.481
Mof_C 	C 	0.0059	0.276	0.2026	0.339
Mof_C 	C 	0.9496	0.3411	0.2093	-0.198
Mof_C 	C 	0.9059	0.3855	0.1618	0.047
Mof_C 	C 	0.9152	0.365	0.1048	-0.174
Mof_C 	C 	0.9693	0.3004	0.0996	0.184
Mof_C 	C 	0.0155	0.2564	0.1467	-0.272
Mof_C 	C 	0.8442	0.4535	0.1739	0.346
Mof_C 	C 	0.8824	0.4078	0.0505	0.443
Mof_C 	C 	0.2408	0.2444	0.2656	1.009
Mof_C 	C 	0.079	0.1598	0.2458	0.962
Mof_C 	C 	0.7822	0.0462	0.4245	0.338
Mof_C 	C 	0.7789	0.0282	0.3639	-0.086
Mof_C 	C 	0.8409	0.9673	0.3474	-0.001
Mof_C 	C 	0.8026	0.9513	0.2941	-0.176
Mof_C 	C 	0.708	0.9947	0.2565	0.33
Mof_C 	C 	0.6507	0.0568	0.2715	-0.218
Mof_C 	C 	0.6886	0.0727	0.3243	0.155
Mof_C 	C 	0.9299	0.9157	0.3891	0.451
Mof_C 	C 	0.6654	0.9713	0.2004	-0.475
Mof_C 	C 	0.6271	0.9024	0.2166	0.333
Mof_C 	C 	0.5184	0.8912	0.2666	-0.193
Mof_C 	C 	0.4863	0.8311	0.2884	-0.003
Mof_C 	C 	0.5703	0.7784	0.2595	-0.141
Mof_C 	C 	0.6731	0.7891	0.2076	0.159
Mof_C 	C 	0.7039	0.8505	0.1859	-0.249
Mof_C 	C 	0.3557	0.8261	0.3404	0.482
Mof_C 	C 	0.5714	0.7098	0.2882	0.419
Mof_C 	C 	0.8185	0.9764	0.1533	0.974
Mof_C 	C 	0.5083	0.0123	0.1748	0.976
Mof_C 	C 	0.9274	0.301	0.7288	0.406
Mof_C 	C 	0.8929	0.2643	0.7895	-0.149
Mof_C 	C 	0.8948	0.2932	0.8419	0.004
Mof_C 	C 	0.8395	0.2636	0.8957	-0.19
Mof_C 	C 	0.7776	0.2061	0.901	0.328
Mof_C 	C 	0.7801	0.1772	0.8492	-0.265
Mof_C 	C 	0.8358	0.2059	0.7959	0.179
Mof_C 	C 	0.9648	0.3538	0.8403	0.455
Mof_C 	C 	0.7039	0.1801	0.964	-0.482
Mof_C 	C 	0.5905	0.2364	0.9917	0.322
Mof_C 	C 	0.4883	0.2794	0.9553	-0.172
Mof_C 	C 	0.3909	0.3341	0.9744	0
Mof_C 	C 	0.3963	0.3475	0.032	-0.082
Mof_C 	C 	0.4873	0.3025	0.0703	0.123
Mof_C 	C 	0.5839	0.2475	0.051	-0.213
Mof_C 	C 	0.2832	0.3785	0.9308	0.465
Mof_C 	C 	0.3201	0.4124	0.0499	0.315
Mof_C 	C 	0.8573	0.1521	0.9983	0.971
Mof_C 	C 	0.6004	0.1277	0.9628	0.964
Mof_C 	C 	0.4409	0.7705	0.5376	0.415
Mof_C 	C 	0.3077	0.7622	0.5885	-0.162
Mof_C 	C 	0.1388	0.7671	0.5817	0.034
Mof_C 	C 	0.0189	0.7663	0.6306	-0.2
Mof_C 	C 	0.0668	0.76	0.6876	0.326
Mof_C 	C 	0.2356	0.7519	0.6947	-0.261
Mof_C 	C 	0.3554	0.7518	0.6459	0.144
Mof_C 	C 	0.0826	0.7727	0.5205	0.347
Mof_C 	C 	0.9347	0.7683	0.7429	-0.481
Mof_C 	C 	0.9941	0.724	0.7974	0.339
Mof_C 	C 	0.0504	0.6589	0.7907	-0.198
Mof_C 	C 	0.0941	0.6145	0.8382	0.047
Mof_C 	C 	0.0848	0.635	0.8952	-0.174
Mof_C 	C 	0.0307	0.6996	0.9004	0.184
Mof_C 	C 	0.9845	0.7436	0.8533	-0.272
Mof_C 	C 	0.1558	0.5465	0.8261	0.346
Mof_C 	C 	0.1176	0.5922	0.9495	0.443
Mof_C 	C 	0.7592	0.7556	0.7344	1.009
Mof_C 	C 	0.921	0.8402	0.7542	0.962
Mof_C 	C 	0.2178	0.9538	0.5755	0.338
Mof_C 	C 	0.2211	0.9718	0.6361	-0.086
Mof_C 	C 	0.1591	0.0327	0.6526	-0.001
Mof_C 	C 	0.1974	0.0487	0.7059	-0.176
Mof_C 	C 	0.292	0.0053	0.7435	0.33
Mof_C 	C 	0.3493	0.9432	0.7285	-0.218
Mof_C 	C 	0.3114	0.9273	0.6757	0.155
Mof_C 	C 	0.0701	0.0843	0.6109	0.451
Mof_C 	C 	0.3346	0.0287	0.7996	-0.475
Mof_C 	C 	0.3729	0.0976	0.7834	0.333
Mof_C 	C 	0.4816	0.1088	0.7334	-0.193
Mof_C 	C 	0.5137	0.1689	0.7116	-0.003
Mof_C 	C 	0.4297	0.2216	0.7405	-0.141
Mof_C 	C 	0.3269	0.2109	0.7924	0.159
Mof_C 	C 	0.2961	0.1495	0.8141	-0.249
Mof_C 	C 	0.6443	0.1739	0.6596	0.482
Mof_C 	C 	0.4286	0.2902	0.7118	0.419
Mof_C 	C 	0.1815	0.0236	0.8467	0.974
Mof_C 	C 	0.4917	0.9877	0.8252	0.976
Mof_C 	C 	0.0726	0.699	0.2712	0.406
Mof_C 	C 	0.1071	0.7357	0.2105	-0.149
Mof_C 	C 	0.1052	0.7068	0.1581	0.004
Mof_C 	C 	0.1605	0.7364	0.1043	-0.19
Mof_C 	C 	0.2224	0.7939	0.099	0.328
Mof_C 	C 	0.2199	0.8228	0.1508	-0.265
Mof_C 	C 	0.1642	0.7941	0.2041	0.179
Mof_C 	C 	0.0352	0.6462	0.1597	0.455
Mof_C 	C 	0.2961	0.8199	0.036	-0.482
Mof_C 	C 	0.4095	0.7636	0.0083	0.322
Mof_C 	C 	0.5117	0.7206	0.0447	-0.172
Mof_C 	C 	0.6091	0.6659	0.0256	0
Mof_C 	C 	0.6037	0.6525	0.968	-0.082
Mof_C 	C 	0.5127	0.6975	0.9297	0.123
Mof_C 	C 	0.4161	0.7525	0.949	-0.213
Mof_C 	C 	0.7168	0.6215	0.0692	0.465
Mof_C 	C 	0.6799	0.5876	0.9501	0.315
Mof_C 	C 	0.1427	0.8479	0.0017	0.971
Mof_C 	C 	0.3996	0.8723	0.0372	0.964
Mof_O 	O 	0.5523	0.1724	0.4856	-0.501
Mof_O 	O 	0.4557	0.276	0.4766	-0.309
Mof_O 	O 	0.8524	0.1942	0.5213	-0.584
Mof_O 	O 	0.0225	0.2606	0.4879	-0.45
Mof_O 	O 	0.7053	0.4656	0.2043	-0.478
Mof_O 	O 	0.9312	0.4977	0.1576	-0.563
Mof_O 	O 	0.9352	0.4611	0.0416	-0.608
Mof_O 	O 	0.8082	0.3919	0.0111	-0.467
Mof_O 	O 	0.8851	0.0795	0.436	-0.412
Mof_O 	O 	0.6665	0.031	0.463	-0.459
Mof_O 	O 	0.9944	0.9336	0.4307	-0.518
Mof_O 	O 	0.9338	0.8598	0.3808	-0.518
Mof_O 	O 	0.3457	0.8661	0.377	-0.577
Mof_O 	O 	0.2626	0.786	0.3433	-0.508
Mof_O 	O 	0.5786	0.6989	0.3432	-0.346
Mof_O 	O 	0.5708	0.6679	0.2546	-0.527
Mof_O 	O 	0.0008	0.2687	0.6878	-0.511
Mof_O 	O 	0.8732	0.3596	0.722	-0.358
Mof_O 	O 	0.1082	0.3555	0.8142	-0.504
Mof_O 	O 	0.8769	0.3972	0.868	-0.565
Mof_O 	O 	0.3591	0.3919	0.8796	-0.521
Mof_O 	O 	0.1326	0.3961	0.9469	-0.508
Mof_O 	O 	0.3283	0.4592	0.0107	-0.454
Mof_O 	O 	0.2537	0.4189	0.102	-0.42
Mof_O 	O 	0.4477	0.8276	0.5144	-0.501
Mof_O 	O 	0.5443	0.724	0.5234	-0.309
Mof_O 	O 	0.1476	0.8058	0.4787	-0.584
Mof_O 	O 	0.9775	0.7394	0.5121	-0.45
Mof_O 	O 	0.2947	0.5344	0.7957	-0.478
Mof_O 	O 	0.0688	0.5023	0.8424	-0.563
Mof_O 	O 	0.0648	0.5389	0.9584	-0.608
Mof_O 	O 	0.1918	0.6081	0.9889	-0.467
Mof_O 	O 	0.1149	0.9205	0.564	-0.412
Mof_O 	O 	0.3335	0.969	0.537	-0.459
Mof_O 	O 	0.0056	0.0664	0.5693	-0.518
Mof_O 	O 	0.0662	0.1402	0.6192	-0.518
Mof_O 	O 	0.6543	0.1339	0.623	-0.577
Mof_O 	O 	0.7374	0.214	0.6567	-0.508
Mof_O 	O 	0.4214	0.3011	0.6568	-0.346
Mof_O 	O 	0.4292	0.3321	0.7454	-0.527
Mof_O 	O 	0.9992	0.7313	0.3122	-0.511
Mof_O 	O 	0.1268	0.6404	0.278	-0.358
Mof_O 	O 	0.8918	0.6445	0.1858	-0.504
Mof_O 	O 	0.1231	0.6028	0.132	-0.565
Mof_O 	O 	0.6409	0.6081	0.1204	-0.521
Mof_O 	O 	0.8674	0.6039	0.0531	-0.508
Mof_O 	O 	0.6717	0.5408	0.9893	-0.454
Mof_O 	O 	0.7463	0.5811	0.898	-0.42
Mof_F 	F 	0.3204	0.198	0.303	-0.487
Mof_F 	F 	0.3362	0.2477	0.2152	-0.491
Mof_F 	F 	0.2286	0.2986	0.2887	-0.548
Mof_F 	F 	0.1061	0.1212	0.2966	-0.455
Mof_F 	F 	0.209	0.1427	0.2062	-0.399
Mof_F 	F 	0.9409	0.148	0.228	-0.467
Mof_F 	F 	0.9537	0.9347	0.1697	-0.46
Mof_F 	F 	0.8617	0.034	0.1486	-0.361
Mof_F 	F 	0.7936	0.9656	0.0998	-0.351
Mof_F 	F 	0.459	0.9842	0.1326	-0.361
Mof_F 	F 	0.5319	0.0708	0.151	-0.374
Mof_F 	F 	0.3804	0.0192	0.2166	-0.448
Mof_F 	F 	0.9706	0.1116	0.9676	-0.363
Mof_F 	F 	0.817	0.1211	0.0502	-0.37
Mof_F 	F 	0.9384	0.197	0.0096	-0.48
Mof_F 	F 	0.521	0.1129	0.0163	-0.349
Mof_F 	F 	0.6935	0.0728	0.9461	-0.341
Mof_F 	F 	0.4802	0.146	0.9265	-0.456
Mof_F 	F 	0.6796	0.802	0.697	-0.487
Mof_F 	F 	0.6638	0.7523	0.7848	-0.491
Mof_F 	F 	0.7714	0.7014	0.7113	-0.548
Mof_F 	F 	0.8939	0.8788	0.7034	-0.455
Mof_F 	F 	0.791	0.8573	0.7938	-0.399
Mof_F 	F 	0.0591	0.852	0.772	-0.467
Mof_F 	F 	0.0463	0.0653	0.8303	-0.46
Mof_F 	F 	0.1383	0.966	0.8514	-0.361
Mof_F 	F 	0.2064	0.0344	0.9002	-0.351
Mof_F 	F 	0.541	0.0158	0.8674	-0.361
Mof_F 	F 	0.4681	0.9292	0.849	-0.374
Mof_F 	F 	0.6196	0.9808	0.7834	-0.448
Mof_F 	F 	0.0294	0.8884	0.0324	-0.363
Mof_F 	F 	0.183	0.8789	0.9498	-0.37
Mof_F 	F 	0.0616	0.803	0.9904	-0.48
Mof_F 	F 	0.479	0.8871	0.9837	-0.349
Mof_F 	F 	0.3065	0.9272	0.0539	-0.341
Mof_F 	F 	0.5198	0.854	0.0735	-0.456
_end
