data_functionalizedCrystal
_audit_creation_method	'EQeq! by Chris Wilmer'
_symmetry_space_group_name_H-M	'P1'
_symmetry_Int_Tables_number	1
_symmetry_cell_setting	triclinic
loop_
_symmetry_equiv_pos_as_xyz
  x,y,z
_cell_length_a	30.7158
_cell_length_b	30.7158
_cell_length_c	30.7158
_cell_angle_alpha	90
_cell_angle_beta	90
_cell_angle_gamma	90
loop_
_atom_site_label
_atom_site_type_symbol
_atom_site_fract_x
_atom_site_fract_y
_atom_site_fract_z
_atom_site_charge
Mof_O 	O 	0.59374	0.56022	0.27396	-0.536
Mof_O 	O 	0.56512	0.53216	0.21466	-0.479
Mof_O 	O 	0.4009	0.6534	0.1832	-0.577
Mof_C 	C 	0.5648	0.5602	0.2441	0.345
Mof_C 	C 	0.5301	0.5934	0.2449	-0.143
Mof_C 	C 	0.4986	0.5938	0.2137	0.103
Mof_O 	O 	0.09374	0.06022	0.77396	-0.532
Mof_O 	O 	0.06512	0.03216	0.71466	-0.492
Mof_O 	O 	0.9009	0.1534	0.6832	-0.575
Mof_C 	C 	0.0648	0.0602	0.7441	0.354
Mof_C 	C 	0.0301	0.0934	0.7449	-0.19
Mof_C 	C 	0.9986	0.0938	0.7137	0.152
Mof_O 	O 	0.90626	0.43978	0.77396	-0.529
Mof_O 	O 	0.93488	0.46784	0.71466	-0.464
Mof_O 	O 	0.0991	0.3466	0.6832	-0.578
Mof_C 	C 	0.9352	0.4398	0.7441	0.334
Mof_C 	C 	0.9699	0.4066	0.7449	-0.096
Mof_C 	C 	0.0014	0.4062	0.7137	0.051
Mof_O 	O 	0.40626	0.93978	0.27396	-0.508
Mof_O 	O 	0.43488	0.96784	0.21466	-0.451
Mof_O 	O 	0.5991	0.8466	0.1832	-0.577
Mof_C 	C 	0.4352	0.9398	0.2441	0.342
Mof_C 	C 	0.4699	0.9066	0.2449	-0.141
Mof_C 	C 	0.5014	0.9062	0.2137	0.107
Mof_O 	O 	0.40626	0.06022	0.22604	-0.531
Mof_O 	O 	0.43488	0.03216	0.28534	-0.479
Mof_O 	O 	0.5991	0.1534	0.3168	-0.579
Mof_C 	C 	0.4352	0.0602	0.2559	0.342
Mof_C 	C 	0.4699	0.0934	0.2551	-0.146
Mof_C 	C 	0.5014	0.0938	0.2863	0.098
Mof_O 	O 	0.90626	0.56022	0.72604	-0.532
Mof_O 	O 	0.93488	0.53216	0.78534	-0.463
Mof_O 	O 	0.0991	0.6534	0.8168	-0.579
Mof_C 	C 	0.9352	0.5602	0.7559	0.333
Mof_C 	C 	0.9699	0.5934	0.7551	-0.097
Mof_C 	C 	0.0014	0.5938	0.7863	0.052
Mof_O 	O 	0.09374	0.93978	0.72604	-0.514
Mof_O 	O 	0.06512	0.96784	0.78534	-0.461
Mof_O 	O 	0.9009	0.8466	0.8168	-0.574
Mof_C 	C 	0.0648	0.9398	0.7559	0.353
Mof_C 	C 	0.0301	0.9066	0.7551	-0.187
Mof_C 	C 	0.9986	0.9062	0.7863	0.164
Mof_O 	O 	0.59374	0.43978	0.22604	-0.538
Mof_O 	O 	0.56512	0.46784	0.28534	-0.478
Mof_O 	O 	0.4009	0.3466	0.3168	-0.578
Mof_C 	C 	0.5648	0.4398	0.2559	0.344
Mof_C 	C 	0.5301	0.4066	0.2551	-0.144
Mof_C 	C 	0.4986	0.4062	0.2863	0.103
Mof_O 	O 	0.27396	0.59374	0.56022	-0.537
Mof_O 	O 	0.21466	0.56512	0.53216	-0.48
Mof_O 	O 	0.1832	0.4009	0.6534	-0.578
Mof_C 	C 	0.2441	0.5648	0.5602	0.344
Mof_C 	C 	0.2449	0.5301	0.5934	-0.144
Mof_C 	C 	0.2137	0.4986	0.5938	0.102
Mof_O 	O 	0.77396	0.09374	0.06022	-0.533
Mof_O 	O 	0.71466	0.06512	0.03216	-0.493
Mof_O 	O 	0.6832	0.9009	0.1534	-0.576
Mof_C 	C 	0.7441	0.0648	0.0602	0.353
Mof_C 	C 	0.7449	0.0301	0.0934	-0.191
Mof_C 	C 	0.7137	0.9986	0.0938	0.151
Mof_O 	O 	0.77396	0.90626	0.43978	-0.53
Mof_O 	O 	0.71466	0.93488	0.46784	-0.465
Mof_O 	O 	0.6832	0.0991	0.3466	-0.579
Mof_C 	C 	0.7441	0.9352	0.4398	0.333
Mof_C 	C 	0.7449	0.9699	0.4066	-0.097
Mof_C 	C 	0.7137	0.0014	0.4062	0.05
Mof_O 	O 	0.27396	0.40626	0.93978	-0.509
Mof_O 	O 	0.21466	0.43488	0.96784	-0.451
Mof_O 	O 	0.1832	0.5991	0.8466	-0.577
Mof_C 	C 	0.2441	0.4352	0.9398	0.342
Mof_C 	C 	0.2449	0.4699	0.9066	-0.141
Mof_C 	C 	0.2137	0.5014	0.9062	0.107
Mof_O 	O 	0.22604	0.40626	0.06022	-0.531
Mof_O 	O 	0.28534	0.43488	0.03216	-0.479
Mof_O 	O 	0.3168	0.5991	0.1534	-0.579
Mof_C 	C 	0.2559	0.4352	0.0602	0.342
Mof_C 	C 	0.2551	0.4699	0.0934	-0.146
Mof_C 	C 	0.2863	0.5014	0.0938	0.098
Mof_O 	O 	0.72604	0.90626	0.56022	-0.532
Mof_O 	O 	0.78534	0.93488	0.53216	-0.463
Mof_O 	O 	0.8168	0.0991	0.6534	-0.579
Mof_C 	C 	0.7559	0.9352	0.5602	0.333
Mof_C 	C 	0.7551	0.9699	0.5934	-0.097
Mof_C 	C 	0.7863	0.0014	0.5938	0.052
Mof_O 	O 	0.72604	0.09374	0.93978	-0.514
Mof_O 	O 	0.78534	0.06512	0.96784	-0.461
Mof_O 	O 	0.8168	0.9009	0.8466	-0.574
Mof_C 	C 	0.7559	0.0648	0.9398	0.353
Mof_C 	C 	0.7551	0.0301	0.9066	-0.187
Mof_C 	C 	0.7863	0.9986	0.9062	0.164
Mof_O 	O 	0.22604	0.59374	0.43978	-0.538
Mof_O 	O 	0.28534	0.56512	0.46784	-0.478
Mof_O 	O 	0.3168	0.4009	0.3466	-0.578
Mof_C 	C 	0.2559	0.5648	0.4398	0.344
Mof_C 	C 	0.2551	0.5301	0.4066	-0.144
Mof_C 	C 	0.2863	0.4986	0.4062	0.103
Mof_O 	O 	0.56022	0.27396	0.59374	-0.537
Mof_O 	O 	0.53216	0.21466	0.56512	-0.48
Mof_O 	O 	0.6534	0.1832	0.4009	-0.578
Mof_C 	C 	0.5602	0.2441	0.5648	0.344
Mof_C 	C 	0.5934	0.2449	0.5301	-0.144
Mof_C 	C 	0.5938	0.2137	0.4986	0.102
Mof_O 	O 	0.06022	0.77396	0.09374	-0.533
Mof_O 	O 	0.03216	0.71466	0.06512	-0.493
Mof_O 	O 	0.1534	0.6832	0.9009	-0.576
Mof_C 	C 	0.0602	0.7441	0.0648	0.353
Mof_C 	C 	0.0934	0.7449	0.0301	-0.191
Mof_C 	C 	0.0938	0.7137	0.9986	0.151
Mof_O 	O 	0.43978	0.77396	0.90626	-0.53
Mof_O 	O 	0.46784	0.71466	0.93488	-0.465
Mof_O 	O 	0.3466	0.6832	0.0991	-0.579
Mof_C 	C 	0.4398	0.7441	0.9352	0.333
Mof_C 	C 	0.4066	0.7449	0.9699	-0.097
Mof_C 	C 	0.4062	0.7137	0.0014	0.05
Mof_O 	O 	0.93978	0.27396	0.40626	-0.509
Mof_O 	O 	0.96784	0.21466	0.43488	-0.451
Mof_O 	O 	0.8466	0.1832	0.5991	-0.577
Mof_C 	C 	0.9398	0.2441	0.4352	0.342
Mof_C 	C 	0.9066	0.2449	0.4699	-0.141
Mof_C 	C 	0.9062	0.2137	0.5014	0.107
Mof_O 	O 	0.06022	0.22604	0.40626	-0.531
Mof_O 	O 	0.03216	0.28534	0.43488	-0.479
Mof_O 	O 	0.1534	0.3168	0.5991	-0.579
Mof_C 	C 	0.0602	0.2559	0.4352	0.342
Mof_C 	C 	0.0934	0.2551	0.4699	-0.146
Mof_C 	C 	0.0938	0.2863	0.5014	0.098
Mof_O 	O 	0.56022	0.72604	0.90626	-0.532
Mof_O 	O 	0.53216	0.78534	0.93488	-0.463
Mof_O 	O 	0.6534	0.8168	0.0991	-0.579
Mof_C 	C 	0.5602	0.7559	0.9352	0.333
Mof_C 	C 	0.5934	0.7551	0.9699	-0.097
Mof_C 	C 	0.5938	0.7863	0.0014	0.052
Mof_O 	O 	0.93978	0.72604	0.09374	-0.514
Mof_O 	O 	0.96784	0.78534	0.06512	-0.461
Mof_O 	O 	0.8466	0.8168	0.9009	-0.574
Mof_C 	C 	0.9398	0.7559	0.0648	0.353
Mof_C 	C 	0.9066	0.7551	0.0301	-0.187
Mof_C 	C 	0.9062	0.7863	0.9986	0.164
Mof_O 	O 	0.43978	0.22604	0.59374	-0.538
Mof_O 	O 	0.46784	0.28534	0.56512	-0.478
Mof_O 	O 	0.3466	0.3168	0.4009	-0.578
Mof_C 	C 	0.4398	0.2559	0.5648	0.344
Mof_C 	C 	0.4066	0.2551	0.5301	-0.144
Mof_C 	C 	0.4062	0.2863	0.4986	0.103
Mof_O 	O 	0.31022	0.84374	0.97604	-0.481
Mof_O 	O 	0.28216	0.81512	0.03534	-0.465
Mof_O 	O 	0.4034	0.6509	0.0668	-0.581
Mof_C 	C 	0.3102	0.8148	0.0059	0.302
Mof_C 	C 	0.3434	0.7801	0.0051	-0.169
Mof_C 	C 	0.3438	0.7486	0.0363	0.098
Mof_O 	O 	0.81022	0.34374	0.47604	-0.535
Mof_O 	O 	0.78216	0.31512	0.53534	-0.478
Mof_O 	O 	0.9034	0.1509	0.5668	-0.575
Mof_C 	C 	0.8102	0.3148	0.5059	0.345
Mof_C 	C 	0.8434	0.2801	0.5051	-0.143
Mof_C 	C 	0.8438	0.2486	0.5363	0.105
Mof_O 	O 	0.18978	0.15626	0.47604	-0.54
Mof_O 	O 	0.21784	0.18488	0.53534	-0.479
Mof_O 	O 	0.0966	0.3491	0.5668	-0.582
Mof_C 	C 	0.1898	0.1852	0.5059	0.343
Mof_C 	C 	0.1566	0.2199	0.5051	-0.144
Mof_C 	C 	0.1562	0.2514	0.5363	0.101
Mof_O 	O 	0.68978	0.65626	0.97604	-0.483
Mof_O 	O 	0.71784	0.68488	0.03534	-0.465
Mof_O 	O 	0.5966	0.8491	0.0668	-0.579
Mof_C 	C 	0.6898	0.6852	0.0059	0.301
Mof_C 	C 	0.6566	0.7199	0.0051	-0.169
Mof_C 	C 	0.6562	0.7514	0.0363	0.098
Mof_O 	O 	0.81022	0.65626	0.02396	-0.554
Mof_O 	O 	0.78216	0.68488	0.96466	-0.463
Mof_O 	O 	0.9034	0.8491	0.9332	-0.567
Mof_C 	C 	0.8102	0.6852	0.9941	0.384
Mof_C 	C 	0.8434	0.7199	0.9949	-0.117
Mof_C 	C 	0.8438	0.7514	0.9637	0.112
Mof_O 	O 	0.31022	0.15626	0.52396	-0.539
Mof_O 	O 	0.28216	0.18488	0.46466	-0.478
Mof_O 	O 	0.4034	0.3491	0.4332	-0.578
Mof_C 	C 	0.3102	0.1852	0.4941	0.344
Mof_C 	C 	0.3434	0.2199	0.4949	-0.144
Mof_C 	C 	0.3438	0.2514	0.4637	0.103
Mof_O 	O 	0.68978	0.34374	0.52396	-0.537
Mof_O 	O 	0.71784	0.31512	0.46466	-0.478
Mof_O 	O 	0.5966	0.1509	0.4332	-0.58
Mof_C 	C 	0.6898	0.3148	0.4941	0.344
Mof_C 	C 	0.6566	0.2801	0.4949	-0.144
Mof_C 	C 	0.6562	0.2486	0.4637	0.103
Mof_O 	O 	0.18978	0.84374	0.02396	-0.555
Mof_O 	O 	0.21784	0.81512	0.96466	-0.464
Mof_O 	O 	0.0966	0.6509	0.9332	-0.578
Mof_C 	C 	0.1898	0.8148	0.9941	0.383
Mof_C 	C 	0.1566	0.7801	0.9949	-0.118
Mof_C 	C 	0.1562	0.7486	0.9637	0.108
Mof_O 	O 	0.34374	0.52396	0.68978	-0.537
Mof_O 	O 	0.31512	0.46466	0.71784	-0.478
Mof_O 	O 	0.1509	0.4332	0.5966	-0.58
Mof_C 	C 	0.3148	0.4941	0.6898	0.344
Mof_C 	C 	0.2801	0.4949	0.6566	-0.144
Mof_C 	C 	0.2486	0.4637	0.6562	0.103
Mof_O 	O 	0.84374	0.02396	0.18978	-0.555
Mof_O 	O 	0.81512	0.96466	0.21784	-0.464
Mof_O 	O 	0.6509	0.9332	0.0966	-0.578
Mof_C 	C 	0.8148	0.9941	0.1898	0.383
Mof_C 	C 	0.7801	0.9949	0.1566	-0.118
Mof_C 	C 	0.7486	0.9637	0.1562	0.108
Mof_O 	O 	0.65626	0.02396	0.81022	-0.554
Mof_O 	O 	0.68488	0.96466	0.78216	-0.463
Mof_O 	O 	0.8491	0.9332	0.9034	-0.567
Mof_C 	C 	0.6852	0.9941	0.8102	0.384
Mof_C 	C 	0.7199	0.9949	0.8434	-0.117
Mof_C 	C 	0.7514	0.9637	0.8438	0.112
Mof_O 	O 	0.15626	0.52396	0.31022	-0.539
Mof_O 	O 	0.18488	0.46466	0.28216	-0.478
Mof_O 	O 	0.3491	0.4332	0.4034	-0.578
Mof_C 	C 	0.1852	0.4941	0.3102	0.344
Mof_C 	C 	0.2199	0.4949	0.3434	-0.144
Mof_C 	C 	0.2514	0.4637	0.3438	0.103
Mof_O 	O 	0.15626	0.47604	0.18978	-0.54
Mof_O 	O 	0.18488	0.53534	0.21784	-0.479
Mof_O 	O 	0.3491	0.5668	0.0966	-0.582
Mof_C 	C 	0.1852	0.5059	0.1898	0.343
Mof_C 	C 	0.2199	0.5051	0.1566	-0.144
Mof_C 	C 	0.2514	0.5363	0.1562	0.101
Mof_O 	O 	0.65626	0.97604	0.68978	-0.483
Mof_O 	O 	0.68488	0.03534	0.71784	-0.465
Mof_O 	O 	0.8491	0.0668	0.5966	-0.579
Mof_C 	C 	0.6852	0.0059	0.6898	0.301
Mof_C 	C 	0.7199	0.0051	0.6566	-0.169
Mof_C 	C 	0.7514	0.0363	0.6562	0.098
Mof_O 	O 	0.84374	0.97604	0.31022	-0.481
Mof_O 	O 	0.81512	0.03534	0.28216	-0.465
Mof_O 	O 	0.6509	0.0668	0.4034	-0.581
Mof_C 	C 	0.8148	0.0059	0.3102	0.302
Mof_C 	C 	0.7801	0.0051	0.3434	-0.169
Mof_C 	C 	0.7486	0.0363	0.3438	0.098
Mof_O 	O 	0.34374	0.47604	0.81022	-0.535
Mof_O 	O 	0.31512	0.53534	0.78216	-0.478
Mof_O 	O 	0.1509	0.5668	0.9034	-0.575
Mof_C 	C 	0.3148	0.5059	0.8102	0.345
Mof_C 	C 	0.2801	0.5051	0.8434	-0.143
Mof_C 	C 	0.2486	0.5363	0.8438	0.105
Mof_O 	O 	0.02396	0.81022	0.65626	-0.554
Mof_O 	O 	0.96466	0.78216	0.68488	-0.463
Mof_O 	O 	0.9332	0.9034	0.8491	-0.567
Mof_C 	C 	0.9941	0.8102	0.6852	0.384
Mof_C 	C 	0.9949	0.8434	0.7199	-0.117
Mof_C 	C 	0.9637	0.8438	0.7514	0.112
Mof_O 	O 	0.52396	0.31022	0.15626	-0.539
Mof_O 	O 	0.46466	0.28216	0.18488	-0.478
Mof_O 	O 	0.4332	0.4034	0.3491	-0.578
Mof_C 	C 	0.4941	0.3102	0.1852	0.344
Mof_C 	C 	0.4949	0.3434	0.2199	-0.144
Mof_C 	C 	0.4637	0.3438	0.2514	0.103
Mof_O 	O 	0.52396	0.68978	0.34374	-0.537
Mof_O 	O 	0.46466	0.71784	0.31512	-0.478
Mof_O 	O 	0.4332	0.5966	0.1509	-0.58
Mof_C 	C 	0.4941	0.6898	0.3148	0.344
Mof_C 	C 	0.4949	0.6566	0.2801	-0.144
Mof_C 	C 	0.4637	0.6562	0.2486	0.103
Mof_O 	O 	0.02396	0.18978	0.84374	-0.555
Mof_O 	O 	0.96466	0.21784	0.81512	-0.464
Mof_O 	O 	0.9332	0.0966	0.6509	-0.578
Mof_C 	C 	0.9941	0.1898	0.8148	0.383
Mof_C 	C 	0.9949	0.1566	0.7801	-0.118
Mof_C 	C 	0.9637	0.1562	0.7486	0.108
Mof_O 	O 	0.97604	0.31022	0.84374	-0.481
Mof_O 	O 	0.03534	0.28216	0.81512	-0.465
Mof_O 	O 	0.0668	0.4034	0.6509	-0.581
Mof_C 	C 	0.0059	0.3102	0.8148	0.302
Mof_C 	C 	0.0051	0.3434	0.7801	-0.169
Mof_C 	C 	0.0363	0.3438	0.7486	0.098
Mof_O 	O 	0.47604	0.81022	0.34374	-0.535
Mof_O 	O 	0.53534	0.78216	0.31512	-0.478
Mof_O 	O 	0.5668	0.9034	0.1509	-0.575
Mof_C 	C 	0.5059	0.8102	0.3148	0.345
Mof_C 	C 	0.5051	0.8434	0.2801	-0.143
Mof_C 	C 	0.5363	0.8438	0.2486	0.105
Mof_O 	O 	0.47604	0.18978	0.15626	-0.54
Mof_O 	O 	0.53534	0.21784	0.18488	-0.479
Mof_O 	O 	0.5668	0.0966	0.3491	-0.582
Mof_C 	C 	0.5059	0.1898	0.1852	0.343
Mof_C 	C 	0.5051	0.1566	0.2199	-0.144
Mof_C 	C 	0.5363	0.1562	0.2514	0.101
Mof_O 	O 	0.97604	0.68978	0.65626	-0.483
Mof_O 	O 	0.03534	0.71784	0.68488	-0.465
Mof_O 	O 	0.0668	0.5966	0.8491	-0.579
Mof_C 	C 	0.0059	0.6898	0.6852	0.301
Mof_C 	C 	0.0051	0.6566	0.7199	-0.169
Mof_C 	C 	0.0363	0.6562	0.7514	0.098
Mof_O 	O 	0.40626	0.43978	0.72604	-0.537
Mof_O 	O 	0.43488	0.46784	0.78534	-0.476
Mof_O 	O 	0.5991	0.3466	0.8168	-0.577
Mof_C 	C 	0.4352	0.4398	0.7559	0.344
Mof_C 	C 	0.4699	0.4066	0.7551	-0.144
Mof_C 	C 	0.5014	0.4062	0.7863	0.105
Mof_O 	O 	0.90626	0.93978	0.22604	-0.506
Mof_O 	O 	0.93488	0.96784	0.28534	-0.436
Mof_O 	O 	0.0991	0.8466	0.3168	-0.578
Mof_C 	C 	0.9352	0.9398	0.2559	0.332
Mof_C 	C 	0.9699	0.9066	0.2551	-0.095
Mof_C 	C 	0.0014	0.9062	0.2863	0.056
Mof_O 	O 	0.09374	0.56022	0.22604	-0.543
Mof_O 	O 	0.06512	0.53216	0.28534	-0.492
Mof_O 	O 	0.9009	0.6534	0.3168	-0.575
Mof_C 	C 	0.0648	0.5602	0.2559	0.355
Mof_C 	C 	0.0301	0.5934	0.2551	-0.19
Mof_C 	C 	0.9986	0.5938	0.2863	0.157
Mof_O 	O 	0.59374	0.06022	0.72604	-0.53
Mof_O 	O 	0.56512	0.03216	0.78534	-0.477
Mof_O 	O 	0.4009	0.1534	0.8168	-0.578
Mof_C 	C 	0.5648	0.0602	0.7559	0.342
Mof_C 	C 	0.5301	0.0934	0.7551	-0.146
Mof_C 	C 	0.4986	0.0938	0.7863	0.1
Mof_O 	O 	0.59374	0.93978	0.77396	-0.508
Mof_O 	O 	0.56512	0.96784	0.71466	-0.45
Mof_O 	O 	0.4009	0.8466	0.6832	-0.576
Mof_C 	C 	0.5648	0.9398	0.7441	0.342
Mof_C 	C 	0.5301	0.9066	0.7449	-0.141
Mof_C 	C 	0.4986	0.9062	0.7137	0.109
Mof_O 	O 	0.09374	0.43978	0.27396	-0.542
Mof_O 	O 	0.06512	0.46784	0.21466	-0.493
Mof_O 	O 	0.9009	0.3466	0.1832	-0.576
Mof_C 	C 	0.0648	0.4398	0.2441	0.355
Mof_C 	C 	0.0301	0.4066	0.2449	-0.19
Mof_C 	C 	0.9986	0.4062	0.2137	0.155
Mof_O 	O 	0.90626	0.06022	0.27396	-0.525
Mof_O 	O 	0.93488	0.03216	0.21466	-0.467
Mof_O 	O 	0.0991	0.1534	0.1832	-0.581
Mof_C 	C 	0.9352	0.0602	0.2441	0.332
Mof_C 	C 	0.9699	0.0934	0.2449	-0.1
Mof_C 	C 	0.0014	0.0938	0.2137	0.044
Mof_O 	O 	0.40626	0.56022	0.77396	-0.535
Mof_O 	O 	0.43488	0.53216	0.71466	-0.478
Mof_O 	O 	0.5991	0.6534	0.6832	-0.577
Mof_C 	C 	0.4352	0.5602	0.7441	0.344
Mof_C 	C 	0.4699	0.5934	0.7449	-0.144
Mof_C 	C 	0.5014	0.5938	0.7137	0.104
Mof_O 	O 	0.72604	0.40626	0.43978	-0.537
Mof_O 	O 	0.78534	0.43488	0.46784	-0.476
Mof_O 	O 	0.8168	0.5991	0.3466	-0.577
Mof_C 	C 	0.7559	0.4352	0.4398	0.344
Mof_C 	C 	0.7551	0.4699	0.4066	-0.144
Mof_C 	C 	0.7863	0.5014	0.4062	0.105
Mof_O 	O 	0.22604	0.90626	0.93978	-0.506
Mof_O 	O 	0.28534	0.93488	0.96784	-0.436
Mof_O 	O 	0.3168	0.0991	0.8466	-0.578
Mof_C 	C 	0.2559	0.9352	0.9398	0.332
Mof_C 	C 	0.2551	0.9699	0.9066	-0.095
Mof_C 	C 	0.2863	0.0014	0.9062	0.056
Mof_O 	O 	0.22604	0.09374	0.56022	-0.543
Mof_O 	O 	0.28534	0.06512	0.53216	-0.492
Mof_O 	O 	0.3168	0.9009	0.6534	-0.575
Mof_C 	C 	0.2559	0.0648	0.5602	0.355
Mof_C 	C 	0.2551	0.0301	0.5934	-0.19
Mof_C 	C 	0.2863	0.9986	0.5938	0.157
Mof_O 	O 	0.72604	0.59374	0.06022	-0.53
Mof_O 	O 	0.78534	0.56512	0.03216	-0.477
Mof_O 	O 	0.8168	0.4009	0.1534	-0.578
Mof_C 	C 	0.7559	0.5648	0.0602	0.342
Mof_C 	C 	0.7551	0.5301	0.0934	-0.146
Mof_C 	C 	0.7863	0.4986	0.0938	0.1
Mof_O 	O 	0.77396	0.59374	0.93978	-0.508
Mof_O 	O 	0.71466	0.56512	0.96784	-0.45
Mof_O 	O 	0.6832	0.4009	0.8466	-0.576
Mof_C 	C 	0.7441	0.5648	0.9398	0.342
Mof_C 	C 	0.7449	0.5301	0.9066	-0.141
Mof_C 	C 	0.7137	0.4986	0.9062	0.109
Mof_O 	O 	0.27396	0.09374	0.43978	-0.542
Mof_O 	O 	0.21466	0.06512	0.46784	-0.493
Mof_O 	O 	0.1832	0.9009	0.3466	-0.576
Mof_C 	C 	0.2441	0.0648	0.4398	0.355
Mof_C 	C 	0.2449	0.0301	0.4066	-0.19
Mof_C 	C 	0.2137	0.9986	0.4062	0.155
Mof_O 	O 	0.27396	0.90626	0.06022	-0.525
Mof_O 	O 	0.21466	0.93488	0.03216	-0.467
Mof_O 	O 	0.1832	0.0991	0.1534	-0.581
Mof_C 	C 	0.2441	0.9352	0.0602	0.332
Mof_C 	C 	0.2449	0.9699	0.0934	-0.1
Mof_C 	C 	0.2137	0.0014	0.0938	0.044
Mof_O 	O 	0.77396	0.40626	0.56022	-0.535
Mof_O 	O 	0.71466	0.43488	0.53216	-0.478
Mof_O 	O 	0.6832	0.5991	0.6534	-0.577
Mof_C 	C 	0.7441	0.4352	0.5602	0.344
Mof_C 	C 	0.7449	0.4699	0.5934	-0.144
Mof_C 	C 	0.7137	0.5014	0.5938	0.104
Mof_O 	O 	0.43978	0.72604	0.40626	-0.537
Mof_O 	O 	0.46784	0.78534	0.43488	-0.476
Mof_O 	O 	0.3466	0.8168	0.5991	-0.577
Mof_C 	C 	0.4398	0.7559	0.4352	0.344
Mof_C 	C 	0.4066	0.7551	0.4699	-0.144
Mof_C 	C 	0.4062	0.7863	0.5014	0.105
Mof_O 	O 	0.93978	0.22604	0.90626	-0.506
Mof_O 	O 	0.96784	0.28534	0.93488	-0.436
Mof_O 	O 	0.8466	0.3168	0.0991	-0.578
Mof_C 	C 	0.9398	0.2559	0.9352	0.332
Mof_C 	C 	0.9066	0.2551	0.9699	-0.095
Mof_C 	C 	0.9062	0.2863	0.0014	0.056
Mof_O 	O 	0.56022	0.22604	0.09374	-0.543
Mof_O 	O 	0.53216	0.28534	0.06512	-0.492
Mof_O 	O 	0.6534	0.3168	0.9009	-0.575
Mof_C 	C 	0.5602	0.2559	0.0648	0.355
Mof_C 	C 	0.5934	0.2551	0.0301	-0.19
Mof_C 	C 	0.5938	0.2863	0.9986	0.157
Mof_O 	O 	0.06022	0.72604	0.59374	-0.53
Mof_O 	O 	0.03216	0.78534	0.56512	-0.477
Mof_O 	O 	0.1534	0.8168	0.4009	-0.578
Mof_C 	C 	0.0602	0.7559	0.5648	0.342
Mof_C 	C 	0.0934	0.7551	0.5301	-0.146
Mof_C 	C 	0.0938	0.7863	0.4986	0.1
Mof_O 	O 	0.93978	0.77396	0.59374	-0.508
Mof_O 	O 	0.96784	0.71466	0.56512	-0.45
Mof_O 	O 	0.8466	0.6832	0.4009	-0.576
Mof_C 	C 	0.9398	0.7441	0.5648	0.342
Mof_C 	C 	0.9066	0.7449	0.5301	-0.141
Mof_C 	C 	0.9062	0.7137	0.4986	0.109
Mof_O 	O 	0.43978	0.27396	0.09374	-0.542
Mof_O 	O 	0.46784	0.21466	0.06512	-0.493
Mof_O 	O 	0.3466	0.1832	0.9009	-0.576
Mof_C 	C 	0.4398	0.2441	0.0648	0.355
Mof_C 	C 	0.4066	0.2449	0.0301	-0.19
Mof_C 	C 	0.4062	0.2137	0.9986	0.155
Mof_O 	O 	0.06022	0.27396	0.90626	-0.525
Mof_O 	O 	0.03216	0.21466	0.93488	-0.467
Mof_O 	O 	0.1534	0.1832	0.0991	-0.581
Mof_C 	C 	0.0602	0.2441	0.9352	0.332
Mof_C 	C 	0.0934	0.2449	0.9699	-0.1
Mof_C 	C 	0.0938	0.2137	0.0014	0.044
Mof_O 	O 	0.56022	0.77396	0.40626	-0.535
Mof_O 	O 	0.53216	0.71466	0.43488	-0.478
Mof_O 	O 	0.6534	0.6832	0.5991	-0.577
Mof_C 	C 	0.5602	0.7441	0.4352	0.344
Mof_C 	C 	0.5934	0.7449	0.4699	-0.144
Mof_C 	C 	0.5938	0.7137	0.5014	0.104
Mof_O 	O 	0.68978	0.15626	0.02396	-0.558
Mof_O 	O 	0.71784	0.18488	0.96466	-0.464
Mof_O 	O 	0.5966	0.3491	0.9332	-0.574
Mof_C 	C 	0.6898	0.1852	0.9941	0.383
Mof_C 	C 	0.6566	0.2199	0.9949	-0.118
Mof_C 	C 	0.6562	0.2514	0.9637	0.109
Mof_O 	O 	0.18978	0.65626	0.52396	-0.538
Mof_O 	O 	0.21784	0.68488	0.46466	-0.479
Mof_O 	O 	0.0966	0.8491	0.4332	-0.58
Mof_C 	C 	0.1898	0.6852	0.4941	0.343
Mof_C 	C 	0.1566	0.7199	0.4949	-0.144
Mof_C 	C 	0.1562	0.7514	0.4637	0.102
Mof_O 	O 	0.81022	0.84374	0.52396	-0.533
Mof_O 	O 	0.78216	0.81512	0.46466	-0.477
Mof_O 	O 	0.9034	0.6509	0.4332	-0.573
Mof_C 	C 	0.8102	0.8148	0.4941	0.345
Mof_C 	C 	0.8434	0.7801	0.4949	-0.143
Mof_C 	C 	0.8438	0.7486	0.4637	0.106
Mof_O 	O 	0.31022	0.34374	0.02396	-0.556
Mof_O 	O 	0.28216	0.31512	0.96466	-0.464
Mof_O 	O 	0.4034	0.1509	0.9332	-0.576
Mof_C 	C 	0.3102	0.3148	0.9941	0.383
Mof_C 	C 	0.3434	0.2801	0.9949	-0.118
Mof_C 	C 	0.3438	0.2486	0.9637	0.109
Mof_O 	O 	0.18978	0.34374	0.97604	-0.485
Mof_O 	O 	0.21784	0.31512	0.03534	-0.466
Mof_O 	O 	0.0966	0.1509	0.0668	-0.587
Mof_C 	C 	0.1898	0.3148	0.0059	0.301
Mof_C 	C 	0.1566	0.2801	0.0051	-0.169
Mof_C 	C 	0.1562	0.2486	0.0363	0.095
Mof_O 	O 	0.68978	0.84374	0.47604	-0.535
Mof_O 	O 	0.71784	0.81512	0.53534	-0.478
Mof_O 	O 	0.5966	0.6509	0.5668	-0.578
Mof_C 	C 	0.6898	0.8148	0.5059	0.344
Mof_C 	C 	0.6566	0.7801	0.5051	-0.143
Mof_C 	C 	0.6562	0.7486	0.5363	0.104
Mof_O 	O 	0.31022	0.65626	0.47604	-0.537
Mof_O 	O 	0.28216	0.68488	0.53534	-0.478
Mof_O 	O 	0.4034	0.8491	0.5668	-0.575
Mof_C 	C 	0.3102	0.6852	0.5059	0.344
Mof_C 	C 	0.3434	0.7199	0.5051	-0.144
Mof_C 	C 	0.3438	0.7514	0.5363	0.104
Mof_O 	O 	0.81022	0.15626	0.97604	-0.483
Mof_O 	O 	0.78216	0.18488	0.03534	-0.465
Mof_O 	O 	0.9034	0.3491	0.0668	-0.576
Mof_C 	C 	0.8102	0.1852	0.0059	0.302
Mof_C 	C 	0.8434	0.2199	0.0051	-0.168
Mof_C 	C 	0.8438	0.2514	0.0363	0.099
Mof_O 	O 	0.65626	0.47604	0.31022	-0.537
Mof_O 	O 	0.68488	0.53534	0.28216	-0.478
Mof_O 	O 	0.8491	0.5668	0.4034	-0.575
Mof_C 	C 	0.6852	0.5059	0.3102	0.344
Mof_C 	C 	0.7199	0.5051	0.3434	-0.144
Mof_C 	C 	0.7514	0.5363	0.3438	0.104
Mof_O 	O 	0.15626	0.97604	0.81022	-0.483
Mof_O 	O 	0.18488	0.03534	0.78216	-0.465
Mof_O 	O 	0.3491	0.0668	0.9034	-0.576
Mof_C 	C 	0.1852	0.0059	0.8102	0.302
Mof_C 	C 	0.2199	0.0051	0.8434	-0.168
Mof_C 	C 	0.2514	0.0363	0.8438	0.099
Mof_O 	O 	0.34374	0.97604	0.18978	-0.485
Mof_O 	O 	0.31512	0.03534	0.21784	-0.466
Mof_O 	O 	0.1509	0.0668	0.0966	-0.587
Mof_C 	C 	0.3148	0.0059	0.1898	0.301
Mof_C 	C 	0.2801	0.0051	0.1566	-0.169
Mof_C 	C 	0.2486	0.0363	0.1562	0.095
Mof_O 	O 	0.84374	0.47604	0.68978	-0.535
Mof_O 	O 	0.81512	0.53534	0.71784	-0.478
Mof_O 	O 	0.6509	0.5668	0.5966	-0.578
Mof_C 	C 	0.8148	0.5059	0.6898	0.344
Mof_C 	C 	0.7801	0.5051	0.6566	-0.143
Mof_C 	C 	0.7486	0.5363	0.6562	0.104
Mof_O 	O 	0.84374	0.52396	0.81022	-0.533
Mof_O 	O 	0.81512	0.46466	0.78216	-0.477
Mof_O 	O 	0.6509	0.4332	0.9034	-0.573
Mof_C 	C 	0.8148	0.4941	0.8102	0.345
Mof_C 	C 	0.7801	0.4949	0.8434	-0.143
Mof_C 	C 	0.7486	0.4637	0.8438	0.106
Mof_O 	O 	0.34374	0.02396	0.31022	-0.556
Mof_O 	O 	0.31512	0.96466	0.28216	-0.464
Mof_O 	O 	0.1509	0.9332	0.4034	-0.576
Mof_C 	C 	0.3148	0.9941	0.3102	0.383
Mof_C 	C 	0.2801	0.9949	0.3434	-0.118
Mof_C 	C 	0.2486	0.9637	0.3438	0.109
Mof_O 	O 	0.15626	0.02396	0.68978	-0.558
Mof_O 	O 	0.18488	0.96466	0.71784	-0.464
Mof_O 	O 	0.3491	0.9332	0.5966	-0.574
Mof_C 	C 	0.1852	0.9941	0.6898	0.383
Mof_C 	C 	0.2199	0.9949	0.6566	-0.118
Mof_C 	C 	0.2514	0.9637	0.6562	0.109
Mof_O 	O 	0.65626	0.52396	0.18978	-0.538
Mof_O 	O 	0.68488	0.46466	0.21784	-0.479
Mof_O 	O 	0.8491	0.4332	0.0966	-0.58
Mof_C 	C 	0.6852	0.4941	0.1898	0.343
Mof_C 	C 	0.7199	0.4949	0.1566	-0.144
Mof_C 	C 	0.7514	0.4637	0.1562	0.102
Mof_O 	O 	0.97604	0.18978	0.34374	-0.485
Mof_O 	O 	0.03534	0.21784	0.31512	-0.466
Mof_O 	O 	0.0668	0.0966	0.1509	-0.587
Mof_C 	C 	0.0059	0.1898	0.3148	0.301
Mof_C 	C 	0.0051	0.1566	0.2801	-0.169
Mof_C 	C 	0.0363	0.1562	0.2486	0.095
Mof_O 	O 	0.47604	0.68978	0.84374	-0.535
Mof_O 	O 	0.53534	0.71784	0.81512	-0.478
Mof_O 	O 	0.5668	0.5966	0.6509	-0.578
Mof_C 	C 	0.5059	0.6898	0.8148	0.344
Mof_C 	C 	0.5051	0.6566	0.7801	-0.143
Mof_C 	C 	0.5363	0.6562	0.7486	0.104
Mof_O 	O 	0.47604	0.31022	0.65626	-0.537
Mof_O 	O 	0.53534	0.28216	0.68488	-0.478
Mof_O 	O 	0.5668	0.4034	0.8491	-0.575
Mof_C 	C 	0.5059	0.3102	0.6852	0.344
Mof_C 	C 	0.5051	0.3434	0.7199	-0.144
Mof_C 	C 	0.5363	0.3438	0.7514	0.104
Mof_O 	O 	0.97604	0.81022	0.15626	-0.483
Mof_O 	O 	0.03534	0.78216	0.18488	-0.465
Mof_O 	O 	0.0668	0.9034	0.3491	-0.576
Mof_C 	C 	0.0059	0.8102	0.1852	0.302
Mof_C 	C 	0.0051	0.8434	0.2199	-0.168
Mof_C 	C 	0.0363	0.8438	0.2514	0.099
Mof_O 	O 	0.02396	0.68978	0.15626	-0.558
Mof_O 	O 	0.96466	0.71784	0.18488	-0.464
Mof_O 	O 	0.9332	0.5966	0.3491	-0.574
Mof_C 	C 	0.9941	0.6898	0.1852	0.383
Mof_C 	C 	0.9949	0.6566	0.2199	-0.118
Mof_C 	C 	0.9637	0.6562	0.2514	0.109
Mof_O 	O 	0.52396	0.18978	0.65626	-0.538
Mof_O 	O 	0.46466	0.21784	0.68488	-0.479
Mof_O 	O 	0.4332	0.0966	0.8491	-0.58
Mof_C 	C 	0.4941	0.1898	0.6852	0.343
Mof_C 	C 	0.4949	0.1566	0.7199	-0.144
Mof_C 	C 	0.4637	0.1562	0.7514	0.102
Mof_O 	O 	0.52396	0.81022	0.84374	-0.533
Mof_O 	O 	0.46466	0.78216	0.81512	-0.477
Mof_O 	O 	0.4332	0.9034	0.6509	-0.573
Mof_C 	C 	0.4941	0.8102	0.8148	0.345
Mof_C 	C 	0.4949	0.8434	0.7801	-0.143
Mof_C 	C 	0.4637	0.8438	0.7486	0.106
Mof_O 	O 	0.02396	0.31022	0.34374	-0.556
Mof_O 	O 	0.96466	0.28216	0.31512	-0.464
Mof_O 	O 	0.9332	0.4034	0.1509	-0.576
Mof_C 	C 	0.9941	0.3102	0.3148	0.383
Mof_C 	C 	0.9949	0.3434	0.2801	-0.118
Mof_C 	C 	0.9637	0.3438	0.2486	0.109
Mof_In	In	0.625	0.5	0.25	2.507
Mof_In	In	0.875	0.5	0.75	2.512
Mof_In	In	0.375	0	0.25	2.384
Mof_In	In	0.125	0	0.75	2.383
Mof_In	In	0.25	0.625	0.5	2.507
Mof_In	In	0.75	0.875	0.5	2.512
Mof_In	In	0.25	0.375	-0	2.384
Mof_In	In	0.75	0.125	-0	2.383
Mof_In	In	0.5	0.25	0.625	2.507
Mof_In	In	0.5	0.75	0.875	2.512
Mof_In	In	4.8904e-33	0.25	0.375	2.384
Mof_In	In	3.95305e-33	0.75	0.125	2.383
Mof_In	In	0.25	0.875	-0	2.387
Mof_In	In	0.25	0.125	0.5	2.504
Mof_In	In	0.75	0.625	-0	2.385
Mof_In	In	0.75	0.375	0.5	2.509
Mof_In	In	0.375	0.5	0.75	2.509
Mof_In	In	0.625	0	0.75	2.385
Mof_In	In	0.125	0.5	0.25	2.504
Mof_In	In	0.875	0	0.25	2.387
Mof_In	In	9.31212e-33	0.75	0.625	2.385
Mof_In	In	0.5	0.75	0.375	2.509
Mof_In	In	-3.68803e-33	0.25	0.875	2.387
Mof_In	In	0.5	0.25	0.125	2.504
Mof_Co	Co	0.33069	0.66931	0.16931	0.657
Mof_Co	Co	0.34645	0.65355	0.15355	0.763
Mof_Co	Co	0.83069	0.16931	0.66931	0.658
Mof_Co	Co	0.84645	0.15355	0.65355	0.763
Mof_Co	Co	0.16931	0.33069	0.66931	0.657
Mof_Co	Co	0.15355	0.34645	0.65355	0.763
Mof_Co	Co	0.66931	0.83069	0.16931	0.658
Mof_Co	Co	0.65355	0.84645	0.15355	0.763
Mof_Co	Co	0.66931	0.16931	0.33069	0.657
Mof_Co	Co	0.65355	0.15355	0.34645	0.763
Mof_Co	Co	0.16931	0.66931	0.83069	0.658
Mof_Co	Co	0.15355	0.65355	0.84645	0.763
Mof_Co	Co	0.83069	0.83069	0.83069	0.661
Mof_Co	Co	0.84645	0.84645	0.84645	0.764
Mof_Co	Co	0.33069	0.33069	0.33069	0.657
Mof_Co	Co	0.34645	0.34645	0.34645	0.764
Mof_Co	Co	0.41931	0.58069	0.08069	0.653
Mof_Co	Co	0.40355	0.59645	0.09645	0.763
Mof_Co	Co	0.91931	0.08069	0.58069	0.658
Mof_Co	Co	0.90355	0.09645	0.59645	0.763
Mof_Co	Co	0.08069	0.41931	0.58069	0.653
Mof_Co	Co	0.09645	0.40355	0.59645	0.763
Mof_Co	Co	0.58069	0.91931	0.08069	0.658
Mof_Co	Co	0.59645	0.90355	0.09645	0.763
Mof_Co	Co	0.91931	0.91931	0.91931	0.673
Mof_Co	Co	0.90355	0.90355	0.90355	0.764
Mof_Co	Co	0.41931	0.41931	0.41931	0.658
Mof_Co	Co	0.40355	0.40355	0.40355	0.764
Mof_Co	Co	0.58069	0.08069	0.41931	0.653
Mof_Co	Co	0.59645	0.09645	0.40355	0.763
Mof_Co	Co	0.08069	0.58069	0.91931	0.658
Mof_Co	Co	0.09645	0.59645	0.90355	0.763
Mof_Co	Co	0.66931	0.33069	0.83069	0.659
Mof_Co	Co	0.65355	0.34645	0.84645	0.764
Mof_Co	Co	0.16931	0.83069	0.33069	0.658
Mof_Co	Co	0.15355	0.84645	0.34645	0.764
Mof_Co	Co	0.83069	0.66931	0.33069	0.659
Mof_Co	Co	0.84645	0.65355	0.34645	0.764
Mof_Co	Co	0.33069	0.16931	0.83069	0.658
Mof_Co	Co	0.34645	0.15355	0.84645	0.764
Mof_Co	Co	0.33069	0.83069	0.66931	0.659
Mof_Co	Co	0.34645	0.84645	0.65355	0.764
Mof_Co	Co	0.83069	0.33069	0.16931	0.658
Mof_Co	Co	0.84645	0.34645	0.15355	0.764
Mof_Co	Co	0.16931	0.16931	0.16931	0.655
Mof_Co	Co	0.15355	0.15355	0.15355	0.763
Mof_Co	Co	0.66931	0.66931	0.66931	0.658
Mof_Co	Co	0.65355	0.65355	0.65355	0.763
Mof_Co	Co	0.58069	0.41931	0.91931	0.663
Mof_Co	Co	0.59645	0.40355	0.90355	0.764
Mof_Co	Co	0.08069	0.91931	0.41931	0.658
Mof_Co	Co	0.09645	0.90355	0.40355	0.764
Mof_Co	Co	0.91931	0.58069	0.41931	0.663
Mof_Co	Co	0.90355	0.59645	0.40355	0.764
Mof_Co	Co	0.41931	0.08069	0.91931	0.658
Mof_Co	Co	0.40355	0.09645	0.90355	0.764
Mof_Co	Co	0.08069	0.08069	0.08069	0.644
Mof_Co	Co	0.09645	0.09645	0.09645	0.763
Mof_Co	Co	0.58069	0.58069	0.58069	0.658
Mof_Co	Co	0.59645	0.59645	0.59645	0.763
Mof_Co	Co	0.41931	0.91931	0.58069	0.663
Mof_Co	Co	0.40355	0.90355	0.59645	0.764
Mof_Co	Co	0.91931	0.41931	0.08069	0.658
Mof_Co	Co	0.90355	0.40355	0.09645	0.764
Mof_C 	C 	0.5296	0.625	0.2796	0.101
Mof_C 	C 	0.4294	0.625	0.1794	0.455
Mof_C 	C 	0.4654	0.625	0.2154	-0.181
Mof_C 	C 	0.0296	0.125	0.7796	0.075
Mof_C 	C 	0.9294	0.125	0.6794	0.46
Mof_C 	C 	0.9654	0.125	0.7154	-0.189
Mof_C 	C 	0.9704	0.375	0.7796	0.128
Mof_C 	C 	0.0706	0.375	0.6794	0.45
Mof_C 	C 	0.0346	0.375	0.7154	-0.172
Mof_C 	C 	0.4704	0.875	0.2796	0.104
Mof_C 	C 	0.5706	0.875	0.1794	0.456
Mof_C 	C 	0.5346	0.875	0.2154	-0.18
Mof_C 	C 	0.4704	0.125	0.2204	0.096
Mof_C 	C 	0.5706	0.125	0.3206	0.454
Mof_C 	C 	0.5346	0.125	0.2846	-0.181
Mof_C 	C 	0.9704	0.625	0.7204	0.126
Mof_C 	C 	0.0706	0.625	0.8206	0.45
Mof_C 	C 	0.0346	0.625	0.7846	-0.172
Mof_C 	C 	0.0296	0.875	0.7204	0.08
Mof_C 	C 	0.9294	0.875	0.8206	0.461
Mof_C 	C 	0.9654	0.875	0.7846	-0.187
Mof_C 	C 	0.5296	0.375	0.2204	0.099
Mof_C 	C 	0.4294	0.375	0.3206	0.455
Mof_C 	C 	0.4654	0.375	0.2846	-0.181
Mof_C 	C 	0.2796	0.5296	0.625	0.101
Mof_C 	C 	0.1794	0.4294	0.625	0.455
Mof_C 	C 	0.2154	0.4654	0.625	-0.181
Mof_C 	C 	0.7796	0.0296	0.125	0.075
Mof_C 	C 	0.6794	0.9294	0.125	0.46
Mof_C 	C 	0.7154	0.9654	0.125	-0.189
Mof_C 	C 	0.7796	0.9704	0.375	0.128
Mof_C 	C 	0.6794	0.0706	0.375	0.45
Mof_C 	C 	0.7154	0.0346	0.375	-0.172
Mof_C 	C 	0.2796	0.4704	0.875	0.104
Mof_C 	C 	0.1794	0.5706	0.875	0.456
Mof_C 	C 	0.2154	0.5346	0.875	-0.18
Mof_C 	C 	0.2204	0.4704	0.125	0.096
Mof_C 	C 	0.3206	0.5706	0.125	0.454
Mof_C 	C 	0.2846	0.5346	0.125	-0.181
Mof_C 	C 	0.7204	0.9704	0.625	0.126
Mof_C 	C 	0.8206	0.0706	0.625	0.45
Mof_C 	C 	0.7846	0.0346	0.625	-0.172
Mof_C 	C 	0.7204	0.0296	0.875	0.08
Mof_C 	C 	0.8206	0.9294	0.875	0.461
Mof_C 	C 	0.7846	0.9654	0.875	-0.187
Mof_C 	C 	0.2204	0.5296	0.375	0.099
Mof_C 	C 	0.3206	0.4294	0.375	0.455
Mof_C 	C 	0.2846	0.4654	0.375	-0.181
Mof_C 	C 	0.625	0.2796	0.5296	0.101
Mof_C 	C 	0.625	0.1794	0.4294	0.455
Mof_C 	C 	0.625	0.2154	0.4654	-0.181
Mof_C 	C 	0.125	0.7796	0.0296	0.075
Mof_C 	C 	0.125	0.6794	0.9294	0.46
Mof_C 	C 	0.125	0.7154	0.9654	-0.189
Mof_C 	C 	0.375	0.7796	0.9704	0.128
Mof_C 	C 	0.375	0.6794	0.0706	0.45
Mof_C 	C 	0.375	0.7154	0.0346	-0.172
Mof_C 	C 	0.875	0.2796	0.4704	0.104
Mof_C 	C 	0.875	0.1794	0.5706	0.456
Mof_C 	C 	0.875	0.2154	0.5346	-0.18
Mof_C 	C 	0.125	0.2204	0.4704	0.096
Mof_C 	C 	0.125	0.3206	0.5706	0.454
Mof_C 	C 	0.125	0.2846	0.5346	-0.181
Mof_C 	C 	0.625	0.7204	0.9704	0.126
Mof_C 	C 	0.625	0.8206	0.0706	0.45
Mof_C 	C 	0.625	0.7846	0.0346	-0.172
Mof_C 	C 	0.875	0.7204	0.0296	0.08
Mof_C 	C 	0.875	0.8206	0.9294	0.461
Mof_C 	C 	0.875	0.7846	0.9654	-0.187
Mof_C 	C 	0.375	0.2204	0.5296	0.099
Mof_C 	C 	0.375	0.3206	0.4294	0.455
Mof_C 	C 	0.375	0.2846	0.4654	-0.181
Mof_C 	C 	0.4704	0.375	0.7204	0.101
Mof_C 	C 	0.5706	0.375	0.8206	0.455
Mof_C 	C 	0.5346	0.375	0.7846	-0.18
Mof_C 	C 	0.9704	0.875	0.2204	0.128
Mof_C 	C 	0.0706	0.875	0.3206	0.451
Mof_C 	C 	0.0346	0.875	0.2846	-0.171
Mof_C 	C 	0.0296	0.625	0.2204	0.075
Mof_C 	C 	0.9294	0.625	0.3206	0.46
Mof_C 	C 	0.9654	0.625	0.2846	-0.189
Mof_C 	C 	0.5296	0.125	0.7204	0.098
Mof_C 	C 	0.4294	0.125	0.8206	0.455
Mof_C 	C 	0.4654	0.125	0.7846	-0.181
Mof_C 	C 	0.5296	0.875	0.7796	0.107
Mof_C 	C 	0.4294	0.875	0.6794	0.456
Mof_C 	C 	0.4654	0.875	0.7154	-0.18
Mof_C 	C 	0.0296	0.375	0.2796	0.076
Mof_C 	C 	0.9294	0.375	0.1794	0.46
Mof_C 	C 	0.9654	0.375	0.2154	-0.189
Mof_C 	C 	0.9704	0.125	0.2796	0.122
Mof_C 	C 	0.0706	0.125	0.1794	0.449
Mof_C 	C 	0.0346	0.125	0.2154	-0.173
Mof_C 	C 	0.4704	0.625	0.7796	0.103
Mof_C 	C 	0.5706	0.625	0.6794	0.455
Mof_C 	C 	0.5346	0.625	0.7154	-0.181
Mof_C 	C 	0.7204	0.4704	0.375	0.101
Mof_C 	C 	0.8206	0.5706	0.375	0.455
Mof_C 	C 	0.7846	0.5346	0.375	-0.18
Mof_C 	C 	0.2204	0.9704	0.875	0.128
Mof_C 	C 	0.3206	0.0706	0.875	0.451
Mof_C 	C 	0.2846	0.0346	0.875	-0.171
Mof_C 	C 	0.2204	0.0296	0.625	0.075
Mof_C 	C 	0.3206	0.9294	0.625	0.46
Mof_C 	C 	0.2846	0.9654	0.625	-0.189
Mof_C 	C 	0.7204	0.5296	0.125	0.098
Mof_C 	C 	0.8206	0.4294	0.125	0.455
Mof_C 	C 	0.7846	0.4654	0.125	-0.181
Mof_C 	C 	0.7796	0.5296	0.875	0.107
Mof_C 	C 	0.6794	0.4294	0.875	0.456
Mof_C 	C 	0.7154	0.4654	0.875	-0.18
Mof_C 	C 	0.2796	0.0296	0.375	0.076
Mof_C 	C 	0.1794	0.9294	0.375	0.46
Mof_C 	C 	0.2154	0.9654	0.375	-0.189
Mof_C 	C 	0.2796	0.9704	0.125	0.122
Mof_C 	C 	0.1794	0.0706	0.125	0.449
Mof_C 	C 	0.2154	0.0346	0.125	-0.173
Mof_C 	C 	0.7796	0.4704	0.625	0.103
Mof_C 	C 	0.6794	0.5706	0.625	0.455
Mof_C 	C 	0.7154	0.5346	0.625	-0.181
Mof_C 	C 	0.375	0.7204	0.4704	0.101
Mof_C 	C 	0.375	0.8206	0.5706	0.455
Mof_C 	C 	0.375	0.7846	0.5346	-0.18
Mof_C 	C 	0.875	0.2204	0.9704	0.128
Mof_C 	C 	0.875	0.3206	0.0706	0.451
Mof_C 	C 	0.875	0.2846	0.0346	-0.171
Mof_C 	C 	0.625	0.2204	0.0296	0.075
Mof_C 	C 	0.625	0.3206	0.9294	0.46
Mof_C 	C 	0.625	0.2846	0.9654	-0.189
Mof_C 	C 	0.125	0.7204	0.5296	0.098
Mof_C 	C 	0.125	0.8206	0.4294	0.455
Mof_C 	C 	0.125	0.7846	0.4654	-0.181
Mof_C 	C 	0.875	0.7796	0.5296	0.107
Mof_C 	C 	0.875	0.6794	0.4294	0.456
Mof_C 	C 	0.875	0.7154	0.4654	-0.18
Mof_C 	C 	0.375	0.2796	0.0296	0.076
Mof_C 	C 	0.375	0.1794	0.9294	0.46
Mof_C 	C 	0.375	0.2154	0.9654	-0.189
Mof_C 	C 	0.125	0.2796	0.9704	0.122
Mof_C 	C 	0.125	0.1794	0.0706	0.449
Mof_C 	C 	0.125	0.2154	0.0346	-0.173
Mof_C 	C 	0.625	0.7796	0.4704	0.103
Mof_C 	C 	0.625	0.6794	0.5706	0.455
Mof_C 	C 	0.625	0.7154	0.5346	-0.181
_end
