data_functionalizedCrystal
_audit_creation_method	'EQeq! by Chris Wilmer'
_symmetry_space_group_name_H-M	'P1'
_symmetry_Int_Tables_number	1
_symmetry_cell_setting	triclinic
loop_
_symmetry_equiv_pos_as_xyz
  x,y,z
_cell_length_a	8.2221
_cell_length_b	9.441
_cell_length_c	11.932
_cell_angle_alpha	90
_cell_angle_beta	90
_cell_angle_gamma	90
loop_
_atom_site_label
_atom_site_type_symbol
_atom_site_fract_x
_atom_site_fract_y
_atom_site_fract_z
_atom_site_charge
Mof_Ag	Ag	0.2946	0.1106	0.1818	0.47
Mof_Ag	Ag	0.7946	0.8894	0.8182	0.48
Mof_Ag	Ag	0.2946	0.3894	0.6818	0.473
Mof_Ag	Ag	0.7946	0.6106	0.3182	0.486
Mof_H 	H 	0.2672	0.2093	0.4447	-0.047
Mof_H 	H 	0.5615	0.321	0.2069	-0.034
Mof_H 	H 	0.5409	0.5351	0.5169	-0.035
Mof_H 	H 	0.7672	0.7907	0.5553	-0.045
Mof_H 	H 	0.0615	0.679	0.7931	-0.035
Mof_H 	H 	0.0409	0.4649	0.4831	-0.036
Mof_H 	H 	0.2672	0.2907	0.9447	-0.047
Mof_H 	H 	0.5615	0.179	0.7069	-0.033
Mof_H 	H 	0.5409	0.9649	0.0169	-0.035
Mof_H 	H 	0.7672	0.7093	0.0553	-0.045
Mof_H 	H 	0.0615	0.821	0.2931	-0.035
Mof_H 	H 	0.0409	0.0351	0.9831	-0.034
Mof_C 	C 	0.5261	0.3505	0.2871	0.076
Mof_C 	C 	0.3503	0.271	0.418	0.095
Mof_C 	C 	0.5239	0.4453	0.461	0.086
Mof_C 	C 	0.0261	0.6495	0.7129	0.063
Mof_C 	C 	0.8503	0.729	0.582	0.097
Mof_C 	C 	0.0239	0.5547	0.539	0.072
Mof_C 	C 	0.5261	0.1495	0.7871	0.077
Mof_C 	C 	0.3503	0.229	0.918	0.095
Mof_C 	C 	0.5239	0.0547	0.961	0.087
Mof_C 	C 	0.0261	0.8505	0.2129	0.062
Mof_C 	C 	0.8503	0.771	0.082	0.097
Mof_C 	C 	0.0239	0.9453	0.039	0.071
Mof_N 	N 	0.4043	0.2632	0.3131	-0.21
Mof_N 	N 	0.4069	0.1398	0.9948	-0.2
Mof_N 	N 	0.0906	0.9455	0.1403	-0.202
Mof_N 	N 	0.9043	0.7368	0.6869	-0.202
Mof_N 	N 	0.9069	0.8602	0.0052	-0.192
Mof_N 	N 	0.5906	0.0545	0.8597	-0.205
Mof_N 	N 	0.4043	0.2368	0.8131	-0.21
Mof_N 	N 	0.4069	0.3602	0.4948	-0.201
Mof_N 	N 	0.0906	0.5545	0.6403	-0.203
Mof_N 	N 	0.9043	0.7632	0.1869	-0.202
Mof_N 	N 	0.9069	0.6398	0.5052	-0.193
Mof_N 	N 	0.5906	0.4455	0.3597	-0.206
_end
