data_functionalizedCrystal
_audit_creation_method	'EQeq! by Chris Wilmer'
_symmetry_space_group_name_H-M	'P1'
_symmetry_Int_Tables_number	1
_symmetry_cell_setting	triclinic
loop_
_symmetry_equiv_pos_as_xyz
  x,y,z
_cell_length_a	8.413
_cell_length_b	11.8306
_cell_length_c	8.9468
_cell_angle_alpha	90
_cell_angle_beta	90
_cell_angle_gamma	90
loop_
_atom_site_label
_atom_site_type_symbol
_atom_site_fract_x
_atom_site_fract_y
_atom_site_fract_z
_atom_site_charge
Mof_O 	O 	0.43878	0.19286	0.11207	-0.349
Mof_O 	O 	0.5935	0.18212	0.91342	-0.366
Mof_O 	O 	0.24412	0.40639	0.1309	-0.351
Mof_C 	C 	0.4771	0.2207	0.9829	0.484
Mof_H 	H 	0.4143	0.2741	0.9346	-0.101
Mof_O 	O 	0.06122	0.80714	0.11207	-0.32
Mof_O 	O 	0.9065	0.81788	0.91342	-0.333
Mof_O 	O 	0.25588	0.59361	0.1309	-0.353
Mof_C 	C 	0.0229	0.7793	0.9829	0.459
Mof_H 	H 	0.0857	0.7259	0.9346	-0.091
Mof_O 	O 	0.06122	0.69286	0.38793	-0.34
Mof_O 	O 	0.9065	0.68212	0.58658	-0.356
Mof_O 	O 	0.25588	0.90639	0.3691	-0.285
Mof_C 	C 	0.0229	0.7207	0.5171	0.481
Mof_H 	H 	0.0857	0.7741	0.5654	-0.094
Mof_O 	O 	0.43878	0.30714	0.38793	-0.345
Mof_O 	O 	0.5935	0.31788	0.58658	-0.361
Mof_O 	O 	0.24412	0.09361	0.3691	-0.337
Mof_C 	C 	0.4771	0.2793	0.5171	0.485
Mof_H 	H 	0.4143	0.2259	0.5654	-0.105
Mof_O 	O 	0.56122	0.80714	0.88793	-0.329
Mof_O 	O 	0.4065	0.81788	0.08658	-0.344
Mof_O 	O 	0.75588	0.59361	0.8691	-0.352
Mof_C 	C 	0.5229	0.7793	0.0171	0.482
Mof_H 	H 	0.5857	0.7259	0.0654	-0.097
Mof_O 	O 	0.93878	0.19286	0.88793	-0.341
Mof_O 	O 	0.0935	0.18212	0.08658	-0.357
Mof_O 	O 	0.74412	0.40639	0.8691	-0.352
Mof_C 	C 	0.9771	0.2207	0.0171	0.463
Mof_H 	H 	0.9143	0.2741	0.0654	-0.095
Mof_O 	O 	0.93878	0.30714	0.61207	-0.344
Mof_O 	O 	0.0935	0.31788	0.41342	-0.359
Mof_O 	O 	0.74412	0.09361	0.6309	-0.336
Mof_C 	C 	0.9771	0.2793	0.4829	0.483
Mof_H 	H 	0.9143	0.2259	0.4346	-0.105
Mof_O 	O 	0.56122	0.69286	0.61207	-0.342
Mof_O 	O 	0.4065	0.68212	0.41342	-0.358
Mof_O 	O 	0.75588	0.90639	0.6309	-0.282
Mof_C 	C 	0.5229	0.7207	0.4829	0.486
Mof_H 	H 	0.5857	0.7741	0.4346	-0.094
Mof_Fe	Fe	0.2475	0.25	0.25	0.943
Mof_Fe	Fe	0.2525	0.75	0.25	0.95
Mof_Fe	Fe	0.7525	0.75	0.75	0.951
Mof_Fe	Fe	0.7475	0.25	0.75	0.943
Mof_C 	C 	0.25	0.5	0.1929	0.481
Mof_H 	H 	0.25	0.5	0.2969	-0.093
Mof_C 	C 	0.25	0	0.3071	0.373
Mof_H 	H 	0.25	0	0.2031	-0.077
Mof_C 	C 	0.75	0.5	0.8071	0.481
Mof_H 	H 	0.75	0.5	0.7031	-0.093
Mof_C 	C 	0.75	0	0.6929	0.368
Mof_H 	H 	0.75	-7.08704e-33	0.7969	-0.076
_end
