data_functionalizedCrystal
_audit_creation_method	'EQeq! by Chris Wilmer'
_symmetry_space_group_name_H-M	'P1'
_symmetry_Int_Tables_number	1
_symmetry_cell_setting	triclinic
loop_
_symmetry_equiv_pos_as_xyz
  x,y,z
_cell_length_a	11.5359
_cell_length_b	15.0948
_cell_length_c	22.6817
_cell_angle_alpha	90
_cell_angle_beta	91.483
_cell_angle_gamma	90
loop_
_atom_site_label
_atom_site_type_symbol
_atom_site_fract_x
_atom_site_fract_y
_atom_site_fract_z
_atom_site_charge
Mof_Cu	Cu	0.8841	0.7214	0.72786	0.855
Mof_C 	C 	0.057	0.628	0.81	0.078
Mof_H 	H 	0.0415	0.6625	0.843	-0.012
Mof_C 	C 	0.057	0.584	0.726	0.146
Mof_H 	H 	0.0421	0.5758	0.6857	-0.038
Mof_C 	C 	0.209	0.459	0.7393	0.078
Mof_H 	H 	0.2344	0.4687	0.6995	0.003
Mof_H 	H 	0.2776	0.4582	0.7649	0.009
Mof_C 	C 	0.16	0.377	0.7413	-0.263
Mof_H 	H 	0.116	0.3688	0.7768	0.117
Mof_H 	H 	0.218	0.3303	0.7392	0.1
Mof_C 	C 	0.084	0.377	0.689	0.058
Mof_H 	H 	0.0116	0.4051	0.6987	0.014
Mof_H 	H 	0.12	0.4125	0.6588	0.007
Mof_C 	C 	0.059	0.288	0.6643	-0.196
Mof_H 	H 	0.1299	0.2577	0.654	0.083
Mof_H 	H 	0.0182	0.2515	0.6925	0.097
Mof_C 	C 	0.984	0.305	0.6102	-0.037
Mof_H 	H 	0.0291	0.3251	0.5775	0.031
Mof_H 	H 	0.9236	0.3479	0.618	0.035
Mof_C 	C 	0.93	0.21	0.5976	-0.091
Mof_H 	H 	0.9939	0.1689	0.5925	0.061
Mof_H 	H 	0.8869	0.2127	0.5605	0.059
Mof_C 	C 	0.719	0.875	0.7303	0.086
Mof_H 	H 	0.7405	0.8882	0.769	-0.019
Mof_C 	C 	0.704	0.815	0.6521	0.118
Mof_H 	H 	0.7124	0.775	0.6211	-0.028
Mof_C 	C 	0.554	0.906	0.5989	-0.029
Mof_H 	H 	0.4922	0.942	0.6135	0.048
Mof_H 	H 	0.5199	0.8531	0.581	0.037
Mof_C 	C 	0.617	0.955	0.5537	-0.132
Mof_H 	H 	0.6853	0.9215	0.5439	0.066
Mof_H 	H 	0.6437	0.0104	0.5714	0.073
Mof_C 	C 	0.549	0.979	0.4937	-0.078
Mof_H 	H 	0.597	0.0166	0.4696	0.046
Mof_H 	H 	0.5319	0.9252	0.4718	0.048
Mof_C 	C 	0.161	0.937	0.599	-0.054
Mof_H 	H 	0.1571	0.9786	0.6311	0.051
Mof_H 	H 	0.2428	0.925	0.5936	0.048
Mof_C 	C 	0.126	0.985	0.548	-0.085
Mof_H 	H 	0.1341	0.048	0.557	0.045
Mof_H 	H 	0.1785	0.9719	0.5168	0.05
Mof_C 	C 	0.007	0.971	0.525	-0.088
Mof_H 	H 	0.951	0.9852	0.5547	0.059
Mof_H 	H 	0.9963	0.9097	0.5132	0.059
Mof_N 	N 	0.007	0.639	0.7539	-0.265
Mof_N 	N 	0.137	0.535	0.7563	-0.117
Mof_N 	N 	0.13	0.562	0.8087	-0.095
Mof_N 	N 	0.851	0.1717	0.644	-0.09
Mof_N 	N 	0.8786	0.1057	0.6793	-0.101
Mof_C 	C 	0.804	0.1044	0.722	0.106
Mof_H 	H 	0.8038	0.0643	0.7531	-0.022
Mof_N 	N 	0.731	0.1695	0.7131	-0.241
Mof_C 	C 	0.76	0.2111	0.665	0.094
Mof_H 	H 	0.7219	0.26	0.6485	-0.024
Mof_N 	N 	0.764	0.8072	0.7005	-0.256
Mof_N 	N 	0.631	0.8789	0.6484	-0.106
Mof_N 	N 	0.638	0.9221	0.6996	-0.096
Mof_N 	N 	0.988	0.7671	0.6658	-0.244
Mof_C 	C 	0.057	0.837	0.6724	0.089
Mof_H 	H 	0.0681	0.8701	0.7066	-0.021
Mof_N 	N 	0.109	0.8504	0.6215	-0.092
Mof_N 	N 	0.072	0.789	0.5834	-0.098
Mof_C 	C 	0.996	0.7377	0.6108	0.089
Mof_H 	H 	0.957	0.6896	0.5944	-0.021
Mof_Cu	Cu	0.6159	0.2214	0.77214	0.854
Mof_C 	C 	0.443	0.128	0.69	0.077
Mof_H 	H 	0.4585	0.1625	0.657	-0.013
Mof_C 	C 	0.443	0.084	0.774	0.145
Mof_H 	H 	0.4579	0.0758	0.8143	-0.039
Mof_C 	C 	0.291	0.959	0.7607	0.076
Mof_H 	H 	0.2656	0.9687	0.8005	0.004
Mof_H 	H 	0.2224	0.9582	0.7351	0.009
Mof_C 	C 	0.34	0.877	0.7587	-0.261
Mof_H 	H 	0.384	0.8688	0.7232	0.116
Mof_H 	H 	0.282	0.8303	0.7608	0.1
Mof_C 	C 	0.416	0.877	0.811	0.056
Mof_H 	H 	0.4884	0.9051	0.8013	0.014
Mof_H 	H 	0.38	0.9125	0.8412	0.008
Mof_C 	C 	0.441	0.788	0.8357	-0.194
Mof_H 	H 	0.3701	0.7577	0.846	0.083
Mof_H 	H 	0.4818	0.7515	0.8075	0.097
Mof_C 	C 	0.516	0.805	0.8898	-0.039
Mof_H 	H 	0.4709	0.8251	0.9225	0.032
Mof_H 	H 	0.5764	0.8479	0.882	0.036
Mof_C 	C 	0.57	0.71	0.9024	-0.09
Mof_H 	H 	0.5061	0.6689	0.9075	0.061
Mof_H 	H 	0.6131	0.7127	0.9395	0.059
Mof_C 	C 	0.781	0.375	0.7697	0.086
Mof_H 	H 	0.7595	0.3882	0.731	-0.019
Mof_C 	C 	0.796	0.315	0.8479	0.118
Mof_H 	H 	0.7876	0.275	0.8789	-0.028
Mof_C 	C 	0.946	0.406	0.9011	-0.03
Mof_H 	H 	0.0078	0.442	0.8865	0.048
Mof_H 	H 	0.9801	0.3531	0.919	0.037
Mof_C 	C 	0.883	0.455	0.9463	-0.131
Mof_H 	H 	0.8147	0.4215	0.9561	0.066
Mof_H 	H 	0.8563	0.5104	0.9286	0.073
Mof_C 	C 	0.951	0.479	0.0063	-0.078
Mof_H 	H 	0.903	0.5166	0.0304	0.046
Mof_H 	H 	0.9681	0.4252	0.0282	0.048
Mof_C 	C 	0.339	0.437	0.901	-0.054
Mof_H 	H 	0.3429	0.4786	0.8689	0.051
Mof_H 	H 	0.2572	0.425	0.9064	0.048
Mof_C 	C 	0.374	0.485	0.952	-0.085
Mof_H 	H 	0.3659	0.548	0.943	0.046
Mof_H 	H 	0.3215	0.4719	0.9832	0.05
Mof_C 	C 	0.493	0.471	0.975	-0.091
Mof_H 	H 	0.549	0.4852	0.9453	0.061
Mof_H 	H 	0.5037	0.4097	0.9868	0.061
Mof_N 	N 	0.493	0.139	0.7461	-0.266
Mof_N 	N 	0.363	0.035	0.7437	-0.117
Mof_N 	N 	0.37	0.062	0.6913	-0.096
Mof_N 	N 	0.649	0.6717	0.856	-0.09
Mof_N 	N 	0.6214	0.6057	0.8207	-0.102
Mof_C 	C 	0.696	0.6044	0.778	0.105
Mof_H 	H 	0.6962	0.5643	0.7469	-0.022
Mof_N 	N 	0.769	0.6695	0.7869	-0.242
Mof_C 	C 	0.74	0.7111	0.835	0.094
Mof_H 	H 	0.7781	0.76	0.8515	-0.024
Mof_N 	N 	0.736	0.3072	0.7995	-0.256
Mof_N 	N 	0.869	0.3789	0.8516	-0.106
Mof_N 	N 	0.862	0.4221	0.8004	-0.096
Mof_N 	N 	0.512	0.2671	0.8342	-0.243
Mof_C 	C 	0.443	0.337	0.8276	0.088
Mof_H 	H 	0.4319	0.3701	0.7934	-0.021
Mof_N 	N 	0.391	0.3504	0.8785	-0.092
Mof_N 	N 	0.428	0.289	0.9166	-0.098
Mof_C 	C 	0.504	0.2377	0.8892	0.09
Mof_H 	H 	0.543	0.1896	0.9056	-0.021
Mof_Cu	Cu	0.1159	0.2786	0.27214	0.854
Mof_C 	C 	0.943	0.372	0.19	0.077
Mof_H 	H 	0.9585	0.3375	0.157	-0.013
Mof_C 	C 	0.943	0.416	0.274	0.145
Mof_H 	H 	0.9579	0.4242	0.3143	-0.039
Mof_C 	C 	0.791	0.541	0.2607	0.077
Mof_H 	H 	0.7656	0.5313	0.3005	0.003
Mof_H 	H 	0.7224	0.5418	0.2351	0.009
Mof_C 	C 	0.84	0.623	0.2587	-0.263
Mof_H 	H 	0.884	0.6312	0.2232	0.117
Mof_H 	H 	0.782	0.6697	0.2608	0.1
Mof_C 	C 	0.916	0.623	0.311	0.058
Mof_H 	H 	0.9884	0.5949	0.3013	0.014
Mof_H 	H 	0.88	0.5875	0.3412	0.007
Mof_C 	C 	0.941	0.712	0.3357	-0.196
Mof_H 	H 	0.8701	0.7423	0.346	0.083
Mof_H 	H 	0.9818	0.7485	0.3075	0.097
Mof_C 	C 	0.016	0.695	0.3898	-0.037
Mof_H 	H 	0.9709	0.6749	0.4225	0.031
Mof_H 	H 	0.0764	0.6521	0.382	0.035
Mof_C 	C 	0.07	0.79	0.4024	-0.091
Mof_H 	H 	0.0061	0.8311	0.4075	0.061
Mof_H 	H 	0.1131	0.7873	0.4395	0.059
Mof_C 	C 	0.281	0.125	0.2697	0.086
Mof_H 	H 	0.2595	0.1118	0.231	-0.019
Mof_C 	C 	0.296	0.185	0.3479	0.118
Mof_H 	H 	0.2876	0.225	0.3789	-0.028
Mof_C 	C 	0.446	0.094	0.4011	-0.029
Mof_H 	H 	0.5078	0.058	0.3865	0.048
Mof_H 	H 	0.4801	0.1469	0.419	0.037
Mof_C 	C 	0.383	0.045	0.4463	-0.132
Mof_H 	H 	0.3147	0.0785	0.4561	0.066
Mof_H 	H 	0.3563	0.9896	0.4286	0.073
Mof_C 	C 	0.451	0.021	0.5063	-0.078
Mof_H 	H 	0.403	0.9834	0.5304	0.046
Mof_H 	H 	0.4681	0.0748	0.5282	0.048
Mof_C 	C 	0.839	0.063	0.401	-0.054
Mof_H 	H 	0.8429	0.0214	0.3689	0.051
Mof_H 	H 	0.7572	0.075	0.4064	0.048
Mof_C 	C 	0.874	0.015	0.452	-0.085
Mof_H 	H 	0.8659	0.952	0.443	0.045
Mof_H 	H 	0.8215	0.0281	0.4832	0.05
Mof_C 	C 	0.993	0.029	0.475	-0.088
Mof_H 	H 	0.049	0.0148	0.4453	0.059
Mof_H 	H 	0.0037	0.0903	0.4868	0.059
Mof_N 	N 	0.993	0.361	0.2461	-0.265
Mof_N 	N 	0.863	0.465	0.2437	-0.117
Mof_N 	N 	0.87	0.438	0.1913	-0.095
Mof_N 	N 	0.149	0.8283	0.356	-0.09
Mof_N 	N 	0.1214	0.8943	0.3207	-0.101
Mof_C 	C 	0.196	0.8956	0.278	0.106
Mof_H 	H 	0.1962	0.9357	0.2469	-0.022
Mof_N 	N 	0.269	0.8305	0.2869	-0.241
Mof_C 	C 	0.24	0.7889	0.335	0.094
Mof_H 	H 	0.2781	0.74	0.3515	-0.024
Mof_N 	N 	0.236	0.1928	0.2995	-0.256
Mof_N 	N 	0.369	0.1211	0.3516	-0.106
Mof_N 	N 	0.362	0.0779	0.3004	-0.096
Mof_N 	N 	0.012	0.2329	0.3342	-0.244
Mof_C 	C 	0.943	0.163	0.3276	0.089
Mof_H 	H 	0.9319	0.1299	0.2934	-0.021
Mof_N 	N 	0.891	0.1496	0.3785	-0.092
Mof_N 	N 	0.928	0.211	0.4166	-0.098
Mof_C 	C 	0.004	0.2623	0.3892	0.089
Mof_H 	H 	0.043	0.3104	0.4056	-0.021
Mof_Cu	Cu	0.3841	0.7786	0.22786	0.854
Mof_C 	C 	0.557	0.872	0.31	0.077
Mof_H 	H 	0.5415	0.8375	0.343	-0.013
Mof_C 	C 	0.557	0.916	0.226	0.145
Mof_H 	H 	0.5421	0.9242	0.1857	-0.039
Mof_C 	C 	0.709	0.041	0.2393	0.076
Mof_H 	H 	0.7344	0.0313	0.1995	0.004
Mof_H 	H 	0.7776	0.0418	0.2649	0.009
Mof_C 	C 	0.66	0.123	0.2413	-0.261
Mof_H 	H 	0.616	0.1312	0.2768	0.116
Mof_H 	H 	0.718	0.1697	0.2392	0.1
Mof_C 	C 	0.584	0.123	0.189	0.056
Mof_H 	H 	0.5116	0.0949	0.1987	0.014
Mof_H 	H 	0.62	0.0875	0.1588	0.008
Mof_C 	C 	0.559	0.212	0.1643	-0.194
Mof_H 	H 	0.6299	0.2423	0.154	0.083
Mof_H 	H 	0.5182	0.2485	0.1925	0.097
Mof_C 	C 	0.484	0.195	0.1102	-0.039
Mof_H 	H 	0.5291	0.1749	0.0775	0.032
Mof_H 	H 	0.4236	0.1521	0.118	0.036
Mof_C 	C 	0.43	0.29	0.0976	-0.09
Mof_H 	H 	0.4939	0.3311	0.0925	0.061
Mof_H 	H 	0.3869	0.2873	0.0605	0.059
Mof_C 	C 	0.219	0.625	0.2303	0.086
Mof_H 	H 	0.2405	0.6118	0.269	-0.019
Mof_C 	C 	0.204	0.685	0.1521	0.118
Mof_H 	H 	0.2124	0.725	0.1211	-0.028
Mof_C 	C 	0.054	0.594	0.0989	-0.03
Mof_H 	H 	0.9922	0.558	0.1135	0.048
Mof_H 	H 	0.0199	0.6469	0.081	0.037
Mof_C 	C 	0.117	0.545	0.0537	-0.131
Mof_H 	H 	0.1853	0.5785	0.0439	0.066
Mof_H 	H 	0.1437	0.4896	0.0714	0.073
Mof_C 	C 	0.049	0.521	0.9937	-0.078
Mof_H 	H 	0.097	0.4834	0.9696	0.046
Mof_H 	H 	0.0319	0.5748	0.9718	0.048
Mof_C 	C 	0.661	0.563	0.099	-0.054
Mof_H 	H 	0.6571	0.5214	0.1311	0.051
Mof_H 	H 	0.7428	0.575	0.0936	0.048
Mof_C 	C 	0.626	0.515	0.048	-0.085
Mof_H 	H 	0.6341	0.452	0.057	0.046
Mof_H 	H 	0.6785	0.5281	0.0168	0.05
Mof_C 	C 	0.507	0.529	0.025	-0.091
Mof_H 	H 	0.451	0.5148	0.0547	0.061
Mof_H 	H 	0.4963	0.5903	0.0132	0.061
Mof_N 	N 	0.507	0.861	0.2539	-0.266
Mof_N 	N 	0.637	0.965	0.2563	-0.117
Mof_N 	N 	0.63	0.938	0.3087	-0.096
Mof_N 	N 	0.351	0.3283	0.144	-0.09
Mof_N 	N 	0.3786	0.3943	0.1793	-0.102
Mof_C 	C 	0.304	0.3956	0.222	0.105
Mof_H 	H 	0.3038	0.4357	0.2531	-0.022
Mof_N 	N 	0.231	0.3305	0.2131	-0.242
Mof_C 	C 	0.26	0.2889	0.165	0.094
Mof_H 	H 	0.2219	0.24	0.1485	-0.024
Mof_N 	N 	0.264	0.6928	0.2005	-0.256
Mof_N 	N 	0.131	0.6211	0.1484	-0.106
Mof_N 	N 	0.138	0.5779	0.1996	-0.096
Mof_N 	N 	0.488	0.7329	0.1658	-0.243
Mof_C 	C 	0.557	0.663	0.1724	0.088
Mof_H 	H 	0.5681	0.6299	0.2066	-0.021
Mof_N 	N 	0.609	0.6496	0.1215	-0.092
Mof_N 	N 	0.572	0.711	0.0834	-0.098
Mof_C 	C 	0.496	0.7623	0.1108	0.09
Mof_H 	H 	0.457	0.8104	0.0944	-0.021
_end
