data_functionalizedCrystal
_audit_creation_method	'EQeq! by Chris Wilmer'
_symmetry_space_group_name_H-M	'P1'
_symmetry_Int_Tables_number	1
_symmetry_cell_setting	triclinic
loop_
_symmetry_equiv_pos_as_xyz
  x,y,z
_cell_length_a	22.136
_cell_length_b	16.647
_cell_length_c	16.551
_cell_angle_alpha	90
_cell_angle_beta	114.63
_cell_angle_gamma	90
loop_
_atom_site_label
_atom_site_type_symbol
_atom_site_fract_x
_atom_site_fract_y
_atom_site_fract_z
_atom_site_charge
Mof_O 	O 	0.0739	0.0846	0.6225	-0.452
Mof_O 	O 	0.96	0.0853	0.561	-0.47
Mof_O 	O 	0.3583	0.1356	0.5454	-0.229
Mof_C 	C 	0.0025	0.2482	0.9608	-0.069
Mof_H 	H 	0.004	0.2034	0.9281	0.055
Mof_C 	C 	0.0051	0.3307	0.9374	0.115
Mof_C 	C 	0.0133	0.3549	0.8609	-0.144
Mof_C 	C 	0.0143	0.4347	0.8381	0.115
Mof_C 	C 	0.0195	0.4594	0.7588	-0.088
Mof_H 	H 	0.0224	0.4261	0.7155	0.071
Mof_C 	C 	0.0155	0.2915	0.7984	0.136
Mof_C 	C 	0.9597	0.2669	0.7348	-0.165
Mof_H 	H 	0.9202	0.2904	0.7301	0.101
Mof_C 	C 	0.9563	0.2049	0.6711	0.07
Mof_H 	H 	0.9163	0.1877	0.6267	0.031
Mof_C 	C 	0.016	0.174	0.6814	-0.123
Mof_C 	C 	0.0738	0.1953	0.7469	0.064
Mof_H 	H 	0.113	0.1701	0.753	0.023
Mof_C 	C 	0.0751	0.2579	0.8081	-0.166
Mof_H 	H 	0.115	0.275	0.8529	0.091
Mof_C 	C 	0.016	0.1061	0.6153	0.357
Mof_C 	C 	0.381	0.0732	0.532	0.208
Mof_C 	C 	0.4708	0.1457	0.5079	-0.034
Mof_H 	H 	0.4513	0.194	0.5123	0.062
Mof_C 	C 	0.4434	0.0748	0.5165	-0.049
Mof_O 	O 	0.9261	0.0846	0.3775	-0.453
Mof_O 	O 	0.04	0.0853	0.439	-0.478
Mof_O 	O 	0.6417	0.1356	0.4546	-0.227
Mof_C 	C 	0.9975	0.2482	0.0392	-0.111
Mof_H 	H 	0.996	0.2034	0.0719	0.067
Mof_C 	C 	0.9949	0.3307	0.0626	0.119
Mof_C 	C 	0.9867	0.3549	0.1391	-0.152
Mof_C 	C 	0.9857	0.4347	0.1619	0.116
Mof_C 	C 	0.9805	0.4594	0.2412	-0.088
Mof_H 	H 	0.9776	0.4261	0.2845	0.073
Mof_C 	C 	0.9845	0.2915	0.2016	0.151
Mof_C 	C 	0.0403	0.2669	0.2652	-0.182
Mof_H 	H 	0.0798	0.2904	0.2699	0.103
Mof_C 	C 	0.0437	0.2049	0.3289	0.063
Mof_H 	H 	0.0837	0.1877	0.3733	0.031
Mof_C 	C 	0.984	0.174	0.3186	-0.116
Mof_C 	C 	0.9262	0.1953	0.2531	0.065
Mof_H 	H 	0.887	0.1701	0.247	0.021
Mof_C 	C 	0.9249	0.2579	0.1919	-0.173
Mof_H 	H 	0.885	0.275	0.1471	0.089
Mof_C 	C 	0.984	0.1061	0.3847	0.367
Mof_C 	C 	0.619	0.0732	0.468	0.209
Mof_C 	C 	0.5292	0.1457	0.4921	-0.034
Mof_H 	H 	0.5487	0.194	0.4877	0.062
Mof_C 	C 	0.5566	0.0748	0.4835	-0.048
Mof_O 	O 	0.9261	0.9154	0.3775	-0.417
Mof_O 	O 	0.04	0.9147	0.439	-0.444
Mof_O 	O 	0.6417	0.8644	0.4546	-0.223
Mof_C 	C 	0.9975	0.7518	0.0392	-0.105
Mof_H 	H 	0.996	0.7966	0.0719	0.078
Mof_C 	C 	0.9949	0.6693	0.0626	0.12
Mof_C 	C 	0.9867	0.6451	0.1391	-0.148
Mof_C 	C 	0.9857	0.5653	0.1619	0.115
Mof_C 	C 	0.9805	0.5406	0.2412	-0.087
Mof_H 	H 	0.9776	0.5739	0.2845	0.072
Mof_C 	C 	0.9845	0.7085	0.2016	0.147
Mof_C 	C 	0.0403	0.7331	0.2652	-0.172
Mof_H 	H 	0.0798	0.7096	0.2699	0.104
Mof_C 	C 	0.0437	0.7951	0.3289	0.058
Mof_H 	H 	0.0837	0.8123	0.3733	0.042
Mof_C 	C 	0.984	0.826	0.3186	-0.1
Mof_C 	C 	0.9262	0.8047	0.2531	0.06
Mof_H 	H 	0.887	0.8299	0.247	0.035
Mof_C 	C 	0.9249	0.7421	0.1919	-0.162
Mof_H 	H 	0.885	0.725	0.1471	0.091
Mof_C 	C 	0.984	0.8939	0.3847	0.365
Mof_C 	C 	0.619	0.9268	0.468	0.256
Mof_C 	C 	0.5292	0.8543	0.4921	-0.035
Mof_H 	H 	0.5487	0.806	0.4877	0.065
Mof_C 	C 	0.5566	0.9252	0.4835	-0.005
Mof_O 	O 	0.0739	0.9154	0.6225	-0.415
Mof_O 	O 	0.96	0.9147	0.561	-0.434
Mof_O 	O 	0.3583	0.8644	0.5454	-0.223
Mof_C 	C 	0.0025	0.7518	0.9608	-0.068
Mof_H 	H 	0.004	0.7966	0.9281	0.067
Mof_C 	C 	0.0051	0.6693	0.9374	0.117
Mof_C 	C 	0.0133	0.6451	0.8609	-0.141
Mof_C 	C 	0.0143	0.5653	0.8381	0.114
Mof_C 	C 	0.0195	0.5406	0.7588	-0.087
Mof_H 	H 	0.0224	0.5739	0.7155	0.07
Mof_C 	C 	0.0155	0.7085	0.7984	0.131
Mof_C 	C 	0.9597	0.7331	0.7348	-0.154
Mof_H 	H 	0.9202	0.7096	0.7301	0.101
Mof_C 	C 	0.9563	0.7951	0.6711	0.065
Mof_H 	H 	0.9163	0.8123	0.6267	0.042
Mof_C 	C 	0.016	0.826	0.6814	-0.107
Mof_C 	C 	0.0738	0.8047	0.7469	0.059
Mof_H 	H 	0.113	0.8299	0.753	0.037
Mof_C 	C 	0.0751	0.7421	0.8081	-0.156
Mof_H 	H 	0.115	0.725	0.8529	0.093
Mof_C 	C 	0.016	0.8939	0.6153	0.355
Mof_C 	C 	0.381	0.9268	0.532	0.255
Mof_C 	C 	0.4708	0.8543	0.5079	-0.034
Mof_H 	H 	0.4513	0.806	0.5123	0.065
Mof_C 	C 	0.4434	0.9252	0.5165	-0.005
Mof_Zn	Zn	0.07332	9.10644e-33	0.53624	1.206
Mof_N 	N 	0.1659	0	0.5441	-0.308
Mof_N 	N 	0.3558	0	0.5392	-0.24
Mof_C 	C 	0.2184	-9.10644e-33	0.6088	0.216
Mof_H 	H 	0.2145	0	0.6626	-0.061
Mof_C 	C 	0.286	9.10644e-33	0.6175	-0.31
Mof_H 	H 	0.3227	9.10644e-33	0.6721	0.138
Mof_C 	C 	0.2908	0	0.5411	0.287
Mof_C 	C 	0.2381	4.55322e-33	0.4675	-0.277
Mof_H 	H 	0.2425	4.55322e-33	0.4141	0.126
Mof_C 	C 	0.172	4.55322e-33	0.4659	0.132
Mof_H 	H 	0.1345	0	0.4121	-0.027
Mof_C 	C 	0.4689	0	0.5072	-0.025
Mof_Zn	Zn	0.92668	4.55322e-33	0.46376	1.207
Mof_N 	N 	0.8341	4.55322e-33	0.4559	-0.309
Mof_N 	N 	0.6442	4.55322e-33	0.4608	-0.24
Mof_C 	C 	0.7816	4.55322e-33	0.3912	0.216
Mof_H 	H 	0.7855	4.55322e-33	0.3374	-0.063
Mof_C 	C 	0.714	0	0.3825	-0.311
Mof_H 	H 	0.6773	0	0.3279	0.137
Mof_C 	C 	0.7092	4.55322e-33	0.4589	0.288
Mof_C 	C 	0.7619	9.10644e-33	0.5325	-0.277
Mof_H 	H 	0.7575	0	0.5859	0.128
Mof_C 	C 	0.828	9.10644e-33	0.5341	0.132
Mof_H 	H 	0.8655	0	0.5879	-0.025
Mof_C 	C 	0.5311	0	0.4928	-0.025
Mof_N 	N 	-2.27661e-33	0.3817	-0	-0.246
Mof_N 	N 	-0	0.6183	-0	-0.245
Mof_N 	N 	0.0121	0.5	0.8893	-0.233
Mof_N 	N 	0.9879	0.5	0.1107	-0.237
Mof_Mn	Mn	-4.55322e-33	0.5	-0	0.75
Mof_O 	O 	0.5739	0.5846	0.6225	-0.441
Mof_O 	O 	0.46	0.5853	0.561	-0.465
Mof_O 	O 	0.8583	0.6356	0.5454	-0.226
Mof_C 	C 	0.5025	0.7482	0.9608	-0.059
Mof_H 	H 	0.504	0.7034	0.9281	0.06
Mof_C 	C 	0.5051	0.8307	0.9374	0.123
Mof_C 	C 	0.5133	0.8549	0.8609	-0.14
Mof_C 	C 	0.5143	0.9347	0.8381	0.131
Mof_C 	C 	0.5195	0.9594	0.7588	0.021
Mof_H 	H 	0.5224	0.9261	0.7155	0.045
Mof_C 	C 	0.5155	0.7915	0.7984	0.145
Mof_C 	C 	0.4597	0.7669	0.7348	-0.172
Mof_H 	H 	0.4202	0.7904	0.7301	0.108
Mof_C 	C 	0.4563	0.7049	0.6711	0.069
Mof_H 	H 	0.4163	0.6877	0.6267	0.033
Mof_C 	C 	0.516	0.674	0.6814	-0.116
Mof_C 	C 	0.5738	0.6953	0.7469	0.068
Mof_H 	H 	0.613	0.6701	0.753	0.028
Mof_C 	C 	0.5751	0.7579	0.8081	-0.167
Mof_H 	H 	0.615	0.775	0.8529	0.098
Mof_C 	C 	0.516	0.6061	0.6153	0.365
Mof_C 	C 	0.881	0.5732	0.532	0.221
Mof_C 	C 	0.9708	0.6457	0.5079	-0.013
Mof_H 	H 	0.9513	0.694	0.5123	0.058
Mof_C 	C 	0.9434	0.5748	0.5165	-0.064
Mof_O 	O 	0.4261	0.5846	0.3775	-0.442
Mof_O 	O 	0.54	0.5853	0.439	-0.466
Mof_O 	O 	0.1417	0.6356	0.4546	-0.225
Mof_C 	C 	0.4975	0.7482	0.0392	-0.115
Mof_H 	H 	0.496	0.7034	0.0719	0.073
Mof_C 	C 	0.4949	0.8307	0.0626	0.125
Mof_C 	C 	0.4867	0.8549	0.1391	-0.145
Mof_C 	C 	0.4857	0.9347	0.1619	0.131
Mof_C 	C 	0.4805	0.9594	0.2412	0.023
Mof_H 	H 	0.4776	0.9261	0.2845	0.044
Mof_C 	C 	0.4845	0.7915	0.2016	0.146
Mof_C 	C 	0.5403	0.7669	0.2652	-0.174
Mof_H 	H 	0.5798	0.7904	0.2699	0.108
Mof_C 	C 	0.5437	0.7049	0.3289	0.069
Mof_H 	H 	0.5837	0.6877	0.3733	0.033
Mof_C 	C 	0.484	0.674	0.3186	-0.117
Mof_C 	C 	0.4262	0.6953	0.2531	0.067
Mof_H 	H 	0.387	0.6701	0.247	0.026
Mof_C 	C 	0.4249	0.7579	0.1919	-0.168
Mof_H 	H 	0.385	0.775	0.1471	0.094
Mof_C 	C 	0.484	0.6061	0.3847	0.365
Mof_C 	C 	0.119	0.5732	0.468	0.214
Mof_C 	C 	0.0292	0.6457	0.4921	-0.044
Mof_H 	H 	0.0487	0.694	0.4877	0.067
Mof_C 	C 	0.0566	0.5748	0.4835	-0.047
Mof_O 	O 	0.4261	0.4154	0.3775	-0.444
Mof_O 	O 	0.54	0.4147	0.439	-0.466
Mof_O 	O 	0.1417	0.3644	0.4546	-0.228
Mof_C 	C 	0.4975	0.2518	0.0392	-0.12
Mof_H 	H 	0.496	0.2966	0.0719	0.074
Mof_C 	C 	0.4949	0.1693	0.0626	0.12
Mof_C 	C 	0.4867	0.1451	0.1391	-0.164
Mof_C 	C 	0.4857	0.0653	0.1619	0.141
Mof_C 	C 	0.4805	0.0406	0.2412	-0.205
Mof_H 	H 	0.4776	0.0739	0.2845	0.105
Mof_C 	C 	0.4845	0.2085	0.2016	0.15
Mof_C 	C 	0.5403	0.2331	0.2652	-0.177
Mof_H 	H 	0.5798	0.2096	0.2699	0.103
Mof_C 	C 	0.5437	0.2951	0.3289	0.07
Mof_H 	H 	0.5837	0.3123	0.3733	0.031
Mof_C 	C 	0.484	0.326	0.3186	-0.12
Mof_C 	C 	0.4262	0.3047	0.2531	0.067
Mof_H 	H 	0.387	0.3299	0.247	0.023
Mof_C 	C 	0.4249	0.2421	0.1919	-0.173
Mof_H 	H 	0.385	0.225	0.1471	0.088
Mof_C 	C 	0.484	0.3939	0.3847	0.365
Mof_C 	C 	0.119	0.4268	0.468	0.215
Mof_C 	C 	0.0292	0.3543	0.4921	-0.044
Mof_H 	H 	0.0487	0.306	0.4877	0.066
Mof_C 	C 	0.0566	0.4252	0.4835	-0.048
Mof_O 	O 	0.5739	0.4154	0.6225	-0.442
Mof_O 	O 	0.46	0.4147	0.561	-0.466
Mof_O 	O 	0.8583	0.3644	0.5454	-0.229
Mof_C 	C 	0.5025	0.2518	0.9608	-0.06
Mof_H 	H 	0.504	0.2966	0.9281	0.059
Mof_C 	C 	0.5051	0.1693	0.9374	0.118
Mof_C 	C 	0.5133	0.1451	0.8609	-0.159
Mof_C 	C 	0.5143	0.0653	0.8381	0.143
Mof_C 	C 	0.5195	0.0406	0.7588	-0.202
Mof_H 	H 	0.5224	0.0739	0.7155	0.105
Mof_C 	C 	0.5155	0.2085	0.7984	0.149
Mof_C 	C 	0.4597	0.2331	0.7348	-0.176
Mof_H 	H 	0.4202	0.2096	0.7301	0.104
Mof_C 	C 	0.4563	0.2951	0.6711	0.07
Mof_H 	H 	0.4163	0.3123	0.6267	0.031
Mof_C 	C 	0.516	0.326	0.6814	-0.119
Mof_C 	C 	0.5738	0.3047	0.7469	0.068
Mof_H 	H 	0.613	0.3299	0.753	0.025
Mof_C 	C 	0.5751	0.2421	0.8081	-0.172
Mof_H 	H 	0.615	0.225	0.8529	0.092
Mof_C 	C 	0.516	0.3939	0.6153	0.366
Mof_C 	C 	0.881	0.4268	0.532	0.221
Mof_C 	C 	0.9708	0.3543	0.5079	-0.013
Mof_H 	H 	0.9513	0.306	0.5123	0.057
Mof_C 	C 	0.9434	0.4252	0.5165	-0.065
Mof_Zn	Zn	0.57332	0.5	0.53624	1.22
Mof_N 	N 	0.6659	0.5	0.5441	-0.302
Mof_N 	N 	0.8558	0.5	0.5392	-0.217
Mof_C 	C 	0.7184	0.5	0.6088	0.223
Mof_H 	H 	0.7145	0.5	0.6626	-0.051
Mof_C 	C 	0.786	0.5	0.6175	-0.308
Mof_H 	H 	0.8227	0.5	0.6721	0.15
Mof_C 	C 	0.7908	0.5	0.5411	0.3
Mof_C 	C 	0.7381	0.5	0.4675	-0.276
Mof_H 	H 	0.7425	0.5	0.4141	0.139
Mof_C 	C 	0.672	0.5	0.4659	0.142
Mof_H 	H 	0.6345	0.5	0.4121	-0.016
Mof_C 	C 	0.9689	0.5	0.5072	0.037
Mof_Zn	Zn	0.42668	0.5	0.46376	1.22
Mof_N 	N 	0.3341	0.5	0.4559	-0.302
Mof_N 	N 	0.1442	0.5	0.4608	-0.215
Mof_C 	C 	0.2816	0.5	0.3912	0.223
Mof_H 	H 	0.2855	0.5	0.3374	-0.053
Mof_C 	C 	0.214	0.5	0.3825	-0.308
Mof_H 	H 	0.1773	0.5	0.3279	0.147
Mof_C 	C 	0.2092	0.5	0.4589	0.299
Mof_C 	C 	0.2619	0.5	0.5325	-0.276
Mof_H 	H 	0.2575	0.5	0.5859	0.14
Mof_C 	C 	0.328	0.5	0.5341	0.142
Mof_H 	H 	0.3655	0.5	0.5879	-0.015
Mof_C 	C 	0.0311	0.5	0.4928	0.012
Mof_N 	N 	0.5	0.8817	-0	-0.223
Mof_N 	N 	0.5	0.1183	-0	-0.244
Mof_N 	N 	0.5121	0	0.8893	-0.259
Mof_N 	N 	0.4879	2.27661e-33	0.1107	-0.265
Mof_Mn	Mn	0.5	0	-0	0.705
_end
