data_functionalizedCrystal
_audit_creation_method	'EQeq! by Chris Wilmer'
_symmetry_space_group_name_H-M	'P1'
_symmetry_Int_Tables_number	1
_symmetry_cell_setting	triclinic
loop_
_symmetry_equiv_pos_as_xyz
  x,y,z
_cell_length_a	25.056
_cell_length_b	36.884
_cell_length_c	19.669
_cell_angle_alpha	90
_cell_angle_beta	123.272
_cell_angle_gamma	90
loop_
_atom_site_label
_atom_site_type_symbol
_atom_site_fract_x
_atom_site_fract_y
_atom_site_fract_z
_atom_site_charge
Mof_Co	Co	0.5988	0.21395	0.75703	1.16
Mof_Co	Co	0.50174	0.17635	0.5808	1.173
Mof_O 	O 	0.49531	0.22727	0.54152	-0.428
Mof_O 	O 	0.567	0.2516	0.66395	-0.443
Mof_O 	O 	0.04758	0.65103	0.0638	-0.352
Mof_O 	O 	0.0836	0.65498	0.9899	-0.476
Mof_O 	O 	0.85946	0.67818	0.64253	-0.44
Mof_O 	O 	0.91402	0.62625	0.6842	-0.488
Mof_O 	O 	0.0831	0.65746	0.60298	-0.475
Mof_O 	O 	0.15088	0.68313	0.72381	-0.458
Mof_O 	O 	0.55182	0.24561	0.80058	-0.399
Mof_O 	O 	0.51278	0.18554	0.68706	-0.609
Mof_C 	C 	0.52646	0.25368	0.5883	0.383
Mof_C 	C 	0.51399	0.29049	0.5497	-0.132
Mof_C 	C 	0.4721	0.29545	0.4681	0.064
Mof_H 	H 	0.4504	0.2751	0.4344	0.028
Mof_C 	C 	0.4608	0.32957	0.4335	-0.134
Mof_H 	H 	0.4317	0.3323	0.3765	0.078
Mof_C 	C 	0.49087	0.35932	0.4802	0.081
Mof_C 	C 	0.5351	0.35444	0.5646	-0.127
Mof_H 	H 	0.5576	0.3747	0.5982	0.075
Mof_C 	C 	0.5457	0.32017	0.5981	0.061
Mof_H 	H 	0.5751	0.317	0.6549	0.023
Mof_C 	C 	0.48076	0.39566	0.4474	-0.029
Mof_C 	C 	0.47521	0.42659	0.4264	-0.035
Mof_C 	C 	0.47267	0.46479	0.40923	0.103
Mof_C 	C 	0.41438	0.48309	0.367	-0.154
Mof_H 	H 	0.3756	0.4702	0.346	0.089
Mof_C 	C 	0.41353	0.5204	0.35583	0.098
Mof_C 	C 	0.47055	0.53912	0.3871	-0.152
Mof_H 	H 	0.4697	0.5646	0.3797	0.087
Mof_C 	C 	0.52867	0.5212	0.4289	0.098
Mof_C 	C 	0.52938	0.48367	0.4396	-0.149
Mof_H 	H 	0.5689	0.471	0.4678	0.088
Mof_C 	C 	0.35468	0.54018	0.3092	-0.037
Mof_C 	C 	0.30858	0.55857	0.2691	-0.034
Mof_C 	C 	0.2529	0.58058	0.2162	0.094
Mof_C 	C 	0.2077	0.58753	0.2339	-0.146
Mof_H 	H 	0.2124	0.5779	0.2817	0.081
Mof_C 	C 	0.1549	0.60893	0.1806	0.078
Mof_H 	H 	0.1245	0.6144	0.1936	0.018
Mof_C 	C 	0.1462	0.6221	0.1107	-0.157
Mof_C 	C 	0.19	0.6139	0.0927	0.079
Mof_H 	H 	0.1839	0.6225	0.0433	0.022
Mof_C 	C 	0.243	0.59342	0.1448	-0.148
Mof_H 	H 	0.2731	0.5881	0.131	0.083
Mof_C 	C 	0.0886	0.64475	0.0515	0.413
Mof_C 	C 	0.58712	0.54118	0.4612	-0.027
Mof_C 	C 	0.63396	0.55938	0.4878	-0.044
Mof_C 	C 	0.69072	0.58118	0.5225	0.114
Mof_C 	C 	0.6884	0.61798	0.5208	-0.169
Mof_H 	H 	0.6482	0.6299	0.4937	0.09
Mof_C 	C 	0.7442	0.63855	0.5583	0.097
Mof_H 	H 	0.7411	0.6642	0.5557	0.008
Mof_C 	C 	0.8028	0.62292	0.5986	-0.172
Mof_C 	C 	0.8044	0.58561	0.5976	0.097
Mof_H 	H 	0.8444	0.5735	0.6247	0.009
Mof_C 	C 	0.7493	0.56579	0.5583	-0.17
Mof_H 	H 	0.7522	0.5402	0.5558	0.089
Mof_C 	C 	0.8629	0.64425	0.6444	0.407
Mof_C 	C 	0.44278	0.32132	0.7051	0.058
Mof_H 	H 	0.4036	0.3085	0.6742	0.015
Mof_C 	C 	0.44257	0.35895	0.7052	-0.133
Mof_H 	H 	0.4035	0.3719	0.6748	0.076
Mof_C 	C 	0.44327	0.50728	0.7201	-0.154
Mof_H 	H 	0.4043	0.4944	0.6981	0.089
Mof_C 	C 	0.44358	0.5451	0.7223	0.102
Mof_C 	C 	0.38677	0.56487	0.7006	-0.036
Mof_C 	C 	0.3415	0.5815	0.6889	-0.03
Mof_C 	C 	0.29016	0.60209	0.682	0.087
Mof_C 	C 	0.2314	0.60404	0.6096	-0.137
Mof_H 	H 	0.2246	0.592	0.5628	0.079
Mof_C 	C 	0.13762	0.66263	0.6663	0.398
Mof_C 	C 	0.19126	0.64183	0.6707	-0.143
Mof_C 	C 	0.25032	0.6398	0.7443	0.067
Mof_H 	H 	0.257	0.6521	0.7908	0.021
Mof_C 	C 	0.29889	0.61995	0.7496	-0.137
Mof_H 	H 	0.3389	0.6184	0.8001	0.079
Mof_C 	C 	0.1821	0.62348	0.605	0.068
Mof_H 	H 	0.1413	0.624	0.5553	0.024
Mof_Co	Co	0.0988	0.71395	0.75703	1.159
Mof_Co	Co	0.00174	0.67635	0.5808	1.162
Mof_O 	O 	0.99531	0.72727	0.54152	-0.408
Mof_O 	O 	0.067	0.7516	0.66395	-0.444
Mof_O 	O 	0.54758	0.15103	0.0638	-0.344
Mof_O 	O 	0.5836	0.15498	0.9899	-0.472
Mof_O 	O 	0.35946	0.17818	0.64253	-0.443
Mof_O 	O 	0.41402	0.12625	0.6842	-0.497
Mof_O 	O 	0.5831	0.15746	0.60298	-0.47
Mof_O 	O 	0.65088	0.18313	0.72381	-0.458
Mof_O 	O 	0.05182	0.74561	0.80058	-0.399
Mof_O 	O 	0.01278	0.68554	0.68706	-0.619
Mof_C 	C 	0.02646	0.75368	0.5883	0.374
Mof_C 	C 	0.01399	0.79049	0.5497	-0.186
Mof_C 	C 	0.9721	0.79545	0.4681	0.133
Mof_H 	H 	0.9504	0.7751	0.4344	0.01
Mof_C 	C 	0.9608	0.82957	0.4335	-0.184
Mof_H 	H 	0.9317	0.8323	0.3765	0.098
Mof_C 	C 	0.99087	0.85932	0.4802	0.139
Mof_C 	C 	0.0351	0.85444	0.5646	-0.193
Mof_H 	H 	0.0576	0.8747	0.5982	0.093
Mof_C 	C 	0.0457	0.82017	0.5981	0.107
Mof_H 	H 	0.0751	0.817	0.6549	0.007
Mof_C 	C 	0.98076	0.89566	0.4474	-0.041
Mof_C 	C 	0.97521	0.92659	0.4264	-0.024
Mof_C 	C 	0.97267	0.96479	0.40923	0.121
Mof_C 	C 	0.91438	0.98309	0.367	-0.155
Mof_H 	H 	0.8756	0.9702	0.346	0.089
Mof_C 	C 	0.91353	0.0204	0.35583	0.091
Mof_C 	C 	0.97055	0.03912	0.3871	-0.12
Mof_H 	H 	0.9697	0.0646	0.3797	0.084
Mof_C 	C 	0.02867	0.0212	0.4289	0.077
Mof_C 	C 	0.02938	0.98367	0.4396	-0.169
Mof_H 	H 	0.0689	0.971	0.4678	0.091
Mof_C 	C 	0.85468	0.04018	0.3092	-0.032
Mof_C 	C 	0.80858	0.05857	0.2691	-0.034
Mof_C 	C 	0.7529	0.08058	0.2162	0.096
Mof_C 	C 	0.7077	0.08753	0.2339	-0.145
Mof_H 	H 	0.7124	0.0779	0.2817	0.082
Mof_C 	C 	0.6549	0.10893	0.1806	0.078
Mof_H 	H 	0.6245	0.1144	0.1936	0.021
Mof_C 	C 	0.6462	0.1221	0.1107	-0.155
Mof_C 	C 	0.69	0.1139	0.0927	0.079
Mof_H 	H 	0.6839	0.1225	0.0433	0.024
Mof_C 	C 	0.743	0.09342	0.1448	-0.148
Mof_H 	H 	0.7731	0.0881	0.131	0.084
Mof_C 	C 	0.5886	0.14475	0.0515	0.413
Mof_C 	C 	0.08712	0.04118	0.4612	-0.021
Mof_C 	C 	0.13396	0.05938	0.4878	-0.05
Mof_C 	C 	0.19072	0.08118	0.5225	0.118
Mof_C 	C 	0.1884	0.11798	0.5208	-0.172
Mof_H 	H 	0.1482	0.1299	0.4937	0.09
Mof_C 	C 	0.2442	0.13855	0.5583	0.099
Mof_H 	H 	0.2411	0.1642	0.5557	0.007
Mof_C 	C 	0.3028	0.12292	0.5986	-0.175
Mof_C 	C 	0.3044	0.08561	0.5976	0.1
Mof_H 	H 	0.3444	0.0735	0.6247	0.006
Mof_C 	C 	0.2493	0.06579	0.5583	-0.173
Mof_H 	H 	0.2522	0.0402	0.5558	0.089
Mof_C 	C 	0.3629	0.14425	0.6444	0.409
Mof_C 	C 	0.94278	0.82132	0.7051	0.072
Mof_H 	H 	0.9036	0.8085	0.6742	0.012
Mof_C 	C 	0.94257	0.85895	0.7052	-0.108
Mof_H 	H 	0.9035	0.8719	0.6748	0.071
Mof_C 	C 	0.94327	0.00728	0.7201	-0.134
Mof_H 	H 	0.9043	0.9944	0.6981	0.085
Mof_C 	C 	0.94358	0.0451	0.7223	0.121
Mof_C 	C 	0.88677	0.06487	0.7006	-0.039
Mof_C 	C 	0.8415	0.0815	0.6889	-0.025
Mof_C 	C 	0.79016	0.10209	0.682	0.085
Mof_C 	C 	0.7314	0.10404	0.6096	-0.134
Mof_H 	H 	0.7246	0.092	0.5628	0.079
Mof_C 	C 	0.63762	0.16263	0.6663	0.397
Mof_C 	C 	0.69126	0.14183	0.6707	-0.139
Mof_C 	C 	0.75032	0.1398	0.7443	0.065
Mof_H 	H 	0.757	0.1521	0.7908	0.022
Mof_C 	C 	0.79889	0.11995	0.7496	-0.134
Mof_H 	H 	0.8389	0.1184	0.8001	0.079
Mof_C 	C 	0.6821	0.12348	0.605	0.066
Mof_H 	H 	0.6413	0.124	0.5553	0.028
Mof_Co	Co	0.4012	0.21395	0.74297	1.159
Mof_Co	Co	0.49826	0.17635	0.9192	1.171
Mof_O 	O 	0.50469	0.22727	0.95848	-0.432
Mof_O 	O 	0.433	0.2516	0.83605	-0.445
Mof_O 	O 	0.95242	0.65103	0.4362	-0.335
Mof_O 	O 	0.9164	0.65498	0.5101	-0.46
Mof_O 	O 	0.14054	0.67818	0.85747	-0.445
Mof_O 	O 	0.08598	0.62625	0.8158	-0.502
Mof_O 	O 	0.9169	0.65746	0.89702	-0.465
Mof_O 	O 	0.84912	0.68313	0.77619	-0.457
Mof_O 	O 	0.44818	0.24561	0.69942	-0.4
Mof_O 	O 	0.48722	0.18554	0.81294	-0.61
Mof_C 	C 	0.47354	0.25368	0.9117	0.386
Mof_C 	C 	0.48601	0.29049	0.9503	-0.143
Mof_C 	C 	0.5279	0.29545	0.0319	0.077
Mof_H 	H 	0.5496	0.2751	0.0656	0.025
Mof_C 	C 	0.5392	0.32957	0.0665	-0.143
Mof_H 	H 	0.5683	0.3323	0.1235	0.082
Mof_C 	C 	0.50913	0.35932	0.0198	0.091
Mof_C 	C 	0.4649	0.35444	0.9354	-0.138
Mof_H 	H 	0.4424	0.3747	0.9018	0.078
Mof_C 	C 	0.4543	0.32017	0.9019	0.069
Mof_H 	H 	0.4249	0.317	0.8451	0.02
Mof_C 	C 	0.51924	0.39566	0.0526	-0.032
Mof_C 	C 	0.52479	0.42659	0.0736	-0.032
Mof_C 	C 	0.52733	0.46479	0.09077	0.102
Mof_C 	C 	0.58562	0.48309	0.133	-0.154
Mof_H 	H 	0.6244	0.4702	0.154	0.09
Mof_C 	C 	0.58647	0.5204	0.14417	0.099
Mof_C 	C 	0.52945	0.53912	0.1129	-0.152
Mof_H 	H 	0.5303	0.5646	0.1203	0.087
Mof_C 	C 	0.47133	0.5212	0.0711	0.099
Mof_C 	C 	0.47062	0.48367	0.0604	-0.148
Mof_H 	H 	0.4311	0.471	0.0322	0.088
Mof_C 	C 	0.64532	0.54018	0.1908	-0.037
Mof_C 	C 	0.69142	0.55857	0.2309	-0.031
Mof_C 	C 	0.7471	0.58058	0.2838	0.092
Mof_C 	C 	0.7923	0.58753	0.2661	-0.14
Mof_H 	H 	0.7876	0.5779	0.2183	0.082
Mof_C 	C 	0.8451	0.60893	0.3194	0.073
Mof_H 	H 	0.8755	0.6144	0.3064	0.025
Mof_C 	C 	0.8538	0.6221	0.3893	-0.148
Mof_C 	C 	0.81	0.6139	0.4073	0.074
Mof_H 	H 	0.8161	0.6225	0.4567	0.025
Mof_C 	C 	0.757	0.59342	0.3552	-0.143
Mof_H 	H 	0.7269	0.5881	0.369	0.081
Mof_C 	C 	0.9114	0.64475	0.4485	0.404
Mof_C 	C 	0.41288	0.54118	0.0388	-0.027
Mof_C 	C 	0.36604	0.55938	0.0122	-0.042
Mof_C 	C 	0.30928	0.58118	0.9775	0.115
Mof_C 	C 	0.3116	0.61798	0.9792	-0.177
Mof_H 	H 	0.3518	0.6299	0.0063	0.095
Mof_C 	C 	0.2558	0.63855	0.9417	0.102
Mof_H 	H 	0.2589	0.6642	0.9443	0.005
Mof_C 	C 	0.1972	0.62292	0.9014	-0.178
Mof_C 	C 	0.1956	0.58561	0.9024	0.1
Mof_H 	H 	0.1556	0.5735	0.8753	0.004
Mof_C 	C 	0.2507	0.56579	0.9417	-0.173
Mof_H 	H 	0.2478	0.5402	0.9442	0.087
Mof_C 	C 	0.1371	0.64425	0.8556	0.41
Mof_C 	C 	0.55722	0.32132	0.7949	0.057
Mof_H 	H 	0.5964	0.3085	0.8258	0.014
Mof_C 	C 	0.55743	0.35895	0.7948	-0.133
Mof_H 	H 	0.5965	0.3719	0.8252	0.076
Mof_C 	C 	0.55673	0.50728	0.7799	-0.155
Mof_H 	H 	0.5957	0.4944	0.8019	0.089
Mof_C 	C 	0.55642	0.5451	0.7777	0.102
Mof_C 	C 	0.61323	0.56487	0.7994	-0.036
Mof_C 	C 	0.6585	0.5815	0.8111	-0.029
Mof_C 	C 	0.70984	0.60209	0.818	0.086
Mof_C 	C 	0.7686	0.60404	0.8904	-0.134
Mof_H 	H 	0.7754	0.592	0.9372	0.079
Mof_C 	C 	0.86238	0.66263	0.8337	0.397
Mof_C 	C 	0.80874	0.64183	0.8293	-0.138
Mof_C 	C 	0.74968	0.6398	0.7557	0.065
Mof_H 	H 	0.743	0.6521	0.7092	0.022
Mof_C 	C 	0.70111	0.61995	0.7504	-0.134
Mof_H 	H 	0.6611	0.6184	0.6999	0.079
Mof_C 	C 	0.8179	0.62348	0.895	0.066
Mof_H 	H 	0.8587	0.624	0.9447	0.029
Mof_Co	Co	0.9012	0.71395	0.74297	1.16
Mof_Co	Co	0.99826	0.67635	0.9192	1.18
Mof_O 	O 	0.00469	0.72727	0.95848	-0.45
Mof_O 	O 	0.933	0.7516	0.83605	-0.443
Mof_O 	O 	0.45242	0.15103	0.4362	-0.344
Mof_O 	O 	0.4164	0.15498	0.5101	-0.468
Mof_O 	O 	0.64054	0.17818	0.85747	-0.444
Mof_O 	O 	0.58598	0.12625	0.8158	-0.498
Mof_O 	O 	0.4169	0.15746	0.89702	-0.47
Mof_O 	O 	0.34912	0.18313	0.77619	-0.458
Mof_O 	O 	0.94818	0.74561	0.69942	-0.381
Mof_O 	O 	0.98722	0.68554	0.81294	-0.599
Mof_C 	C 	0.97354	0.75368	0.9117	0.393
Mof_C 	C 	0.98601	0.79049	0.9503	-0.089
Mof_C 	C 	0.0279	0.79545	0.0319	0.01
Mof_H 	H 	0.0496	0.7751	0.0656	0.043
Mof_C 	C 	0.0392	0.82957	0.0665	-0.094
Mof_H 	H 	0.0683	0.8323	0.1235	0.063
Mof_C 	C 	0.00913	0.85932	0.0198	0.034
Mof_C 	C 	0.9649	0.85444	0.9354	-0.074
Mof_H 	H 	0.9424	0.8747	0.9018	0.061
Mof_C 	C 	0.9543	0.82017	0.9019	0.025
Mof_H 	H 	0.9249	0.817	0.8451	0.037
Mof_C 	C 	0.01924	0.89566	0.0526	-0.02
Mof_C 	C 	0.02479	0.92659	0.0736	-0.042
Mof_C 	C 	0.02733	0.96479	0.09077	0.083
Mof_C 	C 	0.08562	0.98309	0.133	-0.153
Mof_H 	H 	0.1244	0.9702	0.154	0.09
Mof_C 	C 	0.08647	0.0204	0.14417	0.106
Mof_C 	C 	0.02945	0.03912	0.1129	-0.184
Mof_H 	H 	0.0303	0.0646	0.1203	0.092
Mof_C 	C 	0.97133	0.0212	0.0711	0.124
Mof_C 	C 	0.97062	0.98367	0.0604	-0.127
Mof_H 	H 	0.9311	0.971	0.0322	0.086
Mof_C 	C 	0.14532	0.04018	0.1908	-0.042
Mof_C 	C 	0.19142	0.05857	0.2309	-0.031
Mof_C 	C 	0.2471	0.08058	0.2838	0.091
Mof_C 	C 	0.2923	0.08753	0.2661	-0.142
Mof_H 	H 	0.2876	0.0779	0.2183	0.081
Mof_C 	C 	0.3451	0.10893	0.3194	0.074
Mof_H 	H 	0.3755	0.1144	0.3064	0.022
Mof_C 	C 	0.3538	0.1221	0.3893	-0.152
Mof_C 	C 	0.31	0.1139	0.4073	0.075
Mof_H 	H 	0.3161	0.1225	0.4567	0.023
Mof_C 	C 	0.257	0.09342	0.3552	-0.145
Mof_H 	H 	0.2269	0.0881	0.369	0.081
Mof_C 	C 	0.4114	0.14475	0.4485	0.407
Mof_C 	C 	0.91288	0.04118	0.0388	-0.031
Mof_C 	C 	0.86604	0.05938	0.0122	-0.034
Mof_C 	C 	0.80928	0.08118	0.9775	0.111
Mof_C 	C 	0.8116	0.11798	0.9792	-0.179
Mof_H 	H 	0.8518	0.1299	0.0063	0.099
Mof_C 	C 	0.7558	0.13855	0.9417	0.102
Mof_H 	H 	0.7589	0.1642	0.9443	0.005
Mof_C 	C 	0.6972	0.12292	0.9014	-0.176
Mof_C 	C 	0.6956	0.08561	0.9024	0.098
Mof_H 	H 	0.6556	0.0735	0.8753	0.006
Mof_C 	C 	0.7507	0.06579	0.9417	-0.17
Mof_H 	H 	0.7478	0.0402	0.9442	0.086
Mof_C 	C 	0.6371	0.14425	0.8556	0.409
Mof_C 	C 	0.05722	0.82132	0.7949	0.055
Mof_H 	H 	0.0964	0.8085	0.8258	0.015
Mof_C 	C 	0.05743	0.85895	0.7948	-0.126
Mof_H 	H 	0.0965	0.8719	0.8252	0.073
Mof_C 	C 	0.05673	0.00728	0.7799	-0.151
Mof_H 	H 	0.0957	0.9944	0.8019	0.088
Mof_C 	C 	0.05642	0.0451	0.7777	0.106
Mof_C 	C 	0.11323	0.06487	0.7994	-0.039
Mof_C 	C 	0.1585	0.0815	0.8111	-0.029
Mof_C 	C 	0.20984	0.10209	0.818	0.085
Mof_C 	C 	0.2686	0.10404	0.8904	-0.135
Mof_H 	H 	0.2754	0.092	0.9372	0.078
Mof_C 	C 	0.36238	0.16263	0.8337	0.397
Mof_C 	C 	0.30874	0.14183	0.8293	-0.14
Mof_C 	C 	0.24968	0.1398	0.7557	0.065
Mof_H 	H 	0.243	0.1521	0.7092	0.021
Mof_C 	C 	0.20111	0.11995	0.7504	-0.135
Mof_H 	H 	0.1611	0.1184	0.6999	0.079
Mof_C 	C 	0.3179	0.12348	0.895	0.067
Mof_H 	H 	0.3587	0.124	0.9447	0.026
Mof_Co	Co	0.5	0.14626	0.75	1.147
Mof_C 	C 	0.5	0.26144	0.75	0.354
Mof_C 	C 	0.5	0.30221	0.75	-0.127
Mof_C 	C 	0.5	0.37737	0.75	0.081
Mof_C 	C 	0.5	0.41699	0.75	-0.029
Mof_C 	C 	0.5	0.44933	0.75	-0.036
Mof_C 	C 	0.5	0.48842	0.75	0.105
Mof_C 	C 	0.5	0.56395	0.75	-0.156
Mof_H 	H 	0.5	0.5897	0.75	0.09
Mof_Co	Co	5.98443e-17	0.64626	0.75	1.138
Mof_C 	C 	5.98443e-17	0.76144	0.75	0.333
Mof_C 	C 	5.98443e-17	0.80221	0.75	-0.142
Mof_C 	C 	5.98443e-17	0.87737	0.75	0.055
Mof_C 	C 	5.98443e-17	0.91699	0.75	-0.03
Mof_C 	C 	5.98443e-17	0.94933	0.75	-0.039
Mof_C 	C 	5.98443e-17	0.98842	0.75	0.083
Mof_C 	C 	3.41851e-33	0.06395	0.75	-0.183
Mof_H 	H 	3.41851e-33	0.0897	0.75	0.093
Mof_Co	Co	0.4012	0.78605	0.24297	1.159
Mof_Co	Co	0.49826	0.82365	0.4192	1.172
Mof_O 	O 	0.50469	0.77273	0.45848	-0.429
Mof_O 	O 	0.433	0.7484	0.33605	-0.444
Mof_O 	O 	0.95242	0.34897	0.9362	-0.335
Mof_O 	O 	0.9164	0.34502	0.0101	-0.453
Mof_O 	O 	0.14054	0.32182	0.35747	-0.445
Mof_O 	O 	0.08598	0.37375	0.3158	-0.502
Mof_O 	O 	0.9169	0.34254	0.39702	-0.463
Mof_O 	O 	0.84912	0.31687	0.27619	-0.457
Mof_O 	O 	0.44818	0.75439	0.19942	-0.4
Mof_O 	O 	0.48722	0.81446	0.31294	-0.61
Mof_C 	C 	0.47354	0.74632	0.4117	0.383
Mof_C 	C 	0.48601	0.70951	0.4503	-0.132
Mof_C 	C 	0.5279	0.70455	0.5319	0.064
Mof_H 	H 	0.5496	0.7249	0.5656	0.028
Mof_C 	C 	0.5392	0.67043	0.5665	-0.134
Mof_H 	H 	0.5683	0.6677	0.6235	0.078
Mof_C 	C 	0.50913	0.64068	0.5198	0.081
Mof_C 	C 	0.4649	0.64556	0.4354	-0.127
Mof_H 	H 	0.4424	0.6253	0.4018	0.075
Mof_C 	C 	0.4543	0.67983	0.4019	0.06
Mof_H 	H 	0.4249	0.683	0.3451	0.023
Mof_C 	C 	0.51924	0.60434	0.5526	-0.029
Mof_C 	C 	0.52479	0.57341	0.5736	-0.035
Mof_C 	C 	0.52733	0.53521	0.59077	0.103
Mof_C 	C 	0.58562	0.51691	0.633	-0.155
Mof_H 	H 	0.6244	0.5298	0.654	0.09
Mof_C 	C 	0.58647	0.4796	0.64417	0.099
Mof_C 	C 	0.52945	0.46088	0.6129	-0.152
Mof_H 	H 	0.5303	0.4354	0.6203	0.087
Mof_C 	C 	0.47133	0.4788	0.5711	0.098
Mof_C 	C 	0.47062	0.51633	0.5604	-0.149
Mof_H 	H 	0.4311	0.529	0.5322	0.088
Mof_C 	C 	0.64532	0.45982	0.6908	-0.038
Mof_C 	C 	0.69142	0.44143	0.7309	-0.031
Mof_C 	C 	0.7471	0.41942	0.7838	0.09
Mof_C 	C 	0.7923	0.41247	0.7661	-0.139
Mof_H 	H 	0.7876	0.4221	0.7183	0.081
Mof_C 	C 	0.8451	0.39107	0.8194	0.071
Mof_H 	H 	0.8755	0.3856	0.8064	0.025
Mof_C 	C 	0.8538	0.3779	0.8893	-0.146
Mof_C 	C 	0.81	0.3861	0.9073	0.072
Mof_H 	H 	0.8161	0.3775	0.9567	0.023
Mof_C 	C 	0.757	0.40658	0.8552	-0.142
Mof_H 	H 	0.7269	0.4119	0.869	0.08
Mof_C 	C 	0.9114	0.35525	0.9485	0.396
Mof_C 	C 	0.41288	0.45882	0.5388	-0.026
Mof_C 	C 	0.36604	0.44062	0.5122	-0.046
Mof_C 	C 	0.30928	0.41882	0.4775	0.116
Mof_C 	C 	0.3116	0.38202	0.4792	-0.172
Mof_H 	H 	0.3518	0.3701	0.5063	0.091
Mof_C 	C 	0.2558	0.36145	0.4417	0.099
Mof_H 	H 	0.2589	0.3358	0.4443	0.007
Mof_C 	C 	0.1972	0.37708	0.4014	-0.176
Mof_C 	C 	0.1956	0.41439	0.4024	0.1
Mof_H 	H 	0.1556	0.4265	0.3753	0.004
Mof_C 	C 	0.2507	0.43421	0.4417	-0.173
Mof_H 	H 	0.2478	0.4598	0.4442	0.088
Mof_C 	C 	0.1371	0.35575	0.3556	0.41
Mof_C 	C 	0.55722	0.67868	0.2949	0.057
Mof_H 	H 	0.5964	0.6915	0.3258	0.015
Mof_C 	C 	0.55743	0.64105	0.2948	-0.133
Mof_H 	H 	0.5965	0.6281	0.3252	0.076
Mof_C 	C 	0.55673	0.49272	0.2799	-0.155
Mof_H 	H 	0.5957	0.5056	0.3019	0.09
Mof_C 	C 	0.55642	0.4549	0.2777	0.103
Mof_C 	C 	0.61323	0.43513	0.2994	-0.036
Mof_C 	C 	0.6585	0.4185	0.3111	-0.028
Mof_C 	C 	0.70984	0.39791	0.318	0.086
Mof_C 	C 	0.7686	0.39596	0.3904	-0.133
Mof_H 	H 	0.7754	0.408	0.4372	0.08
Mof_C 	C 	0.86238	0.33737	0.3337	0.396
Mof_C 	C 	0.80874	0.35817	0.3293	-0.137
Mof_C 	C 	0.74968	0.3602	0.2557	0.064
Mof_H 	H 	0.743	0.3479	0.2092	0.022
Mof_C 	C 	0.70111	0.38005	0.2504	-0.134
Mof_H 	H 	0.6611	0.3816	0.1999	0.079
Mof_C 	C 	0.8179	0.37652	0.395	0.066
Mof_H 	H 	0.8587	0.376	0.4447	0.031
Mof_Co	Co	0.9012	0.28605	0.24297	1.16
Mof_Co	Co	0.99826	0.32365	0.4192	1.182
Mof_O 	O 	0.00469	0.27273	0.45848	-0.451
Mof_O 	O 	0.933	0.2484	0.33605	-0.442
Mof_O 	O 	0.45242	0.84897	0.9362	-0.345
Mof_O 	O 	0.4164	0.84502	0.0101	-0.464
Mof_O 	O 	0.64054	0.82182	0.35747	-0.443
Mof_O 	O 	0.58598	0.87375	0.3158	-0.497
Mof_O 	O 	0.4169	0.84254	0.39702	-0.47
Mof_O 	O 	0.34912	0.81687	0.27619	-0.458
Mof_O 	O 	0.94818	0.25439	0.19942	-0.379
Mof_O 	O 	0.98722	0.31446	0.31294	-0.597
Mof_C 	C 	0.97354	0.24632	0.4117	0.392
Mof_C 	C 	0.98601	0.20951	0.4503	-0.077
Mof_C 	C 	0.0279	0.20455	0.5319	-0.005
Mof_H 	H 	0.0496	0.2249	0.5656	0.047
Mof_C 	C 	0.0392	0.17043	0.5665	-0.083
Mof_H 	H 	0.0683	0.1677	0.6235	0.06
Mof_C 	C 	0.00913	0.14068	0.5198	0.022
Mof_C 	C 	0.9649	0.14556	0.4354	-0.06
Mof_H 	H 	0.9424	0.1253	0.4018	0.058
Mof_C 	C 	0.9543	0.17983	0.4019	0.015
Mof_H 	H 	0.9249	0.183	0.3451	0.04
Mof_C 	C 	0.01924	0.10434	0.5526	-0.015
Mof_C 	C 	0.02479	0.07341	0.5736	-0.045
Mof_C 	C 	0.02733	0.03521	0.59077	0.086
Mof_C 	C 	0.08562	0.01691	0.633	-0.154
Mof_H 	H 	0.1244	0.0298	0.654	0.09
Mof_C 	C 	0.08647	0.9796	0.64417	0.106
Mof_C 	C 	0.02945	0.96088	0.6129	-0.182
Mof_H 	H 	0.0303	0.9354	0.6203	0.091
Mof_C 	C 	0.97133	0.9788	0.5711	0.121
Mof_C 	C 	0.97062	0.01633	0.5604	-0.13
Mof_H 	H 	0.9311	0.029	0.5322	0.086
Mof_C 	C 	0.14532	0.95982	0.6908	-0.042
Mof_C 	C 	0.19142	0.94143	0.7309	-0.031
Mof_C 	C 	0.2471	0.91942	0.7838	0.09
Mof_C 	C 	0.2923	0.91247	0.7661	-0.141
Mof_H 	H 	0.2876	0.9221	0.7183	0.08
Mof_C 	C 	0.3451	0.89107	0.8194	0.073
Mof_H 	H 	0.3755	0.8856	0.8064	0.022
Mof_C 	C 	0.3538	0.8779	0.8893	-0.151
Mof_C 	C 	0.31	0.8861	0.9073	0.074
Mof_H 	H 	0.3161	0.8775	0.9567	0.023
Mof_C 	C 	0.257	0.90658	0.8552	-0.144
Mof_H 	H 	0.2269	0.9119	0.869	0.081
Mof_C 	C 	0.4114	0.85525	0.9485	0.402
Mof_C 	C 	0.91288	0.95882	0.5388	-0.03
Mof_C 	C 	0.86604	0.94062	0.5122	-0.039
Mof_C 	C 	0.80928	0.91882	0.4775	0.114
Mof_C 	C 	0.8116	0.88202	0.4792	-0.169
Mof_H 	H 	0.8518	0.8701	0.5063	0.092
Mof_C 	C 	0.7558	0.86145	0.4417	0.097
Mof_H 	H 	0.7589	0.8358	0.4443	0.008
Mof_C 	C 	0.6972	0.87708	0.4014	-0.173
Mof_C 	C 	0.6956	0.91439	0.4024	0.098
Mof_H 	H 	0.6556	0.9265	0.3753	0.007
Mof_C 	C 	0.7507	0.93421	0.4417	-0.17
Mof_H 	H 	0.7478	0.9598	0.4442	0.088
Mof_C 	C 	0.6371	0.85575	0.3556	0.409
Mof_C 	C 	0.05722	0.17868	0.2949	0.055
Mof_H 	H 	0.0964	0.1915	0.3258	0.015
Mof_C 	C 	0.05743	0.14105	0.2948	-0.125
Mof_H 	H 	0.0965	0.1281	0.3252	0.073
Mof_C 	C 	0.05673	0.99272	0.2799	-0.152
Mof_H 	H 	0.0957	0.0056	0.3019	0.089
Mof_C 	C 	0.05642	0.9549	0.2777	0.107
Mof_C 	C 	0.11323	0.93513	0.2994	-0.04
Mof_C 	C 	0.1585	0.9185	0.3111	-0.028
Mof_C 	C 	0.20984	0.89791	0.318	0.085
Mof_C 	C 	0.2686	0.89596	0.3904	-0.135
Mof_H 	H 	0.2754	0.908	0.4372	0.079
Mof_C 	C 	0.36238	0.83737	0.3337	0.397
Mof_C 	C 	0.30874	0.85817	0.3293	-0.14
Mof_C 	C 	0.24968	0.8602	0.2557	0.065
Mof_H 	H 	0.243	0.8479	0.2092	0.021
Mof_C 	C 	0.20111	0.88005	0.2504	-0.135
Mof_H 	H 	0.1611	0.8816	0.1999	0.079
Mof_C 	C 	0.3179	0.87652	0.395	0.066
Mof_H 	H 	0.3587	0.876	0.4447	0.027
Mof_Co	Co	0.5988	0.78605	0.25703	1.159
Mof_Co	Co	0.50174	0.82365	0.0808	1.172
Mof_O 	O 	0.49531	0.77273	0.04152	-0.427
Mof_O 	O 	0.567	0.7484	0.16395	-0.443
Mof_O 	O 	0.04758	0.34897	0.5638	-0.354
Mof_O 	O 	0.0836	0.34502	0.4899	-0.476
Mof_O 	O 	0.85946	0.32182	0.14253	-0.44
Mof_O 	O 	0.91402	0.37375	0.1842	-0.488
Mof_O 	O 	0.0831	0.34254	0.10298	-0.475
Mof_O 	O 	0.15088	0.31687	0.22381	-0.459
Mof_O 	O 	0.55182	0.75439	0.30058	-0.4
Mof_O 	O 	0.51278	0.81446	0.18706	-0.61
Mof_C 	C 	0.52646	0.74632	0.0883	0.379
Mof_C 	C 	0.51399	0.70951	0.0497	-0.121
Mof_C 	C 	0.4721	0.70455	0.9681	0.051
Mof_H 	H 	0.4504	0.7249	0.9344	0.031
Mof_C 	C 	0.4608	0.67043	0.9335	-0.124
Mof_H 	H 	0.4317	0.6677	0.8765	0.075
Mof_C 	C 	0.49087	0.64068	0.9802	0.07
Mof_C 	C 	0.5351	0.64556	0.0646	-0.115
Mof_H 	H 	0.5576	0.6253	0.0982	0.072
Mof_C 	C 	0.5457	0.67983	0.0981	0.051
Mof_H 	H 	0.5751	0.683	0.1549	0.027
Mof_C 	C 	0.48076	0.60434	0.9474	-0.026
Mof_C 	C 	0.47521	0.57341	0.9264	-0.038
Mof_C 	C 	0.47267	0.53521	0.90923	0.103
Mof_C 	C 	0.41438	0.51691	0.867	-0.155
Mof_H 	H 	0.3756	0.5298	0.846	0.089
Mof_C 	C 	0.41353	0.4796	0.85583	0.098
Mof_C 	C 	0.47055	0.46088	0.8871	-0.152
Mof_H 	H 	0.4697	0.4354	0.8797	0.086
Mof_C 	C 	0.52867	0.4788	0.9289	0.097
Mof_C 	C 	0.52938	0.51633	0.9396	-0.149
Mof_H 	H 	0.5689	0.529	0.9678	0.088
Mof_C 	C 	0.35468	0.45982	0.8092	-0.038
Mof_C 	C 	0.30858	0.44143	0.7691	-0.034
Mof_C 	C 	0.2529	0.41942	0.7162	0.094
Mof_C 	C 	0.2077	0.41247	0.7339	-0.145
Mof_H 	H 	0.2124	0.4221	0.7817	0.08
Mof_C 	C 	0.1549	0.39107	0.6806	0.077
Mof_H 	H 	0.1245	0.3856	0.6936	0.018
Mof_C 	C 	0.1462	0.3779	0.6107	-0.157
Mof_C 	C 	0.19	0.3861	0.5927	0.078
Mof_H 	H 	0.1839	0.3775	0.5433	0.022
Mof_C 	C 	0.243	0.40658	0.6448	-0.148
Mof_H 	H 	0.2731	0.4119	0.631	0.082
Mof_C 	C 	0.0886	0.35525	0.5515	0.41
Mof_C 	C 	0.58712	0.45882	0.9612	-0.026
Mof_C 	C 	0.63396	0.44062	0.9878	-0.049
Mof_C 	C 	0.69072	0.41882	0.0225	0.116
Mof_C 	C 	0.6884	0.38202	0.0208	-0.161
Mof_H 	H 	0.6482	0.3701	0.9937	0.084
Mof_C 	C 	0.7442	0.36145	0.0583	0.092
Mof_H 	H 	0.7411	0.3358	0.0557	0.01
Mof_C 	C 	0.8028	0.37708	0.0986	-0.169
Mof_C 	C 	0.8044	0.41439	0.0976	0.096
Mof_H 	H 	0.8444	0.4265	0.1247	0.011
Mof_C 	C 	0.7493	0.43421	0.0583	-0.169
Mof_H 	H 	0.7522	0.4598	0.0558	0.09
Mof_C 	C 	0.8629	0.35575	0.1444	0.406
Mof_C 	C 	0.44278	0.67868	0.2051	0.058
Mof_H 	H 	0.4036	0.6915	0.1742	0.015
Mof_C 	C 	0.44257	0.64105	0.2052	-0.133
Mof_H 	H 	0.4035	0.6281	0.1748	0.076
Mof_C 	C 	0.44327	0.49272	0.2201	-0.155
Mof_H 	H 	0.4043	0.5056	0.1981	0.09
Mof_C 	C 	0.44358	0.4549	0.2223	0.102
Mof_C 	C 	0.38677	0.43513	0.2006	-0.036
Mof_C 	C 	0.3415	0.4185	0.1889	-0.03
Mof_C 	C 	0.29016	0.39791	0.182	0.087
Mof_C 	C 	0.2314	0.39596	0.1096	-0.137
Mof_H 	H 	0.2246	0.408	0.0628	0.079
Mof_C 	C 	0.13762	0.33737	0.1663	0.398
Mof_C 	C 	0.19126	0.35817	0.1707	-0.142
Mof_C 	C 	0.25032	0.3602	0.2443	0.067
Mof_H 	H 	0.257	0.3479	0.2908	0.021
Mof_C 	C 	0.29889	0.38005	0.2496	-0.137
Mof_H 	H 	0.3389	0.3816	0.3001	0.079
Mof_C 	C 	0.1821	0.37652	0.105	0.068
Mof_H 	H 	0.1413	0.376	0.0553	0.024
Mof_Co	Co	0.0988	0.28605	0.25703	1.158
Mof_Co	Co	0.00174	0.32365	0.0808	1.162
Mof_O 	O 	0.99531	0.27273	0.04152	-0.403
Mof_O 	O 	0.067	0.2484	0.16395	-0.442
Mof_O 	O 	0.54758	0.84897	0.5638	-0.345
Mof_O 	O 	0.5836	0.84502	0.4899	-0.468
Mof_O 	O 	0.35946	0.82182	0.14253	-0.443
Mof_O 	O 	0.41402	0.87375	0.1842	-0.497
Mof_O 	O 	0.5831	0.84254	0.10298	-0.469
Mof_O 	O 	0.65088	0.81687	0.22381	-0.457
Mof_O 	O 	0.05182	0.25439	0.30058	-0.399
Mof_O 	O 	0.01278	0.31446	0.18706	-0.62
Mof_C 	C 	0.02646	0.24632	0.0883	0.368
Mof_C 	C 	0.01399	0.20951	0.0497	-0.173
Mof_C 	C 	0.9721	0.20455	0.9681	0.116
Mof_H 	H 	0.9504	0.2249	0.9344	0.013
Mof_C 	C 	0.9608	0.17043	0.9335	-0.173
Mof_H 	H 	0.9317	0.1677	0.8765	0.093
Mof_C 	C 	0.99087	0.14068	0.9802	0.126
Mof_C 	C 	0.0351	0.14556	0.0646	-0.179
Mof_H 	H 	0.0576	0.1253	0.0982	0.089
Mof_C 	C 	0.0457	0.17983	0.0981	0.095
Mof_H 	H 	0.0751	0.183	0.1549	0.011
Mof_C 	C 	0.98076	0.10434	0.9474	-0.038
Mof_C 	C 	0.97521	0.07341	0.9264	-0.027
Mof_C 	C 	0.97267	0.03521	0.90923	0.119
Mof_C 	C 	0.91438	0.01691	0.867	-0.155
Mof_H 	H 	0.8756	0.0298	0.846	0.089
Mof_C 	C 	0.91353	0.9796	0.85583	0.092
Mof_C 	C 	0.97055	0.96088	0.8871	-0.123
Mof_H 	H 	0.9697	0.9354	0.8797	0.084
Mof_C 	C 	0.02867	0.9788	0.9289	0.078
Mof_C 	C 	0.02938	0.01633	0.9396	-0.166
Mof_H 	H 	0.0689	0.029	0.9678	0.09
Mof_C 	C 	0.85468	0.95982	0.8092	-0.034
Mof_C 	C 	0.80858	0.94143	0.7691	-0.034
Mof_C 	C 	0.7529	0.91942	0.7162	0.095
Mof_C 	C 	0.7077	0.91247	0.7339	-0.144
Mof_H 	H 	0.7124	0.9221	0.7817	0.081
Mof_C 	C 	0.6549	0.89107	0.6806	0.076
Mof_H 	H 	0.6245	0.8856	0.6936	0.021
Mof_C 	C 	0.6462	0.8779	0.6107	-0.153
Mof_C 	C 	0.69	0.8861	0.5927	0.077
Mof_H 	H 	0.6839	0.8775	0.5433	0.023
Mof_C 	C 	0.743	0.90658	0.6448	-0.147
Mof_H 	H 	0.7731	0.9119	0.631	0.083
Mof_C 	C 	0.5886	0.85525	0.5515	0.408
Mof_C 	C 	0.08712	0.95882	0.9612	-0.021
Mof_C 	C 	0.13396	0.94062	0.9878	-0.052
Mof_C 	C 	0.19072	0.91882	0.0225	0.119
Mof_C 	C 	0.1884	0.88202	0.0208	-0.168
Mof_H 	H 	0.1482	0.8701	0.9937	0.087
Mof_C 	C 	0.2442	0.86145	0.0583	0.097
Mof_H 	H 	0.2411	0.8358	0.0557	0.008
Mof_C 	C 	0.3028	0.87708	0.0986	-0.174
Mof_C 	C 	0.3044	0.91439	0.0976	0.099
Mof_H 	H 	0.3444	0.9265	0.1247	0.007
Mof_C 	C 	0.2493	0.93421	0.0583	-0.173
Mof_H 	H 	0.2522	0.9598	0.0558	0.089
Mof_C 	C 	0.3629	0.85575	0.1444	0.409
Mof_C 	C 	0.94278	0.17868	0.2051	0.073
Mof_H 	H 	0.9036	0.1915	0.1742	0.013
Mof_C 	C 	0.94257	0.14105	0.2052	-0.105
Mof_H 	H 	0.9035	0.1281	0.1748	0.071
Mof_C 	C 	0.94327	0.99272	0.2201	-0.132
Mof_H 	H 	0.9043	0.0056	0.1981	0.085
Mof_C 	C 	0.94358	0.9549	0.2223	0.123
Mof_C 	C 	0.88677	0.93513	0.2006	-0.039
Mof_C 	C 	0.8415	0.9185	0.1889	-0.024
Mof_C 	C 	0.79016	0.89791	0.182	0.085
Mof_C 	C 	0.7314	0.89596	0.1096	-0.133
Mof_H 	H 	0.7246	0.908	0.0628	0.08
Mof_C 	C 	0.63762	0.83737	0.1663	0.397
Mof_C 	C 	0.69126	0.85817	0.1707	-0.138
Mof_C 	C 	0.75032	0.8602	0.2443	0.064
Mof_H 	H 	0.757	0.8479	0.2908	0.022
Mof_C 	C 	0.79889	0.88005	0.2496	-0.133
Mof_H 	H 	0.8389	0.8816	0.3001	0.079
Mof_C 	C 	0.6821	0.87652	0.105	0.066
Mof_H 	H 	0.6413	0.876	0.0553	0.028
Mof_Co	Co	0.5	0.85374	0.25	1.147
Mof_C 	C 	0.5	0.73856	0.25	0.354
Mof_C 	C 	0.5	0.69779	0.25	-0.127
Mof_C 	C 	0.5	0.62263	0.25	0.081
Mof_C 	C 	0.5	0.58301	0.25	-0.029
Mof_C 	C 	0.5	0.55067	0.25	-0.036
Mof_C 	C 	0.5	0.51158	0.25	0.106
Mof_C 	C 	0.5	0.43605	0.25	-0.156
Mof_H 	H 	0.5	0.4103	0.25	0.09
Mof_Co	Co	1.49611e-17	0.35374	0.25	1.137
Mof_C 	C 	1.1395e-33	0.23856	0.25	0.33
Mof_C 	C 	1.1395e-33	0.19779	0.25	-0.143
Mof_C 	C 	1.1395e-33	0.12263	0.25	0.052
Mof_C 	C 	-1.49611e-17	0.08301	0.25	-0.03
Mof_C 	C 	1.1395e-33	0.05067	0.25	-0.039
Mof_C 	C 	1.1395e-33	0.01158	0.25	0.081
Mof_C 	C 	1.1395e-33	0.93605	0.25	-0.187
Mof_H 	H 	1.49611e-17	0.9103	0.25	0.093
_end
