data_functionalizedCrystal
_audit_creation_method	'EQeq! by Chris Wilmer'
_symmetry_space_group_name_H-M	'P1'
_symmetry_Int_Tables_number	1
_symmetry_cell_setting	triclinic
loop_
_symmetry_equiv_pos_as_xyz
  x,y,z
_cell_length_a	15.8642
_cell_length_b	15.8642
_cell_length_c	42.9758
_cell_angle_alpha	90
_cell_angle_beta	90
_cell_angle_gamma	90
loop_
_atom_site_label
_atom_site_type_symbol
_atom_site_fract_x
_atom_site_fract_y
_atom_site_fract_z
_atom_site_charge
Mof_Cd	Cd	0.08234	0.78153	0.78138	0.465
Mof_O 	O 	0.2317	0.3921	0.69186	-0.174
Mof_O 	O 	0.2289	0.372	0.62515	-0.357
Mof_H 	H 	0.2577	0.3755	0.6415	0.229
Mof_O 	O 	0.0684	0.2829	0.62139	-0.181
Mof_O 	O 	0.0693	0.3314	0.68311	-0.356
Mof_H 	H 	0.0534	0.302	0.668	0.234
Mof_O 	O 	0.1183	0.7585	0.73113	-0.272
Mof_O 	O 	0.2291	0.7868	0.70201	-0.27
Mof_O 	O 	0.7689	0.5209	0.57791	-0.265
Mof_O 	O 	0.8574	0.5321	0.5384	-0.275
Mof_N 	N 	0.0586	0.9215	0.7929	-0.042
Mof_N 	N 	0.9521	0.8006	0.7614	0.058
Mof_C 	C 	0.2718	0.516	0.62355	0.021
Mof_C 	C 	0.3182	0.5103	0.6526	-0.171
Mof_H 	H 	0.3681	0.5477	0.6519	0.076
Mof_H 	H 	0.3379	0.4518	0.6559	0.074
Mof_C 	C 	0.2602	0.5369	0.67933	0.041
Mof_C 	C 	0.2492	0.6199	0.68559	-0.067
Mof_H 	H 	0.2822	0.6607	0.6749	0.07
Mof_C 	C 	0.1901	0.646	0.70748	-0.028
Mof_C 	C 	0.142	0.5857	0.72279	-0.076
Mof_H 	H 	0.0993	0.603	0.7369	0.081
Mof_C 	C 	0.1554	0.502	0.71772	0.055
Mof_C 	C 	0.0995	0.4375	0.73458	-0.173
Mof_H 	H 	0.1282	0.3821	0.7346	0.101
Mof_H 	H 	0.0922	0.4553	0.7565	0.081
Mof_C 	C 	0.0125	0.4276	0.7196	0.035
Mof_C 	C 	0.9444	0.4733	0.73062	-0.103
Mof_H 	H 	0.9512	0.5108	0.7477	0.065
Mof_C 	C 	0.8667	0.4639	0.7167	0.015
Mof_H 	H 	0.8199	0.4951	0.7243	0.015
Mof_C 	C 	0.8562	0.4112	0.69245	-0.094
Mof_H 	H 	0.8016	0.404	0.6837	0.058
Mof_C 	C 	0.9239	0.367	0.67992	0.018
Mof_C 	C 	0.9105	0.3094	0.65299	-0.169
Mof_H 	H 	0.8505	0.2926	0.6519	0.079
Mof_H 	H 	0.9449	0.2579	0.6556	0.072
Mof_C 	C 	0.936	0.3549	0.62252	0.035
Mof_C 	C 	0.8818	0.4096	0.60862	-0.069
Mof_H 	H 	0.8277	0.4181	0.6175	0.066
Mof_C 	C 	0.9031	0.4537	0.58166	-0.034
Mof_C 	C 	0.983	0.4448	0.57034	-0.07
Mof_H 	H 	0.0009	0.4784	0.5533	0.06
Mof_C 	C 	0.0392	0.3866	0.58356	0.034
Mof_C 	C 	0.1308	0.3866	0.57113	-0.172
Mof_H 	H 	0.1581	0.3326	0.5768	0.1
Mof_H 	H 	0.1295	0.3902	0.5481	0.073
Mof_C 	C 	0.1809	0.4553	0.58314	0.04
Mof_C 	C 	0.1815	0.536	0.5691	-0.098
Mof_H 	H 	0.1529	0.5429	0.5499	0.06
Mof_C 	C 	0.2214	0.6052	0.5818	0.012
Mof_H 	H 	0.2169	0.6591	0.5723	0.025
Mof_C 	C 	0.2676	0.5941	0.6085	-0.088
Mof_H 	H 	0.2976	0.6406	0.617	0.064
Mof_C 	C 	0.2264	0.4484	0.61096	0.113
Mof_C 	C 	0.0154	0.3437	0.60845	0.058
Mof_C 	C 	0.0029	0.3759	0.69441	0.115
Mof_C 	C 	0.2163	0.4782	0.69679	0.053
Mof_C 	C 	0.1767	0.7371	0.71425	0.323
Mof_C 	C 	0.8402	0.5067	0.56547	0.271
Mof_C 	C 	0.0657	0.2037	0.6054	-0.065
Mof_H 	H 	0.0693	0.2117	0.5826	0.043
Mof_H 	H 	0.0132	0.1727	0.6104	0.04
Mof_C 	C 	0.1478	0.1539	0.6185	0.159
Mof_H 	H 	0.1619	0.1041	0.6056	-0.026
Mof_H 	H 	0.1976	0.1912	0.6202	-0.006
Mof_C 	C 	0.1155	0.1304	0.6485	-0.568
Mof_H 	H 	0.1491	0.1574	0.6648	0.207
Mof_H 	H 	0.1186	0.069	0.6509	0.206
Mof_H 	H 	0.0567	0.1487	0.6503	0.197
Mof_C 	C 	0.3014	0.3622	0.71002	-0.041
Mof_H 	H 	0.286	0.3609	0.7323	0.043
Mof_H 	H 	0.3504	0.4002	0.7075	0.04
Mof_C 	C 	0.3233	0.2758	0.69913	0.037
Mof_H 	H 	0.3385	0.2774	0.6768	0.019
Mof_H 	H 	0.274	0.2381	0.7016	0.027
Mof_C 	C 	0.397	0.2422	0.718	-0.418
Mof_H 	H 	0.4489	0.2709	0.7116	0.14
Mof_H 	H 	0.4029	0.1815	0.7144	0.148
Mof_H 	H 	0.3869	0.2525	0.7402	0.141
Mof_C 	C 	0.0886	0.9771	0.8065	-0.66
Mof_H 	H 	0.1433	0.9648	0.8142	0.81
Mof_C 	C 	0.0608	0.0602	0.814	-0.04
Mof_H 	H 	0.0946	0.1001	0.8247	-0.025
Mof_C 	C 	0.9781	0.077	0.8038	-0.012
Mof_H 	H 	0.9543	0.1308	0.8079	0.021
Mof_C 	C 	0.9333	0.0211	0.7889	0.066
Mof_C 	C 	0.9635	0.9393	0.7828	0.12
Mof_C 	C 	0.9155	0.8789	0.7658	-0.138
Mof_C 	C 	0.9052	0.7413	0.7457	0.164
Mof_H 	H 	0.9277	0.6863	0.7431	0.045
Mof_C 	C 	0.8279	0.7587	0.7338	0.013
Mof_H 	H 	0.7992	0.7189	0.7212	-0.011
Mof_C 	C 	0.7914	0.8373	0.7407	0.024
Mof_H 	H 	0.7346	0.8476	0.7347	0.005
Mof_C 	C 	0.8344	0.8984	0.7556	-0.133
Mof_C 	C 	0.8012	0.9803	0.7625	0.2
Mof_H 	H 	0.7455	0.9936	0.756	-0.055
Mof_C 	C 	0.8476	0.0406	0.7782	-0.188
Mof_H 	H 	0.824	0.0946	0.7821	0.077
Mof_N 	N 	0.9473	0.8246	0.7612	-0.166
Mof_N 	N 	0.0421	0.9223	0.7908	0.095
Mof_C 	C 	0.1127	0.971	0.8084	0.15
Mof_H 	H 	0.1656	0.9455	0.8127	-0.635
Mof_C 	C 	0.0962	0.0494	0.8171	0.231
Mof_H 	H 	0.1379	0.0825	0.8272	-0.045
Mof_C 	C 	0.0144	0.0831	0.811	-0.017
Mof_H 	H 	0.0004	0.1374	0.8188	0.032
Mof_C 	C 	0.9568	0.0401	0.7946	-0.038
Mof_C 	C 	0.8743	0.0658	0.787	0.146
Mof_H 	H 	0.8562	0.1207	0.7929	-0.052
Mof_C 	C 	0.8196	0.0146	0.7715	-0.146
Mof_H 	H 	0.7646	0.0348	0.7669	0.06
Mof_C 	C 	0.8423	0.9318	0.7622	-0.008
Mof_C 	C 	0.7939	0.8778	0.7463	0.116
Mof_H 	H 	0.7389	0.8964	0.7408	-0.02
Mof_C 	C 	0.8166	0.7971	0.7371	-0.145
Mof_H 	H 	0.7788	0.7603	0.7266	0.071
Mof_C 	C 	0.9001	0.7739	0.7446	-0.039
Mof_H 	H 	0.9222	0.7216	0.7376	-0.09
Mof_C 	C 	0.9269	0.9042	0.771	0.235
Mof_C 	C 	0.9812	0.9553	0.7859	-0.19
Mof_Cd	Cd	0.91766	0.21847	0.28138	0.466
Mof_O 	O 	0.7683	0.6079	0.19186	-0.173
Mof_O 	O 	0.7711	0.628	0.12515	-0.356
Mof_H 	H 	0.7423	0.6245	0.1415	0.23
Mof_O 	O 	0.9316	0.7171	0.12139	-0.18
Mof_O 	O 	0.9307	0.6686	0.18311	-0.355
Mof_H 	H 	0.9466	0.698	0.168	0.235
Mof_O 	O 	0.8817	0.2415	0.23113	-0.271
Mof_O 	O 	0.7709	0.2132	0.20201	-0.27
Mof_O 	O 	0.2311	0.4791	0.07791	-0.265
Mof_O 	O 	0.1426	0.4679	0.0384	-0.275
Mof_N 	N 	0.9414	0.0785	0.2929	-0.042
Mof_N 	N 	0.0479	0.1994	0.2614	0.058
Mof_C 	C 	0.7282	0.484	0.12355	0.021
Mof_C 	C 	0.6818	0.4897	0.1526	-0.171
Mof_H 	H 	0.6319	0.4523	0.1519	0.076
Mof_H 	H 	0.6621	0.5482	0.1559	0.074
Mof_C 	C 	0.7398	0.4631	0.17933	0.041
Mof_C 	C 	0.7508	0.3801	0.18559	-0.067
Mof_H 	H 	0.7178	0.3393	0.1749	0.07
Mof_C 	C 	0.8099	0.354	0.20748	-0.028
Mof_C 	C 	0.858	0.4143	0.22279	-0.076
Mof_H 	H 	0.9007	0.397	0.2369	0.081
Mof_C 	C 	0.8446	0.498	0.21772	0.055
Mof_C 	C 	0.9005	0.5625	0.23458	-0.173
Mof_H 	H 	0.8718	0.6179	0.2346	0.101
Mof_H 	H 	0.9078	0.5447	0.2565	0.081
Mof_C 	C 	0.9875	0.5724	0.2196	0.035
Mof_C 	C 	0.0556	0.5267	0.23062	-0.103
Mof_H 	H 	0.0488	0.4892	0.2477	0.065
Mof_C 	C 	0.1333	0.5361	0.2167	0.015
Mof_H 	H 	0.1801	0.5049	0.2243	0.015
Mof_C 	C 	0.1438	0.5888	0.19245	-0.094
Mof_H 	H 	0.1984	0.596	0.1837	0.058
Mof_C 	C 	0.0761	0.633	0.17992	0.018
Mof_C 	C 	0.0895	0.6906	0.15299	-0.169
Mof_H 	H 	0.1495	0.7074	0.1519	0.079
Mof_H 	H 	0.0551	0.7421	0.1556	0.072
Mof_C 	C 	0.064	0.6451	0.12252	0.035
Mof_C 	C 	0.1182	0.5904	0.10862	-0.069
Mof_H 	H 	0.1723	0.5819	0.1175	0.066
Mof_C 	C 	0.0969	0.5463	0.08166	-0.034
Mof_C 	C 	0.017	0.5552	0.07034	-0.07
Mof_H 	H 	0.9991	0.5216	0.0533	0.06
Mof_C 	C 	0.9608	0.6134	0.08356	0.034
Mof_C 	C 	0.8692	0.6134	0.07113	-0.171
Mof_H 	H 	0.8419	0.6674	0.0768	0.1
Mof_H 	H 	0.8705	0.6098	0.0481	0.073
Mof_C 	C 	0.8191	0.5447	0.08314	0.04
Mof_C 	C 	0.8185	0.464	0.0691	-0.098
Mof_H 	H 	0.8471	0.4571	0.0499	0.06
Mof_C 	C 	0.7786	0.3948	0.0818	0.012
Mof_H 	H 	0.7831	0.3409	0.0723	0.025
Mof_C 	C 	0.7324	0.4059	0.1085	-0.088
Mof_H 	H 	0.7024	0.3594	0.117	0.064
Mof_C 	C 	0.7736	0.5516	0.11096	0.113
Mof_C 	C 	0.9846	0.6563	0.10845	0.058
Mof_C 	C 	0.9971	0.6241	0.19441	0.115
Mof_C 	C 	0.7837	0.5218	0.19679	0.053
Mof_C 	C 	0.8233	0.2629	0.21425	0.323
Mof_C 	C 	0.1598	0.4933	0.06547	0.271
Mof_C 	C 	0.9343	0.7963	0.1054	-0.065
Mof_H 	H 	0.9307	0.7883	0.0826	0.043
Mof_H 	H 	0.9868	0.8273	0.1104	0.04
Mof_C 	C 	0.8522	0.8461	0.1185	0.159
Mof_H 	H 	0.8381	0.8959	0.1056	-0.026
Mof_H 	H 	0.8024	0.8088	0.1202	-0.006
Mof_C 	C 	0.8845	0.8696	0.1485	-0.568
Mof_H 	H 	0.8509	0.8426	0.1648	0.207
Mof_H 	H 	0.8814	0.931	0.1509	0.206
Mof_H 	H 	0.9433	0.8513	0.1503	0.197
Mof_C 	C 	0.6986	0.6378	0.21002	-0.041
Mof_H 	H 	0.714	0.6391	0.2323	0.043
Mof_H 	H 	0.6496	0.5998	0.2075	0.04
Mof_C 	C 	0.6767	0.7242	0.19913	0.037
Mof_H 	H 	0.6615	0.7226	0.1768	0.019
Mof_H 	H 	0.726	0.7619	0.2016	0.027
Mof_C 	C 	0.603	0.7578	0.218	-0.418
Mof_H 	H 	0.5511	0.7291	0.2116	0.14
Mof_H 	H 	0.5971	0.8185	0.2144	0.148
Mof_H 	H 	0.6131	0.7475	0.2402	0.141
Mof_C 	C 	0.9114	0.0229	0.3065	-0.66
Mof_H 	H 	0.8567	0.0352	0.3142	0.81
Mof_C 	C 	0.9392	0.9398	0.314	-0.04
Mof_H 	H 	0.9054	0.8999	0.3247	-0.025
Mof_C 	C 	0.0219	0.923	0.3038	-0.012
Mof_H 	H 	0.0457	0.8692	0.3079	0.021
Mof_C 	C 	0.0667	0.9789	0.2889	0.066
Mof_C 	C 	0.0365	0.0607	0.2828	0.12
Mof_C 	C 	0.0845	0.1211	0.2658	-0.138
Mof_C 	C 	0.0948	0.2587	0.2457	0.164
Mof_H 	H 	0.0723	0.3137	0.2431	0.045
Mof_C 	C 	0.1721	0.2413	0.2338	0.013
Mof_H 	H 	0.2008	0.2811	0.2212	-0.011
Mof_C 	C 	0.2086	0.1627	0.2407	0.024
Mof_H 	H 	0.2654	0.1524	0.2347	0.005
Mof_C 	C 	0.1656	0.1016	0.2556	-0.133
Mof_C 	C 	0.1988	0.0197	0.2625	0.2
Mof_H 	H 	0.2545	0.0064	0.256	-0.055
Mof_C 	C 	0.1524	0.9594	0.2782	-0.188
Mof_H 	H 	0.176	0.9054	0.2821	0.077
Mof_N 	N 	0.0527	0.1754	0.2612	-0.166
Mof_N 	N 	0.9579	0.0777	0.2908	0.095
Mof_C 	C 	0.8873	0.029	0.3084	0.15
Mof_H 	H 	0.8344	0.0545	0.3127	-0.635
Mof_C 	C 	0.9038	0.9506	0.3171	0.231
Mof_H 	H 	0.8621	0.9175	0.3272	-0.045
Mof_C 	C 	0.9856	0.9169	0.311	-0.017
Mof_H 	H 	0.9996	0.8626	0.3188	0.032
Mof_C 	C 	0.0432	0.9599	0.2946	-0.038
Mof_C 	C 	0.1257	0.9342	0.287	0.146
Mof_H 	H 	0.1438	0.8793	0.2929	-0.052
Mof_C 	C 	0.1804	0.9854	0.2715	-0.146
Mof_H 	H 	0.2354	0.9652	0.2669	0.06
Mof_C 	C 	0.1577	0.0682	0.2622	-0.008
Mof_C 	C 	0.2061	0.1222	0.2463	0.116
Mof_H 	H 	0.2611	0.1036	0.2408	-0.02
Mof_C 	C 	0.1834	0.2029	0.2371	-0.145
Mof_H 	H 	0.2212	0.2397	0.2266	0.071
Mof_C 	C 	0.0999	0.2261	0.2446	-0.039
Mof_H 	H 	0.0778	0.2784	0.2376	-0.09
Mof_C 	C 	0.0731	0.0958	0.271	0.235
Mof_C 	C 	0.0188	0.0447	0.2859	-0.19
Mof_Cd	Cd	0.71847	0.58234	0.53138	0.466
Mof_O 	O 	0.1079	0.7317	0.44186	-0.173
Mof_O 	O 	0.128	0.7289	0.37515	-0.356
Mof_H 	H 	0.1245	0.7577	0.3915	0.23
Mof_O 	O 	0.2171	0.5684	0.37139	-0.18
Mof_O 	O 	0.1686	0.5693	0.43311	-0.355
Mof_H 	H 	0.198	0.5534	0.418	0.235
Mof_O 	O 	0.7415	0.6183	0.48113	-0.272
Mof_O 	O 	0.7132	0.7291	0.45201	-0.27
Mof_O 	O 	0.9791	0.2689	0.32791	-0.265
Mof_O 	O 	0.9679	0.3574	0.2884	-0.275
Mof_N 	N 	0.5785	0.5586	0.5429	-0.042
Mof_N 	N 	0.6994	0.4521	0.5114	0.058
Mof_C 	C 	0.984	0.7718	0.37355	0.021
Mof_C 	C 	0.9897	0.8182	0.4026	-0.171
Mof_H 	H 	0.9523	0.8681	0.4019	0.076
Mof_H 	H 	0.0482	0.8379	0.4059	0.074
Mof_C 	C 	0.9631	0.7602	0.42933	0.041
Mof_C 	C 	0.8801	0.7492	0.43559	-0.067
Mof_H 	H 	0.8393	0.7822	0.4249	0.07
Mof_C 	C 	0.854	0.6901	0.45748	-0.028
Mof_C 	C 	0.9143	0.642	0.47279	-0.076
Mof_H 	H 	0.897	0.5993	0.4869	0.081
Mof_C 	C 	0.998	0.6554	0.46772	0.055
Mof_C 	C 	0.0625	0.5995	0.48458	-0.173
Mof_H 	H 	0.1179	0.6282	0.4846	0.101
Mof_H 	H 	0.0447	0.5922	0.5065	0.08
Mof_C 	C 	0.0724	0.5125	0.4696	0.035
Mof_C 	C 	0.0267	0.4444	0.48062	-0.104
Mof_H 	H 	0.9892	0.4512	0.4977	0.066
Mof_C 	C 	0.0361	0.3667	0.4667	0.015
Mof_H 	H 	0.0049	0.3199	0.4743	0.014
Mof_C 	C 	0.0888	0.3562	0.44245	-0.094
Mof_H 	H 	0.096	0.3016	0.4337	0.058
Mof_C 	C 	0.133	0.4239	0.42992	0.018
Mof_C 	C 	0.1906	0.4105	0.40299	-0.169
Mof_H 	H 	0.2074	0.3505	0.4019	0.079
Mof_H 	H 	0.2421	0.4449	0.4056	0.072
Mof_C 	C 	0.1451	0.436	0.37252	0.035
Mof_C 	C 	0.0904	0.3818	0.35862	-0.068
Mof_H 	H 	0.0819	0.3277	0.3675	0.065
Mof_C 	C 	0.0463	0.4031	0.33166	-0.035
Mof_C 	C 	0.0552	0.483	0.32034	-0.07
Mof_H 	H 	0.0216	0.5009	0.3033	0.06
Mof_C 	C 	0.1134	0.5392	0.33356	0.034
Mof_C 	C 	0.1134	0.6308	0.32113	-0.172
Mof_H 	H 	0.1674	0.6581	0.3268	0.1
Mof_H 	H 	0.1098	0.6295	0.2981	0.073
Mof_C 	C 	0.0447	0.6809	0.33314	0.04
Mof_C 	C 	0.964	0.6815	0.3191	-0.097
Mof_H 	H 	0.9571	0.6529	0.2999	0.06
Mof_C 	C 	0.8948	0.7214	0.3318	0.012
Mof_H 	H 	0.8409	0.7169	0.3223	0.025
Mof_C 	C 	0.9059	0.7676	0.3585	-0.088
Mof_H 	H 	0.8594	0.7976	0.367	0.064
Mof_C 	C 	0.0516	0.7264	0.36096	0.113
Mof_C 	C 	0.1563	0.5154	0.35845	0.059
Mof_C 	C 	0.1241	0.5029	0.44441	0.115
Mof_C 	C 	0.0218	0.7163	0.44679	0.053
Mof_C 	C 	0.7629	0.6767	0.46425	0.323
Mof_C 	C 	0.9933	0.3402	0.31547	0.272
Mof_C 	C 	0.2963	0.5657	0.3554	-0.065
Mof_H 	H 	0.2883	0.5693	0.3326	0.043
Mof_H 	H 	0.3273	0.5132	0.3604	0.04
Mof_C 	C 	0.3461	0.6478	0.3685	0.159
Mof_H 	H 	0.3959	0.6619	0.3556	-0.026
Mof_H 	H 	0.3088	0.6976	0.3702	-0.007
Mof_C 	C 	0.3696	0.6155	0.3985	-0.569
Mof_H 	H 	0.3426	0.6491	0.4148	0.207
Mof_H 	H 	0.431	0.6186	0.4009	0.207
Mof_H 	H 	0.3513	0.5567	0.4003	0.197
Mof_C 	C 	0.1378	0.8014	0.46002	-0.041
Mof_H 	H 	0.1391	0.786	0.4823	0.043
Mof_H 	H 	0.0998	0.8504	0.4575	0.04
Mof_C 	C 	0.2242	0.8233	0.44913	0.037
Mof_H 	H 	0.2226	0.8385	0.4268	0.019
Mof_H 	H 	0.2619	0.774	0.4516	0.027
Mof_C 	C 	0.2578	0.897	0.468	-0.419
Mof_H 	H 	0.2291	0.9489	0.4616	0.141
Mof_H 	H 	0.3185	0.9029	0.4644	0.148
Mof_H 	H 	0.2475	0.8869	0.4902	0.141
Mof_C 	C 	0.5229	0.5886	0.5565	-0.652
Mof_H 	H 	0.5352	0.6433	0.5642	0.798
Mof_C 	C 	0.4398	0.5608	0.564	-0.04
Mof_H 	H 	0.3999	0.5946	0.5747	-0.024
Mof_C 	C 	0.423	0.4781	0.5538	-0.011
Mof_H 	H 	0.3692	0.4543	0.5579	0.021
Mof_C 	C 	0.4789	0.4333	0.5389	0.065
Mof_C 	C 	0.5607	0.4635	0.5328	0.121
Mof_C 	C 	0.6211	0.4155	0.5158	-0.138
Mof_C 	C 	0.7587	0.4052	0.4957	0.163
Mof_H 	H 	0.8137	0.4277	0.4931	0.045
Mof_C 	C 	0.7413	0.3279	0.4838	0.015
Mof_H 	H 	0.7811	0.2992	0.4712	-0.011
Mof_C 	C 	0.6627	0.2914	0.4907	0.023
Mof_H 	H 	0.6524	0.2346	0.4847	0.006
Mof_C 	C 	0.6016	0.3344	0.5056	-0.131
Mof_C 	C 	0.5197	0.3012	0.5125	0.198
Mof_H 	H 	0.5064	0.2455	0.506	-0.054
Mof_C 	C 	0.4594	0.3476	0.5282	-0.187
Mof_H 	H 	0.4054	0.324	0.5321	0.076
Mof_N 	N 	0.6754	0.4473	0.5112	-0.166
Mof_N 	N 	0.5777	0.5421	0.5408	0.093
Mof_C 	C 	0.529	0.6127	0.5584	0.148
Mof_H 	H 	0.5545	0.6656	0.5627	-0.625
Mof_C 	C 	0.4506	0.5962	0.5671	0.229
Mof_H 	H 	0.4175	0.6379	0.5772	-0.044
Mof_C 	C 	0.4169	0.5144	0.561	-0.018
Mof_H 	H 	0.3626	0.5004	0.5688	0.032
Mof_C 	C 	0.4599	0.4568	0.5446	-0.038
Mof_C 	C 	0.4342	0.3743	0.537	0.144
Mof_H 	H 	0.3793	0.3562	0.5429	-0.051
Mof_C 	C 	0.4854	0.3196	0.5215	-0.145
Mof_H 	H 	0.4652	0.2646	0.5169	0.06
Mof_C 	C 	0.5682	0.3423	0.5122	-0.009
Mof_C 	C 	0.6222	0.2939	0.4963	0.116
Mof_H 	H 	0.6036	0.2389	0.4908	-0.02
Mof_C 	C 	0.7029	0.3166	0.4871	-0.146
Mof_H 	H 	0.7397	0.2788	0.4766	0.071
Mof_C 	C 	0.7261	0.4001	0.4946	-0.039
Mof_H 	H 	0.7784	0.4222	0.4876	-0.09
Mof_C 	C 	0.5958	0.4269	0.521	0.235
Mof_C 	C 	0.5447	0.4812	0.5359	-0.189
Mof_Cd	Cd	0.28153	0.41766	0.03138	0.466
Mof_O 	O 	0.8921	0.2683	0.94186	-0.173
Mof_O 	O 	0.872	0.2711	0.87515	-0.356
Mof_H 	H 	0.8755	0.2423	0.8915	0.23
Mof_O 	O 	0.7829	0.4316	0.87139	-0.18
Mof_O 	O 	0.8314	0.4307	0.93311	-0.355
Mof_H 	H 	0.802	0.4466	0.918	0.235
Mof_O 	O 	0.2585	0.3817	0.98113	-0.272
Mof_O 	O 	0.2868	0.2709	0.95201	-0.27
Mof_O 	O 	0.0209	0.7311	0.82791	-0.265
Mof_O 	O 	0.0321	0.6426	0.7884	-0.275
Mof_N 	N 	0.4215	0.4414	0.0429	-0.042
Mof_N 	N 	0.3006	0.5479	0.0114	0.058
Mof_C 	C 	0.016	0.2282	0.87355	0.021
Mof_C 	C 	0.0103	0.1818	0.9026	-0.171
Mof_H 	H 	0.0477	0.1319	0.9019	0.076
Mof_H 	H 	0.9518	0.1621	0.9059	0.074
Mof_C 	C 	0.0369	0.2398	0.92933	0.041
Mof_C 	C 	0.1199	0.2508	0.93559	-0.067
Mof_H 	H 	0.1607	0.2178	0.9249	0.07
Mof_C 	C 	0.146	0.3099	0.95748	-0.028
Mof_C 	C 	0.0857	0.358	0.97279	-0.076
Mof_H 	H 	0.103	0.4007	0.9869	0.081
Mof_C 	C 	0.002	0.3446	0.96772	0.055
Mof_C 	C 	0.9375	0.4005	0.98458	-0.173
Mof_H 	H 	0.8821	0.3718	0.9846	0.101
Mof_H 	H 	0.9553	0.4078	0.0065	0.08
Mof_C 	C 	0.9276	0.4875	0.9696	0.035
Mof_C 	C 	0.9733	0.5556	0.98062	-0.104
Mof_H 	H 	0.0108	0.5488	0.9977	0.066
Mof_C 	C 	0.9639	0.6333	0.9667	0.015
Mof_H 	H 	0.9951	0.6801	0.9743	0.014
Mof_C 	C 	0.9112	0.6438	0.94245	-0.094
Mof_H 	H 	0.904	0.6984	0.9337	0.058
Mof_C 	C 	0.867	0.5761	0.92992	0.018
Mof_C 	C 	0.8094	0.5895	0.90299	-0.169
Mof_H 	H 	0.7926	0.6495	0.9019	0.079
Mof_H 	H 	0.7579	0.5551	0.9056	0.072
Mof_C 	C 	0.8549	0.564	0.87252	0.035
Mof_C 	C 	0.9096	0.6182	0.85862	-0.068
Mof_H 	H 	0.9181	0.6723	0.8675	0.065
Mof_C 	C 	0.9537	0.5969	0.83166	-0.035
Mof_C 	C 	0.9448	0.517	0.82034	-0.07
Mof_H 	H 	0.9784	0.4991	0.8033	0.06
Mof_C 	C 	0.8866	0.4608	0.83356	0.034
Mof_C 	C 	0.8866	0.3692	0.82113	-0.172
Mof_H 	H 	0.8326	0.3419	0.8268	0.1
Mof_H 	H 	0.8902	0.3705	0.7981	0.073
Mof_C 	C 	0.9553	0.3191	0.83314	0.04
Mof_C 	C 	0.036	0.3185	0.8191	-0.097
Mof_H 	H 	0.0429	0.3471	0.7999	0.06
Mof_C 	C 	0.1052	0.2786	0.8318	0.012
Mof_H 	H 	0.1591	0.2831	0.8223	0.025
Mof_C 	C 	0.0941	0.2324	0.8585	-0.088
Mof_H 	H 	0.1406	0.2024	0.867	0.064
Mof_C 	C 	0.9484	0.2736	0.86096	0.113
Mof_C 	C 	0.8437	0.4846	0.85845	0.059
Mof_C 	C 	0.8759	0.4971	0.94441	0.115
Mof_C 	C 	0.9782	0.2837	0.94679	0.053
Mof_C 	C 	0.2371	0.3233	0.96425	0.323
Mof_C 	C 	0.0067	0.6598	0.81547	0.272
Mof_C 	C 	0.7037	0.4343	0.8554	-0.065
Mof_H 	H 	0.7117	0.4307	0.8326	0.043
Mof_H 	H 	0.6727	0.4868	0.8604	0.04
Mof_C 	C 	0.6539	0.3522	0.8685	0.159
Mof_H 	H 	0.6041	0.3381	0.8556	-0.026
Mof_H 	H 	0.6912	0.3024	0.8702	-0.007
Mof_C 	C 	0.6304	0.3845	0.8985	-0.569
Mof_H 	H 	0.6574	0.3509	0.9148	0.207
Mof_H 	H 	0.569	0.3814	0.9009	0.207
Mof_H 	H 	0.6487	0.4433	0.9003	0.197
Mof_C 	C 	0.8622	0.1986	0.96002	-0.041
Mof_H 	H 	0.8609	0.214	0.9823	0.043
Mof_H 	H 	0.9002	0.1496	0.9575	0.04
Mof_C 	C 	0.7758	0.1767	0.94913	0.038
Mof_H 	H 	0.7774	0.1615	0.9268	0.019
Mof_H 	H 	0.7381	0.226	0.9516	0.027
Mof_C 	C 	0.7422	0.103	0.968	-0.419
Mof_H 	H 	0.7709	0.0511	0.9616	0.141
Mof_H 	H 	0.6815	0.0971	0.9644	0.148
Mof_H 	H 	0.7525	0.1131	0.9902	0.141
Mof_C 	C 	0.4771	0.4114	0.0565	-0.652
Mof_H 	H 	0.4648	0.3567	0.0642	0.798
Mof_C 	C 	0.5602	0.4392	0.064	-0.04
Mof_H 	H 	0.6001	0.4054	0.0747	-0.024
Mof_C 	C 	0.577	0.5219	0.0538	-0.011
Mof_H 	H 	0.6308	0.5457	0.0579	0.021
Mof_C 	C 	0.5211	0.5667	0.0389	0.065
Mof_C 	C 	0.4393	0.5365	0.0328	0.121
Mof_C 	C 	0.3789	0.5845	0.0158	-0.138
Mof_C 	C 	0.2413	0.5948	0.9957	0.163
Mof_H 	H 	0.1863	0.5723	0.9931	0.045
Mof_C 	C 	0.2587	0.6721	0.9838	0.015
Mof_H 	H 	0.2189	0.7008	0.9712	-0.011
Mof_C 	C 	0.3373	0.7086	0.9907	0.023
Mof_H 	H 	0.3476	0.7654	0.9847	0.006
Mof_C 	C 	0.3984	0.6656	0.0056	-0.131
Mof_C 	C 	0.4803	0.6988	0.0125	0.198
Mof_H 	H 	0.4936	0.7545	0.006	-0.054
Mof_C 	C 	0.5406	0.6524	0.0282	-0.187
Mof_H 	H 	0.5946	0.676	0.0321	0.076
Mof_N 	N 	0.3246	0.5527	0.0112	-0.166
Mof_N 	N 	0.4223	0.4579	0.0408	0.093
Mof_C 	C 	0.471	0.3873	0.0584	0.148
Mof_H 	H 	0.4455	0.3344	0.0627	-0.625
Mof_C 	C 	0.5494	0.4038	0.0671	0.229
Mof_H 	H 	0.5825	0.3621	0.0772	-0.044
Mof_C 	C 	0.5831	0.4856	0.061	-0.018
Mof_H 	H 	0.6374	0.4996	0.0688	0.032
Mof_C 	C 	0.5401	0.5432	0.0446	-0.038
Mof_C 	C 	0.5658	0.6257	0.037	0.144
Mof_H 	H 	0.6207	0.6438	0.0429	-0.051
Mof_C 	C 	0.5146	0.6804	0.0215	-0.145
Mof_H 	H 	0.5348	0.7354	0.0169	0.06
Mof_C 	C 	0.4318	0.6577	0.0122	-0.009
Mof_C 	C 	0.3778	0.7061	0.9963	0.116
Mof_H 	H 	0.3964	0.7611	0.9908	-0.02
Mof_C 	C 	0.2971	0.6834	0.9871	-0.146
Mof_H 	H 	0.2603	0.7212	0.9766	0.071
Mof_C 	C 	0.2739	0.5999	0.9946	-0.039
Mof_H 	H 	0.2216	0.5778	0.9876	-0.09
Mof_C 	C 	0.4042	0.5731	0.021	0.235
Mof_C 	C 	0.4553	0.5188	0.0359	-0.189
Mof_Cd	Cd	0.41766	0.28153	0.96862	0.466
Mof_O 	O 	0.2683	0.8921	0.05814	-0.173
Mof_O 	O 	0.2711	0.872	0.12485	-0.356
Mof_H 	H 	0.2423	0.8755	0.1085	0.23
Mof_O 	O 	0.4316	0.7829	0.12861	-0.18
Mof_O 	O 	0.4307	0.8314	0.06689	-0.355
Mof_H 	H 	0.4466	0.802	0.082	0.235
Mof_O 	O 	0.3817	0.2585	0.01887	-0.272
Mof_O 	O 	0.2709	0.2868	0.04799	-0.27
Mof_O 	O 	0.7311	0.0209	0.17209	-0.265
Mof_O 	O 	0.6426	0.0321	0.2116	-0.275
Mof_N 	N 	0.4414	0.4215	0.9571	-0.042
Mof_N 	N 	0.5479	0.3006	0.9886	0.058
Mof_C 	C 	0.2282	0.016	0.12645	0.021
Mof_C 	C 	0.1818	0.0103	0.0974	-0.171
Mof_H 	H 	0.1319	0.0477	0.0981	0.076
Mof_H 	H 	0.1621	0.9518	0.0941	0.074
Mof_C 	C 	0.2398	0.0369	0.07067	0.041
Mof_C 	C 	0.2508	0.1199	0.06441	-0.067
Mof_H 	H 	0.2178	0.1607	0.0751	0.07
Mof_C 	C 	0.3099	0.146	0.04252	-0.028
Mof_C 	C 	0.358	0.0857	0.02721	-0.076
Mof_H 	H 	0.4007	0.103	0.0131	0.081
Mof_C 	C 	0.3446	0.002	0.03228	0.055
Mof_C 	C 	0.4005	0.9375	0.01542	-0.173
Mof_H 	H 	0.3718	0.8821	0.0154	0.101
Mof_H 	H 	0.4078	0.9553	0.9935	0.08
Mof_C 	C 	0.4875	0.9276	0.0304	0.035
Mof_C 	C 	0.5556	0.9733	0.01938	-0.104
Mof_H 	H 	0.5488	0.0108	0.0023	0.066
Mof_C 	C 	0.6333	0.9639	0.0333	0.015
Mof_H 	H 	0.6801	0.9951	0.0257	0.014
Mof_C 	C 	0.6438	0.9112	0.05755	-0.094
Mof_H 	H 	0.6984	0.904	0.0663	0.058
Mof_C 	C 	0.5761	0.867	0.07008	0.018
Mof_C 	C 	0.5895	0.8094	0.09701	-0.169
Mof_H 	H 	0.6495	0.7926	0.0981	0.079
Mof_H 	H 	0.5551	0.7579	0.0944	0.072
Mof_C 	C 	0.564	0.8549	0.12748	0.035
Mof_C 	C 	0.6182	0.9096	0.14138	-0.068
Mof_H 	H 	0.6723	0.9181	0.1325	0.065
Mof_C 	C 	0.5969	0.9537	0.16834	-0.035
Mof_C 	C 	0.517	0.9448	0.17966	-0.07
Mof_H 	H 	0.4991	0.9784	0.1967	0.06
Mof_C 	C 	0.4608	0.8866	0.16644	0.034
Mof_C 	C 	0.3692	0.8866	0.17887	-0.172
Mof_H 	H 	0.3419	0.8326	0.1732	0.1
Mof_H 	H 	0.3705	0.8902	0.2019	0.073
Mof_C 	C 	0.3191	0.9553	0.16686	0.04
Mof_C 	C 	0.3185	0.036	0.1809	-0.097
Mof_H 	H 	0.3471	0.0429	0.2001	0.06
Mof_C 	C 	0.2786	0.1052	0.1682	0.012
Mof_H 	H 	0.2831	0.1591	0.1777	0.025
Mof_C 	C 	0.2324	0.0941	0.1415	-0.088
Mof_H 	H 	0.2024	0.1406	0.133	0.064
Mof_C 	C 	0.2736	0.9484	0.13904	0.113
Mof_C 	C 	0.4846	0.8437	0.14155	0.059
Mof_C 	C 	0.4971	0.8759	0.05559	0.115
Mof_C 	C 	0.2837	0.9782	0.05321	0.053
Mof_C 	C 	0.3233	0.2371	0.03575	0.323
Mof_C 	C 	0.6598	0.0067	0.18453	0.272
Mof_C 	C 	0.4343	0.7037	0.1446	-0.065
Mof_H 	H 	0.4307	0.7117	0.1674	0.043
Mof_H 	H 	0.4868	0.6727	0.1396	0.04
Mof_C 	C 	0.3522	0.6539	0.1315	0.159
Mof_H 	H 	0.3381	0.6041	0.1444	-0.026
Mof_H 	H 	0.3024	0.6912	0.1298	-0.007
Mof_C 	C 	0.3845	0.6304	0.1015	-0.569
Mof_H 	H 	0.3509	0.6574	0.0852	0.207
Mof_H 	H 	0.3814	0.569	0.0991	0.207
Mof_H 	H 	0.4433	0.6487	0.0997	0.197
Mof_C 	C 	0.1986	0.8622	0.03998	-0.041
Mof_H 	H 	0.214	0.8609	0.0177	0.043
Mof_H 	H 	0.1496	0.9002	0.0425	0.04
Mof_C 	C 	0.1767	0.7758	0.05087	0.038
Mof_H 	H 	0.1615	0.7774	0.0732	0.019
Mof_H 	H 	0.226	0.7381	0.0484	0.027
Mof_C 	C 	0.103	0.7422	0.032	-0.419
Mof_H 	H 	0.0511	0.7709	0.0384	0.141
Mof_H 	H 	0.0971	0.6815	0.0356	0.148
Mof_H 	H 	0.1131	0.7525	0.0098	0.141
Mof_C 	C 	0.4114	0.4771	0.9435	-0.652
Mof_H 	H 	0.3567	0.4648	0.9358	0.798
Mof_C 	C 	0.4392	0.5602	0.936	-0.04
Mof_H 	H 	0.4054	0.6001	0.9253	-0.024
Mof_C 	C 	0.5219	0.577	0.9462	-0.011
Mof_H 	H 	0.5457	0.6308	0.9421	0.021
Mof_C 	C 	0.5667	0.5211	0.9611	0.065
Mof_C 	C 	0.5365	0.4393	0.9672	0.121
Mof_C 	C 	0.5845	0.3789	0.9842	-0.138
Mof_C 	C 	0.5948	0.2413	0.0043	0.163
Mof_H 	H 	0.5723	0.1863	0.0069	0.045
Mof_C 	C 	0.6721	0.2587	0.0162	0.015
Mof_H 	H 	0.7008	0.2189	0.0288	-0.011
Mof_C 	C 	0.7086	0.3373	0.0093	0.023
Mof_H 	H 	0.7654	0.3476	0.0153	0.006
Mof_C 	C 	0.6656	0.3984	0.9944	-0.131
Mof_C 	C 	0.6988	0.4803	0.9875	0.198
Mof_H 	H 	0.7545	0.4936	0.994	-0.054
Mof_C 	C 	0.6524	0.5406	0.9718	-0.187
Mof_H 	H 	0.676	0.5946	0.9679	0.076
Mof_N 	N 	0.5527	0.3246	0.9888	-0.166
Mof_N 	N 	0.4579	0.4223	0.9592	0.093
Mof_C 	C 	0.3873	0.471	0.9416	0.148
Mof_H 	H 	0.3344	0.4455	0.9373	-0.625
Mof_C 	C 	0.4038	0.5494	0.9329	0.229
Mof_H 	H 	0.3621	0.5825	0.9228	-0.044
Mof_C 	C 	0.4856	0.5831	0.939	-0.018
Mof_H 	H 	0.4996	0.6374	0.9312	0.032
Mof_C 	C 	0.5432	0.5401	0.9554	-0.038
Mof_C 	C 	0.6257	0.5658	0.963	0.144
Mof_H 	H 	0.6438	0.6207	0.9571	-0.051
Mof_C 	C 	0.6804	0.5146	0.9785	-0.145
Mof_H 	H 	0.7354	0.5348	0.9831	0.06
Mof_C 	C 	0.6577	0.4318	0.9878	-0.009
Mof_C 	C 	0.7061	0.3778	0.0037	0.116
Mof_H 	H 	0.7611	0.3964	0.0092	-0.02
Mof_C 	C 	0.6834	0.2971	0.0129	-0.146
Mof_H 	H 	0.7212	0.2603	0.0234	0.071
Mof_C 	C 	0.5999	0.2739	0.0054	-0.039
Mof_H 	H 	0.5778	0.2216	0.0124	-0.09
Mof_C 	C 	0.5731	0.4042	0.979	0.235
Mof_C 	C 	0.5188	0.4553	0.9641	-0.189
Mof_Cd	Cd	0.58234	0.71847	0.46862	0.466
Mof_O 	O 	0.7317	0.1079	0.55814	-0.173
Mof_O 	O 	0.7289	0.128	0.62485	-0.356
Mof_H 	H 	0.7577	0.1245	0.6085	0.23
Mof_O 	O 	0.5684	0.2171	0.62861	-0.18
Mof_O 	O 	0.5693	0.1686	0.56689	-0.355
Mof_H 	H 	0.5534	0.198	0.582	0.235
Mof_O 	O 	0.6183	0.7415	0.51887	-0.272
Mof_O 	O 	0.7291	0.7132	0.54799	-0.27
Mof_O 	O 	0.2689	0.9791	0.67209	-0.265
Mof_O 	O 	0.3574	0.9679	0.7116	-0.275
Mof_N 	N 	0.5586	0.5785	0.4571	-0.042
Mof_N 	N 	0.4521	0.6994	0.4886	0.058
Mof_C 	C 	0.7718	0.984	0.62645	0.021
Mof_C 	C 	0.8182	0.9897	0.5974	-0.171
Mof_H 	H 	0.8681	0.9523	0.5981	0.076
Mof_H 	H 	0.8379	0.0482	0.5941	0.074
Mof_C 	C 	0.7602	0.9631	0.57067	0.041
Mof_C 	C 	0.7492	0.8801	0.56441	-0.067
Mof_H 	H 	0.7822	0.8393	0.5751	0.07
Mof_C 	C 	0.6901	0.854	0.54252	-0.028
Mof_C 	C 	0.642	0.9143	0.52721	-0.076
Mof_H 	H 	0.5993	0.897	0.5131	0.081
Mof_C 	C 	0.6554	0.998	0.53228	0.055
Mof_C 	C 	0.5995	0.0625	0.51542	-0.173
Mof_H 	H 	0.6282	0.1179	0.5154	0.101
Mof_H 	H 	0.5922	0.0447	0.4935	0.08
Mof_C 	C 	0.5125	0.0724	0.5304	0.035
Mof_C 	C 	0.4444	0.0267	0.51938	-0.104
Mof_H 	H 	0.4512	0.9892	0.5023	0.066
Mof_C 	C 	0.3667	0.0361	0.5333	0.015
Mof_H 	H 	0.3199	0.0049	0.5257	0.014
Mof_C 	C 	0.3562	0.0888	0.55755	-0.094
Mof_H 	H 	0.3016	0.096	0.5663	0.058
Mof_C 	C 	0.4239	0.133	0.57008	0.018
Mof_C 	C 	0.4105	0.1906	0.59701	-0.169
Mof_H 	H 	0.3505	0.2074	0.5981	0.079
Mof_H 	H 	0.4449	0.2421	0.5944	0.072
Mof_C 	C 	0.436	0.1451	0.62748	0.035
Mof_C 	C 	0.3818	0.0904	0.64138	-0.068
Mof_H 	H 	0.3277	0.0819	0.6325	0.065
Mof_C 	C 	0.4031	0.0463	0.66834	-0.035
Mof_C 	C 	0.483	0.0552	0.67966	-0.07
Mof_H 	H 	0.5009	0.0216	0.6967	0.06
Mof_C 	C 	0.5392	0.1134	0.66644	0.034
Mof_C 	C 	0.6308	0.1134	0.67887	-0.172
Mof_H 	H 	0.6581	0.1674	0.6732	0.1
Mof_H 	H 	0.6295	0.1098	0.7019	0.073
Mof_C 	C 	0.6809	0.0447	0.66686	0.04
Mof_C 	C 	0.6815	0.964	0.6809	-0.097
Mof_H 	H 	0.6529	0.9571	0.7001	0.06
Mof_C 	C 	0.7214	0.8948	0.6682	0.012
Mof_H 	H 	0.7169	0.8409	0.6777	0.025
Mof_C 	C 	0.7676	0.9059	0.6415	-0.088
Mof_H 	H 	0.7976	0.8594	0.633	0.064
Mof_C 	C 	0.7264	0.0516	0.63904	0.113
Mof_C 	C 	0.5154	0.1563	0.64155	0.059
Mof_C 	C 	0.5029	0.1241	0.55559	0.115
Mof_C 	C 	0.7163	0.0218	0.55321	0.053
Mof_C 	C 	0.6767	0.7629	0.53575	0.323
Mof_C 	C 	0.3402	0.9933	0.68453	0.272
Mof_C 	C 	0.5657	0.2963	0.6446	-0.065
Mof_H 	H 	0.5693	0.2883	0.6674	0.043
Mof_H 	H 	0.5132	0.3273	0.6396	0.04
Mof_C 	C 	0.6478	0.3461	0.6315	0.159
Mof_H 	H 	0.6619	0.3959	0.6444	-0.026
Mof_H 	H 	0.6976	0.3088	0.6298	-0.007
Mof_C 	C 	0.6155	0.3696	0.6015	-0.569
Mof_H 	H 	0.6491	0.3426	0.5852	0.207
Mof_H 	H 	0.6186	0.431	0.5991	0.207
Mof_H 	H 	0.5567	0.3513	0.5997	0.197
Mof_C 	C 	0.8014	0.1378	0.53998	-0.041
Mof_H 	H 	0.786	0.1391	0.5177	0.043
Mof_H 	H 	0.8504	0.0998	0.5425	0.04
Mof_C 	C 	0.8233	0.2242	0.55087	0.037
Mof_H 	H 	0.8385	0.2226	0.5732	0.019
Mof_H 	H 	0.774	0.2619	0.5484	0.027
Mof_C 	C 	0.897	0.2578	0.532	-0.419
Mof_H 	H 	0.9489	0.2291	0.5384	0.141
Mof_H 	H 	0.9029	0.3185	0.5356	0.148
Mof_H 	H 	0.8869	0.2475	0.5098	0.141
Mof_C 	C 	0.5886	0.5229	0.4435	-0.652
Mof_H 	H 	0.6433	0.5352	0.4358	0.798
Mof_C 	C 	0.5608	0.4398	0.436	-0.04
Mof_H 	H 	0.5946	0.3999	0.4253	-0.024
Mof_C 	C 	0.4781	0.423	0.4462	-0.011
Mof_H 	H 	0.4543	0.3692	0.4421	0.021
Mof_C 	C 	0.4333	0.4789	0.4611	0.065
Mof_C 	C 	0.4635	0.5607	0.4672	0.121
Mof_C 	C 	0.4155	0.6211	0.4842	-0.138
Mof_C 	C 	0.4052	0.7587	0.5043	0.163
Mof_H 	H 	0.4277	0.8137	0.5069	0.045
Mof_C 	C 	0.3279	0.7413	0.5162	0.015
Mof_H 	H 	0.2992	0.7811	0.5288	-0.011
Mof_C 	C 	0.2914	0.6627	0.5093	0.023
Mof_H 	H 	0.2346	0.6524	0.5153	0.006
Mof_C 	C 	0.3344	0.6016	0.4944	-0.131
Mof_C 	C 	0.3012	0.5197	0.4875	0.198
Mof_H 	H 	0.2455	0.5064	0.494	-0.054
Mof_C 	C 	0.3476	0.4594	0.4718	-0.187
Mof_H 	H 	0.324	0.4054	0.4679	0.076
Mof_N 	N 	0.4473	0.6754	0.4888	-0.166
Mof_N 	N 	0.5421	0.5777	0.4592	0.093
Mof_C 	C 	0.6127	0.529	0.4416	0.148
Mof_H 	H 	0.6656	0.5545	0.4373	-0.625
Mof_C 	C 	0.5962	0.4506	0.4329	0.229
Mof_H 	H 	0.6379	0.4175	0.4228	-0.044
Mof_C 	C 	0.5144	0.4169	0.439	-0.018
Mof_H 	H 	0.5004	0.3626	0.4312	0.032
Mof_C 	C 	0.4568	0.4599	0.4554	-0.038
Mof_C 	C 	0.3743	0.4342	0.463	0.144
Mof_H 	H 	0.3562	0.3793	0.4571	-0.051
Mof_C 	C 	0.3196	0.4854	0.4785	-0.145
Mof_H 	H 	0.2646	0.4652	0.4831	0.06
Mof_C 	C 	0.3423	0.5682	0.4878	-0.009
Mof_C 	C 	0.2939	0.6222	0.5037	0.116
Mof_H 	H 	0.2389	0.6036	0.5092	-0.02
Mof_C 	C 	0.3166	0.7029	0.5129	-0.146
Mof_H 	H 	0.2788	0.7397	0.5234	0.071
Mof_C 	C 	0.4001	0.7261	0.5054	-0.039
Mof_H 	H 	0.4222	0.7784	0.5124	-0.09
Mof_C 	C 	0.4269	0.5958	0.479	0.235
Mof_C 	C 	0.4812	0.5447	0.4641	-0.189
Mof_Cd	Cd	0.78153	0.08234	0.21862	0.466
Mof_O 	O 	0.3921	0.2317	0.30814	-0.173
Mof_O 	O 	0.372	0.2289	0.37485	-0.356
Mof_H 	H 	0.3755	0.2577	0.3585	0.23
Mof_O 	O 	0.2829	0.0684	0.37861	-0.18
Mof_O 	O 	0.3314	0.0693	0.31689	-0.355
Mof_H 	H 	0.302	0.0534	0.332	0.235
Mof_O 	O 	0.7585	0.1183	0.26887	-0.271
Mof_O 	O 	0.7868	0.2291	0.29799	-0.27
Mof_O 	O 	0.5209	0.7689	0.42209	-0.265
Mof_O 	O 	0.5321	0.8574	0.4616	-0.275
Mof_N 	N 	0.9215	0.0586	0.2071	-0.042
Mof_N 	N 	0.8006	0.9521	0.2386	0.058
Mof_C 	C 	0.516	0.2718	0.37645	0.021
Mof_C 	C 	0.5103	0.3182	0.3474	-0.171
Mof_H 	H 	0.5477	0.3681	0.3481	0.076
Mof_H 	H 	0.4518	0.3379	0.3441	0.074
Mof_C 	C 	0.5369	0.2602	0.32067	0.041
Mof_C 	C 	0.6199	0.2492	0.31441	-0.067
Mof_H 	H 	0.6607	0.2822	0.3251	0.07
Mof_C 	C 	0.646	0.1901	0.29252	-0.028
Mof_C 	C 	0.5857	0.142	0.27721	-0.076
Mof_H 	H 	0.603	0.0993	0.2631	0.081
Mof_C 	C 	0.502	0.1554	0.28228	0.055
Mof_C 	C 	0.4375	0.0995	0.26542	-0.173
Mof_H 	H 	0.3821	0.1282	0.2654	0.101
Mof_H 	H 	0.4553	0.0922	0.2435	0.081
Mof_C 	C 	0.4276	0.0125	0.2804	0.035
Mof_C 	C 	0.4733	0.9444	0.26938	-0.103
Mof_H 	H 	0.5108	0.9512	0.2523	0.065
Mof_C 	C 	0.4639	0.8667	0.2833	0.015
Mof_H 	H 	0.4951	0.8199	0.2757	0.015
Mof_C 	C 	0.4112	0.8562	0.30755	-0.094
Mof_H 	H 	0.404	0.8016	0.3163	0.058
Mof_C 	C 	0.367	0.9239	0.32008	0.018
Mof_C 	C 	0.3094	0.9105	0.34701	-0.169
Mof_H 	H 	0.2926	0.8505	0.3481	0.079
Mof_H 	H 	0.2579	0.9449	0.3444	0.072
Mof_C 	C 	0.3549	0.936	0.37748	0.035
Mof_C 	C 	0.4096	0.8818	0.39138	-0.069
Mof_H 	H 	0.4181	0.8277	0.3825	0.066
Mof_C 	C 	0.4537	0.9031	0.41834	-0.034
Mof_C 	C 	0.4448	0.983	0.42966	-0.07
Mof_H 	H 	0.4784	0.0009	0.4467	0.06
Mof_C 	C 	0.3866	0.0392	0.41644	0.034
Mof_C 	C 	0.3866	0.1308	0.42887	-0.172
Mof_H 	H 	0.3326	0.1581	0.4232	0.1
Mof_H 	H 	0.3902	0.1295	0.4519	0.073
Mof_C 	C 	0.4553	0.1809	0.41686	0.04
Mof_C 	C 	0.536	0.1815	0.4309	-0.098
Mof_H 	H 	0.5429	0.1529	0.4501	0.06
Mof_C 	C 	0.6052	0.2214	0.4182	0.012
Mof_H 	H 	0.6591	0.2169	0.4277	0.025
Mof_C 	C 	0.5941	0.2676	0.3915	-0.088
Mof_H 	H 	0.6406	0.2976	0.383	0.064
Mof_C 	C 	0.4484	0.2264	0.38904	0.113
Mof_C 	C 	0.3437	0.0154	0.39155	0.058
Mof_C 	C 	0.3759	0.0029	0.30559	0.115
Mof_C 	C 	0.4782	0.2163	0.30321	0.053
Mof_C 	C 	0.7371	0.1767	0.28575	0.323
Mof_C 	C 	0.5067	0.8402	0.43453	0.271
Mof_C 	C 	0.2037	0.0657	0.3946	-0.065
Mof_H 	H 	0.2117	0.0693	0.4174	0.043
Mof_H 	H 	0.1727	0.0132	0.3896	0.04
Mof_C 	C 	0.1539	0.1478	0.3815	0.159
Mof_H 	H 	0.1041	0.1619	0.3944	-0.026
Mof_H 	H 	0.1912	0.1976	0.3798	-0.006
Mof_C 	C 	0.1304	0.1155	0.3515	-0.568
Mof_H 	H 	0.1574	0.1491	0.3352	0.207
Mof_H 	H 	0.069	0.1186	0.3491	0.206
Mof_H 	H 	0.1487	0.0567	0.3497	0.197
Mof_C 	C 	0.3622	0.3014	0.28998	-0.041
Mof_H 	H 	0.3609	0.286	0.2677	0.043
Mof_H 	H 	0.4002	0.3504	0.2925	0.04
Mof_C 	C 	0.2758	0.3233	0.30087	0.037
Mof_H 	H 	0.2774	0.3385	0.3232	0.019
Mof_H 	H 	0.2381	0.274	0.2984	0.027
Mof_C 	C 	0.2422	0.397	0.282	-0.418
Mof_H 	H 	0.2709	0.4489	0.2884	0.14
Mof_H 	H 	0.1815	0.4029	0.2856	0.148
Mof_H 	H 	0.2525	0.3869	0.2598	0.141
Mof_C 	C 	0.9771	0.0886	0.1935	-0.66
Mof_H 	H 	0.9648	0.1433	0.1858	0.81
Mof_C 	C 	0.0602	0.0608	0.186	-0.04
Mof_H 	H 	0.1001	0.0946	0.1753	-0.025
Mof_C 	C 	0.077	0.9781	0.1962	-0.012
Mof_H 	H 	0.1308	0.9543	0.1921	0.021
Mof_C 	C 	0.0211	0.9333	0.2111	0.066
Mof_C 	C 	0.9393	0.9635	0.2172	0.12
Mof_C 	C 	0.8789	0.9155	0.2342	-0.138
Mof_C 	C 	0.7413	0.9052	0.2543	0.164
Mof_H 	H 	0.6863	0.9277	0.2569	0.045
Mof_C 	C 	0.7587	0.8279	0.2662	0.013
Mof_H 	H 	0.7189	0.7992	0.2788	-0.011
Mof_C 	C 	0.8373	0.7914	0.2593	0.024
Mof_H 	H 	0.8476	0.7346	0.2653	0.005
Mof_C 	C 	0.8984	0.8344	0.2444	-0.133
Mof_C 	C 	0.9803	0.8012	0.2375	0.2
Mof_H 	H 	0.9936	0.7455	0.244	-0.055
Mof_C 	C 	0.0406	0.8476	0.2218	-0.188
Mof_H 	H 	0.0946	0.824	0.2179	0.077
Mof_N 	N 	0.8246	0.9473	0.2388	-0.166
Mof_N 	N 	0.9223	0.0421	0.2092	0.095
Mof_C 	C 	0.971	0.1127	0.1916	0.15
Mof_H 	H 	0.9455	0.1656	0.1873	-0.635
Mof_C 	C 	0.0494	0.0962	0.1829	0.231
Mof_H 	H 	0.0825	0.1379	0.1728	-0.045
Mof_C 	C 	0.0831	0.0144	0.189	-0.017
Mof_H 	H 	0.1374	0.0004	0.1812	0.032
Mof_C 	C 	0.0401	0.9568	0.2054	-0.038
Mof_C 	C 	0.0658	0.8743	0.213	0.146
Mof_H 	H 	0.1207	0.8562	0.2071	-0.052
Mof_C 	C 	0.0146	0.8196	0.2285	-0.146
Mof_H 	H 	0.0348	0.7646	0.2331	0.06
Mof_C 	C 	0.9318	0.8423	0.2378	-0.008
Mof_C 	C 	0.8778	0.7939	0.2537	0.116
Mof_H 	H 	0.8964	0.7389	0.2592	-0.02
Mof_C 	C 	0.7971	0.8166	0.2629	-0.145
Mof_H 	H 	0.7603	0.7788	0.2734	0.071
Mof_C 	C 	0.7739	0.9001	0.2554	-0.039
Mof_H 	H 	0.7216	0.9222	0.2624	-0.09
Mof_C 	C 	0.9042	0.9269	0.229	0.235
Mof_C 	C 	0.9553	0.9812	0.2141	-0.19
Mof_Cd	Cd	0.21847	0.91766	0.71862	0.466
Mof_O 	O 	0.6079	0.7683	0.80814	-0.173
Mof_O 	O 	0.628	0.7711	0.87485	-0.356
Mof_H 	H 	0.6245	0.7423	0.8585	0.23
Mof_O 	O 	0.7171	0.9316	0.87861	-0.18
Mof_O 	O 	0.6686	0.9307	0.81689	-0.355
Mof_H 	H 	0.698	0.9466	0.832	0.235
Mof_O 	O 	0.2415	0.8817	0.76887	-0.271
Mof_O 	O 	0.2132	0.7709	0.79799	-0.27
Mof_O 	O 	0.4791	0.2311	0.92209	-0.265
Mof_O 	O 	0.4679	0.1426	0.9616	-0.275
Mof_N 	N 	0.0785	0.9414	0.7071	-0.042
Mof_N 	N 	0.1994	0.0479	0.7386	0.058
Mof_C 	C 	0.484	0.7282	0.87645	0.021
Mof_C 	C 	0.4897	0.6818	0.8474	-0.171
Mof_H 	H 	0.4523	0.6319	0.8481	0.076
Mof_H 	H 	0.5482	0.6621	0.8441	0.074
Mof_C 	C 	0.4631	0.7398	0.82067	0.041
Mof_C 	C 	0.3801	0.7508	0.81441	-0.067
Mof_H 	H 	0.3393	0.7178	0.8251	0.07
Mof_C 	C 	0.354	0.8099	0.79252	-0.028
Mof_C 	C 	0.4143	0.858	0.77721	-0.076
Mof_H 	H 	0.397	0.9007	0.7631	0.081
Mof_C 	C 	0.498	0.8446	0.78228	0.055
Mof_C 	C 	0.5625	0.9005	0.76542	-0.173
Mof_H 	H 	0.6179	0.8718	0.7654	0.101
Mof_H 	H 	0.5447	0.9078	0.7435	0.081
Mof_C 	C 	0.5724	0.9875	0.7804	0.035
Mof_C 	C 	0.5267	0.0556	0.76938	-0.103
Mof_H 	H 	0.4892	0.0488	0.7523	0.065
Mof_C 	C 	0.5361	0.1333	0.7833	0.015
Mof_H 	H 	0.5049	0.1801	0.7757	0.015
Mof_C 	C 	0.5888	0.1438	0.80755	-0.094
Mof_H 	H 	0.596	0.1984	0.8163	0.058
Mof_C 	C 	0.633	0.0761	0.82008	0.018
Mof_C 	C 	0.6906	0.0895	0.84701	-0.169
Mof_H 	H 	0.7074	0.1495	0.8481	0.079
Mof_H 	H 	0.7421	0.0551	0.8444	0.072
Mof_C 	C 	0.6451	0.064	0.87748	0.035
Mof_C 	C 	0.5904	0.1182	0.89138	-0.069
Mof_H 	H 	0.5819	0.1723	0.8825	0.066
Mof_C 	C 	0.5463	0.0969	0.91834	-0.034
Mof_C 	C 	0.5552	0.017	0.92966	-0.07
Mof_H 	H 	0.5216	0.9991	0.9467	0.06
Mof_C 	C 	0.6134	0.9608	0.91644	0.034
Mof_C 	C 	0.6134	0.8692	0.92887	-0.171
Mof_H 	H 	0.6674	0.8419	0.9232	0.1
Mof_H 	H 	0.6098	0.8705	0.9519	0.073
Mof_C 	C 	0.5447	0.8191	0.91686	0.04
Mof_C 	C 	0.464	0.8185	0.9309	-0.098
Mof_H 	H 	0.4571	0.8471	0.9501	0.06
Mof_C 	C 	0.3948	0.7786	0.9182	0.012
Mof_H 	H 	0.3409	0.7831	0.9277	0.025
Mof_C 	C 	0.4059	0.7324	0.8915	-0.088
Mof_H 	H 	0.3594	0.7024	0.883	0.064
Mof_C 	C 	0.5516	0.7736	0.88904	0.113
Mof_C 	C 	0.6563	0.9846	0.89155	0.058
Mof_C 	C 	0.6241	0.9971	0.80559	0.115
Mof_C 	C 	0.5218	0.7837	0.80321	0.053
Mof_C 	C 	0.2629	0.8233	0.78575	0.323
Mof_C 	C 	0.4933	0.1598	0.93453	0.271
Mof_C 	C 	0.7963	0.9343	0.8946	-0.065
Mof_H 	H 	0.7883	0.9307	0.9174	0.043
Mof_H 	H 	0.8273	0.9868	0.8896	0.04
Mof_C 	C 	0.8461	0.8522	0.8815	0.159
Mof_H 	H 	0.8959	0.8381	0.8944	-0.026
Mof_H 	H 	0.8088	0.8024	0.8798	-0.006
Mof_C 	C 	0.8696	0.8845	0.8515	-0.568
Mof_H 	H 	0.8426	0.8509	0.8352	0.207
Mof_H 	H 	0.931	0.8814	0.8491	0.206
Mof_H 	H 	0.8513	0.9433	0.8497	0.197
Mof_C 	C 	0.6378	0.6986	0.78998	-0.041
Mof_H 	H 	0.6391	0.714	0.7677	0.043
Mof_H 	H 	0.5998	0.6496	0.7925	0.04
Mof_C 	C 	0.7242	0.6767	0.80087	0.037
Mof_H 	H 	0.7226	0.6615	0.8232	0.019
Mof_H 	H 	0.7619	0.726	0.7984	0.027
Mof_C 	C 	0.7578	0.603	0.782	-0.418
Mof_H 	H 	0.7291	0.5511	0.7884	0.14
Mof_H 	H 	0.8185	0.5971	0.7856	0.148
Mof_H 	H 	0.7475	0.6131	0.7598	0.141
Mof_C 	C 	0.0229	0.9114	0.6935	-0.66
Mof_H 	H 	0.0352	0.8567	0.6858	0.81
Mof_C 	C 	0.9398	0.9392	0.686	-0.04
Mof_H 	H 	0.8999	0.9054	0.6753	-0.025
Mof_C 	C 	0.923	0.0219	0.6962	-0.012
Mof_H 	H 	0.8692	0.0457	0.6921	0.021
Mof_C 	C 	0.9789	0.0667	0.7111	0.066
Mof_C 	C 	0.0607	0.0365	0.7172	0.12
Mof_C 	C 	0.1211	0.0845	0.7342	-0.138
Mof_C 	C 	0.2587	0.0948	0.7543	0.164
Mof_H 	H 	0.3137	0.0723	0.7569	0.045
Mof_C 	C 	0.2413	0.1721	0.7662	0.013
Mof_H 	H 	0.2811	0.2008	0.7788	-0.011
Mof_C 	C 	0.1627	0.2086	0.7593	0.024
Mof_H 	H 	0.1524	0.2654	0.7653	0.005
Mof_C 	C 	0.1016	0.1656	0.7444	-0.133
Mof_C 	C 	0.0197	0.1988	0.7375	0.2
Mof_H 	H 	0.0064	0.2545	0.744	-0.055
Mof_C 	C 	0.9594	0.1524	0.7218	-0.188
Mof_H 	H 	0.9054	0.176	0.7179	0.077
Mof_N 	N 	0.1754	0.0527	0.7388	-0.166
Mof_N 	N 	0.0777	0.9579	0.7092	0.095
Mof_C 	C 	0.029	0.8873	0.6916	0.15
Mof_H 	H 	0.0545	0.8344	0.6873	-0.635
Mof_C 	C 	0.9506	0.9038	0.6829	0.231
Mof_H 	H 	0.9175	0.8621	0.6728	-0.045
Mof_C 	C 	0.9169	0.9856	0.689	-0.017
Mof_H 	H 	0.8626	0.9996	0.6812	0.032
Mof_C 	C 	0.9599	0.0432	0.7054	-0.038
Mof_C 	C 	0.9342	0.1257	0.713	0.146
Mof_H 	H 	0.8793	0.1438	0.7071	-0.052
Mof_C 	C 	0.9854	0.1804	0.7285	-0.146
Mof_H 	H 	0.9652	0.2354	0.7331	0.06
Mof_C 	C 	0.0682	0.1577	0.7378	-0.008
Mof_C 	C 	0.1222	0.2061	0.7537	0.116
Mof_H 	H 	0.1036	0.2611	0.7592	-0.02
Mof_C 	C 	0.2029	0.1834	0.7629	-0.145
Mof_H 	H 	0.2397	0.2212	0.7734	0.071
Mof_C 	C 	0.2261	0.0999	0.7554	-0.039
Mof_H 	H 	0.2784	0.0778	0.7624	-0.09
Mof_C 	C 	0.0958	0.0731	0.729	0.235
Mof_C 	C 	0.0447	0.0188	0.7141	-0.19
_end
