data_functionalizedCrystal
_audit_creation_method	'EQeq! by Chris Wilmer'
_symmetry_space_group_name_H-M	'P1'
_symmetry_Int_Tables_number	1
_symmetry_cell_setting	triclinic
loop_
_symmetry_equiv_pos_as_xyz
  x,y,z
_cell_length_a	11.5002
_cell_length_b	40.7068
_cell_length_c	17.0238
_cell_angle_alpha	90
_cell_angle_beta	90
_cell_angle_gamma	90
loop_
_atom_site_label
_atom_site_type_symbol
_atom_site_fract_x
_atom_site_fract_y
_atom_site_fract_z
_atom_site_charge
Mof_Tb	Tb	0.01962	0.26458	0.43354	1.837
Mof_O 	O 	0.193	0.29077	0.446	-0.571
Mof_O 	O 	0.0405	0.40285	0.4736	-0.491
Mof_H 	H 	0.9949	0.4169	0.4925	0.304
Mof_C 	C 	0.3102	0.33828	0.4327	-0.214
Mof_O 	O 	0.2145	0.43511	0.2521	-0.415
Mof_O 	O 	0.3848	0.28483	0.4513	-0.58
Mof_O 	O 	0.1493	0.44621	0.4483	-0.326
Mof_C 	C 	0.5446	0.40009	0.3845	0.172
Mof_C 	C 	0.2165	0.35954	0.4456	0.129
Mof_H 	H 	0.1422	0.351	0.4589	0.021
Mof_O 	O 	0.9603	0.30171	0.3367	-0.484
Mof_N 	N 	0.6376	0.38249	0.3614	-0.151
Mof_O 	O 	0.06979	0.46734	0.22323	-0.437
Mof_C 	C 	0.2326	0.39301	0.43904	-0.166
Mof_C 	C 	0.72069	0.40567	0.34912	0.141
Mof_C 	C 	0.0225	0.32134	0.29809	0.387
Mof_C 	C 	0.10799	0.44036	0.24953	0.346
Mof_C 	C 	0.91061	0.42225	0.29642	0.037
Mof_H 	H 	0.8846	0.4444	0.2946	0.011
Mof_C 	C 	0.8733	0.36467	0.3218	0.036
Mof_H 	H 	0.8226	0.3477	0.339	0.038
Mof_C 	C 	0.1373	0.41692	0.4541	0.424
Mof_O 	O 	0.1143	0.31295	0.2641	-0.323
Mof_C 	C 	0.3396	0.40552	0.4172	0.084
Mof_H 	H 	0.3488	0.4286	0.4109	0.006
Mof_C 	C 	0.4329	0.38507	0.4045	-0.11
Mof_C 	C 	0.4179	0.35118	0.4116	0.104
Mof_H 	H 	0.4814	0.3368	0.4019	-0.004
Mof_C 	C 	0.2946	0.30178	0.4436	0.547
Mof_C 	C 	0.9847	0.35687	0.2964	-0.106
Mof_C 	C 	0.0612	0.38183	0.2733	0.042
Mof_H 	H 	0.1383	0.3766	0.2577	0.057
Mof_C 	C 	0.0243	0.41431	0.2732	-0.1
Mof_N 	N 	0.6855	0.43483	0.364	-0.113
Mof_N 	N 	0.5664	0.43159	0.3888	-0.204
Mof_C 	C 	0.8353	0.39721	0.3224	-0.057
Mof_H 	H 	0.5391	0.4502	0.3941	0.129
Mof_Tb	Tb	0.01962	0.76458	0.93354	1.78
Mof_O 	O 	0.193	0.79077	0.946	-0.573
Mof_O 	O 	0.0405	0.90285	0.9736	-0.5
Mof_H 	H 	0.9949	0.9169	0.9925	0.284
Mof_C 	C 	0.3102	0.83828	0.9327	-0.224
Mof_O 	O 	0.2145	0.93511	0.7521	-0.414
Mof_O 	O 	0.3848	0.78483	0.9513	-0.584
Mof_O 	O 	0.1493	0.94621	0.9483	-0.342
Mof_C 	C 	0.5446	0.90009	0.8845	0.164
Mof_C 	C 	0.2165	0.85954	0.9456	0.131
Mof_H 	H 	0.1422	0.851	0.9589	0.007
Mof_O 	O 	0.9603	0.80171	0.8367	-0.484
Mof_N 	N 	0.6376	0.88249	0.8614	-0.154
Mof_O 	O 	0.06979	0.96734	0.72323	-0.439
Mof_C 	C 	0.2326	0.89301	0.93904	-0.179
Mof_C 	C 	0.72069	0.90567	0.84912	0.134
Mof_C 	C 	0.0225	0.82134	0.79809	0.388
Mof_C 	C 	0.10799	0.94036	0.74953	0.345
Mof_C 	C 	0.91061	0.92225	0.79642	0.035
Mof_H 	H 	0.8846	0.9444	0.7946	0.009
Mof_C 	C 	0.8733	0.86467	0.8218	0.034
Mof_H 	H 	0.8226	0.8477	0.839	0.033
Mof_C 	C 	0.1373	0.91692	0.9541	0.421
Mof_O 	O 	0.1143	0.81295	0.7641	-0.323
Mof_C 	C 	0.3396	0.90552	0.9172	0.084
Mof_H 	H 	0.3488	0.9286	0.9109	0
Mof_C 	C 	0.4329	0.88507	0.9045	-0.118
Mof_C 	C 	0.4179	0.85118	0.9116	0.102
Mof_H 	H 	0.4814	0.8368	0.9019	-0.01
Mof_C 	C 	0.2946	0.80178	0.9436	0.54
Mof_C 	C 	0.9847	0.85687	0.7964	-0.11
Mof_C 	C 	0.0612	0.88183	0.7733	0.044
Mof_H 	H 	0.1383	0.8766	0.7577	0.057
Mof_C 	C 	0.0243	0.91431	0.7732	-0.101
Mof_N 	N 	0.6855	0.93483	0.864	-0.119
Mof_N 	N 	0.5664	0.93159	0.8888	-0.206
Mof_C 	C 	0.8353	0.89721	0.8224	-0.061
Mof_H 	H 	0.5391	0.9502	0.8941	0.121
Mof_Tb	Tb	0.51962	0.26458	0.93354	1.777
Mof_O 	O 	0.693	0.29077	0.946	-0.573
Mof_O 	O 	0.5405	0.40285	0.9736	-0.5
Mof_H 	H 	0.4949	0.4169	0.9925	0.283
Mof_C 	C 	0.8102	0.33828	0.9327	-0.224
Mof_O 	O 	0.7145	0.43511	0.7521	-0.414
Mof_O 	O 	0.8848	0.28483	0.9513	-0.584
Mof_O 	O 	0.6493	0.44621	0.9483	-0.342
Mof_C 	C 	0.0446	0.40009	0.8845	0.164
Mof_C 	C 	0.7165	0.35954	0.9456	0.13
Mof_H 	H 	0.6422	0.351	0.9589	0.006
Mof_O 	O 	0.4603	0.30171	0.8367	-0.483
Mof_N 	N 	0.1376	0.38249	0.8614	-0.154
Mof_O 	O 	0.56979	0.46734	0.72323	-0.439
Mof_C 	C 	0.7326	0.39301	0.93904	-0.179
Mof_C 	C 	0.22069	0.40567	0.84912	0.134
Mof_C 	C 	0.5225	0.32134	0.79809	0.387
Mof_C 	C 	0.60799	0.44036	0.74953	0.345
Mof_C 	C 	0.41061	0.42225	0.79642	0.035
Mof_H 	H 	0.3846	0.4444	0.7946	0.009
Mof_C 	C 	0.3733	0.36467	0.8218	0.034
Mof_H 	H 	0.3226	0.3477	0.839	0.034
Mof_C 	C 	0.6373	0.41692	0.9541	0.422
Mof_O 	O 	0.6143	0.31295	0.7641	-0.323
Mof_C 	C 	0.8396	0.40552	0.9172	0.084
Mof_H 	H 	0.8488	0.4286	0.9109	0.001
Mof_C 	C 	0.9329	0.38507	0.9045	-0.117
Mof_C 	C 	0.9179	0.35118	0.9116	0.102
Mof_H 	H 	0.9814	0.3368	0.9019	-0.01
Mof_C 	C 	0.7946	0.30178	0.9436	0.54
Mof_C 	C 	0.4847	0.35687	0.7964	-0.11
Mof_C 	C 	0.5612	0.38183	0.7733	0.044
Mof_H 	H 	0.6383	0.3766	0.7577	0.057
Mof_C 	C 	0.5243	0.41431	0.7732	-0.101
Mof_N 	N 	0.1855	0.43483	0.864	-0.119
Mof_N 	N 	0.0664	0.43159	0.8888	-0.206
Mof_C 	C 	0.3353	0.39721	0.8224	-0.061
Mof_H 	H 	0.0391	0.4502	0.8941	0.121
Mof_Tb	Tb	0.51962	0.76458	0.43354	1.84
Mof_O 	O 	0.693	0.79077	0.446	-0.57
Mof_O 	O 	0.5405	0.90285	0.4736	-0.489
Mof_H 	H 	0.4949	0.9169	0.4925	0.305
Mof_C 	C 	0.8102	0.83828	0.4327	-0.214
Mof_O 	O 	0.7145	0.93511	0.2521	-0.416
Mof_O 	O 	0.8848	0.78483	0.4513	-0.58
Mof_O 	O 	0.6493	0.94621	0.4483	-0.326
Mof_C 	C 	0.0446	0.90009	0.3845	0.172
Mof_C 	C 	0.7165	0.85954	0.4456	0.129
Mof_H 	H 	0.6422	0.851	0.4589	0.021
Mof_O 	O 	0.4603	0.80171	0.3367	-0.485
Mof_N 	N 	0.1376	0.88249	0.3614	-0.151
Mof_O 	O 	0.56979	0.96734	0.22323	-0.437
Mof_C 	C 	0.7326	0.89301	0.43904	-0.166
Mof_C 	C 	0.22069	0.90567	0.34912	0.141
Mof_C 	C 	0.5225	0.82134	0.29809	0.389
Mof_C 	C 	0.60799	0.94036	0.24953	0.346
Mof_C 	C 	0.41061	0.92225	0.29642	0.036
Mof_H 	H 	0.3846	0.9444	0.2946	0.011
Mof_C 	C 	0.3733	0.86467	0.3218	0.036
Mof_H 	H 	0.3226	0.8477	0.339	0.037
Mof_C 	C 	0.6373	0.91692	0.4541	0.423
Mof_O 	O 	0.6143	0.81295	0.2641	-0.324
Mof_C 	C 	0.8396	0.90552	0.4172	0.084
Mof_H 	H 	0.8488	0.9286	0.4109	0.006
Mof_C 	C 	0.9329	0.88507	0.4045	-0.11
Mof_C 	C 	0.9179	0.85118	0.4116	0.105
Mof_H 	H 	0.9814	0.8368	0.4019	-0.005
Mof_C 	C 	0.7946	0.80178	0.4436	0.547
Mof_C 	C 	0.4847	0.85687	0.2964	-0.108
Mof_C 	C 	0.5612	0.88183	0.2733	0.043
Mof_H 	H 	0.6383	0.8766	0.2577	0.057
Mof_C 	C 	0.5243	0.91431	0.2732	-0.1
Mof_N 	N 	0.1855	0.93483	0.364	-0.113
Mof_N 	N 	0.0664	0.93159	0.3888	-0.204
Mof_C 	C 	0.3353	0.89721	0.3224	-0.057
Mof_H 	H 	0.0391	0.9502	0.3941	0.129
Mof_Tb	Tb	0.98038	0.73542	0.43354	1.838
Mof_O 	O 	0.807	0.70923	0.446	-0.57
Mof_O 	O 	0.9595	0.59715	0.4736	-0.49
Mof_H 	H 	0.0051	0.5831	0.4925	0.305
Mof_C 	C 	0.6898	0.66172	0.4327	-0.214
Mof_O 	O 	0.7855	0.56489	0.2521	-0.415
Mof_O 	O 	0.6152	0.71517	0.4513	-0.58
Mof_O 	O 	0.8507	0.55379	0.4483	-0.326
Mof_C 	C 	0.4554	0.59991	0.3845	0.172
Mof_C 	C 	0.7835	0.64046	0.4456	0.129
Mof_H 	H 	0.8578	0.649	0.4589	0.021
Mof_O 	O 	0.0397	0.69829	0.3367	-0.484
Mof_N 	N 	0.3624	0.61751	0.3614	-0.151
Mof_O 	O 	0.93021	0.53266	0.22323	-0.437
Mof_C 	C 	0.7674	0.60699	0.43904	-0.166
Mof_C 	C 	0.27931	0.59433	0.34912	0.141
Mof_C 	C 	0.9775	0.67866	0.29809	0.387
Mof_C 	C 	0.89201	0.55964	0.24953	0.346
Mof_C 	C 	0.08939	0.57775	0.29642	0.037
Mof_H 	H 	0.1154	0.5556	0.2946	0.011
Mof_C 	C 	0.1267	0.63533	0.3218	0.036
Mof_H 	H 	0.1774	0.6523	0.339	0.038
Mof_C 	C 	0.8627	0.58308	0.4541	0.424
Mof_O 	O 	0.8857	0.68705	0.2641	-0.323
Mof_C 	C 	0.6604	0.59448	0.4172	0.084
Mof_H 	H 	0.6512	0.5714	0.4109	0.006
Mof_C 	C 	0.5671	0.61493	0.4045	-0.11
Mof_C 	C 	0.5821	0.64882	0.4116	0.104
Mof_H 	H 	0.5186	0.6632	0.4019	-0.004
Mof_C 	C 	0.7054	0.69822	0.4436	0.547
Mof_C 	C 	0.0153	0.64313	0.2964	-0.106
Mof_C 	C 	0.9388	0.61817	0.2733	0.042
Mof_H 	H 	0.8617	0.6234	0.2577	0.057
Mof_C 	C 	0.9757	0.58569	0.2732	-0.1
Mof_N 	N 	0.3145	0.56517	0.364	-0.113
Mof_N 	N 	0.4336	0.56841	0.3888	-0.204
Mof_C 	C 	0.1647	0.60279	0.3224	-0.057
Mof_H 	H 	0.4609	0.5498	0.3941	0.129
Mof_Tb	Tb	0.98038	0.23542	0.93354	1.78
Mof_O 	O 	0.807	0.20923	0.946	-0.573
Mof_O 	O 	0.9595	0.09715	0.9736	-0.5
Mof_H 	H 	0.0051	0.0831	0.9925	0.284
Mof_C 	C 	0.6898	0.16172	0.9327	-0.224
Mof_O 	O 	0.7855	0.06489	0.7521	-0.414
Mof_O 	O 	0.6152	0.21517	0.9513	-0.584
Mof_O 	O 	0.8507	0.05379	0.9483	-0.342
Mof_C 	C 	0.4554	0.09991	0.8845	0.164
Mof_C 	C 	0.7835	0.14046	0.9456	0.131
Mof_H 	H 	0.8578	0.149	0.9589	0.007
Mof_O 	O 	0.0397	0.19829	0.8367	-0.484
Mof_N 	N 	0.3624	0.11751	0.8614	-0.154
Mof_O 	O 	0.93021	0.03266	0.72323	-0.439
Mof_C 	C 	0.7674	0.10699	0.93904	-0.179
Mof_C 	C 	0.27931	0.09433	0.84912	0.134
Mof_C 	C 	0.9775	0.17866	0.79809	0.388
Mof_C 	C 	0.89201	0.05964	0.74953	0.345
Mof_C 	C 	0.08939	0.07775	0.79642	0.035
Mof_H 	H 	0.1154	0.0556	0.7946	0.009
Mof_C 	C 	0.1267	0.13533	0.8218	0.034
Mof_H 	H 	0.1774	0.1523	0.839	0.033
Mof_C 	C 	0.8627	0.08308	0.9541	0.421
Mof_O 	O 	0.8857	0.18705	0.7641	-0.323
Mof_C 	C 	0.6604	0.09448	0.9172	0.084
Mof_H 	H 	0.6512	0.0714	0.9109	0
Mof_C 	C 	0.5671	0.11493	0.9045	-0.118
Mof_C 	C 	0.5821	0.14882	0.9116	0.102
Mof_H 	H 	0.5186	0.1632	0.9019	-0.01
Mof_C 	C 	0.7054	0.19822	0.9436	0.54
Mof_C 	C 	0.0153	0.14313	0.7964	-0.11
Mof_C 	C 	0.9388	0.11817	0.7733	0.044
Mof_H 	H 	0.8617	0.1234	0.7577	0.057
Mof_C 	C 	0.9757	0.08569	0.7732	-0.101
Mof_N 	N 	0.3145	0.06517	0.864	-0.119
Mof_N 	N 	0.4336	0.06841	0.8888	-0.206
Mof_C 	C 	0.1647	0.10279	0.8224	-0.061
Mof_H 	H 	0.4609	0.0498	0.8941	0.121
Mof_Tb	Tb	0.48038	0.73542	0.93354	1.777
Mof_O 	O 	0.307	0.70923	0.946	-0.573
Mof_O 	O 	0.4595	0.59715	0.9736	-0.5
Mof_H 	H 	0.5051	0.5831	0.9925	0.283
Mof_C 	C 	0.1898	0.66172	0.9327	-0.224
Mof_O 	O 	0.2855	0.56489	0.7521	-0.414
Mof_O 	O 	0.1152	0.71517	0.9513	-0.584
Mof_O 	O 	0.3507	0.55379	0.9483	-0.342
Mof_C 	C 	0.9554	0.59991	0.8845	0.164
Mof_C 	C 	0.2835	0.64046	0.9456	0.13
Mof_H 	H 	0.3578	0.649	0.9589	0.006
Mof_O 	O 	0.5397	0.69829	0.8367	-0.483
Mof_N 	N 	0.8624	0.61751	0.8614	-0.154
Mof_O 	O 	0.43021	0.53266	0.72323	-0.439
Mof_C 	C 	0.2674	0.60699	0.93904	-0.179
Mof_C 	C 	0.77931	0.59433	0.84912	0.134
Mof_C 	C 	0.4775	0.67866	0.79809	0.387
Mof_C 	C 	0.39201	0.55964	0.74953	0.345
Mof_C 	C 	0.58939	0.57775	0.79642	0.035
Mof_H 	H 	0.6154	0.5556	0.7946	0.009
Mof_C 	C 	0.6267	0.63533	0.8218	0.034
Mof_H 	H 	0.6774	0.6523	0.839	0.034
Mof_C 	C 	0.3627	0.58308	0.9541	0.422
Mof_O 	O 	0.3857	0.68705	0.7641	-0.323
Mof_C 	C 	0.1604	0.59448	0.9172	0.084
Mof_H 	H 	0.1512	0.5714	0.9109	0.001
Mof_C 	C 	0.0671	0.61493	0.9045	-0.117
Mof_C 	C 	0.0821	0.64882	0.9116	0.102
Mof_H 	H 	0.0186	0.6632	0.9019	-0.01
Mof_C 	C 	0.2054	0.69822	0.9436	0.54
Mof_C 	C 	0.5153	0.64313	0.7964	-0.11
Mof_C 	C 	0.4388	0.61817	0.7733	0.044
Mof_H 	H 	0.3617	0.6234	0.7577	0.057
Mof_C 	C 	0.4757	0.58569	0.7732	-0.101
Mof_N 	N 	0.8145	0.56517	0.864	-0.119
Mof_N 	N 	0.9336	0.56841	0.8888	-0.206
Mof_C 	C 	0.6647	0.60279	0.8224	-0.061
Mof_H 	H 	0.9609	0.5498	0.8941	0.121
Mof_Tb	Tb	0.48038	0.23542	0.43354	1.84
Mof_O 	O 	0.307	0.20923	0.446	-0.57
Mof_O 	O 	0.4595	0.09715	0.4736	-0.489
Mof_H 	H 	0.5051	0.0831	0.4925	0.305
Mof_C 	C 	0.1898	0.16172	0.4327	-0.214
Mof_O 	O 	0.2855	0.06489	0.2521	-0.416
Mof_O 	O 	0.1152	0.21517	0.4513	-0.58
Mof_O 	O 	0.3507	0.05379	0.4483	-0.326
Mof_C 	C 	0.9554	0.09991	0.3845	0.172
Mof_C 	C 	0.2835	0.14046	0.4456	0.129
Mof_H 	H 	0.3578	0.149	0.4589	0.021
Mof_O 	O 	0.5397	0.19829	0.3367	-0.485
Mof_N 	N 	0.8624	0.11751	0.3614	-0.151
Mof_O 	O 	0.43021	0.03266	0.22323	-0.437
Mof_C 	C 	0.2674	0.10699	0.43904	-0.166
Mof_C 	C 	0.77931	0.09433	0.34912	0.141
Mof_C 	C 	0.4775	0.17866	0.29809	0.389
Mof_C 	C 	0.39201	0.05964	0.24953	0.346
Mof_C 	C 	0.58939	0.07775	0.29642	0.036
Mof_H 	H 	0.6154	0.0556	0.2946	0.011
Mof_C 	C 	0.6267	0.13533	0.3218	0.036
Mof_H 	H 	0.6774	0.1523	0.339	0.037
Mof_C 	C 	0.3627	0.08308	0.4541	0.423
Mof_O 	O 	0.3857	0.18705	0.2641	-0.324
Mof_C 	C 	0.1604	0.09448	0.4172	0.084
Mof_H 	H 	0.1512	0.0714	0.4109	0.006
Mof_C 	C 	0.0671	0.11493	0.4045	-0.11
Mof_C 	C 	0.0821	0.14882	0.4116	0.105
Mof_H 	H 	0.0186	0.1632	0.4019	-0.005
Mof_C 	C 	0.2054	0.19822	0.4436	0.547
Mof_C 	C 	0.5153	0.14313	0.2964	-0.108
Mof_C 	C 	0.4388	0.11817	0.2733	0.043
Mof_H 	H 	0.3617	0.1234	0.2577	0.057
Mof_C 	C 	0.4757	0.08569	0.2732	-0.1
Mof_N 	N 	0.8145	0.06517	0.364	-0.113
Mof_N 	N 	0.9336	0.06841	0.3888	-0.204
Mof_C 	C 	0.6647	0.10279	0.3224	-0.057
Mof_H 	H 	0.9609	0.0498	0.3941	0.129
Mof_Tb	Tb	0.26962	0.98542	0.68354	1.835
Mof_O 	O 	0.443	0.95923	0.696	-0.57
Mof_O 	O 	0.2905	0.84715	0.7236	-0.489
Mof_H 	H 	0.2449	0.8331	0.7425	0.305
Mof_C 	C 	0.5602	0.91172	0.6827	-0.213
Mof_O 	O 	0.4645	0.81489	0.5021	-0.414
Mof_O 	O 	0.6348	0.96517	0.7013	-0.58
Mof_O 	O 	0.3993	0.80379	0.6983	-0.325
Mof_C 	C 	0.7946	0.84991	0.6345	0.172
Mof_C 	C 	0.4665	0.89046	0.6956	0.129
Mof_H 	H 	0.3922	0.899	0.7089	0.021
Mof_O 	O 	0.2103	0.94829	0.5867	-0.485
Mof_N 	N 	0.8876	0.86751	0.6114	-0.151
Mof_O 	O 	0.31979	0.78266	0.47323	-0.438
Mof_C 	C 	0.4826	0.85699	0.68904	-0.165
Mof_C 	C 	0.97069	0.84433	0.59912	0.141
Mof_C 	C 	0.2725	0.92866	0.54809	0.389
Mof_C 	C 	0.35799	0.80964	0.49953	0.346
Mof_C 	C 	0.16061	0.82775	0.54642	0.036
Mof_H 	H 	0.1346	0.8056	0.5446	0.012
Mof_C 	C 	0.1233	0.88533	0.5718	0.036
Mof_H 	H 	0.0726	0.9023	0.589	0.038
Mof_C 	C 	0.3873	0.83308	0.7041	0.423
Mof_O 	O 	0.3643	0.93705	0.5141	-0.325
Mof_C 	C 	0.5896	0.84448	0.6672	0.083
Mof_H 	H 	0.5988	0.8214	0.6609	0.006
Mof_C 	C 	0.6829	0.86493	0.6545	-0.109
Mof_C 	C 	0.6679	0.89882	0.6616	0.104
Mof_H 	H 	0.7314	0.9132	0.6519	-0.004
Mof_C 	C 	0.5446	0.94822	0.6936	0.546
Mof_C 	C 	0.2347	0.89313	0.5464	-0.108
Mof_C 	C 	0.3112	0.86817	0.5233	0.044
Mof_H 	H 	0.3883	0.8734	0.5077	0.057
Mof_C 	C 	0.2743	0.83569	0.5232	-0.1
Mof_N 	N 	0.9355	0.81517	0.614	-0.113
Mof_N 	N 	0.8164	0.81841	0.6388	-0.204
Mof_C 	C 	0.0853	0.85279	0.5724	-0.056
Mof_H 	H 	0.7891	0.7998	0.6441	0.129
Mof_Tb	Tb	0.26962	0.48542	0.18354	1.855
Mof_O 	O 	0.443	0.45923	0.196	-0.571
Mof_O 	O 	0.2905	0.34715	0.2236	-0.489
Mof_H 	H 	0.2449	0.3331	0.2425	0.305
Mof_C 	C 	0.5602	0.41172	0.1827	-0.21
Mof_O 	O 	0.4645	0.31489	0.0021	-0.325
Mof_O 	O 	0.6348	0.46517	0.2013	-0.579
Mof_O 	O 	0.3993	0.30379	0.1983	-0.319
Mof_C 	C 	0.7946	0.34991	0.1345	0.181
Mof_C 	C 	0.4665	0.39046	0.1956	0.129
Mof_H 	H 	0.3922	0.399	0.2089	0.021
Mof_O 	O 	0.2103	0.44829	0.0867	-0.475
Mof_N 	N 	0.8876	0.36751	0.1114	-0.144
Mof_O 	O 	0.31979	0.28266	0.97323	-0.419
Mof_C 	C 	0.4826	0.35699	0.18904	-0.163
Mof_C 	C 	0.97069	0.34433	0.09912	0.139
Mof_C 	C 	0.2725	0.42866	0.04809	0.377
Mof_C 	C 	0.35799	0.30964	0.99953	0.209
Mof_C 	C 	0.16061	0.32775	0.04642	-0.015
Mof_H 	H 	0.1346	0.3056	0.0446	0.045
Mof_C 	C 	0.1233	0.38533	0.0718	0.009
Mof_H 	H 	0.0726	0.4023	0.089	0.053
Mof_C 	C 	0.3873	0.33308	0.2041	0.422
Mof_O 	O 	0.3643	0.43705	0.0141	-0.294
Mof_C 	C 	0.5896	0.34448	0.1672	0.084
Mof_H 	H 	0.5988	0.3214	0.1609	0.01
Mof_C 	C 	0.6829	0.36493	0.1545	-0.104
Mof_C 	C 	0.6679	0.39882	0.1616	0.108
Mof_H 	H 	0.7314	0.4132	0.1519	0.001
Mof_C 	C 	0.5446	0.44822	0.1936	0.55
Mof_C 	C 	0.2347	0.39313	0.0464	-0.064
Mof_C 	C 	0.3112	0.36817	0.0233	-0.013
Mof_H 	H 	0.3883	0.3734	0.0077	0.093
Mof_C 	C 	0.2743	0.33569	0.0232	0.007
Mof_N 	N 	0.9355	0.31517	0.114	-0.103
Mof_N 	N 	0.8164	0.31841	0.1388	-0.204
Mof_C 	C 	0.0853	0.35279	0.0724	-0.019
Mof_H 	H 	0.7891	0.2998	0.1441	0.137
Mof_Tb	Tb	0.76962	0.98542	0.18354	1.855
Mof_O 	O 	0.943	0.95923	0.196	-0.571
Mof_O 	O 	0.7905	0.84715	0.2236	-0.489
Mof_H 	H 	0.7449	0.8331	0.2425	0.305
Mof_C 	C 	0.0602	0.91172	0.1827	-0.21
Mof_O 	O 	0.9645	0.81489	0.0021	-0.326
Mof_O 	O 	0.1348	0.96517	0.2013	-0.579
Mof_O 	O 	0.8993	0.80379	0.1983	-0.32
Mof_C 	C 	0.2946	0.84991	0.1345	0.181
Mof_C 	C 	0.9665	0.89046	0.1956	0.129
Mof_H 	H 	0.8922	0.899	0.2089	0.021
Mof_O 	O 	0.7103	0.94829	0.0867	-0.475
Mof_N 	N 	0.3876	0.86751	0.1114	-0.144
Mof_O 	O 	0.81979	0.78266	0.97323	-0.419
Mof_C 	C 	0.9826	0.85699	0.18904	-0.164
Mof_C 	C 	0.47069	0.84433	0.09912	0.138
Mof_C 	C 	0.7725	0.92866	0.04809	0.377
Mof_C 	C 	0.85799	0.80964	0.99953	0.21
Mof_C 	C 	0.66061	0.82775	0.04642	-0.015
Mof_H 	H 	0.6346	0.8056	0.0446	0.046
Mof_C 	C 	0.6233	0.88533	0.0718	0.009
Mof_H 	H 	0.5726	0.9023	0.089	0.053
Mof_C 	C 	0.8873	0.83308	0.2041	0.422
Mof_O 	O 	0.8643	0.93705	0.0141	-0.294
Mof_C 	C 	0.0896	0.84448	0.1672	0.085
Mof_H 	H 	0.0988	0.8214	0.1609	0.01
Mof_C 	C 	0.1829	0.86493	0.1545	-0.105
Mof_C 	C 	0.1679	0.89882	0.1616	0.108
Mof_H 	H 	0.2314	0.9132	0.1519	0.001
Mof_C 	C 	0.0446	0.94822	0.1936	0.55
Mof_C 	C 	0.7347	0.89313	0.0464	-0.064
Mof_C 	C 	0.8112	0.86817	0.0233	-0.013
Mof_H 	H 	0.8883	0.8734	0.0077	0.093
Mof_C 	C 	0.7743	0.83569	0.0232	0.007
Mof_N 	N 	0.4355	0.81517	0.114	-0.103
Mof_N 	N 	0.3164	0.81841	0.1388	-0.204
Mof_C 	C 	0.5853	0.85279	0.0724	-0.018
Mof_H 	H 	0.2891	0.7998	0.1441	0.137
Mof_Tb	Tb	0.76962	0.48542	0.68354	1.835
Mof_O 	O 	0.943	0.45923	0.696	-0.57
Mof_O 	O 	0.7905	0.34715	0.7236	-0.489
Mof_H 	H 	0.7449	0.3331	0.7425	0.305
Mof_C 	C 	0.0602	0.41172	0.6827	-0.213
Mof_O 	O 	0.9645	0.31489	0.5021	-0.413
Mof_O 	O 	0.1348	0.46517	0.7013	-0.58
Mof_O 	O 	0.8993	0.30379	0.6983	-0.325
Mof_C 	C 	0.2946	0.34991	0.6345	0.172
Mof_C 	C 	0.9665	0.39046	0.6956	0.129
Mof_H 	H 	0.8922	0.399	0.7089	0.021
Mof_O 	O 	0.7103	0.44829	0.5867	-0.486
Mof_N 	N 	0.3876	0.36751	0.6114	-0.151
Mof_O 	O 	0.81979	0.28266	0.47323	-0.438
Mof_C 	C 	0.9826	0.35699	0.68904	-0.164
Mof_C 	C 	0.47069	0.34433	0.59912	0.141
Mof_C 	C 	0.7725	0.42866	0.54809	0.389
Mof_C 	C 	0.85799	0.30964	0.49953	0.346
Mof_C 	C 	0.66061	0.32775	0.54642	0.036
Mof_H 	H 	0.6346	0.3056	0.5446	0.011
Mof_C 	C 	0.6233	0.38533	0.5718	0.037
Mof_H 	H 	0.5726	0.4023	0.589	0.038
Mof_C 	C 	0.8873	0.33308	0.7041	0.423
Mof_O 	O 	0.8643	0.43705	0.5141	-0.325
Mof_C 	C 	0.0896	0.34448	0.6672	0.082
Mof_H 	H 	0.0988	0.3214	0.6609	0.006
Mof_C 	C 	0.1829	0.36493	0.6545	-0.109
Mof_C 	C 	0.1679	0.39882	0.6616	0.104
Mof_H 	H 	0.2314	0.4132	0.6519	-0.004
Mof_C 	C 	0.0446	0.44822	0.6936	0.546
Mof_C 	C 	0.7347	0.39313	0.5464	-0.108
Mof_C 	C 	0.8112	0.36817	0.5233	0.044
Mof_H 	H 	0.8883	0.3734	0.5077	0.057
Mof_C 	C 	0.7743	0.33569	0.5232	-0.1
Mof_N 	N 	0.4355	0.31517	0.614	-0.113
Mof_N 	N 	0.3164	0.31841	0.6388	-0.204
Mof_C 	C 	0.5853	0.35279	0.5724	-0.057
Mof_H 	H 	0.2891	0.2998	0.6441	0.129
Mof_Tb	Tb	0.23038	0.51458	0.68354	1.835
Mof_O 	O 	0.057	0.54077	0.696	-0.57
Mof_O 	O 	0.2095	0.65285	0.7236	-0.489
Mof_H 	H 	0.2551	0.6669	0.7425	0.305
Mof_C 	C 	0.9398	0.58828	0.6827	-0.213
Mof_O 	O 	0.0355	0.68511	0.5021	-0.413
Mof_O 	O 	0.8652	0.53483	0.7013	-0.58
Mof_O 	O 	0.1007	0.69621	0.6983	-0.325
Mof_C 	C 	0.7054	0.65009	0.6345	0.172
Mof_C 	C 	0.0335	0.60954	0.6956	0.129
Mof_H 	H 	0.1078	0.601	0.7089	0.021
Mof_O 	O 	0.2897	0.55171	0.5867	-0.486
Mof_N 	N 	0.6124	0.63249	0.6114	-0.151
Mof_O 	O 	0.18021	0.71734	0.47323	-0.438
Mof_C 	C 	0.0174	0.64301	0.68904	-0.164
Mof_C 	C 	0.52931	0.65567	0.59912	0.141
Mof_C 	C 	0.2275	0.57134	0.54809	0.389
Mof_C 	C 	0.14201	0.69036	0.49953	0.346
Mof_C 	C 	0.33939	0.67225	0.54642	0.036
Mof_H 	H 	0.3654	0.6944	0.5446	0.011
Mof_C 	C 	0.3767	0.61467	0.5718	0.037
Mof_H 	H 	0.4274	0.5977	0.589	0.038
Mof_C 	C 	0.1127	0.66692	0.7041	0.423
Mof_O 	O 	0.1357	0.56295	0.5141	-0.325
Mof_C 	C 	0.9104	0.65552	0.6672	0.082
Mof_H 	H 	0.9012	0.6786	0.6609	0.006
Mof_C 	C 	0.8171	0.63507	0.6545	-0.109
Mof_C 	C 	0.8321	0.60118	0.6616	0.104
Mof_H 	H 	0.7686	0.5868	0.6519	-0.004
Mof_C 	C 	0.9554	0.55178	0.6936	0.546
Mof_C 	C 	0.2653	0.60687	0.5464	-0.108
Mof_C 	C 	0.1888	0.63183	0.5233	0.044
Mof_H 	H 	0.1117	0.6266	0.5077	0.057
Mof_C 	C 	0.2257	0.66431	0.5232	-0.1
Mof_N 	N 	0.5645	0.68483	0.614	-0.113
Mof_N 	N 	0.6836	0.68159	0.6388	-0.204
Mof_C 	C 	0.4147	0.64721	0.5724	-0.057
Mof_H 	H 	0.7109	0.7002	0.6441	0.129
Mof_Tb	Tb	0.23038	0.01458	0.18354	1.855
Mof_O 	O 	0.057	0.04077	0.196	-0.571
Mof_O 	O 	0.2095	0.15285	0.2236	-0.489
Mof_H 	H 	0.2551	0.1669	0.2425	0.305
Mof_C 	C 	0.9398	0.08828	0.1827	-0.21
Mof_O 	O 	0.0355	0.18511	0.0021	-0.326
Mof_O 	O 	0.8652	0.03483	0.2013	-0.579
Mof_O 	O 	0.1007	0.19621	0.1983	-0.32
Mof_C 	C 	0.7054	0.15009	0.1345	0.181
Mof_C 	C 	0.0335	0.10954	0.1956	0.129
Mof_H 	H 	0.1078	0.101	0.2089	0.021
Mof_O 	O 	0.2897	0.05171	0.0867	-0.475
Mof_N 	N 	0.6124	0.13249	0.1114	-0.144
Mof_O 	O 	0.18021	0.21734	0.97323	-0.419
Mof_C 	C 	0.0174	0.14301	0.18904	-0.164
Mof_C 	C 	0.52931	0.15567	0.09912	0.138
Mof_C 	C 	0.2275	0.07134	0.04809	0.377
Mof_C 	C 	0.14201	0.19036	0.99953	0.21
Mof_C 	C 	0.33939	0.17225	0.04642	-0.015
Mof_H 	H 	0.3654	0.1944	0.0446	0.046
Mof_C 	C 	0.3767	0.11467	0.0718	0.009
Mof_H 	H 	0.4274	0.0977	0.089	0.053
Mof_C 	C 	0.1127	0.16692	0.2041	0.422
Mof_O 	O 	0.1357	0.06295	0.0141	-0.294
Mof_C 	C 	0.9104	0.15552	0.1672	0.085
Mof_H 	H 	0.9012	0.1786	0.1609	0.01
Mof_C 	C 	0.8171	0.13507	0.1545	-0.105
Mof_C 	C 	0.8321	0.10118	0.1616	0.108
Mof_H 	H 	0.7686	0.0868	0.1519	0.001
Mof_C 	C 	0.9554	0.05178	0.1936	0.55
Mof_C 	C 	0.2653	0.10687	0.0464	-0.064
Mof_C 	C 	0.1888	0.13183	0.0233	-0.013
Mof_H 	H 	0.1117	0.1266	0.0077	0.093
Mof_C 	C 	0.2257	0.16431	0.0232	0.007
Mof_N 	N 	0.5645	0.18483	0.114	-0.103
Mof_N 	N 	0.6836	0.18159	0.1388	-0.204
Mof_C 	C 	0.4147	0.14721	0.0724	-0.018
Mof_H 	H 	0.7109	0.2002	0.1441	0.137
Mof_Tb	Tb	0.73038	0.51458	0.18354	1.855
Mof_O 	O 	0.557	0.54077	0.196	-0.571
Mof_O 	O 	0.7095	0.65285	0.2236	-0.489
Mof_H 	H 	0.7551	0.6669	0.2425	0.305
Mof_C 	C 	0.4398	0.58828	0.1827	-0.21
Mof_O 	O 	0.5355	0.68511	0.0021	-0.325
Mof_O 	O 	0.3652	0.53483	0.2013	-0.579
Mof_O 	O 	0.6007	0.69621	0.1983	-0.319
Mof_C 	C 	0.2054	0.65009	0.1345	0.181
Mof_C 	C 	0.5335	0.60954	0.1956	0.129
Mof_H 	H 	0.6078	0.601	0.2089	0.021
Mof_O 	O 	0.7897	0.55171	0.0867	-0.475
Mof_N 	N 	0.1124	0.63249	0.1114	-0.144
Mof_O 	O 	0.68021	0.71734	0.97323	-0.419
Mof_C 	C 	0.5174	0.64301	0.18904	-0.163
Mof_C 	C 	0.02931	0.65567	0.09912	0.139
Mof_C 	C 	0.7275	0.57134	0.04809	0.377
Mof_C 	C 	0.64201	0.69036	0.99953	0.209
Mof_C 	C 	0.83939	0.67225	0.04642	-0.015
Mof_H 	H 	0.8654	0.6944	0.0446	0.045
Mof_C 	C 	0.8767	0.61467	0.0718	0.009
Mof_H 	H 	0.9274	0.5977	0.089	0.053
Mof_C 	C 	0.6127	0.66692	0.2041	0.422
Mof_O 	O 	0.6357	0.56295	0.0141	-0.294
Mof_C 	C 	0.4104	0.65552	0.1672	0.084
Mof_H 	H 	0.4012	0.6786	0.1609	0.01
Mof_C 	C 	0.3171	0.63507	0.1545	-0.104
Mof_C 	C 	0.3321	0.60118	0.1616	0.108
Mof_H 	H 	0.2686	0.5868	0.1519	0.001
Mof_C 	C 	0.4554	0.55178	0.1936	0.55
Mof_C 	C 	0.7653	0.60687	0.0464	-0.064
Mof_C 	C 	0.6888	0.63183	0.0233	-0.013
Mof_H 	H 	0.6117	0.6266	0.0077	0.093
Mof_C 	C 	0.7257	0.66431	0.0232	0.007
Mof_N 	N 	0.0645	0.68483	0.114	-0.103
Mof_N 	N 	0.1836	0.68159	0.1388	-0.204
Mof_C 	C 	0.9147	0.64721	0.0724	-0.019
Mof_H 	H 	0.2109	0.7002	0.1441	0.137
Mof_Tb	Tb	0.73038	0.01458	0.68354	1.835
Mof_O 	O 	0.557	0.04077	0.696	-0.57
Mof_O 	O 	0.7095	0.15285	0.7236	-0.489
Mof_H 	H 	0.7551	0.1669	0.7425	0.305
Mof_C 	C 	0.4398	0.08828	0.6827	-0.213
Mof_O 	O 	0.5355	0.18511	0.5021	-0.414
Mof_O 	O 	0.3652	0.03483	0.7013	-0.58
Mof_O 	O 	0.6007	0.19621	0.6983	-0.325
Mof_C 	C 	0.2054	0.15009	0.6345	0.172
Mof_C 	C 	0.5335	0.10954	0.6956	0.129
Mof_H 	H 	0.6078	0.101	0.7089	0.021
Mof_O 	O 	0.7897	0.05171	0.5867	-0.485
Mof_N 	N 	0.1124	0.13249	0.6114	-0.151
Mof_O 	O 	0.68021	0.21734	0.47323	-0.438
Mof_C 	C 	0.5174	0.14301	0.68904	-0.165
Mof_C 	C 	0.02931	0.15567	0.59912	0.141
Mof_C 	C 	0.7275	0.07134	0.54809	0.389
Mof_C 	C 	0.64201	0.19036	0.49953	0.346
Mof_C 	C 	0.83939	0.17225	0.54642	0.036
Mof_H 	H 	0.8654	0.1944	0.5446	0.012
Mof_C 	C 	0.8767	0.11467	0.5718	0.036
Mof_H 	H 	0.9274	0.0977	0.589	0.038
Mof_C 	C 	0.6127	0.16692	0.7041	0.423
Mof_O 	O 	0.6357	0.06295	0.5141	-0.325
Mof_C 	C 	0.4104	0.15552	0.6672	0.083
Mof_H 	H 	0.4012	0.1786	0.6609	0.006
Mof_C 	C 	0.3171	0.13507	0.6545	-0.109
Mof_C 	C 	0.3321	0.10118	0.6616	0.104
Mof_H 	H 	0.2686	0.0868	0.6519	-0.004
Mof_C 	C 	0.4554	0.05178	0.6936	0.546
Mof_C 	C 	0.7653	0.10687	0.5464	-0.108
Mof_C 	C 	0.6888	0.13183	0.5233	0.044
Mof_H 	H 	0.6117	0.1266	0.5077	0.057
Mof_C 	C 	0.7257	0.16431	0.5232	-0.1
Mof_N 	N 	0.0645	0.18483	0.614	-0.113
Mof_N 	N 	0.1836	0.18159	0.6388	-0.204
Mof_C 	C 	0.9147	0.14721	0.5724	-0.056
Mof_H 	H 	0.2109	0.2002	0.6441	0.129
_end
