data_functionalizedCrystal
_audit_creation_method	'EQeq! by Chris Wilmer'
_symmetry_space_group_name_H-M	'P1'
_symmetry_Int_Tables_number	1
_symmetry_cell_setting	triclinic
loop_
_symmetry_equiv_pos_as_xyz
  x,y,z
_cell_length_a	9.247
_cell_length_b	9.97
_cell_length_c	15.025
_cell_angle_alpha	100.151
_cell_angle_beta	91.372
_cell_angle_gamma	91.776
loop_
_atom_site_label
_atom_site_type_symbol
_atom_site_fract_x
_atom_site_fract_y
_atom_site_fract_z
_atom_site_charge
Mof_Co	Co	0.06792	0.84395	0.80653	1.103
Mof_Co	Co	0.82937	0.61331	0.06252	1.171
Mof_P 	P 	0.11377	0.71019	0.99383	0.498
Mof_O 	O 	0.1387	0.5755	0.93437	-0.478
Mof_O 	O 	0.0508	0.8082	0.93805	-0.533
Mof_O 	O 	0.0232	0.6971	0.0756	-0.503
Mof_O 	O 	0.084	0.9976	0.13207	-0.517
Mof_O 	O 	0.2136	0.9633	0.2512	-0.298
Mof_O 	O 	0.7432	0.0448	0.1595	-0.504
Mof_O 	O 	0.8068	0.9153	0.03119	-0.457
Mof_O 	O 	0.7245	0.6297	0.95098	-0.397
Mof_O 	O 	0.6493	0.7621	0.85726	-0.249
Mof_N 	N 	0.7114	0.6773	0.17	-0.252
Mof_N 	N 	0.6264	0.8099	0.2871	-0.102
Mof_N 	N 	0.3978	0.599	0.6844	-0.1
Mof_N 	N 	0.1997	0.6873	0.7435	-0.245
Mof_C 	C 	0.2868	0.7839	0.0343	-0.109
Mof_C 	C 	0.312	0.891	0.1079	-0.111
Mof_C 	C 	0.4536	0.9406	0.1261	0.169
Mof_H 	H 	0.473	0.0092	0.1779	-0.035
Mof_C 	C 	0.5677	0.895	0.0724	-0.183
Mof_C 	C 	0.5412	0.7893	0.9989	0.001
Mof_C 	C 	0.4023	0.7349	0.9816	0.03
Mof_H 	H 	0.3848	0.6617	0.9324	0.023
Mof_C 	C 	0.1943	0.9528	0.1685	0.38
Mof_C 	C 	0.7171	0.9571	0.089	0.459
Mof_C 	C 	0.6498	0.729	0.932	0.319
Mof_C 	C 	0.7423	0.7799	0.2365	0.097
Mof_H 	H 	0.8341	0.8262	0.2471	-0
Mof_C 	C 	0.5691	0.6399	0.1791	0.007
Mof_H 	H 	0.5164	0.568	0.1407	0.016
Mof_C 	C 	0.516	0.7215	0.2511	0.003
Mof_H 	H 	0.4205	0.7181	0.2726	0.038
Mof_C 	C 	0.6201	0.9155	0.3683	-0.128
Mof_H 	H 	0.5377	0.9747	0.3623	0.096
Mof_H 	H 	0.7103	0.9729	0.3757	0.079
Mof_C 	C 	0.6016	0.8478	0.4499	0.082
Mof_C 	C 	0.465	0.8051	0.4698	-0.082
Mof_H 	H 	0.383	0.8305	0.4381	0.062
Mof_C 	C 	0.4465	0.7255	0.5354	-0.052
Mof_H 	H 	0.3519	0.6944	0.5473	0.045
Mof_C 	C 	0.5636	0.6908	0.5839	0.052
Mof_C 	C 	0.7022	0.7396	0.5666	-0.046
Mof_H 	H 	0.784	0.7196	0.6008	0.046
Mof_C 	C 	0.719	0.8167	0.4998	-0.081
Mof_H 	H 	0.813	0.849	0.4879	0.071
Mof_C 	C 	0.5453	0.5994	0.6526	-0.118
Mof_H 	H 	0.5697	0.5054	0.6254	0.072
Mof_H 	H 	0.6131	0.6308	0.7046	0.087
Mof_C 	C 	0.3406	0.7044	0.739	0.078
Mof_H 	H 	0.3951	0.7815	0.7702	0.024
Mof_C 	C 	0.2859	0.5107	0.6513	-0.019
Mof_H 	H 	0.2918	0.4273	0.6101	0.039
Mof_C 	C 	0.1659	0.5648	0.6884	0
Mof_H 	H 	0.0713	0.5243	0.678	-0.017
Mof_Co	Co	0.93208	0.15605	0.19347	1.125
Mof_Co	Co	0.17063	0.38669	0.93748	1.161
Mof_P 	P 	0.88623	0.28981	0.00617	0.375
Mof_O 	O 	0.8613	0.4245	0.06563	-0.448
Mof_O 	O 	0.9492	0.1918	0.06195	-0.508
Mof_O 	O 	0.9768	0.3029	0.9244	-0.361
Mof_O 	O 	0.916	0.0024	0.86793	-0.469
Mof_O 	O 	0.7864	0.0367	0.7488	-0.293
Mof_O 	O 	0.2568	0.9552	0.8405	-0.397
Mof_O 	O 	0.1932	0.0847	0.96881	-0.437
Mof_O 	O 	0.2755	0.3703	0.04902	-0.474
Mof_O 	O 	0.3507	0.2379	0.14274	-0.298
Mof_N 	N 	0.2886	0.3227	0.83	-0.257
Mof_N 	N 	0.3736	0.1901	0.7129	-0.114
Mof_N 	N 	0.6022	0.401	0.3156	-0.102
Mof_N 	N 	0.8003	0.3127	0.2565	-0.234
Mof_C 	C 	0.7132	0.2161	0.9657	0.012
Mof_C 	C 	0.688	0.109	0.8921	-0.049
Mof_C 	C 	0.5464	0.0594	0.8739	-0.091
Mof_H 	H 	0.527	0.9908	0.8221	0.121
Mof_C 	C 	0.4323	0.105	0.9276	0.022
Mof_C 	C 	0.4588	0.2107	0.0011	-0.14
Mof_C 	C 	0.5977	0.2651	0.0184	-0.055
Mof_H 	H 	0.6152	0.3383	0.0676	0.041
Mof_C 	C 	0.8057	0.0472	0.8315	0.345
Mof_C 	C 	0.2829	0.0429	0.911	0.278
Mof_C 	C 	0.3502	0.271	0.068	0.346
Mof_C 	C 	0.2577	0.2201	0.7635	0.092
Mof_H 	H 	0.1659	0.1738	0.7529	-0.045
Mof_C 	C 	0.4309	0.3601	0.8209	0.018
Mof_H 	H 	0.4836	0.432	0.8593	0.027
Mof_C 	C 	0.484	0.2785	0.7489	-0.001
Mof_H 	H 	0.5795	0.2819	0.7274	0.047
Mof_C 	C 	0.3799	0.0845	0.6317	-0.09
Mof_H 	H 	0.4623	0.0253	0.6377	0.053
Mof_H 	H 	0.2897	0.0271	0.6243	0.025
Mof_C 	C 	0.3984	0.1522	0.5501	0.038
Mof_C 	C 	0.535	0.1949	0.5302	-0.071
Mof_H 	H 	0.617	0.1695	0.5619	0.054
Mof_C 	C 	0.5535	0.2745	0.4646	-0.072
Mof_H 	H 	0.6481	0.3056	0.4527	0.056
Mof_C 	C 	0.4364	0.3092	0.4161	0.05
Mof_C 	C 	0.2978	0.2604	0.4334	-0.069
Mof_H 	H 	0.216	0.2804	0.3992	0.014
Mof_C 	C 	0.281	0.1833	0.5002	-0.071
Mof_H 	H 	0.187	0.151	0.5121	0.021
Mof_C 	C 	0.4547	0.4006	0.3474	-0.112
Mof_H 	H 	0.4303	0.4946	0.3746	0.063
Mof_H 	H 	0.3869	0.3692	0.2954	0.071
Mof_C 	C 	0.6594	0.2956	0.261	0.075
Mof_H 	H 	0.6049	0.2185	0.2298	0.022
Mof_C 	C 	0.7141	0.4893	0.3487	-0.008
Mof_H 	H 	0.7082	0.5727	0.3899	0.044
Mof_C 	C 	0.8341	0.4352	0.3116	0.003
Mof_H 	H 	0.9287	0.4757	0.322	0.024
Mof_Co	Co	-0	0	-0	1.112
_end
