data_functionalizedCrystal
_audit_creation_method	'EQeq! by Chris Wilmer'
_symmetry_space_group_name_H-M	'P1'
_symmetry_Int_Tables_number	1
_symmetry_cell_setting	triclinic
loop_
_symmetry_equiv_pos_as_xyz
  x,y,z
_cell_length_a	9.2899
_cell_length_b	9.2899
_cell_length_c	49.248
_cell_angle_alpha	90
_cell_angle_beta	90
_cell_angle_gamma	120
loop_
_atom_site_label
_atom_site_type_symbol
_atom_site_fract_x
_atom_site_fract_y
_atom_site_fract_z
_atom_site_charge
Mof_N 	N 	0.7929	0.7102	0.03477	-0.244
Mof_C 	C 	0.8084	0.6407	0.05131	-0.14
Mof_N 	N 	0.45957	0.04353	0.3681	-0.382
Mof_C 	C 	0.47507	0.97403	0.38464	-0.079
Mof_N 	N 	0.12623	0.37687	0.70144	-0.326
Mof_C 	C 	0.14173	0.30737	0.71798	-0.187
Mof_N 	N 	0.2898	0.0827	0.03477	-0.296
Mof_C 	C 	0.3593	0.1677	0.05131	-0.178
Mof_N 	N 	0.95647	0.41603	0.3681	-0.243
Mof_C 	C 	0.02597	0.50103	0.38464	-0.261
Mof_N 	N 	0.62313	0.74937	0.70144	-0.315
Mof_C 	C 	0.69263	0.83437	0.71798	-0.093
Mof_N 	N 	0.9173	0.2071	0.03477	-0.253
Mof_C 	C 	0.8323	0.1916	0.05131	-0.164
Mof_N 	N 	0.58397	0.54043	0.3681	-0.302
Mof_C 	C 	0.49897	0.52493	0.38464	-0.167
Mof_N 	N 	0.25063	0.87377	0.70144	-0.304
Mof_C 	C 	0.16563	0.85827	0.71798	-0.146
Mof_N 	N 	0.7102	0.7929	0.46523	-0.244
Mof_C 	C 	0.6407	0.8084	0.44869	-0.14
Mof_N 	N 	0.37687	0.12623	0.79856	-0.326
Mof_C 	C 	0.30737	0.14173	0.78202	-0.187
Mof_N 	N 	0.04353	0.45957	0.1319	-0.382
Mof_C 	C 	0.97403	0.47507	0.11536	-0.079
Mof_N 	N 	0.0827	0.2898	0.46523	-0.296
Mof_C 	C 	0.1677	0.3593	0.44869	-0.178
Mof_N 	N 	0.74937	0.62313	0.79856	-0.315
Mof_C 	C 	0.83437	0.69263	0.78202	-0.093
Mof_N 	N 	0.41603	0.95647	0.1319	-0.243
Mof_C 	C 	0.50103	0.02597	0.11536	-0.26
Mof_N 	N 	0.2071	0.9173	0.46523	-0.253
Mof_C 	C 	0.1916	0.8323	0.44869	-0.164
Mof_N 	N 	0.87377	0.25063	0.79856	-0.304
Mof_C 	C 	0.85827	0.16563	0.78202	-0.146
Mof_N 	N 	0.54043	0.58397	0.1319	-0.302
Mof_C 	C 	0.52493	0.49897	0.11536	-0.166
Mof_N 	N 	0.2071	0.2898	0.96523	-0.285
Mof_C 	C 	0.1916	0.3593	0.94869	-0.182
Mof_N 	N 	0.87377	0.62313	0.29856	-0.289
Mof_C 	C 	0.85827	0.69263	0.28202	-0.152
Mof_N 	N 	0.54043	0.95647	0.6319	-0.234
Mof_C 	C 	0.52493	0.02597	0.61536	-0.26
Mof_N 	N 	0.7102	0.9173	0.96523	-0.233
Mof_C 	C 	0.6407	0.8323	0.94869	-0.143
Mof_N 	N 	0.37687	0.25063	0.29856	-0.322
Mof_C 	C 	0.30737	0.16563	0.28202	-0.159
Mof_N 	N 	0.04353	0.58397	0.6319	-0.377
Mof_C 	C 	0.97403	0.49897	0.61536	-0.073
Mof_N 	N 	0.0827	0.7929	0.96523	-0.273
Mof_C 	C 	0.1677	0.8084	0.94869	-0.155
Mof_N 	N 	0.74937	0.12623	0.29856	-0.332
Mof_C 	C 	0.83437	0.14173	0.28202	-0.116
Mof_N 	N 	0.41603	0.45957	0.6319	-0.315
Mof_C 	C 	0.50103	0.47507	0.61536	-0.173
Mof_N 	N 	0.2898	0.2071	0.53477	-0.286
Mof_C 	C 	0.3593	0.1916	0.55131	-0.182
Mof_N 	N 	0.95647	0.54043	0.8681	-0.234
Mof_C 	C 	0.02597	0.52493	0.88464	-0.26
Mof_N 	N 	0.62313	0.87377	0.20144	-0.289
Mof_C 	C 	0.69263	0.85827	0.21798	-0.152
Mof_N 	N 	0.9173	0.7102	0.53477	-0.234
Mof_C 	C 	0.8323	0.6407	0.55131	-0.143
Mof_N 	N 	0.58397	0.04353	0.8681	-0.377
Mof_C 	C 	0.49897	0.97403	0.88464	-0.073
Mof_N 	N 	0.25063	0.37687	0.20144	-0.322
Mof_C 	C 	0.16563	0.30737	0.21798	-0.159
Mof_N 	N 	0.7929	0.0827	0.53477	-0.274
Mof_C 	C 	0.8084	0.1677	0.55131	-0.156
Mof_N 	N 	0.45957	0.41603	0.8681	-0.315
Mof_C 	C 	0.47507	0.50103	0.88464	-0.173
Mof_N 	N 	0.12623	0.74937	0.20144	-0.332
Mof_C 	C 	0.14173	0.83437	0.21798	-0.116
Mof_Ag	Ag	0.86559	0.53226	0.08333	0.286
Mof_Ag	Ag	0.19893	0.19893	0.75	0.153
Mof_Ag	Ag	0.46774	0.33333	0.08333	0.21
Mof_Ag	Ag	0.66667	0.13441	0.08333	0.233
Mof_Ag	Ag	0.33333	0.46774	0.41667	0.21
Mof_Ag	Ag	0.53226	0.86559	0.41667	0.286
Mof_Ag	Ag	-1.16273e-16	0.80107	0.75	0.172
Mof_Ag	Ag	0.13441	0.66667	0.41667	0.233
Mof_Ag	Ag	0.80107	-5.48655e-32	0.75	0.173
Mof_Ag	Ag	0.13441	0.46774	0.91667	0.199
Mof_Ag	Ag	0.80107	0.80107	0.25	0.365
Mof_Ag	Ag	0.53226	0.66667	0.91667	0.276
Mof_Ag	Ag	0.19893	0	0.25	0.067
Mof_Ag	Ag	0.86559	0.33333	0.58333	0.257
Mof_Ag	Ag	0.33333	0.86559	0.91667	0.257
Mof_Ag	Ag	7.57212e-18	0.19893	0.25	0.067
Mof_Ag	Ag	0.46774	0.13441	0.58333	0.198
Mof_Ag	Ag	0.66667	0.53226	0.58333	0.276
Mof_K 	K 	-0	0	-0	1.741
Mof_K 	K 	0.66667	0.33333	0.33333	2.226
Mof_K 	K 	0.33333	0.66667	0.66667	2.226
Mof_K 	K 	2.74327e-32	0	0.5	1.745
Mof_K 	K 	0.66667	0.33333	0.83333	2.226
Mof_K 	K 	0.33333	0.66667	0.16667	2.226
_end
