data_functionalizedCrystal
_audit_creation_method	'EQeq! by Chris Wilmer'
_symmetry_space_group_name_H-M	'P1'
_symmetry_Int_Tables_number	1
_symmetry_cell_setting	triclinic
loop_
_symmetry_equiv_pos_as_xyz
  x,y,z
_cell_length_a	34.502
_cell_length_b	34.502
_cell_length_c	34.502
_cell_angle_alpha	90
_cell_angle_beta	90
_cell_angle_gamma	90
loop_
_atom_site_label
_atom_site_type_symbol
_atom_site_fract_x
_atom_site_fract_y
_atom_site_fract_z
_atom_site_charge
Mof_C 	C 	0.0188	0.7172	0.0747	-0.043
Mof_C 	C 	0.0512	0.7788	0.1052	-0.028
Mof_C 	C 	0.1063	0.9002	0.0448	-0.166
Mof_H 	H 	0.1217	0.8934	0.0231	0.077
Mof_C 	C 	0.0918	0.9384	0.0469	0.344
Mof_C 	C 	0.0684	0.9477	0.0774	-0.288
Mof_H 	H 	0.0574	0.9728	0.0796	0.162
Mof_C 	C 	0.0612	0.9196	0.1054	0.069
Mof_H 	H 	0.0451	0.9254	0.1269	0.012
Mof_C 	C 	0.0775	0.8832	0.1018	-0.044
Mof_H 	H 	0.0729	0.8645	0.1215	0.041
Mof_C 	C 	0.1281	0.7301	0.0506	0.035
Mof_H 	H 	0.1006	0.7319	0.0522	0.032
Mof_C 	C 	0.1454	0.696	0.0397	-0.033
Mof_C 	C 	0.185	0.6922	0.0387	0.009
Mof_H 	H 	0.1967	0.6683	0.0315	0.029
Mof_C 	C 	0.2061	0.7221	0.0479	-0.107
Mof_H 	H 	0.2335	0.7201	0.0471	0.074
Mof_C 	C 	0.1893	0.7563	0.0586	0.072
Mof_H 	H 	0.2055	0.7773	0.066	0.001
Mof_C 	C 	0.1025	0.968	0.0156	-0.962
Mof_H 	H 	0.1298	0.9727	0.0179	0.425
Mof_H 	H 	0.0975	0.9579	0.9902	-0.105
Mof_C 	C 	0.1259	0.6601	0.0243	0.024
Mof_H 	H 	0.1438	0.6457	0.007	0.046
Mof_H 	H 	0.1184	0.6428	0.046	0.006
Mof_N 	N 	0.0297	0.6998	0.0486	-0.108
Mof_N 	N 	0.0776	0.7935	0.0925	-0.171
Mof_N 	N 	0.0997	0.8733	0.0714	-0.123
Mof_N 	N 	0.1507	0.7612	0.059	-0.177
Mof_O 	O 	0.0921	0.6718	0.0033	-0.351
Mof_H 	H 	0.072	0.68	0.993	0.252
Mof_O 	O 	0.0805	0.0015	0.0175	-1.044
Mof_H 	H 	0.0613	0.016	0.023	0.407
Mof_H 	H 	0.112	0.9545	0.9933	0.335
Mof_H 	H 	0.0799	0.9822	0.0078	0.925
Mof_C 	C 	0.1182	0.6626	0.0353	0.053
Mof_H 	H 	0.1328	0.6386	0.0296	0.005
Mof_H 	H 	0.1032	0.6587	0.0594	0.031
Mof_O 	O 	0.1297	0.9958	0.0282	-0.184
Mof_H 	H 	0.1498	0.993	0.014	0.038
Mof_C 	C 	0.5188	0.2172	0.5747	-0.041
Mof_C 	C 	0.5512	0.2788	0.6052	-0.028
Mof_C 	C 	0.6063	0.4002	0.5448	-0.161
Mof_H 	H 	0.6217	0.3934	0.5231	0.076
Mof_C 	C 	0.5918	0.4384	0.5469	0.334
Mof_C 	C 	0.5684	0.4477	0.5774	-0.281
Mof_H 	H 	0.5574	0.4728	0.5796	0.159
Mof_C 	C 	0.5612	0.4196	0.6054	0.064
Mof_H 	H 	0.5451	0.4254	0.6269	0.014
Mof_C 	C 	0.5775	0.3832	0.6018	-0.042
Mof_H 	H 	0.5729	0.3645	0.6215	0.041
Mof_C 	C 	0.6281	0.2301	0.5506	0.035
Mof_H 	H 	0.6006	0.2319	0.5522	0.032
Mof_C 	C 	0.6454	0.196	0.5397	-0.031
Mof_C 	C 	0.685	0.1922	0.5387	0.008
Mof_H 	H 	0.6967	0.1683	0.5315	0.03
Mof_C 	C 	0.7061	0.2221	0.5479	-0.106
Mof_H 	H 	0.7335	0.2201	0.5471	0.074
Mof_C 	C 	0.6893	0.2563	0.5586	0.072
Mof_H 	H 	0.7055	0.2773	0.566	0.001
Mof_C 	C 	0.6025	0.468	0.5156	-0.935
Mof_H 	H 	0.6298	0.4727	0.5179	0.419
Mof_H 	H 	0.5975	0.4579	0.4902	-0.105
Mof_C 	C 	0.6259	0.1601	0.5243	0.023
Mof_H 	H 	0.6438	0.1457	0.507	0.047
Mof_H 	H 	0.6184	0.1428	0.546	0.007
Mof_N 	N 	0.5297	0.1998	0.5486	-0.106
Mof_N 	N 	0.5776	0.2935	0.5925	-0.171
Mof_N 	N 	0.5997	0.3733	0.5714	-0.125
Mof_N 	N 	0.6507	0.2612	0.559	-0.177
Mof_O 	O 	0.5921	0.1718	0.5033	-0.345
Mof_H 	H 	0.572	0.18	0.493	0.247
Mof_O 	O 	0.5805	0.5015	0.5175	-1.027
Mof_H 	H 	0.5613	0.516	0.523	0.404
Mof_H 	H 	0.612	0.4545	0.4933	0.324
Mof_H 	H 	0.5799	0.4822	0.5078	0.907
Mof_C 	C 	0.6182	0.1626	0.5353	0.051
Mof_H 	H 	0.6328	0.1386	0.5296	0.005
Mof_H 	H 	0.6032	0.1587	0.5594	0.031
Mof_O 	O 	0.6297	0.4958	0.5282	-0.191
Mof_H 	H 	0.6498	0.493	0.514	0.042
Mof_C 	C 	0.4812	0.2828	0.5747	-0.041
Mof_C 	C 	0.4488	0.2212	0.6052	-0.028
Mof_C 	C 	0.3937	0.0998	0.5448	-0.159
Mof_H 	H 	0.3783	0.1066	0.5231	0.076
Mof_C 	C 	0.4082	0.0616	0.5469	0.33
Mof_C 	C 	0.4316	0.0523	0.5774	-0.278
Mof_H 	H 	0.4426	0.0272	0.5796	0.157
Mof_C 	C 	0.4388	0.0804	0.6054	0.062
Mof_H 	H 	0.4549	0.0746	0.6269	0.014
Mof_C 	C 	0.4225	0.1168	0.6018	-0.04
Mof_H 	H 	0.4271	0.1355	0.6215	0.04
Mof_C 	C 	0.3719	0.2699	0.5506	0.035
Mof_H 	H 	0.3994	0.2681	0.5522	0.032
Mof_C 	C 	0.3546	0.304	0.5397	-0.031
Mof_C 	C 	0.315	0.3078	0.5387	0.008
Mof_H 	H 	0.3033	0.3317	0.5315	0.03
Mof_C 	C 	0.2939	0.2779	0.5479	-0.106
Mof_H 	H 	0.2665	0.2799	0.5471	0.074
Mof_C 	C 	0.3107	0.2437	0.5586	0.072
Mof_H 	H 	0.2945	0.2227	0.566	0.001
Mof_C 	C 	0.3975	0.032	0.5156	-0.925
Mof_H 	H 	0.3702	0.0273	0.5179	0.418
Mof_H 	H 	0.4025	0.0421	0.4902	-0.102
Mof_C 	C 	0.3741	0.3399	0.5243	0.023
Mof_H 	H 	0.3562	0.3543	0.507	0.047
Mof_H 	H 	0.3816	0.3572	0.546	0.007
Mof_N 	N 	0.4703	0.3002	0.5486	-0.106
Mof_N 	N 	0.4224	0.2065	0.5925	-0.171
Mof_N 	N 	0.4003	0.1267	0.5714	-0.125
Mof_N 	N 	0.3493	0.2388	0.559	-0.177
Mof_O 	O 	0.4079	0.3282	0.5033	-0.344
Mof_H 	H 	0.428	0.32	0.493	0.247
Mof_O 	O 	0.4195	0.9985	0.5175	-1.011
Mof_H 	H 	0.4387	0.984	0.523	0.399
Mof_H 	H 	0.388	0.0455	0.4933	0.319
Mof_H 	H 	0.4201	0.0178	0.5078	0.893
Mof_C 	C 	0.3818	0.3374	0.5353	0.051
Mof_H 	H 	0.3672	0.3614	0.5296	0.005
Mof_H 	H 	0.3968	0.3413	0.5594	0.031
Mof_O 	O 	0.3703	0.0042	0.5282	-0.196
Mof_H 	H 	0.3502	0.007	0.514	0.043
Mof_C 	C 	0.9812	0.7828	0.0747	-0.039
Mof_C 	C 	0.9488	0.7212	0.1052	-0.026
Mof_C 	C 	0.8937	0.5998	0.0448	-0.165
Mof_H 	H 	0.8783	0.6066	0.0231	0.076
Mof_C 	C 	0.9082	0.5616	0.0469	0.339
Mof_C 	C 	0.9316	0.5523	0.0774	-0.286
Mof_H 	H 	0.9426	0.5272	0.0796	0.16
Mof_C 	C 	0.9388	0.5804	0.1054	0.066
Mof_H 	H 	0.9549	0.5746	0.1269	0.013
Mof_C 	C 	0.9225	0.6168	0.1018	-0.044
Mof_H 	H 	0.9271	0.6355	0.1215	0.04
Mof_C 	C 	0.8719	0.7699	0.0506	0.034
Mof_H 	H 	0.8994	0.7681	0.0522	0.031
Mof_C 	C 	0.8546	0.804	0.0397	-0.034
Mof_C 	C 	0.815	0.8078	0.0387	0.008
Mof_H 	H 	0.8033	0.8317	0.0315	0.028
Mof_C 	C 	0.7939	0.7779	0.0479	-0.108
Mof_H 	H 	0.7665	0.7799	0.0471	0.073
Mof_C 	C 	0.8107	0.7437	0.0586	0.071
Mof_H 	H 	0.7945	0.7227	0.066	-0
Mof_C 	C 	0.8975	0.532	0.0156	-0.954
Mof_H 	H 	0.8702	0.5273	0.0179	0.423
Mof_H 	H 	0.9025	0.5421	0.9902	-0.103
Mof_C 	C 	0.8741	0.8399	0.0243	0.024
Mof_H 	H 	0.8562	0.8543	0.007	0.045
Mof_H 	H 	0.8816	0.8572	0.046	0.005
Mof_N 	N 	0.9703	0.8002	0.0486	-0.108
Mof_N 	N 	0.9224	0.7065	0.0925	-0.172
Mof_N 	N 	0.9003	0.6267	0.0714	-0.125
Mof_N 	N 	0.8493	0.7388	0.059	-0.178
Mof_O 	O 	0.9079	0.8282	0.0033	-0.352
Mof_H 	H 	0.928	0.82	0.993	0.252
Mof_O 	O 	0.9195	0.4985	0.0175	-1.03
Mof_H 	H 	0.9387	0.484	0.023	0.403
Mof_H 	H 	0.888	0.5455	0.9933	0.328
Mof_H 	H 	0.9201	0.5178	0.0078	0.912
Mof_C 	C 	0.8818	0.8374	0.0353	0.052
Mof_H 	H 	0.8672	0.8614	0.0296	0.004
Mof_H 	H 	0.8968	0.8413	0.0594	0.03
Mof_O 	O 	0.8703	0.5042	0.0282	-0.19
Mof_H 	H 	0.8502	0.507	0.014	0.038
Mof_C 	C 	0.9812	0.2172	0.4253	-0.039
Mof_C 	C 	0.9488	0.2788	0.3948	-0.026
Mof_C 	C 	0.8937	0.4002	0.4552	-0.162
Mof_H 	H 	0.8783	0.3934	0.4769	0.075
Mof_C 	C 	0.9082	0.4384	0.4531	0.333
Mof_C 	C 	0.9316	0.4477	0.4226	-0.281
Mof_H 	H 	0.9426	0.4728	0.4204	0.158
Mof_C 	C 	0.9388	0.4196	0.3946	0.063
Mof_H 	H 	0.9549	0.4254	0.3731	0.014
Mof_C 	C 	0.9225	0.3832	0.3982	-0.042
Mof_H 	H 	0.9271	0.3645	0.3785	0.04
Mof_C 	C 	0.8719	0.2301	0.4494	0.034
Mof_H 	H 	0.8994	0.2319	0.4478	0.031
Mof_C 	C 	0.8546	0.196	0.4603	-0.032
Mof_C 	C 	0.815	0.1922	0.4613	0.007
Mof_H 	H 	0.8033	0.1683	0.4685	0.029
Mof_C 	C 	0.7939	0.2221	0.4521	-0.107
Mof_H 	H 	0.7665	0.2201	0.4529	0.073
Mof_C 	C 	0.8107	0.2563	0.4414	0.071
Mof_H 	H 	0.7945	0.2773	0.434	-0
Mof_C 	C 	0.8975	0.468	0.4844	-0.936
Mof_H 	H 	0.8702	0.4727	0.4821	0.418
Mof_H 	H 	0.9025	0.4579	0.5098	-0.106
Mof_C 	C 	0.8741	0.1601	0.4757	0.022
Mof_H 	H 	0.8562	0.1457	0.493	0.046
Mof_H 	H 	0.8816	0.1428	0.454	0.006
Mof_N 	N 	0.9703	0.1998	0.4514	-0.108
Mof_N 	N 	0.9224	0.2935	0.4075	-0.173
Mof_N 	N 	0.9003	0.3733	0.4286	-0.126
Mof_N 	N 	0.8493	0.2612	0.441	-0.178
Mof_O 	O 	0.9079	0.1718	0.4967	-0.346
Mof_H 	H 	0.928	0.18	0.507	0.246
Mof_O 	O 	0.9195	0.5015	0.4825	-1.028
Mof_H 	H 	0.9387	0.516	0.477	0.403
Mof_H 	H 	0.888	0.4545	0.5067	0.323
Mof_H 	H 	0.9201	0.4822	0.4922	0.906
Mof_C 	C 	0.8818	0.1626	0.4647	0.051
Mof_H 	H 	0.8672	0.1386	0.4704	0.004
Mof_H 	H 	0.8968	0.1587	0.4406	0.03
Mof_O 	O 	0.8703	0.4958	0.4718	-0.192
Mof_H 	H 	0.8502	0.493	0.486	0.041
Mof_C 	C 	0.4812	0.7172	0.9253	-0.042
Mof_C 	C 	0.4488	0.7788	0.8948	-0.028
Mof_C 	C 	0.3937	0.9002	0.9552	-0.161
Mof_H 	H 	0.3783	0.8934	0.9769	0.076
Mof_C 	C 	0.4082	0.9384	0.9531	0.331
Mof_C 	C 	0.4316	0.9477	0.9226	-0.28
Mof_H 	H 	0.4426	0.9728	0.9204	0.159
Mof_C 	C 	0.4388	0.9196	0.8946	0.063
Mof_H 	H 	0.4549	0.9254	0.8731	0.013
Mof_C 	C 	0.4225	0.8832	0.8982	-0.042
Mof_H 	H 	0.4271	0.8645	0.8785	0.04
Mof_C 	C 	0.3719	0.7301	0.9494	0.033
Mof_H 	H 	0.3994	0.7319	0.9478	0.031
Mof_C 	C 	0.3546	0.696	0.9603	-0.03
Mof_C 	C 	0.315	0.6922	0.9613	0.006
Mof_H 	H 	0.3033	0.6683	0.9685	0.03
Mof_C 	C 	0.2939	0.7221	0.9521	-0.106
Mof_H 	H 	0.2665	0.7201	0.9529	0.074
Mof_C 	C 	0.3107	0.7563	0.9414	0.071
Mof_H 	H 	0.2945	0.7773	0.934	-0
Mof_C 	C 	0.3975	0.968	0.9844	-0.927
Mof_H 	H 	0.3702	0.9727	0.9821	0.415
Mof_H 	H 	0.4025	0.9579	0.0098	-0.112
Mof_C 	C 	0.3741	0.6601	0.9757	0.021
Mof_H 	H 	0.3562	0.6457	0.993	0.047
Mof_H 	H 	0.3816	0.6428	0.954	0.007
Mof_N 	N 	0.4703	0.6998	0.9514	-0.107
Mof_N 	N 	0.4224	0.7935	0.9075	-0.172
Mof_N 	N 	0.4003	0.8733	0.9286	-0.126
Mof_N 	N 	0.3493	0.7612	0.941	-0.177
Mof_O 	O 	0.4079	0.6718	0.9967	-0.339
Mof_H 	H 	0.428	0.68	0.007	0.24
Mof_O 	O 	0.4195	0.0015	0.9825	-1.042
Mof_H 	H 	0.4387	0.016	0.977	0.408
Mof_H 	H 	0.388	0.9545	0.0067	0.324
Mof_H 	H 	0.4201	0.9822	0.9922	0.914
Mof_C 	C 	0.3818	0.6626	0.9647	0.049
Mof_H 	H 	0.3672	0.6386	0.9704	0.005
Mof_H 	H 	0.3968	0.6587	0.9406	0.03
Mof_O 	O 	0.3703	0.9958	0.9718	-0.189
Mof_H 	H 	0.3502	0.993	0.986	0.043
Mof_C 	C 	0.5188	0.7828	0.9253	-0.042
Mof_C 	C 	0.5512	0.7212	0.8948	-0.028
Mof_C 	C 	0.6063	0.5998	0.9552	-0.159
Mof_H 	H 	0.6217	0.6066	0.9769	0.075
Mof_C 	C 	0.5918	0.5616	0.9531	0.327
Mof_C 	C 	0.5684	0.5523	0.9226	-0.277
Mof_H 	H 	0.5574	0.5272	0.9204	0.157
Mof_C 	C 	0.5612	0.5804	0.8946	0.061
Mof_H 	H 	0.5451	0.5746	0.8731	0.014
Mof_C 	C 	0.5775	0.6168	0.8982	-0.041
Mof_H 	H 	0.5729	0.6355	0.8785	0.039
Mof_C 	C 	0.6281	0.7699	0.9494	0.033
Mof_H 	H 	0.6006	0.7681	0.9478	0.031
Mof_C 	C 	0.6454	0.804	0.9603	-0.03
Mof_C 	C 	0.685	0.8078	0.9613	0.006
Mof_H 	H 	0.6967	0.8317	0.9685	0.03
Mof_C 	C 	0.7061	0.7779	0.9521	-0.106
Mof_H 	H 	0.7335	0.7799	0.9529	0.074
Mof_C 	C 	0.6893	0.7437	0.9414	0.071
Mof_H 	H 	0.7055	0.7227	0.934	-0
Mof_C 	C 	0.6025	0.532	0.9844	-0.917
Mof_H 	H 	0.6298	0.5273	0.9821	0.414
Mof_H 	H 	0.5975	0.5421	0.0098	-0.109
Mof_C 	C 	0.6259	0.8399	0.9757	0.021
Mof_H 	H 	0.6438	0.8543	0.993	0.047
Mof_H 	H 	0.6184	0.8572	0.954	0.007
Mof_N 	N 	0.5297	0.8002	0.9514	-0.107
Mof_N 	N 	0.5776	0.7065	0.9075	-0.172
Mof_N 	N 	0.5997	0.6267	0.9286	-0.127
Mof_N 	N 	0.6507	0.7388	0.941	-0.177
Mof_O 	O 	0.5921	0.8282	0.9967	-0.339
Mof_H 	H 	0.572	0.82	0.007	0.24
Mof_O 	O 	0.5805	0.4985	0.9825	-1.026
Mof_H 	H 	0.5613	0.484	0.977	0.403
Mof_H 	H 	0.612	0.5455	0.0067	0.318
Mof_H 	H 	0.5799	0.5178	0.9922	0.9
Mof_C 	C 	0.6182	0.8374	0.9647	0.049
Mof_H 	H 	0.6328	0.8614	0.9704	0.005
Mof_H 	H 	0.6032	0.8413	0.9406	0.03
Mof_O 	O 	0.6297	0.5042	0.9718	-0.194
Mof_H 	H 	0.6498	0.507	0.986	0.044
Mof_C 	C 	0.0188	0.2828	0.4253	-0.043
Mof_C 	C 	0.0512	0.2212	0.3948	-0.028
Mof_C 	C 	0.1063	0.0998	0.4552	-0.16
Mof_H 	H 	0.1217	0.1066	0.4769	0.075
Mof_C 	C 	0.0918	0.0616	0.4531	0.329
Mof_C 	C 	0.0684	0.0523	0.4226	-0.279
Mof_H 	H 	0.0574	0.0272	0.4204	0.156
Mof_C 	C 	0.0612	0.0804	0.3946	0.062
Mof_H 	H 	0.0451	0.0746	0.3731	0.013
Mof_C 	C 	0.0775	0.1168	0.3982	-0.042
Mof_H 	H 	0.0729	0.1355	0.3785	0.039
Mof_C 	C 	0.1281	0.2699	0.4494	0.034
Mof_H 	H 	0.1006	0.2681	0.4478	0.031
Mof_C 	C 	0.1454	0.304	0.4603	-0.032
Mof_C 	C 	0.185	0.3078	0.4613	0.007
Mof_H 	H 	0.1967	0.3317	0.4685	0.029
Mof_C 	C 	0.2061	0.2779	0.4521	-0.107
Mof_H 	H 	0.2335	0.2799	0.4529	0.073
Mof_C 	C 	0.1893	0.2437	0.4414	0.071
Mof_H 	H 	0.2055	0.2227	0.434	-0
Mof_C 	C 	0.1025	0.032	0.4844	-0.926
Mof_H 	H 	0.1298	0.0273	0.4821	0.417
Mof_H 	H 	0.0975	0.0421	0.5098	-0.103
Mof_C 	C 	0.1259	0.3399	0.4757	0.022
Mof_H 	H 	0.1438	0.3543	0.493	0.046
Mof_H 	H 	0.1184	0.3572	0.454	0.006
Mof_N 	N 	0.0297	0.3002	0.4514	-0.108
Mof_N 	N 	0.0776	0.2065	0.4075	-0.172
Mof_N 	N 	0.0997	0.1267	0.4286	-0.126
Mof_N 	N 	0.1507	0.2388	0.441	-0.178
Mof_O 	O 	0.0921	0.3282	0.4967	-0.345
Mof_H 	H 	0.072	0.32	0.507	0.245
Mof_O 	O 	0.0805	0.9985	0.4825	-1.011
Mof_H 	H 	0.0613	0.984	0.477	0.397
Mof_H 	H 	0.112	0.0455	0.5067	0.318
Mof_H 	H 	0.0799	0.0178	0.4922	0.892
Mof_C 	C 	0.1182	0.3374	0.4647	0.05
Mof_H 	H 	0.1328	0.3614	0.4704	0.004
Mof_H 	H 	0.1032	0.3413	0.4406	0.03
Mof_O 	O 	0.1297	0.0042	0.4718	-0.197
Mof_H 	H 	0.1498	0.007	0.486	0.042
Mof_C 	C 	0.0747	0.0188	0.7172	-0.044
Mof_C 	C 	0.1052	0.0512	0.7788	-0.029
Mof_C 	C 	0.0448	0.1063	0.9002	-0.167
Mof_H 	H 	0.0231	0.1217	0.8934	0.076
Mof_C 	C 	0.0469	0.0918	0.9384	0.343
Mof_C 	C 	0.0774	0.0684	0.9477	-0.289
Mof_H 	H 	0.0796	0.0574	0.9728	0.161
Mof_C 	C 	0.1054	0.0612	0.9196	0.068
Mof_H 	H 	0.1269	0.0451	0.9254	0.011
Mof_C 	C 	0.1018	0.0775	0.8832	-0.045
Mof_H 	H 	0.1215	0.0729	0.8645	0.04
Mof_C 	C 	0.0506	0.1281	0.7301	0.034
Mof_H 	H 	0.0522	0.1006	0.7319	0.031
Mof_C 	C 	0.0397	0.1454	0.696	-0.034
Mof_C 	C 	0.0387	0.185	0.6922	0.008
Mof_H 	H 	0.0315	0.1967	0.6683	0.028
Mof_C 	C 	0.0479	0.2061	0.7221	-0.108
Mof_H 	H 	0.0471	0.2335	0.7201	0.073
Mof_C 	C 	0.0586	0.1893	0.7563	0.071
Mof_H 	H 	0.066	0.2055	0.7773	-0
Mof_C 	C 	0.0156	0.1025	0.968	-0.963
Mof_H 	H 	0.0179	0.1298	0.9727	0.424
Mof_H 	H 	0.9902	0.0975	0.9579	-0.106
Mof_C 	C 	0.0243	0.1259	0.6601	0.023
Mof_H 	H 	0.007	0.1438	0.6457	0.045
Mof_H 	H 	0.046	0.1184	0.6428	0.005
Mof_N 	N 	0.0486	0.0297	0.6998	-0.109
Mof_N 	N 	0.0925	0.0776	0.7935	-0.172
Mof_N 	N 	0.0714	0.0997	0.8733	-0.124
Mof_N 	N 	0.059	0.1507	0.7612	-0.178
Mof_O 	O 	0.0033	0.0921	0.6718	-0.352
Mof_H 	H 	0.993	0.072	0.68	0.251
Mof_O 	O 	0.0175	0.0805	0.0015	-1.045
Mof_H 	H 	0.023	0.0613	0.016	0.406
Mof_H 	H 	0.9933	0.112	0.9545	0.334
Mof_H 	H 	0.0078	0.0799	0.9822	0.924
Mof_C 	C 	0.0353	0.1182	0.6626	0.052
Mof_H 	H 	0.0296	0.1328	0.6386	0.004
Mof_H 	H 	0.0594	0.1032	0.6587	0.03
Mof_O 	O 	0.0282	0.1297	0.9958	-0.185
Mof_H 	H 	0.014	0.1498	0.993	0.037
Mof_C 	C 	0.5747	0.5188	0.2172	-0.042
Mof_C 	C 	0.6052	0.5512	0.2788	-0.029
Mof_C 	C 	0.5448	0.6063	0.4002	-0.162
Mof_H 	H 	0.5231	0.6217	0.3934	0.075
Mof_C 	C 	0.5469	0.5918	0.4384	0.333
Mof_C 	C 	0.5774	0.5684	0.4477	-0.282
Mof_H 	H 	0.5796	0.5574	0.4728	0.158
Mof_C 	C 	0.6054	0.5612	0.4196	0.063
Mof_H 	H 	0.6269	0.5451	0.4254	0.013
Mof_C 	C 	0.6018	0.5775	0.3832	-0.043
Mof_H 	H 	0.6215	0.5729	0.3645	0.04
Mof_C 	C 	0.5506	0.6281	0.2301	0.034
Mof_H 	H 	0.5522	0.6006	0.2319	0.031
Mof_C 	C 	0.5397	0.6454	0.196	-0.032
Mof_C 	C 	0.5387	0.685	0.1922	0.007
Mof_H 	H 	0.5315	0.6967	0.1683	0.029
Mof_C 	C 	0.5479	0.7061	0.2221	-0.107
Mof_H 	H 	0.5471	0.7335	0.2201	0.073
Mof_C 	C 	0.5586	0.6893	0.2563	0.071
Mof_H 	H 	0.566	0.7055	0.2773	-0
Mof_C 	C 	0.5156	0.6025	0.468	-0.936
Mof_H 	H 	0.5179	0.6298	0.4727	0.418
Mof_H 	H 	0.4902	0.5975	0.4579	-0.106
Mof_C 	C 	0.5243	0.6259	0.1601	0.022
Mof_H 	H 	0.507	0.6438	0.1457	0.046
Mof_H 	H 	0.546	0.6184	0.1428	0.006
Mof_N 	N 	0.5486	0.5297	0.1998	-0.107
Mof_N 	N 	0.5925	0.5776	0.2935	-0.172
Mof_N 	N 	0.5714	0.5997	0.3733	-0.126
Mof_N 	N 	0.559	0.6507	0.2612	-0.178
Mof_O 	O 	0.5033	0.5921	0.1718	-0.346
Mof_H 	H 	0.493	0.572	0.18	0.246
Mof_O 	O 	0.5175	0.5805	0.5015	-1.028
Mof_H 	H 	0.523	0.5613	0.516	0.403
Mof_H 	H 	0.4933	0.612	0.4545	0.323
Mof_H 	H 	0.5078	0.5799	0.4822	0.906
Mof_C 	C 	0.5353	0.6182	0.1626	0.05
Mof_H 	H 	0.5296	0.6328	0.1386	0.004
Mof_H 	H 	0.5594	0.6032	0.1587	0.03
Mof_O 	O 	0.5282	0.6297	0.4958	-0.192
Mof_H 	H 	0.514	0.6498	0.493	0.041
Mof_C 	C 	0.5747	0.4812	0.2828	-0.042
Mof_C 	C 	0.6052	0.4488	0.2212	-0.029
Mof_C 	C 	0.5448	0.3937	0.0998	-0.16
Mof_H 	H 	0.5231	0.3783	0.1066	0.075
Mof_C 	C 	0.5469	0.4082	0.0616	0.329
Mof_C 	C 	0.5774	0.4316	0.0523	-0.279
Mof_H 	H 	0.5796	0.4426	0.0272	0.156
Mof_C 	C 	0.6054	0.4388	0.0804	0.061
Mof_H 	H 	0.6269	0.4549	0.0746	0.013
Mof_C 	C 	0.6018	0.4225	0.1168	-0.041
Mof_H 	H 	0.6215	0.4271	0.1355	0.039
Mof_C 	C 	0.5506	0.3719	0.2699	0.034
Mof_H 	H 	0.5522	0.3994	0.2681	0.031
Mof_C 	C 	0.5397	0.3546	0.304	-0.032
Mof_C 	C 	0.5387	0.315	0.3078	0.007
Mof_H 	H 	0.5315	0.3033	0.3317	0.029
Mof_C 	C 	0.5479	0.2939	0.2779	-0.107
Mof_H 	H 	0.5471	0.2665	0.2799	0.073
Mof_C 	C 	0.5586	0.3107	0.2437	0.071
Mof_H 	H 	0.566	0.2945	0.2227	-0
Mof_C 	C 	0.5156	0.3975	0.032	-0.926
Mof_H 	H 	0.5179	0.3702	0.0273	0.417
Mof_H 	H 	0.4902	0.4025	0.0421	-0.103
Mof_C 	C 	0.5243	0.3741	0.3399	0.022
Mof_H 	H 	0.507	0.3562	0.3543	0.046
Mof_H 	H 	0.546	0.3816	0.3572	0.006
Mof_N 	N 	0.5486	0.4703	0.3002	-0.107
Mof_N 	N 	0.5925	0.4224	0.2065	-0.172
Mof_N 	N 	0.5714	0.4003	0.1267	-0.126
Mof_N 	N 	0.559	0.3493	0.2388	-0.178
Mof_O 	O 	0.5033	0.4079	0.3282	-0.345
Mof_H 	H 	0.493	0.428	0.32	0.246
Mof_O 	O 	0.5175	0.4195	0.9985	-1.012
Mof_H 	H 	0.523	0.4387	0.984	0.398
Mof_H 	H 	0.4933	0.388	0.0455	0.318
Mof_H 	H 	0.5078	0.4201	0.0178	0.892
Mof_C 	C 	0.5353	0.3818	0.3374	0.05
Mof_H 	H 	0.5296	0.3672	0.3614	0.004
Mof_H 	H 	0.5594	0.3968	0.3413	0.03
Mof_O 	O 	0.5282	0.3703	0.0042	-0.197
Mof_H 	H 	0.514	0.3502	0.007	0.042
Mof_C 	C 	0.0747	0.9812	0.7828	-0.039
Mof_C 	C 	0.1052	0.9488	0.7212	-0.026
Mof_C 	C 	0.0448	0.8937	0.5998	-0.165
Mof_H 	H 	0.0231	0.8783	0.6066	0.076
Mof_C 	C 	0.0469	0.9082	0.5616	0.339
Mof_C 	C 	0.0774	0.9316	0.5523	-0.286
Mof_H 	H 	0.0796	0.9426	0.5272	0.16
Mof_C 	C 	0.1054	0.9388	0.5804	0.066
Mof_H 	H 	0.1269	0.9549	0.5746	0.013
Mof_C 	C 	0.1018	0.9225	0.6168	-0.044
Mof_H 	H 	0.1215	0.9271	0.6355	0.04
Mof_C 	C 	0.0506	0.8719	0.7699	0.034
Mof_H 	H 	0.0522	0.8994	0.7681	0.031
Mof_C 	C 	0.0397	0.8546	0.804	-0.034
Mof_C 	C 	0.0387	0.815	0.8078	0.008
Mof_H 	H 	0.0315	0.8033	0.8317	0.028
Mof_C 	C 	0.0479	0.7939	0.7779	-0.108
Mof_H 	H 	0.0471	0.7665	0.7799	0.073
Mof_C 	C 	0.0586	0.8107	0.7437	0.071
Mof_H 	H 	0.066	0.7945	0.7227	-0
Mof_C 	C 	0.0156	0.8975	0.532	-0.954
Mof_H 	H 	0.0179	0.8702	0.5273	0.423
Mof_H 	H 	0.9902	0.9025	0.5421	-0.103
Mof_C 	C 	0.0243	0.8741	0.8399	0.024
Mof_H 	H 	0.007	0.8562	0.8543	0.045
Mof_H 	H 	0.046	0.8816	0.8572	0.005
Mof_N 	N 	0.0486	0.9703	0.8002	-0.108
Mof_N 	N 	0.0925	0.9224	0.7065	-0.172
Mof_N 	N 	0.0714	0.9003	0.6267	-0.125
Mof_N 	N 	0.059	0.8493	0.7388	-0.178
Mof_O 	O 	0.0033	0.9079	0.8282	-0.352
Mof_H 	H 	0.993	0.928	0.82	0.252
Mof_O 	O 	0.0175	0.9195	0.4985	-1.03
Mof_H 	H 	0.023	0.9387	0.484	0.403
Mof_H 	H 	0.9933	0.888	0.5455	0.328
Mof_H 	H 	0.0078	0.9201	0.5178	0.912
Mof_C 	C 	0.0353	0.8818	0.8374	0.052
Mof_H 	H 	0.0296	0.8672	0.8614	0.004
Mof_H 	H 	0.0594	0.8968	0.8413	0.03
Mof_O 	O 	0.0282	0.8703	0.5042	-0.19
Mof_H 	H 	0.014	0.8502	0.507	0.038
Mof_C 	C 	0.4253	0.9812	0.2172	-0.039
Mof_C 	C 	0.3948	0.9488	0.2788	-0.026
Mof_C 	C 	0.4552	0.8937	0.4002	-0.162
Mof_H 	H 	0.4769	0.8783	0.3934	0.075
Mof_C 	C 	0.4531	0.9082	0.4384	0.333
Mof_C 	C 	0.4226	0.9316	0.4477	-0.281
Mof_H 	H 	0.4204	0.9426	0.4728	0.158
Mof_C 	C 	0.3946	0.9388	0.4196	0.063
Mof_H 	H 	0.3731	0.9549	0.4254	0.014
Mof_C 	C 	0.3982	0.9225	0.3832	-0.042
Mof_H 	H 	0.3785	0.9271	0.3645	0.04
Mof_C 	C 	0.4494	0.8719	0.2301	0.034
Mof_H 	H 	0.4478	0.8994	0.2319	0.031
Mof_C 	C 	0.4603	0.8546	0.196	-0.032
Mof_C 	C 	0.4613	0.815	0.1922	0.007
Mof_H 	H 	0.4685	0.8033	0.1683	0.029
Mof_C 	C 	0.4521	0.7939	0.2221	-0.107
Mof_H 	H 	0.4529	0.7665	0.2201	0.073
Mof_C 	C 	0.4414	0.8107	0.2563	0.071
Mof_H 	H 	0.434	0.7945	0.2773	-0
Mof_C 	C 	0.4844	0.8975	0.468	-0.936
Mof_H 	H 	0.4821	0.8702	0.4727	0.418
Mof_H 	H 	0.5098	0.9025	0.4579	-0.106
Mof_C 	C 	0.4757	0.8741	0.1601	0.022
Mof_H 	H 	0.493	0.8562	0.1457	0.046
Mof_H 	H 	0.454	0.8816	0.1428	0.006
Mof_N 	N 	0.4514	0.9703	0.1998	-0.108
Mof_N 	N 	0.4075	0.9224	0.2935	-0.173
Mof_N 	N 	0.4286	0.9003	0.3733	-0.126
Mof_N 	N 	0.441	0.8493	0.2612	-0.178
Mof_O 	O 	0.4967	0.9079	0.1718	-0.346
Mof_H 	H 	0.507	0.928	0.18	0.246
Mof_O 	O 	0.4825	0.9195	0.5015	-1.028
Mof_H 	H 	0.477	0.9387	0.516	0.403
Mof_H 	H 	0.5067	0.888	0.4545	0.323
Mof_H 	H 	0.4922	0.9201	0.4822	0.906
Mof_C 	C 	0.4647	0.8818	0.1626	0.051
Mof_H 	H 	0.4704	0.8672	0.1386	0.004
Mof_H 	H 	0.4406	0.8968	0.1587	0.03
Mof_O 	O 	0.4718	0.8703	0.4958	-0.192
Mof_H 	H 	0.486	0.8502	0.493	0.041
Mof_C 	C 	0.9253	0.4812	0.7172	-0.042
Mof_C 	C 	0.8948	0.4488	0.7788	-0.028
Mof_C 	C 	0.9552	0.3937	0.9002	-0.161
Mof_H 	H 	0.9769	0.3783	0.8934	0.076
Mof_C 	C 	0.9531	0.4082	0.9384	0.331
Mof_C 	C 	0.9226	0.4316	0.9477	-0.28
Mof_H 	H 	0.9204	0.4426	0.9728	0.159
Mof_C 	C 	0.8946	0.4388	0.9196	0.063
Mof_H 	H 	0.8731	0.4549	0.9254	0.013
Mof_C 	C 	0.8982	0.4225	0.8832	-0.042
Mof_H 	H 	0.8785	0.4271	0.8645	0.04
Mof_C 	C 	0.9494	0.3719	0.7301	0.033
Mof_H 	H 	0.9478	0.3994	0.7319	0.031
Mof_C 	C 	0.9603	0.3546	0.696	-0.03
Mof_C 	C 	0.9613	0.315	0.6922	0.006
Mof_H 	H 	0.9685	0.3033	0.6683	0.03
Mof_C 	C 	0.9521	0.2939	0.7221	-0.106
Mof_H 	H 	0.9529	0.2665	0.7201	0.074
Mof_C 	C 	0.9414	0.3107	0.7563	0.071
Mof_H 	H 	0.934	0.2945	0.7773	-0
Mof_C 	C 	0.9844	0.3975	0.968	-0.927
Mof_H 	H 	0.9821	0.3702	0.9727	0.415
Mof_H 	H 	0.0098	0.4025	0.9579	-0.112
Mof_C 	C 	0.9757	0.3741	0.6601	0.021
Mof_H 	H 	0.993	0.3562	0.6457	0.047
Mof_H 	H 	0.954	0.3816	0.6428	0.007
Mof_N 	N 	0.9514	0.4703	0.6998	-0.107
Mof_N 	N 	0.9075	0.4224	0.7935	-0.172
Mof_N 	N 	0.9286	0.4003	0.8733	-0.126
Mof_N 	N 	0.941	0.3493	0.7612	-0.177
Mof_O 	O 	0.9967	0.4079	0.6718	-0.339
Mof_H 	H 	0.007	0.428	0.68	0.24
Mof_O 	O 	0.9825	0.4195	0.0015	-1.042
Mof_H 	H 	0.977	0.4387	0.016	0.408
Mof_H 	H 	0.0067	0.388	0.9545	0.324
Mof_H 	H 	0.9922	0.4201	0.9822	0.914
Mof_C 	C 	0.9647	0.3818	0.6626	0.049
Mof_H 	H 	0.9704	0.3672	0.6386	0.005
Mof_H 	H 	0.9406	0.3968	0.6587	0.03
Mof_O 	O 	0.9718	0.3703	0.9958	-0.189
Mof_H 	H 	0.986	0.3502	0.993	0.043
Mof_C 	C 	0.9253	0.5188	0.7828	-0.042
Mof_C 	C 	0.8948	0.5512	0.7212	-0.028
Mof_C 	C 	0.9552	0.6063	0.5998	-0.159
Mof_H 	H 	0.9769	0.6217	0.6066	0.075
Mof_C 	C 	0.9531	0.5918	0.5616	0.327
Mof_C 	C 	0.9226	0.5684	0.5523	-0.277
Mof_H 	H 	0.9204	0.5574	0.5272	0.157
Mof_C 	C 	0.8946	0.5612	0.5804	0.061
Mof_H 	H 	0.8731	0.5451	0.5746	0.014
Mof_C 	C 	0.8982	0.5775	0.6168	-0.041
Mof_H 	H 	0.8785	0.5729	0.6355	0.039
Mof_C 	C 	0.9494	0.6281	0.7699	0.033
Mof_H 	H 	0.9478	0.6006	0.7681	0.031
Mof_C 	C 	0.9603	0.6454	0.804	-0.03
Mof_C 	C 	0.9613	0.685	0.8078	0.006
Mof_H 	H 	0.9685	0.6967	0.8317	0.03
Mof_C 	C 	0.9521	0.7061	0.7779	-0.106
Mof_H 	H 	0.9529	0.7335	0.7799	0.074
Mof_C 	C 	0.9414	0.6893	0.7437	0.071
Mof_H 	H 	0.934	0.7055	0.7227	-0
Mof_C 	C 	0.9844	0.6025	0.532	-0.917
Mof_H 	H 	0.9821	0.6298	0.5273	0.414
Mof_H 	H 	0.0098	0.5975	0.5421	-0.109
Mof_C 	C 	0.9757	0.6259	0.8399	0.021
Mof_H 	H 	0.993	0.6438	0.8543	0.047
Mof_H 	H 	0.954	0.6184	0.8572	0.007
Mof_N 	N 	0.9514	0.5297	0.8002	-0.107
Mof_N 	N 	0.9075	0.5776	0.7065	-0.172
Mof_N 	N 	0.9286	0.5997	0.6267	-0.127
Mof_N 	N 	0.941	0.6507	0.7388	-0.177
Mof_O 	O 	0.9967	0.5921	0.8282	-0.339
Mof_H 	H 	0.007	0.572	0.82	0.24
Mof_O 	O 	0.9825	0.5805	0.4985	-1.026
Mof_H 	H 	0.977	0.5613	0.484	0.403
Mof_H 	H 	0.0067	0.612	0.5455	0.318
Mof_H 	H 	0.9922	0.5799	0.5178	0.9
Mof_C 	C 	0.9647	0.6182	0.8374	0.049
Mof_H 	H 	0.9704	0.6328	0.8614	0.005
Mof_H 	H 	0.9406	0.6032	0.8413	0.03
Mof_O 	O 	0.9718	0.6297	0.5042	-0.194
Mof_H 	H 	0.986	0.6498	0.507	0.044
Mof_C 	C 	0.4253	0.0188	0.2828	-0.043
Mof_C 	C 	0.3948	0.0512	0.2212	-0.028
Mof_C 	C 	0.4552	0.1063	0.0998	-0.16
Mof_H 	H 	0.4769	0.1217	0.1066	0.075
Mof_C 	C 	0.4531	0.0918	0.0616	0.329
Mof_C 	C 	0.4226	0.0684	0.0523	-0.279
Mof_H 	H 	0.4204	0.0574	0.0272	0.156
Mof_C 	C 	0.3946	0.0612	0.0804	0.062
Mof_H 	H 	0.3731	0.0451	0.0746	0.013
Mof_C 	C 	0.3982	0.0775	0.1168	-0.042
Mof_H 	H 	0.3785	0.0729	0.1355	0.039
Mof_C 	C 	0.4494	0.1281	0.2699	0.034
Mof_H 	H 	0.4478	0.1006	0.2681	0.031
Mof_C 	C 	0.4603	0.1454	0.304	-0.032
Mof_C 	C 	0.4613	0.185	0.3078	0.007
Mof_H 	H 	0.4685	0.1967	0.3317	0.029
Mof_C 	C 	0.4521	0.2061	0.2779	-0.107
Mof_H 	H 	0.4529	0.2335	0.2799	0.073
Mof_C 	C 	0.4414	0.1893	0.2437	0.071
Mof_H 	H 	0.434	0.2055	0.2227	-0
Mof_C 	C 	0.4844	0.1025	0.032	-0.926
Mof_H 	H 	0.4821	0.1298	0.0273	0.417
Mof_H 	H 	0.5098	0.0975	0.0421	-0.103
Mof_C 	C 	0.4757	0.1259	0.3399	0.022
Mof_H 	H 	0.493	0.1438	0.3543	0.046
Mof_H 	H 	0.454	0.1184	0.3572	0.006
Mof_N 	N 	0.4514	0.0297	0.3002	-0.108
Mof_N 	N 	0.4075	0.0776	0.2065	-0.172
Mof_N 	N 	0.4286	0.0997	0.1267	-0.126
Mof_N 	N 	0.441	0.1507	0.2388	-0.178
Mof_O 	O 	0.4967	0.0921	0.3282	-0.345
Mof_H 	H 	0.507	0.072	0.32	0.245
Mof_O 	O 	0.4825	0.0805	0.9985	-1.011
Mof_H 	H 	0.477	0.0613	0.984	0.397
Mof_H 	H 	0.5067	0.112	0.0455	0.318
Mof_H 	H 	0.4922	0.0799	0.0178	0.892
Mof_C 	C 	0.4647	0.1182	0.3374	0.05
Mof_H 	H 	0.4704	0.1328	0.3614	0.004
Mof_H 	H 	0.4406	0.1032	0.3413	0.03
Mof_O 	O 	0.4718	0.1297	0.0042	-0.197
Mof_H 	H 	0.486	0.1498	0.007	0.042
Mof_C 	C 	0.7172	0.0747	0.0188	-0.044
Mof_C 	C 	0.7788	0.1052	0.0512	-0.029
Mof_C 	C 	0.9002	0.0448	0.1063	-0.167
Mof_H 	H 	0.8934	0.0231	0.1217	0.076
Mof_C 	C 	0.9384	0.0469	0.0918	0.343
Mof_C 	C 	0.9477	0.0774	0.0684	-0.289
Mof_H 	H 	0.9728	0.0796	0.0574	0.161
Mof_C 	C 	0.9196	0.1054	0.0612	0.068
Mof_H 	H 	0.9254	0.1269	0.0451	0.011
Mof_C 	C 	0.8832	0.1018	0.0775	-0.045
Mof_H 	H 	0.8645	0.1215	0.0729	0.04
Mof_C 	C 	0.7301	0.0506	0.1281	0.034
Mof_H 	H 	0.7319	0.0522	0.1006	0.031
Mof_C 	C 	0.696	0.0397	0.1454	-0.034
Mof_C 	C 	0.6922	0.0387	0.185	0.008
Mof_H 	H 	0.6683	0.0315	0.1967	0.028
Mof_C 	C 	0.7221	0.0479	0.2061	-0.108
Mof_H 	H 	0.7201	0.0471	0.2335	0.073
Mof_C 	C 	0.7563	0.0586	0.1893	0.071
Mof_H 	H 	0.7773	0.066	0.2055	-0
Mof_C 	C 	0.968	0.0156	0.1025	-0.963
Mof_H 	H 	0.9727	0.0179	0.1298	0.424
Mof_H 	H 	0.9579	0.9902	0.0975	-0.106
Mof_C 	C 	0.6601	0.0243	0.1259	0.023
Mof_H 	H 	0.6457	0.007	0.1438	0.045
Mof_H 	H 	0.6428	0.046	0.1184	0.005
Mof_N 	N 	0.6998	0.0486	0.0297	-0.109
Mof_N 	N 	0.7935	0.0925	0.0776	-0.172
Mof_N 	N 	0.8733	0.0714	0.0997	-0.124
Mof_N 	N 	0.7612	0.059	0.1507	-0.178
Mof_O 	O 	0.6718	0.0033	0.0921	-0.352
Mof_H 	H 	0.68	0.993	0.072	0.251
Mof_O 	O 	0.0015	0.0175	0.0805	-1.045
Mof_H 	H 	0.016	0.023	0.0613	0.406
Mof_H 	H 	0.9545	0.9933	0.112	0.334
Mof_H 	H 	0.9822	0.0078	0.0799	0.924
Mof_C 	C 	0.6626	0.0353	0.1182	0.052
Mof_H 	H 	0.6386	0.0296	0.1328	0.004
Mof_H 	H 	0.6587	0.0594	0.1032	0.03
Mof_O 	O 	0.9958	0.0282	0.1297	-0.185
Mof_H 	H 	0.993	0.014	0.1498	0.037
Mof_C 	C 	0.2172	0.5747	0.5188	-0.042
Mof_C 	C 	0.2788	0.6052	0.5512	-0.029
Mof_C 	C 	0.4002	0.5448	0.6063	-0.162
Mof_H 	H 	0.3934	0.5231	0.6217	0.075
Mof_C 	C 	0.4384	0.5469	0.5918	0.333
Mof_C 	C 	0.4477	0.5774	0.5684	-0.282
Mof_H 	H 	0.4728	0.5796	0.5574	0.158
Mof_C 	C 	0.4196	0.6054	0.5612	0.063
Mof_H 	H 	0.4254	0.6269	0.5451	0.013
Mof_C 	C 	0.3832	0.6018	0.5775	-0.043
Mof_H 	H 	0.3645	0.6215	0.5729	0.04
Mof_C 	C 	0.2301	0.5506	0.6281	0.034
Mof_H 	H 	0.2319	0.5522	0.6006	0.031
Mof_C 	C 	0.196	0.5397	0.6454	-0.032
Mof_C 	C 	0.1922	0.5387	0.685	0.007
Mof_H 	H 	0.1683	0.5315	0.6967	0.029
Mof_C 	C 	0.2221	0.5479	0.7061	-0.107
Mof_H 	H 	0.2201	0.5471	0.7335	0.073
Mof_C 	C 	0.2563	0.5586	0.6893	0.071
Mof_H 	H 	0.2773	0.566	0.7055	-0
Mof_C 	C 	0.468	0.5156	0.6025	-0.936
Mof_H 	H 	0.4727	0.5179	0.6298	0.418
Mof_H 	H 	0.4579	0.4902	0.5975	-0.106
Mof_C 	C 	0.1601	0.5243	0.6259	0.022
Mof_H 	H 	0.1457	0.507	0.6438	0.046
Mof_H 	H 	0.1428	0.546	0.6184	0.006
Mof_N 	N 	0.1998	0.5486	0.5297	-0.107
Mof_N 	N 	0.2935	0.5925	0.5776	-0.172
Mof_N 	N 	0.3733	0.5714	0.5997	-0.126
Mof_N 	N 	0.2612	0.559	0.6507	-0.178
Mof_O 	O 	0.1718	0.5033	0.5921	-0.346
Mof_H 	H 	0.18	0.493	0.572	0.246
Mof_O 	O 	0.5015	0.5175	0.5805	-1.028
Mof_H 	H 	0.516	0.523	0.5613	0.403
Mof_H 	H 	0.4545	0.4933	0.612	0.323
Mof_H 	H 	0.4822	0.5078	0.5799	0.906
Mof_C 	C 	0.1626	0.5353	0.6182	0.05
Mof_H 	H 	0.1386	0.5296	0.6328	0.004
Mof_H 	H 	0.1587	0.5594	0.6032	0.03
Mof_O 	O 	0.4958	0.5282	0.6297	-0.192
Mof_H 	H 	0.493	0.514	0.6498	0.041
Mof_C 	C 	0.2828	0.5747	0.4812	-0.042
Mof_C 	C 	0.2212	0.6052	0.4488	-0.029
Mof_C 	C 	0.0998	0.5448	0.3937	-0.16
Mof_H 	H 	0.1066	0.5231	0.3783	0.075
Mof_C 	C 	0.0616	0.5469	0.4082	0.329
Mof_C 	C 	0.0523	0.5774	0.4316	-0.279
Mof_H 	H 	0.0272	0.5796	0.4426	0.156
Mof_C 	C 	0.0804	0.6054	0.4388	0.061
Mof_H 	H 	0.0746	0.6269	0.4549	0.013
Mof_C 	C 	0.1168	0.6018	0.4225	-0.041
Mof_H 	H 	0.1355	0.6215	0.4271	0.039
Mof_C 	C 	0.2699	0.5506	0.3719	0.034
Mof_H 	H 	0.2681	0.5522	0.3994	0.031
Mof_C 	C 	0.304	0.5397	0.3546	-0.032
Mof_C 	C 	0.3078	0.5387	0.315	0.007
Mof_H 	H 	0.3317	0.5315	0.3033	0.029
Mof_C 	C 	0.2779	0.5479	0.2939	-0.107
Mof_H 	H 	0.2799	0.5471	0.2665	0.073
Mof_C 	C 	0.2437	0.5586	0.3107	0.071
Mof_H 	H 	0.2227	0.566	0.2945	-0
Mof_C 	C 	0.032	0.5156	0.3975	-0.926
Mof_H 	H 	0.0273	0.5179	0.3702	0.417
Mof_H 	H 	0.0421	0.4902	0.4025	-0.103
Mof_C 	C 	0.3399	0.5243	0.3741	0.022
Mof_H 	H 	0.3543	0.507	0.3562	0.046
Mof_H 	H 	0.3572	0.546	0.3816	0.006
Mof_N 	N 	0.3002	0.5486	0.4703	-0.107
Mof_N 	N 	0.2065	0.5925	0.4224	-0.172
Mof_N 	N 	0.1267	0.5714	0.4003	-0.126
Mof_N 	N 	0.2388	0.559	0.3493	-0.178
Mof_O 	O 	0.3282	0.5033	0.4079	-0.345
Mof_H 	H 	0.32	0.493	0.428	0.246
Mof_O 	O 	0.9985	0.5175	0.4195	-1.012
Mof_H 	H 	0.984	0.523	0.4387	0.398
Mof_H 	H 	0.0455	0.4933	0.388	0.318
Mof_H 	H 	0.0178	0.5078	0.4201	0.892
Mof_C 	C 	0.3374	0.5353	0.3818	0.05
Mof_H 	H 	0.3614	0.5296	0.3672	0.004
Mof_H 	H 	0.3413	0.5594	0.3968	0.03
Mof_O 	O 	0.0042	0.5282	0.3703	-0.197
Mof_H 	H 	0.007	0.514	0.3502	0.042
Mof_C 	C 	0.7828	0.0747	0.9812	-0.039
Mof_C 	C 	0.7212	0.1052	0.9488	-0.026
Mof_C 	C 	0.5998	0.0448	0.8937	-0.165
Mof_H 	H 	0.6066	0.0231	0.8783	0.076
Mof_C 	C 	0.5616	0.0469	0.9082	0.339
Mof_C 	C 	0.5523	0.0774	0.9316	-0.286
Mof_H 	H 	0.5272	0.0796	0.9426	0.16
Mof_C 	C 	0.5804	0.1054	0.9388	0.066
Mof_H 	H 	0.5746	0.1269	0.9549	0.013
Mof_C 	C 	0.6168	0.1018	0.9225	-0.044
Mof_H 	H 	0.6355	0.1215	0.9271	0.04
Mof_C 	C 	0.7699	0.0506	0.8719	0.034
Mof_H 	H 	0.7681	0.0522	0.8994	0.031
Mof_C 	C 	0.804	0.0397	0.8546	-0.034
Mof_C 	C 	0.8078	0.0387	0.815	0.008
Mof_H 	H 	0.8317	0.0315	0.8033	0.028
Mof_C 	C 	0.7779	0.0479	0.7939	-0.108
Mof_H 	H 	0.7799	0.0471	0.7665	0.073
Mof_C 	C 	0.7437	0.0586	0.8107	0.071
Mof_H 	H 	0.7227	0.066	0.7945	-0
Mof_C 	C 	0.532	0.0156	0.8975	-0.954
Mof_H 	H 	0.5273	0.0179	0.8702	0.423
Mof_H 	H 	0.5421	0.9902	0.9025	-0.103
Mof_C 	C 	0.8399	0.0243	0.8741	0.024
Mof_H 	H 	0.8543	0.007	0.8562	0.045
Mof_H 	H 	0.8572	0.046	0.8816	0.005
Mof_N 	N 	0.8002	0.0486	0.9703	-0.108
Mof_N 	N 	0.7065	0.0925	0.9224	-0.172
Mof_N 	N 	0.6267	0.0714	0.9003	-0.125
Mof_N 	N 	0.7388	0.059	0.8493	-0.178
Mof_O 	O 	0.8282	0.0033	0.9079	-0.352
Mof_H 	H 	0.82	0.993	0.928	0.252
Mof_O 	O 	0.4985	0.0175	0.9195	-1.03
Mof_H 	H 	0.484	0.023	0.9387	0.403
Mof_H 	H 	0.5455	0.9933	0.888	0.328
Mof_H 	H 	0.5178	0.0078	0.9201	0.912
Mof_C 	C 	0.8374	0.0353	0.8818	0.052
Mof_H 	H 	0.8614	0.0296	0.8672	0.004
Mof_H 	H 	0.8413	0.0594	0.8968	0.03
Mof_O 	O 	0.5042	0.0282	0.8703	-0.19
Mof_H 	H 	0.507	0.014	0.8502	0.038
Mof_C 	C 	0.2172	0.4253	0.9812	-0.039
Mof_C 	C 	0.2788	0.3948	0.9488	-0.026
Mof_C 	C 	0.4002	0.4552	0.8937	-0.162
Mof_H 	H 	0.3934	0.4769	0.8783	0.075
Mof_C 	C 	0.4384	0.4531	0.9082	0.333
Mof_C 	C 	0.4477	0.4226	0.9316	-0.281
Mof_H 	H 	0.4728	0.4204	0.9426	0.158
Mof_C 	C 	0.4196	0.3946	0.9388	0.063
Mof_H 	H 	0.4254	0.3731	0.9549	0.014
Mof_C 	C 	0.3832	0.3982	0.9225	-0.042
Mof_H 	H 	0.3645	0.3785	0.9271	0.04
Mof_C 	C 	0.2301	0.4494	0.8719	0.034
Mof_H 	H 	0.2319	0.4478	0.8994	0.031
Mof_C 	C 	0.196	0.4603	0.8546	-0.032
Mof_C 	C 	0.1922	0.4613	0.815	0.007
Mof_H 	H 	0.1683	0.4685	0.8033	0.029
Mof_C 	C 	0.2221	0.4521	0.7939	-0.107
Mof_H 	H 	0.2201	0.4529	0.7665	0.073
Mof_C 	C 	0.2563	0.4414	0.8107	0.071
Mof_H 	H 	0.2773	0.434	0.7945	-0
Mof_C 	C 	0.468	0.4844	0.8975	-0.936
Mof_H 	H 	0.4727	0.4821	0.8702	0.418
Mof_H 	H 	0.4579	0.5098	0.9025	-0.106
Mof_C 	C 	0.1601	0.4757	0.8741	0.022
Mof_H 	H 	0.1457	0.493	0.8562	0.046
Mof_H 	H 	0.1428	0.454	0.8816	0.006
Mof_N 	N 	0.1998	0.4514	0.9703	-0.108
Mof_N 	N 	0.2935	0.4075	0.9224	-0.173
Mof_N 	N 	0.3733	0.4286	0.9003	-0.126
Mof_N 	N 	0.2612	0.441	0.8493	-0.178
Mof_O 	O 	0.1718	0.4967	0.9079	-0.346
Mof_H 	H 	0.18	0.507	0.928	0.246
Mof_O 	O 	0.5015	0.4825	0.9195	-1.028
Mof_H 	H 	0.516	0.477	0.9387	0.403
Mof_H 	H 	0.4545	0.5067	0.888	0.323
Mof_H 	H 	0.4822	0.4922	0.9201	0.906
Mof_C 	C 	0.1626	0.4647	0.8818	0.051
Mof_H 	H 	0.1386	0.4704	0.8672	0.004
Mof_H 	H 	0.1587	0.4406	0.8968	0.03
Mof_O 	O 	0.4958	0.4718	0.8703	-0.192
Mof_H 	H 	0.493	0.486	0.8502	0.041
Mof_C 	C 	0.7172	0.9253	0.4812	-0.042
Mof_C 	C 	0.7788	0.8948	0.4488	-0.028
Mof_C 	C 	0.9002	0.9552	0.3937	-0.161
Mof_H 	H 	0.8934	0.9769	0.3783	0.076
Mof_C 	C 	0.9384	0.9531	0.4082	0.331
Mof_C 	C 	0.9477	0.9226	0.4316	-0.28
Mof_H 	H 	0.9728	0.9204	0.4426	0.159
Mof_C 	C 	0.9196	0.8946	0.4388	0.063
Mof_H 	H 	0.9254	0.8731	0.4549	0.013
Mof_C 	C 	0.8832	0.8982	0.4225	-0.042
Mof_H 	H 	0.8645	0.8785	0.4271	0.04
Mof_C 	C 	0.7301	0.9494	0.3719	0.033
Mof_H 	H 	0.7319	0.9478	0.3994	0.031
Mof_C 	C 	0.696	0.9603	0.3546	-0.03
Mof_C 	C 	0.6922	0.9613	0.315	0.006
Mof_H 	H 	0.6683	0.9685	0.3033	0.03
Mof_C 	C 	0.7221	0.9521	0.2939	-0.106
Mof_H 	H 	0.7201	0.9529	0.2665	0.074
Mof_C 	C 	0.7563	0.9414	0.3107	0.071
Mof_H 	H 	0.7773	0.934	0.2945	-0
Mof_C 	C 	0.968	0.9844	0.3975	-0.927
Mof_H 	H 	0.9727	0.9821	0.3702	0.415
Mof_H 	H 	0.9579	0.0098	0.4025	-0.112
Mof_C 	C 	0.6601	0.9757	0.3741	0.021
Mof_H 	H 	0.6457	0.993	0.3562	0.047
Mof_H 	H 	0.6428	0.954	0.3816	0.007
Mof_N 	N 	0.6998	0.9514	0.4703	-0.107
Mof_N 	N 	0.7935	0.9075	0.4224	-0.172
Mof_N 	N 	0.8733	0.9286	0.4003	-0.126
Mof_N 	N 	0.7612	0.941	0.3493	-0.177
Mof_O 	O 	0.6718	0.9967	0.4079	-0.339
Mof_H 	H 	0.68	0.007	0.428	0.24
Mof_O 	O 	0.0015	0.9825	0.4195	-1.042
Mof_H 	H 	0.016	0.977	0.4387	0.408
Mof_H 	H 	0.9545	0.0067	0.388	0.324
Mof_H 	H 	0.9822	0.9922	0.4201	0.914
Mof_C 	C 	0.6626	0.9647	0.3818	0.049
Mof_H 	H 	0.6386	0.9704	0.3672	0.005
Mof_H 	H 	0.6587	0.9406	0.3968	0.03
Mof_O 	O 	0.9958	0.9718	0.3703	-0.189
Mof_H 	H 	0.993	0.986	0.3502	0.043
Mof_C 	C 	0.7828	0.9253	0.5188	-0.042
Mof_C 	C 	0.7212	0.8948	0.5512	-0.028
Mof_C 	C 	0.5998	0.9552	0.6063	-0.159
Mof_H 	H 	0.6066	0.9769	0.6217	0.075
Mof_C 	C 	0.5616	0.9531	0.5918	0.327
Mof_C 	C 	0.5523	0.9226	0.5684	-0.277
Mof_H 	H 	0.5272	0.9204	0.5574	0.157
Mof_C 	C 	0.5804	0.8946	0.5612	0.061
Mof_H 	H 	0.5746	0.8731	0.5451	0.014
Mof_C 	C 	0.6168	0.8982	0.5775	-0.041
Mof_H 	H 	0.6355	0.8785	0.5729	0.039
Mof_C 	C 	0.7699	0.9494	0.6281	0.033
Mof_H 	H 	0.7681	0.9478	0.6006	0.031
Mof_C 	C 	0.804	0.9603	0.6454	-0.03
Mof_C 	C 	0.8078	0.9613	0.685	0.006
Mof_H 	H 	0.8317	0.9685	0.6967	0.03
Mof_C 	C 	0.7779	0.9521	0.7061	-0.106
Mof_H 	H 	0.7799	0.9529	0.7335	0.074
Mof_C 	C 	0.7437	0.9414	0.6893	0.071
Mof_H 	H 	0.7227	0.934	0.7055	-0
Mof_C 	C 	0.532	0.9844	0.6025	-0.917
Mof_H 	H 	0.5273	0.9821	0.6298	0.414
Mof_H 	H 	0.5421	0.0098	0.5975	-0.109
Mof_C 	C 	0.8399	0.9757	0.6259	0.021
Mof_H 	H 	0.8543	0.993	0.6438	0.047
Mof_H 	H 	0.8572	0.954	0.6184	0.007
Mof_N 	N 	0.8002	0.9514	0.5297	-0.107
Mof_N 	N 	0.7065	0.9075	0.5776	-0.172
Mof_N 	N 	0.6267	0.9286	0.5997	-0.127
Mof_N 	N 	0.7388	0.941	0.6507	-0.177
Mof_O 	O 	0.8282	0.9967	0.5921	-0.339
Mof_H 	H 	0.82	0.007	0.572	0.24
Mof_O 	O 	0.4985	0.9825	0.5805	-1.026
Mof_H 	H 	0.484	0.977	0.5613	0.403
Mof_H 	H 	0.5455	0.0067	0.612	0.318
Mof_H 	H 	0.5178	0.9922	0.5799	0.9
Mof_C 	C 	0.8374	0.9647	0.6182	0.049
Mof_H 	H 	0.8614	0.9704	0.6328	0.005
Mof_H 	H 	0.8413	0.9406	0.6032	0.03
Mof_O 	O 	0.5042	0.9718	0.6297	-0.194
Mof_H 	H 	0.507	0.986	0.6498	0.044
Mof_C 	C 	0.2828	0.4253	0.0188	-0.043
Mof_C 	C 	0.2212	0.3948	0.0512	-0.028
Mof_C 	C 	0.0998	0.4552	0.1063	-0.16
Mof_H 	H 	0.1066	0.4769	0.1217	0.075
Mof_C 	C 	0.0616	0.4531	0.0918	0.329
Mof_C 	C 	0.0523	0.4226	0.0684	-0.279
Mof_H 	H 	0.0272	0.4204	0.0574	0.156
Mof_C 	C 	0.0804	0.3946	0.0612	0.062
Mof_H 	H 	0.0746	0.3731	0.0451	0.013
Mof_C 	C 	0.1168	0.3982	0.0775	-0.042
Mof_H 	H 	0.1355	0.3785	0.0729	0.039
Mof_C 	C 	0.2699	0.4494	0.1281	0.034
Mof_H 	H 	0.2681	0.4478	0.1006	0.031
Mof_C 	C 	0.304	0.4603	0.1454	-0.032
Mof_C 	C 	0.3078	0.4613	0.185	0.007
Mof_H 	H 	0.3317	0.4685	0.1967	0.029
Mof_C 	C 	0.2779	0.4521	0.2061	-0.107
Mof_H 	H 	0.2799	0.4529	0.2335	0.073
Mof_C 	C 	0.2437	0.4414	0.1893	0.071
Mof_H 	H 	0.2227	0.434	0.2055	-0
Mof_C 	C 	0.032	0.4844	0.1025	-0.926
Mof_H 	H 	0.0273	0.4821	0.1298	0.417
Mof_H 	H 	0.0421	0.5098	0.0975	-0.103
Mof_C 	C 	0.3399	0.4757	0.1259	0.022
Mof_H 	H 	0.3543	0.493	0.1438	0.046
Mof_H 	H 	0.3572	0.454	0.1184	0.006
Mof_N 	N 	0.3002	0.4514	0.0297	-0.108
Mof_N 	N 	0.2065	0.4075	0.0776	-0.172
Mof_N 	N 	0.1267	0.4286	0.0997	-0.126
Mof_N 	N 	0.2388	0.441	0.1507	-0.178
Mof_O 	O 	0.3282	0.4967	0.0921	-0.345
Mof_H 	H 	0.32	0.507	0.072	0.245
Mof_O 	O 	0.9985	0.4825	0.0805	-1.011
Mof_H 	H 	0.984	0.477	0.0613	0.397
Mof_H 	H 	0.0455	0.5067	0.112	0.318
Mof_H 	H 	0.0178	0.4922	0.0799	0.892
Mof_C 	C 	0.3374	0.4647	0.1182	0.05
Mof_H 	H 	0.3614	0.4704	0.1328	0.004
Mof_H 	H 	0.3413	0.4406	0.1032	0.03
Mof_O 	O 	0.0042	0.4718	0.1297	-0.197
Mof_H 	H 	0.007	0.486	0.1498	0.042
Mof_C 	C 	0.4672	0.2688	0.1753	-0.042
Mof_C 	C 	0.5288	0.3012	0.1448	-0.029
Mof_C 	C 	0.6502	0.3563	0.2052	-0.162
Mof_H 	H 	0.6434	0.3717	0.2269	0.075
Mof_C 	C 	0.6884	0.3418	0.2031	0.333
Mof_C 	C 	0.6977	0.3184	0.1726	-0.282
Mof_H 	H 	0.7228	0.3074	0.1704	0.158
Mof_C 	C 	0.6696	0.3112	0.1446	0.063
Mof_H 	H 	0.6754	0.2951	0.1231	0.013
Mof_C 	C 	0.6332	0.3275	0.1482	-0.042
Mof_H 	H 	0.6145	0.3229	0.1285	0.04
Mof_C 	C 	0.4801	0.3781	0.1994	0.034
Mof_H 	H 	0.4819	0.3506	0.1978	0.031
Mof_C 	C 	0.446	0.3954	0.2103	-0.032
Mof_C 	C 	0.4422	0.435	0.2113	0.007
Mof_H 	H 	0.4183	0.4467	0.2185	0.029
Mof_C 	C 	0.4721	0.4561	0.2021	-0.107
Mof_H 	H 	0.4701	0.4835	0.2029	0.073
Mof_C 	C 	0.5063	0.4393	0.1914	0.071
Mof_H 	H 	0.5273	0.4555	0.184	-0
Mof_C 	C 	0.718	0.3525	0.2344	-0.936
Mof_H 	H 	0.7227	0.3798	0.2321	0.418
Mof_H 	H 	0.7079	0.3475	0.2598	-0.106
Mof_C 	C 	0.4101	0.3759	0.2257	0.022
Mof_H 	H 	0.3957	0.3938	0.243	0.046
Mof_H 	H 	0.3928	0.3684	0.204	0.006
Mof_N 	N 	0.4498	0.2797	0.2014	-0.107
Mof_N 	N 	0.5435	0.3276	0.1575	-0.172
Mof_N 	N 	0.6233	0.3497	0.1786	-0.126
Mof_N 	N 	0.5112	0.4007	0.191	-0.178
Mof_O 	O 	0.4218	0.3421	0.2467	-0.345
Mof_H 	H 	0.43	0.322	0.257	0.246
Mof_O 	O 	0.7515	0.3305	0.2325	-1.028
Mof_H 	H 	0.766	0.3113	0.227	0.403
Mof_H 	H 	0.7045	0.362	0.2567	0.323
Mof_H 	H 	0.7322	0.3299	0.2422	0.906
Mof_C 	C 	0.4126	0.3682	0.2147	0.05
Mof_H 	H 	0.3886	0.3828	0.2204	0.004
Mof_H 	H 	0.4087	0.3532	0.1906	0.03
Mof_O 	O 	0.7458	0.3797	0.2218	-0.192
Mof_H 	H 	0.743	0.3998	0.236	0.041
Mof_C 	C 	0.9672	0.7688	0.6753	-0.039
Mof_C 	C 	0.0288	0.8012	0.6448	-0.029
Mof_C 	C 	0.1502	0.8563	0.7052	-0.162
Mof_H 	H 	0.1434	0.8717	0.7269	0.075
Mof_C 	C 	0.1884	0.8418	0.7031	0.333
Mof_C 	C 	0.1977	0.8184	0.6726	-0.282
Mof_H 	H 	0.2228	0.8074	0.6704	0.158
Mof_C 	C 	0.1696	0.8112	0.6446	0.063
Mof_H 	H 	0.1754	0.7951	0.6231	0.013
Mof_C 	C 	0.1332	0.8275	0.6482	-0.043
Mof_H 	H 	0.1145	0.8229	0.6285	0.04
Mof_C 	C 	0.9801	0.8781	0.6994	0.036
Mof_H 	H 	0.9819	0.8506	0.6978	0.031
Mof_C 	C 	0.946	0.8954	0.7103	-0.03
Mof_C 	C 	0.9422	0.935	0.7113	0.002
Mof_H 	H 	0.9183	0.9467	0.7185	0.031
Mof_C 	C 	0.9721	0.9561	0.7021	-0.098
Mof_H 	H 	0.9701	0.9835	0.7029	0.072
Mof_C 	C 	0.0063	0.9393	0.6914	0.063
Mof_H 	H 	0.0273	0.9555	0.684	0.003
Mof_C 	C 	0.218	0.8525	0.7344	-0.935
Mof_H 	H 	0.2227	0.8798	0.7321	0.418
Mof_H 	H 	0.2079	0.8475	0.7598	-0.106
Mof_C 	C 	0.9101	0.8759	0.7257	0.022
Mof_H 	H 	0.8957	0.8938	0.743	0.046
Mof_H 	H 	0.8928	0.8684	0.704	0.006
Mof_N 	N 	0.9498	0.7797	0.7014	-0.108
Mof_N 	N 	0.0435	0.8276	0.6575	-0.172
Mof_N 	N 	0.1233	0.8497	0.6786	-0.126
Mof_N 	N 	0.0112	0.9007	0.691	-0.178
Mof_O 	O 	0.9218	0.8421	0.7467	-0.345
Mof_H 	H 	0.93	0.822	0.757	0.246
Mof_O 	O 	0.2515	0.8305	0.7325	-1.028
Mof_H 	H 	0.266	0.8113	0.727	0.403
Mof_H 	H 	0.2045	0.862	0.7567	0.323
Mof_H 	H 	0.2322	0.8299	0.7422	0.906
Mof_C 	C 	0.9126	0.8682	0.7147	0.05
Mof_H 	H 	0.8886	0.8828	0.7204	0.004
Mof_H 	H 	0.9087	0.8532	0.6906	0.03
Mof_O 	O 	0.2458	0.8797	0.7218	-0.192
Mof_H 	H 	0.243	0.8998	0.736	0.041
Mof_C 	C 	0.0328	0.7312	0.6753	-0.043
Mof_C 	C 	0.9712	0.6988	0.6448	-0.026
Mof_C 	C 	0.8498	0.6437	0.7052	-0.162
Mof_H 	H 	0.8566	0.6283	0.7269	0.075
Mof_C 	C 	0.8116	0.6582	0.7031	0.333
Mof_C 	C 	0.8023	0.6816	0.6726	-0.282
Mof_H 	H 	0.7772	0.6926	0.6704	0.158
Mof_C 	C 	0.8304	0.6888	0.6446	0.063
Mof_H 	H 	0.8246	0.7049	0.6231	0.013
Mof_C 	C 	0.8668	0.6725	0.6482	-0.042
Mof_H 	H 	0.8855	0.6771	0.6285	0.04
Mof_C 	C 	0.0199	0.6219	0.6994	0.031
Mof_H 	H 	0.0181	0.6494	0.6978	0.031
Mof_C 	C 	0.054	0.6046	0.7103	-0.034
Mof_C 	C 	0.0578	0.565	0.7113	0.012
Mof_H 	H 	0.0817	0.5533	0.7185	0.027
Mof_C 	C 	0.0279	0.5439	0.7021	-0.117
Mof_H 	H 	0.0299	0.5165	0.7029	0.076
Mof_C 	C 	0.9937	0.5607	0.6914	0.079
Mof_H 	H 	0.9727	0.5445	0.684	-0.002
Mof_C 	C 	0.782	0.6475	0.7344	-0.935
Mof_H 	H 	0.7773	0.6202	0.7321	0.418
Mof_H 	H 	0.7921	0.6525	0.7598	-0.106
Mof_C 	C 	0.0899	0.6241	0.7257	0.022
Mof_H 	H 	0.1043	0.6062	0.743	0.045
Mof_H 	H 	0.1072	0.6316	0.704	0.006
Mof_N 	N 	0.0502	0.7203	0.7014	-0.108
Mof_N 	N 	0.9565	0.6724	0.6575	-0.172
Mof_N 	N 	0.8767	0.6503	0.6786	-0.126
Mof_N 	N 	0.9888	0.5993	0.691	-0.177
Mof_O 	O 	0.0782	0.6579	0.7467	-0.346
Mof_H 	H 	0.07	0.678	0.757	0.245
Mof_O 	O 	0.7485	0.6695	0.7325	-1.028
Mof_H 	H 	0.734	0.6887	0.727	0.403
Mof_H 	H 	0.7955	0.638	0.7567	0.323
Mof_H 	H 	0.7678	0.6701	0.7422	0.906
Mof_C 	C 	0.0874	0.6318	0.7147	0.051
Mof_H 	H 	0.1114	0.6172	0.7204	0.004
Mof_H 	H 	0.0913	0.6468	0.6906	0.03
Mof_O 	O 	0.7542	0.6203	0.7218	-0.192
Mof_H 	H 	0.757	0.6002	0.736	0.041
Mof_C 	C 	0.5328	0.2312	0.1753	-0.042
Mof_C 	C 	0.4712	0.1988	0.1448	-0.029
Mof_C 	C 	0.3498	0.1437	0.2052	-0.162
Mof_H 	H 	0.3566	0.1283	0.2269	0.075
Mof_C 	C 	0.3116	0.1582	0.2031	0.333
Mof_C 	C 	0.3023	0.1816	0.1726	-0.282
Mof_H 	H 	0.2772	0.1926	0.1704	0.158
Mof_C 	C 	0.3304	0.1888	0.1446	0.063
Mof_H 	H 	0.3246	0.2049	0.1231	0.013
Mof_C 	C 	0.3668	0.1725	0.1482	-0.042
Mof_H 	H 	0.3855	0.1771	0.1285	0.04
Mof_C 	C 	0.5199	0.1219	0.1994	0.034
Mof_H 	H 	0.5181	0.1494	0.1978	0.031
Mof_C 	C 	0.554	0.1046	0.2103	-0.032
Mof_C 	C 	0.5578	0.065	0.2113	0.007
Mof_H 	H 	0.5817	0.0533	0.2185	0.028
Mof_C 	C 	0.5279	0.0439	0.2021	-0.107
Mof_H 	H 	0.5299	0.0165	0.2029	0.072
Mof_C 	C 	0.4937	0.0607	0.1914	0.071
Mof_H 	H 	0.4727	0.0445	0.184	-0.001
Mof_C 	C 	0.282	0.1475	0.2344	-0.936
Mof_H 	H 	0.2773	0.1202	0.2321	0.418
Mof_H 	H 	0.2921	0.1525	0.2598	-0.106
Mof_C 	C 	0.5899	0.1241	0.2257	0.022
Mof_H 	H 	0.6043	0.1062	0.243	0.045
Mof_H 	H 	0.6072	0.1316	0.204	0.006
Mof_N 	N 	0.5502	0.2203	0.2014	-0.107
Mof_N 	N 	0.4565	0.1724	0.1575	-0.172
Mof_N 	N 	0.3767	0.1503	0.1786	-0.126
Mof_N 	N 	0.4888	0.0993	0.191	-0.178
Mof_O 	O 	0.5782	0.1579	0.2467	-0.346
Mof_H 	H 	0.57	0.178	0.257	0.246
Mof_O 	O 	0.2485	0.1695	0.2325	-1.028
Mof_H 	H 	0.234	0.1887	0.227	0.403
Mof_H 	H 	0.2955	0.138	0.2567	0.323
Mof_H 	H 	0.2678	0.1701	0.2422	0.906
Mof_C 	C 	0.5874	0.1318	0.2147	0.05
Mof_H 	H 	0.6114	0.1172	0.2204	0.004
Mof_H 	H 	0.5913	0.1468	0.1906	0.03
Mof_O 	O 	0.2542	0.1203	0.2218	-0.192
Mof_H 	H 	0.257	0.1002	0.236	0.041
Mof_C 	C 	0.9672	0.2312	0.8247	-0.039
Mof_C 	C 	0.0288	0.1988	0.8552	-0.029
Mof_C 	C 	0.1502	0.1437	0.7948	-0.162
Mof_H 	H 	0.1434	0.1283	0.7731	0.076
Mof_C 	C 	0.1884	0.1582	0.7969	0.333
Mof_C 	C 	0.1977	0.1816	0.8274	-0.282
Mof_H 	H 	0.2228	0.1926	0.8296	0.158
Mof_C 	C 	0.1696	0.1888	0.8554	0.064
Mof_H 	H 	0.1754	0.2049	0.8769	0.013
Mof_C 	C 	0.1332	0.1725	0.8518	-0.043
Mof_H 	H 	0.1145	0.1771	0.8715	0.04
Mof_C 	C 	0.9801	0.1219	0.8006	0.036
Mof_H 	H 	0.9819	0.1494	0.8022	0.031
Mof_C 	C 	0.946	0.1046	0.7897	-0.03
Mof_C 	C 	0.9422	0.065	0.7887	0.002
Mof_H 	H 	0.9183	0.0533	0.7815	0.03
Mof_C 	C 	0.9721	0.0439	0.7979	-0.098
Mof_H 	H 	0.9701	0.0165	0.7971	0.07
Mof_C 	C 	0.0063	0.0607	0.8086	0.063
Mof_H 	H 	0.0273	0.0445	0.816	0.001
Mof_C 	C 	0.218	0.1475	0.7656	-0.936
Mof_H 	H 	0.2227	0.1202	0.7679	0.418
Mof_H 	H 	0.2079	0.1525	0.7402	-0.106
Mof_C 	C 	0.9101	0.1241	0.7743	0.022
Mof_H 	H 	0.8957	0.1062	0.757	0.046
Mof_H 	H 	0.8928	0.1316	0.796	0.006
Mof_N 	N 	0.9498	0.2203	0.7986	-0.108
Mof_N 	N 	0.0435	0.1724	0.8425	-0.172
Mof_N 	N 	0.1233	0.1503	0.8214	-0.126
Mof_N 	N 	0.0112	0.0993	0.809	-0.178
Mof_O 	O 	0.9218	0.1579	0.7533	-0.345
Mof_H 	H 	0.93	0.178	0.743	0.246
Mof_O 	O 	0.2515	0.1695	0.7675	-1.028
Mof_H 	H 	0.266	0.1887	0.773	0.403
Mof_H 	H 	0.2045	0.138	0.7433	0.323
Mof_H 	H 	0.2322	0.1701	0.7578	0.906
Mof_C 	C 	0.9126	0.1318	0.7853	0.05
Mof_H 	H 	0.8886	0.1172	0.7796	0.004
Mof_H 	H 	0.9087	0.1468	0.8094	0.03
Mof_O 	O 	0.2458	0.1203	0.7782	-0.192
Mof_H 	H 	0.243	0.1002	0.764	0.041
Mof_C 	C 	0.4672	0.7312	0.3247	-0.042
Mof_C 	C 	0.5288	0.6988	0.3552	-0.029
Mof_C 	C 	0.6502	0.6437	0.2948	-0.162
Mof_H 	H 	0.6434	0.6283	0.2731	0.075
Mof_C 	C 	0.6884	0.6582	0.2969	0.333
Mof_C 	C 	0.6977	0.6816	0.3274	-0.282
Mof_H 	H 	0.7228	0.6926	0.3296	0.158
Mof_C 	C 	0.6696	0.6888	0.3554	0.063
Mof_H 	H 	0.6754	0.7049	0.3769	0.013
Mof_C 	C 	0.6332	0.6725	0.3518	-0.043
Mof_H 	H 	0.6145	0.6771	0.3715	0.04
Mof_C 	C 	0.4801	0.6219	0.3006	0.034
Mof_H 	H 	0.4819	0.6494	0.3022	0.031
Mof_C 	C 	0.446	0.6046	0.2897	-0.032
Mof_C 	C 	0.4422	0.565	0.2887	0.007
Mof_H 	H 	0.4183	0.5533	0.2815	0.029
Mof_C 	C 	0.4721	0.5439	0.2979	-0.107
Mof_H 	H 	0.4701	0.5165	0.2971	0.073
Mof_C 	C 	0.5063	0.5607	0.3086	0.071
Mof_H 	H 	0.5273	0.5445	0.316	-0
Mof_C 	C 	0.718	0.6475	0.2656	-0.936
Mof_H 	H 	0.7227	0.6202	0.2679	0.418
Mof_H 	H 	0.7079	0.6525	0.2402	-0.106
Mof_C 	C 	0.4101	0.6241	0.2743	0.022
Mof_H 	H 	0.3957	0.6062	0.257	0.046
Mof_H 	H 	0.3928	0.6316	0.296	0.006
Mof_N 	N 	0.4498	0.7203	0.2986	-0.107
Mof_N 	N 	0.5435	0.6724	0.3425	-0.172
Mof_N 	N 	0.6233	0.6503	0.3214	-0.126
Mof_N 	N 	0.5112	0.5993	0.309	-0.178
Mof_O 	O 	0.4218	0.6579	0.2533	-0.345
Mof_H 	H 	0.43	0.678	0.243	0.246
Mof_O 	O 	0.7515	0.6695	0.2675	-1.028
Mof_H 	H 	0.766	0.6887	0.273	0.403
Mof_H 	H 	0.7045	0.638	0.2433	0.323
Mof_H 	H 	0.7322	0.6701	0.2578	0.906
Mof_C 	C 	0.4126	0.6318	0.2853	0.05
Mof_H 	H 	0.3886	0.6172	0.2796	0.004
Mof_H 	H 	0.4087	0.6468	0.3094	0.03
Mof_O 	O 	0.7458	0.6203	0.2782	-0.192
Mof_H 	H 	0.743	0.6002	0.264	0.041
Mof_C 	C 	0.5328	0.7688	0.3247	-0.042
Mof_C 	C 	0.4712	0.8012	0.3552	-0.029
Mof_C 	C 	0.3498	0.8563	0.2948	-0.162
Mof_H 	H 	0.3566	0.8717	0.2731	0.075
Mof_C 	C 	0.3116	0.8418	0.2969	0.333
Mof_C 	C 	0.3023	0.8184	0.3274	-0.282
Mof_H 	H 	0.2772	0.8074	0.3296	0.158
Mof_C 	C 	0.3304	0.8112	0.3554	0.063
Mof_H 	H 	0.3246	0.7951	0.3769	0.013
Mof_C 	C 	0.3668	0.8275	0.3518	-0.042
Mof_H 	H 	0.3855	0.8229	0.3715	0.04
Mof_C 	C 	0.5199	0.8781	0.3006	0.034
Mof_H 	H 	0.5181	0.8506	0.3022	0.031
Mof_C 	C 	0.554	0.8954	0.2897	-0.032
Mof_C 	C 	0.5578	0.935	0.2887	0.007
Mof_H 	H 	0.5817	0.9467	0.2815	0.029
Mof_C 	C 	0.5279	0.9561	0.2979	-0.107
Mof_H 	H 	0.5299	0.9835	0.2971	0.075
Mof_C 	C 	0.4937	0.9393	0.3086	0.071
Mof_H 	H 	0.4727	0.9555	0.316	0
Mof_C 	C 	0.282	0.8525	0.2656	-0.935
Mof_H 	H 	0.2773	0.8798	0.2679	0.418
Mof_H 	H 	0.2921	0.8475	0.2402	-0.106
Mof_C 	C 	0.5899	0.8759	0.2743	0.022
Mof_H 	H 	0.6043	0.8938	0.257	0.046
Mof_H 	H 	0.6072	0.8684	0.296	0.006
Mof_N 	N 	0.5502	0.7797	0.2986	-0.107
Mof_N 	N 	0.4565	0.8276	0.3425	-0.172
Mof_N 	N 	0.3767	0.8497	0.3214	-0.126
Mof_N 	N 	0.4888	0.9007	0.309	-0.178
Mof_O 	O 	0.5782	0.8421	0.2533	-0.345
Mof_H 	H 	0.57	0.822	0.243	0.246
Mof_O 	O 	0.2485	0.8305	0.2675	-1.028
Mof_H 	H 	0.234	0.8113	0.273	0.403
Mof_H 	H 	0.2955	0.862	0.2433	0.323
Mof_H 	H 	0.2678	0.8299	0.2578	0.906
Mof_C 	C 	0.5874	0.8682	0.2853	0.05
Mof_H 	H 	0.6114	0.8828	0.2796	0.004
Mof_H 	H 	0.5913	0.8532	0.3094	0.03
Mof_O 	O 	0.2542	0.8797	0.2782	-0.192
Mof_H 	H 	0.257	0.8998	0.264	0.041
Mof_C 	C 	0.0328	0.2688	0.8247	-0.043
Mof_C 	C 	0.9712	0.3012	0.8552	-0.026
Mof_C 	C 	0.8498	0.3563	0.7948	-0.162
Mof_H 	H 	0.8566	0.3717	0.7731	0.075
Mof_C 	C 	0.8116	0.3418	0.7969	0.333
Mof_C 	C 	0.8023	0.3184	0.8274	-0.282
Mof_H 	H 	0.7772	0.3074	0.8296	0.158
Mof_C 	C 	0.8304	0.3112	0.8554	0.063
Mof_H 	H 	0.8246	0.2951	0.8769	0.013
Mof_C 	C 	0.8668	0.3275	0.8518	-0.043
Mof_H 	H 	0.8855	0.3229	0.8715	0.04
Mof_C 	C 	0.0199	0.3781	0.8006	0.031
Mof_H 	H 	0.0181	0.3506	0.8022	0.031
Mof_C 	C 	0.054	0.3954	0.7897	-0.034
Mof_C 	C 	0.0578	0.435	0.7887	0.012
Mof_H 	H 	0.0817	0.4467	0.7815	0.027
Mof_C 	C 	0.0279	0.4561	0.7979	-0.117
Mof_H 	H 	0.0299	0.4835	0.7971	0.076
Mof_C 	C 	0.9937	0.4393	0.8086	0.079
Mof_H 	H 	0.9727	0.4555	0.816	-0.002
Mof_C 	C 	0.782	0.3525	0.7656	-0.935
Mof_H 	H 	0.7773	0.3798	0.7679	0.418
Mof_H 	H 	0.7921	0.3475	0.7402	-0.106
Mof_C 	C 	0.0899	0.3759	0.7743	0.022
Mof_H 	H 	0.1043	0.3938	0.757	0.045
Mof_H 	H 	0.1072	0.3684	0.796	0.006
Mof_N 	N 	0.0502	0.2797	0.7986	-0.108
Mof_N 	N 	0.9565	0.3276	0.8425	-0.172
Mof_N 	N 	0.8767	0.3497	0.8214	-0.126
Mof_N 	N 	0.9888	0.4007	0.809	-0.177
Mof_O 	O 	0.0782	0.3421	0.7533	-0.346
Mof_H 	H 	0.07	0.322	0.743	0.245
Mof_O 	O 	0.7485	0.3305	0.7675	-1.028
Mof_H 	H 	0.734	0.3113	0.773	0.403
Mof_H 	H 	0.7955	0.362	0.7433	0.323
Mof_H 	H 	0.7678	0.3299	0.7578	0.906
Mof_C 	C 	0.0874	0.3682	0.7853	0.051
Mof_H 	H 	0.1114	0.3828	0.7796	0.004
Mof_H 	H 	0.0913	0.3532	0.8094	0.03
Mof_O 	O 	0.7542	0.3797	0.7782	-0.192
Mof_H 	H 	0.757	0.3998	0.764	0.041
Mof_C 	C 	0.7688	0.3247	0.5328	-0.042
Mof_C 	C 	0.8012	0.3552	0.4712	-0.029
Mof_C 	C 	0.8563	0.2948	0.3498	-0.162
Mof_H 	H 	0.8717	0.2731	0.3566	0.075
Mof_C 	C 	0.8418	0.2969	0.3116	0.333
Mof_C 	C 	0.8184	0.3274	0.3023	-0.282
Mof_H 	H 	0.8074	0.3296	0.2772	0.158
Mof_C 	C 	0.8112	0.3554	0.3304	0.063
Mof_H 	H 	0.7951	0.3769	0.3246	0.013
Mof_C 	C 	0.8275	0.3518	0.3668	-0.042
Mof_H 	H 	0.8229	0.3715	0.3855	0.04
Mof_C 	C 	0.8781	0.3006	0.5199	0.034
Mof_H 	H 	0.8506	0.3022	0.5181	0.031
Mof_C 	C 	0.8954	0.2897	0.554	-0.032
Mof_C 	C 	0.935	0.2887	0.5578	0.007
Mof_H 	H 	0.9467	0.2815	0.5817	0.029
Mof_C 	C 	0.9561	0.2979	0.5279	-0.107
Mof_H 	H 	0.9835	0.2971	0.5299	0.075
Mof_C 	C 	0.9393	0.3086	0.4937	0.071
Mof_H 	H 	0.9555	0.316	0.4727	0
Mof_C 	C 	0.8525	0.2656	0.282	-0.935
Mof_H 	H 	0.8798	0.2679	0.2773	0.418
Mof_H 	H 	0.8475	0.2402	0.2921	-0.106
Mof_C 	C 	0.8759	0.2743	0.5899	0.022
Mof_H 	H 	0.8938	0.257	0.6043	0.046
Mof_H 	H 	0.8684	0.296	0.6072	0.006
Mof_N 	N 	0.7797	0.2986	0.5502	-0.107
Mof_N 	N 	0.8276	0.3425	0.4565	-0.172
Mof_N 	N 	0.8497	0.3214	0.3767	-0.126
Mof_N 	N 	0.9007	0.309	0.4888	-0.178
Mof_O 	O 	0.8421	0.2533	0.5782	-0.345
Mof_H 	H 	0.822	0.243	0.57	0.246
Mof_O 	O 	0.8305	0.2675	0.2485	-1.028
Mof_H 	H 	0.8113	0.273	0.234	0.403
Mof_H 	H 	0.862	0.2433	0.2955	0.323
Mof_H 	H 	0.8299	0.2578	0.2678	0.906
Mof_C 	C 	0.8682	0.2853	0.5874	0.05
Mof_H 	H 	0.8828	0.2796	0.6114	0.004
Mof_H 	H 	0.8532	0.3094	0.5913	0.03
Mof_O 	O 	0.8797	0.2782	0.2542	-0.192
Mof_H 	H 	0.8998	0.264	0.257	0.041
Mof_C 	C 	0.2688	0.8247	0.0328	-0.043
Mof_C 	C 	0.3012	0.8552	0.9712	-0.026
Mof_C 	C 	0.3563	0.7948	0.8498	-0.162
Mof_H 	H 	0.3717	0.7731	0.8566	0.075
Mof_C 	C 	0.3418	0.7969	0.8116	0.333
Mof_C 	C 	0.3184	0.8274	0.8023	-0.282
Mof_H 	H 	0.3074	0.8296	0.7772	0.158
Mof_C 	C 	0.3112	0.8554	0.8304	0.063
Mof_H 	H 	0.2951	0.8769	0.8246	0.013
Mof_C 	C 	0.3275	0.8518	0.8668	-0.043
Mof_H 	H 	0.3229	0.8715	0.8855	0.04
Mof_C 	C 	0.3781	0.8006	0.0199	0.031
Mof_H 	H 	0.3506	0.8022	0.0181	0.031
Mof_C 	C 	0.3954	0.7897	0.054	-0.034
Mof_C 	C 	0.435	0.7887	0.0578	0.012
Mof_H 	H 	0.4467	0.7815	0.0817	0.027
Mof_C 	C 	0.4561	0.7979	0.0279	-0.117
Mof_H 	H 	0.4835	0.7971	0.0299	0.076
Mof_C 	C 	0.4393	0.8086	0.9937	0.079
Mof_H 	H 	0.4555	0.816	0.9727	-0.002
Mof_C 	C 	0.3525	0.7656	0.782	-0.935
Mof_H 	H 	0.3798	0.7679	0.7773	0.418
Mof_H 	H 	0.3475	0.7402	0.7921	-0.106
Mof_C 	C 	0.3759	0.7743	0.0899	0.022
Mof_H 	H 	0.3938	0.757	0.1043	0.045
Mof_H 	H 	0.3684	0.796	0.1072	0.006
Mof_N 	N 	0.2797	0.7986	0.0502	-0.108
Mof_N 	N 	0.3276	0.8425	0.9565	-0.172
Mof_N 	N 	0.3497	0.8214	0.8767	-0.126
Mof_N 	N 	0.4007	0.809	0.9888	-0.177
Mof_O 	O 	0.3421	0.7533	0.0782	-0.346
Mof_H 	H 	0.322	0.743	0.07	0.245
Mof_O 	O 	0.3305	0.7675	0.7485	-1.028
Mof_H 	H 	0.3113	0.773	0.734	0.403
Mof_H 	H 	0.362	0.7433	0.7955	0.323
Mof_H 	H 	0.3299	0.7578	0.7678	0.906
Mof_C 	C 	0.3682	0.7853	0.0874	0.051
Mof_H 	H 	0.3828	0.7796	0.1114	0.004
Mof_H 	H 	0.3532	0.8094	0.0913	0.03
Mof_O 	O 	0.3797	0.7782	0.7542	-0.192
Mof_H 	H 	0.3998	0.764	0.757	0.041
Mof_C 	C 	0.2312	0.8247	0.9672	-0.039
Mof_C 	C 	0.1988	0.8552	0.0288	-0.029
Mof_C 	C 	0.1437	0.7948	0.1502	-0.162
Mof_H 	H 	0.1283	0.7731	0.1434	0.076
Mof_C 	C 	0.1582	0.7969	0.1884	0.333
Mof_C 	C 	0.1816	0.8274	0.1977	-0.282
Mof_H 	H 	0.1926	0.8296	0.2228	0.158
Mof_C 	C 	0.1888	0.8554	0.1696	0.064
Mof_H 	H 	0.2049	0.8769	0.1754	0.013
Mof_C 	C 	0.1725	0.8518	0.1332	-0.043
Mof_H 	H 	0.1771	0.8715	0.1145	0.04
Mof_C 	C 	0.1219	0.8006	0.9801	0.036
Mof_H 	H 	0.1494	0.8022	0.9819	0.031
Mof_C 	C 	0.1046	0.7897	0.946	-0.03
Mof_C 	C 	0.065	0.7887	0.9422	0.002
Mof_H 	H 	0.0533	0.7815	0.9183	0.03
Mof_C 	C 	0.0439	0.7979	0.9721	-0.098
Mof_H 	H 	0.0165	0.7971	0.9701	0.07
Mof_C 	C 	0.0607	0.8086	0.0063	0.063
Mof_H 	H 	0.0445	0.816	0.0273	0.001
Mof_C 	C 	0.1475	0.7656	0.218	-0.936
Mof_H 	H 	0.1202	0.7679	0.2227	0.418
Mof_H 	H 	0.1525	0.7402	0.2079	-0.106
Mof_C 	C 	0.1241	0.7743	0.9101	0.022
Mof_H 	H 	0.1062	0.757	0.8957	0.046
Mof_H 	H 	0.1316	0.796	0.8928	0.006
Mof_N 	N 	0.2203	0.7986	0.9498	-0.108
Mof_N 	N 	0.1724	0.8425	0.0435	-0.172
Mof_N 	N 	0.1503	0.8214	0.1233	-0.126
Mof_N 	N 	0.0993	0.809	0.0112	-0.178
Mof_O 	O 	0.1579	0.7533	0.9218	-0.345
Mof_H 	H 	0.178	0.743	0.93	0.246
Mof_O 	O 	0.1695	0.7675	0.2515	-1.028
Mof_H 	H 	0.1887	0.773	0.266	0.403
Mof_H 	H 	0.138	0.7433	0.2045	0.323
Mof_H 	H 	0.1701	0.7578	0.2322	0.906
Mof_C 	C 	0.1318	0.7853	0.9126	0.05
Mof_H 	H 	0.1172	0.7796	0.8886	0.004
Mof_H 	H 	0.1468	0.8094	0.9087	0.03
Mof_O 	O 	0.1203	0.7782	0.2458	-0.192
Mof_H 	H 	0.1002	0.764	0.243	0.041
Mof_C 	C 	0.7312	0.3247	0.4672	-0.042
Mof_C 	C 	0.6988	0.3552	0.5288	-0.029
Mof_C 	C 	0.6437	0.2948	0.6502	-0.162
Mof_H 	H 	0.6283	0.2731	0.6434	0.075
Mof_C 	C 	0.6582	0.2969	0.6884	0.333
Mof_C 	C 	0.6816	0.3274	0.6977	-0.282
Mof_H 	H 	0.6926	0.3296	0.7228	0.158
Mof_C 	C 	0.6888	0.3554	0.6696	0.063
Mof_H 	H 	0.7049	0.3769	0.6754	0.013
Mof_C 	C 	0.6725	0.3518	0.6332	-0.043
Mof_H 	H 	0.6771	0.3715	0.6145	0.04
Mof_C 	C 	0.6219	0.3006	0.4801	0.034
Mof_H 	H 	0.6494	0.3022	0.4819	0.031
Mof_C 	C 	0.6046	0.2897	0.446	-0.032
Mof_C 	C 	0.565	0.2887	0.4422	0.007
Mof_H 	H 	0.5533	0.2815	0.4183	0.029
Mof_C 	C 	0.5439	0.2979	0.4721	-0.107
Mof_H 	H 	0.5165	0.2971	0.4701	0.073
Mof_C 	C 	0.5607	0.3086	0.5063	0.071
Mof_H 	H 	0.5445	0.316	0.5273	-0
Mof_C 	C 	0.6475	0.2656	0.718	-0.936
Mof_H 	H 	0.6202	0.2679	0.7227	0.418
Mof_H 	H 	0.6525	0.2402	0.7079	-0.106
Mof_C 	C 	0.6241	0.2743	0.4101	0.022
Mof_H 	H 	0.6062	0.257	0.3957	0.046
Mof_H 	H 	0.6316	0.296	0.3928	0.006
Mof_N 	N 	0.7203	0.2986	0.4498	-0.107
Mof_N 	N 	0.6724	0.3425	0.5435	-0.172
Mof_N 	N 	0.6503	0.3214	0.6233	-0.126
Mof_N 	N 	0.5993	0.309	0.5112	-0.178
Mof_O 	O 	0.6579	0.2533	0.4218	-0.345
Mof_H 	H 	0.678	0.243	0.43	0.246
Mof_O 	O 	0.6695	0.2675	0.7515	-1.028
Mof_H 	H 	0.6887	0.273	0.766	0.403
Mof_H 	H 	0.638	0.2433	0.7045	0.323
Mof_H 	H 	0.6701	0.2578	0.7322	0.906
Mof_C 	C 	0.6318	0.2853	0.4126	0.05
Mof_H 	H 	0.6172	0.2796	0.3886	0.004
Mof_H 	H 	0.6468	0.3094	0.4087	0.03
Mof_O 	O 	0.6203	0.2782	0.7458	-0.192
Mof_H 	H 	0.6002	0.264	0.743	0.041
Mof_C 	C 	0.7312	0.6753	0.0328	-0.043
Mof_C 	C 	0.6988	0.6448	0.9712	-0.026
Mof_C 	C 	0.6437	0.7052	0.8498	-0.162
Mof_H 	H 	0.6283	0.7269	0.8566	0.075
Mof_C 	C 	0.6582	0.7031	0.8116	0.333
Mof_C 	C 	0.6816	0.6726	0.8023	-0.282
Mof_H 	H 	0.6926	0.6704	0.7772	0.158
Mof_C 	C 	0.6888	0.6446	0.8304	0.063
Mof_H 	H 	0.7049	0.6231	0.8246	0.013
Mof_C 	C 	0.6725	0.6482	0.8668	-0.042
Mof_H 	H 	0.6771	0.6285	0.8855	0.04
Mof_C 	C 	0.6219	0.6994	0.0199	0.031
Mof_H 	H 	0.6494	0.6978	0.0181	0.031
Mof_C 	C 	0.6046	0.7103	0.054	-0.034
Mof_C 	C 	0.565	0.7113	0.0578	0.012
Mof_H 	H 	0.5533	0.7185	0.0817	0.027
Mof_C 	C 	0.5439	0.7021	0.0279	-0.117
Mof_H 	H 	0.5165	0.7029	0.0299	0.076
Mof_C 	C 	0.5607	0.6914	0.9937	0.079
Mof_H 	H 	0.5445	0.684	0.9727	-0.002
Mof_C 	C 	0.6475	0.7344	0.782	-0.935
Mof_H 	H 	0.6202	0.7321	0.7773	0.418
Mof_H 	H 	0.6525	0.7598	0.7921	-0.106
Mof_C 	C 	0.6241	0.7257	0.0899	0.022
Mof_H 	H 	0.6062	0.743	0.1043	0.045
Mof_H 	H 	0.6316	0.704	0.1072	0.006
Mof_N 	N 	0.7203	0.7014	0.0502	-0.108
Mof_N 	N 	0.6724	0.6575	0.9565	-0.172
Mof_N 	N 	0.6503	0.6786	0.8767	-0.126
Mof_N 	N 	0.5993	0.691	0.9888	-0.177
Mof_O 	O 	0.6579	0.7467	0.0782	-0.346
Mof_H 	H 	0.678	0.757	0.07	0.245
Mof_O 	O 	0.6695	0.7325	0.7485	-1.028
Mof_H 	H 	0.6887	0.727	0.734	0.403
Mof_H 	H 	0.638	0.7567	0.7955	0.323
Mof_H 	H 	0.6701	0.7422	0.7678	0.906
Mof_C 	C 	0.6318	0.7147	0.0874	0.051
Mof_H 	H 	0.6172	0.7204	0.1114	0.004
Mof_H 	H 	0.6468	0.6906	0.0913	0.03
Mof_O 	O 	0.6203	0.7218	0.7542	-0.192
Mof_H 	H 	0.6002	0.736	0.757	0.041
Mof_C 	C 	0.2312	0.1753	0.5328	-0.042
Mof_C 	C 	0.1988	0.1448	0.4712	-0.029
Mof_C 	C 	0.1437	0.2052	0.3498	-0.162
Mof_H 	H 	0.1283	0.2269	0.3566	0.075
Mof_C 	C 	0.1582	0.2031	0.3116	0.333
Mof_C 	C 	0.1816	0.1726	0.3023	-0.282
Mof_H 	H 	0.1926	0.1704	0.2772	0.158
Mof_C 	C 	0.1888	0.1446	0.3304	0.063
Mof_H 	H 	0.2049	0.1231	0.3246	0.013
Mof_C 	C 	0.1725	0.1482	0.3668	-0.042
Mof_H 	H 	0.1771	0.1285	0.3855	0.04
Mof_C 	C 	0.1219	0.1994	0.5199	0.034
Mof_H 	H 	0.1494	0.1978	0.5181	0.031
Mof_C 	C 	0.1046	0.2103	0.554	-0.032
Mof_C 	C 	0.065	0.2113	0.5578	0.007
Mof_H 	H 	0.0533	0.2185	0.5817	0.028
Mof_C 	C 	0.0439	0.2021	0.5279	-0.107
Mof_H 	H 	0.0165	0.2029	0.5299	0.072
Mof_C 	C 	0.0607	0.1914	0.4937	0.071
Mof_H 	H 	0.0445	0.184	0.4727	-0.001
Mof_C 	C 	0.1475	0.2344	0.282	-0.936
Mof_H 	H 	0.1202	0.2321	0.2773	0.418
Mof_H 	H 	0.1525	0.2598	0.2921	-0.106
Mof_C 	C 	0.1241	0.2257	0.5899	0.022
Mof_H 	H 	0.1062	0.243	0.6043	0.045
Mof_H 	H 	0.1316	0.204	0.6072	0.006
Mof_N 	N 	0.2203	0.2014	0.5502	-0.107
Mof_N 	N 	0.1724	0.1575	0.4565	-0.172
Mof_N 	N 	0.1503	0.1786	0.3767	-0.126
Mof_N 	N 	0.0993	0.191	0.4888	-0.178
Mof_O 	O 	0.1579	0.2467	0.5782	-0.346
Mof_H 	H 	0.178	0.257	0.57	0.246
Mof_O 	O 	0.1695	0.2325	0.2485	-1.028
Mof_H 	H 	0.1887	0.227	0.234	0.403
Mof_H 	H 	0.138	0.2567	0.2955	0.323
Mof_H 	H 	0.1701	0.2422	0.2678	0.906
Mof_C 	C 	0.1318	0.2147	0.5874	0.05
Mof_H 	H 	0.1172	0.2204	0.6114	0.004
Mof_H 	H 	0.1468	0.1906	0.5913	0.03
Mof_O 	O 	0.1203	0.2218	0.2542	-0.192
Mof_H 	H 	0.1002	0.236	0.257	0.041
Mof_C 	C 	0.2688	0.1753	0.4672	-0.042
Mof_C 	C 	0.3012	0.1448	0.5288	-0.029
Mof_C 	C 	0.3563	0.2052	0.6502	-0.162
Mof_H 	H 	0.3717	0.2269	0.6434	0.075
Mof_C 	C 	0.3418	0.2031	0.6884	0.333
Mof_C 	C 	0.3184	0.1726	0.6977	-0.282
Mof_H 	H 	0.3074	0.1704	0.7228	0.158
Mof_C 	C 	0.3112	0.1446	0.6696	0.063
Mof_H 	H 	0.2951	0.1231	0.6754	0.013
Mof_C 	C 	0.3275	0.1482	0.6332	-0.042
Mof_H 	H 	0.3229	0.1285	0.6145	0.04
Mof_C 	C 	0.3781	0.1994	0.4801	0.034
Mof_H 	H 	0.3506	0.1978	0.4819	0.031
Mof_C 	C 	0.3954	0.2103	0.446	-0.032
Mof_C 	C 	0.435	0.2113	0.4422	0.007
Mof_H 	H 	0.4467	0.2185	0.4183	0.029
Mof_C 	C 	0.4561	0.2021	0.4721	-0.107
Mof_H 	H 	0.4835	0.2029	0.4701	0.073
Mof_C 	C 	0.4393	0.1914	0.5063	0.071
Mof_H 	H 	0.4555	0.184	0.5273	-0
Mof_C 	C 	0.3525	0.2344	0.718	-0.936
Mof_H 	H 	0.3798	0.2321	0.7227	0.418
Mof_H 	H 	0.3475	0.2598	0.7079	-0.106
Mof_C 	C 	0.3759	0.2257	0.4101	0.022
Mof_H 	H 	0.3938	0.243	0.3957	0.046
Mof_H 	H 	0.3684	0.204	0.3928	0.006
Mof_N 	N 	0.2797	0.2014	0.4498	-0.107
Mof_N 	N 	0.3276	0.1575	0.5435	-0.172
Mof_N 	N 	0.3497	0.1786	0.6233	-0.126
Mof_N 	N 	0.4007	0.191	0.5112	-0.178
Mof_O 	O 	0.3421	0.2467	0.4218	-0.345
Mof_H 	H 	0.322	0.257	0.43	0.246
Mof_O 	O 	0.3305	0.2325	0.7515	-1.028
Mof_H 	H 	0.3113	0.227	0.766	0.403
Mof_H 	H 	0.362	0.2567	0.7045	0.323
Mof_H 	H 	0.3299	0.2422	0.7322	0.906
Mof_C 	C 	0.3682	0.2147	0.4126	0.05
Mof_H 	H 	0.3828	0.2204	0.3886	0.004
Mof_H 	H 	0.3532	0.1906	0.4087	0.03
Mof_O 	O 	0.3797	0.2218	0.7458	-0.192
Mof_H 	H 	0.3998	0.236	0.743	0.041
Mof_C 	C 	0.7688	0.6753	0.9672	-0.039
Mof_C 	C 	0.8012	0.6448	0.0288	-0.029
Mof_C 	C 	0.8563	0.7052	0.1502	-0.162
Mof_H 	H 	0.8717	0.7269	0.1434	0.075
Mof_C 	C 	0.8418	0.7031	0.1884	0.333
Mof_C 	C 	0.8184	0.6726	0.1977	-0.282
Mof_H 	H 	0.8074	0.6704	0.2228	0.158
Mof_C 	C 	0.8112	0.6446	0.1696	0.063
Mof_H 	H 	0.7951	0.6231	0.1754	0.013
Mof_C 	C 	0.8275	0.6482	0.1332	-0.043
Mof_H 	H 	0.8229	0.6285	0.1145	0.04
Mof_C 	C 	0.8781	0.6994	0.9801	0.036
Mof_H 	H 	0.8506	0.6978	0.9819	0.031
Mof_C 	C 	0.8954	0.7103	0.946	-0.03
Mof_C 	C 	0.935	0.7113	0.9422	0.002
Mof_H 	H 	0.9467	0.7185	0.9183	0.031
Mof_C 	C 	0.9561	0.7021	0.9721	-0.098
Mof_H 	H 	0.9835	0.7029	0.9701	0.072
Mof_C 	C 	0.9393	0.6914	0.0063	0.063
Mof_H 	H 	0.9555	0.684	0.0273	0.003
Mof_C 	C 	0.8525	0.7344	0.218	-0.935
Mof_H 	H 	0.8798	0.7321	0.2227	0.418
Mof_H 	H 	0.8475	0.7598	0.2079	-0.106
Mof_C 	C 	0.8759	0.7257	0.9101	0.022
Mof_H 	H 	0.8938	0.743	0.8957	0.046
Mof_H 	H 	0.8684	0.704	0.8928	0.006
Mof_N 	N 	0.7797	0.7014	0.9498	-0.108
Mof_N 	N 	0.8276	0.6575	0.0435	-0.172
Mof_N 	N 	0.8497	0.6786	0.1233	-0.126
Mof_N 	N 	0.9007	0.691	0.0112	-0.178
Mof_O 	O 	0.8421	0.7467	0.9218	-0.345
Mof_H 	H 	0.822	0.757	0.93	0.246
Mof_O 	O 	0.8305	0.7325	0.2515	-1.028
Mof_H 	H 	0.8113	0.727	0.266	0.403
Mof_H 	H 	0.862	0.7567	0.2045	0.323
Mof_H 	H 	0.8299	0.7422	0.2322	0.906
Mof_C 	C 	0.8682	0.7147	0.9126	0.05
Mof_H 	H 	0.8828	0.7204	0.8886	0.004
Mof_H 	H 	0.8532	0.6906	0.9087	0.03
Mof_O 	O 	0.8797	0.7218	0.2458	-0.192
Mof_H 	H 	0.8998	0.736	0.243	0.041
Mof_C 	C 	0.8247	0.9672	0.2312	-0.039
Mof_C 	C 	0.8552	0.0288	0.1988	-0.029
Mof_C 	C 	0.7948	0.1502	0.1437	-0.162
Mof_H 	H 	0.7731	0.1434	0.1283	0.076
Mof_C 	C 	0.7969	0.1884	0.1582	0.333
Mof_C 	C 	0.8274	0.1977	0.1816	-0.282
Mof_H 	H 	0.8296	0.2228	0.1926	0.158
Mof_C 	C 	0.8554	0.1696	0.1888	0.064
Mof_H 	H 	0.8769	0.1754	0.2049	0.013
Mof_C 	C 	0.8518	0.1332	0.1725	-0.043
Mof_H 	H 	0.8715	0.1145	0.1771	0.04
Mof_C 	C 	0.8006	0.9801	0.1219	0.036
Mof_H 	H 	0.8022	0.9819	0.1494	0.031
Mof_C 	C 	0.7897	0.946	0.1046	-0.03
Mof_C 	C 	0.7887	0.9422	0.065	0.002
Mof_H 	H 	0.7815	0.9183	0.0533	0.03
Mof_C 	C 	0.7979	0.9721	0.0439	-0.098
Mof_H 	H 	0.7971	0.9701	0.0165	0.07
Mof_C 	C 	0.8086	0.0063	0.0607	0.063
Mof_H 	H 	0.816	0.0273	0.0445	0.001
Mof_C 	C 	0.7656	0.218	0.1475	-0.936
Mof_H 	H 	0.7679	0.2227	0.1202	0.418
Mof_H 	H 	0.7402	0.2079	0.1525	-0.106
Mof_C 	C 	0.7743	0.9101	0.1241	0.022
Mof_H 	H 	0.757	0.8957	0.1062	0.046
Mof_H 	H 	0.796	0.8928	0.1316	0.006
Mof_N 	N 	0.7986	0.9498	0.2203	-0.108
Mof_N 	N 	0.8425	0.0435	0.1724	-0.172
Mof_N 	N 	0.8214	0.1233	0.1503	-0.126
Mof_N 	N 	0.809	0.0112	0.0993	-0.178
Mof_O 	O 	0.7533	0.9218	0.1579	-0.345
Mof_H 	H 	0.743	0.93	0.178	0.246
Mof_O 	O 	0.7675	0.2515	0.1695	-1.028
Mof_H 	H 	0.773	0.266	0.1887	0.403
Mof_H 	H 	0.7433	0.2045	0.138	0.323
Mof_H 	H 	0.7578	0.2322	0.1701	0.906
Mof_C 	C 	0.7853	0.9126	0.1318	0.05
Mof_H 	H 	0.7796	0.8886	0.1172	0.004
Mof_H 	H 	0.8094	0.9087	0.1468	0.03
Mof_O 	O 	0.7782	0.2458	0.1203	-0.192
Mof_H 	H 	0.764	0.243	0.1002	0.041
Mof_C 	C 	0.3247	0.4672	0.7312	-0.042
Mof_C 	C 	0.3552	0.5288	0.6988	-0.029
Mof_C 	C 	0.2948	0.6502	0.6437	-0.162
Mof_H 	H 	0.2731	0.6434	0.6283	0.075
Mof_C 	C 	0.2969	0.6884	0.6582	0.333
Mof_C 	C 	0.3274	0.6977	0.6816	-0.282
Mof_H 	H 	0.3296	0.7228	0.6926	0.158
Mof_C 	C 	0.3554	0.6696	0.6888	0.063
Mof_H 	H 	0.3769	0.6754	0.7049	0.013
Mof_C 	C 	0.3518	0.6332	0.6725	-0.043
Mof_H 	H 	0.3715	0.6145	0.6771	0.04
Mof_C 	C 	0.3006	0.4801	0.6219	0.034
Mof_H 	H 	0.3022	0.4819	0.6494	0.031
Mof_C 	C 	0.2897	0.446	0.6046	-0.032
Mof_C 	C 	0.2887	0.4422	0.565	0.007
Mof_H 	H 	0.2815	0.4183	0.5533	0.029
Mof_C 	C 	0.2979	0.4721	0.5439	-0.107
Mof_H 	H 	0.2971	0.4701	0.5165	0.073
Mof_C 	C 	0.3086	0.5063	0.5607	0.071
Mof_H 	H 	0.316	0.5273	0.5445	-0
Mof_C 	C 	0.2656	0.718	0.6475	-0.936
Mof_H 	H 	0.2679	0.7227	0.6202	0.418
Mof_H 	H 	0.2402	0.7079	0.6525	-0.106
Mof_C 	C 	0.2743	0.4101	0.6241	0.022
Mof_H 	H 	0.257	0.3957	0.6062	0.046
Mof_H 	H 	0.296	0.3928	0.6316	0.006
Mof_N 	N 	0.2986	0.4498	0.7203	-0.107
Mof_N 	N 	0.3425	0.5435	0.6724	-0.172
Mof_N 	N 	0.3214	0.6233	0.6503	-0.126
Mof_N 	N 	0.309	0.5112	0.5993	-0.178
Mof_O 	O 	0.2533	0.4218	0.6579	-0.345
Mof_H 	H 	0.243	0.43	0.678	0.246
Mof_O 	O 	0.2675	0.7515	0.6695	-1.028
Mof_H 	H 	0.273	0.766	0.6887	0.403
Mof_H 	H 	0.2433	0.7045	0.638	0.323
Mof_H 	H 	0.2578	0.7322	0.6701	0.906
Mof_C 	C 	0.2853	0.4126	0.6318	0.05
Mof_H 	H 	0.2796	0.3886	0.6172	0.004
Mof_H 	H 	0.3094	0.4087	0.6468	0.03
Mof_O 	O 	0.2782	0.7458	0.6203	-0.192
Mof_H 	H 	0.264	0.743	0.6002	0.041
Mof_C 	C 	0.3247	0.5328	0.7688	-0.042
Mof_C 	C 	0.3552	0.4712	0.8012	-0.029
Mof_C 	C 	0.2948	0.3498	0.8563	-0.162
Mof_H 	H 	0.2731	0.3566	0.8717	0.075
Mof_C 	C 	0.2969	0.3116	0.8418	0.333
Mof_C 	C 	0.3274	0.3023	0.8184	-0.282
Mof_H 	H 	0.3296	0.2772	0.8074	0.158
Mof_C 	C 	0.3554	0.3304	0.8112	0.063
Mof_H 	H 	0.3769	0.3246	0.7951	0.013
Mof_C 	C 	0.3518	0.3668	0.8275	-0.042
Mof_H 	H 	0.3715	0.3855	0.8229	0.04
Mof_C 	C 	0.3006	0.5199	0.8781	0.034
Mof_H 	H 	0.3022	0.5181	0.8506	0.031
Mof_C 	C 	0.2897	0.554	0.8954	-0.032
Mof_C 	C 	0.2887	0.5578	0.935	0.007
Mof_H 	H 	0.2815	0.5817	0.9467	0.029
Mof_C 	C 	0.2979	0.5279	0.9561	-0.107
Mof_H 	H 	0.2971	0.5299	0.9835	0.075
Mof_C 	C 	0.3086	0.4937	0.9393	0.071
Mof_H 	H 	0.316	0.4727	0.9555	0
Mof_C 	C 	0.2656	0.282	0.8525	-0.935
Mof_H 	H 	0.2679	0.2773	0.8798	0.418
Mof_H 	H 	0.2402	0.2921	0.8475	-0.106
Mof_C 	C 	0.2743	0.5899	0.8759	0.022
Mof_H 	H 	0.257	0.6043	0.8938	0.046
Mof_H 	H 	0.296	0.6072	0.8684	0.006
Mof_N 	N 	0.2986	0.5502	0.7797	-0.107
Mof_N 	N 	0.3425	0.4565	0.8276	-0.172
Mof_N 	N 	0.3214	0.3767	0.8497	-0.126
Mof_N 	N 	0.309	0.4888	0.9007	-0.178
Mof_O 	O 	0.2533	0.5782	0.8421	-0.345
Mof_H 	H 	0.243	0.57	0.822	0.246
Mof_O 	O 	0.2675	0.2485	0.8305	-1.028
Mof_H 	H 	0.273	0.234	0.8113	0.403
Mof_H 	H 	0.2433	0.2955	0.862	0.323
Mof_H 	H 	0.2578	0.2678	0.8299	0.906
Mof_C 	C 	0.2853	0.5874	0.8682	0.05
Mof_H 	H 	0.2796	0.6114	0.8828	0.004
Mof_H 	H 	0.3094	0.5913	0.8532	0.03
Mof_O 	O 	0.2782	0.2542	0.8797	-0.192
Mof_H 	H 	0.264	0.257	0.8998	0.041
Mof_C 	C 	0.8247	0.0328	0.2688	-0.043
Mof_C 	C 	0.8552	0.9712	0.3012	-0.026
Mof_C 	C 	0.7948	0.8498	0.3563	-0.162
Mof_H 	H 	0.7731	0.8566	0.3717	0.075
Mof_C 	C 	0.7969	0.8116	0.3418	0.333
Mof_C 	C 	0.8274	0.8023	0.3184	-0.282
Mof_H 	H 	0.8296	0.7772	0.3074	0.158
Mof_C 	C 	0.8554	0.8304	0.3112	0.063
Mof_H 	H 	0.8769	0.8246	0.2951	0.013
Mof_C 	C 	0.8518	0.8668	0.3275	-0.043
Mof_H 	H 	0.8715	0.8855	0.3229	0.04
Mof_C 	C 	0.8006	0.0199	0.3781	0.031
Mof_H 	H 	0.8022	0.0181	0.3506	0.031
Mof_C 	C 	0.7897	0.054	0.3954	-0.034
Mof_C 	C 	0.7887	0.0578	0.435	0.012
Mof_H 	H 	0.7815	0.0817	0.4467	0.027
Mof_C 	C 	0.7979	0.0279	0.4561	-0.117
Mof_H 	H 	0.7971	0.0299	0.4835	0.076
Mof_C 	C 	0.8086	0.9937	0.4393	0.079
Mof_H 	H 	0.816	0.9727	0.4555	-0.002
Mof_C 	C 	0.7656	0.782	0.3525	-0.935
Mof_H 	H 	0.7679	0.7773	0.3798	0.418
Mof_H 	H 	0.7402	0.7921	0.3475	-0.106
Mof_C 	C 	0.7743	0.0899	0.3759	0.022
Mof_H 	H 	0.757	0.1043	0.3938	0.045
Mof_H 	H 	0.796	0.1072	0.3684	0.006
Mof_N 	N 	0.7986	0.0502	0.2797	-0.108
Mof_N 	N 	0.8425	0.9565	0.3276	-0.172
Mof_N 	N 	0.8214	0.8767	0.3497	-0.126
Mof_N 	N 	0.809	0.9888	0.4007	-0.177
Mof_O 	O 	0.7533	0.0782	0.3421	-0.346
Mof_H 	H 	0.743	0.07	0.322	0.245
Mof_O 	O 	0.7675	0.7485	0.3305	-1.028
Mof_H 	H 	0.773	0.734	0.3113	0.403
Mof_H 	H 	0.7433	0.7955	0.362	0.323
Mof_H 	H 	0.7578	0.7678	0.3299	0.906
Mof_C 	C 	0.7853	0.0874	0.3682	0.051
Mof_H 	H 	0.7796	0.1114	0.3828	0.004
Mof_H 	H 	0.8094	0.0913	0.3532	0.03
Mof_O 	O 	0.7782	0.7542	0.3797	-0.192
Mof_H 	H 	0.764	0.757	0.3998	0.041
Mof_C 	C 	0.1753	0.4672	0.2688	-0.042
Mof_C 	C 	0.1448	0.5288	0.3012	-0.029
Mof_C 	C 	0.2052	0.6502	0.3563	-0.162
Mof_H 	H 	0.2269	0.6434	0.3717	0.075
Mof_C 	C 	0.2031	0.6884	0.3418	0.333
Mof_C 	C 	0.1726	0.6977	0.3184	-0.282
Mof_H 	H 	0.1704	0.7228	0.3074	0.158
Mof_C 	C 	0.1446	0.6696	0.3112	0.063
Mof_H 	H 	0.1231	0.6754	0.2951	0.013
Mof_C 	C 	0.1482	0.6332	0.3275	-0.042
Mof_H 	H 	0.1285	0.6145	0.3229	0.04
Mof_C 	C 	0.1994	0.4801	0.3781	0.034
Mof_H 	H 	0.1978	0.4819	0.3506	0.031
Mof_C 	C 	0.2103	0.446	0.3954	-0.032
Mof_C 	C 	0.2113	0.4422	0.435	0.007
Mof_H 	H 	0.2185	0.4183	0.4467	0.029
Mof_C 	C 	0.2021	0.4721	0.4561	-0.107
Mof_H 	H 	0.2029	0.4701	0.4835	0.073
Mof_C 	C 	0.1914	0.5063	0.4393	0.071
Mof_H 	H 	0.184	0.5273	0.4555	-0
Mof_C 	C 	0.2344	0.718	0.3525	-0.936
Mof_H 	H 	0.2321	0.7227	0.3798	0.418
Mof_H 	H 	0.2598	0.7079	0.3475	-0.106
Mof_C 	C 	0.2257	0.4101	0.3759	0.022
Mof_H 	H 	0.243	0.3957	0.3938	0.046
Mof_H 	H 	0.204	0.3928	0.3684	0.006
Mof_N 	N 	0.2014	0.4498	0.2797	-0.107
Mof_N 	N 	0.1575	0.5435	0.3276	-0.172
Mof_N 	N 	0.1786	0.6233	0.3497	-0.126
Mof_N 	N 	0.191	0.5112	0.4007	-0.178
Mof_O 	O 	0.2467	0.4218	0.3421	-0.345
Mof_H 	H 	0.257	0.43	0.322	0.246
Mof_O 	O 	0.2325	0.7515	0.3305	-1.028
Mof_H 	H 	0.227	0.766	0.3113	0.403
Mof_H 	H 	0.2567	0.7045	0.362	0.323
Mof_H 	H 	0.2422	0.7322	0.3299	0.906
Mof_C 	C 	0.2147	0.4126	0.3682	0.05
Mof_H 	H 	0.2204	0.3886	0.3828	0.004
Mof_H 	H 	0.1906	0.4087	0.3532	0.03
Mof_O 	O 	0.2218	0.7458	0.3797	-0.192
Mof_H 	H 	0.236	0.743	0.3998	0.041
Mof_C 	C 	0.6753	0.9672	0.7688	-0.039
Mof_C 	C 	0.6448	0.0288	0.8012	-0.029
Mof_C 	C 	0.7052	0.1502	0.8563	-0.162
Mof_H 	H 	0.7269	0.1434	0.8717	0.075
Mof_C 	C 	0.7031	0.1884	0.8418	0.333
Mof_C 	C 	0.6726	0.1977	0.8184	-0.282
Mof_H 	H 	0.6704	0.2228	0.8074	0.158
Mof_C 	C 	0.6446	0.1696	0.8112	0.063
Mof_H 	H 	0.6231	0.1754	0.7951	0.013
Mof_C 	C 	0.6482	0.1332	0.8275	-0.043
Mof_H 	H 	0.6285	0.1145	0.8229	0.04
Mof_C 	C 	0.6994	0.9801	0.8781	0.036
Mof_H 	H 	0.6978	0.9819	0.8506	0.031
Mof_C 	C 	0.7103	0.946	0.8954	-0.03
Mof_C 	C 	0.7113	0.9422	0.935	0.002
Mof_H 	H 	0.7185	0.9183	0.9467	0.031
Mof_C 	C 	0.7021	0.9721	0.9561	-0.098
Mof_H 	H 	0.7029	0.9701	0.9835	0.072
Mof_C 	C 	0.6914	0.0063	0.9393	0.063
Mof_H 	H 	0.684	0.0273	0.9555	0.003
Mof_C 	C 	0.7344	0.218	0.8525	-0.935
Mof_H 	H 	0.7321	0.2227	0.8798	0.418
Mof_H 	H 	0.7598	0.2079	0.8475	-0.106
Mof_C 	C 	0.7257	0.9101	0.8759	0.022
Mof_H 	H 	0.743	0.8957	0.8938	0.046
Mof_H 	H 	0.704	0.8928	0.8684	0.006
Mof_N 	N 	0.7014	0.9498	0.7797	-0.108
Mof_N 	N 	0.6575	0.0435	0.8276	-0.172
Mof_N 	N 	0.6786	0.1233	0.8497	-0.126
Mof_N 	N 	0.691	0.0112	0.9007	-0.178
Mof_O 	O 	0.7467	0.9218	0.8421	-0.345
Mof_H 	H 	0.757	0.93	0.822	0.246
Mof_O 	O 	0.7325	0.2515	0.8305	-1.028
Mof_H 	H 	0.727	0.266	0.8113	0.403
Mof_H 	H 	0.7567	0.2045	0.862	0.323
Mof_H 	H 	0.7422	0.2322	0.8299	0.906
Mof_C 	C 	0.7147	0.9126	0.8682	0.05
Mof_H 	H 	0.7204	0.8886	0.8828	0.004
Mof_H 	H 	0.6906	0.9087	0.8532	0.03
Mof_O 	O 	0.7218	0.2458	0.8797	-0.192
Mof_H 	H 	0.736	0.243	0.8998	0.041
Mof_C 	C 	0.6753	0.0328	0.7312	-0.043
Mof_C 	C 	0.6448	0.9712	0.6988	-0.026
Mof_C 	C 	0.7052	0.8498	0.6437	-0.162
Mof_H 	H 	0.7269	0.8566	0.6283	0.075
Mof_C 	C 	0.7031	0.8116	0.6582	0.333
Mof_C 	C 	0.6726	0.8023	0.6816	-0.282
Mof_H 	H 	0.6704	0.7772	0.6926	0.158
Mof_C 	C 	0.6446	0.8304	0.6888	0.063
Mof_H 	H 	0.6231	0.8246	0.7049	0.013
Mof_C 	C 	0.6482	0.8668	0.6725	-0.042
Mof_H 	H 	0.6285	0.8855	0.6771	0.04
Mof_C 	C 	0.6994	0.0199	0.6219	0.031
Mof_H 	H 	0.6978	0.0181	0.6494	0.031
Mof_C 	C 	0.7103	0.054	0.6046	-0.034
Mof_C 	C 	0.7113	0.0578	0.565	0.012
Mof_H 	H 	0.7185	0.0817	0.5533	0.027
Mof_C 	C 	0.7021	0.0279	0.5439	-0.117
Mof_H 	H 	0.7029	0.0299	0.5165	0.076
Mof_C 	C 	0.6914	0.9937	0.5607	0.079
Mof_H 	H 	0.684	0.9727	0.5445	-0.002
Mof_C 	C 	0.7344	0.782	0.6475	-0.935
Mof_H 	H 	0.7321	0.7773	0.6202	0.418
Mof_H 	H 	0.7598	0.7921	0.6525	-0.106
Mof_C 	C 	0.7257	0.0899	0.6241	0.022
Mof_H 	H 	0.743	0.1043	0.6062	0.045
Mof_H 	H 	0.704	0.1072	0.6316	0.006
Mof_N 	N 	0.7014	0.0502	0.7203	-0.108
Mof_N 	N 	0.6575	0.9565	0.6724	-0.172
Mof_N 	N 	0.6786	0.8767	0.6503	-0.126
Mof_N 	N 	0.691	0.9888	0.5993	-0.177
Mof_O 	O 	0.7467	0.0782	0.6579	-0.346
Mof_H 	H 	0.757	0.07	0.678	0.245
Mof_O 	O 	0.7325	0.7485	0.6695	-1.028
Mof_H 	H 	0.727	0.734	0.6887	0.403
Mof_H 	H 	0.7567	0.7955	0.638	0.323
Mof_H 	H 	0.7422	0.7678	0.6701	0.906
Mof_C 	C 	0.7147	0.0874	0.6318	0.051
Mof_H 	H 	0.7204	0.1114	0.6172	0.004
Mof_H 	H 	0.6906	0.0913	0.6468	0.03
Mof_O 	O 	0.7218	0.7542	0.6203	-0.192
Mof_H 	H 	0.736	0.757	0.6002	0.041
Mof_C 	C 	0.1753	0.5328	0.2312	-0.042
Mof_C 	C 	0.1448	0.4712	0.1988	-0.029
Mof_C 	C 	0.2052	0.3498	0.1437	-0.162
Mof_H 	H 	0.2269	0.3566	0.1283	0.075
Mof_C 	C 	0.2031	0.3116	0.1582	0.333
Mof_C 	C 	0.1726	0.3023	0.1816	-0.282
Mof_H 	H 	0.1704	0.2772	0.1926	0.158
Mof_C 	C 	0.1446	0.3304	0.1888	0.063
Mof_H 	H 	0.1231	0.3246	0.2049	0.013
Mof_C 	C 	0.1482	0.3668	0.1725	-0.042
Mof_H 	H 	0.1285	0.3855	0.1771	0.04
Mof_C 	C 	0.1994	0.5199	0.1219	0.034
Mof_H 	H 	0.1978	0.5181	0.1494	0.031
Mof_C 	C 	0.2103	0.554	0.1046	-0.032
Mof_C 	C 	0.2113	0.5578	0.065	0.007
Mof_H 	H 	0.2185	0.5817	0.0533	0.028
Mof_C 	C 	0.2021	0.5279	0.0439	-0.107
Mof_H 	H 	0.2029	0.5299	0.0165	0.072
Mof_C 	C 	0.1914	0.4937	0.0607	0.071
Mof_H 	H 	0.184	0.4727	0.0445	-0.001
Mof_C 	C 	0.2344	0.282	0.1475	-0.936
Mof_H 	H 	0.2321	0.2773	0.1202	0.418
Mof_H 	H 	0.2598	0.2921	0.1525	-0.106
Mof_C 	C 	0.2257	0.5899	0.1241	0.022
Mof_H 	H 	0.243	0.6043	0.1062	0.045
Mof_H 	H 	0.204	0.6072	0.1316	0.006
Mof_N 	N 	0.2014	0.5502	0.2203	-0.107
Mof_N 	N 	0.1575	0.4565	0.1724	-0.172
Mof_N 	N 	0.1786	0.3767	0.1503	-0.126
Mof_N 	N 	0.191	0.4888	0.0993	-0.178
Mof_O 	O 	0.2467	0.5782	0.1579	-0.346
Mof_H 	H 	0.257	0.57	0.178	0.246
Mof_O 	O 	0.2325	0.2485	0.1695	-1.028
Mof_H 	H 	0.227	0.234	0.1887	0.403
Mof_H 	H 	0.2567	0.2955	0.138	0.323
Mof_H 	H 	0.2422	0.2678	0.1701	0.906
Mof_C 	C 	0.2147	0.5874	0.1318	0.05
Mof_H 	H 	0.2204	0.6114	0.1172	0.004
Mof_H 	H 	0.1906	0.5913	0.1468	0.03
Mof_O 	O 	0.2218	0.2542	0.1203	-0.192
Mof_H 	H 	0.236	0.257	0.1002	0.041
Mof_C 	C 	0.9812	0.2828	0.9253	-0.039
Mof_C 	C 	0.9488	0.2212	0.8948	-0.026
Mof_C 	C 	0.8937	0.0998	0.9552	-0.157
Mof_H 	H 	0.8783	0.1066	0.9769	0.075
Mof_C 	C 	0.9082	0.0616	0.9531	0.323
Mof_C 	C 	0.9316	0.0523	0.9226	-0.274
Mof_H 	H 	0.9426	0.0272	0.9204	0.155
Mof_C 	C 	0.9388	0.0804	0.8946	0.059
Mof_H 	H 	0.9549	0.0746	0.8731	0.015
Mof_C 	C 	0.9225	0.1168	0.8982	-0.04
Mof_H 	H 	0.9271	0.1355	0.8785	0.039
Mof_C 	C 	0.8719	0.2699	0.9494	0.034
Mof_H 	H 	0.8994	0.2681	0.9478	0.031
Mof_C 	C 	0.8546	0.304	0.9603	-0.03
Mof_C 	C 	0.815	0.3078	0.9613	0.006
Mof_H 	H 	0.8033	0.3317	0.9685	0.03
Mof_C 	C 	0.7939	0.2779	0.9521	-0.106
Mof_H 	H 	0.7665	0.2799	0.9529	0.074
Mof_C 	C 	0.8107	0.2437	0.9414	0.071
Mof_H 	H 	0.7945	0.2227	0.934	-0
Mof_C 	C 	0.8975	0.032	0.9844	-0.908
Mof_H 	H 	0.8702	0.0273	0.9821	0.412
Mof_H 	H 	0.9025	0.0421	0.0098	-0.106
Mof_C 	C 	0.8741	0.3399	0.9757	0.021
Mof_H 	H 	0.8562	0.3543	0.993	0.047
Mof_H 	H 	0.8816	0.3572	0.954	0.007
Mof_N 	N 	0.9703	0.3002	0.9514	-0.107
Mof_N 	N 	0.9224	0.2065	0.9075	-0.173
Mof_N 	N 	0.9003	0.1267	0.9286	-0.127
Mof_N 	N 	0.8493	0.2388	0.941	-0.177
Mof_O 	O 	0.9079	0.3282	0.9967	-0.339
Mof_H 	H 	0.928	0.32	0.007	0.241
Mof_O 	O 	0.9195	0.9985	0.9825	-1.01
Mof_H 	H 	0.9387	0.984	0.977	0.399
Mof_H 	H 	0.888	0.0455	0.0067	0.313
Mof_H 	H 	0.9201	0.0178	0.9922	0.887
Mof_C 	C 	0.8818	0.3374	0.9647	0.049
Mof_H 	H 	0.8672	0.3614	0.9704	0.005
Mof_H 	H 	0.8968	0.3413	0.9406	0.03
Mof_O 	O 	0.8703	0.0042	0.9718	-0.198
Mof_H 	H 	0.8502	0.007	0.986	0.045
Mof_C 	C 	0.4812	0.7828	0.4253	-0.042
Mof_C 	C 	0.4488	0.7212	0.3948	-0.029
Mof_C 	C 	0.3937	0.5998	0.4552	-0.162
Mof_H 	H 	0.3783	0.6066	0.4769	0.075
Mof_C 	C 	0.4082	0.5616	0.4531	0.333
Mof_C 	C 	0.4316	0.5523	0.4226	-0.282
Mof_H 	H 	0.4426	0.5272	0.4204	0.158
Mof_C 	C 	0.4388	0.5804	0.3946	0.063
Mof_H 	H 	0.4549	0.5746	0.3731	0.013
Mof_C 	C 	0.4225	0.6168	0.3982	-0.043
Mof_H 	H 	0.4271	0.6355	0.3785	0.04
Mof_C 	C 	0.3719	0.7699	0.4494	0.034
Mof_H 	H 	0.3994	0.7681	0.4478	0.031
Mof_C 	C 	0.3546	0.804	0.4603	-0.032
Mof_C 	C 	0.315	0.8078	0.4613	0.007
Mof_H 	H 	0.3033	0.8317	0.4685	0.029
Mof_C 	C 	0.2939	0.7779	0.4521	-0.107
Mof_H 	H 	0.2665	0.7799	0.4529	0.073
Mof_C 	C 	0.3107	0.7437	0.4414	0.071
Mof_H 	H 	0.2945	0.7227	0.434	-0
Mof_C 	C 	0.3975	0.532	0.4844	-0.936
Mof_H 	H 	0.3702	0.5273	0.4821	0.418
Mof_H 	H 	0.4025	0.5421	0.5098	-0.106
Mof_C 	C 	0.3741	0.8399	0.4757	0.022
Mof_H 	H 	0.3562	0.8543	0.493	0.046
Mof_H 	H 	0.3816	0.8572	0.454	0.006
Mof_N 	N 	0.4703	0.8002	0.4514	-0.107
Mof_N 	N 	0.4224	0.7065	0.4075	-0.172
Mof_N 	N 	0.4003	0.6267	0.4286	-0.126
Mof_N 	N 	0.3493	0.7388	0.441	-0.178
Mof_O 	O 	0.4079	0.8282	0.4967	-0.345
Mof_H 	H 	0.428	0.82	0.507	0.246
Mof_O 	O 	0.4195	0.4985	0.4825	-1.028
Mof_H 	H 	0.4387	0.484	0.477	0.403
Mof_H 	H 	0.388	0.5455	0.5067	0.323
Mof_H 	H 	0.4201	0.5178	0.4922	0.906
Mof_C 	C 	0.3818	0.8374	0.4647	0.05
Mof_H 	H 	0.3672	0.8614	0.4704	0.004
Mof_H 	H 	0.3968	0.8413	0.4406	0.03
Mof_O 	O 	0.3703	0.5042	0.4718	-0.192
Mof_H 	H 	0.3502	0.507	0.486	0.041
Mof_C 	C 	0.5188	0.7172	0.4253	-0.042
Mof_C 	C 	0.5512	0.7788	0.3948	-0.029
Mof_C 	C 	0.6063	0.9002	0.4552	-0.164
Mof_H 	H 	0.6217	0.8934	0.4769	0.076
Mof_C 	C 	0.5918	0.9384	0.4531	0.337
Mof_C 	C 	0.5684	0.9477	0.4226	-0.285
Mof_H 	H 	0.5574	0.9728	0.4204	0.16
Mof_C 	C 	0.5612	0.9196	0.3946	0.065
Mof_H 	H 	0.5451	0.9254	0.3731	0.012
Mof_C 	C 	0.5775	0.8832	0.3982	-0.044
Mof_H 	H 	0.5729	0.8645	0.3785	0.04
Mof_C 	C 	0.6281	0.7301	0.4494	0.034
Mof_H 	H 	0.6006	0.7319	0.4478	0.031
Mof_C 	C 	0.6454	0.696	0.4603	-0.032
Mof_C 	C 	0.685	0.6922	0.4613	0.007
Mof_H 	H 	0.6967	0.6683	0.4685	0.029
Mof_C 	C 	0.7061	0.7221	0.4521	-0.107
Mof_H 	H 	0.7335	0.7201	0.4529	0.073
Mof_C 	C 	0.6893	0.7563	0.4414	0.071
Mof_H 	H 	0.7055	0.7773	0.434	-0
Mof_C 	C 	0.6025	0.968	0.4844	-0.945
Mof_H 	H 	0.6298	0.9727	0.4821	0.42
Mof_H 	H 	0.5975	0.9579	0.5098	-0.109
Mof_C 	C 	0.6259	0.6601	0.4757	0.022
Mof_H 	H 	0.6438	0.6457	0.493	0.046
Mof_H 	H 	0.6184	0.6428	0.454	0.006
Mof_N 	N 	0.5297	0.6998	0.4514	-0.107
Mof_N 	N 	0.5776	0.7935	0.4075	-0.172
Mof_N 	N 	0.5997	0.8733	0.4286	-0.125
Mof_N 	N 	0.6507	0.7612	0.441	-0.178
Mof_O 	O 	0.5921	0.6718	0.4967	-0.345
Mof_H 	H 	0.572	0.68	0.507	0.246
Mof_O 	O 	0.5805	0.0015	0.4825	-1.044
Mof_H 	H 	0.5613	0.016	0.477	0.408
Mof_H 	H 	0.612	0.9545	0.5067	0.329
Mof_H 	H 	0.5799	0.9822	0.4922	0.92
Mof_C 	C 	0.6182	0.6626	0.4647	0.05
Mof_H 	H 	0.6328	0.6386	0.4704	0.004
Mof_H 	H 	0.6032	0.6587	0.4406	0.03
Mof_O 	O 	0.6297	0.9958	0.4718	-0.187
Mof_H 	H 	0.6498	0.993	0.486	0.04
Mof_C 	C 	0.0188	0.2172	0.9253	-0.043
Mof_C 	C 	0.0512	0.2788	0.8948	-0.028
Mof_C 	C 	0.1063	0.4002	0.9552	-0.159
Mof_H 	H 	0.1217	0.3934	0.9769	0.075
Mof_C 	C 	0.0918	0.4384	0.9531	0.327
Mof_C 	C 	0.0684	0.4477	0.9226	-0.278
Mof_H 	H 	0.0574	0.4728	0.9204	0.156
Mof_C 	C 	0.0612	0.4196	0.8946	0.061
Mof_H 	H 	0.0451	0.4254	0.8731	0.013
Mof_C 	C 	0.0775	0.3832	0.8982	-0.041
Mof_H 	H 	0.0729	0.3645	0.8785	0.039
Mof_C 	C 	0.1281	0.2301	0.9494	0.034
Mof_H 	H 	0.1006	0.2319	0.9478	0.031
Mof_C 	C 	0.1454	0.196	0.9603	-0.03
Mof_C 	C 	0.185	0.1922	0.9613	0.006
Mof_H 	H 	0.1967	0.1683	0.9685	0.03
Mof_C 	C 	0.2061	0.2221	0.9521	-0.106
Mof_H 	H 	0.2335	0.2201	0.9529	0.074
Mof_C 	C 	0.1893	0.2563	0.9414	0.071
Mof_H 	H 	0.2055	0.2773	0.934	-0
Mof_C 	C 	0.1025	0.468	0.9844	-0.917
Mof_H 	H 	0.1298	0.4727	0.9821	0.414
Mof_H 	H 	0.0975	0.4579	0.0098	-0.109
Mof_C 	C 	0.1259	0.1601	0.9757	0.021
Mof_H 	H 	0.1438	0.1457	0.993	0.047
Mof_H 	H 	0.1184	0.1428	0.954	0.007
Mof_N 	N 	0.0297	0.1998	0.9514	-0.107
Mof_N 	N 	0.0776	0.2935	0.9075	-0.172
Mof_N 	N 	0.0997	0.3733	0.9286	-0.127
Mof_N 	N 	0.1507	0.2612	0.941	-0.177
Mof_O 	O 	0.0921	0.1718	0.9967	-0.339
Mof_H 	H 	0.072	0.18	0.007	0.24
Mof_O 	O 	0.0805	0.5015	0.9825	-1.025
Mof_H 	H 	0.0613	0.516	0.977	0.403
Mof_H 	H 	0.112	0.4545	0.0067	0.318
Mof_H 	H 	0.0799	0.4822	0.9922	0.9
Mof_C 	C 	0.1182	0.1626	0.9647	0.049
Mof_H 	H 	0.1328	0.1386	0.9704	0.005
Mof_H 	H 	0.1032	0.1587	0.9406	0.03
Mof_O 	O 	0.1297	0.4958	0.9718	-0.194
Mof_H 	H 	0.1498	0.493	0.986	0.045
Mof_C 	C 	0.0188	0.7828	0.5747	-0.043
Mof_C 	C 	0.0512	0.7212	0.6052	-0.028
Mof_C 	C 	0.1063	0.5998	0.5448	-0.162
Mof_H 	H 	0.1217	0.6066	0.5231	0.075
Mof_C 	C 	0.0918	0.5616	0.5469	0.333
Mof_C 	C 	0.0684	0.5523	0.5774	-0.282
Mof_H 	H 	0.0574	0.5272	0.5796	0.158
Mof_C 	C 	0.0612	0.5804	0.6054	0.064
Mof_H 	H 	0.0451	0.5746	0.6269	0.012
Mof_C 	C 	0.0775	0.6168	0.6018	-0.043
Mof_H 	H 	0.0729	0.6355	0.6215	0.04
Mof_C 	C 	0.1281	0.7699	0.5506	0.034
Mof_H 	H 	0.1006	0.7681	0.5522	0.031
Mof_C 	C 	0.1454	0.804	0.5397	-0.032
Mof_C 	C 	0.185	0.8078	0.5387	0.007
Mof_H 	H 	0.1967	0.8317	0.5315	0.029
Mof_C 	C 	0.2061	0.7779	0.5479	-0.107
Mof_H 	H 	0.2335	0.7799	0.5471	0.073
Mof_C 	C 	0.1893	0.7437	0.5586	0.071
Mof_H 	H 	0.2055	0.7227	0.566	-0
Mof_C 	C 	0.1025	0.532	0.5156	-0.935
Mof_H 	H 	0.1298	0.5273	0.5179	0.418
Mof_H 	H 	0.0975	0.5421	0.4902	-0.106
Mof_C 	C 	0.1259	0.8399	0.5243	0.022
Mof_H 	H 	0.1438	0.8543	0.507	0.046
Mof_H 	H 	0.1184	0.8572	0.546	0.006
Mof_N 	N 	0.0297	0.8002	0.5486	-0.108
Mof_N 	N 	0.0776	0.7065	0.5925	-0.172
Mof_N 	N 	0.0997	0.6267	0.5714	-0.126
Mof_N 	N 	0.1507	0.7388	0.559	-0.178
Mof_O 	O 	0.0921	0.8282	0.5033	-0.345
Mof_H 	H 	0.072	0.82	0.493	0.245
Mof_O 	O 	0.0805	0.4985	0.5175	-1.027
Mof_H 	H 	0.0613	0.484	0.523	0.402
Mof_H 	H 	0.112	0.5455	0.4933	0.323
Mof_H 	H 	0.0799	0.5178	0.5078	0.905
Mof_C 	C 	0.1182	0.8374	0.5353	0.05
Mof_H 	H 	0.1328	0.8614	0.5296	0.004
Mof_H 	H 	0.1032	0.8413	0.5594	0.03
Mof_O 	O 	0.1297	0.5042	0.5282	-0.192
Mof_H 	H 	0.1498	0.507	0.514	0.041
Mof_C 	C 	0.5188	0.2828	0.0747	-0.043
Mof_C 	C 	0.5512	0.2212	0.1052	-0.029
Mof_C 	C 	0.6063	0.0998	0.0448	-0.163
Mof_H 	H 	0.6217	0.1066	0.0231	0.075
Mof_C 	C 	0.5918	0.0616	0.0469	0.335
Mof_C 	C 	0.5684	0.0523	0.0774	-0.283
Mof_H 	H 	0.5574	0.0272	0.0796	0.157
Mof_C 	C 	0.5612	0.0804	0.1054	0.064
Mof_H 	H 	0.5451	0.0746	0.1269	0.013
Mof_C 	C 	0.5775	0.1168	0.1018	-0.043
Mof_H 	H 	0.5729	0.1355	0.1215	0.04
Mof_C 	C 	0.6281	0.2699	0.0506	0.034
Mof_H 	H 	0.6006	0.2681	0.0522	0.031
Mof_C 	C 	0.6454	0.304	0.0397	-0.034
Mof_C 	C 	0.685	0.3078	0.0387	0.008
Mof_H 	H 	0.6967	0.3317	0.0315	0.028
Mof_C 	C 	0.7061	0.2779	0.0479	-0.108
Mof_H 	H 	0.7335	0.2799	0.0471	0.073
Mof_C 	C 	0.6893	0.2437	0.0586	0.071
Mof_H 	H 	0.7055	0.2227	0.066	-0
Mof_C 	C 	0.6025	0.032	0.0156	-0.944
Mof_H 	H 	0.6298	0.0273	0.0179	0.421
Mof_H 	H 	0.5975	0.0421	0.9902	-0.1
Mof_C 	C 	0.6259	0.3399	0.0243	0.024
Mof_H 	H 	0.6438	0.3543	0.007	0.045
Mof_H 	H 	0.6184	0.3572	0.046	0.005
Mof_N 	N 	0.5297	0.3002	0.0486	-0.108
Mof_N 	N 	0.5776	0.2065	0.0925	-0.172
Mof_N 	N 	0.5997	0.1267	0.0714	-0.126
Mof_N 	N 	0.6507	0.2388	0.059	-0.178
Mof_O 	O 	0.5921	0.3282	0.0033	-0.352
Mof_H 	H 	0.572	0.32	0.993	0.251
Mof_O 	O 	0.5805	0.9985	0.0175	-1.014
Mof_H 	H 	0.5613	0.984	0.023	0.397
Mof_H 	H 	0.612	0.0455	0.9933	0.323
Mof_H 	H 	0.5799	0.0178	0.0078	0.898
Mof_C 	C 	0.6182	0.3374	0.0353	0.052
Mof_H 	H 	0.6328	0.3614	0.0296	0.004
Mof_H 	H 	0.6032	0.3413	0.0594	0.03
Mof_O 	O 	0.6297	0.0042	0.0282	-0.195
Mof_H 	H 	0.6498	0.007	0.014	0.039
Mof_C 	C 	0.4812	0.2172	0.0747	-0.043
Mof_C 	C 	0.4488	0.2788	0.1052	-0.029
Mof_C 	C 	0.3937	0.4002	0.0448	-0.165
Mof_H 	H 	0.3783	0.3934	0.0231	0.076
Mof_C 	C 	0.4082	0.4384	0.0469	0.339
Mof_C 	C 	0.4316	0.4477	0.0774	-0.286
Mof_H 	H 	0.4426	0.4728	0.0796	0.16
Mof_C 	C 	0.4388	0.4196	0.1054	0.066
Mof_H 	H 	0.4549	0.4254	0.1269	0.012
Mof_C 	C 	0.4225	0.3832	0.1018	-0.044
Mof_H 	H 	0.4271	0.3645	0.1215	0.04
Mof_C 	C 	0.3719	0.2301	0.0506	0.034
Mof_H 	H 	0.3994	0.2319	0.0522	0.031
Mof_C 	C 	0.3546	0.196	0.0397	-0.034
Mof_C 	C 	0.315	0.1922	0.0387	0.008
Mof_H 	H 	0.3033	0.1683	0.0315	0.028
Mof_C 	C 	0.2939	0.2221	0.0479	-0.108
Mof_H 	H 	0.2665	0.2201	0.0471	0.073
Mof_C 	C 	0.3107	0.2563	0.0586	0.071
Mof_H 	H 	0.2945	0.2773	0.066	-0
Mof_C 	C 	0.3975	0.468	0.0156	-0.954
Mof_H 	H 	0.3702	0.4727	0.0179	0.423
Mof_H 	H 	0.4025	0.4579	0.9902	-0.103
Mof_C 	C 	0.3741	0.1601	0.0243	0.024
Mof_H 	H 	0.3562	0.1457	0.007	0.045
Mof_H 	H 	0.3816	0.1428	0.046	0.005
Mof_N 	N 	0.4703	0.1998	0.0486	-0.108
Mof_N 	N 	0.4224	0.2935	0.0925	-0.172
Mof_N 	N 	0.4003	0.3733	0.0714	-0.125
Mof_N 	N 	0.3493	0.2612	0.059	-0.178
Mof_O 	O 	0.4079	0.1718	0.0033	-0.352
Mof_H 	H 	0.428	0.18	0.993	0.251
Mof_O 	O 	0.4195	0.5015	0.0175	-1.03
Mof_H 	H 	0.4387	0.516	0.023	0.402
Mof_H 	H 	0.388	0.4545	0.9933	0.328
Mof_H 	H 	0.4201	0.4822	0.0078	0.911
Mof_C 	C 	0.3818	0.1626	0.0353	0.052
Mof_H 	H 	0.3672	0.1386	0.0296	0.004
Mof_H 	H 	0.3968	0.1587	0.0594	0.03
Mof_O 	O 	0.3703	0.4958	0.0282	-0.19
Mof_H 	H 	0.3502	0.493	0.014	0.038
Mof_C 	C 	0.9812	0.7172	0.5747	-0.039
Mof_C 	C 	0.9488	0.7788	0.6052	-0.026
Mof_C 	C 	0.8937	0.9002	0.5448	-0.164
Mof_H 	H 	0.8783	0.8934	0.5231	0.076
Mof_C 	C 	0.9082	0.9384	0.5469	0.337
Mof_C 	C 	0.9316	0.9477	0.5774	-0.284
Mof_H 	H 	0.9426	0.9728	0.5796	0.16
Mof_C 	C 	0.9388	0.9196	0.6054	0.065
Mof_H 	H 	0.9549	0.9254	0.6269	0.013
Mof_C 	C 	0.9225	0.8832	0.6018	-0.043
Mof_H 	H 	0.9271	0.8645	0.6215	0.04
Mof_C 	C 	0.8719	0.7301	0.5506	0.034
Mof_H 	H 	0.8994	0.7319	0.5522	0.031
Mof_C 	C 	0.8546	0.696	0.5397	-0.032
Mof_C 	C 	0.815	0.6922	0.5387	0.007
Mof_H 	H 	0.8033	0.6683	0.5315	0.029
Mof_C 	C 	0.7939	0.7221	0.5479	-0.107
Mof_H 	H 	0.7665	0.7201	0.5471	0.073
Mof_C 	C 	0.8107	0.7563	0.5586	0.071
Mof_H 	H 	0.7945	0.7773	0.566	-0
Mof_C 	C 	0.8975	0.968	0.5156	-0.945
Mof_H 	H 	0.8702	0.9727	0.5179	0.42
Mof_H 	H 	0.9025	0.9579	0.4902	-0.109
Mof_C 	C 	0.8741	0.6601	0.5243	0.022
Mof_H 	H 	0.8562	0.6457	0.507	0.046
Mof_H 	H 	0.8816	0.6428	0.546	0.006
Mof_N 	N 	0.9703	0.6998	0.5486	-0.108
Mof_N 	N 	0.9224	0.7935	0.5925	-0.173
Mof_N 	N 	0.9003	0.8733	0.5714	-0.125
Mof_N 	N 	0.8493	0.7612	0.559	-0.178
Mof_O 	O 	0.9079	0.6718	0.5033	-0.345
Mof_H 	H 	0.928	0.68	0.493	0.246
Mof_O 	O 	0.9195	0.0015	0.5175	-1.044
Mof_H 	H 	0.9387	0.016	0.523	0.408
Mof_H 	H 	0.888	0.9545	0.4933	0.329
Mof_H 	H 	0.9201	0.9822	0.5078	0.92
Mof_C 	C 	0.8818	0.6626	0.5353	0.05
Mof_H 	H 	0.8672	0.6386	0.5296	0.004
Mof_H 	H 	0.8968	0.6587	0.5594	0.03
Mof_O 	O 	0.8703	0.9958	0.5282	-0.187
Mof_H 	H 	0.8502	0.993	0.514	0.04
Mof_C 	C 	0.9253	0.9812	0.2828	-0.039
Mof_C 	C 	0.8948	0.9488	0.2212	-0.026
Mof_C 	C 	0.9552	0.8937	0.0998	-0.157
Mof_H 	H 	0.9769	0.8783	0.1066	0.075
Mof_C 	C 	0.9531	0.9082	0.0616	0.323
Mof_C 	C 	0.9226	0.9316	0.0523	-0.274
Mof_H 	H 	0.9204	0.9426	0.0272	0.155
Mof_C 	C 	0.8946	0.9388	0.0804	0.059
Mof_H 	H 	0.8731	0.9549	0.0746	0.015
Mof_C 	C 	0.8982	0.9225	0.1168	-0.04
Mof_H 	H 	0.8785	0.9271	0.1355	0.039
Mof_C 	C 	0.9494	0.8719	0.2699	0.034
Mof_H 	H 	0.9478	0.8994	0.2681	0.031
Mof_C 	C 	0.9603	0.8546	0.304	-0.03
Mof_C 	C 	0.9613	0.815	0.3078	0.006
Mof_H 	H 	0.9685	0.8033	0.3317	0.03
Mof_C 	C 	0.9521	0.7939	0.2779	-0.106
Mof_H 	H 	0.9529	0.7665	0.2799	0.074
Mof_C 	C 	0.9414	0.8107	0.2437	0.071
Mof_H 	H 	0.934	0.7945	0.2227	-0
Mof_C 	C 	0.9844	0.8975	0.032	-0.908
Mof_H 	H 	0.9821	0.8702	0.0273	0.412
Mof_H 	H 	0.0098	0.9025	0.0421	-0.106
Mof_C 	C 	0.9757	0.8741	0.3399	0.021
Mof_H 	H 	0.993	0.8562	0.3543	0.047
Mof_H 	H 	0.954	0.8816	0.3572	0.007
Mof_N 	N 	0.9514	0.9703	0.3002	-0.107
Mof_N 	N 	0.9075	0.9224	0.2065	-0.173
Mof_N 	N 	0.9286	0.9003	0.1267	-0.127
Mof_N 	N 	0.941	0.8493	0.2388	-0.177
Mof_O 	O 	0.9967	0.9079	0.3282	-0.339
Mof_H 	H 	0.007	0.928	0.32	0.241
Mof_O 	O 	0.9825	0.9195	0.9985	-1.01
Mof_H 	H 	0.977	0.9387	0.984	0.399
Mof_H 	H 	0.0067	0.888	0.0455	0.313
Mof_H 	H 	0.9922	0.9201	0.0178	0.887
Mof_C 	C 	0.9647	0.8818	0.3374	0.049
Mof_H 	H 	0.9704	0.8672	0.3614	0.005
Mof_H 	H 	0.9406	0.8968	0.3413	0.03
Mof_O 	O 	0.9718	0.8703	0.0042	-0.198
Mof_H 	H 	0.986	0.8502	0.007	0.045
Mof_C 	C 	0.4253	0.4812	0.7828	-0.042
Mof_C 	C 	0.3948	0.4488	0.7212	-0.029
Mof_C 	C 	0.4552	0.3937	0.5998	-0.162
Mof_H 	H 	0.4769	0.3783	0.6066	0.075
Mof_C 	C 	0.4531	0.4082	0.5616	0.333
Mof_C 	C 	0.4226	0.4316	0.5523	-0.282
Mof_H 	H 	0.4204	0.4426	0.5272	0.158
Mof_C 	C 	0.3946	0.4388	0.5804	0.063
Mof_H 	H 	0.3731	0.4549	0.5746	0.013
Mof_C 	C 	0.3982	0.4225	0.6168	-0.043
Mof_H 	H 	0.3785	0.4271	0.6355	0.04
Mof_C 	C 	0.4494	0.3719	0.7699	0.034
Mof_H 	H 	0.4478	0.3994	0.7681	0.031
Mof_C 	C 	0.4603	0.3546	0.804	-0.032
Mof_C 	C 	0.4613	0.315	0.8078	0.007
Mof_H 	H 	0.4685	0.3033	0.8317	0.029
Mof_C 	C 	0.4521	0.2939	0.7779	-0.107
Mof_H 	H 	0.4529	0.2665	0.7799	0.073
Mof_C 	C 	0.4414	0.3107	0.7437	0.071
Mof_H 	H 	0.434	0.2945	0.7227	-0
Mof_C 	C 	0.4844	0.3975	0.532	-0.936
Mof_H 	H 	0.4821	0.3702	0.5273	0.418
Mof_H 	H 	0.5098	0.4025	0.5421	-0.106
Mof_C 	C 	0.4757	0.3741	0.8399	0.022
Mof_H 	H 	0.493	0.3562	0.8543	0.046
Mof_H 	H 	0.454	0.3816	0.8572	0.006
Mof_N 	N 	0.4514	0.4703	0.8002	-0.107
Mof_N 	N 	0.4075	0.4224	0.7065	-0.172
Mof_N 	N 	0.4286	0.4003	0.6267	-0.126
Mof_N 	N 	0.441	0.3493	0.7388	-0.178
Mof_O 	O 	0.4967	0.4079	0.8282	-0.345
Mof_H 	H 	0.507	0.428	0.82	0.246
Mof_O 	O 	0.4825	0.4195	0.4985	-1.028
Mof_H 	H 	0.477	0.4387	0.484	0.403
Mof_H 	H 	0.5067	0.388	0.5455	0.323
Mof_H 	H 	0.4922	0.4201	0.5178	0.906
Mof_C 	C 	0.4647	0.3818	0.8374	0.05
Mof_H 	H 	0.4704	0.3672	0.8614	0.004
Mof_H 	H 	0.4406	0.3968	0.8413	0.03
Mof_O 	O 	0.4718	0.3703	0.5042	-0.192
Mof_H 	H 	0.486	0.3502	0.507	0.041
Mof_C 	C 	0.4253	0.5188	0.7172	-0.042
Mof_C 	C 	0.3948	0.5512	0.7788	-0.029
Mof_C 	C 	0.4552	0.6063	0.9002	-0.164
Mof_H 	H 	0.4769	0.6217	0.8934	0.076
Mof_C 	C 	0.4531	0.5918	0.9384	0.337
Mof_C 	C 	0.4226	0.5684	0.9477	-0.285
Mof_H 	H 	0.4204	0.5574	0.9728	0.16
Mof_C 	C 	0.3946	0.5612	0.9196	0.065
Mof_H 	H 	0.3731	0.5451	0.9254	0.012
Mof_C 	C 	0.3982	0.5775	0.8832	-0.044
Mof_H 	H 	0.3785	0.5729	0.8645	0.04
Mof_C 	C 	0.4494	0.6281	0.7301	0.034
Mof_H 	H 	0.4478	0.6006	0.7319	0.031
Mof_C 	C 	0.4603	0.6454	0.696	-0.032
Mof_C 	C 	0.4613	0.685	0.6922	0.007
Mof_H 	H 	0.4685	0.6967	0.6683	0.029
Mof_C 	C 	0.4521	0.7061	0.7221	-0.107
Mof_H 	H 	0.4529	0.7335	0.7201	0.073
Mof_C 	C 	0.4414	0.6893	0.7563	0.071
Mof_H 	H 	0.434	0.7055	0.7773	-0
Mof_C 	C 	0.4844	0.6025	0.968	-0.945
Mof_H 	H 	0.4821	0.6298	0.9727	0.42
Mof_H 	H 	0.5098	0.5975	0.9579	-0.109
Mof_C 	C 	0.4757	0.6259	0.6601	0.022
Mof_H 	H 	0.493	0.6438	0.6457	0.046
Mof_H 	H 	0.454	0.6184	0.6428	0.006
Mof_N 	N 	0.4514	0.5297	0.6998	-0.107
Mof_N 	N 	0.4075	0.5776	0.7935	-0.172
Mof_N 	N 	0.4286	0.5997	0.8733	-0.125
Mof_N 	N 	0.441	0.6507	0.7612	-0.178
Mof_O 	O 	0.4967	0.5921	0.6718	-0.345
Mof_H 	H 	0.507	0.572	0.68	0.246
Mof_O 	O 	0.4825	0.5805	0.0015	-1.044
Mof_H 	H 	0.477	0.5613	0.016	0.408
Mof_H 	H 	0.5067	0.612	0.9545	0.329
Mof_H 	H 	0.4922	0.5799	0.9822	0.92
Mof_C 	C 	0.4647	0.6182	0.6626	0.05
Mof_H 	H 	0.4704	0.6328	0.6386	0.004
Mof_H 	H 	0.4406	0.6032	0.6587	0.03
Mof_O 	O 	0.4718	0.6297	0.9958	-0.187
Mof_H 	H 	0.486	0.6498	0.993	0.04
Mof_C 	C 	0.9253	0.0188	0.2172	-0.043
Mof_C 	C 	0.8948	0.0512	0.2788	-0.028
Mof_C 	C 	0.9552	0.1063	0.4002	-0.159
Mof_H 	H 	0.9769	0.1217	0.3934	0.075
Mof_C 	C 	0.9531	0.0918	0.4384	0.327
Mof_C 	C 	0.9226	0.0684	0.4477	-0.278
Mof_H 	H 	0.9204	0.0574	0.4728	0.156
Mof_C 	C 	0.8946	0.0612	0.4196	0.061
Mof_H 	H 	0.8731	0.0451	0.4254	0.013
Mof_C 	C 	0.8982	0.0775	0.3832	-0.041
Mof_H 	H 	0.8785	0.0729	0.3645	0.039
Mof_C 	C 	0.9494	0.1281	0.2301	0.034
Mof_H 	H 	0.9478	0.1006	0.2319	0.031
Mof_C 	C 	0.9603	0.1454	0.196	-0.03
Mof_C 	C 	0.9613	0.185	0.1922	0.006
Mof_H 	H 	0.9685	0.1967	0.1683	0.03
Mof_C 	C 	0.9521	0.2061	0.2221	-0.106
Mof_H 	H 	0.9529	0.2335	0.2201	0.074
Mof_C 	C 	0.9414	0.1893	0.2563	0.071
Mof_H 	H 	0.934	0.2055	0.2773	-0
Mof_C 	C 	0.9844	0.1025	0.468	-0.917
Mof_H 	H 	0.9821	0.1298	0.4727	0.414
Mof_H 	H 	0.0098	0.0975	0.4579	-0.109
Mof_C 	C 	0.9757	0.1259	0.1601	0.021
Mof_H 	H 	0.993	0.1438	0.1457	0.047
Mof_H 	H 	0.954	0.1184	0.1428	0.007
Mof_N 	N 	0.9514	0.0297	0.1998	-0.107
Mof_N 	N 	0.9075	0.0776	0.2935	-0.172
Mof_N 	N 	0.9286	0.0997	0.3733	-0.127
Mof_N 	N 	0.941	0.1507	0.2612	-0.177
Mof_O 	O 	0.9967	0.0921	0.1718	-0.339
Mof_H 	H 	0.007	0.072	0.18	0.24
Mof_O 	O 	0.9825	0.0805	0.5015	-1.025
Mof_H 	H 	0.977	0.0613	0.516	0.403
Mof_H 	H 	0.0067	0.112	0.4545	0.318
Mof_H 	H 	0.9922	0.0799	0.4822	0.9
Mof_C 	C 	0.9647	0.1182	0.1626	0.049
Mof_H 	H 	0.9704	0.1328	0.1386	0.005
Mof_H 	H 	0.9406	0.1032	0.1587	0.03
Mof_O 	O 	0.9718	0.1297	0.4958	-0.194
Mof_H 	H 	0.986	0.1498	0.493	0.045
Mof_C 	C 	0.5747	0.0188	0.7828	-0.043
Mof_C 	C 	0.6052	0.0512	0.7212	-0.028
Mof_C 	C 	0.5448	0.1063	0.5998	-0.162
Mof_H 	H 	0.5231	0.1217	0.6066	0.075
Mof_C 	C 	0.5469	0.0918	0.5616	0.333
Mof_C 	C 	0.5774	0.0684	0.5523	-0.282
Mof_H 	H 	0.5796	0.0574	0.5272	0.158
Mof_C 	C 	0.6054	0.0612	0.5804	0.064
Mof_H 	H 	0.6269	0.0451	0.5746	0.012
Mof_C 	C 	0.6018	0.0775	0.6168	-0.043
Mof_H 	H 	0.6215	0.0729	0.6355	0.04
Mof_C 	C 	0.5506	0.1281	0.7699	0.034
Mof_H 	H 	0.5522	0.1006	0.7681	0.031
Mof_C 	C 	0.5397	0.1454	0.804	-0.032
Mof_C 	C 	0.5387	0.185	0.8078	0.007
Mof_H 	H 	0.5315	0.1967	0.8317	0.029
Mof_C 	C 	0.5479	0.2061	0.7779	-0.107
Mof_H 	H 	0.5471	0.2335	0.7799	0.073
Mof_C 	C 	0.5586	0.1893	0.7437	0.071
Mof_H 	H 	0.566	0.2055	0.7227	-0
Mof_C 	C 	0.5156	0.1025	0.532	-0.935
Mof_H 	H 	0.5179	0.1298	0.5273	0.418
Mof_H 	H 	0.4902	0.0975	0.5421	-0.106
Mof_C 	C 	0.5243	0.1259	0.8399	0.022
Mof_H 	H 	0.507	0.1438	0.8543	0.046
Mof_H 	H 	0.546	0.1184	0.8572	0.006
Mof_N 	N 	0.5486	0.0297	0.8002	-0.108
Mof_N 	N 	0.5925	0.0776	0.7065	-0.172
Mof_N 	N 	0.5714	0.0997	0.6267	-0.126
Mof_N 	N 	0.559	0.1507	0.7388	-0.178
Mof_O 	O 	0.5033	0.0921	0.8282	-0.345
Mof_H 	H 	0.493	0.072	0.82	0.245
Mof_O 	O 	0.5175	0.0805	0.4985	-1.027
Mof_H 	H 	0.523	0.0613	0.484	0.402
Mof_H 	H 	0.4933	0.112	0.5455	0.323
Mof_H 	H 	0.5078	0.0799	0.5178	0.905
Mof_C 	C 	0.5353	0.1182	0.8374	0.05
Mof_H 	H 	0.5296	0.1328	0.8614	0.004
Mof_H 	H 	0.5594	0.1032	0.8413	0.03
Mof_O 	O 	0.5282	0.1297	0.5042	-0.192
Mof_H 	H 	0.514	0.1498	0.507	0.041
Mof_C 	C 	0.0747	0.5188	0.2828	-0.043
Mof_C 	C 	0.1052	0.5512	0.2212	-0.029
Mof_C 	C 	0.0448	0.6063	0.0998	-0.163
Mof_H 	H 	0.0231	0.6217	0.1066	0.075
Mof_C 	C 	0.0469	0.5918	0.0616	0.335
Mof_C 	C 	0.0774	0.5684	0.0523	-0.283
Mof_H 	H 	0.0796	0.5574	0.0272	0.157
Mof_C 	C 	0.1054	0.5612	0.0804	0.064
Mof_H 	H 	0.1269	0.5451	0.0746	0.013
Mof_C 	C 	0.1018	0.5775	0.1168	-0.043
Mof_H 	H 	0.1215	0.5729	0.1355	0.04
Mof_C 	C 	0.0506	0.6281	0.2699	0.034
Mof_H 	H 	0.0522	0.6006	0.2681	0.031
Mof_C 	C 	0.0397	0.6454	0.304	-0.034
Mof_C 	C 	0.0387	0.685	0.3078	0.008
Mof_H 	H 	0.0315	0.6967	0.3317	0.028
Mof_C 	C 	0.0479	0.7061	0.2779	-0.108
Mof_H 	H 	0.0471	0.7335	0.2799	0.073
Mof_C 	C 	0.0586	0.6893	0.2437	0.071
Mof_H 	H 	0.066	0.7055	0.2227	-0
Mof_C 	C 	0.0156	0.6025	0.032	-0.944
Mof_H 	H 	0.0179	0.6298	0.0273	0.421
Mof_H 	H 	0.9902	0.5975	0.0421	-0.1
Mof_C 	C 	0.0243	0.6259	0.3399	0.024
Mof_H 	H 	0.007	0.6438	0.3543	0.045
Mof_H 	H 	0.046	0.6184	0.3572	0.005
Mof_N 	N 	0.0486	0.5297	0.3002	-0.108
Mof_N 	N 	0.0925	0.5776	0.2065	-0.172
Mof_N 	N 	0.0714	0.5997	0.1267	-0.126
Mof_N 	N 	0.059	0.6507	0.2388	-0.178
Mof_O 	O 	0.0033	0.5921	0.3282	-0.352
Mof_H 	H 	0.993	0.572	0.32	0.251
Mof_O 	O 	0.0175	0.5805	0.9985	-1.014
Mof_H 	H 	0.023	0.5613	0.984	0.397
Mof_H 	H 	0.9933	0.612	0.0455	0.323
Mof_H 	H 	0.0078	0.5799	0.0178	0.898
Mof_C 	C 	0.0353	0.6182	0.3374	0.052
Mof_H 	H 	0.0296	0.6328	0.3614	0.004
Mof_H 	H 	0.0594	0.6032	0.3413	0.03
Mof_O 	O 	0.0282	0.6297	0.0042	-0.195
Mof_H 	H 	0.014	0.6498	0.007	0.039
Mof_C 	C 	0.0747	0.4812	0.2172	-0.043
Mof_C 	C 	0.1052	0.4488	0.2788	-0.029
Mof_C 	C 	0.0448	0.3937	0.4002	-0.165
Mof_H 	H 	0.0231	0.3783	0.3934	0.076
Mof_C 	C 	0.0469	0.4082	0.4384	0.339
Mof_C 	C 	0.0774	0.4316	0.4477	-0.286
Mof_H 	H 	0.0796	0.4426	0.4728	0.16
Mof_C 	C 	0.1054	0.4388	0.4196	0.066
Mof_H 	H 	0.1269	0.4549	0.4254	0.012
Mof_C 	C 	0.1018	0.4225	0.3832	-0.044
Mof_H 	H 	0.1215	0.4271	0.3645	0.04
Mof_C 	C 	0.0506	0.3719	0.2301	0.034
Mof_H 	H 	0.0522	0.3994	0.2319	0.031
Mof_C 	C 	0.0397	0.3546	0.196	-0.034
Mof_C 	C 	0.0387	0.315	0.1922	0.008
Mof_H 	H 	0.0315	0.3033	0.1683	0.028
Mof_C 	C 	0.0479	0.2939	0.2221	-0.108
Mof_H 	H 	0.0471	0.2665	0.2201	0.073
Mof_C 	C 	0.0586	0.3107	0.2563	0.071
Mof_H 	H 	0.066	0.2945	0.2773	-0
Mof_C 	C 	0.0156	0.3975	0.468	-0.954
Mof_H 	H 	0.0179	0.3702	0.4727	0.423
Mof_H 	H 	0.9902	0.4025	0.4579	-0.103
Mof_C 	C 	0.0243	0.3741	0.1601	0.024
Mof_H 	H 	0.007	0.3562	0.1457	0.045
Mof_H 	H 	0.046	0.3816	0.1428	0.005
Mof_N 	N 	0.0486	0.4703	0.1998	-0.108
Mof_N 	N 	0.0925	0.4224	0.2935	-0.172
Mof_N 	N 	0.0714	0.4003	0.3733	-0.125
Mof_N 	N 	0.059	0.3493	0.2612	-0.178
Mof_O 	O 	0.0033	0.4079	0.1718	-0.352
Mof_H 	H 	0.993	0.428	0.18	0.251
Mof_O 	O 	0.0175	0.4195	0.5015	-1.03
Mof_H 	H 	0.023	0.4387	0.516	0.402
Mof_H 	H 	0.9933	0.388	0.4545	0.328
Mof_H 	H 	0.0078	0.4201	0.4822	0.911
Mof_C 	C 	0.0353	0.3818	0.1626	0.052
Mof_H 	H 	0.0296	0.3672	0.1386	0.004
Mof_H 	H 	0.0594	0.3968	0.1587	0.03
Mof_O 	O 	0.0282	0.3703	0.4958	-0.19
Mof_H 	H 	0.014	0.3502	0.493	0.038
Mof_C 	C 	0.5747	0.9812	0.7172	-0.039
Mof_C 	C 	0.6052	0.9488	0.7788	-0.026
Mof_C 	C 	0.5448	0.8937	0.9002	-0.164
Mof_H 	H 	0.5231	0.8783	0.8934	0.076
Mof_C 	C 	0.5469	0.9082	0.9384	0.337
Mof_C 	C 	0.5774	0.9316	0.9477	-0.284
Mof_H 	H 	0.5796	0.9426	0.9728	0.16
Mof_C 	C 	0.6054	0.9388	0.9196	0.065
Mof_H 	H 	0.6269	0.9549	0.9254	0.013
Mof_C 	C 	0.6018	0.9225	0.8832	-0.043
Mof_H 	H 	0.6215	0.9271	0.8645	0.04
Mof_C 	C 	0.5506	0.8719	0.7301	0.034
Mof_H 	H 	0.5522	0.8994	0.7319	0.031
Mof_C 	C 	0.5397	0.8546	0.696	-0.032
Mof_C 	C 	0.5387	0.815	0.6922	0.007
Mof_H 	H 	0.5315	0.8033	0.6683	0.029
Mof_C 	C 	0.5479	0.7939	0.7221	-0.107
Mof_H 	H 	0.5471	0.7665	0.7201	0.073
Mof_C 	C 	0.5586	0.8107	0.7563	0.071
Mof_H 	H 	0.566	0.7945	0.7773	-0
Mof_C 	C 	0.5156	0.8975	0.968	-0.945
Mof_H 	H 	0.5179	0.8702	0.9727	0.42
Mof_H 	H 	0.4902	0.9025	0.9579	-0.109
Mof_C 	C 	0.5243	0.8741	0.6601	0.022
Mof_H 	H 	0.507	0.8562	0.6457	0.046
Mof_H 	H 	0.546	0.8816	0.6428	0.006
Mof_N 	N 	0.5486	0.9703	0.6998	-0.108
Mof_N 	N 	0.5925	0.9224	0.7935	-0.173
Mof_N 	N 	0.5714	0.9003	0.8733	-0.125
Mof_N 	N 	0.559	0.8493	0.7612	-0.178
Mof_O 	O 	0.5033	0.9079	0.6718	-0.345
Mof_H 	H 	0.493	0.928	0.68	0.246
Mof_O 	O 	0.5175	0.9195	0.0015	-1.044
Mof_H 	H 	0.523	0.9387	0.016	0.408
Mof_H 	H 	0.4933	0.888	0.9545	0.329
Mof_H 	H 	0.5078	0.9201	0.9822	0.92
Mof_C 	C 	0.5353	0.8818	0.6626	0.05
Mof_H 	H 	0.5296	0.8672	0.6386	0.004
Mof_H 	H 	0.5594	0.8968	0.6587	0.03
Mof_O 	O 	0.5282	0.8703	0.9958	-0.187
Mof_H 	H 	0.514	0.8502	0.993	0.04
Mof_C 	C 	0.2828	0.9253	0.9812	-0.039
Mof_C 	C 	0.2212	0.8948	0.9488	-0.026
Mof_C 	C 	0.0998	0.9552	0.8937	-0.157
Mof_H 	H 	0.1066	0.9769	0.8783	0.075
Mof_C 	C 	0.0616	0.9531	0.9082	0.323
Mof_C 	C 	0.0523	0.9226	0.9316	-0.274
Mof_H 	H 	0.0272	0.9204	0.9426	0.155
Mof_C 	C 	0.0804	0.8946	0.9388	0.059
Mof_H 	H 	0.0746	0.8731	0.9549	0.015
Mof_C 	C 	0.1168	0.8982	0.9225	-0.04
Mof_H 	H 	0.1355	0.8785	0.9271	0.039
Mof_C 	C 	0.2699	0.9494	0.8719	0.034
Mof_H 	H 	0.2681	0.9478	0.8994	0.031
Mof_C 	C 	0.304	0.9603	0.8546	-0.03
Mof_C 	C 	0.3078	0.9613	0.815	0.006
Mof_H 	H 	0.3317	0.9685	0.8033	0.03
Mof_C 	C 	0.2779	0.9521	0.7939	-0.106
Mof_H 	H 	0.2799	0.9529	0.7665	0.074
Mof_C 	C 	0.2437	0.9414	0.8107	0.071
Mof_H 	H 	0.2227	0.934	0.7945	-0
Mof_C 	C 	0.032	0.9844	0.8975	-0.908
Mof_H 	H 	0.0273	0.9821	0.8702	0.412
Mof_H 	H 	0.0421	0.0098	0.9025	-0.106
Mof_C 	C 	0.3399	0.9757	0.8741	0.021
Mof_H 	H 	0.3543	0.993	0.8562	0.047
Mof_H 	H 	0.3572	0.954	0.8816	0.007
Mof_N 	N 	0.3002	0.9514	0.9703	-0.107
Mof_N 	N 	0.2065	0.9075	0.9224	-0.173
Mof_N 	N 	0.1267	0.9286	0.9003	-0.127
Mof_N 	N 	0.2388	0.941	0.8493	-0.177
Mof_O 	O 	0.3282	0.9967	0.9079	-0.339
Mof_H 	H 	0.32	0.007	0.928	0.241
Mof_O 	O 	0.9985	0.9825	0.9195	-1.01
Mof_H 	H 	0.984	0.977	0.9387	0.399
Mof_H 	H 	0.0455	0.0067	0.888	0.313
Mof_H 	H 	0.0178	0.9922	0.9201	0.887
Mof_C 	C 	0.3374	0.9647	0.8818	0.049
Mof_H 	H 	0.3614	0.9704	0.8672	0.005
Mof_H 	H 	0.3413	0.9406	0.8968	0.03
Mof_O 	O 	0.0042	0.9718	0.8703	-0.198
Mof_H 	H 	0.007	0.986	0.8502	0.045
Mof_C 	C 	0.7828	0.4253	0.4812	-0.042
Mof_C 	C 	0.7212	0.3948	0.4488	-0.029
Mof_C 	C 	0.5998	0.4552	0.3937	-0.162
Mof_H 	H 	0.6066	0.4769	0.3783	0.075
Mof_C 	C 	0.5616	0.4531	0.4082	0.333
Mof_C 	C 	0.5523	0.4226	0.4316	-0.282
Mof_H 	H 	0.5272	0.4204	0.4426	0.158
Mof_C 	C 	0.5804	0.3946	0.4388	0.063
Mof_H 	H 	0.5746	0.3731	0.4549	0.013
Mof_C 	C 	0.6168	0.3982	0.4225	-0.043
Mof_H 	H 	0.6355	0.3785	0.4271	0.04
Mof_C 	C 	0.7699	0.4494	0.3719	0.034
Mof_H 	H 	0.7681	0.4478	0.3994	0.031
Mof_C 	C 	0.804	0.4603	0.3546	-0.032
Mof_C 	C 	0.8078	0.4613	0.315	0.007
Mof_H 	H 	0.8317	0.4685	0.3033	0.029
Mof_C 	C 	0.7779	0.4521	0.2939	-0.107
Mof_H 	H 	0.7799	0.4529	0.2665	0.073
Mof_C 	C 	0.7437	0.4414	0.3107	0.071
Mof_H 	H 	0.7227	0.434	0.2945	-0
Mof_C 	C 	0.532	0.4844	0.3975	-0.936
Mof_H 	H 	0.5273	0.4821	0.3702	0.418
Mof_H 	H 	0.5421	0.5098	0.4025	-0.106
Mof_C 	C 	0.8399	0.4757	0.3741	0.022
Mof_H 	H 	0.8543	0.493	0.3562	0.046
Mof_H 	H 	0.8572	0.454	0.3816	0.006
Mof_N 	N 	0.8002	0.4514	0.4703	-0.107
Mof_N 	N 	0.7065	0.4075	0.4224	-0.172
Mof_N 	N 	0.6267	0.4286	0.4003	-0.126
Mof_N 	N 	0.7388	0.441	0.3493	-0.178
Mof_O 	O 	0.8282	0.4967	0.4079	-0.345
Mof_H 	H 	0.82	0.507	0.428	0.246
Mof_O 	O 	0.4985	0.4825	0.4195	-1.028
Mof_H 	H 	0.484	0.477	0.4387	0.403
Mof_H 	H 	0.5455	0.5067	0.388	0.323
Mof_H 	H 	0.5178	0.4922	0.4201	0.906
Mof_C 	C 	0.8374	0.4647	0.3818	0.05
Mof_H 	H 	0.8614	0.4704	0.3672	0.004
Mof_H 	H 	0.8413	0.4406	0.3968	0.03
Mof_O 	O 	0.5042	0.4718	0.3703	-0.192
Mof_H 	H 	0.507	0.486	0.3502	0.041
Mof_C 	C 	0.7172	0.4253	0.5188	-0.042
Mof_C 	C 	0.7788	0.3948	0.5512	-0.029
Mof_C 	C 	0.9002	0.4552	0.6063	-0.164
Mof_H 	H 	0.8934	0.4769	0.6217	0.076
Mof_C 	C 	0.9384	0.4531	0.5918	0.337
Mof_C 	C 	0.9477	0.4226	0.5684	-0.285
Mof_H 	H 	0.9728	0.4204	0.5574	0.16
Mof_C 	C 	0.9196	0.3946	0.5612	0.065
Mof_H 	H 	0.9254	0.3731	0.5451	0.012
Mof_C 	C 	0.8832	0.3982	0.5775	-0.044
Mof_H 	H 	0.8645	0.3785	0.5729	0.04
Mof_C 	C 	0.7301	0.4494	0.6281	0.034
Mof_H 	H 	0.7319	0.4478	0.6006	0.031
Mof_C 	C 	0.696	0.4603	0.6454	-0.032
Mof_C 	C 	0.6922	0.4613	0.685	0.007
Mof_H 	H 	0.6683	0.4685	0.6967	0.029
Mof_C 	C 	0.7221	0.4521	0.7061	-0.107
Mof_H 	H 	0.7201	0.4529	0.7335	0.073
Mof_C 	C 	0.7563	0.4414	0.6893	0.071
Mof_H 	H 	0.7773	0.434	0.7055	-0
Mof_C 	C 	0.968	0.4844	0.6025	-0.945
Mof_H 	H 	0.9727	0.4821	0.6298	0.42
Mof_H 	H 	0.9579	0.5098	0.5975	-0.109
Mof_C 	C 	0.6601	0.4757	0.6259	0.022
Mof_H 	H 	0.6457	0.493	0.6438	0.046
Mof_H 	H 	0.6428	0.454	0.6184	0.006
Mof_N 	N 	0.6998	0.4514	0.5297	-0.107
Mof_N 	N 	0.7935	0.4075	0.5776	-0.172
Mof_N 	N 	0.8733	0.4286	0.5997	-0.125
Mof_N 	N 	0.7612	0.441	0.6507	-0.178
Mof_O 	O 	0.6718	0.4967	0.5921	-0.345
Mof_H 	H 	0.68	0.507	0.572	0.246
Mof_O 	O 	0.0015	0.4825	0.5805	-1.044
Mof_H 	H 	0.016	0.477	0.5613	0.408
Mof_H 	H 	0.9545	0.5067	0.612	0.329
Mof_H 	H 	0.9822	0.4922	0.5799	0.92
Mof_C 	C 	0.6626	0.4647	0.6182	0.05
Mof_H 	H 	0.6386	0.4704	0.6328	0.004
Mof_H 	H 	0.6587	0.4406	0.6032	0.03
Mof_O 	O 	0.9958	0.4718	0.6297	-0.187
Mof_H 	H 	0.993	0.486	0.6498	0.04
Mof_C 	C 	0.2172	0.9253	0.0188	-0.043
Mof_C 	C 	0.2788	0.8948	0.0512	-0.028
Mof_C 	C 	0.4002	0.9552	0.1063	-0.159
Mof_H 	H 	0.3934	0.9769	0.1217	0.075
Mof_C 	C 	0.4384	0.9531	0.0918	0.327
Mof_C 	C 	0.4477	0.9226	0.0684	-0.278
Mof_H 	H 	0.4728	0.9204	0.0574	0.156
Mof_C 	C 	0.4196	0.8946	0.0612	0.061
Mof_H 	H 	0.4254	0.8731	0.0451	0.013
Mof_C 	C 	0.3832	0.8982	0.0775	-0.041
Mof_H 	H 	0.3645	0.8785	0.0729	0.039
Mof_C 	C 	0.2301	0.9494	0.1281	0.034
Mof_H 	H 	0.2319	0.9478	0.1006	0.031
Mof_C 	C 	0.196	0.9603	0.1454	-0.03
Mof_C 	C 	0.1922	0.9613	0.185	0.006
Mof_H 	H 	0.1683	0.9685	0.1967	0.03
Mof_C 	C 	0.2221	0.9521	0.2061	-0.106
Mof_H 	H 	0.2201	0.9529	0.2335	0.074
Mof_C 	C 	0.2563	0.9414	0.1893	0.071
Mof_H 	H 	0.2773	0.934	0.2055	-0
Mof_C 	C 	0.468	0.9844	0.1025	-0.917
Mof_H 	H 	0.4727	0.9821	0.1298	0.414
Mof_H 	H 	0.4579	0.0098	0.0975	-0.109
Mof_C 	C 	0.1601	0.9757	0.1259	0.021
Mof_H 	H 	0.1457	0.993	0.1438	0.047
Mof_H 	H 	0.1428	0.954	0.1184	0.007
Mof_N 	N 	0.1998	0.9514	0.0297	-0.107
Mof_N 	N 	0.2935	0.9075	0.0776	-0.172
Mof_N 	N 	0.3733	0.9286	0.0997	-0.127
Mof_N 	N 	0.2612	0.941	0.1507	-0.177
Mof_O 	O 	0.1718	0.9967	0.0921	-0.339
Mof_H 	H 	0.18	0.007	0.072	0.24
Mof_O 	O 	0.5015	0.9825	0.0805	-1.025
Mof_H 	H 	0.516	0.977	0.0613	0.403
Mof_H 	H 	0.4545	0.0067	0.112	0.318
Mof_H 	H 	0.4822	0.9922	0.0799	0.9
Mof_C 	C 	0.1626	0.9647	0.1182	0.049
Mof_H 	H 	0.1386	0.9704	0.1328	0.005
Mof_H 	H 	0.1587	0.9406	0.1032	0.03
Mof_O 	O 	0.4958	0.9718	0.1297	-0.194
Mof_H 	H 	0.493	0.986	0.1498	0.045
Mof_C 	C 	0.7828	0.5747	0.0188	-0.043
Mof_C 	C 	0.7212	0.6052	0.0512	-0.028
Mof_C 	C 	0.5998	0.5448	0.1063	-0.162
Mof_H 	H 	0.6066	0.5231	0.1217	0.075
Mof_C 	C 	0.5616	0.5469	0.0918	0.333
Mof_C 	C 	0.5523	0.5774	0.0684	-0.282
Mof_H 	H 	0.5272	0.5796	0.0574	0.158
Mof_C 	C 	0.5804	0.6054	0.0612	0.064
Mof_H 	H 	0.5746	0.6269	0.0451	0.012
Mof_C 	C 	0.6168	0.6018	0.0775	-0.043
Mof_H 	H 	0.6355	0.6215	0.0729	0.04
Mof_C 	C 	0.7699	0.5506	0.1281	0.034
Mof_H 	H 	0.7681	0.5522	0.1006	0.031
Mof_C 	C 	0.804	0.5397	0.1454	-0.032
Mof_C 	C 	0.8078	0.5387	0.185	0.007
Mof_H 	H 	0.8317	0.5315	0.1967	0.029
Mof_C 	C 	0.7779	0.5479	0.2061	-0.107
Mof_H 	H 	0.7799	0.5471	0.2335	0.073
Mof_C 	C 	0.7437	0.5586	0.1893	0.071
Mof_H 	H 	0.7227	0.566	0.2055	-0
Mof_C 	C 	0.532	0.5156	0.1025	-0.935
Mof_H 	H 	0.5273	0.5179	0.1298	0.418
Mof_H 	H 	0.5421	0.4902	0.0975	-0.106
Mof_C 	C 	0.8399	0.5243	0.1259	0.022
Mof_H 	H 	0.8543	0.507	0.1438	0.046
Mof_H 	H 	0.8572	0.546	0.1184	0.006
Mof_N 	N 	0.8002	0.5486	0.0297	-0.108
Mof_N 	N 	0.7065	0.5925	0.0776	-0.172
Mof_N 	N 	0.6267	0.5714	0.0997	-0.126
Mof_N 	N 	0.7388	0.559	0.1507	-0.178
Mof_O 	O 	0.8282	0.5033	0.0921	-0.345
Mof_H 	H 	0.82	0.493	0.072	0.245
Mof_O 	O 	0.4985	0.5175	0.0805	-1.027
Mof_H 	H 	0.484	0.523	0.0613	0.402
Mof_H 	H 	0.5455	0.4933	0.112	0.323
Mof_H 	H 	0.5178	0.5078	0.0799	0.905
Mof_C 	C 	0.8374	0.5353	0.1182	0.05
Mof_H 	H 	0.8614	0.5296	0.1328	0.004
Mof_H 	H 	0.8413	0.5594	0.1032	0.03
Mof_O 	O 	0.5042	0.5282	0.1297	-0.192
Mof_H 	H 	0.507	0.514	0.1498	0.041
Mof_C 	C 	0.2828	0.0747	0.5188	-0.043
Mof_C 	C 	0.2212	0.1052	0.5512	-0.029
Mof_C 	C 	0.0998	0.0448	0.6063	-0.163
Mof_H 	H 	0.1066	0.0231	0.6217	0.075
Mof_C 	C 	0.0616	0.0469	0.5918	0.335
Mof_C 	C 	0.0523	0.0774	0.5684	-0.283
Mof_H 	H 	0.0272	0.0796	0.5574	0.157
Mof_C 	C 	0.0804	0.1054	0.5612	0.064
Mof_H 	H 	0.0746	0.1269	0.5451	0.013
Mof_C 	C 	0.1168	0.1018	0.5775	-0.043
Mof_H 	H 	0.1355	0.1215	0.5729	0.04
Mof_C 	C 	0.2699	0.0506	0.6281	0.034
Mof_H 	H 	0.2681	0.0522	0.6006	0.031
Mof_C 	C 	0.304	0.0397	0.6454	-0.034
Mof_C 	C 	0.3078	0.0387	0.685	0.008
Mof_H 	H 	0.3317	0.0315	0.6967	0.028
Mof_C 	C 	0.2779	0.0479	0.7061	-0.108
Mof_H 	H 	0.2799	0.0471	0.7335	0.073
Mof_C 	C 	0.2437	0.0586	0.6893	0.071
Mof_H 	H 	0.2227	0.066	0.7055	-0
Mof_C 	C 	0.032	0.0156	0.6025	-0.944
Mof_H 	H 	0.0273	0.0179	0.6298	0.421
Mof_H 	H 	0.0421	0.9902	0.5975	-0.1
Mof_C 	C 	0.3399	0.0243	0.6259	0.024
Mof_H 	H 	0.3543	0.007	0.6438	0.045
Mof_H 	H 	0.3572	0.046	0.6184	0.005
Mof_N 	N 	0.3002	0.0486	0.5297	-0.108
Mof_N 	N 	0.2065	0.0925	0.5776	-0.172
Mof_N 	N 	0.1267	0.0714	0.5997	-0.126
Mof_N 	N 	0.2388	0.059	0.6507	-0.178
Mof_O 	O 	0.3282	0.0033	0.5921	-0.352
Mof_H 	H 	0.32	0.993	0.572	0.251
Mof_O 	O 	0.9985	0.0175	0.5805	-1.014
Mof_H 	H 	0.984	0.023	0.5613	0.397
Mof_H 	H 	0.0455	0.9933	0.612	0.323
Mof_H 	H 	0.0178	0.0078	0.5799	0.898
Mof_C 	C 	0.3374	0.0353	0.6182	0.052
Mof_H 	H 	0.3614	0.0296	0.6328	0.004
Mof_H 	H 	0.3413	0.0594	0.6032	0.03
Mof_O 	O 	0.0042	0.0282	0.6297	-0.195
Mof_H 	H 	0.007	0.014	0.6498	0.039
Mof_C 	C 	0.2172	0.0747	0.4812	-0.043
Mof_C 	C 	0.2788	0.1052	0.4488	-0.029
Mof_C 	C 	0.4002	0.0448	0.3937	-0.165
Mof_H 	H 	0.3934	0.0231	0.3783	0.076
Mof_C 	C 	0.4384	0.0469	0.4082	0.339
Mof_C 	C 	0.4477	0.0774	0.4316	-0.286
Mof_H 	H 	0.4728	0.0796	0.4426	0.16
Mof_C 	C 	0.4196	0.1054	0.4388	0.066
Mof_H 	H 	0.4254	0.1269	0.4549	0.012
Mof_C 	C 	0.3832	0.1018	0.4225	-0.044
Mof_H 	H 	0.3645	0.1215	0.4271	0.04
Mof_C 	C 	0.2301	0.0506	0.3719	0.034
Mof_H 	H 	0.2319	0.0522	0.3994	0.031
Mof_C 	C 	0.196	0.0397	0.3546	-0.034
Mof_C 	C 	0.1922	0.0387	0.315	0.008
Mof_H 	H 	0.1683	0.0315	0.3033	0.028
Mof_C 	C 	0.2221	0.0479	0.2939	-0.108
Mof_H 	H 	0.2201	0.0471	0.2665	0.073
Mof_C 	C 	0.2563	0.0586	0.3107	0.071
Mof_H 	H 	0.2773	0.066	0.2945	-0
Mof_C 	C 	0.468	0.0156	0.3975	-0.954
Mof_H 	H 	0.4727	0.0179	0.3702	0.423
Mof_H 	H 	0.4579	0.9902	0.4025	-0.103
Mof_C 	C 	0.1601	0.0243	0.3741	0.024
Mof_H 	H 	0.1457	0.007	0.3562	0.045
Mof_H 	H 	0.1428	0.046	0.3816	0.005
Mof_N 	N 	0.1998	0.0486	0.4703	-0.108
Mof_N 	N 	0.2935	0.0925	0.4224	-0.172
Mof_N 	N 	0.3733	0.0714	0.4003	-0.125
Mof_N 	N 	0.2612	0.059	0.3493	-0.178
Mof_O 	O 	0.1718	0.0033	0.4079	-0.352
Mof_H 	H 	0.18	0.993	0.428	0.251
Mof_O 	O 	0.5015	0.0175	0.4195	-1.03
Mof_H 	H 	0.516	0.023	0.4387	0.402
Mof_H 	H 	0.4545	0.9933	0.388	0.328
Mof_H 	H 	0.4822	0.0078	0.4201	0.911
Mof_C 	C 	0.1626	0.0353	0.3818	0.052
Mof_H 	H 	0.1386	0.0296	0.3672	0.004
Mof_H 	H 	0.1587	0.0594	0.3968	0.03
Mof_O 	O 	0.4958	0.0282	0.3703	-0.19
Mof_H 	H 	0.493	0.014	0.3502	0.038
Mof_C 	C 	0.7172	0.5747	0.9812	-0.039
Mof_C 	C 	0.7788	0.6052	0.9488	-0.026
Mof_C 	C 	0.9002	0.5448	0.8937	-0.164
Mof_H 	H 	0.8934	0.5231	0.8783	0.076
Mof_C 	C 	0.9384	0.5469	0.9082	0.337
Mof_C 	C 	0.9477	0.5774	0.9316	-0.284
Mof_H 	H 	0.9728	0.5796	0.9426	0.16
Mof_C 	C 	0.9196	0.6054	0.9388	0.065
Mof_H 	H 	0.9254	0.6269	0.9549	0.013
Mof_C 	C 	0.8832	0.6018	0.9225	-0.043
Mof_H 	H 	0.8645	0.6215	0.9271	0.04
Mof_C 	C 	0.7301	0.5506	0.8719	0.034
Mof_H 	H 	0.7319	0.5522	0.8994	0.031
Mof_C 	C 	0.696	0.5397	0.8546	-0.032
Mof_C 	C 	0.6922	0.5387	0.815	0.007
Mof_H 	H 	0.6683	0.5315	0.8033	0.029
Mof_C 	C 	0.7221	0.5479	0.7939	-0.107
Mof_H 	H 	0.7201	0.5471	0.7665	0.073
Mof_C 	C 	0.7563	0.5586	0.8107	0.071
Mof_H 	H 	0.7773	0.566	0.7945	-0
Mof_C 	C 	0.968	0.5156	0.8975	-0.945
Mof_H 	H 	0.9727	0.5179	0.8702	0.42
Mof_H 	H 	0.9579	0.4902	0.9025	-0.109
Mof_C 	C 	0.6601	0.5243	0.8741	0.022
Mof_H 	H 	0.6457	0.507	0.8562	0.046
Mof_H 	H 	0.6428	0.546	0.8816	0.006
Mof_N 	N 	0.6998	0.5486	0.9703	-0.108
Mof_N 	N 	0.7935	0.5925	0.9224	-0.173
Mof_N 	N 	0.8733	0.5714	0.9003	-0.125
Mof_N 	N 	0.7612	0.559	0.8493	-0.178
Mof_O 	O 	0.6718	0.5033	0.9079	-0.345
Mof_H 	H 	0.68	0.493	0.928	0.246
Mof_O 	O 	0.0015	0.5175	0.9195	-1.044
Mof_H 	H 	0.016	0.523	0.9387	0.408
Mof_H 	H 	0.9545	0.4933	0.888	0.329
Mof_H 	H 	0.9822	0.5078	0.9201	0.92
Mof_C 	C 	0.6626	0.5353	0.8818	0.05
Mof_H 	H 	0.6386	0.5296	0.8672	0.004
Mof_H 	H 	0.6587	0.5594	0.8968	0.03
Mof_O 	O 	0.9958	0.5282	0.8703	-0.187
Mof_H 	H 	0.993	0.514	0.8502	0.04
Mof_C 	C 	0.5328	0.7312	0.8247	-0.043
Mof_C 	C 	0.4712	0.6988	0.8552	-0.029
Mof_C 	C 	0.3498	0.6437	0.7948	-0.162
Mof_H 	H 	0.3566	0.6283	0.7731	0.075
Mof_C 	C 	0.3116	0.6582	0.7969	0.333
Mof_C 	C 	0.3023	0.6816	0.8274	-0.282
Mof_H 	H 	0.2772	0.6926	0.8296	0.158
Mof_C 	C 	0.3304	0.6888	0.8554	0.063
Mof_H 	H 	0.3246	0.7049	0.8769	0.013
Mof_C 	C 	0.3668	0.6725	0.8518	-0.043
Mof_H 	H 	0.3855	0.6771	0.8715	0.04
Mof_C 	C 	0.5199	0.6219	0.8006	0.034
Mof_H 	H 	0.5181	0.6494	0.8022	0.031
Mof_C 	C 	0.554	0.6046	0.7897	-0.032
Mof_C 	C 	0.5578	0.565	0.7887	0.007
Mof_H 	H 	0.5817	0.5533	0.7815	0.029
Mof_C 	C 	0.5279	0.5439	0.7979	-0.107
Mof_H 	H 	0.5299	0.5165	0.7971	0.073
Mof_C 	C 	0.4937	0.5607	0.8086	0.071
Mof_H 	H 	0.4727	0.5445	0.816	-0
Mof_C 	C 	0.282	0.6475	0.7656	-0.936
Mof_H 	H 	0.2773	0.6202	0.7679	0.418
Mof_H 	H 	0.2921	0.6525	0.7402	-0.106
Mof_C 	C 	0.5899	0.6241	0.7743	0.022
Mof_H 	H 	0.6043	0.6062	0.757	0.046
Mof_H 	H 	0.6072	0.6316	0.796	0.006
Mof_N 	N 	0.5502	0.7203	0.7986	-0.107
Mof_N 	N 	0.4565	0.6724	0.8425	-0.172
Mof_N 	N 	0.3767	0.6503	0.8214	-0.126
Mof_N 	N 	0.4888	0.5993	0.809	-0.178
Mof_O 	O 	0.5782	0.6579	0.7533	-0.345
Mof_H 	H 	0.57	0.678	0.743	0.246
Mof_O 	O 	0.2485	0.6695	0.7675	-1.028
Mof_H 	H 	0.234	0.6887	0.773	0.403
Mof_H 	H 	0.2955	0.638	0.7433	0.323
Mof_H 	H 	0.2678	0.6701	0.7578	0.906
Mof_C 	C 	0.5874	0.6318	0.7853	0.05
Mof_H 	H 	0.6114	0.6172	0.7796	0.004
Mof_H 	H 	0.5913	0.6468	0.8094	0.03
Mof_O 	O 	0.2542	0.6203	0.7782	-0.192
Mof_H 	H 	0.257	0.6002	0.764	0.041
Mof_C 	C 	0.0328	0.2312	0.3247	-0.043
Mof_C 	C 	0.9712	0.1988	0.3552	-0.026
Mof_C 	C 	0.8498	0.1437	0.2948	-0.162
Mof_H 	H 	0.8566	0.1283	0.2731	0.075
Mof_C 	C 	0.8116	0.1582	0.2969	0.333
Mof_C 	C 	0.8023	0.1816	0.3274	-0.282
Mof_H 	H 	0.7772	0.1926	0.3296	0.158
Mof_C 	C 	0.8304	0.1888	0.3554	0.063
Mof_H 	H 	0.8246	0.2049	0.3769	0.013
Mof_C 	C 	0.8668	0.1725	0.3518	-0.042
Mof_H 	H 	0.8855	0.1771	0.3715	0.04
Mof_C 	C 	0.0199	0.1219	0.3006	0.031
Mof_H 	H 	0.0181	0.1494	0.3022	0.031
Mof_C 	C 	0.054	0.1046	0.2897	-0.034
Mof_C 	C 	0.0578	0.065	0.2887	0.012
Mof_H 	H 	0.0817	0.0533	0.2815	0.027
Mof_C 	C 	0.0279	0.0439	0.2979	-0.117
Mof_H 	H 	0.0299	0.0165	0.2971	0.074
Mof_C 	C 	0.9937	0.0607	0.3086	0.079
Mof_H 	H 	0.9727	0.0445	0.316	-0.003
Mof_C 	C 	0.782	0.1475	0.2656	-0.936
Mof_H 	H 	0.7773	0.1202	0.2679	0.418
Mof_H 	H 	0.7921	0.1525	0.2402	-0.106
Mof_C 	C 	0.0899	0.1241	0.2743	0.023
Mof_H 	H 	0.1043	0.1062	0.257	0.045
Mof_H 	H 	0.1072	0.1316	0.296	0.006
Mof_N 	N 	0.0502	0.2203	0.2986	-0.108
Mof_N 	N 	0.9565	0.1724	0.3425	-0.172
Mof_N 	N 	0.8767	0.1503	0.3214	-0.126
Mof_N 	N 	0.9888	0.0993	0.309	-0.177
Mof_O 	O 	0.0782	0.1579	0.2533	-0.346
Mof_H 	H 	0.07	0.178	0.243	0.245
Mof_O 	O 	0.7485	0.1695	0.2675	-1.028
Mof_H 	H 	0.734	0.1887	0.273	0.403
Mof_H 	H 	0.7955	0.138	0.2433	0.323
Mof_H 	H 	0.7678	0.1701	0.2578	0.906
Mof_C 	C 	0.0874	0.1318	0.2853	0.051
Mof_H 	H 	0.1114	0.1172	0.2796	0.004
Mof_H 	H 	0.0913	0.1468	0.3094	0.03
Mof_O 	O 	0.7542	0.1203	0.2782	-0.192
Mof_H 	H 	0.757	0.1002	0.264	0.041
Mof_C 	C 	0.9672	0.2688	0.3247	-0.039
Mof_C 	C 	0.0288	0.3012	0.3552	-0.029
Mof_C 	C 	0.1502	0.3563	0.2948	-0.162
Mof_H 	H 	0.1434	0.3717	0.2731	0.075
Mof_C 	C 	0.1884	0.3418	0.2969	0.333
Mof_C 	C 	0.1977	0.3184	0.3274	-0.282
Mof_H 	H 	0.2228	0.3074	0.3296	0.158
Mof_C 	C 	0.1696	0.3112	0.3554	0.063
Mof_H 	H 	0.1754	0.2951	0.3769	0.013
Mof_C 	C 	0.1332	0.3275	0.3518	-0.043
Mof_H 	H 	0.1145	0.3229	0.3715	0.04
Mof_C 	C 	0.9801	0.3781	0.3006	0.036
Mof_H 	H 	0.9819	0.3506	0.3022	0.031
Mof_C 	C 	0.946	0.3954	0.2897	-0.03
Mof_C 	C 	0.9422	0.435	0.2887	0.002
Mof_H 	H 	0.9183	0.4467	0.2815	0.031
Mof_C 	C 	0.9721	0.4561	0.2979	-0.098
Mof_H 	H 	0.9701	0.4835	0.2971	0.071
Mof_C 	C 	0.0063	0.4393	0.3086	0.063
Mof_H 	H 	0.0273	0.4555	0.316	0.002
Mof_C 	C 	0.218	0.3525	0.2656	-0.936
Mof_H 	H 	0.2227	0.3798	0.2679	0.418
Mof_H 	H 	0.2079	0.3475	0.2402	-0.106
Mof_C 	C 	0.9101	0.3759	0.2743	0.022
Mof_H 	H 	0.8957	0.3938	0.257	0.046
Mof_H 	H 	0.8928	0.3684	0.296	0.006
Mof_N 	N 	0.9498	0.2797	0.2986	-0.108
Mof_N 	N 	0.0435	0.3276	0.3425	-0.172
Mof_N 	N 	0.1233	0.3497	0.3214	-0.126
Mof_N 	N 	0.0112	0.4007	0.309	-0.178
Mof_O 	O 	0.9218	0.3421	0.2533	-0.345
Mof_H 	H 	0.93	0.322	0.243	0.246
Mof_O 	O 	0.2515	0.3305	0.2675	-1.028
Mof_H 	H 	0.266	0.3113	0.273	0.403
Mof_H 	H 	0.2045	0.362	0.2433	0.323
Mof_H 	H 	0.2322	0.3299	0.2578	0.906
Mof_C 	C 	0.9126	0.3682	0.2853	0.05
Mof_H 	H 	0.8886	0.3828	0.2796	0.004
Mof_H 	H 	0.9087	0.3532	0.3094	0.03
Mof_O 	O 	0.2458	0.3797	0.2782	-0.192
Mof_H 	H 	0.243	0.3998	0.264	0.041
Mof_C 	C 	0.4672	0.7688	0.8247	-0.043
Mof_C 	C 	0.5288	0.8012	0.8552	-0.029
Mof_C 	C 	0.6502	0.8563	0.7948	-0.162
Mof_H 	H 	0.6434	0.8717	0.7731	0.075
Mof_C 	C 	0.6884	0.8418	0.7969	0.333
Mof_C 	C 	0.6977	0.8184	0.8274	-0.282
Mof_H 	H 	0.7228	0.8074	0.8296	0.158
Mof_C 	C 	0.6696	0.8112	0.8554	0.063
Mof_H 	H 	0.6754	0.7951	0.8769	0.013
Mof_C 	C 	0.6332	0.8275	0.8518	-0.043
Mof_H 	H 	0.6145	0.8229	0.8715	0.04
Mof_C 	C 	0.4801	0.8781	0.8006	0.034
Mof_H 	H 	0.4819	0.8506	0.8022	0.031
Mof_C 	C 	0.446	0.8954	0.7897	-0.032
Mof_C 	C 	0.4422	0.935	0.7887	0.007
Mof_H 	H 	0.4183	0.9467	0.7815	0.029
Mof_C 	C 	0.4721	0.9561	0.7979	-0.107
Mof_H 	H 	0.4701	0.9835	0.7971	0.075
Mof_C 	C 	0.5063	0.9393	0.8086	0.071
Mof_H 	H 	0.5273	0.9555	0.816	0
Mof_C 	C 	0.718	0.8525	0.7656	-0.935
Mof_H 	H 	0.7227	0.8798	0.7679	0.418
Mof_H 	H 	0.7079	0.8475	0.7402	-0.106
Mof_C 	C 	0.4101	0.8759	0.7743	0.022
Mof_H 	H 	0.3957	0.8938	0.757	0.046
Mof_H 	H 	0.3928	0.8684	0.796	0.006
Mof_N 	N 	0.4498	0.7797	0.7986	-0.107
Mof_N 	N 	0.5435	0.8276	0.8425	-0.172
Mof_N 	N 	0.6233	0.8497	0.8214	-0.126
Mof_N 	N 	0.5112	0.9007	0.809	-0.178
Mof_O 	O 	0.4218	0.8421	0.7533	-0.345
Mof_H 	H 	0.43	0.822	0.743	0.246
Mof_O 	O 	0.7515	0.8305	0.7675	-1.028
Mof_H 	H 	0.766	0.8113	0.773	0.403
Mof_H 	H 	0.7045	0.862	0.7433	0.323
Mof_H 	H 	0.7322	0.8299	0.7578	0.906
Mof_C 	C 	0.4126	0.8682	0.7853	0.05
Mof_H 	H 	0.3886	0.8828	0.7796	0.004
Mof_H 	H 	0.4087	0.8532	0.8094	0.03
Mof_O 	O 	0.7458	0.8797	0.7782	-0.192
Mof_H 	H 	0.743	0.8998	0.764	0.041
Mof_C 	C 	0.0328	0.7688	0.1753	-0.043
Mof_C 	C 	0.9712	0.8012	0.1448	-0.026
Mof_C 	C 	0.8498	0.8563	0.2052	-0.162
Mof_H 	H 	0.8566	0.8717	0.2269	0.075
Mof_C 	C 	0.8116	0.8418	0.2031	0.333
Mof_C 	C 	0.8023	0.8184	0.1726	-0.282
Mof_H 	H 	0.7772	0.8074	0.1704	0.158
Mof_C 	C 	0.8304	0.8112	0.1446	0.063
Mof_H 	H 	0.8246	0.7951	0.1231	0.013
Mof_C 	C 	0.8668	0.8275	0.1482	-0.042
Mof_H 	H 	0.8855	0.8229	0.1285	0.04
Mof_C 	C 	0.0199	0.8781	0.1994	0.032
Mof_H 	H 	0.0181	0.8506	0.1978	0.031
Mof_C 	C 	0.054	0.8954	0.2103	-0.034
Mof_C 	C 	0.0578	0.935	0.2113	0.012
Mof_H 	H 	0.0817	0.9467	0.2185	0.028
Mof_C 	C 	0.0279	0.9561	0.2021	-0.116
Mof_H 	H 	0.0299	0.9835	0.2029	0.077
Mof_C 	C 	0.9937	0.9393	0.1914	0.079
Mof_H 	H 	0.9727	0.9555	0.184	-0.002
Mof_C 	C 	0.782	0.8525	0.2344	-0.935
Mof_H 	H 	0.7773	0.8798	0.2321	0.418
Mof_H 	H 	0.7921	0.8475	0.2598	-0.106
Mof_C 	C 	0.0899	0.8759	0.2257	0.022
Mof_H 	H 	0.1043	0.8938	0.243	0.046
Mof_H 	H 	0.1072	0.8684	0.204	0.006
Mof_N 	N 	0.0502	0.7797	0.2014	-0.108
Mof_N 	N 	0.9565	0.8276	0.1575	-0.172
Mof_N 	N 	0.8767	0.8497	0.1786	-0.126
Mof_N 	N 	0.9888	0.9007	0.191	-0.177
Mof_O 	O 	0.0782	0.8421	0.2467	-0.346
Mof_H 	H 	0.07	0.822	0.257	0.245
Mof_O 	O 	0.7485	0.8305	0.2325	-1.028
Mof_H 	H 	0.734	0.8113	0.227	0.403
Mof_H 	H 	0.7955	0.862	0.2567	0.323
Mof_H 	H 	0.7678	0.8299	0.2422	0.906
Mof_C 	C 	0.0874	0.8682	0.2147	0.051
Mof_H 	H 	0.1114	0.8828	0.2204	0.004
Mof_H 	H 	0.0913	0.8532	0.1906	0.03
Mof_O 	O 	0.7542	0.8797	0.2218	-0.192
Mof_H 	H 	0.757	0.8998	0.236	0.041
Mof_C 	C 	0.5328	0.2688	0.6753	-0.042
Mof_C 	C 	0.4712	0.3012	0.6448	-0.029
Mof_C 	C 	0.3498	0.3563	0.7052	-0.162
Mof_H 	H 	0.3566	0.3717	0.7269	0.075
Mof_C 	C 	0.3116	0.3418	0.7031	0.333
Mof_C 	C 	0.3023	0.3184	0.6726	-0.282
Mof_H 	H 	0.2772	0.3074	0.6704	0.158
Mof_C 	C 	0.3304	0.3112	0.6446	0.063
Mof_H 	H 	0.3246	0.2951	0.6231	0.013
Mof_C 	C 	0.3668	0.3275	0.6482	-0.043
Mof_H 	H 	0.3855	0.3229	0.6285	0.04
Mof_C 	C 	0.5199	0.3781	0.6994	0.034
Mof_H 	H 	0.5181	0.3506	0.6978	0.031
Mof_C 	C 	0.554	0.3954	0.7103	-0.032
Mof_C 	C 	0.5578	0.435	0.7113	0.007
Mof_H 	H 	0.5817	0.4467	0.7185	0.029
Mof_C 	C 	0.5279	0.4561	0.7021	-0.107
Mof_H 	H 	0.5299	0.4835	0.7029	0.073
Mof_C 	C 	0.4937	0.4393	0.6914	0.071
Mof_H 	H 	0.4727	0.4555	0.684	-0
Mof_C 	C 	0.282	0.3525	0.7344	-0.936
Mof_H 	H 	0.2773	0.3798	0.7321	0.418
Mof_H 	H 	0.2921	0.3475	0.7598	-0.106
Mof_C 	C 	0.5899	0.3759	0.7257	0.022
Mof_H 	H 	0.6043	0.3938	0.743	0.046
Mof_H 	H 	0.6072	0.3684	0.704	0.006
Mof_N 	N 	0.5502	0.2797	0.7014	-0.107
Mof_N 	N 	0.4565	0.3276	0.6575	-0.172
Mof_N 	N 	0.3767	0.3497	0.6786	-0.126
Mof_N 	N 	0.4888	0.4007	0.691	-0.178
Mof_O 	O 	0.5782	0.3421	0.7467	-0.345
Mof_H 	H 	0.57	0.322	0.757	0.246
Mof_O 	O 	0.2485	0.3305	0.7325	-1.028
Mof_H 	H 	0.234	0.3113	0.727	0.403
Mof_H 	H 	0.2955	0.362	0.7567	0.323
Mof_H 	H 	0.2678	0.3299	0.7422	0.906
Mof_C 	C 	0.5874	0.3682	0.7147	0.05
Mof_H 	H 	0.6114	0.3828	0.7204	0.004
Mof_H 	H 	0.5913	0.3532	0.6906	0.03
Mof_O 	O 	0.2542	0.3797	0.7218	-0.192
Mof_H 	H 	0.257	0.3998	0.736	0.041
Mof_C 	C 	0.4672	0.2312	0.6753	-0.042
Mof_C 	C 	0.5288	0.1988	0.6448	-0.029
Mof_C 	C 	0.6502	0.1437	0.7052	-0.162
Mof_H 	H 	0.6434	0.1283	0.7269	0.075
Mof_C 	C 	0.6884	0.1582	0.7031	0.333
Mof_C 	C 	0.6977	0.1816	0.6726	-0.282
Mof_H 	H 	0.7228	0.1926	0.6704	0.158
Mof_C 	C 	0.6696	0.1888	0.6446	0.063
Mof_H 	H 	0.6754	0.2049	0.6231	0.013
Mof_C 	C 	0.6332	0.1725	0.6482	-0.043
Mof_H 	H 	0.6145	0.1771	0.6285	0.04
Mof_C 	C 	0.4801	0.1219	0.6994	0.034
Mof_H 	H 	0.4819	0.1494	0.6978	0.031
Mof_C 	C 	0.446	0.1046	0.7103	-0.032
Mof_C 	C 	0.4422	0.065	0.7113	0.007
Mof_H 	H 	0.4183	0.0533	0.7185	0.028
Mof_C 	C 	0.4721	0.0439	0.7021	-0.107
Mof_H 	H 	0.4701	0.0165	0.7029	0.072
Mof_C 	C 	0.5063	0.0607	0.6914	0.071
Mof_H 	H 	0.5273	0.0445	0.684	-0.001
Mof_C 	C 	0.718	0.1475	0.7344	-0.936
Mof_H 	H 	0.7227	0.1202	0.7321	0.418
Mof_H 	H 	0.7079	0.1525	0.7598	-0.106
Mof_C 	C 	0.4101	0.1241	0.7257	0.022
Mof_H 	H 	0.3957	0.1062	0.743	0.046
Mof_H 	H 	0.3928	0.1316	0.704	0.006
Mof_N 	N 	0.4498	0.2203	0.7014	-0.107
Mof_N 	N 	0.5435	0.1724	0.6575	-0.172
Mof_N 	N 	0.6233	0.1503	0.6786	-0.126
Mof_N 	N 	0.5112	0.0993	0.691	-0.178
Mof_O 	O 	0.4218	0.1579	0.7467	-0.346
Mof_H 	H 	0.43	0.178	0.757	0.246
Mof_O 	O 	0.7515	0.1695	0.7325	-1.028
Mof_H 	H 	0.766	0.1887	0.727	0.403
Mof_H 	H 	0.7045	0.138	0.7567	0.323
Mof_H 	H 	0.7322	0.1701	0.7422	0.906
Mof_C 	C 	0.4126	0.1318	0.7147	0.05
Mof_H 	H 	0.3886	0.1172	0.7204	0.004
Mof_H 	H 	0.4087	0.1468	0.6906	0.03
Mof_O 	O 	0.7458	0.1203	0.7218	-0.192
Mof_H 	H 	0.743	0.1002	0.736	0.041
Mof_C 	C 	0.9672	0.7312	0.1753	-0.039
Mof_C 	C 	0.0288	0.6988	0.1448	-0.029
Mof_C 	C 	0.1502	0.6437	0.2052	-0.162
Mof_H 	H 	0.1434	0.6283	0.2269	0.075
Mof_C 	C 	0.1884	0.6582	0.2031	0.333
Mof_C 	C 	0.1977	0.6816	0.1726	-0.282
Mof_H 	H 	0.2228	0.6926	0.1704	0.158
Mof_C 	C 	0.1696	0.6888	0.1446	0.063
Mof_H 	H 	0.1754	0.7049	0.1231	0.013
Mof_C 	C 	0.1332	0.6725	0.1482	-0.043
Mof_H 	H 	0.1145	0.6771	0.1285	0.04
Mof_C 	C 	0.9801	0.6219	0.1994	0.036
Mof_H 	H 	0.9819	0.6494	0.1978	0.031
Mof_C 	C 	0.946	0.6046	0.2103	-0.03
Mof_C 	C 	0.9422	0.565	0.2113	0.002
Mof_H 	H 	0.9183	0.5533	0.2185	0.031
Mof_C 	C 	0.9721	0.5439	0.2021	-0.098
Mof_H 	H 	0.9701	0.5165	0.2029	0.071
Mof_C 	C 	0.0063	0.5607	0.1914	0.063
Mof_H 	H 	0.0273	0.5445	0.184	0.002
Mof_C 	C 	0.218	0.6475	0.2344	-0.936
Mof_H 	H 	0.2227	0.6202	0.2321	0.418
Mof_H 	H 	0.2079	0.6525	0.2598	-0.106
Mof_C 	C 	0.9101	0.6241	0.2257	0.022
Mof_H 	H 	0.8957	0.6062	0.243	0.046
Mof_H 	H 	0.8928	0.6316	0.204	0.006
Mof_N 	N 	0.9498	0.7203	0.2014	-0.108
Mof_N 	N 	0.0435	0.6724	0.1575	-0.172
Mof_N 	N 	0.1233	0.6503	0.1786	-0.126
Mof_N 	N 	0.0112	0.5993	0.191	-0.178
Mof_O 	O 	0.9218	0.6579	0.2467	-0.345
Mof_H 	H 	0.93	0.678	0.257	0.246
Mof_O 	O 	0.2515	0.6695	0.2325	-1.028
Mof_H 	H 	0.266	0.6887	0.227	0.403
Mof_H 	H 	0.2045	0.638	0.2567	0.323
Mof_H 	H 	0.2322	0.6701	0.2422	0.906
Mof_C 	C 	0.9126	0.6318	0.2147	0.05
Mof_H 	H 	0.8886	0.6172	0.2204	0.004
Mof_H 	H 	0.9087	0.6468	0.1906	0.03
Mof_O 	O 	0.2458	0.6203	0.2218	-0.192
Mof_H 	H 	0.243	0.6002	0.236	0.041
Mof_C 	C 	0.2312	0.6753	0.4672	-0.042
Mof_C 	C 	0.1988	0.6448	0.5288	-0.029
Mof_C 	C 	0.1437	0.7052	0.6502	-0.162
Mof_H 	H 	0.1283	0.7269	0.6434	0.075
Mof_C 	C 	0.1582	0.7031	0.6884	0.333
Mof_C 	C 	0.1816	0.6726	0.6977	-0.282
Mof_H 	H 	0.1926	0.6704	0.7228	0.158
Mof_C 	C 	0.1888	0.6446	0.6696	0.063
Mof_H 	H 	0.2049	0.6231	0.6754	0.013
Mof_C 	C 	0.1725	0.6482	0.6332	-0.043
Mof_H 	H 	0.1771	0.6285	0.6145	0.04
Mof_C 	C 	0.1219	0.6994	0.4801	0.034
Mof_H 	H 	0.1494	0.6978	0.4819	0.031
Mof_C 	C 	0.1046	0.7103	0.446	-0.032
Mof_C 	C 	0.065	0.7113	0.4422	0.007
Mof_H 	H 	0.0533	0.7185	0.4183	0.028
Mof_C 	C 	0.0439	0.7021	0.4721	-0.107
Mof_H 	H 	0.0165	0.7029	0.4701	0.072
Mof_C 	C 	0.0607	0.6914	0.5063	0.071
Mof_H 	H 	0.0445	0.684	0.5273	-0.001
Mof_C 	C 	0.1475	0.7344	0.718	-0.936
Mof_H 	H 	0.1202	0.7321	0.7227	0.418
Mof_H 	H 	0.1525	0.7598	0.7079	-0.106
Mof_C 	C 	0.1241	0.7257	0.4101	0.022
Mof_H 	H 	0.1062	0.743	0.3957	0.046
Mof_H 	H 	0.1316	0.704	0.3928	0.006
Mof_N 	N 	0.2203	0.7014	0.4498	-0.107
Mof_N 	N 	0.1724	0.6575	0.5435	-0.172
Mof_N 	N 	0.1503	0.6786	0.6233	-0.126
Mof_N 	N 	0.0993	0.691	0.5112	-0.178
Mof_O 	O 	0.1579	0.7467	0.4218	-0.346
Mof_H 	H 	0.178	0.757	0.43	0.246
Mof_O 	O 	0.1695	0.7325	0.7515	-1.028
Mof_H 	H 	0.1887	0.727	0.766	0.403
Mof_H 	H 	0.138	0.7567	0.7045	0.323
Mof_H 	H 	0.1701	0.7422	0.7322	0.906
Mof_C 	C 	0.1318	0.7147	0.4126	0.05
Mof_H 	H 	0.1172	0.7204	0.3886	0.004
Mof_H 	H 	0.1468	0.6906	0.4087	0.03
Mof_O 	O 	0.1203	0.7218	0.7458	-0.192
Mof_H 	H 	0.1002	0.736	0.743	0.041
Mof_C 	C 	0.7312	0.1753	0.9672	-0.039
Mof_C 	C 	0.6988	0.1448	0.0288	-0.029
Mof_C 	C 	0.6437	0.2052	0.1502	-0.162
Mof_H 	H 	0.6283	0.2269	0.1434	0.075
Mof_C 	C 	0.6582	0.2031	0.1884	0.333
Mof_C 	C 	0.6816	0.1726	0.1977	-0.282
Mof_H 	H 	0.6926	0.1704	0.2228	0.158
Mof_C 	C 	0.6888	0.1446	0.1696	0.063
Mof_H 	H 	0.7049	0.1231	0.1754	0.013
Mof_C 	C 	0.6725	0.1482	0.1332	-0.043
Mof_H 	H 	0.6771	0.1285	0.1145	0.04
Mof_C 	C 	0.6219	0.1994	0.9801	0.036
Mof_H 	H 	0.6494	0.1978	0.9819	0.031
Mof_C 	C 	0.6046	0.2103	0.946	-0.03
Mof_C 	C 	0.565	0.2113	0.9422	0.002
Mof_H 	H 	0.5533	0.2185	0.9183	0.031
Mof_C 	C 	0.5439	0.2021	0.9721	-0.098
Mof_H 	H 	0.5165	0.2029	0.9701	0.071
Mof_C 	C 	0.5607	0.1914	0.0063	0.063
Mof_H 	H 	0.5445	0.184	0.0273	0.002
Mof_C 	C 	0.6475	0.2344	0.218	-0.936
Mof_H 	H 	0.6202	0.2321	0.2227	0.418
Mof_H 	H 	0.6525	0.2598	0.2079	-0.106
Mof_C 	C 	0.6241	0.2257	0.9101	0.022
Mof_H 	H 	0.6062	0.243	0.8957	0.046
Mof_H 	H 	0.6316	0.204	0.8928	0.006
Mof_N 	N 	0.7203	0.2014	0.9498	-0.108
Mof_N 	N 	0.6724	0.1575	0.0435	-0.172
Mof_N 	N 	0.6503	0.1786	0.1233	-0.126
Mof_N 	N 	0.5993	0.191	0.0112	-0.178
Mof_O 	O 	0.6579	0.2467	0.9218	-0.345
Mof_H 	H 	0.678	0.257	0.93	0.246
Mof_O 	O 	0.6695	0.2325	0.2515	-1.028
Mof_H 	H 	0.6887	0.227	0.266	0.403
Mof_H 	H 	0.638	0.2567	0.2045	0.323
Mof_H 	H 	0.6701	0.2422	0.2322	0.906
Mof_C 	C 	0.6318	0.2147	0.9126	0.05
Mof_H 	H 	0.6172	0.2204	0.8886	0.004
Mof_H 	H 	0.6468	0.1906	0.9087	0.03
Mof_O 	O 	0.6203	0.2218	0.2458	-0.192
Mof_H 	H 	0.6002	0.236	0.243	0.041
Mof_C 	C 	0.7688	0.1753	0.0328	-0.043
Mof_C 	C 	0.8012	0.1448	0.9712	-0.026
Mof_C 	C 	0.8563	0.2052	0.8498	-0.162
Mof_H 	H 	0.8717	0.2269	0.8566	0.075
Mof_C 	C 	0.8418	0.2031	0.8116	0.333
Mof_C 	C 	0.8184	0.1726	0.8023	-0.282
Mof_H 	H 	0.8074	0.1704	0.7772	0.158
Mof_C 	C 	0.8112	0.1446	0.8304	0.063
Mof_H 	H 	0.7951	0.1231	0.8246	0.013
Mof_C 	C 	0.8275	0.1482	0.8668	-0.042
Mof_H 	H 	0.8229	0.1285	0.8855	0.04
Mof_C 	C 	0.8781	0.1994	0.0199	0.032
Mof_H 	H 	0.8506	0.1978	0.0181	0.031
Mof_C 	C 	0.8954	0.2103	0.054	-0.034
Mof_C 	C 	0.935	0.2113	0.0578	0.012
Mof_H 	H 	0.9467	0.2185	0.0817	0.028
Mof_C 	C 	0.9561	0.2021	0.0279	-0.116
Mof_H 	H 	0.9835	0.2029	0.0299	0.077
Mof_C 	C 	0.9393	0.1914	0.9937	0.079
Mof_H 	H 	0.9555	0.184	0.9727	-0.002
Mof_C 	C 	0.8525	0.2344	0.782	-0.935
Mof_H 	H 	0.8798	0.2321	0.7773	0.418
Mof_H 	H 	0.8475	0.2598	0.7921	-0.106
Mof_C 	C 	0.8759	0.2257	0.0899	0.022
Mof_H 	H 	0.8938	0.243	0.1043	0.046
Mof_H 	H 	0.8684	0.204	0.1072	0.006
Mof_N 	N 	0.7797	0.2014	0.0502	-0.108
Mof_N 	N 	0.8276	0.1575	0.9565	-0.172
Mof_N 	N 	0.8497	0.1786	0.8767	-0.126
Mof_N 	N 	0.9007	0.191	0.9888	-0.177
Mof_O 	O 	0.8421	0.2467	0.0782	-0.346
Mof_H 	H 	0.822	0.257	0.07	0.245
Mof_O 	O 	0.8305	0.2325	0.7485	-1.028
Mof_H 	H 	0.8113	0.227	0.734	0.403
Mof_H 	H 	0.862	0.2567	0.7955	0.323
Mof_H 	H 	0.8299	0.2422	0.7678	0.906
Mof_C 	C 	0.8682	0.2147	0.0874	0.051
Mof_H 	H 	0.8828	0.2204	0.1114	0.004
Mof_H 	H 	0.8532	0.1906	0.0913	0.03
Mof_O 	O 	0.8797	0.2218	0.7542	-0.192
Mof_H 	H 	0.8998	0.236	0.757	0.041
Mof_C 	C 	0.2688	0.6753	0.5328	-0.042
Mof_C 	C 	0.3012	0.6448	0.4712	-0.029
Mof_C 	C 	0.3563	0.7052	0.3498	-0.162
Mof_H 	H 	0.3717	0.7269	0.3566	0.075
Mof_C 	C 	0.3418	0.7031	0.3116	0.333
Mof_C 	C 	0.3184	0.6726	0.3023	-0.282
Mof_H 	H 	0.3074	0.6704	0.2772	0.158
Mof_C 	C 	0.3112	0.6446	0.3304	0.063
Mof_H 	H 	0.2951	0.6231	0.3246	0.013
Mof_C 	C 	0.3275	0.6482	0.3668	-0.043
Mof_H 	H 	0.3229	0.6285	0.3855	0.04
Mof_C 	C 	0.3781	0.6994	0.5199	0.034
Mof_H 	H 	0.3506	0.6978	0.5181	0.031
Mof_C 	C 	0.3954	0.7103	0.554	-0.032
Mof_C 	C 	0.435	0.7113	0.5578	0.007
Mof_H 	H 	0.4467	0.7185	0.5817	0.029
Mof_C 	C 	0.4561	0.7021	0.5279	-0.107
Mof_H 	H 	0.4835	0.7029	0.5299	0.073
Mof_C 	C 	0.4393	0.6914	0.4937	0.071
Mof_H 	H 	0.4555	0.684	0.4727	-0
Mof_C 	C 	0.3525	0.7344	0.282	-0.936
Mof_H 	H 	0.3798	0.7321	0.2773	0.418
Mof_H 	H 	0.3475	0.7598	0.2921	-0.106
Mof_C 	C 	0.3759	0.7257	0.5899	0.022
Mof_H 	H 	0.3938	0.743	0.6043	0.046
Mof_H 	H 	0.3684	0.704	0.6072	0.006
Mof_N 	N 	0.2797	0.7014	0.5502	-0.107
Mof_N 	N 	0.3276	0.6575	0.4565	-0.172
Mof_N 	N 	0.3497	0.6786	0.3767	-0.126
Mof_N 	N 	0.4007	0.691	0.4888	-0.178
Mof_O 	O 	0.3421	0.7467	0.5782	-0.345
Mof_H 	H 	0.322	0.757	0.57	0.246
Mof_O 	O 	0.3305	0.7325	0.2485	-1.028
Mof_H 	H 	0.3113	0.727	0.234	0.403
Mof_H 	H 	0.362	0.7567	0.2955	0.323
Mof_H 	H 	0.3299	0.7422	0.2678	0.906
Mof_C 	C 	0.3682	0.7147	0.5874	0.05
Mof_H 	H 	0.3828	0.7204	0.6114	0.004
Mof_H 	H 	0.3532	0.6906	0.5913	0.03
Mof_O 	O 	0.3797	0.7218	0.2542	-0.192
Mof_H 	H 	0.3998	0.736	0.257	0.041
Mof_C 	C 	0.2688	0.3247	0.9672	-0.039
Mof_C 	C 	0.3012	0.3552	0.0288	-0.029
Mof_C 	C 	0.3563	0.2948	0.1502	-0.162
Mof_H 	H 	0.3717	0.2731	0.1434	0.075
Mof_C 	C 	0.3418	0.2969	0.1884	0.333
Mof_C 	C 	0.3184	0.3274	0.1977	-0.282
Mof_H 	H 	0.3074	0.3296	0.2228	0.158
Mof_C 	C 	0.3112	0.3554	0.1696	0.063
Mof_H 	H 	0.2951	0.3769	0.1754	0.013
Mof_C 	C 	0.3275	0.3518	0.1332	-0.043
Mof_H 	H 	0.3229	0.3715	0.1145	0.04
Mof_C 	C 	0.3781	0.3006	0.9801	0.036
Mof_H 	H 	0.3506	0.3022	0.9819	0.031
Mof_C 	C 	0.3954	0.2897	0.946	-0.03
Mof_C 	C 	0.435	0.2887	0.9422	0.002
Mof_H 	H 	0.4467	0.2815	0.9183	0.031
Mof_C 	C 	0.4561	0.2979	0.9721	-0.098
Mof_H 	H 	0.4835	0.2971	0.9701	0.071
Mof_C 	C 	0.4393	0.3086	0.0063	0.063
Mof_H 	H 	0.4555	0.316	0.0273	0.002
Mof_C 	C 	0.3525	0.2656	0.218	-0.936
Mof_H 	H 	0.3798	0.2679	0.2227	0.418
Mof_H 	H 	0.3475	0.2402	0.2079	-0.106
Mof_C 	C 	0.3759	0.2743	0.9101	0.022
Mof_H 	H 	0.3938	0.257	0.8957	0.046
Mof_H 	H 	0.3684	0.296	0.8928	0.006
Mof_N 	N 	0.2797	0.2986	0.9498	-0.108
Mof_N 	N 	0.3276	0.3425	0.0435	-0.172
Mof_N 	N 	0.3497	0.3214	0.1233	-0.126
Mof_N 	N 	0.4007	0.309	0.0112	-0.178
Mof_O 	O 	0.3421	0.2533	0.9218	-0.345
Mof_H 	H 	0.322	0.243	0.93	0.246
Mof_O 	O 	0.3305	0.2675	0.2515	-1.028
Mof_H 	H 	0.3113	0.273	0.266	0.403
Mof_H 	H 	0.362	0.2433	0.2045	0.323
Mof_H 	H 	0.3299	0.2578	0.2322	0.906
Mof_C 	C 	0.3682	0.2853	0.9126	0.05
Mof_H 	H 	0.3828	0.2796	0.8886	0.004
Mof_H 	H 	0.3532	0.3094	0.9087	0.03
Mof_O 	O 	0.3797	0.2782	0.2458	-0.192
Mof_H 	H 	0.3998	0.264	0.243	0.041
Mof_C 	C 	0.7688	0.8247	0.4672	-0.043
Mof_C 	C 	0.8012	0.8552	0.5288	-0.029
Mof_C 	C 	0.8563	0.7948	0.6502	-0.162
Mof_H 	H 	0.8717	0.7731	0.6434	0.075
Mof_C 	C 	0.8418	0.7969	0.6884	0.333
Mof_C 	C 	0.8184	0.8274	0.6977	-0.282
Mof_H 	H 	0.8074	0.8296	0.7228	0.158
Mof_C 	C 	0.8112	0.8554	0.6696	0.063
Mof_H 	H 	0.7951	0.8769	0.6754	0.013
Mof_C 	C 	0.8275	0.8518	0.6332	-0.043
Mof_H 	H 	0.8229	0.8715	0.6145	0.04
Mof_C 	C 	0.8781	0.8006	0.4801	0.034
Mof_H 	H 	0.8506	0.8022	0.4819	0.031
Mof_C 	C 	0.8954	0.7897	0.446	-0.032
Mof_C 	C 	0.935	0.7887	0.4422	0.007
Mof_H 	H 	0.9467	0.7815	0.4183	0.029
Mof_C 	C 	0.9561	0.7979	0.4721	-0.107
Mof_H 	H 	0.9835	0.7971	0.4701	0.075
Mof_C 	C 	0.9393	0.8086	0.5063	0.071
Mof_H 	H 	0.9555	0.816	0.5273	0
Mof_C 	C 	0.8525	0.7656	0.718	-0.935
Mof_H 	H 	0.8798	0.7679	0.7227	0.418
Mof_H 	H 	0.8475	0.7402	0.7079	-0.106
Mof_C 	C 	0.8759	0.7743	0.4101	0.022
Mof_H 	H 	0.8938	0.757	0.3957	0.046
Mof_H 	H 	0.8684	0.796	0.3928	0.006
Mof_N 	N 	0.7797	0.7986	0.4498	-0.107
Mof_N 	N 	0.8276	0.8425	0.5435	-0.172
Mof_N 	N 	0.8497	0.8214	0.6233	-0.126
Mof_N 	N 	0.9007	0.809	0.5112	-0.178
Mof_O 	O 	0.8421	0.7533	0.4218	-0.345
Mof_H 	H 	0.822	0.743	0.43	0.246
Mof_O 	O 	0.8305	0.7675	0.7515	-1.028
Mof_H 	H 	0.8113	0.773	0.766	0.403
Mof_H 	H 	0.862	0.7433	0.7045	0.323
Mof_H 	H 	0.8299	0.7578	0.7322	0.906
Mof_C 	C 	0.8682	0.7853	0.4126	0.05
Mof_H 	H 	0.8828	0.7796	0.3886	0.004
Mof_H 	H 	0.8532	0.8094	0.4087	0.03
Mof_O 	O 	0.8797	0.7782	0.7458	-0.192
Mof_H 	H 	0.8998	0.764	0.743	0.041
Mof_C 	C 	0.7312	0.8247	0.5328	-0.043
Mof_C 	C 	0.6988	0.8552	0.4712	-0.029
Mof_C 	C 	0.6437	0.7948	0.3498	-0.162
Mof_H 	H 	0.6283	0.7731	0.3566	0.075
Mof_C 	C 	0.6582	0.7969	0.3116	0.333
Mof_C 	C 	0.6816	0.8274	0.3023	-0.282
Mof_H 	H 	0.6926	0.8296	0.2772	0.158
Mof_C 	C 	0.6888	0.8554	0.3304	0.063
Mof_H 	H 	0.7049	0.8769	0.3246	0.013
Mof_C 	C 	0.6725	0.8518	0.3668	-0.043
Mof_H 	H 	0.6771	0.8715	0.3855	0.04
Mof_C 	C 	0.6219	0.8006	0.5199	0.034
Mof_H 	H 	0.6494	0.8022	0.5181	0.031
Mof_C 	C 	0.6046	0.7897	0.554	-0.032
Mof_C 	C 	0.565	0.7887	0.5578	0.007
Mof_H 	H 	0.5533	0.7815	0.5817	0.029
Mof_C 	C 	0.5439	0.7979	0.5279	-0.107
Mof_H 	H 	0.5165	0.7971	0.5299	0.073
Mof_C 	C 	0.5607	0.8086	0.4937	0.071
Mof_H 	H 	0.5445	0.816	0.4727	-0
Mof_C 	C 	0.6475	0.7656	0.282	-0.936
Mof_H 	H 	0.6202	0.7679	0.2773	0.418
Mof_H 	H 	0.6525	0.7402	0.2921	-0.106
Mof_C 	C 	0.6241	0.7743	0.5899	0.022
Mof_H 	H 	0.6062	0.757	0.6043	0.046
Mof_H 	H 	0.6316	0.796	0.6072	0.006
Mof_N 	N 	0.7203	0.7986	0.5502	-0.107
Mof_N 	N 	0.6724	0.8425	0.4565	-0.172
Mof_N 	N 	0.6503	0.8214	0.3767	-0.126
Mof_N 	N 	0.5993	0.809	0.4888	-0.178
Mof_O 	O 	0.6579	0.7533	0.5782	-0.345
Mof_H 	H 	0.678	0.743	0.57	0.246
Mof_O 	O 	0.6695	0.7675	0.2485	-1.028
Mof_H 	H 	0.6887	0.773	0.234	0.403
Mof_H 	H 	0.638	0.7433	0.2955	0.323
Mof_H 	H 	0.6701	0.7578	0.2678	0.906
Mof_C 	C 	0.6318	0.7853	0.5874	0.05
Mof_H 	H 	0.6172	0.7796	0.6114	0.004
Mof_H 	H 	0.6468	0.8094	0.5913	0.03
Mof_O 	O 	0.6203	0.7782	0.2542	-0.192
Mof_H 	H 	0.6002	0.764	0.257	0.041
Mof_C 	C 	0.2312	0.3247	0.0328	-0.043
Mof_C 	C 	0.1988	0.3552	0.9712	-0.026
Mof_C 	C 	0.1437	0.2948	0.8498	-0.162
Mof_H 	H 	0.1283	0.2731	0.8566	0.075
Mof_C 	C 	0.1582	0.2969	0.8116	0.333
Mof_C 	C 	0.1816	0.3274	0.8023	-0.282
Mof_H 	H 	0.1926	0.3296	0.7772	0.158
Mof_C 	C 	0.1888	0.3554	0.8304	0.063
Mof_H 	H 	0.2049	0.3769	0.8246	0.013
Mof_C 	C 	0.1725	0.3518	0.8668	-0.042
Mof_H 	H 	0.1771	0.3715	0.8855	0.04
Mof_C 	C 	0.1219	0.3006	0.0199	0.031
Mof_H 	H 	0.1494	0.3022	0.0181	0.031
Mof_C 	C 	0.1046	0.2897	0.054	-0.034
Mof_C 	C 	0.065	0.2887	0.0578	0.012
Mof_H 	H 	0.0533	0.2815	0.0817	0.027
Mof_C 	C 	0.0439	0.2979	0.0279	-0.117
Mof_H 	H 	0.0165	0.2971	0.0299	0.074
Mof_C 	C 	0.0607	0.3086	0.9937	0.079
Mof_H 	H 	0.0445	0.316	0.9727	-0.003
Mof_C 	C 	0.1475	0.2656	0.782	-0.936
Mof_H 	H 	0.1202	0.2679	0.7773	0.418
Mof_H 	H 	0.1525	0.2402	0.7921	-0.106
Mof_C 	C 	0.1241	0.2743	0.0899	0.023
Mof_H 	H 	0.1062	0.257	0.1043	0.045
Mof_H 	H 	0.1316	0.296	0.1072	0.006
Mof_N 	N 	0.2203	0.2986	0.0502	-0.108
Mof_N 	N 	0.1724	0.3425	0.9565	-0.172
Mof_N 	N 	0.1503	0.3214	0.8767	-0.126
Mof_N 	N 	0.0993	0.309	0.9888	-0.177
Mof_O 	O 	0.1579	0.2533	0.0782	-0.346
Mof_H 	H 	0.178	0.243	0.07	0.245
Mof_O 	O 	0.1695	0.2675	0.7485	-1.028
Mof_H 	H 	0.1887	0.273	0.734	0.403
Mof_H 	H 	0.138	0.2433	0.7955	0.323
Mof_H 	H 	0.1701	0.2578	0.7678	0.906
Mof_C 	C 	0.1318	0.2853	0.0874	0.051
Mof_H 	H 	0.1172	0.2796	0.1114	0.004
Mof_H 	H 	0.1468	0.3094	0.0913	0.03
Mof_O 	O 	0.1203	0.2782	0.7542	-0.192
Mof_H 	H 	0.1002	0.264	0.757	0.041
Mof_C 	C 	0.1753	0.0328	0.7688	-0.043
Mof_C 	C 	0.1448	0.9712	0.8012	-0.026
Mof_C 	C 	0.2052	0.8498	0.8563	-0.162
Mof_H 	H 	0.2269	0.8566	0.8717	0.075
Mof_C 	C 	0.2031	0.8116	0.8418	0.333
Mof_C 	C 	0.1726	0.8023	0.8184	-0.282
Mof_H 	H 	0.1704	0.7772	0.8074	0.158
Mof_C 	C 	0.1446	0.8304	0.8112	0.063
Mof_H 	H 	0.1231	0.8246	0.7951	0.013
Mof_C 	C 	0.1482	0.8668	0.8275	-0.042
Mof_H 	H 	0.1285	0.8855	0.8229	0.04
Mof_C 	C 	0.1994	0.0199	0.8781	0.032
Mof_H 	H 	0.1978	0.0181	0.8506	0.031
Mof_C 	C 	0.2103	0.054	0.8954	-0.034
Mof_C 	C 	0.2113	0.0578	0.935	0.012
Mof_H 	H 	0.2185	0.0817	0.9467	0.028
Mof_C 	C 	0.2021	0.0279	0.9561	-0.116
Mof_H 	H 	0.2029	0.0299	0.9835	0.077
Mof_C 	C 	0.1914	0.9937	0.9393	0.079
Mof_H 	H 	0.184	0.9727	0.9555	-0.002
Mof_C 	C 	0.2344	0.782	0.8525	-0.935
Mof_H 	H 	0.2321	0.7773	0.8798	0.418
Mof_H 	H 	0.2598	0.7921	0.8475	-0.106
Mof_C 	C 	0.2257	0.0899	0.8759	0.022
Mof_H 	H 	0.243	0.1043	0.8938	0.046
Mof_H 	H 	0.204	0.1072	0.8684	0.006
Mof_N 	N 	0.2014	0.0502	0.7797	-0.108
Mof_N 	N 	0.1575	0.9565	0.8276	-0.172
Mof_N 	N 	0.1786	0.8767	0.8497	-0.126
Mof_N 	N 	0.191	0.9888	0.9007	-0.177
Mof_O 	O 	0.2467	0.0782	0.8421	-0.346
Mof_H 	H 	0.257	0.07	0.822	0.245
Mof_O 	O 	0.2325	0.7485	0.8305	-1.028
Mof_H 	H 	0.227	0.734	0.8113	0.403
Mof_H 	H 	0.2567	0.7955	0.862	0.323
Mof_H 	H 	0.2422	0.7678	0.8299	0.906
Mof_C 	C 	0.2147	0.0874	0.8682	0.051
Mof_H 	H 	0.2204	0.1114	0.8828	0.004
Mof_H 	H 	0.1906	0.0913	0.8532	0.03
Mof_O 	O 	0.2218	0.7542	0.8797	-0.192
Mof_H 	H 	0.236	0.757	0.8998	0.041
Mof_C 	C 	0.6753	0.5328	0.2688	-0.042
Mof_C 	C 	0.6448	0.4712	0.3012	-0.029
Mof_C 	C 	0.7052	0.3498	0.3563	-0.162
Mof_H 	H 	0.7269	0.3566	0.3717	0.075
Mof_C 	C 	0.7031	0.3116	0.3418	0.333
Mof_C 	C 	0.6726	0.3023	0.3184	-0.282
Mof_H 	H 	0.6704	0.2772	0.3074	0.158
Mof_C 	C 	0.6446	0.3304	0.3112	0.063
Mof_H 	H 	0.6231	0.3246	0.2951	0.013
Mof_C 	C 	0.6482	0.3668	0.3275	-0.043
Mof_H 	H 	0.6285	0.3855	0.3229	0.04
Mof_C 	C 	0.6994	0.5199	0.3781	0.034
Mof_H 	H 	0.6978	0.5181	0.3506	0.031
Mof_C 	C 	0.7103	0.554	0.3954	-0.032
Mof_C 	C 	0.7113	0.5578	0.435	0.007
Mof_H 	H 	0.7185	0.5817	0.4467	0.029
Mof_C 	C 	0.7021	0.5279	0.4561	-0.107
Mof_H 	H 	0.7029	0.5299	0.4835	0.073
Mof_C 	C 	0.6914	0.4937	0.4393	0.071
Mof_H 	H 	0.684	0.4727	0.4555	-0
Mof_C 	C 	0.7344	0.282	0.3525	-0.936
Mof_H 	H 	0.7321	0.2773	0.3798	0.418
Mof_H 	H 	0.7598	0.2921	0.3475	-0.106
Mof_C 	C 	0.7257	0.5899	0.3759	0.022
Mof_H 	H 	0.743	0.6043	0.3938	0.046
Mof_H 	H 	0.704	0.6072	0.3684	0.006
Mof_N 	N 	0.7014	0.5502	0.2797	-0.107
Mof_N 	N 	0.6575	0.4565	0.3276	-0.172
Mof_N 	N 	0.6786	0.3767	0.3497	-0.126
Mof_N 	N 	0.691	0.4888	0.4007	-0.178
Mof_O 	O 	0.7467	0.5782	0.3421	-0.345
Mof_H 	H 	0.757	0.57	0.322	0.246
Mof_O 	O 	0.7325	0.2485	0.3305	-1.028
Mof_H 	H 	0.727	0.234	0.3113	0.403
Mof_H 	H 	0.7567	0.2955	0.362	0.323
Mof_H 	H 	0.7422	0.2678	0.3299	0.906
Mof_C 	C 	0.7147	0.5874	0.3682	0.05
Mof_H 	H 	0.7204	0.6114	0.3828	0.004
Mof_H 	H 	0.6906	0.5913	0.3532	0.03
Mof_O 	O 	0.7218	0.2542	0.3797	-0.192
Mof_H 	H 	0.736	0.257	0.3998	0.041
Mof_C 	C 	0.6753	0.4672	0.2312	-0.042
Mof_C 	C 	0.6448	0.5288	0.1988	-0.029
Mof_C 	C 	0.7052	0.6502	0.1437	-0.162
Mof_H 	H 	0.7269	0.6434	0.1283	0.075
Mof_C 	C 	0.7031	0.6884	0.1582	0.333
Mof_C 	C 	0.6726	0.6977	0.1816	-0.282
Mof_H 	H 	0.6704	0.7228	0.1926	0.158
Mof_C 	C 	0.6446	0.6696	0.1888	0.063
Mof_H 	H 	0.6231	0.6754	0.2049	0.013
Mof_C 	C 	0.6482	0.6332	0.1725	-0.043
Mof_H 	H 	0.6285	0.6145	0.1771	0.04
Mof_C 	C 	0.6994	0.4801	0.1219	0.034
Mof_H 	H 	0.6978	0.4819	0.1494	0.031
Mof_C 	C 	0.7103	0.446	0.1046	-0.032
Mof_C 	C 	0.7113	0.4422	0.065	0.007
Mof_H 	H 	0.7185	0.4183	0.0533	0.028
Mof_C 	C 	0.7021	0.4721	0.0439	-0.107
Mof_H 	H 	0.7029	0.4701	0.0165	0.072
Mof_C 	C 	0.6914	0.5063	0.0607	0.071
Mof_H 	H 	0.684	0.5273	0.0445	-0.001
Mof_C 	C 	0.7344	0.718	0.1475	-0.936
Mof_H 	H 	0.7321	0.7227	0.1202	0.418
Mof_H 	H 	0.7598	0.7079	0.1525	-0.106
Mof_C 	C 	0.7257	0.4101	0.1241	0.022
Mof_H 	H 	0.743	0.3957	0.1062	0.046
Mof_H 	H 	0.704	0.3928	0.1316	0.006
Mof_N 	N 	0.7014	0.4498	0.2203	-0.107
Mof_N 	N 	0.6575	0.5435	0.1724	-0.172
Mof_N 	N 	0.6786	0.6233	0.1503	-0.126
Mof_N 	N 	0.691	0.5112	0.0993	-0.178
Mof_O 	O 	0.7467	0.4218	0.1579	-0.346
Mof_H 	H 	0.757	0.43	0.178	0.246
Mof_O 	O 	0.7325	0.7515	0.1695	-1.028
Mof_H 	H 	0.727	0.766	0.1887	0.403
Mof_H 	H 	0.7567	0.7045	0.138	0.323
Mof_H 	H 	0.7422	0.7322	0.1701	0.906
Mof_C 	C 	0.7147	0.4126	0.1318	0.05
Mof_H 	H 	0.7204	0.3886	0.1172	0.004
Mof_H 	H 	0.6906	0.4087	0.1468	0.03
Mof_O 	O 	0.7218	0.7458	0.1203	-0.192
Mof_H 	H 	0.736	0.743	0.1002	0.041
Mof_C 	C 	0.1753	0.9672	0.7312	-0.039
Mof_C 	C 	0.1448	0.0288	0.6988	-0.029
Mof_C 	C 	0.2052	0.1502	0.6437	-0.162
Mof_H 	H 	0.2269	0.1434	0.6283	0.075
Mof_C 	C 	0.2031	0.1884	0.6582	0.333
Mof_C 	C 	0.1726	0.1977	0.6816	-0.282
Mof_H 	H 	0.1704	0.2228	0.6926	0.158
Mof_C 	C 	0.1446	0.1696	0.6888	0.063
Mof_H 	H 	0.1231	0.1754	0.7049	0.013
Mof_C 	C 	0.1482	0.1332	0.6725	-0.043
Mof_H 	H 	0.1285	0.1145	0.6771	0.04
Mof_C 	C 	0.1994	0.9801	0.6219	0.036
Mof_H 	H 	0.1978	0.9819	0.6494	0.031
Mof_C 	C 	0.2103	0.946	0.6046	-0.03
Mof_C 	C 	0.2113	0.9422	0.565	0.002
Mof_H 	H 	0.2185	0.9183	0.5533	0.031
Mof_C 	C 	0.2021	0.9721	0.5439	-0.098
Mof_H 	H 	0.2029	0.9701	0.5165	0.071
Mof_C 	C 	0.1914	0.0063	0.5607	0.063
Mof_H 	H 	0.184	0.0273	0.5445	0.002
Mof_C 	C 	0.2344	0.218	0.6475	-0.936
Mof_H 	H 	0.2321	0.2227	0.6202	0.418
Mof_H 	H 	0.2598	0.2079	0.6525	-0.106
Mof_C 	C 	0.2257	0.9101	0.6241	0.022
Mof_H 	H 	0.243	0.8957	0.6062	0.046
Mof_H 	H 	0.204	0.8928	0.6316	0.006
Mof_N 	N 	0.2014	0.9498	0.7203	-0.108
Mof_N 	N 	0.1575	0.0435	0.6724	-0.172
Mof_N 	N 	0.1786	0.1233	0.6503	-0.126
Mof_N 	N 	0.191	0.0112	0.5993	-0.178
Mof_O 	O 	0.2467	0.9218	0.6579	-0.345
Mof_H 	H 	0.257	0.93	0.678	0.246
Mof_O 	O 	0.2325	0.2515	0.6695	-1.028
Mof_H 	H 	0.227	0.266	0.6887	0.403
Mof_H 	H 	0.2567	0.2045	0.638	0.323
Mof_H 	H 	0.2422	0.2322	0.6701	0.906
Mof_C 	C 	0.2147	0.9126	0.6318	0.05
Mof_H 	H 	0.2204	0.8886	0.6172	0.004
Mof_H 	H 	0.1906	0.9087	0.6468	0.03
Mof_O 	O 	0.2218	0.2458	0.6203	-0.192
Mof_H 	H 	0.236	0.243	0.6002	0.041
Mof_C 	C 	0.8247	0.5328	0.7312	-0.043
Mof_C 	C 	0.8552	0.4712	0.6988	-0.029
Mof_C 	C 	0.7948	0.3498	0.6437	-0.162
Mof_H 	H 	0.7731	0.3566	0.6283	0.075
Mof_C 	C 	0.7969	0.3116	0.6582	0.333
Mof_C 	C 	0.8274	0.3023	0.6816	-0.282
Mof_H 	H 	0.8296	0.2772	0.6926	0.158
Mof_C 	C 	0.8554	0.3304	0.6888	0.063
Mof_H 	H 	0.8769	0.3246	0.7049	0.013
Mof_C 	C 	0.8518	0.3668	0.6725	-0.043
Mof_H 	H 	0.8715	0.3855	0.6771	0.04
Mof_C 	C 	0.8006	0.5199	0.6219	0.034
Mof_H 	H 	0.8022	0.5181	0.6494	0.031
Mof_C 	C 	0.7897	0.554	0.6046	-0.032
Mof_C 	C 	0.7887	0.5578	0.565	0.007
Mof_H 	H 	0.7815	0.5817	0.5533	0.029
Mof_C 	C 	0.7979	0.5279	0.5439	-0.107
Mof_H 	H 	0.7971	0.5299	0.5165	0.073
Mof_C 	C 	0.8086	0.4937	0.5607	0.071
Mof_H 	H 	0.816	0.4727	0.5445	-0
Mof_C 	C 	0.7656	0.282	0.6475	-0.936
Mof_H 	H 	0.7679	0.2773	0.6202	0.418
Mof_H 	H 	0.7402	0.2921	0.6525	-0.106
Mof_C 	C 	0.7743	0.5899	0.6241	0.022
Mof_H 	H 	0.757	0.6043	0.6062	0.046
Mof_H 	H 	0.796	0.6072	0.6316	0.006
Mof_N 	N 	0.7986	0.5502	0.7203	-0.107
Mof_N 	N 	0.8425	0.4565	0.6724	-0.172
Mof_N 	N 	0.8214	0.3767	0.6503	-0.126
Mof_N 	N 	0.809	0.4888	0.5993	-0.178
Mof_O 	O 	0.7533	0.5782	0.6579	-0.345
Mof_H 	H 	0.743	0.57	0.678	0.246
Mof_O 	O 	0.7675	0.2485	0.6695	-1.028
Mof_H 	H 	0.773	0.234	0.6887	0.403
Mof_H 	H 	0.7433	0.2955	0.638	0.323
Mof_H 	H 	0.7578	0.2678	0.6701	0.906
Mof_C 	C 	0.7853	0.5874	0.6318	0.05
Mof_H 	H 	0.7796	0.6114	0.6172	0.004
Mof_H 	H 	0.8094	0.5913	0.6468	0.03
Mof_O 	O 	0.7782	0.2542	0.6203	-0.192
Mof_H 	H 	0.764	0.257	0.6002	0.041
Mof_C 	C 	0.3247	0.0328	0.2312	-0.043
Mof_C 	C 	0.3552	0.9712	0.1988	-0.026
Mof_C 	C 	0.2948	0.8498	0.1437	-0.162
Mof_H 	H 	0.2731	0.8566	0.1283	0.075
Mof_C 	C 	0.2969	0.8116	0.1582	0.333
Mof_C 	C 	0.3274	0.8023	0.1816	-0.282
Mof_H 	H 	0.3296	0.7772	0.1926	0.158
Mof_C 	C 	0.3554	0.8304	0.1888	0.063
Mof_H 	H 	0.3769	0.8246	0.2049	0.013
Mof_C 	C 	0.3518	0.8668	0.1725	-0.042
Mof_H 	H 	0.3715	0.8855	0.1771	0.04
Mof_C 	C 	0.3006	0.0199	0.1219	0.031
Mof_H 	H 	0.3022	0.0181	0.1494	0.031
Mof_C 	C 	0.2897	0.054	0.1046	-0.034
Mof_C 	C 	0.2887	0.0578	0.065	0.012
Mof_H 	H 	0.2815	0.0817	0.0533	0.027
Mof_C 	C 	0.2979	0.0279	0.0439	-0.117
Mof_H 	H 	0.2971	0.0299	0.0165	0.074
Mof_C 	C 	0.3086	0.9937	0.0607	0.079
Mof_H 	H 	0.316	0.9727	0.0445	-0.003
Mof_C 	C 	0.2656	0.782	0.1475	-0.936
Mof_H 	H 	0.2679	0.7773	0.1202	0.418
Mof_H 	H 	0.2402	0.7921	0.1525	-0.106
Mof_C 	C 	0.2743	0.0899	0.1241	0.023
Mof_H 	H 	0.257	0.1043	0.1062	0.045
Mof_H 	H 	0.296	0.1072	0.1316	0.006
Mof_N 	N 	0.2986	0.0502	0.2203	-0.108
Mof_N 	N 	0.3425	0.9565	0.1724	-0.172
Mof_N 	N 	0.3214	0.8767	0.1503	-0.126
Mof_N 	N 	0.309	0.9888	0.0993	-0.177
Mof_O 	O 	0.2533	0.0782	0.1579	-0.346
Mof_H 	H 	0.243	0.07	0.178	0.245
Mof_O 	O 	0.2675	0.7485	0.1695	-1.028
Mof_H 	H 	0.273	0.734	0.1887	0.403
Mof_H 	H 	0.2433	0.7955	0.138	0.323
Mof_H 	H 	0.2578	0.7678	0.1701	0.906
Mof_C 	C 	0.2853	0.0874	0.1318	0.051
Mof_H 	H 	0.2796	0.1114	0.1172	0.004
Mof_H 	H 	0.3094	0.0913	0.1468	0.03
Mof_O 	O 	0.2782	0.7542	0.1203	-0.192
Mof_H 	H 	0.264	0.757	0.1002	0.041
Mof_C 	C 	0.3247	0.9672	0.2688	-0.039
Mof_C 	C 	0.3552	0.0288	0.3012	-0.029
Mof_C 	C 	0.2948	0.1502	0.3563	-0.162
Mof_H 	H 	0.2731	0.1434	0.3717	0.075
Mof_C 	C 	0.2969	0.1884	0.3418	0.333
Mof_C 	C 	0.3274	0.1977	0.3184	-0.282
Mof_H 	H 	0.3296	0.2228	0.3074	0.158
Mof_C 	C 	0.3554	0.1696	0.3112	0.063
Mof_H 	H 	0.3769	0.1754	0.2951	0.013
Mof_C 	C 	0.3518	0.1332	0.3275	-0.043
Mof_H 	H 	0.3715	0.1145	0.3229	0.04
Mof_C 	C 	0.3006	0.9801	0.3781	0.036
Mof_H 	H 	0.3022	0.9819	0.3506	0.031
Mof_C 	C 	0.2897	0.946	0.3954	-0.03
Mof_C 	C 	0.2887	0.9422	0.435	0.002
Mof_H 	H 	0.2815	0.9183	0.4467	0.031
Mof_C 	C 	0.2979	0.9721	0.4561	-0.098
Mof_H 	H 	0.2971	0.9701	0.4835	0.071
Mof_C 	C 	0.3086	0.0063	0.4393	0.063
Mof_H 	H 	0.316	0.0273	0.4555	0.002
Mof_C 	C 	0.2656	0.218	0.3525	-0.936
Mof_H 	H 	0.2679	0.2227	0.3798	0.418
Mof_H 	H 	0.2402	0.2079	0.3475	-0.106
Mof_C 	C 	0.2743	0.9101	0.3759	0.022
Mof_H 	H 	0.257	0.8957	0.3938	0.046
Mof_H 	H 	0.296	0.8928	0.3684	0.006
Mof_N 	N 	0.2986	0.9498	0.2797	-0.108
Mof_N 	N 	0.3425	0.0435	0.3276	-0.172
Mof_N 	N 	0.3214	0.1233	0.3497	-0.126
Mof_N 	N 	0.309	0.0112	0.4007	-0.178
Mof_O 	O 	0.2533	0.9218	0.3421	-0.345
Mof_H 	H 	0.243	0.93	0.322	0.246
Mof_O 	O 	0.2675	0.2515	0.3305	-1.028
Mof_H 	H 	0.273	0.266	0.3113	0.403
Mof_H 	H 	0.2433	0.2045	0.362	0.323
Mof_H 	H 	0.2578	0.2322	0.3299	0.906
Mof_C 	C 	0.2853	0.9126	0.3682	0.05
Mof_H 	H 	0.2796	0.8886	0.3828	0.004
Mof_H 	H 	0.3094	0.9087	0.3532	0.03
Mof_O 	O 	0.2782	0.2458	0.3797	-0.192
Mof_H 	H 	0.264	0.243	0.3998	0.041
Mof_C 	C 	0.8247	0.4672	0.7688	-0.043
Mof_C 	C 	0.8552	0.5288	0.8012	-0.029
Mof_C 	C 	0.7948	0.6502	0.8563	-0.162
Mof_H 	H 	0.7731	0.6434	0.8717	0.075
Mof_C 	C 	0.7969	0.6884	0.8418	0.333
Mof_C 	C 	0.8274	0.6977	0.8184	-0.282
Mof_H 	H 	0.8296	0.7228	0.8074	0.158
Mof_C 	C 	0.8554	0.6696	0.8112	0.063
Mof_H 	H 	0.8769	0.6754	0.7951	0.013
Mof_C 	C 	0.8518	0.6332	0.8275	-0.043
Mof_H 	H 	0.8715	0.6145	0.8229	0.04
Mof_C 	C 	0.8006	0.4801	0.8781	0.034
Mof_H 	H 	0.8022	0.4819	0.8506	0.031
Mof_C 	C 	0.7897	0.446	0.8954	-0.032
Mof_C 	C 	0.7887	0.4422	0.935	0.007
Mof_H 	H 	0.7815	0.4183	0.9467	0.029
Mof_C 	C 	0.7979	0.4721	0.9561	-0.107
Mof_H 	H 	0.7971	0.4701	0.9835	0.075
Mof_C 	C 	0.8086	0.5063	0.9393	0.071
Mof_H 	H 	0.816	0.5273	0.9555	0
Mof_C 	C 	0.7656	0.718	0.8525	-0.935
Mof_H 	H 	0.7679	0.7227	0.8798	0.418
Mof_H 	H 	0.7402	0.7079	0.8475	-0.106
Mof_C 	C 	0.7743	0.4101	0.8759	0.022
Mof_H 	H 	0.757	0.3957	0.8938	0.046
Mof_H 	H 	0.796	0.3928	0.8684	0.006
Mof_N 	N 	0.7986	0.4498	0.7797	-0.107
Mof_N 	N 	0.8425	0.5435	0.8276	-0.172
Mof_N 	N 	0.8214	0.6233	0.8497	-0.126
Mof_N 	N 	0.809	0.5112	0.9007	-0.178
Mof_O 	O 	0.7533	0.4218	0.8421	-0.345
Mof_H 	H 	0.743	0.43	0.822	0.246
Mof_O 	O 	0.7675	0.7515	0.8305	-1.028
Mof_H 	H 	0.773	0.766	0.8113	0.403
Mof_H 	H 	0.7433	0.7045	0.862	0.323
Mof_H 	H 	0.7578	0.7322	0.8299	0.906
Mof_C 	C 	0.7853	0.4126	0.8682	0.05
Mof_H 	H 	0.7796	0.3886	0.8828	0.004
Mof_H 	H 	0.8094	0.4087	0.8532	0.03
Mof_O 	O 	0.7782	0.7458	0.8797	-0.192
Mof_H 	H 	0.764	0.743	0.8998	0.041
Mof_Fe	Fe	0.125	0.81694	0.06694	0.664
Mof_Fe	Fe	0.625	0.31694	0.56694	0.665
Mof_Fe	Fe	0.375	0.18306	0.56694	0.665
Mof_Fe	Fe	0.875	0.68306	0.06694	0.664
Mof_Fe	Fe	0.875	0.31694	0.43306	0.665
Mof_Fe	Fe	0.375	0.81694	0.93306	0.665
Mof_Fe	Fe	0.625	0.68306	0.93306	0.665
Mof_Fe	Fe	0.125	0.18306	0.43306	0.665
Mof_Fe	Fe	0.06694	0.125	0.81694	0.664
Mof_Fe	Fe	0.56694	0.625	0.31694	0.665
Mof_Fe	Fe	0.56694	0.375	0.18306	0.665
Mof_Fe	Fe	0.06694	0.875	0.68306	0.664
Mof_Fe	Fe	0.43306	0.875	0.31694	0.665
Mof_Fe	Fe	0.93306	0.375	0.81694	0.665
Mof_Fe	Fe	0.93306	0.625	0.68306	0.665
Mof_Fe	Fe	0.43306	0.125	0.18306	0.665
Mof_Fe	Fe	0.81694	0.06694	0.125	0.664
Mof_Fe	Fe	0.31694	0.56694	0.625	0.665
Mof_Fe	Fe	0.18306	0.56694	0.375	0.665
Mof_Fe	Fe	0.68306	0.06694	0.875	0.664
Mof_Fe	Fe	0.31694	0.43306	0.875	0.665
Mof_Fe	Fe	0.81694	0.93306	0.375	0.665
Mof_Fe	Fe	0.68306	0.93306	0.625	0.665
Mof_Fe	Fe	0.18306	0.43306	0.125	0.665
Mof_Fe	Fe	0.875	0.18306	0.93306	0.666
Mof_Fe	Fe	0.375	0.68306	0.43306	0.665
Mof_Fe	Fe	0.625	0.81694	0.43306	0.665
Mof_Fe	Fe	0.125	0.31694	0.93306	0.665
Mof_Fe	Fe	0.125	0.68306	0.56694	0.665
Mof_Fe	Fe	0.625	0.18306	0.06694	0.664
Mof_Fe	Fe	0.375	0.31694	0.06694	0.664
Mof_Fe	Fe	0.875	0.81694	0.56694	0.665
Mof_Fe	Fe	0.93306	0.875	0.18306	0.666
Mof_Fe	Fe	0.43306	0.375	0.68306	0.665
Mof_Fe	Fe	0.43306	0.625	0.81694	0.665
Mof_Fe	Fe	0.93306	0.125	0.31694	0.665
Mof_Fe	Fe	0.56694	0.125	0.68306	0.665
Mof_Fe	Fe	0.06694	0.625	0.18306	0.664
Mof_Fe	Fe	0.06694	0.375	0.31694	0.664
Mof_Fe	Fe	0.56694	0.875	0.81694	0.665
Mof_Fe	Fe	0.18306	0.93306	0.875	0.666
Mof_Fe	Fe	0.68306	0.43306	0.375	0.665
Mof_Fe	Fe	0.81694	0.43306	0.625	0.665
Mof_Fe	Fe	0.31694	0.93306	0.125	0.665
Mof_Fe	Fe	0.68306	0.56694	0.125	0.665
Mof_Fe	Fe	0.18306	0.06694	0.625	0.664
Mof_Fe	Fe	0.31694	0.06694	0.375	0.664
Mof_Fe	Fe	0.81694	0.56694	0.875	0.665
Mof_W 	W 	1.03028e-32	0.75	0.125	0.513
Mof_W 	W 	0.5	0.25	0.625	0.521
Mof_W 	W 	6.32311e-33	0.25	0.375	0.513
Mof_W 	W 	0.5	0.75	0.875	0.521
Mof_W 	W 	0.125	9.83417e-33	0.75	0.513
Mof_W 	W 	0.625	0.5	0.25	0.521
Mof_W 	W 	0.375	-2.45854e-33	0.25	0.513
Mof_W 	W 	0.875	0.5	0.75	0.521
Mof_W 	W 	0.75	0.125	-0	0.513
Mof_W 	W 	0.25	0.625	0.5	0.521
Mof_W 	W 	0.25	0.375	-0	0.513
Mof_W 	W 	0.75	0.875	0.5	0.521
Mof_W 	W 	0.5	0.25	0.125	0.521
Mof_W 	W 	2.34337e-33	0.75	0.625	0.513
Mof_W 	W 	3.28072e-33	0.25	0.875	0.513
Mof_W 	W 	0.5	0.75	0.375	0.521
Mof_W 	W 	0.75	0.375	0.5	0.521
Mof_W 	W 	0.25	0.875	-0	0.513
Mof_W 	W 	0.75	0.625	-0	0.513
Mof_W 	W 	0.25	0.125	0.5	0.521
Mof_W 	W 	0.875	-2.45854e-33	0.25	0.513
Mof_W 	W 	0.375	0.5	0.75	0.521
Mof_W 	W 	0.125	0.5	0.25	0.521
Mof_W 	W 	0.625	9.83417e-33	0.75	0.513
_end
