data_functionalizedCrystal
_audit_creation_method	'EQeq! by Chris Wilmer'
_symmetry_space_group_name_H-M	'P1'
_symmetry_Int_Tables_number	1
_symmetry_cell_setting	triclinic
loop_
_symmetry_equiv_pos_as_xyz
  x,y,z
_cell_length_a	10.448
_cell_length_b	10.448
_cell_length_c	6.522
_cell_angle_alpha	90
_cell_angle_beta	90
_cell_angle_gamma	90
loop_
_atom_site_label
_atom_site_type_symbol
_atom_site_fract_x
_atom_site_fract_y
_atom_site_fract_z
_atom_site_charge
Mof_N 	N 	0.0926	0.4058	0.0299	-0.131
Mof_C 	C 	0.0883	0.5103	0.1436	-0.001
Mof_H 	H 	0.151	0.5215	0.2476	-0.009
Mof_C 	C 	0.0053	0.3945	0.8829	0.004
Mof_H 	H 	0.0061	0.3218	0.7954	0.019
Mof_O 	O 	0.2112	0.1635	0.4087	-0.365
Mof_C 	C 	0.1397	0.3014	0.4586	-0.547
Mof_H 	H 	0.0874	0.3245	0.5739	0.189
Mof_H 	H 	0.1236	0.1578	0.3786	0.246
Mof_H 	H 	0.2598	0.095	0.3754	0.257
Mof_N 	N 	0.4074	0.0942	0.0299	-0.131
Mof_C 	C 	0.4117	0.9897	0.1436	-0.001
Mof_H 	H 	0.349	0.9785	0.2476	-0.009
Mof_C 	C 	0.4947	0.1055	0.8829	0.004
Mof_H 	H 	0.4939	0.1782	0.7954	0.019
Mof_O 	O 	0.2888	0.3365	0.4087	-0.365
Mof_C 	C 	0.3603	0.1986	0.4586	-0.547
Mof_H 	H 	0.4126	0.1755	0.5739	0.189
Mof_H 	H 	0.3764	0.3422	0.3786	0.246
Mof_H 	H 	0.2402	0.405	0.3754	0.257
Mof_N 	N 	0.0942	0.0926	0.0299	-0.131
Mof_C 	C 	0.9897	0.0883	0.1436	-0.001
Mof_H 	H 	0.9785	0.151	0.2476	-0.01
Mof_C 	C 	0.1055	0.0053	0.8829	0.003
Mof_H 	H 	0.1782	0.0061	0.7954	0.019
Mof_O 	O 	0.3365	0.2112	0.4087	-0.365
Mof_C 	C 	0.1986	0.1397	0.4586	-0.547
Mof_H 	H 	0.1755	0.0874	0.5739	0.189
Mof_H 	H 	0.3422	0.1236	0.3786	0.246
Mof_H 	H 	0.405	0.2598	0.3754	0.257
Mof_N 	N 	0.4058	0.4074	0.0299	-0.131
Mof_C 	C 	0.5103	0.4117	0.1436	-0.002
Mof_H 	H 	0.5215	0.349	0.2476	-0.009
Mof_C 	C 	0.3945	0.4947	0.8829	0.004
Mof_H 	H 	0.3218	0.4939	0.7954	0.019
Mof_O 	O 	0.1635	0.2888	0.4087	-0.365
Mof_C 	C 	0.3014	0.3603	0.4586	-0.547
Mof_H 	H 	0.3245	0.4126	0.5739	0.189
Mof_H 	H 	0.1578	0.3764	0.3786	0.246
Mof_H 	H 	0.095	0.2402	0.3754	0.257
Mof_N 	N 	0.9074	0.5942	0.9701	-0.131
Mof_C 	C 	0.9117	0.4897	0.8564	-0.001
Mof_H 	H 	0.849	0.4785	0.7524	-0.009
Mof_C 	C 	0.9947	0.6055	0.1171	0.004
Mof_H 	H 	0.9939	0.6782	0.2046	0.019
Mof_O 	O 	0.7888	0.8365	0.5913	-0.365
Mof_C 	C 	0.8603	0.6986	0.5414	-0.547
Mof_H 	H 	0.9126	0.6755	0.4261	0.189
Mof_H 	H 	0.8764	0.8422	0.6214	0.246
Mof_H 	H 	0.7402	0.905	0.6246	0.257
Mof_N 	N 	0.5926	0.9058	0.9701	-0.131
Mof_C 	C 	0.5883	0.0103	0.8564	-0.001
Mof_H 	H 	0.651	0.0215	0.7524	-0.009
Mof_C 	C 	0.5053	0.8945	0.1171	0.004
Mof_H 	H 	0.5061	0.8218	0.2046	0.019
Mof_O 	O 	0.7112	0.6635	0.5913	-0.365
Mof_C 	C 	0.6397	0.8014	0.5414	-0.547
Mof_H 	H 	0.5874	0.8245	0.4261	0.189
Mof_H 	H 	0.6236	0.6578	0.6214	0.246
Mof_H 	H 	0.7598	0.595	0.6246	0.257
Mof_N 	N 	0.9058	0.9074	0.9701	-0.131
Mof_C 	C 	0.0103	0.9117	0.8564	-0.001
Mof_H 	H 	0.0215	0.849	0.7524	-0.01
Mof_C 	C 	0.8945	0.9947	0.1171	0.003
Mof_H 	H 	0.8218	0.9939	0.2046	0.019
Mof_O 	O 	0.6635	0.7888	0.5913	-0.365
Mof_C 	C 	0.8014	0.8603	0.5414	-0.547
Mof_H 	H 	0.8245	0.9126	0.4261	0.189
Mof_H 	H 	0.6578	0.8764	0.6214	0.246
Mof_H 	H 	0.595	0.7402	0.6246	0.257
Mof_N 	N 	0.5942	0.5926	0.9701	-0.131
Mof_C 	C 	0.4897	0.5883	0.8564	-0.002
Mof_H 	H 	0.4785	0.651	0.7524	-0.009
Mof_C 	C 	0.6055	0.5053	0.1171	0.004
Mof_H 	H 	0.6782	0.5061	0.2046	0.019
Mof_O 	O 	0.8365	0.7112	0.5913	-0.365
Mof_C 	C 	0.6986	0.6397	0.5414	-0.547
Mof_H 	H 	0.6755	0.5874	0.4261	0.189
Mof_H 	H 	0.8422	0.6236	0.6214	0.246
Mof_H 	H 	0.905	0.7598	0.6246	0.257
Mof_Cd	Cd	0.25	0.25	0.08138	0.425
Mof_O 	O 	0.25	0.25	0.709	-0.727
Mof_C 	C 	0.25	0.25	0.5256	1.657
Mof_Cd	Cd	0.75	0.75	0.91862	0.425
Mof_O 	O 	0.75	0.75	0.291	-0.727
Mof_C 	C 	0.75	0.75	0.4744	1.657
_end
