data_functionalizedCrystal
_audit_creation_method	'EQeq! by Chris Wilmer'
_symmetry_space_group_name_H-M	'P1'
_symmetry_Int_Tables_number	1
_symmetry_cell_setting	triclinic
loop_
_symmetry_equiv_pos_as_xyz
  x,y,z
_cell_length_a	16.4835
_cell_length_b	21.1293
_cell_length_c	24.969
_cell_angle_alpha	92.76
_cell_angle_beta	90
_cell_angle_gamma	90
loop_
_atom_site_label
_atom_site_type_symbol
_atom_site_fract_x
_atom_site_fract_y
_atom_site_fract_z
_atom_site_charge
Mof_Zn	Zn	0.0128	0.3393	0.30741	1.189
Mof_Zn	Zn	0.4585	0.33716	0.24552	1.243
Mof_Zn	Zn	0.07129	0.65863	0.81354	1.239
Mof_Zn	Zn	0.01984	0.34914	0.00407	1.203
Mof_Zn	Zn	0.46656	0.84313	0.01023	1.171
Mof_Zn	Zn	0.0128	0.1607	0.19259	1.189
Mof_Zn	Zn	0.4585	0.16284	0.25448	1.243
Mof_Zn	Zn	0.07129	0.84137	0.68646	1.239
Mof_Zn	Zn	0.01984	0.15086	0.49593	1.203
Mof_Zn	Zn	0.46656	0.65687	0.48977	1.171
Mof_Zn	Zn	0.9872	0.6607	0.69259	1.189
Mof_Zn	Zn	0.5415	0.66284	0.75448	1.243
Mof_Zn	Zn	0.92871	0.34137	0.18646	1.239
Mof_Zn	Zn	0.98016	0.65086	0.99593	1.203
Mof_Zn	Zn	0.53344	0.15687	0.98977	1.171
Mof_Zn	Zn	0.9872	0.8393	0.80741	1.189
Mof_Zn	Zn	0.5415	0.83716	0.74552	1.243
Mof_Zn	Zn	0.92871	0.15863	0.31354	1.239
Mof_Zn	Zn	0.98016	0.84914	0.50407	1.203
Mof_Zn	Zn	0.53344	0.34313	0.51023	1.171
Mof_H 	H 	0.8617	0.5167	0.6384	0.075
Mof_H 	H 	0.7719	0.5781	0.6909	0.022
Mof_H 	H 	0.6331	0.604	0.5607	-0.027
Mof_H 	H 	0.9378	0.461	0.5841	0.071
Mof_H 	H 	0.0174	0.4056	0.5205	0.026
Mof_H 	H 	0.8553	0.4444	0.4055	0.011
Mof_H 	H 	0.8291	0.6469	0.3155	0.064
Mof_H 	H 	0.8967	0.7252	0.3671	0.023
Mof_H 	H 	0.8176	0.6474	0.502	0.022
Mof_H 	H 	0.7422	0.5834	0.2755	0.071
Mof_H 	H 	0.6615	0.5038	0.2358	0.016
Mof_H 	H 	0.634	0.4265	0.3793	-0.008
Mof_H 	H 	0.2293	0.5966	0.2402	0.073
Mof_H 	H 	0.1423	0.5212	0.2737	0.008
Mof_H 	H 	0.1186	0.4392	0.1252	-0.007
Mof_H 	H 	0.3045	0.6678	0.2024	0.064
Mof_H 	H 	0.3786	0.74	0.1545	0.028
Mof_H 	H 	0.335	0.6364	0.0175	0.014
Mof_H 	H 	0.4732	0.4256	0.9646	0.066
Mof_H 	H 	0.5173	0.3673	0.0359	0.041
Mof_H 	H 	0.3293	0.4342	0.1254	0.012
Mof_H 	H 	0.4354	0.4918	0.9059	0.075
Mof_H 	H 	0.3723	0.5501	0.8408	0.031
Mof_H 	H 	0.182	0.5827	0.94	-0.001
Mof_H 	H 	0.8617	0.9833	0.8616	0.076
Mof_H 	H 	0.7719	0.9219	0.8091	0.022
Mof_H 	H 	0.6331	0.896	0.9393	-0.027
Mof_H 	H 	0.9378	0.039	0.9159	0.068
Mof_H 	H 	0.0174	0.0944	0.9795	0.03
Mof_H 	H 	0.8553	0.0556	0.0945	0.013
Mof_H 	H 	0.8291	0.8531	0.1845	0.064
Mof_H 	H 	0.8967	0.7748	0.1329	0.023
Mof_H 	H 	0.8176	0.8526	0.998	0.023
Mof_H 	H 	0.7422	0.9166	0.2245	0.071
Mof_H 	H 	0.6615	0.9962	0.2642	0.017
Mof_H 	H 	0.634	0.0735	0.1207	-0.008
Mof_H 	H 	0.2293	0.9034	0.2598	0.073
Mof_H 	H 	0.1423	0.9788	0.2263	0.008
Mof_H 	H 	0.1186	0.0608	0.3748	-0.007
Mof_H 	H 	0.3045	0.8322	0.2976	0.064
Mof_H 	H 	0.3786	0.76	0.3455	0.028
Mof_H 	H 	0.335	0.8636	0.4825	0.014
Mof_H 	H 	0.4732	0.0744	0.5354	0.066
Mof_H 	H 	0.5173	0.1327	0.4641	0.041
Mof_H 	H 	0.3293	0.0658	0.3746	0.012
Mof_H 	H 	0.4354	0.0082	0.5941	0.074
Mof_H 	H 	0.3723	0.9499	0.6592	0.031
Mof_H 	H 	0.182	0.9173	0.56	-0.001
Mof_H 	H 	0.1383	0.4833	0.3616	0.075
Mof_H 	H 	0.2281	0.4219	0.3091	0.022
Mof_H 	H 	0.3669	0.396	0.4393	-0.027
Mof_H 	H 	0.0622	0.539	0.4159	0.071
Mof_H 	H 	0.9826	0.5944	0.4795	0.026
Mof_H 	H 	0.1447	0.5556	0.5945	0.011
Mof_H 	H 	0.1709	0.3531	0.6845	0.064
Mof_H 	H 	0.1033	0.2748	0.6329	0.023
Mof_H 	H 	0.1824	0.3526	0.498	0.022
Mof_H 	H 	0.2578	0.4166	0.7245	0.071
Mof_H 	H 	0.3385	0.4962	0.7642	0.016
Mof_H 	H 	0.366	0.5735	0.6207	-0.008
Mof_H 	H 	0.7707	0.4034	0.7598	0.073
Mof_H 	H 	0.8577	0.4788	0.7263	0.008
Mof_H 	H 	0.8814	0.5608	0.8748	-0.007
Mof_H 	H 	0.6955	0.3322	0.7976	0.064
Mof_H 	H 	0.6214	0.26	0.8455	0.028
Mof_H 	H 	0.665	0.3636	0.9825	0.014
Mof_H 	H 	0.5268	0.5744	0.0354	0.066
Mof_H 	H 	0.4827	0.6327	0.9641	0.041
Mof_H 	H 	0.6707	0.5658	0.8746	0.012
Mof_H 	H 	0.5646	0.5082	0.0941	0.075
Mof_H 	H 	0.6277	0.4499	0.1592	0.031
Mof_H 	H 	0.818	0.4173	0.06	-0.001
Mof_H 	H 	0.1383	0.0167	0.1384	0.076
Mof_H 	H 	0.2281	0.0781	0.1909	0.022
Mof_H 	H 	0.3669	0.104	0.0607	-0.027
Mof_H 	H 	0.0622	0.961	0.0841	0.068
Mof_H 	H 	0.9826	0.9056	0.0205	0.03
Mof_H 	H 	0.1447	0.9444	0.9055	0.013
Mof_H 	H 	0.1709	0.1469	0.8155	0.064
Mof_H 	H 	0.1033	0.2252	0.8671	0.023
Mof_H 	H 	0.1824	0.1474	0.002	0.023
Mof_H 	H 	0.2578	0.0834	0.7755	0.071
Mof_H 	H 	0.3385	0.0038	0.7358	0.017
Mof_H 	H 	0.366	0.9265	0.8793	-0.008
Mof_H 	H 	0.7707	0.0966	0.7402	0.073
Mof_H 	H 	0.8577	0.0212	0.7737	0.008
Mof_H 	H 	0.8814	0.9392	0.6252	-0.007
Mof_H 	H 	0.6955	0.1678	0.7024	0.064
Mof_H 	H 	0.6214	0.24	0.6545	0.028
Mof_H 	H 	0.665	0.1364	0.5175	0.014
Mof_H 	H 	0.5268	0.9256	0.4646	0.066
Mof_H 	H 	0.4827	0.8673	0.5359	0.041
Mof_H 	H 	0.6707	0.9342	0.6254	0.012
Mof_H 	H 	0.5646	0.9918	0.4059	0.074
Mof_H 	H 	0.6277	0.0501	0.3408	0.031
Mof_H 	H 	0.818	0.0827	0.44	-0.001
Mof_Ru	Ru	0.22418	0.52131	0.04851	1.008
Mof_Ru	Ru	0.71316	0.52561	0.46409	0.979
Mof_Ru	Ru	0.22418	0.97869	0.45149	1.011
Mof_Ru	Ru	0.71316	0.97439	0.03591	0.97
Mof_Ru	Ru	0.77582	0.47869	0.95149	1.008
Mof_Ru	Ru	0.28684	0.47439	0.53591	0.979
Mof_Ru	Ru	0.77582	0.02131	0.54851	1.011
Mof_Ru	Ru	0.28684	0.02561	0.96409	0.97
Mof_C 	C 	0.5896	0.4038	0.2842	0.413
Mof_C 	C 	0.6309	0.6338	0.6622	0.374
Mof_C 	C 	0.8965	0.7451	0.4758	0.345
Mof_C 	C 	0.402	0.7447	0.0481	0.345
Mof_C 	C 	0.8009	0.5237	0.5682	0.069
Mof_C 	C 	0.8156	0.5343	0.6227	-0.124
Mof_C 	C 	0.762	0.5709	0.6541	0.058
Mof_C 	C 	0.6938	0.597	0.6309	-0.151
Mof_C 	C 	0.6792	0.5864	0.5764	0.095
Mof_C 	C 	0.8491	0.4858	0.5327	0.058
Mof_C 	C 	0.9212	0.4577	0.5481	-0.114
Mof_C 	C 	0.9686	0.4246	0.5102	0.059
Mof_C 	C 	0.944	0.4197	0.4569	-0.141
Mof_C 	C 	0.8719	0.4478	0.4415	0.087
Mof_C 	C 	0.783	0.6005	0.378	0.052
Mof_C 	C 	0.8268	0.647	0.3532	-0.113
Mof_C 	C 	0.8671	0.6937	0.3839	0.048
Mof_C 	C 	0.8637	0.6938	0.4396	-0.125
Mof_C 	C 	0.8199	0.6473	0.4644	0.074
Mof_C 	C 	0.7363	0.5525	0.3512	0.062
Mof_C 	C 	0.7204	0.5517	0.2965	-0.13
Mof_C 	C 	0.6722	0.5042	0.2727	0.084
Mof_C 	C 	0.6399	0.4575	0.3037	-0.161
Mof_C 	C 	0.6558	0.4582	0.3584	0.098
Mof_C 	C 	0.2259	0.5629	0.1627	0.065
Mof_C 	C 	0.207	0.5649	0.217	-0.135
Mof_C 	C 	0.1551	0.5198	0.237	0.084
Mof_C 	C 	0.122	0.4729	0.2027	-0.176
Mof_C 	C 	0.1409	0.471	0.1484	0.104
Mof_C 	C 	0.2755	0.609	0.1385	0.052
Mof_C 	C 	0.3106	0.6615	0.1651	-0.111
Mof_C 	C 	0.3548	0.7046	0.1365	0.044
Mof_C 	C 	0.364	0.6952	0.0814	-0.122
Mof_C 	C 	0.3289	0.6428	0.0548	0.074
Mof_C 	C 	0.3749	0.4646	0.0024	0.047
Mof_C 	C 	0.4442	0.4273	0.997	-0.107
Mof_C 	C 	0.4705	0.3926	0.0396	0.036
Mof_C 	C 	0.4276	0.3951	0.0876	-0.124
Mof_C 	C 	0.3583	0.4324	0.093	0.078
Mof_C 	C 	0.3464	0.5025	0.9618	0.064
Mof_C 	C 	0.3843	0.5101	0.9128	-0.126
Mof_C 	C 	0.3466	0.5449	0.874	0.072
Mof_C 	C 	0.271	0.572	0.8841	-0.158
Mof_C 	C 	0.2331	0.5644	0.9331	0.097
Mof_C 	C 	0.1312	0.5754	0.0367	-0.182
Mof_C 	C 	0.9954	0.3889	0.4148	0.372
Mof_C 	C 	0.6124	0.9243	0.0399	-0.172
Mof_C 	C 	0.1574	0.4501	0.0235	-0.185
Mof_C 	C 	0.0237	0.7274	0.9073	0.317
Mof_C 	C 	0.3494	0.9512	0.9844	-0.17
Mof_C 	C 	0.0649	0.424	0.222	0.452
Mof_C 	C 	0.4544	0.3579	0.1344	0.367
Mof_C 	C 	0.2264	0.6066	0.8442	0.403
Mof_C 	C 	0.5896	0.0962	0.2158	0.412
Mof_C 	C 	0.6309	0.8662	0.8378	0.374
Mof_C 	C 	0.8965	0.7549	0.0242	0.346
Mof_C 	C 	0.402	0.7553	0.4519	0.348
Mof_C 	C 	0.8009	0.9763	0.9318	0.072
Mof_C 	C 	0.8156	0.9657	0.8773	-0.126
Mof_C 	C 	0.762	0.9291	0.8459	0.059
Mof_C 	C 	0.6938	0.903	0.8691	-0.151
Mof_C 	C 	0.6792	0.9136	0.9236	0.095
Mof_C 	C 	0.8491	0.0142	0.9673	0.049
Mof_C 	C 	0.9212	0.0423	0.9519	-0.106
Mof_C 	C 	0.9686	0.0754	0.9898	0.045
Mof_C 	C 	0.944	0.0803	0.0431	-0.131
Mof_C 	C 	0.8719	0.0522	0.0585	0.084
Mof_C 	C 	0.783	0.8995	0.122	0.052
Mof_C 	C 	0.8268	0.853	0.1468	-0.113
Mof_C 	C 	0.8671	0.8063	0.1161	0.047
Mof_C 	C 	0.8637	0.8062	0.0604	-0.125
Mof_C 	C 	0.8199	0.8527	0.0356	0.073
Mof_C 	C 	0.7363	0.9475	0.1488	0.061
Mof_C 	C 	0.7204	0.9483	0.2035	-0.129
Mof_C 	C 	0.6722	0.9958	0.2273	0.079
Mof_C 	C 	0.6399	0.0425	0.1963	-0.157
Mof_C 	C 	0.6558	0.0418	0.1416	0.1
Mof_C 	C 	0.2259	0.9371	0.3373	0.065
Mof_C 	C 	0.207	0.9351	0.283	-0.135
Mof_C 	C 	0.1551	0.9802	0.263	0.085
Mof_C 	C 	0.122	0.0271	0.2973	-0.177
Mof_C 	C 	0.1409	0.029	0.3516	0.104
Mof_C 	C 	0.2755	0.891	0.3615	0.052
Mof_C 	C 	0.3106	0.8385	0.3349	-0.111
Mof_C 	C 	0.3548	0.7954	0.3635	0.044
Mof_C 	C 	0.364	0.8048	0.4186	-0.122
Mof_C 	C 	0.3289	0.8572	0.4452	0.074
Mof_C 	C 	0.3749	0.0354	0.4976	0.047
Mof_C 	C 	0.4442	0.0727	0.503	-0.107
Mof_C 	C 	0.4705	0.1074	0.4604	0.036
Mof_C 	C 	0.4276	0.1049	0.4124	-0.124
Mof_C 	C 	0.3583	0.0676	0.407	0.078
Mof_C 	C 	0.3464	0.9975	0.5382	0.064
Mof_C 	C 	0.3843	0.9899	0.5872	-0.123
Mof_C 	C 	0.3466	0.9551	0.626	0.07
Mof_C 	C 	0.271	0.928	0.6159	-0.157
Mof_C 	C 	0.2331	0.9356	0.5669	0.097
Mof_C 	C 	0.1312	0.9246	0.4633	-0.182
Mof_C 	C 	0.9954	0.1111	0.0852	0.374
Mof_C 	C 	0.6124	0.5757	0.4601	-0.173
Mof_C 	C 	0.1574	0.0499	0.4765	-0.186
Mof_C 	C 	0.0237	0.7726	0.5927	0.316
Mof_C 	C 	0.3494	0.5488	0.5156	-0.176
Mof_C 	C 	0.0649	0.076	0.278	0.453
Mof_C 	C 	0.4544	0.1421	0.3656	0.367
Mof_C 	C 	0.2264	0.8934	0.6558	0.402
Mof_C 	C 	0.4104	0.5962	0.7158	0.413
Mof_C 	C 	0.3691	0.3662	0.3378	0.374
Mof_C 	C 	0.1035	0.2549	0.5242	0.345
Mof_C 	C 	0.598	0.2553	0.9519	0.345
Mof_C 	C 	0.1991	0.4763	0.4318	0.069
Mof_C 	C 	0.1844	0.4657	0.3773	-0.124
Mof_C 	C 	0.238	0.4291	0.3459	0.058
Mof_C 	C 	0.3062	0.403	0.3691	-0.151
Mof_C 	C 	0.3208	0.4136	0.4236	0.095
Mof_C 	C 	0.1509	0.5142	0.4673	0.058
Mof_C 	C 	0.0788	0.5423	0.4519	-0.114
Mof_C 	C 	0.0314	0.5754	0.4898	0.059
Mof_C 	C 	0.056	0.5803	0.5431	-0.141
Mof_C 	C 	0.1281	0.5522	0.5585	0.087
Mof_C 	C 	0.217	0.3995	0.622	0.052
Mof_C 	C 	0.1732	0.353	0.6468	-0.113
Mof_C 	C 	0.1329	0.3063	0.6161	0.048
Mof_C 	C 	0.1363	0.3062	0.5604	-0.125
Mof_C 	C 	0.1801	0.3527	0.5356	0.074
Mof_C 	C 	0.2637	0.4475	0.6488	0.062
Mof_C 	C 	0.2796	0.4483	0.7035	-0.13
Mof_C 	C 	0.3278	0.4958	0.7273	0.084
Mof_C 	C 	0.3601	0.5425	0.6963	-0.161
Mof_C 	C 	0.3442	0.5418	0.6416	0.098
Mof_C 	C 	0.7741	0.4371	0.8373	0.065
Mof_C 	C 	0.793	0.4351	0.783	-0.135
Mof_C 	C 	0.8449	0.4802	0.763	0.084
Mof_C 	C 	0.878	0.5271	0.7973	-0.176
Mof_C 	C 	0.8591	0.529	0.8516	0.104
Mof_C 	C 	0.7245	0.391	0.8615	0.052
Mof_C 	C 	0.6894	0.3385	0.8349	-0.111
Mof_C 	C 	0.6452	0.2954	0.8635	0.044
Mof_C 	C 	0.636	0.3048	0.9186	-0.122
Mof_C 	C 	0.6711	0.3572	0.9452	0.074
Mof_C 	C 	0.6251	0.5354	0.9976	0.047
Mof_C 	C 	0.5558	0.5727	0.003	-0.107
Mof_C 	C 	0.5295	0.6074	0.9604	0.036
Mof_C 	C 	0.5724	0.6049	0.9124	-0.124
Mof_C 	C 	0.6417	0.5676	0.907	0.078
Mof_C 	C 	0.6536	0.4975	0.0382	0.064
Mof_C 	C 	0.6157	0.4899	0.0872	-0.126
Mof_C 	C 	0.6534	0.4551	0.126	0.072
Mof_C 	C 	0.729	0.428	0.1159	-0.158
Mof_C 	C 	0.7669	0.4356	0.0669	0.097
Mof_C 	C 	0.8688	0.4246	0.9633	-0.182
Mof_C 	C 	0.0046	0.6111	0.5852	0.372
Mof_C 	C 	0.3876	0.0757	0.9601	-0.172
Mof_C 	C 	0.8426	0.5499	0.9765	-0.185
Mof_C 	C 	0.9763	0.2726	0.0927	0.317
Mof_C 	C 	0.6506	0.0488	0.0156	-0.17
Mof_C 	C 	0.9351	0.576	0.778	0.452
Mof_C 	C 	0.5456	0.6421	0.8656	0.367
Mof_C 	C 	0.7736	0.3934	0.1558	0.403
Mof_C 	C 	0.4104	0.9038	0.7842	0.412
Mof_C 	C 	0.3691	0.1338	0.1622	0.374
Mof_C 	C 	0.1035	0.2451	0.9758	0.346
Mof_C 	C 	0.598	0.2447	0.5481	0.348
Mof_C 	C 	0.1991	0.0237	0.0682	0.072
Mof_C 	C 	0.1844	0.0343	0.1227	-0.126
Mof_C 	C 	0.238	0.0709	0.1541	0.059
Mof_C 	C 	0.3062	0.097	0.1309	-0.151
Mof_C 	C 	0.3208	0.0864	0.0764	0.095
Mof_C 	C 	0.1509	0.9858	0.0327	0.049
Mof_C 	C 	0.0788	0.9577	0.0481	-0.106
Mof_C 	C 	0.0314	0.9246	0.0102	0.045
Mof_C 	C 	0.056	0.9197	0.9569	-0.131
Mof_C 	C 	0.1281	0.9478	0.9415	0.084
Mof_C 	C 	0.217	0.1005	0.878	0.052
Mof_C 	C 	0.1732	0.147	0.8532	-0.113
Mof_C 	C 	0.1329	0.1937	0.8839	0.047
Mof_C 	C 	0.1363	0.1938	0.9396	-0.125
Mof_C 	C 	0.1801	0.1473	0.9644	0.073
Mof_C 	C 	0.2637	0.0525	0.8512	0.061
Mof_C 	C 	0.2796	0.0517	0.7965	-0.129
Mof_C 	C 	0.3278	0.0042	0.7727	0.079
Mof_C 	C 	0.3601	0.9575	0.8037	-0.157
Mof_C 	C 	0.3442	0.9582	0.8584	0.1
Mof_C 	C 	0.7741	0.0629	0.6627	0.065
Mof_C 	C 	0.793	0.0649	0.717	-0.135
Mof_C 	C 	0.8449	0.0198	0.737	0.085
Mof_C 	C 	0.878	0.9729	0.7027	-0.177
Mof_C 	C 	0.8591	0.971	0.6484	0.104
Mof_C 	C 	0.7245	0.109	0.6385	0.052
Mof_C 	C 	0.6894	0.1615	0.6651	-0.111
Mof_C 	C 	0.6452	0.2046	0.6365	0.044
Mof_C 	C 	0.636	0.1952	0.5814	-0.122
Mof_C 	C 	0.6711	0.1428	0.5548	0.074
Mof_C 	C 	0.6251	0.9646	0.5024	0.047
Mof_C 	C 	0.5558	0.9273	0.497	-0.107
Mof_C 	C 	0.5295	0.8926	0.5396	0.036
Mof_C 	C 	0.5724	0.8951	0.5876	-0.124
Mof_C 	C 	0.6417	0.9324	0.593	0.078
Mof_C 	C 	0.6536	0.0025	0.4618	0.064
Mof_C 	C 	0.6157	0.0101	0.4128	-0.123
Mof_C 	C 	0.6534	0.0449	0.374	0.07
Mof_C 	C 	0.729	0.072	0.3841	-0.157
Mof_C 	C 	0.7669	0.0644	0.4331	0.097
Mof_C 	C 	0.8688	0.0754	0.5367	-0.182
Mof_C 	C 	0.0046	0.8889	0.9148	0.374
Mof_C 	C 	0.3876	0.4243	0.5399	-0.173
Mof_C 	C 	0.8426	0.9501	0.5235	-0.186
Mof_C 	C 	0.9763	0.2274	0.4073	0.316
Mof_C 	C 	0.6506	0.4512	0.4844	-0.176
Mof_C 	C 	0.9351	0.924	0.722	0.453
Mof_C 	C 	0.5456	0.8579	0.6344	0.367
Mof_C 	C 	0.7736	0.1066	0.3442	0.402
Mof_N 	N 	0.3829	0.9049	0.994	-0.237
Mof_N 	N 	0.1123	0.408	0.0133	-0.22
Mof_N 	N 	0.7327	0.5497	0.545	-0.226
Mof_N 	N 	0.8245	0.4808	0.4795	-0.216
Mof_N 	N 	0.7795	0.6006	0.4336	-0.216
Mof_N 	N 	0.704	0.5057	0.3821	-0.226
Mof_N 	N 	0.1929	0.516	0.1284	-0.231
Mof_N 	N 	0.2847	0.5997	0.0834	-0.219
Mof_N 	N 	0.332	0.4672	0.0504	-0.216
Mof_N 	N 	0.2707	0.5296	0.9719	-0.227
Mof_N 	N 	0.0743	0.6066	0.0269	-0.218
Mof_N 	N 	0.5578	0.8927	0.0404	-0.237
Mof_N 	N 	0.3829	0.5951	0.506	-0.237
Mof_N 	N 	0.1123	0.092	0.4867	-0.22
Mof_N 	N 	0.7327	0.9503	0.955	-0.225
Mof_N 	N 	0.8245	0.0192	0.0205	-0.21
Mof_N 	N 	0.7795	0.8994	0.0664	-0.215
Mof_N 	N 	0.704	0.9943	0.1179	-0.227
Mof_N 	N 	0.1929	0.984	0.3716	-0.231
Mof_N 	N 	0.2847	0.9003	0.4166	-0.219
Mof_N 	N 	0.332	0.0328	0.4496	-0.217
Mof_N 	N 	0.2707	0.9704	0.5281	-0.227
Mof_N 	N 	0.0743	0.8934	0.4731	-0.217
Mof_N 	N 	0.5578	0.6073	0.4596	-0.236
Mof_N 	N 	0.6171	0.0951	0.006	-0.237
Mof_N 	N 	0.8877	0.592	0.9867	-0.22
Mof_N 	N 	0.2673	0.4503	0.455	-0.226
Mof_N 	N 	0.1755	0.5192	0.5205	-0.216
Mof_N 	N 	0.2205	0.3994	0.5664	-0.216
Mof_N 	N 	0.296	0.4943	0.6179	-0.226
Mof_N 	N 	0.8071	0.484	0.8716	-0.231
Mof_N 	N 	0.7153	0.4003	0.9166	-0.219
Mof_N 	N 	0.668	0.5328	0.9496	-0.216
Mof_N 	N 	0.7293	0.4704	0.0281	-0.227
Mof_N 	N 	0.9257	0.3934	0.9731	-0.218
Mof_N 	N 	0.4422	0.1073	0.9596	-0.237
Mof_N 	N 	0.6171	0.4049	0.494	-0.237
Mof_N 	N 	0.8877	0.908	0.5133	-0.22
Mof_N 	N 	0.2673	0.0497	0.045	-0.225
Mof_N 	N 	0.1755	0.9808	0.9795	-0.21
Mof_N 	N 	0.2205	0.1006	0.9336	-0.215
Mof_N 	N 	0.296	0.0057	0.8821	-0.227
Mof_N 	N 	0.8071	0.016	0.6284	-0.231
Mof_N 	N 	0.7153	0.0997	0.5834	-0.219
Mof_N 	N 	0.668	0.9672	0.5504	-0.217
Mof_N 	N 	0.7293	0.0296	0.4719	-0.227
Mof_N 	N 	0.9257	0.1066	0.5269	-0.217
Mof_N 	N 	0.4422	0.3927	0.5404	-0.236
Mof_O 	O 	0.6008	0.3504	0.306	-0.295
Mof_O 	O 	0.5439	0.4047	0.2491	-0.464
Mof_O 	O 	0.6382	0.6336	0.7121	-0.451
Mof_O 	O 	0.9546	0.7768	0.4555	-0.465
Mof_O 	O 	0.4285	0.7919	0.0731	-0.46
Mof_O 	O 	0.1531	0.6152	0.849	-0.486
Mof_O 	O 	0.0205	0.3987	0.1857	-0.519
Mof_O 	O 	0.0428	0.7366	0.8595	-0.504
Mof_O 	O 	0.0698	0.4115	0.2682	-0.523
Mof_O 	O 	0.4133	0.3655	0.1764	-0.433
Mof_O 	O 	0.0623	0.3707	0.4267	-0.321
Mof_O 	O 	0.8696	0.7557	0.5206	-0.336
Mof_O 	O 	0.5092	0.3198	0.1284	-0.292
Mof_O 	O 	0.9656	0.3878	0.3676	-0.466
Mof_O 	O 	0.928	0.3127	0.2577	-0.577
Mof_O 	O 	0.0223	0.6727	0.9248	-0.484
Mof_O 	O 	0.2577	0.6163	0.7993	-0.279
Mof_O 	O 	0.404	0.7337	0.9998	-0.368
Mof_O 	O 	0.5802	0.6638	0.6395	-0.339
Mof_O 	O 	0.6008	0.1496	0.194	-0.294
Mof_O 	O 	0.5439	0.0953	0.2509	-0.464
Mof_O 	O 	0.6382	0.8664	0.7879	-0.451
Mof_O 	O 	0.9546	0.7232	0.0445	-0.464
Mof_O 	O 	0.4285	0.7081	0.4269	-0.46
Mof_O 	O 	0.1531	0.8848	0.651	-0.486
Mof_O 	O 	0.0205	0.1013	0.3143	-0.52
Mof_O 	O 	0.0428	0.7634	0.6405	-0.504
Mof_O 	O 	0.0698	0.0885	0.2318	-0.523
Mof_O 	O 	0.4133	0.1345	0.3236	-0.433
Mof_O 	O 	0.0623	0.1293	0.0733	-0.323
Mof_O 	O 	0.8696	0.7443	0.9794	-0.337
Mof_O 	O 	0.5092	0.1802	0.3716	-0.292
Mof_O 	O 	0.9656	0.1122	0.1324	-0.465
Mof_O 	O 	0.928	0.1873	0.2423	-0.576
Mof_O 	O 	0.0223	0.8273	0.5752	-0.485
Mof_O 	O 	0.2577	0.8837	0.7007	-0.279
Mof_O 	O 	0.404	0.7663	0.5002	-0.371
Mof_O 	O 	0.5802	0.8362	0.8605	-0.339
Mof_O 	O 	0.3992	0.6496	0.694	-0.295
Mof_O 	O 	0.4561	0.5953	0.7509	-0.464
Mof_O 	O 	0.3618	0.3664	0.2879	-0.451
Mof_O 	O 	0.0454	0.2232	0.5445	-0.465
Mof_O 	O 	0.5715	0.2081	0.9269	-0.46
Mof_O 	O 	0.8469	0.3848	0.151	-0.486
Mof_O 	O 	0.9795	0.6013	0.8143	-0.519
Mof_O 	O 	0.9572	0.2634	0.1405	-0.504
Mof_O 	O 	0.9302	0.5885	0.7318	-0.523
Mof_O 	O 	0.5867	0.6345	0.8236	-0.433
Mof_O 	O 	0.9377	0.6293	0.5733	-0.321
Mof_O 	O 	0.1304	0.2443	0.4794	-0.336
Mof_O 	O 	0.4908	0.6802	0.8716	-0.292
Mof_O 	O 	0.0344	0.6122	0.6324	-0.466
Mof_O 	O 	0.072	0.6873	0.7423	-0.577
Mof_O 	O 	0.9777	0.3273	0.0752	-0.484
Mof_O 	O 	0.7423	0.3837	0.2007	-0.279
Mof_O 	O 	0.596	0.2663	0.0002	-0.368
Mof_O 	O 	0.4198	0.3362	0.3605	-0.339
Mof_O 	O 	0.3992	0.8504	0.806	-0.294
Mof_O 	O 	0.4561	0.9047	0.7491	-0.464
Mof_O 	O 	0.3618	0.1336	0.2121	-0.451
Mof_O 	O 	0.0454	0.2768	0.9555	-0.464
Mof_O 	O 	0.5715	0.2919	0.5731	-0.46
Mof_O 	O 	0.8469	0.1152	0.349	-0.486
Mof_O 	O 	0.9795	0.8987	0.6857	-0.52
Mof_O 	O 	0.9572	0.2366	0.3595	-0.504
Mof_O 	O 	0.9302	0.9115	0.7682	-0.523
Mof_O 	O 	0.5867	0.8655	0.6764	-0.433
Mof_O 	O 	0.9377	0.8707	0.9267	-0.323
Mof_O 	O 	0.1304	0.2557	0.0206	-0.337
Mof_O 	O 	0.4908	0.8198	0.6284	-0.292
Mof_O 	O 	0.0344	0.8878	0.8676	-0.465
Mof_O 	O 	0.072	0.8127	0.7577	-0.576
Mof_O 	O 	0.9777	0.1727	0.4248	-0.485
Mof_O 	O 	0.7423	0.1163	0.2993	-0.279
Mof_O 	O 	0.596	0.2337	0.4998	-0.371
Mof_O 	O 	0.4198	0.1638	0.1395	-0.339
Mof_O 	O 	0.4836	0.25	0.25	-0.54
Mof_O 	O 	0.5164	0.75	0.75	-0.54
_end
