data_functionalizedCrystal
_audit_creation_method	'EQeq! by Chris Wilmer'
_symmetry_space_group_name_H-M	'P1'
_symmetry_Int_Tables_number	1
_symmetry_cell_setting	triclinic
loop_
_symmetry_equiv_pos_as_xyz
  x,y,z
_cell_length_a	11.361
_cell_length_b	12.645
_cell_length_c	14.775
_cell_angle_alpha	90
_cell_angle_beta	90
_cell_angle_gamma	90
loop_
_atom_site_label
_atom_site_type_symbol
_atom_site_fract_x
_atom_site_fract_y
_atom_site_fract_z
_atom_site_charge
Mof_Zn	Zn	0.5	0	0.75	1.172
Mof_Zn	Zn	0.5	0	0.25	1.172
Mof_H 	H 	0.6938	0.7167	0.863	0.064
Mof_H 	H 	0.8296	0.5799	0.8633	0.061
Mof_H 	H 	0.7078	0.8488	0.7208	-0.013
Mof_H 	H 	0.9117	0.8435	0.722	0.07
Mof_H 	H 	0.3062	0.2833	0.863	0.061
Mof_H 	H 	0.1704	0.4201	0.8633	0.061
Mof_H 	H 	0.2922	0.1512	0.7208	-0.003
Mof_H 	H 	0.0883	0.1565	0.722	0.077
Mof_H 	H 	0.3062	0.7167	0.637	0.063
Mof_H 	H 	0.1704	0.5799	0.6367	0.059
Mof_H 	H 	0.2922	0.8488	0.7792	-0.013
Mof_H 	H 	0.0883	0.8435	0.778	0.07
Mof_H 	H 	0.6938	0.2833	0.637	0.06
Mof_H 	H 	0.8296	0.4201	0.6367	0.059
Mof_H 	H 	0.7078	0.1512	0.7792	-0.004
Mof_H 	H 	0.9117	0.1565	0.778	0.077
Mof_H 	H 	0.3062	0.2833	0.137	0.06
Mof_H 	H 	0.1704	0.4201	0.1367	0.06
Mof_H 	H 	0.2922	0.1512	0.2792	-0.003
Mof_H 	H 	0.0883	0.1565	0.278	0.077
Mof_H 	H 	0.6938	0.7167	0.137	0.063
Mof_H 	H 	0.8296	0.5799	0.1367	0.06
Mof_H 	H 	0.7078	0.8488	0.2792	-0.013
Mof_H 	H 	0.9117	0.8435	0.278	0.071
Mof_H 	H 	0.6938	0.2833	0.363	0.06
Mof_H 	H 	0.8296	0.4201	0.3633	0.059
Mof_H 	H 	0.7078	0.1512	0.2208	-0.003
Mof_H 	H 	0.9117	0.1565	0.222	0.077
Mof_H 	H 	0.3062	0.7167	0.363	0.063
Mof_H 	H 	0.1704	0.5799	0.3633	0.059
Mof_H 	H 	0.2922	0.8488	0.2208	-0.013
Mof_H 	H 	0.0883	0.8435	0.222	0.071
Mof_C 	C 	0.5369	0.848	0.91987	0.138
Mof_C 	C 	0.71975	0.68789	0.91896	-0.085
Mof_C 	C 	0.80113	0.60746	0.91897	-0.053
Mof_C 	C 	0.91913	0.40893	0.91916	0.087
Mof_C 	C 	0.7501	0.91192	0.73337	0.119
Mof_C 	C 	0.8718	0.90817	0.73331	-0.059
Mof_C 	C 	0.4631	0.152	0.91987	0.111
Mof_C 	C 	0.28025	0.31211	0.91896	-0.085
Mof_C 	C 	0.19887	0.39254	0.91897	-0.057
Mof_C 	C 	0.08087	0.59107	0.91916	0.091
Mof_C 	C 	0.2499	0.08808	0.73337	0.056
Mof_C 	C 	0.1282	0.09183	0.73331	-0.114
Mof_C 	C 	0.4631	0.848	0.58013	0.147
Mof_C 	C 	0.28025	0.68789	0.58104	-0.08
Mof_C 	C 	0.19887	0.60746	0.58103	-0.045
Mof_C 	C 	0.08087	0.40893	0.58084	0.094
Mof_C 	C 	0.2499	0.91192	0.76663	0.119
Mof_C 	C 	0.1282	0.90817	0.76669	-0.059
Mof_C 	C 	0.5369	0.152	0.58013	0.121
Mof_C 	C 	0.71975	0.31211	0.58104	-0.079
Mof_C 	C 	0.80113	0.39254	0.58103	-0.049
Mof_C 	C 	0.91913	0.59107	0.58084	0.099
Mof_C 	C 	0.7501	0.08808	0.76663	0.056
Mof_C 	C 	0.8718	0.09183	0.76669	-0.114
Mof_C 	C 	0.4631	0.152	0.08013	0.12
Mof_C 	C 	0.28025	0.31211	0.08104	-0.078
Mof_C 	C 	0.19887	0.39254	0.08103	-0.051
Mof_C 	C 	0.08087	0.59107	0.08084	0.099
Mof_C 	C 	0.2499	0.08808	0.26663	0.057
Mof_C 	C 	0.1282	0.09183	0.26669	-0.113
Mof_C 	C 	0.5369	0.848	0.08013	0.147
Mof_C 	C 	0.71975	0.68789	0.08104	-0.079
Mof_C 	C 	0.80113	0.60746	0.08103	-0.047
Mof_C 	C 	0.91913	0.40893	0.08084	0.095
Mof_C 	C 	0.7501	0.91192	0.26663	0.12
Mof_C 	C 	0.8718	0.90817	0.26669	-0.058
Mof_C 	C 	0.5369	0.152	0.41987	0.121
Mof_C 	C 	0.71975	0.31211	0.41896	-0.079
Mof_C 	C 	0.80113	0.39254	0.41897	-0.049
Mof_C 	C 	0.91913	0.59107	0.41916	0.099
Mof_C 	C 	0.7501	0.08808	0.23337	0.057
Mof_C 	C 	0.8718	0.09183	0.23331	-0.113
Mof_C 	C 	0.4631	0.848	0.41987	0.147
Mof_C 	C 	0.28025	0.68789	0.41896	-0.08
Mof_C 	C 	0.19887	0.60746	0.41897	-0.045
Mof_C 	C 	0.08087	0.40893	0.41916	0.094
Mof_C 	C 	0.2499	0.91192	0.23337	0.12
Mof_C 	C 	0.1282	0.90817	0.23331	-0.058
Mof_C 	C 	0.93465	0	0.75	-0.004
Mof_C 	C 	0.06535	0	0.75	-0.004
Mof_C 	C 	0.06535	0	0.25	-0.003
Mof_C 	C 	0.93465	0	0.25	-0.003
Mof_C 	C 	0.58293	0.80764	-0	-0.139
Mof_C 	C 	0.67443	0.72807	-0	0.092
Mof_C 	C 	0.8417	0.5658	-0	0.046
Mof_C 	C 	0.9333	0.47806	-0	-0.06
Mof_C 	C 	0.41707	0.19236	-0	-0.14
Mof_C 	C 	0.32557	0.27193	-0	0.084
Mof_C 	C 	0.1583	0.4342	-0	0.048
Mof_C 	C 	0.0667	0.52194	-0	-0.062
Mof_C 	C 	0.41707	0.80764	0.5	-0.146
Mof_C 	C 	0.32557	0.72807	0.5	0.088
Mof_C 	C 	0.1583	0.5658	0.5	0.038
Mof_C 	C 	0.0667	0.47806	0.5	-0.064
Mof_C 	C 	0.58293	0.19236	0.5	-0.148
Mof_C 	C 	0.67443	0.27193	0.5	0.079
Mof_C 	C 	0.8417	0.4342	0.5	0.039
Mof_C 	C 	0.9333	0.52194	0.5	-0.066
Mof_N 	N 	0.50048	0.88025	0.85257	-0.253
Mof_N 	N 	0.9063	0.35832	0.85731	-0.13
Mof_N 	N 	0.49952	0.11975	0.85257	-0.275
Mof_N 	N 	0.0937	0.64168	0.85731	-0.127
Mof_N 	N 	0.49952	0.88025	0.64743	-0.255
Mof_N 	N 	0.0937	0.35832	0.64269	-0.131
Mof_N 	N 	0.50048	0.11975	0.64743	-0.276
Mof_N 	N 	0.9063	0.64168	0.64269	-0.128
Mof_N 	N 	0.49952	0.11975	0.14743	-0.275
Mof_N 	N 	0.0937	0.64168	0.14269	-0.128
Mof_N 	N 	0.50048	0.88025	0.14743	-0.254
Mof_N 	N 	0.9063	0.35832	0.14269	-0.131
Mof_N 	N 	0.50048	0.11975	0.35257	-0.276
Mof_N 	N 	0.9063	0.64168	0.35731	-0.128
Mof_N 	N 	0.49952	0.88025	0.35257	-0.255
Mof_N 	N 	0.0937	0.35832	0.35731	-0.131
Mof_N 	N 	0.68946	0	0.75	-0.287
Mof_N 	N 	0.31054	0	0.75	-0.287
Mof_N 	N 	0.31054	0	0.25	-0.287
Mof_N 	N 	0.68946	0	0.25	-0.287
_end
