data_functionalizedCrystal
_audit_creation_method	'EQeq! by Chris Wilmer'
_symmetry_space_group_name_H-M	'P1'
_symmetry_Int_Tables_number	1
_symmetry_cell_setting	triclinic
loop_
_symmetry_equiv_pos_as_xyz
  x,y,z
_cell_length_a	16.215
_cell_length_b	13.977
_cell_length_c	14.176
_cell_angle_alpha	90
_cell_angle_beta	114.555
_cell_angle_gamma	90
loop_
_atom_site_label
_atom_site_type_symbol
_atom_site_fract_x
_atom_site_fract_y
_atom_site_fract_z
_atom_site_charge
Mof_Cu	Cu	0.14683	0.8102	0.86384	0.803
Mof_Cu	Cu	0.45512	0.95416	0.03551	0.775
Mof_Cu	Cu	0.41563	0.28612	0.12191	0.797
Mof_Cu	Cu	0.14815	0.45386	0.8642	0.798
Mof_C 	C 	0.2563	0.8788	0.9213	-0.289
Mof_N 	N 	0.3261	0.9174	0.9585	-0.218
Mof_N 	N 	0.1497	0.6731	0.8704	-0.236
Mof_C 	C 	0.15	0.5912	0.8662	-0.28
Mof_C 	C 	0.4707	0.0993	0.0493	-0.362
Mof_N 	N 	0.4519	0.1689	0.0796	-0.224
Mof_C 	C 	0.2442	0.3773	0.9546	-0.293
Mof_N 	N 	0.3033	0.3337	0.0133	-0.228
Mof_N 	N 	0.5011	0.889	0.1701	-0.224
Mof_C 	C 	0.5288	0.8507	0.252	-0.3
Mof_N 	N 	0.9612	0.8941	0.7366	-0.234
Mof_C 	C 	0.0307	0.863	0.7912	-0.285
Mof_Cu	Cu	0.85317	0.3102	0.63616	0.804
Mof_Cu	Cu	0.54488	0.45416	0.46449	0.778
Mof_Cu	Cu	0.58437	0.78612	0.37809	0.796
Mof_Cu	Cu	0.85185	0.95386	0.6358	0.798
Mof_C 	C 	0.7437	0.3788	0.5787	-0.291
Mof_N 	N 	0.6739	0.4174	0.5415	-0.219
Mof_N 	N 	0.8503	0.1731	0.6296	-0.236
Mof_C 	C 	0.85	0.0912	0.6338	-0.279
Mof_C 	C 	0.5293	0.5993	0.4507	-0.365
Mof_N 	N 	0.5481	0.6689	0.4204	-0.224
Mof_C 	C 	0.7558	0.8773	0.5454	-0.291
Mof_N 	N 	0.6967	0.8337	0.4867	-0.229
Mof_N 	N 	0.4989	0.389	0.3299	-0.223
Mof_C 	C 	0.4712	0.3507	0.248	-0.299
Mof_N 	N 	0.0388	0.3941	0.7634	-0.233
Mof_C 	C 	0.9693	0.363	0.7088	-0.288
Mof_Cu	Cu	0.85317	0.1898	0.13616	0.804
Mof_Cu	Cu	0.54488	0.04584	0.96449	0.776
Mof_Cu	Cu	0.58437	0.71388	0.87809	0.797
Mof_Cu	Cu	0.85185	0.54614	0.1358	0.798
Mof_C 	C 	0.7437	0.1212	0.0787	-0.289
Mof_N 	N 	0.6739	0.0826	0.0415	-0.218
Mof_N 	N 	0.8503	0.3269	0.1296	-0.236
Mof_C 	C 	0.85	0.4088	0.1338	-0.28
Mof_C 	C 	0.5293	0.9007	0.9507	-0.362
Mof_N 	N 	0.5481	0.8311	0.9204	-0.224
Mof_C 	C 	0.7558	0.6227	0.0454	-0.293
Mof_N 	N 	0.6967	0.6663	0.9867	-0.228
Mof_N 	N 	0.4989	0.111	0.8299	-0.224
Mof_C 	C 	0.4712	0.1493	0.748	-0.3
Mof_N 	N 	0.0388	0.1059	0.2634	-0.234
Mof_C 	C 	0.9693	0.137	0.2088	-0.285
Mof_Cu	Cu	0.14683	0.6898	0.36384	0.804
Mof_Cu	Cu	0.45512	0.54584	0.53551	0.778
Mof_Cu	Cu	0.41563	0.21388	0.62191	0.796
Mof_Cu	Cu	0.14815	0.04614	0.3642	0.798
Mof_C 	C 	0.2563	0.6212	0.4213	-0.291
Mof_N 	N 	0.3261	0.5826	0.4585	-0.219
Mof_N 	N 	0.1497	0.8269	0.3704	-0.236
Mof_C 	C 	0.15	0.9088	0.3662	-0.279
Mof_C 	C 	0.4707	0.4007	0.5493	-0.365
Mof_N 	N 	0.4519	0.3311	0.5796	-0.224
Mof_C 	C 	0.2442	0.1227	0.4546	-0.291
Mof_N 	N 	0.3033	0.1663	0.5133	-0.229
Mof_N 	N 	0.5011	0.611	0.6701	-0.223
Mof_C 	C 	0.5288	0.6493	0.752	-0.299
Mof_N 	N 	0.9612	0.6059	0.2366	-0.233
Mof_C 	C 	0.0307	0.637	0.2912	-0.288
_end
