data_functionalizedCrystal
_audit_creation_method	'EQeq! by Chris Wilmer'
_symmetry_space_group_name_H-M	'P1'
_symmetry_Int_Tables_number	1
_symmetry_cell_setting	triclinic
loop_
_symmetry_equiv_pos_as_xyz
  x,y,z
_cell_length_a	28.4095
_cell_length_b	28.0922
_cell_length_c	9.4743
_cell_angle_alpha	90
_cell_angle_beta	90
_cell_angle_gamma	90
loop_
_atom_site_label
_atom_site_type_symbol
_atom_site_fract_x
_atom_site_fract_y
_atom_site_fract_z
_atom_site_charge
Mof_Zn	Zn	0.13155	0.51118	0.90457	1.138
Mof_N 	N 	0.36746	0.33949	0.4006	-0.157
Mof_N 	N 	0.38898	0.07802	0.6425	-0.294
Mof_N 	N 	0.51327	0.42657	0.0927	-0.144
Mof_N 	N 	0.57508	0.471	0.055	-0.299
Mof_N 	N 	0.39479	0.15532	0.6213	-0.135
Mof_C 	C 	0.40195	0.3616	0.3189	0.092
Mof_C 	C 	0.37168	0.11606	0.5789	0.086
Mof_H 	H 	0.3471	0.1157	0.5142	-0.047
Mof_N 	N 	0.20972	0.44356	0.5925	-0.14
Mof_C 	C 	0.41765	0.27943	0.5078	-0.09
Mof_H 	H 	0.4428	0.3006	0.5043	0.06
Mof_C 	C 	0.24995	0.41678	0.5428	0.069
Mof_C 	C 	0.37435	0.29312	0.4569	0.093
Mof_C 	C 	0.3869	0.20302	0.5703	0.079
Mof_C 	C 	0.42852	0.14129	0.7162	-0.008
Mof_H 	H 	0.45	0.1607	0.7625	0.029
Mof_C 	C 	0.47408	0.40528	0.1659	0.069
Mof_N 	N 	0.16226	0.48294	0.7332	-0.306
Mof_C 	C 	0.43125	0.33521	0.2324	-0.094
Mof_H 	H 	0.4265	0.3026	0.2243	0.068
Mof_C 	C 	0.46731	0.35647	0.1579	-0.064
Mof_H 	H 	0.4871	0.338	0.1022	0.053
Mof_C 	C 	0.3271	0.366	0.448	0.089
Mof_C 	C 	0.27618	0.39116	0.637	-0.071
Mof_H 	H 	0.2678	0.3905	0.7319	0.037
Mof_C 	C 	0.34371	0.21609	0.5217	-0.071
Mof_H 	H 	0.3185	0.1951	0.5272	0.05
Mof_C 	C 	0.42428	0.23421	0.5645	-0.07
Mof_H 	H 	0.4537	0.2251	0.5982	0.053
Mof_C 	C 	0.54068	0.46076	0.1425	0.103
Mof_H 	H 	0.5361	0.4757	0.2289	-0.033
Mof_C 	C 	0.40877	0.41097	0.3244	-0.097
Mof_H 	H 	0.389	0.4296	0.3799	0.053
Mof_C 	C 	0.33766	0.26112	0.464	-0.086
Mof_H 	H 	0.3083	0.2699	0.4295	0.061
Mof_C 	C 	0.44456	0.43232	0.248	-0.087
Mof_H 	H 	0.4486	0.4651	0.2523	0.043
Mof_C 	C 	0.42422	0.09329	0.7291	0.011
Mof_H 	H 	0.4424	0.074	0.7875	0.002
Mof_C 	C 	0.31546	0.36601	0.5901	-0.097
Mof_H 	H 	0.3339	0.3492	0.6542	0.07
Mof_C 	C 	0.20179	0.45928	0.7244	0.101
Mof_H 	H 	0.2219	0.454	0.8002	-0.064
Mof_C 	C 	0.56813	0.4426	0.9398	-0.01
Mof_H 	H 	0.5865	0.4423	0.8586	-0.011
Mof_C 	C 	0.26041	0.4157	0.4024	-0.069
Mof_H 	H 	0.2418	0.4326	0.3388	0.034
Mof_C 	C 	0.52986	0.4147	0.964	-0.003
Mof_H 	H 	0.5175	0.3919	0.9034	0.026
Mof_C 	C 	0.2981	0.3901	0.3545	-0.094
Mof_H 	H 	0.3044	0.3888	0.2582	0.044
Mof_C 	C 	0.1437	0.4828	0.6062	0.019
Mof_H 	H 	0.1153	0.4972	0.5826	-0.011
Mof_C 	C 	0.1724	0.458	0.5112	-0.015
Mof_H 	H 	0.1674	0.4525	0.4155	0.016
Mof_Zn	Zn	0.36845	0.01118	0.59543	1.139
Mof_N 	N 	0.13254	0.83949	0.0994	-0.156
Mof_N 	N 	0.11102	0.57802	0.8575	-0.293
Mof_N 	N 	0.98673	0.92657	0.4073	-0.142
Mof_N 	N 	0.92492	0.971	0.445	-0.298
Mof_N 	N 	0.10521	0.65532	0.8787	-0.134
Mof_C 	C 	0.09805	0.8616	0.1811	0.093
Mof_C 	C 	0.12832	0.61606	0.9211	0.087
Mof_H 	H 	0.1529	0.6157	0.9858	-0.046
Mof_N 	N 	0.29028	0.94356	0.9075	-0.138
Mof_C 	C 	0.08235	0.77943	0.9922	-0.089
Mof_H 	H 	0.0572	0.8006	0.9957	0.061
Mof_C 	C 	0.25005	0.91678	0.9572	0.069
Mof_C 	C 	0.12565	0.79312	0.0431	0.094
Mof_C 	C 	0.1131	0.70302	0.9297	0.081
Mof_C 	C 	0.07148	0.64129	0.7838	-0.007
Mof_H 	H 	0.05	0.6607	0.7375	0.03
Mof_C 	C 	0.02592	0.90528	0.3341	0.069
Mof_N 	N 	0.33774	0.98294	0.7668	-0.304
Mof_C 	C 	0.06875	0.83521	0.2676	-0.093
Mof_H 	H 	0.0735	0.8026	0.2757	0.068
Mof_C 	C 	0.03269	0.85647	0.3421	-0.064
Mof_H 	H 	0.0129	0.838	0.3978	0.053
Mof_C 	C 	0.1729	0.866	0.052	0.09
Mof_C 	C 	0.22382	0.89116	0.863	-0.07
Mof_H 	H 	0.2322	0.8905	0.7681	0.037
Mof_C 	C 	0.15629	0.71609	0.9783	-0.072
Mof_H 	H 	0.1815	0.6951	0.9728	0.05
Mof_C 	C 	0.07572	0.73421	0.9355	-0.07
Mof_H 	H 	0.0463	0.7251	0.9018	0.053
Mof_C 	C 	0.95932	0.96076	0.3575	0.103
Mof_H 	H 	0.9639	0.9757	0.2711	-0.033
Mof_C 	C 	0.09123	0.91097	0.1756	-0.097
Mof_H 	H 	0.111	0.9296	0.1201	0.053
Mof_C 	C 	0.16234	0.76112	0.036	-0.085
Mof_H 	H 	0.1917	0.7699	0.0705	0.061
Mof_C 	C 	0.05544	0.93232	0.252	-0.087
Mof_H 	H 	0.0514	0.9651	0.2477	0.043
Mof_C 	C 	0.07578	0.59329	0.7709	0.011
Mof_H 	H 	0.0576	0.574	0.7125	0.002
Mof_C 	C 	0.18454	0.86601	0.9099	-0.098
Mof_H 	H 	0.1661	0.8492	0.8458	0.07
Mof_C 	C 	0.29821	0.95928	0.7756	0.101
Mof_H 	H 	0.2781	0.954	0.6998	-0.064
Mof_C 	C 	0.93187	0.9426	0.5602	-0.01
Mof_H 	H 	0.9135	0.9423	0.6414	-0.011
Mof_C 	C 	0.23959	0.9157	0.0976	-0.069
Mof_H 	H 	0.2582	0.9326	0.1612	0.033
Mof_C 	C 	0.97014	0.9147	0.536	-0.003
Mof_H 	H 	0.9825	0.8919	0.5966	0.026
Mof_C 	C 	0.2019	0.8901	0.1455	-0.094
Mof_H 	H 	0.1956	0.8888	0.2418	0.044
Mof_C 	C 	0.3563	0.9828	0.8938	0.019
Mof_H 	H 	0.3847	0.9972	0.9174	-0.011
Mof_C 	C 	0.3276	0.958	0.9888	-0.015
Mof_H 	H 	0.3326	0.9525	0.0845	0.017
Mof_Zn	Zn	0.63155	0.51118	0.09543	1.139
Mof_N 	N 	0.86746	0.33949	0.5994	-0.156
Mof_N 	N 	0.88898	0.07802	0.3575	-0.293
Mof_N 	N 	0.01327	0.42657	0.9073	-0.143
Mof_N 	N 	0.07508	0.471	0.945	-0.298
Mof_N 	N 	0.89479	0.15532	0.3787	-0.134
Mof_C 	C 	0.90195	0.3616	0.6811	0.093
Mof_C 	C 	0.87168	0.11606	0.4211	0.087
Mof_H 	H 	0.8471	0.1157	0.4858	-0.046
Mof_N 	N 	0.70972	0.44356	0.4075	-0.139
Mof_C 	C 	0.91765	0.27943	0.4922	-0.089
Mof_H 	H 	0.9428	0.3006	0.4957	0.061
Mof_C 	C 	0.74995	0.41678	0.4572	0.07
Mof_C 	C 	0.87435	0.29312	0.5431	0.094
Mof_C 	C 	0.8869	0.20302	0.4297	0.08
Mof_C 	C 	0.92852	0.14129	0.2838	-0.007
Mof_H 	H 	0.95	0.1607	0.2375	0.03
Mof_C 	C 	0.97408	0.40528	0.8341	0.07
Mof_N 	N 	0.66226	0.48294	0.2668	-0.305
Mof_C 	C 	0.93125	0.33521	0.7676	-0.093
Mof_H 	H 	0.9265	0.3026	0.7757	0.068
Mof_C 	C 	0.96731	0.35647	0.8421	-0.064
Mof_H 	H 	0.9871	0.338	0.8978	0.053
Mof_C 	C 	0.8271	0.366	0.552	0.089
Mof_C 	C 	0.77618	0.39116	0.363	-0.071
Mof_H 	H 	0.7678	0.3905	0.2681	0.037
Mof_C 	C 	0.84371	0.21609	0.4783	-0.071
Mof_H 	H 	0.8185	0.1951	0.4728	0.05
Mof_C 	C 	0.92428	0.23421	0.4355	-0.07
Mof_H 	H 	0.9537	0.2251	0.4018	0.053
Mof_C 	C 	0.04068	0.46076	0.8575	0.103
Mof_H 	H 	0.0361	0.4757	0.7711	-0.033
Mof_C 	C 	0.90877	0.41097	0.6756	-0.097
Mof_H 	H 	0.889	0.4296	0.6201	0.053
Mof_C 	C 	0.83766	0.26112	0.536	-0.086
Mof_H 	H 	0.8083	0.2699	0.5705	0.061
Mof_C 	C 	0.94456	0.43232	0.752	-0.087
Mof_H 	H 	0.9486	0.4651	0.7477	0.043
Mof_C 	C 	0.92422	0.09329	0.2709	0.011
Mof_H 	H 	0.9424	0.074	0.2125	0.002
Mof_C 	C 	0.81546	0.36601	0.4099	-0.097
Mof_H 	H 	0.8339	0.3492	0.3458	0.07
Mof_C 	C 	0.70179	0.45928	0.2756	0.101
Mof_H 	H 	0.7219	0.454	0.1998	-0.064
Mof_C 	C 	0.06813	0.4426	0.0602	-0.01
Mof_H 	H 	0.0865	0.4423	0.1414	-0.011
Mof_C 	C 	0.76041	0.4157	0.5976	-0.069
Mof_H 	H 	0.7418	0.4326	0.6612	0.034
Mof_C 	C 	0.02986	0.4147	0.036	-0.003
Mof_H 	H 	0.0175	0.3919	0.0966	0.026
Mof_C 	C 	0.7981	0.3901	0.6455	-0.094
Mof_H 	H 	0.8044	0.3888	0.7418	0.044
Mof_C 	C 	0.6437	0.4828	0.3938	0.019
Mof_H 	H 	0.6153	0.4972	0.4174	-0.011
Mof_C 	C 	0.6724	0.458	0.4888	-0.015
Mof_H 	H 	0.6674	0.4525	0.5845	0.016
Mof_Zn	Zn	0.86845	0.01118	0.40457	1.139
Mof_N 	N 	0.63254	0.83949	0.9006	-0.156
Mof_N 	N 	0.61102	0.57802	0.1425	-0.293
Mof_N 	N 	0.48673	0.92657	0.5927	-0.143
Mof_N 	N 	0.42492	0.971	0.555	-0.298
Mof_N 	N 	0.60521	0.65532	0.1213	-0.134
Mof_C 	C 	0.59805	0.8616	0.8189	0.093
Mof_C 	C 	0.62832	0.61606	0.0789	0.087
Mof_H 	H 	0.6529	0.6157	0.0142	-0.046
Mof_N 	N 	0.79028	0.94356	0.0925	-0.138
Mof_C 	C 	0.58235	0.77943	0.0078	-0.089
Mof_H 	H 	0.5572	0.8006	0.0043	0.061
Mof_C 	C 	0.75005	0.91678	0.0428	0.069
Mof_C 	C 	0.62565	0.79312	0.9569	0.094
Mof_C 	C 	0.6131	0.70302	0.0703	0.081
Mof_C 	C 	0.57148	0.64129	0.2162	-0.007
Mof_H 	H 	0.55	0.6607	0.2625	0.03
Mof_C 	C 	0.52592	0.90528	0.6659	0.07
Mof_N 	N 	0.83774	0.98294	0.2332	-0.304
Mof_C 	C 	0.56875	0.83521	0.7324	-0.093
Mof_H 	H 	0.5735	0.8026	0.7243	0.068
Mof_C 	C 	0.53269	0.85647	0.6579	-0.065
Mof_H 	H 	0.5129	0.838	0.6022	0.053
Mof_C 	C 	0.6729	0.866	0.948	0.09
Mof_C 	C 	0.72382	0.89116	0.137	-0.07
Mof_H 	H 	0.7322	0.8905	0.2319	0.037
Mof_C 	C 	0.65629	0.71609	0.0217	-0.072
Mof_H 	H 	0.6815	0.6951	0.0272	0.05
Mof_C 	C 	0.57572	0.73421	0.0645	-0.07
Mof_H 	H 	0.5463	0.7251	0.0982	0.053
Mof_C 	C 	0.45932	0.96076	0.6425	0.103
Mof_H 	H 	0.4639	0.9757	0.7289	-0.033
Mof_C 	C 	0.59123	0.91097	0.8244	-0.097
Mof_H 	H 	0.611	0.9296	0.8799	0.053
Mof_C 	C 	0.66234	0.76112	0.964	-0.085
Mof_H 	H 	0.6917	0.7699	0.9295	0.061
Mof_C 	C 	0.55544	0.93232	0.748	-0.087
Mof_H 	H 	0.5514	0.9651	0.7523	0.043
Mof_C 	C 	0.57578	0.59329	0.2291	0.011
Mof_H 	H 	0.5576	0.574	0.2875	0.002
Mof_C 	C 	0.68454	0.86601	0.0901	-0.098
Mof_H 	H 	0.6661	0.8492	0.1542	0.07
Mof_C 	C 	0.79821	0.95928	0.2244	0.101
Mof_H 	H 	0.7781	0.954	0.3002	-0.064
Mof_C 	C 	0.43187	0.9426	0.4398	-0.01
Mof_H 	H 	0.4135	0.9423	0.3586	-0.011
Mof_C 	C 	0.73959	0.9157	0.9024	-0.069
Mof_H 	H 	0.7582	0.9326	0.8388	0.033
Mof_C 	C 	0.47014	0.9147	0.464	-0.003
Mof_H 	H 	0.4825	0.8919	0.4034	0.026
Mof_C 	C 	0.7019	0.8901	0.8545	-0.094
Mof_H 	H 	0.6956	0.8888	0.7582	0.044
Mof_C 	C 	0.8563	0.9828	0.1062	0.019
Mof_H 	H 	0.8847	0.9972	0.0826	-0.01
Mof_C 	C 	0.8276	0.958	0.0112	-0.015
Mof_H 	H 	0.8326	0.9525	0.9155	0.017
Mof_Zn	Zn	0.36845	0.48882	0.90457	1.139
Mof_N 	N 	0.13254	0.66051	0.4006	-0.156
Mof_N 	N 	0.11102	0.92198	0.6425	-0.293
Mof_N 	N 	0.98673	0.57343	0.0927	-0.143
Mof_N 	N 	0.92492	0.529	0.055	-0.298
Mof_N 	N 	0.10521	0.84468	0.6213	-0.134
Mof_C 	C 	0.09805	0.6384	0.3189	0.093
Mof_C 	C 	0.12832	0.88394	0.5789	0.087
Mof_H 	H 	0.1529	0.8843	0.5142	-0.046
Mof_N 	N 	0.29028	0.55644	0.5925	-0.139
Mof_C 	C 	0.08235	0.72057	0.5078	-0.089
Mof_H 	H 	0.0572	0.6994	0.5043	0.061
Mof_C 	C 	0.25005	0.58322	0.5428	0.07
Mof_C 	C 	0.12565	0.70688	0.4569	0.094
Mof_C 	C 	0.1131	0.79698	0.5703	0.08
Mof_C 	C 	0.07148	0.85871	0.7162	-0.007
Mof_H 	H 	0.05	0.8393	0.7625	0.03
Mof_C 	C 	0.02592	0.59472	0.1659	0.07
Mof_N 	N 	0.33774	0.51706	0.7332	-0.305
Mof_C 	C 	0.06875	0.66479	0.2324	-0.093
Mof_H 	H 	0.0735	0.6974	0.2243	0.068
Mof_C 	C 	0.03269	0.64353	0.1579	-0.064
Mof_H 	H 	0.0129	0.662	0.1022	0.053
Mof_C 	C 	0.1729	0.634	0.448	0.089
Mof_C 	C 	0.22382	0.60884	0.637	-0.071
Mof_H 	H 	0.2322	0.6095	0.7319	0.037
Mof_C 	C 	0.15629	0.78391	0.5217	-0.071
Mof_H 	H 	0.1815	0.8049	0.5272	0.05
Mof_C 	C 	0.07572	0.76579	0.5645	-0.07
Mof_H 	H 	0.0463	0.7749	0.5982	0.053
Mof_C 	C 	0.95932	0.53924	0.1425	0.103
Mof_H 	H 	0.9639	0.5243	0.2289	-0.033
Mof_C 	C 	0.09123	0.58903	0.3244	-0.097
Mof_H 	H 	0.111	0.5704	0.3799	0.053
Mof_C 	C 	0.16234	0.73888	0.464	-0.086
Mof_H 	H 	0.1917	0.7301	0.4295	0.061
Mof_C 	C 	0.05544	0.56768	0.248	-0.087
Mof_H 	H 	0.0514	0.5349	0.2523	0.043
Mof_C 	C 	0.07578	0.90671	0.7291	0.011
Mof_H 	H 	0.0576	0.926	0.7875	0.002
Mof_C 	C 	0.18454	0.63399	0.5901	-0.097
Mof_H 	H 	0.1661	0.6508	0.6542	0.07
Mof_C 	C 	0.29821	0.54072	0.7244	0.101
Mof_H 	H 	0.2781	0.546	0.8002	-0.064
Mof_C 	C 	0.93187	0.5574	0.9398	-0.01
Mof_H 	H 	0.9135	0.5577	0.8586	-0.011
Mof_C 	C 	0.23959	0.5843	0.4024	-0.069
Mof_H 	H 	0.2582	0.5674	0.3388	0.034
Mof_C 	C 	0.97014	0.5853	0.964	-0.003
Mof_H 	H 	0.9825	0.6081	0.9034	0.026
Mof_C 	C 	0.2019	0.6099	0.3545	-0.094
Mof_H 	H 	0.1956	0.6112	0.2582	0.044
Mof_C 	C 	0.3563	0.5172	0.6062	0.019
Mof_H 	H 	0.3847	0.5028	0.5826	-0.011
Mof_C 	C 	0.3276	0.542	0.5112	-0.015
Mof_H 	H 	0.3326	0.5475	0.4155	0.016
Mof_Zn	Zn	0.13155	0.98882	0.59543	1.139
Mof_N 	N 	0.36746	0.16051	0.0994	-0.156
Mof_N 	N 	0.38898	0.42198	0.8575	-0.293
Mof_N 	N 	0.51327	0.07343	0.4073	-0.143
Mof_N 	N 	0.57508	0.029	0.445	-0.298
Mof_N 	N 	0.39479	0.34468	0.8787	-0.134
Mof_C 	C 	0.40195	0.1384	0.1811	0.093
Mof_C 	C 	0.37168	0.38394	0.9211	0.087
Mof_H 	H 	0.3471	0.3843	0.9858	-0.046
Mof_N 	N 	0.20972	0.05644	0.9075	-0.138
Mof_C 	C 	0.41765	0.22057	0.9922	-0.089
Mof_H 	H 	0.4428	0.1994	0.9957	0.061
Mof_C 	C 	0.24995	0.08322	0.9572	0.069
Mof_C 	C 	0.37435	0.20688	0.0431	0.094
Mof_C 	C 	0.3869	0.29698	0.9297	0.081
Mof_C 	C 	0.42852	0.35871	0.7838	-0.007
Mof_H 	H 	0.45	0.3393	0.7375	0.03
Mof_C 	C 	0.47408	0.09472	0.3341	0.07
Mof_N 	N 	0.16226	0.01706	0.7668	-0.304
Mof_C 	C 	0.43125	0.16479	0.2676	-0.093
Mof_H 	H 	0.4265	0.1974	0.2757	0.068
Mof_C 	C 	0.46731	0.14353	0.3421	-0.065
Mof_H 	H 	0.4871	0.162	0.3978	0.053
Mof_C 	C 	0.3271	0.134	0.052	0.09
Mof_C 	C 	0.27618	0.10884	0.863	-0.07
Mof_H 	H 	0.2678	0.1095	0.7681	0.037
Mof_C 	C 	0.34371	0.28391	0.9783	-0.072
Mof_H 	H 	0.3185	0.3049	0.9728	0.05
Mof_C 	C 	0.42428	0.26579	0.9355	-0.07
Mof_H 	H 	0.4537	0.2749	0.9018	0.053
Mof_C 	C 	0.54068	0.03924	0.3575	0.103
Mof_H 	H 	0.5361	0.0243	0.2711	-0.033
Mof_C 	C 	0.40877	0.08903	0.1756	-0.097
Mof_H 	H 	0.389	0.0704	0.1201	0.053
Mof_C 	C 	0.33766	0.23888	0.036	-0.085
Mof_H 	H 	0.3083	0.2301	0.0705	0.061
Mof_C 	C 	0.44456	0.06768	0.252	-0.087
Mof_H 	H 	0.4486	0.0349	0.2477	0.043
Mof_C 	C 	0.42422	0.40671	0.7709	0.011
Mof_H 	H 	0.4424	0.426	0.7125	0.002
Mof_C 	C 	0.31546	0.13399	0.9099	-0.098
Mof_H 	H 	0.3339	0.1508	0.8458	0.07
Mof_C 	C 	0.20179	0.04072	0.7756	0.101
Mof_H 	H 	0.2219	0.046	0.6998	-0.064
Mof_C 	C 	0.56813	0.0574	0.5602	-0.01
Mof_H 	H 	0.5865	0.0577	0.6414	-0.011
Mof_C 	C 	0.26041	0.0843	0.0976	-0.069
Mof_H 	H 	0.2418	0.0674	0.1612	0.033
Mof_C 	C 	0.52986	0.0853	0.536	-0.003
Mof_H 	H 	0.5175	0.1081	0.5966	0.026
Mof_C 	C 	0.2981	0.1099	0.1455	-0.094
Mof_H 	H 	0.3044	0.1112	0.2418	0.044
Mof_C 	C 	0.1437	0.0172	0.8938	0.019
Mof_H 	H 	0.1153	0.0028	0.9174	-0.01
Mof_C 	C 	0.1724	0.042	0.9888	-0.015
Mof_H 	H 	0.1674	0.0475	0.0845	0.017
Mof_Zn	Zn	0.86845	0.48882	0.09543	1.139
Mof_N 	N 	0.63254	0.66051	0.5994	-0.156
Mof_N 	N 	0.61102	0.92198	0.3575	-0.293
Mof_N 	N 	0.48673	0.57343	0.9073	-0.143
Mof_N 	N 	0.42492	0.529	0.945	-0.298
Mof_N 	N 	0.60521	0.84468	0.3787	-0.134
Mof_C 	C 	0.59805	0.6384	0.6811	0.093
Mof_C 	C 	0.62832	0.88394	0.4211	0.087
Mof_H 	H 	0.6529	0.8843	0.4858	-0.046
Mof_N 	N 	0.79028	0.55644	0.4075	-0.139
Mof_C 	C 	0.58235	0.72057	0.4922	-0.089
Mof_H 	H 	0.5572	0.6994	0.4957	0.061
Mof_C 	C 	0.75005	0.58322	0.4572	0.07
Mof_C 	C 	0.62565	0.70688	0.5431	0.094
Mof_C 	C 	0.6131	0.79698	0.4297	0.08
Mof_C 	C 	0.57148	0.85871	0.2838	-0.007
Mof_H 	H 	0.55	0.8393	0.2375	0.03
Mof_C 	C 	0.52592	0.59472	0.8341	0.07
Mof_N 	N 	0.83774	0.51706	0.2668	-0.305
Mof_C 	C 	0.56875	0.66479	0.7676	-0.093
Mof_H 	H 	0.5735	0.6974	0.7757	0.068
Mof_C 	C 	0.53269	0.64353	0.8421	-0.064
Mof_H 	H 	0.5129	0.662	0.8978	0.053
Mof_C 	C 	0.6729	0.634	0.552	0.089
Mof_C 	C 	0.72382	0.60884	0.363	-0.071
Mof_H 	H 	0.7322	0.6095	0.2681	0.037
Mof_C 	C 	0.65629	0.78391	0.4783	-0.071
Mof_H 	H 	0.6815	0.8049	0.4728	0.05
Mof_C 	C 	0.57572	0.76579	0.4355	-0.07
Mof_H 	H 	0.5463	0.7749	0.4018	0.053
Mof_C 	C 	0.45932	0.53924	0.8575	0.103
Mof_H 	H 	0.4639	0.5243	0.7711	-0.033
Mof_C 	C 	0.59123	0.58903	0.6756	-0.097
Mof_H 	H 	0.611	0.5704	0.6201	0.053
Mof_C 	C 	0.66234	0.73888	0.536	-0.086
Mof_H 	H 	0.6917	0.7301	0.5705	0.061
Mof_C 	C 	0.55544	0.56768	0.752	-0.087
Mof_H 	H 	0.5514	0.5349	0.7477	0.043
Mof_C 	C 	0.57578	0.90671	0.2709	0.011
Mof_H 	H 	0.5576	0.926	0.2125	0.002
Mof_C 	C 	0.68454	0.63399	0.4099	-0.097
Mof_H 	H 	0.6661	0.6508	0.3458	0.07
Mof_C 	C 	0.79821	0.54072	0.2756	0.101
Mof_H 	H 	0.7781	0.546	0.1998	-0.064
Mof_C 	C 	0.43187	0.5574	0.0602	-0.01
Mof_H 	H 	0.4135	0.5577	0.1414	-0.011
Mof_C 	C 	0.73959	0.5843	0.5976	-0.069
Mof_H 	H 	0.7582	0.5674	0.6612	0.034
Mof_C 	C 	0.47014	0.5853	0.036	-0.003
Mof_H 	H 	0.4825	0.6081	0.0966	0.026
Mof_C 	C 	0.7019	0.6099	0.6455	-0.094
Mof_H 	H 	0.6956	0.6112	0.7418	0.044
Mof_C 	C 	0.8563	0.5172	0.3938	0.019
Mof_H 	H 	0.8847	0.5028	0.4174	-0.011
Mof_C 	C 	0.8276	0.542	0.4888	-0.015
Mof_H 	H 	0.8326	0.5475	0.5845	0.016
Mof_Zn	Zn	0.63155	0.98882	0.40457	1.139
Mof_N 	N 	0.86746	0.16051	0.9006	-0.156
Mof_N 	N 	0.88898	0.42198	0.1425	-0.293
Mof_N 	N 	0.01327	0.07343	0.5927	-0.142
Mof_N 	N 	0.07508	0.029	0.555	-0.298
Mof_N 	N 	0.89479	0.34468	0.1213	-0.134
Mof_C 	C 	0.90195	0.1384	0.8189	0.093
Mof_C 	C 	0.87168	0.38394	0.0789	0.087
Mof_H 	H 	0.8471	0.3843	0.0142	-0.046
Mof_N 	N 	0.70972	0.05644	0.0925	-0.138
Mof_C 	C 	0.91765	0.22057	0.0078	-0.089
Mof_H 	H 	0.9428	0.1994	0.0043	0.061
Mof_C 	C 	0.74995	0.08322	0.0428	0.069
Mof_C 	C 	0.87435	0.20688	0.9569	0.094
Mof_C 	C 	0.8869	0.29698	0.0703	0.081
Mof_C 	C 	0.92852	0.35871	0.2162	-0.007
Mof_H 	H 	0.95	0.3393	0.2625	0.03
Mof_C 	C 	0.97408	0.09472	0.6659	0.069
Mof_N 	N 	0.66226	0.01706	0.2332	-0.304
Mof_C 	C 	0.93125	0.16479	0.7324	-0.093
Mof_H 	H 	0.9265	0.1974	0.7243	0.068
Mof_C 	C 	0.96731	0.14353	0.6579	-0.064
Mof_H 	H 	0.9871	0.162	0.6022	0.053
Mof_C 	C 	0.8271	0.134	0.948	0.09
Mof_C 	C 	0.77618	0.10884	0.137	-0.07
Mof_H 	H 	0.7678	0.1095	0.2319	0.037
Mof_C 	C 	0.84371	0.28391	0.0217	-0.072
Mof_H 	H 	0.8185	0.3049	0.0272	0.05
Mof_C 	C 	0.92428	0.26579	0.0645	-0.07
Mof_H 	H 	0.9537	0.2749	0.0982	0.053
Mof_C 	C 	0.04068	0.03924	0.6425	0.103
Mof_H 	H 	0.0361	0.0243	0.7289	-0.033
Mof_C 	C 	0.90877	0.08903	0.8244	-0.097
Mof_H 	H 	0.889	0.0704	0.8799	0.053
Mof_C 	C 	0.83766	0.23888	0.964	-0.085
Mof_H 	H 	0.8083	0.2301	0.9295	0.061
Mof_C 	C 	0.94456	0.06768	0.748	-0.087
Mof_H 	H 	0.9486	0.0349	0.7523	0.043
Mof_C 	C 	0.92422	0.40671	0.2291	0.011
Mof_H 	H 	0.9424	0.426	0.2875	0.002
Mof_C 	C 	0.81546	0.13399	0.0901	-0.098
Mof_H 	H 	0.8339	0.1508	0.1542	0.07
Mof_C 	C 	0.70179	0.04072	0.2244	0.101
Mof_H 	H 	0.7219	0.046	0.3002	-0.064
Mof_C 	C 	0.06813	0.0574	0.4398	-0.01
Mof_H 	H 	0.0865	0.0577	0.3586	-0.011
Mof_C 	C 	0.76041	0.0843	0.9024	-0.069
Mof_H 	H 	0.7418	0.0674	0.8388	0.033
Mof_C 	C 	0.02986	0.0853	0.464	-0.003
Mof_H 	H 	0.0175	0.1081	0.4034	0.026
Mof_C 	C 	0.7981	0.1099	0.8545	-0.094
Mof_H 	H 	0.8044	0.1112	0.7582	0.044
Mof_C 	C 	0.6437	0.0172	0.1062	0.019
Mof_H 	H 	0.6153	0.0028	0.0826	-0.011
Mof_C 	C 	0.6724	0.042	0.0112	-0.015
Mof_H 	H 	0.6674	0.0475	0.9155	0.017
_end
