data_functionalizedCrystal
_audit_creation_method	'EQeq! by Chris Wilmer'
_symmetry_space_group_name_H-M	'P1'
_symmetry_Int_Tables_number	1
_symmetry_cell_setting	triclinic
loop_
_symmetry_equiv_pos_as_xyz
  x,y,z
_cell_length_a	13.299
_cell_length_b	14.71
_cell_length_c	15.689
_cell_angle_alpha	90
_cell_angle_beta	93.375
_cell_angle_gamma	90
loop_
_atom_site_label
_atom_site_type_symbol
_atom_site_fract_x
_atom_site_fract_y
_atom_site_fract_z
_atom_site_charge
Mof_N 	N 	0.6068	0.9067	0.0386	-0.154
Mof_N 	N 	0.4322	0.9866	0.1116	-0.129
Mof_N 	N 	0.4241	0.8729	0.9401	-0.224
Mof_N 	N 	0.619	0.8309	0.9942	-0.123
Mof_N 	N 	0.6685	0.9066	0.1075	-0.08
Mof_N 	N 	0.3837	0.9131	0.1356	-0.098
Mof_N 	N 	0.4209	0.0535	0.1666	-0.142
Mof_Cu	Cu	0.53354	0.80677	0.88597	0.872
Mof_N 	N 	0.3415	0.8537	0.9385	-0.026
Mof_N 	N 	0.689	0.779	0.033	-0.112
Mof_C 	C 	0.718	0.8278	0.1026	0.086
Mof_C 	C 	0.3424	0.9387	0.2074	0.124
Mof_N 	N 	0.3642	0.0248	0.2278	-0.12
Mof_N 	N 	0.9361	0.7376	0.2919	-0.234
Mof_N 	N 	0.1423	0.7686	0.3361	-0.237
Mof_N 	N 	0.2588	0.8372	0.9383	-0.061
Mof_C 	C 	0.795	0.7959	0.1667	0.094
Mof_C 	C 	0.2757	0.8796	0.2533	0.059
Mof_C 	C 	0.8322	0.711	0.167	-0.157
Mof_C 	C 	0.8293	0.8521	0.2315	-0.161
Mof_C 	C 	0.243	0.7975	0.2193	-0.133
Mof_C 	C 	0.2404	0.9027	0.3305	-0.137
Mof_C 	C 	0.9028	0.6839	0.2298	0.109
Mof_H 	H 	0.8102	0.6702	0.1245	0.092
Mof_H 	H 	0.8064	0.9117	0.2345	0.11
Mof_C 	C 	0.8993	0.8183	0.2928	0.124
Mof_C 	C 	0.1777	0.7445	0.2613	0.079
Mof_H 	H 	0.2657	0.7782	0.1673	0.082
Mof_H 	H 	0.2616	0.9566	0.3569	0.093
Mof_C 	C 	0.1734	0.8466	0.3695	0.089
Mof_H 	H 	0.9279	0.625	0.228	-0.003
Mof_H 	H 	0.9209	0.8566	0.3373	-0.015
Mof_H 	H 	0.157	0.6895	0.2369	-0.01
Mof_H 	H 	0.1494	0.8646	0.4214	-0.016
Mof_N 	N 	0.8932	0.4067	0.4614	-0.135
Mof_N 	N 	0.0678	0.4866	0.3884	-0.156
Mof_N 	N 	0.0759	0.3729	0.5599	-0.255
Mof_N 	N 	0.881	0.3309	0.5058	-0.151
Mof_N 	N 	0.8315	0.4066	0.3925	-0.083
Mof_N 	N 	0.1163	0.4131	0.3644	-0.095
Mof_N 	N 	0.0791	0.5535	0.3334	-0.131
Mof_Cu	Cu	0.96646	0.30677	0.61403	0.883
Mof_N 	N 	0.1585	0.3537	0.5615	-0.034
Mof_N 	N 	0.811	0.279	0.467	-0.094
Mof_C 	C 	0.782	0.3278	0.3974	0.085
Mof_C 	C 	0.1576	0.4387	0.2926	0.086
Mof_N 	N 	0.1358	0.5248	0.2722	-0.096
Mof_N 	N 	0.5639	0.2376	0.2081	-0.249
Mof_N 	N 	0.3577	0.2686	0.1639	-0.238
Mof_N 	N 	0.2412	0.3372	0.5617	-0.075
Mof_C 	C 	0.705	0.2959	0.3333	0.094
Mof_C 	C 	0.2243	0.3796	0.2467	0.066
Mof_C 	C 	0.6678	0.211	0.333	-0.165
Mof_C 	C 	0.6707	0.3521	0.2685	-0.168
Mof_C 	C 	0.257	0.2975	0.2807	-0.142
Mof_C 	C 	0.2596	0.4027	0.1695	-0.148
Mof_C 	C 	0.5972	0.1839	0.2702	0.109
Mof_H 	H 	0.6898	0.1702	0.3755	0.092
Mof_H 	H 	0.6936	0.4117	0.2655	0.101
Mof_C 	C 	0.6007	0.3183	0.2072	0.122
Mof_C 	C 	0.3223	0.2445	0.2387	0.082
Mof_H 	H 	0.2343	0.2782	0.3327	0.086
Mof_H 	H 	0.2384	0.4566	0.1431	0.079
Mof_C 	C 	0.3266	0.3466	0.1305	0.089
Mof_H 	H 	0.5721	0.125	0.272	-0.02
Mof_H 	H 	0.5791	0.3566	0.1627	-0.035
Mof_H 	H 	0.343	0.1895	0.2631	-0.008
Mof_H 	H 	0.3506	0.3646	0.0786	-0.026
Mof_N 	N 	0.3932	0.0933	0.9614	-0.126
Mof_N 	N 	0.5678	0.0134	0.8884	-0.158
Mof_N 	N 	0.5759	0.1271	0.0599	-0.252
Mof_N 	N 	0.381	0.1691	0.0058	-0.19
Mof_N 	N 	0.3315	0.0934	0.8925	-0.091
Mof_N 	N 	0.6163	0.0869	0.8644	-0.079
Mof_N 	N 	0.5791	0.9465	0.8334	-0.104
Mof_Cu	Cu	0.46646	0.19323	0.11403	0.863
Mof_N 	N 	0.6585	0.1463	0.0615	-0.039
Mof_N 	N 	0.311	0.221	0.967	-0.073
Mof_C 	C 	0.282	0.1722	0.8974	0.085
Mof_C 	C 	0.6576	0.0613	0.7926	0.06
Mof_N 	N 	0.6358	0.9752	0.7722	-0.063
Mof_N 	N 	0.0639	0.2624	0.7081	-0.259
Mof_N 	N 	0.8577	0.2314	0.6639	-0.233
Mof_N 	N 	0.7412	0.1628	0.0617	-0.082
Mof_C 	C 	0.205	0.2041	0.8333	0.094
Mof_C 	C 	0.7243	0.1204	0.7467	0.087
Mof_C 	C 	0.1678	0.289	0.833	-0.167
Mof_C 	C 	0.1707	0.1479	0.7685	-0.172
Mof_C 	C 	0.757	0.2025	0.7807	-0.148
Mof_C 	C 	0.7596	0.0973	0.6695	-0.154
Mof_C 	C 	0.0972	0.3161	0.7702	0.109
Mof_H 	H 	0.1898	0.3298	0.8755	0.099
Mof_H 	H 	0.1936	0.0883	0.7655	0.092
Mof_C 	C 	0.1007	0.1817	0.7072	0.12
Mof_C 	C 	0.8223	0.2555	0.7387	0.097
Mof_H 	H 	0.7343	0.2218	0.8327	0.104
Mof_H 	H 	0.7384	0.0434	0.6431	0.084
Mof_C 	C 	0.8266	0.1534	0.6305	0.102
Mof_H 	H 	0.0721	0.375	0.772	-0.022
Mof_H 	H 	0.0791	0.1434	0.6627	-0.046
Mof_H 	H 	0.843	0.3105	0.7631	0.001
Mof_H 	H 	0.8506	0.1354	0.5786	-0.018
Mof_N 	N 	0.1068	0.5933	0.5386	-0.151
Mof_N 	N 	0.9322	0.5134	0.6116	-0.136
Mof_N 	N 	0.9241	0.6271	0.4401	-0.222
Mof_N 	N 	0.119	0.6691	0.4942	-0.159
Mof_N 	N 	0.1685	0.5934	0.6075	-0.089
Mof_N 	N 	0.8837	0.5869	0.6356	-0.082
Mof_N 	N 	0.9209	0.4465	0.6666	-0.114
Mof_Cu	Cu	0.03354	0.69323	0.38597	0.852
Mof_N 	N 	0.8415	0.6463	0.4385	-0.03
Mof_N 	N 	0.189	0.721	0.533	-0.094
Mof_C 	C 	0.218	0.6722	0.6026	0.084
Mof_C 	C 	0.8424	0.5613	0.7074	0.096
Mof_N 	N 	0.8642	0.4752	0.7278	-0.085
Mof_N 	N 	0.4361	0.7624	0.7919	-0.245
Mof_N 	N 	0.6423	0.7314	0.8361	-0.232
Mof_N 	N 	0.7588	0.6628	0.4383	-0.067
Mof_C 	C 	0.295	0.7041	0.6667	0.092
Mof_C 	C 	0.7757	0.6204	0.7533	0.081
Mof_C 	C 	0.3322	0.789	0.667	-0.159
Mof_C 	C 	0.3293	0.6479	0.7315	-0.164
Mof_C 	C 	0.743	0.7025	0.7193	-0.14
Mof_C 	C 	0.7404	0.5973	0.8305	-0.144
Mof_C 	C 	0.4028	0.8161	0.7298	0.109
Mof_H 	H 	0.3102	0.8298	0.6245	0.098
Mof_H 	H 	0.3064	0.5883	0.7345	0.1
Mof_C 	C 	0.3993	0.6817	0.7928	0.121
Mof_C 	C 	0.6777	0.7555	0.7613	0.095
Mof_H 	H 	0.7657	0.7218	0.6673	0.1
Mof_H 	H 	0.7616	0.5434	0.8569	0.098
Mof_C 	C 	0.6734	0.6534	0.8695	0.102
Mof_H 	H 	0.4279	0.875	0.728	-0.006
Mof_H 	H 	0.4209	0.6434	0.8373	-0.026
Mof_H 	H 	0.657	0.8105	0.7369	-0
Mof_H 	H 	0.6494	0.6354	0.9214	-0.008
Mof_Cu	Cu	0.5	0	-0	0.838
Mof_Cu	Cu	4.63818e-18	0.5	0.5	0.855
_end
