data_functionalizedCrystal
_audit_creation_method	'EQeq! by Chris Wilmer'
_symmetry_space_group_name_H-M	'P1'
_symmetry_Int_Tables_number	1
_symmetry_cell_setting	triclinic
loop_
_symmetry_equiv_pos_as_xyz
  x,y,z
_cell_length_a	17.082
_cell_length_b	17.082
_cell_length_c	17.082
_cell_angle_alpha	90
_cell_angle_beta	90
_cell_angle_gamma	90
loop_
_atom_site_label
_atom_site_type_symbol
_atom_site_fract_x
_atom_site_fract_y
_atom_site_fract_z
_atom_site_charge
Mof_N 	N 	0.03002	0.68066	0.41094	-0.405
Mof_C 	C 	0.1055	0.6649	0.39	-0.026
Mof_H 	H 	0.1508	0.6893	0.4113	-0.008
Mof_H 	H 	0.8804	0.6447	0.4218	0.212
Mof_N 	N 	0.53002	0.18066	0.91094	-0.29
Mof_C 	C 	0.6055	0.1649	0.89	-0.012
Mof_H 	H 	0.6508	0.1893	0.9113	0.008
Mof_H 	H 	0.3804	0.1447	0.9218	0.165
Mof_N 	N 	0.96998	0.31934	0.41094	-0.21
Mof_C 	C 	0.8945	0.3351	0.39	-0.01
Mof_H 	H 	0.8492	0.3107	0.4113	-0.008
Mof_H 	H 	0.1196	0.3553	0.4218	0.095
Mof_N 	N 	0.46998	0.81934	0.91094	-0.295
Mof_C 	C 	0.3945	0.8351	0.89	-0.004
Mof_H 	H 	0.3492	0.8107	0.9113	0.012
Mof_H 	H 	0.6196	0.8553	0.9218	0.223
Mof_N 	N 	0.96998	0.68066	0.58906	-0.21
Mof_C 	C 	0.8945	0.6649	0.61	-0.008
Mof_H 	H 	0.8492	0.6893	0.5887	-0.009
Mof_H 	H 	0.1196	0.6447	0.5782	0.095
Mof_N 	N 	0.46998	0.18066	0.08906	-0.323
Mof_C 	C 	0.3945	0.1649	0.11	-0.034
Mof_H 	H 	0.3492	0.1893	0.0887	-0.035
Mof_H 	H 	0.6196	0.1447	0.0782	0.093
Mof_N 	N 	0.03002	0.31934	0.58906	-0.406
Mof_C 	C 	0.1055	0.3351	0.61	-0.028
Mof_H 	H 	0.1508	0.3107	0.5887	-0.008
Mof_H 	H 	0.8804	0.3553	0.5782	0.211
Mof_N 	N 	0.53002	0.81934	0.08906	-0.325
Mof_C 	C 	0.6055	0.8351	0.11	-0.023
Mof_H 	H 	0.6508	0.8107	0.0887	-0.018
Mof_H 	H 	0.3804	0.8553	0.0782	0.132
Mof_N 	N 	0.41094	0.03002	0.68066	-0.406
Mof_C 	C 	0.39	0.1055	0.6649	-0.027
Mof_H 	H 	0.4113	0.1508	0.6893	-0.009
Mof_H 	H 	0.4218	0.8804	0.6447	0.211
Mof_N 	N 	0.91094	0.53002	0.18066	-0.291
Mof_C 	C 	0.89	0.6055	0.1649	-0.013
Mof_H 	H 	0.9113	0.6508	0.1893	0.007
Mof_H 	H 	0.9218	0.3804	0.1447	0.164
Mof_N 	N 	0.41094	0.96998	0.31934	-0.211
Mof_C 	C 	0.39	0.8945	0.3351	-0.011
Mof_H 	H 	0.4113	0.8492	0.3107	-0.009
Mof_H 	H 	0.4218	0.1196	0.3553	0.094
Mof_N 	N 	0.91094	0.46998	0.81934	-0.295
Mof_C 	C 	0.89	0.3945	0.8351	-0.004
Mof_H 	H 	0.9113	0.3492	0.8107	0.012
Mof_H 	H 	0.9218	0.6196	0.8553	0.223
Mof_N 	N 	0.58906	0.96998	0.68066	-0.21
Mof_C 	C 	0.61	0.8945	0.6649	-0.008
Mof_H 	H 	0.5887	0.8492	0.6893	-0.009
Mof_H 	H 	0.5782	0.1196	0.6447	0.095
Mof_N 	N 	0.08906	0.46998	0.18066	-0.323
Mof_C 	C 	0.11	0.3945	0.1649	-0.034
Mof_H 	H 	0.0887	0.3492	0.1893	-0.035
Mof_H 	H 	0.0782	0.6196	0.1447	0.093
Mof_N 	N 	0.58906	0.03002	0.31934	-0.406
Mof_C 	C 	0.61	0.1055	0.3351	-0.028
Mof_H 	H 	0.5887	0.1508	0.3107	-0.008
Mof_H 	H 	0.5782	0.8804	0.3553	0.211
Mof_N 	N 	0.08906	0.53002	0.81934	-0.325
Mof_C 	C 	0.11	0.6055	0.8351	-0.023
Mof_H 	H 	0.0887	0.6508	0.8107	-0.018
Mof_H 	H 	0.0782	0.3804	0.8553	0.132
Mof_N 	N 	0.68066	0.41094	0.03002	-0.406
Mof_C 	C 	0.6649	0.39	0.1055	-0.027
Mof_H 	H 	0.6893	0.4113	0.1508	-0.009
Mof_H 	H 	0.6447	0.4218	0.8804	0.211
Mof_N 	N 	0.18066	0.91094	0.53002	-0.291
Mof_C 	C 	0.1649	0.89	0.6055	-0.013
Mof_H 	H 	0.1893	0.9113	0.6508	0.007
Mof_H 	H 	0.1447	0.9218	0.3804	0.164
Mof_N 	N 	0.31934	0.41094	0.96998	-0.211
Mof_C 	C 	0.3351	0.39	0.8945	-0.011
Mof_H 	H 	0.3107	0.4113	0.8492	-0.009
Mof_H 	H 	0.3553	0.4218	0.1196	0.094
Mof_N 	N 	0.81934	0.91094	0.46998	-0.295
Mof_C 	C 	0.8351	0.89	0.3945	-0.004
Mof_H 	H 	0.8107	0.9113	0.3492	0.012
Mof_H 	H 	0.8553	0.9218	0.6196	0.223
Mof_N 	N 	0.68066	0.58906	0.96998	-0.21
Mof_C 	C 	0.6649	0.61	0.8945	-0.008
Mof_H 	H 	0.6893	0.5887	0.8492	-0.009
Mof_H 	H 	0.6447	0.5782	0.1196	0.095
Mof_N 	N 	0.18066	0.08906	0.46998	-0.323
Mof_C 	C 	0.1649	0.11	0.3945	-0.034
Mof_H 	H 	0.1893	0.0887	0.3492	-0.035
Mof_H 	H 	0.1447	0.0782	0.6196	0.093
Mof_N 	N 	0.31934	0.58906	0.03002	-0.406
Mof_C 	C 	0.3351	0.61	0.1055	-0.028
Mof_H 	H 	0.3107	0.5887	0.1508	-0.008
Mof_H 	H 	0.3553	0.5782	0.8804	0.211
Mof_N 	N 	0.81934	0.08906	0.53002	-0.325
Mof_C 	C 	0.8351	0.11	0.6055	-0.023
Mof_H 	H 	0.8107	0.0887	0.6508	-0.018
Mof_H 	H 	0.8553	0.0782	0.3804	0.132
Mof_N 	N 	0.68066	0.03002	0.41094	-0.406
Mof_C 	C 	0.6649	0.1055	0.39	-0.027
Mof_H 	H 	0.6893	0.1508	0.4113	-0.009
Mof_H 	H 	0.6447	0.8804	0.4218	0.211
Mof_N 	N 	0.18066	0.53002	0.91094	-0.291
Mof_C 	C 	0.1649	0.6055	0.89	-0.013
Mof_H 	H 	0.1893	0.6508	0.9113	0.007
Mof_H 	H 	0.1447	0.3804	0.9218	0.164
Mof_N 	N 	0.31934	0.96998	0.41094	-0.211
Mof_C 	C 	0.3351	0.8945	0.39	-0.011
Mof_H 	H 	0.3107	0.8492	0.4113	-0.009
Mof_H 	H 	0.3553	0.1196	0.4218	0.094
Mof_N 	N 	0.81934	0.46998	0.91094	-0.295
Mof_C 	C 	0.8351	0.3945	0.89	-0.004
Mof_H 	H 	0.8107	0.3492	0.9113	0.012
Mof_H 	H 	0.8553	0.6196	0.9218	0.223
Mof_N 	N 	0.68066	0.96998	0.58906	-0.21
Mof_C 	C 	0.6649	0.8945	0.61	-0.008
Mof_H 	H 	0.6893	0.8492	0.5887	-0.009
Mof_H 	H 	0.6447	0.1196	0.5782	0.095
Mof_N 	N 	0.18066	0.46998	0.08906	-0.323
Mof_C 	C 	0.1649	0.3945	0.11	-0.034
Mof_H 	H 	0.1893	0.3492	0.0887	-0.035
Mof_H 	H 	0.1447	0.6196	0.0782	0.093
Mof_N 	N 	0.31934	0.03002	0.58906	-0.406
Mof_C 	C 	0.3351	0.1055	0.61	-0.028
Mof_H 	H 	0.3107	0.1508	0.5887	-0.008
Mof_H 	H 	0.3553	0.8804	0.5782	0.211
Mof_N 	N 	0.81934	0.53002	0.08906	-0.325
Mof_C 	C 	0.8351	0.6055	0.11	-0.023
Mof_H 	H 	0.8107	0.6508	0.0887	-0.018
Mof_H 	H 	0.8553	0.3804	0.0782	0.132
Mof_N 	N 	0.03002	0.41094	0.68066	-0.406
Mof_C 	C 	0.1055	0.39	0.6649	-0.027
Mof_H 	H 	0.1508	0.4113	0.6893	-0.009
Mof_H 	H 	0.8804	0.4218	0.6447	0.211
Mof_N 	N 	0.53002	0.91094	0.18066	-0.291
Mof_C 	C 	0.6055	0.89	0.1649	-0.013
Mof_H 	H 	0.6508	0.9113	0.1893	0.007
Mof_H 	H 	0.3804	0.9218	0.1447	0.164
Mof_N 	N 	0.96998	0.41094	0.31934	-0.211
Mof_C 	C 	0.8945	0.39	0.3351	-0.011
Mof_H 	H 	0.8492	0.4113	0.3107	-0.009
Mof_H 	H 	0.1196	0.4218	0.3553	0.094
Mof_N 	N 	0.46998	0.91094	0.81934	-0.295
Mof_C 	C 	0.3945	0.89	0.8351	-0.004
Mof_H 	H 	0.3492	0.9113	0.8107	0.012
Mof_H 	H 	0.6196	0.9218	0.8553	0.223
Mof_N 	N 	0.96998	0.58906	0.68066	-0.21
Mof_C 	C 	0.8945	0.61	0.6649	-0.008
Mof_H 	H 	0.8492	0.5887	0.6893	-0.009
Mof_H 	H 	0.1196	0.5782	0.6447	0.095
Mof_N 	N 	0.46998	0.08906	0.18066	-0.323
Mof_C 	C 	0.3945	0.11	0.1649	-0.034
Mof_H 	H 	0.3492	0.0887	0.1893	-0.035
Mof_H 	H 	0.6196	0.0782	0.1447	0.093
Mof_N 	N 	0.03002	0.58906	0.31934	-0.406
Mof_C 	C 	0.1055	0.61	0.3351	-0.028
Mof_H 	H 	0.1508	0.5887	0.3107	-0.008
Mof_H 	H 	0.8804	0.5782	0.3553	0.211
Mof_N 	N 	0.53002	0.08906	0.81934	-0.325
Mof_C 	C 	0.6055	0.11	0.8351	-0.023
Mof_H 	H 	0.6508	0.0887	0.8107	-0.018
Mof_H 	H 	0.3804	0.0782	0.8553	0.132
Mof_N 	N 	0.41094	0.68066	0.03002	-0.406
Mof_C 	C 	0.39	0.6649	0.1055	-0.027
Mof_H 	H 	0.4113	0.6893	0.1508	-0.009
Mof_H 	H 	0.4218	0.6447	0.8804	0.211
Mof_N 	N 	0.91094	0.18066	0.53002	-0.291
Mof_C 	C 	0.89	0.1649	0.6055	-0.013
Mof_H 	H 	0.9113	0.1893	0.6508	0.007
Mof_H 	H 	0.9218	0.1447	0.3804	0.164
Mof_N 	N 	0.41094	0.31934	0.96998	-0.211
Mof_C 	C 	0.39	0.3351	0.8945	-0.011
Mof_H 	H 	0.4113	0.3107	0.8492	-0.009
Mof_H 	H 	0.4218	0.3553	0.1196	0.094
Mof_N 	N 	0.91094	0.81934	0.46998	-0.295
Mof_C 	C 	0.89	0.8351	0.3945	-0.004
Mof_H 	H 	0.9113	0.8107	0.3492	0.012
Mof_H 	H 	0.9218	0.8553	0.6196	0.223
Mof_N 	N 	0.58906	0.68066	0.96998	-0.21
Mof_C 	C 	0.61	0.6649	0.8945	-0.008
Mof_H 	H 	0.5887	0.6893	0.8492	-0.009
Mof_H 	H 	0.5782	0.6447	0.1196	0.095
Mof_N 	N 	0.08906	0.18066	0.46998	-0.323
Mof_C 	C 	0.11	0.1649	0.3945	-0.034
Mof_H 	H 	0.0887	0.1893	0.3492	-0.035
Mof_H 	H 	0.0782	0.1447	0.6196	0.093
Mof_N 	N 	0.58906	0.31934	0.03002	-0.406
Mof_C 	C 	0.61	0.3351	0.1055	-0.028
Mof_H 	H 	0.5887	0.3107	0.1508	-0.008
Mof_H 	H 	0.5782	0.3553	0.8804	0.211
Mof_N 	N 	0.08906	0.81934	0.53002	-0.325
Mof_C 	C 	0.11	0.8351	0.6055	-0.023
Mof_H 	H 	0.0887	0.8107	0.6508	-0.018
Mof_H 	H 	0.0782	0.8553	0.3804	0.132
Mof_Zn	Zn	1.20036e-32	0.75	0.5	1.136
Mof_Zn	Zn	-8.25425e-33	0.25	0.5	1.134
Mof_Zn	Zn	0.5	0	0.75	1.136
Mof_Zn	Zn	0.5	0	0.25	1.134
Mof_Zn	Zn	0.75	0.5	-0	1.136
Mof_Zn	Zn	0.25	0.5	-0	1.134
Mof_Zn	Zn	0.75	0	0.5	1.136
Mof_Zn	Zn	0.25	0	0.5	1.134
Mof_Zn	Zn	1.2941e-32	0.5	0.75	1.136
Mof_Zn	Zn	-4.12712e-33	0.5	0.25	1.134
Mof_Zn	Zn	0.5	0.75	-0	1.136
Mof_Zn	Zn	0.5	0.25	-0	1.134
Mof_C 	C 	0.9865	0.6325	0.3675	0.438
Mof_C 	C 	0.8988	0.6307	0.3693	-0.764
Mof_H 	H 	0.878	0.6685	0.3315	0.227
Mof_C 	C 	0.4865	0.1325	0.8675	0.214
Mof_C 	C 	0.3988	0.1307	0.8693	-0.582
Mof_H 	H 	0.378	0.1685	0.8315	0.166
Mof_C 	C 	0.0135	0.3675	0.3675	-0.008
Mof_C 	C 	0.1012	0.3693	0.3693	-0.411
Mof_H 	H 	0.122	0.3315	0.3315	0.111
Mof_C 	C 	0.5135	0.8675	0.8675	0.266
Mof_C 	C 	0.6012	0.8693	0.8693	-0.686
Mof_H 	H 	0.622	0.8315	0.8315	0.21
Mof_C 	C 	0.0135	0.6325	0.6325	-0.003
Mof_C 	C 	0.1012	0.6307	0.6307	-0.417
Mof_H 	H 	0.122	0.6685	0.6685	0.117
Mof_C 	C 	0.5135	0.1325	0.1325	0.17
Mof_C 	C 	0.6012	0.1307	0.1307	-0.508
Mof_H 	H 	0.622	0.1685	0.1685	0.139
Mof_C 	C 	0.9865	0.3675	0.6325	0.438
Mof_C 	C 	0.8988	0.3693	0.6307	-0.764
Mof_H 	H 	0.878	0.3315	0.6685	0.227
Mof_C 	C 	0.4865	0.8675	0.1325	0.214
Mof_C 	C 	0.3988	0.8693	0.1307	-0.582
Mof_H 	H 	0.378	0.8315	0.1685	0.166
Mof_C 	C 	0.3675	0.9865	0.6325	0.438
Mof_C 	C 	0.3693	0.8988	0.6307	-0.764
Mof_H 	H 	0.3315	0.878	0.6685	0.227
Mof_C 	C 	0.8675	0.4865	0.1325	0.214
Mof_C 	C 	0.8693	0.3988	0.1307	-0.582
Mof_H 	H 	0.8315	0.378	0.1685	0.166
Mof_C 	C 	0.3675	0.0135	0.3675	-0.008
Mof_C 	C 	0.3693	0.1012	0.3693	-0.411
Mof_H 	H 	0.3315	0.122	0.3315	0.111
Mof_C 	C 	0.8675	0.5135	0.8675	0.266
Mof_C 	C 	0.8693	0.6012	0.8693	-0.686
Mof_H 	H 	0.8315	0.622	0.8315	0.21
Mof_C 	C 	0.6325	0.0135	0.6325	-0.003
Mof_C 	C 	0.6307	0.1012	0.6307	-0.417
Mof_H 	H 	0.6685	0.122	0.6685	0.117
Mof_C 	C 	0.1325	0.5135	0.1325	0.17
Mof_C 	C 	0.1307	0.6012	0.1307	-0.508
Mof_H 	H 	0.1685	0.622	0.1685	0.139
Mof_C 	C 	0.6325	0.9865	0.3675	0.438
Mof_C 	C 	0.6307	0.8988	0.3693	-0.764
Mof_H 	H 	0.6685	0.878	0.3315	0.227
Mof_C 	C 	0.1325	0.4865	0.8675	0.214
Mof_C 	C 	0.1307	0.3988	0.8693	-0.582
Mof_H 	H 	0.1685	0.378	0.8315	0.166
Mof_C 	C 	0.6325	0.3675	0.9865	0.438
Mof_C 	C 	0.6307	0.3693	0.8988	-0.764
Mof_H 	H 	0.6685	0.3315	0.878	0.227
Mof_C 	C 	0.1325	0.8675	0.4865	0.214
Mof_C 	C 	0.1307	0.8693	0.3988	-0.582
Mof_H 	H 	0.1685	0.8315	0.378	0.166
Mof_C 	C 	0.3675	0.3675	0.0135	-0.008
Mof_C 	C 	0.3693	0.3693	0.1012	-0.411
Mof_H 	H 	0.3315	0.3315	0.122	0.111
Mof_C 	C 	0.8675	0.8675	0.5135	0.266
Mof_C 	C 	0.8693	0.8693	0.6012	-0.686
Mof_H 	H 	0.8315	0.8315	0.622	0.21
Mof_C 	C 	0.6325	0.6325	0.0135	-0.003
Mof_C 	C 	0.6307	0.6307	0.1012	-0.417
Mof_H 	H 	0.6685	0.6685	0.122	0.117
Mof_C 	C 	0.1325	0.1325	0.5135	0.17
Mof_C 	C 	0.1307	0.1307	0.6012	-0.508
Mof_H 	H 	0.1685	0.1685	0.622	0.139
Mof_C 	C 	0.3675	0.6325	0.9865	0.438
Mof_C 	C 	0.3693	0.6307	0.8988	-0.764
Mof_H 	H 	0.3315	0.6685	0.878	0.227
Mof_C 	C 	0.8675	0.1325	0.4865	0.214
Mof_C 	C 	0.8693	0.1307	0.3988	-0.582
Mof_H 	H 	0.8315	0.1685	0.378	0.166
_end
