data_functionalizedCrystal
_audit_creation_method	'EQeq! by Chris Wilmer'
_symmetry_space_group_name_H-M	'P1'
_symmetry_Int_Tables_number	1
_symmetry_cell_setting	triclinic
loop_
_symmetry_equiv_pos_as_xyz
  x,y,z
_cell_length_a	25.887
_cell_length_b	25.887
_cell_length_c	6.821
_cell_angle_alpha	90
_cell_angle_beta	90
_cell_angle_gamma	120
loop_
_atom_site_label
_atom_site_type_symbol
_atom_site_fract_x
_atom_site_fract_y
_atom_site_fract_z
_atom_site_charge
Mof_Zn	Zn	0.3836	0.3524	0.1355	1.22
Mof_O 	O 	0.3271	0.2944	0.3618	-0.593
Mof_O 	O 	0.3033	0.2283	0.6077	-0.492
Mof_O 	O 	0.3542	0.2738	0.0026	-0.554
Mof_C 	C 	0.316	0.2447	0.4295	0.42
Mof_C 	C 	0.3259	0.2064	0.2833	-0.178
Mof_C 	C 	0.3412	0.2202	0.0939	0.199
Mof_C 	C 	0.3493	0.1807	0.9723	-0.099
Mof_H 	H 	0.3637	0.194	0.847	0.083
Mof_Zn	Zn	0.05027	0.68573	0.46883	1.219
Mof_O 	O 	0.99377	0.62773	0.69513	-0.594
Mof_O 	O 	0.96997	0.56163	0.94103	-0.493
Mof_O 	O 	0.02087	0.60713	0.33593	-0.555
Mof_C 	C 	0.98267	0.57803	0.76283	0.419
Mof_C 	C 	0.99257	0.53973	0.61663	-0.18
Mof_C 	C 	0.00787	0.55353	0.42723	0.2
Mof_C 	C 	0.01597	0.51403	0.30563	-0.1
Mof_H 	H 	0.03037	0.52733	0.18033	0.083
Mof_Zn	Zn	0.71693	0.01907	0.80217	1.219
Mof_O 	O 	0.66043	0.96107	0.02847	-0.594
Mof_O 	O 	0.63663	0.89497	0.27437	-0.493
Mof_O 	O 	0.68753	0.94047	0.66927	-0.555
Mof_C 	C 	0.64933	0.91137	0.09617	0.42
Mof_C 	C 	0.65923	0.87307	0.94997	-0.181
Mof_C 	C 	0.67453	0.88687	0.76057	0.2
Mof_C 	C 	0.68263	0.84737	0.63897	-0.1
Mof_H 	H 	0.69703	0.86067	0.51367	0.083
Mof_Zn	Zn	0.6476	0.0312	0.1355	1.219
Mof_O 	O 	0.7056	0.0327	0.3618	-0.593
Mof_O 	O 	0.7717	0.075	0.6077	-0.493
Mof_O 	O 	0.7262	0.0804	0.0026	-0.555
Mof_C 	C 	0.7553	0.0713	0.4295	0.419
Mof_C 	C 	0.7936	0.1195	0.2833	-0.179
Mof_C 	C 	0.7798	0.121	0.0939	0.198
Mof_C 	C 	0.8193	0.1686	0.9723	-0.097
Mof_H 	H 	0.806	0.1697	0.847	0.082
Mof_Zn	Zn	0.31427	0.36453	0.46883	1.219
Mof_O 	O 	0.37227	0.36603	0.69513	-0.594
Mof_O 	O 	0.43837	0.40833	0.94103	-0.493
Mof_O 	O 	0.39287	0.41373	0.33593	-0.555
Mof_C 	C 	0.42197	0.40463	0.76283	0.419
Mof_C 	C 	0.46027	0.45283	0.61663	-0.18
Mof_C 	C 	0.44647	0.45433	0.42723	0.2
Mof_C 	C 	0.48597	0.50193	0.30563	-0.1
Mof_H 	H 	0.47267	0.50303	0.18033	0.083
Mof_Zn	Zn	0.98093	0.69787	0.80217	1.219
Mof_O 	O 	0.03893	0.69937	0.02847	-0.593
Mof_O 	O 	0.10503	0.74167	0.27437	-0.493
Mof_O 	O 	0.05953	0.74707	0.66927	-0.555
Mof_C 	C 	0.08863	0.73797	0.09617	0.42
Mof_C 	C 	0.12693	0.78617	0.94997	-0.182
Mof_C 	C 	0.11313	0.78767	0.76057	0.201
Mof_C 	C 	0.15263	0.83527	0.63897	-0.101
Mof_H 	H 	0.13933	0.83637	0.51367	0.083
Mof_Zn	Zn	0.9688	0.6164	0.1355	1.219
Mof_O 	O 	0.9673	0.6729	0.3618	-0.594
Mof_O 	O 	0.925	0.6967	0.6077	-0.493
Mof_O 	O 	0.9196	0.6458	0.0026	-0.555
Mof_C 	C 	0.9287	0.684	0.4295	0.419
Mof_C 	C 	0.8805	0.6741	0.2833	-0.179
Mof_C 	C 	0.879	0.6588	0.0939	0.199
Mof_C 	C 	0.8314	0.6507	0.9723	-0.099
Mof_H 	H 	0.8303	0.6363	0.847	0.083
Mof_Zn	Zn	0.63547	0.94973	0.46883	1.219
Mof_O 	O 	0.63397	0.00623	0.69513	-0.593
Mof_O 	O 	0.59167	0.03003	0.94103	-0.493
Mof_O 	O 	0.58627	0.97913	0.33593	-0.555
Mof_C 	C 	0.59537	0.01733	0.76283	0.419
Mof_C 	C 	0.54717	0.00743	0.61663	-0.18
Mof_C 	C 	0.54567	0.99213	0.42723	0.2
Mof_C 	C 	0.49807	0.98403	0.30563	-0.1
Mof_H 	H 	0.49697	0.96963	0.18033	0.083
Mof_Zn	Zn	0.30213	0.28307	0.80217	1.219
Mof_O 	O 	0.30063	0.33957	0.02847	-0.594
Mof_O 	O 	0.25833	0.36337	0.27437	-0.493
Mof_O 	O 	0.25293	0.31247	0.66927	-0.555
Mof_C 	C 	0.26203	0.35067	0.09617	0.42
Mof_C 	C 	0.21383	0.34077	0.94997	-0.18
Mof_C 	C 	0.21233	0.32547	0.76057	0.2
Mof_C 	C 	0.16473	0.31737	0.63897	-0.1
Mof_H 	H 	0.16363	0.30297	0.51367	0.083
Mof_Zn	Zn	0.6164	0.6476	0.8645	1.219
Mof_O 	O 	0.6729	0.7056	0.6382	-0.594
Mof_O 	O 	0.6967	0.7717	0.3923	-0.493
Mof_O 	O 	0.6458	0.7262	0.9974	-0.555
Mof_C 	C 	0.684	0.7553	0.5705	0.419
Mof_C 	C 	0.6741	0.7936	0.7167	-0.179
Mof_C 	C 	0.6588	0.7798	0.9061	0.199
Mof_C 	C 	0.6507	0.8193	0.0277	-0.099
Mof_H 	H 	0.6363	0.806	0.153	0.083
Mof_Zn	Zn	0.28307	0.98093	0.19783	1.219
Mof_O 	O 	0.33957	0.03893	0.97153	-0.594
Mof_O 	O 	0.36337	0.10503	0.72563	-0.493
Mof_O 	O 	0.31247	0.05953	0.33073	-0.555
Mof_C 	C 	0.35067	0.08863	0.90383	0.42
Mof_C 	C 	0.34077	0.12693	0.05003	-0.181
Mof_C 	C 	0.32547	0.11313	0.23943	0.2
Mof_C 	C 	0.31737	0.15263	0.36103	-0.1
Mof_H 	H 	0.30297	0.13933	0.48633	0.083
Mof_Zn	Zn	0.94973	0.31427	0.53117	1.219
Mof_O 	O 	0.00623	0.37227	0.30487	-0.594
Mof_O 	O 	0.03003	0.43837	0.05897	-0.493
Mof_O 	O 	0.97913	0.39287	0.66407	-0.555
Mof_C 	C 	0.01733	0.42197	0.23717	0.419
Mof_C 	C 	0.00743	0.46027	0.38337	-0.18
Mof_C 	C 	0.99213	0.44647	0.57277	0.2
Mof_C 	C 	0.98403	0.48597	0.69437	-0.1
Mof_H 	H 	0.96963	0.47267	0.81967	0.083
Mof_Zn	Zn	0.3524	0.9688	0.8645	1.219
Mof_O 	O 	0.2944	0.9673	0.6382	-0.593
Mof_O 	O 	0.2283	0.925	0.3923	-0.493
Mof_O 	O 	0.2738	0.9196	0.9974	-0.555
Mof_C 	C 	0.2447	0.9287	0.5705	0.419
Mof_C 	C 	0.2064	0.8805	0.7167	-0.179
Mof_C 	C 	0.2202	0.879	0.9061	0.198
Mof_C 	C 	0.1807	0.8314	0.0277	-0.097
Mof_H 	H 	0.194	0.8303	0.153	0.082
Mof_Zn	Zn	0.01907	0.30213	0.19783	1.219
Mof_O 	O 	0.96107	0.30063	0.97153	-0.593
Mof_O 	O 	0.89497	0.25833	0.72563	-0.493
Mof_O 	O 	0.94047	0.25293	0.33073	-0.555
Mof_C 	C 	0.91137	0.26203	0.90383	0.42
Mof_C 	C 	0.87307	0.21383	0.05003	-0.182
Mof_C 	C 	0.88687	0.21233	0.23943	0.201
Mof_C 	C 	0.84737	0.16473	0.36103	-0.101
Mof_H 	H 	0.86067	0.16363	0.48633	0.083
Mof_Zn	Zn	0.68573	0.63547	0.53117	1.219
Mof_O 	O 	0.62773	0.63397	0.30487	-0.594
Mof_O 	O 	0.56163	0.59167	0.05897	-0.493
Mof_O 	O 	0.60713	0.58627	0.66407	-0.555
Mof_C 	C 	0.57803	0.59537	0.23717	0.419
Mof_C 	C 	0.53973	0.54717	0.38337	-0.18
Mof_C 	C 	0.55353	0.54567	0.57277	0.2
Mof_C 	C 	0.51403	0.49807	0.69437	-0.1
Mof_H 	H 	0.52733	0.49697	0.81967	0.083
Mof_Zn	Zn	0.0312	0.3836	0.8645	1.219
Mof_O 	O 	0.0327	0.3271	0.6382	-0.594
Mof_O 	O 	0.075	0.3033	0.3923	-0.493
Mof_O 	O 	0.0804	0.3542	0.9974	-0.555
Mof_C 	C 	0.0713	0.316	0.5705	0.419
Mof_C 	C 	0.1195	0.3259	0.7167	-0.179
Mof_C 	C 	0.121	0.3412	0.9061	0.199
Mof_C 	C 	0.1686	0.3493	0.0277	-0.099
Mof_H 	H 	0.1697	0.3637	0.153	0.083
Mof_Zn	Zn	0.69787	0.71693	0.19783	1.219
Mof_O 	O 	0.69937	0.66043	0.97153	-0.594
Mof_O 	O 	0.74167	0.63663	0.72563	-0.493
Mof_O 	O 	0.74707	0.68753	0.33073	-0.555
Mof_C 	C 	0.73797	0.64933	0.90383	0.42
Mof_C 	C 	0.78617	0.65923	0.05003	-0.18
Mof_C 	C 	0.78767	0.67453	0.23943	0.2
Mof_C 	C 	0.83527	0.68263	0.36103	-0.1
Mof_H 	H 	0.83637	0.69703	0.48633	0.083
Mof_Zn	Zn	0.36453	0.05027	0.53117	1.219
Mof_O 	O 	0.36603	0.99377	0.30487	-0.593
Mof_O 	O 	0.40833	0.96997	0.05897	-0.493
Mof_O 	O 	0.41373	0.02087	0.66407	-0.555
Mof_C 	C 	0.40463	0.98267	0.23717	0.419
Mof_C 	C 	0.45283	0.99257	0.38337	-0.18
Mof_C 	C 	0.45433	0.00787	0.57277	0.2
Mof_C 	C 	0.50193	0.01597	0.69437	-0.1
Mof_H 	H 	0.50303	0.03037	0.81967	0.083
_end
