data_functionalizedCrystal
_audit_creation_method	'EQeq! by Chris Wilmer'
_symmetry_space_group_name_H-M	'P1'
_symmetry_Int_Tables_number	1
_symmetry_cell_setting	triclinic
loop_
_symmetry_equiv_pos_as_xyz
  x,y,z
_cell_length_a	9.4462
_cell_length_b	9.4462
_cell_length_c	15.759
_cell_angle_alpha	90
_cell_angle_beta	90
_cell_angle_gamma	120
loop_
_atom_site_label
_atom_site_type_symbol
_atom_site_fract_x
_atom_site_fract_y
_atom_site_fract_z
_atom_site_charge
Mof_P 	P 	0.16996	0.38704	0.91915	0.756
Mof_O 	O 	0.0219	0.2119	0.93447	-0.76
Mof_O 	O 	0.1802	0.4155	0.82087	-0.776
Mof_O 	O 	0.1399	0.5145	0.95844	-0.491
Mof_O 	O 	0.3183	0.3839	0.95154	-0.488
Mof_P 	P 	0.61296	0.78292	0.25248	0.757
Mof_O 	O 	0.7881	0.81	0.2678	-0.764
Mof_O 	O 	0.5845	0.7647	0.1542	-0.776
Mof_O 	O 	0.4855	0.6254	0.29177	-0.493
Mof_O 	O 	0.6161	0.9344	0.28487	-0.489
Mof_P 	P 	0.21708	0.83004	0.58582	0.757
Mof_O 	O 	0.19	0.9781	0.60114	-0.762
Mof_O 	O 	0.2353	0.8198	0.48754	-0.776
Mof_O 	O 	0.3746	0.8601	0.62511	-0.492
Mof_O 	O 	0.0656	0.6817	0.61821	-0.488
Mof_P 	P 	0.83004	0.61296	0.41915	0.758
Mof_O 	O 	0.9781	0.7881	0.43447	-0.762
Mof_O 	O 	0.8198	0.5845	0.32087	-0.777
Mof_O 	O 	0.8601	0.4855	0.45844	-0.492
Mof_O 	O 	0.6817	0.6161	0.45154	-0.488
Mof_P 	P 	0.38704	0.21708	0.75248	0.758
Mof_O 	O 	0.2119	0.19	0.7678	-0.763
Mof_O 	O 	0.4155	0.2353	0.6542	-0.776
Mof_O 	O 	0.5145	0.3746	0.79177	-0.493
Mof_O 	O 	0.3839	0.0656	0.78487	-0.489
Mof_P 	P 	0.78292	0.16996	0.08582	0.759
Mof_O 	O 	0.81	0.0219	0.10114	-0.76
Mof_O 	O 	0.7647	0.1802	0.98754	-0.777
Mof_O 	O 	0.6254	0.1399	0.12511	-0.492
Mof_O 	O 	0.9344	0.3183	0.11821	-0.487
Mof_P 	P 	0.38704	0.16996	0.41418	0.757
Mof_O 	O 	0.2119	0.0219	0.39886	-0.762
Mof_O 	O 	0.4155	0.1802	0.51246	-0.776
Mof_O 	O 	0.5145	0.1399	0.37489	-0.492
Mof_O 	O 	0.3839	0.3183	0.38179	-0.488
Mof_P 	P 	0.78292	0.61296	0.08085	0.758
Mof_O 	O 	0.81	0.7881	0.06553	-0.762
Mof_O 	O 	0.7647	0.5845	0.17913	-0.777
Mof_O 	O 	0.6254	0.4855	0.04156	-0.493
Mof_O 	O 	0.9344	0.6161	0.04846	-0.487
Mof_P 	P 	0.83004	0.21708	0.74752	0.757
Mof_O 	O 	0.9781	0.19	0.7322	-0.766
Mof_O 	O 	0.8198	0.2353	0.8458	-0.775
Mof_O 	O 	0.8601	0.3746	0.70823	-0.493
Mof_O 	O 	0.6817	0.0656	0.71513	-0.489
Mof_P 	P 	0.61296	0.83004	0.91418	0.758
Mof_O 	O 	0.7881	0.9781	0.89886	-0.76
Mof_O 	O 	0.5845	0.8198	0.01246	-0.777
Mof_O 	O 	0.4855	0.8601	0.87489	-0.491
Mof_O 	O 	0.6161	0.6817	0.88179	-0.489
Mof_P 	P 	0.21708	0.38704	0.58085	0.758
Mof_O 	O 	0.19	0.2119	0.56553	-0.763
Mof_O 	O 	0.2353	0.4155	0.67913	-0.777
Mof_O 	O 	0.3746	0.5145	0.54156	-0.493
Mof_O 	O 	0.0656	0.3839	0.54846	-0.488
Mof_P 	P 	0.16996	0.78292	0.24752	0.758
Mof_O 	O 	0.0219	0.81	0.2322	-0.767
Mof_O 	O 	0.1802	0.7647	0.3458	-0.776
Mof_O 	O 	0.1399	0.6254	0.20823	-0.494
Mof_O 	O 	0.3183	0.9344	0.21513	-0.49
Mof_Mg	Mg	0.55164	0.44836	0.91667	1.468
Mof_Mg	Mg	0.55164	0.10329	0.25	1.468
Mof_Mg	Mg	0.89671	0.44836	0.58333	1.468
Mof_Mg	Mg	0.44836	0.55164	0.41667	1.468
Mof_Mg	Mg	0.44836	0.89671	0.75	1.468
Mof_Mg	Mg	0.10329	0.55164	0.08333	1.467
Mof_B 	B 	0.151	0.302	0.75	2.061
Mof_B 	B 	0.698	0.849	0.08333	2.055
Mof_B 	B 	0.151	0.849	0.41667	2.055
Mof_B 	B 	0.849	0.698	0.25	2.062
Mof_B 	B 	0.302	0.151	0.58333	2.057
Mof_B 	B 	0.849	0.151	0.91667	2.048
_end
