data_functionalizedCrystal
_audit_creation_method	'EQeq! by Chris Wilmer'
_symmetry_space_group_name_H-M	'P1'
_symmetry_Int_Tables_number	1
_symmetry_cell_setting	triclinic
loop_
_symmetry_equiv_pos_as_xyz
  x,y,z
_cell_length_a	11.516
_cell_length_b	14.7776
_cell_length_c	15.2749
_cell_angle_alpha	118.929
_cell_angle_beta	106.292
_cell_angle_gamma	90
loop_
_atom_site_label
_atom_site_type_symbol
_atom_site_fract_x
_atom_site_fract_y
_atom_site_fract_z
_atom_site_charge
Mof_Cu	Cu	0.5	0.5	0.5	0.883
Mof_Cu	Cu	0.5	5.27533e-17	0.5	0.859
Mof_Cu	Cu	6.7328e-18	0.5	0.5	0.823
Mof_Cu	Cu	6.7328e-18	5.27533e-17	0.5	0.8
Mof_Cu	Cu	2.9284e-33	0.26424	-0	0.78
Mof_Cu	Cu	-0	0.73576	-0	0.787
Mof_H 	H 	0.506	0.6574	0.7254	-0.005
Mof_H 	H 	0.3669	0.7186	0.8174	0.109
Mof_H 	H 	0.1609	0.6539	0.7262	-0.045
Mof_H 	H 	0.2373	0.4854	0.468	-0.031
Mof_H 	H 	0.494	0.932	0.2746	-0.004
Mof_H 	H 	0.6331	0.9012	0.1826	0.1
Mof_H 	H 	0.8391	0.9277	0.2738	0.026
Mof_H 	H 	0.7627	0.0174	0.532	-0.096
Mof_H 	H 	0.494	0.3426	0.2746	-0.014
Mof_H 	H 	0.6331	0.2814	0.1826	0.086
Mof_H 	H 	0.8391	0.3461	0.2738	0.019
Mof_H 	H 	0.7627	0.5146	0.532	-0.022
Mof_H 	H 	0.506	0.068	0.7254	-0.013
Mof_H 	H 	0.3669	0.0988	0.8174	0.094
Mof_H 	H 	0.1609	0.0723	0.7262	-0.052
Mof_H 	H 	0.2373	0.9826	0.468	0.05
Mof_W 	W 	0.19848	0.65051	0.30102	0.504
Mof_W 	W 	0.80152	0.34949	0.69898	0.513
Mof_W 	W 	0.14018	0.13842	0.27684	0.41
Mof_W 	W 	0.85982	0.86158	0.72316	0.602
Mof_C 	C 	0.3302	0.57058	0.35696	-0.016
Mof_C 	C 	0.1142	0.49496	0.17292	-0.049
Mof_C 	C 	0.0807	0.57975	0.3471	-0.055
Mof_C 	C 	0.0896	0.19655	0.1681	-0.067
Mof_C 	C 	0.2888	0.26831	0.35902	-0.014
Mof_C 	C 	0.078	0.28045	0.3741	-0.054
Mof_C 	C 	0.4226	0.63316	0.69012	0.117
Mof_C 	C 	0.3403	0.66974	0.74548	-0.181
Mof_C 	C 	0.218	0.63137	0.69074	0.115
Mof_C 	C 	0.2643	0.53248	0.54036	0.117
Mof_C 	C 	0.6698	0.21362	0.64304	-0.019
Mof_C 	C 	0.8858	0.32204	0.82708	0.007
Mof_C 	C 	0.9193	0.23265	0.6529	-0.008
Mof_C 	C 	0.9104	0.02845	0.8319	-0.024
Mof_C 	C 	0.7112	0.90929	0.64098	-0.019
Mof_C 	C 	0.922	0.90635	0.6259	0.035
Mof_C 	C 	0.5774	0.94304	0.30988	0.123
Mof_C 	C 	0.6597	0.92426	0.25452	-0.168
Mof_C 	C 	0.782	0.94063	0.30926	0.128
Mof_C 	C 	0.7357	0.99212	0.45964	0.221
Mof_C 	C 	0.6698	0.42942	0.64304	-0.014
Mof_C 	C 	0.8858	0.50504	0.82708	0.009
Mof_C 	C 	0.9193	0.42025	0.6529	-0.004
Mof_C 	C 	0.9104	0.80345	0.8319	0.034
Mof_C 	C 	0.7112	0.73169	0.64098	-0.035
Mof_C 	C 	0.922	0.71955	0.6259	0.019
Mof_C 	C 	0.5774	0.36684	0.30988	0.109
Mof_C 	C 	0.6597	0.33026	0.25452	-0.165
Mof_C 	C 	0.782	0.36863	0.30926	0.114
Mof_C 	C 	0.7357	0.46752	0.45964	0.119
Mof_C 	C 	0.3302	0.78638	0.35696	-0.012
Mof_C 	C 	0.1142	0.67796	0.17292	-0.047
Mof_C 	C 	0.0807	0.76735	0.3471	-0.051
Mof_C 	C 	0.0896	0.97155	0.1681	-0.004
Mof_C 	C 	0.2888	0.09071	0.35902	-0.032
Mof_C 	C 	0.078	0.09365	0.3741	-0.073
Mof_C 	C 	0.4226	0.05696	0.69012	0.102
Mof_C 	C 	0.3403	0.07574	0.74548	-0.176
Mof_C 	C 	0.218	0.05937	0.69074	0.099
Mof_C 	C 	0.2643	0.00788	0.54036	0.008
Mof_C 	C 	0.3114	0.5998	0.1996	-0.048
Mof_C 	C 	0.256	0.736	0.472	-0.04
Mof_C 	C 	0.6886	0.4002	0.8004	-0.029
Mof_C 	C 	0.744	0.264	0.528	-0.037
Mof_C 	C 	0.2647	0.0928	0.1856	-0.057
Mof_C 	C 	0.9421	0.1057	0.2114	0.079
Mof_C 	C 	0.7353	0.9072	0.8144	-0.012
Mof_C 	C 	0.0579	0.8943	0.7886	-0.151
Mof_N 	N 	0.3998	0.53419	0.39372	-0.205
Mof_N 	N 	0.071	0.41179	0.10698	-0.251
Mof_N 	N 	0.0253	0.53946	0.37332	-0.197
Mof_N 	N 	0.0615	0.22396	0.10872	-0.251
Mof_N 	N 	0.3677	0.33739	0.40238	-0.168
Mof_N 	N 	0.0475	0.35798	0.4223	-0.231
Mof_N 	N 	0.3846	0.56387	0.58754	-0.235
Mof_N 	N 	0.18	0.56259	0.5878	-0.252
Mof_N 	N 	0.6002	0.14047	0.60628	-0.21
Mof_N 	N 	0.929	0.30481	0.89302	-0.16
Mof_N 	N 	0.9747	0.16614	0.62668	-0.126
Mof_N 	N 	0.9385	0.11524	0.89128	-0.155
Mof_N 	N 	0.6323	0.93501	0.59762	-0.143
Mof_N 	N 	0.9525	0.93568	0.5777	-0.141
Mof_N 	N 	0.6154	0.97633	0.41246	-0.236
Mof_N 	N 	0.82	0.97479	0.4122	-0.21
Mof_N 	N 	0.6002	0.46581	0.60628	-0.204
Mof_N 	N 	0.929	0.58821	0.89302	-0.158
Mof_N 	N 	0.9747	0.46054	0.62668	-0.121
Mof_N 	N 	0.9385	0.77604	0.89128	-0.158
Mof_N 	N 	0.6323	0.66261	0.59762	-0.158
Mof_N 	N 	0.9525	0.64202	0.5777	-0.157
Mof_N 	N 	0.6154	0.43613	0.41246	-0.233
Mof_N 	N 	0.82	0.43741	0.4122	-0.205
Mof_N 	N 	0.3998	0.85953	0.39372	-0.192
Mof_N 	N 	0.071	0.69519	0.10698	-0.248
Mof_N 	N 	0.0253	0.83386	0.37332	-0.186
Mof_N 	N 	0.0615	0.88476	0.10872	-0.253
Mof_N 	N 	0.3677	0.06499	0.40238	-0.179
Mof_N 	N 	0.0475	0.06432	0.4223	-0.241
Mof_N 	N 	0.3846	0.02367	0.58754	-0.225
Mof_N 	N 	0.18	0.02521	0.5878	-0.241
Mof_N 	N 	0.3693	0.5725	0.145	-0.109
Mof_N 	N 	0.2871	0.78118	0.56236	-0.084
Mof_N 	N 	0.6307	0.4275	0.855	-0.08
Mof_N 	N 	0.7129	0.21882	0.43764	-0.09
Mof_N 	N 	0.3324	0.0697	0.1394	-0.119
Mof_N 	N 	0.8373	0.0889	0.1778	-0.123
Mof_N 	N 	0.6676	0.9303	0.8606	-0.063
Mof_N 	N 	0.1627	0.9111	0.8222	-0.059
_end
