data_functionalizedCrystal
_audit_creation_method	'EQeq! by Chris Wilmer'
_symmetry_space_group_name_H-M	'P1'
_symmetry_Int_Tables_number	1
_symmetry_cell_setting	triclinic
loop_
_symmetry_equiv_pos_as_xyz
  x,y,z
_cell_length_a	21.703
_cell_length_b	20.062
_cell_length_c	22.121
_cell_angle_alpha	90
_cell_angle_beta	108.799
_cell_angle_gamma	90
loop_
_atom_site_label
_atom_site_type_symbol
_atom_site_fract_x
_atom_site_fract_y
_atom_site_fract_z
_atom_site_charge
Mof_Zn	Zn	0.13937	0.66255	0.94414	1.174
Mof_Zn	Zn	0.60202	0.86219	0.74017	1.174
Mof_C 	C 	0.27805	0.42294	0.02273	0.199
Mof_C 	C 	0.29995	0.40663	0.97331	-0.248
Mof_H 	H 	0.3007	0.4387	0.942	0.113
Mof_C 	C 	0.32133	0.3409	0.97001	0.191
Mof_C 	C 	0.32219	0.29411	0.01674	-0.244
Mof_H 	H 	0.3382	0.2503	0.0152	0.114
Mof_C 	C 	0.29903	0.31318	0.06545	0.196
Mof_C 	C 	0.27652	0.37732	0.06981	-0.246
Mof_H 	H 	0.2607	0.3896	0.1036	0.116
Mof_C 	C 	0.21487	0.5251	0.97968	0.09
Mof_H 	H 	0.1987	0.5108	0.9365	-0.014
Mof_C 	C 	0.23513	0.58377	0.06562	-0.003
Mof_H 	H 	0.2353	0.6196	0.0938	0.016
Mof_C 	C 	0.26861	0.52636	0.08293	0.006
Mof_H 	H 	0.2955	0.5142	0.1246	0.024
Mof_C 	C 	0.36852	0.3626	0.8834	0.098
Mof_H 	H 	0.3753	0.4091	0.8907	-0.03
Mof_C 	C 	0.36491	0.26281	0.84424	-0.018
Mof_H 	H 	0.3689	0.2269	0.8178	0.009
Mof_C 	C 	0.34263	0.25792	0.89432	0.01
Mof_H 	H 	0.3284	0.2185	0.9097	0.021
Mof_C 	C 	0.34999	0.22636	0.145	0.093
Mof_H 	H 	0.3893	0.2227	0.1351	-0.024
Mof_C 	C 	0.27518	0.21256	0.18958	-0.006
Mof_H 	H 	0.2532	0.1965	0.2175	0.007
Mof_C 	C 	0.25106	0.25817	0.14274	0.001
Mof_H 	H 	0.21	0.2798	0.1316	0.026
Mof_C 	C 	0.04556	0.64368	0.14492	0.193
Mof_C 	C 	0.01555	0.58154	0.13485	-0.239
Mof_H 	H 	0.0102	0.5577	0.0964	0.11
Mof_C 	C 	0.99352	0.55491	0.18216	0.19
Mof_C 	C 	0.00012	0.58971	0.23823	-0.241
Mof_H 	H 	0.9838	0.5718	0.2698	0.113
Mof_C 	C 	0.03069	0.65049	0.24695	0.192
Mof_C 	C 	0.0535	0.67941	0.20056	-0.239
Mof_H 	H 	0.0737	0.722	0.207	0.113
Mof_C 	C 	0.09105	0.64176	0.05534	0.09
Mof_H 	H 	0.0966	0.5949	0.054	-0.021
Mof_C 	C 	0.08913	0.74761	0.03464	-0.008
Mof_H 	H 	0.0939	0.7888	0.0154	0.014
Mof_C 	C 	0.0643	0.74056	0.08272	0.009
Mof_H 	H 	0.0486	0.7751	0.1033	0.024
Mof_C 	C 	0.93225	0.46092	0.11602	0.098
Mof_H 	H 	0.9299	0.4788	0.0756	-0.028
Mof_C 	C 	0.92089	0.39675	0.19021	-0.003
Mof_H 	H 	0.9083	0.36	0.2107	0.011
Mof_C 	C 	0.95481	0.44996	0.22019	0.006
Mof_H 	H 	0.9705	0.4577	0.2649	0.023
Mof_C 	C 	0.08948	0.72379	0.33797	0.089
Mof_H 	H 	0.1294	0.7259	0.3289	-0.012
Mof_C 	C 	0.01552	0.73948	0.38178	0.004
Mof_H 	H 	0.9937	0.7548	0.4101	0.012
Mof_C 	C 	0.98951	0.69781	0.33165	-0
Mof_H 	H 	0.9469	0.6794	0.3182	0.026
Mof_C 	C 	0.32786	0.70216	0.83517	0.191
Mof_C 	C 	0.3603	0.75571	0.81905	-0.239
Mof_H 	H 	0.3591	0.7989	0.8362	0.113
Mof_C 	C 	0.39468	0.74337	0.77654	0.188
Mof_C 	C 	0.39561	0.68086	0.74971	-0.239
Mof_H 	H 	0.4182	0.6736	0.7199	0.111
Mof_C 	C 	0.36241	0.62918	0.76787	0.191
Mof_C 	C 	0.32849	0.63855	0.81035	-0.244
Mof_H 	H 	0.3063	0.6027	0.8223	0.112
Mof_C 	C 	0.23997	0.67827	0.88072	0.092
Mof_H 	H 	0.2208	0.6426	0.8528	-0.027
Mof_C 	C 	0.26062	0.75252	0.95557	0
Mof_H 	H 	0.2574	0.7782	0.9905	0.007
Mof_C 	C 	0.3063	0.76037	0.92763	0.003
Mof_H 	H 	0.3406	0.7921	0.9385	0.024
Mof_C 	C 	0.49042	0.7881	0.75507	0.088
Mof_H 	H 	0.5135	0.7471	0.7605	-0.027
Mof_C 	C 	0.46376	0.89282	0.73821	-0.01
Mof_H 	H 	0.466	0.939	0.7296	0.01
Mof_C 	C 	0.41312	0.86215	0.74898	0.007
Mof_H 	H 	0.3735	0.8822	0.7491	0.023
Mof_C 	C 	0.37442	0.50765	0.77518	0.095
Mof_H 	H 	0.3766	0.5041	0.8187	-0.029
Mof_C 	C 	0.37537	0.48346	0.67992	-0.009
Mof_H 	H 	0.3786	0.4592	0.6442	0.003
Mof_C 	C 	0.365	0.55009	0.68138	0.007
Mof_H 	H 	0.359	0.5807	0.6472	0.022
Mof_N 	N 	0.20057	0.58302	0.00101	-0.241
Mof_N 	N 	0.25578	0.48904	0.02799	-0.155
Mof_N 	N 	0.38121	0.3294	0.83737	-0.288
Mof_N 	N 	0.34449	0.32168	0.91888	-0.157
Mof_N 	N 	0.33673	0.1928	0.19065	-0.281
Mof_N 	N 	0.29961	0.26677	0.11415	-0.155
Mof_N 	N 	0.10675	0.68539	0.01742	-0.274
Mof_N 	N 	0.06603	0.67372	0.09628	-0.155
Mof_N 	N 	0.90701	0.40386	0.12464	-0.274
Mof_N 	N 	0.96234	0.49108	0.17315	-0.155
Mof_N 	N 	0.07761	0.75613	0.38561	-0.236
Mof_N 	N 	0.03734	0.68774	0.30426	-0.152
Mof_N 	N 	0.21858	0.70127	0.92616	-0.271
Mof_N 	N 	0.2936	0.71301	0.87951	-0.153
Mof_N 	N 	0.51243	0.8461	0.74173	-0.285
Mof_N 	N 	0.43012	0.79605	0.75974	-0.154
Mof_N 	N 	0.38042	0.45686	0.73863	-0.291
Mof_N 	N 	0.36483	0.5643	0.74172	-0.157
Mof_Zn	Zn	0.86063	0.16255	0.55586	1.174
Mof_Zn	Zn	0.39798	0.36219	0.75982	1.174
Mof_C 	C 	0.72195	0.92294	0.47727	0.198
Mof_C 	C 	0.70005	0.90663	0.52669	-0.247
Mof_H 	H 	0.6993	0.9387	0.558	0.112
Mof_C 	C 	0.67867	0.8409	0.52999	0.191
Mof_C 	C 	0.67781	0.79411	0.48326	-0.244
Mof_H 	H 	0.6618	0.7503	0.4848	0.114
Mof_C 	C 	0.70097	0.81318	0.43455	0.196
Mof_C 	C 	0.72348	0.87732	0.43019	-0.246
Mof_H 	H 	0.7393	0.8896	0.3964	0.116
Mof_C 	C 	0.78513	0.0251	0.52032	0.092
Mof_H 	H 	0.8013	0.0108	0.5635	-0.015
Mof_C 	C 	0.76487	0.08377	0.43438	-0.004
Mof_H 	H 	0.7647	0.1196	0.4062	0.015
Mof_C 	C 	0.73139	0.02636	0.41707	0.007
Mof_H 	H 	0.7045	0.0142	0.3754	0.024
Mof_C 	C 	0.63148	0.8626	0.6166	0.098
Mof_H 	H 	0.6247	0.9091	0.6093	-0.03
Mof_C 	C 	0.63509	0.76281	0.65576	-0.018
Mof_H 	H 	0.6311	0.7269	0.6822	0.009
Mof_C 	C 	0.65737	0.75792	0.60568	0.01
Mof_H 	H 	0.6716	0.7185	0.5903	0.021
Mof_C 	C 	0.65001	0.72636	0.355	0.093
Mof_H 	H 	0.6107	0.7227	0.3649	-0.024
Mof_C 	C 	0.72482	0.71256	0.31042	-0.006
Mof_H 	H 	0.7468	0.6965	0.2825	0.007
Mof_C 	C 	0.74894	0.75817	0.35726	0.001
Mof_H 	H 	0.79	0.7798	0.3684	0.026
Mof_C 	C 	0.95444	0.14368	0.35508	0.194
Mof_C 	C 	0.98445	0.08154	0.36515	-0.241
Mof_H 	H 	0.9898	0.0577	0.4036	0.111
Mof_C 	C 	0.00648	0.05491	0.31784	0.192
Mof_C 	C 	0.99988	0.08971	0.26177	-0.244
Mof_H 	H 	0.0162	0.0718	0.2302	0.115
Mof_C 	C 	0.96931	0.15049	0.25305	0.193
Mof_C 	C 	0.9465	0.17941	0.29944	-0.24
Mof_H 	H 	0.9263	0.222	0.293	0.113
Mof_C 	C 	0.90895	0.14176	0.44466	0.09
Mof_H 	H 	0.9034	0.0949	0.446	-0.022
Mof_C 	C 	0.91087	0.24761	0.46536	-0.008
Mof_H 	H 	0.9061	0.2888	0.4846	0.013
Mof_C 	C 	0.9357	0.24056	0.41728	0.009
Mof_H 	H 	0.9514	0.2751	0.3967	0.024
Mof_C 	C 	0.06775	0.96092	0.38398	0.098
Mof_H 	H 	0.0701	0.9788	0.4244	-0.027
Mof_C 	C 	0.07911	0.89675	0.30979	-0.003
Mof_H 	H 	0.0917	0.86	0.2893	0.012
Mof_C 	C 	0.04519	0.94996	0.27981	0.006
Mof_H 	H 	0.0295	0.9577	0.2351	0.024
Mof_C 	C 	0.91052	0.22379	0.16203	0.089
Mof_H 	H 	0.8706	0.2259	0.1711	-0.012
Mof_C 	C 	0.98448	0.23948	0.11822	-0.003
Mof_H 	H 	0.0063	0.2548	0.0899	0.016
Mof_C 	C 	0.01049	0.19781	0.16835	0.006
Mof_H 	H 	0.0531	0.1794	0.1818	0.024
Mof_C 	C 	0.67214	0.20216	0.66483	0.191
Mof_C 	C 	0.6397	0.25571	0.68095	-0.239
Mof_H 	H 	0.6409	0.2989	0.6638	0.113
Mof_C 	C 	0.60532	0.24337	0.72346	0.188
Mof_C 	C 	0.60439	0.18086	0.75029	-0.239
Mof_H 	H 	0.5818	0.1736	0.7801	0.111
Mof_C 	C 	0.63759	0.12918	0.73213	0.191
Mof_C 	C 	0.67151	0.13855	0.68965	-0.244
Mof_H 	H 	0.6937	0.1027	0.6777	0.112
Mof_C 	C 	0.76003	0.17827	0.61928	0.092
Mof_H 	H 	0.7792	0.1426	0.6472	-0.026
Mof_C 	C 	0.73938	0.25252	0.54443	0
Mof_H 	H 	0.7426	0.2782	0.5095	0.007
Mof_C 	C 	0.6937	0.26037	0.57237	0.003
Mof_H 	H 	0.6594	0.2921	0.5615	0.024
Mof_C 	C 	0.50958	0.2881	0.74493	0.088
Mof_H 	H 	0.4865	0.2471	0.7395	-0.027
Mof_C 	C 	0.53624	0.39282	0.76179	-0.01
Mof_H 	H 	0.534	0.439	0.7704	0.01
Mof_C 	C 	0.58688	0.36215	0.75102	0.007
Mof_H 	H 	0.6265	0.3822	0.7509	0.023
Mof_C 	C 	0.62558	0.00765	0.72482	0.095
Mof_H 	H 	0.6234	0.0041	0.6813	-0.029
Mof_C 	C 	0.62463	0.98346	0.82008	-0.011
Mof_H 	H 	0.6214	0.9592	0.8558	0.003
Mof_C 	C 	0.635	0.05009	0.81862	0.009
Mof_H 	H 	0.641	0.0807	0.8528	0.021
Mof_N 	N 	0.79943	0.08302	0.49899	-0.242
Mof_N 	N 	0.74422	0.98904	0.47201	-0.156
Mof_N 	N 	0.61879	0.8294	0.66263	-0.288
Mof_N 	N 	0.65551	0.82168	0.58112	-0.157
Mof_N 	N 	0.66327	0.6928	0.30935	-0.281
Mof_N 	N 	0.70039	0.76677	0.38585	-0.155
Mof_N 	N 	0.89325	0.18539	0.48258	-0.274
Mof_N 	N 	0.93397	0.17372	0.40372	-0.155
Mof_N 	N 	0.09299	0.90386	0.37536	-0.274
Mof_N 	N 	0.03766	0.99108	0.32685	-0.154
Mof_N 	N 	0.92239	0.25613	0.11439	-0.235
Mof_N 	N 	0.96266	0.18774	0.19574	-0.154
Mof_N 	N 	0.78142	0.20127	0.57384	-0.271
Mof_N 	N 	0.7064	0.21301	0.62049	-0.153
Mof_N 	N 	0.48757	0.3461	0.75827	-0.285
Mof_N 	N 	0.56988	0.29605	0.74026	-0.154
Mof_N 	N 	0.61958	0.95686	0.76137	-0.291
Mof_N 	N 	0.63517	0.0643	0.75828	-0.157
Mof_Zn	Zn	0.86063	0.33745	0.05586	1.174
Mof_Zn	Zn	0.39798	0.13781	0.25982	1.174
Mof_C 	C 	0.72195	0.57706	0.97727	0.199
Mof_C 	C 	0.70005	0.59337	0.02669	-0.248
Mof_H 	H 	0.6993	0.5613	0.058	0.113
Mof_C 	C 	0.67867	0.6591	0.02999	0.191
Mof_C 	C 	0.67781	0.70589	0.98326	-0.244
Mof_H 	H 	0.6618	0.7497	0.9848	0.114
Mof_C 	C 	0.70097	0.68682	0.93455	0.196
Mof_C 	C 	0.72348	0.62268	0.93019	-0.246
Mof_H 	H 	0.7393	0.6104	0.8964	0.116
Mof_C 	C 	0.78513	0.4749	0.02032	0.09
Mof_H 	H 	0.8013	0.4892	0.0635	-0.014
Mof_C 	C 	0.76487	0.41623	0.93438	-0.003
Mof_H 	H 	0.7647	0.3804	0.9062	0.016
Mof_C 	C 	0.73139	0.47364	0.91707	0.006
Mof_H 	H 	0.7045	0.4858	0.8754	0.024
Mof_C 	C 	0.63148	0.6374	0.1166	0.098
Mof_H 	H 	0.6247	0.5909	0.1093	-0.03
Mof_C 	C 	0.63509	0.73719	0.15576	-0.018
Mof_H 	H 	0.6311	0.7731	0.1822	0.009
Mof_C 	C 	0.65737	0.74208	0.10568	0.01
Mof_H 	H 	0.6716	0.7815	0.0903	0.021
Mof_C 	C 	0.65001	0.77364	0.855	0.093
Mof_H 	H 	0.6107	0.7773	0.8649	-0.024
Mof_C 	C 	0.72482	0.78744	0.81042	-0.006
Mof_H 	H 	0.7468	0.8035	0.7825	0.007
Mof_C 	C 	0.74894	0.74183	0.85726	0.001
Mof_H 	H 	0.79	0.7202	0.8684	0.026
Mof_C 	C 	0.95444	0.35632	0.85508	0.193
Mof_C 	C 	0.98445	0.41846	0.86515	-0.239
Mof_H 	H 	0.9898	0.4423	0.9036	0.11
Mof_C 	C 	0.00648	0.44509	0.81784	0.19
Mof_C 	C 	0.99988	0.41029	0.76177	-0.241
Mof_H 	H 	0.0162	0.4282	0.7302	0.113
Mof_C 	C 	0.96931	0.34951	0.75305	0.192
Mof_C 	C 	0.9465	0.32059	0.79944	-0.239
Mof_H 	H 	0.9263	0.278	0.793	0.113
Mof_C 	C 	0.90895	0.35824	0.94466	0.09
Mof_H 	H 	0.9034	0.4051	0.946	-0.021
Mof_C 	C 	0.91087	0.25239	0.96536	-0.008
Mof_H 	H 	0.9061	0.2112	0.9846	0.014
Mof_C 	C 	0.9357	0.25944	0.91728	0.009
Mof_H 	H 	0.9514	0.2249	0.8967	0.024
Mof_C 	C 	0.06775	0.53908	0.88398	0.098
Mof_H 	H 	0.0701	0.5212	0.9244	-0.028
Mof_C 	C 	0.07911	0.60325	0.80979	-0.003
Mof_H 	H 	0.0917	0.64	0.7893	0.011
Mof_C 	C 	0.04519	0.55004	0.77981	0.006
Mof_H 	H 	0.0295	0.5423	0.7351	0.023
Mof_C 	C 	0.91052	0.27621	0.66203	0.089
Mof_H 	H 	0.8706	0.2741	0.6711	-0.012
Mof_C 	C 	0.98448	0.26052	0.61822	0.004
Mof_H 	H 	0.0063	0.2452	0.5899	0.012
Mof_C 	C 	0.01049	0.30219	0.66835	-0
Mof_H 	H 	0.0531	0.3206	0.6818	0.026
Mof_C 	C 	0.67214	0.29784	0.16483	0.191
Mof_C 	C 	0.6397	0.24429	0.18095	-0.239
Mof_H 	H 	0.6409	0.2011	0.1638	0.113
Mof_C 	C 	0.60532	0.25663	0.22346	0.188
Mof_C 	C 	0.60439	0.31914	0.25029	-0.239
Mof_H 	H 	0.5818	0.3264	0.2801	0.111
Mof_C 	C 	0.63759	0.37082	0.23213	0.191
Mof_C 	C 	0.67151	0.36145	0.18965	-0.244
Mof_H 	H 	0.6937	0.3973	0.1777	0.112
Mof_C 	C 	0.76003	0.32173	0.11928	0.092
Mof_H 	H 	0.7792	0.3574	0.1472	-0.027
Mof_C 	C 	0.73938	0.24748	0.04443	0
Mof_H 	H 	0.7426	0.2218	0.0095	0.007
Mof_C 	C 	0.6937	0.23963	0.07237	0.003
Mof_H 	H 	0.6594	0.2079	0.0615	0.024
Mof_C 	C 	0.50958	0.2119	0.24493	0.088
Mof_H 	H 	0.4865	0.2529	0.2395	-0.027
Mof_C 	C 	0.53624	0.10718	0.26179	-0.01
Mof_H 	H 	0.534	0.061	0.2704	0.01
Mof_C 	C 	0.58688	0.13785	0.25102	0.007
Mof_H 	H 	0.6265	0.1178	0.2509	0.023
Mof_C 	C 	0.62558	0.49235	0.22482	0.095
Mof_H 	H 	0.6234	0.4959	0.1813	-0.029
Mof_C 	C 	0.62463	0.51654	0.32008	-0.009
Mof_H 	H 	0.6214	0.5408	0.3558	0.003
Mof_C 	C 	0.635	0.44991	0.31862	0.007
Mof_H 	H 	0.641	0.4193	0.3528	0.022
Mof_N 	N 	0.79943	0.41698	0.99899	-0.241
Mof_N 	N 	0.74422	0.51096	0.97201	-0.155
Mof_N 	N 	0.61879	0.6706	0.16263	-0.288
Mof_N 	N 	0.65551	0.67832	0.08112	-0.157
Mof_N 	N 	0.66327	0.8072	0.80935	-0.281
Mof_N 	N 	0.70039	0.73323	0.88585	-0.155
Mof_N 	N 	0.89325	0.31461	0.98258	-0.274
Mof_N 	N 	0.93397	0.32628	0.90372	-0.155
Mof_N 	N 	0.09299	0.59614	0.87536	-0.274
Mof_N 	N 	0.03766	0.50892	0.82685	-0.155
Mof_N 	N 	0.92239	0.24387	0.61439	-0.236
Mof_N 	N 	0.96266	0.31226	0.69574	-0.152
Mof_N 	N 	0.78142	0.29873	0.07384	-0.271
Mof_N 	N 	0.7064	0.28699	0.12049	-0.153
Mof_N 	N 	0.48757	0.1539	0.25827	-0.285
Mof_N 	N 	0.56988	0.20395	0.24026	-0.154
Mof_N 	N 	0.61958	0.54314	0.26137	-0.291
Mof_N 	N 	0.63517	0.4357	0.25828	-0.157
Mof_Zn	Zn	0.13937	0.83745	0.44414	1.174
Mof_Zn	Zn	0.60202	0.63781	0.24017	1.174
Mof_C 	C 	0.27805	0.07706	0.52273	0.198
Mof_C 	C 	0.29995	0.09337	0.47331	-0.247
Mof_H 	H 	0.3007	0.0613	0.442	0.112
Mof_C 	C 	0.32133	0.1591	0.47001	0.191
Mof_C 	C 	0.32219	0.20589	0.51674	-0.244
Mof_H 	H 	0.3382	0.2497	0.5152	0.114
Mof_C 	C 	0.29903	0.18682	0.56545	0.196
Mof_C 	C 	0.27652	0.12268	0.56981	-0.246
Mof_H 	H 	0.2607	0.1104	0.6036	0.116
Mof_C 	C 	0.21487	0.9749	0.47968	0.092
Mof_H 	H 	0.1987	0.9892	0.4365	-0.015
Mof_C 	C 	0.23513	0.91623	0.56562	-0.004
Mof_H 	H 	0.2353	0.8804	0.5938	0.015
Mof_C 	C 	0.26861	0.97364	0.58293	0.007
Mof_H 	H 	0.2955	0.9858	0.6246	0.024
Mof_C 	C 	0.36852	0.1374	0.3834	0.098
Mof_H 	H 	0.3753	0.0909	0.3907	-0.03
Mof_C 	C 	0.36491	0.23719	0.34424	-0.018
Mof_H 	H 	0.3689	0.2731	0.3178	0.009
Mof_C 	C 	0.34263	0.24208	0.39432	0.01
Mof_H 	H 	0.3284	0.2815	0.4097	0.021
Mof_C 	C 	0.34999	0.27364	0.645	0.093
Mof_H 	H 	0.3893	0.2773	0.6351	-0.024
Mof_C 	C 	0.27518	0.28744	0.68958	-0.006
Mof_H 	H 	0.2532	0.3035	0.7175	0.007
Mof_C 	C 	0.25106	0.24183	0.64274	0.001
Mof_H 	H 	0.21	0.2202	0.6316	0.026
Mof_C 	C 	0.04556	0.85632	0.64492	0.194
Mof_C 	C 	0.01555	0.91846	0.63485	-0.241
Mof_H 	H 	0.0102	0.9423	0.5964	0.111
Mof_C 	C 	0.99352	0.94509	0.68216	0.192
Mof_C 	C 	0.00012	0.91029	0.73823	-0.244
Mof_H 	H 	0.9838	0.9282	0.7698	0.115
Mof_C 	C 	0.03069	0.84951	0.74695	0.193
Mof_C 	C 	0.0535	0.82059	0.70056	-0.24
Mof_H 	H 	0.0737	0.778	0.707	0.113
Mof_C 	C 	0.09105	0.85824	0.55534	0.09
Mof_H 	H 	0.0966	0.9051	0.554	-0.022
Mof_C 	C 	0.08913	0.75239	0.53464	-0.008
Mof_H 	H 	0.0939	0.7112	0.5154	0.013
Mof_C 	C 	0.0643	0.75944	0.58272	0.009
Mof_H 	H 	0.0486	0.7249	0.6033	0.024
Mof_C 	C 	0.93225	0.03908	0.61602	0.098
Mof_H 	H 	0.9299	0.0212	0.5756	-0.027
Mof_C 	C 	0.92089	0.10325	0.69021	-0.003
Mof_H 	H 	0.9083	0.14	0.7107	0.012
Mof_C 	C 	0.95481	0.05004	0.72019	0.006
Mof_H 	H 	0.9705	0.0423	0.7649	0.024
Mof_C 	C 	0.08948	0.77621	0.83797	0.089
Mof_H 	H 	0.1294	0.7741	0.8289	-0.012
Mof_C 	C 	0.01552	0.76052	0.88178	-0.003
Mof_H 	H 	0.9937	0.7452	0.9101	0.016
Mof_C 	C 	0.98951	0.80219	0.83165	0.006
Mof_H 	H 	0.9469	0.8206	0.8182	0.024
Mof_C 	C 	0.32786	0.79784	0.33517	0.191
Mof_C 	C 	0.3603	0.74429	0.31905	-0.239
Mof_H 	H 	0.3591	0.7011	0.3362	0.113
Mof_C 	C 	0.39468	0.75663	0.27654	0.188
Mof_C 	C 	0.39561	0.81914	0.24971	-0.239
Mof_H 	H 	0.4182	0.8264	0.2199	0.111
Mof_C 	C 	0.36241	0.87082	0.26787	0.191
Mof_C 	C 	0.32849	0.86145	0.31035	-0.244
Mof_H 	H 	0.3063	0.8973	0.3223	0.112
Mof_C 	C 	0.23997	0.82173	0.38072	0.092
Mof_H 	H 	0.2208	0.8574	0.3528	-0.026
Mof_C 	C 	0.26062	0.74748	0.45557	0
Mof_H 	H 	0.2574	0.7218	0.4905	0.007
Mof_C 	C 	0.3063	0.73963	0.42763	0.003
Mof_H 	H 	0.3406	0.7079	0.4385	0.024
Mof_C 	C 	0.49042	0.7119	0.25507	0.088
Mof_H 	H 	0.5135	0.7529	0.2605	-0.027
Mof_C 	C 	0.46376	0.60718	0.23821	-0.01
Mof_H 	H 	0.466	0.561	0.2296	0.01
Mof_C 	C 	0.41312	0.63785	0.24898	0.007
Mof_H 	H 	0.3735	0.6178	0.2491	0.023
Mof_C 	C 	0.37442	0.99235	0.27518	0.095
Mof_H 	H 	0.3766	0.9959	0.3187	-0.029
Mof_C 	C 	0.37537	0.01654	0.17992	-0.011
Mof_H 	H 	0.3786	0.0408	0.1442	0.003
Mof_C 	C 	0.365	0.94991	0.18138	0.009
Mof_H 	H 	0.359	0.9193	0.1472	0.021
Mof_N 	N 	0.20057	0.91698	0.50101	-0.242
Mof_N 	N 	0.25578	0.01096	0.52799	-0.156
Mof_N 	N 	0.38121	0.1706	0.33737	-0.288
Mof_N 	N 	0.34449	0.17832	0.41888	-0.157
Mof_N 	N 	0.33673	0.3072	0.69065	-0.281
Mof_N 	N 	0.29961	0.23323	0.61415	-0.155
Mof_N 	N 	0.10675	0.81461	0.51742	-0.274
Mof_N 	N 	0.06603	0.82628	0.59628	-0.155
Mof_N 	N 	0.90701	0.09614	0.62464	-0.274
Mof_N 	N 	0.96234	0.00892	0.67315	-0.154
Mof_N 	N 	0.07761	0.74387	0.88561	-0.235
Mof_N 	N 	0.03734	0.81226	0.80426	-0.154
Mof_N 	N 	0.21858	0.79873	0.42616	-0.271
Mof_N 	N 	0.2936	0.78699	0.37951	-0.153
Mof_N 	N 	0.51243	0.6539	0.24173	-0.285
Mof_N 	N 	0.43012	0.70395	0.25974	-0.154
Mof_N 	N 	0.38042	0.04314	0.23863	-0.291
Mof_N 	N 	0.36483	0.9357	0.24172	-0.157
_end
