data_functionalizedCrystal
_audit_creation_method	'EQeq! by Chris Wilmer'
_symmetry_space_group_name_H-M	'P1'
_symmetry_Int_Tables_number	1
_symmetry_cell_setting	triclinic
loop_
_symmetry_equiv_pos_as_xyz
  x,y,z
_cell_length_a	35.053
_cell_length_b	35.053
_cell_length_c	12.665
_cell_angle_alpha	90
_cell_angle_beta	90
_cell_angle_gamma	90
loop_
_atom_site_label
_atom_site_type_symbol
_atom_site_fract_x
_atom_site_fract_y
_atom_site_fract_z
_atom_site_charge
Mof_O 	O 	0.51366	0.5945	0.6815	-0.684
Mof_O 	O 	0.45753	0.60091	0.5964	-0.643
Mof_O 	O 	0.50549	0.91408	0.7872	-0.67
Mof_O 	O 	0.45319	0.90332	0.888	-0.623
Mof_O 	O 	0.52721	0.4784	0.6338	-1.284
Mof_O 	O 	0.43891	0.48785	0.5119	-1.276
Mof_C 	C 	0.48487	0.61329	0.6545	0.513
Mof_C 	C 	0.48432	0.65485	0.6782	-0.104
Mof_C 	C 	0.51254	0.67173	0.7397	-0.032
Mof_H 	H 	0.5327	0.6567	0.7675	0.052
Mof_C 	C 	0.48172	0.7327	0.7198	-0.048
Mof_C 	C 	0.45482	0.67692	0.6376	-0.036
Mof_H 	H 	0.4355	0.6654	0.5956	0.065
Mof_C 	C 	0.51123	0.71065	0.7605	0.046
Mof_C 	C 	0.5427	0.7272	0.8277	0.372
Mof_H 	H 	0.5605	0.7068	0.8478	-0.064
Mof_H 	H 	0.5318	0.7386	0.8915	-0.021
Mof_H 	H 	0.5564	0.7468	0.7876	-0.092
Mof_C 	C 	0.45351	0.71583	0.6584	0.036
Mof_H 	H 	0.4333	0.7309	0.6306	-0.221
Mof_C 	C 	0.47719	0.8933	0.8215	0.499
Mof_C 	C 	0.47938	0.85172	0.7926	-0.103
Mof_C 	C 	0.50514	0.83818	0.718	-0.058
Mof_H 	H 	0.5221	0.8553	0.6837	0.051
Mof_C 	C 	0.50615	0.79951	0.6937	0.096
Mof_C 	C 	0.48139	0.7744	0.744	0.003
Mof_C 	C 	0.45563	0.78797	0.8185	-0.064
Mof_H 	H 	0.4387	0.7708	0.8529	0.094
Mof_C 	C 	0.45461	0.82663	0.8428	0.029
Mof_H 	H 	0.437	0.8359	0.8937	0.072
Mof_C 	C 	0.5354	0.7853	0.6096	-0.441
Mof_H 	H 	0.5603	0.7816	0.6435	0.146
Mof_H 	H 	0.538	0.8036	0.5516	0.149
Mof_H 	H 	0.5262	0.7608	0.5819	0.152
Mof_C 	C 	0.5105	0.7096	0.7697	0.013
Mof_H 	H 	0.5273	0.7199	0.8211	-0.197
Mof_C 	C 	0.4551	0.7194	0.6515	0.051
Mof_C 	C 	0.4246	0.7426	0.5971	0.421
Mof_H 	H 	0.4286	0.7697	0.6122	-0.084
Mof_H 	H 	0.3995	0.7348	0.623	-0.06
Mof_H 	H 	0.426	0.7384	0.5207	-0.1
Mof_O 	O 	0.98634	0.9055	0.6815	-0.686
Mof_O 	O 	0.04247	0.89909	0.5964	-0.644
Mof_O 	O 	0.99451	0.58592	0.7872	-0.672
Mof_O 	O 	0.04681	0.59668	0.888	-0.624
Mof_O 	O 	0.97279	0.0216	0.6338	-1.285
Mof_O 	O 	0.06109	0.01215	0.5119	-1.276
Mof_C 	C 	0.01513	0.88671	0.6545	0.514
Mof_C 	C 	0.01568	0.84515	0.6782	-0.104
Mof_C 	C 	0.98746	0.82827	0.7397	-0.035
Mof_H 	H 	0.9673	0.8433	0.7675	0.052
Mof_C 	C 	0.01828	0.7673	0.7198	-0.047
Mof_C 	C 	0.04518	0.82308	0.6376	-0.036
Mof_H 	H 	0.0645	0.8346	0.5956	0.065
Mof_C 	C 	0.98877	0.78935	0.7605	0.045
Mof_C 	C 	0.9573	0.7728	0.8277	0.372
Mof_H 	H 	0.9395	0.7932	0.8478	-0.064
Mof_H 	H 	0.9682	0.7614	0.8915	-0.022
Mof_H 	H 	0.9436	0.7532	0.7876	-0.092
Mof_C 	C 	0.04649	0.78417	0.6584	0.036
Mof_H 	H 	0.0667	0.7691	0.6306	-0.221
Mof_C 	C 	0.02281	0.6067	0.8215	0.5
Mof_C 	C 	0.02062	0.64828	0.7926	-0.102
Mof_C 	C 	0.99486	0.66182	0.718	-0.059
Mof_H 	H 	0.9779	0.6447	0.6837	0.051
Mof_C 	C 	0.99385	0.70049	0.6937	0.095
Mof_C 	C 	0.01861	0.7256	0.744	0.004
Mof_C 	C 	0.04437	0.71203	0.8185	-0.065
Mof_H 	H 	0.0613	0.7292	0.8529	0.094
Mof_C 	C 	0.04539	0.67337	0.8428	0.029
Mof_H 	H 	0.063	0.6641	0.8937	0.072
Mof_C 	C 	0.9646	0.7147	0.6096	-0.44
Mof_H 	H 	0.9397	0.7184	0.6435	0.146
Mof_H 	H 	0.962	0.6964	0.5516	0.149
Mof_H 	H 	0.9738	0.7392	0.5819	0.151
Mof_C 	C 	0.9895	0.7904	0.7697	0.012
Mof_H 	H 	0.9727	0.7801	0.8211	-0.197
Mof_C 	C 	0.0449	0.7806	0.6515	0.051
Mof_C 	C 	0.0754	0.7574	0.5971	0.421
Mof_H 	H 	0.0714	0.7303	0.6122	-0.084
Mof_H 	H 	0.1005	0.7652	0.623	-0.06
Mof_H 	H 	0.074	0.7616	0.5207	-0.099
Mof_O 	O 	0.9055	0.51366	0.1815	-0.721
Mof_O 	O 	0.89909	0.45753	0.0964	-0.696
Mof_O 	O 	0.58592	0.50549	0.2872	-0.691
Mof_O 	O 	0.59668	0.45319	0.388	-0.669
Mof_O 	O 	0.0216	0.52721	0.1338	-1.314
Mof_O 	O 	0.01215	0.43891	0.0119	-1.347
Mof_C 	C 	0.88671	0.48487	0.1545	0.514
Mof_C 	C 	0.84515	0.48432	0.1782	-0.143
Mof_C 	C 	0.82827	0.51254	0.2397	-0.025
Mof_H 	H 	0.8433	0.5327	0.2675	0.026
Mof_C 	C 	0.7673	0.48172	0.2198	-0.046
Mof_C 	C 	0.82308	0.45482	0.1376	-0.028
Mof_H 	H 	0.8346	0.4355	0.0956	0.03
Mof_C 	C 	0.78935	0.51123	0.2605	0.024
Mof_C 	C 	0.7728	0.5427	0.3277	0.332
Mof_H 	H 	0.7932	0.5605	0.3478	-0.088
Mof_H 	H 	0.7614	0.5318	0.3915	-0.056
Mof_H 	H 	0.7532	0.5564	0.2876	-0.097
Mof_C 	C 	0.78417	0.45351	0.1584	0.015
Mof_H 	H 	0.7691	0.4333	0.1306	-0.189
Mof_C 	C 	0.6067	0.47719	0.3215	0.507
Mof_C 	C 	0.64828	0.47938	0.2926	-0.143
Mof_C 	C 	0.66182	0.50514	0.218	-0.034
Mof_H 	H 	0.6447	0.5221	0.1837	0.022
Mof_C 	C 	0.70049	0.50615	0.1937	0.044
Mof_C 	C 	0.7256	0.48139	0.244	0.011
Mof_C 	C 	0.71203	0.45563	0.3185	-0.093
Mof_H 	H 	0.7292	0.4387	0.3529	0.067
Mof_C 	C 	0.67337	0.45461	0.3428	0.034
Mof_H 	H 	0.6641	0.437	0.3937	0.032
Mof_C 	C 	0.7147	0.5354	0.1096	-0.342
Mof_H 	H 	0.7184	0.5603	0.1435	0.094
Mof_H 	H 	0.6964	0.538	0.0516	0.08
Mof_H 	H 	0.7392	0.5262	0.0819	0.094
Mof_C 	C 	0.7904	0.5105	0.2697	-0
Mof_H 	H 	0.7801	0.5273	0.3211	-0.168
Mof_C 	C 	0.7806	0.4551	0.1515	0.031
Mof_C 	C 	0.7574	0.4246	0.0971	0.379
Mof_H 	H 	0.7303	0.4286	0.1122	-0.093
Mof_H 	H 	0.7652	0.3995	0.123	-0.078
Mof_H 	H 	0.7616	0.426	0.0207	-0.132
Mof_O 	O 	0.5945	0.98634	0.1815	-0.723
Mof_O 	O 	0.60091	0.04247	0.0964	-0.696
Mof_O 	O 	0.91408	0.99451	0.2872	-0.693
Mof_O 	O 	0.90332	0.04681	0.388	-0.669
Mof_O 	O 	0.4784	0.97279	0.1338	-1.316
Mof_O 	O 	0.48785	0.06109	0.0119	-1.348
Mof_C 	C 	0.61329	0.01513	0.1545	0.516
Mof_C 	C 	0.65485	0.01568	0.1782	-0.141
Mof_C 	C 	0.67173	0.98746	0.2397	-0.027
Mof_H 	H 	0.6567	0.9673	0.2675	0.027
Mof_C 	C 	0.7327	0.01828	0.2198	-0.045
Mof_C 	C 	0.67692	0.04518	0.1376	-0.029
Mof_H 	H 	0.6654	0.0645	0.0956	0.031
Mof_C 	C 	0.71065	0.98877	0.2605	0.024
Mof_C 	C 	0.7272	0.9573	0.3277	0.332
Mof_H 	H 	0.7068	0.9395	0.3478	-0.088
Mof_H 	H 	0.7386	0.9682	0.3915	-0.056
Mof_H 	H 	0.7468	0.9436	0.2876	-0.097
Mof_C 	C 	0.71583	0.04649	0.1584	0.015
Mof_H 	H 	0.7309	0.0667	0.1306	-0.19
Mof_C 	C 	0.8933	0.02281	0.3215	0.508
Mof_C 	C 	0.85172	0.02062	0.2926	-0.141
Mof_C 	C 	0.83818	0.99486	0.218	-0.036
Mof_H 	H 	0.8553	0.9779	0.1837	0.022
Mof_C 	C 	0.79951	0.99385	0.1937	0.042
Mof_C 	C 	0.7744	0.01861	0.244	0.013
Mof_C 	C 	0.78797	0.04437	0.3185	-0.093
Mof_H 	H 	0.7708	0.0613	0.3529	0.067
Mof_C 	C 	0.82663	0.04539	0.3428	0.034
Mof_H 	H 	0.8359	0.063	0.3937	0.032
Mof_C 	C 	0.7853	0.9646	0.1096	-0.341
Mof_H 	H 	0.7816	0.9397	0.1435	0.094
Mof_H 	H 	0.8036	0.962	0.0516	0.079
Mof_H 	H 	0.7608	0.9738	0.0819	0.093
Mof_C 	C 	0.7096	0.9895	0.2697	-0.001
Mof_H 	H 	0.7199	0.9727	0.3211	-0.168
Mof_C 	C 	0.7194	0.0449	0.1515	0.031
Mof_C 	C 	0.7426	0.0754	0.0971	0.379
Mof_H 	H 	0.7697	0.0714	0.1122	-0.093
Mof_H 	H 	0.7348	0.1005	0.123	-0.078
Mof_H 	H 	0.7384	0.074	0.0207	-0.132
Mof_O 	O 	0.48634	0.0945	0.8185	-0.664
Mof_O 	O 	0.54247	0.10091	0.9036	-0.595
Mof_O 	O 	0.49451	0.41408	0.7128	-0.67
Mof_O 	O 	0.54681	0.40332	0.612	-0.66
Mof_O 	O 	0.47279	0.9784	0.8662	-1.256
Mof_O 	O 	0.56109	0.98785	0.9881	-1.201
Mof_C 	C 	0.51513	0.11329	0.8455	0.505
Mof_C 	C 	0.51568	0.15485	0.8218	-0.091
Mof_C 	C 	0.48746	0.17173	0.7603	-0.033
Mof_H 	H 	0.4673	0.1567	0.7325	0.043
Mof_C 	C 	0.51828	0.2327	0.7802	-0.048
Mof_C 	C 	0.54518	0.17692	0.8624	-0.045
Mof_H 	H 	0.5645	0.1654	0.9044	0.094
Mof_C 	C 	0.48877	0.21065	0.7395	0.03
Mof_C 	C 	0.4573	0.2272	0.6723	0.332
Mof_H 	H 	0.4395	0.2068	0.6522	-0.078
Mof_H 	H 	0.4682	0.2386	0.6085	-0.055
Mof_H 	H 	0.4436	0.2468	0.7124	-0.087
Mof_C 	C 	0.54649	0.21583	0.8416	0.052
Mof_H 	H 	0.5667	0.2309	0.8694	-0.246
Mof_C 	C 	0.52281	0.3933	0.6785	0.506
Mof_C 	C 	0.52062	0.35172	0.7074	-0.102
Mof_C 	C 	0.49486	0.33818	0.782	-0.077
Mof_H 	H 	0.4779	0.3553	0.8163	0.069
Mof_C 	C 	0.49385	0.29951	0.8063	0.133
Mof_C 	C 	0.51861	0.2744	0.756	-0.016
Mof_C 	C 	0.54437	0.28797	0.6815	-0.061
Mof_H 	H 	0.5613	0.2708	0.6471	0.061
Mof_C 	C 	0.54539	0.32663	0.6572	0.014
Mof_H 	H 	0.563	0.3359	0.6063	0.044
Mof_C 	C 	0.4646	0.2853	0.8904	-0.523
Mof_H 	H 	0.4397	0.2816	0.8565	0.18
Mof_H 	H 	0.462	0.3036	0.9484	0.211
Mof_H 	H 	0.4738	0.2608	0.9181	0.205
Mof_C 	C 	0.4895	0.2096	0.7303	0.011
Mof_H 	H 	0.4727	0.2199	0.6789	-0.172
Mof_C 	C 	0.5449	0.2194	0.8485	0.058
Mof_C 	C 	0.5754	0.2426	0.9029	0.454
Mof_H 	H 	0.5714	0.2697	0.8878	-0.076
Mof_H 	H 	0.6005	0.2348	0.877	-0.055
Mof_H 	H 	0.574	0.2384	0.9793	-0.063
Mof_O 	O 	0.01366	0.4055	0.8185	-0.663
Mof_O 	O 	0.95753	0.39909	0.9036	-0.594
Mof_O 	O 	0.00549	0.08592	0.7128	-0.669
Mof_O 	O 	0.95319	0.09668	0.612	-0.66
Mof_O 	O 	0.02721	0.5216	0.8662	-1.255
Mof_O 	O 	0.93891	0.51215	0.9881	-1.2
Mof_C 	C 	0.98487	0.38671	0.8455	0.504
Mof_C 	C 	0.98432	0.34515	0.8218	-0.092
Mof_C 	C 	0.01254	0.32827	0.7603	-0.032
Mof_H 	H 	0.0327	0.3433	0.7325	0.043
Mof_C 	C 	0.98172	0.2673	0.7802	-0.049
Mof_C 	C 	0.95482	0.32308	0.8624	-0.045
Mof_H 	H 	0.9355	0.3346	0.9044	0.094
Mof_C 	C 	0.01123	0.28935	0.7395	0.03
Mof_C 	C 	0.0427	0.2728	0.6723	0.332
Mof_H 	H 	0.0605	0.2932	0.6522	-0.078
Mof_H 	H 	0.0318	0.2614	0.6085	-0.055
Mof_H 	H 	0.0564	0.2532	0.7124	-0.087
Mof_C 	C 	0.95351	0.28417	0.8416	0.052
Mof_H 	H 	0.9333	0.2691	0.8694	-0.246
Mof_C 	C 	0.97719	0.1067	0.6785	0.505
Mof_C 	C 	0.97938	0.14828	0.7074	-0.103
Mof_C 	C 	0.00514	0.16182	0.782	-0.076
Mof_H 	H 	0.0221	0.1447	0.8163	0.068
Mof_C 	C 	0.00615	0.20049	0.8063	0.133
Mof_C 	C 	0.98139	0.2256	0.756	-0.017
Mof_C 	C 	0.95563	0.21203	0.6815	-0.061
Mof_H 	H 	0.9387	0.2292	0.6471	0.061
Mof_C 	C 	0.95461	0.17337	0.6572	0.015
Mof_H 	H 	0.937	0.1641	0.6063	0.044
Mof_C 	C 	0.0354	0.2147	0.8904	-0.523
Mof_H 	H 	0.0603	0.2184	0.8565	0.18
Mof_H 	H 	0.038	0.1964	0.9484	0.211
Mof_H 	H 	0.0262	0.2392	0.9181	0.205
Mof_C 	C 	0.0105	0.2904	0.7303	0.011
Mof_H 	H 	0.0273	0.2801	0.6789	-0.172
Mof_C 	C 	0.9551	0.2806	0.8485	0.058
Mof_C 	C 	0.9246	0.2574	0.9029	0.454
Mof_H 	H 	0.9286	0.2303	0.8878	-0.076
Mof_H 	H 	0.8995	0.2652	0.877	-0.055
Mof_H 	H 	0.926	0.2616	0.9793	-0.063
Mof_O 	O 	0.0945	0.01366	0.3185	-0.699
Mof_O 	O 	0.10091	0.95753	0.4036	-0.651
Mof_O 	O 	0.41408	0.00549	0.2128	-0.687
Mof_O 	O 	0.40332	0.95319	0.112	-0.701
Mof_O 	O 	0.9784	0.02721	0.3662	-1.29
Mof_O 	O 	0.98785	0.93891	0.4881	-1.278
Mof_C 	C 	0.11329	0.98487	0.3455	0.507
Mof_C 	C 	0.15485	0.98432	0.3218	-0.131
Mof_C 	C 	0.17173	0.01254	0.2603	-0.022
Mof_H 	H 	0.1567	0.0327	0.2325	0.018
Mof_C 	C 	0.2327	0.98172	0.2802	-0.048
Mof_C 	C 	0.17692	0.95482	0.3624	-0.037
Mof_H 	H 	0.1654	0.9355	0.4044	0.059
Mof_C 	C 	0.21065	0.01123	0.2395	0.009
Mof_C 	C 	0.2272	0.0427	0.1723	0.294
Mof_H 	H 	0.2068	0.0605	0.1522	-0.101
Mof_H 	H 	0.2386	0.0318	0.1085	-0.088
Mof_H 	H 	0.2468	0.0564	0.2124	-0.091
Mof_C 	C 	0.21583	0.95351	0.3416	0.032
Mof_H 	H 	0.2309	0.9333	0.3694	-0.214
Mof_C 	C 	0.3933	0.97719	0.1785	0.51
Mof_C 	C 	0.35172	0.97938	0.2074	-0.142
Mof_C 	C 	0.33818	0.00514	0.282	-0.053
Mof_H 	H 	0.3553	0.0221	0.3163	0.04
Mof_C 	C 	0.29951	0.00615	0.3063	0.083
Mof_C 	C 	0.2744	0.98139	0.256	-0.01
Mof_C 	C 	0.28797	0.95563	0.1815	-0.089
Mof_H 	H 	0.2708	0.9387	0.1471	0.034
Mof_C 	C 	0.32663	0.95461	0.1572	0.02
Mof_H 	H 	0.3359	0.937	0.1063	0.005
Mof_C 	C 	0.2853	0.0354	0.3904	-0.427
Mof_H 	H 	0.2816	0.0603	0.3565	0.13
Mof_H 	H 	0.3036	0.038	0.4484	0.144
Mof_H 	H 	0.2608	0.0262	0.4181	0.149
Mof_C 	C 	0.2096	0.0105	0.2303	-0.001
Mof_H 	H 	0.2199	0.0273	0.1789	-0.144
Mof_C 	C 	0.2194	0.9551	0.3485	0.038
Mof_C 	C 	0.2426	0.9246	0.4029	0.412
Mof_H 	H 	0.2697	0.9286	0.3878	-0.085
Mof_H 	H 	0.2348	0.8995	0.377	-0.073
Mof_H 	H 	0.2384	0.926	0.4793	-0.095
Mof_O 	O 	0.4055	0.48634	0.3185	-0.701
Mof_O 	O 	0.39909	0.54247	0.4036	-0.651
Mof_O 	O 	0.08592	0.49451	0.2128	-0.689
Mof_O 	O 	0.09668	0.54681	0.112	-0.701
Mof_O 	O 	0.5216	0.47279	0.3662	-1.29
Mof_O 	O 	0.51215	0.56109	0.4881	-1.277
Mof_C 	C 	0.38671	0.51513	0.3455	0.509
Mof_C 	C 	0.34515	0.51568	0.3218	-0.129
Mof_C 	C 	0.32827	0.48746	0.2603	-0.024
Mof_H 	H 	0.3433	0.4673	0.2325	0.018
Mof_C 	C 	0.2673	0.51828	0.2802	-0.047
Mof_C 	C 	0.32308	0.54518	0.3624	-0.037
Mof_H 	H 	0.3346	0.5645	0.4044	0.059
Mof_C 	C 	0.28935	0.48877	0.2395	0.009
Mof_C 	C 	0.2728	0.4573	0.1723	0.293
Mof_H 	H 	0.2932	0.4395	0.1522	-0.101
Mof_H 	H 	0.2614	0.4682	0.1085	-0.089
Mof_H 	H 	0.2532	0.4436	0.2124	-0.092
Mof_C 	C 	0.28417	0.54649	0.3416	0.032
Mof_H 	H 	0.2691	0.5667	0.3694	-0.215
Mof_C 	C 	0.1067	0.52281	0.1785	0.511
Mof_C 	C 	0.14828	0.52062	0.2074	-0.14
Mof_C 	C 	0.16182	0.49486	0.282	-0.054
Mof_H 	H 	0.1447	0.4779	0.3163	0.04
Mof_C 	C 	0.20049	0.49385	0.3063	0.082
Mof_C 	C 	0.2256	0.51861	0.256	-0.009
Mof_C 	C 	0.21203	0.54437	0.1815	-0.089
Mof_H 	H 	0.2292	0.5613	0.1471	0.034
Mof_C 	C 	0.17337	0.54539	0.1572	0.019
Mof_H 	H 	0.1641	0.563	0.1063	0.005
Mof_C 	C 	0.2147	0.4646	0.3904	-0.426
Mof_H 	H 	0.2184	0.4397	0.3565	0.13
Mof_H 	H 	0.1964	0.462	0.4484	0.143
Mof_H 	H 	0.2392	0.4738	0.4181	0.148
Mof_C 	C 	0.2904	0.4895	0.2303	-0.002
Mof_H 	H 	0.2801	0.4727	0.1789	-0.144
Mof_C 	C 	0.2806	0.5449	0.3485	0.039
Mof_C 	C 	0.2574	0.5754	0.4029	0.412
Mof_H 	H 	0.2303	0.5714	0.3878	-0.085
Mof_H 	H 	0.2652	0.6005	0.377	-0.073
Mof_H 	H 	0.2616	0.574	0.4793	-0.095
Mof_O 	O 	0.48634	0.4055	0.3185	-0.701
Mof_O 	O 	0.54247	0.39909	0.4036	-0.651
Mof_O 	O 	0.49451	0.08592	0.2128	-0.689
Mof_O 	O 	0.54681	0.09668	0.112	-0.701
Mof_O 	O 	0.47279	0.5216	0.3662	-1.29
Mof_O 	O 	0.56109	0.51215	0.4881	-1.277
Mof_C 	C 	0.51513	0.38671	0.3455	0.509
Mof_C 	C 	0.51568	0.34515	0.3218	-0.129
Mof_C 	C 	0.48746	0.32827	0.2603	-0.024
Mof_H 	H 	0.4673	0.3433	0.2325	0.018
Mof_C 	C 	0.51828	0.2673	0.2802	-0.047
Mof_C 	C 	0.54518	0.32308	0.3624	-0.037
Mof_H 	H 	0.5645	0.3346	0.4044	0.059
Mof_C 	C 	0.48877	0.28935	0.2395	0.009
Mof_C 	C 	0.4573	0.2728	0.1723	0.293
Mof_H 	H 	0.4395	0.2932	0.1522	-0.101
Mof_H 	H 	0.4682	0.2614	0.1085	-0.089
Mof_H 	H 	0.4436	0.2532	0.2124	-0.092
Mof_C 	C 	0.54649	0.28417	0.3416	0.032
Mof_H 	H 	0.5667	0.2691	0.3694	-0.215
Mof_C 	C 	0.52281	0.1067	0.1785	0.511
Mof_C 	C 	0.52062	0.14828	0.2074	-0.14
Mof_C 	C 	0.49486	0.16182	0.282	-0.054
Mof_H 	H 	0.4779	0.1447	0.3163	0.04
Mof_C 	C 	0.49385	0.20049	0.3063	0.082
Mof_C 	C 	0.51861	0.2256	0.256	-0.009
Mof_C 	C 	0.54437	0.21203	0.1815	-0.089
Mof_H 	H 	0.5613	0.2292	0.1471	0.034
Mof_C 	C 	0.54539	0.17337	0.1572	0.019
Mof_H 	H 	0.563	0.1641	0.1063	0.005
Mof_C 	C 	0.4646	0.2147	0.3904	-0.426
Mof_H 	H 	0.4397	0.2184	0.3565	0.13
Mof_H 	H 	0.462	0.1964	0.4484	0.143
Mof_H 	H 	0.4738	0.2392	0.4181	0.148
Mof_C 	C 	0.4895	0.2904	0.2303	-0.002
Mof_H 	H 	0.4727	0.2801	0.1789	-0.144
Mof_C 	C 	0.5449	0.2806	0.3485	0.039
Mof_C 	C 	0.5754	0.2574	0.4029	0.412
Mof_H 	H 	0.5714	0.2303	0.3878	-0.085
Mof_H 	H 	0.6005	0.2652	0.377	-0.073
Mof_H 	H 	0.574	0.2616	0.4793	-0.095
Mof_O 	O 	0.01366	0.0945	0.3185	-0.699
Mof_O 	O 	0.95753	0.10091	0.4036	-0.651
Mof_O 	O 	0.00549	0.41408	0.2128	-0.687
Mof_O 	O 	0.95319	0.40332	0.112	-0.701
Mof_O 	O 	0.02721	0.9784	0.3662	-1.29
Mof_O 	O 	0.93891	0.98785	0.4881	-1.278
Mof_C 	C 	0.98487	0.11329	0.3455	0.507
Mof_C 	C 	0.98432	0.15485	0.3218	-0.131
Mof_C 	C 	0.01254	0.17173	0.2603	-0.022
Mof_H 	H 	0.0327	0.1567	0.2325	0.018
Mof_C 	C 	0.98172	0.2327	0.2802	-0.048
Mof_C 	C 	0.95482	0.17692	0.3624	-0.037
Mof_H 	H 	0.9355	0.1654	0.4044	0.059
Mof_C 	C 	0.01123	0.21065	0.2395	0.009
Mof_C 	C 	0.0427	0.2272	0.1723	0.294
Mof_H 	H 	0.0605	0.2068	0.1522	-0.101
Mof_H 	H 	0.0318	0.2386	0.1085	-0.088
Mof_H 	H 	0.0564	0.2468	0.2124	-0.091
Mof_C 	C 	0.95351	0.21583	0.3416	0.032
Mof_H 	H 	0.9333	0.2309	0.3694	-0.214
Mof_C 	C 	0.97719	0.3933	0.1785	0.51
Mof_C 	C 	0.97938	0.35172	0.2074	-0.142
Mof_C 	C 	0.00514	0.33818	0.282	-0.053
Mof_H 	H 	0.0221	0.3553	0.3163	0.04
Mof_C 	C 	0.00615	0.29951	0.3063	0.083
Mof_C 	C 	0.98139	0.2744	0.256	-0.01
Mof_C 	C 	0.95563	0.28797	0.1815	-0.089
Mof_H 	H 	0.9387	0.2708	0.1471	0.034
Mof_C 	C 	0.95461	0.32663	0.1572	0.02
Mof_H 	H 	0.937	0.3359	0.1063	0.005
Mof_C 	C 	0.0354	0.2853	0.3904	-0.427
Mof_H 	H 	0.0603	0.2816	0.3565	0.13
Mof_H 	H 	0.038	0.3036	0.4484	0.144
Mof_H 	H 	0.0262	0.2608	0.4181	0.149
Mof_C 	C 	0.0105	0.2096	0.2303	-0.001
Mof_H 	H 	0.0273	0.2199	0.1789	-0.144
Mof_C 	C 	0.9551	0.2194	0.3485	0.038
Mof_C 	C 	0.9246	0.2426	0.4029	0.412
Mof_H 	H 	0.9286	0.2697	0.3878	-0.085
Mof_H 	H 	0.8995	0.2348	0.377	-0.073
Mof_H 	H 	0.926	0.2384	0.4793	-0.095
Mof_O 	O 	0.0945	0.48634	0.8185	-0.664
Mof_O 	O 	0.10091	0.54247	0.9036	-0.595
Mof_O 	O 	0.41408	0.49451	0.7128	-0.67
Mof_O 	O 	0.40332	0.54681	0.612	-0.66
Mof_O 	O 	0.9784	0.47279	0.8662	-1.256
Mof_O 	O 	0.98785	0.56109	0.9881	-1.201
Mof_C 	C 	0.11329	0.51513	0.8455	0.505
Mof_C 	C 	0.15485	0.51568	0.8218	-0.091
Mof_C 	C 	0.17173	0.48746	0.7603	-0.033
Mof_H 	H 	0.1567	0.4673	0.7325	0.043
Mof_C 	C 	0.2327	0.51828	0.7802	-0.048
Mof_C 	C 	0.17692	0.54518	0.8624	-0.045
Mof_H 	H 	0.1654	0.5645	0.9044	0.094
Mof_C 	C 	0.21065	0.48877	0.7395	0.03
Mof_C 	C 	0.2272	0.4573	0.6723	0.332
Mof_H 	H 	0.2068	0.4395	0.6522	-0.078
Mof_H 	H 	0.2386	0.4682	0.6085	-0.055
Mof_H 	H 	0.2468	0.4436	0.7124	-0.087
Mof_C 	C 	0.21583	0.54649	0.8416	0.052
Mof_H 	H 	0.2309	0.5667	0.8694	-0.246
Mof_C 	C 	0.3933	0.52281	0.6785	0.506
Mof_C 	C 	0.35172	0.52062	0.7074	-0.102
Mof_C 	C 	0.33818	0.49486	0.782	-0.077
Mof_H 	H 	0.3553	0.4779	0.8163	0.069
Mof_C 	C 	0.29951	0.49385	0.8063	0.133
Mof_C 	C 	0.2744	0.51861	0.756	-0.016
Mof_C 	C 	0.28797	0.54437	0.6815	-0.061
Mof_H 	H 	0.2708	0.5613	0.6471	0.061
Mof_C 	C 	0.32663	0.54539	0.6572	0.014
Mof_H 	H 	0.3359	0.563	0.6063	0.044
Mof_C 	C 	0.2853	0.4646	0.8904	-0.523
Mof_H 	H 	0.2816	0.4397	0.8565	0.18
Mof_H 	H 	0.3036	0.462	0.9484	0.211
Mof_H 	H 	0.2608	0.4738	0.9181	0.205
Mof_C 	C 	0.2096	0.4895	0.7303	0.011
Mof_H 	H 	0.2199	0.4727	0.6789	-0.172
Mof_C 	C 	0.2194	0.5449	0.8485	0.058
Mof_C 	C 	0.2426	0.5754	0.9029	0.454
Mof_H 	H 	0.2697	0.5714	0.8878	-0.076
Mof_H 	H 	0.2348	0.6005	0.877	-0.055
Mof_H 	H 	0.2384	0.574	0.9793	-0.063
Mof_O 	O 	0.4055	0.01366	0.8185	-0.663
Mof_O 	O 	0.39909	0.95753	0.9036	-0.594
Mof_O 	O 	0.08592	0.00549	0.7128	-0.669
Mof_O 	O 	0.09668	0.95319	0.612	-0.66
Mof_O 	O 	0.5216	0.02721	0.8662	-1.255
Mof_O 	O 	0.51215	0.93891	0.9881	-1.2
Mof_C 	C 	0.38671	0.98487	0.8455	0.504
Mof_C 	C 	0.34515	0.98432	0.8218	-0.092
Mof_C 	C 	0.32827	0.01254	0.7603	-0.032
Mof_H 	H 	0.3433	0.0327	0.7325	0.043
Mof_C 	C 	0.2673	0.98172	0.7802	-0.049
Mof_C 	C 	0.32308	0.95482	0.8624	-0.045
Mof_H 	H 	0.3346	0.9355	0.9044	0.094
Mof_C 	C 	0.28935	0.01123	0.7395	0.03
Mof_C 	C 	0.2728	0.0427	0.6723	0.332
Mof_H 	H 	0.2932	0.0605	0.6522	-0.078
Mof_H 	H 	0.2614	0.0318	0.6085	-0.055
Mof_H 	H 	0.2532	0.0564	0.7124	-0.087
Mof_C 	C 	0.28417	0.95351	0.8416	0.052
Mof_H 	H 	0.2691	0.9333	0.8694	-0.246
Mof_C 	C 	0.1067	0.97719	0.6785	0.505
Mof_C 	C 	0.14828	0.97938	0.7074	-0.103
Mof_C 	C 	0.16182	0.00514	0.782	-0.076
Mof_H 	H 	0.1447	0.0221	0.8163	0.068
Mof_C 	C 	0.20049	0.00615	0.8063	0.133
Mof_C 	C 	0.2256	0.98139	0.756	-0.017
Mof_C 	C 	0.21203	0.95563	0.6815	-0.061
Mof_H 	H 	0.2292	0.9387	0.6471	0.061
Mof_C 	C 	0.17337	0.95461	0.6572	0.015
Mof_H 	H 	0.1641	0.937	0.6063	0.044
Mof_C 	C 	0.2147	0.0354	0.8904	-0.523
Mof_H 	H 	0.2184	0.0603	0.8565	0.18
Mof_H 	H 	0.1964	0.038	0.9484	0.211
Mof_H 	H 	0.2392	0.0262	0.9181	0.205
Mof_C 	C 	0.2904	0.0105	0.7303	0.011
Mof_H 	H 	0.2801	0.0273	0.6789	-0.172
Mof_C 	C 	0.2806	0.9551	0.8485	0.058
Mof_C 	C 	0.2574	0.9246	0.9029	0.454
Mof_H 	H 	0.2303	0.9286	0.8878	-0.076
Mof_H 	H 	0.2652	0.8995	0.877	-0.055
Mof_H 	H 	0.2616	0.926	0.9793	-0.063
Mof_O 	O 	0.51366	0.9055	0.1815	-0.721
Mof_O 	O 	0.45753	0.89909	0.0964	-0.696
Mof_O 	O 	0.50549	0.58592	0.2872	-0.691
Mof_O 	O 	0.45319	0.59668	0.388	-0.669
Mof_O 	O 	0.52721	0.0216	0.1338	-1.314
Mof_O 	O 	0.43891	0.01215	0.0119	-1.347
Mof_C 	C 	0.48487	0.88671	0.1545	0.514
Mof_C 	C 	0.48432	0.84515	0.1782	-0.143
Mof_C 	C 	0.51254	0.82827	0.2397	-0.025
Mof_H 	H 	0.5327	0.8433	0.2675	0.026
Mof_C 	C 	0.48172	0.7673	0.2198	-0.046
Mof_C 	C 	0.45482	0.82308	0.1376	-0.028
Mof_H 	H 	0.4355	0.8346	0.0956	0.03
Mof_C 	C 	0.51123	0.78935	0.2605	0.024
Mof_C 	C 	0.5427	0.7728	0.3277	0.332
Mof_H 	H 	0.5605	0.7932	0.3478	-0.088
Mof_H 	H 	0.5318	0.7614	0.3915	-0.056
Mof_H 	H 	0.5564	0.7532	0.2876	-0.097
Mof_C 	C 	0.45351	0.78417	0.1584	0.015
Mof_H 	H 	0.4333	0.7691	0.1306	-0.189
Mof_C 	C 	0.47719	0.6067	0.3215	0.507
Mof_C 	C 	0.47938	0.64828	0.2926	-0.143
Mof_C 	C 	0.50514	0.66182	0.218	-0.034
Mof_H 	H 	0.5221	0.6447	0.1837	0.022
Mof_C 	C 	0.50615	0.70049	0.1937	0.044
Mof_C 	C 	0.48139	0.7256	0.244	0.011
Mof_C 	C 	0.45563	0.71203	0.3185	-0.093
Mof_H 	H 	0.4387	0.7292	0.3529	0.067
Mof_C 	C 	0.45461	0.67337	0.3428	0.034
Mof_H 	H 	0.437	0.6641	0.3937	0.032
Mof_C 	C 	0.5354	0.7147	0.1096	-0.342
Mof_H 	H 	0.5603	0.7184	0.1435	0.094
Mof_H 	H 	0.538	0.6964	0.0516	0.08
Mof_H 	H 	0.5262	0.7392	0.0819	0.094
Mof_C 	C 	0.5105	0.7904	0.2697	-0
Mof_H 	H 	0.5273	0.7801	0.3211	-0.168
Mof_C 	C 	0.4551	0.7806	0.1515	0.031
Mof_C 	C 	0.4246	0.7574	0.0971	0.379
Mof_H 	H 	0.4286	0.7303	0.1122	-0.093
Mof_H 	H 	0.3995	0.7652	0.123	-0.078
Mof_H 	H 	0.426	0.7616	0.0207	-0.132
Mof_O 	O 	0.98634	0.5945	0.1815	-0.723
Mof_O 	O 	0.04247	0.60091	0.0964	-0.696
Mof_O 	O 	0.99451	0.91408	0.2872	-0.693
Mof_O 	O 	0.04681	0.90332	0.388	-0.669
Mof_O 	O 	0.97279	0.4784	0.1338	-1.316
Mof_O 	O 	0.06109	0.48785	0.0119	-1.348
Mof_C 	C 	0.01513	0.61329	0.1545	0.516
Mof_C 	C 	0.01568	0.65485	0.1782	-0.141
Mof_C 	C 	0.98746	0.67173	0.2397	-0.027
Mof_H 	H 	0.9673	0.6567	0.2675	0.027
Mof_C 	C 	0.01828	0.7327	0.2198	-0.045
Mof_C 	C 	0.04518	0.67692	0.1376	-0.029
Mof_H 	H 	0.0645	0.6654	0.0956	0.031
Mof_C 	C 	0.98877	0.71065	0.2605	0.024
Mof_C 	C 	0.9573	0.7272	0.3277	0.332
Mof_H 	H 	0.9395	0.7068	0.3478	-0.088
Mof_H 	H 	0.9682	0.7386	0.3915	-0.056
Mof_H 	H 	0.9436	0.7468	0.2876	-0.097
Mof_C 	C 	0.04649	0.71583	0.1584	0.015
Mof_H 	H 	0.0667	0.7309	0.1306	-0.19
Mof_C 	C 	0.02281	0.8933	0.3215	0.508
Mof_C 	C 	0.02062	0.85172	0.2926	-0.141
Mof_C 	C 	0.99486	0.83818	0.218	-0.036
Mof_H 	H 	0.9779	0.8553	0.1837	0.022
Mof_C 	C 	0.99385	0.79951	0.1937	0.042
Mof_C 	C 	0.01861	0.7744	0.244	0.013
Mof_C 	C 	0.04437	0.78797	0.3185	-0.093
Mof_H 	H 	0.0613	0.7708	0.3529	0.067
Mof_C 	C 	0.04539	0.82663	0.3428	0.034
Mof_H 	H 	0.063	0.8359	0.3937	0.032
Mof_C 	C 	0.9646	0.7853	0.1096	-0.341
Mof_H 	H 	0.9397	0.7816	0.1435	0.094
Mof_H 	H 	0.962	0.8036	0.0516	0.079
Mof_H 	H 	0.9738	0.7608	0.0819	0.093
Mof_C 	C 	0.9895	0.7096	0.2697	-0.001
Mof_H 	H 	0.9727	0.7199	0.3211	-0.168
Mof_C 	C 	0.0449	0.7194	0.1515	0.031
Mof_C 	C 	0.0754	0.7426	0.0971	0.379
Mof_H 	H 	0.0714	0.7697	0.1122	-0.093
Mof_H 	H 	0.1005	0.7348	0.123	-0.078
Mof_H 	H 	0.074	0.7384	0.0207	-0.132
Mof_O 	O 	0.9055	0.98634	0.6815	-0.686
Mof_O 	O 	0.89909	0.04247	0.5964	-0.644
Mof_O 	O 	0.58592	0.99451	0.7872	-0.672
Mof_O 	O 	0.59668	0.04681	0.888	-0.624
Mof_O 	O 	0.0216	0.97279	0.6338	-1.285
Mof_O 	O 	0.01215	0.06109	0.5119	-1.276
Mof_C 	C 	0.88671	0.01513	0.6545	0.514
Mof_C 	C 	0.84515	0.01568	0.6782	-0.104
Mof_C 	C 	0.82827	0.98746	0.7397	-0.035
Mof_H 	H 	0.8433	0.9673	0.7675	0.052
Mof_C 	C 	0.7673	0.01828	0.7198	-0.047
Mof_C 	C 	0.82308	0.04518	0.6376	-0.036
Mof_H 	H 	0.8346	0.0645	0.5956	0.065
Mof_C 	C 	0.78935	0.98877	0.7605	0.045
Mof_C 	C 	0.7728	0.9573	0.8277	0.372
Mof_H 	H 	0.7932	0.9395	0.8478	-0.064
Mof_H 	H 	0.7614	0.9682	0.8915	-0.022
Mof_H 	H 	0.7532	0.9436	0.7876	-0.092
Mof_C 	C 	0.78417	0.04649	0.6584	0.036
Mof_H 	H 	0.7691	0.0667	0.6306	-0.221
Mof_C 	C 	0.6067	0.02281	0.8215	0.5
Mof_C 	C 	0.64828	0.02062	0.7926	-0.102
Mof_C 	C 	0.66182	0.99486	0.718	-0.059
Mof_H 	H 	0.6447	0.9779	0.6837	0.051
Mof_C 	C 	0.70049	0.99385	0.6937	0.095
Mof_C 	C 	0.7256	0.01861	0.744	0.004
Mof_C 	C 	0.71203	0.04437	0.8185	-0.065
Mof_H 	H 	0.7292	0.0613	0.8529	0.094
Mof_C 	C 	0.67337	0.04539	0.8428	0.029
Mof_H 	H 	0.6641	0.063	0.8937	0.072
Mof_C 	C 	0.7147	0.9646	0.6096	-0.44
Mof_H 	H 	0.7184	0.9397	0.6435	0.146
Mof_H 	H 	0.6964	0.962	0.5516	0.149
Mof_H 	H 	0.7392	0.9738	0.5819	0.151
Mof_C 	C 	0.7904	0.9895	0.7697	0.012
Mof_H 	H 	0.7801	0.9727	0.8211	-0.197
Mof_C 	C 	0.7806	0.0449	0.6515	0.051
Mof_C 	C 	0.7574	0.0754	0.5971	0.421
Mof_H 	H 	0.7303	0.0714	0.6122	-0.084
Mof_H 	H 	0.7652	0.1005	0.623	-0.06
Mof_H 	H 	0.7616	0.074	0.5207	-0.099
Mof_O 	O 	0.5945	0.51366	0.6815	-0.685
Mof_O 	O 	0.60091	0.45753	0.5964	-0.644
Mof_O 	O 	0.91408	0.50549	0.7872	-0.671
Mof_O 	O 	0.90332	0.45319	0.888	-0.624
Mof_O 	O 	0.4784	0.52721	0.6338	-1.285
Mof_O 	O 	0.48785	0.43891	0.5119	-1.277
Mof_C 	C 	0.61329	0.48487	0.6545	0.512
Mof_C 	C 	0.65485	0.48432	0.6782	-0.105
Mof_C 	C 	0.67173	0.51254	0.7397	-0.033
Mof_H 	H 	0.6567	0.5327	0.7675	0.052
Mof_C 	C 	0.7327	0.48172	0.7198	-0.048
Mof_C 	C 	0.67692	0.45482	0.6376	-0.036
Mof_H 	H 	0.6654	0.4355	0.5956	0.065
Mof_C 	C 	0.71065	0.51123	0.7605	0.046
Mof_C 	C 	0.7272	0.5427	0.8277	0.372
Mof_H 	H 	0.7068	0.5605	0.8478	-0.064
Mof_H 	H 	0.7386	0.5318	0.8915	-0.021
Mof_H 	H 	0.7468	0.5564	0.7876	-0.092
Mof_C 	C 	0.71583	0.45351	0.6584	0.036
Mof_H 	H 	0.7309	0.4333	0.6306	-0.221
Mof_C 	C 	0.8933	0.47719	0.8215	0.499
Mof_C 	C 	0.85172	0.47938	0.7926	-0.103
Mof_C 	C 	0.83818	0.50514	0.718	-0.058
Mof_H 	H 	0.8553	0.5221	0.6837	0.051
Mof_C 	C 	0.79951	0.50615	0.6937	0.096
Mof_C 	C 	0.7744	0.48139	0.744	0.003
Mof_C 	C 	0.78797	0.45563	0.8185	-0.064
Mof_H 	H 	0.7708	0.4387	0.8529	0.094
Mof_C 	C 	0.82663	0.45461	0.8428	0.029
Mof_H 	H 	0.8359	0.437	0.8937	0.072
Mof_C 	C 	0.7853	0.5354	0.6096	-0.441
Mof_H 	H 	0.7816	0.5603	0.6435	0.146
Mof_H 	H 	0.8036	0.538	0.5516	0.149
Mof_H 	H 	0.7608	0.5262	0.5819	0.152
Mof_C 	C 	0.7096	0.5105	0.7697	0.013
Mof_H 	H 	0.7199	0.5273	0.8211	-0.197
Mof_C 	C 	0.7194	0.4551	0.6515	0.051
Mof_C 	C 	0.7426	0.4246	0.5971	0.421
Mof_H 	H 	0.7697	0.4286	0.6122	-0.084
Mof_H 	H 	0.7348	0.3995	0.623	-0.06
Mof_H 	H 	0.7384	0.426	0.5207	-0.1
Mof_Zr	Zr	0.53803	0.53803	0.62839	3.196
Mof_Zr	Zr	0.46786	0.46786	0.65183	3.197
Mof_O 	O 	0.52885	0.52885	0.7991	-0.643
Mof_O 	O 	0.48391	0.48391	0.8133	-0.637
Mof_C 	C 	0.50731	0.50731	0.8535	0.468
Mof_C 	C 	0.51034	0.51034	0.9669	0.135
Mof_H 	H 	0.5281	0.5281	0.9954	0.065
Mof_Zr	Zr	0.96197	0.96197	0.62839	3.196
Mof_Zr	Zr	0.03214	0.03214	0.65183	3.197
Mof_O 	O 	0.97115	0.97115	0.7991	-0.643
Mof_O 	O 	0.01609	0.01609	0.8133	-0.636
Mof_C 	C 	0.99269	0.99269	0.8535	0.468
Mof_C 	C 	0.98966	0.98966	0.9669	0.129
Mof_H 	H 	0.9719	0.9719	0.9954	0.067
Mof_Zr	Zr	0.96197	0.53803	0.12839	3.186
Mof_Zr	Zr	0.03214	0.46786	0.15183	3.197
Mof_O 	O 	0.97115	0.52885	0.2991	-0.688
Mof_O 	O 	0.01609	0.48391	0.3133	-0.687
Mof_C 	C 	0.99269	0.50731	0.3535	0.565
Mof_C 	C 	0.98966	0.51034	0.4669	-0.182
Mof_H 	H 	0.9719	0.5281	0.4954	0.116
Mof_Zr	Zr	0.53803	0.96197	0.12839	3.186
Mof_Zr	Zr	0.46786	0.03214	0.15183	3.197
Mof_O 	O 	0.52885	0.97115	0.2991	-0.688
Mof_O 	O 	0.48391	0.01609	0.3133	-0.687
Mof_C 	C 	0.50731	0.99269	0.3535	0.565
Mof_C 	C 	0.51034	0.98966	0.4669	-0.182
Mof_H 	H 	0.5281	0.9719	0.4954	0.116
Mof_Zr	Zr	0.46197	0.03803	0.87161	3.207
Mof_Zr	Zr	0.53214	0.96786	0.84817	3.197
Mof_O 	O 	0.47115	0.02885	0.7009	-0.679
Mof_O 	O 	0.51609	0.98391	0.6867	-0.688
Mof_C 	C 	0.49269	0.00731	0.6465	0.561
Mof_C 	C 	0.48966	0.01034	0.5331	-0.173
Mof_H 	H 	0.4719	0.0281	0.5046	0.113
Mof_Zr	Zr	0.03803	0.46197	0.87161	3.207
Mof_Zr	Zr	0.96786	0.53214	0.84817	3.197
Mof_O 	O 	0.02885	0.47115	0.7009	-0.679
Mof_O 	O 	0.98391	0.51609	0.6867	-0.688
Mof_C 	C 	0.00731	0.49269	0.6465	0.561
Mof_C 	C 	0.01034	0.48966	0.5331	-0.173
Mof_H 	H 	0.0281	0.4719	0.5046	0.113
Mof_Zr	Zr	0.03803	0.03803	0.37161	3.196
Mof_Zr	Zr	0.96786	0.96786	0.34817	3.197
Mof_O 	O 	0.02885	0.02885	0.2009	-0.724
Mof_O 	O 	0.98391	0.98391	0.1867	-0.742
Mof_C 	C 	0.00731	0.00731	0.1465	0.66
Mof_C 	C 	0.01034	0.01034	0.0331	-0.484
Mof_H 	H 	0.0281	0.0281	0.0046	0.163
Mof_Zr	Zr	0.46197	0.46197	0.37161	3.196
Mof_Zr	Zr	0.53214	0.53214	0.34817	3.197
Mof_O 	O 	0.47115	0.47115	0.2009	-0.724
Mof_O 	O 	0.51609	0.51609	0.1867	-0.739
Mof_C 	C 	0.49269	0.49269	0.1465	0.658
Mof_C 	C 	0.48966	0.48966	0.0331	-0.49
Mof_H 	H 	0.4719	0.4719	0.0046	0.164
Mof_Zr	Zr	0.54969	0.45031	0.5	3.216
Mof_Zr	Zr	0.95031	0.04969	0.5	3.216
Mof_Zr	Zr	0.04969	0.54969	-0	3.198
Mof_Zr	Zr	0.45031	0.95031	-0	3.198
Mof_Zr	Zr	0.45031	0.54969	0.5	3.216
Mof_Zr	Zr	0.04969	0.95031	0.5	3.216
Mof_Zr	Zr	0.95031	0.45031	-0	3.198
Mof_Zr	Zr	0.54969	0.04969	-0	3.198
_end
