data_functionalizedCrystal
_audit_creation_method	'EQeq! by Chris Wilmer'
_symmetry_space_group_name_H-M	'P1'
_symmetry_Int_Tables_number	1
_symmetry_cell_setting	triclinic
loop_
_symmetry_equiv_pos_as_xyz
  x,y,z
_cell_length_a	14.9436
_cell_length_b	28.4461
_cell_length_c	10.7407
_cell_angle_alpha	90
_cell_angle_beta	90
_cell_angle_gamma	90
loop_
_atom_site_label
_atom_site_type_symbol
_atom_site_fract_x
_atom_site_fract_y
_atom_site_fract_z
_atom_site_charge
Mof_O 	O 	0.9097	0.43484	0.4924	-0.36
Mof_O 	O 	0.9073	0.49051	0.348	-0.371
Mof_C 	C 	0.813	0.4255	0.3207	-0.066
Mof_C 	C 	0.8827	0.4526	0.3915	0.359
Mof_C 	C 	0.6956	0.275	0.3306	0.08
Mof_C 	C 	0.8115	0.377	0.3222	-0.049
Mof_H 	H 	0.8528	0.3604	0.3731	0.073
Mof_C 	C 	0.635	0.3017	0.4199	-0.442
Mof_H 	H 	0.5779	0.3085	0.3788	0.146
Mof_H 	H 	0.6638	0.3312	0.4441	0.16
Mof_H 	H 	0.6243	0.2825	0.4942	0.142
Mof_O 	O 	0.4097	0.93484	0.9924	-0.414
Mof_O 	O 	0.4073	0.99051	0.848	-0.424
Mof_C 	C 	0.313	0.9255	0.8207	-0.097
Mof_C 	C 	0.3827	0.9526	0.8915	0.373
Mof_C 	C 	0.1956	0.775	0.8306	0.056
Mof_C 	C 	0.3115	0.877	0.8222	-0.033
Mof_H 	H 	0.3528	0.8604	0.8731	0.05
Mof_C 	C 	0.135	0.8017	0.9199	-0.38
Mof_H 	H 	0.0779	0.8085	0.8788	0.096
Mof_H 	H 	0.1638	0.8312	0.9441	0.13
Mof_H 	H 	0.1243	0.7825	0.9942	0.106
Mof_O 	O 	0.0903	0.06516	0.4924	-0.44
Mof_O 	O 	0.0927	0.00949	0.348	-0.449
Mof_C 	C 	0.187	0.0745	0.3207	-0.106
Mof_C 	C 	0.1173	0.0474	0.3915	0.373
Mof_C 	C 	0.3044	0.225	0.3306	0.069
Mof_C 	C 	0.1885	0.123	0.3222	-0.032
Mof_H 	H 	0.1472	0.1396	0.3731	0.033
Mof_C 	C 	0.365	0.1983	0.4199	-0.43
Mof_H 	H 	0.4221	0.1915	0.3788	0.143
Mof_H 	H 	0.3362	0.1688	0.4441	0.152
Mof_H 	H 	0.3757	0.2175	0.4942	0.134
Mof_O 	O 	0.5903	0.56516	0.9924	-0.409
Mof_O 	O 	0.5927	0.50949	0.848	-0.421
Mof_C 	C 	0.687	0.5745	0.8207	-0.077
Mof_C 	C 	0.6173	0.5474	0.8915	0.37
Mof_C 	C 	0.8044	0.725	0.8306	0.094
Mof_C 	C 	0.6885	0.623	0.8222	-0.047
Mof_H 	H 	0.6472	0.6396	0.8731	0.056
Mof_C 	C 	0.865	0.6983	0.9199	-0.495
Mof_H 	H 	0.9221	0.6915	0.8788	0.194
Mof_H 	H 	0.8362	0.6688	0.9441	0.185
Mof_H 	H 	0.8757	0.7175	0.9942	0.172
Mof_O 	O 	0.0903	0.93484	0.5076	-0.44
Mof_O 	O 	0.0927	0.99051	0.652	-0.449
Mof_C 	C 	0.187	0.9255	0.6793	-0.106
Mof_C 	C 	0.1173	0.9526	0.6085	0.373
Mof_C 	C 	0.3044	0.775	0.6694	0.069
Mof_C 	C 	0.1885	0.877	0.6778	-0.032
Mof_H 	H 	0.1472	0.8604	0.6269	0.033
Mof_C 	C 	0.365	0.8017	0.5801	-0.43
Mof_H 	H 	0.4221	0.8085	0.6212	0.143
Mof_H 	H 	0.3362	0.8312	0.5559	0.152
Mof_H 	H 	0.3757	0.7825	0.5058	0.134
Mof_O 	O 	0.5903	0.43484	0.0076	-0.409
Mof_O 	O 	0.5927	0.49051	0.152	-0.421
Mof_C 	C 	0.687	0.4255	0.1793	-0.077
Mof_C 	C 	0.6173	0.4526	0.1085	0.37
Mof_C 	C 	0.8044	0.275	0.1694	0.094
Mof_C 	C 	0.6885	0.377	0.1778	-0.047
Mof_H 	H 	0.6472	0.3604	0.1269	0.056
Mof_C 	C 	0.865	0.3017	0.0801	-0.495
Mof_H 	H 	0.9221	0.3085	0.1212	0.194
Mof_H 	H 	0.8362	0.3312	0.0559	0.185
Mof_H 	H 	0.8757	0.2825	0.0058	0.172
Mof_O 	O 	0.9097	0.56516	0.5076	-0.359
Mof_O 	O 	0.9073	0.50949	0.652	-0.37
Mof_C 	C 	0.813	0.5745	0.6793	-0.065
Mof_C 	C 	0.8827	0.5474	0.6085	0.36
Mof_C 	C 	0.6956	0.725	0.6694	0.08
Mof_C 	C 	0.8115	0.623	0.6778	-0.049
Mof_H 	H 	0.8528	0.6396	0.6269	0.073
Mof_C 	C 	0.635	0.6983	0.5801	-0.442
Mof_H 	H 	0.5779	0.6915	0.6212	0.146
Mof_H 	H 	0.6638	0.6688	0.5559	0.16
Mof_H 	H 	0.6243	0.7175	0.5058	0.142
Mof_O 	O 	0.4097	0.06516	0.0076	-0.414
Mof_O 	O 	0.4073	0.00949	0.152	-0.424
Mof_C 	C 	0.313	0.0745	0.1793	-0.097
Mof_C 	C 	0.3827	0.0474	0.1085	0.373
Mof_C 	C 	0.1956	0.225	0.1694	0.056
Mof_C 	C 	0.3115	0.123	0.1778	-0.033
Mof_H 	H 	0.3528	0.1396	0.1269	0.05
Mof_C 	C 	0.135	0.1983	0.0801	-0.38
Mof_H 	H 	0.0779	0.1915	0.1212	0.096
Mof_H 	H 	0.1638	0.1688	0.0559	0.13
Mof_H 	H 	0.1243	0.2175	0.0058	0.106
Mof_O 	O 	0.0903	0.56516	0.5076	-0.44
Mof_O 	O 	0.0927	0.50949	0.652	-0.449
Mof_C 	C 	0.187	0.5745	0.6793	-0.106
Mof_C 	C 	0.1173	0.5474	0.6085	0.373
Mof_C 	C 	0.3044	0.725	0.6694	0.069
Mof_C 	C 	0.1885	0.623	0.6778	-0.032
Mof_H 	H 	0.1472	0.6396	0.6269	0.033
Mof_C 	C 	0.365	0.6983	0.5801	-0.431
Mof_H 	H 	0.4221	0.6915	0.6212	0.143
Mof_H 	H 	0.3362	0.6688	0.5559	0.152
Mof_H 	H 	0.3757	0.7175	0.5058	0.134
Mof_O 	O 	0.5903	0.06516	0.0076	-0.408
Mof_O 	O 	0.5927	0.00949	0.152	-0.42
Mof_C 	C 	0.687	0.0745	0.1793	-0.077
Mof_C 	C 	0.6173	0.0474	0.1085	0.369
Mof_C 	C 	0.8044	0.225	0.1694	0.094
Mof_C 	C 	0.6885	0.123	0.1778	-0.047
Mof_H 	H 	0.6472	0.1396	0.1269	0.056
Mof_C 	C 	0.865	0.1983	0.0801	-0.495
Mof_H 	H 	0.9221	0.1915	0.1212	0.194
Mof_H 	H 	0.8362	0.1688	0.0559	0.185
Mof_H 	H 	0.8757	0.2175	0.0058	0.172
Mof_O 	O 	0.9097	0.93484	0.5076	-0.36
Mof_O 	O 	0.9073	0.99051	0.652	-0.371
Mof_C 	C 	0.813	0.9255	0.6793	-0.065
Mof_C 	C 	0.8827	0.9526	0.6085	0.36
Mof_C 	C 	0.6956	0.775	0.6694	0.08
Mof_C 	C 	0.8115	0.877	0.6778	-0.049
Mof_H 	H 	0.8528	0.8604	0.6269	0.073
Mof_C 	C 	0.635	0.8017	0.5801	-0.442
Mof_H 	H 	0.5779	0.8085	0.6212	0.146
Mof_H 	H 	0.6638	0.8312	0.5559	0.16
Mof_H 	H 	0.6243	0.7825	0.5058	0.142
Mof_O 	O 	0.4097	0.43484	0.0076	-0.414
Mof_O 	O 	0.4073	0.49051	0.152	-0.425
Mof_C 	C 	0.313	0.4255	0.1793	-0.097
Mof_C 	C 	0.3827	0.4526	0.1085	0.373
Mof_C 	C 	0.1956	0.275	0.1694	0.056
Mof_C 	C 	0.3115	0.377	0.1778	-0.032
Mof_H 	H 	0.3528	0.3604	0.1269	0.049
Mof_C 	C 	0.135	0.3017	0.0801	-0.38
Mof_H 	H 	0.0779	0.3085	0.1212	0.096
Mof_H 	H 	0.1638	0.3312	0.0559	0.129
Mof_H 	H 	0.1243	0.2825	0.0058	0.106
Mof_O 	O 	0.9097	0.06516	0.4924	-0.36
Mof_O 	O 	0.9073	0.00949	0.348	-0.371
Mof_C 	C 	0.813	0.0745	0.3207	-0.065
Mof_C 	C 	0.8827	0.0474	0.3915	0.36
Mof_C 	C 	0.6956	0.225	0.3306	0.08
Mof_C 	C 	0.8115	0.123	0.3222	-0.049
Mof_H 	H 	0.8528	0.1396	0.3731	0.073
Mof_C 	C 	0.635	0.1983	0.4199	-0.442
Mof_H 	H 	0.5779	0.1915	0.3788	0.146
Mof_H 	H 	0.6638	0.1688	0.4441	0.16
Mof_H 	H 	0.6243	0.2175	0.4942	0.142
Mof_O 	O 	0.4097	0.56516	0.9924	-0.414
Mof_O 	O 	0.4073	0.50949	0.848	-0.425
Mof_C 	C 	0.313	0.5745	0.8207	-0.097
Mof_C 	C 	0.3827	0.5474	0.8915	0.373
Mof_C 	C 	0.1956	0.725	0.8306	0.056
Mof_C 	C 	0.3115	0.623	0.8222	-0.032
Mof_H 	H 	0.3528	0.6396	0.8731	0.049
Mof_C 	C 	0.135	0.6983	0.9199	-0.38
Mof_H 	H 	0.0779	0.6915	0.8788	0.096
Mof_H 	H 	0.1638	0.6688	0.9441	0.129
Mof_H 	H 	0.1243	0.7175	0.9942	0.106
Mof_O 	O 	0.0903	0.43484	0.4924	-0.44
Mof_O 	O 	0.0927	0.49051	0.348	-0.449
Mof_C 	C 	0.187	0.4255	0.3207	-0.106
Mof_C 	C 	0.1173	0.4526	0.3915	0.373
Mof_C 	C 	0.3044	0.275	0.3306	0.069
Mof_C 	C 	0.1885	0.377	0.3222	-0.032
Mof_H 	H 	0.1472	0.3604	0.3731	0.033
Mof_C 	C 	0.365	0.3017	0.4199	-0.431
Mof_H 	H 	0.4221	0.3085	0.3788	0.143
Mof_H 	H 	0.3362	0.3312	0.4441	0.152
Mof_H 	H 	0.3757	0.2825	0.4942	0.134
Mof_O 	O 	0.5903	0.93484	0.9924	-0.408
Mof_O 	O 	0.5927	0.99051	0.848	-0.42
Mof_C 	C 	0.687	0.9255	0.8207	-0.077
Mof_C 	C 	0.6173	0.9526	0.8915	0.369
Mof_C 	C 	0.8044	0.775	0.8306	0.094
Mof_C 	C 	0.6885	0.877	0.8222	-0.047
Mof_H 	H 	0.6472	0.8604	0.8731	0.056
Mof_C 	C 	0.865	0.8017	0.9199	-0.495
Mof_H 	H 	0.9221	0.8085	0.8788	0.194
Mof_H 	H 	0.8362	0.8312	0.9441	0.185
Mof_H 	H 	0.8757	0.7825	0.9942	0.172
Mof_Cu	Cu	1.58709e-33	0.4671	0.58893	0.861
Mof_Cu	Cu	0.5	0.9671	0.08893	0.909
Mof_Cu	Cu	1.58709e-33	0.0329	0.58893	0.861
Mof_Cu	Cu	0.5	0.5329	0.08893	0.91
Mof_Cu	Cu	2.0459e-32	0.9671	0.41107	0.861
Mof_Cu	Cu	0.5	0.4671	0.91107	0.91
Mof_Cu	Cu	9.40115e-33	0.5329	0.41107	0.861
Mof_Cu	Cu	0.5	0.0329	0.91107	0.909
Mof_C 	C 	0.75	0.3518	0.25	0.04
Mof_C 	C 	0.75	0.4487	0.25	0.019
Mof_H 	H 	0.75	0.4821	0.25	0.052
Mof_C 	C 	0.75	0.2992	0.25	-0.094
Mof_C 	C 	0.25	0.1482	0.25	0.016
Mof_C 	C 	0.25	0.0513	0.25	0.035
Mof_H 	H 	0.25	0.0179	0.25	0.038
Mof_C 	C 	0.25	0.2008	0.25	-0.082
Mof_C 	C 	0.25	0.8518	0.75	0.016
Mof_C 	C 	0.25	0.9487	0.75	0.035
Mof_H 	H 	0.25	0.9821	0.75	0.038
Mof_C 	C 	0.25	0.7992	0.75	-0.082
Mof_C 	C 	0.75	0.6482	0.75	0.04
Mof_C 	C 	0.75	0.5513	0.75	0.019
Mof_H 	H 	0.75	0.5179	0.75	0.052
Mof_C 	C 	0.75	0.7008	0.75	-0.094
Mof_C 	C 	0.25	0.6482	0.75	0.016
Mof_C 	C 	0.25	0.5513	0.75	0.035
Mof_H 	H 	0.25	0.5179	0.75	0.038
Mof_C 	C 	0.25	0.7008	0.75	-0.081
Mof_C 	C 	0.75	0.8518	0.75	0.04
Mof_C 	C 	0.75	0.9487	0.75	0.019
Mof_H 	H 	0.75	0.9821	0.75	0.052
Mof_C 	C 	0.75	0.7992	0.75	-0.094
Mof_C 	C 	0.75	0.1482	0.25	0.04
Mof_C 	C 	0.75	0.0513	0.25	0.019
Mof_H 	H 	0.75	0.0179	0.25	0.052
Mof_C 	C 	0.75	0.2008	0.25	-0.094
Mof_C 	C 	0.25	0.3518	0.25	0.016
Mof_C 	C 	0.25	0.4487	0.25	0.035
Mof_H 	H 	0.25	0.4821	0.25	0.038
Mof_C 	C 	0.25	0.2992	0.25	-0.081
_end
