data_functionalizedCrystal
_audit_creation_method	'EQeq! by Chris Wilmer'
_symmetry_space_group_name_H-M	'P1'
_symmetry_Int_Tables_number	1
_symmetry_cell_setting	triclinic
loop_
_symmetry_equiv_pos_as_xyz
  x,y,z
_cell_length_a	13.854
_cell_length_b	10.832
_cell_length_c	18.731
_cell_angle_alpha	90
_cell_angle_beta	130.624
_cell_angle_gamma	90
loop_
_atom_site_label
_atom_site_type_symbol
_atom_site_fract_x
_atom_site_fract_y
_atom_site_fract_z
_atom_site_charge
Mof_N 	N 	0.3445	0.0922	0.6879	-0.155
Mof_N 	N 	0.2387	0.2628	0.6077	-0.126
Mof_N 	N 	0.0069	0.8137	0.6599	-0.158
Mof_O 	O 	0.8823	0.5244	0.6296	-0.248
Mof_O 	O 	0.8123	0.5894	0.6996	-0.259
Mof_O 	O 	0.6399	0.189	0.3853	-0.269
Mof_O 	O 	0.4507	0.1457	0.3317	-0.276
Mof_S 	S 	0.39397	0.1652	0.57785	0.012
Mof_C 	C 	0.4233	0.3252	0.5743	-0.238
Mof_H 	H 	0.3436	0.3671	0.5263	0.117
Mof_H 	H 	0.4622	0.3634	0.6345	0.11
Mof_C 	C 	0.5107	0.3372	0.5526	0.127
Mof_C 	C 	0.6128	0.4176	0.6051	-0.12
Mof_H 	H 	0.6263	0.4641	0.6526	0.092
Mof_C 	C 	0.6955	0.4294	0.5874	-0.009
Mof_C 	C 	0.6777	0.3567	0.5183	-0.052
Mof_H 	H 	0.7351	0.3615	0.5083	0.073
Mof_C 	C 	0.5744	0.2771	0.4643	-0.017
Mof_C 	C 	0.4899	0.2689	0.4807	-0.112
Mof_H 	H 	0.4193	0.2176	0.4434	0.09
Mof_C 	C 	0.8034	0.5195	0.6425	0.264
Mof_C 	C 	0.5542	0.1997	0.3895	0.287
Mof_C 	C 	0.3224	0.1748	0.6273	0.099
Mof_C 	C 	0.2699	0.1285	0.7101	0.067
Mof_C 	C 	0.2568	0.0779	0.7719	-0.096
Mof_H 	H 	0.3001	0.0068	0.8063	0.084
Mof_C 	C 	0.1764	0.1385	0.7792	-0.019
Mof_H 	H 	0.1664	0.1083	0.8205	0.036
Mof_C 	C 	0.1091	0.2442	0.7266	-0.021
Mof_H 	H 	0.0544	0.2809	0.7329	0.038
Mof_C 	C 	0.121	0.2946	0.6668	-0.089
Mof_H 	H 	0.0767	0.3652	0.6322	0.079
Mof_C 	C 	0.2038	0.2344	0.6599	0.059
Mof_C 	C 	0.0854	0.7927	0.6427	0.056
Mof_H 	H 	0.1428	0.7277	0.6739	0.037
Mof_C 	C 	0.0858	0.8623	0.5813	-0.088
Mof_H 	H 	0.1419	0.8434	0.5715	0.077
Mof_C 	C 	0.0017	0.9613	0.5337	-0.018
Mof_C 	C 	0.9228	0.9849	0.5536	-0.072
Mof_H 	H 	0.8666	0.0511	0.5253	0.068
Mof_C 	C 	0.9279	0.9099	0.6155	0.08
Mof_H 	H 	0.8734	0.9272	0.627	0.008
Mof_N 	N 	0.6555	0.0922	0.8121	-0.154
Mof_N 	N 	0.7613	0.2628	0.8923	-0.123
Mof_N 	N 	0.9931	0.8137	0.8401	-0.146
Mof_O 	O 	0.1177	0.5244	0.8704	-0.268
Mof_O 	O 	0.1877	0.5894	0.8004	-0.268
Mof_O 	O 	0.3601	0.189	0.1147	-0.269
Mof_O 	O 	0.5493	0.1457	0.1683	-0.276
Mof_S 	S 	0.60603	0.1652	0.92215	0.009
Mof_C 	C 	0.5767	0.3252	0.9257	-0.234
Mof_H 	H 	0.6564	0.3671	0.9737	0.115
Mof_H 	H 	0.5378	0.3634	0.8655	0.109
Mof_C 	C 	0.4893	0.3372	0.9474	0.118
Mof_C 	C 	0.3872	0.4176	0.8949	-0.115
Mof_H 	H 	0.3737	0.4641	0.8474	0.09
Mof_C 	C 	0.3045	0.4294	0.9126	-0.014
Mof_C 	C 	0.3223	0.3567	0.9817	-0.056
Mof_H 	H 	0.2649	0.3615	0.9917	0.068
Mof_C 	C 	0.4256	0.2771	0.0357	-0.015
Mof_C 	C 	0.5101	0.2689	0.0193	-0.103
Mof_H 	H 	0.5807	0.2176	0.0566	0.089
Mof_C 	C 	0.1966	0.5195	0.8575	0.266
Mof_C 	C 	0.4458	0.1997	0.1105	0.287
Mof_C 	C 	0.6776	0.1748	0.8727	0.099
Mof_C 	C 	0.7301	0.1285	0.7899	0.068
Mof_C 	C 	0.7432	0.0779	0.7281	-0.096
Mof_H 	H 	0.6999	0.0068	0.6937	0.086
Mof_C 	C 	0.8236	0.1385	0.7208	-0.011
Mof_H 	H 	0.8336	0.1083	0.6795	0.04
Mof_C 	C 	0.8909	0.2442	0.7734	-0.02
Mof_H 	H 	0.9456	0.2809	0.7671	0.053
Mof_C 	C 	0.879	0.2946	0.8332	-0.084
Mof_H 	H 	0.9233	0.3652	0.8678	0.088
Mof_C 	C 	0.7962	0.2344	0.8401	0.064
Mof_C 	C 	0.9146	0.7927	0.8573	0.109
Mof_H 	H 	0.8572	0.7277	0.8261	0.023
Mof_C 	C 	0.9142	0.8623	0.9187	-0.168
Mof_H 	H 	0.8581	0.8434	0.9285	0.11
Mof_C 	C 	0.9983	0.9613	0.9663	0.138
Mof_C 	C 	0.0772	0.9849	0.9464	-0.191
Mof_H 	H 	0.1334	0.0511	0.9747	0.102
Mof_C 	C 	0.0721	0.9099	0.8845	0.085
Mof_H 	H 	0.1266	0.9272	0.873	-0.001
Mof_N 	N 	0.6555	0.9078	0.3121	-0.154
Mof_N 	N 	0.7613	0.7372	0.3923	-0.122
Mof_N 	N 	0.9931	0.1863	0.3401	-0.147
Mof_O 	O 	0.1177	0.4756	0.3704	-0.267
Mof_O 	O 	0.1877	0.4106	0.3004	-0.267
Mof_O 	O 	0.3601	0.811	0.6147	-0.271
Mof_O 	O 	0.5493	0.8543	0.6683	-0.276
Mof_S 	S 	0.60603	0.8348	0.42215	0.013
Mof_C 	C 	0.5767	0.6748	0.4257	-0.239
Mof_H 	H 	0.6564	0.6329	0.4737	0.118
Mof_H 	H 	0.5378	0.6366	0.3655	0.11
Mof_C 	C 	0.4893	0.6628	0.4474	0.126
Mof_C 	C 	0.3872	0.5824	0.3949	-0.117
Mof_H 	H 	0.3737	0.5359	0.3474	0.091
Mof_C 	C 	0.3045	0.5706	0.4126	-0.014
Mof_C 	C 	0.3223	0.6433	0.4817	-0.049
Mof_H 	H 	0.2649	0.6385	0.4917	0.068
Mof_C 	C 	0.4256	0.7229	0.5357	-0.019
Mof_C 	C 	0.5101	0.7311	0.5193	-0.111
Mof_H 	H 	0.5807	0.7824	0.5566	0.09
Mof_C 	C 	0.1966	0.4805	0.3575	0.267
Mof_C 	C 	0.4458	0.8003	0.6105	0.287
Mof_C 	C 	0.6776	0.8252	0.3727	0.099
Mof_C 	C 	0.7301	0.8715	0.2899	0.068
Mof_C 	C 	0.7432	0.9221	0.2281	-0.095
Mof_H 	H 	0.6999	0.9932	0.1937	0.086
Mof_C 	C 	0.8236	0.8615	0.2208	-0.011
Mof_H 	H 	0.8336	0.8917	0.1795	0.04
Mof_C 	C 	0.8909	0.7558	0.2734	-0.02
Mof_H 	H 	0.9456	0.7191	0.2671	0.053
Mof_C 	C 	0.879	0.7054	0.3332	-0.084
Mof_H 	H 	0.9233	0.6348	0.3678	0.088
Mof_C 	C 	0.7962	0.7656	0.3401	0.064
Mof_C 	C 	0.9146	0.2073	0.3573	0.113
Mof_H 	H 	0.8572	0.2723	0.3261	0.022
Mof_C 	C 	0.9142	0.1377	0.4187	-0.174
Mof_H 	H 	0.8581	0.1566	0.4285	0.114
Mof_C 	C 	0.9983	0.0387	0.4663	0.15
Mof_C 	C 	0.0772	0.0151	0.4464	-0.199
Mof_H 	H 	0.1334	0.9489	0.4747	0.108
Mof_C 	C 	0.0721	0.0901	0.3845	0.09
Mof_H 	H 	0.1266	0.0728	0.373	-0.002
Mof_N 	N 	0.3445	0.9078	0.1879	-0.154
Mof_N 	N 	0.2387	0.7372	0.1077	-0.125
Mof_N 	N 	0.0069	0.1863	0.1599	-0.159
Mof_O 	O 	0.8823	0.4756	0.1296	-0.247
Mof_O 	O 	0.8123	0.4106	0.1996	-0.258
Mof_O 	O 	0.6399	0.811	0.8853	-0.27
Mof_O 	O 	0.4507	0.8543	0.8317	-0.277
Mof_S 	S 	0.39397	0.8348	0.07785	0.015
Mof_C 	C 	0.4233	0.6748	0.0743	-0.243
Mof_H 	H 	0.3436	0.6329	0.0263	0.12
Mof_H 	H 	0.4622	0.6366	0.1345	0.111
Mof_C 	C 	0.5107	0.6628	0.0526	0.134
Mof_C 	C 	0.6128	0.5824	0.1051	-0.122
Mof_H 	H 	0.6263	0.5359	0.1526	0.093
Mof_C 	C 	0.6955	0.5706	0.0874	-0.009
Mof_C 	C 	0.6777	0.6433	0.0183	-0.046
Mof_H 	H 	0.7351	0.6385	0.0083	0.072
Mof_C 	C 	0.5744	0.7229	0.9643	-0.021
Mof_C 	C 	0.4899	0.7311	0.9807	-0.119
Mof_H 	H 	0.4193	0.7824	0.9434	0.091
Mof_C 	C 	0.8034	0.4805	0.1425	0.264
Mof_C 	C 	0.5542	0.8003	0.8895	0.287
Mof_C 	C 	0.3224	0.8252	0.1273	0.099
Mof_C 	C 	0.2699	0.8715	0.2101	0.067
Mof_C 	C 	0.2568	0.9221	0.2719	-0.095
Mof_H 	H 	0.3001	0.9932	0.3063	0.084
Mof_C 	C 	0.1764	0.8615	0.2792	-0.019
Mof_H 	H 	0.1664	0.8917	0.3205	0.037
Mof_C 	C 	0.1091	0.7558	0.2266	-0.02
Mof_H 	H 	0.0544	0.7191	0.2329	0.038
Mof_C 	C 	0.121	0.7054	0.1668	-0.09
Mof_H 	H 	0.0767	0.6348	0.1322	0.08
Mof_C 	C 	0.2038	0.7656	0.1599	0.06
Mof_C 	C 	0.0854	0.2073	0.1427	0.06
Mof_H 	H 	0.1428	0.2723	0.1739	0.036
Mof_C 	C 	0.0858	0.1377	0.0813	-0.094
Mof_H 	H 	0.1419	0.1566	0.0715	0.08
Mof_C 	C 	0.0017	0.0387	0.0337	-0.007
Mof_C 	C 	0.9228	0.0151	0.0536	-0.076
Mof_H 	H 	0.8666	0.9489	0.0253	0.07
Mof_C 	C 	0.9279	0.0901	0.1155	0.083
Mof_H 	H 	0.8734	0.0728	0.127	0.008
Mof_Cd	Cd	1.06575e-16	0.67664	0.75	0.415
Mof_Cd	Cd	-2.66437e-17	0.32336	0.25	0.416
Mof_Cd	Cd	0.5	0.94745	0.75	0.441
Mof_Cd	Cd	0.5	0.05255	0.25	0.441
_end
