data_functionalizedCrystal
_audit_creation_method	'EQeq! by Chris Wilmer'
_symmetry_space_group_name_H-M	'P1'
_symmetry_Int_Tables_number	1
_symmetry_cell_setting	triclinic
loop_
_symmetry_equiv_pos_as_xyz
  x,y,z
_cell_length_a	18.007
_cell_length_b	18.007
_cell_length_c	19.288
_cell_angle_alpha	90
_cell_angle_beta	90
_cell_angle_gamma	120
loop_
_atom_site_label
_atom_site_type_symbol
_atom_site_fract_x
_atom_site_fract_y
_atom_site_fract_z
_atom_site_charge
Mof_K 	K 	0.66667	0.33334	0.25	9.198
Mof_K 	K 	0.33333	0.66666	0.75	9.198
Mof_Cd	Cd	0.79277	0.58554	0.25	0.334
Mof_Cd	Cd	0.79277	0.20724	0.25	0.334
Mof_Cd	Cd	0.41447	0.20724	0.25	0.335
Mof_Cd	Cd	0.20723	0.41446	0.75	0.335
Mof_Cd	Cd	0.20723	0.79276	0.75	0.335
Mof_Cd	Cd	0.58553	0.79276	0.75	0.335
Mof_H 	H 	0.9289	0.5916	0.4623	-0.088
Mof_H 	H 	0.8739	0.4044	0.5988	-0.078
Mof_H 	H 	0.7774	0.3062	0.5216	0.185
Mof_H 	H 	0.7597	0.3494	0.4135	-0.289
Mof_H 	H 	0.0598	0.5963	0.7378	-0.101
Mof_H 	H 	0.9607	0.4952	0.6674	0.144
Mof_H 	H 	0.0241	0.6749	0.5263	0.149
Mof_H 	H 	0.1241	0.7703	0.6001	-0.038
Mof_H 	H 	0.6627	0.0711	0.4623	-0.088
Mof_H 	H 	0.5305	0.1261	0.5988	-0.078
Mof_H 	H 	0.5288	0.2226	0.5216	0.185
Mof_H 	H 	0.5897	0.2403	0.4135	-0.289
Mof_H 	H 	0.5365	0.9402	0.7378	-0.101
Mof_H 	H 	0.5345	0.0393	0.6674	0.144
Mof_H 	H 	0.6508	0.9759	0.5263	0.149
Mof_H 	H 	0.6462	0.8759	0.6001	-0.038
Mof_H 	H 	0.4084	0.3373	0.4623	-0.088
Mof_H 	H 	0.5956	0.4695	0.5988	-0.079
Mof_H 	H 	0.6938	0.4712	0.5216	0.185
Mof_H 	H 	0.6506	0.4103	0.4135	-0.289
Mof_H 	H 	0.4037	0.4635	0.7378	-0.101
Mof_H 	H 	0.5048	0.4655	0.6674	0.144
Mof_H 	H 	0.3251	0.3492	0.5263	0.149
Mof_H 	H 	0.2297	0.3538	0.6001	-0.038
Mof_H 	H 	0.6627	0.5916	0.0377	-0.087
Mof_H 	H 	0.5305	0.4044	0.9012	-0.078
Mof_H 	H 	0.5288	0.3062	0.9784	0.184
Mof_H 	H 	0.5897	0.3494	0.0865	-0.288
Mof_H 	H 	0.5365	0.5963	0.7622	-0.101
Mof_H 	H 	0.5345	0.4952	0.8326	0.144
Mof_H 	H 	0.6508	0.6749	0.9737	0.148
Mof_H 	H 	0.6462	0.7703	0.8999	-0.038
Mof_H 	H 	0.4084	0.0711	0.0377	-0.086
Mof_H 	H 	0.5956	0.1261	0.9012	-0.076
Mof_H 	H 	0.6938	0.2226	0.9784	0.183
Mof_H 	H 	0.6506	0.2403	0.0865	-0.287
Mof_H 	H 	0.4037	0.9402	0.7622	-0.1
Mof_H 	H 	0.5048	0.0393	0.8326	0.143
Mof_H 	H 	0.3251	0.9759	0.9737	0.148
Mof_H 	H 	0.2297	0.8759	0.8999	-0.038
Mof_H 	H 	0.9289	0.3373	0.0377	-0.086
Mof_H 	H 	0.8739	0.4695	0.9012	-0.076
Mof_H 	H 	0.7774	0.4712	0.9784	0.182
Mof_H 	H 	0.7597	0.4103	0.0865	-0.286
Mof_H 	H 	0.0598	0.4635	0.7622	-0.1
Mof_H 	H 	0.9607	0.4655	0.8326	0.143
Mof_H 	H 	0.0241	0.3492	0.9737	0.148
Mof_H 	H 	0.1241	0.3538	0.8999	-0.038
Mof_H 	H 	0.0711	0.4084	0.5377	-0.088
Mof_H 	H 	0.1261	0.5956	0.4012	-0.078
Mof_H 	H 	0.2226	0.6938	0.4784	0.185
Mof_H 	H 	0.2403	0.6506	0.5865	-0.289
Mof_H 	H 	0.9402	0.4037	0.2622	-0.101
Mof_H 	H 	0.0393	0.5048	0.3326	0.144
Mof_H 	H 	0.9759	0.3251	0.4737	0.149
Mof_H 	H 	0.8759	0.2297	0.3999	-0.038
Mof_H 	H 	0.3373	0.9289	0.5377	-0.088
Mof_H 	H 	0.4695	0.8739	0.4012	-0.078
Mof_H 	H 	0.4712	0.7774	0.4784	0.185
Mof_H 	H 	0.4103	0.7597	0.5865	-0.289
Mof_H 	H 	0.4635	0.0598	0.2622	-0.101
Mof_H 	H 	0.4655	0.9607	0.3326	0.144
Mof_H 	H 	0.3492	0.0241	0.4737	0.149
Mof_H 	H 	0.3538	0.1241	0.3999	-0.038
Mof_H 	H 	0.5916	0.6627	0.5377	-0.088
Mof_H 	H 	0.4044	0.5305	0.4012	-0.079
Mof_H 	H 	0.3062	0.5288	0.4784	0.185
Mof_H 	H 	0.3494	0.5897	0.5865	-0.289
Mof_H 	H 	0.5963	0.5365	0.2622	-0.101
Mof_H 	H 	0.4952	0.5345	0.3326	0.144
Mof_H 	H 	0.6749	0.6508	0.4737	0.149
Mof_H 	H 	0.7703	0.6462	0.3999	-0.038
Mof_H 	H 	0.3373	0.4084	0.9623	-0.087
Mof_H 	H 	0.4695	0.5956	0.0988	-0.078
Mof_H 	H 	0.4712	0.6938	0.0216	0.184
Mof_H 	H 	0.4103	0.6506	0.9135	-0.288
Mof_H 	H 	0.4635	0.4037	0.2378	-0.101
Mof_H 	H 	0.4655	0.5048	0.1674	0.144
Mof_H 	H 	0.3492	0.3251	0.0263	0.148
Mof_H 	H 	0.3538	0.2297	0.1001	-0.038
Mof_H 	H 	0.5916	0.9289	0.9623	-0.086
Mof_H 	H 	0.4044	0.8739	0.0988	-0.076
Mof_H 	H 	0.3062	0.7774	0.0216	0.183
Mof_H 	H 	0.3494	0.7597	0.9135	-0.287
Mof_H 	H 	0.5963	0.0598	0.2378	-0.1
Mof_H 	H 	0.4952	0.9607	0.1674	0.143
Mof_H 	H 	0.6749	0.0241	0.0263	0.148
Mof_H 	H 	0.7703	0.1241	0.1001	-0.038
Mof_H 	H 	0.0711	0.6627	0.9623	-0.086
Mof_H 	H 	0.1261	0.5305	0.0988	-0.076
Mof_H 	H 	0.2226	0.5288	0.0216	0.182
Mof_H 	H 	0.2403	0.5897	0.9135	-0.286
Mof_H 	H 	0.9402	0.5365	0.2378	-0.1
Mof_H 	H 	0.0393	0.5345	0.1674	0.143
Mof_H 	H 	0.9759	0.6508	0.0263	0.148
Mof_H 	H 	0.8759	0.6462	0.1001	-0.038
Mof_C 	C 	0.8406	0.4748	0.428	-0.584
Mof_C 	C 	0.8986	0.5339	0.4746	0.342
Mof_C 	C 	0.9124	0.5089	0.5392	-0.321
Mof_C 	C 	0.8661	0.4228	0.5558	0.295
Mof_C 	C 	0.8086	0.3639	0.5094	-0.477
Mof_C 	C 	0.7971	0.3897	0.4452	0.512
Mof_C 	C 	0.8256	0.5054	0.3592	0.978
Mof_C 	C 	0.0527	0.6133	0.6939	0.227
Mof_C 	C 	0.9919	0.5517	0.652	-0.344
Mof_C 	C 	0.9768	0.5729	0.5875	0.295
Mof_C 	C 	0.0293	0.6563	0.5701	-0.329
Mof_C 	C 	0.0898	0.7141	0.6149	0.196
Mof_C 	C 	0.6342	0.1594	0.428	-0.584
Mof_C 	C 	0.6353	0.1014	0.4746	0.342
Mof_C 	C 	0.5965	0.0876	0.5392	-0.321
Mof_C 	C 	0.5567	0.1339	0.5558	0.295
Mof_C 	C 	0.5553	0.1914	0.5094	-0.476
Mof_C 	C 	0.5926	0.2029	0.4452	0.512
Mof_C 	C 	0.6798	0.1744	0.3592	0.978
Mof_C 	C 	0.5606	0.9473	0.6939	0.228
Mof_C 	C 	0.5598	0.0081	0.652	-0.344
Mof_C 	C 	0.5961	0.0232	0.5875	0.294
Mof_C 	C 	0.627	0.9707	0.5701	-0.328
Mof_C 	C 	0.6243	0.9102	0.6149	0.196
Mof_C 	C 	0.5252	0.3658	0.428	-0.584
Mof_C 	C 	0.4661	0.3647	0.4746	0.342
Mof_C 	C 	0.4911	0.4035	0.5392	-0.321
Mof_C 	C 	0.5772	0.4433	0.5558	0.295
Mof_C 	C 	0.6361	0.4447	0.5094	-0.477
Mof_C 	C 	0.6103	0.4074	0.4452	0.512
Mof_C 	C 	0.4946	0.3202	0.3592	0.978
Mof_C 	C 	0.3867	0.4394	0.6939	0.229
Mof_C 	C 	0.4483	0.4402	0.652	-0.345
Mof_C 	C 	0.4271	0.4039	0.5875	0.295
Mof_C 	C 	0.3437	0.373	0.5701	-0.328
Mof_C 	C 	0.2859	0.3757	0.6149	0.196
Mof_C 	C 	0.6342	0.4748	0.072	-0.582
Mof_C 	C 	0.6353	0.5339	0.0254	0.34
Mof_C 	C 	0.5965	0.5089	0.9608	-0.319
Mof_C 	C 	0.5567	0.4228	0.9442	0.292
Mof_C 	C 	0.5553	0.3639	0.9906	-0.473
Mof_C 	C 	0.5926	0.3897	0.0548	0.508
Mof_C 	C 	0.6798	0.5054	0.1408	0.978
Mof_C 	C 	0.5606	0.6133	0.8061	0.229
Mof_C 	C 	0.5598	0.5517	0.848	-0.344
Mof_C 	C 	0.5961	0.5729	0.9125	0.293
Mof_C 	C 	0.627	0.6563	0.9299	-0.327
Mof_C 	C 	0.6243	0.7141	0.8851	0.196
Mof_C 	C 	0.5252	0.1594	0.072	-0.579
Mof_C 	C 	0.4661	0.1014	0.0254	0.335
Mof_C 	C 	0.4911	0.0876	0.9608	-0.315
Mof_C 	C 	0.5772	0.1339	0.9442	0.288
Mof_C 	C 	0.6361	0.1914	0.9906	-0.468
Mof_C 	C 	0.6103	0.2029	0.0548	0.503
Mof_C 	C 	0.4946	0.1744	0.1408	0.976
Mof_C 	C 	0.3867	0.9473	0.8061	0.225
Mof_C 	C 	0.4483	0.0081	0.848	-0.341
Mof_C 	C 	0.4271	0.0232	0.9125	0.294
Mof_C 	C 	0.3437	0.9707	0.9299	-0.33
Mof_C 	C 	0.2859	0.9102	0.8851	0.196
Mof_C 	C 	0.8406	0.3658	0.072	-0.579
Mof_C 	C 	0.8986	0.3647	0.0254	0.334
Mof_C 	C 	0.9124	0.4035	0.9608	-0.314
Mof_C 	C 	0.8661	0.4433	0.9442	0.288
Mof_C 	C 	0.8086	0.4447	0.9906	-0.467
Mof_C 	C 	0.7971	0.4074	0.0548	0.503
Mof_C 	C 	0.8256	0.3202	0.1408	0.976
Mof_C 	C 	0.0527	0.4394	0.8061	0.226
Mof_C 	C 	0.9919	0.4402	0.848	-0.341
Mof_C 	C 	0.9768	0.4039	0.9125	0.293
Mof_C 	C 	0.0293	0.373	0.9299	-0.329
Mof_C 	C 	0.0898	0.3757	0.8851	0.196
Mof_C 	C 	0.1594	0.5252	0.572	-0.584
Mof_C 	C 	0.1014	0.4661	0.5254	0.342
Mof_C 	C 	0.0876	0.4911	0.4608	-0.321
Mof_C 	C 	0.1339	0.5772	0.4442	0.295
Mof_C 	C 	0.1914	0.6361	0.4906	-0.477
Mof_C 	C 	0.2029	0.6103	0.5548	0.512
Mof_C 	C 	0.1744	0.4946	0.6408	0.978
Mof_C 	C 	0.9473	0.3867	0.3061	0.227
Mof_C 	C 	0.0081	0.4483	0.348	-0.344
Mof_C 	C 	0.0232	0.4271	0.4125	0.295
Mof_C 	C 	0.9707	0.3437	0.4299	-0.329
Mof_C 	C 	0.9102	0.2859	0.3851	0.196
Mof_C 	C 	0.3658	0.8406	0.572	-0.584
Mof_C 	C 	0.3647	0.8986	0.5254	0.342
Mof_C 	C 	0.4035	0.9124	0.4608	-0.321
Mof_C 	C 	0.4433	0.8661	0.4442	0.295
Mof_C 	C 	0.4447	0.8086	0.4906	-0.476
Mof_C 	C 	0.4074	0.7971	0.5548	0.512
Mof_C 	C 	0.3202	0.8256	0.6408	0.978
Mof_C 	C 	0.4394	0.0527	0.3061	0.228
Mof_C 	C 	0.4402	0.9919	0.348	-0.344
Mof_C 	C 	0.4039	0.9768	0.4125	0.294
Mof_C 	C 	0.373	0.0293	0.4299	-0.328
Mof_C 	C 	0.3757	0.0898	0.3851	0.196
Mof_C 	C 	0.4748	0.6342	0.572	-0.584
Mof_C 	C 	0.5339	0.6353	0.5254	0.342
Mof_C 	C 	0.5089	0.5965	0.4608	-0.321
Mof_C 	C 	0.4228	0.5567	0.4442	0.295
Mof_C 	C 	0.3639	0.5553	0.4906	-0.477
Mof_C 	C 	0.3897	0.5926	0.5548	0.512
Mof_C 	C 	0.5054	0.6798	0.6408	0.978
Mof_C 	C 	0.6133	0.5606	0.3061	0.229
Mof_C 	C 	0.5517	0.5598	0.348	-0.345
Mof_C 	C 	0.5729	0.5961	0.4125	0.295
Mof_C 	C 	0.6563	0.627	0.4299	-0.328
Mof_C 	C 	0.7141	0.6243	0.3851	0.196
Mof_C 	C 	0.3658	0.5252	0.928	-0.582
Mof_C 	C 	0.3647	0.4661	0.9746	0.34
Mof_C 	C 	0.4035	0.4911	0.0392	-0.319
Mof_C 	C 	0.4433	0.5772	0.0558	0.292
Mof_C 	C 	0.4447	0.6361	0.0094	-0.473
Mof_C 	C 	0.4074	0.6103	0.9452	0.508
Mof_C 	C 	0.3202	0.4946	0.8592	0.978
Mof_C 	C 	0.4394	0.3867	0.1939	0.229
Mof_C 	C 	0.4402	0.4483	0.152	-0.344
Mof_C 	C 	0.4039	0.4271	0.0875	0.293
Mof_C 	C 	0.373	0.3437	0.0701	-0.327
Mof_C 	C 	0.3757	0.2859	0.1149	0.196
Mof_C 	C 	0.4748	0.8406	0.928	-0.579
Mof_C 	C 	0.5339	0.8986	0.9746	0.335
Mof_C 	C 	0.5089	0.9124	0.0392	-0.315
Mof_C 	C 	0.4228	0.8661	0.0558	0.288
Mof_C 	C 	0.3639	0.8086	0.0094	-0.468
Mof_C 	C 	0.3897	0.7971	0.9452	0.503
Mof_C 	C 	0.5054	0.8256	0.8592	0.976
Mof_C 	C 	0.6133	0.0527	0.1939	0.225
Mof_C 	C 	0.5517	0.9919	0.152	-0.341
Mof_C 	C 	0.5729	0.9768	0.0875	0.294
Mof_C 	C 	0.6563	0.0293	0.0701	-0.33
Mof_C 	C 	0.7141	0.0898	0.1149	0.196
Mof_C 	C 	0.1594	0.6342	0.928	-0.579
Mof_C 	C 	0.1014	0.6353	0.9746	0.334
Mof_C 	C 	0.0876	0.5965	0.0392	-0.314
Mof_C 	C 	0.1339	0.5567	0.0558	0.288
Mof_C 	C 	0.1914	0.5553	0.0094	-0.467
Mof_C 	C 	0.2029	0.5926	0.9452	0.503
Mof_C 	C 	0.1744	0.6798	0.8592	0.976
Mof_C 	C 	0.9473	0.5606	0.1939	0.226
Mof_C 	C 	0.0081	0.5598	0.152	-0.341
Mof_C 	C 	0.0232	0.5961	0.0875	0.293
Mof_C 	C 	0.9707	0.627	0.0701	-0.329
Mof_C 	C 	0.9102	0.6243	0.1149	0.196
Mof_N 	N 	0.1016	0.6937	0.6778	-0.251
Mof_N 	N 	0.5921	0.8984	0.6778	-0.251
Mof_N 	N 	0.3063	0.4079	0.6778	-0.251
Mof_N 	N 	0.5921	0.6937	0.8222	-0.251
Mof_N 	N 	0.3063	0.8984	0.8222	-0.251
Mof_N 	N 	0.1016	0.4079	0.8222	-0.251
Mof_N 	N 	0.8984	0.3063	0.3222	-0.251
Mof_N 	N 	0.4079	0.1016	0.3222	-0.251
Mof_N 	N 	0.6937	0.5921	0.3222	-0.251
Mof_N 	N 	0.4079	0.3063	0.1778	-0.251
Mof_N 	N 	0.6937	0.1016	0.1778	-0.251
Mof_N 	N 	0.8984	0.5921	0.1778	-0.251
Mof_O 	O 	0.8668	0.584	0.34717	-0.491
Mof_O 	O 	0.7729	0.4527	0.31781	-1.633
Mof_O 	O 	0.7172	0.1332	0.34717	-0.492
Mof_O 	O 	0.6798	0.2271	0.31781	-1.632
Mof_O 	O 	0.416	0.2828	0.34717	-0.491
Mof_O 	O 	0.5473	0.3202	0.31781	-1.632
Mof_O 	O 	0.7172	0.584	0.15283	-0.491
Mof_O 	O 	0.6798	0.4527	0.18219	-1.632
Mof_O 	O 	0.416	0.1332	0.15283	-0.491
Mof_O 	O 	0.5473	0.2271	0.18219	-1.632
Mof_O 	O 	0.8668	0.2828	0.15283	-0.491
Mof_O 	O 	0.7729	0.3202	0.18219	-1.632
Mof_O 	O 	0.1332	0.416	0.65283	-0.491
Mof_O 	O 	0.2271	0.5473	0.68219	-1.633
Mof_O 	O 	0.2828	0.8668	0.65283	-0.492
Mof_O 	O 	0.3202	0.7729	0.68219	-1.632
Mof_O 	O 	0.584	0.7172	0.65283	-0.491
Mof_O 	O 	0.4527	0.6798	0.68219	-1.632
Mof_O 	O 	0.2828	0.416	0.84717	-0.491
Mof_O 	O 	0.3202	0.5473	0.81781	-1.632
Mof_O 	O 	0.584	0.8668	0.84717	-0.491
Mof_O 	O 	0.4527	0.7729	0.81781	-1.632
Mof_O 	O 	0.1332	0.7172	0.84717	-0.491
Mof_O 	O 	0.2271	0.6798	0.81781	-1.632
_end
