data_functionalizedCrystal
_audit_creation_method	'EQeq! by Chris Wilmer'
_symmetry_space_group_name_H-M	'P1'
_symmetry_Int_Tables_number	1
_symmetry_cell_setting	triclinic
loop_
_symmetry_equiv_pos_as_xyz
  x,y,z
_cell_length_a	26.923
_cell_length_b	26.923
_cell_length_c	39.422
_cell_angle_alpha	90
_cell_angle_beta	90
_cell_angle_gamma	90
loop_
_atom_site_label
_atom_site_type_symbol
_atom_site_fract_x
_atom_site_fract_y
_atom_site_fract_z
_atom_site_charge
Mof_Cu	Cu	0.75259	0.12802	0.30256	0.939
Mof_Cu	Cu	0.81573	0.09441	0.3497	0.91
Mof_O 	O 	0.83941	0.34784	0.46413	-0.406
Mof_O 	O 	0.86262	0.26849	0.4644	-0.405
Mof_O 	O 	0.80505	0.15763	0.37356	-0.404
Mof_O 	O 	0.75593	0.1868	0.33266	-0.445
Mof_O 	O 	0.65035	0.31502	0.2181	-0.467
Mof_O 	O 	0.62711	0.36704	0.17701	-0.413
Mof_O 	O 	0.7374	0.56318	0.22089	-0.366
Mof_O 	O 	0.68234	0.53863	0.18193	-0.409
Mof_O 	O 	0.93651	0.37513	0.53492	-0.411
Mof_O 	O 	0.96042	0.29577	0.53603	-0.402
Mof_O 	O 	0.09541	0.29825	0.66846	-0.367
Mof_O 	O 	0.06673	0.24345	0.63004	-0.404
Mof_O 	O 	0.70018	0.15615	0.2675	-0.744
Mof_N 	N 	0.7643	0.4204	0.35924	-0.09
Mof_N 	N 	0.7477	0.4477	0.33113	-0.088
Mof_N 	N 	0.7403	0.36848	0.31755	-0.219
Mof_H 	H 	0.7338	0.3409	0.3064	0.085
Mof_N 	N 	0.0058	0.4758	0.66568	-0.082
Mof_C 	C 	0.8398	0.3049	0.45186	0.372
Mof_C 	C 	0.8116	0.2965	0.41969	-0.111
Mof_C 	C 	0.8061	0.2497	0.40623	0.065
Mof_H 	H 	0.818	0.2218	0.4185	0.042
Mof_C 	C 	0.7836	0.2424	0.37518	-0.127
Mof_C 	C 	0.7806	0.1913	0.35928	0.38
Mof_C 	C 	0.7672	0.2821	0.35695	0.046
Mof_H 	H 	0.7518	0.277	0.3355	-0.013
Mof_C 	C 	0.7949	0.338	0.40165	0.03
Mof_H 	H 	0.7984	0.3704	0.4109	0.051
Mof_C 	C 	0.7729	0.331	0.36979	-0.065
Mof_C 	C 	0.758	0.3733	0.34883	0.142
Mof_C 	C 	0.7346	0.4147	0.3072	0.137
Mof_C 	C 	0.7143	0.4287	0.27284	-0.057
Mof_C 	C 	0.6917	0.3904	0.25518	0.035
Mof_H 	H 	0.6899	0.3582	0.265	-0.007
Mof_C 	C 	0.6718	0.39861	0.22344	-0.13
Mof_C 	C 	0.6475	0.35675	0.20468	0.387
Mof_C 	C 	0.6767	0.4455	0.20915	0.054
Mof_H 	H 	0.6628	0.4519	0.1874	0.044
Mof_C 	C 	0.7015	0.4831	0.22604	-0.098
Mof_C 	C 	0.7204	0.4749	0.25814	0.021
Mof_H 	H 	0.7373	0.5006	0.2699	0.054
Mof_C 	C 	0.7081	0.53233	0.20787	0.359
Mof_C 	C 	0.9596	0.3396	0.54689	0.368
Mof_C 	C 	0.9911	0.3517	0.5781	-0.089
Mof_C 	C 	0.0172	0.3143	0.59456	0.033
Mof_H 	H 	0.018	0.2815	0.5857	0.053
Mof_C 	C 	0.9885	0.3983	0.59064	0.007
Mof_H 	H 	0.9705	0.4232	0.5787	0.047
Mof_C 	C 	0.0121	0.4099	0.62094	-0.038
Mof_C 	C 	0.0396	0.3728	0.6382	0.006
Mof_H 	H 	0.0559	0.3802	0.659	0.064
Mof_C 	C 	0.0423	0.3261	0.62456	-0.081
Mof_C 	C 	0.071	0.2863	0.64279	0.348
Mof_C 	C 	0.0065	0.4607	0.63346	0.142
Mof_H 	H 	0.7239	0.2576	0.2669	0.673
Mof_H 	H 	0.734	0.2475	0.2275	0.69
Mof_H 	H 	0.7643	0.2172	0.2556	0.692
Mof_Cu	Cu	0.24741	0.87198	0.30256	0.938
Mof_Cu	Cu	0.18427	0.90559	0.3497	0.909
Mof_O 	O 	0.16059	0.65216	0.46413	-0.407
Mof_O 	O 	0.13738	0.73151	0.4644	-0.406
Mof_O 	O 	0.19495	0.84237	0.37356	-0.405
Mof_O 	O 	0.24407	0.8132	0.33266	-0.446
Mof_O 	O 	0.34965	0.68498	0.2181	-0.468
Mof_O 	O 	0.37289	0.63296	0.17701	-0.414
Mof_O 	O 	0.2626	0.43682	0.22089	-0.367
Mof_O 	O 	0.31766	0.46137	0.18193	-0.41
Mof_O 	O 	0.06349	0.62487	0.53492	-0.412
Mof_O 	O 	0.03958	0.70423	0.53603	-0.402
Mof_O 	O 	0.90459	0.70175	0.66846	-0.368
Mof_O 	O 	0.93327	0.75655	0.63004	-0.405
Mof_O 	O 	0.29982	0.84385	0.2675	-0.745
Mof_N 	N 	0.2357	0.5796	0.35924	-0.091
Mof_N 	N 	0.2523	0.5523	0.33113	-0.089
Mof_N 	N 	0.2597	0.63152	0.31755	-0.22
Mof_H 	H 	0.2662	0.6591	0.3064	0.084
Mof_N 	N 	0.9942	0.5242	0.66568	-0.085
Mof_C 	C 	0.1602	0.6951	0.45186	0.371
Mof_C 	C 	0.1884	0.7035	0.41969	-0.112
Mof_C 	C 	0.1939	0.7503	0.40623	0.064
Mof_H 	H 	0.182	0.7782	0.4185	0.041
Mof_C 	C 	0.2164	0.7576	0.37518	-0.128
Mof_C 	C 	0.2194	0.8087	0.35928	0.379
Mof_C 	C 	0.2328	0.7179	0.35695	0.045
Mof_H 	H 	0.2482	0.723	0.3355	-0.014
Mof_C 	C 	0.2051	0.662	0.40165	0.029
Mof_H 	H 	0.2016	0.6296	0.4109	0.05
Mof_C 	C 	0.2271	0.669	0.36979	-0.066
Mof_C 	C 	0.242	0.6267	0.34883	0.141
Mof_C 	C 	0.2654	0.5853	0.3072	0.136
Mof_C 	C 	0.2857	0.5713	0.27284	-0.058
Mof_C 	C 	0.3083	0.6096	0.25518	0.035
Mof_H 	H 	0.3101	0.6418	0.265	-0.007
Mof_C 	C 	0.3282	0.60139	0.22344	-0.13
Mof_C 	C 	0.3525	0.64325	0.20468	0.387
Mof_C 	C 	0.3233	0.5545	0.20915	0.054
Mof_H 	H 	0.3372	0.5481	0.1874	0.044
Mof_C 	C 	0.2985	0.5169	0.22604	-0.098
Mof_C 	C 	0.2796	0.5251	0.25814	0.021
Mof_H 	H 	0.2627	0.4994	0.2699	0.054
Mof_C 	C 	0.2919	0.46767	0.20787	0.359
Mof_C 	C 	0.0404	0.6604	0.54689	0.367
Mof_C 	C 	0.0089	0.6483	0.5781	-0.085
Mof_C 	C 	0.9828	0.6857	0.59456	0.028
Mof_H 	H 	0.982	0.7185	0.5857	0.053
Mof_C 	C 	0.0115	0.6017	0.59064	0.011
Mof_H 	H 	0.0295	0.5768	0.5787	0.047
Mof_C 	C 	0.9879	0.5901	0.62094	-0.042
Mof_C 	C 	0.9604	0.6272	0.6382	0.006
Mof_H 	H 	0.9441	0.6198	0.659	0.064
Mof_C 	C 	0.9577	0.6739	0.62456	-0.08
Mof_C 	C 	0.929	0.7137	0.64279	0.348
Mof_C 	C 	0.9935	0.5393	0.63346	0.141
Mof_H 	H 	0.2761	0.7424	0.2669	0.673
Mof_H 	H 	0.266	0.7525	0.2275	0.69
Mof_H 	H 	0.2357	0.7828	0.2556	0.692
Mof_Cu	Cu	0.87198	0.75259	0.30256	0.938
Mof_Cu	Cu	0.90559	0.81573	0.3497	0.909
Mof_O 	O 	0.65216	0.83941	0.46413	-0.407
Mof_O 	O 	0.73151	0.86262	0.4644	-0.406
Mof_O 	O 	0.84237	0.80505	0.37356	-0.405
Mof_O 	O 	0.8132	0.75593	0.33266	-0.446
Mof_O 	O 	0.68498	0.65035	0.2181	-0.468
Mof_O 	O 	0.63296	0.62711	0.17701	-0.414
Mof_O 	O 	0.43682	0.7374	0.22089	-0.367
Mof_O 	O 	0.46137	0.68234	0.18193	-0.41
Mof_O 	O 	0.62487	0.93651	0.53492	-0.412
Mof_O 	O 	0.70423	0.96042	0.53603	-0.403
Mof_O 	O 	0.70175	0.09541	0.66846	-0.368
Mof_O 	O 	0.75655	0.06673	0.63004	-0.405
Mof_O 	O 	0.84385	0.70018	0.2675	-0.745
Mof_N 	N 	0.5796	0.7643	0.35924	-0.091
Mof_N 	N 	0.5523	0.7477	0.33113	-0.089
Mof_N 	N 	0.63152	0.7403	0.31755	-0.22
Mof_H 	H 	0.6591	0.7338	0.3064	0.084
Mof_N 	N 	0.5242	0.0058	0.66568	-0.083
Mof_C 	C 	0.6951	0.8398	0.45186	0.371
Mof_C 	C 	0.7035	0.8116	0.41969	-0.112
Mof_C 	C 	0.7503	0.8061	0.40623	0.064
Mof_H 	H 	0.7782	0.818	0.4185	0.041
Mof_C 	C 	0.7576	0.7836	0.37518	-0.128
Mof_C 	C 	0.8087	0.7806	0.35928	0.379
Mof_C 	C 	0.7179	0.7672	0.35695	0.045
Mof_H 	H 	0.723	0.7518	0.3355	-0.014
Mof_C 	C 	0.662	0.7949	0.40165	0.029
Mof_H 	H 	0.6296	0.7984	0.4109	0.05
Mof_C 	C 	0.669	0.7729	0.36979	-0.066
Mof_C 	C 	0.6267	0.758	0.34883	0.141
Mof_C 	C 	0.5853	0.7346	0.3072	0.136
Mof_C 	C 	0.5713	0.7143	0.27284	-0.058
Mof_C 	C 	0.6096	0.6917	0.25518	0.035
Mof_H 	H 	0.6418	0.6899	0.265	-0.007
Mof_C 	C 	0.60139	0.6718	0.22344	-0.13
Mof_C 	C 	0.64325	0.6475	0.20468	0.387
Mof_C 	C 	0.5545	0.6767	0.20915	0.054
Mof_H 	H 	0.5481	0.6628	0.1874	0.044
Mof_C 	C 	0.5169	0.7015	0.22604	-0.098
Mof_C 	C 	0.5251	0.7204	0.25814	0.021
Mof_H 	H 	0.4994	0.7373	0.2699	0.054
Mof_C 	C 	0.46767	0.7081	0.20787	0.359
Mof_C 	C 	0.6604	0.9596	0.54689	0.368
Mof_C 	C 	0.6483	0.9911	0.5781	-0.089
Mof_C 	C 	0.6857	0.0172	0.59456	0.033
Mof_H 	H 	0.7185	0.018	0.5857	0.052
Mof_C 	C 	0.6017	0.9885	0.59064	0.007
Mof_H 	H 	0.5768	0.9705	0.5787	0.047
Mof_C 	C 	0.5901	0.0121	0.62094	-0.038
Mof_C 	C 	0.6272	0.0396	0.6382	0.006
Mof_H 	H 	0.6198	0.0559	0.659	0.064
Mof_C 	C 	0.6739	0.0423	0.62456	-0.081
Mof_C 	C 	0.7137	0.071	0.64279	0.348
Mof_C 	C 	0.5393	0.0065	0.63346	0.142
Mof_H 	H 	0.7424	0.7239	0.2669	0.673
Mof_H 	H 	0.7525	0.734	0.2275	0.69
Mof_H 	H 	0.7828	0.7643	0.2556	0.692
Mof_Cu	Cu	0.12802	0.24741	0.30256	0.938
Mof_Cu	Cu	0.09441	0.18427	0.3497	0.91
Mof_O 	O 	0.34784	0.16059	0.46413	-0.407
Mof_O 	O 	0.26849	0.13738	0.4644	-0.406
Mof_O 	O 	0.15763	0.19495	0.37356	-0.405
Mof_O 	O 	0.1868	0.24407	0.33266	-0.446
Mof_O 	O 	0.31502	0.34965	0.2181	-0.468
Mof_O 	O 	0.36704	0.37289	0.17701	-0.414
Mof_O 	O 	0.56318	0.2626	0.22089	-0.367
Mof_O 	O 	0.53863	0.31766	0.18193	-0.41
Mof_O 	O 	0.37513	0.06349	0.53492	-0.412
Mof_O 	O 	0.29577	0.03958	0.53603	-0.402
Mof_O 	O 	0.29825	0.90459	0.66846	-0.368
Mof_O 	O 	0.24345	0.93327	0.63004	-0.405
Mof_O 	O 	0.15615	0.29982	0.2675	-0.745
Mof_N 	N 	0.4204	0.2357	0.35924	-0.091
Mof_N 	N 	0.4477	0.2523	0.33113	-0.089
Mof_N 	N 	0.36848	0.2597	0.31755	-0.22
Mof_H 	H 	0.3409	0.2662	0.3064	0.084
Mof_N 	N 	0.4758	0.9942	0.66568	-0.085
Mof_C 	C 	0.3049	0.1602	0.45186	0.371
Mof_C 	C 	0.2965	0.1884	0.41969	-0.112
Mof_C 	C 	0.2497	0.1939	0.40623	0.064
Mof_H 	H 	0.2218	0.182	0.4185	0.042
Mof_C 	C 	0.2424	0.2164	0.37518	-0.127
Mof_C 	C 	0.1913	0.2194	0.35928	0.378
Mof_C 	C 	0.2821	0.2328	0.35695	0.045
Mof_H 	H 	0.277	0.2482	0.3355	-0.013
Mof_C 	C 	0.338	0.2051	0.40165	0.028
Mof_H 	H 	0.3704	0.2016	0.4109	0.05
Mof_C 	C 	0.331	0.2271	0.36979	-0.066
Mof_C 	C 	0.3733	0.242	0.34883	0.141
Mof_C 	C 	0.4147	0.2654	0.3072	0.136
Mof_C 	C 	0.4287	0.2857	0.27284	-0.058
Mof_C 	C 	0.3904	0.3083	0.25518	0.035
Mof_H 	H 	0.3582	0.3101	0.265	-0.007
Mof_C 	C 	0.39861	0.3282	0.22344	-0.13
Mof_C 	C 	0.35675	0.3525	0.20468	0.387
Mof_C 	C 	0.4455	0.3233	0.20915	0.054
Mof_H 	H 	0.4519	0.3372	0.1874	0.044
Mof_C 	C 	0.4831	0.2985	0.22604	-0.098
Mof_C 	C 	0.4749	0.2796	0.25814	0.021
Mof_H 	H 	0.5006	0.2627	0.2699	0.054
Mof_C 	C 	0.53233	0.2919	0.20787	0.359
Mof_C 	C 	0.3396	0.0404	0.54689	0.367
Mof_C 	C 	0.3517	0.0089	0.5781	-0.085
Mof_C 	C 	0.3143	0.9828	0.59456	0.028
Mof_H 	H 	0.2815	0.982	0.5857	0.053
Mof_C 	C 	0.3983	0.0115	0.59064	0.011
Mof_H 	H 	0.4232	0.0295	0.5787	0.047
Mof_C 	C 	0.4099	0.9879	0.62094	-0.042
Mof_C 	C 	0.3728	0.9604	0.6382	0.006
Mof_H 	H 	0.3802	0.9441	0.659	0.064
Mof_C 	C 	0.3261	0.9577	0.62456	-0.08
Mof_C 	C 	0.2863	0.929	0.64279	0.348
Mof_C 	C 	0.4607	0.9935	0.63346	0.141
Mof_H 	H 	0.2576	0.2761	0.2669	0.673
Mof_H 	H 	0.2475	0.266	0.2275	0.69
Mof_H 	H 	0.2172	0.2357	0.2556	0.692
Mof_Cu	Cu	0.74741	0.62802	0.19744	0.938
Mof_Cu	Cu	0.68427	0.59441	0.1503	0.909
Mof_O 	O 	0.66059	0.84784	0.03587	-0.41
Mof_O 	O 	0.63738	0.76849	0.0356	-0.409
Mof_O 	O 	0.69495	0.65763	0.12644	-0.406
Mof_O 	O 	0.74407	0.6868	0.16734	-0.447
Mof_O 	O 	0.84965	0.81502	0.2819	-0.468
Mof_O 	O 	0.87289	0.86704	0.32299	-0.414
Mof_O 	O 	0.7626	0.06318	0.27911	-0.367
Mof_O 	O 	0.81766	0.03863	0.31807	-0.41
Mof_O 	O 	0.56349	0.87513	0.96508	-0.406
Mof_O 	O 	0.53958	0.79577	0.96397	-0.397
Mof_O 	O 	0.40459	0.79825	0.83154	-0.368
Mof_O 	O 	0.43327	0.74345	0.86996	-0.404
Mof_O 	O 	0.79982	0.65615	0.2325	-0.745
Mof_N 	N 	0.7357	0.9204	0.14076	-0.092
Mof_N 	N 	0.7523	0.9477	0.16887	-0.09
Mof_N 	N 	0.7597	0.86848	0.18245	-0.22
Mof_H 	H 	0.7662	0.8409	0.1936	0.084
Mof_N 	N 	0.4942	0.9758	0.83432	-0.085
Mof_C 	C 	0.6602	0.8049	0.04814	0.372
Mof_C 	C 	0.6884	0.7965	0.08031	-0.114
Mof_C 	C 	0.6939	0.7497	0.09377	0.065
Mof_H 	H 	0.682	0.7218	0.0815	0.04
Mof_C 	C 	0.7164	0.7424	0.12482	-0.129
Mof_C 	C 	0.7194	0.6913	0.14072	0.379
Mof_C 	C 	0.7328	0.7821	0.14305	0.046
Mof_H 	H 	0.7482	0.777	0.1645	-0.014
Mof_C 	C 	0.7051	0.838	0.09835	0.029
Mof_H 	H 	0.7016	0.8704	0.0891	0.049
Mof_C 	C 	0.7271	0.831	0.13021	-0.067
Mof_C 	C 	0.742	0.8733	0.15117	0.141
Mof_C 	C 	0.7654	0.9147	0.1928	0.135
Mof_C 	C 	0.7857	0.9287	0.22716	-0.057
Mof_C 	C 	0.8083	0.8904	0.24482	0.034
Mof_H 	H 	0.8101	0.8582	0.235	-0.007
Mof_C 	C 	0.8282	0.89861	0.27656	-0.13
Mof_C 	C 	0.8525	0.85675	0.29532	0.387
Mof_C 	C 	0.8233	0.9455	0.29085	0.054
Mof_H 	H 	0.8372	0.9519	0.3126	0.044
Mof_C 	C 	0.7985	0.9831	0.27396	-0.099
Mof_C 	C 	0.7796	0.9749	0.24186	0.017
Mof_H 	H 	0.7627	0.0006	0.2301	0.056
Mof_C 	C 	0.7919	0.03233	0.29213	0.361
Mof_C 	C 	0.5404	0.8396	0.95311	0.366
Mof_C 	C 	0.5089	0.8517	0.9219	-0.085
Mof_C 	C 	0.4828	0.8143	0.90544	0.029
Mof_H 	H 	0.482	0.7815	0.9143	0.054
Mof_C 	C 	0.5115	0.8983	0.90936	0.008
Mof_H 	H 	0.5295	0.9232	0.9213	0.048
Mof_C 	C 	0.4879	0.9099	0.87906	-0.039
Mof_C 	C 	0.4604	0.8728	0.8618	0.005
Mof_H 	H 	0.4441	0.8802	0.841	0.064
Mof_C 	C 	0.4577	0.8261	0.87544	-0.079
Mof_C 	C 	0.429	0.7863	0.85721	0.348
Mof_C 	C 	0.4935	0.9607	0.86654	0.141
Mof_H 	H 	0.7761	0.7576	0.2331	0.673
Mof_H 	H 	0.766	0.7475	0.2725	0.69
Mof_H 	H 	0.7357	0.7172	0.2444	0.692
Mof_Cu	Cu	0.25259	0.37198	0.19744	0.938
Mof_Cu	Cu	0.31573	0.40559	0.1503	0.909
Mof_O 	O 	0.33941	0.15216	0.03587	-0.41
Mof_O 	O 	0.36262	0.23151	0.0356	-0.409
Mof_O 	O 	0.30505	0.34237	0.12644	-0.406
Mof_O 	O 	0.25593	0.3132	0.16734	-0.447
Mof_O 	O 	0.15035	0.18498	0.2819	-0.468
Mof_O 	O 	0.12711	0.13296	0.32299	-0.413
Mof_O 	O 	0.2374	0.93682	0.27911	-0.367
Mof_O 	O 	0.18234	0.96137	0.31807	-0.41
Mof_O 	O 	0.43651	0.12487	0.96508	-0.406
Mof_O 	O 	0.46042	0.20423	0.96397	-0.397
Mof_O 	O 	0.59541	0.20175	0.83154	-0.367
Mof_O 	O 	0.56673	0.25655	0.86996	-0.404
Mof_O 	O 	0.20018	0.34385	0.2325	-0.745
Mof_N 	N 	0.2643	0.0796	0.14076	-0.092
Mof_N 	N 	0.2477	0.0523	0.16887	-0.089
Mof_N 	N 	0.2403	0.13152	0.18245	-0.22
Mof_H 	H 	0.2338	0.1591	0.1936	0.084
Mof_N 	N 	0.5058	0.0242	0.83432	-0.083
Mof_C 	C 	0.3398	0.1951	0.04814	0.372
Mof_C 	C 	0.3116	0.2035	0.08031	-0.114
Mof_C 	C 	0.3061	0.2503	0.09377	0.065
Mof_H 	H 	0.318	0.2782	0.0815	0.04
Mof_C 	C 	0.2836	0.2576	0.12482	-0.129
Mof_C 	C 	0.2806	0.3087	0.14072	0.379
Mof_C 	C 	0.2672	0.2179	0.14305	0.046
Mof_H 	H 	0.2518	0.223	0.1645	-0.014
Mof_C 	C 	0.2949	0.162	0.09835	0.029
Mof_H 	H 	0.2984	0.1296	0.0891	0.049
Mof_C 	C 	0.2729	0.169	0.13021	-0.067
Mof_C 	C 	0.258	0.1267	0.15117	0.141
Mof_C 	C 	0.2346	0.0853	0.1928	0.137
Mof_C 	C 	0.2143	0.0713	0.22716	-0.06
Mof_C 	C 	0.1917	0.1096	0.24482	0.035
Mof_H 	H 	0.1899	0.1418	0.235	-0.007
Mof_C 	C 	0.1718	0.10139	0.27656	-0.13
Mof_C 	C 	0.1475	0.14325	0.29532	0.387
Mof_C 	C 	0.1767	0.0545	0.29085	0.054
Mof_H 	H 	0.1628	0.0481	0.3126	0.045
Mof_C 	C 	0.2015	0.0169	0.27396	-0.097
Mof_C 	C 	0.2204	0.0251	0.24186	0.025
Mof_H 	H 	0.2373	0.9994	0.2301	0.051
Mof_C 	C 	0.2081	0.96767	0.29213	0.358
Mof_C 	C 	0.4596	0.1604	0.95311	0.366
Mof_C 	C 	0.4911	0.1483	0.9219	-0.084
Mof_C 	C 	0.5172	0.1857	0.90544	0.029
Mof_H 	H 	0.518	0.2185	0.9143	0.054
Mof_C 	C 	0.4885	0.1017	0.90936	0.008
Mof_H 	H 	0.4705	0.0768	0.9213	0.049
Mof_C 	C 	0.5121	0.0901	0.87906	-0.039
Mof_C 	C 	0.5396	0.1272	0.8618	0.005
Mof_H 	H 	0.5559	0.1198	0.841	0.064
Mof_C 	C 	0.5423	0.1739	0.87544	-0.079
Mof_C 	C 	0.571	0.2137	0.85721	0.348
Mof_C 	C 	0.5065	0.0393	0.86654	0.143
Mof_H 	H 	0.2239	0.2424	0.2331	0.673
Mof_H 	H 	0.234	0.2525	0.2725	0.69
Mof_H 	H 	0.2643	0.2828	0.2444	0.692
Mof_Cu	Cu	0.62802	0.25259	0.19744	0.938
Mof_Cu	Cu	0.59441	0.31573	0.1503	0.909
Mof_O 	O 	0.84784	0.33941	0.03587	-0.41
Mof_O 	O 	0.76849	0.36262	0.0356	-0.409
Mof_O 	O 	0.65763	0.30505	0.12644	-0.406
Mof_O 	O 	0.6868	0.25593	0.16734	-0.447
Mof_O 	O 	0.81502	0.15035	0.2819	-0.468
Mof_O 	O 	0.86704	0.12711	0.32299	-0.414
Mof_O 	O 	0.06318	0.2374	0.27911	-0.367
Mof_O 	O 	0.03863	0.18234	0.31807	-0.41
Mof_O 	O 	0.87513	0.43651	0.96508	-0.406
Mof_O 	O 	0.79577	0.46042	0.96397	-0.397
Mof_O 	O 	0.79825	0.59541	0.83154	-0.368
Mof_O 	O 	0.74345	0.56673	0.86996	-0.404
Mof_O 	O 	0.65615	0.20018	0.2325	-0.745
Mof_N 	N 	0.9204	0.2643	0.14076	-0.092
Mof_N 	N 	0.9477	0.2477	0.16887	-0.09
Mof_N 	N 	0.86848	0.2403	0.18245	-0.22
Mof_H 	H 	0.8409	0.2338	0.1936	0.084
Mof_N 	N 	0.9758	0.5058	0.83432	-0.085
Mof_C 	C 	0.8049	0.3398	0.04814	0.372
Mof_C 	C 	0.7965	0.3116	0.08031	-0.114
Mof_C 	C 	0.7497	0.3061	0.09377	0.065
Mof_H 	H 	0.7218	0.318	0.0815	0.04
Mof_C 	C 	0.7424	0.2836	0.12482	-0.129
Mof_C 	C 	0.6913	0.2806	0.14072	0.379
Mof_C 	C 	0.7821	0.2672	0.14305	0.046
Mof_H 	H 	0.777	0.2518	0.1645	-0.014
Mof_C 	C 	0.838	0.2949	0.09835	0.029
Mof_H 	H 	0.8704	0.2984	0.0891	0.049
Mof_C 	C 	0.831	0.2729	0.13021	-0.067
Mof_C 	C 	0.8733	0.258	0.15117	0.141
Mof_C 	C 	0.9147	0.2346	0.1928	0.135
Mof_C 	C 	0.9287	0.2143	0.22716	-0.057
Mof_C 	C 	0.8904	0.1917	0.24482	0.034
Mof_H 	H 	0.8582	0.1899	0.235	-0.007
Mof_C 	C 	0.89861	0.1718	0.27656	-0.13
Mof_C 	C 	0.85675	0.1475	0.29532	0.387
Mof_C 	C 	0.9455	0.1767	0.29085	0.054
Mof_H 	H 	0.9519	0.1628	0.3126	0.044
Mof_C 	C 	0.9831	0.2015	0.27396	-0.098
Mof_C 	C 	0.9749	0.2204	0.24186	0.017
Mof_H 	H 	0.0006	0.2373	0.2301	0.057
Mof_C 	C 	0.03233	0.2081	0.29213	0.361
Mof_C 	C 	0.8396	0.4596	0.95311	0.366
Mof_C 	C 	0.8517	0.4911	0.9219	-0.085
Mof_C 	C 	0.8143	0.5172	0.90544	0.029
Mof_H 	H 	0.7815	0.518	0.9143	0.054
Mof_C 	C 	0.8983	0.4885	0.90936	0.008
Mof_H 	H 	0.9232	0.4705	0.9213	0.048
Mof_C 	C 	0.9099	0.5121	0.87906	-0.039
Mof_C 	C 	0.8728	0.5396	0.8618	0.005
Mof_H 	H 	0.8802	0.5559	0.841	0.064
Mof_C 	C 	0.8261	0.5423	0.87544	-0.079
Mof_C 	C 	0.7863	0.571	0.85721	0.348
Mof_C 	C 	0.9607	0.5065	0.86654	0.141
Mof_H 	H 	0.7576	0.2239	0.2331	0.673
Mof_H 	H 	0.7475	0.234	0.2725	0.69
Mof_H 	H 	0.7172	0.2643	0.2444	0.692
Mof_Cu	Cu	0.37198	0.74741	0.19744	0.938
Mof_Cu	Cu	0.40559	0.68427	0.1503	0.909
Mof_O 	O 	0.15216	0.66059	0.03587	-0.41
Mof_O 	O 	0.23151	0.63738	0.0356	-0.409
Mof_O 	O 	0.34237	0.69495	0.12644	-0.406
Mof_O 	O 	0.3132	0.74407	0.16734	-0.447
Mof_O 	O 	0.18498	0.84965	0.2819	-0.468
Mof_O 	O 	0.13296	0.87289	0.32299	-0.414
Mof_O 	O 	0.93682	0.7626	0.27911	-0.367
Mof_O 	O 	0.96137	0.81766	0.31807	-0.411
Mof_O 	O 	0.12487	0.56349	0.96508	-0.406
Mof_O 	O 	0.20423	0.53958	0.96397	-0.397
Mof_O 	O 	0.20175	0.40459	0.83154	-0.367
Mof_O 	O 	0.25655	0.43327	0.86996	-0.404
Mof_O 	O 	0.34385	0.79982	0.2325	-0.745
Mof_N 	N 	0.0796	0.7357	0.14076	-0.092
Mof_N 	N 	0.0523	0.7523	0.16887	-0.09
Mof_N 	N 	0.13152	0.7597	0.18245	-0.22
Mof_H 	H 	0.1591	0.7662	0.1936	0.084
Mof_N 	N 	0.0242	0.4942	0.83432	-0.083
Mof_C 	C 	0.1951	0.6602	0.04814	0.372
Mof_C 	C 	0.2035	0.6884	0.08031	-0.114
Mof_C 	C 	0.2503	0.6939	0.09377	0.065
Mof_H 	H 	0.2782	0.682	0.0815	0.04
Mof_C 	C 	0.2576	0.7164	0.12482	-0.129
Mof_C 	C 	0.3087	0.7194	0.14072	0.379
Mof_C 	C 	0.2179	0.7328	0.14305	0.046
Mof_H 	H 	0.223	0.7482	0.1645	-0.014
Mof_C 	C 	0.162	0.7051	0.09835	0.029
Mof_H 	H 	0.1296	0.7016	0.0891	0.049
Mof_C 	C 	0.169	0.7271	0.13021	-0.067
Mof_C 	C 	0.1267	0.742	0.15117	0.141
Mof_C 	C 	0.0853	0.7654	0.1928	0.137
Mof_C 	C 	0.0713	0.7857	0.22716	-0.06
Mof_C 	C 	0.1096	0.8083	0.24482	0.035
Mof_H 	H 	0.1418	0.8101	0.235	-0.007
Mof_C 	C 	0.10139	0.8282	0.27656	-0.13
Mof_C 	C 	0.14325	0.8525	0.29532	0.387
Mof_C 	C 	0.0545	0.8233	0.29085	0.054
Mof_H 	H 	0.0481	0.8372	0.3126	0.045
Mof_C 	C 	0.0169	0.7985	0.27396	-0.097
Mof_C 	C 	0.0251	0.7796	0.24186	0.025
Mof_H 	H 	0.9994	0.7627	0.2301	0.051
Mof_C 	C 	0.96767	0.7919	0.29213	0.358
Mof_C 	C 	0.1604	0.5404	0.95311	0.366
Mof_C 	C 	0.1483	0.5089	0.9219	-0.084
Mof_C 	C 	0.1857	0.4828	0.90544	0.029
Mof_H 	H 	0.2185	0.482	0.9143	0.054
Mof_C 	C 	0.1017	0.5115	0.90936	0.008
Mof_H 	H 	0.0768	0.5295	0.9213	0.049
Mof_C 	C 	0.0901	0.4879	0.87906	-0.039
Mof_C 	C 	0.1272	0.4604	0.8618	0.005
Mof_H 	H 	0.1198	0.4441	0.841	0.064
Mof_C 	C 	0.1739	0.4577	0.87544	-0.079
Mof_C 	C 	0.2137	0.429	0.85721	0.348
Mof_C 	C 	0.0393	0.4935	0.86654	0.143
Mof_H 	H 	0.2424	0.7761	0.2331	0.673
Mof_H 	H 	0.2525	0.766	0.2725	0.69
Mof_H 	H 	0.2828	0.7357	0.2444	0.692
Mof_Cu	Cu	0.24741	0.87198	0.69744	0.938
Mof_Cu	Cu	0.18427	0.90559	0.6503	0.909
Mof_O 	O 	0.16059	0.65216	0.53587	-0.407
Mof_O 	O 	0.13738	0.73151	0.5356	-0.406
Mof_O 	O 	0.19495	0.84237	0.62644	-0.405
Mof_O 	O 	0.24407	0.8132	0.66734	-0.446
Mof_O 	O 	0.34965	0.68498	0.7819	-0.468
Mof_O 	O 	0.37289	0.63296	0.82299	-0.413
Mof_O 	O 	0.2626	0.43682	0.77911	-0.367
Mof_O 	O 	0.31766	0.46137	0.81807	-0.41
Mof_O 	O 	0.06349	0.62487	0.46508	-0.412
Mof_O 	O 	0.03958	0.70423	0.46397	-0.402
Mof_O 	O 	0.90459	0.70175	0.33154	-0.368
Mof_O 	O 	0.93327	0.75655	0.36996	-0.405
Mof_O 	O 	0.29982	0.84385	0.7325	-0.745
Mof_N 	N 	0.2357	0.5796	0.64076	-0.091
Mof_N 	N 	0.2523	0.5523	0.66887	-0.089
Mof_N 	N 	0.2597	0.63152	0.68245	-0.22
Mof_H 	H 	0.2662	0.6591	0.6936	0.084
Mof_N 	N 	0.9942	0.5242	0.33432	-0.085
Mof_C 	C 	0.1602	0.6951	0.54814	0.371
Mof_C 	C 	0.1884	0.7035	0.58031	-0.112
Mof_C 	C 	0.1939	0.7503	0.59377	0.064
Mof_H 	H 	0.182	0.7782	0.5815	0.041
Mof_C 	C 	0.2164	0.7576	0.62482	-0.128
Mof_C 	C 	0.2194	0.8087	0.64072	0.379
Mof_C 	C 	0.2328	0.7179	0.64305	0.045
Mof_H 	H 	0.2482	0.723	0.6645	-0.014
Mof_C 	C 	0.2051	0.662	0.59835	0.029
Mof_H 	H 	0.2016	0.6296	0.5891	0.05
Mof_C 	C 	0.2271	0.669	0.63021	-0.066
Mof_C 	C 	0.242	0.6267	0.65117	0.141
Mof_C 	C 	0.2654	0.5853	0.6928	0.136
Mof_C 	C 	0.2857	0.5713	0.72716	-0.058
Mof_C 	C 	0.3083	0.6096	0.74482	0.034
Mof_H 	H 	0.3101	0.6418	0.735	-0.007
Mof_C 	C 	0.3282	0.60139	0.77656	-0.13
Mof_C 	C 	0.3525	0.64325	0.79532	0.387
Mof_C 	C 	0.3233	0.5545	0.79085	0.054
Mof_H 	H 	0.3372	0.5481	0.8126	0.045
Mof_C 	C 	0.2985	0.5169	0.77396	-0.097
Mof_C 	C 	0.2796	0.5251	0.74186	0.021
Mof_H 	H 	0.2627	0.4994	0.7301	0.054
Mof_C 	C 	0.2919	0.46767	0.79213	0.359
Mof_C 	C 	0.0404	0.6604	0.45311	0.367
Mof_C 	C 	0.0089	0.6483	0.4219	-0.085
Mof_C 	C 	0.9828	0.6857	0.40544	0.028
Mof_H 	H 	0.982	0.7185	0.4143	0.053
Mof_C 	C 	0.0115	0.6017	0.40936	0.011
Mof_H 	H 	0.0295	0.5768	0.4213	0.047
Mof_C 	C 	0.9879	0.5901	0.37906	-0.042
Mof_C 	C 	0.9604	0.6272	0.3618	0.006
Mof_H 	H 	0.9441	0.6198	0.341	0.064
Mof_C 	C 	0.9577	0.6739	0.37544	-0.08
Mof_C 	C 	0.929	0.7137	0.35721	0.348
Mof_C 	C 	0.9935	0.5393	0.36654	0.141
Mof_H 	H 	0.2761	0.7424	0.7331	0.673
Mof_H 	H 	0.266	0.7525	0.7725	0.69
Mof_H 	H 	0.2357	0.7828	0.7444	0.692
Mof_Cu	Cu	0.75259	0.12802	0.69744	0.938
Mof_Cu	Cu	0.81573	0.09441	0.6503	0.909
Mof_O 	O 	0.83941	0.34784	0.53587	-0.407
Mof_O 	O 	0.86262	0.26849	0.5356	-0.406
Mof_O 	O 	0.80505	0.15763	0.62644	-0.405
Mof_O 	O 	0.75593	0.1868	0.66734	-0.446
Mof_O 	O 	0.65035	0.31502	0.7819	-0.468
Mof_O 	O 	0.62711	0.36704	0.82299	-0.413
Mof_O 	O 	0.7374	0.56318	0.77911	-0.367
Mof_O 	O 	0.68234	0.53863	0.81807	-0.41
Mof_O 	O 	0.93651	0.37513	0.46508	-0.412
Mof_O 	O 	0.96042	0.29577	0.46397	-0.403
Mof_O 	O 	0.09541	0.29825	0.33154	-0.368
Mof_O 	O 	0.06673	0.24345	0.36996	-0.405
Mof_O 	O 	0.70018	0.15615	0.7325	-0.745
Mof_N 	N 	0.7643	0.4204	0.64076	-0.091
Mof_N 	N 	0.7477	0.4477	0.66887	-0.089
Mof_N 	N 	0.7403	0.36848	0.68245	-0.22
Mof_H 	H 	0.7338	0.3409	0.6936	0.084
Mof_N 	N 	0.0058	0.4758	0.33432	-0.083
Mof_C 	C 	0.8398	0.3049	0.54814	0.371
Mof_C 	C 	0.8116	0.2965	0.58031	-0.112
Mof_C 	C 	0.8061	0.2497	0.59377	0.064
Mof_H 	H 	0.818	0.2218	0.5815	0.041
Mof_C 	C 	0.7836	0.2424	0.62482	-0.128
Mof_C 	C 	0.7806	0.1913	0.64072	0.378
Mof_C 	C 	0.7672	0.2821	0.64305	0.045
Mof_H 	H 	0.7518	0.277	0.6645	-0.014
Mof_C 	C 	0.7949	0.338	0.59835	0.028
Mof_H 	H 	0.7984	0.3704	0.5891	0.05
Mof_C 	C 	0.7729	0.331	0.63021	-0.066
Mof_C 	C 	0.758	0.3733	0.65117	0.141
Mof_C 	C 	0.7346	0.4147	0.6928	0.136
Mof_C 	C 	0.7143	0.4287	0.72716	-0.058
Mof_C 	C 	0.6917	0.3904	0.74482	0.034
Mof_H 	H 	0.6899	0.3582	0.735	-0.007
Mof_C 	C 	0.6718	0.39861	0.77656	-0.13
Mof_C 	C 	0.6475	0.35675	0.79532	0.387
Mof_C 	C 	0.6767	0.4455	0.79085	0.054
Mof_H 	H 	0.6628	0.4519	0.8126	0.045
Mof_C 	C 	0.7015	0.4831	0.77396	-0.097
Mof_C 	C 	0.7204	0.4749	0.74186	0.021
Mof_H 	H 	0.7373	0.5006	0.7301	0.054
Mof_C 	C 	0.7081	0.53233	0.79213	0.359
Mof_C 	C 	0.9596	0.3396	0.45311	0.368
Mof_C 	C 	0.9911	0.3517	0.4219	-0.089
Mof_C 	C 	0.0172	0.3143	0.40544	0.033
Mof_H 	H 	0.018	0.2815	0.4143	0.053
Mof_C 	C 	0.9885	0.3983	0.40936	0.007
Mof_H 	H 	0.9705	0.4232	0.4213	0.047
Mof_C 	C 	0.0121	0.4099	0.37906	-0.038
Mof_C 	C 	0.0396	0.3728	0.3618	0.006
Mof_H 	H 	0.0559	0.3802	0.341	0.064
Mof_C 	C 	0.0423	0.3261	0.37544	-0.081
Mof_C 	C 	0.071	0.2863	0.35721	0.348
Mof_C 	C 	0.0065	0.4607	0.36654	0.142
Mof_H 	H 	0.7239	0.2576	0.7331	0.673
Mof_H 	H 	0.734	0.2475	0.7725	0.69
Mof_H 	H 	0.7643	0.2172	0.7444	0.692
Mof_Cu	Cu	0.12802	0.24741	0.69744	0.938
Mof_Cu	Cu	0.09441	0.18427	0.6503	0.91
Mof_O 	O 	0.34784	0.16059	0.53587	-0.407
Mof_O 	O 	0.26849	0.13738	0.5356	-0.406
Mof_O 	O 	0.15763	0.19495	0.62644	-0.405
Mof_O 	O 	0.1868	0.24407	0.66734	-0.446
Mof_O 	O 	0.31502	0.34965	0.7819	-0.468
Mof_O 	O 	0.36704	0.37289	0.82299	-0.413
Mof_O 	O 	0.56318	0.2626	0.77911	-0.367
Mof_O 	O 	0.53863	0.31766	0.81807	-0.41
Mof_O 	O 	0.37513	0.06349	0.46508	-0.412
Mof_O 	O 	0.29577	0.03958	0.46397	-0.402
Mof_O 	O 	0.29825	0.90459	0.33154	-0.368
Mof_O 	O 	0.24345	0.93327	0.36996	-0.405
Mof_O 	O 	0.15615	0.29982	0.7325	-0.745
Mof_N 	N 	0.4204	0.2357	0.64076	-0.091
Mof_N 	N 	0.4477	0.2523	0.66887	-0.089
Mof_N 	N 	0.36848	0.2597	0.68245	-0.22
Mof_H 	H 	0.3409	0.2662	0.6936	0.084
Mof_N 	N 	0.4758	0.9942	0.33432	-0.085
Mof_C 	C 	0.3049	0.1602	0.54814	0.371
Mof_C 	C 	0.2965	0.1884	0.58031	-0.112
Mof_C 	C 	0.2497	0.1939	0.59377	0.064
Mof_H 	H 	0.2218	0.182	0.5815	0.042
Mof_C 	C 	0.2424	0.2164	0.62482	-0.127
Mof_C 	C 	0.1913	0.2194	0.64072	0.378
Mof_C 	C 	0.2821	0.2328	0.64305	0.045
Mof_H 	H 	0.277	0.2482	0.6645	-0.014
Mof_C 	C 	0.338	0.2051	0.59835	0.028
Mof_H 	H 	0.3704	0.2016	0.5891	0.05
Mof_C 	C 	0.331	0.2271	0.63021	-0.066
Mof_C 	C 	0.3733	0.242	0.65117	0.141
Mof_C 	C 	0.4147	0.2654	0.6928	0.136
Mof_C 	C 	0.4287	0.2857	0.72716	-0.058
Mof_C 	C 	0.3904	0.3083	0.74482	0.034
Mof_H 	H 	0.3582	0.3101	0.735	-0.007
Mof_C 	C 	0.39861	0.3282	0.77656	-0.13
Mof_C 	C 	0.35675	0.3525	0.79532	0.387
Mof_C 	C 	0.4455	0.3233	0.79085	0.054
Mof_H 	H 	0.4519	0.3372	0.8126	0.045
Mof_C 	C 	0.4831	0.2985	0.77396	-0.097
Mof_C 	C 	0.4749	0.2796	0.74186	0.021
Mof_H 	H 	0.5006	0.2627	0.7301	0.054
Mof_C 	C 	0.53233	0.2919	0.79213	0.359
Mof_C 	C 	0.3396	0.0404	0.45311	0.367
Mof_C 	C 	0.3517	0.0089	0.4219	-0.085
Mof_C 	C 	0.3143	0.9828	0.40544	0.028
Mof_H 	H 	0.2815	0.982	0.4143	0.053
Mof_C 	C 	0.3983	0.0115	0.40936	0.011
Mof_H 	H 	0.4232	0.0295	0.4213	0.047
Mof_C 	C 	0.4099	0.9879	0.37906	-0.042
Mof_C 	C 	0.3728	0.9604	0.3618	0.006
Mof_H 	H 	0.3802	0.9441	0.341	0.064
Mof_C 	C 	0.3261	0.9577	0.37544	-0.08
Mof_C 	C 	0.2863	0.929	0.35721	0.348
Mof_C 	C 	0.4607	0.9935	0.36654	0.141
Mof_H 	H 	0.2576	0.2761	0.7331	0.673
Mof_H 	H 	0.2475	0.266	0.7725	0.69
Mof_H 	H 	0.2172	0.2357	0.7444	0.692
Mof_Cu	Cu	0.87198	0.75259	0.69744	0.938
Mof_Cu	Cu	0.90559	0.81573	0.6503	0.909
Mof_O 	O 	0.65216	0.83941	0.53587	-0.407
Mof_O 	O 	0.73151	0.86262	0.5356	-0.406
Mof_O 	O 	0.84237	0.80505	0.62644	-0.405
Mof_O 	O 	0.8132	0.75593	0.66734	-0.446
Mof_O 	O 	0.68498	0.65035	0.7819	-0.468
Mof_O 	O 	0.63296	0.62711	0.82299	-0.413
Mof_O 	O 	0.43682	0.7374	0.77911	-0.367
Mof_O 	O 	0.46137	0.68234	0.81807	-0.41
Mof_O 	O 	0.62487	0.93651	0.46508	-0.412
Mof_O 	O 	0.70423	0.96042	0.46397	-0.403
Mof_O 	O 	0.70175	0.09541	0.33154	-0.368
Mof_O 	O 	0.75655	0.06673	0.36996	-0.405
Mof_O 	O 	0.84385	0.70018	0.7325	-0.745
Mof_N 	N 	0.5796	0.7643	0.64076	-0.091
Mof_N 	N 	0.5523	0.7477	0.66887	-0.089
Mof_N 	N 	0.63152	0.7403	0.68245	-0.22
Mof_H 	H 	0.6591	0.7338	0.6936	0.084
Mof_N 	N 	0.5242	0.0058	0.33432	-0.083
Mof_C 	C 	0.6951	0.8398	0.54814	0.371
Mof_C 	C 	0.7035	0.8116	0.58031	-0.112
Mof_C 	C 	0.7503	0.8061	0.59377	0.064
Mof_H 	H 	0.7782	0.818	0.5815	0.041
Mof_C 	C 	0.7576	0.7836	0.62482	-0.128
Mof_C 	C 	0.8087	0.7806	0.64072	0.379
Mof_C 	C 	0.7179	0.7672	0.64305	0.045
Mof_H 	H 	0.723	0.7518	0.6645	-0.014
Mof_C 	C 	0.662	0.7949	0.59835	0.029
Mof_H 	H 	0.6296	0.7984	0.5891	0.05
Mof_C 	C 	0.669	0.7729	0.63021	-0.066
Mof_C 	C 	0.6267	0.758	0.65117	0.141
Mof_C 	C 	0.5853	0.7346	0.6928	0.136
Mof_C 	C 	0.5713	0.7143	0.72716	-0.058
Mof_C 	C 	0.6096	0.6917	0.74482	0.034
Mof_H 	H 	0.6418	0.6899	0.735	-0.007
Mof_C 	C 	0.60139	0.6718	0.77656	-0.13
Mof_C 	C 	0.64325	0.6475	0.79532	0.387
Mof_C 	C 	0.5545	0.6767	0.79085	0.054
Mof_H 	H 	0.5481	0.6628	0.8126	0.045
Mof_C 	C 	0.5169	0.7015	0.77396	-0.097
Mof_C 	C 	0.5251	0.7204	0.74186	0.021
Mof_H 	H 	0.4994	0.7373	0.7301	0.054
Mof_C 	C 	0.46767	0.7081	0.79213	0.359
Mof_C 	C 	0.6604	0.9596	0.45311	0.368
Mof_C 	C 	0.6483	0.9911	0.4219	-0.089
Mof_C 	C 	0.6857	0.0172	0.40544	0.033
Mof_H 	H 	0.7185	0.018	0.4143	0.053
Mof_C 	C 	0.6017	0.9885	0.40936	0.007
Mof_H 	H 	0.5768	0.9705	0.4213	0.047
Mof_C 	C 	0.5901	0.0121	0.37906	-0.038
Mof_C 	C 	0.6272	0.0396	0.3618	0.006
Mof_H 	H 	0.6198	0.0559	0.341	0.064
Mof_C 	C 	0.6739	0.0423	0.37544	-0.081
Mof_C 	C 	0.7137	0.071	0.35721	0.348
Mof_C 	C 	0.5393	0.0065	0.36654	0.142
Mof_H 	H 	0.7424	0.7239	0.7331	0.673
Mof_H 	H 	0.7525	0.734	0.7725	0.69
Mof_H 	H 	0.7828	0.7643	0.7444	0.692
Mof_Cu	Cu	0.25259	0.37198	0.80256	0.938
Mof_Cu	Cu	0.31573	0.40559	0.8497	0.91
Mof_O 	O 	0.33941	0.15216	0.96413	-0.401
Mof_O 	O 	0.36262	0.23151	0.9644	-0.4
Mof_O 	O 	0.30505	0.34237	0.87356	-0.404
Mof_O 	O 	0.25593	0.3132	0.83266	-0.446
Mof_O 	O 	0.15035	0.18498	0.7181	-0.468
Mof_O 	O 	0.12711	0.13296	0.67701	-0.413
Mof_O 	O 	0.2374	0.93682	0.72089	-0.367
Mof_O 	O 	0.18234	0.96137	0.68193	-0.41
Mof_O 	O 	0.43651	0.12487	0.03492	-0.415
Mof_O 	O 	0.46042	0.20423	0.03603	-0.406
Mof_O 	O 	0.59541	0.20175	0.16846	-0.368
Mof_O 	O 	0.56673	0.25655	0.13004	-0.406
Mof_O 	O 	0.20018	0.34385	0.7675	-0.745
Mof_N 	N 	0.2643	0.0796	0.85924	-0.09
Mof_N 	N 	0.2477	0.0523	0.83113	-0.089
Mof_N 	N 	0.2403	0.13152	0.81755	-0.22
Mof_H 	H 	0.2338	0.1591	0.8064	0.084
Mof_N 	N 	0.5058	0.0242	0.16568	-0.083
Mof_C 	C 	0.3398	0.1951	0.95186	0.37
Mof_C 	C 	0.3116	0.2035	0.91969	-0.109
Mof_C 	C 	0.3061	0.2503	0.90623	0.063
Mof_H 	H 	0.318	0.2782	0.9185	0.043
Mof_C 	C 	0.2836	0.2576	0.87518	-0.126
Mof_C 	C 	0.2806	0.3087	0.85928	0.378
Mof_C 	C 	0.2672	0.2179	0.85695	0.045
Mof_H 	H 	0.2518	0.223	0.8355	-0.013
Mof_C 	C 	0.2949	0.162	0.90165	0.027
Mof_H 	H 	0.2984	0.1296	0.9109	0.052
Mof_C 	C 	0.2729	0.169	0.86979	-0.065
Mof_C 	C 	0.258	0.1267	0.84883	0.142
Mof_C 	C 	0.2346	0.0853	0.8072	0.137
Mof_C 	C 	0.2143	0.0713	0.77284	-0.059
Mof_C 	C 	0.1917	0.1096	0.75518	0.035
Mof_H 	H 	0.1899	0.1418	0.765	-0.007
Mof_C 	C 	0.1718	0.10139	0.72344	-0.13
Mof_C 	C 	0.1475	0.14325	0.70468	0.387
Mof_C 	C 	0.1767	0.0545	0.70915	0.054
Mof_H 	H 	0.1628	0.0481	0.6874	0.045
Mof_C 	C 	0.2015	0.0169	0.72604	-0.097
Mof_C 	C 	0.2204	0.0251	0.75814	0.025
Mof_H 	H 	0.2373	0.9994	0.7699	0.052
Mof_C 	C 	0.2081	0.96767	0.70787	0.358
Mof_C 	C 	0.4596	0.1604	0.04689	0.368
Mof_C 	C 	0.4911	0.1483	0.0781	-0.089
Mof_C 	C 	0.5172	0.1857	0.09456	0.031
Mof_H 	H 	0.518	0.2185	0.0857	0.052
Mof_C 	C 	0.4885	0.1017	0.09064	0.01
Mof_H 	H 	0.4705	0.0768	0.0787	0.046
Mof_C 	C 	0.5121	0.0901	0.12094	-0.041
Mof_C 	C 	0.5396	0.1272	0.1382	0.006
Mof_H 	H 	0.5559	0.1198	0.159	0.064
Mof_C 	C 	0.5423	0.1739	0.12456	-0.081
Mof_C 	C 	0.571	0.2137	0.14279	0.348
Mof_C 	C 	0.5065	0.0393	0.13346	0.142
Mof_H 	H 	0.2239	0.2424	0.7669	0.673
Mof_H 	H 	0.234	0.2525	0.7275	0.69
Mof_H 	H 	0.2643	0.2828	0.7556	0.692
Mof_Cu	Cu	0.74741	0.62802	0.80256	0.938
Mof_Cu	Cu	0.68427	0.59441	0.8497	0.91
Mof_O 	O 	0.66059	0.84784	0.96413	-0.401
Mof_O 	O 	0.63738	0.76849	0.9644	-0.4
Mof_O 	O 	0.69495	0.65763	0.87356	-0.404
Mof_O 	O 	0.74407	0.6868	0.83266	-0.446
Mof_O 	O 	0.84965	0.81502	0.7181	-0.468
Mof_O 	O 	0.87289	0.86704	0.67701	-0.414
Mof_O 	O 	0.7626	0.06318	0.72089	-0.367
Mof_O 	O 	0.81766	0.03863	0.68193	-0.41
Mof_O 	O 	0.56349	0.87513	0.03492	-0.416
Mof_O 	O 	0.53958	0.79577	0.03603	-0.406
Mof_O 	O 	0.40459	0.79825	0.16846	-0.368
Mof_O 	O 	0.43327	0.74345	0.13004	-0.406
Mof_O 	O 	0.79982	0.65615	0.7675	-0.745
Mof_N 	N 	0.7357	0.9204	0.85924	-0.091
Mof_N 	N 	0.7523	0.9477	0.83113	-0.089
Mof_N 	N 	0.7597	0.86848	0.81755	-0.22
Mof_H 	H 	0.7662	0.8409	0.8064	0.084
Mof_N 	N 	0.4942	0.9758	0.16568	-0.085
Mof_C 	C 	0.6602	0.8049	0.95186	0.37
Mof_C 	C 	0.6884	0.7965	0.91969	-0.109
Mof_C 	C 	0.6939	0.7497	0.90623	0.063
Mof_H 	H 	0.682	0.7218	0.9185	0.043
Mof_C 	C 	0.7164	0.7424	0.87518	-0.126
Mof_C 	C 	0.7194	0.6913	0.85928	0.378
Mof_C 	C 	0.7328	0.7821	0.85695	0.045
Mof_H 	H 	0.7482	0.777	0.8355	-0.013
Mof_C 	C 	0.7051	0.838	0.90165	0.028
Mof_H 	H 	0.7016	0.8704	0.9109	0.051
Mof_C 	C 	0.7271	0.831	0.86979	-0.065
Mof_C 	C 	0.742	0.8733	0.84883	0.141
Mof_C 	C 	0.7654	0.9147	0.8072	0.136
Mof_C 	C 	0.7857	0.9287	0.77284	-0.057
Mof_C 	C 	0.8083	0.8904	0.75518	0.034
Mof_H 	H 	0.8101	0.8582	0.765	-0.007
Mof_C 	C 	0.8282	0.89861	0.72344	-0.13
Mof_C 	C 	0.8525	0.85675	0.70468	0.387
Mof_C 	C 	0.8233	0.9455	0.70915	0.054
Mof_H 	H 	0.8372	0.9519	0.6874	0.044
Mof_C 	C 	0.7985	0.9831	0.72604	-0.098
Mof_C 	C 	0.7796	0.9749	0.75814	0.017
Mof_H 	H 	0.7627	0.0006	0.7699	0.057
Mof_C 	C 	0.7919	0.03233	0.70787	0.361
Mof_C 	C 	0.5404	0.8396	0.04689	0.368
Mof_C 	C 	0.5089	0.8517	0.0781	-0.089
Mof_C 	C 	0.4828	0.8143	0.09456	0.031
Mof_H 	H 	0.482	0.7815	0.0857	0.052
Mof_C 	C 	0.5115	0.8983	0.09064	0.01
Mof_H 	H 	0.5295	0.9232	0.0787	0.046
Mof_C 	C 	0.4879	0.9099	0.12094	-0.041
Mof_C 	C 	0.4604	0.8728	0.1382	0.006
Mof_H 	H 	0.4441	0.8802	0.159	0.064
Mof_C 	C 	0.4577	0.8261	0.12456	-0.081
Mof_C 	C 	0.429	0.7863	0.14279	0.348
Mof_C 	C 	0.4935	0.9607	0.13346	0.14
Mof_H 	H 	0.7761	0.7576	0.7669	0.673
Mof_H 	H 	0.766	0.7475	0.7275	0.69
Mof_H 	H 	0.7357	0.7172	0.7556	0.692
Mof_Cu	Cu	0.37198	0.74741	0.80256	0.938
Mof_Cu	Cu	0.40559	0.68427	0.8497	0.91
Mof_O 	O 	0.15216	0.66059	0.96413	-0.401
Mof_O 	O 	0.23151	0.63738	0.9644	-0.4
Mof_O 	O 	0.34237	0.69495	0.87356	-0.404
Mof_O 	O 	0.3132	0.74407	0.83266	-0.446
Mof_O 	O 	0.18498	0.84965	0.7181	-0.468
Mof_O 	O 	0.13296	0.87289	0.67701	-0.414
Mof_O 	O 	0.93682	0.7626	0.72089	-0.367
Mof_O 	O 	0.96137	0.81766	0.68193	-0.411
Mof_O 	O 	0.12487	0.56349	0.03492	-0.415
Mof_O 	O 	0.20423	0.53958	0.03603	-0.406
Mof_O 	O 	0.20175	0.40459	0.16846	-0.368
Mof_O 	O 	0.25655	0.43327	0.13004	-0.406
Mof_O 	O 	0.34385	0.79982	0.7675	-0.745
Mof_N 	N 	0.0796	0.7357	0.85924	-0.09
Mof_N 	N 	0.0523	0.7523	0.83113	-0.089
Mof_N 	N 	0.13152	0.7597	0.81755	-0.22
Mof_H 	H 	0.1591	0.7662	0.8064	0.084
Mof_N 	N 	0.0242	0.4942	0.16568	-0.083
Mof_C 	C 	0.1951	0.6602	0.95186	0.37
Mof_C 	C 	0.2035	0.6884	0.91969	-0.109
Mof_C 	C 	0.2503	0.6939	0.90623	0.063
Mof_H 	H 	0.2782	0.682	0.9185	0.043
Mof_C 	C 	0.2576	0.7164	0.87518	-0.126
Mof_C 	C 	0.3087	0.7194	0.85928	0.378
Mof_C 	C 	0.2179	0.7328	0.85695	0.045
Mof_H 	H 	0.223	0.7482	0.8355	-0.013
Mof_C 	C 	0.162	0.7051	0.90165	0.027
Mof_H 	H 	0.1296	0.7016	0.9109	0.051
Mof_C 	C 	0.169	0.7271	0.86979	-0.065
Mof_C 	C 	0.1267	0.742	0.84883	0.141
Mof_C 	C 	0.0853	0.7654	0.8072	0.137
Mof_C 	C 	0.0713	0.7857	0.77284	-0.059
Mof_C 	C 	0.1096	0.8083	0.75518	0.035
Mof_H 	H 	0.1418	0.8101	0.765	-0.007
Mof_C 	C 	0.10139	0.8282	0.72344	-0.13
Mof_C 	C 	0.14325	0.8525	0.70468	0.387
Mof_C 	C 	0.0545	0.8233	0.70915	0.054
Mof_H 	H 	0.0481	0.8372	0.6874	0.045
Mof_C 	C 	0.0169	0.7985	0.72604	-0.097
Mof_C 	C 	0.0251	0.7796	0.75814	0.025
Mof_H 	H 	0.9994	0.7627	0.7699	0.051
Mof_C 	C 	0.96767	0.7919	0.70787	0.358
Mof_C 	C 	0.1604	0.5404	0.04689	0.368
Mof_C 	C 	0.1483	0.5089	0.0781	-0.089
Mof_C 	C 	0.1857	0.4828	0.09456	0.031
Mof_H 	H 	0.2185	0.482	0.0857	0.052
Mof_C 	C 	0.1017	0.5115	0.09064	0.01
Mof_H 	H 	0.0768	0.5295	0.0787	0.046
Mof_C 	C 	0.0901	0.4879	0.12094	-0.041
Mof_C 	C 	0.1272	0.4604	0.1382	0.006
Mof_H 	H 	0.1198	0.4441	0.159	0.064
Mof_C 	C 	0.1739	0.4577	0.12456	-0.081
Mof_C 	C 	0.2137	0.429	0.14279	0.348
Mof_C 	C 	0.0393	0.4935	0.13346	0.142
Mof_H 	H 	0.2424	0.7761	0.7669	0.673
Mof_H 	H 	0.2525	0.766	0.7275	0.69
Mof_H 	H 	0.2828	0.7357	0.7556	0.692
Mof_Cu	Cu	0.62802	0.25259	0.80256	0.938
Mof_Cu	Cu	0.59441	0.31573	0.8497	0.91
Mof_O 	O 	0.84784	0.33941	0.96413	-0.401
Mof_O 	O 	0.76849	0.36262	0.9644	-0.4
Mof_O 	O 	0.65763	0.30505	0.87356	-0.404
Mof_O 	O 	0.6868	0.25593	0.83266	-0.446
Mof_O 	O 	0.81502	0.15035	0.7181	-0.468
Mof_O 	O 	0.86704	0.12711	0.67701	-0.414
Mof_O 	O 	0.06318	0.2374	0.72089	-0.367
Mof_O 	O 	0.03863	0.18234	0.68193	-0.41
Mof_O 	O 	0.87513	0.43651	0.03492	-0.416
Mof_O 	O 	0.79577	0.46042	0.03603	-0.406
Mof_O 	O 	0.79825	0.59541	0.16846	-0.368
Mof_O 	O 	0.74345	0.56673	0.13004	-0.406
Mof_O 	O 	0.65615	0.20018	0.7675	-0.745
Mof_N 	N 	0.9204	0.2643	0.85924	-0.091
Mof_N 	N 	0.9477	0.2477	0.83113	-0.089
Mof_N 	N 	0.86848	0.2403	0.81755	-0.22
Mof_H 	H 	0.8409	0.2338	0.8064	0.084
Mof_N 	N 	0.9758	0.5058	0.16568	-0.085
Mof_C 	C 	0.8049	0.3398	0.95186	0.37
Mof_C 	C 	0.7965	0.3116	0.91969	-0.109
Mof_C 	C 	0.7497	0.3061	0.90623	0.063
Mof_H 	H 	0.7218	0.318	0.9185	0.043
Mof_C 	C 	0.7424	0.2836	0.87518	-0.126
Mof_C 	C 	0.6913	0.2806	0.85928	0.378
Mof_C 	C 	0.7821	0.2672	0.85695	0.045
Mof_H 	H 	0.777	0.2518	0.8355	-0.013
Mof_C 	C 	0.838	0.2949	0.90165	0.028
Mof_H 	H 	0.8704	0.2984	0.9109	0.051
Mof_C 	C 	0.831	0.2729	0.86979	-0.065
Mof_C 	C 	0.8733	0.258	0.84883	0.141
Mof_C 	C 	0.9147	0.2346	0.8072	0.136
Mof_C 	C 	0.9287	0.2143	0.77284	-0.057
Mof_C 	C 	0.8904	0.1917	0.75518	0.034
Mof_H 	H 	0.8582	0.1899	0.765	-0.007
Mof_C 	C 	0.89861	0.1718	0.72344	-0.13
Mof_C 	C 	0.85675	0.1475	0.70468	0.387
Mof_C 	C 	0.9455	0.1767	0.70915	0.054
Mof_H 	H 	0.9519	0.1628	0.6874	0.044
Mof_C 	C 	0.9831	0.2015	0.72604	-0.098
Mof_C 	C 	0.9749	0.2204	0.75814	0.017
Mof_H 	H 	0.0006	0.2373	0.7699	0.057
Mof_C 	C 	0.03233	0.2081	0.70787	0.361
Mof_C 	C 	0.8396	0.4596	0.04689	0.368
Mof_C 	C 	0.8517	0.4911	0.0781	-0.089
Mof_C 	C 	0.8143	0.5172	0.09456	0.031
Mof_H 	H 	0.7815	0.518	0.0857	0.052
Mof_C 	C 	0.8983	0.4885	0.09064	0.01
Mof_H 	H 	0.9232	0.4705	0.0787	0.046
Mof_C 	C 	0.9099	0.5121	0.12094	-0.041
Mof_C 	C 	0.8728	0.5396	0.1382	0.006
Mof_H 	H 	0.8802	0.5559	0.159	0.064
Mof_C 	C 	0.8261	0.5423	0.12456	-0.081
Mof_C 	C 	0.7863	0.571	0.14279	0.348
Mof_C 	C 	0.9607	0.5065	0.13346	0.14
Mof_H 	H 	0.7576	0.2239	0.7669	0.673
Mof_H 	H 	0.7475	0.234	0.7275	0.69
Mof_H 	H 	0.7172	0.2643	0.7556	0.692
Mof_Cu	Cu	0.91364	0.27436	0.5	0.902
Mof_Cu	Cu	0.8846	0.36886	0.5	0.907
Mof_Cu	Cu	0.08636	0.72564	0.5	0.902
Mof_Cu	Cu	0.1154	0.63114	0.5	0.907
Mof_Cu	Cu	0.72564	0.91364	0.5	0.902
Mof_Cu	Cu	0.63114	0.8846	0.5	0.907
Mof_Cu	Cu	0.27436	0.08636	0.5	0.902
Mof_Cu	Cu	0.36886	0.1154	0.5	0.907
Mof_Cu	Cu	0.58636	0.77436	-0	0.896
Mof_Cu	Cu	0.6154	0.86886	-0	0.902
Mof_Cu	Cu	0.41364	0.22564	-0	0.896
Mof_Cu	Cu	0.3846	0.13114	-0	0.902
Mof_Cu	Cu	0.77436	0.41364	-0	0.896
Mof_Cu	Cu	0.86886	0.3846	-0	0.902
Mof_Cu	Cu	0.22564	0.58636	-0	0.896
Mof_Cu	Cu	0.13114	0.6154	-0	0.902
Mof_C 	C 	0.7322	0.2322	0.25	-4.097
Mof_C 	C 	0.6954	0.1954	0.25	1.769
Mof_C 	C 	0.2678	0.7678	0.25	-4.098
Mof_C 	C 	0.3046	0.8046	0.25	1.769
Mof_C 	C 	0.7678	0.7322	0.25	-4.097
Mof_C 	C 	0.8046	0.6954	0.25	1.769
Mof_C 	C 	0.2322	0.2678	0.25	-4.098
Mof_C 	C 	0.1954	0.3046	0.25	1.769
Mof_C 	C 	0.2678	0.7678	0.75	-4.098
Mof_C 	C 	0.3046	0.8046	0.75	1.769
Mof_C 	C 	0.7322	0.2322	0.75	-4.097
Mof_C 	C 	0.6954	0.1954	0.75	1.769
Mof_C 	C 	0.2322	0.2678	0.75	-4.098
Mof_C 	C 	0.1954	0.3046	0.75	1.769
Mof_C 	C 	0.7678	0.7322	0.75	-4.097
Mof_C 	C 	0.8046	0.6954	0.75	1.769
Mof_N 	N 	-1.78363e-32	0.5	0.61304	-0.223
Mof_H 	H 	3.24298e-33	0.5	0.5907	0.131
Mof_N 	N 	0.5	-7.06732e-33	0.61304	-0.223
Mof_H 	H 	0.5	0	0.5907	0.131
Mof_N 	N 	0.5	0	0.88696	-0.223
Mof_H 	H 	0.5	-1.41346e-32	0.9093	0.132
Mof_N 	N 	4.86946e-33	0.5	0.88696	-0.223
Mof_H 	H 	-9.14253e-33	0.5	0.9093	0.132
Mof_N 	N 	-1.90775e-32	0.5	0.38696	-0.223
Mof_H 	H 	-1.89549e-32	0.5	0.4093	0.131
Mof_N 	N 	0.5	-7.06732e-33	0.38696	-0.223
Mof_H 	H 	0.5	0	0.4093	0.131
Mof_N 	N 	0.5	0	0.11304	-0.223
Mof_H 	H 	0.5	0	0.0907	0.13
Mof_N 	N 	2.38743e-33	0.5	0.11304	-0.223
Mof_H 	H 	-3.03571e-33	0.5	0.0907	0.13
_end
