data_functionalizedCrystal
_audit_creation_method	'EQeq! by Chris Wilmer'
_symmetry_space_group_name_H-M	'P1'
_symmetry_Int_Tables_number	1
_symmetry_cell_setting	triclinic
loop_
_symmetry_equiv_pos_as_xyz
  x,y,z
_cell_length_a	14.703
_cell_length_b	15.2876
_cell_length_c	15.7014
_cell_angle_alpha	67.499
_cell_angle_beta	64.547
_cell_angle_gamma	69.969
loop_
_atom_site_label
_atom_site_type_symbol
_atom_site_fract_x
_atom_site_fract_y
_atom_site_fract_z
_atom_site_charge
Mof_Co	Co	0.74141	0.07227	0.02417	1.146
Mof_O 	O 	0.84474	0.01259	0.10238	-0.552
Mof_O 	O 	0.96004	0.13849	0.9208	-0.409
Mof_O 	O 	0.70091	0.96153	0.17003	-0.39
Mof_O 	O 	0.79898	0.96172	0.96066	-0.404
Mof_O 	O 	0.97053	0.93991	0.91932	-0.38
Mof_O 	O 	0.81451	0.16121	0.89436	-0.434
Mof_N 	N 	0.3206	0.80507	0.91538	-0.183
Mof_N 	N 	0.61041	0.10311	0.98695	-0.212
Mof_C 	C 	0.7876	0.9571	0.17176	0.395
Mof_O 	O 	0.3677	0.19393	0.8061	-0.458
Mof_H 	H 	0.3454	0.1469	0.8131	0.272
Mof_C 	C 	0.8815	0.77798	0.41917	0.039
Mof_C 	C 	0.9231	0.8596	0.35493	-0.087
Mof_H 	H 	0.9721	0.8763	0.3671	0.076
Mof_C 	C 	0.8951	0.18646	0.87915	0.379
Mof_C 	C 	0.8919	0.93243	0.91243	0.379
Mof_C 	C 	0.9088	0.88374	0.83856	-0.111
Mof_C 	C 	0.8937	0.91569	0.27454	0.039
Mof_H 	H 	0.9229	0.9702	0.2313	0.059
Mof_C 	C 	0.9117	0.28318	0.80763	-0.12
Mof_C 	C 	0.9071	0.72331	0.51005	0.051
Mof_C 	C 	0.9162	0.62318	0.54898	-0.112
Mof_H 	H 	0.9109	0.5871	0.5143	0.072
Mof_C 	C 	0.986	0.32339	0.8034	0.069
Mof_H 	H 	0.0298	0.2868	0.8409	-0.003
Mof_C 	C 	0.9145	0.77584	0.56203	-0.113
Mof_H 	H 	0.9077	0.8441	0.5363	0.076
Mof_C 	C 	0.8399	0.91614	0.78849	0.031
Mof_H 	H 	0.7852	0.9709	0.7985	0.038
Mof_C 	C 	0.8512	0.86831	0.72374	-0.089
Mof_H 	H 	0.8057	0.8922	0.6876	0.065
Mof_C 	C 	0.9409	0.62957	0.6882	-0.114
Mof_H 	H 	0.9528	0.5976	0.7487	0.061
Mof_C 	C 	0.3568	0.719	0.9702	-0.032
Mof_H 	H 	0.3601	0.7165	0.0302	0.019
Mof_C 	C 	0.9317	0.7294	0.65086	0.054
Mof_C 	C 	0.821	0.89219	0.25685	-0.119
Mof_C 	C 	0.6189	0.1359	0.8916	0.028
Mof_H 	H 	0.6855	0.1382	0.8432	0.013
Mof_C 	C 	0.8117	0.7535	0.39873	-0.093
Mof_H 	H 	0.785	0.6972	0.4399	0.061
Mof_C 	C 	0.9329	0.47069	0.68873	0.019
Mof_C 	C 	0.998	0.7544	0.7608	-0.059
Mof_H 	H 	0.0517	0.6987	0.7523	0.014
Mof_C 	C 	0.7806	0.8108	0.3185	0.039
Mof_H 	H 	0.7318	0.7942	0.306	0.028
Mof_C 	C 	0.9892	0.8042	0.8228	0.056
Mof_H 	H 	0.0383	0.7838	0.8544	0.003
Mof_C 	C 	0.9962	0.4164	0.7448	-0.06
Mof_H 	H 	0.0466	0.4435	0.7428	0.012
Mof_C 	C 	0.9287	0.78563	0.71139	0.017
Mof_C 	C 	0.8516	0.3351	0.7488	0.037
Mof_H 	H 	0.8025	0.3072	0.7496	0.025
Mof_C 	C 	0.3895	0.6338	0.944	0.101
Mof_H 	H 	0.4135	0.5746	0.986	-0.013
Mof_C 	C 	0.933	0.57524	0.63856	0.051
Mof_C 	C 	0.4387	0.1638	0.9301	-0.052
Mof_C 	C 	0.4294	0.125	0.0283	-0.08
Mof_H 	H 	0.364	0.1181	0.0776	0.047
Mof_C 	C 	0.5357	0.1661	0.8613	-0.06
Mof_H 	H 	0.5451	0.1884	0.7933	0.054
Mof_C 	C 	0.8631	0.4273	0.689	-0.094
Mof_H 	H 	0.8229	0.4617	0.6476	0.058
Mof_C 	C 	0.3033	0.3143	0.8956	-0.805
Mof_C 	C 	0.3202	0.8064	0.83	-0.048
Mof_H 	H 	0.2972	0.8668	0.7888	0.054
Mof_C 	C 	0.3405	0.4868	0.8596	-1.059
Mof_C 	C 	0.3872	0.6352	0.8556	-0.327
Mof_C 	C 	0.344	0.2049	0.8992	0.359
Mof_H 	H 	0.2888	0.1689	0.9484	-0.067
Mof_C 	C 	0.5169	0.0963	0.0536	0.018
Mof_H 	H 	0.5099	0.0708	0.1211	0
Mof_O 	O 	0.5114	0.4814	0.8509	0.487
Mof_H 	H 	0.5166	0.4994	0.8926	-0.052
Mof_C 	C 	0.4244	0.5447	0.8219	0.966
Mof_H 	H 	0.4483	0.565	0.7486	-0.581
Mof_C 	C 	0.3516	0.7242	0.7983	0.115
Mof_H 	H 	0.3486	0.7289	0.7374	-0.018
Mof_B 	B 	0.3716	0.3964	0.8055	0.656
Mof_H 	H 	0.4469	0.3773	0.7476	-0.228
Mof_B 	B 	0.3618	0.3701	0.9289	0.84
Mof_H 	H 	0.4308	0.3342	0.9524	-0.278
Mof_B 	B 	0.254	0.39	0.8052	0.126
Mof_H 	H 	0.2507	0.3666	0.7473	-0.073
Mof_B 	B 	0.2393	0.343	0.0056	-0.069
Mof_H 	H 	0.2275	0.2882	0.0792	-0.025
Mof_B 	B 	0.2635	0.4585	0.9813	0.257
Mof_H 	H 	0.267	0.482	0.039	-0.13
Mof_B 	B 	0.2121	0.5423	0.8896	0.832
Mof_H 	H 	0.1817	0.6209	0.887	-0.28
Mof_B 	B 	0.2794	0.5035	0.7813	0.339
Mof_H 	H 	0.2941	0.5567	0.7067	-0.152
Mof_B 	B 	0.1713	0.3569	0.9294	0.963
Mof_H 	H 	0.114	0.3118	0.9533	-0.311
Mof_B 	B 	0.1559	0.4801	0.8566	-0.496
Mof_H 	H 	0.0878	0.5179	0.8319	0.069
Mof_B 	B 	0.1444	0.4499	0.983	-0.241
Mof_H 	H 	0.0691	0.4667	0.042	-0.012
Mof_H 	H 	0.4839	0.502	0.8434	-0.696
Mof_O 	O 	0.4556	0.5693	0.7199	0.33
Mof_H 	H 	0.5175	0.5414	0.698	-0.007
Mof_Co	Co	0.25859	0.92773	0.97583	1.183
Mof_O 	O 	0.15526	0.98741	0.89762	-0.458
Mof_O 	O 	0.03996	0.86151	0.0792	-0.43
Mof_O 	O 	0.29909	0.03847	0.82997	-0.399
Mof_O 	O 	0.20102	0.03828	0.03934	-0.458
Mof_O 	O 	0.02947	0.06009	0.08068	-0.45
Mof_O 	O 	0.18549	0.83879	0.10564	-0.43
Mof_N 	N 	0.6794	0.19493	0.08462	-0.18
Mof_N 	N 	0.38959	0.89689	0.01305	-0.214
Mof_C 	C 	0.2124	0.0429	0.82824	0.291
Mof_O 	O 	0.6323	0.80607	0.1939	-0.463
Mof_H 	H 	0.6546	0.8531	0.1869	0.282
Mof_C 	C 	0.1185	0.22202	0.58083	0.028
Mof_C 	C 	0.0769	0.1404	0.64507	-0.093
Mof_H 	H 	0.0279	0.1237	0.6329	0.048
Mof_C 	C 	0.1049	0.81354	0.12085	0.368
Mof_C 	C 	0.1081	0.06757	0.08757	0.377
Mof_C 	C 	0.0912	0.11626	0.16144	-0.124
Mof_C 	C 	0.1063	0.08431	0.72546	0.013
Mof_H 	H 	0.0771	0.0298	0.7687	0.019
Mof_C 	C 	0.0883	0.71682	0.19237	-0.112
Mof_C 	C 	0.0929	0.27669	0.48995	0.027
Mof_C 	C 	0.0838	0.37682	0.45102	-0.097
Mof_H 	H 	0.0891	0.4129	0.4857	0.055
Mof_C 	C 	0.014	0.67661	0.1966	0.001
Mof_H 	H 	0.9702	0.7132	0.1591	0.054
Mof_C 	C 	0.0855	0.22416	0.43797	-0.095
Mof_H 	H 	0.0923	0.1559	0.4637	0.052
Mof_C 	C 	0.1601	0.08386	0.21151	0.033
Mof_H 	H 	0.2148	0.0291	0.2015	0.01
Mof_C 	C 	0.1488	0.13169	0.27626	-0.119
Mof_H 	H 	0.1943	0.1078	0.3124	0.06
Mof_C 	C 	0.0591	0.37043	0.3118	-0.092
Mof_H 	H 	0.0472	0.4024	0.2513	0.039
Mof_C 	C 	0.6432	0.281	0.0298	-0.096
Mof_H 	H 	0.6399	0.2835	0.9698	0.059
Mof_C 	C 	0.0683	0.2706	0.34914	0.013
Mof_C 	C 	0.179	0.10781	0.74315	-0.103
Mof_C 	C 	0.3811	0.8641	0.1084	0.024
Mof_H 	H 	0.3145	0.8618	0.1568	0.028
Mof_C 	C 	0.1883	0.2465	0.60127	-0.094
Mof_H 	H 	0.215	0.3028	0.5601	0.055
Mof_C 	C 	0.0671	0.52931	0.31127	0.044
Mof_C 	C 	0.002	0.2456	0.2392	-0.149
Mof_H 	H 	0.9483	0.3013	0.2477	0.078
Mof_C 	C 	0.2194	0.1892	0.6815	0.018
Mof_H 	H 	0.2682	0.2058	0.694	0.031
Mof_C 	C 	0.0108	0.1958	0.1772	-0.003
Mof_H 	H 	0.9617	0.2162	0.1456	0.053
Mof_C 	C 	0.0038	0.5836	0.2552	-0.141
Mof_H 	H 	0.9534	0.5565	0.2572	0.076
Mof_C 	C 	0.0713	0.21437	0.28861	0.047
Mof_C 	C 	0.1484	0.6649	0.2512	0.032
Mof_H 	H 	0.1975	0.6928	0.2504	0.024
Mof_C 	C 	0.6105	0.3662	0.056	0.131
Mof_H 	H 	0.5865	0.4254	0.014	-0.033
Mof_C 	C 	0.067	0.42476	0.36144	0.015
Mof_C 	C 	0.5613	0.8362	0.0699	-0.095
Mof_C 	C 	0.5706	0.875	0.9717	-0.023
Mof_H 	H 	0.636	0.8819	0.9224	0.043
Mof_C 	C 	0.4643	0.8339	0.1387	-0.03
Mof_H 	H 	0.4549	0.8116	0.2067	0.052
Mof_C 	C 	0.1369	0.5727	0.311	-0.11
Mof_H 	H 	0.1771	0.5383	0.3524	0.059
Mof_C 	C 	0.6967	0.6857	0.1044	-0.876
Mof_C 	C 	0.6798	0.1936	0.17	-0.053
Mof_H 	H 	0.7028	0.1332	0.2112	0.037
Mof_C 	C 	0.6595	0.5132	0.1404	-1.021
Mof_C 	C 	0.6128	0.3648	0.1444	-0.34
Mof_C 	C 	0.656	0.7951	0.1008	0.398
Mof_H 	H 	0.7112	0.8311	0.0516	-0.086
Mof_C 	C 	0.4831	0.9037	0.9464	0.039
Mof_H 	H 	0.4901	0.9292	0.8789	0.018
Mof_O 	O 	0.4886	0.5186	0.1491	0.494
Mof_H 	H 	0.4834	0.5006	0.1074	-0.059
Mof_C 	C 	0.5756	0.4553	0.1781	0.96
Mof_H 	H 	0.5517	0.435	0.2514	-0.584
Mof_C 	C 	0.6484	0.2758	0.2017	0.12
Mof_H 	H 	0.6514	0.2711	0.2626	-0.025
Mof_B 	B 	0.6284	0.6036	0.1945	0.767
Mof_H 	H 	0.5531	0.6227	0.2524	-0.258
Mof_B 	B 	0.6382	0.6299	0.0711	0.722
Mof_H 	H 	0.5692	0.6658	0.0476	-0.254
Mof_B 	B 	0.746	0.61	0.1948	0.172
Mof_H 	H 	0.7493	0.6334	0.2527	-0.083
Mof_B 	B 	0.7607	0.657	0.9944	0.229
Mof_H 	H 	0.7725	0.7118	0.9208	-0.103
Mof_B 	B 	0.7365	0.5415	0.0187	0.13
Mof_H 	H 	0.733	0.518	0.961	-0.076
Mof_B 	B 	0.7879	0.4577	0.1104	0.959
Mof_H 	H 	0.8183	0.3791	0.113	-0.316
Mof_B 	B 	0.7206	0.4965	0.2187	0.167
Mof_H 	H 	0.7059	0.4433	0.2933	-0.104
Mof_B 	B 	0.8287	0.6431	0.0706	0.87
Mof_H 	H 	0.886	0.6882	0.0467	-0.285
Mof_B 	B 	0.8441	0.5199	0.1434	-0.389
Mof_H 	H 	0.9122	0.4821	0.1681	0.053
Mof_B 	B 	0.8556	0.5501	0.017	-0.417
Mof_H 	H 	0.9309	0.5333	0.958	0.068
Mof_H 	H 	0.5161	0.498	0.1566	-0.7
Mof_O 	O 	0.5444	0.4307	0.2801	0.335
Mof_H 	H 	0.4825	0.4586	0.302	-0.011
Mof_Co	Co	-0	0	-0	1.165
_end
