data_functionalizedCrystal
_audit_creation_method	'EQeq! by Chris Wilmer'
_symmetry_space_group_name_H-M	'P1'
_symmetry_Int_Tables_number	1
_symmetry_cell_setting	triclinic
loop_
_symmetry_equiv_pos_as_xyz
  x,y,z
_cell_length_a	19.3474
_cell_length_b	19.3474
_cell_length_c	3.5013
_cell_angle_alpha	90
_cell_angle_beta	90
_cell_angle_gamma	90
loop_
_atom_site_label
_atom_site_type_symbol
_atom_site_fract_x
_atom_site_fract_y
_atom_site_fract_z
_atom_site_charge
Mof_Ag	Ag	0.54448	0.37694	0.0051	0.388
Mof_N 	N 	0.7513	0.3816	0.452	-0.381
Mof_N 	N 	0.6414	0.3944	0.225	-0.277
Mof_N 	N 	0.6747	0.4585	0.207	-0.279
Mof_C 	C 	0.6886	0.3527	0.372	0.465
Mof_C 	C 	0.7351	0.4457	0.368	0.504
Mof_H 	H 	0.7657	0.4815	0.4219	-0.675
Mof_N 	N 	0.678	0.283	0.41	0.545
Mof_H 	H 	0.6398	0.2645	0.3403	-0.112
Mof_H 	H 	0.7101	0.2572	0.5085	-0.114
Mof_N 	N 	0.78	0.5	0.399	0.573
Mof_H 	H 	0.8214	0.4926	0.4775	-0.114
Mof_H 	H 	0.7666	0.5406	0.3404	-0.134
Mof_H 	H 	0.6796	0.3062	0.4177	-0.645
Mof_Ag	Ag	0.45552	0.62306	0.0051	0.39
Mof_N 	N 	0.2487	0.6184	0.452	-0.378
Mof_N 	N 	0.3586	0.6056	0.225	-0.277
Mof_N 	N 	0.3253	0.5415	0.207	-0.278
Mof_C 	C 	0.3114	0.6473	0.372	0.468
Mof_C 	C 	0.2649	0.5543	0.368	0.497
Mof_H 	H 	0.2343	0.5185	0.4219	-0.669
Mof_N 	N 	0.322	0.717	0.41	0.547
Mof_H 	H 	0.3602	0.7355	0.3403	-0.109
Mof_H 	H 	0.2899	0.7428	0.5085	-0.112
Mof_N 	N 	0.22	0.5	0.399	0.57
Mof_H 	H 	0.1786	0.5074	0.4775	-0.126
Mof_H 	H 	0.2334	0.4594	0.3404	-0.138
Mof_H 	H 	0.3204	0.6938	0.4177	-0.647
Mof_Ag	Ag	0.37694	0.45552	0.9949	0.388
Mof_N 	N 	0.3816	0.2487	0.548	-0.378
Mof_N 	N 	0.3944	0.3586	0.775	-0.277
Mof_N 	N 	0.4585	0.3253	0.793	-0.278
Mof_C 	C 	0.3527	0.3114	0.628	0.466
Mof_C 	C 	0.4457	0.2649	0.632	0.497
Mof_H 	H 	0.4815	0.2343	0.5781	-0.669
Mof_N 	N 	0.283	0.322	0.59	0.546
Mof_H 	H 	0.2645	0.3602	0.6597	-0.112
Mof_H 	H 	0.2572	0.2899	0.4915	-0.113
Mof_N 	N 	0.5	0.22	0.601	0.57
Mof_H 	H 	0.4926	0.1786	0.5225	-0.126
Mof_H 	H 	0.5406	0.2334	0.6596	-0.138
Mof_H 	H 	0.3062	0.3204	0.5823	-0.645
Mof_Ag	Ag	0.62306	0.54448	0.9949	0.39
Mof_N 	N 	0.6184	0.7513	0.548	-0.382
Mof_N 	N 	0.6056	0.6414	0.775	-0.277
Mof_N 	N 	0.5415	0.6747	0.793	-0.279
Mof_C 	C 	0.6473	0.6886	0.628	0.467
Mof_C 	C 	0.5543	0.7351	0.632	0.504
Mof_H 	H 	0.5185	0.7657	0.5781	-0.675
Mof_N 	N 	0.717	0.678	0.59	0.546
Mof_H 	H 	0.7355	0.6398	0.6597	-0.109
Mof_H 	H 	0.7428	0.7101	0.4915	-0.112
Mof_N 	N 	0.5	0.78	0.601	0.573
Mof_H 	H 	0.5074	0.8214	0.5225	-0.114
Mof_H 	H 	0.4594	0.7666	0.6596	-0.134
Mof_H 	H 	0.6938	0.6796	0.5823	-0.646
Mof_Ag	Ag	0.04448	0.12306	0.5051	0.283
Mof_N 	N 	0.2513	0.1184	0.952	-0.386
Mof_N 	N 	0.1414	0.1056	0.725	-0.274
Mof_N 	N 	0.1747	0.0415	0.707	-0.321
Mof_C 	C 	0.1886	0.1473	0.872	0.466
Mof_C 	C 	0.2351	0.0543	0.868	0.549
Mof_H 	H 	0.2657	0.0185	0.9219	-0.775
Mof_N 	N 	0.178	0.217	0.91	0.553
Mof_H 	H 	0.1398	0.2355	0.8403	-0.112
Mof_H 	H 	0.2101	0.2428	0.0085	-0.116
Mof_N 	N 	0.28	1.2038e-33	0.899	0.638
Mof_H 	H 	0.3214	0.0074	0.9775	-0.153
Mof_H 	H 	0.2666	0.9594	0.8404	-0.11
Mof_H 	H 	0.1796	0.1938	0.9177	-0.649
Mof_Ag	Ag	0.95552	0.87694	0.5051	0.503
Mof_N 	N 	0.7487	0.8816	0.952	-0.419
Mof_N 	N 	0.8586	0.8944	0.725	-0.285
Mof_N 	N 	0.8253	0.9585	0.707	-0.292
Mof_C 	C 	0.8114	0.8527	0.872	0.461
Mof_C 	C 	0.7649	0.9457	0.868	0.727
Mof_H 	H 	0.7343	0.9815	0.9219	-0.994
Mof_N 	N 	0.822	0.783	0.91	0.551
Mof_H 	H 	0.8602	0.7645	0.8403	-0.111
Mof_H 	H 	0.7899	0.7572	0.0085	-0.114
Mof_N 	N 	0.72	1.2038e-33	0.899	0.884
Mof_H 	H 	0.6786	0.9926	0.9775	-0.144
Mof_H 	H 	0.7334	0.0406	0.8404	-0.247
Mof_H 	H 	0.8204	0.8062	0.9177	-0.65
Mof_Ag	Ag	0.87694	0.04448	0.4949	0.342
Mof_N 	N 	0.8816	0.2513	0.048	-0.418
Mof_N 	N 	0.8944	0.1414	0.275	-0.269
Mof_N 	N 	0.9585	0.1747	0.293	-0.286
Mof_C 	C 	0.8527	0.1886	0.128	0.46
Mof_C 	C 	0.9457	0.2351	0.132	0.729
Mof_H 	H 	0.9815	0.2657	0.0781	-0.996
Mof_N 	N 	0.783	0.178	0.09	0.556
Mof_H 	H 	0.7645	0.1398	0.1597	-0.114
Mof_H 	H 	0.7572	0.2101	0.9915	-0.117
Mof_N 	N 	3.67994e-33	0.28	0.101	0.888
Mof_H 	H 	0.9926	0.3214	0.0225	-0.145
Mof_H 	H 	0.0406	0.2666	0.1596	-0.246
Mof_H 	H 	0.8062	0.1796	0.0823	-0.65
Mof_Ag	Ag	0.12306	0.95552	0.4949	0.445
Mof_N 	N 	0.1184	0.7487	0.048	-0.387
Mof_N 	N 	0.1056	0.8586	0.275	-0.29
Mof_N 	N 	0.0415	0.8253	0.293	-0.327
Mof_C 	C 	0.1473	0.8114	0.128	0.466
Mof_C 	C 	0.0543	0.7649	0.132	0.548
Mof_H 	H 	0.0185	0.7343	0.0781	-0.772
Mof_N 	N 	0.217	0.822	0.09	0.548
Mof_H 	H 	0.2355	0.8602	0.1597	-0.109
Mof_H 	H 	0.2428	0.7899	0.9915	-0.113
Mof_N 	N 	6.08755e-33	0.72	0.101	0.634
Mof_H 	H 	0.0074	0.6786	0.0225	-0.152
Mof_H 	H 	0.9594	0.7334	0.1596	-0.112
Mof_H 	H 	0.1938	0.8204	0.0823	-0.649
Mof_Ag	Ag	0.83553	0.33553	0.75	0.543
Mof_Ag	Ag	0.16447	0.66447	0.75	0.511
Mof_Ag	Ag	0.33553	0.16447	0.25	0.511
Mof_Ag	Ag	0.66447	0.83553	0.25	0.543
_end
