data_functionalizedCrystal
_audit_creation_method	'EQeq! by Chris Wilmer'
_symmetry_space_group_name_H-M	'P1'
_symmetry_Int_Tables_number	1
_symmetry_cell_setting	triclinic
loop_
_symmetry_equiv_pos_as_xyz
  x,y,z
_cell_length_a	10.463
_cell_length_b	11.846
_cell_length_c	12.511
_cell_angle_alpha	89.2
_cell_angle_beta	75.08
_cell_angle_gamma	73.36
loop_
_atom_site_label
_atom_site_type_symbol
_atom_site_fract_x
_atom_site_fract_y
_atom_site_fract_z
_atom_site_charge
Mof_C 	C 	0.0319	0.8482	0.0931	0.088
Mof_H 	H 	0.1217	0.8185	0.0999	0.008
Mof_C 	C 	0.8401	0.8656	0.0557	-0.004
Mof_H 	H 	0.7709	0.8493	0.0301	0.042
Mof_C 	C 	0.8287	0.9657	0.1077	0.014
Mof_H 	H 	0.7507	0.0311	0.1252	0.032
Mof_C 	C 	0.982	0.0433	0.1926	-0.135
Mof_H 	H 	0.9598	0.1187	0.1598	0.081
Mof_H 	H 	0.0807	0.0187	0.186	0.08
Mof_C 	C 	0.9047	0.0586	0.3138	0.064
Mof_C 	C 	0.8195	0.1668	0.3603	-0.077
Mof_H 	H 	0.8083	0.2309	0.3162	0.069
Mof_C 	C 	0.7506	0.1823	0.4703	-0.063
Mof_H 	H 	0.6971	0.2574	0.5006	0.071
Mof_C 	C 	0.759	0.0881	0.537	0.062
Mof_C 	C 	0.842	0.9782	0.4901	-0.07
Mof_H 	H 	0.8493	0.9137	0.5338	0.054
Mof_C 	C 	0.9143	0.9623	0.38	-0.07
Mof_H 	H 	0.9695	0.8875	0.3497	0.061
Mof_C 	C 	0.4616	0.2707	0.7119	0.096
Mof_H 	H 	0.499	0.3236	0.7381	0.006
Mof_C 	C 	0.3218	0.1941	0.6646	0.004
Mof_H 	H 	0.2415	0.1837	0.653	0.034
Mof_C 	C 	0.4443	0.1129	0.6408	-0.003
Mof_H 	H 	0.4657	0.0374	0.6082	0.042
Mof_C 	C 	0.6812	0.1079	0.6578	-0.126
Mof_H 	H 	0.6961	0.0329	0.6919	0.077
Mof_H 	H 	0.7172	0.1586	0.6947	0.073
Mof_C 	C 	0.0921	0.5926	0.226	0.299
Mof_C 	C 	0.174	0.5614	0.3106	0.059
Mof_C 	C 	0.1054	0.5954	0.4215	-0.216
Mof_H 	H 	0.0159	0.6466	0.442	0.116
Mof_C 	C 	0.1767	0.5495	0.5013	0.259
Mof_C 	C 	0.3104	0.4719	0.4711	-0.311
Mof_H 	H 	0.3564	0.4435	0.5249	0.152
Mof_C 	C 	0.3743	0.4375	0.3597	0.271
Mof_C 	C 	0.3093	0.4862	0.2788	-0.217
Mof_H 	H 	0.3555	0.4689	0.2041	0.125
Mof_C 	C 	0.9828	0.6552	0.6487	-0.207
Mof_H 	H 	0.9184	0.6238	0.6241	0.105
Mof_H 	H 	0.9817	0.7299	0.6156	0.102
Mof_C 	C 	0.9378	0.6752	0.7734	0.394
Mof_C 	C 	0.5768	0.3175	0.2279	-0.199
Mof_H 	H 	0.5141	0.3279	0.181	0.104
Mof_H 	H 	0.6258	0.234	0.2238	0.109
Mof_C 	C 	0.6811	0.385	0.1829	0.412
Mof_Co	Co	0.0557	0.61135	0.9928	1.162
Mof_Co	Co	0.17306	0.44786	0.77354	1.17
Mof_N 	N 	0.9709	0.7889	0.0451	-0.223
Mof_N 	N 	0.9489	0.9565	0.1309	-0.103
Mof_N 	N 	0.5331	0.1619	0.6737	-0.106
Mof_N 	N 	0.3319	0.2967	0.7092	-0.229
Mof_O 	O 	0.1265	0.4338	0.9381	-0.577
Mof_O 	O 	0.962	0.6273	0.2645	-0.43
Mof_O 	O 	0.1544	0.5767	0.1249	-0.389
Mof_O 	O 	0.1193	0.5744	0.613	-0.263
Mof_O 	O 	0.8253	0.7503	0.8122	-0.292
Mof_O 	O 	0.0174	0.6144	0.8281	-0.515
Mof_O 	O 	0.4974	0.3535	0.3398	-0.195
Mof_O 	O 	0.6801	0.4686	0.2431	-0.442
Mof_O 	O 	0.7608	0.3473	0.09	-0.431
Mof_C 	C 	0.9681	0.1518	0.9069	0.087
Mof_H 	H 	0.8783	0.1815	0.9001	0.007
Mof_C 	C 	0.1599	0.1344	0.9443	-0.005
Mof_H 	H 	0.2291	0.1507	0.9699	0.041
Mof_C 	C 	0.1713	0.0343	0.8923	0.013
Mof_H 	H 	0.2493	0.9689	0.8748	0.031
Mof_C 	C 	0.018	0.9567	0.8074	-0.136
Mof_H 	H 	0.0402	0.8813	0.8402	0.08
Mof_H 	H 	0.9193	0.9813	0.814	0.08
Mof_C 	C 	0.0953	0.9414	0.6862	0.064
Mof_C 	C 	0.1805	0.8332	0.6397	-0.077
Mof_H 	H 	0.1917	0.7691	0.6838	0.069
Mof_C 	C 	0.2494	0.8177	0.5297	-0.063
Mof_H 	H 	0.3029	0.7426	0.4994	0.071
Mof_C 	C 	0.241	0.9119	0.463	0.062
Mof_C 	C 	0.158	0.0218	0.5099	-0.07
Mof_H 	H 	0.1507	0.0863	0.4662	0.054
Mof_C 	C 	0.0857	0.0377	0.62	-0.07
Mof_H 	H 	0.0305	0.1125	0.6503	0.061
Mof_C 	C 	0.5384	0.7293	0.2881	0.096
Mof_H 	H 	0.501	0.6764	0.2619	0.006
Mof_C 	C 	0.6782	0.8059	0.3354	0.004
Mof_H 	H 	0.7585	0.8163	0.347	0.034
Mof_C 	C 	0.5557	0.8871	0.3592	-0.003
Mof_H 	H 	0.5343	0.9626	0.3918	0.042
Mof_C 	C 	0.3188	0.8921	0.3422	-0.126
Mof_H 	H 	0.3039	0.9671	0.3081	0.077
Mof_H 	H 	0.2828	0.8414	0.3053	0.073
Mof_C 	C 	0.9079	0.4074	0.774	0.299
Mof_C 	C 	0.826	0.4386	0.6894	0.059
Mof_C 	C 	0.8946	0.4046	0.5785	-0.216
Mof_H 	H 	0.9841	0.3534	0.558	0.116
Mof_C 	C 	0.8233	0.4505	0.4987	0.259
Mof_C 	C 	0.6896	0.5281	0.5289	-0.311
Mof_H 	H 	0.6436	0.5565	0.4751	0.152
Mof_C 	C 	0.6257	0.5625	0.6403	0.271
Mof_C 	C 	0.6907	0.5138	0.7212	-0.217
Mof_H 	H 	0.6445	0.5311	0.7959	0.125
Mof_C 	C 	0.0172	0.3448	0.3513	-0.207
Mof_H 	H 	0.0816	0.3762	0.3759	0.105
Mof_H 	H 	0.0183	0.2701	0.3844	0.102
Mof_C 	C 	0.0622	0.3248	0.2266	0.394
Mof_C 	C 	0.4232	0.6825	0.7721	-0.199
Mof_H 	H 	0.4859	0.6721	0.819	0.104
Mof_H 	H 	0.3742	0.766	0.7762	0.109
Mof_C 	C 	0.3189	0.615	0.8171	0.412
Mof_Co	Co	0.9443	0.38865	0.0072	1.162
Mof_Co	Co	0.82694	0.55214	0.22646	1.17
Mof_N 	N 	0.0291	0.2111	0.9549	-0.223
Mof_N 	N 	0.0511	0.0435	0.8691	-0.103
Mof_N 	N 	0.4669	0.8381	0.3263	-0.106
Mof_N 	N 	0.6681	0.7033	0.2908	-0.229
Mof_O 	O 	0.8735	0.5662	0.0619	-0.577
Mof_O 	O 	0.038	0.3727	0.7355	-0.43
Mof_O 	O 	0.8456	0.4233	0.8751	-0.389
Mof_O 	O 	0.8807	0.4256	0.387	-0.263
Mof_O 	O 	0.1747	0.2497	0.1878	-0.292
Mof_O 	O 	0.9826	0.3856	0.1719	-0.515
Mof_O 	O 	0.5026	0.6465	0.6602	-0.195
Mof_O 	O 	0.3199	0.5314	0.7569	-0.442
Mof_O 	O 	0.2392	0.6527	0.91	-0.431
_end
