data_functionalizedCrystal
_audit_creation_method	'EQeq! by Chris Wilmer'
_symmetry_space_group_name_H-M	'P1'
_symmetry_Int_Tables_number	1
_symmetry_cell_setting	triclinic
loop_
_symmetry_equiv_pos_as_xyz
  x,y,z
_cell_length_a	8.473
_cell_length_b	8.8703
_cell_length_c	15.9613
_cell_angle_alpha	88.113
_cell_angle_beta	75.349
_cell_angle_gamma	68.285
loop_
_atom_site_label
_atom_site_type_symbol
_atom_site_fract_x
_atom_site_fract_y
_atom_site_fract_z
_atom_site_charge
Mof_Li	Li	0.8502	0.7984	0.6267	4.394
Mof_Li	Li	0.5181	0.7977	0.6466	2.509
Mof_Li	Li	0.175	0.8116	0.6754	4.315
Mof_Li	Li	0.5126	0.8055	0.1505	4.945
Mof_Zr	Zr	0.3931	0.2686	0.4132	3.196
Mof_Zr	Zr	0.6303	0.3414	0.889	3.195
Mof_C 	C 	0.3618	0.0206	0.5491	0.425
Mof_C 	C 	0.345	0.0548	0.2818	0.109
Mof_C 	C 	0.6782	0.5556	0.0202	0.146
Mof_C 	C 	0.9832	0.0685	0.8002	0.118
Mof_C 	C 	0.8478	0.0517	0.7563	0.546
Mof_C 	C 	0.3769	0.1728	0.9815	0.206
Mof_C 	C 	0.5379	0.1028	0.0198	0.436
Mof_C 	C 	0.1754	0.559	0.5456	0.571
Mof_C 	C 	0.5381	0.0359	0.547	0.407
Mof_C 	C 	0.4803	0.6238	0.0251	0.236
Mof_C 	C 	0.6469	0.4368	0.3207	0.094
Mof_C 	C 	0.6637	0.5872	0.7521	0.469
Mof_C 	C 	0.4859	0.507	0.2824	0.567
Mof_C 	C 	0.0399	0.5408	0.5022	0.145
Mof_C 	C 	0.4874	0.5725	0.754	0.422
Mof_C 	C 	0.5427	0.9857	0.2775	0.352
Mof_O 	O 	0.5853	0.0625	0.3307	-0.666
Mof_O 	O 	0.4687	0.6137	0.231	-1.009
Mof_O 	O 	0.3724	0.4364	0.3118	-0.707
Mof_O 	O 	0.6444	0.8687	0.2262	-1.023
Mof_O 	O 	0.6291	0.9481	0.5939	-1.483
Mof_O 	O 	0.4495	0.4715	0.8059	-0.655
Mof_O 	O 	0.2864	0.9881	0.237	-0.818
Mof_O 	O 	0.7667	0.4275	0.9669	-0.489
Mof_O 	O 	0.6917	0.1578	0.7834	-0.769
Mof_O 	O 	0.7074	0.6886	0.7054	-1.553
Mof_O 	O 	0.4377	0.5466	0.9721	-0.586
Mof_O 	O 	0.1055	0.4201	0.4446	-0.538
Mof_O 	O 	0.9179	0.1892	0.8578	-0.526
Mof_O 	O 	0.8847	0.6381	0.5243	-0.965
Mof_O 	O 	0.3317	0.4535	0.5183	-0.77
Mof_O 	O 	0.5553	0.9959	0.0711	-0.98
Mof_O 	O 	0.2472	0.1356	0.0075	-0.277
Mof_O 	O 	0.7766	0.4741	0.2948	-0.204
Mof_O 	O 	0.6512	0.1736	0.9905	-0.651
Mof_O 	O 	0.3785	0.7405	0.0765	-0.995
Mof_O 	O 	0.7503	0.491	0.8003	-0.723
Mof_O 	O 	0.1379	0.9704	0.7783	-0.919
Mof_O 	O 	0.9014	0.9389	0.6989	-1.8
Mof_O 	O 	0.1217	0.6721	0.6029	-1.834
Mof_O 	O 	0.2567	0.1827	0.3352	-0.514
Mof_O 	O 	0.628	0.3368	0.3804	-0.539
Mof_O 	O 	0.7369	0.6229	0.0646	-0.867
Mof_O 	O 	0.3984	0.658	0.7056	-1.489
Mof_O 	O 	0.2736	0.1185	0.502	-0.723
Mof_O 	O 	0.5737	0.1394	0.4965	-0.662
Mof_O 	O 	0.396	0.2724	0.9216	-0.556
Mof_O 	O 	0.32	0.9173	0.5948	-1.513
_end
