data_functionalizedCrystal
_audit_creation_method	'EQeq! by Chris Wilmer'
_symmetry_space_group_name_H-M	'P1'
_symmetry_Int_Tables_number	1
_symmetry_cell_setting	triclinic
loop_
_symmetry_equiv_pos_as_xyz
  x,y,z
_cell_length_a	9.1432
_cell_length_b	9.1432
_cell_length_c	14.773
_cell_angle_alpha	100.121
_cell_angle_beta	100.122
_cell_angle_gamma	115.602
loop_
_atom_site_label
_atom_site_type_symbol
_atom_site_fract_x
_atom_site_fract_y
_atom_site_fract_z
_atom_site_charge
Mof_Pr	Pr	0.50919	0.25919	0.51838	2.376
Mof_Pr	Pr	0.74081	0.49081	0.98162	2.371
Mof_Pr	Pr	0.49081	0.74081	0.48162	2.376
Mof_Pr	Pr	0.25919	0.50919	0.01838	2.371
Mof_H 	H 	0.868	0.312	0.43	0.039
Mof_H 	H 	0.062	0.118	0.43	0.039
Mof_H 	H 	0.688	0.132	0.07	0.04
Mof_H 	H 	0.882	0.938	0.07	0.04
Mof_H 	H 	0.132	0.688	0.57	0.039
Mof_H 	H 	0.938	0.882	0.57	0.039
Mof_H 	H 	0.312	0.868	0.93	0.04
Mof_H 	H 	0.118	0.062	0.93	0.04
Mof_C 	C 	0.74899	0.06039	0.44158	0.423
Mof_C 	C 	0.89398	0.21378	0.43516	-0.139
Mof_C 	C 	0.19259	0.38119	0.44158	0.424
Mof_C 	C 	0.04118	0.22138	0.43516	-0.139
Mof_C 	C 	0.93961	0.25101	0.05842	0.43
Mof_C 	C 	0.78622	0.10602	0.06484	-0.142
Mof_C 	C 	0.61881	0.80741	0.05842	0.424
Mof_C 	C 	0.77862	0.95882	0.06484	-0.135
Mof_C 	C 	0.25101	0.93961	0.55842	0.423
Mof_C 	C 	0.10602	0.78622	0.56484	-0.139
Mof_C 	C 	0.80741	0.61881	0.55842	0.424
Mof_C 	C 	0.95882	0.77862	0.56484	-0.139
Mof_C 	C 	0.06039	0.74899	0.94158	0.43
Mof_C 	C 	0.21378	0.89398	0.93516	-0.142
Mof_C 	C 	0.38119	0.19259	0.94158	0.424
Mof_C 	C 	0.22138	0.04118	0.93516	-0.135
Mof_C 	C 	0.6755	0.3245	0.75	0.288
Mof_C 	C 	0.5745	0.4255	0.75	0.288
Mof_C 	C 	0.3245	0.6755	0.25	0.288
Mof_C 	C 	0.4255	0.5745	0.25	0.288
Mof_O 	O 	0.66071	0.23791	0.67042	-0.485
Mof_O 	O 	0.63375	0.08169	0.46684	-0.67
Mof_O 	O 	0.74221	0.91735	0.42416	-0.502
Mof_O 	O 	0.50971	0.43251	0.67042	-0.484
Mof_O 	O 	0.33309	0.38515	0.46684	-0.67
Mof_O 	O 	0.18195	0.50681	0.42416	-0.503
Mof_O 	O 	0.76209	0.33929	0.82958	-0.485
Mof_O 	O 	0.91831	0.36625	0.03316	-0.668
Mof_O 	O 	0.08265	0.25779	0.07584	-0.507
Mof_O 	O 	0.56749	0.49029	0.82958	-0.483
Mof_O 	O 	0.61485	0.66691	0.03316	-0.668
Mof_O 	O 	0.49319	0.81805	0.07584	-0.502
Mof_O 	O 	0.33929	0.76209	0.32958	-0.485
Mof_O 	O 	0.36625	0.91831	0.53316	-0.67
Mof_O 	O 	0.25779	0.08265	0.57584	-0.502
Mof_O 	O 	0.49029	0.56749	0.32958	-0.484
Mof_O 	O 	0.66691	0.61485	0.53316	-0.67
Mof_O 	O 	0.81805	0.49319	0.57584	-0.503
Mof_O 	O 	0.23791	0.66071	0.17042	-0.485
Mof_O 	O 	0.08169	0.63375	0.96684	-0.668
Mof_O 	O 	0.91735	0.74221	0.92416	-0.507
Mof_O 	O 	0.43251	0.50971	0.17042	-0.483
Mof_O 	O 	0.38515	0.33309	0.96684	-0.668
Mof_O 	O 	0.50681	0.18195	0.92416	-0.502
_end
