data_functionalizedCrystal
_audit_creation_method	'EQeq! by Chris Wilmer'
_symmetry_space_group_name_H-M	'P1'
_symmetry_Int_Tables_number	1
_symmetry_cell_setting	triclinic
loop_
_symmetry_equiv_pos_as_xyz
  x,y,z
_cell_length_a	9.7887
_cell_length_b	10.0556
_cell_length_c	12.4566
_cell_angle_alpha	92.514
_cell_angle_beta	91.623
_cell_angle_gamma	91.495
loop_
_atom_site_label
_atom_site_type_symbol
_atom_site_fract_x
_atom_site_fract_y
_atom_site_fract_z
_atom_site_charge
Mof_Pr	Pr	0.05483	0.08947	0.8552	2.811
Mof_Pr	Pr	0.09728	0.33909	0.5943	2.814
Mof_O 	O 	0.3456	0.2817	0.6228	-0.538
Mof_O 	O 	0.2128	0.1731	0.7289	-0.779
Mof_O 	O 	0.9236	0.2254	0.6989	-0.717
Mof_O 	O 	0.8079	0.1355	0.8271	-0.564
Mof_O 	O 	0.9216	0.9099	0.9372	-0.753
Mof_O 	O 	0.7388	0.837	0.0166	-0.524
Mof_O 	O 	0.7833	0.6718	0.583	-0.527
Mof_O 	O 	0.9509	0.5366	0.5979	-0.727
Mof_O 	O 	0.2155	0.9158	0.8745	-0.654
Mof_O 	O 	0.2255	0.7413	0.7636	-0.602
Mof_H 	H 	0.1993	0.7953	0.7206	0.334
Mof_O 	O 	0.0434	0.3254	0.9044	-0.634
Mof_O 	O 	0.1354	0.4452	0.7756	-0.6
Mof_O 	O 	0.0103	0.9409	0.6921	-0.611
Mof_O 	O 	0.0755	0.0636	0.5345	-0.353
Mof_O 	O 	0.1875	0.8632	0.5819	-0.327
Mof_O 	O 	0.9606	0.8509	0.5145	-0.486
Mof_O 	O 	0.1066	0.7397	0.5227	-0.324
Mof_C 	C 	0.3312	0.2111	0.7019	0.529
Mof_C 	C 	0.4547	0.1666	0.7659	-0.332
Mof_H 	H 	0.4315	0.1601	0.8407	0.139
Mof_H 	H 	0.4804	0.0791	0.7389	0.132
Mof_C 	C 	0.8121	0.198	0.741	0.524
Mof_C 	C 	0.6791	0.2322	0.6839	-0.324
Mof_H 	H 	0.695	0.3094	0.6414	0.133
Mof_H 	H 	0.6502	0.1584	0.635	0.143
Mof_C 	C 	0.7988	0.8623	0.9332	0.516
Mof_C 	C 	0.73	0.8291	0.8246	-0.324
Mof_H 	H 	0.774	0.879	0.7697	0.134
Mof_H 	H 	0.6346	0.8525	0.8259	0.145
Mof_C 	C 	0.8657	0.6113	0.6398	0.532
Mof_C 	C 	0.8689	0.636	0.7602	-0.311
Mof_H 	H 	0.942	0.7001	0.7802	0.13
Mof_H 	H 	0.8893	0.5535	0.7941	0.121
Mof_C 	C 	0.2403	0.7976	0.8554	0.624
Mof_C 	C 	0.2882	0.72	0.9499	-0.381
Mof_H 	H 	0.3716	0.7624	0.9802	0.166
Mof_H 	H 	0.2197	0.7256	0.0046	0.142
Mof_C 	C 	0.1249	0.4132	0.8712	0.557
Mof_C 	C 	0.2162	0.4806	0.9592	-0.367
Mof_H 	H 	0.1582	0.5221	0.012	0.154
Mof_H 	H 	0.2663	0.4122	0.9947	0.154
Mof_C 	C 	0.5572	0.3867	0.7973	0.169
Mof_C 	C 	0.6378	0.5979	0.8129	0.167
Mof_C 	C 	0.4286	0.5444	0.8768	0.174
Mof_N 	N 	0.5699	0.2602	0.758	-0.047
Mof_N 	N 	0.7413	0.6854	0.8004	-0.054
Mof_N 	N 	0.3139	0.5804	0.926	-0.029
Mof_N 	N 	0.4425	0.4143	0.8506	-0.164
Mof_N 	N 	0.6586	0.4725	0.7784	-0.17
Mof_N 	N 	0.5225	0.6402	0.8581	-0.153
Mof_S 	S 	0.0566	0.9334	0.5815	0.93
Mof_Pr	Pr	0.94517	0.91053	0.1448	2.812
Mof_Pr	Pr	0.90272	0.66091	0.4057	2.815
Mof_O 	O 	0.6544	0.7183	0.3772	-0.537
Mof_O 	O 	0.7872	0.8269	0.2711	-0.778
Mof_O 	O 	0.0764	0.7746	0.3011	-0.717
Mof_O 	O 	0.1921	0.8645	0.1729	-0.564
Mof_O 	O 	0.0784	0.0901	0.0628	-0.753
Mof_O 	O 	0.2612	0.163	0.9834	-0.524
Mof_O 	O 	0.2167	0.3282	0.417	-0.527
Mof_O 	O 	0.0491	0.4634	0.4021	-0.727
Mof_O 	O 	0.7845	0.0842	0.1255	-0.654
Mof_O 	O 	0.7745	0.2587	0.2364	-0.602
Mof_H 	H 	0.8007	0.2047	0.2794	0.334
Mof_O 	O 	0.9566	0.6746	0.0956	-0.634
Mof_O 	O 	0.8646	0.5548	0.2244	-0.6
Mof_O 	O 	0.9897	0.0591	0.3079	-0.611
Mof_O 	O 	0.9245	0.9364	0.4655	-0.353
Mof_O 	O 	0.8125	0.1368	0.4181	-0.327
Mof_O 	O 	0.0394	0.1491	0.4855	-0.486
Mof_O 	O 	0.8934	0.2603	0.4773	-0.324
Mof_C 	C 	0.6688	0.7889	0.2981	0.529
Mof_C 	C 	0.5453	0.8334	0.2341	-0.332
Mof_H 	H 	0.5685	0.8399	0.1593	0.139
Mof_H 	H 	0.5196	0.9209	0.2611	0.132
Mof_C 	C 	0.1879	0.802	0.259	0.524
Mof_C 	C 	0.3209	0.7678	0.3161	-0.324
Mof_H 	H 	0.305	0.6906	0.3586	0.133
Mof_H 	H 	0.3498	0.8416	0.365	0.143
Mof_C 	C 	0.2012	0.1377	0.0668	0.516
Mof_C 	C 	0.27	0.1709	0.1754	-0.324
Mof_H 	H 	0.226	0.121	0.2303	0.134
Mof_H 	H 	0.3654	0.1475	0.1741	0.145
Mof_C 	C 	0.1343	0.3887	0.3602	0.532
Mof_C 	C 	0.1311	0.364	0.2398	-0.311
Mof_H 	H 	0.058	0.2999	0.2198	0.13
Mof_H 	H 	0.1107	0.4465	0.2059	0.121
Mof_C 	C 	0.7597	0.2024	0.1446	0.624
Mof_C 	C 	0.7118	0.28	0.0501	-0.381
Mof_H 	H 	0.6284	0.2376	0.0198	0.166
Mof_H 	H 	0.7803	0.2744	0.9954	0.142
Mof_C 	C 	0.8751	0.5868	0.1288	0.557
Mof_C 	C 	0.7838	0.5194	0.0408	-0.367
Mof_H 	H 	0.8418	0.4779	0.988	0.154
Mof_H 	H 	0.7337	0.5878	0.0053	0.154
Mof_C 	C 	0.4428	0.6133	0.2027	0.169
Mof_C 	C 	0.3622	0.4021	0.1871	0.167
Mof_C 	C 	0.5714	0.4556	0.1232	0.174
Mof_N 	N 	0.4301	0.7398	0.242	-0.047
Mof_N 	N 	0.2587	0.3146	0.1996	-0.054
Mof_N 	N 	0.6861	0.4196	0.074	-0.029
Mof_N 	N 	0.5575	0.5857	0.1494	-0.164
Mof_N 	N 	0.3414	0.5275	0.2216	-0.17
Mof_N 	N 	0.4775	0.3598	0.1419	-0.153
Mof_S 	S 	0.9434	0.0666	0.4185	0.93
_end
