data_functionalizedCrystal
_audit_creation_method	'EQeq! by Chris Wilmer'
_symmetry_space_group_name_H-M	'P1'
_symmetry_Int_Tables_number	1
_symmetry_cell_setting	triclinic
loop_
_symmetry_equiv_pos_as_xyz
  x,y,z
_cell_length_a	14.3635
_cell_length_b	12.0029
_cell_length_c	16.9974
_cell_angle_alpha	90
_cell_angle_beta	113.381
_cell_angle_gamma	90
loop_
_atom_site_label
_atom_site_type_symbol
_atom_site_fract_x
_atom_site_fract_y
_atom_site_fract_z
_atom_site_charge
Mof_Zn	Zn	0.89368	0.93755	0.89091	1.219
Mof_Zn	Zn	0.31876	0.07586	0.93504	1.217
Mof_P 	P 	0.11709	0.00649	0.93073	0.455
Mof_P 	P 	0.314	0.92878	0.78793	0.465
Mof_N 	N 	0.2792	0.8913	0.932	-0.078
Mof_N 	N 	0.937	0.7784	0.9326	-0.265
Mof_N 	N 	0.3839	0.2321	0.9576	-0.26
Mof_C 	C 	0.3904	0.9334	0.0835	0.431
Mof_C 	C 	0.3256	0.8388	0.8778	-0.299
Mof_H 	H 	0.3967	0.8241	0.912	0.114
Mof_H 	H 	0.2924	0.7682	0.8563	0.131
Mof_C 	C 	0.3218	0.8492	0.0206	-0.38
Mof_H 	H 	0.2667	0.83	0.0375	0.159
Mof_H 	H 	0.3601	0.7818	0.023	0.153
Mof_C 	C 	0.1655	0.8883	0.8928	-0.306
Mof_H 	H 	0.1413	0.8909	0.8308	0.124
Mof_H 	H 	0.1417	0.8197	0.9086	0.121
Mof_C 	C 	0.9157	0.6958	0.8723	-0.023
Mof_C 	C 	0.94	0.583	0.8956	-0.002
Mof_C 	C 	0.1291	0.3056	0.1056	0.049
Mof_C 	C 	0.107	0.4149	0.0788	-0.041
Mof_C 	C 	0.9866	0.5591	0.9858	0.038
Mof_C 	C 	0.0334	0.647	0.0365	-0.14
Mof_H 	H 	0.0829	0.6347	0.0911	0.082
Mof_C 	C 	0.0083	0.7526	0.0076	0.095
Mof_H 	H 	0.0437	0.8107	0.0431	-0.025
Mof_C 	C 	0.4003	0.2875	0.0296	0.081
Mof_H 	H 	0.3807	0.2537	0.0699	-0.013
Mof_C 	C 	0.4441	0.3913	0.0486	-0.143
Mof_H 	H 	0.4523	0.426	0.0998	0.077
Mof_C 	C 	0.4759	0.4439	0.9915	0.056
Mof_C 	C 	0.4642	0.3839	0.919	-0.142
Mof_H 	H 	0.4876	0.4131	0.8795	0.076
Mof_C 	C 	0.4183	0.2813	0.905	0.078
Mof_H 	H 	0.4108	0.2438	0.8549	-0.001
Mof_O 	O 	0.4051	0.0276	0.058	-0.515
Mof_O 	O 	0.4285	0.9026	0.1603	-0.466
Mof_O 	O 	0.0046	0.0157	0.8753	-0.449
Mof_O 	O 	0.1757	0.1066	0.9179	-0.427
Mof_O 	O 	0.139	0.9851	0.0244	-0.492
Mof_O 	O 	0.2084	0.9128	0.7201	-0.472
Mof_O 	O 	0.3326	0.0469	0.8247	-0.456
Mof_O 	O 	0.3955	0.8905	0.7574	-0.445
Mof_Zn	Zn	0.10632	0.93755	0.60909	1.218
Mof_Zn	Zn	0.68124	0.07586	0.56496	1.215
Mof_P 	P 	0.88291	0.00649	0.56927	0.452
Mof_P 	P 	0.686	0.92878	0.71207	0.467
Mof_N 	N 	0.7208	0.8913	0.568	-0.077
Mof_N 	N 	0.063	0.7784	0.5674	-0.264
Mof_N 	N 	0.6161	0.2321	0.5424	-0.262
Mof_C 	C 	0.6096	0.9334	0.4165	0.428
Mof_C 	C 	0.6744	0.8388	0.6222	-0.299
Mof_H 	H 	0.6033	0.8241	0.588	0.114
Mof_H 	H 	0.7076	0.7682	0.6437	0.132
Mof_C 	C 	0.6782	0.8492	0.4794	-0.382
Mof_H 	H 	0.7333	0.83	0.4625	0.159
Mof_H 	H 	0.6399	0.7818	0.477	0.153
Mof_C 	C 	0.8345	0.8883	0.6072	-0.303
Mof_H 	H 	0.8587	0.8909	0.6692	0.123
Mof_H 	H 	0.8583	0.8197	0.5914	0.121
Mof_C 	C 	0.0843	0.6958	0.6277	-0.024
Mof_C 	C 	0.06	0.583	0.6044	-0.002
Mof_C 	C 	0.8709	0.3056	0.3944	0.05
Mof_C 	C 	0.893	0.4149	0.4212	-0.041
Mof_C 	C 	0.0134	0.5591	0.5142	0.039
Mof_C 	C 	0.9666	0.647	0.4635	-0.14
Mof_H 	H 	0.9171	0.6347	0.4089	0.082
Mof_C 	C 	0.9917	0.7526	0.4924	0.094
Mof_H 	H 	0.9563	0.8107	0.4569	-0.024
Mof_C 	C 	0.5997	0.2875	0.4704	0.084
Mof_H 	H 	0.6193	0.2537	0.4301	-0.014
Mof_C 	C 	0.5559	0.3913	0.4514	-0.144
Mof_H 	H 	0.5477	0.426	0.4002	0.077
Mof_C 	C 	0.5241	0.4439	0.5085	0.056
Mof_C 	C 	0.5358	0.3839	0.581	-0.142
Mof_H 	H 	0.5124	0.4131	0.6205	0.077
Mof_C 	C 	0.5817	0.2813	0.595	0.078
Mof_H 	H 	0.5892	0.2438	0.6451	-0.001
Mof_O 	O 	0.5949	0.0276	0.442	-0.512
Mof_O 	O 	0.5715	0.9026	0.3397	-0.465
Mof_O 	O 	0.9954	0.0157	0.6247	-0.45
Mof_O 	O 	0.8243	0.1066	0.5821	-0.428
Mof_O 	O 	0.861	0.9851	0.4756	-0.492
Mof_O 	O 	0.7916	0.9128	0.7799	-0.472
Mof_O 	O 	0.6674	0.0469	0.6753	-0.457
Mof_O 	O 	0.6045	0.8905	0.7426	-0.445
Mof_Zn	Zn	0.10632	0.06245	0.10909	1.218
Mof_Zn	Zn	0.68124	0.92414	0.06496	1.216
Mof_P 	P 	0.88291	0.99351	0.06927	0.455
Mof_P 	P 	0.686	0.07122	0.21207	0.465
Mof_N 	N 	0.7208	0.1087	0.068	-0.078
Mof_N 	N 	0.063	0.2216	0.0674	-0.265
Mof_N 	N 	0.6161	0.7679	0.0424	-0.26
Mof_C 	C 	0.6096	0.0666	0.9165	0.431
Mof_C 	C 	0.6744	0.1612	0.1222	-0.299
Mof_H 	H 	0.6033	0.1759	0.088	0.114
Mof_H 	H 	0.7076	0.2318	0.1437	0.131
Mof_C 	C 	0.6782	0.1508	0.9794	-0.38
Mof_H 	H 	0.7333	0.17	0.9625	0.159
Mof_H 	H 	0.6399	0.2182	0.977	0.153
Mof_C 	C 	0.8345	0.1117	0.1072	-0.306
Mof_H 	H 	0.8587	0.1091	0.1692	0.124
Mof_H 	H 	0.8583	0.1803	0.0914	0.121
Mof_C 	C 	0.0843	0.3042	0.1277	-0.023
Mof_C 	C 	0.06	0.417	0.1044	-0.002
Mof_C 	C 	0.8709	0.6944	0.8944	0.049
Mof_C 	C 	0.893	0.5851	0.9212	-0.041
Mof_C 	C 	0.0134	0.4409	0.0142	0.038
Mof_C 	C 	0.9666	0.353	0.9635	-0.14
Mof_H 	H 	0.9171	0.3653	0.9089	0.082
Mof_C 	C 	0.9917	0.2474	0.9924	0.095
Mof_H 	H 	0.9563	0.1893	0.9569	-0.025
Mof_C 	C 	0.5997	0.7125	0.9704	0.081
Mof_H 	H 	0.6193	0.7463	0.9301	-0.013
Mof_C 	C 	0.5559	0.6087	0.9514	-0.143
Mof_H 	H 	0.5477	0.574	0.9002	0.077
Mof_C 	C 	0.5241	0.5561	0.0085	0.056
Mof_C 	C 	0.5358	0.6161	0.081	-0.142
Mof_H 	H 	0.5124	0.5869	0.1205	0.076
Mof_C 	C 	0.5817	0.7187	0.095	0.078
Mof_H 	H 	0.5892	0.7562	0.1451	-0.001
Mof_O 	O 	0.5949	0.9724	0.942	-0.515
Mof_O 	O 	0.5715	0.0974	0.8397	-0.466
Mof_O 	O 	0.9954	0.9843	0.1247	-0.449
Mof_O 	O 	0.8243	0.8934	0.0821	-0.427
Mof_O 	O 	0.861	0.0149	0.9756	-0.492
Mof_O 	O 	0.7916	0.0872	0.2799	-0.472
Mof_O 	O 	0.6674	0.9531	0.1753	-0.456
Mof_O 	O 	0.6045	0.1095	0.2426	-0.445
Mof_Zn	Zn	0.89368	0.06245	0.39091	1.218
Mof_Zn	Zn	0.31876	0.92414	0.43504	1.215
Mof_P 	P 	0.11709	0.99351	0.43073	0.452
Mof_P 	P 	0.314	0.07122	0.28793	0.467
Mof_N 	N 	0.2792	0.1087	0.432	-0.077
Mof_N 	N 	0.937	0.2216	0.4326	-0.264
Mof_N 	N 	0.3839	0.7679	0.4576	-0.262
Mof_C 	C 	0.3904	0.0666	0.5835	0.428
Mof_C 	C 	0.3256	0.1612	0.3778	-0.299
Mof_H 	H 	0.3967	0.1759	0.412	0.114
Mof_H 	H 	0.2924	0.2318	0.3563	0.132
Mof_C 	C 	0.3218	0.1508	0.5206	-0.382
Mof_H 	H 	0.2667	0.17	0.5375	0.159
Mof_H 	H 	0.3601	0.2182	0.523	0.153
Mof_C 	C 	0.1655	0.1117	0.3928	-0.303
Mof_H 	H 	0.1413	0.1091	0.3308	0.123
Mof_H 	H 	0.1417	0.1803	0.4086	0.121
Mof_C 	C 	0.9157	0.3042	0.3723	-0.024
Mof_C 	C 	0.94	0.417	0.3956	-0.002
Mof_C 	C 	0.1291	0.6944	0.6056	0.05
Mof_C 	C 	0.107	0.5851	0.5788	-0.041
Mof_C 	C 	0.9866	0.4409	0.4858	0.039
Mof_C 	C 	0.0334	0.353	0.5365	-0.14
Mof_H 	H 	0.0829	0.3653	0.5911	0.082
Mof_C 	C 	0.0083	0.2474	0.5076	0.094
Mof_H 	H 	0.0437	0.1893	0.5431	-0.024
Mof_C 	C 	0.4003	0.7125	0.5296	0.084
Mof_H 	H 	0.3807	0.7463	0.5699	-0.014
Mof_C 	C 	0.4441	0.6087	0.5486	-0.144
Mof_H 	H 	0.4523	0.574	0.5998	0.077
Mof_C 	C 	0.4759	0.5561	0.4915	0.056
Mof_C 	C 	0.4642	0.6161	0.419	-0.142
Mof_H 	H 	0.4876	0.5869	0.3795	0.077
Mof_C 	C 	0.4183	0.7187	0.405	0.078
Mof_H 	H 	0.4108	0.7562	0.3549	-0.001
Mof_O 	O 	0.4051	0.9724	0.558	-0.512
Mof_O 	O 	0.4285	0.0974	0.6603	-0.465
Mof_O 	O 	0.0046	0.9843	0.3753	-0.45
Mof_O 	O 	0.1757	0.8934	0.4179	-0.428
Mof_O 	O 	0.139	0.0149	0.5244	-0.492
Mof_O 	O 	0.2084	0.0872	0.2201	-0.472
Mof_O 	O 	0.3326	0.9531	0.3247	-0.457
Mof_O 	O 	0.3955	0.1095	0.2574	-0.445
Mof_Zn	Zn	0.5	0.0142	0.25	1.241
Mof_Zn	Zn	0.5	0.9858	0.75	1.241
_end
