data_functionalizedCrystal
_audit_creation_method	'EQeq! by Chris Wilmer'
_symmetry_space_group_name_H-M	'P1'
_symmetry_Int_Tables_number	1
_symmetry_cell_setting	triclinic
loop_
_symmetry_equiv_pos_as_xyz
  x,y,z
_cell_length_a	10.2089
_cell_length_b	11.479
_cell_length_c	11.6675
_cell_angle_alpha	112.685
_cell_angle_beta	103.952
_cell_angle_gamma	94.644
loop_
_atom_site_label
_atom_site_type_symbol
_atom_site_fract_x
_atom_site_fract_y
_atom_site_fract_z
_atom_site_charge
Mof_C 	C 	0.5069	0.2058	0.1598	-0.874
Mof_H 	H 	0.5965	0.2021	0.207	0.249
Mof_H 	H 	0.4378	0.1557	0.174	0.274
Mof_H 	H 	0.4949	0.2936	0.1896	0.27
Mof_C 	C 	0.4937	0.1522	0.0157	0.433
Mof_C 	C 	0.3665	0.1504	0.9309	-0.343
Mof_C 	C 	0.3455	0.1182	0.796	0.316
Mof_C 	C 	0.2157	0.1389	0.718	-0.765
Mof_H 	H 	0.2169	0.1128	0.6296	0.235
Mof_H 	H 	0.2105	0.2283	0.7546	0.237
Mof_H 	H 	0.1372	0.0886	0.7201	0.219
Mof_C 	C 	0.4325	0.0337	0.6034	0.07
Mof_C 	C 	0.4789	0.9046	0.5522	-0.132
Mof_H 	H 	0.571	0.9123	0.6054	0.044
Mof_H 	H 	0.418	0.8397	0.5588	0.042
Mof_C 	C 	0.5219	0.1379	0.5886	-0.14
Mof_H 	H 	0.487	0.2172	0.6166	0.053
Mof_H 	H 	0.6155	0.1544	0.6434	0.056
Mof_C 	C 	0.883	0.9985	0.791	-0.902
Mof_H 	H 	0.8193	0.0412	0.8328	0.277
Mof_H 	H 	0.8408	0.9582	0.6985	0.274
Mof_H 	H 	0.9639	0.0603	0.8113	0.263
Mof_C 	C 	0.9224	0.898	0.8384	0.467
Mof_C 	C 	0.0157	0.8242	0.788	-0.403
Mof_C 	C 	0.0403	0.7127	0.8084	0.329
Mof_C 	C 	0.1203	0.6246	0.7316	-0.776
Mof_H 	H 	0.1282	0.5539	0.7559	0.242
Mof_H 	H 	0.2105	0.6716	0.7498	0.223
Mof_H 	H 	0.0732	0.5923	0.6404	0.234
Mof_C 	C 	0.0042	0.5663	0.9148	0.067
Mof_C 	C 	0.1209	0.6022	0.041	-0.136
Mof_H 	H 	0.2072	0.6321	0.0309	0.055
Mof_H 	H 	0.1028	0.6715	0.1119	0.051
Mof_C 	C 	0.8675	0.5143	0.9265	-0.134
Mof_H 	H 	0.8426	0.5812	0.9943	0.055
Mof_H 	H 	0.7957	0.4896	0.8453	0.055
Mof_N 	N 	0.4379	0.0729	0.7396	-0.283
Mof_H 	H 	0.5111	0.0651	0.7889	0.145
Mof_N 	N 	0.9882	0.6792	0.8863	-0.282
Mof_H 	H 	0.9391	0.7291	0.925	0.152
Mof_O 	O 	0.5918	0.1114	0.9758	-0.412
Mof_O 	O 	0.8675	0.8814	0.918	-0.398
Mof_Ag	Ag	0.22681	0.96111	0.9192	0.593
Mof_C 	C 	0.4931	0.7942	0.8402	-0.874
Mof_H 	H 	0.4035	0.7979	0.793	0.249
Mof_H 	H 	0.5622	0.8443	0.826	0.274
Mof_H 	H 	0.5051	0.7064	0.8104	0.27
Mof_C 	C 	0.5063	0.8478	0.9843	0.433
Mof_C 	C 	0.6335	0.8496	0.0691	-0.343
Mof_C 	C 	0.6545	0.8818	0.204	0.316
Mof_C 	C 	0.7843	0.8611	0.282	-0.765
Mof_H 	H 	0.7831	0.8872	0.3704	0.235
Mof_H 	H 	0.7895	0.7717	0.2454	0.237
Mof_H 	H 	0.8628	0.9114	0.2799	0.219
Mof_C 	C 	0.5675	0.9663	0.3966	0.07
Mof_C 	C 	0.5211	0.0954	0.4478	-0.132
Mof_H 	H 	0.429	0.0877	0.3946	0.044
Mof_H 	H 	0.582	0.1603	0.4412	0.042
Mof_C 	C 	0.4781	0.8621	0.4114	-0.14
Mof_H 	H 	0.513	0.7828	0.3834	0.053
Mof_H 	H 	0.3845	0.8456	0.3566	0.056
Mof_C 	C 	0.117	0.0015	0.209	-0.902
Mof_H 	H 	0.1807	0.9588	0.1672	0.277
Mof_H 	H 	0.1592	0.0418	0.3015	0.274
Mof_H 	H 	0.0361	0.9397	0.1887	0.263
Mof_C 	C 	0.0776	0.102	0.1616	0.467
Mof_C 	C 	0.9843	0.1758	0.212	-0.403
Mof_C 	C 	0.9597	0.2873	0.1916	0.329
Mof_C 	C 	0.8797	0.3754	0.2684	-0.776
Mof_H 	H 	0.8718	0.4461	0.2441	0.242
Mof_H 	H 	0.7895	0.3284	0.2502	0.223
Mof_H 	H 	0.9268	0.4077	0.3596	0.234
Mof_C 	C 	0.9958	0.4337	0.0852	0.067
Mof_C 	C 	0.8791	0.3978	0.959	-0.136
Mof_H 	H 	0.7928	0.3679	0.9691	0.055
Mof_H 	H 	0.8972	0.3285	0.8881	0.051
Mof_C 	C 	0.1325	0.4857	0.0735	-0.134
Mof_H 	H 	0.1574	0.4188	0.0057	0.055
Mof_H 	H 	0.2043	0.5104	0.1547	0.055
Mof_N 	N 	0.5621	0.9271	0.2604	-0.283
Mof_H 	H 	0.4889	0.9349	0.2111	0.145
Mof_N 	N 	0.0118	0.3208	0.1137	-0.282
Mof_H 	H 	0.0609	0.2709	0.075	0.152
Mof_O 	O 	0.4082	0.8886	0.0242	-0.412
Mof_O 	O 	0.1325	0.1186	0.082	-0.398
Mof_Ag	Ag	0.77319	0.03889	0.0808	0.593
_end
