data_functionalizedCrystal
_audit_creation_method	'EQeq! by Chris Wilmer'
_symmetry_space_group_name_H-M	'P1'
_symmetry_Int_Tables_number	1
_symmetry_cell_setting	triclinic
loop_
_symmetry_equiv_pos_as_xyz
  x,y,z
_cell_length_a	11.738
_cell_length_b	16.5818
_cell_length_c	11.5785
_cell_angle_alpha	90
_cell_angle_beta	113.514
_cell_angle_gamma	90
loop_
_atom_site_label
_atom_site_type_symbol
_atom_site_fract_x
_atom_site_fract_y
_atom_site_fract_z
_atom_site_charge
Mof_Nd	Nd	0.30994	0.53407	0.42474	2.619
Mof_S 	S 	0.9805	0.3006	0.21143	0.062
Mof_O 	O 	0.4606	0.6379	0.4447	-0.609
Mof_O 	O 	0.1477	0.4457	0.2647	-0.436
Mof_O 	O 	0.1104	0.4916	0.4268	-0.459
Mof_C 	C 	0.6778	0.8314	0.328	-0.008
Mof_H 	H 	0.742	0.861	0.3213	0.047
Mof_C 	C 	0.8774	0.2837	0.3683	-0.014
Mof_H 	H 	0.8323	0.2622	0.4113	0.06
Mof_C 	C 	0.9434	0.3583	0.4003	-0.02
Mof_H 	H 	0.9437	0.3924	0.4642	0.065
Mof_C 	C 	0.0067	0.3734	0.3244	-0.055
Mof_C 	C 	0.0929	0.442	0.3396	0.297
Mof_C 	C 	0.8885	0.2474	0.2666	-0.07
Mof_C 	C 	0.5531	0.8535	0.2732	-0.137
Mof_C 	C 	0.6942	0.7589	0.3946	0.026
Mof_H 	H 	0.7717	0.7355	0.4378	0.036
Mof_C 	C 	0.5869	0.7259	0.3905	-0.162
Mof_O 	O 	0.8135	0.1602	0.0929	-0.451
Mof_O 	O 	0.3781	0.9274	0.1477	-0.522
Mof_O 	O 	0.6558	0.5997	0.4835	-0.579
Mof_O 	O 	0.7876	0.1224	0.2667	-0.441
Mof_C 	C 	0.5652	0.649	0.4459	0.531
Mof_C 	C 	0.8258	0.172	0.2056	0.3
Mof_C 	C 	0.4943	0.9229	0.1913	0.456
Mof_S 	S 	0.46058	0.78384	0.30356	0.108
Mof_O 	O 	0.5632	0.9741	0.1679	-0.624
Mof_Nd	Nd	0.69006	0.03407	0.07526	2.572
Mof_S 	S 	0.0195	0.8006	0.28857	0.064
Mof_O 	O 	0.5394	0.1379	0.0553	-0.605
Mof_O 	O 	0.8523	0.9457	0.2353	-0.428
Mof_O 	O 	0.8896	0.9916	0.0732	-0.447
Mof_C 	C 	0.3222	0.3314	0.172	-0.007
Mof_H 	H 	0.258	0.361	0.1787	0.045
Mof_C 	C 	0.1226	0.7837	0.1317	-0.013
Mof_H 	H 	0.1677	0.7622	0.0887	0.062
Mof_C 	C 	0.0566	0.8583	0.0997	-0.021
Mof_H 	H 	0.0563	0.8924	0.0358	0.067
Mof_C 	C 	0.9933	0.8734	0.1756	-0.053
Mof_C 	C 	0.9071	0.942	0.1604	0.297
Mof_C 	C 	0.1115	0.7474	0.2334	-0.069
Mof_C 	C 	0.4469	0.3535	0.2268	-0.14
Mof_C 	C 	0.3058	0.2589	0.1054	0.025
Mof_H 	H 	0.2283	0.2355	0.0622	0.035
Mof_C 	C 	0.4131	0.2259	0.1095	-0.161
Mof_O 	O 	0.1865	0.6602	0.4071	-0.449
Mof_O 	O 	0.6219	0.4274	0.3523	-0.531
Mof_O 	O 	0.3442	0.0997	0.0165	-0.577
Mof_O 	O 	0.2124	0.6224	0.2333	-0.44
Mof_C 	C 	0.4348	0.149	0.0541	0.527
Mof_C 	C 	0.1742	0.672	0.2944	0.299
Mof_C 	C 	0.5057	0.4229	0.3087	0.46
Mof_S 	S 	0.53942	0.28384	0.19644	0.106
Mof_O 	O 	0.4368	0.4741	0.3321	-0.638
Mof_Nd	Nd	0.69006	0.46593	0.57526	2.619
Mof_S 	S 	0.0195	0.6994	0.78857	0.062
Mof_O 	O 	0.5394	0.3621	0.5553	-0.609
Mof_O 	O 	0.8523	0.5543	0.7353	-0.436
Mof_O 	O 	0.8896	0.5084	0.5732	-0.459
Mof_C 	C 	0.3222	0.1686	0.672	-0.008
Mof_H 	H 	0.258	0.139	0.6787	0.047
Mof_C 	C 	0.1226	0.7163	0.6317	-0.014
Mof_H 	H 	0.1677	0.7378	0.5887	0.06
Mof_C 	C 	0.0566	0.6417	0.5997	-0.02
Mof_H 	H 	0.0563	0.6076	0.5358	0.065
Mof_C 	C 	0.9933	0.6266	0.6756	-0.055
Mof_C 	C 	0.9071	0.558	0.6604	0.297
Mof_C 	C 	0.1115	0.7526	0.7334	-0.07
Mof_C 	C 	0.4469	0.1465	0.7268	-0.137
Mof_C 	C 	0.3058	0.2411	0.6054	0.026
Mof_H 	H 	0.2283	0.2645	0.5622	0.036
Mof_C 	C 	0.4131	0.2741	0.6095	-0.162
Mof_O 	O 	0.1865	0.8398	0.9071	-0.451
Mof_O 	O 	0.6219	0.0726	0.8523	-0.522
Mof_O 	O 	0.3442	0.4003	0.5165	-0.579
Mof_O 	O 	0.2124	0.8776	0.7333	-0.441
Mof_C 	C 	0.4348	0.351	0.5541	0.531
Mof_C 	C 	0.1742	0.828	0.7944	0.3
Mof_C 	C 	0.5057	0.0771	0.8087	0.456
Mof_S 	S 	0.53942	0.21616	0.69644	0.108
Mof_O 	O 	0.4368	0.0259	0.8321	-0.624
Mof_Nd	Nd	0.30994	0.96593	0.92474	2.572
Mof_S 	S 	0.9805	0.1994	0.71143	0.064
Mof_O 	O 	0.4606	0.8621	0.9447	-0.605
Mof_O 	O 	0.1477	0.0543	0.7647	-0.428
Mof_O 	O 	0.1104	0.0084	0.9268	-0.447
Mof_C 	C 	0.6778	0.6686	0.828	-0.007
Mof_H 	H 	0.742	0.639	0.8213	0.045
Mof_C 	C 	0.8774	0.2163	0.8683	-0.013
Mof_H 	H 	0.8323	0.2378	0.9113	0.062
Mof_C 	C 	0.9434	0.1417	0.9003	-0.021
Mof_H 	H 	0.9437	0.1076	0.9642	0.067
Mof_C 	C 	0.0067	0.1266	0.8244	-0.053
Mof_C 	C 	0.0929	0.058	0.8396	0.297
Mof_C 	C 	0.8885	0.2526	0.7666	-0.069
Mof_C 	C 	0.5531	0.6465	0.7732	-0.14
Mof_C 	C 	0.6942	0.7411	0.8946	0.025
Mof_H 	H 	0.7717	0.7645	0.9378	0.035
Mof_C 	C 	0.5869	0.7741	0.8905	-0.161
Mof_O 	O 	0.8135	0.3398	0.5929	-0.449
Mof_O 	O 	0.3781	0.5726	0.6477	-0.531
Mof_O 	O 	0.6558	0.9003	0.9835	-0.577
Mof_O 	O 	0.7876	0.3776	0.7667	-0.44
Mof_C 	C 	0.5652	0.851	0.9459	0.527
Mof_C 	C 	0.8258	0.328	0.7056	0.299
Mof_C 	C 	0.4943	0.5771	0.6913	0.46
Mof_S 	S 	0.46058	0.71616	0.80356	0.106
Mof_O 	O 	0.5632	0.5259	0.6679	-0.638
_end
