data_functionalizedCrystal
_audit_creation_method	'EQeq! by Chris Wilmer'
_symmetry_space_group_name_H-M	'P1'
_symmetry_Int_Tables_number	1
_symmetry_cell_setting	triclinic
loop_
_symmetry_equiv_pos_as_xyz
  x,y,z
_cell_length_a	7.8103
_cell_length_b	15.217
_cell_length_c	16.61
_cell_angle_alpha	111.145
_cell_angle_beta	91.219
_cell_angle_gamma	96.167
loop_
_atom_site_label
_atom_site_type_symbol
_atom_site_fract_x
_atom_site_fract_y
_atom_site_fract_z
_atom_site_charge
Mof_Cu	Cu	0.3861	0.54954	0.54922	0.913
Mof_O 	O 	0.5493	0.55	0.6414	-0.393
Mof_O 	O 	0.5351	0.6552	0.5352	-0.4
Mof_O 	O 	0.7464	0.4675	0.5592	-0.385
Mof_O 	O 	0.7289	0.5742	0.453	-0.389
Mof_N 	N 	0.2265	0.6419	0.6376	-0.175
Mof_C 	C 	0.2787	0.6902	0.7245	0.043
Mof_H 	H 	0.39	0.6857	0.7457	0.024
Mof_C 	C 	0.1681	0.7451	0.7802	-0.091
Mof_H 	H 	0.2038	0.7781	0.8395	0.048
Mof_C 	C 	0.0053	0.7517	0.749	0.033
Mof_C 	C 	0.9531	0.7034	0.6622	-0.089
Mof_H 	H 	0.8418	0.708	0.6409	0.075
Mof_C 	C 	0.0637	0.6485	0.6065	0.044
Mof_H 	H 	0.028	0.6155	0.5472	0.034
Mof_N 	N 	0.6544	0.9175	0.9199	-0.242
Mof_C 	C 	0.6236	0.8882	0.8308	0.057
Mof_H 	H 	0.525	0.9047	0.8075	-0.003
Mof_C 	C 	0.7369	0.8349	0.7757	-0.119
Mof_H 	H 	0.7159	0.8149	0.7148	0.084
Mof_C 	C 	0.8811	0.8109	0.8098	0.068
Mof_C 	C 	0.9119	0.8402	0.8989	-0.141
Mof_H 	H 	0.0104	0.8237	0.9221	0.075
Mof_C 	C 	0.7985	0.8935	0.9539	0.114
Mof_H 	H 	0.8196	0.9135	0.0148	-0.054
Mof_C 	C 	0.688	0.5114	0.6311	0.324
Mof_C 	C 	0.7912	0.5211	0.7118	-0.032
Mof_C 	C 	0.9588	0.4978	0.709	-0.036
Mof_H 	H 	0.0088	0.4729	0.655	0.07
Mof_C 	C 	0.0532	0.5108	0.7852	-0
Mof_H 	H 	0.1677	0.4949	0.7832	0.046
Mof_C 	C 	0.98	0.5472	0.8642	-0.089
Mof_H 	H 	0.0445	0.5562	0.9163	0.082
Mof_C 	C 	0.8124	0.5706	0.867	0.077
Mof_C 	C 	0.718	0.5575	0.7908	-0.068
Mof_H 	H 	0.6034	0.5734	0.7928	0.077
Mof_I 	I 	0.6835	0.6366	0.987	-0.036
Mof_I 	I 	0.7093	0.5976	0.9826	-0.057
Mof_C 	C 	0.667	0.6509	0.4916	0.339
Mof_C 	C 	0.771	0.744	0.502	-0.159
Mof_C 	C 	0.933	0.746	0.469	0.12
Mof_H 	H 	0.9701	0.6884	0.4318	0.024
Mof_C 	C 	0.039	0.831	0.49	-0.019
Mof_H 	H 	0.1492	0.8322	0.4666	0.076
Mof_C 	C 	0.984	0.915	0.544	-0.168
Mof_H 	H 	0.0568	0.9736	0.558	0.121
Mof_C 	C 	0.823	0.914	0.577	0.223
Mof_C 	C 	0.716	0.828	0.557	-0.256
Mof_H 	H 	0.606	0.8273	0.5796	0.079
Mof_I 	I 	0.748	0.0411	0.6638	-0.135
Mof_C 	C 	0.278	0.259	0.515	0.066
Mof_C 	C 	0.13	0.252	0.558	-0.188
Mof_H 	H 	0.0675	0.3049	0.5798	0.018
Mof_C 	C 	0.072	0.167	0.568	-0.139
Mof_H 	H 	0.9704	0.1623	0.5972	0.111
Mof_C 	C 	0.163	0.089	0.535	0.048
Mof_H 	H 	0.1236	0.0314	0.5422	-0.031
Mof_C 	C 	0.312	0.096	0.492	-0.091
Mof_C 	C 	0.369	0.181	0.482	0.139
Mof_H 	H 	0.471	0.1858	0.4526	0.101
Mof_I 	I 	0.4338	0.9728	0.4451	-0.033
Mof_C 	C 	0.245	0.269	0.527	-0.026
Mof_C 	C 	0.083	0.269	0.559	0.088
Mof_H 	H 	0.022	0.3223	0.5706	-0.041
Mof_C 	C 	0.009	0.19	0.576	-0.04
Mof_C 	C 	0.098	0.112	0.559	0.177
Mof_H 	H 	0.0478	0.0578	0.5707	-0.045
Mof_C 	C 	0.26	0.112	0.527	-0.212
Mof_H 	H 	0.3209	0.0582	0.5155	0.163
Mof_C 	C 	0.334	0.19	0.51	0.224
Mof_H 	H 	0.4446	0.1906	0.4879	-0.175
Mof_I 	I 	0.7607	0.1877	0.6155	-0.134
Mof_Cu	Cu	0.6139	0.45046	0.45078	0.914
Mof_O 	O 	0.4507	0.45	0.3586	-0.393
Mof_O 	O 	0.4649	0.3448	0.4648	-0.4
Mof_O 	O 	0.2536	0.5325	0.4408	-0.384
Mof_O 	O 	0.2711	0.4258	0.547	-0.388
Mof_N 	N 	0.7735	0.3581	0.3624	-0.176
Mof_C 	C 	0.7213	0.3098	0.2755	0.042
Mof_H 	H 	0.61	0.3143	0.2543	0.022
Mof_C 	C 	0.8319	0.2549	0.2198	-0.099
Mof_H 	H 	0.7962	0.2219	0.1605	0.04
Mof_C 	C 	0.9947	0.2483	0.251	0.04
Mof_C 	C 	0.0469	0.2966	0.3378	-0.095
Mof_H 	H 	0.1582	0.292	0.3591	0.075
Mof_C 	C 	0.9363	0.3515	0.3935	0.044
Mof_H 	H 	0.972	0.3845	0.4528	0.033
Mof_N 	N 	0.3456	0.0825	0.0801	-0.242
Mof_C 	C 	0.3764	0.1118	0.1692	0.031
Mof_H 	H 	0.475	0.0953	0.1925	-0.015
Mof_C 	C 	0.2631	0.1651	0.2243	-0.1
Mof_H 	H 	0.2841	0.1851	0.2852	0.072
Mof_C 	C 	0.1189	0.1891	0.1902	0.028
Mof_C 	C 	0.0881	0.1598	0.1011	-0.068
Mof_H 	H 	0.9896	0.1763	0.0779	0.031
Mof_C 	C 	0.2015	0.1065	0.0461	-0.042
Mof_H 	H 	0.1804	0.0865	0.9852	0.032
Mof_C 	C 	0.312	0.4886	0.3689	0.324
Mof_C 	C 	0.2088	0.4789	0.2882	-0.035
Mof_C 	C 	0.0412	0.5022	0.291	-0.032
Mof_H 	H 	0.9912	0.5271	0.345	0.067
Mof_C 	C 	0.9468	0.4892	0.2148	-0.009
Mof_H 	H 	0.8323	0.5051	0.2168	0.043
Mof_C 	C 	0.02	0.4528	0.1358	-0.086
Mof_H 	H 	0.9555	0.4438	0.0837	0.066
Mof_C 	C 	0.1876	0.4294	0.133	0.074
Mof_C 	C 	0.282	0.4425	0.2092	-0.068
Mof_H 	H 	0.3966	0.4266	0.2072	0.075
Mof_I 	I 	0.3165	0.3634	0.013	-0.067
Mof_I 	I 	0.2907	0.4024	0.0174	-0.086
Mof_C 	C 	0.333	0.3491	0.5084	0.341
Mof_C 	C 	0.229	0.256	0.498	-0.128
Mof_C 	C 	0.067	0.254	0.531	0.171
Mof_H 	H 	0.0299	0.3116	0.5682	0.023
Mof_C 	C 	0.961	0.169	0.51	-0.034
Mof_H 	H 	0.8508	0.1678	0.5334	0.08
Mof_C 	C 	0.016	0.085	0.456	-0.133
Mof_H 	H 	0.9432	0.0264	0.442	0.065
Mof_C 	C 	0.177	0.086	0.423	0.153
Mof_C 	C 	0.284	0.172	0.443	-0.254
Mof_H 	H 	0.394	0.1727	0.4204	0.062
Mof_I 	I 	0.252	0.9589	0.3362	-0.092
Mof_C 	C 	0.722	0.741	0.485	0.08
Mof_C 	C 	0.87	0.748	0.442	-0.152
Mof_H 	H 	0.9325	0.6951	0.4202	0.004
Mof_C 	C 	0.928	0.833	0.432	-0.158
Mof_H 	H 	0.0296	0.8377	0.4028	0.086
Mof_C 	C 	0.837	0.911	0.465	0.081
Mof_H 	H 	0.8764	0.9686	0.4578	-0.014
Mof_C 	C 	0.688	0.904	0.508	-0.197
Mof_C 	C 	0.631	0.819	0.518	0.122
Mof_H 	H 	0.529	0.8142	0.5474	0.091
Mof_I 	I 	0.5662	0.0272	0.5549	-0.127
Mof_C 	C 	0.755	0.731	0.473	-0.011
Mof_C 	C 	0.917	0.731	0.441	0.084
Mof_H 	H 	0.978	0.6777	0.4294	-0.023
Mof_C 	C 	0.991	0.81	0.424	0.038
Mof_C 	C 	0.902	0.888	0.441	0.088
Mof_H 	H 	0.9522	0.9422	0.4293	0.001
Mof_C 	C 	0.74	0.888	0.473	-0.133
Mof_H 	H 	0.6791	0.9418	0.4845	0.204
Mof_C 	C 	0.666	0.81	0.49	0.23
Mof_H 	H 	0.5554	0.8094	0.5121	-0.152
Mof_I 	I 	0.2393	0.8123	0.3845	-0.151
Mof_Cu	Cu	0.5	0	-0	0.773
_end
