data_functionalizedCrystal
_audit_creation_method	'EQeq! by Chris Wilmer'
_symmetry_space_group_name_H-M	'P1'
_symmetry_Int_Tables_number	1
_symmetry_cell_setting	triclinic
loop_
_symmetry_equiv_pos_as_xyz
  x,y,z
_cell_length_a	14.2437
_cell_length_b	25.8296
_cell_length_c	27.8391
_cell_angle_alpha	90
_cell_angle_beta	97.592
_cell_angle_gamma	90
loop_
_atom_site_label
_atom_site_type_symbol
_atom_site_fract_x
_atom_site_fract_y
_atom_site_fract_z
_atom_site_charge
Mof_Eu	Eu	0.52224	0.58486	0.78094	1.63
Mof_Ag	Ag	0.07392	0.5202	0.92649	0.473
Mof_Ag	Ag	0.91786	0.61498	0.46745	0.521
Mof_Ag	Ag	0.01572	0.26053	0.81619	0.494
Mof_N 	N 	0.7094	0.58689	0.78529	-0.141
Mof_N 	N 	0.6134	0.51418	0.82851	-0.256
Mof_N 	N 	0.7171	0.45031	0.82428	-0.136
Mof_N 	N 	0.0151	0.4504	0.8934	-0.194
Mof_N 	N 	0.5894	0.57692	0.70225	-0.256
Mof_N 	N 	0.6808	0.61705	0.65413	-0.134
Mof_N 	N 	0.9056	0.6022	0.54798	-0.181
Mof_N 	N 	0.6075	0.66295	0.81972	-0.254
Mof_N 	N 	0.7108	0.68269	0.88448	-0.134
Mof_N 	N 	0.9272	0.8071	0.92849	-0.177
Mof_N 	N 	0.334	0.58438	0.77409	-0.138
Mof_N 	N 	0.4375	0.50088	0.75496	-0.251
Mof_N 	N 	0.3495	0.44189	0.7867	-0.135
Mof_N 	N 	0.0871	0.323	0.7802	-0.188
Mof_N 	N 	0.434	0.64984	0.72481	-0.252
Mof_N 	N 	0.3342	0.64916	0.6552	-0.134
Mof_N 	N 	0.0498	0.7163	0.6313	-0.187
Mof_N 	N 	0.4489	0.60177	0.85678	-0.254
Mof_N 	N 	0.3546	0.65773	0.889	-0.134
Mof_N 	N 	0.1185	0.5982	0.9449	-0.191
Mof_N 	N 	0.0576	0.5636	0.4646	-0.244
Mof_C 	C 	0.7445	0.5337	0.7814	-0.164
Mof_H 	H 	0.8133	0.5323	0.7929	0.068
Mof_H 	H 	0.7343	0.5222	0.7472	0.062
Mof_C 	C 	0.6924	0.4991	0.81154	0.117
Mof_C 	C 	0.5857	0.4713	0.85398	0.051
Mof_C 	C 	0.5081	0.4653	0.8792	-0.088
Mof_H 	H 	0.4652	0.4929	0.8822	0.04
Mof_C 	C 	0.4964	0.417	0.8997	-0.028
Mof_H 	H 	0.4437	0.4112	0.9167	0.03
Mof_C 	C 	0.5616	0.3767	0.8958	-0.026
Mof_H 	H 	0.5514	0.3441	0.9102	0.034
Mof_C 	C 	0.6385	0.3829	0.8721	-0.083
Mof_H 	H 	0.6822	0.3555	0.8698	0.058
Mof_C 	C 	0.6504	0.4316	0.85124	0.051
Mof_C 	C 	0.7934	0.4202	0.8072	-0.075
Mof_H 	H 	0.8122	0.4374	0.7781	0.043
Mof_H 	H 	0.7685	0.3855	0.7971	0.046
Mof_C 	C 	0.8815	0.4133	0.8443	0.007
Mof_C 	C 	0.9092	0.3657	0.8609	-0.046
Mof_H 	H 	0.8729	0.3359	0.8505	0.021
Mof_C 	C 	0.9925	0.361	0.8936	-0.092
Mof_H 	H 	0.0131	0.3279	0.9056	0.034
Mof_C 	C 	0.0425	0.4031	0.9077	0.048
Mof_H 	H 	0.1002	0.3991	0.9287	-0.016
Mof_C 	C 	0.9341	0.4536	0.8619	-0.001
Mof_H 	H 	0.9131	0.4872	0.8515	0.006
Mof_C 	C 	0.7352	0.6181	0.74422	-0.162
Mof_H 	H 	0.8012	0.6106	0.7389	0.067
Mof_H 	H 	0.7301	0.6555	0.7513	0.058
Mof_C 	C 	0.6682	0.6039	0.7002	0.115
Mof_C 	C 	0.5477	0.5719	0.65423	0.055
Mof_C 	C 	0.4644	0.5475	0.6347	-0.095
Mof_H 	H 	0.4262	0.5294	0.6546	0.042
Mof_C 	C 	0.4391	0.5506	0.5847	-0.026
Mof_H 	H 	0.3826	0.5343	0.5702	0.02
Mof_C 	C 	0.4961	0.5775	0.5554	-0.035
Mof_H 	H 	0.476	0.5796	0.5216	0.027
Mof_C 	C 	0.5794	0.6007	0.574	-0.082
Mof_H 	H 	0.6183	0.6182	0.5541	0.049
Mof_C 	C 	0.6038	0.597	0.62404	0.047
Mof_C 	C 	0.7538	0.6514	0.6393	-0.065
Mof_H 	H 	0.7835	0.671	0.6679	0.028
Mof_H 	H 	0.7237	0.6766	0.6153	0.041
Mof_C 	C 	0.8297	0.6219	0.6175	-0.006
Mof_C 	C 	0.8949	0.5908	0.6454	-0.035
Mof_H 	H 	0.8927	0.5869	0.6791	0.027
Mof_C 	C 	0.9625	0.566	0.6235	-0.094
Mof_H 	H 	0.0061	0.5434	0.6418	0.046
Mof_C 	C 	0.9673	0.5736	0.5757	0.053
Mof_H 	H 	0.0172	0.5576	0.5616	-0.007
Mof_C 	C 	0.8386	0.6264	0.5693	0.002
Mof_H 	H 	0.7947	0.6479	0.5498	0.004
Mof_C 	C 	0.752	0.6098	0.8319	-0.164
Mof_H 	H 	0.7581	0.583	0.8576	0.058
Mof_H 	H 	0.8159	0.6233	0.8288	0.067
Mof_C 	C 	0.6904	0.6522	0.84485	0.118
Mof_C 	C 	0.5713	0.7042	0.8443	0.049
Mof_C 	C 	0.4876	0.7321	0.8332	-0.087
Mof_H 	H 	0.4458	0.7259	0.8042	0.04
Mof_C 	C 	0.4679	0.7694	0.8662	-0.026
Mof_H 	H 	0.4116	0.7894	0.8598	0.028
Mof_C 	C 	0.5292	0.778	0.9087	-0.029
Mof_H 	H 	0.5122	0.8029	0.9312	0.029
Mof_C 	C 	0.6139	0.7517	0.9193	-0.085
Mof_H 	H 	0.6558	0.7581	0.9482	0.051
Mof_C 	C 	0.6341	0.7159	0.8858	0.053
Mof_C 	C 	0.7953	0.6803	0.921	-0.072
Mof_H 	H 	0.8244	0.6456	0.9202	0.037
Mof_H 	H 	0.776	0.6852	0.9536	0.044
Mof_C 	C 	0.8678	0.7209	0.9128	0.008
Mof_C 	C 	0.9374	0.7115	0.8832	-0.043
Mof_H 	H 	0.9413	0.6789	0.8677	0.029
Mof_C 	C 	0.0007	0.7508	0.8769	-0.074
Mof_H 	H 	0.0488	0.7455	0.8568	0.039
Mof_C 	C 	0.9937	0.7972	0.8996	0.036
Mof_H 	H 	0.0378	0.8237	0.8948	-0.002
Mof_C 	C 	0.8673	0.7687	0.9352	0.004
Mof_H 	H 	0.8217	0.7745	0.9567	0.007
Mof_C 	C 	0.3018	0.5344	0.79158	-0.163
Mof_H 	H 	0.2354	0.528	0.7774	0.068
Mof_H 	H 	0.3044	0.5354	0.8273	0.058
Mof_C 	C 	0.3635	0.4921	0.77756	0.117
Mof_C 	C 	0.475	0.452	0.74755	0.05
Mof_C 	C 	0.5538	0.4372	0.7252	-0.091
Mof_H 	H 	0.59	0.4619	0.7103	0.042
Mof_C 	C 	0.576	0.3855	0.7259	-0.023
Mof_H 	H 	0.6281	0.3742	0.7105	0.027
Mof_C 	C 	0.5246	0.349	0.7483	-0.031
Mof_H 	H 	0.5444	0.3139	0.7491	0.036
Mof_C 	C 	0.4457	0.3622	0.7696	-0.079
Mof_H 	H 	0.4099	0.3371	0.7842	0.057
Mof_C 	C 	0.4216	0.4147	0.7683	0.049
Mof_C 	C 	0.2813	0.42	0.8166	-0.072
Mof_H 	H 	0.2568	0.4481	0.8357	0.036
Mof_H 	H 	0.3144	0.3948	0.8397	0.046
Mof_C 	C 	0.1978	0.393	0.7863	0.006
Mof_C 	C 	0.1543	0.4123	0.744	-0.037
Mof_H 	H 	0.1759	0.4434	0.731	0.035
Mof_C 	C 	0.076	0.3853	0.7196	-0.096
Mof_H 	H 	0.046	0.3968	0.689	0.046
Mof_C 	C 	0.0451	0.3428	0.7406	0.063
Mof_H 	H 	0.9891	0.3266	0.7255	-0.018
Mof_C 	C 	0.1657	0.3474	0.8023	0.001
Mof_H 	H 	0.1998	0.3319	0.8303	0.007
Mof_C 	C 	0.2951	0.5918	0.72241	-0.166
Mof_H 	H 	0.296	0.5586	0.7047	0.06
Mof_H 	H 	0.2288	0.6041	0.7198	0.069
Mof_C 	C 	0.3542	0.6306	0.7011	0.111
Mof_C 	C 	0.4679	0.6835	0.6913	0.046
Mof_C 	C 	0.5507	0.7136	0.6957	-0.089
Mof_H 	H 	0.5914	0.716	0.7255	0.041
Mof_C 	C 	0.5702	0.7395	0.655	-0.028
Mof_H 	H 	0.6258	0.7601	0.6566	0.026
Mof_C 	C 	0.509	0.736	0.611	-0.028
Mof_H 	H 	0.526	0.7535	0.5833	0.03
Mof_C 	C 	0.4251	0.7081	0.6063	-0.087
Mof_H 	H 	0.3832	0.7068	0.5768	0.057
Mof_C 	C 	0.4067	0.6824	0.6475	0.055
Mof_C 	C 	0.2602	0.6298	0.6185	-0.073
Mof_H 	H 	0.2376	0.5961	0.6296	0.041
Mof_H 	H 	0.2883	0.6233	0.5884	0.048
Mof_C 	C 	0.1758	0.665	0.6065	0.007
Mof_C 	C 	0.1401	0.6731	0.5588	-0.041
Mof_H 	H 	0.1705	0.6582	0.5337	0.03
Mof_C 	C 	0.0603	0.7029	0.5474	-0.088
Mof_H 	H 	0.0361	0.7098	0.5146	0.043
Mof_C 	C 	0.0171	0.7223	0.584	0.047
Mof_H 	H 	0.96	0.7412	0.5758	-0.013
Mof_C 	C 	0.1294	0.6869	0.641	0.004
Mof_H 	H 	0.1542	0.6814	0.674	0.011
Mof_C 	C 	0.3047	0.6271	0.80395	-0.166
Mof_H 	H 	0.2388	0.6215	0.8106	0.067
Mof_H 	H 	0.3072	0.6604	0.7865	0.06
Mof_C 	C 	0.3697	0.6287	0.85012	0.118
Mof_C 	C 	0.49	0.6143	0.90445	0.047
Mof_C 	C 	0.5746	0.5972	0.93079	-0.087
Mof_H 	H 	0.6137	0.5725	0.9179	0.039
Mof_C 	C 	0.5987	0.6181	0.9767	-0.029
Mof_H 	H 	0.6555	0.6073	0.9958	0.024
Mof_C 	C 	0.5404	0.6549	0.99539	-0.028
Mof_H 	H 	0.5602	0.6693	0.0265	0.029
Mof_C 	C 	0.4554	0.6707	0.97002	-0.085
Mof_H 	H 	0.4154	0.6949	0.9831	0.057
Mof_C 	C 	0.432	0.6494	0.92451	0.054
Mof_C 	C 	0.2764	0.6932	0.8941	-0.074
Mof_H 	H 	0.2406	0.7003	0.8618	0.04
Mof_H 	H 	0.3019	0.7264	0.9079	0.048
Mof_C 	C 	0.2106	0.6701	0.9267	0.007
Mof_C 	C 	0.1867	0.6961	0.9663	-0.04
Mof_H 	H 	0.2111	0.7298	0.974	0.037
Mof_C 	C 	0.1269	0.6728	0.9949	-0.079
Mof_H 	H 	0.1081	0.6905	0.022	0.052
Mof_C 	C 	0.095	0.6239	0.9836	0.044
Mof_H 	H 	0.0549	0.6075	0.0037	-0.012
Mof_C 	C 	0.1742	0.6222	0.9174	0.008
Mof_H 	H 	0.1894	0.6047	0.8894	0.005
Mof_C 	C 	0.126	0.5414	0.4678	0.222
Mof_C 	C 	0.2156	0.5133	0.4702	-0.603
Mof_H 	H 	0.2186	0.4869	0.4957	0.175
Mof_H 	H 	0.2685	0.5375	0.4776	0.187
Mof_H 	H 	0.2198	0.4965	0.439	0.195
Mof_Eu	Eu	0.47776	0.08486	0.71906	1.63
Mof_Ag	Ag	0.92608	0.0202	0.57351	0.475
Mof_Ag	Ag	0.08214	0.11498	0.03255	0.522
Mof_Ag	Ag	0.98428	0.76053	0.68381	0.495
Mof_N 	N 	0.2906	0.08689	0.71471	-0.14
Mof_N 	N 	0.3866	0.01418	0.67149	-0.255
Mof_N 	N 	0.2829	0.95031	0.67572	-0.135
Mof_N 	N 	0.9849	0.9504	0.6066	-0.193
Mof_N 	N 	0.4106	0.07692	0.79775	-0.255
Mof_N 	N 	0.3192	0.11705	0.84587	-0.133
Mof_N 	N 	0.0944	0.1022	0.95202	-0.18
Mof_N 	N 	0.3925	0.16295	0.68028	-0.253
Mof_N 	N 	0.2892	0.18269	0.61552	-0.134
Mof_N 	N 	0.0728	0.3071	0.57151	-0.177
Mof_N 	N 	0.666	0.08438	0.72591	-0.138
Mof_N 	N 	0.5625	0.00088	0.74504	-0.251
Mof_N 	N 	0.6505	0.94189	0.7133	-0.135
Mof_N 	N 	0.9129	0.823	0.7198	-0.188
Mof_N 	N 	0.566	0.14984	0.77519	-0.252
Mof_N 	N 	0.6658	0.14916	0.8448	-0.134
Mof_N 	N 	0.9502	0.2163	0.8687	-0.187
Mof_N 	N 	0.5511	0.10177	0.64322	-0.254
Mof_N 	N 	0.6454	0.15773	0.611	-0.134
Mof_N 	N 	0.8815	0.0982	0.5551	-0.191
Mof_N 	N 	0.9424	0.0636	0.0354	-0.243
Mof_C 	C 	0.2555	0.0337	0.7186	-0.165
Mof_H 	H 	0.1867	0.0323	0.7071	0.068
Mof_H 	H 	0.2657	0.0222	0.7528	0.062
Mof_C 	C 	0.3076	0.9991	0.68846	0.117
Mof_C 	C 	0.4143	0.9713	0.64602	0.051
Mof_C 	C 	0.4919	0.9653	0.6208	-0.088
Mof_H 	H 	0.5348	0.9929	0.6178	0.04
Mof_C 	C 	0.5036	0.917	0.6003	-0.028
Mof_H 	H 	0.5563	0.9112	0.5833	0.03
Mof_C 	C 	0.4384	0.8767	0.6042	-0.026
Mof_H 	H 	0.4486	0.8441	0.5898	0.034
Mof_C 	C 	0.3615	0.8829	0.6279	-0.083
Mof_H 	H 	0.3178	0.8555	0.6302	0.058
Mof_C 	C 	0.3496	0.9316	0.64876	0.051
Mof_C 	C 	0.2066	0.9202	0.6928	-0.075
Mof_H 	H 	0.1878	0.9374	0.7219	0.043
Mof_H 	H 	0.2315	0.8855	0.7029	0.047
Mof_C 	C 	0.1185	0.9133	0.6557	0.007
Mof_C 	C 	0.0908	0.8657	0.6391	-0.047
Mof_H 	H 	0.1271	0.8359	0.6495	0.022
Mof_C 	C 	0.0075	0.861	0.6064	-0.089
Mof_H 	H 	0.9869	0.8279	0.5944	0.033
Mof_C 	C 	0.9575	0.9031	0.5923	0.045
Mof_H 	H 	0.8998	0.8991	0.5713	-0.016
Mof_C 	C 	0.0659	0.9536	0.6381	-0.001
Mof_H 	H 	0.0869	0.9872	0.6485	0.006
Mof_C 	C 	0.2648	0.1181	0.75578	-0.162
Mof_H 	H 	0.1988	0.1106	0.7611	0.067
Mof_H 	H 	0.2699	0.1555	0.7487	0.058
Mof_C 	C 	0.3318	0.1039	0.7998	0.115
Mof_C 	C 	0.4523	0.0719	0.84577	0.055
Mof_C 	C 	0.5356	0.0475	0.8653	-0.095
Mof_H 	H 	0.5738	0.0294	0.8454	0.042
Mof_C 	C 	0.5609	0.0506	0.9153	-0.026
Mof_H 	H 	0.6174	0.0343	0.9298	0.02
Mof_C 	C 	0.5039	0.0775	0.9446	-0.035
Mof_H 	H 	0.524	0.0796	0.9784	0.027
Mof_C 	C 	0.4206	0.1007	0.926	-0.082
Mof_H 	H 	0.3817	0.1182	0.9459	0.049
Mof_C 	C 	0.3962	0.097	0.87596	0.047
Mof_C 	C 	0.2462	0.1514	0.8607	-0.065
Mof_H 	H 	0.2165	0.171	0.8321	0.028
Mof_H 	H 	0.2763	0.1766	0.8847	0.041
Mof_C 	C 	0.1703	0.1219	0.8825	-0.006
Mof_C 	C 	0.1051	0.0908	0.8546	-0.034
Mof_H 	H 	0.1073	0.0869	0.8209	0.027
Mof_C 	C 	0.0375	0.066	0.8765	-0.095
Mof_H 	H 	0.9939	0.0434	0.8582	0.047
Mof_C 	C 	0.0327	0.0736	0.9243	0.053
Mof_H 	H 	0.9828	0.0576	0.9384	-0.006
Mof_C 	C 	0.1614	0.1264	0.9307	0.002
Mof_H 	H 	0.2053	0.1479	0.9502	0.004
Mof_C 	C 	0.248	0.1098	0.6681	-0.164
Mof_H 	H 	0.2419	0.083	0.6424	0.058
Mof_H 	H 	0.1841	0.1233	0.6712	0.067
Mof_C 	C 	0.3096	0.1522	0.65515	0.118
Mof_C 	C 	0.4287	0.2042	0.6557	0.049
Mof_C 	C 	0.5124	0.2321	0.6668	-0.087
Mof_H 	H 	0.5542	0.2259	0.6958	0.04
Mof_C 	C 	0.5321	0.2694	0.6338	-0.026
Mof_H 	H 	0.5884	0.2894	0.6402	0.028
Mof_C 	C 	0.4708	0.278	0.5913	-0.029
Mof_H 	H 	0.4878	0.3029	0.5688	0.029
Mof_C 	C 	0.3861	0.2517	0.5807	-0.085
Mof_H 	H 	0.3442	0.2581	0.5518	0.05
Mof_C 	C 	0.3659	0.2159	0.6142	0.053
Mof_C 	C 	0.2047	0.1803	0.579	-0.071
Mof_H 	H 	0.1756	0.1456	0.5798	0.037
Mof_H 	H 	0.224	0.1852	0.5464	0.044
Mof_C 	C 	0.1322	0.2209	0.5872	0.007
Mof_C 	C 	0.0626	0.2115	0.6168	-0.042
Mof_H 	H 	0.0587	0.1789	0.6323	0.029
Mof_C 	C 	0.9993	0.2508	0.6231	-0.076
Mof_H 	H 	0.9512	0.2455	0.6432	0.039
Mof_C 	C 	0.0063	0.2972	0.6004	0.037
Mof_H 	H 	0.9622	0.3237	0.6052	-0.003
Mof_C 	C 	0.1327	0.2687	0.5648	0.004
Mof_H 	H 	0.1783	0.2745	0.5433	0.007
Mof_C 	C 	0.6982	0.0344	0.70842	-0.163
Mof_H 	H 	0.7646	0.028	0.7226	0.068
Mof_H 	H 	0.6956	0.0354	0.6727	0.058
Mof_C 	C 	0.6365	0.9921	0.72244	0.116
Mof_C 	C 	0.525	0.952	0.75245	0.05
Mof_C 	C 	0.4462	0.9372	0.7748	-0.091
Mof_H 	H 	0.41	0.9619	0.7897	0.042
Mof_C 	C 	0.424	0.8855	0.7741	-0.023
Mof_H 	H 	0.3719	0.8742	0.7895	0.027
Mof_C 	C 	0.4754	0.849	0.7517	-0.031
Mof_H 	H 	0.4556	0.8139	0.7509	0.036
Mof_C 	C 	0.5543	0.8622	0.7304	-0.079
Mof_H 	H 	0.5901	0.8371	0.7158	0.057
Mof_C 	C 	0.5784	0.9147	0.7317	0.049
Mof_C 	C 	0.7187	0.92	0.6834	-0.072
Mof_H 	H 	0.7432	0.9481	0.6643	0.036
Mof_H 	H 	0.6856	0.8948	0.6603	0.046
Mof_C 	C 	0.8022	0.893	0.7137	0.006
Mof_C 	C 	0.8457	0.9123	0.756	-0.037
Mof_H 	H 	0.8241	0.9434	0.769	0.035
Mof_C 	C 	0.924	0.8853	0.7804	-0.095
Mof_H 	H 	0.954	0.8968	0.811	0.045
Mof_C 	C 	0.9549	0.8428	0.7594	0.062
Mof_H 	H 	0.0109	0.8266	0.7745	-0.018
Mof_C 	C 	0.8343	0.8474	0.6977	0.001
Mof_H 	H 	0.8002	0.8319	0.6697	0.007
Mof_C 	C 	0.7049	0.0918	0.77759	-0.166
Mof_H 	H 	0.704	0.0586	0.7953	0.06
Mof_H 	H 	0.7712	0.1041	0.7802	0.069
Mof_C 	C 	0.6458	0.1306	0.7989	0.111
Mof_C 	C 	0.5321	0.1835	0.8087	0.046
Mof_C 	C 	0.4493	0.2136	0.8043	-0.089
Mof_H 	H 	0.4086	0.216	0.7745	0.041
Mof_C 	C 	0.4298	0.2395	0.845	-0.028
Mof_H 	H 	0.3742	0.2601	0.8434	0.026
Mof_C 	C 	0.491	0.236	0.889	-0.028
Mof_H 	H 	0.474	0.2535	0.9167	0.03
Mof_C 	C 	0.5749	0.2081	0.8937	-0.087
Mof_H 	H 	0.6168	0.2068	0.9232	0.057
Mof_C 	C 	0.5933	0.1824	0.8525	0.055
Mof_C 	C 	0.7398	0.1298	0.8815	-0.073
Mof_H 	H 	0.7624	0.0961	0.8704	0.041
Mof_H 	H 	0.7117	0.1233	0.9116	0.048
Mof_C 	C 	0.8242	0.165	0.8935	0.007
Mof_C 	C 	0.8599	0.1731	0.9412	-0.041
Mof_H 	H 	0.8295	0.1582	0.9663	0.03
Mof_C 	C 	0.9397	0.2029	0.9526	-0.088
Mof_H 	H 	0.9639	0.2098	0.9854	0.043
Mof_C 	C 	0.9829	0.2223	0.916	0.047
Mof_H 	H 	0.04	0.2412	0.9242	-0.013
Mof_C 	C 	0.8706	0.1869	0.859	0.004
Mof_H 	H 	0.8458	0.1814	0.826	0.011
Mof_C 	C 	0.6953	0.1271	0.69605	-0.166
Mof_H 	H 	0.7612	0.1215	0.6894	0.067
Mof_H 	H 	0.6928	0.1604	0.7135	0.06
Mof_C 	C 	0.6303	0.1287	0.64988	0.118
Mof_C 	C 	0.51	0.1143	0.59555	0.047
Mof_C 	C 	0.4254	0.0972	0.56921	-0.087
Mof_H 	H 	0.3863	0.0725	0.5821	0.039
Mof_C 	C 	0.4013	0.1181	0.5233	-0.029
Mof_H 	H 	0.3445	0.1073	0.5042	0.024
Mof_C 	C 	0.4596	0.1549	0.50461	-0.028
Mof_H 	H 	0.4398	0.1693	0.4735	0.029
Mof_C 	C 	0.5446	0.1707	0.52998	-0.085
Mof_H 	H 	0.5846	0.1949	0.5169	0.057
Mof_C 	C 	0.568	0.1494	0.57549	0.053
Mof_C 	C 	0.7236	0.1932	0.6059	-0.074
Mof_H 	H 	0.7594	0.2003	0.6382	0.04
Mof_H 	H 	0.6981	0.2264	0.5921	0.048
Mof_C 	C 	0.7894	0.1701	0.5733	0.007
Mof_C 	C 	0.8133	0.1961	0.5337	-0.04
Mof_H 	H 	0.7889	0.2298	0.526	0.037
Mof_C 	C 	0.8731	0.1728	0.5051	-0.08
Mof_H 	H 	0.8919	0.1905	0.478	0.052
Mof_C 	C 	0.905	0.1239	0.5164	0.044
Mof_H 	H 	0.9451	0.1075	0.4963	-0.011
Mof_C 	C 	0.8258	0.1222	0.5826	0.009
Mof_H 	H 	0.8106	0.1047	0.6106	0.005
Mof_C 	C 	0.874	0.0414	0.0322	0.221
Mof_C 	C 	0.7844	0.0133	0.0298	-0.596
Mof_H 	H 	0.7814	0.9869	0.0043	0.173
Mof_H 	H 	0.7315	0.0375	0.0224	0.185
Mof_H 	H 	0.7802	0.9965	0.061	0.193
Mof_Eu	Eu	0.47776	0.41514	0.21906	1.631
Mof_Ag	Ag	0.92608	0.4798	0.07351	0.474
Mof_Ag	Ag	0.08214	0.38502	0.53255	0.522
Mof_Ag	Ag	0.98428	0.73947	0.18381	0.495
Mof_N 	N 	0.2906	0.41311	0.21471	-0.14
Mof_N 	N 	0.3866	0.48582	0.17149	-0.255
Mof_N 	N 	0.2829	0.54969	0.17572	-0.135
Mof_N 	N 	0.9849	0.5496	0.1066	-0.193
Mof_N 	N 	0.4106	0.42308	0.29775	-0.255
Mof_N 	N 	0.3192	0.38295	0.34587	-0.133
Mof_N 	N 	0.0944	0.3978	0.45202	-0.18
Mof_N 	N 	0.3925	0.33705	0.18028	-0.253
Mof_N 	N 	0.2892	0.31731	0.11552	-0.134
Mof_N 	N 	0.0728	0.1929	0.07151	-0.177
Mof_N 	N 	0.666	0.41562	0.22591	-0.138
Mof_N 	N 	0.5625	0.49912	0.24504	-0.251
Mof_N 	N 	0.6505	0.55811	0.2133	-0.135
Mof_N 	N 	0.9129	0.677	0.2198	-0.188
Mof_N 	N 	0.566	0.35016	0.27519	-0.252
Mof_N 	N 	0.6658	0.35084	0.3448	-0.134
Mof_N 	N 	0.9502	0.2837	0.3687	-0.187
Mof_N 	N 	0.5511	0.39823	0.14322	-0.254
Mof_N 	N 	0.6454	0.34227	0.111	-0.134
Mof_N 	N 	0.8815	0.4018	0.0551	-0.191
Mof_N 	N 	0.9424	0.4364	0.5354	-0.244
Mof_C 	C 	0.2555	0.4663	0.2186	-0.164
Mof_H 	H 	0.1867	0.4677	0.2071	0.068
Mof_H 	H 	0.2657	0.4778	0.2528	0.062
Mof_C 	C 	0.3076	0.5009	0.18846	0.117
Mof_C 	C 	0.4143	0.5287	0.14602	0.051
Mof_C 	C 	0.4919	0.5347	0.1208	-0.088
Mof_H 	H 	0.5348	0.5071	0.1178	0.04
Mof_C 	C 	0.5036	0.583	0.1003	-0.028
Mof_H 	H 	0.5563	0.5888	0.0833	0.03
Mof_C 	C 	0.4384	0.6233	0.1042	-0.026
Mof_H 	H 	0.4486	0.6559	0.0898	0.034
Mof_C 	C 	0.3615	0.6171	0.1279	-0.083
Mof_H 	H 	0.3178	0.6445	0.1302	0.058
Mof_C 	C 	0.3496	0.5684	0.14876	0.051
Mof_C 	C 	0.2066	0.5798	0.1928	-0.075
Mof_H 	H 	0.1878	0.5626	0.2219	0.043
Mof_H 	H 	0.2315	0.6145	0.2029	0.046
Mof_C 	C 	0.1185	0.5867	0.1557	0.007
Mof_C 	C 	0.0908	0.6343	0.1391	-0.046
Mof_H 	H 	0.1271	0.6641	0.1495	0.021
Mof_C 	C 	0.0075	0.639	0.1064	-0.092
Mof_H 	H 	0.9869	0.6721	0.0944	0.034
Mof_C 	C 	0.9575	0.5969	0.0923	0.048
Mof_H 	H 	0.8998	0.6009	0.0713	-0.016
Mof_C 	C 	0.0659	0.5464	0.1381	-0.001
Mof_H 	H 	0.0869	0.5128	0.1485	0.006
Mof_C 	C 	0.2648	0.3819	0.25578	-0.162
Mof_H 	H 	0.1988	0.3894	0.2611	0.067
Mof_H 	H 	0.2699	0.3445	0.2487	0.058
Mof_C 	C 	0.3318	0.3961	0.2998	0.115
Mof_C 	C 	0.4523	0.4281	0.34577	0.055
Mof_C 	C 	0.5356	0.4525	0.3653	-0.095
Mof_H 	H 	0.5738	0.4706	0.3454	0.042
Mof_C 	C 	0.5609	0.4494	0.4153	-0.026
Mof_H 	H 	0.6174	0.4657	0.4298	0.02
Mof_C 	C 	0.5039	0.4225	0.4446	-0.035
Mof_H 	H 	0.524	0.4204	0.4784	0.027
Mof_C 	C 	0.4206	0.3993	0.426	-0.082
Mof_H 	H 	0.3817	0.3818	0.4459	0.049
Mof_C 	C 	0.3962	0.403	0.37596	0.047
Mof_C 	C 	0.2462	0.3486	0.3607	-0.065
Mof_H 	H 	0.2165	0.329	0.3321	0.028
Mof_H 	H 	0.2763	0.3234	0.3847	0.041
Mof_C 	C 	0.1703	0.3781	0.3825	-0.006
Mof_C 	C 	0.1051	0.4092	0.3546	-0.035
Mof_H 	H 	0.1073	0.4131	0.3209	0.027
Mof_C 	C 	0.0375	0.434	0.3765	-0.094
Mof_H 	H 	0.9939	0.4566	0.3582	0.046
Mof_C 	C 	0.0327	0.4264	0.4243	0.053
Mof_H 	H 	0.9828	0.4424	0.4384	-0.007
Mof_C 	C 	0.1614	0.3736	0.4307	0.002
Mof_H 	H 	0.2053	0.3521	0.4502	0.004
Mof_C 	C 	0.248	0.3902	0.1681	-0.164
Mof_H 	H 	0.2419	0.417	0.1424	0.058
Mof_H 	H 	0.1841	0.3767	0.1712	0.067
Mof_C 	C 	0.3096	0.3478	0.15515	0.118
Mof_C 	C 	0.4287	0.2958	0.1557	0.049
Mof_C 	C 	0.5124	0.2679	0.1668	-0.087
Mof_H 	H 	0.5542	0.2741	0.1958	0.04
Mof_C 	C 	0.5321	0.2306	0.1338	-0.026
Mof_H 	H 	0.5884	0.2106	0.1402	0.028
Mof_C 	C 	0.4708	0.222	0.0913	-0.029
Mof_H 	H 	0.4878	0.1971	0.0688	0.029
Mof_C 	C 	0.3861	0.2483	0.0807	-0.085
Mof_H 	H 	0.3442	0.2419	0.0518	0.051
Mof_C 	C 	0.3659	0.2841	0.1142	0.053
Mof_C 	C 	0.2047	0.3197	0.079	-0.072
Mof_H 	H 	0.1756	0.3544	0.0798	0.037
Mof_H 	H 	0.224	0.3148	0.0464	0.044
Mof_C 	C 	0.1322	0.2791	0.0872	0.008
Mof_C 	C 	0.0626	0.2885	0.1168	-0.043
Mof_H 	H 	0.0587	0.3211	0.1323	0.029
Mof_C 	C 	0.9993	0.2492	0.1231	-0.074
Mof_H 	H 	0.9512	0.2545	0.1432	0.039
Mof_C 	C 	0.0063	0.2028	0.1004	0.036
Mof_H 	H 	0.9622	0.1763	0.1052	-0.002
Mof_C 	C 	0.1327	0.2313	0.0648	0.004
Mof_H 	H 	0.1783	0.2255	0.0433	0.007
Mof_C 	C 	0.6982	0.4656	0.20842	-0.163
Mof_H 	H 	0.7646	0.472	0.2226	0.068
Mof_H 	H 	0.6956	0.4646	0.1727	0.058
Mof_C 	C 	0.6365	0.5079	0.22244	0.117
Mof_C 	C 	0.525	0.548	0.25245	0.05
Mof_C 	C 	0.4462	0.5628	0.2748	-0.091
Mof_H 	H 	0.41	0.5381	0.2897	0.042
Mof_C 	C 	0.424	0.6145	0.2741	-0.023
Mof_H 	H 	0.3719	0.6258	0.2895	0.027
Mof_C 	C 	0.4754	0.651	0.2517	-0.031
Mof_H 	H 	0.4556	0.6861	0.2509	0.036
Mof_C 	C 	0.5543	0.6378	0.2304	-0.079
Mof_H 	H 	0.5901	0.6629	0.2158	0.057
Mof_C 	C 	0.5784	0.5853	0.2317	0.049
Mof_C 	C 	0.7187	0.58	0.1834	-0.072
Mof_H 	H 	0.7432	0.5519	0.1643	0.036
Mof_H 	H 	0.6856	0.6052	0.1603	0.046
Mof_C 	C 	0.8022	0.607	0.2137	0.006
Mof_C 	C 	0.8457	0.5877	0.256	-0.037
Mof_H 	H 	0.8241	0.5566	0.269	0.035
Mof_C 	C 	0.924	0.6147	0.2804	-0.096
Mof_H 	H 	0.954	0.6032	0.311	0.046
Mof_C 	C 	0.9549	0.6572	0.2594	0.063
Mof_H 	H 	0.0109	0.6734	0.2745	-0.018
Mof_C 	C 	0.8343	0.6526	0.1977	0.001
Mof_H 	H 	0.8002	0.6681	0.1697	0.007
Mof_C 	C 	0.7049	0.4082	0.27759	-0.166
Mof_H 	H 	0.704	0.4414	0.2953	0.06
Mof_H 	H 	0.7712	0.3959	0.2802	0.069
Mof_C 	C 	0.6458	0.3694	0.2989	0.111
Mof_C 	C 	0.5321	0.3165	0.3087	0.046
Mof_C 	C 	0.4493	0.2864	0.3043	-0.089
Mof_H 	H 	0.4086	0.284	0.2745	0.041
Mof_C 	C 	0.4298	0.2605	0.345	-0.028
Mof_H 	H 	0.3742	0.2399	0.3434	0.026
Mof_C 	C 	0.491	0.264	0.389	-0.028
Mof_H 	H 	0.474	0.2465	0.4167	0.03
Mof_C 	C 	0.5749	0.2919	0.3937	-0.087
Mof_H 	H 	0.6168	0.2932	0.4232	0.057
Mof_C 	C 	0.5933	0.3176	0.3525	0.055
Mof_C 	C 	0.7398	0.3702	0.3815	-0.073
Mof_H 	H 	0.7624	0.4039	0.3704	0.041
Mof_H 	H 	0.7117	0.3767	0.4116	0.048
Mof_C 	C 	0.8242	0.335	0.3935	0.007
Mof_C 	C 	0.8599	0.3269	0.4412	-0.041
Mof_H 	H 	0.8295	0.3418	0.4663	0.03
Mof_C 	C 	0.9397	0.2971	0.4526	-0.088
Mof_H 	H 	0.9639	0.2902	0.4854	0.043
Mof_C 	C 	0.9829	0.2777	0.416	0.047
Mof_H 	H 	0.04	0.2588	0.4242	-0.013
Mof_C 	C 	0.8706	0.3131	0.359	0.004
Mof_H 	H 	0.8458	0.3186	0.326	0.011
Mof_C 	C 	0.6953	0.3729	0.19605	-0.166
Mof_H 	H 	0.7612	0.3785	0.1894	0.067
Mof_H 	H 	0.6928	0.3396	0.2135	0.06
Mof_C 	C 	0.6303	0.3713	0.14988	0.118
Mof_C 	C 	0.51	0.3857	0.09555	0.047
Mof_C 	C 	0.4254	0.4028	0.06921	-0.087
Mof_H 	H 	0.3863	0.4275	0.0821	0.039
Mof_C 	C 	0.4013	0.3819	0.0233	-0.029
Mof_H 	H 	0.3445	0.3927	0.0042	0.024
Mof_C 	C 	0.4596	0.3451	0.00461	-0.028
Mof_H 	H 	0.4398	0.3307	0.9735	0.029
Mof_C 	C 	0.5446	0.3293	0.02998	-0.085
Mof_H 	H 	0.5846	0.3051	0.0169	0.057
Mof_C 	C 	0.568	0.3506	0.07549	0.054
Mof_C 	C 	0.7236	0.3068	0.1059	-0.074
Mof_H 	H 	0.7594	0.2997	0.1382	0.04
Mof_H 	H 	0.6981	0.2736	0.0921	0.048
Mof_C 	C 	0.7894	0.3299	0.0733	0.007
Mof_C 	C 	0.8133	0.3039	0.0337	-0.04
Mof_H 	H 	0.7889	0.2702	0.026	0.037
Mof_C 	C 	0.8731	0.3272	0.0051	-0.079
Mof_H 	H 	0.8919	0.3095	0.978	0.052
Mof_C 	C 	0.905	0.3761	0.0164	0.044
Mof_H 	H 	0.9451	0.3925	0.9963	-0.012
Mof_C 	C 	0.8258	0.3778	0.0826	0.008
Mof_H 	H 	0.8106	0.3953	0.1106	0.005
Mof_C 	C 	0.874	0.4586	0.5322	0.222
Mof_C 	C 	0.7844	0.4867	0.5298	-0.603
Mof_H 	H 	0.7814	0.5131	0.5043	0.175
Mof_H 	H 	0.7315	0.4625	0.5224	0.187
Mof_H 	H 	0.7802	0.5035	0.561	0.195
Mof_Eu	Eu	0.52224	0.91514	0.28094	1.63
Mof_Ag	Ag	0.07392	0.9798	0.42649	0.475
Mof_Ag	Ag	0.91786	0.88502	0.96745	0.522
Mof_Ag	Ag	0.01572	0.23947	0.31619	0.495
Mof_N 	N 	0.7094	0.91311	0.28529	-0.14
Mof_N 	N 	0.6134	0.98582	0.32851	-0.255
Mof_N 	N 	0.7171	0.04969	0.32428	-0.135
Mof_N 	N 	0.0151	0.0496	0.3934	-0.193
Mof_N 	N 	0.5894	0.92308	0.20225	-0.255
Mof_N 	N 	0.6808	0.88295	0.15413	-0.133
Mof_N 	N 	0.9056	0.8978	0.04798	-0.18
Mof_N 	N 	0.6075	0.83705	0.31972	-0.253
Mof_N 	N 	0.7108	0.81731	0.38448	-0.134
Mof_N 	N 	0.9272	0.6929	0.42849	-0.177
Mof_N 	N 	0.334	0.91562	0.27409	-0.138
Mof_N 	N 	0.4375	0.99912	0.25496	-0.251
Mof_N 	N 	0.3495	0.05811	0.2867	-0.135
Mof_N 	N 	0.0871	0.177	0.2802	-0.188
Mof_N 	N 	0.434	0.85016	0.22481	-0.252
Mof_N 	N 	0.3342	0.85084	0.1552	-0.134
Mof_N 	N 	0.0498	0.7837	0.1313	-0.187
Mof_N 	N 	0.4489	0.89823	0.35678	-0.254
Mof_N 	N 	0.3546	0.84227	0.389	-0.134
Mof_N 	N 	0.1185	0.9018	0.4449	-0.191
Mof_N 	N 	0.0576	0.9364	0.9646	-0.243
Mof_C 	C 	0.7445	0.9663	0.2814	-0.165
Mof_H 	H 	0.8133	0.9677	0.2929	0.068
Mof_H 	H 	0.7343	0.9778	0.2472	0.062
Mof_C 	C 	0.6924	0.0009	0.31154	0.117
Mof_C 	C 	0.5857	0.0287	0.35398	0.051
Mof_C 	C 	0.5081	0.0347	0.3792	-0.088
Mof_H 	H 	0.4652	0.0071	0.3822	0.04
Mof_C 	C 	0.4964	0.083	0.3997	-0.028
Mof_H 	H 	0.4437	0.0888	0.4167	0.03
Mof_C 	C 	0.5616	0.1233	0.3958	-0.026
Mof_H 	H 	0.5514	0.1559	0.4102	0.034
Mof_C 	C 	0.6385	0.1171	0.3721	-0.083
Mof_H 	H 	0.6822	0.1445	0.3698	0.058
Mof_C 	C 	0.6504	0.0684	0.35124	0.051
Mof_C 	C 	0.7934	0.0798	0.3072	-0.075
Mof_H 	H 	0.8122	0.0626	0.2781	0.043
Mof_H 	H 	0.7685	0.1145	0.2971	0.047
Mof_C 	C 	0.8815	0.0867	0.3443	0.007
Mof_C 	C 	0.9092	0.1343	0.3609	-0.047
Mof_H 	H 	0.8729	0.1641	0.3505	0.022
Mof_C 	C 	0.9925	0.139	0.3936	-0.089
Mof_H 	H 	0.0131	0.1721	0.4056	0.033
Mof_C 	C 	0.0425	0.0969	0.4077	0.045
Mof_H 	H 	0.1002	0.1009	0.4287	-0.016
Mof_C 	C 	0.9341	0.0464	0.3619	-0.001
Mof_H 	H 	0.9131	0.0128	0.3515	0.006
Mof_C 	C 	0.7352	0.8819	0.24422	-0.162
Mof_H 	H 	0.8012	0.8894	0.2389	0.067
Mof_H 	H 	0.7301	0.8445	0.2513	0.058
Mof_C 	C 	0.6682	0.8961	0.2002	0.115
Mof_C 	C 	0.5477	0.9281	0.15423	0.055
Mof_C 	C 	0.4644	0.9525	0.1347	-0.095
Mof_H 	H 	0.4262	0.9706	0.1546	0.042
Mof_C 	C 	0.4391	0.9494	0.0847	-0.026
Mof_H 	H 	0.3826	0.9657	0.0702	0.02
Mof_C 	C 	0.4961	0.9225	0.0554	-0.035
Mof_H 	H 	0.476	0.9204	0.0216	0.027
Mof_C 	C 	0.5794	0.8993	0.074	-0.082
Mof_H 	H 	0.6183	0.8818	0.0541	0.049
Mof_C 	C 	0.6038	0.903	0.12404	0.047
Mof_C 	C 	0.7538	0.8486	0.1393	-0.065
Mof_H 	H 	0.7835	0.829	0.1679	0.028
Mof_H 	H 	0.7237	0.8234	0.1153	0.041
Mof_C 	C 	0.8297	0.8781	0.1175	-0.006
Mof_C 	C 	0.8949	0.9092	0.1454	-0.034
Mof_H 	H 	0.8927	0.9131	0.1791	0.027
Mof_C 	C 	0.9625	0.934	0.1235	-0.095
Mof_H 	H 	0.0061	0.9566	0.1418	0.047
Mof_C 	C 	0.9673	0.9264	0.0757	0.053
Mof_H 	H 	0.0172	0.9424	0.0616	-0.006
Mof_C 	C 	0.8386	0.8736	0.0693	0.002
Mof_H 	H 	0.7947	0.8521	0.0498	0.004
Mof_C 	C 	0.752	0.8902	0.3319	-0.164
Mof_H 	H 	0.7581	0.917	0.3576	0.058
Mof_H 	H 	0.8159	0.8767	0.3288	0.067
Mof_C 	C 	0.6904	0.8478	0.34485	0.118
Mof_C 	C 	0.5713	0.7958	0.3443	0.049
Mof_C 	C 	0.4876	0.7679	0.3332	-0.087
Mof_H 	H 	0.4458	0.7741	0.3042	0.04
Mof_C 	C 	0.4679	0.7306	0.3662	-0.026
Mof_H 	H 	0.4116	0.7106	0.3598	0.028
Mof_C 	C 	0.5292	0.722	0.4087	-0.029
Mof_H 	H 	0.5122	0.6971	0.4312	0.029
Mof_C 	C 	0.6139	0.7483	0.4193	-0.085
Mof_H 	H 	0.6558	0.7419	0.4482	0.05
Mof_C 	C 	0.6341	0.7841	0.3858	0.053
Mof_C 	C 	0.7953	0.8197	0.421	-0.071
Mof_H 	H 	0.8244	0.8544	0.4202	0.037
Mof_H 	H 	0.776	0.8148	0.4536	0.044
Mof_C 	C 	0.8678	0.7791	0.4128	0.007
Mof_C 	C 	0.9374	0.7885	0.3832	-0.042
Mof_H 	H 	0.9413	0.8211	0.3677	0.029
Mof_C 	C 	0.0007	0.7492	0.3769	-0.076
Mof_H 	H 	0.0488	0.7545	0.3568	0.039
Mof_C 	C 	0.9937	0.7028	0.3996	0.037
Mof_H 	H 	0.0378	0.6763	0.3948	-0.003
Mof_C 	C 	0.8673	0.7313	0.4352	0.004
Mof_H 	H 	0.8217	0.7255	0.4567	0.007
Mof_C 	C 	0.3018	0.9656	0.29158	-0.163
Mof_H 	H 	0.2354	0.972	0.2774	0.068
Mof_H 	H 	0.3044	0.9646	0.3273	0.058
Mof_C 	C 	0.3635	0.0079	0.27756	0.116
Mof_C 	C 	0.475	0.048	0.24755	0.05
Mof_C 	C 	0.5538	0.0628	0.2252	-0.091
Mof_H 	H 	0.59	0.0381	0.2103	0.042
Mof_C 	C 	0.576	0.1145	0.2259	-0.023
Mof_H 	H 	0.6281	0.1258	0.2105	0.027
Mof_C 	C 	0.5246	0.151	0.2483	-0.031
Mof_H 	H 	0.5444	0.1861	0.2491	0.036
Mof_C 	C 	0.4457	0.1378	0.2696	-0.079
Mof_H 	H 	0.4099	0.1629	0.2842	0.057
Mof_C 	C 	0.4216	0.0853	0.2683	0.049
Mof_C 	C 	0.2813	0.08	0.3166	-0.072
Mof_H 	H 	0.2568	0.0519	0.3357	0.036
Mof_H 	H 	0.3144	0.1052	0.3397	0.046
Mof_C 	C 	0.1978	0.107	0.2863	0.006
Mof_C 	C 	0.1543	0.0877	0.244	-0.037
Mof_H 	H 	0.1759	0.0566	0.231	0.035
Mof_C 	C 	0.076	0.1147	0.2196	-0.095
Mof_H 	H 	0.046	0.1032	0.189	0.045
Mof_C 	C 	0.0451	0.1572	0.2406	0.062
Mof_H 	H 	0.9891	0.1734	0.2255	-0.018
Mof_C 	C 	0.1657	0.1526	0.3023	0.001
Mof_H 	H 	0.1998	0.1681	0.3303	0.007
Mof_C 	C 	0.2951	0.9082	0.22241	-0.166
Mof_H 	H 	0.296	0.9414	0.2047	0.06
Mof_H 	H 	0.2288	0.8959	0.2198	0.069
Mof_C 	C 	0.3542	0.8694	0.2011	0.111
Mof_C 	C 	0.4679	0.8165	0.1913	0.046
Mof_C 	C 	0.5507	0.7864	0.1957	-0.089
Mof_H 	H 	0.5914	0.784	0.2255	0.041
Mof_C 	C 	0.5702	0.7605	0.155	-0.028
Mof_H 	H 	0.6258	0.7399	0.1566	0.026
Mof_C 	C 	0.509	0.764	0.111	-0.028
Mof_H 	H 	0.526	0.7465	0.0833	0.03
Mof_C 	C 	0.4251	0.7919	0.1063	-0.087
Mof_H 	H 	0.3832	0.7932	0.0768	0.057
Mof_C 	C 	0.4067	0.8176	0.1475	0.055
Mof_C 	C 	0.2602	0.8702	0.1185	-0.073
Mof_H 	H 	0.2376	0.9039	0.1296	0.041
Mof_H 	H 	0.2883	0.8767	0.0884	0.048
Mof_C 	C 	0.1758	0.835	0.1065	0.007
Mof_C 	C 	0.1401	0.8269	0.0588	-0.041
Mof_H 	H 	0.1705	0.8418	0.0337	0.03
Mof_C 	C 	0.0603	0.7971	0.0474	-0.088
Mof_H 	H 	0.0361	0.7902	0.0146	0.043
Mof_C 	C 	0.0171	0.7777	0.084	0.047
Mof_H 	H 	0.96	0.7588	0.0758	-0.013
Mof_C 	C 	0.1294	0.8131	0.141	0.004
Mof_H 	H 	0.1542	0.8186	0.174	0.011
Mof_C 	C 	0.3047	0.8729	0.30395	-0.166
Mof_H 	H 	0.2388	0.8785	0.3106	0.067
Mof_H 	H 	0.3072	0.8396	0.2865	0.06
Mof_C 	C 	0.3697	0.8713	0.35012	0.118
Mof_C 	C 	0.49	0.8857	0.40445	0.047
Mof_C 	C 	0.5746	0.9028	0.43079	-0.087
Mof_H 	H 	0.6137	0.9275	0.4179	0.039
Mof_C 	C 	0.5987	0.8819	0.4767	-0.029
Mof_H 	H 	0.6555	0.8927	0.4958	0.024
Mof_C 	C 	0.5404	0.8451	0.49539	-0.028
Mof_H 	H 	0.5602	0.8307	0.5265	0.029
Mof_C 	C 	0.4554	0.8293	0.47002	-0.085
Mof_H 	H 	0.4154	0.8051	0.4831	0.057
Mof_C 	C 	0.432	0.8506	0.42451	0.053
Mof_C 	C 	0.2764	0.8068	0.3941	-0.074
Mof_H 	H 	0.2406	0.7997	0.3618	0.04
Mof_H 	H 	0.3019	0.7736	0.4079	0.048
Mof_C 	C 	0.2106	0.8299	0.4267	0.007
Mof_C 	C 	0.1867	0.8039	0.4663	-0.04
Mof_H 	H 	0.2111	0.7702	0.474	0.037
Mof_C 	C 	0.1269	0.8272	0.4949	-0.08
Mof_H 	H 	0.1081	0.8095	0.522	0.052
Mof_C 	C 	0.095	0.8761	0.4836	0.044
Mof_H 	H 	0.0549	0.8925	0.5037	-0.011
Mof_C 	C 	0.1742	0.8778	0.4174	0.009
Mof_H 	H 	0.1894	0.8953	0.3894	0.005
Mof_C 	C 	0.126	0.9586	0.9678	0.221
Mof_C 	C 	0.2156	0.9867	0.9702	-0.596
Mof_H 	H 	0.2186	0.0131	0.9957	0.173
Mof_H 	H 	0.2685	0.9625	0.9776	0.185
Mof_H 	H 	0.2198	0.0035	0.939	0.193
_end
