data_functionalizedCrystal
_audit_creation_method	'EQeq! by Chris Wilmer'
_symmetry_space_group_name_H-M	'P1'
_symmetry_Int_Tables_number	1
_symmetry_cell_setting	triclinic
loop_
_symmetry_equiv_pos_as_xyz
  x,y,z
_cell_length_a	8.787
_cell_length_b	8.787
_cell_length_c	20.97
_cell_angle_alpha	90
_cell_angle_beta	90
_cell_angle_gamma	120
loop_
_atom_site_label
_atom_site_type_symbol
_atom_site_fract_x
_atom_site_fract_y
_atom_site_fract_z
_atom_site_charge
Mof_Cd	Cd	-0	0	-0	0.307
Mof_Cd	Cd	-9.0014e-33	1.80028e-32	0.5	0.323
Mof_Cd	Cd	0.33333	0.66667	0.1161	0.273
Mof_C 	C 	0.33333	0.66667	0.2223	-0.064
Mof_Cd	Cd	0.66667	0.33333	0.6161	0.275
Mof_C 	C 	0.66667	0.33333	0.7223	-0.063
Mof_Cd	Cd	0.66667	0.33333	0.8839	0.279
Mof_C 	C 	0.66667	0.33333	0.7777	-0.063
Mof_Cd	Cd	0.33333	0.66667	0.3839	0.276
Mof_C 	C 	0.33333	0.66667	0.2777	-0.064
Mof_N 	N 	0.1284	0.2568	0.0604	-0.142
Mof_C 	C 	0.1959	0.3918	0.081	-0.014
Mof_N 	N 	0.7432	0.8716	0.0604	-0.113
Mof_C 	C 	0.6082	0.8041	0.081	0.008
Mof_N 	N 	0.1284	0.8716	0.0604	-0.126
Mof_C 	C 	0.1959	0.8041	0.081	-0.002
Mof_N 	N 	0.8716	0.7432	0.5604	-0.111
Mof_C 	C 	0.8041	0.6082	0.581	0.012
Mof_N 	N 	0.2568	0.1284	0.5604	-0.14
Mof_C 	C 	0.3918	0.1959	0.581	-0.01
Mof_N 	N 	0.8716	0.1284	0.5604	-0.126
Mof_C 	C 	0.8041	0.1959	0.581	0.001
Mof_N 	N 	0.2568	0.1284	0.9396	-0.134
Mof_C 	C 	0.3918	0.1959	0.919	-0.006
Mof_N 	N 	0.8716	0.7432	0.9396	-0.106
Mof_C 	C 	0.8041	0.6082	0.919	0.016
Mof_N 	N 	0.8716	0.1284	0.9396	-0.12
Mof_C 	C 	0.8041	0.1959	0.919	0.005
Mof_N 	N 	0.7432	0.8716	0.4396	-0.111
Mof_C 	C 	0.6082	0.8041	0.419	0.012
Mof_N 	N 	0.1284	0.2568	0.4396	-0.14
Mof_C 	C 	0.1959	0.3918	0.419	-0.01
Mof_N 	N 	0.1284	0.8716	0.4396	-0.124
Mof_C 	C 	0.1959	0.8041	0.419	0.002
_end
