data_functionalizedCrystal
_audit_creation_method	'EQeq! by Chris Wilmer'
_symmetry_space_group_name_H-M	'P1'
_symmetry_Int_Tables_number	1
_symmetry_cell_setting	triclinic
loop_
_symmetry_equiv_pos_as_xyz
  x,y,z
_cell_length_a	10.289
_cell_length_b	15.763
_cell_length_c	24.796
_cell_angle_alpha	90
_cell_angle_beta	112.65
_cell_angle_gamma	90
loop_
_atom_site_label
_atom_site_type_symbol
_atom_site_fract_x
_atom_site_fract_y
_atom_site_fract_z
_atom_site_charge
Mof_Zn	Zn	0.74215	0.85377	0.73507	1.167
Mof_Zn	Zn	0.7084	0.98206	0.85549	1.238
Mof_O 	O 	0.6184	0.8237	0.78411	-0.514
Mof_O 	O 	0.5973	0.8846	0.86039	-0.48
Mof_O 	O 	0.38	0.5504	0.71395	-0.488
Mof_O 	O 	0.2796	0.4832	0.76621	-0.526
Mof_O 	O 	0.9206	0.845	0.80929	-0.501
Mof_O 	O 	0.8977	0.941	0.87092	-0.484
Mof_O 	O 	0.2325	0.9527	0.07295	-0.439
Mof_O 	O 	0.43	0.8788	0.09971	-0.31
Mof_O 	O 	0.3424	0.67293	0.93451	-0.262
Mof_C 	C 	0.3829	0.678	0.88714	0.164
Mof_C 	C 	0.4578	0.7468	0.88043	-0.107
Mof_H 	H 	0.4806	0.7913	0.9071	0.09
Mof_C 	C 	0.4987	0.7488	0.83327	-0.08
Mof_C 	C 	0.4661	0.6818	0.79408	0.016
Mof_H 	H 	0.4947	0.6832	0.7628	0.033
Mof_C 	C 	0.3911	0.6128	0.80121	-0.092
Mof_C 	C 	0.3495	0.6107	0.84863	-0.1
Mof_H 	H 	0.2999	0.5644	0.8542	0.067
Mof_C 	C 	0.579	0.8244	0.82495	0.408
Mof_C 	C 	0.3476	0.5423	0.75803	0.404
Mof_C 	C 	0.2724	0.7447	0.94218	0.179
Mof_C 	C 	0.1577	0.7759	0.89677	-0.12
Mof_H 	H 	0.128	0.7506	0.8601	0.083
Mof_C 	C 	0.086	0.8459	0.906	-0.061
Mof_C 	C 	0.134	0.8834	0.96135	-0.02
Mof_H 	H 	0.0861	0.9297	0.968	0.066
Mof_C 	C 	0.2529	0.8523	0.00669	-0.029
Mof_C 	C 	0.3225	0.7816	0.9976	-0.13
Mof_H 	H 	0.4007	0.7593	0.0277	0.086
Mof_C 	C 	0.9577	0.8791	0.85759	0.408
Mof_C 	C 	0.3124	0.8968	0.06531	0.329
Mof_Zn	Zn	0.25785	0.35377	0.76493	1.168
Mof_Zn	Zn	0.2916	0.48206	0.64451	1.24
Mof_O 	O 	0.3816	0.3237	0.71589	-0.513
Mof_O 	O 	0.4027	0.3846	0.63961	-0.479
Mof_O 	O 	0.62	0.0504	0.78605	-0.488
Mof_O 	O 	0.7204	0.9832	0.73379	-0.527
Mof_O 	O 	0.0794	0.345	0.69071	-0.502
Mof_O 	O 	0.1023	0.441	0.62908	-0.483
Mof_O 	O 	0.7675	0.4527	0.42705	-0.44
Mof_O 	O 	0.57	0.3788	0.40029	-0.311
Mof_O 	O 	0.6576	0.17293	0.56549	-0.261
Mof_C 	C 	0.6171	0.178	0.61286	0.164
Mof_C 	C 	0.5422	0.2468	0.61957	-0.107
Mof_H 	H 	0.5194	0.2913	0.5929	0.09
Mof_C 	C 	0.5013	0.2488	0.66673	-0.08
Mof_C 	C 	0.5339	0.1818	0.70592	0.016
Mof_H 	H 	0.5053	0.1832	0.7372	0.033
Mof_C 	C 	0.6089	0.1128	0.69879	-0.092
Mof_C 	C 	0.6505	0.1107	0.65137	-0.099
Mof_H 	H 	0.7001	0.0644	0.6458	0.068
Mof_C 	C 	0.421	0.3244	0.67505	0.408
Mof_C 	C 	0.6524	0.0423	0.74197	0.406
Mof_C 	C 	0.7276	0.2447	0.55782	0.177
Mof_C 	C 	0.8423	0.2759	0.60323	-0.118
Mof_H 	H 	0.872	0.2506	0.6399	0.082
Mof_C 	C 	0.914	0.3459	0.594	-0.063
Mof_C 	C 	0.866	0.3834	0.53865	-0.016
Mof_H 	H 	0.9139	0.4297	0.532	0.065
Mof_C 	C 	0.7471	0.3523	0.49331	-0.034
Mof_C 	C 	0.6775	0.2816	0.5024	-0.124
Mof_H 	H 	0.5993	0.2593	0.4723	0.083
Mof_C 	C 	0.0423	0.3791	0.64241	0.409
Mof_C 	C 	0.6876	0.3968	0.43469	0.331
Mof_Zn	Zn	0.25785	0.14623	0.26493	1.168
Mof_Zn	Zn	0.2916	0.01794	0.14451	1.239
Mof_O 	O 	0.3816	0.1763	0.21589	-0.513
Mof_O 	O 	0.4027	0.1154	0.13961	-0.479
Mof_O 	O 	0.62	0.4496	0.28605	-0.488
Mof_O 	O 	0.7204	0.5168	0.23379	-0.526
Mof_O 	O 	0.0794	0.155	0.19071	-0.501
Mof_O 	O 	0.1023	0.059	0.12908	-0.484
Mof_O 	O 	0.7675	0.0473	0.92705	-0.439
Mof_O 	O 	0.57	0.1212	0.90029	-0.31
Mof_O 	O 	0.6576	0.32707	0.06549	-0.262
Mof_C 	C 	0.6171	0.322	0.11286	0.164
Mof_C 	C 	0.5422	0.2532	0.11957	-0.107
Mof_H 	H 	0.5194	0.2087	0.0929	0.09
Mof_C 	C 	0.5013	0.2512	0.16673	-0.08
Mof_C 	C 	0.5339	0.3182	0.20592	0.016
Mof_H 	H 	0.5053	0.3168	0.2372	0.033
Mof_C 	C 	0.6089	0.3872	0.19879	-0.092
Mof_C 	C 	0.6505	0.3893	0.15137	-0.1
Mof_H 	H 	0.7001	0.4356	0.1458	0.067
Mof_C 	C 	0.421	0.1756	0.17505	0.408
Mof_C 	C 	0.6524	0.4577	0.24197	0.404
Mof_C 	C 	0.7276	0.2553	0.05782	0.179
Mof_C 	C 	0.8423	0.2241	0.10323	-0.12
Mof_H 	H 	0.872	0.2494	0.1399	0.083
Mof_C 	C 	0.914	0.1541	0.094	-0.061
Mof_C 	C 	0.866	0.1166	0.03865	-0.02
Mof_H 	H 	0.9139	0.0703	0.032	0.066
Mof_C 	C 	0.7471	0.1477	0.99331	-0.029
Mof_C 	C 	0.6775	0.2184	0.0024	-0.13
Mof_H 	H 	0.5993	0.2407	0.9723	0.086
Mof_C 	C 	0.0423	0.1209	0.14241	0.408
Mof_C 	C 	0.6876	0.1032	0.93469	0.329
Mof_Zn	Zn	0.74215	0.64623	0.23507	1.168
Mof_Zn	Zn	0.7084	0.51794	0.35549	1.24
Mof_O 	O 	0.6184	0.6763	0.28411	-0.513
Mof_O 	O 	0.5973	0.6154	0.36039	-0.479
Mof_O 	O 	0.38	0.9496	0.21395	-0.488
Mof_O 	O 	0.2796	0.0168	0.26621	-0.527
Mof_O 	O 	0.9206	0.655	0.30929	-0.502
Mof_O 	O 	0.8977	0.559	0.37092	-0.483
Mof_O 	O 	0.2325	0.5473	0.57295	-0.44
Mof_O 	O 	0.43	0.6212	0.59971	-0.311
Mof_O 	O 	0.3424	0.82707	0.43451	-0.261
Mof_C 	C 	0.3829	0.822	0.38714	0.164
Mof_C 	C 	0.4578	0.7532	0.38043	-0.107
Mof_H 	H 	0.4806	0.7087	0.4071	0.09
Mof_C 	C 	0.4987	0.7512	0.33327	-0.08
Mof_C 	C 	0.4661	0.8182	0.29408	0.016
Mof_H 	H 	0.4947	0.8168	0.2628	0.033
Mof_C 	C 	0.3911	0.8872	0.30121	-0.092
Mof_C 	C 	0.3495	0.8893	0.34863	-0.099
Mof_H 	H 	0.2999	0.9356	0.3542	0.068
Mof_C 	C 	0.579	0.6756	0.32495	0.408
Mof_C 	C 	0.3476	0.9577	0.25803	0.406
Mof_C 	C 	0.2724	0.7553	0.44218	0.177
Mof_C 	C 	0.1577	0.7241	0.39677	-0.118
Mof_H 	H 	0.128	0.7494	0.3601	0.082
Mof_C 	C 	0.086	0.6541	0.406	-0.063
Mof_C 	C 	0.134	0.6166	0.46135	-0.016
Mof_H 	H 	0.0861	0.5703	0.468	0.065
Mof_C 	C 	0.2529	0.6477	0.50669	-0.034
Mof_C 	C 	0.3225	0.7184	0.4976	-0.124
Mof_H 	H 	0.4007	0.7407	0.5277	0.083
Mof_C 	C 	0.9577	0.6209	0.35759	0.409
Mof_C 	C 	0.3124	0.6032	0.56531	0.331
_end
