data_functionalizedCrystal
_audit_creation_method	'EQeq! by Chris Wilmer'
_symmetry_space_group_name_H-M	'P1'
_symmetry_Int_Tables_number	1
_symmetry_cell_setting	triclinic
loop_
_symmetry_equiv_pos_as_xyz
  x,y,z
_cell_length_a	16.662
_cell_length_b	14.861
_cell_length_c	17.9777
_cell_angle_alpha	90
_cell_angle_beta	113.117
_cell_angle_gamma	90
loop_
_atom_site_label
_atom_site_type_symbol
_atom_site_fract_x
_atom_site_fract_y
_atom_site_fract_z
_atom_site_charge
Mof_C 	C 	0.2825	0.9664	0.41061	0.086
Mof_H 	H 	0.2725	0.0278	0.4011	0.02
Mof_C 	C 	0.2736	0.8237	0.39731	0.023
Mof_H 	H 	0.2552	0.7667	0.3762	0.032
Mof_C 	C 	0.3405	0.8401	0.46762	-0.007
Mof_H 	H 	0.3764	0.7979	0.5035	0.047
Mof_C 	C 	0.4095	0.9814	0.54304	-0.05
Mof_H 	H 	0.4146	0.9543	0.5938	0.06
Mof_H 	H 	0.3892	0.0427	0.5421	0.056
Mof_C 	C 	0.4987	0.9829	0.53876	-0.101
Mof_H 	H 	0.5371	0.02	0.5827	0.074
Mof_H 	H 	0.522	0.9223	0.5478	0.073
Mof_C 	C 	0.1224	0.0283	0.09532	0.084
Mof_H 	H 	0.1312	0.0823	0.1235	0.02
Mof_C 	C 	0.103	0.8886	0.0648	0.007
Mof_H 	H 	0.0953	0.827	0.0684	0.043
Mof_C 	C 	0.1034	0.9324	0.999	0.001
Mof_H 	H 	0.0971	0.9065	0.9499	0.043
Mof_C 	C 	0.1252	0.0962	0.969	-0.05
Mof_H 	H 	0.1218	0.1526	0.9948	0.058
Mof_H 	H 	0.0779	0.095	0.916	0.059
Mof_C 	C 	0.2103	0.0916	0.9596	-0.103
Mof_H 	H 	0.2145	0.1426	0.9277	0.074
Mof_H 	H 	0.2114	0.0374	0.9301	0.074
Mof_C 	C 	0.9236	0.9553	0.24426	0.054
Mof_H 	H 	0.9212	0.8928	0.2424	0.035
Mof_C 	C 	0.8499	0.0028	0.23683	-0.115
Mof_H 	H 	0.7986	0.9731	0.2311	0.082
Mof_C 	C 	0.8539	0.0956	0.2381	0.034
Mof_H 	H 	0.8048	0.1291	0.2331	0.027
Mof_C 	C 	0.9305	0.1392	0.24671	-0.083
Mof_C 	C 	0.0047	0.0879	0.2579	0.011
Mof_C 	C 	0.0951	0.1265	0.2798	0.294
Mof_C 	C 	0.9306	0.2409	0.24284	0.332
Mof_Cd	Cd	0.11805	0.92415	0.2495	0.419
Mof_N 	N 	0.11564	0.94972	0.12545	-0.14
Mof_N 	N 	0.23631	0.90166	0.36119	-0.144
Mof_N 	N 	0.99886	0.99652	0.2541	-0.138
Mof_N 	N 	0.11475	0.02058	0.01782	-0.113
Mof_N 	N 	0.3451	0.93092	0.47563	-0.111
Mof_O 	O 	0.91354	0.2814	0.29541	-0.29
Mof_O 	O 	0.93902	0.27982	0.18631	-0.269
Mof_O 	O 	0.15231	0.07845	0.27351	-0.277
Mof_O 	O 	0.10523	0.20463	0.30458	-0.236
Mof_C 	C 	0.7825	0.4664	0.91061	0.087
Mof_H 	H 	0.7725	0.5278	0.9011	0.021
Mof_C 	C 	0.7736	0.3237	0.89731	0.024
Mof_H 	H 	0.7552	0.2667	0.8762	0.033
Mof_C 	C 	0.8405	0.3401	0.96762	-0.006
Mof_H 	H 	0.8764	0.2979	0.0035	0.048
Mof_C 	C 	0.9095	0.4814	0.04304	-0.05
Mof_H 	H 	0.9146	0.4543	0.0938	0.06
Mof_H 	H 	0.8892	0.5427	0.0421	0.056
Mof_C 	C 	0.9987	0.4829	0.03876	-0.1
Mof_H 	H 	0.0371	0.52	0.0827	0.073
Mof_H 	H 	0.022	0.4223	0.0478	0.073
Mof_C 	C 	0.6224	0.5283	0.59532	0.085
Mof_H 	H 	0.6312	0.5823	0.6235	0.019
Mof_C 	C 	0.603	0.3886	0.5648	0.008
Mof_H 	H 	0.5953	0.327	0.5684	0.043
Mof_C 	C 	0.6034	0.4324	0.499	-0.001
Mof_H 	H 	0.5971	0.4065	0.4499	0.043
Mof_C 	C 	0.6252	0.5962	0.469	-0.05
Mof_H 	H 	0.6218	0.6526	0.4948	0.058
Mof_H 	H 	0.5779	0.595	0.416	0.06
Mof_C 	C 	0.7103	0.5916	0.4596	-0.103
Mof_H 	H 	0.7145	0.6426	0.4277	0.074
Mof_H 	H 	0.7114	0.5374	0.4301	0.074
Mof_C 	C 	0.4236	0.4553	0.74426	0.057
Mof_H 	H 	0.4212	0.3928	0.7424	0.035
Mof_C 	C 	0.3499	0.5028	0.73683	-0.118
Mof_H 	H 	0.2986	0.4731	0.7311	0.083
Mof_C 	C 	0.3539	0.5956	0.7381	0.036
Mof_H 	H 	0.3048	0.6291	0.7331	0.026
Mof_C 	C 	0.4305	0.6392	0.74671	-0.084
Mof_C 	C 	0.5047	0.5879	0.7579	0.012
Mof_C 	C 	0.5951	0.6265	0.7798	0.293
Mof_C 	C 	0.4306	0.7409	0.74284	0.333
Mof_Cd	Cd	0.61805	0.42415	0.7495	0.418
Mof_N 	N 	0.61564	0.44972	0.62545	-0.14
Mof_N 	N 	0.73631	0.40166	0.86119	-0.144
Mof_N 	N 	0.49886	0.49652	0.7541	-0.138
Mof_N 	N 	0.61475	0.52058	0.51782	-0.113
Mof_N 	N 	0.8451	0.43092	0.97563	-0.111
Mof_O 	O 	0.41354	0.7814	0.79541	-0.291
Mof_O 	O 	0.43902	0.77982	0.68631	-0.269
Mof_O 	O 	0.65231	0.57845	0.77351	-0.277
Mof_O 	O 	0.60523	0.70463	0.80458	-0.236
Mof_C 	C 	0.2175	0.9664	0.58939	0.087
Mof_H 	H 	0.2275	0.0278	0.5989	0.02
Mof_C 	C 	0.2264	0.8237	0.60269	0.024
Mof_H 	H 	0.2448	0.7667	0.6238	0.033
Mof_C 	C 	0.1595	0.8401	0.53238	-0.006
Mof_H 	H 	0.1236	0.7979	0.4965	0.048
Mof_C 	C 	0.0905	0.9814	0.45696	-0.049
Mof_H 	H 	0.0854	0.9543	0.4062	0.06
Mof_H 	H 	0.1108	0.0427	0.4579	0.056
Mof_C 	C 	0.0013	0.9829	0.46124	-0.1
Mof_H 	H 	0.9629	0.02	0.4173	0.074
Mof_H 	H 	0.978	0.9223	0.4522	0.072
Mof_C 	C 	0.3776	0.0283	0.90468	0.084
Mof_H 	H 	0.3688	0.0823	0.8765	0.02
Mof_C 	C 	0.397	0.8886	0.9352	0.008
Mof_H 	H 	0.4047	0.827	0.9316	0.043
Mof_C 	C 	0.3966	0.9324	0.001	-0.001
Mof_H 	H 	0.4029	0.9065	0.0501	0.043
Mof_C 	C 	0.3748	0.0962	0.031	-0.05
Mof_H 	H 	0.3782	0.1526	0.0052	0.058
Mof_H 	H 	0.4221	0.095	0.084	0.06
Mof_C 	C 	0.2897	0.0916	0.0404	-0.103
Mof_H 	H 	0.2855	0.1426	0.0723	0.074
Mof_H 	H 	0.2886	0.0374	0.0699	0.074
Mof_C 	C 	0.5764	0.9553	0.75574	0.056
Mof_H 	H 	0.5788	0.8928	0.7576	0.035
Mof_C 	C 	0.6501	0.0028	0.76317	-0.117
Mof_H 	H 	0.7014	0.9731	0.7689	0.083
Mof_C 	C 	0.6461	0.0956	0.7619	0.035
Mof_H 	H 	0.6952	0.1291	0.7669	0.026
Mof_C 	C 	0.5695	0.1392	0.75329	-0.084
Mof_C 	C 	0.4953	0.0879	0.7421	0.012
Mof_C 	C 	0.4049	0.1265	0.7202	0.294
Mof_C 	C 	0.5694	0.2409	0.75716	0.333
Mof_Cd	Cd	0.38195	0.92415	0.7505	0.418
Mof_N 	N 	0.38436	0.94972	0.87455	-0.14
Mof_N 	N 	0.26369	0.90166	0.63881	-0.144
Mof_N 	N 	0.50114	0.99652	0.7459	-0.138
Mof_N 	N 	0.38525	0.02058	0.98218	-0.113
Mof_N 	N 	0.1549	0.93092	0.52437	-0.111
Mof_O 	O 	0.58646	0.2814	0.70459	-0.291
Mof_O 	O 	0.56098	0.27982	0.81369	-0.269
Mof_O 	O 	0.34769	0.07845	0.72649	-0.277
Mof_O 	O 	0.39477	0.20463	0.69542	-0.236
Mof_C 	C 	0.7175	0.4664	0.08939	0.087
Mof_H 	H 	0.7275	0.5278	0.0989	0.021
Mof_C 	C 	0.7264	0.3237	0.10269	0.023
Mof_H 	H 	0.7448	0.2667	0.1238	0.033
Mof_C 	C 	0.6595	0.3401	0.03238	-0.005
Mof_H 	H 	0.6236	0.2979	0.9965	0.048
Mof_C 	C 	0.5905	0.4814	0.95696	-0.05
Mof_H 	H 	0.5854	0.4543	0.9062	0.06
Mof_H 	H 	0.6108	0.5427	0.9579	0.056
Mof_C 	C 	0.5013	0.4829	0.96124	-0.101
Mof_H 	H 	0.4629	0.52	0.9173	0.074
Mof_H 	H 	0.478	0.4223	0.9522	0.073
Mof_C 	C 	0.8776	0.5283	0.40468	0.085
Mof_H 	H 	0.8688	0.5823	0.3765	0.019
Mof_C 	C 	0.897	0.3886	0.4352	0.008
Mof_H 	H 	0.9047	0.327	0.4316	0.043
Mof_C 	C 	0.8966	0.4324	0.501	-0.001
Mof_H 	H 	0.9029	0.4065	0.5501	0.043
Mof_C 	C 	0.8748	0.5962	0.531	-0.05
Mof_H 	H 	0.8782	0.6526	0.5052	0.058
Mof_H 	H 	0.9221	0.595	0.584	0.059
Mof_C 	C 	0.7897	0.5916	0.5404	-0.103
Mof_H 	H 	0.7855	0.6426	0.5723	0.074
Mof_H 	H 	0.7886	0.5374	0.5699	0.074
Mof_C 	C 	0.0764	0.4553	0.25574	0.057
Mof_H 	H 	0.0788	0.3928	0.2576	0.035
Mof_C 	C 	0.1501	0.5028	0.26317	-0.118
Mof_H 	H 	0.2014	0.4731	0.2689	0.083
Mof_C 	C 	0.1461	0.5956	0.2619	0.036
Mof_H 	H 	0.1952	0.6291	0.2669	0.026
Mof_C 	C 	0.0695	0.6392	0.25329	-0.084
Mof_C 	C 	0.9953	0.5879	0.2421	0.012
Mof_C 	C 	0.9049	0.6265	0.2202	0.293
Mof_C 	C 	0.0694	0.7409	0.25716	0.333
Mof_Cd	Cd	0.88195	0.42415	0.2505	0.418
Mof_N 	N 	0.88436	0.44972	0.37455	-0.14
Mof_N 	N 	0.76369	0.40166	0.13881	-0.144
Mof_N 	N 	0.00114	0.49652	0.2459	-0.138
Mof_N 	N 	0.88525	0.52058	0.48218	-0.113
Mof_N 	N 	0.6549	0.43092	0.02437	-0.111
Mof_O 	O 	0.08646	0.7814	0.20459	-0.291
Mof_O 	O 	0.06098	0.77982	0.31369	-0.269
Mof_O 	O 	0.84769	0.57845	0.22649	-0.277
Mof_O 	O 	0.89477	0.70463	0.19542	-0.236
Mof_C 	C 	0.7175	0.0336	0.58939	0.087
Mof_H 	H 	0.7275	0.9722	0.5989	0.021
Mof_C 	C 	0.7264	0.1763	0.60269	0.024
Mof_H 	H 	0.7448	0.2333	0.6238	0.033
Mof_C 	C 	0.6595	0.1599	0.53238	-0.006
Mof_H 	H 	0.6236	0.2021	0.4965	0.048
Mof_C 	C 	0.5905	0.0186	0.45696	-0.05
Mof_H 	H 	0.5854	0.0457	0.4062	0.06
Mof_H 	H 	0.6108	0.9573	0.4579	0.056
Mof_C 	C 	0.5013	0.0171	0.46124	-0.101
Mof_H 	H 	0.4629	0.98	0.4173	0.074
Mof_H 	H 	0.478	0.0777	0.4522	0.073
Mof_C 	C 	0.8776	0.9717	0.90468	0.084
Mof_H 	H 	0.8688	0.9177	0.8765	0.02
Mof_C 	C 	0.897	0.1114	0.9352	0.007
Mof_H 	H 	0.9047	0.173	0.9316	0.043
Mof_C 	C 	0.8966	0.0676	0.001	0.001
Mof_H 	H 	0.9029	0.0935	0.0501	0.043
Mof_C 	C 	0.8748	0.9038	0.031	-0.05
Mof_H 	H 	0.8782	0.8474	0.0052	0.058
Mof_H 	H 	0.9221	0.905	0.084	0.059
Mof_C 	C 	0.7897	0.9084	0.0404	-0.103
Mof_H 	H 	0.7855	0.8574	0.0723	0.074
Mof_H 	H 	0.7886	0.9626	0.0699	0.074
Mof_C 	C 	0.0764	0.0447	0.75574	0.054
Mof_H 	H 	0.0788	0.1072	0.7576	0.035
Mof_C 	C 	0.1501	0.9972	0.76317	-0.115
Mof_H 	H 	0.2014	0.0269	0.7689	0.082
Mof_C 	C 	0.1461	0.9044	0.7619	0.034
Mof_H 	H 	0.1952	0.8709	0.7669	0.027
Mof_C 	C 	0.0695	0.8608	0.75329	-0.083
Mof_C 	C 	0.9953	0.9121	0.7421	0.011
Mof_C 	C 	0.9049	0.8735	0.7202	0.294
Mof_C 	C 	0.0694	0.7591	0.75716	0.332
Mof_Cd	Cd	0.88195	0.07585	0.7505	0.419
Mof_N 	N 	0.88436	0.05028	0.87455	-0.14
Mof_N 	N 	0.76369	0.09834	0.63881	-0.144
Mof_N 	N 	0.00114	0.00348	0.7459	-0.138
Mof_N 	N 	0.88525	0.97942	0.98218	-0.113
Mof_N 	N 	0.6549	0.06908	0.52437	-0.111
Mof_O 	O 	0.08646	0.7186	0.70459	-0.29
Mof_O 	O 	0.06098	0.72018	0.81369	-0.269
Mof_O 	O 	0.84769	0.92155	0.72649	-0.277
Mof_O 	O 	0.89477	0.79537	0.69542	-0.236
Mof_C 	C 	0.2175	0.5336	0.08939	0.087
Mof_H 	H 	0.2275	0.4722	0.0989	0.021
Mof_C 	C 	0.2264	0.6763	0.10269	0.024
Mof_H 	H 	0.2448	0.7333	0.1238	0.033
Mof_C 	C 	0.1595	0.6599	0.03238	-0.006
Mof_H 	H 	0.1236	0.7021	0.9965	0.048
Mof_C 	C 	0.0905	0.5186	0.95696	-0.05
Mof_H 	H 	0.0854	0.5457	0.9062	0.06
Mof_H 	H 	0.1108	0.4573	0.9579	0.056
Mof_C 	C 	0.0013	0.5171	0.96124	-0.1
Mof_H 	H 	0.9629	0.48	0.9173	0.073
Mof_H 	H 	0.978	0.5777	0.9522	0.073
Mof_C 	C 	0.3776	0.4717	0.40468	0.085
Mof_H 	H 	0.3688	0.4177	0.3765	0.019
Mof_C 	C 	0.397	0.6114	0.4352	0.008
Mof_H 	H 	0.4047	0.673	0.4316	0.043
Mof_C 	C 	0.3966	0.5676	0.501	-0.001
Mof_H 	H 	0.4029	0.5935	0.5501	0.043
Mof_C 	C 	0.3748	0.4038	0.531	-0.05
Mof_H 	H 	0.3782	0.3474	0.5052	0.058
Mof_H 	H 	0.4221	0.405	0.584	0.06
Mof_C 	C 	0.2897	0.4084	0.5404	-0.103
Mof_H 	H 	0.2855	0.3574	0.5723	0.074
Mof_H 	H 	0.2886	0.4626	0.5699	0.074
Mof_C 	C 	0.5764	0.5447	0.25574	0.057
Mof_H 	H 	0.5788	0.6072	0.2576	0.035
Mof_C 	C 	0.6501	0.4972	0.26317	-0.118
Mof_H 	H 	0.7014	0.5269	0.2689	0.083
Mof_C 	C 	0.6461	0.4044	0.2619	0.036
Mof_H 	H 	0.6952	0.3709	0.2669	0.026
Mof_C 	C 	0.5695	0.3608	0.25329	-0.084
Mof_C 	C 	0.4953	0.4121	0.2421	0.012
Mof_C 	C 	0.4049	0.3735	0.2202	0.293
Mof_C 	C 	0.5694	0.2591	0.25716	0.333
Mof_Cd	Cd	0.38195	0.57585	0.2505	0.418
Mof_N 	N 	0.38436	0.55028	0.37455	-0.14
Mof_N 	N 	0.26369	0.59834	0.13881	-0.144
Mof_N 	N 	0.50114	0.50348	0.2459	-0.138
Mof_N 	N 	0.38525	0.47942	0.48218	-0.113
Mof_N 	N 	0.1549	0.56908	0.02437	-0.111
Mof_O 	O 	0.58646	0.2186	0.20459	-0.291
Mof_O 	O 	0.56098	0.22018	0.31369	-0.269
Mof_O 	O 	0.34769	0.42155	0.22649	-0.277
Mof_O 	O 	0.39477	0.29537	0.19542	-0.236
Mof_C 	C 	0.7825	0.0336	0.41061	0.087
Mof_H 	H 	0.7725	0.9722	0.4011	0.02
Mof_C 	C 	0.7736	0.1763	0.39731	0.024
Mof_H 	H 	0.7552	0.2333	0.3762	0.033
Mof_C 	C 	0.8405	0.1599	0.46762	-0.006
Mof_H 	H 	0.8764	0.2021	0.5035	0.048
Mof_C 	C 	0.9095	0.0186	0.54304	-0.049
Mof_H 	H 	0.9146	0.0457	0.5938	0.06
Mof_H 	H 	0.8892	0.9573	0.5421	0.056
Mof_C 	C 	0.9987	0.0171	0.53876	-0.1
Mof_H 	H 	0.0371	0.98	0.5827	0.074
Mof_H 	H 	0.022	0.0777	0.5478	0.072
Mof_C 	C 	0.6224	0.9717	0.09532	0.084
Mof_H 	H 	0.6312	0.9177	0.1235	0.02
Mof_C 	C 	0.603	0.1114	0.0648	0.008
Mof_H 	H 	0.5953	0.173	0.0684	0.043
Mof_C 	C 	0.6034	0.0676	0.999	-0.001
Mof_H 	H 	0.5971	0.0935	0.9499	0.043
Mof_C 	C 	0.6252	0.9038	0.969	-0.05
Mof_H 	H 	0.6218	0.8474	0.9948	0.058
Mof_H 	H 	0.5779	0.905	0.916	0.06
Mof_C 	C 	0.7103	0.9084	0.9596	-0.103
Mof_H 	H 	0.7145	0.8574	0.9277	0.074
Mof_H 	H 	0.7114	0.9626	0.9301	0.074
Mof_C 	C 	0.4236	0.0447	0.24426	0.056
Mof_H 	H 	0.4212	0.1072	0.2424	0.035
Mof_C 	C 	0.3499	0.9972	0.23683	-0.117
Mof_H 	H 	0.2986	0.0269	0.2311	0.083
Mof_C 	C 	0.3539	0.9044	0.2381	0.035
Mof_H 	H 	0.3048	0.8709	0.2331	0.026
Mof_C 	C 	0.4305	0.8608	0.24671	-0.084
Mof_C 	C 	0.5047	0.9121	0.2579	0.012
Mof_C 	C 	0.5951	0.8735	0.2798	0.294
Mof_C 	C 	0.4306	0.7591	0.24284	0.333
Mof_Cd	Cd	0.61805	0.07585	0.2495	0.418
Mof_N 	N 	0.61564	0.05028	0.12545	-0.14
Mof_N 	N 	0.73631	0.09834	0.36119	-0.144
Mof_N 	N 	0.49886	0.00348	0.2541	-0.138
Mof_N 	N 	0.61475	0.97942	0.01782	-0.113
Mof_N 	N 	0.8451	0.06908	0.47563	-0.111
Mof_O 	O 	0.41354	0.7186	0.29541	-0.291
Mof_O 	O 	0.43902	0.72018	0.18631	-0.269
Mof_O 	O 	0.65231	0.92155	0.27351	-0.277
Mof_O 	O 	0.60523	0.79537	0.30458	-0.236
Mof_C 	C 	0.2825	0.5336	0.91061	0.087
Mof_H 	H 	0.2725	0.4722	0.9011	0.021
Mof_C 	C 	0.2736	0.6763	0.89731	0.023
Mof_H 	H 	0.2552	0.7333	0.8762	0.033
Mof_C 	C 	0.3405	0.6599	0.96762	-0.005
Mof_H 	H 	0.3764	0.7021	0.0035	0.048
Mof_C 	C 	0.4095	0.5186	0.04304	-0.05
Mof_H 	H 	0.4146	0.5457	0.0938	0.06
Mof_H 	H 	0.3892	0.4573	0.0421	0.056
Mof_C 	C 	0.4987	0.5171	0.03876	-0.101
Mof_H 	H 	0.5371	0.48	0.0827	0.074
Mof_H 	H 	0.522	0.5777	0.0478	0.073
Mof_C 	C 	0.1224	0.4717	0.59532	0.085
Mof_H 	H 	0.1312	0.4177	0.6235	0.019
Mof_C 	C 	0.103	0.6114	0.5648	0.008
Mof_H 	H 	0.0953	0.673	0.5684	0.043
Mof_C 	C 	0.1034	0.5676	0.499	-0.001
Mof_H 	H 	0.0971	0.5935	0.4499	0.043
Mof_C 	C 	0.1252	0.4038	0.469	-0.05
Mof_H 	H 	0.1218	0.3474	0.4948	0.058
Mof_H 	H 	0.0779	0.405	0.416	0.059
Mof_C 	C 	0.2103	0.4084	0.4596	-0.103
Mof_H 	H 	0.2145	0.3574	0.4277	0.074
Mof_H 	H 	0.2114	0.4626	0.4301	0.074
Mof_C 	C 	0.9236	0.5447	0.74426	0.057
Mof_H 	H 	0.9212	0.6072	0.7424	0.035
Mof_C 	C 	0.8499	0.4972	0.73683	-0.118
Mof_H 	H 	0.7986	0.5269	0.7311	0.083
Mof_C 	C 	0.8539	0.4044	0.7381	0.036
Mof_H 	H 	0.8048	0.3709	0.7331	0.026
Mof_C 	C 	0.9305	0.3608	0.74671	-0.084
Mof_C 	C 	0.0047	0.4121	0.7579	0.012
Mof_C 	C 	0.0951	0.3735	0.7798	0.293
Mof_C 	C 	0.9306	0.2591	0.74284	0.333
Mof_Cd	Cd	0.11805	0.57585	0.7495	0.418
Mof_N 	N 	0.11564	0.55028	0.62545	-0.14
Mof_N 	N 	0.23631	0.59834	0.86119	-0.144
Mof_N 	N 	0.99886	0.50348	0.7541	-0.138
Mof_N 	N 	0.11475	0.47942	0.51782	-0.113
Mof_N 	N 	0.3451	0.56908	0.97563	-0.111
Mof_O 	O 	0.91354	0.2186	0.79541	-0.291
Mof_O 	O 	0.93902	0.22018	0.68631	-0.269
Mof_O 	O 	0.15231	0.42155	0.77351	-0.277
Mof_O 	O 	0.10523	0.29537	0.80458	-0.236
_end
