data_functionalizedCrystal
_audit_creation_method	'EQeq! by Chris Wilmer'
_symmetry_space_group_name_H-M	'P1'
_symmetry_Int_Tables_number	1
_symmetry_cell_setting	triclinic
loop_
_symmetry_equiv_pos_as_xyz
  x,y,z
_cell_length_a	35.8292
_cell_length_b	35.8292
_cell_length_c	15.785
_cell_angle_alpha	90
_cell_angle_beta	90
_cell_angle_gamma	120
loop_
_atom_site_label
_atom_site_type_symbol
_atom_site_fract_x
_atom_site_fract_y
_atom_site_fract_z
_atom_site_charge
Mof_O 	O 	0.81266	0.10974	0.2458	-0.413
Mof_O 	O 	0.82062	0.10198	0.1052	-0.403
Mof_C 	C 	0.81198	0.08896	0.181	0.366
Mof_C 	C 	0.79741	0.04173	0.1975	-0.15
Mof_C 	C 	0.7927	0.01423	0.1313	0.094
Mof_H 	H 	0.799	0.0245	0.076	0.014
Mof_C 	C 	0.77831	0.97058	0.149	-0.188
Mof_H 	H 	0.777	0.9527	0.1049	0.111
Mof_C 	C 	0.76657	0.95392	0.2259	0.153
Mof_C 	C 	0.773	0.98247	0.2901	-0.19
Mof_H 	H 	0.7669	0.9724	0.3456	0.099
Mof_C 	C 	0.7884	0.02584	0.2746	0.107
Mof_H 	H 	0.7925	0.0441	0.3198	0.011
Mof_C 	C 	0.74644	0.90694	0.2427	-0.089
Mof_C 	C 	0.70786	0.88687	0.2869	-0.033
Mof_H 	H 	0.695	0.903	0.3021	0.044
Mof_H 	H 	0.8407	0.9422	0.2757	-0.035
Mof_H 	H 	0.8937	0.925	0.1661	0.227
Mof_O 	O 	0.47933	0.44307	0.57913	-0.413
Mof_O 	O 	0.48729	0.43531	0.43853	-0.403
Mof_C 	C 	0.47865	0.42229	0.51433	0.366
Mof_C 	C 	0.46408	0.37506	0.53083	-0.15
Mof_C 	C 	0.45937	0.34756	0.46463	0.094
Mof_H 	H 	0.46567	0.35783	0.40933	0.014
Mof_C 	C 	0.44498	0.30391	0.48233	-0.188
Mof_H 	H 	0.44367	0.28603	0.43823	0.11
Mof_C 	C 	0.43324	0.28725	0.55923	0.153
Mof_C 	C 	0.43967	0.3158	0.62343	-0.19
Mof_H 	H 	0.43357	0.30573	0.67893	0.099
Mof_C 	C 	0.45507	0.35917	0.60793	0.107
Mof_H 	H 	0.45917	0.37743	0.65313	0.011
Mof_C 	C 	0.41311	0.24027	0.57603	-0.089
Mof_C 	C 	0.37453	0.2202	0.62023	-0.034
Mof_H 	H 	0.36167	0.23633	0.63543	0.044
Mof_H 	H 	0.50737	0.27553	0.60903	-0.035
Mof_H 	H 	0.56037	0.25833	0.49943	0.227
Mof_O 	O 	0.14599	0.77641	0.91247	-0.414
Mof_O 	O 	0.15395	0.76865	0.77187	-0.404
Mof_C 	C 	0.14531	0.75563	0.84767	0.365
Mof_C 	C 	0.13074	0.7084	0.86417	-0.15
Mof_C 	C 	0.12603	0.6809	0.79797	0.093
Mof_H 	H 	0.13233	0.69117	0.74267	0.013
Mof_C 	C 	0.11164	0.63725	0.81567	-0.189
Mof_H 	H 	0.11033	0.61937	0.77157	0.109
Mof_C 	C 	0.0999	0.62059	0.89257	0.151
Mof_C 	C 	0.10633	0.64914	0.95677	-0.191
Mof_H 	H 	0.10023	0.63907	0.01227	0.098
Mof_C 	C 	0.12173	0.69251	0.94127	0.106
Mof_H 	H 	0.12583	0.71077	0.98647	0.01
Mof_C 	C 	0.07977	0.57361	0.90937	-0.09
Mof_C 	C 	0.04119	0.55354	0.95357	-0.035
Mof_H 	H 	0.02833	0.56967	0.96877	0.043
Mof_H 	H 	0.17403	0.60887	0.94237	-0.036
Mof_H 	H 	0.22703	0.59167	0.83277	0.226
Mof_O 	O 	0.89026	0.70292	0.2458	-0.414
Mof_O 	O 	0.89802	0.71864	0.1052	-0.404
Mof_C 	C 	0.91104	0.72302	0.181	0.365
Mof_C 	C 	0.95827	0.75568	0.1975	-0.15
Mof_C 	C 	0.98577	0.77847	0.1313	0.093
Mof_H 	H 	0.9755	0.7745	0.076	0.013
Mof_C 	C 	0.02942	0.80773	0.149	-0.189
Mof_H 	H 	0.0473	0.8243	0.1049	0.109
Mof_C 	C 	0.04608	0.81265	0.2259	0.151
Mof_C 	C 	0.01753	0.79053	0.2901	-0.191
Mof_H 	H 	0.0276	0.7945	0.3456	0.098
Mof_C 	C 	0.97416	0.76256	0.2746	0.106
Mof_H 	H 	0.9559	0.7484	0.3198	0.01
Mof_C 	C 	0.09306	0.8395	0.2427	-0.09
Mof_C 	C 	0.11313	0.82099	0.2869	-0.035
Mof_H 	H 	0.097	0.792	0.3021	0.043
Mof_H 	H 	0.0578	0.8985	0.2757	-0.036
Mof_H 	H 	0.075	0.9687	0.1661	0.226
Mof_O 	O 	0.55693	0.03625	0.57913	-0.414
Mof_O 	O 	0.56469	0.05197	0.43853	-0.404
Mof_C 	C 	0.57771	0.05635	0.51433	0.365
Mof_C 	C 	0.62494	0.08901	0.53083	-0.15
Mof_C 	C 	0.65244	0.1118	0.46463	0.093
Mof_H 	H 	0.64217	0.10783	0.40933	0.013
Mof_C 	C 	0.69609	0.14106	0.48233	-0.189
Mof_H 	H 	0.71397	0.15763	0.43823	0.109
Mof_C 	C 	0.71275	0.14598	0.55923	0.152
Mof_C 	C 	0.6842	0.12386	0.62343	-0.191
Mof_H 	H 	0.69427	0.12783	0.67893	0.098
Mof_C 	C 	0.64083	0.09589	0.60793	0.106
Mof_H 	H 	0.62257	0.08173	0.65313	0.01
Mof_C 	C 	0.75973	0.17283	0.57603	-0.09
Mof_C 	C 	0.7798	0.15432	0.62023	-0.034
Mof_H 	H 	0.76367	0.12533	0.63543	0.043
Mof_H 	H 	0.72447	0.23183	0.60903	-0.036
Mof_H 	H 	0.74167	0.30203	0.49943	0.226
Mof_O 	O 	0.22359	0.36959	0.91247	-0.414
Mof_O 	O 	0.23135	0.38531	0.77187	-0.404
Mof_C 	C 	0.24437	0.38969	0.84767	0.365
Mof_C 	C 	0.2916	0.42235	0.86417	-0.15
Mof_C 	C 	0.3191	0.44514	0.79797	0.093
Mof_H 	H 	0.30883	0.44117	0.74267	0.013
Mof_C 	C 	0.36275	0.4744	0.81567	-0.189
Mof_H 	H 	0.38063	0.49097	0.77157	0.109
Mof_C 	C 	0.37941	0.47932	0.89257	0.151
Mof_C 	C 	0.35086	0.4572	0.95677	-0.191
Mof_H 	H 	0.36093	0.46117	0.01227	0.098
Mof_C 	C 	0.30749	0.42923	0.94127	0.106
Mof_H 	H 	0.28923	0.41507	0.98647	0.01
Mof_C 	C 	0.42639	0.50617	0.90937	-0.09
Mof_C 	C 	0.44646	0.48766	0.95357	-0.035
Mof_H 	H 	0.43033	0.45867	0.96877	0.043
Mof_H 	H 	0.39113	0.56517	0.94237	-0.036
Mof_H 	H 	0.40833	0.63537	0.83277	0.226
Mof_O 	O 	0.29708	0.18734	0.2458	-0.414
Mof_O 	O 	0.28136	0.17938	0.1052	-0.404
Mof_C 	C 	0.27698	0.18802	0.181	0.365
Mof_C 	C 	0.24432	0.20259	0.1975	-0.15
Mof_C 	C 	0.22153	0.2073	0.1313	0.093
Mof_H 	H 	0.2255	0.201	0.076	0.013
Mof_C 	C 	0.19227	0.22169	0.149	-0.189
Mof_H 	H 	0.1757	0.223	0.1049	0.109
Mof_C 	C 	0.18735	0.23343	0.2259	0.152
Mof_C 	C 	0.20947	0.227	0.2901	-0.191
Mof_H 	H 	0.2055	0.2331	0.3456	0.098
Mof_C 	C 	0.23744	0.2116	0.2746	0.106
Mof_H 	H 	0.2516	0.2075	0.3198	0.01
Mof_C 	C 	0.1605	0.25356	0.2427	-0.09
Mof_C 	C 	0.17901	0.29214	0.2869	-0.034
Mof_H 	H 	0.208	0.305	0.3021	0.043
Mof_H 	H 	0.1015	0.1593	0.2757	-0.036
Mof_H 	H 	0.0313	0.1063	0.1661	0.226
Mof_O 	O 	0.96375	0.52067	0.57913	-0.414
Mof_O 	O 	0.94803	0.51271	0.43853	-0.404
Mof_C 	C 	0.94365	0.52135	0.51433	0.365
Mof_C 	C 	0.91099	0.53592	0.53083	-0.151
Mof_C 	C 	0.8882	0.54063	0.46463	0.093
Mof_H 	H 	0.89217	0.53433	0.40933	0.013
Mof_C 	C 	0.85894	0.55502	0.48233	-0.189
Mof_H 	H 	0.84237	0.55633	0.43823	0.109
Mof_C 	C 	0.85402	0.56676	0.55923	0.152
Mof_C 	C 	0.87614	0.56033	0.62343	-0.191
Mof_H 	H 	0.87217	0.56643	0.67893	0.098
Mof_C 	C 	0.90411	0.54493	0.60793	0.106
Mof_H 	H 	0.91827	0.54083	0.65313	0.01
Mof_C 	C 	0.82717	0.58689	0.57603	-0.09
Mof_C 	C 	0.84568	0.62547	0.62023	-0.035
Mof_H 	H 	0.87467	0.63833	0.63543	0.043
Mof_H 	H 	0.76817	0.49263	0.60903	-0.036
Mof_H 	H 	0.69797	0.43963	0.49943	0.226
Mof_O 	O 	0.63041	0.85401	0.91247	-0.414
Mof_O 	O 	0.61469	0.84605	0.77187	-0.404
Mof_C 	C 	0.61031	0.85469	0.84767	0.365
Mof_C 	C 	0.57765	0.86926	0.86417	-0.15
Mof_C 	C 	0.55486	0.87397	0.79797	0.093
Mof_H 	H 	0.55883	0.86767	0.74267	0.013
Mof_C 	C 	0.5256	0.88836	0.81567	-0.189
Mof_H 	H 	0.50903	0.88967	0.77157	0.109
Mof_C 	C 	0.52068	0.9001	0.89257	0.151
Mof_C 	C 	0.5428	0.89367	0.95677	-0.191
Mof_H 	H 	0.53883	0.89977	0.01227	0.098
Mof_C 	C 	0.57077	0.87827	0.94127	0.106
Mof_H 	H 	0.58493	0.87417	0.98647	0.01
Mof_C 	C 	0.49383	0.92023	0.90937	-0.09
Mof_C 	C 	0.51234	0.95881	0.95357	-0.035
Mof_H 	H 	0.54133	0.97167	0.96877	0.043
Mof_H 	H 	0.43483	0.82597	0.94237	-0.036
Mof_H 	H 	0.36463	0.77297	0.83277	0.226
Mof_O 	O 	0.10974	0.81266	0.7542	-0.414
Mof_O 	O 	0.10198	0.82062	0.8948	-0.404
Mof_C 	C 	0.08896	0.81198	0.819	0.365
Mof_C 	C 	0.04173	0.79741	0.8025	-0.151
Mof_C 	C 	0.01423	0.7927	0.8687	0.093
Mof_H 	H 	0.0245	0.799	0.924	0.013
Mof_C 	C 	0.97058	0.77831	0.851	-0.189
Mof_H 	H 	0.9527	0.777	0.8951	0.11
Mof_C 	C 	0.95392	0.76657	0.7741	0.152
Mof_C 	C 	0.98247	0.773	0.7099	-0.191
Mof_H 	H 	0.9724	0.7669	0.6544	0.098
Mof_C 	C 	0.02584	0.7884	0.7254	0.106
Mof_H 	H 	0.0441	0.7925	0.6802	0.01
Mof_C 	C 	0.90694	0.74644	0.7573	-0.09
Mof_C 	C 	0.88687	0.70786	0.7131	-0.034
Mof_H 	H 	0.903	0.695	0.6979	0.043
Mof_H 	H 	0.9422	0.8407	0.7243	-0.036
Mof_H 	H 	0.925	0.8937	0.8339	0.226
Mof_O 	O 	0.77641	0.14599	0.08753	-0.414
Mof_O 	O 	0.76865	0.15395	0.22813	-0.404
Mof_C 	C 	0.75563	0.14531	0.15233	0.365
Mof_C 	C 	0.7084	0.13074	0.13583	-0.15
Mof_C 	C 	0.6809	0.12603	0.20203	0.093
Mof_H 	H 	0.69117	0.13233	0.25733	0.013
Mof_C 	C 	0.63725	0.11164	0.18433	-0.189
Mof_H 	H 	0.61937	0.11033	0.22843	0.109
Mof_C 	C 	0.62059	0.0999	0.10743	0.151
Mof_C 	C 	0.64914	0.10633	0.04323	-0.191
Mof_H 	H 	0.63907	0.10023	0.98773	0.098
Mof_C 	C 	0.69251	0.12173	0.05873	0.106
Mof_H 	H 	0.71077	0.12583	0.01353	0.01
Mof_C 	C 	0.57361	0.07977	0.09063	-0.09
Mof_C 	C 	0.55354	0.04119	0.04643	-0.035
Mof_H 	H 	0.56967	0.02833	0.03123	0.043
Mof_H 	H 	0.60887	0.17403	0.05763	-0.036
Mof_H 	H 	0.59167	0.22703	0.16723	0.226
Mof_O 	O 	0.44307	0.47933	0.42087	-0.414
Mof_O 	O 	0.43531	0.48729	0.56147	-0.404
Mof_C 	C 	0.42229	0.47865	0.48567	0.365
Mof_C 	C 	0.37506	0.46408	0.46917	-0.151
Mof_C 	C 	0.34756	0.45937	0.53537	0.093
Mof_H 	H 	0.35783	0.46567	0.59067	0.013
Mof_C 	C 	0.30391	0.44498	0.51767	-0.189
Mof_H 	H 	0.28603	0.44367	0.56177	0.109
Mof_C 	C 	0.28725	0.43324	0.44077	0.152
Mof_C 	C 	0.3158	0.43967	0.37657	-0.191
Mof_H 	H 	0.30573	0.43357	0.32107	0.098
Mof_C 	C 	0.35917	0.45507	0.39207	0.106
Mof_H 	H 	0.37743	0.45917	0.34687	0.01
Mof_C 	C 	0.24027	0.41311	0.42397	-0.09
Mof_C 	C 	0.2202	0.37453	0.37977	-0.035
Mof_H 	H 	0.23633	0.36167	0.36457	0.043
Mof_H 	H 	0.27553	0.50737	0.39097	-0.036
Mof_H 	H 	0.25833	0.56037	0.50057	0.226
Mof_O 	O 	0.70292	0.89026	0.7542	-0.414
Mof_O 	O 	0.71864	0.89802	0.8948	-0.404
Mof_C 	C 	0.72302	0.91104	0.819	0.365
Mof_C 	C 	0.75568	0.95827	0.8025	-0.15
Mof_C 	C 	0.77847	0.98577	0.8687	0.093
Mof_H 	H 	0.7745	0.9755	0.924	0.013
Mof_C 	C 	0.80773	0.02942	0.851	-0.189
Mof_H 	H 	0.8243	0.0473	0.8951	0.109
Mof_C 	C 	0.81265	0.04608	0.7741	0.151
Mof_C 	C 	0.79053	0.01753	0.7099	-0.191
Mof_H 	H 	0.7945	0.0276	0.6544	0.098
Mof_C 	C 	0.76256	0.97416	0.7254	0.106
Mof_H 	H 	0.7484	0.9559	0.6802	0.01
Mof_C 	C 	0.8395	0.09306	0.7573	-0.09
Mof_C 	C 	0.82099	0.11313	0.7131	-0.035
Mof_H 	H 	0.792	0.097	0.6979	0.043
Mof_H 	H 	0.8985	0.0578	0.7243	-0.036
Mof_H 	H 	0.9687	0.075	0.8339	0.226
Mof_O 	O 	0.36959	0.22359	0.08753	-0.414
Mof_O 	O 	0.38531	0.23135	0.22813	-0.404
Mof_C 	C 	0.38969	0.24437	0.15233	0.365
Mof_C 	C 	0.42235	0.2916	0.13583	-0.15
Mof_C 	C 	0.44514	0.3191	0.20203	0.093
Mof_H 	H 	0.44117	0.30883	0.25733	0.013
Mof_C 	C 	0.4744	0.36275	0.18433	-0.189
Mof_H 	H 	0.49097	0.38063	0.22843	0.109
Mof_C 	C 	0.47932	0.37941	0.10743	0.151
Mof_C 	C 	0.4572	0.35086	0.04323	-0.191
Mof_H 	H 	0.46117	0.36093	0.98773	0.098
Mof_C 	C 	0.42923	0.30749	0.05873	0.106
Mof_H 	H 	0.41507	0.28923	0.01353	0.01
Mof_C 	C 	0.50617	0.42639	0.09063	-0.09
Mof_C 	C 	0.48766	0.44646	0.04643	-0.035
Mof_H 	H 	0.45867	0.43033	0.03123	0.043
Mof_H 	H 	0.56517	0.39113	0.05763	-0.036
Mof_H 	H 	0.63537	0.40833	0.16723	0.226
Mof_O 	O 	0.03625	0.55693	0.42087	-0.414
Mof_O 	O 	0.05197	0.56469	0.56147	-0.404
Mof_C 	C 	0.05635	0.57771	0.48567	0.365
Mof_C 	C 	0.08901	0.62494	0.46917	-0.15
Mof_C 	C 	0.1118	0.65244	0.53537	0.093
Mof_H 	H 	0.10783	0.64217	0.59067	0.013
Mof_C 	C 	0.14106	0.69609	0.51767	-0.189
Mof_H 	H 	0.15763	0.71397	0.56177	0.109
Mof_C 	C 	0.14598	0.71275	0.44077	0.152
Mof_C 	C 	0.12386	0.6842	0.37657	-0.191
Mof_H 	H 	0.12783	0.69427	0.32107	0.098
Mof_C 	C 	0.09589	0.64083	0.39207	0.106
Mof_H 	H 	0.08173	0.62257	0.34687	0.01
Mof_C 	C 	0.17283	0.75973	0.42397	-0.09
Mof_C 	C 	0.15432	0.7798	0.37977	-0.034
Mof_H 	H 	0.12533	0.76367	0.36457	0.043
Mof_H 	H 	0.23183	0.72447	0.39097	-0.036
Mof_H 	H 	0.30203	0.74167	0.50057	0.226
Mof_O 	O 	0.18734	0.29708	0.7542	-0.414
Mof_O 	O 	0.17938	0.28136	0.8948	-0.404
Mof_C 	C 	0.18802	0.27698	0.819	0.365
Mof_C 	C 	0.20259	0.24432	0.8025	-0.15
Mof_C 	C 	0.2073	0.22153	0.8687	0.093
Mof_H 	H 	0.201	0.2255	0.924	0.013
Mof_C 	C 	0.22169	0.19227	0.851	-0.189
Mof_H 	H 	0.223	0.1757	0.8951	0.109
Mof_C 	C 	0.23343	0.18735	0.7741	0.152
Mof_C 	C 	0.227	0.20947	0.7099	-0.191
Mof_H 	H 	0.2331	0.2055	0.6544	0.098
Mof_C 	C 	0.2116	0.23744	0.7254	0.106
Mof_H 	H 	0.2075	0.2516	0.6802	0.01
Mof_C 	C 	0.25356	0.1605	0.7573	-0.09
Mof_C 	C 	0.29214	0.17901	0.7131	-0.034
Mof_H 	H 	0.305	0.208	0.6979	0.043
Mof_H 	H 	0.1593	0.1015	0.7243	-0.036
Mof_H 	H 	0.1063	0.0313	0.8339	0.226
Mof_O 	O 	0.85401	0.63041	0.08753	-0.414
Mof_O 	O 	0.84605	0.61469	0.22813	-0.404
Mof_C 	C 	0.85469	0.61031	0.15233	0.365
Mof_C 	C 	0.86926	0.57765	0.13583	-0.15
Mof_C 	C 	0.87397	0.55486	0.20203	0.093
Mof_H 	H 	0.86767	0.55883	0.25733	0.013
Mof_C 	C 	0.88836	0.5256	0.18433	-0.189
Mof_H 	H 	0.88967	0.50903	0.22843	0.109
Mof_C 	C 	0.9001	0.52068	0.10743	0.151
Mof_C 	C 	0.89367	0.5428	0.04323	-0.191
Mof_H 	H 	0.89977	0.53883	0.98773	0.098
Mof_C 	C 	0.87827	0.57077	0.05873	0.106
Mof_H 	H 	0.87417	0.58493	0.01353	0.01
Mof_C 	C 	0.92023	0.49383	0.09063	-0.09
Mof_C 	C 	0.95881	0.51234	0.04643	-0.035
Mof_H 	H 	0.97167	0.54133	0.03123	0.043
Mof_H 	H 	0.82597	0.43483	0.05763	-0.036
Mof_H 	H 	0.77297	0.36463	0.16723	0.226
Mof_O 	O 	0.52067	0.96375	0.42087	-0.414
Mof_O 	O 	0.51271	0.94803	0.56147	-0.404
Mof_C 	C 	0.52135	0.94365	0.48567	0.365
Mof_C 	C 	0.53592	0.91099	0.46917	-0.151
Mof_C 	C 	0.54063	0.8882	0.53537	0.093
Mof_H 	H 	0.53433	0.89217	0.59067	0.013
Mof_C 	C 	0.55502	0.85894	0.51767	-0.189
Mof_H 	H 	0.55633	0.84237	0.56177	0.109
Mof_C 	C 	0.56676	0.85402	0.44077	0.152
Mof_C 	C 	0.56033	0.87614	0.37657	-0.191
Mof_H 	H 	0.56643	0.87217	0.32107	0.098
Mof_C 	C 	0.54493	0.90411	0.39207	0.106
Mof_H 	H 	0.54083	0.91827	0.34687	0.01
Mof_C 	C 	0.58689	0.82717	0.42397	-0.09
Mof_C 	C 	0.62547	0.84568	0.37977	-0.035
Mof_H 	H 	0.63833	0.87467	0.36457	0.043
Mof_H 	H 	0.49263	0.76817	0.39097	-0.036
Mof_H 	H 	0.43963	0.69797	0.50057	0.226
Mof_O 	O 	0.18734	0.89026	0.7542	-0.414
Mof_O 	O 	0.17938	0.89802	0.8948	-0.404
Mof_C 	C 	0.18802	0.91104	0.819	0.365
Mof_C 	C 	0.20259	0.95827	0.8025	-0.151
Mof_C 	C 	0.2073	0.98577	0.8687	0.093
Mof_H 	H 	0.201	0.9755	0.924	0.013
Mof_C 	C 	0.22169	0.02942	0.851	-0.189
Mof_H 	H 	0.223	0.0473	0.8951	0.11
Mof_C 	C 	0.23343	0.04608	0.7741	0.152
Mof_C 	C 	0.227	0.01753	0.7099	-0.191
Mof_H 	H 	0.2331	0.0276	0.6544	0.098
Mof_C 	C 	0.2116	0.97416	0.7254	0.106
Mof_H 	H 	0.2075	0.9559	0.6802	0.01
Mof_C 	C 	0.25356	0.09306	0.7573	-0.09
Mof_C 	C 	0.29214	0.11313	0.7131	-0.034
Mof_H 	H 	0.305	0.097	0.6979	0.043
Mof_H 	H 	0.1593	0.0578	0.7243	-0.036
Mof_H 	H 	0.1063	0.075	0.8339	0.226
Mof_O 	O 	0.85401	0.22359	0.08753	-0.414
Mof_O 	O 	0.84605	0.23135	0.22813	-0.404
Mof_C 	C 	0.85469	0.24437	0.15233	0.365
Mof_C 	C 	0.86926	0.2916	0.13583	-0.15
Mof_C 	C 	0.87397	0.3191	0.20203	0.093
Mof_H 	H 	0.86767	0.30883	0.25733	0.013
Mof_C 	C 	0.88836	0.36275	0.18433	-0.189
Mof_H 	H 	0.88967	0.38063	0.22843	0.109
Mof_C 	C 	0.9001	0.37941	0.10743	0.151
Mof_C 	C 	0.89367	0.35086	0.04323	-0.191
Mof_H 	H 	0.89977	0.36093	0.98773	0.098
Mof_C 	C 	0.87827	0.30749	0.05873	0.106
Mof_H 	H 	0.87417	0.28923	0.01353	0.01
Mof_C 	C 	0.92023	0.42639	0.09063	-0.09
Mof_C 	C 	0.95881	0.44646	0.04643	-0.035
Mof_H 	H 	0.97167	0.43033	0.03123	0.043
Mof_H 	H 	0.82597	0.39113	0.05763	-0.036
Mof_H 	H 	0.77297	0.40833	0.16723	0.226
Mof_O 	O 	0.52067	0.55693	0.42087	-0.414
Mof_O 	O 	0.51271	0.56469	0.56147	-0.404
Mof_C 	C 	0.52135	0.57771	0.48567	0.365
Mof_C 	C 	0.53592	0.62494	0.46917	-0.151
Mof_C 	C 	0.54063	0.65244	0.53537	0.093
Mof_H 	H 	0.53433	0.64217	0.59067	0.013
Mof_C 	C 	0.55502	0.69609	0.51767	-0.189
Mof_H 	H 	0.55633	0.71397	0.56177	0.109
Mof_C 	C 	0.56676	0.71275	0.44077	0.152
Mof_C 	C 	0.56033	0.6842	0.37657	-0.191
Mof_H 	H 	0.56643	0.69427	0.32107	0.098
Mof_C 	C 	0.54493	0.64083	0.39207	0.106
Mof_H 	H 	0.54083	0.62257	0.34687	0.01
Mof_C 	C 	0.58689	0.75973	0.42397	-0.09
Mof_C 	C 	0.62547	0.7798	0.37977	-0.035
Mof_H 	H 	0.63833	0.76367	0.36457	0.043
Mof_H 	H 	0.49263	0.72447	0.39097	-0.036
Mof_H 	H 	0.43963	0.74167	0.50057	0.226
Mof_O 	O 	0.10974	0.29708	0.7542	-0.414
Mof_O 	O 	0.10198	0.28136	0.8948	-0.404
Mof_C 	C 	0.08896	0.27698	0.819	0.365
Mof_C 	C 	0.04173	0.24432	0.8025	-0.15
Mof_C 	C 	0.01423	0.22153	0.8687	0.093
Mof_H 	H 	0.0245	0.2255	0.924	0.013
Mof_C 	C 	0.97058	0.19227	0.851	-0.189
Mof_H 	H 	0.9527	0.1757	0.8951	0.109
Mof_C 	C 	0.95392	0.18735	0.7741	0.151
Mof_C 	C 	0.98247	0.20947	0.7099	-0.191
Mof_H 	H 	0.9724	0.2055	0.6544	0.098
Mof_C 	C 	0.02584	0.23744	0.7254	0.106
Mof_H 	H 	0.0441	0.2516	0.6802	0.01
Mof_C 	C 	0.90694	0.1605	0.7573	-0.09
Mof_C 	C 	0.88687	0.17901	0.7131	-0.035
Mof_H 	H 	0.903	0.208	0.6979	0.043
Mof_H 	H 	0.9422	0.1015	0.7243	-0.036
Mof_H 	H 	0.925	0.0313	0.8339	0.226
Mof_O 	O 	0.77641	0.63041	0.08753	-0.414
Mof_O 	O 	0.76865	0.61469	0.22813	-0.404
Mof_C 	C 	0.75563	0.61031	0.15233	0.365
Mof_C 	C 	0.7084	0.57765	0.13583	-0.15
Mof_C 	C 	0.6809	0.55486	0.20203	0.093
Mof_H 	H 	0.69117	0.55883	0.25733	0.013
Mof_C 	C 	0.63725	0.5256	0.18433	-0.189
Mof_H 	H 	0.61937	0.50903	0.22843	0.109
Mof_C 	C 	0.62059	0.52068	0.10743	0.151
Mof_C 	C 	0.64914	0.5428	0.04323	-0.191
Mof_H 	H 	0.63907	0.53883	0.98773	0.098
Mof_C 	C 	0.69251	0.57077	0.05873	0.106
Mof_H 	H 	0.71077	0.58493	0.01353	0.01
Mof_C 	C 	0.57361	0.49383	0.09063	-0.09
Mof_C 	C 	0.55354	0.51234	0.04643	-0.035
Mof_H 	H 	0.56967	0.54133	0.03123	0.043
Mof_H 	H 	0.60887	0.43483	0.05763	-0.036
Mof_H 	H 	0.59167	0.36463	0.16723	0.226
Mof_O 	O 	0.44307	0.96375	0.42087	-0.414
Mof_O 	O 	0.43531	0.94803	0.56147	-0.404
Mof_C 	C 	0.42229	0.94365	0.48567	0.365
Mof_C 	C 	0.37506	0.91099	0.46917	-0.15
Mof_C 	C 	0.34756	0.8882	0.53537	0.093
Mof_H 	H 	0.35783	0.89217	0.59067	0.013
Mof_C 	C 	0.30391	0.85894	0.51767	-0.189
Mof_H 	H 	0.28603	0.84237	0.56177	0.109
Mof_C 	C 	0.28725	0.85402	0.44077	0.152
Mof_C 	C 	0.3158	0.87614	0.37657	-0.191
Mof_H 	H 	0.30573	0.87217	0.32107	0.098
Mof_C 	C 	0.35917	0.90411	0.39207	0.106
Mof_H 	H 	0.37743	0.91827	0.34687	0.01
Mof_C 	C 	0.24027	0.82717	0.42397	-0.09
Mof_C 	C 	0.2202	0.84568	0.37977	-0.034
Mof_H 	H 	0.23633	0.87467	0.36457	0.043
Mof_H 	H 	0.27553	0.76817	0.39097	-0.036
Mof_H 	H 	0.25833	0.69797	0.50057	0.226
Mof_O 	O 	0.70292	0.81266	0.7542	-0.414
Mof_O 	O 	0.71864	0.82062	0.8948	-0.404
Mof_C 	C 	0.72302	0.81198	0.819	0.365
Mof_C 	C 	0.75568	0.79741	0.8025	-0.15
Mof_C 	C 	0.77847	0.7927	0.8687	0.093
Mof_H 	H 	0.7745	0.799	0.924	0.013
Mof_C 	C 	0.80773	0.77831	0.851	-0.189
Mof_H 	H 	0.8243	0.777	0.8951	0.109
Mof_C 	C 	0.81265	0.76657	0.7741	0.152
Mof_C 	C 	0.79053	0.773	0.7099	-0.191
Mof_H 	H 	0.7945	0.7669	0.6544	0.098
Mof_C 	C 	0.76256	0.7884	0.7254	0.106
Mof_H 	H 	0.7484	0.7925	0.6802	0.01
Mof_C 	C 	0.8395	0.74644	0.7573	-0.09
Mof_C 	C 	0.82099	0.70786	0.7131	-0.034
Mof_H 	H 	0.792	0.695	0.6979	0.043
Mof_H 	H 	0.8985	0.8407	0.7243	-0.036
Mof_H 	H 	0.9687	0.8937	0.8339	0.226
Mof_O 	O 	0.36959	0.14599	0.08753	-0.414
Mof_O 	O 	0.38531	0.15395	0.22813	-0.404
Mof_C 	C 	0.38969	0.14531	0.15233	0.365
Mof_C 	C 	0.42235	0.13074	0.13583	-0.15
Mof_C 	C 	0.44514	0.12603	0.20203	0.093
Mof_H 	H 	0.44117	0.13233	0.25733	0.013
Mof_C 	C 	0.4744	0.11164	0.18433	-0.189
Mof_H 	H 	0.49097	0.11033	0.22843	0.109
Mof_C 	C 	0.47932	0.0999	0.10743	0.151
Mof_C 	C 	0.4572	0.10633	0.04323	-0.191
Mof_H 	H 	0.46117	0.10023	0.98773	0.098
Mof_C 	C 	0.42923	0.12173	0.05873	0.106
Mof_H 	H 	0.41507	0.12583	0.01353	0.01
Mof_C 	C 	0.50617	0.07977	0.09063	-0.09
Mof_C 	C 	0.48766	0.04119	0.04643	-0.035
Mof_H 	H 	0.45867	0.02833	0.03123	0.043
Mof_H 	H 	0.56517	0.17403	0.05763	-0.036
Mof_H 	H 	0.63537	0.22703	0.16723	0.226
Mof_O 	O 	0.03625	0.47933	0.42087	-0.414
Mof_O 	O 	0.05197	0.48729	0.56147	-0.404
Mof_C 	C 	0.05635	0.47865	0.48567	0.365
Mof_C 	C 	0.08901	0.46408	0.46917	-0.151
Mof_C 	C 	0.1118	0.45937	0.53537	0.093
Mof_H 	H 	0.10783	0.46567	0.59067	0.013
Mof_C 	C 	0.14106	0.44498	0.51767	-0.189
Mof_H 	H 	0.15763	0.44367	0.56177	0.109
Mof_C 	C 	0.14598	0.43324	0.44077	0.152
Mof_C 	C 	0.12386	0.43967	0.37657	-0.191
Mof_H 	H 	0.12783	0.43357	0.32107	0.098
Mof_C 	C 	0.09589	0.45507	0.39207	0.106
Mof_H 	H 	0.08173	0.45917	0.34687	0.01
Mof_C 	C 	0.17283	0.41311	0.42397	-0.09
Mof_C 	C 	0.15432	0.37453	0.37977	-0.035
Mof_H 	H 	0.12533	0.36167	0.36457	0.043
Mof_H 	H 	0.23183	0.50737	0.39097	-0.036
Mof_H 	H 	0.30203	0.56037	0.50057	0.226
Mof_O 	O 	0.89026	0.18734	0.2458	-0.414
Mof_O 	O 	0.89802	0.17938	0.1052	-0.404
Mof_C 	C 	0.91104	0.18802	0.181	0.365
Mof_C 	C 	0.95827	0.20259	0.1975	-0.151
Mof_C 	C 	0.98577	0.2073	0.1313	0.093
Mof_H 	H 	0.9755	0.201	0.076	0.013
Mof_C 	C 	0.02942	0.22169	0.149	-0.189
Mof_H 	H 	0.0473	0.223	0.1049	0.11
Mof_C 	C 	0.04608	0.23343	0.2259	0.152
Mof_C 	C 	0.01753	0.227	0.2901	-0.191
Mof_H 	H 	0.0276	0.2331	0.3456	0.098
Mof_C 	C 	0.97416	0.2116	0.2746	0.106
Mof_H 	H 	0.9559	0.2075	0.3198	0.01
Mof_C 	C 	0.09306	0.25356	0.2427	-0.09
Mof_C 	C 	0.11313	0.29214	0.2869	-0.034
Mof_H 	H 	0.097	0.305	0.3021	0.043
Mof_H 	H 	0.0578	0.1593	0.2757	-0.036
Mof_H 	H 	0.075	0.1063	0.1661	0.226
Mof_O 	O 	0.55693	0.52067	0.57913	-0.414
Mof_O 	O 	0.56469	0.51271	0.43853	-0.404
Mof_C 	C 	0.57771	0.52135	0.51433	0.365
Mof_C 	C 	0.62494	0.53592	0.53083	-0.151
Mof_C 	C 	0.65244	0.54063	0.46463	0.093
Mof_H 	H 	0.64217	0.53433	0.40933	0.013
Mof_C 	C 	0.69609	0.55502	0.48233	-0.189
Mof_H 	H 	0.71397	0.55633	0.43823	0.109
Mof_C 	C 	0.71275	0.56676	0.55923	0.152
Mof_C 	C 	0.6842	0.56033	0.62343	-0.191
Mof_H 	H 	0.69427	0.56643	0.67893	0.098
Mof_C 	C 	0.64083	0.54493	0.60793	0.106
Mof_H 	H 	0.62257	0.54083	0.65313	0.01
Mof_C 	C 	0.75973	0.58689	0.57603	-0.09
Mof_C 	C 	0.7798	0.62547	0.62023	-0.035
Mof_H 	H 	0.76367	0.63833	0.63543	0.043
Mof_H 	H 	0.72447	0.49263	0.60903	-0.036
Mof_H 	H 	0.74167	0.43963	0.49943	0.226
Mof_O 	O 	0.22359	0.85401	0.91247	-0.414
Mof_O 	O 	0.23135	0.84605	0.77187	-0.404
Mof_C 	C 	0.24437	0.85469	0.84767	0.365
Mof_C 	C 	0.2916	0.86926	0.86417	-0.15
Mof_C 	C 	0.3191	0.87397	0.79797	0.093
Mof_H 	H 	0.30883	0.86767	0.74267	0.013
Mof_C 	C 	0.36275	0.88836	0.81567	-0.189
Mof_H 	H 	0.38063	0.88967	0.77157	0.109
Mof_C 	C 	0.37941	0.9001	0.89257	0.151
Mof_C 	C 	0.35086	0.89367	0.95677	-0.191
Mof_H 	H 	0.36093	0.89977	0.01227	0.098
Mof_C 	C 	0.30749	0.87827	0.94127	0.106
Mof_H 	H 	0.28923	0.87417	0.98647	0.01
Mof_C 	C 	0.42639	0.92023	0.90937	-0.09
Mof_C 	C 	0.44646	0.95881	0.95357	-0.035
Mof_H 	H 	0.43033	0.97167	0.96877	0.043
Mof_H 	H 	0.39113	0.82597	0.94237	-0.036
Mof_H 	H 	0.40833	0.77297	0.83277	0.226
Mof_O 	O 	0.29708	0.10974	0.2458	-0.414
Mof_O 	O 	0.28136	0.10198	0.1052	-0.404
Mof_C 	C 	0.27698	0.08896	0.181	0.365
Mof_C 	C 	0.24432	0.04173	0.1975	-0.15
Mof_C 	C 	0.22153	0.01423	0.1313	0.093
Mof_H 	H 	0.2255	0.0245	0.076	0.013
Mof_C 	C 	0.19227	0.97058	0.149	-0.189
Mof_H 	H 	0.1757	0.9527	0.1049	0.109
Mof_C 	C 	0.18735	0.95392	0.2259	0.151
Mof_C 	C 	0.20947	0.98247	0.2901	-0.191
Mof_H 	H 	0.2055	0.9724	0.3456	0.098
Mof_C 	C 	0.23744	0.02584	0.2746	0.106
Mof_H 	H 	0.2516	0.0441	0.3198	0.01
Mof_C 	C 	0.1605	0.90694	0.2427	-0.09
Mof_C 	C 	0.17901	0.88687	0.2869	-0.035
Mof_H 	H 	0.208	0.903	0.3021	0.043
Mof_H 	H 	0.1015	0.9422	0.2757	-0.036
Mof_H 	H 	0.0313	0.925	0.1661	0.226
Mof_O 	O 	0.96375	0.44307	0.57913	-0.414
Mof_O 	O 	0.94803	0.43531	0.43853	-0.404
Mof_C 	C 	0.94365	0.42229	0.51433	0.365
Mof_C 	C 	0.91099	0.37506	0.53083	-0.15
Mof_C 	C 	0.8882	0.34756	0.46463	0.093
Mof_H 	H 	0.89217	0.35783	0.40933	0.013
Mof_C 	C 	0.85894	0.30391	0.48233	-0.189
Mof_H 	H 	0.84237	0.28603	0.43823	0.109
Mof_C 	C 	0.85402	0.28725	0.55923	0.152
Mof_C 	C 	0.87614	0.3158	0.62343	-0.191
Mof_H 	H 	0.87217	0.30573	0.67893	0.098
Mof_C 	C 	0.90411	0.35917	0.60793	0.106
Mof_H 	H 	0.91827	0.37743	0.65313	0.01
Mof_C 	C 	0.82717	0.24027	0.57603	-0.09
Mof_C 	C 	0.84568	0.2202	0.62023	-0.034
Mof_H 	H 	0.87467	0.23633	0.63543	0.043
Mof_H 	H 	0.76817	0.27553	0.60903	-0.036
Mof_H 	H 	0.69797	0.25833	0.49943	0.226
Mof_O 	O 	0.63041	0.77641	0.91247	-0.414
Mof_O 	O 	0.61469	0.76865	0.77187	-0.404
Mof_C 	C 	0.61031	0.75563	0.84767	0.365
Mof_C 	C 	0.57765	0.7084	0.86417	-0.15
Mof_C 	C 	0.55486	0.6809	0.79797	0.093
Mof_H 	H 	0.55883	0.69117	0.74267	0.013
Mof_C 	C 	0.5256	0.63725	0.81567	-0.189
Mof_H 	H 	0.50903	0.61937	0.77157	0.109
Mof_C 	C 	0.52068	0.62059	0.89257	0.151
Mof_C 	C 	0.5428	0.64914	0.95677	-0.191
Mof_H 	H 	0.53883	0.63907	0.01227	0.098
Mof_C 	C 	0.57077	0.69251	0.94127	0.106
Mof_H 	H 	0.58493	0.71077	0.98647	0.01
Mof_C 	C 	0.49383	0.57361	0.90937	-0.09
Mof_C 	C 	0.51234	0.55354	0.95357	-0.035
Mof_H 	H 	0.54133	0.56967	0.96877	0.043
Mof_H 	H 	0.43483	0.60887	0.94237	-0.036
Mof_H 	H 	0.36463	0.59167	0.83277	0.226
Mof_O 	O 	0.81266	0.70292	0.2458	-0.414
Mof_O 	O 	0.82062	0.71864	0.1052	-0.404
Mof_C 	C 	0.81198	0.72302	0.181	0.365
Mof_C 	C 	0.79741	0.75568	0.1975	-0.15
Mof_C 	C 	0.7927	0.77847	0.1313	0.093
Mof_H 	H 	0.799	0.7745	0.076	0.013
Mof_C 	C 	0.77831	0.80773	0.149	-0.189
Mof_H 	H 	0.777	0.8243	0.1049	0.109
Mof_C 	C 	0.76657	0.81265	0.2259	0.152
Mof_C 	C 	0.773	0.79053	0.2901	-0.191
Mof_H 	H 	0.7669	0.7945	0.3456	0.098
Mof_C 	C 	0.7884	0.76256	0.2746	0.106
Mof_H 	H 	0.7925	0.7484	0.3198	0.01
Mof_C 	C 	0.74644	0.8395	0.2427	-0.09
Mof_C 	C 	0.70786	0.82099	0.2869	-0.034
Mof_H 	H 	0.695	0.792	0.3021	0.043
Mof_H 	H 	0.8407	0.8985	0.2757	-0.036
Mof_H 	H 	0.8937	0.9687	0.1661	0.226
Mof_O 	O 	0.47933	0.03625	0.57913	-0.414
Mof_O 	O 	0.48729	0.05197	0.43853	-0.404
Mof_C 	C 	0.47865	0.05635	0.51433	0.365
Mof_C 	C 	0.46408	0.08901	0.53083	-0.151
Mof_C 	C 	0.45937	0.1118	0.46463	0.093
Mof_H 	H 	0.46567	0.10783	0.40933	0.013
Mof_C 	C 	0.44498	0.14106	0.48233	-0.189
Mof_H 	H 	0.44367	0.15763	0.43823	0.109
Mof_C 	C 	0.43324	0.14598	0.55923	0.152
Mof_C 	C 	0.43967	0.12386	0.62343	-0.191
Mof_H 	H 	0.43357	0.12783	0.67893	0.098
Mof_C 	C 	0.45507	0.09589	0.60793	0.106
Mof_H 	H 	0.45917	0.08173	0.65313	0.01
Mof_C 	C 	0.41311	0.17283	0.57603	-0.09
Mof_C 	C 	0.37453	0.15432	0.62023	-0.035
Mof_H 	H 	0.36167	0.12533	0.63543	0.043
Mof_H 	H 	0.50737	0.23183	0.60903	-0.036
Mof_H 	H 	0.56037	0.30203	0.49943	0.226
Mof_O 	O 	0.14599	0.36959	0.91247	-0.414
Mof_O 	O 	0.15395	0.38531	0.77187	-0.404
Mof_C 	C 	0.14531	0.38969	0.84767	0.365
Mof_C 	C 	0.13074	0.42235	0.86417	-0.15
Mof_C 	C 	0.12603	0.44514	0.79797	0.093
Mof_H 	H 	0.13233	0.44117	0.74267	0.013
Mof_C 	C 	0.11164	0.4744	0.81567	-0.189
Mof_H 	H 	0.11033	0.49097	0.77157	0.109
Mof_C 	C 	0.0999	0.47932	0.89257	0.151
Mof_C 	C 	0.10633	0.4572	0.95677	-0.191
Mof_H 	H 	0.10023	0.46117	0.01227	0.098
Mof_C 	C 	0.12173	0.42923	0.94127	0.106
Mof_H 	H 	0.12583	0.41507	0.98647	0.01
Mof_C 	C 	0.07977	0.50617	0.90937	-0.09
Mof_C 	C 	0.04119	0.48766	0.95357	-0.035
Mof_H 	H 	0.02833	0.45867	0.96877	0.043
Mof_H 	H 	0.17403	0.56517	0.94237	-0.036
Mof_H 	H 	0.22703	0.63537	0.83277	0.226
Mof_Cu	Cu	0.83766	0.16234	0.08559	0.901
Mof_Cu	Cu	0.50433	0.49567	0.41892	0.901
Mof_Cu	Cu	0.17099	0.82901	0.75226	0.901
Mof_Cu	Cu	0.83766	0.67532	0.08559	0.901
Mof_Cu	Cu	0.50433	0.00865	0.41892	0.901
Mof_Cu	Cu	0.17099	0.34199	0.75226	0.901
Mof_Cu	Cu	0.32468	0.16234	0.08559	0.901
Mof_Cu	Cu	0.99135	0.49567	0.41892	0.901
Mof_Cu	Cu	0.65801	0.82901	0.75226	0.901
Mof_Cu	Cu	0.16234	0.83766	0.91441	0.901
Mof_Cu	Cu	0.82901	0.17099	0.24774	0.901
Mof_Cu	Cu	0.49567	0.50433	0.58108	0.901
Mof_Cu	Cu	0.67532	0.83766	0.91441	0.901
Mof_Cu	Cu	0.34199	0.17099	0.24774	0.901
Mof_Cu	Cu	0.00865	0.50433	0.58108	0.901
Mof_Cu	Cu	0.16234	0.32468	0.91441	0.901
Mof_Cu	Cu	0.82901	0.65801	0.24774	0.901
Mof_Cu	Cu	0.49567	0.99135	0.58108	0.901
Mof_O 	O 	0.80456	0.90228	0.175	-0.244
Mof_C 	C 	0.68774	0.84387	0.3092	0.001
Mof_C 	C 	0.76574	0.88287	0.2201	0.149
Mof_C 	C 	0.8434	0.9217	0.2397	0.233
Mof_C 	C 	0.8899	0.94495	0.2004	-0.67
Mof_H 	H 	0.9109	0.95545	0.2451	0.216
Mof_O 	O 	0.47123	0.23561	0.50833	-0.244
Mof_C 	C 	0.35441	0.1772	0.64253	0.001
Mof_C 	C 	0.43241	0.2162	0.55343	0.149
Mof_C 	C 	0.51007	0.25503	0.57303	0.233
Mof_C 	C 	0.55657	0.27828	0.53373	-0.669
Mof_H 	H 	0.57757	0.28878	0.57843	0.216
Mof_O 	O 	0.13789	0.56895	0.84167	-0.244
Mof_C 	C 	0.02107	0.51054	0.97587	0.001
Mof_C 	C 	0.09907	0.54954	0.88677	0.149
Mof_C 	C 	0.17673	0.58837	0.90637	0.233
Mof_C 	C 	0.22323	0.61162	0.86707	-0.669
Mof_H 	H 	0.24423	0.62212	0.91177	0.216
Mof_O 	O 	0.09772	0.90228	0.175	-0.244
Mof_C 	C 	0.15613	0.84387	0.3092	0.001
Mof_C 	C 	0.11713	0.88287	0.2201	0.149
Mof_C 	C 	0.0783	0.9217	0.2397	0.233
Mof_C 	C 	0.05505	0.94495	0.2004	-0.67
Mof_H 	H 	0.04455	0.95545	0.2451	0.216
Mof_O 	O 	0.76439	0.23561	0.50833	-0.244
Mof_C 	C 	0.8228	0.1772	0.64253	0.001
Mof_C 	C 	0.7838	0.2162	0.55343	0.149
Mof_C 	C 	0.74497	0.25503	0.57303	0.233
Mof_C 	C 	0.72172	0.27828	0.53373	-0.669
Mof_H 	H 	0.71122	0.28878	0.57843	0.216
Mof_O 	O 	0.43105	0.56895	0.84167	-0.244
Mof_C 	C 	0.48946	0.51054	0.97587	0.001
Mof_C 	C 	0.45046	0.54954	0.88677	0.149
Mof_C 	C 	0.41163	0.58837	0.90637	0.233
Mof_C 	C 	0.38838	0.61162	0.86707	-0.669
Mof_H 	H 	0.37788	0.62212	0.91177	0.216
Mof_O 	O 	0.09772	0.19544	0.175	-0.244
Mof_C 	C 	0.15613	0.31226	0.3092	0.001
Mof_C 	C 	0.11713	0.23426	0.2201	0.149
Mof_C 	C 	0.0783	0.1566	0.2397	0.233
Mof_C 	C 	0.05505	0.1101	0.2004	-0.67
Mof_H 	H 	0.04455	0.0891	0.2451	0.216
Mof_O 	O 	0.76439	0.52877	0.50833	-0.244
Mof_C 	C 	0.8228	0.64559	0.64253	0.001
Mof_C 	C 	0.7838	0.56759	0.55343	0.149
Mof_C 	C 	0.74497	0.48993	0.57303	0.233
Mof_C 	C 	0.72172	0.44343	0.53373	-0.669
Mof_H 	H 	0.71122	0.42243	0.57843	0.216
Mof_O 	O 	0.43105	0.86211	0.84167	-0.244
Mof_C 	C 	0.48946	0.97893	0.97587	0.001
Mof_C 	C 	0.45046	0.90093	0.88677	0.149
Mof_C 	C 	0.41163	0.82327	0.90637	0.233
Mof_C 	C 	0.38838	0.77677	0.86707	-0.669
Mof_H 	H 	0.37788	0.75577	0.91177	0.216
Mof_O 	O 	0.90228	0.80456	0.825	-0.244
Mof_C 	C 	0.84387	0.68774	0.6908	0.001
Mof_C 	C 	0.88287	0.76574	0.7799	0.149
Mof_C 	C 	0.9217	0.8434	0.7603	0.233
Mof_C 	C 	0.94495	0.8899	0.7996	-0.67
Mof_H 	H 	0.95545	0.9109	0.7549	0.216
Mof_O 	O 	0.56895	0.13789	0.15833	-0.244
Mof_C 	C 	0.51054	0.02107	0.02413	0.001
Mof_C 	C 	0.54954	0.09907	0.11323	0.149
Mof_C 	C 	0.58837	0.17673	0.09363	0.233
Mof_C 	C 	0.61162	0.22323	0.13293	-0.669
Mof_H 	H 	0.62212	0.24423	0.08823	0.216
Mof_O 	O 	0.23561	0.47123	0.49167	-0.244
Mof_C 	C 	0.1772	0.35441	0.35747	0.001
Mof_C 	C 	0.2162	0.43241	0.44657	0.149
Mof_C 	C 	0.25503	0.51007	0.42697	0.233
Mof_C 	C 	0.27828	0.55657	0.46627	-0.669
Mof_H 	H 	0.28878	0.57757	0.42157	0.216
Mof_O 	O 	0.90228	0.09772	0.825	-0.244
Mof_C 	C 	0.84387	0.15613	0.6908	0.001
Mof_C 	C 	0.88287	0.11713	0.7799	0.149
Mof_C 	C 	0.9217	0.0783	0.7603	0.233
Mof_C 	C 	0.94495	0.05505	0.7996	-0.67
Mof_H 	H 	0.95545	0.04455	0.7549	0.216
Mof_O 	O 	0.56895	0.43105	0.15833	-0.244
Mof_C 	C 	0.51054	0.48946	0.02413	0.001
Mof_C 	C 	0.54954	0.45046	0.11323	0.149
Mof_C 	C 	0.58837	0.41163	0.09363	0.233
Mof_C 	C 	0.61162	0.38838	0.13293	-0.669
Mof_H 	H 	0.62212	0.37788	0.08823	0.216
Mof_O 	O 	0.23561	0.76439	0.49167	-0.244
Mof_C 	C 	0.1772	0.8228	0.35747	0.001
Mof_C 	C 	0.2162	0.7838	0.44657	0.149
Mof_C 	C 	0.25503	0.74497	0.42697	0.233
Mof_C 	C 	0.27828	0.72172	0.46627	-0.669
Mof_H 	H 	0.28878	0.71122	0.42157	0.216
Mof_O 	O 	0.19544	0.09772	0.825	-0.244
Mof_C 	C 	0.31226	0.15613	0.6908	0.001
Mof_C 	C 	0.23426	0.11713	0.7799	0.149
Mof_C 	C 	0.1566	0.0783	0.7603	0.233
Mof_C 	C 	0.1101	0.05505	0.7996	-0.67
Mof_H 	H 	0.0891	0.04455	0.7549	0.216
Mof_O 	O 	0.86211	0.43105	0.15833	-0.244
Mof_C 	C 	0.97893	0.48946	0.02413	0.001
Mof_C 	C 	0.90093	0.45046	0.11323	0.149
Mof_C 	C 	0.82327	0.41163	0.09363	0.233
Mof_C 	C 	0.77677	0.38838	0.13293	-0.669
Mof_H 	H 	0.75577	0.37788	0.08823	0.216
Mof_O 	O 	0.52877	0.76439	0.49167	-0.244
Mof_C 	C 	0.64559	0.8228	0.35747	0.001
Mof_C 	C 	0.56759	0.7838	0.44657	0.149
Mof_C 	C 	0.48993	0.74497	0.42697	0.233
Mof_C 	C 	0.44343	0.72172	0.46627	-0.669
Mof_H 	H 	0.42243	0.71122	0.42157	0.216
_end
