data_functionalizedCrystal
_audit_creation_method	'EQeq! by Chris Wilmer'
_symmetry_space_group_name_H-M	'P1'
_symmetry_Int_Tables_number	1
_symmetry_cell_setting	triclinic
loop_
_symmetry_equiv_pos_as_xyz
  x,y,z
_cell_length_a	18.628
_cell_length_b	6.8742
_cell_length_c	19.101
_cell_angle_alpha	90
_cell_angle_beta	118.77
_cell_angle_gamma	90
loop_
_atom_site_label
_atom_site_type_symbol
_atom_site_fract_x
_atom_site_fract_y
_atom_site_fract_z
_atom_site_charge
Mof_O 	O 	0.99156	0.38635	0.3964	-0.256
Mof_O 	O 	0.06342	0.3272	0.33384	-0.354
Mof_O 	O 	0.42018	0.5817	0.6016	-0.412
Mof_O 	O 	0.36287	0.471	0.47716	-0.306
Mof_N 	N 	0.12275	0.5227	0.52456	-0.233
Mof_C 	C 	0.13299	0.4627	0.46297	-0.021
Mof_C 	C 	0.20789	0.4628	0.46526	-0.012
Mof_H 	H 	0.2125	0.4217	0.4212	0.04
Mof_C 	C 	0.2766	0.525	0.5341	-0.085
Mof_C 	C 	0.26621	0.5851	0.59769	-0.021
Mof_H 	H 	0.3108	0.6272	0.6448	0.001
Mof_C 	C 	0.18875	0.582	0.5904	0.025
Mof_H 	H 	0.1824	0.6234	0.6335	0.002
Mof_C 	C 	0.05723	0.3868	0.39153	0.133
Mof_C 	C 	0.35996	0.5254	0.5379	0.355
Mof_O 	O 	0.49156	0.88635	0.3964	-0.437
Mof_O 	O 	0.56342	0.8272	0.33384	-0.381
Mof_O 	O 	0.92018	0.0817	0.6016	-0.346
Mof_O 	O 	0.86287	0.971	0.47716	-0.194
Mof_N 	N 	0.62275	0.0227	0.52456	-0.244
Mof_C 	C 	0.63299	0.9627	0.46297	-0.03
Mof_C 	C 	0.70789	0.9628	0.46526	0.087
Mof_H 	H 	0.7125	0.9217	0.4212	0.026
Mof_C 	C 	0.7766	0.025	0.5341	-0.144
Mof_C 	C 	0.76621	0.0851	0.59769	-0.008
Mof_H 	H 	0.8108	0.1272	0.6448	0.005
Mof_C 	C 	0.68875	0.082	0.5904	0.004
Mof_H 	H 	0.6824	0.1234	0.6335	0.005
Mof_C 	C 	0.55723	0.8868	0.39153	0.334
Mof_C 	C 	0.85996	0.0254	0.5379	0.272
Mof_O 	O 	0.00844	0.38635	0.1036	-0.622
Mof_O 	O 	0.93658	0.3272	0.16616	-0.349
Mof_O 	O 	0.57982	0.5817	0.8984	-0.42
Mof_O 	O 	0.63713	0.471	0.02284	-0.369
Mof_N 	N 	0.87725	0.5227	0.97544	-0.132
Mof_C 	C 	0.86701	0.4627	0.03703	-0.133
Mof_C 	C 	0.79211	0.4628	0.03474	-0.031
Mof_H 	H 	0.7875	0.4217	0.0788	0.045
Mof_C 	C 	0.7234	0.525	0.9659	-0.045
Mof_C 	C 	0.73379	0.5851	0.90231	-0.015
Mof_H 	H 	0.6892	0.6272	0.8552	0.002
Mof_C 	C 	0.81125	0.582	0.9096	0.034
Mof_H 	H 	0.8176	0.6234	0.8665	0.022
Mof_C 	C 	0.94277	0.3868	0.10847	0.516
Mof_C 	C 	0.64004	0.5254	0.9621	0.425
Mof_O 	O 	0.50844	0.88635	0.1036	-0.445
Mof_O 	O 	0.43658	0.8272	0.16616	-0.384
Mof_O 	O 	0.07982	0.0817	0.8984	-0.457
Mof_O 	O 	0.13713	0.971	0.02284	-0.319
Mof_N 	N 	0.37725	0.0227	0.97544	-0.203
Mof_C 	C 	0.36701	0.9627	0.03703	-0.066
Mof_C 	C 	0.29211	0.9628	0.03474	0.024
Mof_H 	H 	0.2875	0.9217	0.0788	0.038
Mof_C 	C 	0.2234	0.025	0.9659	-0.102
Mof_C 	C 	0.23379	0.0851	0.90231	-0.01
Mof_H 	H 	0.1892	0.1272	0.8552	-0.02
Mof_C 	C 	0.31125	0.082	0.9096	0.012
Mof_H 	H 	0.3176	0.1234	0.8665	-0.001
Mof_C 	C 	0.44277	0.8868	0.10847	0.338
Mof_C 	C 	0.14004	0.0254	0.9621	0.364
Mof_O 	O 	0.00844	0.61365	0.6036	-0.61
Mof_O 	O 	0.93658	0.6728	0.66616	-0.352
Mof_O 	O 	0.57982	0.4183	0.3984	-0.432
Mof_O 	O 	0.63713	0.529	0.52284	-0.294
Mof_N 	N 	0.87725	0.4773	0.47544	-0.17
Mof_C 	C 	0.86701	0.5373	0.53703	-0.101
Mof_C 	C 	0.79211	0.5372	0.53474	0.054
Mof_H 	H 	0.7875	0.5783	0.5788	0.035
Mof_C 	C 	0.7234	0.475	0.4659	-0.116
Mof_C 	C 	0.73379	0.4149	0.40231	0.003
Mof_H 	H 	0.6892	0.3728	0.3552	-0.022
Mof_C 	C 	0.81125	0.418	0.4096	0.005
Mof_H 	H 	0.8176	0.3766	0.3665	0.015
Mof_C 	C 	0.94277	0.6132	0.60847	0.525
Mof_C 	C 	0.64004	0.4746	0.4621	0.359
Mof_O 	O 	0.50844	0.11365	0.6036	-0.474
Mof_O 	O 	0.43658	0.1728	0.66616	-0.405
Mof_O 	O 	0.07982	0.9183	0.3984	-0.406
Mof_O 	O 	0.13713	0.029	0.52284	-0.382
Mof_N 	N 	0.37725	0.9773	0.47544	-0.175
Mof_C 	C 	0.36701	0.0373	0.53703	-0.103
Mof_C 	C 	0.29211	0.0372	0.53474	-0.056
Mof_H 	H 	0.2875	0.0783	0.5788	0.048
Mof_C 	C 	0.2234	0.975	0.4659	-0.025
Mof_C 	C 	0.23379	0.9149	0.40231	-0.038
Mof_H 	H 	0.1892	0.8728	0.3552	0.016
Mof_C 	C 	0.31125	0.918	0.4096	0.046
Mof_H 	H 	0.3176	0.8766	0.3665	0
Mof_C 	C 	0.44277	0.1132	0.60847	0.338
Mof_C 	C 	0.14004	0.9746	0.4621	0.409
Mof_O 	O 	0.99156	0.61365	0.8964	-0.232
Mof_O 	O 	0.06342	0.6728	0.83384	-0.356
Mof_O 	O 	0.42018	0.4183	0.1016	-0.423
Mof_O 	O 	0.36287	0.529	0.97716	-0.23
Mof_N 	N 	0.12275	0.4773	0.02456	-0.265
Mof_C 	C 	0.13299	0.5373	0.96297	0.013
Mof_C 	C 	0.20789	0.5372	0.96526	0.071
Mof_H 	H 	0.2125	0.5783	0.9212	0.03
Mof_C 	C 	0.2766	0.475	0.0341	-0.155
Mof_C 	C 	0.26621	0.4149	0.09769	-0.003
Mof_H 	H 	0.3108	0.3728	0.1448	-0.023
Mof_C 	C 	0.18875	0.418	0.0904	-0.004
Mof_H 	H 	0.1824	0.3766	0.1335	-0.004
Mof_C 	C 	0.05723	0.6132	0.89153	0.14
Mof_C 	C 	0.35996	0.4746	0.0379	0.289
Mof_O 	O 	0.49156	0.11365	0.8964	-0.452
Mof_O 	O 	0.56342	0.1728	0.83384	-0.402
Mof_O 	O 	0.92018	0.9183	0.1016	-0.293
Mof_O 	O 	0.86287	0.029	0.97716	-0.255
Mof_N 	N 	0.62275	0.9773	0.02456	-0.208
Mof_C 	C 	0.63299	0.0373	0.96297	-0.062
Mof_C 	C 	0.70789	0.0372	0.96526	0.004
Mof_H 	H 	0.7125	0.0783	0.9212	0.037
Mof_C 	C 	0.7766	0.975	0.0341	-0.063
Mof_C 	C 	0.76621	0.9149	0.09769	-0.037
Mof_H 	H 	0.8108	0.8728	0.1448	0.041
Mof_C 	C 	0.68875	0.918	0.0904	0.04
Mof_H 	H 	0.6824	0.8766	0.1335	0.008
Mof_C 	C 	0.55723	0.1132	0.89153	0.333
Mof_C 	C 	0.85996	0.9746	0.0379	0.32
Mof_Sr	Sr	1.42375e-33	0.01264	0.25	0.912
Mof_Sr	Sr	0.5	0.51264	0.25	1.295
Mof_Sr	Sr	4.27124e-33	0.98736	0.75	1.168
Mof_Sr	Sr	0.5	0.48736	0.75	1.355
Mof_Co	Co	2.8475e-33	0.5	0.5	1.049
Mof_Co	Co	0.5	-2.3548e-32	0.5	1.087
Mof_Co	Co	-0	0.5	-0	1.024
Mof_Co	Co	0.5	0	-0	1.057
_end
