data_functionalizedCrystal
_audit_creation_method	'EQeq! by Chris Wilmer'
_symmetry_space_group_name_H-M	'P1'
_symmetry_Int_Tables_number	1
_symmetry_cell_setting	triclinic
loop_
_symmetry_equiv_pos_as_xyz
  x,y,z
_cell_length_a	22.9097
_cell_length_b	6.891
_cell_length_c	14.4132
_cell_angle_alpha	90
_cell_angle_beta	106.62
_cell_angle_gamma	90
loop_
_atom_site_label
_atom_site_type_symbol
_atom_site_fract_x
_atom_site_fract_y
_atom_site_fract_z
_atom_site_charge
Mof_Cd	Cd	0.413	0.1557	0.69339	0.45
Mof_C 	C 	0.6801	0.9951	0.6592	-0.012
Mof_H 	H 	0.709	0.9639	0.6276	0.068
Mof_O 	O 	0.5634	0.1138	0.8975	-0.275
Mof_C 	C 	0.6116	0.1185	0.5014	0.28
Mof_C 	C 	0.8107	0.6003	0.8988	-0.061
Mof_H 	H 	0.83	0.668	0.9597	0.074
Mof_O 	O 	0.5697	0.233	0.4582	-0.253
Mof_C 	C 	0.5825	0.1401	0.6567	-0.001
Mof_H 	H 	0.5468	0.2038	0.6236	0.068
Mof_O 	O 	0.90844	0.6328	0.8702	-0.276
Mof_N 	N 	0.493	0.813	0.9425	-0.103
Mof_O 	O 	0.8302	0.5706	0.7443	-0.251
Mof_C 	C 	0.6917	0.9565	0.7566	-0.046
Mof_N 	N 	0.7519	0.6926	0.8487	-0.117
Mof_C 	C 	0.6494	0.0074	0.805	0.001
Mof_H 	H 	0.6571	0.9795	0.8705	0.037
Mof_C 	C 	0.7239	0.4239	0.9218	-0.104
Mof_H 	H 	0.7017	0.3023	0.9116	0.068
Mof_H 	H 	0.7224	0.48	0.9827	0.073
Mof_C 	C 	0.752	0.8709	0.8097	0.195
Mof_C 	C 	0.6991	0.5622	0.8389	-0.036
Mof_H 	H 	0.6881	0.4952	0.7771	0.063
Mof_H 	H 	0.664	0.6325	0.8462	0.048
Mof_C 	C 	0.5518	0.1613	0.8115	0.301
Mof_O 	O 	0.6433	0.0282	0.4564	-0.245
Mof_O 	O 	0.8001	0.9606	0.8178	-0.217
Mof_C 	C 	0.6247	0.0817	0.6071	-0.049
Mof_O 	O 	0.50638	0.2687	0.7679	-0.27
Mof_C 	C 	0.7909	0.3945	0.9194	-0.087
Mof_H 	H 	0.8162	0.3461	0.981	0.062
Mof_H 	H 	0.7929	0.3047	0.8686	0.081
Mof_C 	C 	0.8528	0.6003	0.8338	0.303
Mof_C 	C 	0.5946	0.1017	0.7547	-0.072
Mof_C 	C 	0.4492	0.561	0.0178	-0.18
Mof_H 	H 	0.4115	0.4885	0.0056	0.092
Mof_H 	H 	0.4606	0.6064	0.0842	0.111
Mof_C 	C 	0.4426	0.704	0.9595	0.087
Mof_H 	H 	0.4173	0.7981	0.9803	0.024
Mof_H 	H 	0.4187	0.6571	0.8968	0.032
Mof_Cd	Cd	0.913	0.6557	0.69339	0.456
Mof_C 	C 	0.1801	0.4951	0.6592	-0.008
Mof_H 	H 	0.209	0.4639	0.6276	0.069
Mof_O 	O 	0.0634	0.6138	0.8975	-0.276
Mof_C 	C 	0.1116	0.6185	0.5014	0.282
Mof_C 	C 	0.3107	0.1003	0.8988	-0.059
Mof_H 	H 	0.33	0.168	0.9597	0.074
Mof_O 	O 	0.0697	0.733	0.4582	-0.257
Mof_C 	C 	0.0825	0.6401	0.6567	-0.002
Mof_H 	H 	0.0468	0.7038	0.6236	0.065
Mof_O 	O 	0.40844	0.1328	0.8702	-0.279
Mof_N 	N 	0.993	0.313	0.9425	-0.089
Mof_O 	O 	0.3302	0.0706	0.7443	-0.251
Mof_C 	C 	0.1917	0.4565	0.7566	-0.039
Mof_N 	N 	0.2519	0.1926	0.8487	-0.119
Mof_C 	C 	0.1494	0.5074	0.805	-0.013
Mof_H 	H 	0.1571	0.4795	0.8705	0.045
Mof_C 	C 	0.2239	0.9239	0.9218	-0.114
Mof_H 	H 	0.2017	0.8023	0.9116	0.071
Mof_H 	H 	0.2224	0.98	0.9827	0.075
Mof_C 	C 	0.252	0.3709	0.8097	0.193
Mof_C 	C 	0.1991	0.0622	0.8389	-0.021
Mof_H 	H 	0.1881	0.9952	0.7771	0.056
Mof_H 	H 	0.164	0.1325	0.8462	0.044
Mof_C 	C 	0.0518	0.6613	0.8115	0.3
Mof_O 	O 	0.1433	0.5282	0.4564	-0.247
Mof_O 	O 	0.3001	0.4606	0.8178	-0.216
Mof_C 	C 	0.1247	0.5817	0.6071	-0.053
Mof_O 	O 	0.00638	0.7687	0.7679	-0.276
Mof_C 	C 	0.2909	0.8945	0.9194	-0.086
Mof_H 	H 	0.3162	0.8461	0.981	0.062
Mof_H 	H 	0.2929	0.8047	0.8686	0.08
Mof_C 	C 	0.3528	0.1003	0.8338	0.304
Mof_C 	C 	0.0946	0.6017	0.7547	-0.07
Mof_C 	C 	0.9492	0.061	0.0178	-0.136
Mof_H 	H 	0.9115	0.9885	0.0056	0.078
Mof_H 	H 	0.9606	0.1064	0.0842	0.103
Mof_C 	C 	0.9426	0.204	0.9595	0.056
Mof_H 	H 	0.9173	0.2981	0.9803	0.036
Mof_H 	H 	0.9187	0.1571	0.8968	0.044
Mof_Cd	Cd	0.587	0.1557	0.30661	0.45
Mof_C 	C 	0.3199	0.9951	0.3408	-0.009
Mof_H 	H 	0.291	0.9639	0.3724	0.068
Mof_O 	O 	0.4366	0.1138	0.1025	-0.287
Mof_C 	C 	0.3884	0.1185	0.4986	0.282
Mof_C 	C 	0.1893	0.6003	0.1012	-0.061
Mof_H 	H 	0.17	0.668	0.0403	0.062
Mof_O 	O 	0.4303	0.233	0.5418	-0.253
Mof_C 	C 	0.4175	0.1401	0.3433	0.002
Mof_H 	H 	0.4532	0.2038	0.3764	0.067
Mof_O 	O 	0.09156	0.6328	0.1298	-0.288
Mof_N 	N 	0.507	0.813	0.0575	-0.102
Mof_O 	O 	0.1698	0.5706	0.2557	-0.252
Mof_C 	C 	0.3083	0.9565	0.2434	-0.049
Mof_N 	N 	0.2481	0.6926	0.1513	-0.119
Mof_C 	C 	0.3506	0.0074	0.195	0.004
Mof_H 	H 	0.3429	0.9795	0.1295	0.029
Mof_C 	C 	0.2761	0.4239	0.0782	-0.096
Mof_H 	H 	0.2983	0.3023	0.0884	0.059
Mof_H 	H 	0.2776	0.48	0.0173	0.058
Mof_C 	C 	0.248	0.8709	0.1903	0.193
Mof_C 	C 	0.3009	0.5622	0.1611	-0.042
Mof_H 	H 	0.3119	0.4952	0.2229	0.064
Mof_H 	H 	0.336	0.6325	0.1538	0.046
Mof_C 	C 	0.4482	0.1613	0.1885	0.304
Mof_O 	O 	0.3567	0.0282	0.5436	-0.245
Mof_O 	O 	0.1999	0.9606	0.1822	-0.222
Mof_C 	C 	0.3753	0.0817	0.3929	-0.051
Mof_O 	O 	0.49362	0.2687	0.2321	-0.273
Mof_C 	C 	0.2091	0.3945	0.0806	-0.09
Mof_H 	H 	0.1838	0.3461	0.019	0.05
Mof_H 	H 	0.2071	0.3047	0.1314	0.079
Mof_C 	C 	0.1472	0.6003	0.1662	0.303
Mof_C 	C 	0.4054	0.1017	0.2453	-0.077
Mof_C 	C 	0.5508	0.561	0.9822	-0.027
Mof_H 	H 	0.5885	0.4885	0.9944	0.058
Mof_H 	H 	0.5394	0.6064	0.9158	0.07
Mof_C 	C 	0.5574	0.704	0.0405	-0.062
Mof_H 	H 	0.5827	0.7981	0.0197	0.057
Mof_H 	H 	0.5813	0.6571	0.1032	0.071
Mof_Cd	Cd	0.087	0.6557	0.30661	0.443
Mof_C 	C 	0.8199	0.4951	0.3408	-0.008
Mof_H 	H 	0.791	0.4639	0.3724	0.069
Mof_O 	O 	0.9366	0.6138	0.1025	-0.282
Mof_C 	C 	0.8884	0.6185	0.4986	0.282
Mof_C 	C 	0.6893	0.1003	0.1012	-0.059
Mof_H 	H 	0.67	0.168	0.0403	0.062
Mof_O 	O 	0.9303	0.733	0.5418	-0.249
Mof_C 	C 	0.9175	0.6401	0.3433	-0.002
Mof_H 	H 	0.9532	0.7038	0.3764	0.07
Mof_O 	O 	0.59156	0.1328	0.1298	-0.286
Mof_N 	N 	0.007	0.313	0.0575	-0.102
Mof_O 	O 	0.6698	0.0706	0.2557	-0.251
Mof_C 	C 	0.8083	0.4565	0.2434	-0.041
Mof_N 	N 	0.7481	0.1926	0.1513	-0.12
Mof_C 	C 	0.8506	0.5074	0.195	-0.01
Mof_H 	H 	0.8429	0.4795	0.1295	0.037
Mof_C 	C 	0.7761	0.9239	0.0782	-0.105
Mof_H 	H 	0.7983	0.8023	0.0884	0.061
Mof_H 	H 	0.7776	0.98	0.0173	0.06
Mof_C 	C 	0.748	0.3709	0.1903	0.191
Mof_C 	C 	0.8009	0.0622	0.1611	-0.028
Mof_H 	H 	0.8119	0.9952	0.2229	0.058
Mof_H 	H 	0.836	0.1325	0.1538	0.043
Mof_C 	C 	0.9482	0.6613	0.1885	0.302
Mof_O 	O 	0.8567	0.5282	0.5436	-0.246
Mof_O 	O 	0.6999	0.4606	0.1822	-0.221
Mof_C 	C 	0.8753	0.5817	0.3929	-0.051
Mof_O 	O 	0.99362	0.7687	0.2321	-0.266
Mof_C 	C 	0.7091	0.8945	0.0806	-0.09
Mof_H 	H 	0.6838	0.8461	0.019	0.05
Mof_H 	H 	0.7071	0.8047	0.1314	0.078
Mof_C 	C 	0.6472	0.1003	0.1662	0.303
Mof_C 	C 	0.9054	0.6017	0.2453	-0.07
Mof_C 	C 	0.0508	0.061	0.9822	0.004
Mof_H 	H 	0.0885	0.9885	0.9944	0.046
Mof_H 	H 	0.0394	0.1064	0.9158	0.059
Mof_C 	C 	0.0574	0.204	0.0405	-0.091
Mof_H 	H 	0.0827	0.2981	0.0197	0.066
Mof_H 	H 	0.0813	0.1571	0.1032	0.08
Mof_Cd	Cd	0.5	0.1281	-0	0.464
Mof_N 	N 	0.5	0.432	-0	-0.102
Mof_Cd	Cd	1.44721e-33	0.6281	-0	0.452
Mof_N 	N 	-2.89442e-33	0.932	-0	-0.116
_end
