data_functionalizedCrystal
_audit_creation_method	'EQeq! by Chris Wilmer'
_symmetry_space_group_name_H-M	'P1'
_symmetry_Int_Tables_number	1
_symmetry_cell_setting	triclinic
loop_
_symmetry_equiv_pos_as_xyz
  x,y,z
_cell_length_a	14.4537
_cell_length_b	14.4537
_cell_length_c	14.4537
_cell_angle_alpha	109.471
_cell_angle_beta	109.471
_cell_angle_gamma	109.471
loop_
_atom_site_label
_atom_site_type_symbol
_atom_site_fract_x
_atom_site_fract_y
_atom_site_fract_z
_atom_site_charge
Mof_U 	U 	0.61556	0.99042	0.15461	0.027
Mof_U 	U 	0.83581	0.46095	0.84539	0.026
Mof_U 	U 	0.16419	0.00958	0.62514	0.028
Mof_U 	U 	0.38444	0.53905	0.37486	0.028
Mof_U 	U 	0.62514	0.16419	0.00958	0.028
Mof_U 	U 	0.37486	0.38444	0.53905	0.028
Mof_U 	U 	0.15461	0.61556	0.99042	0.027
Mof_U 	U 	0.84539	0.83581	0.46095	0.026
Mof_U 	U 	0.46095	0.84539	0.83581	0.026
Mof_U 	U 	0.99042	0.15461	0.61556	0.027
Mof_U 	U 	0.53905	0.37486	0.38444	0.028
Mof_U 	U 	0.00958	0.62514	0.16419	0.028
Mof_C 	C 	0.7281	0.1682	0.4367	0.094
Mof_C 	C 	0.7911	0.2273	0.56	0.104
Mof_C 	C 	0.7315	0.2914	0.5633	0.094
Mof_C 	C 	0.6673	0.2311	0.44	0.104
Mof_C 	C 	0.2685	0.8318	0.5599	0.094
Mof_C 	C 	0.3327	0.7727	0.5638	0.104
Mof_C 	C 	0.2719	0.7086	0.4401	0.094
Mof_C 	C 	0.2089	0.7689	0.4362	0.104
Mof_C 	C 	0.5599	0.2685	0.8318	0.094
Mof_C 	C 	0.5638	0.3327	0.7727	0.104
Mof_C 	C 	0.4401	0.2719	0.7086	0.094
Mof_C 	C 	0.4362	0.2089	0.7689	0.104
Mof_C 	C 	0.4367	0.7281	0.1682	0.094
Mof_C 	C 	0.56	0.7911	0.2273	0.104
Mof_C 	C 	0.5633	0.7315	0.2914	0.094
Mof_C 	C 	0.44	0.6673	0.2311	0.104
Mof_C 	C 	0.2914	0.5633	0.7315	0.094
Mof_C 	C 	0.2311	0.44	0.6673	0.104
Mof_C 	C 	0.1682	0.4367	0.7281	0.094
Mof_C 	C 	0.2273	0.56	0.7911	0.104
Mof_C 	C 	0.7086	0.4401	0.2719	0.094
Mof_C 	C 	0.7689	0.4362	0.2089	0.104
Mof_C 	C 	0.8318	0.5599	0.2685	0.094
Mof_C 	C 	0.7727	0.5638	0.3327	0.104
Mof_O 	O 	0.4903	0.8018	0.9859	-0.034
Mof_O 	O 	0.866	0.2279	0.6347	-0.095
Mof_O 	O 	0.7304	0.0954	0.3604	-0.09
Mof_O 	O 	0.8159	0.5044	0.0141	-0.032
Mof_O 	O 	0.5932	0.2313	0.3653	-0.094
Mof_O 	O 	0.735	0.37	0.6396	-0.091
Mof_O 	O 	0.1841	0.1982	0.6885	-0.032
Mof_O 	O 	0.4068	0.7721	0.6381	-0.095
Mof_O 	O 	0.265	0.9046	0.635	-0.092
Mof_O 	O 	0.5097	0.4956	0.3115	-0.032
Mof_O 	O 	0.134	0.7687	0.3619	-0.094
Mof_O 	O 	0.2696	0.63	0.365	-0.091
Mof_O 	O 	0.6885	0.1841	0.1982	-0.032
Mof_O 	O 	0.6381	0.4068	0.7721	-0.095
Mof_O 	O 	0.635	0.265	0.9046	-0.092
Mof_O 	O 	0.3115	0.5097	0.4956	-0.032
Mof_O 	O 	0.3619	0.134	0.7687	-0.094
Mof_O 	O 	0.365	0.2696	0.63	-0.091
Mof_O 	O 	0.9859	0.4903	0.8018	-0.034
Mof_O 	O 	0.6347	0.866	0.2279	-0.095
Mof_O 	O 	0.3604	0.7304	0.0954	-0.09
Mof_O 	O 	0.0141	0.8159	0.5044	-0.032
Mof_O 	O 	0.3653	0.5932	0.2313	-0.094
Mof_O 	O 	0.6396	0.735	0.37	-0.091
Mof_O 	O 	0.5044	0.0141	0.8159	-0.032
Mof_O 	O 	0.2313	0.3653	0.5932	-0.094
Mof_O 	O 	0.37	0.6396	0.735	-0.091
Mof_O 	O 	0.8018	0.9859	0.4903	-0.034
Mof_O 	O 	0.2279	0.6347	0.866	-0.095
Mof_O 	O 	0.0954	0.3604	0.7304	-0.09
Mof_O 	O 	0.4956	0.3115	0.5097	-0.032
Mof_O 	O 	0.7687	0.3619	0.134	-0.094
Mof_O 	O 	0.63	0.365	0.2696	-0.091
Mof_O 	O 	0.1982	0.6885	0.1841	-0.032
Mof_O 	O 	0.7721	0.6381	0.4068	-0.095
Mof_O 	O 	0.9046	0.635	0.265	-0.092
Mof_O 	O 	0.5408	0	-0	-0.021
Mof_O 	O 	-0	0.5408	-0	-0.021
Mof_O 	O 	-3.6682e-17	-4.89093e-17	0.5408	-0.021
Mof_O 	O 	0.4592	0.4592	0.4592	-0.024
_end
