data_functionalizedCrystal
_audit_creation_method	'EQeq! by Chris Wilmer'
_symmetry_space_group_name_H-M	'P1'
_symmetry_Int_Tables_number	1
_symmetry_cell_setting	triclinic
loop_
_symmetry_equiv_pos_as_xyz
  x,y,z
_cell_length_a	15.319
_cell_length_b	32.72
_cell_length_c	10.0665
_cell_angle_alpha	90
_cell_angle_beta	107.137
_cell_angle_gamma	90
loop_
_atom_site_label
_atom_site_type_symbol
_atom_site_fract_x
_atom_site_fract_y
_atom_site_fract_z
_atom_site_charge
Mof_Cu	Cu	0.33453	0.77466	0.03314	0.93
Mof_Cu	Cu	0.48231	0.71722	0.01178	0.934
Mof_Cu	Cu	0.40889	0.71625	0.26955	0.929
Mof_O 	O 	0.3711	0.71775	0.0679	-0.744
Mof_H 	H 	0.3309	0.7003	0.0279	0.29
Mof_O 	O 	0.4577	0.65707	0.2619	-0.367
Mof_O 	O 	0.5185	0.66249	0.0819	-0.38
Mof_O 	O 	0.2834	0.72735	0.2814	-0.455
Mof_O 	O 	0.2259	0.76656	0.0917	-0.403
Mof_O 	O 	0.4448	0.72465	0.467	-0.721
Mof_H 	H 	0.485	0.7077	0.5109	0.283
Mof_O 	O 	0.9672	0.8481	0.124	-0.032
Mof_O 	O 	0.8443	0.8091	0.0954	-0.085
Mof_O 	O 	0.9869	0.811	0.469	-0.094
Mof_O 	O 	0.8778	0.8426	0.5153	-0.089
Mof_O 	O 	0.7574	0.5066	0.2021	-0.044
Mof_O 	O 	0.6925	0.5425	0.0109	-0.068
Mof_O 	O 	0.7298	0.5126	0.4839	-0.034
Mof_O 	O 	0.7242	0.469	0.6319	-0.022
Mof_O 	O 	0.5882	0.77849	0.4481	-0.403
Mof_O 	O 	0.5344	0.73946	0.2601	-0.452
Mof_O 	O 	0.6076	0.31939	0.2366	-0.371
Mof_O 	O 	0.674	0.33276	0.4583	-0.381
Mof_C 	C 	0.4985	0.64337	0.1796	0.333
Mof_C 	C 	0.5282	0.59961	0.1986	-0.051
Mof_C 	C 	0.4834	0.5725	0.2606	0.006
Mof_H 	H 	0.4348	0.5812	0.2909	0.062
Mof_C 	C 	0.5111	0.5323	0.2774	-0.063
Mof_H 	H 	0.478	0.5142	0.3148	0.089
Mof_C 	C 	0.5854	0.5176	0.2417	0.023
Mof_C 	C 	0.6277	0.5452	0.1776	0.076
Mof_C 	C 	0.5995	0.5855	0.1543	-0.053
Mof_H 	H 	0.6289	0.603	0.1085	0.093
Mof_C 	C 	0.6094	0.4736	0.2645	0.025
Mof_C 	C 	0.6533	0.4571	0.3954	0.077
Mof_C 	C 	0.6644	0.4154	0.416	-0.049
Mof_H 	H 	0.6945	0.4055	0.5041	0.094
Mof_C 	C 	0.6319	0.38883	0.3089	-0.05
Mof_C 	C 	0.5865	0.4046	0.1809	0.003
Mof_H 	H 	0.5636	0.3869	0.1065	0.055
Mof_C 	C 	0.574	0.446	0.1597	-0.058
Mof_H 	H 	0.5408	0.4555	0.0724	0.075
Mof_C 	C 	0.6379	0.34328	0.332	0.337
Mof_C 	C 	0.2192	0.74749	0.1961	0.355
Mof_C 	C 	0.1287	0.7483	0.2237	-0.076
Mof_C 	C 	0.0701	0.7806	0.171	-0.038
Mof_H 	H 	0.0876	0.8013	0.1207	0.082
Mof_C 	C 	0.986	0.7819	0.1937	0.074
Mof_C 	C 	0.9574	0.7527	0.2718	0.027
Mof_C 	C 	0.018	0.7196	0.3211	-0.069
Mof_H 	H 	0.0015	0.699	0.3725	0.089
Mof_C 	C 	0.1014	0.7175	0.2943	0.025
Mof_H 	H 	0.1391	0.695	0.3244	0.049
Mof_C 	C 	0.8672	0.7534	0.3017	0.033
Mof_C 	C 	0.8066	0.7228	0.251	-0.074
Mof_H 	H 	0.8246	0.7007	0.2075	0.089
Mof_C 	C 	0.7174	0.7238	0.2625	0.026
Mof_H 	H 	0.6759	0.7034	0.2213	0.045
Mof_C 	C 	0.6918	0.75513	0.3354	-0.081
Mof_C 	C 	0.7546	0.7846	0.3984	-0.031
Mof_H 	H 	0.7396	0.8046	0.4535	0.083
Mof_C 	C 	0.8415	0.7841	0.3785	0.074
Mof_C 	C 	0.5969	0.75765	0.348	0.378
Mof_N 	N 	0.7091	0.5333	0.1333	0.012
Mof_N 	N 	0.9269	0.8161	0.1318	0.009
Mof_N 	N 	0.9048	0.8152	0.4537	-0.005
Mof_N 	N 	0.6895	0.4839	0.5172	-0
Mof_O 	O 	0.9452	0.8382	0.0448	-0.072
Mof_O 	O 	0.879	0.8353	0.1892	-0.043
Mof_O 	O 	0.7279	0.498	0.115	-0.048
Mof_O 	O 	0.7504	0.5598	0.091	-0.049
Mof_O 	O 	0.6914	0.521	0.505	-0.053
Mof_O 	O 	0.6729	0.472	0.6222	-0.085
Mof_Cu	Cu	0.66547	0.27466	0.46686	0.933
Mof_Cu	Cu	0.51769	0.21722	0.48822	0.938
Mof_Cu	Cu	0.59111	0.21625	0.23045	0.93
Mof_O 	O 	0.6289	0.21775	0.4321	-0.742
Mof_H 	H 	0.6691	0.2003	0.4721	0.292
Mof_O 	O 	0.5423	0.15707	0.2381	-0.365
Mof_O 	O 	0.4815	0.16249	0.4181	-0.377
Mof_O 	O 	0.7166	0.22735	0.2186	-0.452
Mof_O 	O 	0.7741	0.26656	0.4083	-0.4
Mof_O 	O 	0.5552	0.22465	0.033	-0.708
Mof_H 	H 	0.515	0.2077	0.9891	0.275
Mof_O 	O 	0.0328	0.3481	0.376	-0.032
Mof_O 	O 	0.1557	0.3091	0.4046	-0.083
Mof_O 	O 	0.0131	0.311	0.031	-0.092
Mof_O 	O 	0.1222	0.3426	0.9847	-0.094
Mof_O 	O 	0.2426	0.0066	0.2979	-0.044
Mof_O 	O 	0.3075	0.0425	0.4891	-0.067
Mof_O 	O 	0.2702	0.0126	0.0161	-0.031
Mof_O 	O 	0.2758	0.969	0.8681	-0.022
Mof_O 	O 	0.4118	0.27849	0.0519	-0.399
Mof_O 	O 	0.4656	0.23946	0.2399	-0.451
Mof_O 	O 	0.3924	0.81939	0.2634	-0.372
Mof_O 	O 	0.326	0.83276	0.0417	-0.384
Mof_C 	C 	0.5015	0.14337	0.3204	0.333
Mof_C 	C 	0.4718	0.09961	0.3014	-0.05
Mof_C 	C 	0.5166	0.0725	0.2394	0.006
Mof_H 	H 	0.5652	0.0812	0.2091	0.063
Mof_C 	C 	0.4889	0.0323	0.2226	-0.063
Mof_H 	H 	0.522	0.0142	0.1852	0.089
Mof_C 	C 	0.4146	0.0176	0.2583	0.023
Mof_C 	C 	0.3723	0.0452	0.3224	0.077
Mof_C 	C 	0.4005	0.0855	0.3457	-0.053
Mof_H 	H 	0.3711	0.103	0.3915	0.094
Mof_C 	C 	0.3906	0.9736	0.2355	0.023
Mof_C 	C 	0.3467	0.9571	0.1046	0.08
Mof_C 	C 	0.3356	0.9154	0.084	-0.06
Mof_H 	H 	0.3055	0.9055	0.9959	0.101
Mof_C 	C 	0.3681	0.88883	0.1911	-0.047
Mof_C 	C 	0.4135	0.9046	0.3191	-0
Mof_H 	H 	0.4364	0.8869	0.3935	0.055
Mof_C 	C 	0.426	0.946	0.3403	-0.056
Mof_H 	H 	0.4592	0.9555	0.4276	0.074
Mof_C 	C 	0.3621	0.84328	0.168	0.336
Mof_C 	C 	0.7808	0.24749	0.3039	0.355
Mof_C 	C 	0.8713	0.2483	0.2763	-0.074
Mof_C 	C 	0.9299	0.2806	0.329	-0.037
Mof_H 	H 	0.9124	0.3013	0.3793	0.083
Mof_C 	C 	0.014	0.2819	0.3063	0.074
Mof_C 	C 	0.0426	0.2527	0.2282	0.028
Mof_C 	C 	0.982	0.2196	0.1789	-0.067
Mof_H 	H 	0.9985	0.199	0.1275	0.09
Mof_C 	C 	0.8986	0.2175	0.2057	0.025
Mof_H 	H 	0.8609	0.195	0.1756	0.05
Mof_C 	C 	0.1328	0.2534	0.1983	0.033
Mof_C 	C 	0.1934	0.2228	0.249	-0.073
Mof_H 	H 	0.1754	0.2007	0.2925	0.089
Mof_C 	C 	0.2826	0.2238	0.2375	0.026
Mof_H 	H 	0.3241	0.2034	0.2787	0.046
Mof_C 	C 	0.3082	0.25513	0.1646	-0.079
Mof_C 	C 	0.2454	0.2846	0.1016	-0.031
Mof_H 	H 	0.2604	0.3046	0.0465	0.085
Mof_C 	C 	0.1585	0.2841	0.1215	0.075
Mof_C 	C 	0.4031	0.25765	0.152	0.378
Mof_N 	N 	0.2909	0.0333	0.3667	0.012
Mof_N 	N 	0.0731	0.3161	0.3682	0.009
Mof_N 	N 	0.0952	0.3152	0.0463	-0.002
Mof_N 	N 	0.3105	0.9839	0.9828	0
Mof_O 	O 	0.0548	0.3382	0.4552	-0.07
Mof_O 	O 	0.121	0.3353	0.3108	-0.042
Mof_O 	O 	0.2721	0.998	0.385	-0.049
Mof_O 	O 	0.2496	0.0598	0.409	-0.049
Mof_O 	O 	0.3086	0.021	0.995	-0.056
Mof_O 	O 	0.3271	0.972	0.8778	-0.084
Mof_Cu	Cu	0.66547	0.22534	0.96686	0.931
Mof_Cu	Cu	0.51769	0.28278	0.98822	0.935
Mof_Cu	Cu	0.59111	0.28375	0.73045	0.93
Mof_O 	O 	0.6289	0.28225	0.9321	-0.743
Mof_H 	H 	0.6691	0.2997	0.9721	0.291
Mof_O 	O 	0.5423	0.34293	0.7381	-0.366
Mof_O 	O 	0.4815	0.33751	0.9181	-0.379
Mof_O 	O 	0.7166	0.27265	0.7186	-0.454
Mof_O 	O 	0.7741	0.23344	0.9083	-0.402
Mof_O 	O 	0.5552	0.27535	0.533	-0.72
Mof_H 	H 	0.515	0.2923	0.4891	0.284
Mof_O 	O 	0.0328	0.1519	0.876	-0.031
Mof_O 	O 	0.1557	0.1909	0.9046	-0.085
Mof_O 	O 	0.0131	0.189	0.531	-0.094
Mof_O 	O 	0.1222	0.1574	0.4847	-0.089
Mof_O 	O 	0.2426	0.4934	0.7979	-0.044
Mof_O 	O 	0.3075	0.4575	0.9891	-0.068
Mof_O 	O 	0.2702	0.4874	0.5161	-0.034
Mof_O 	O 	0.2758	0.531	0.3681	-0.022
Mof_O 	O 	0.4118	0.22151	0.5519	-0.403
Mof_O 	O 	0.4656	0.26054	0.7399	-0.452
Mof_O 	O 	0.3924	0.68061	0.7634	-0.371
Mof_O 	O 	0.326	0.66724	0.5417	-0.381
Mof_C 	C 	0.5015	0.35663	0.8204	0.333
Mof_C 	C 	0.4718	0.40039	0.8014	-0.051
Mof_C 	C 	0.5166	0.4275	0.7394	0.006
Mof_H 	H 	0.5652	0.4188	0.7091	0.062
Mof_C 	C 	0.4889	0.4677	0.7226	-0.063
Mof_H 	H 	0.522	0.4858	0.6852	0.089
Mof_C 	C 	0.4146	0.4824	0.7583	0.023
Mof_C 	C 	0.3723	0.4548	0.8224	0.076
Mof_C 	C 	0.4005	0.4145	0.8457	-0.053
Mof_H 	H 	0.3711	0.397	0.8915	0.093
Mof_C 	C 	0.3906	0.5264	0.7355	0.025
Mof_C 	C 	0.3467	0.5429	0.6046	0.077
Mof_C 	C 	0.3356	0.5846	0.584	-0.049
Mof_H 	H 	0.3055	0.5945	0.4959	0.094
Mof_C 	C 	0.3681	0.61117	0.6911	-0.05
Mof_C 	C 	0.4135	0.5954	0.8191	0.003
Mof_H 	H 	0.4364	0.6131	0.8935	0.055
Mof_C 	C 	0.426	0.554	0.8403	-0.058
Mof_H 	H 	0.4592	0.5445	0.9276	0.075
Mof_C 	C 	0.3621	0.65672	0.668	0.337
Mof_C 	C 	0.7808	0.25251	0.8039	0.355
Mof_C 	C 	0.8713	0.2517	0.7763	-0.076
Mof_C 	C 	0.9299	0.2194	0.829	-0.038
Mof_H 	H 	0.9124	0.1987	0.8793	0.082
Mof_C 	C 	0.014	0.2181	0.8063	0.074
Mof_C 	C 	0.0426	0.2473	0.7282	0.027
Mof_C 	C 	0.982	0.2804	0.6789	-0.069
Mof_H 	H 	0.9985	0.301	0.6275	0.089
Mof_C 	C 	0.8986	0.2825	0.7057	0.025
Mof_H 	H 	0.8609	0.305	0.6756	0.049
Mof_C 	C 	0.1328	0.2466	0.6983	0.033
Mof_C 	C 	0.1934	0.2772	0.749	-0.074
Mof_H 	H 	0.1754	0.2993	0.7925	0.089
Mof_C 	C 	0.2826	0.2762	0.7375	0.026
Mof_H 	H 	0.3241	0.2966	0.7787	0.045
Mof_C 	C 	0.3082	0.24487	0.6646	-0.081
Mof_C 	C 	0.2454	0.2154	0.6016	-0.031
Mof_H 	H 	0.2604	0.1954	0.5465	0.083
Mof_C 	C 	0.1585	0.2159	0.6215	0.074
Mof_C 	C 	0.4031	0.24235	0.652	0.378
Mof_N 	N 	0.2909	0.4667	0.8667	0.012
Mof_N 	N 	0.0731	0.1839	0.8682	0.009
Mof_N 	N 	0.0952	0.1848	0.5463	-0.005
Mof_N 	N 	0.3105	0.5161	0.4828	-0
Mof_O 	O 	0.0548	0.1618	0.9552	-0.072
Mof_O 	O 	0.121	0.1647	0.8108	-0.043
Mof_O 	O 	0.2721	0.502	0.885	-0.048
Mof_O 	O 	0.2496	0.4402	0.909	-0.049
Mof_O 	O 	0.3086	0.479	0.495	-0.053
Mof_O 	O 	0.3271	0.528	0.3778	-0.085
Mof_Cu	Cu	0.33453	0.72534	0.53314	0.933
Mof_Cu	Cu	0.48231	0.78278	0.51178	0.938
Mof_Cu	Cu	0.40889	0.78375	0.76955	0.93
Mof_O 	O 	0.3711	0.78225	0.5679	-0.742
Mof_H 	H 	0.3309	0.7997	0.5279	0.292
Mof_O 	O 	0.4577	0.84293	0.7619	-0.365
Mof_O 	O 	0.5185	0.83751	0.5819	-0.377
Mof_O 	O 	0.2834	0.77265	0.7814	-0.452
Mof_O 	O 	0.2259	0.73344	0.5917	-0.4
Mof_O 	O 	0.4448	0.77535	0.967	-0.708
Mof_H 	H 	0.485	0.7923	0.0109	0.275
Mof_O 	O 	0.9672	0.6519	0.624	-0.032
Mof_O 	O 	0.8443	0.6909	0.5954	-0.083
Mof_O 	O 	0.9869	0.689	0.969	-0.092
Mof_O 	O 	0.8778	0.6574	0.0153	-0.094
Mof_O 	O 	0.7574	0.9934	0.7021	-0.044
Mof_O 	O 	0.6925	0.9575	0.5109	-0.067
Mof_O 	O 	0.7298	0.9874	0.9839	-0.031
Mof_O 	O 	0.7242	0.031	0.1319	-0.022
Mof_O 	O 	0.5882	0.72151	0.9481	-0.399
Mof_O 	O 	0.5344	0.76054	0.7601	-0.451
Mof_O 	O 	0.6076	0.18061	0.7366	-0.372
Mof_O 	O 	0.674	0.16724	0.9583	-0.384
Mof_C 	C 	0.4985	0.85663	0.6796	0.333
Mof_C 	C 	0.5282	0.90039	0.6986	-0.05
Mof_C 	C 	0.4834	0.9275	0.7606	0.006
Mof_H 	H 	0.4348	0.9188	0.7909	0.063
Mof_C 	C 	0.5111	0.9677	0.7774	-0.063
Mof_H 	H 	0.478	0.9858	0.8148	0.089
Mof_C 	C 	0.5854	0.9824	0.7417	0.023
Mof_C 	C 	0.6277	0.9548	0.6776	0.077
Mof_C 	C 	0.5995	0.9145	0.6543	-0.053
Mof_H 	H 	0.6289	0.897	0.6085	0.094
Mof_C 	C 	0.6094	0.0264	0.7645	0.023
Mof_C 	C 	0.6533	0.0429	0.8954	0.08
Mof_C 	C 	0.6644	0.0846	0.916	-0.06
Mof_H 	H 	0.6945	0.0945	0.0041	0.101
Mof_C 	C 	0.6319	0.11117	0.8089	-0.047
Mof_C 	C 	0.5865	0.0954	0.6809	-0
Mof_H 	H 	0.5636	0.1131	0.6065	0.055
Mof_C 	C 	0.574	0.054	0.6597	-0.056
Mof_H 	H 	0.5408	0.0445	0.5724	0.074
Mof_C 	C 	0.6379	0.15672	0.832	0.336
Mof_C 	C 	0.2192	0.75251	0.6961	0.355
Mof_C 	C 	0.1287	0.7517	0.7237	-0.074
Mof_C 	C 	0.0701	0.7194	0.671	-0.037
Mof_H 	H 	0.0876	0.6987	0.6207	0.083
Mof_C 	C 	0.986	0.7181	0.6937	0.074
Mof_C 	C 	0.9574	0.7473	0.7718	0.028
Mof_C 	C 	0.018	0.7804	0.8211	-0.067
Mof_H 	H 	0.0015	0.801	0.8725	0.09
Mof_C 	C 	0.1014	0.7825	0.7943	0.025
Mof_H 	H 	0.1391	0.805	0.8244	0.05
Mof_C 	C 	0.8672	0.7466	0.8017	0.033
Mof_C 	C 	0.8066	0.7772	0.751	-0.073
Mof_H 	H 	0.8246	0.7993	0.7075	0.089
Mof_C 	C 	0.7174	0.7762	0.7625	0.026
Mof_H 	H 	0.6759	0.7966	0.7213	0.046
Mof_C 	C 	0.6918	0.74487	0.8354	-0.079
Mof_C 	C 	0.7546	0.7154	0.8984	-0.031
Mof_H 	H 	0.7396	0.6954	0.9535	0.085
Mof_C 	C 	0.8415	0.7159	0.8785	0.075
Mof_C 	C 	0.5969	0.74235	0.848	0.378
Mof_N 	N 	0.7091	0.9667	0.6333	0.012
Mof_N 	N 	0.9269	0.6839	0.6318	0.009
Mof_N 	N 	0.9048	0.6848	0.9537	-0.002
Mof_N 	N 	0.6895	0.0161	0.0172	0
Mof_O 	O 	0.9452	0.6618	0.5448	-0.07
Mof_O 	O 	0.879	0.6647	0.6892	-0.042
Mof_O 	O 	0.7279	0.002	0.615	-0.049
Mof_O 	O 	0.7504	0.9402	0.591	-0.049
Mof_O 	O 	0.6914	0.979	0.005	-0.056
Mof_O 	O 	0.6729	0.028	0.1222	-0.084
_end
