data_functionalizedCrystal
_audit_creation_method	'EQeq! by Chris Wilmer'
_symmetry_space_group_name_H-M	'P1'
_symmetry_Int_Tables_number	1
_symmetry_cell_setting	triclinic
loop_
_symmetry_equiv_pos_as_xyz
  x,y,z
_cell_length_a	4.7096
_cell_length_b	11.0947
_cell_length_c	20.0417
_cell_angle_alpha	90
_cell_angle_beta	90
_cell_angle_gamma	96.8435
loop_
_atom_site_label
_atom_site_type_symbol
_atom_site_fract_x
_atom_site_fract_y
_atom_site_fract_z
_atom_site_charge
Mof_Cu	Cu	0.304	0.9421	0.8395	0.916
Mof_Cu	Cu	0.696	0.5579	0.3395	0.917
Mof_Cu	Cu	0.696	0.0579	0.1605	0.916
Mof_Cu	Cu	0.304	0.4421	0.6605	0.917
Mof_H 	H 	0.26545	0.91284	0.59284	0.057
Mof_H 	H 	0.43823	0.00444	0.69291	0.054
Mof_H 	H 	0.6223	0.8269	0.95401	0.034
Mof_H 	H 	0.22044	0.11468	0.94134	0.035
Mof_H 	H 	0.73455	0.58716	0.09284	0.057
Mof_H 	H 	0.56177	0.49556	0.19291	0.052
Mof_H 	H 	0.3777	0.6731	0.45401	0.034
Mof_H 	H 	0.77956	0.38532	0.44134	0.036
Mof_H 	H 	0.73455	0.08716	0.40716	0.057
Mof_H 	H 	0.56177	0.99556	0.30709	0.054
Mof_H 	H 	0.3777	0.1731	0.04599	0.034
Mof_H 	H 	0.77956	0.88532	0.05866	0.035
Mof_H 	H 	0.26545	0.41284	0.90716	0.057
Mof_H 	H 	0.43823	0.50444	0.80709	0.052
Mof_H 	H 	0.6223	0.3269	0.54599	0.034
Mof_H 	H 	0.22044	0.61468	0.55866	0.036
Mof_C 	C 	0.054	0.773	0.75	-0.004
Mof_C 	C 	0.96	0.714	0.691	-0.013
Mof_C 	C 	0.21	0.868	0.629	0.009
Mof_C 	C 	0.309	0.923	0.689	0.036
Mof_C 	C 	0.999	0.722	0.822	0.265
Mof_C 	C 	0.758	0.598	0.688	0.351
Mof_C 	C 	0.56	0.905	0.969	0.028
Mof_C 	C 	0.347	0.069	0.968	0.024
Mof_C 	C 	0.946	0.727	0.25	-0.004
Mof_C 	C 	0.04	0.786	0.191	-0.013
Mof_C 	C 	0.79	0.632	0.129	0.009
Mof_C 	C 	0.691	0.577	0.189	0.038
Mof_C 	C 	0.001	0.778	0.322	0.266
Mof_C 	C 	0.242	0.902	0.188	0.351
Mof_C 	C 	0.44	0.595	0.469	0.031
Mof_C 	C 	0.653	0.431	0.468	0.019
Mof_C 	C 	0.946	0.227	0.25	-0.004
Mof_C 	C 	0.04	0.286	0.309	-0.013
Mof_C 	C 	0.79	0.132	0.371	0.009
Mof_C 	C 	0.691	0.077	0.311	0.036
Mof_C 	C 	0.001	0.278	0.178	0.265
Mof_C 	C 	0.242	0.402	0.312	0.351
Mof_C 	C 	0.44	0.095	0.031	0.028
Mof_C 	C 	0.653	0.931	0.032	0.024
Mof_C 	C 	0.054	0.273	0.75	-0.004
Mof_C 	C 	0.96	0.214	0.809	-0.013
Mof_C 	C 	0.21	0.368	0.871	0.009
Mof_C 	C 	0.309	0.423	0.811	0.038
Mof_C 	C 	0.999	0.222	0.678	0.266
Mof_C 	C 	0.758	0.098	0.812	0.351
Mof_C 	C 	0.56	0.405	0.531	0.031
Mof_C 	C 	0.347	0.569	0.532	0.019
Mof_N 	N 	0.237	0.879	0.752	-0.2
Mof_N 	N 	0.048	0.76	0.631	-0.086
Mof_N 	N 	0.411	0.973	0.94	-0.187
Mof_N 	N 	0.763	0.621	0.252	-0.199
Mof_N 	N 	0.952	0.74	0.131	-0.086
Mof_N 	N 	0.589	0.527	0.44	-0.185
Mof_N 	N 	0.763	0.121	0.248	-0.2
Mof_N 	N 	0.952	0.24	0.369	-0.086
Mof_N 	N 	0.589	0.027	0.06	-0.187
Mof_N 	N 	0.237	0.379	0.748	-0.199
Mof_N 	N 	0.048	0.26	0.869	-0.086
Mof_N 	N 	0.411	0.473	0.56	-0.185
Mof_O 	O 	0.113	0.771	0.873	-0.33
Mof_O 	O 	0.869	0.619	0.827	-0.227
Mof_O 	O 	0.493	0.599	0.689	-0.378
Mof_O 	O 	0.87	0.51	0.668	-0.387
Mof_O 	O 	0.887	0.729	0.373	-0.33
Mof_O 	O 	0.131	0.881	0.327	-0.227
Mof_O 	O 	0.507	0.901	0.189	-0.378
Mof_O 	O 	0.13	0.99	0.168	-0.385
Mof_O 	O 	0.887	0.229	0.127	-0.33
Mof_O 	O 	0.131	0.381	0.173	-0.227
Mof_O 	O 	0.507	0.401	0.311	-0.378
Mof_O 	O 	0.13	0.49	0.332	-0.387
Mof_O 	O 	0.113	0.271	0.627	-0.33
Mof_O 	O 	0.869	0.119	0.673	-0.227
Mof_O 	O 	0.493	0.099	0.811	-0.378
Mof_O 	O 	0.87	0.01	0.832	-0.385
_end
