data_functionalizedCrystal
_audit_creation_method	'EQeq! by Chris Wilmer'
_symmetry_space_group_name_H-M	'P1'
_symmetry_Int_Tables_number	1
_symmetry_cell_setting	triclinic
loop_
_symmetry_equiv_pos_as_xyz
  x,y,z
_cell_length_a	8.4149
_cell_length_b	9.813
_cell_length_c	21.028
_cell_angle_alpha	90
_cell_angle_beta	90
_cell_angle_gamma	90
loop_
_atom_site_label
_atom_site_type_symbol
_atom_site_fract_x
_atom_site_fract_y
_atom_site_fract_z
_atom_site_charge
Mof_Cd	Cd	0.49599	0.10771	0.78302	0.379
Mof_Cd	Cd	0.30572	0.66271	0.97726	0.403
Mof_Cd	Cd	0.00401	0.89229	0.28302	0.38
Mof_Cd	Cd	0.19428	0.33729	0.47726	0.403
Mof_Cd	Cd	0.50401	0.60771	0.71698	0.38
Mof_Cd	Cd	0.69428	0.16271	0.52274	0.402
Mof_Cd	Cd	0.99599	0.39229	0.21698	0.38
Mof_Cd	Cd	0.80572	0.83729	0.02274	0.402
Mof_H 	H 	0.7829	0.5036	0.8461	0.03
Mof_H 	H 	0.6637	0.4153	0.9375	0.034
Mof_H 	H 	0.436	0.4063	0.917	0.231
Mof_H 	H 	0.69	0.674	0.8101	0.216
Mof_H 	H 	0.7171	0.4964	0.3461	0.03
Mof_H 	H 	0.8363	0.5847	0.4375	0.034
Mof_H 	H 	0.064	0.5937	0.417	0.231
Mof_H 	H 	0.81	0.326	0.3101	0.215
Mof_H 	H 	0.2171	0.0036	0.6539	0.031
Mof_H 	H 	0.3363	0.9153	0.5625	0.034
Mof_H 	H 	0.564	0.9063	0.583	0.231
Mof_H 	H 	0.31	0.174	0.6899	0.215
Mof_H 	H 	0.2829	0.9964	0.1539	0.031
Mof_H 	H 	0.1637	0.0847	0.0625	0.034
Mof_H 	H 	0.936	0.0937	0.083	0.231
Mof_H 	H 	0.19	0.826	0.1899	0.215
Mof_C 	C 	0.5989	0.3831	0.81294	0.288
Mof_C 	C 	0.6667	0.5064	0.84857	0.013
Mof_C 	C 	0.6163	0.4972	0.91872	0.017
Mof_C 	C 	0.6739	0.6215	0.95548	0.284
Mof_C 	C 	0.9011	0.6169	0.31294	0.288
Mof_C 	C 	0.8333	0.4936	0.34857	0.013
Mof_C 	C 	0.8837	0.5028	0.41872	0.017
Mof_C 	C 	0.8261	0.3785	0.45548	0.284
Mof_C 	C 	0.4011	0.8831	0.68706	0.289
Mof_C 	C 	0.3333	0.0064	0.65143	0.011
Mof_C 	C 	0.3837	0.9972	0.58128	0.019
Mof_C 	C 	0.3261	0.1215	0.54452	0.283
Mof_C 	C 	0.0989	0.1169	0.18706	0.289
Mof_C 	C 	0.1667	0.9936	0.15143	0.011
Mof_C 	C 	0.1163	0.0028	0.08128	0.02
Mof_C 	C 	0.1739	0.8785	0.04452	0.283
Mof_O 	O 	0.6024	0.27247	0.84228	-0.303
Mof_O 	O 	0.5457	0.3969	0.75779	-0.295
Mof_O 	O 	0.6127	0.6307	0.82191	-0.363
Mof_O 	O 	0.4485	0.48793	0.92358	-0.378
Mof_O 	O 	0.5781	0.69855	0.98307	-0.285
Mof_O 	O 	0.8213	0.6431	0.95663	-0.272
Mof_O 	O 	0.8976	0.72753	0.34228	-0.302
Mof_O 	O 	0.9543	0.6031	0.25779	-0.295
Mof_O 	O 	0.8873	0.3693	0.32191	-0.363
Mof_O 	O 	0.0515	0.51207	0.42358	-0.378
Mof_O 	O 	0.9219	0.30145	0.48307	-0.285
Mof_O 	O 	0.6787	0.3569	0.45663	-0.273
Mof_O 	O 	0.3976	0.77247	0.65772	-0.303
Mof_O 	O 	0.4543	0.8969	0.74221	-0.294
Mof_O 	O 	0.3873	0.1307	0.67809	-0.362
Mof_O 	O 	0.5515	0.98793	0.57642	-0.378
Mof_O 	O 	0.4219	0.19855	0.51693	-0.285
Mof_O 	O 	0.1787	0.1431	0.54337	-0.272
Mof_O 	O 	0.1024	0.22753	0.15772	-0.302
Mof_O 	O 	0.0457	0.1031	0.24221	-0.294
Mof_O 	O 	0.1127	0.8693	0.17809	-0.362
Mof_O 	O 	0.9485	0.01207	0.07642	-0.38
Mof_O 	O 	0.0781	0.80145	0.01693	-0.285
Mof_O 	O 	0.3213	0.8569	0.04337	-0.272
_end
