data_functionalizedCrystal
_audit_creation_method	'EQeq! by Chris Wilmer'
_symmetry_space_group_name_H-M	'P1'
_symmetry_Int_Tables_number	1
_symmetry_cell_setting	triclinic
loop_
_symmetry_equiv_pos_as_xyz
  x,y,z
_cell_length_a	9.848
_cell_length_b	9.848
_cell_length_c	35.0588
_cell_angle_alpha	90
_cell_angle_beta	90
_cell_angle_gamma	90
loop_
_atom_site_label
_atom_site_type_symbol
_atom_site_fract_x
_atom_site_fract_y
_atom_site_fract_z
_atom_site_charge
Mof_In	In	0.84869	0.76937	0.06417	2.542
Mof_In	In	0.15131	0.23063	0.56417	2.542
Mof_H 	H 	0.8481	0.2775	0.065	0.051
Mof_H 	H 	0.7511	0.0712	0.9682	0.045
Mof_H 	H 	0.7897	0.475	0.9641	0.055
Mof_H 	H 	0.4479	0.2533	0.6678	0.052
Mof_H 	H 	0.8592	0.2487	0.6642	0.05
Mof_H 	H 	0.6435	0.2367	0.5676	0.05
Mof_H 	H 	0.8314	0.3711	0.718	0.077
Mof_H 	H 	0.4917	0.1787	0.7935	0.04
Mof_H 	H 	0.4894	0.1627	0.7272	0.064
Mof_H 	H 	0.5966	0.1186	0.9162	0.058
Mof_H 	H 	0.5557	0.1237	0.8503	0.044
Mof_H 	H 	0.8722	0.4225	0.905	0.067
Mof_H 	H 	0.8118	0.5382	0.8237	0.07
Mof_H 	H 	0.9501	0.4873	0.8431	0.061
Mof_H 	H 	0.9535	0.4561	0.7752	0.069
Mof_H 	H 	0.9736	0.3148	0.7973	0.075
Mof_H 	H 	0.1519	0.7225	0.565	0.049
Mof_H 	H 	0.2489	0.9288	0.4682	0.043
Mof_H 	H 	0.2103	0.525	0.4641	0.053
Mof_H 	H 	0.5521	0.7467	0.1678	0.051
Mof_H 	H 	0.1408	0.7513	0.1642	0.049
Mof_H 	H 	0.3565	0.7633	0.0676	0.05
Mof_H 	H 	0.1686	0.6289	0.218	0.077
Mof_H 	H 	0.5083	0.8213	0.2935	0.04
Mof_H 	H 	0.5106	0.8373	0.2272	0.064
Mof_H 	H 	0.4034	0.8814	0.4162	0.058
Mof_H 	H 	0.4443	0.8763	0.3503	0.044
Mof_H 	H 	0.1278	0.5775	0.405	0.067
Mof_H 	H 	0.1882	0.4618	0.3237	0.07
Mof_H 	H 	0.0499	0.5127	0.3431	0.061
Mof_H 	H 	0.0465	0.5439	0.2752	0.069
Mof_H 	H 	0.0264	0.6852	0.2973	0.075
Mof_C 	C 	0.8215	0.3942	0.0171	-0.057
Mof_C 	C 	0.8286	0.2763	0.0385	0.006
Mof_C 	C 	0.805	0.1538	0.0185	-0.08
Mof_C 	C 	0.7705	0.1552	0.9804	-0.016
Mof_C 	C 	0.7632	0.2689	0.9598	-0.016
Mof_C 	C 	0.7913	0.3925	0.9781	-0.025
Mof_C 	C 	0.5276	0.2468	0.6152	-0.068
Mof_C 	C 	0.5309	0.2532	0.654	-0.02
Mof_C 	C 	0.6547	0.2597	0.6741	-0.027
Mof_C 	C 	0.7735	0.2498	0.6518	-0.014
Mof_C 	C 	0.7689	0.2418	0.6128	-0.078
Mof_C 	C 	0.6467	0.2411	0.5947	0.011
Mof_C 	C 	0.6606	0.2657	0.7161	0.071
Mof_C 	C 	0.7646	0.3279	0.7333	-0.136
Mof_C 	C 	0.7788	0.3317	0.7724	0.069
Mof_C 	C 	0.6804	0.2689	0.7955	-0.022
Mof_C 	C 	0.565	0.2125	0.7786	-0.009
Mof_C 	C 	0.563	0.2082	0.7391	-0.092
Mof_C 	C 	0.7377	0.2694	0.918	0.046
Mof_C 	C 	0.6452	0.1813	0.9008	-0.08
Mof_C 	C 	0.6218	0.1827	0.8611	-0.025
Mof_C 	C 	0.6975	0.273	0.8368	-0.012
Mof_C 	C 	0.7889	0.3613	0.8539	0.055
Mof_C 	C 	0.8093	0.3606	0.894	-0.113
Mof_C 	C 	0.3902	0.2362	0.596	0.324
Mof_C 	C 	0.8438	0.5227	0.0358	0.286
Mof_C 	C 	0.822	0.0238	0.0382	0.337
Mof_C 	C 	0.9013	0.2351	0.5915	0.338
Mof_C 	C 	0.8678	0.4571	0.8293	-0.12
Mof_C 	C 	0.9087	0.3893	0.7921	-0.133
Mof_C 	C 	0.1785	0.6058	0.5171	-0.062
Mof_C 	C 	0.1714	0.7237	0.5385	0.01
Mof_C 	C 	0.195	0.8462	0.5185	-0.085
Mof_C 	C 	0.2295	0.8448	0.4804	-0.011
Mof_C 	C 	0.2368	0.7311	0.4598	-0.02
Mof_C 	C 	0.2087	0.6075	0.4781	-0.02
Mof_C 	C 	0.4724	0.7532	0.1152	-0.067
Mof_C 	C 	0.4691	0.7468	0.154	-0.02
Mof_C 	C 	0.3453	0.7403	0.1741	-0.027
Mof_C 	C 	0.2265	0.7502	0.1518	-0.014
Mof_C 	C 	0.2311	0.7582	0.1128	-0.078
Mof_C 	C 	0.3533	0.7589	0.0947	0.011
Mof_C 	C 	0.3394	0.7343	0.2161	0.071
Mof_C 	C 	0.2354	0.6721	0.2333	-0.136
Mof_C 	C 	0.2212	0.6683	0.2724	0.069
Mof_C 	C 	0.3196	0.7311	0.2955	-0.021
Mof_C 	C 	0.435	0.7875	0.2786	-0.01
Mof_C 	C 	0.437	0.7918	0.2391	-0.092
Mof_C 	C 	0.2623	0.7306	0.418	0.048
Mof_C 	C 	0.3548	0.8187	0.4008	-0.081
Mof_C 	C 	0.3782	0.8173	0.3611	-0.024
Mof_C 	C 	0.3025	0.727	0.3368	-0.013
Mof_C 	C 	0.2111	0.6387	0.3539	0.055
Mof_C 	C 	0.1907	0.6394	0.394	-0.114
Mof_C 	C 	0.6098	0.7638	0.096	0.324
Mof_C 	C 	0.1562	0.4773	0.5358	0.287
Mof_C 	C 	0.178	0.9762	0.5382	0.339
Mof_C 	C 	0.0987	0.7649	0.0915	0.338
Mof_C 	C 	0.1322	0.5429	0.3293	-0.12
Mof_C 	C 	0.0913	0.6107	0.2921	-0.133
Mof_O 	O 	0.852	0.5375	0.07194	-0.481
Mof_O 	O 	0.0068	0.2203	0.61102	-0.565
Mof_O 	O 	0.2845	0.2362	0.61612	-0.52
Mof_O 	O 	0.837	0.9156	0.01782	-0.556
Mof_O 	O 	0.8504	0.6311	0.0144	-0.513
Mof_O 	O 	0.9059	0.231	0.5563	-0.467
Mof_O 	O 	0.3823	0.2489	0.5609	-0.507
Mof_O 	O 	0.8309	0.0111	0.07327	-0.476
Mof_O 	O 	0.148	0.4625	0.57194	-0.481
Mof_O 	O 	0.9932	0.7797	0.11102	-0.565
Mof_O 	O 	0.7155	0.7638	0.11612	-0.52
Mof_O 	O 	0.163	0.0844	0.51782	-0.557
Mof_O 	O 	0.1496	0.3689	0.5144	-0.514
Mof_O 	O 	0.0941	0.769	0.0563	-0.467
Mof_O 	O 	0.6177	0.7511	0.0609	-0.507
Mof_O 	O 	0.1691	0.9889	0.57327	-0.476
Mof_In	In	0.23063	0.84869	0.81417	2.541
Mof_In	In	0.76937	0.15131	0.31417	2.541
Mof_H 	H 	0.7225	0.8481	0.815	0.049
Mof_H 	H 	0.9288	0.7511	0.7182	0.043
Mof_H 	H 	0.525	0.7897	0.7141	0.053
Mof_H 	H 	0.7467	0.4479	0.4178	0.051
Mof_H 	H 	0.7513	0.8592	0.4142	0.049
Mof_H 	H 	0.7633	0.6435	0.3176	0.05
Mof_H 	H 	0.6289	0.8314	0.468	0.077
Mof_H 	H 	0.8213	0.4917	0.5435	0.04
Mof_H 	H 	0.8373	0.4894	0.4772	0.064
Mof_H 	H 	0.8814	0.5966	0.6662	0.058
Mof_H 	H 	0.8763	0.5557	0.6003	0.044
Mof_H 	H 	0.5775	0.8722	0.655	0.067
Mof_H 	H 	0.4618	0.8118	0.5737	0.07
Mof_H 	H 	0.5127	0.9501	0.5931	0.061
Mof_H 	H 	0.5439	0.9535	0.5252	0.069
Mof_H 	H 	0.6852	0.9736	0.5473	0.075
Mof_H 	H 	0.2775	0.1519	0.315	0.049
Mof_H 	H 	0.0712	0.2489	0.2182	0.043
Mof_H 	H 	0.475	0.2103	0.2141	0.053
Mof_H 	H 	0.2533	0.5521	0.9178	0.05
Mof_H 	H 	0.2487	0.1408	0.9142	0.048
Mof_H 	H 	0.2367	0.3565	0.8176	0.049
Mof_H 	H 	0.3711	0.1686	0.968	0.079
Mof_H 	H 	0.1787	0.5083	0.0435	0.038
Mof_H 	H 	0.1627	0.5106	0.9772	0.065
Mof_H 	H 	0.1186	0.4034	0.1662	0.058
Mof_H 	H 	0.1237	0.4443	0.1003	0.044
Mof_H 	H 	0.4225	0.1278	0.155	0.067
Mof_H 	H 	0.5382	0.1882	0.0737	0.07
Mof_H 	H 	0.4873	0.0499	0.0931	0.06
Mof_H 	H 	0.4561	0.0465	0.0252	0.07
Mof_H 	H 	0.3148	0.0264	0.0473	0.076
Mof_C 	C 	0.6058	0.8215	0.7671	-0.062
Mof_C 	C 	0.7237	0.8286	0.7885	0.01
Mof_C 	C 	0.8462	0.805	0.7685	-0.085
Mof_C 	C 	0.8448	0.7705	0.7304	-0.011
Mof_C 	C 	0.7311	0.7632	0.7098	-0.02
Mof_C 	C 	0.6075	0.7913	0.7281	-0.02
Mof_C 	C 	0.7532	0.5276	0.3652	-0.068
Mof_C 	C 	0.7468	0.5309	0.404	-0.02
Mof_C 	C 	0.7403	0.6547	0.4241	-0.027
Mof_C 	C 	0.7502	0.7735	0.4018	-0.014
Mof_C 	C 	0.7582	0.7689	0.3628	-0.078
Mof_C 	C 	0.7589	0.6467	0.3447	0.011
Mof_C 	C 	0.7343	0.6606	0.4661	0.071
Mof_C 	C 	0.6721	0.7646	0.4833	-0.136
Mof_C 	C 	0.6683	0.7788	0.5224	0.069
Mof_C 	C 	0.7311	0.6804	0.5455	-0.021
Mof_C 	C 	0.7875	0.565	0.5286	-0.01
Mof_C 	C 	0.7918	0.563	0.4891	-0.092
Mof_C 	C 	0.7306	0.7377	0.668	0.048
Mof_C 	C 	0.8187	0.6452	0.6508	-0.081
Mof_C 	C 	0.8173	0.6218	0.6111	-0.024
Mof_C 	C 	0.727	0.6975	0.5868	-0.013
Mof_C 	C 	0.6387	0.7889	0.6039	0.055
Mof_C 	C 	0.6394	0.8093	0.644	-0.114
Mof_C 	C 	0.7638	0.3902	0.346	0.324
Mof_C 	C 	0.4773	0.8438	0.7858	0.287
Mof_C 	C 	0.9762	0.822	0.7882	0.339
Mof_C 	C 	0.7649	0.9013	0.3415	0.338
Mof_C 	C 	0.5429	0.8678	0.5793	-0.12
Mof_C 	C 	0.6107	0.9087	0.5421	-0.133
Mof_C 	C 	0.3942	0.1785	0.2671	-0.062
Mof_C 	C 	0.2763	0.1714	0.2885	0.01
Mof_C 	C 	0.1538	0.195	0.2685	-0.085
Mof_C 	C 	0.1552	0.2295	0.2304	-0.011
Mof_C 	C 	0.2689	0.2368	0.2098	-0.02
Mof_C 	C 	0.3925	0.2087	0.2281	-0.02
Mof_C 	C 	0.2468	0.4724	0.8652	-0.068
Mof_C 	C 	0.2532	0.4691	0.904	-0.019
Mof_C 	C 	0.2597	0.3453	0.9241	-0.029
Mof_C 	C 	0.2498	0.2265	0.9018	-0.013
Mof_C 	C 	0.2418	0.2311	0.8628	-0.079
Mof_C 	C 	0.2411	0.3533	0.8447	0.012
Mof_C 	C 	0.2657	0.3394	0.9661	0.076
Mof_C 	C 	0.3279	0.2354	0.9833	-0.143
Mof_C 	C 	0.3317	0.2212	0.0224	0.074
Mof_C 	C 	0.2689	0.3196	0.0455	-0.025
Mof_C 	C 	0.2125	0.435	0.0286	-0.003
Mof_C 	C 	0.2082	0.437	0.9891	-0.099
Mof_C 	C 	0.2694	0.2623	0.168	0.047
Mof_C 	C 	0.1813	0.3548	0.1508	-0.08
Mof_C 	C 	0.1827	0.3782	0.1111	-0.026
Mof_C 	C 	0.273	0.3025	0.0868	-0.011
Mof_C 	C 	0.3613	0.2111	0.1039	0.054
Mof_C 	C 	0.3606	0.1907	0.144	-0.113
Mof_C 	C 	0.2362	0.6098	0.846	0.325
Mof_C 	C 	0.5227	0.1562	0.2858	0.287
Mof_C 	C 	0.0238	0.178	0.2882	0.339
Mof_C 	C 	0.2351	0.0987	0.8415	0.338
Mof_C 	C 	0.4571	0.1322	0.0793	-0.118
Mof_C 	C 	0.3893	0.0913	0.0421	-0.136
Mof_O 	O 	0.4625	0.852	0.82194	-0.481
Mof_O 	O 	0.7797	0.0068	0.36102	-0.565
Mof_O 	O 	0.7638	0.2845	0.36612	-0.52
Mof_O 	O 	0.0844	0.837	0.76782	-0.557
Mof_O 	O 	0.3689	0.8504	0.7644	-0.514
Mof_O 	O 	0.769	0.9059	0.3063	-0.467
Mof_O 	O 	0.7511	0.3823	0.3109	-0.507
Mof_O 	O 	0.9889	0.8309	0.82327	-0.476
Mof_O 	O 	0.5375	0.148	0.32194	-0.481
Mof_O 	O 	0.2203	0.9932	0.86102	-0.565
Mof_O 	O 	0.2362	0.7155	0.86612	-0.52
Mof_O 	O 	0.9156	0.163	0.26782	-0.557
Mof_O 	O 	0.6311	0.1496	0.2644	-0.514
Mof_O 	O 	0.231	0.0941	0.8063	-0.467
Mof_O 	O 	0.2489	0.6177	0.8109	-0.507
Mof_O 	O 	0.0111	0.1691	0.32327	-0.476
Mof_H 	H 	0.0951	0.8393	0.8994	0.115
Mof_H 	H 	0.0747	0.8489	0.9412	0.101
Mof_H 	H 	0.0142	0.0339	0.9131	0.095
Mof_H 	H 	0.906	0.9479	0.889	0.102
Mof_H 	H 	0.8896	0.962	0.9343	0.099
Mof_H 	H 	0.0234	0.6461	0.9222	0.092
Mof_H 	H 	0.8911	0.722	0.9379	0.105
Mof_H 	H 	0.9162	0.7098	0.8929	0.099
Mof_C 	C 	0.9549	0.954	0.9133	-0.209
Mof_C 	C 	0.96	0.721	0.9178	-0.22
Mof_N 	N 	0.0302	0.8419	0.9183	-0.159
Mof_H 	H 	0.9049	0.1607	0.3994	0.115
Mof_H 	H 	0.9253	0.1511	0.4412	0.102
Mof_H 	H 	0.9858	0.9661	0.4131	0.095
Mof_H 	H 	0.094	0.0521	0.389	0.102
Mof_H 	H 	0.1104	0.038	0.4343	0.099
Mof_H 	H 	0.9766	0.3539	0.4222	0.092
Mof_H 	H 	0.1089	0.278	0.4379	0.106
Mof_H 	H 	0.0838	0.2902	0.3929	0.099
Mof_C 	C 	0.0451	0.046	0.4133	-0.209
Mof_C 	C 	0.04	0.279	0.4178	-0.22
Mof_N 	N 	0.9698	0.1581	0.4183	-0.159
Mof_H 	H 	0.1607	0.0951	0.6494	0.115
Mof_H 	H 	0.1511	0.0747	0.6912	0.102
Mof_H 	H 	0.9661	0.0142	0.6631	0.095
Mof_H 	H 	0.0521	0.906	0.639	0.102
Mof_H 	H 	0.038	0.8896	0.6843	0.099
Mof_H 	H 	0.3539	0.0234	0.6722	0.092
Mof_H 	H 	0.278	0.8911	0.6879	0.106
Mof_H 	H 	0.2902	0.9162	0.6429	0.099
Mof_C 	C 	0.046	0.9549	0.6633	-0.21
Mof_C 	C 	0.279	0.96	0.6678	-0.22
Mof_N 	N 	0.1581	0.0302	0.6683	-0.159
Mof_H 	H 	0.8393	0.9049	0.1494	0.115
Mof_H 	H 	0.8489	0.9253	0.1912	0.102
Mof_H 	H 	0.0339	0.9858	0.1631	0.095
Mof_H 	H 	0.9479	0.094	0.139	0.102
Mof_H 	H 	0.962	0.1104	0.1843	0.099
Mof_H 	H 	0.6461	0.9766	0.1722	0.092
Mof_H 	H 	0.722	0.1089	0.1879	0.106
Mof_H 	H 	0.7098	0.0838	0.1429	0.099
Mof_C 	C 	0.954	0.0451	0.1633	-0.21
Mof_C 	C 	0.721	0.04	0.1678	-0.22
Mof_N 	N 	0.8419	0.9698	0.1683	-0.159
_end
