data_functionalizedCrystal
_audit_creation_method	'EQeq! by Chris Wilmer'
_symmetry_space_group_name_H-M	'P1'
_symmetry_Int_Tables_number	1
_symmetry_cell_setting	triclinic
loop_
_symmetry_equiv_pos_as_xyz
  x,y,z
_cell_length_a	12.335
_cell_length_b	12.335
_cell_length_c	5.265
_cell_angle_alpha	90
_cell_angle_beta	90
_cell_angle_gamma	90
loop_
_atom_site_label
_atom_site_type_symbol
_atom_site_fract_x
_atom_site_fract_y
_atom_site_fract_z
_atom_site_charge
Mof_C 	C 	0.2954	0.7943	0.7195	-0.09
Mof_H 	H 	0.2633	0.8032	0.5464	0.049
Mof_C 	C 	0.3448	0.6814	0.7393	-0.105
Mof_H 	H 	0.3824	0.6614	0.58	0.071
Mof_H 	H 	0.2883	0.6265	0.7761	0.066
Mof_C 	C 	0.4756	0.8306	0.9008	-0.154
Mof_H 	H 	0.5423	0.8285	0.7927	0.084
Mof_C 	C 	0.4984	0.8952	0.1402	0.383
Mof_C 	C 	0.2062	0.8134	0.9184	0.285
Mof_N 	N 	0.3837	0.8741	0.7506	-0.261
Mof_H 	H 	0.402	0.897	0.616	0.138
Mof_O 	O 	0.58324	0.87131	0.257	-0.428
Mof_O 	O 	0.43148	0.96677	0.2112	-0.435
Mof_O 	O 	0.20776	0.89911	0.0465	-0.375
Mof_O 	O 	0.13228	0.74314	0.942	-0.407
Mof_S 	S 	0.4397	0.6923	0.99992	0.005
Mof_Co	Co	0.32124	0.01546	0.94137	1.146
Mof_C 	C 	0.7046	0.2057	0.2195	-0.097
Mof_H 	H 	0.7367	0.1968	0.0464	0.056
Mof_C 	C 	0.6552	0.3186	0.2393	-0.108
Mof_H 	H 	0.6176	0.3386	0.08	0.077
Mof_H 	H 	0.7117	0.3735	0.2761	0.074
Mof_C 	C 	0.5244	0.1694	0.4008	-0.129
Mof_H 	H 	0.4577	0.1715	0.2927	0.084
Mof_C 	C 	0.5016	0.1048	0.6402	0.354
Mof_C 	C 	0.7938	0.1866	0.4184	0.325
Mof_N 	N 	0.6163	0.1259	0.2506	-0.26
Mof_H 	H 	0.598	0.103	0.116	0.147
Mof_O 	O 	0.41676	0.12869	0.757	-0.44
Mof_O 	O 	0.56852	0.03323	0.7112	-0.444
Mof_O 	O 	0.79224	0.10089	0.5465	-0.417
Mof_O 	O 	0.86772	0.25686	0.442	-0.406
Mof_S 	S 	0.5603	0.3077	0.49992	0.02
Mof_Co	Co	0.67876	0.98454	0.44137	1.16
Mof_C 	C 	0.2057	0.2954	0.9695	-0.136
Mof_H 	H 	0.1968	0.2633	0.7964	0.054
Mof_C 	C 	0.3186	0.3448	0.9893	-0.185
Mof_H 	H 	0.3386	0.3824	0.83	0.084
Mof_H 	H 	0.3735	0.2883	0.0261	0.115
Mof_C 	C 	0.1694	0.4756	0.1508	-0.139
Mof_H 	H 	0.1715	0.5423	0.0427	0.099
Mof_C 	C 	0.1048	0.4984	0.3902	0.36
Mof_C 	C 	0.1866	0.2062	0.1684	0.355
Mof_N 	N 	0.1259	0.3837	0.0006	-0.21
Mof_H 	H 	0.103	0.402	0.866	0.1
Mof_O 	O 	0.12869	0.58324	0.507	-0.429
Mof_O 	O 	0.03323	0.43148	0.4612	-0.437
Mof_O 	O 	0.10089	0.20776	0.2965	-0.418
Mof_O 	O 	0.25686	0.13228	0.192	-0.4
Mof_S 	S 	0.3077	0.4397	0.24992	0.065
Mof_Co	Co	0.98454	0.32124	0.19137	1.163
Mof_C 	C 	0.7943	0.7046	0.4695	-0.098
Mof_H 	H 	0.8032	0.7367	0.2964	0.056
Mof_C 	C 	0.6814	0.6552	0.4893	-0.105
Mof_H 	H 	0.6614	0.6176	0.33	0.075
Mof_H 	H 	0.6265	0.7117	0.5261	0.073
Mof_C 	C 	0.8306	0.5244	0.6508	-0.118
Mof_H 	H 	0.8285	0.4577	0.5427	0.076
Mof_C 	C 	0.8952	0.5016	0.8902	0.319
Mof_C 	C 	0.8134	0.7938	0.6684	0.326
Mof_N 	N 	0.8741	0.6163	0.5006	-0.261
Mof_H 	H 	0.897	0.598	0.366	0.144
Mof_O 	O 	0.87131	0.41676	0.007	-0.399
Mof_O 	O 	0.96677	0.56852	0.9612	-0.439
Mof_O 	O 	0.89911	0.79224	0.7965	-0.42
Mof_O 	O 	0.74314	0.86772	0.692	-0.409
Mof_S 	S 	0.6923	0.5603	0.74992	0.012
Mof_Co	Co	0.01546	0.67876	0.69137	1.159
_end
