data_functionalizedCrystal
_audit_creation_method	'EQeq! by Chris Wilmer'
_symmetry_space_group_name_H-M	'P1'
_symmetry_Int_Tables_number	1
_symmetry_cell_setting	triclinic
loop_
_symmetry_equiv_pos_as_xyz
  x,y,z
_cell_length_a	32.902
_cell_length_b	23.2587
_cell_length_c	18.5665
_cell_angle_alpha	90
_cell_angle_beta	122.058
_cell_angle_gamma	90
loop_
_atom_site_label
_atom_site_type_symbol
_atom_site_fract_x
_atom_site_fract_y
_atom_site_fract_z
_atom_site_charge
Mof_Zn	Zn	0.08875	0.76344	0.98914	1.215
Mof_Zn	Zn	0.19178	0.7369	0.08746	1.216
Mof_O 	O 	0.0921	0.3042	0.4221	-0.469
Mof_O 	O 	0.1816	0.1961	0.6474	-0.475
Mof_O 	O 	0.174	0.6819	0.1503	-0.459
Mof_O 	O 	0.111	0.8145	0.9275	-0.457
Mof_O 	O 	0.1699	0.3245	0.4952	-0.459
Mof_O 	O 	0.1893	0.7961	0.0051	-0.461
Mof_O 	O 	0.0966	0.7048	0.0764	-0.481
Mof_O 	O 	0.104	0.1728	0.5732	-0.445
Mof_N 	N 	0.2642	0.729	0.16	-0.246
Mof_N 	N 	0.5163	0.7274	0.4158	-0.211
Mof_C 	C 	0.2915	0.7614	0.1429	0.059
Mof_H 	H 	0.2764	0.7868	0.0957	0.011
Mof_C 	C 	0.4171	0.723	0.3147	0.125
Mof_C 	C 	0.1274	0.3342	0.437	0.38
Mof_C 	C 	0.3637	0.7239	0.2611	0.013
Mof_C 	C 	0.1534	0.8239	0.9491	0.371
Mof_C 	C 	0.0982	0.9896	0.7356	-0.212
Mof_H 	H 	0.0792	0.9684	0.6813	0.083
Mof_H 	H 	0.0761	0.0089	0.7488	0.091
Mof_C 	C 	0.148	0.1652	0.6338	0.38
Mof_C 	C 	0.286	0.6947	0.2279	0.064
Mof_H 	H 	0.267	0.6721	0.2416	0.007
Mof_C 	C 	0.1808	0.5051	0.3347	-0.213
Mof_H 	H 	0.2015	0.485	0.3191	0.093
Mof_H 	H 	0.2012	0.5248	0.3899	0.093
Mof_C 	C 	0.1309	0.6756	0.1294	0.392
Mof_C 	C 	0.1324	0.9502	0.8068	0.071
Mof_C 	C 	0.1212	0.6271	0.171	-0.08
Mof_C 	C 	0.1237	0.9027	0.8412	-0.078
Mof_H 	H 	0.0917	0.8909	0.8205	0.072
Mof_C 	C 	0.1205	0.0805	0.6806	-0.052
Mof_H 	H 	0.0881	0.0906	0.6408	0.063
Mof_C 	C 	0.1183	0.3851	0.3813	-0.085
Mof_C 	C 	0.156	0.4165	0.3897	-0.056
Mof_H 	H 	0.1881	0.4056	0.4304	0.062
Mof_C 	C 	0.1479	0.5469	0.2668	0.056
Mof_C 	C 	0.1579	0.114	0.6886	-0.08
Mof_C 	C 	0.162	0.8723	0.9064	-0.051
Mof_C 	C 	0.1583	0.5957	0.235	-0.053
Mof_H 	H 	0.1906	0.607	0.2574	0.063
Mof_C 	C 	0.1803	0.9663	0.8355	-0.038
Mof_C 	C 	0.1003	0.5322	0.2362	-0.003
Mof_C 	C 	0.0717	0.3998	0.3208	0
Mof_H 	H 	0.046	0.3768	0.314	0.035
Mof_C 	C 	0.2052	0.0987	0.7462	0.008
Mof_H 	H 	0.2304	0.1223	0.7522	0.041
Mof_C 	C 	0.1468	0.4644	0.3381	0.058
Mof_C 	C 	0.3411	0.759	0.1918	-0.096
Mof_H 	H 	0.3595	0.7819	0.1769	0.065
Mof_C 	C 	0.1	0.48	0.2793	-0.005
Mof_C 	C 	0.1313	0.0321	0.7317	0.05
Mof_C 	C 	0.0737	0.6126	0.1416	0.005
Mof_H 	H 	0.0484	0.6352	0.0984	0.04
Mof_C 	C 	0.1796	0.0178	0.7904	0.014
Mof_C 	C 	0.0621	0.4476	0.2702	-0.072
Mof_H 	H 	0.0299	0.4582	0.2297	0.052
Mof_C 	C 	0.2162	0.0491	0.7951	-0.079
Mof_H 	H 	0.2486	0.0371	0.8311	0.06
Mof_C 	C 	0.2093	0.8865	0.9325	-0.045
Mof_H 	H 	0.2352	0.8635	0.9734	0.062
Mof_C 	C 	0.0628	0.5656	0.1748	-0.069
Mof_H 	H 	0.0305	0.5564	0.1558	0.055
Mof_C 	C 	0.4913	0.7024	0.4434	-0.022
Mof_C 	C 	0.3353	0.691	0.279	-0.1
Mof_H 	H 	0.3497	0.6657	0.3264	0.064
Mof_C 	C 	0.2183	0.9343	0.8982	0.011
Mof_C 	C 	0.4446	0.7323	0.2833	0.284
Mof_H 	H 	0.4299	0.738	0.2238	-0.056
Mof_C 	C 	0.4934	0.7339	0.3343	-0.196
Mof_H 	H 	0.5115	0.7401	0.3086	0.08
Mof_C 	C 	0.443	0.6818	0.3658	-0.815
Mof_H 	H 	0.4332	0.6427	0.3564	0.302
Mof_C 	C 	0.4416	0.774	0.317	-0.424
Mof_H 	H 	0.4248	0.8073	0.2854	0.168
Mof_C 	C 	0.4899	0.7726	0.365	0.208
Mof_C 	C 	0.4426	0.7069	0.4045	0.68
Mof_H 	H 	0.4265	0.7	0.4336	-0.197
Mof_Zn	Zn	0.58875	0.26344	0.98914	1.216
Mof_Zn	Zn	0.69178	0.2369	0.08746	1.217
Mof_O 	O 	0.5921	0.8042	0.4221	-0.468
Mof_O 	O 	0.6816	0.6961	0.6474	-0.474
Mof_O 	O 	0.674	0.1819	0.1503	-0.458
Mof_O 	O 	0.611	0.3145	0.9275	-0.456
Mof_O 	O 	0.6699	0.8245	0.4952	-0.458
Mof_O 	O 	0.6893	0.2961	0.0051	-0.46
Mof_O 	O 	0.5966	0.2048	0.0764	-0.48
Mof_O 	O 	0.604	0.6728	0.5732	-0.444
Mof_N 	N 	0.7642	0.229	0.16	-0.245
Mof_N 	N 	0.0163	0.2274	0.4158	-0.21
Mof_C 	C 	0.7915	0.2614	0.1429	0.06
Mof_H 	H 	0.7764	0.2868	0.0957	0.012
Mof_C 	C 	0.9171	0.223	0.3147	0.126
Mof_C 	C 	0.6274	0.8342	0.437	0.381
Mof_C 	C 	0.8637	0.2239	0.2611	0.014
Mof_C 	C 	0.6534	0.3239	0.9491	0.372
Mof_C 	C 	0.5982	0.4896	0.7356	-0.211
Mof_H 	H 	0.5792	0.4684	0.6813	0.084
Mof_H 	H 	0.5761	0.5089	0.7488	0.091
Mof_C 	C 	0.648	0.6652	0.6338	0.38
Mof_C 	C 	0.786	0.1947	0.2279	0.064
Mof_H 	H 	0.767	0.1721	0.2416	0.007
Mof_C 	C 	0.6808	0.0051	0.3347	-0.212
Mof_H 	H 	0.7015	0.985	0.3191	0.093
Mof_H 	H 	0.7012	0.0248	0.3899	0.093
Mof_C 	C 	0.6309	0.1756	0.1294	0.392
Mof_C 	C 	0.6324	0.4502	0.8068	0.071
Mof_C 	C 	0.6212	0.1271	0.171	-0.08
Mof_C 	C 	0.6237	0.4027	0.8412	-0.078
Mof_H 	H 	0.5917	0.3909	0.8205	0.072
Mof_C 	C 	0.6205	0.5805	0.6806	-0.052
Mof_H 	H 	0.5881	0.5906	0.6408	0.063
Mof_C 	C 	0.6183	0.8851	0.3813	-0.085
Mof_C 	C 	0.656	0.9165	0.3897	-0.056
Mof_H 	H 	0.6881	0.9056	0.4304	0.062
Mof_C 	C 	0.6479	0.0469	0.2668	0.056
Mof_C 	C 	0.6579	0.614	0.6886	-0.08
Mof_C 	C 	0.662	0.3723	0.9064	-0.051
Mof_C 	C 	0.6583	0.0957	0.235	-0.053
Mof_H 	H 	0.6906	0.107	0.2574	0.063
Mof_C 	C 	0.6803	0.4663	0.8355	-0.038
Mof_C 	C 	0.6003	0.0322	0.2362	-0.003
Mof_C 	C 	0.5717	0.8998	0.3208	0
Mof_H 	H 	0.546	0.8768	0.314	0.035
Mof_C 	C 	0.7052	0.5987	0.7462	0.009
Mof_H 	H 	0.7304	0.6223	0.7522	0.041
Mof_C 	C 	0.6468	0.9644	0.3381	0.058
Mof_C 	C 	0.8411	0.259	0.1918	-0.096
Mof_H 	H 	0.8595	0.2819	0.1769	0.065
Mof_C 	C 	0.6	0.98	0.2793	-0.006
Mof_C 	C 	0.6313	0.5321	0.7317	0.05
Mof_C 	C 	0.5737	0.1126	0.1416	0.005
Mof_H 	H 	0.5484	0.1352	0.0984	0.04
Mof_C 	C 	0.6796	0.5178	0.7904	0.014
Mof_C 	C 	0.5621	0.9476	0.2702	-0.072
Mof_H 	H 	0.5299	0.9582	0.2297	0.052
Mof_C 	C 	0.7162	0.5491	0.7951	-0.079
Mof_H 	H 	0.7486	0.5371	0.8311	0.06
Mof_C 	C 	0.7093	0.3865	0.9325	-0.045
Mof_H 	H 	0.7352	0.3635	0.9734	0.062
Mof_C 	C 	0.5628	0.0656	0.1748	-0.069
Mof_H 	H 	0.5305	0.0564	0.1558	0.055
Mof_C 	C 	0.9913	0.2024	0.4434	-0.022
Mof_C 	C 	0.8353	0.191	0.279	-0.1
Mof_H 	H 	0.8497	0.1657	0.3264	0.064
Mof_C 	C 	0.7183	0.4343	0.8982	0.011
Mof_C 	C 	0.9446	0.2323	0.2833	0.283
Mof_H 	H 	0.9299	0.238	0.2238	-0.055
Mof_C 	C 	0.9934	0.2339	0.3343	-0.196
Mof_H 	H 	0.0115	0.2401	0.3086	0.08
Mof_C 	C 	0.943	0.1818	0.3658	-0.811
Mof_H 	H 	0.9332	0.1427	0.3564	0.301
Mof_C 	C 	0.9416	0.274	0.317	-0.423
Mof_H 	H 	0.9248	0.3073	0.2854	0.168
Mof_C 	C 	0.9899	0.2726	0.365	0.208
Mof_C 	C 	0.9426	0.2069	0.4045	0.676
Mof_H 	H 	0.9265	0.2	0.4336	-0.196
Mof_Zn	Zn	0.08875	0.23656	0.48914	1.216
Mof_Zn	Zn	0.19178	0.2631	0.58746	1.217
Mof_O 	O 	0.0921	0.6958	0.9221	-0.468
Mof_O 	O 	0.1816	0.8039	0.1474	-0.474
Mof_O 	O 	0.174	0.3181	0.6503	-0.458
Mof_O 	O 	0.111	0.1855	0.4275	-0.456
Mof_O 	O 	0.1699	0.6755	0.9952	-0.458
Mof_O 	O 	0.1893	0.2039	0.5051	-0.46
Mof_O 	O 	0.0966	0.2952	0.5764	-0.48
Mof_O 	O 	0.104	0.8272	0.0732	-0.444
Mof_N 	N 	0.2642	0.271	0.66	-0.245
Mof_N 	N 	0.5163	0.2726	0.9158	-0.21
Mof_C 	C 	0.2915	0.2386	0.6429	0.06
Mof_H 	H 	0.2764	0.2132	0.5957	0.012
Mof_C 	C 	0.4171	0.277	0.8147	0.126
Mof_C 	C 	0.1274	0.6658	0.937	0.381
Mof_C 	C 	0.3637	0.2761	0.7611	0.014
Mof_C 	C 	0.1534	0.1761	0.4491	0.372
Mof_C 	C 	0.0982	0.0104	0.2356	-0.211
Mof_H 	H 	0.0792	0.0316	0.1813	0.084
Mof_H 	H 	0.0761	0.9911	0.2488	0.091
Mof_C 	C 	0.148	0.8348	0.1338	0.38
Mof_C 	C 	0.286	0.3053	0.7279	0.064
Mof_H 	H 	0.267	0.3279	0.7416	0.007
Mof_C 	C 	0.1808	0.4949	0.8347	-0.213
Mof_H 	H 	0.2015	0.515	0.8191	0.093
Mof_H 	H 	0.2012	0.4752	0.8899	0.093
Mof_C 	C 	0.1309	0.3244	0.6294	0.392
Mof_C 	C 	0.1324	0.0498	0.3068	0.071
Mof_C 	C 	0.1212	0.3729	0.671	-0.08
Mof_C 	C 	0.1237	0.0973	0.3412	-0.078
Mof_H 	H 	0.0917	0.1091	0.3205	0.072
Mof_C 	C 	0.1205	0.9195	0.1806	-0.052
Mof_H 	H 	0.0881	0.9094	0.1408	0.063
Mof_C 	C 	0.1183	0.6149	0.8813	-0.085
Mof_C 	C 	0.156	0.5835	0.8897	-0.056
Mof_H 	H 	0.1881	0.5944	0.9304	0.062
Mof_C 	C 	0.1479	0.4531	0.7668	0.056
Mof_C 	C 	0.1579	0.886	0.1886	-0.08
Mof_C 	C 	0.162	0.1277	0.4064	-0.051
Mof_C 	C 	0.1583	0.4043	0.735	-0.053
Mof_H 	H 	0.1906	0.393	0.7574	0.063
Mof_C 	C 	0.1803	0.0337	0.3355	-0.038
Mof_C 	C 	0.1003	0.4678	0.7362	-0.003
Mof_C 	C 	0.0717	0.6002	0.8208	0
Mof_H 	H 	0.046	0.6232	0.814	0.035
Mof_C 	C 	0.2052	0.9013	0.2462	0.008
Mof_H 	H 	0.2304	0.8777	0.2522	0.041
Mof_C 	C 	0.1468	0.5356	0.8381	0.058
Mof_C 	C 	0.3411	0.241	0.6918	-0.096
Mof_H 	H 	0.3595	0.2181	0.6769	0.065
Mof_C 	C 	0.1	0.52	0.7793	-0.005
Mof_C 	C 	0.1313	0.9679	0.2317	0.05
Mof_C 	C 	0.0737	0.3874	0.6416	0.005
Mof_H 	H 	0.0484	0.3648	0.5984	0.04
Mof_C 	C 	0.1796	0.9822	0.2904	0.014
Mof_C 	C 	0.0621	0.5524	0.7702	-0.072
Mof_H 	H 	0.0299	0.5418	0.7297	0.052
Mof_C 	C 	0.2162	0.9509	0.2951	-0.079
Mof_H 	H 	0.2486	0.9629	0.3311	0.06
Mof_C 	C 	0.2093	0.1135	0.4325	-0.045
Mof_H 	H 	0.2352	0.1365	0.4734	0.062
Mof_C 	C 	0.0628	0.4344	0.6748	-0.069
Mof_H 	H 	0.0305	0.4436	0.6558	0.055
Mof_C 	C 	0.4913	0.2976	0.9434	-0.022
Mof_C 	C 	0.3353	0.309	0.779	-0.1
Mof_H 	H 	0.3497	0.3343	0.8264	0.064
Mof_C 	C 	0.2183	0.0657	0.3982	0.011
Mof_C 	C 	0.4446	0.2677	0.7833	0.284
Mof_H 	H 	0.4299	0.262	0.7238	-0.056
Mof_C 	C 	0.4934	0.2661	0.8343	-0.196
Mof_H 	H 	0.5115	0.2599	0.8086	0.08
Mof_C 	C 	0.443	0.3182	0.8658	-0.815
Mof_H 	H 	0.4332	0.3573	0.8564	0.302
Mof_C 	C 	0.4416	0.226	0.817	-0.424
Mof_H 	H 	0.4248	0.1927	0.7854	0.168
Mof_C 	C 	0.4899	0.2274	0.865	0.208
Mof_C 	C 	0.4426	0.2931	0.9045	0.68
Mof_H 	H 	0.4265	0.3	0.9336	-0.197
Mof_Zn	Zn	0.58875	0.73656	0.48914	1.216
Mof_Zn	Zn	0.69178	0.7631	0.58746	1.217
Mof_O 	O 	0.5921	0.1958	0.9221	-0.468
Mof_O 	O 	0.6816	0.3039	0.1474	-0.474
Mof_O 	O 	0.674	0.8181	0.6503	-0.458
Mof_O 	O 	0.611	0.6855	0.4275	-0.456
Mof_O 	O 	0.6699	0.1755	0.9952	-0.458
Mof_O 	O 	0.6893	0.7039	0.5051	-0.46
Mof_O 	O 	0.5966	0.7952	0.5764	-0.48
Mof_O 	O 	0.604	0.3272	0.0732	-0.444
Mof_N 	N 	0.7642	0.771	0.66	-0.245
Mof_N 	N 	0.0163	0.7726	0.9158	-0.21
Mof_C 	C 	0.7915	0.7386	0.6429	0.06
Mof_H 	H 	0.7764	0.7132	0.5957	0.012
Mof_C 	C 	0.9171	0.777	0.8147	0.128
Mof_C 	C 	0.6274	0.1658	0.937	0.381
Mof_C 	C 	0.8637	0.7761	0.7611	0.013
Mof_C 	C 	0.6534	0.6761	0.4491	0.372
Mof_C 	C 	0.5982	0.5104	0.2356	-0.211
Mof_H 	H 	0.5792	0.5316	0.1813	0.084
Mof_H 	H 	0.5761	0.4911	0.2488	0.091
Mof_C 	C 	0.648	0.3348	0.1338	0.38
Mof_C 	C 	0.786	0.8053	0.7279	0.063
Mof_H 	H 	0.767	0.8279	0.7416	0.007
Mof_C 	C 	0.6808	0.9949	0.8347	-0.212
Mof_H 	H 	0.7015	0.015	0.8191	0.092
Mof_H 	H 	0.7012	0.9752	0.8899	0.093
Mof_C 	C 	0.6309	0.8244	0.6294	0.392
Mof_C 	C 	0.6324	0.5498	0.3068	0.071
Mof_C 	C 	0.6212	0.8729	0.671	-0.08
Mof_C 	C 	0.6237	0.5973	0.3412	-0.078
Mof_H 	H 	0.5917	0.6091	0.3205	0.072
Mof_C 	C 	0.6205	0.4195	0.1806	-0.052
Mof_H 	H 	0.5881	0.4094	0.1408	0.063
Mof_C 	C 	0.6183	0.1149	0.8813	-0.085
Mof_C 	C 	0.656	0.0835	0.8897	-0.056
Mof_H 	H 	0.6881	0.0944	0.9304	0.062
Mof_C 	C 	0.6479	0.9531	0.7668	0.056
Mof_C 	C 	0.6579	0.386	0.1886	-0.08
Mof_C 	C 	0.662	0.6277	0.4064	-0.051
Mof_C 	C 	0.6583	0.9043	0.735	-0.052
Mof_H 	H 	0.6906	0.893	0.7574	0.063
Mof_C 	C 	0.6803	0.5337	0.3355	-0.038
Mof_C 	C 	0.6003	0.9678	0.7362	-0.003
Mof_C 	C 	0.5717	0.1002	0.8208	0
Mof_H 	H 	0.546	0.1232	0.814	0.035
Mof_C 	C 	0.7052	0.4013	0.2462	0.008
Mof_H 	H 	0.7304	0.3777	0.2522	0.041
Mof_C 	C 	0.6468	0.0356	0.8381	0.058
Mof_C 	C 	0.8411	0.741	0.6918	-0.095
Mof_H 	H 	0.8595	0.7181	0.6769	0.065
Mof_C 	C 	0.6	0.02	0.7793	-0.006
Mof_C 	C 	0.6313	0.4679	0.2317	0.05
Mof_C 	C 	0.5737	0.8874	0.6416	0.005
Mof_H 	H 	0.5484	0.8648	0.5984	0.04
Mof_C 	C 	0.6796	0.4822	0.2904	0.014
Mof_C 	C 	0.5621	0.0524	0.7702	-0.072
Mof_H 	H 	0.5299	0.0418	0.7297	0.052
Mof_C 	C 	0.7162	0.4509	0.2951	-0.079
Mof_H 	H 	0.7486	0.4629	0.3311	0.06
Mof_C 	C 	0.7093	0.6135	0.4325	-0.045
Mof_H 	H 	0.7352	0.6365	0.4734	0.062
Mof_C 	C 	0.5628	0.9344	0.6748	-0.069
Mof_H 	H 	0.5305	0.9436	0.6558	0.055
Mof_C 	C 	0.9913	0.7976	0.9434	-0.023
Mof_C 	C 	0.8353	0.809	0.779	-0.1
Mof_H 	H 	0.8497	0.8343	0.8264	0.064
Mof_C 	C 	0.7183	0.5657	0.3982	0.011
Mof_C 	C 	0.9446	0.7677	0.7833	0.287
Mof_H 	H 	0.9299	0.762	0.7238	-0.057
Mof_C 	C 	0.9934	0.7661	0.8343	-0.197
Mof_H 	H 	0.0115	0.7599	0.8086	0.08
Mof_C 	C 	0.943	0.8182	0.8658	-0.825
Mof_H 	H 	0.9332	0.8573	0.8564	0.305
Mof_C 	C 	0.9416	0.726	0.817	-0.427
Mof_H 	H 	0.9248	0.6927	0.7854	0.169
Mof_C 	C 	0.9899	0.7274	0.865	0.21
Mof_C 	C 	0.9426	0.7931	0.9045	0.689
Mof_H 	H 	0.9265	0.8	0.9336	-0.2
Mof_Zn	Zn	0.91125	0.76344	0.51086	1.216
Mof_Zn	Zn	0.80822	0.7369	0.41254	1.217
Mof_O 	O 	0.9079	0.3042	0.0779	-0.468
Mof_O 	O 	0.8184	0.1961	0.8526	-0.474
Mof_O 	O 	0.826	0.6819	0.3497	-0.458
Mof_O 	O 	0.889	0.8145	0.5725	-0.456
Mof_O 	O 	0.8301	0.3245	0.0048	-0.458
Mof_O 	O 	0.8107	0.7961	0.4949	-0.46
Mof_O 	O 	0.9034	0.7048	0.4236	-0.48
Mof_O 	O 	0.896	0.1728	0.9268	-0.444
Mof_N 	N 	0.7358	0.729	0.34	-0.245
Mof_N 	N 	0.4837	0.7274	0.0842	-0.21
Mof_C 	C 	0.7085	0.7614	0.3571	0.06
Mof_H 	H 	0.7236	0.7868	0.4043	0.012
Mof_C 	C 	0.5829	0.723	0.1853	0.126
Mof_C 	C 	0.8726	0.3342	0.063	0.381
Mof_C 	C 	0.6363	0.7239	0.2389	0.014
Mof_C 	C 	0.8466	0.8239	0.5509	0.372
Mof_C 	C 	0.9018	0.9896	0.7644	-0.211
Mof_H 	H 	0.9208	0.9684	0.8187	0.084
Mof_H 	H 	0.9239	0.0089	0.7512	0.091
Mof_C 	C 	0.852	0.1652	0.8662	0.38
Mof_C 	C 	0.714	0.6947	0.2721	0.064
Mof_H 	H 	0.733	0.6721	0.2584	0.007
Mof_C 	C 	0.8192	0.5051	0.1653	-0.213
Mof_H 	H 	0.7985	0.485	0.1809	0.093
Mof_H 	H 	0.7988	0.5248	0.1101	0.093
Mof_C 	C 	0.8691	0.6756	0.3706	0.392
Mof_C 	C 	0.8676	0.9502	0.6932	0.071
Mof_C 	C 	0.8788	0.6271	0.329	-0.08
Mof_C 	C 	0.8763	0.9027	0.6588	-0.078
Mof_H 	H 	0.9083	0.8909	0.6795	0.072
Mof_C 	C 	0.8795	0.0805	0.8194	-0.052
Mof_H 	H 	0.9119	0.0906	0.8592	0.063
Mof_C 	C 	0.8817	0.3851	0.1187	-0.085
Mof_C 	C 	0.844	0.4165	0.1103	-0.056
Mof_H 	H 	0.8119	0.4056	0.0696	0.062
Mof_C 	C 	0.8521	0.5469	0.2332	0.056
Mof_C 	C 	0.8421	0.114	0.8114	-0.08
Mof_C 	C 	0.838	0.8723	0.5936	-0.051
Mof_C 	C 	0.8417	0.5957	0.265	-0.053
Mof_H 	H 	0.8094	0.607	0.2426	0.063
Mof_C 	C 	0.8197	0.9663	0.6645	-0.038
Mof_C 	C 	0.8997	0.5322	0.2638	-0.003
Mof_C 	C 	0.9283	0.3998	0.1792	0
Mof_H 	H 	0.954	0.3768	0.186	0.035
Mof_C 	C 	0.7948	0.0987	0.7538	0.008
Mof_H 	H 	0.7696	0.1223	0.7478	0.041
Mof_C 	C 	0.8532	0.4644	0.1619	0.058
Mof_C 	C 	0.6589	0.759	0.3082	-0.096
Mof_H 	H 	0.6405	0.7819	0.3231	0.065
Mof_C 	C 	0.9	0.48	0.2207	-0.005
Mof_C 	C 	0.8687	0.0321	0.7683	0.05
Mof_C 	C 	0.9263	0.6126	0.3584	0.005
Mof_H 	H 	0.9516	0.6352	0.4016	0.04
Mof_C 	C 	0.8204	0.0178	0.7096	0.014
Mof_C 	C 	0.9379	0.4476	0.2298	-0.072
Mof_H 	H 	0.9701	0.4582	0.2703	0.052
Mof_C 	C 	0.7838	0.0491	0.7049	-0.079
Mof_H 	H 	0.7514	0.0371	0.6689	0.06
Mof_C 	C 	0.7907	0.8865	0.5675	-0.045
Mof_H 	H 	0.7648	0.8635	0.5266	0.062
Mof_C 	C 	0.9372	0.5656	0.3252	-0.069
Mof_H 	H 	0.9695	0.5564	0.3442	0.055
Mof_C 	C 	0.5087	0.7024	0.0566	-0.022
Mof_C 	C 	0.6647	0.691	0.221	-0.1
Mof_H 	H 	0.6503	0.6657	0.1736	0.064
Mof_C 	C 	0.7817	0.9343	0.6018	0.011
Mof_C 	C 	0.5554	0.7323	0.2167	0.284
Mof_H 	H 	0.5701	0.738	0.2762	-0.056
Mof_C 	C 	0.5066	0.7339	0.1657	-0.196
Mof_H 	H 	0.4885	0.7401	0.1914	0.08
Mof_C 	C 	0.557	0.6818	0.1342	-0.815
Mof_H 	H 	0.5668	0.6427	0.1436	0.302
Mof_C 	C 	0.5584	0.774	0.183	-0.424
Mof_H 	H 	0.5752	0.8073	0.2146	0.168
Mof_C 	C 	0.5101	0.7726	0.135	0.208
Mof_C 	C 	0.5574	0.7069	0.0955	0.68
Mof_H 	H 	0.5735	0.7	0.0664	-0.197
Mof_Zn	Zn	0.41125	0.26344	0.51086	1.216
Mof_Zn	Zn	0.30822	0.2369	0.41254	1.217
Mof_O 	O 	0.4079	0.8042	0.0779	-0.468
Mof_O 	O 	0.3184	0.6961	0.8526	-0.474
Mof_O 	O 	0.326	0.1819	0.3497	-0.458
Mof_O 	O 	0.389	0.3145	0.5725	-0.456
Mof_O 	O 	0.3301	0.8245	0.0048	-0.458
Mof_O 	O 	0.3107	0.2961	0.4949	-0.46
Mof_O 	O 	0.4034	0.2048	0.4236	-0.48
Mof_O 	O 	0.396	0.6728	0.9268	-0.444
Mof_N 	N 	0.2358	0.229	0.34	-0.245
Mof_N 	N 	0.9837	0.2274	0.0842	-0.21
Mof_C 	C 	0.2085	0.2614	0.3571	0.06
Mof_H 	H 	0.2236	0.2868	0.4043	0.012
Mof_C 	C 	0.0829	0.223	0.1853	0.128
Mof_C 	C 	0.3726	0.8342	0.063	0.381
Mof_C 	C 	0.1363	0.2239	0.2389	0.013
Mof_C 	C 	0.3466	0.3239	0.5509	0.372
Mof_C 	C 	0.4018	0.4896	0.7644	-0.211
Mof_H 	H 	0.4208	0.4684	0.8187	0.084
Mof_H 	H 	0.4239	0.5089	0.7512	0.091
Mof_C 	C 	0.352	0.6652	0.8662	0.38
Mof_C 	C 	0.214	0.1947	0.2721	0.063
Mof_H 	H 	0.233	0.1721	0.2584	0.007
Mof_C 	C 	0.3192	0.0051	0.1653	-0.212
Mof_H 	H 	0.2985	0.985	0.1809	0.092
Mof_H 	H 	0.2988	0.0248	0.1101	0.093
Mof_C 	C 	0.3691	0.1756	0.3706	0.392
Mof_C 	C 	0.3676	0.4502	0.6932	0.071
Mof_C 	C 	0.3788	0.1271	0.329	-0.08
Mof_C 	C 	0.3763	0.4027	0.6588	-0.078
Mof_H 	H 	0.4083	0.3909	0.6795	0.072
Mof_C 	C 	0.3795	0.5805	0.8194	-0.052
Mof_H 	H 	0.4119	0.5906	0.8592	0.063
Mof_C 	C 	0.3817	0.8851	0.1187	-0.085
Mof_C 	C 	0.344	0.9165	0.1103	-0.056
Mof_H 	H 	0.3119	0.9056	0.0696	0.062
Mof_C 	C 	0.3521	0.0469	0.2332	0.056
Mof_C 	C 	0.3421	0.614	0.8114	-0.08
Mof_C 	C 	0.338	0.3723	0.5936	-0.051
Mof_C 	C 	0.3417	0.0957	0.265	-0.052
Mof_H 	H 	0.3094	0.107	0.2426	0.063
Mof_C 	C 	0.3197	0.4663	0.6645	-0.038
Mof_C 	C 	0.3997	0.0322	0.2638	-0.003
Mof_C 	C 	0.4283	0.8998	0.1792	0
Mof_H 	H 	0.454	0.8768	0.186	0.035
Mof_C 	C 	0.2948	0.5987	0.7538	0.008
Mof_H 	H 	0.2696	0.6223	0.7478	0.041
Mof_C 	C 	0.3532	0.9644	0.1619	0.058
Mof_C 	C 	0.1589	0.259	0.3082	-0.095
Mof_H 	H 	0.1405	0.2819	0.3231	0.065
Mof_C 	C 	0.4	0.98	0.2207	-0.006
Mof_C 	C 	0.3687	0.5321	0.7683	0.05
Mof_C 	C 	0.4263	0.1126	0.3584	0.005
Mof_H 	H 	0.4516	0.1352	0.4016	0.04
Mof_C 	C 	0.3204	0.5178	0.7096	0.014
Mof_C 	C 	0.4379	0.9476	0.2298	-0.072
Mof_H 	H 	0.4701	0.9582	0.2703	0.052
Mof_C 	C 	0.2838	0.5491	0.7049	-0.079
Mof_H 	H 	0.2514	0.5371	0.6689	0.06
Mof_C 	C 	0.2907	0.3865	0.5675	-0.045
Mof_H 	H 	0.2648	0.3635	0.5266	0.062
Mof_C 	C 	0.4372	0.0656	0.3252	-0.069
Mof_H 	H 	0.4695	0.0564	0.3442	0.055
Mof_C 	C 	0.0087	0.2024	0.0566	-0.023
Mof_C 	C 	0.1647	0.191	0.221	-0.1
Mof_H 	H 	0.1503	0.1657	0.1736	0.064
Mof_C 	C 	0.2817	0.4343	0.6018	0.011
Mof_C 	C 	0.0554	0.2323	0.2167	0.287
Mof_H 	H 	0.0701	0.238	0.2762	-0.057
Mof_C 	C 	0.0066	0.2339	0.1657	-0.197
Mof_H 	H 	0.9885	0.2401	0.1914	0.08
Mof_C 	C 	0.057	0.1818	0.1342	-0.825
Mof_H 	H 	0.0668	0.1427	0.1436	0.305
Mof_C 	C 	0.0584	0.274	0.183	-0.427
Mof_H 	H 	0.0752	0.3073	0.2146	0.169
Mof_C 	C 	0.0101	0.2726	0.135	0.21
Mof_C 	C 	0.0574	0.2069	0.0955	0.689
Mof_H 	H 	0.0735	0.2	0.0664	-0.2
Mof_Zn	Zn	0.91125	0.23656	0.01086	1.216
Mof_Zn	Zn	0.80822	0.2631	0.91254	1.217
Mof_O 	O 	0.9079	0.6958	0.5779	-0.468
Mof_O 	O 	0.8184	0.8039	0.3526	-0.474
Mof_O 	O 	0.826	0.3181	0.8497	-0.458
Mof_O 	O 	0.889	0.1855	0.0725	-0.456
Mof_O 	O 	0.8301	0.6755	0.5048	-0.458
Mof_O 	O 	0.8107	0.2039	0.9949	-0.46
Mof_O 	O 	0.9034	0.2952	0.9236	-0.48
Mof_O 	O 	0.896	0.8272	0.4268	-0.444
Mof_N 	N 	0.7358	0.271	0.84	-0.245
Mof_N 	N 	0.4837	0.2726	0.5842	-0.21
Mof_C 	C 	0.7085	0.2386	0.8571	0.06
Mof_H 	H 	0.7236	0.2132	0.9043	0.012
Mof_C 	C 	0.5829	0.277	0.6853	0.126
Mof_C 	C 	0.8726	0.6658	0.563	0.381
Mof_C 	C 	0.6363	0.2761	0.7389	0.014
Mof_C 	C 	0.8466	0.1761	0.0509	0.372
Mof_C 	C 	0.9018	0.0104	0.2644	-0.211
Mof_H 	H 	0.9208	0.0316	0.3187	0.084
Mof_H 	H 	0.9239	0.9911	0.2512	0.091
Mof_C 	C 	0.852	0.8348	0.3662	0.38
Mof_C 	C 	0.714	0.3053	0.7721	0.064
Mof_H 	H 	0.733	0.3279	0.7584	0.007
Mof_C 	C 	0.8192	0.4949	0.6653	-0.213
Mof_H 	H 	0.7985	0.515	0.6809	0.093
Mof_H 	H 	0.7988	0.4752	0.6101	0.093
Mof_C 	C 	0.8691	0.3244	0.8706	0.392
Mof_C 	C 	0.8676	0.0498	0.1932	0.071
Mof_C 	C 	0.8788	0.3729	0.829	-0.08
Mof_C 	C 	0.8763	0.0973	0.1588	-0.078
Mof_H 	H 	0.9083	0.1091	0.1795	0.072
Mof_C 	C 	0.8795	0.9195	0.3194	-0.052
Mof_H 	H 	0.9119	0.9094	0.3592	0.063
Mof_C 	C 	0.8817	0.6149	0.6187	-0.085
Mof_C 	C 	0.844	0.5835	0.6103	-0.056
Mof_H 	H 	0.8119	0.5944	0.5696	0.062
Mof_C 	C 	0.8521	0.4531	0.7332	0.056
Mof_C 	C 	0.8421	0.886	0.3114	-0.08
Mof_C 	C 	0.838	0.1277	0.0936	-0.051
Mof_C 	C 	0.8417	0.4043	0.765	-0.053
Mof_H 	H 	0.8094	0.393	0.7426	0.063
Mof_C 	C 	0.8197	0.0337	0.1645	-0.038
Mof_C 	C 	0.8997	0.4678	0.7638	-0.003
Mof_C 	C 	0.9283	0.6002	0.6792	0
Mof_H 	H 	0.954	0.6232	0.686	0.035
Mof_C 	C 	0.7948	0.9013	0.2538	0.008
Mof_H 	H 	0.7696	0.8777	0.2478	0.041
Mof_C 	C 	0.8532	0.5356	0.6619	0.058
Mof_C 	C 	0.6589	0.241	0.8082	-0.096
Mof_H 	H 	0.6405	0.2181	0.8231	0.065
Mof_C 	C 	0.9	0.52	0.7207	-0.005
Mof_C 	C 	0.8687	0.9679	0.2683	0.05
Mof_C 	C 	0.9263	0.3874	0.8584	0.005
Mof_H 	H 	0.9516	0.3648	0.9016	0.04
Mof_C 	C 	0.8204	0.9822	0.2096	0.014
Mof_C 	C 	0.9379	0.5524	0.7298	-0.072
Mof_H 	H 	0.9701	0.5418	0.7703	0.052
Mof_C 	C 	0.7838	0.9509	0.2049	-0.079
Mof_H 	H 	0.7514	0.9629	0.1689	0.06
Mof_C 	C 	0.7907	0.1135	0.0675	-0.045
Mof_H 	H 	0.7648	0.1365	0.0266	0.062
Mof_C 	C 	0.9372	0.4344	0.8252	-0.069
Mof_H 	H 	0.9695	0.4436	0.8442	0.055
Mof_C 	C 	0.5087	0.2976	0.5566	-0.022
Mof_C 	C 	0.6647	0.309	0.721	-0.1
Mof_H 	H 	0.6503	0.3343	0.6736	0.064
Mof_C 	C 	0.7817	0.0657	0.1018	0.011
Mof_C 	C 	0.5554	0.2677	0.7167	0.284
Mof_H 	H 	0.5701	0.262	0.7762	-0.056
Mof_C 	C 	0.5066	0.2661	0.6657	-0.196
Mof_H 	H 	0.4885	0.2599	0.6914	0.08
Mof_C 	C 	0.557	0.3182	0.6342	-0.815
Mof_H 	H 	0.5668	0.3573	0.6436	0.302
Mof_C 	C 	0.5584	0.226	0.683	-0.424
Mof_H 	H 	0.5752	0.1927	0.7146	0.168
Mof_C 	C 	0.5101	0.2274	0.635	0.208
Mof_C 	C 	0.5574	0.2931	0.5955	0.68
Mof_H 	H 	0.5735	0.3	0.5664	-0.197
Mof_Zn	Zn	0.41125	0.73656	0.01086	1.216
Mof_Zn	Zn	0.30822	0.7631	0.91254	1.217
Mof_O 	O 	0.4079	0.1958	0.5779	-0.468
Mof_O 	O 	0.3184	0.3039	0.3526	-0.474
Mof_O 	O 	0.326	0.8181	0.8497	-0.458
Mof_O 	O 	0.389	0.6855	0.0725	-0.456
Mof_O 	O 	0.3301	0.1755	0.5048	-0.458
Mof_O 	O 	0.3107	0.7039	0.9949	-0.46
Mof_O 	O 	0.4034	0.7952	0.9236	-0.48
Mof_O 	O 	0.396	0.3272	0.4268	-0.444
Mof_N 	N 	0.2358	0.771	0.84	-0.245
Mof_N 	N 	0.9837	0.7726	0.5842	-0.21
Mof_C 	C 	0.2085	0.7386	0.8571	0.06
Mof_H 	H 	0.2236	0.7132	0.9043	0.012
Mof_C 	C 	0.0829	0.777	0.6853	0.126
Mof_C 	C 	0.3726	0.1658	0.563	0.381
Mof_C 	C 	0.1363	0.7761	0.7389	0.014
Mof_C 	C 	0.3466	0.6761	0.0509	0.372
Mof_C 	C 	0.4018	0.5104	0.2644	-0.211
Mof_H 	H 	0.4208	0.5316	0.3187	0.084
Mof_H 	H 	0.4239	0.4911	0.2512	0.091
Mof_C 	C 	0.352	0.3348	0.3662	0.38
Mof_C 	C 	0.214	0.8053	0.7721	0.064
Mof_H 	H 	0.233	0.8279	0.7584	0.007
Mof_C 	C 	0.3192	0.9949	0.6653	-0.212
Mof_H 	H 	0.2985	0.015	0.6809	0.093
Mof_H 	H 	0.2988	0.9752	0.6101	0.093
Mof_C 	C 	0.3691	0.8244	0.8706	0.392
Mof_C 	C 	0.3676	0.5498	0.1932	0.071
Mof_C 	C 	0.3788	0.8729	0.829	-0.08
Mof_C 	C 	0.3763	0.5973	0.1588	-0.078
Mof_H 	H 	0.4083	0.6091	0.1795	0.072
Mof_C 	C 	0.3795	0.4195	0.3194	-0.052
Mof_H 	H 	0.4119	0.4094	0.3592	0.063
Mof_C 	C 	0.3817	0.1149	0.6187	-0.085
Mof_C 	C 	0.344	0.0835	0.6103	-0.056
Mof_H 	H 	0.3119	0.0944	0.5696	0.062
Mof_C 	C 	0.3521	0.9531	0.7332	0.056
Mof_C 	C 	0.3421	0.386	0.3114	-0.08
Mof_C 	C 	0.338	0.6277	0.0936	-0.051
Mof_C 	C 	0.3417	0.9043	0.765	-0.053
Mof_H 	H 	0.3094	0.893	0.7426	0.063
Mof_C 	C 	0.3197	0.5337	0.1645	-0.038
Mof_C 	C 	0.3997	0.9678	0.7638	-0.003
Mof_C 	C 	0.4283	0.1002	0.6792	0
Mof_H 	H 	0.454	0.1232	0.686	0.035
Mof_C 	C 	0.2948	0.4013	0.2538	0.009
Mof_H 	H 	0.2696	0.3777	0.2478	0.041
Mof_C 	C 	0.3532	0.0356	0.6619	0.058
Mof_C 	C 	0.1589	0.741	0.8082	-0.096
Mof_H 	H 	0.1405	0.7181	0.8231	0.065
Mof_C 	C 	0.4	0.02	0.7207	-0.006
Mof_C 	C 	0.3687	0.4679	0.2683	0.05
Mof_C 	C 	0.4263	0.8874	0.8584	0.005
Mof_H 	H 	0.4516	0.8648	0.9016	0.04
Mof_C 	C 	0.3204	0.4822	0.2096	0.014
Mof_C 	C 	0.4379	0.0524	0.7298	-0.072
Mof_H 	H 	0.4701	0.0418	0.7703	0.052
Mof_C 	C 	0.2838	0.4509	0.2049	-0.079
Mof_H 	H 	0.2514	0.4629	0.1689	0.06
Mof_C 	C 	0.2907	0.6135	0.0675	-0.045
Mof_H 	H 	0.2648	0.6365	0.0266	0.062
Mof_C 	C 	0.4372	0.9344	0.8252	-0.069
Mof_H 	H 	0.4695	0.9436	0.8442	0.055
Mof_C 	C 	0.0087	0.7976	0.5566	-0.022
Mof_C 	C 	0.1647	0.809	0.721	-0.1
Mof_H 	H 	0.1503	0.8343	0.6736	0.064
Mof_C 	C 	0.2817	0.5657	0.1018	0.011
Mof_C 	C 	0.0554	0.7677	0.7167	0.283
Mof_H 	H 	0.0701	0.762	0.7762	-0.055
Mof_C 	C 	0.0066	0.7661	0.6657	-0.196
Mof_H 	H 	0.9885	0.7599	0.6914	0.08
Mof_C 	C 	0.057	0.8182	0.6342	-0.811
Mof_H 	H 	0.0668	0.8573	0.6436	0.301
Mof_C 	C 	0.0584	0.726	0.683	-0.423
Mof_H 	H 	0.0752	0.6927	0.7146	0.168
Mof_C 	C 	0.0101	0.7274	0.635	0.208
Mof_C 	C 	0.0574	0.7931	0.5955	0.676
Mof_H 	H 	0.0735	0.8	0.5664	-0.196
_end
