data_functionalizedCrystal
_audit_creation_method	'EQeq! by Chris Wilmer'
_symmetry_space_group_name_H-M	'P1'
_symmetry_Int_Tables_number	1
_symmetry_cell_setting	triclinic
loop_
_symmetry_equiv_pos_as_xyz
  x,y,z
_cell_length_a	10.725
_cell_length_b	15.204
_cell_length_c	17.3541
_cell_angle_alpha	90
_cell_angle_beta	99.413
_cell_angle_gamma	90
loop_
_atom_site_label
_atom_site_type_symbol
_atom_site_fract_x
_atom_site_fract_y
_atom_site_fract_z
_atom_site_charge
Mof_Ba	Ba	0.17907	0.02779	0.44326	1.87
Mof_V 	V 	0.19038	0.40854	0.34275	1.788
Mof_O 	O 	0.0086	0.3762	0.3411	-0.682
Mof_O 	O 	0.8404	0.4006	0.3995	-0.469
Mof_O 	O 	0.1239	0.5125	0.4129	-0.469
Mof_O 	O 	0.9384	0.5671	0.4351	-0.275
Mof_O 	O 	0.0265	0.0741	0.1642	-0.581
Mof_O 	O 	0.1455	0.9685	0.1254	-0.593
Mof_O 	O 	0.2177	0.1065	0.2884	-0.414
Mof_O 	O 	0.3318	0.0044	0.2391	-0.465
Mof_O 	O 	0.2326	0.3473	0.4464	-0.619
Mof_O 	O 	0.1565	0.2121	0.4141	-0.484
Mof_O 	O 	0.2192	0.3288	0.2862	-0.67
Mof_O 	O 	0.0498	0.887	0.4994	-1.272
Mof_H 	H 	0.025	0.855	0.463	0.448
Mof_H 	H 	0.09	0.861	0.531	0.541
Mof_C 	C 	0.9432	0.4215	0.3824	0.46
Mof_C 	C 	0.0051	0.51	0.4127	0.068
Mof_C 	C 	0.1249	0.0313	0.1713	0.261
Mof_C 	C 	0.2334	0.0502	0.2399	0.19
Mof_C 	C 	0.2161	0.2656	0.4592	0.29
Mof_Ba	Ba	0.67907	0.52779	0.44326	1.958
Mof_V 	V 	0.69038	0.90854	0.34275	1.79
Mof_O 	O 	0.5086	0.8762	0.3411	-0.601
Mof_O 	O 	0.3404	0.9006	0.3995	-0.437
Mof_O 	O 	0.6239	0.0125	0.4129	-0.503
Mof_O 	O 	0.4384	0.0671	0.4351	-0.364
Mof_O 	O 	0.5265	0.5741	0.1642	-0.553
Mof_O 	O 	0.6455	0.4685	0.1254	-0.582
Mof_O 	O 	0.7177	0.6065	0.2884	-0.415
Mof_O 	O 	0.8318	0.5044	0.2391	-0.45
Mof_O 	O 	0.7326	0.8473	0.4464	-0.619
Mof_O 	O 	0.6565	0.7121	0.4141	-0.483
Mof_O 	O 	0.7192	0.8288	0.2862	-0.667
Mof_O 	O 	0.5498	0.387	0.4994	-1.26
Mof_H 	H 	0.525	0.355	0.463	0.47
Mof_H 	H 	0.59	0.361	0.531	0.548
Mof_C 	C 	0.4432	0.9215	0.3824	0.296
Mof_C 	C 	0.5051	0.01	0.4127	0.242
Mof_C 	C 	0.6249	0.5313	0.1713	0.266
Mof_C 	C 	0.7334	0.5502	0.2399	0.193
Mof_C 	C 	0.7161	0.7656	0.4592	0.3
Mof_Ba	Ba	0.82093	0.02779	0.05674	2.007
Mof_V 	V 	0.80962	0.40854	0.15725	1.79
Mof_O 	O 	0.9914	0.3762	0.1589	-0.49
Mof_O 	O 	0.1596	0.4006	0.1005	-0.4
Mof_O 	O 	0.8761	0.5125	0.0871	-0.534
Mof_O 	O 	0.0616	0.5671	0.0649	-0.464
Mof_O 	O 	0.9735	0.0741	0.3358	-0.494
Mof_O 	O 	0.8545	0.9685	0.3746	-0.562
Mof_O 	O 	0.7823	0.1065	0.2116	-0.402
Mof_O 	O 	0.6682	0.0044	0.2609	-0.468
Mof_O 	O 	0.7674	0.3473	0.0536	-0.615
Mof_O 	O 	0.8435	0.2121	0.0859	-0.456
Mof_O 	O 	0.7808	0.3288	0.2138	-0.655
Mof_O 	O 	0.9502	0.887	0.0006	-1.229
Mof_H 	H 	0.975	0.855	0.037	0.483
Mof_H 	H 	0.91	0.861	0.969	0.541
Mof_C 	C 	0.0568	0.4215	0.1176	0.119
Mof_C 	C 	0.9949	0.51	0.0873	0.42
Mof_C 	C 	0.8751	0.0313	0.3287	0.255
Mof_C 	C 	0.7666	0.0502	0.2601	0.203
Mof_C 	C 	0.7839	0.2656	0.0408	0.287
Mof_Ba	Ba	0.32093	0.52779	0.05674	1.93
Mof_V 	V 	0.30962	0.90854	0.15725	1.79
Mof_O 	O 	0.4914	0.8762	0.1589	-0.6
Mof_O 	O 	0.6596	0.9006	0.1005	-0.435
Mof_O 	O 	0.3761	0.0125	0.0871	-0.499
Mof_O 	O 	0.5616	0.0671	0.0649	-0.374
Mof_O 	O 	0.4735	0.5741	0.3358	-0.555
Mof_O 	O 	0.3545	0.4685	0.3746	-0.583
Mof_O 	O 	0.2823	0.6065	0.2116	-0.426
Mof_O 	O 	0.1682	0.5044	0.2609	-0.48
Mof_O 	O 	0.2674	0.8473	0.0536	-0.618
Mof_O 	O 	0.3435	0.7121	0.0859	-0.481
Mof_O 	O 	0.2808	0.8288	0.2138	-0.684
Mof_O 	O 	0.4502	0.387	0.0006	-1.264
Mof_H 	H 	0.475	0.355	0.037	0.467
Mof_H 	H 	0.41	0.361	0.969	0.545
Mof_C 	C 	0.5568	0.9215	0.1176	0.299
Mof_C 	C 	0.4949	0.01	0.0873	0.239
Mof_C 	C 	0.3751	0.5313	0.3287	0.261
Mof_C 	C 	0.2666	0.5502	0.2601	0.196
Mof_C 	C 	0.2839	0.7656	0.0408	0.292
Mof_Ba	Ba	0.82093	0.97221	0.55674	2.024
Mof_V 	V 	0.80962	0.59146	0.65725	1.79
Mof_O 	O 	0.9914	0.6238	0.6589	-0.491
Mof_O 	O 	0.1596	0.5994	0.6005	-0.4
Mof_O 	O 	0.8761	0.4875	0.5871	-0.534
Mof_O 	O 	0.0616	0.4329	0.5649	-0.463
Mof_O 	O 	0.9735	0.9259	0.8358	-0.493
Mof_O 	O 	0.8545	0.0315	0.8746	-0.559
Mof_O 	O 	0.7823	0.8935	0.7116	-0.403
Mof_O 	O 	0.6682	0.9956	0.7609	-0.468
Mof_O 	O 	0.7674	0.6527	0.5536	-0.615
Mof_O 	O 	0.8435	0.7879	0.5859	-0.457
Mof_O 	O 	0.7808	0.6712	0.7138	-0.655
Mof_O 	O 	0.9502	0.113	0.5006	-1.248
Mof_H 	H 	0.975	0.145	0.537	0.488
Mof_H 	H 	0.91	0.139	0.469	0.552
Mof_C 	C 	0.0568	0.5785	0.6176	0.121
Mof_C 	C 	0.9949	0.49	0.5873	0.419
Mof_C 	C 	0.8751	0.9687	0.8287	0.251
Mof_C 	C 	0.7666	0.9498	0.7601	0.204
Mof_C 	C 	0.7839	0.7344	0.5408	0.291
Mof_Ba	Ba	0.32093	0.47221	0.55674	1.931
Mof_V 	V 	0.30962	0.09146	0.65725	1.789
Mof_O 	O 	0.4914	0.1238	0.6589	-0.599
Mof_O 	O 	0.6596	0.0994	0.6005	-0.438
Mof_O 	O 	0.3761	0.9875	0.5871	-0.498
Mof_O 	O 	0.5616	0.9329	0.5649	-0.373
Mof_O 	O 	0.4735	0.4259	0.8358	-0.555
Mof_O 	O 	0.3545	0.5315	0.8746	-0.583
Mof_O 	O 	0.2823	0.3935	0.7116	-0.426
Mof_O 	O 	0.1682	0.4956	0.7609	-0.48
Mof_O 	O 	0.2674	0.1527	0.5536	-0.62
Mof_O 	O 	0.3435	0.2879	0.5859	-0.481
Mof_O 	O 	0.2808	0.1712	0.7138	-0.683
Mof_O 	O 	0.4502	0.613	0.5006	-1.255
Mof_H 	H 	0.475	0.645	0.537	0.465
Mof_H 	H 	0.41	0.639	0.469	0.539
Mof_C 	C 	0.5568	0.0785	0.6176	0.296
Mof_C 	C 	0.4949	0.99	0.5873	0.242
Mof_C 	C 	0.3751	0.4687	0.8287	0.261
Mof_C 	C 	0.2666	0.4498	0.7601	0.196
Mof_C 	C 	0.2839	0.2344	0.5408	0.29
Mof_Ba	Ba	0.17907	0.97221	0.94326	1.858
Mof_V 	V 	0.19038	0.59146	0.84275	1.789
Mof_O 	O 	0.0086	0.6238	0.8411	-0.679
Mof_O 	O 	0.8404	0.5994	0.8995	-0.467
Mof_O 	O 	0.1239	0.4875	0.9129	-0.469
Mof_O 	O 	0.9384	0.4329	0.9351	-0.277
Mof_O 	O 	0.0265	0.9259	0.6642	-0.582
Mof_O 	O 	0.1455	0.0315	0.6254	-0.596
Mof_O 	O 	0.2177	0.8935	0.7884	-0.414
Mof_O 	O 	0.3318	0.9956	0.7391	-0.465
Mof_O 	O 	0.2326	0.6527	0.9464	-0.618
Mof_O 	O 	0.1565	0.7879	0.9141	-0.483
Mof_O 	O 	0.2192	0.6712	0.7862	-0.67
Mof_O 	O 	0.0498	0.113	0.9994	-1.246
Mof_H 	H 	0.025	0.145	0.963	0.442
Mof_H 	H 	0.09	0.139	0.031	0.525
Mof_C 	C 	0.9432	0.5785	0.8824	0.456
Mof_C 	C 	0.0051	0.49	0.9127	0.072
Mof_C 	C 	0.1249	0.9687	0.6713	0.264
Mof_C 	C 	0.2334	0.9498	0.7399	0.189
Mof_C 	C 	0.2161	0.7344	0.9592	0.288
Mof_Ba	Ba	0.67907	0.47221	0.94326	1.96
Mof_V 	V 	0.69038	0.09146	0.84275	1.79
Mof_O 	O 	0.5086	0.1238	0.8411	-0.601
Mof_O 	O 	0.3404	0.0994	0.8995	-0.435
Mof_O 	O 	0.6239	0.9875	0.9129	-0.503
Mof_O 	O 	0.4384	0.9329	0.9351	-0.364
Mof_O 	O 	0.5265	0.4259	0.6642	-0.553
Mof_O 	O 	0.6455	0.5315	0.6254	-0.582
Mof_O 	O 	0.7177	0.3935	0.7884	-0.415
Mof_O 	O 	0.8318	0.4956	0.7391	-0.45
Mof_O 	O 	0.7326	0.1527	0.9464	-0.617
Mof_O 	O 	0.6565	0.2879	0.9141	-0.484
Mof_O 	O 	0.7192	0.1712	0.7862	-0.667
Mof_O 	O 	0.5498	0.613	0.9994	-1.263
Mof_H 	H 	0.525	0.645	0.963	0.471
Mof_H 	H 	0.59	0.639	0.031	0.55
Mof_C 	C 	0.4432	0.0785	0.8824	0.3
Mof_C 	C 	0.5051	0.99	0.9127	0.238
Mof_C 	C 	0.6249	0.4687	0.6713	0.266
Mof_C 	C 	0.7334	0.4498	0.7399	0.193
Mof_C 	C 	0.7161	0.2344	0.9592	0.303
Mof_Ba	Ba	1.01808e-17	0.22059	0.25	1.709
Mof_Ba	Ba	0.5	0.72059	0.25	1.873
Mof_Ba	Ba	4.07231e-17	0.77941	0.75	1.711
Mof_Ba	Ba	0.5	0.27941	0.75	1.873
_end
