data_functionalizedCrystal
_audit_creation_method	'EQeq! by Chris Wilmer'
_symmetry_space_group_name_H-M	'P1'
_symmetry_Int_Tables_number	1
_symmetry_cell_setting	triclinic
loop_
_symmetry_equiv_pos_as_xyz
  x,y,z
_cell_length_a	22.0306
_cell_length_b	22.0306
_cell_length_c	22.0306
_cell_angle_alpha	109.471
_cell_angle_beta	109.471
_cell_angle_gamma	109.471
loop_
_atom_site_label
_atom_site_type_symbol
_atom_site_fract_x
_atom_site_fract_y
_atom_site_fract_z
_atom_site_charge
Mof_Co	Co	0.4076	0.9076	0.5	1.144
Mof_Co	Co	0.5924	0.0924	0.5	1.14
Mof_Co	Co	0.5	0.5924	0.0924	1.14
Mof_Co	Co	0.5	0.4076	0.9076	1.144
Mof_Co	Co	0.9076	0.5	0.4076	1.144
Mof_Co	Co	0.0924	0.5	0.5924	1.14
Mof_Co	Co	0.0924	0.5924	0.5	1.139
Mof_Co	Co	0.9076	0.4076	0.5	1.143
Mof_Co	Co	0.4076	0.5	0.9076	1.143
Mof_Co	Co	0.5924	0.5	0.0924	1.139
Mof_Co	Co	0.5	0.0924	0.5924	1.139
Mof_Co	Co	0.5	0.9076	0.4076	1.143
Mof_H 	H 	0.801	0.5627	0.1121	0.01
Mof_H 	H 	0.9085	0.573	0.1071	0.095
Mof_H 	H 	0.4506	0.6889	0.8879	0.007
Mof_H 	H 	0.4659	0.8014	0.8929	0.087
Mof_H 	H 	0.5494	0.4373	0.2383	0.007
Mof_H 	H 	0.5341	0.427	0.3355	0.093
Mof_H 	H 	0.199	0.3111	0.7617	0.008
Mof_H 	H 	0.0915	0.1986	0.6645	0.09
Mof_H 	H 	0.2383	0.5494	0.4373	0.007
Mof_H 	H 	0.3355	0.5341	0.427	0.093
Mof_H 	H 	0.7617	0.199	0.3111	0.008
Mof_H 	H 	0.6645	0.0915	0.1986	0.09
Mof_H 	H 	0.1121	0.801	0.5627	0.01
Mof_H 	H 	0.1071	0.9085	0.573	0.095
Mof_H 	H 	0.8879	0.4506	0.6889	0.007
Mof_H 	H 	0.8929	0.4659	0.8014	0.087
Mof_H 	H 	0.6889	0.8879	0.4506	0.007
Mof_H 	H 	0.8014	0.8929	0.4659	0.087
Mof_H 	H 	0.5627	0.1121	0.801	0.01
Mof_H 	H 	0.573	0.1071	0.9085	0.095
Mof_H 	H 	0.3111	0.7617	0.199	0.008
Mof_H 	H 	0.1986	0.6645	0.0915	0.09
Mof_H 	H 	0.4373	0.2383	0.5494	0.007
Mof_H 	H 	0.427	0.3355	0.5341	0.093
Mof_H 	H 	0.4373	0.199	0.8879	0.005
Mof_H 	H 	0.427	0.0915	0.8929	0.084
Mof_H 	H 	0.3111	0.5494	0.1121	0.008
Mof_H 	H 	0.1986	0.5341	0.1071	0.09
Mof_H 	H 	0.5627	0.4506	0.7617	0.008
Mof_H 	H 	0.573	0.4659	0.6645	0.095
Mof_H 	H 	0.6889	0.801	0.2383	0.01
Mof_H 	H 	0.8014	0.9085	0.3355	0.096
Mof_H 	H 	0.4506	0.7617	0.5627	0.008
Mof_H 	H 	0.4659	0.6645	0.573	0.095
Mof_H 	H 	0.801	0.2383	0.6889	0.01
Mof_H 	H 	0.9085	0.3355	0.8014	0.096
Mof_H 	H 	0.199	0.8879	0.4373	0.005
Mof_H 	H 	0.0915	0.8929	0.427	0.084
Mof_H 	H 	0.5494	0.1121	0.3111	0.008
Mof_H 	H 	0.5341	0.1071	0.1986	0.09
Mof_H 	H 	0.1121	0.3111	0.5494	0.008
Mof_H 	H 	0.1071	0.1986	0.5341	0.09
Mof_H 	H 	0.8879	0.4373	0.199	0.005
Mof_H 	H 	0.8929	0.427	0.0915	0.084
Mof_H 	H 	0.2383	0.6889	0.801	0.01
Mof_H 	H 	0.3355	0.8014	0.9085	0.096
Mof_H 	H 	0.7617	0.5627	0.4506	0.008
Mof_H 	H 	0.6645	0.573	0.4659	0.095
Mof_H 	H 	0.199	0.4373	0.8879	0.005
Mof_H 	H 	0.0915	0.427	0.8929	0.084
Mof_H 	H 	0.5494	0.3111	0.1121	0.008
Mof_H 	H 	0.5341	0.1986	0.1071	0.09
Mof_H 	H 	0.4506	0.5627	0.7617	0.008
Mof_H 	H 	0.4659	0.573	0.6645	0.095
Mof_H 	H 	0.801	0.6889	0.2383	0.01
Mof_H 	H 	0.9085	0.8014	0.3355	0.096
Mof_H 	H 	0.7617	0.4506	0.5627	0.008
Mof_H 	H 	0.6645	0.4659	0.573	0.095
Mof_H 	H 	0.2383	0.801	0.6889	0.01
Mof_H 	H 	0.3355	0.9085	0.8014	0.096
Mof_H 	H 	0.8879	0.199	0.4373	0.005
Mof_H 	H 	0.8929	0.0915	0.427	0.084
Mof_H 	H 	0.1121	0.5494	0.3111	0.008
Mof_H 	H 	0.1071	0.5341	0.1986	0.09
Mof_H 	H 	0.3111	0.1121	0.5494	0.008
Mof_H 	H 	0.1986	0.1071	0.5341	0.09
Mof_H 	H 	0.4373	0.8879	0.199	0.005
Mof_H 	H 	0.427	0.8929	0.0915	0.084
Mof_H 	H 	0.6889	0.2383	0.801	0.01
Mof_H 	H 	0.8014	0.3355	0.9085	0.096
Mof_H 	H 	0.5627	0.7617	0.4506	0.008
Mof_H 	H 	0.573	0.6645	0.4659	0.095
Mof_H 	H 	0.5627	0.801	0.1121	0.01
Mof_H 	H 	0.573	0.9085	0.1071	0.095
Mof_H 	H 	0.6889	0.4506	0.8879	0.007
Mof_H 	H 	0.8014	0.4659	0.8929	0.087
Mof_H 	H 	0.4373	0.5494	0.2383	0.007
Mof_H 	H 	0.427	0.5341	0.3355	0.093
Mof_H 	H 	0.3111	0.199	0.7617	0.008
Mof_H 	H 	0.1986	0.0915	0.6645	0.09
Mof_H 	H 	0.5494	0.2383	0.4373	0.007
Mof_H 	H 	0.5341	0.3355	0.427	0.093
Mof_H 	H 	0.199	0.7617	0.3111	0.008
Mof_H 	H 	0.0915	0.6645	0.1986	0.09
Mof_H 	H 	0.801	0.1121	0.5627	0.01
Mof_H 	H 	0.9085	0.1071	0.573	0.095
Mof_H 	H 	0.4506	0.8879	0.6889	0.007
Mof_H 	H 	0.4659	0.8929	0.8014	0.087
Mof_H 	H 	0.8879	0.6889	0.4506	0.007
Mof_H 	H 	0.8929	0.8014	0.4659	0.087
Mof_H 	H 	0.1121	0.5627	0.801	0.01
Mof_H 	H 	0.1071	0.573	0.9085	0.095
Mof_H 	H 	0.7617	0.3111	0.199	0.008
Mof_H 	H 	0.6645	0.1986	0.0915	0.09
Mof_H 	H 	0.2383	0.4373	0.5494	0.007
Mof_H 	H 	0.3355	0.427	0.5341	0.093
Mof_C 	C 	0.8002	0.5437	0.0671	0.107
Mof_C 	C 	0.8652	0.5547	0.0637	-0.141
Mof_C 	C 	0.4766	0.7331	0.9329	0.124
Mof_C 	C 	0.491	0.8015	0.9363	-0.121
Mof_C 	C 	0.5234	0.4563	0.2565	0.111
Mof_C 	C 	0.509	0.4453	0.3105	-0.153
Mof_C 	C 	0.1998	0.2669	0.7435	0.109
Mof_C 	C 	0.1348	0.1985	0.6895	-0.151
Mof_C 	C 	0.2565	0.5234	0.4563	0.111
Mof_C 	C 	0.3105	0.509	0.4453	-0.153
Mof_C 	C 	0.7435	0.1998	0.2669	0.109
Mof_C 	C 	0.6895	0.1348	0.1985	-0.151
Mof_C 	C 	0.0671	0.8002	0.5437	0.107
Mof_C 	C 	0.0637	0.8652	0.5547	-0.141
Mof_C 	C 	0.9329	0.4766	0.7331	0.124
Mof_C 	C 	0.9363	0.491	0.8015	-0.121
Mof_C 	C 	0.7331	0.9329	0.4766	0.124
Mof_C 	C 	0.8015	0.9363	0.491	-0.121
Mof_C 	C 	0.5437	0.0671	0.8002	0.107
Mof_C 	C 	0.5547	0.0637	0.8652	-0.141
Mof_C 	C 	0.2669	0.7435	0.1998	0.109
Mof_C 	C 	0.1985	0.6895	0.1348	-0.151
Mof_C 	C 	0.4563	0.2565	0.5234	0.111
Mof_C 	C 	0.4453	0.3105	0.509	-0.153
Mof_C 	C 	0.4563	0.1998	0.9329	0.124
Mof_C 	C 	0.4453	0.1348	0.9363	-0.125
Mof_C 	C 	0.2669	0.5234	0.0671	0.107
Mof_C 	C 	0.1985	0.509	0.0637	-0.146
Mof_C 	C 	0.5437	0.4766	0.7435	0.113
Mof_C 	C 	0.5547	0.491	0.6895	-0.152
Mof_C 	C 	0.7331	0.8002	0.2565	0.107
Mof_C 	C 	0.8015	0.8652	0.3105	-0.143
Mof_C 	C 	0.4766	0.7435	0.5437	0.113
Mof_C 	C 	0.491	0.6895	0.5547	-0.152
Mof_C 	C 	0.8002	0.2565	0.7331	0.107
Mof_C 	C 	0.8652	0.3105	0.8015	-0.143
Mof_C 	C 	0.1998	0.9329	0.4563	0.124
Mof_C 	C 	0.1348	0.9363	0.4453	-0.125
Mof_C 	C 	0.5234	0.0671	0.2669	0.107
Mof_C 	C 	0.509	0.0637	0.1985	-0.146
Mof_C 	C 	0.0671	0.2669	0.5234	0.107
Mof_C 	C 	0.0637	0.1985	0.509	-0.146
Mof_C 	C 	0.9329	0.4563	0.1998	0.124
Mof_C 	C 	0.9363	0.4453	0.1348	-0.125
Mof_C 	C 	0.2565	0.7331	0.8002	0.107
Mof_C 	C 	0.3105	0.8015	0.8652	-0.143
Mof_C 	C 	0.7435	0.5437	0.4766	0.113
Mof_C 	C 	0.6895	0.5547	0.491	-0.152
Mof_C 	C 	0.1998	0.4563	0.9329	0.124
Mof_C 	C 	0.1348	0.4453	0.9363	-0.125
Mof_C 	C 	0.5234	0.2669	0.0671	0.107
Mof_C 	C 	0.509	0.1985	0.0637	-0.146
Mof_C 	C 	0.4766	0.5437	0.7435	0.113
Mof_C 	C 	0.491	0.5547	0.6895	-0.152
Mof_C 	C 	0.8002	0.7331	0.2565	0.107
Mof_C 	C 	0.8652	0.8015	0.3105	-0.143
Mof_C 	C 	0.7435	0.4766	0.5437	0.113
Mof_C 	C 	0.6895	0.491	0.5547	-0.152
Mof_C 	C 	0.2565	0.8002	0.7331	0.107
Mof_C 	C 	0.3105	0.8652	0.8015	-0.143
Mof_C 	C 	0.9329	0.1998	0.4563	0.124
Mof_C 	C 	0.9363	0.1348	0.4453	-0.125
Mof_C 	C 	0.0671	0.5234	0.2669	0.107
Mof_C 	C 	0.0637	0.509	0.1985	-0.146
Mof_C 	C 	0.2669	0.0671	0.5234	0.107
Mof_C 	C 	0.1985	0.0637	0.509	-0.146
Mof_C 	C 	0.4563	0.9329	0.1998	0.124
Mof_C 	C 	0.4453	0.9363	0.1348	-0.125
Mof_C 	C 	0.7331	0.2565	0.8002	0.107
Mof_C 	C 	0.8015	0.3105	0.8652	-0.143
Mof_C 	C 	0.5437	0.7435	0.4766	0.113
Mof_C 	C 	0.5547	0.6895	0.491	-0.152
Mof_C 	C 	0.5437	0.8002	0.0671	0.107
Mof_C 	C 	0.5547	0.8652	0.0637	-0.141
Mof_C 	C 	0.7331	0.4766	0.9329	0.124
Mof_C 	C 	0.8015	0.491	0.9363	-0.121
Mof_C 	C 	0.4563	0.5234	0.2565	0.111
Mof_C 	C 	0.4453	0.509	0.3105	-0.153
Mof_C 	C 	0.2669	0.1998	0.7435	0.109
Mof_C 	C 	0.1985	0.1348	0.6895	-0.151
Mof_C 	C 	0.5234	0.2565	0.4563	0.111
Mof_C 	C 	0.509	0.3105	0.4453	-0.153
Mof_C 	C 	0.1998	0.7435	0.2669	0.109
Mof_C 	C 	0.1348	0.6895	0.1985	-0.151
Mof_C 	C 	0.8002	0.0671	0.5437	0.107
Mof_C 	C 	0.8652	0.0637	0.5547	-0.141
Mof_C 	C 	0.4766	0.9329	0.7331	0.124
Mof_C 	C 	0.491	0.9363	0.8015	-0.121
Mof_C 	C 	0.9329	0.7331	0.4766	0.124
Mof_C 	C 	0.9363	0.8015	0.491	-0.121
Mof_C 	C 	0.0671	0.5437	0.8002	0.107
Mof_C 	C 	0.0637	0.5547	0.8652	-0.141
Mof_C 	C 	0.7435	0.2669	0.1998	0.109
Mof_C 	C 	0.6895	0.1985	0.1348	-0.151
Mof_C 	C 	0.2565	0.4563	0.5234	0.111
Mof_C 	C 	0.3105	0.4453	0.509	-0.153
Mof_C 	C 	0.664	0.48	-0	0.522
Mof_C 	C 	0.7351	0.5031	-0	-0.232
Mof_C 	C 	0.8676	0.5398	-0	0.052
Mof_C 	C 	0.9384	0.557	-0	0.11
Mof_C 	C 	0.48	0.664	-0	0.522
Mof_C 	C 	0.5031	0.7351	-0	-0.232
Mof_C 	C 	0.5398	0.8676	-0	0.052
Mof_C 	C 	0.557	0.9384	-0	0.11
Mof_C 	C 	0.52	0.52	0.184	0.548
Mof_C 	C 	0.4969	0.4969	0.232	-0.222
Mof_C 	C 	0.4602	0.4602	0.3278	0.079
Mof_C 	C 	0.443	0.443	0.3814	0.101
Mof_C 	C 	0.336	0.336	0.816	0.548
Mof_C 	C 	0.2649	0.2649	0.768	-0.219
Mof_C 	C 	0.1324	0.1324	0.6722	0.077
Mof_C 	C 	0.0616	0.0616	0.6186	0.098
Mof_C 	C 	0.184	0.52	0.52	0.548
Mof_C 	C 	0.232	0.4969	0.4969	-0.222
Mof_C 	C 	0.3278	0.4602	0.4602	0.079
Mof_C 	C 	0.3814	0.443	0.443	0.101
Mof_C 	C 	0.816	0.336	0.336	0.548
Mof_C 	C 	0.768	0.2649	0.2649	-0.219
Mof_C 	C 	0.6722	0.1324	0.1324	0.077
Mof_C 	C 	0.6186	0.0616	0.0616	0.098
Mof_C 	C 	-1.38118e-17	0.664	0.48	0.522
Mof_C 	C 	-0	0.7351	0.5031	-0.232
Mof_C 	C 	1.38118e-17	0.8676	0.5398	0.052
Mof_C 	C 	-2.76236e-17	0.9384	0.557	0.11
Mof_C 	C 	1.38118e-17	0.48	0.664	0.522
Mof_C 	C 	1.38118e-17	0.5031	0.7351	-0.232
Mof_C 	C 	-0	0.5398	0.8676	0.052
Mof_C 	C 	-0	0.557	0.9384	0.11
Mof_C 	C 	0.664	2.76236e-17	0.48	0.522
Mof_C 	C 	0.7351	0	0.5031	-0.232
Mof_C 	C 	0.8676	-5.52471e-17	0.5398	0.052
Mof_C 	C 	0.9384	-5.52471e-17	0.557	0.11
Mof_C 	C 	0.48	0	0.664	0.522
Mof_C 	C 	0.5031	0	0.7351	-0.232
Mof_C 	C 	0.5398	0	0.8676	0.052
Mof_C 	C 	0.557	5.52471e-17	0.9384	0.11
Mof_C 	C 	0.336	0.816	0.336	0.548
Mof_C 	C 	0.2649	0.768	0.2649	-0.219
Mof_C 	C 	0.1324	0.6722	0.1324	0.077
Mof_C 	C 	0.0616	0.6186	0.0616	0.098
Mof_C 	C 	0.52	0.184	0.52	0.548
Mof_C 	C 	0.4969	0.232	0.4969	-0.222
Mof_C 	C 	0.4602	0.3278	0.4602	0.079
Mof_C 	C 	0.443	0.3814	0.443	0.101
Mof_C 	C 	0.52	0.336	-0	0.522
Mof_C 	C 	0.4969	0.2649	-0	-0.234
Mof_C 	C 	0.4602	0.1324	-0	0.054
Mof_C 	C 	0.443	0.0616	-0	0.088
Mof_C 	C 	0.336	0.52	-0	0.522
Mof_C 	C 	0.2649	0.4969	-0	-0.234
Mof_C 	C 	0.1324	0.4602	-0	0.054
Mof_C 	C 	0.0616	0.443	-0	0.088
Mof_C 	C 	0.48	0.48	0.816	0.549
Mof_C 	C 	0.5031	0.5031	0.768	-0.22
Mof_C 	C 	0.5398	0.5398	0.6722	0.082
Mof_C 	C 	0.557	0.557	0.6186	0.103
Mof_C 	C 	0.664	0.664	0.184	0.547
Mof_C 	C 	0.7351	0.7351	0.232	-0.217
Mof_C 	C 	0.8676	0.8676	0.3278	0.071
Mof_C 	C 	0.9384	0.9384	0.3814	0.141
Mof_C 	C 	0.48	0.816	0.48	0.549
Mof_C 	C 	0.5031	0.768	0.5031	-0.22
Mof_C 	C 	0.5398	0.6722	0.5398	0.082
Mof_C 	C 	0.557	0.6186	0.557	0.103
Mof_C 	C 	0.664	0.184	0.664	0.547
Mof_C 	C 	0.7351	0.232	0.7351	-0.217
Mof_C 	C 	0.8676	0.3278	0.8676	0.071
Mof_C 	C 	0.9384	0.3814	0.9384	0.141
Mof_C 	C 	0.336	0	0.52	0.522
Mof_C 	C 	0.2649	0	0.4969	-0.234
Mof_C 	C 	0.1324	0	0.4602	0.054
Mof_C 	C 	0.0616	0	0.443	0.088
Mof_C 	C 	0.52	0	0.336	0.522
Mof_C 	C 	0.4969	-2.76236e-17	0.2649	-0.234
Mof_C 	C 	0.4602	0	0.1324	0.054
Mof_C 	C 	0.443	3.45294e-18	0.0616	0.088
Mof_C 	C 	-2.76236e-17	0.336	0.52	0.522
Mof_C 	C 	-4.14353e-17	0.2649	0.4969	-0.234
Mof_C 	C 	-4.14353e-17	0.1324	0.4602	0.054
Mof_C 	C 	2.76236e-17	0.0616	0.443	0.088
Mof_C 	C 	-0	0.52	0.336	0.522
Mof_C 	C 	-4.83412e-17	0.4969	0.2649	-0.234
Mof_C 	C 	-3.45294e-18	0.4602	0.1324	0.054
Mof_C 	C 	1.55382e-17	0.443	0.0616	0.088
Mof_C 	C 	0.184	0.664	0.664	0.547
Mof_C 	C 	0.232	0.7351	0.7351	-0.217
Mof_C 	C 	0.3278	0.8676	0.8676	0.071
Mof_C 	C 	0.3814	0.9384	0.9384	0.141
Mof_C 	C 	0.816	0.48	0.48	0.549
Mof_C 	C 	0.768	0.5031	0.5031	-0.22
Mof_C 	C 	0.6722	0.5398	0.5398	0.082
Mof_C 	C 	0.6186	0.557	0.557	0.103
Mof_N 	N 	-1.03588e-17	0.6011	0.0647	-0.154
Mof_N 	N 	0.5364	0.9353	0.9353	-0.126
Mof_N 	N 	0.4636	0.3989	0.3989	-0.142
Mof_N 	N 	2.76236e-17	0.0647	0.6011	-0.154
Mof_N 	N 	0.3989	0.4636	0.3989	-0.142
Mof_N 	N 	0.6011	0	0.0647	-0.154
Mof_N 	N 	0.0647	0	0.6011	-0.154
Mof_N 	N 	0.9353	0.5364	0.9353	-0.126
Mof_N 	N 	0.9353	0.9353	0.5364	-0.126
Mof_N 	N 	0.6011	0.0647	-0	-0.154
Mof_N 	N 	0.0647	0.6011	-0	-0.154
Mof_N 	N 	0.3989	0.3989	0.4636	-0.142
Mof_N 	N 	0.3989	5.52471e-17	0.9353	-0.148
Mof_N 	N 	0.0647	0.4636	0.0647	-0.141
Mof_N 	N 	0.6011	0.5364	0.6011	-0.141
Mof_N 	N 	0.9353	0	0.3989	-0.148
Mof_N 	N 	0.5364	0.6011	0.6011	-0.141
Mof_N 	N 	2.76236e-17	0.3989	0.9353	-0.148
Mof_N 	N 	-0	0.9353	0.3989	-0.148
Mof_N 	N 	0.4636	0.0647	0.0647	-0.141
Mof_N 	N 	0.0647	0.0647	0.4636	-0.141
Mof_N 	N 	0.9353	0.3989	-0	-0.148
Mof_N 	N 	0.3989	0.9353	-0	-0.148
Mof_N 	N 	0.6011	0.6011	0.5364	-0.141
Mof_O 	O 	0.663	0.4992	0.0568	-0.525
Mof_O 	O 	0.4424	0.6062	0.9432	-0.508
Mof_O 	O 	0.5576	0.5008	0.1638	-0.531
Mof_O 	O 	0.337	0.3938	0.8362	-0.528
Mof_O 	O 	0.1638	0.5576	0.5008	-0.531
Mof_O 	O 	0.8362	0.337	0.3938	-0.528
Mof_O 	O 	0.0568	0.663	0.4992	-0.525
Mof_O 	O 	0.9432	0.4424	0.6062	-0.508
Mof_O 	O 	0.6062	0.9432	0.4424	-0.508
Mof_O 	O 	0.4992	0.0568	0.663	-0.525
Mof_O 	O 	0.3938	0.8362	0.337	-0.528
Mof_O 	O 	0.5008	0.1638	0.5576	-0.531
Mof_O 	O 	0.5008	0.337	0.9432	-0.508
Mof_O 	O 	0.3938	0.5576	0.0568	-0.526
Mof_O 	O 	0.4992	0.4424	0.8362	-0.528
Mof_O 	O 	0.6062	0.663	0.1638	-0.53
Mof_O 	O 	0.4424	0.8362	0.4992	-0.528
Mof_O 	O 	0.663	0.1638	0.6062	-0.53
Mof_O 	O 	0.337	0.9432	0.5008	-0.508
Mof_O 	O 	0.5576	0.0568	0.3938	-0.526
Mof_O 	O 	0.0568	0.3938	0.5576	-0.526
Mof_O 	O 	0.9432	0.5008	0.337	-0.508
Mof_O 	O 	0.1638	0.6062	0.663	-0.53
Mof_O 	O 	0.8362	0.4992	0.4424	-0.528
Mof_O 	O 	0.337	0.5008	0.9432	-0.508
Mof_O 	O 	0.5576	0.3938	0.0568	-0.526
Mof_O 	O 	0.4424	0.4992	0.8362	-0.528
Mof_O 	O 	0.663	0.6062	0.1638	-0.53
Mof_O 	O 	0.8362	0.4424	0.4992	-0.528
Mof_O 	O 	0.1638	0.663	0.6062	-0.53
Mof_O 	O 	0.9432	0.337	0.5008	-0.508
Mof_O 	O 	0.0568	0.5576	0.3938	-0.526
Mof_O 	O 	0.3938	0.0568	0.5576	-0.526
Mof_O 	O 	0.5008	0.9432	0.337	-0.508
Mof_O 	O 	0.6062	0.1638	0.663	-0.53
Mof_O 	O 	0.4992	0.8362	0.4424	-0.528
Mof_O 	O 	0.4992	0.663	0.0568	-0.525
Mof_O 	O 	0.6062	0.4424	0.9432	-0.508
Mof_O 	O 	0.5008	0.5576	0.1638	-0.531
Mof_O 	O 	0.3938	0.337	0.8362	-0.528
Mof_O 	O 	0.5576	0.1638	0.5008	-0.531
Mof_O 	O 	0.337	0.8362	0.3938	-0.528
Mof_O 	O 	0.663	0.0568	0.4992	-0.525
Mof_O 	O 	0.4424	0.9432	0.6062	-0.508
Mof_O 	O 	0.9432	0.6062	0.4424	-0.508
Mof_O 	O 	0.0568	0.4992	0.663	-0.525
Mof_O 	O 	0.8362	0.3938	0.337	-0.528
Mof_O 	O 	0.1638	0.5008	0.5576	-0.531
_end
