data_functionalizedCrystal
_audit_creation_method	'EQeq! by Chris Wilmer'
_symmetry_space_group_name_H-M	'P1'
_symmetry_Int_Tables_number	1
_symmetry_cell_setting	triclinic
loop_
_symmetry_equiv_pos_as_xyz
  x,y,z
_cell_length_a	9.6103
_cell_length_b	9.6103
_cell_length_c	6.9723
_cell_angle_alpha	90
_cell_angle_beta	90
_cell_angle_gamma	120
loop_
_atom_site_label
_atom_site_type_symbol
_atom_site_fract_x
_atom_site_fract_y
_atom_site_fract_z
_atom_site_charge
Mof_Ni	Ni	-0	0	-0	1.164
Mof_N 	N 	-5.65822e-33	0	0.3005	-0.183
Mof_N 	N 	5.65822e-33	0	0.6995	-0.178
Mof_O 	O 	0.7629	0	-0	-0.45
Mof_O 	O 	-0	0.7629	-0	-0.45
Mof_O 	O 	0.2371	0.2371	-0	-0.435
Mof_O 	O 	0.2371	0	-0	-0.432
Mof_O 	O 	-0	0.2371	-0	-0.432
Mof_O 	O 	0.7629	0.7629	-0	-0.491
Mof_C 	C 	0.7467	0.2533	-0	-0.114
Mof_C 	C 	0.8296	0.1704	-0	-0.006
Mof_O 	O 	0.8819	0.1181	-0	-0.065
Mof_C 	C 	0.7467	0.4934	-0	-0.117
Mof_C 	C 	0.8296	0.6592	-0	-0.028
Mof_O 	O 	0.8819	0.7638	-0	-0.041
Mof_C 	C 	0.5066	0.2533	-0	-0.1
Mof_C 	C 	0.3408	0.1704	-0	0.019
Mof_O 	O 	0.2362	0.1181	-0	-0.075
Mof_C 	C 	0.2533	0.7467	-0	-0.114
Mof_C 	C 	0.1704	0.8296	-0	-0.006
Mof_O 	O 	0.1181	0.8819	-0	-0.065
Mof_C 	C 	0.2533	0.5066	-0	-0.1
Mof_C 	C 	0.1704	0.3408	-0	0.019
Mof_O 	O 	0.1181	0.2362	-0	-0.075
Mof_C 	C 	0.4934	0.7467	-0	-0.117
Mof_C 	C 	0.6592	0.8296	-0	-0.028
Mof_O 	O 	0.7638	0.8819	-0	-0.041
Mof_C 	C 	0.5824	0.1648	-0	0.016
Mof_H 	H 	0.52535	0.0507	-0	-0.002
Mof_C 	C 	0.8352	0.4176	-0	0.026
Mof_H 	H 	0.9493	0.47465	-0	-0.023
Mof_C 	C 	0.5824	0.4176	-0	0.014
Mof_H 	H 	0.52535	0.47465	-0	-0.013
Mof_C 	C 	0.4176	0.8352	-0	0.026
Mof_H 	H 	0.47465	0.9493	-0	-0.023
Mof_C 	C 	0.1648	0.5824	-0	0.016
Mof_H 	H 	0.0507	0.52535	-0	-0.002
Mof_C 	C 	0.4176	0.5824	-0	0.014
Mof_H 	H 	0.47465	0.52535	-0	-0.013
Mof_C 	C 	0.0695	0.139	0.401	0.009
Mof_C 	C 	0.861	0.9305	0.401	0.016
Mof_C 	C 	0.0695	0.9305	0.401	0.034
Mof_C 	C 	0.9305	0.861	0.401	0.016
Mof_C 	C 	0.139	0.0695	0.401	0.009
Mof_C 	C 	0.9305	0.0695	0.401	0.034
Mof_C 	C 	0.139	0.0695	0.599	0.011
Mof_C 	C 	0.9305	0.861	0.599	0.018
Mof_C 	C 	0.9305	0.0695	0.599	0.036
Mof_C 	C 	0.861	0.9305	0.599	0.018
Mof_C 	C 	0.0695	0.139	0.599	0.011
Mof_C 	C 	0.0695	0.9305	0.599	0.036
Mof_C 	C 	0.6573	0.1852	-0	-0.003
Mof_C 	C 	0.7197	0.0702	-0	0.246
Mof_C 	C 	0.8148	0.4721	-0	-0.002
Mof_C 	C 	0.9298	0.6495	-0	0.225
Mof_C 	C 	0.5279	0.3427	-0	-0.011
Mof_C 	C 	0.3505	0.2803	-0	0.22
Mof_C 	C 	0.3427	0.8148	-0	-0.01
Mof_C 	C 	0.2803	0.9298	-0	0.224
Mof_C 	C 	0.1852	0.5279	-0	-0.016
Mof_C 	C 	0.0702	0.3505	-0	0.223
Mof_C 	C 	0.4721	0.6573	-0	-0.003
Mof_C 	C 	0.6495	0.7197	-0	0.259
Mof_C 	C 	0.1852	0.6573	-0	-0.003
Mof_C 	C 	0.0702	0.7197	-0	0.246
Mof_C 	C 	0.4721	0.8148	-0	-0.002
Mof_C 	C 	0.6495	0.9298	-0	0.225
Mof_C 	C 	0.3427	0.5279	-0	-0.011
Mof_C 	C 	0.2803	0.3505	-0	0.22
Mof_C 	C 	0.8148	0.3427	-0	-0.01
Mof_C 	C 	0.9298	0.2803	-0	0.224
Mof_C 	C 	0.5279	0.1852	-0	-0.016
Mof_C 	C 	0.3505	0.0702	-0	0.223
Mof_C 	C 	0.6573	0.4721	-0	-0.003
Mof_C 	C 	0.7197	0.6495	-0	0.259
Mof_C 	C 	0.118	0.118	0.401	0.027
Mof_C 	C 	0.882	0	0.401	0.003
Mof_C 	C 	-8.6593e-17	0.882	0.401	0.003
Mof_C 	C 	0.882	0.882	0.401	-0.024
Mof_C 	C 	0.118	0	0.401	-0.019
Mof_C 	C 	2.5953e-18	0.118	0.401	-0.019
Mof_C 	C 	0.118	0.118	0.599	0.031
Mof_C 	C 	-1.04185e-16	0.882	0.599	0.005
Mof_C 	C 	0.882	1.13164e-32	0.599	0.005
Mof_C 	C 	0.882	0.882	0.599	-0.023
Mof_C 	C 	-2.25552e-18	0.118	0.599	-0.018
Mof_C 	C 	0.118	1.13164e-32	0.599	-0.018
_end
