data_functionalizedCrystal
_audit_creation_method	'EQeq! by Chris Wilmer'
_symmetry_space_group_name_H-M	'P1'
_symmetry_Int_Tables_number	1
_symmetry_cell_setting	triclinic
loop_
_symmetry_equiv_pos_as_xyz
  x,y,z
_cell_length_a	7.799
_cell_length_b	9.212
_cell_length_c	10.784
_cell_angle_alpha	107.595
_cell_angle_beta	92.877
_cell_angle_gamma	110.248
loop_
_atom_site_label
_atom_site_type_symbol
_atom_site_fract_x
_atom_site_fract_y
_atom_site_fract_z
_atom_site_charge
Mof_Co	Co	0.34848	0.85916	0.87049	1.208
Mof_Co	Co	0.65152	0.14084	0.12951	1.121
Mof_Co	Co	-0	0	-0	1.077
Mof_H 	H 	0.6765	0.0184	0.5883	0.066
Mof_H 	H 	0.878	0.1458	0.643	0.105
Mof_H 	H 	0.8235	0.478	0.5693	0.103
Mof_H 	H 	0.9687	0.4281	0.6311	0.114
Mof_H 	H 	0.9351	0.3922	0.8622	0.133
Mof_H 	H 	0.7613	0.4073	0.92	0.107
Mof_H 	H 	0.1566	0.0036	0.7841	0.217
Mof_H 	H 	0.3033	0.1366	0.9042	0.218
Mof_H 	H 	0.3235	0.9816	0.4117	0.124
Mof_H 	H 	0.122	0.8542	0.357	0.101
Mof_H 	H 	0.1765	0.522	0.4307	0.068
Mof_H 	H 	0.0313	0.5719	0.3689	0.061
Mof_H 	H 	0.0649	0.6078	0.1378	0.036
Mof_H 	H 	0.2387	0.5927	0.08	0.019
Mof_H 	H 	0.8434	0.9964	0.2159	0.299
Mof_H 	H 	0.6967	0.8634	0.0958	0.189
Mof_C 	C 	0.6984	0.188	0.7687	-0.036
Mof_C 	C 	0.7509	0.1314	0.6328	-0.152
Mof_C 	C 	0.7183	0.2332	0.552	-0.017
Mof_C 	C 	0.8423	0.4157	0.621	-0.169
Mof_C 	C 	0.7917	0.4785	0.7576	-0.013
Mof_C 	C 	0.8079	0.3739	0.8409	-0.177
Mof_C 	C 	0.7401	0.1006	0.8581	0.34
Mof_C 	C 	0.749	0.1741	0.4106	0.31
Mof_C 	C 	0.9232	0.6557	0.8319	0.421
Mof_C 	C 	0.3016	0.812	0.2313	-0.04
Mof_C 	C 	0.2491	0.8686	0.3672	-0.164
Mof_C 	C 	0.2817	0.7668	0.448	0.007
Mof_C 	C 	0.1577	0.5843	0.379	-0.141
Mof_C 	C 	0.2083	0.5215	0.2424	-0.034
Mof_C 	C 	0.1921	0.6261	0.1591	-0.105
Mof_C 	C 	0.2599	0.8994	0.1419	0.359
Mof_C 	C 	0.251	0.8259	0.5894	0.305
Mof_C 	C 	0.0768	0.3443	0.1681	0.272
Mof_O 	O 	0.8959	0.0928	0.8705	-0.355
Mof_O 	O 	0.6156	0.047	0.9238	-0.549
Mof_O 	O 	0.8695	0.1139	0.3835	-0.317
Mof_O 	O 	0.6481	0.1911	0.3254	-0.444
Mof_O 	O 	0.8539	0.7622	0.8785	-0.351
Mof_O 	O 	0.0932	0.682	0.8467	-0.479
Mof_O 	O 	0.2139	0.027	0.8715	-0.684
Mof_O 	O 	0.1041	0.9072	0.1295	-0.42
Mof_O 	O 	0.3844	0.953	0.0762	-0.557
Mof_O 	O 	0.1305	0.8861	0.6165	-0.275
Mof_O 	O 	0.3519	0.8089	0.6746	-0.391
Mof_O 	O 	0.1461	0.2378	0.1215	-0.468
Mof_O 	O 	0.9068	0.318	0.1533	-0.411
Mof_O 	O 	0.7861	0.973	0.1285	-0.631
_end
