data_functionalizedCrystal
_audit_creation_method	'EQeq! by Chris Wilmer'
_symmetry_space_group_name_H-M	'P1'
_symmetry_Int_Tables_number	1
_symmetry_cell_setting	triclinic
loop_
_symmetry_equiv_pos_as_xyz
  x,y,z
_cell_length_a	6.5619
_cell_length_b	6.9442
_cell_length_c	7.7412
_cell_angle_alpha	111.369
_cell_angle_beta	95.495
_cell_angle_gamma	90.824
loop_
_atom_site_label
_atom_site_type_symbol
_atom_site_fract_x
_atom_site_fract_y
_atom_site_fract_z
_atom_site_charge
Mof_Eu	Eu	0.87298	0.77892	0.06735	2.181
Mof_Eu	Eu	0.12702	0.22108	0.93265	2.181
Mof_P 	P 	0.32828	0.7482	0.9796	0.53
Mof_P 	P 	0.67172	0.2518	0.0204	0.53
Mof_H 	H 	0.3622	0.7204	0.7978	-0.099
Mof_H 	H 	0.6378	0.2796	0.2022	-0.099
Mof_C 	C 	0.059	0.9054	0.5015	0.269
Mof_C 	C 	0.941	0.0946	0.4985	0.269
Mof_O 	O 	0.1989	0.9407	0.0348	-0.676
Mof_O 	O 	0.5257	0.7746	0.1038	-0.548
Mof_O 	O 	0.1818	0.5722	0.9746	-0.69
Mof_O 	O 	0.0519	0.7565	0.3487	-0.482
Mof_O 	O 	0.8455	0.0807	0.3473	-0.485
Mof_O 	O 	0.8011	0.0593	0.9652	-0.676
Mof_O 	O 	0.4743	0.2254	0.8962	-0.548
Mof_O 	O 	0.8182	0.4278	0.0254	-0.69
Mof_O 	O 	0.9481	0.2435	0.6513	-0.482
Mof_O 	O 	0.1545	0.9193	0.6527	-0.485
_end
