data_functionalizedCrystal
_audit_creation_method	'EQeq! by Chris Wilmer'
_symmetry_space_group_name_H-M	'P1'
_symmetry_Int_Tables_number	1
_symmetry_cell_setting	triclinic
loop_
_symmetry_equiv_pos_as_xyz
  x,y,z
_cell_length_a	21.2111
_cell_length_b	21.2111
_cell_length_c	21.2111
_cell_angle_alpha	90
_cell_angle_beta	90
_cell_angle_gamma	90
loop_
_atom_site_label
_atom_site_type_symbol
_atom_site_fract_x
_atom_site_fract_y
_atom_site_fract_z
_atom_site_charge
Mof_N 	N 	0.5667	0.6953	0.0645	-0.235
Mof_C 	C 	0.5835	0.7562	0.082	0.047
Mof_H 	H 	0.5658	0.7913	0.0605	-0.019
Mof_C 	C 	0.626	0.7657	0.131	-0.115
Mof_H 	H 	0.6374	0.8073	0.143	0.067
Mof_C 	C 	0.6518	0.7143	0.1624	0.046
Mof_C 	C 	0.6351	0.6534	0.1449	-0.116
Mof_H 	H 	0.6527	0.6183	0.1664	0.063
Mof_C 	C 	0.5925	0.6439	0.0959	0.049
Mof_H 	H 	0.5811	0.6023	0.084	-0.021
Mof_C 	C 	0.6933	0.725	0.2164	0.041
Mof_C 	C 	0.7441	0.6816	0.2293	-0.109
Mof_H 	H 	0.7488	0.6446	0.2045	0.063
Mof_N 	N 	0.4333	0.3047	0.0645	-0.235
Mof_C 	C 	0.4165	0.2438	0.082	0.045
Mof_H 	H 	0.4342	0.2087	0.0605	-0.024
Mof_C 	C 	0.374	0.2343	0.131	-0.117
Mof_H 	H 	0.3626	0.1927	0.143	0.057
Mof_C 	C 	0.3482	0.2857	0.1624	0.043
Mof_C 	C 	0.3649	0.3466	0.1449	-0.117
Mof_H 	H 	0.3473	0.3817	0.1664	0.062
Mof_C 	C 	0.4075	0.3561	0.0959	0.047
Mof_H 	H 	0.4189	0.3977	0.084	-0.021
Mof_C 	C 	0.3067	0.275	0.2164	0.036
Mof_C 	C 	0.2559	0.3184	0.2293	-0.108
Mof_H 	H 	0.2512	0.3554	0.2045	0.06
Mof_N 	N 	0.4333	0.6953	0.9355	-0.22
Mof_C 	C 	0.4165	0.7562	0.918	0.053
Mof_H 	H 	0.4342	0.7913	0.9395	-0.001
Mof_C 	C 	0.374	0.7657	0.869	-0.111
Mof_H 	H 	0.3626	0.8073	0.857	0.071
Mof_C 	C 	0.3482	0.7143	0.8376	0.048
Mof_C 	C 	0.3649	0.6534	0.8551	-0.113
Mof_H 	H 	0.3473	0.6183	0.8336	0.065
Mof_C 	C 	0.4075	0.6439	0.9041	0.054
Mof_H 	H 	0.4189	0.6023	0.916	-0.009
Mof_C 	C 	0.3067	0.725	0.7836	0.043
Mof_C 	C 	0.2559	0.6816	0.7707	-0.108
Mof_H 	H 	0.2512	0.6446	0.7955	0.065
Mof_N 	N 	0.5667	0.3047	0.9355	-0.22
Mof_C 	C 	0.5835	0.2438	0.918	0.052
Mof_H 	H 	0.5658	0.2087	0.9395	-0.006
Mof_C 	C 	0.626	0.2343	0.869	-0.111
Mof_H 	H 	0.6374	0.1927	0.857	0.066
Mof_C 	C 	0.6518	0.2857	0.8376	0.047
Mof_C 	C 	0.6351	0.3466	0.8551	-0.112
Mof_H 	H 	0.6527	0.3817	0.8336	0.066
Mof_C 	C 	0.5925	0.3561	0.9041	0.055
Mof_H 	H 	0.5811	0.3977	0.916	-0.008
Mof_C 	C 	0.6933	0.275	0.7836	0.043
Mof_C 	C 	0.7441	0.3184	0.7707	-0.108
Mof_H 	H 	0.7488	0.3554	0.7955	0.066
Mof_N 	N 	0.0645	0.5667	0.6953	-0.234
Mof_C 	C 	0.082	0.5835	0.7562	0.048
Mof_H 	H 	0.0605	0.5658	0.7913	-0.018
Mof_C 	C 	0.131	0.626	0.7657	-0.115
Mof_H 	H 	0.143	0.6374	0.8073	0.067
Mof_C 	C 	0.1624	0.6518	0.7143	0.046
Mof_C 	C 	0.1449	0.6351	0.6534	-0.116
Mof_H 	H 	0.1664	0.6527	0.6183	0.063
Mof_C 	C 	0.0959	0.5925	0.6439	0.049
Mof_H 	H 	0.084	0.5811	0.6023	-0.021
Mof_C 	C 	0.2164	0.6933	0.725	0.041
Mof_C 	C 	0.2293	0.7441	0.6816	-0.109
Mof_H 	H 	0.2045	0.7488	0.6446	0.063
Mof_N 	N 	0.0645	0.4333	0.3047	-0.235
Mof_C 	C 	0.082	0.4165	0.2438	0.045
Mof_H 	H 	0.0605	0.4342	0.2087	-0.024
Mof_C 	C 	0.131	0.374	0.2343	-0.117
Mof_H 	H 	0.143	0.3626	0.1927	0.057
Mof_C 	C 	0.1624	0.3482	0.2857	0.043
Mof_C 	C 	0.1449	0.3649	0.3466	-0.117
Mof_H 	H 	0.1664	0.3473	0.3817	0.062
Mof_C 	C 	0.0959	0.4075	0.3561	0.047
Mof_H 	H 	0.084	0.4189	0.3977	-0.021
Mof_C 	C 	0.2164	0.3067	0.275	0.036
Mof_C 	C 	0.2293	0.2559	0.3184	-0.108
Mof_H 	H 	0.2045	0.2512	0.3554	0.06
Mof_N 	N 	0.9355	0.4333	0.6953	-0.22
Mof_C 	C 	0.918	0.4165	0.7562	0.053
Mof_H 	H 	0.9395	0.4342	0.7913	-0.001
Mof_C 	C 	0.869	0.374	0.7657	-0.111
Mof_H 	H 	0.857	0.3626	0.8073	0.071
Mof_C 	C 	0.8376	0.3482	0.7143	0.048
Mof_C 	C 	0.8551	0.3649	0.6534	-0.113
Mof_H 	H 	0.8336	0.3473	0.6183	0.065
Mof_C 	C 	0.9041	0.4075	0.6439	0.054
Mof_H 	H 	0.916	0.4189	0.6023	-0.009
Mof_C 	C 	0.7836	0.3067	0.725	0.043
Mof_C 	C 	0.7707	0.2559	0.6816	-0.108
Mof_H 	H 	0.7955	0.2512	0.6446	0.065
Mof_N 	N 	0.9355	0.5667	0.3047	-0.22
Mof_C 	C 	0.918	0.5835	0.2438	0.052
Mof_H 	H 	0.9395	0.5658	0.2087	-0.006
Mof_C 	C 	0.869	0.626	0.2343	-0.111
Mof_H 	H 	0.857	0.6374	0.1927	0.066
Mof_C 	C 	0.8376	0.6518	0.2857	0.047
Mof_C 	C 	0.8551	0.6351	0.3466	-0.112
Mof_H 	H 	0.8336	0.6527	0.3817	0.066
Mof_C 	C 	0.9041	0.5925	0.3561	0.055
Mof_H 	H 	0.916	0.5811	0.3977	-0.008
Mof_C 	C 	0.7836	0.6933	0.275	0.043
Mof_C 	C 	0.7707	0.7441	0.3184	-0.108
Mof_H 	H 	0.7955	0.7488	0.3554	0.066
Mof_N 	N 	0.6953	0.0645	0.5667	-0.234
Mof_C 	C 	0.7562	0.082	0.5835	0.048
Mof_H 	H 	0.7913	0.0605	0.5658	-0.018
Mof_C 	C 	0.7657	0.131	0.626	-0.115
Mof_H 	H 	0.8073	0.143	0.6374	0.067
Mof_C 	C 	0.7143	0.1624	0.6518	0.046
Mof_C 	C 	0.6534	0.1449	0.6351	-0.116
Mof_H 	H 	0.6183	0.1664	0.6527	0.063
Mof_C 	C 	0.6439	0.0959	0.5925	0.049
Mof_H 	H 	0.6023	0.084	0.5811	-0.021
Mof_C 	C 	0.725	0.2164	0.6933	0.041
Mof_C 	C 	0.6816	0.2293	0.7441	-0.109
Mof_H 	H 	0.6446	0.2045	0.7488	0.063
Mof_N 	N 	0.3047	0.0645	0.4333	-0.235
Mof_C 	C 	0.2438	0.082	0.4165	0.045
Mof_H 	H 	0.2087	0.0605	0.4342	-0.024
Mof_C 	C 	0.2343	0.131	0.374	-0.117
Mof_H 	H 	0.1927	0.143	0.3626	0.057
Mof_C 	C 	0.2857	0.1624	0.3482	0.043
Mof_C 	C 	0.3466	0.1449	0.3649	-0.117
Mof_H 	H 	0.3817	0.1664	0.3473	0.062
Mof_C 	C 	0.3561	0.0959	0.4075	0.047
Mof_H 	H 	0.3977	0.084	0.4189	-0.021
Mof_C 	C 	0.275	0.2164	0.3067	0.036
Mof_C 	C 	0.3184	0.2293	0.2559	-0.108
Mof_H 	H 	0.3554	0.2045	0.2512	0.06
Mof_N 	N 	0.6953	0.9355	0.4333	-0.22
Mof_C 	C 	0.7562	0.918	0.4165	0.053
Mof_H 	H 	0.7913	0.9395	0.4342	-0.001
Mof_C 	C 	0.7657	0.869	0.374	-0.111
Mof_H 	H 	0.8073	0.857	0.3626	0.071
Mof_C 	C 	0.7143	0.8376	0.3482	0.048
Mof_C 	C 	0.6534	0.8551	0.3649	-0.113
Mof_H 	H 	0.6183	0.8336	0.3473	0.065
Mof_C 	C 	0.6439	0.9041	0.4075	0.054
Mof_H 	H 	0.6023	0.916	0.4189	-0.009
Mof_C 	C 	0.725	0.7836	0.3067	0.043
Mof_C 	C 	0.6816	0.7707	0.2559	-0.108
Mof_H 	H 	0.6446	0.7955	0.2512	0.065
Mof_N 	N 	0.3047	0.9355	0.5667	-0.22
Mof_C 	C 	0.2438	0.918	0.5835	0.052
Mof_H 	H 	0.2087	0.9395	0.5658	-0.006
Mof_C 	C 	0.2343	0.869	0.626	-0.111
Mof_H 	H 	0.1927	0.857	0.6374	0.066
Mof_C 	C 	0.2857	0.8376	0.6518	0.047
Mof_C 	C 	0.3466	0.8551	0.6351	-0.112
Mof_H 	H 	0.3817	0.8336	0.6527	0.066
Mof_C 	C 	0.3561	0.9041	0.5925	0.055
Mof_H 	H 	0.3977	0.916	0.5811	-0.008
Mof_C 	C 	0.275	0.7836	0.6933	0.043
Mof_C 	C 	0.3184	0.7707	0.7441	-0.108
Mof_H 	H 	0.3554	0.7955	0.7488	0.066
Mof_N 	N 	0.4333	0.3047	0.9355	-0.22
Mof_C 	C 	0.4165	0.2438	0.918	0.051
Mof_H 	H 	0.4342	0.2087	0.9395	-0.007
Mof_C 	C 	0.374	0.2343	0.869	-0.112
Mof_H 	H 	0.3626	0.1927	0.857	0.064
Mof_C 	C 	0.3482	0.2857	0.8376	0.046
Mof_C 	C 	0.3649	0.3466	0.8551	-0.113
Mof_H 	H 	0.3473	0.3817	0.8336	0.065
Mof_C 	C 	0.4075	0.3561	0.9041	0.054
Mof_H 	H 	0.4189	0.3977	0.916	-0.009
Mof_C 	C 	0.3067	0.275	0.7836	0.04
Mof_C 	C 	0.2559	0.3184	0.7707	-0.108
Mof_H 	H 	0.2512	0.3554	0.7955	0.064
Mof_N 	N 	0.5667	0.6953	0.9355	-0.219
Mof_C 	C 	0.5835	0.7562	0.918	0.054
Mof_H 	H 	0.5658	0.7913	0.9395	-0.001
Mof_C 	C 	0.626	0.7657	0.869	-0.11
Mof_H 	H 	0.6374	0.8073	0.857	0.073
Mof_C 	C 	0.6518	0.7143	0.8376	0.049
Mof_C 	C 	0.6351	0.6534	0.8551	-0.112
Mof_H 	H 	0.6527	0.6183	0.8336	0.066
Mof_C 	C 	0.5925	0.6439	0.9041	0.055
Mof_H 	H 	0.5811	0.6023	0.916	-0.009
Mof_C 	C 	0.6933	0.725	0.7836	0.045
Mof_C 	C 	0.7441	0.6816	0.7707	-0.109
Mof_H 	H 	0.7488	0.6446	0.7955	0.067
Mof_N 	N 	0.5667	0.3047	0.0645	-0.235
Mof_C 	C 	0.5835	0.2438	0.082	0.046
Mof_H 	H 	0.5658	0.2087	0.0605	-0.023
Mof_C 	C 	0.626	0.2343	0.131	-0.116
Mof_H 	H 	0.6374	0.1927	0.143	0.059
Mof_C 	C 	0.6518	0.2857	0.1624	0.044
Mof_C 	C 	0.6351	0.3466	0.1449	-0.117
Mof_H 	H 	0.6527	0.3817	0.1664	0.063
Mof_C 	C 	0.5925	0.3561	0.0959	0.048
Mof_H 	H 	0.5811	0.3977	0.084	-0.021
Mof_C 	C 	0.6933	0.275	0.2164	0.039
Mof_C 	C 	0.7441	0.3184	0.2293	-0.108
Mof_H 	H 	0.7488	0.3554	0.2045	0.062
Mof_N 	N 	0.4333	0.6953	0.0645	-0.234
Mof_C 	C 	0.4165	0.7562	0.082	0.047
Mof_H 	H 	0.4342	0.7913	0.0605	-0.018
Mof_C 	C 	0.374	0.7657	0.131	-0.116
Mof_H 	H 	0.3626	0.8073	0.143	0.065
Mof_C 	C 	0.3482	0.7143	0.1624	0.045
Mof_C 	C 	0.3649	0.6534	0.1449	-0.117
Mof_H 	H 	0.3473	0.6183	0.1664	0.062
Mof_C 	C 	0.4075	0.6439	0.0959	0.048
Mof_H 	H 	0.4189	0.6023	0.084	-0.021
Mof_C 	C 	0.3067	0.725	0.2164	0.039
Mof_C 	C 	0.2559	0.6816	0.2293	-0.108
Mof_H 	H 	0.2512	0.6446	0.2045	0.061
Mof_N 	N 	0.9355	0.4333	0.3047	-0.22
Mof_C 	C 	0.918	0.4165	0.2438	0.051
Mof_H 	H 	0.9395	0.4342	0.2087	-0.007
Mof_C 	C 	0.869	0.374	0.2343	-0.112
Mof_H 	H 	0.857	0.3626	0.1927	0.064
Mof_C 	C 	0.8376	0.3482	0.2857	0.046
Mof_C 	C 	0.8551	0.3649	0.3466	-0.113
Mof_H 	H 	0.8336	0.3473	0.3817	0.065
Mof_C 	C 	0.9041	0.4075	0.3561	0.054
Mof_H 	H 	0.916	0.4189	0.3977	-0.009
Mof_C 	C 	0.7836	0.3067	0.275	0.04
Mof_C 	C 	0.7707	0.2559	0.3184	-0.108
Mof_H 	H 	0.7955	0.2512	0.3554	0.064
Mof_N 	N 	0.9355	0.5667	0.6953	-0.219
Mof_C 	C 	0.918	0.5835	0.7562	0.054
Mof_H 	H 	0.9395	0.5658	0.7913	-0.001
Mof_C 	C 	0.869	0.626	0.7657	-0.11
Mof_H 	H 	0.857	0.6374	0.8073	0.073
Mof_C 	C 	0.8376	0.6518	0.7143	0.049
Mof_C 	C 	0.8551	0.6351	0.6534	-0.112
Mof_H 	H 	0.8336	0.6527	0.6183	0.066
Mof_C 	C 	0.9041	0.5925	0.6439	0.055
Mof_H 	H 	0.916	0.5811	0.6023	-0.009
Mof_C 	C 	0.7836	0.6933	0.725	0.045
Mof_C 	C 	0.7707	0.7441	0.6816	-0.109
Mof_H 	H 	0.7955	0.7488	0.6446	0.067
Mof_N 	N 	0.0645	0.5667	0.3047	-0.235
Mof_C 	C 	0.082	0.5835	0.2438	0.046
Mof_H 	H 	0.0605	0.5658	0.2087	-0.023
Mof_C 	C 	0.131	0.626	0.2343	-0.116
Mof_H 	H 	0.143	0.6374	0.1927	0.059
Mof_C 	C 	0.1624	0.6518	0.2857	0.044
Mof_C 	C 	0.1449	0.6351	0.3466	-0.117
Mof_H 	H 	0.1664	0.6527	0.3817	0.063
Mof_C 	C 	0.0959	0.5925	0.3561	0.048
Mof_H 	H 	0.084	0.5811	0.3977	-0.021
Mof_C 	C 	0.2164	0.6933	0.275	0.039
Mof_C 	C 	0.2293	0.7441	0.3184	-0.108
Mof_H 	H 	0.2045	0.7488	0.3554	0.062
Mof_N 	N 	0.0645	0.4333	0.6953	-0.234
Mof_C 	C 	0.082	0.4165	0.7562	0.047
Mof_H 	H 	0.0605	0.4342	0.7913	-0.018
Mof_C 	C 	0.131	0.374	0.7657	-0.116
Mof_H 	H 	0.143	0.3626	0.8073	0.065
Mof_C 	C 	0.1624	0.3482	0.7143	0.045
Mof_C 	C 	0.1449	0.3649	0.6534	-0.117
Mof_H 	H 	0.1664	0.3473	0.6183	0.062
Mof_C 	C 	0.0959	0.4075	0.6439	0.048
Mof_H 	H 	0.084	0.4189	0.6023	-0.021
Mof_C 	C 	0.2164	0.3067	0.725	0.039
Mof_C 	C 	0.2293	0.2559	0.6816	-0.108
Mof_H 	H 	0.2045	0.2512	0.6446	0.061
Mof_N 	N 	0.3047	0.9355	0.4333	-0.22
Mof_C 	C 	0.2438	0.918	0.4165	0.051
Mof_H 	H 	0.2087	0.9395	0.4342	-0.007
Mof_C 	C 	0.2343	0.869	0.374	-0.112
Mof_H 	H 	0.1927	0.857	0.3626	0.064
Mof_C 	C 	0.2857	0.8376	0.3482	0.046
Mof_C 	C 	0.3466	0.8551	0.3649	-0.113
Mof_H 	H 	0.3817	0.8336	0.3473	0.065
Mof_C 	C 	0.3561	0.9041	0.4075	0.054
Mof_H 	H 	0.3977	0.916	0.4189	-0.009
Mof_C 	C 	0.275	0.7836	0.3067	0.04
Mof_C 	C 	0.3184	0.7707	0.2559	-0.108
Mof_H 	H 	0.3554	0.7955	0.2512	0.064
Mof_N 	N 	0.6953	0.9355	0.5667	-0.219
Mof_C 	C 	0.7562	0.918	0.5835	0.054
Mof_H 	H 	0.7913	0.9395	0.5658	-0.001
Mof_C 	C 	0.7657	0.869	0.626	-0.11
Mof_H 	H 	0.8073	0.857	0.6374	0.073
Mof_C 	C 	0.7143	0.8376	0.6518	0.049
Mof_C 	C 	0.6534	0.8551	0.6351	-0.112
Mof_H 	H 	0.6183	0.8336	0.6527	0.066
Mof_C 	C 	0.6439	0.9041	0.5925	0.055
Mof_H 	H 	0.6023	0.916	0.5811	-0.009
Mof_C 	C 	0.725	0.7836	0.6933	0.045
Mof_C 	C 	0.6816	0.7707	0.7441	-0.109
Mof_H 	H 	0.6446	0.7955	0.7488	0.067
Mof_N 	N 	0.3047	0.0645	0.5667	-0.235
Mof_C 	C 	0.2438	0.082	0.5835	0.046
Mof_H 	H 	0.2087	0.0605	0.5658	-0.023
Mof_C 	C 	0.2343	0.131	0.626	-0.116
Mof_H 	H 	0.1927	0.143	0.6374	0.059
Mof_C 	C 	0.2857	0.1624	0.6518	0.044
Mof_C 	C 	0.3466	0.1449	0.6351	-0.117
Mof_H 	H 	0.3817	0.1664	0.6527	0.063
Mof_C 	C 	0.3561	0.0959	0.5925	0.048
Mof_H 	H 	0.3977	0.084	0.5811	-0.021
Mof_C 	C 	0.275	0.2164	0.6933	0.039
Mof_C 	C 	0.3184	0.2293	0.7441	-0.108
Mof_H 	H 	0.3554	0.2045	0.7488	0.062
Mof_N 	N 	0.6953	0.0645	0.4333	-0.234
Mof_C 	C 	0.7562	0.082	0.4165	0.047
Mof_H 	H 	0.7913	0.0605	0.4342	-0.018
Mof_C 	C 	0.7657	0.131	0.374	-0.116
Mof_H 	H 	0.8073	0.143	0.3626	0.065
Mof_C 	C 	0.7143	0.1624	0.3482	0.045
Mof_C 	C 	0.6534	0.1449	0.3649	-0.117
Mof_H 	H 	0.6183	0.1664	0.3473	0.062
Mof_C 	C 	0.6439	0.0959	0.4075	0.048
Mof_H 	H 	0.6023	0.084	0.4189	-0.021
Mof_C 	C 	0.725	0.2164	0.3067	0.039
Mof_C 	C 	0.6816	0.2293	0.2559	-0.108
Mof_H 	H 	0.6446	0.2045	0.2512	0.061
Mof_Cu	Cu	0.5	0.68779	-0	0.842
Mof_Cu	Cu	0.5	0.31221	-0	0.842
Mof_Cu	Cu	-2.71163e-33	0.5	0.68779	0.842
Mof_Cu	Cu	-6.76504e-33	0.5	0.31221	0.842
Mof_Cu	Cu	0.68779	0	0.5	0.842
Mof_Cu	Cu	0.31221	0	0.5	0.842
_end
