data_functionalizedCrystal
_audit_creation_method	'EQeq! by Chris Wilmer'
_symmetry_space_group_name_H-M	'P1'
_symmetry_Int_Tables_number	1
_symmetry_cell_setting	triclinic
loop_
_symmetry_equiv_pos_as_xyz
  x,y,z
_cell_length_a	11.3737
_cell_length_b	17.6013
_cell_length_c	17.9058
_cell_angle_alpha	90
_cell_angle_beta	90
_cell_angle_gamma	99.234
loop_
_atom_site_label
_atom_site_type_symbol
_atom_site_fract_x
_atom_site_fract_y
_atom_site_fract_z
_atom_site_charge
Mof_Co	Co	0.96566	0.07561	0.92205	1.168
Mof_Co	Co	0.03434	0.42439	0.42205	1.17
Mof_Co	Co	0.03434	0.92439	0.07795	1.168
Mof_Co	Co	0.96566	0.57561	0.57795	1.17
Mof_H 	H 	0.9985	0.7809	0.9812	0.164
Mof_H 	H 	0.0113	0.7002	0.9551	0.146
Mof_H 	H 	0.9467	0.901	0.7547	-0.004
Mof_H 	H 	0.9973	0.6636	0.8265	0.103
Mof_H 	H 	0.9514	0.8236	0.6699	0.09
Mof_H 	H 	0.5288	0.9843	0.8509	0.07
Mof_H 	H 	0.7307	0.9825	0.8536	0.022
Mof_H 	H 	0.7792	0.1628	0.9934	0.011
Mof_H 	H 	0.5789	0.1651	0.9923	0.068
Mof_H 	H 	0.3551	0.0007	0.8356	0.064
Mof_H 	H 	0.1524	0.9996	0.839	0.009
Mof_H 	H 	0.1946	0.1575	0.0004	0.006
Mof_H 	H 	0.3964	0.1512	0.0057	0.063
Mof_H 	H 	0.0015	0.7191	0.4812	0.165
Mof_H 	H 	0.9887	0.7998	0.4551	0.145
Mof_H 	H 	0.0533	0.599	0.2547	-0.005
Mof_H 	H 	0.0027	0.8364	0.3265	0.103
Mof_H 	H 	0.0486	0.6764	0.1699	0.089
Mof_H 	H 	0.4712	0.5157	0.3509	0.068
Mof_H 	H 	0.2693	0.5175	0.3536	0.019
Mof_H 	H 	0.2208	0.3372	0.4934	0.013
Mof_H 	H 	0.4211	0.3349	0.4923	0.068
Mof_H 	H 	0.6449	0.4993	0.3356	0.065
Mof_H 	H 	0.8476	0.5004	0.339	0.007
Mof_H 	H 	0.8054	0.3425	0.5004	0.006
Mof_H 	H 	0.6036	0.3488	0.5057	0.061
Mof_H 	H 	0.0015	0.2191	0.0188	0.164
Mof_H 	H 	0.9887	0.2998	0.0449	0.146
Mof_H 	H 	0.0533	0.099	0.2453	-0.004
Mof_H 	H 	0.0027	0.3364	0.1735	0.103
Mof_H 	H 	0.0486	0.1764	0.3301	0.09
Mof_H 	H 	0.4712	0.0157	0.1491	0.07
Mof_H 	H 	0.2693	0.0175	0.1464	0.022
Mof_H 	H 	0.2208	0.8372	0.0066	0.011
Mof_H 	H 	0.4211	0.8349	0.0077	0.068
Mof_H 	H 	0.6449	0.9993	0.1644	0.064
Mof_H 	H 	0.8476	0.0004	0.161	0.009
Mof_H 	H 	0.8054	0.8425	0.9996	0.006
Mof_H 	H 	0.6036	0.8488	0.9943	0.063
Mof_H 	H 	0.9985	0.2809	0.5188	0.165
Mof_H 	H 	0.0113	0.2002	0.5449	0.145
Mof_H 	H 	0.9467	0.401	0.7453	-0.005
Mof_H 	H 	0.9973	0.1636	0.6735	0.103
Mof_H 	H 	0.9514	0.3236	0.8301	0.089
Mof_H 	H 	0.5288	0.4843	0.6491	0.068
Mof_H 	H 	0.7307	0.4825	0.6464	0.019
Mof_H 	H 	0.7792	0.6628	0.5066	0.013
Mof_H 	H 	0.5789	0.6651	0.5077	0.068
Mof_H 	H 	0.3551	0.5007	0.6644	0.065
Mof_H 	H 	0.1524	0.4996	0.661	0.007
Mof_H 	H 	0.1946	0.6575	0.4996	0.006
Mof_H 	H 	0.3964	0.6512	0.4943	0.061
Mof_C 	C 	0.9926	0.8469	0.8487	-0.207
Mof_C 	C 	0.0029	0.7738	0.8667	0.197
Mof_C 	C 	0.9951	0.7156	0.8131	-0.175
Mof_C 	C 	0.9838	0.7373	0.7394	0.051
Mof_C 	C 	0.9653	0.811	0.7204	-0.14
Mof_C 	C 	0.9672	0.8649	0.7752	0.115
Mof_C 	C 	0.9846	0.9037	0.9145	0.443
Mof_C 	C 	0.9808	0.6732	0.677	0.252
Mof_C 	C 	0.5302	0.0742	0.922	0.054
Mof_C 	C 	0.579	0.0208	0.8805	-0.114
Mof_C 	C 	0.6991	0.0202	0.8819	0.053
Mof_C 	C 	0.7285	0.1262	0.9642	0.065
Mof_C 	C 	0.6095	0.1273	0.9636	-0.115
Mof_C 	C 	0.4088	0.076	0.9206	0.032
Mof_C 	C 	0.3249	0.0324	0.8715	-0.101
Mof_C 	C 	0.2032	0.0324	0.8718	0.066
Mof_C 	C 	0.2284	0.1243	0.9678	0.049
Mof_C 	C 	0.3495	0.1209	0.9692	-0.096
Mof_C 	C 	0.0074	0.6531	0.3487	-0.208
Mof_C 	C 	0.9971	0.7262	0.3667	0.198
Mof_C 	C 	0.0049	0.7844	0.3131	-0.174
Mof_C 	C 	0.0162	0.7627	0.2394	0.05
Mof_C 	C 	0.0347	0.689	0.2204	-0.14
Mof_C 	C 	0.0328	0.6351	0.2752	0.116
Mof_C 	C 	0.0154	0.5963	0.4145	0.448
Mof_C 	C 	0.0192	0.8268	0.177	0.253
Mof_C 	C 	0.4698	0.4258	0.422	0.053
Mof_C 	C 	0.421	0.4792	0.3805	-0.112
Mof_C 	C 	0.3009	0.4798	0.3819	0.056
Mof_C 	C 	0.2715	0.3738	0.4642	0.065
Mof_C 	C 	0.3905	0.3727	0.4636	-0.115
Mof_C 	C 	0.5912	0.424	0.4206	0.032
Mof_C 	C 	0.6751	0.4676	0.3715	-0.102
Mof_C 	C 	0.7968	0.4676	0.3718	0.067
Mof_C 	C 	0.7716	0.3757	0.4678	0.046
Mof_C 	C 	0.6505	0.3791	0.4692	-0.093
Mof_C 	C 	0.0074	0.1531	0.1513	-0.207
Mof_C 	C 	0.9971	0.2262	0.1333	0.197
Mof_C 	C 	0.0049	0.2844	0.1869	-0.175
Mof_C 	C 	0.0162	0.2627	0.2606	0.051
Mof_C 	C 	0.0347	0.189	0.2796	-0.14
Mof_C 	C 	0.0328	0.1351	0.2248	0.115
Mof_C 	C 	0.0154	0.0963	0.0855	0.443
Mof_C 	C 	0.0192	0.3268	0.323	0.252
Mof_C 	C 	0.4698	0.9258	0.078	0.054
Mof_C 	C 	0.421	0.9792	0.1195	-0.114
Mof_C 	C 	0.3009	0.9798	0.1181	0.053
Mof_C 	C 	0.2715	0.8738	0.0358	0.065
Mof_C 	C 	0.3905	0.8727	0.0364	-0.115
Mof_C 	C 	0.5912	0.924	0.0794	0.032
Mof_C 	C 	0.6751	0.9676	0.1285	-0.101
Mof_C 	C 	0.7968	0.9676	0.1282	0.066
Mof_C 	C 	0.7716	0.8757	0.0322	0.049
Mof_C 	C 	0.6505	0.8791	0.0308	-0.096
Mof_C 	C 	0.9926	0.3469	0.6513	-0.208
Mof_C 	C 	0.0029	0.2738	0.6333	0.198
Mof_C 	C 	0.9951	0.2156	0.6869	-0.174
Mof_C 	C 	0.9838	0.2373	0.7606	0.05
Mof_C 	C 	0.9653	0.311	0.7796	-0.14
Mof_C 	C 	0.9672	0.3649	0.7248	0.116
Mof_C 	C 	0.9846	0.4037	0.5855	0.448
Mof_C 	C 	0.9808	0.1732	0.823	0.253
Mof_C 	C 	0.5302	0.5742	0.578	0.053
Mof_C 	C 	0.579	0.5208	0.6195	-0.112
Mof_C 	C 	0.6991	0.5202	0.6181	0.056
Mof_C 	C 	0.7285	0.6262	0.5358	0.065
Mof_C 	C 	0.6095	0.6273	0.5364	-0.115
Mof_C 	C 	0.4088	0.576	0.5794	0.032
Mof_C 	C 	0.3249	0.5324	0.6285	-0.102
Mof_C 	C 	0.2032	0.5324	0.6282	0.067
Mof_C 	C 	0.2284	0.6243	0.5322	0.046
Mof_C 	C 	0.3495	0.6209	0.5308	-0.093
Mof_N 	N 	0.004	0.7482	0.9448	-0.298
Mof_N 	N 	0.7763	0.0733	0.9236	-0.211
Mof_N 	N 	0.1592	0.0781	0.9178	-0.217
Mof_N 	N 	0.996	0.7518	0.4448	-0.3
Mof_N 	N 	0.2237	0.4267	0.4236	-0.21
Mof_N 	N 	0.8408	0.4219	0.4178	-0.218
Mof_N 	N 	0.996	0.2518	0.0552	-0.298
Mof_N 	N 	0.2237	0.9267	0.0764	-0.211
Mof_N 	N 	0.8408	0.9219	0.0822	-0.217
Mof_N 	N 	0.004	0.2482	0.5552	-0.3
Mof_N 	N 	0.7763	0.5733	0.5764	-0.21
Mof_N 	N 	0.1592	0.5781	0.5822	-0.218
Mof_O 	O 	0.9375	0.9641	0.8955	-0.457
Mof_O 	O 	0.0334	0.8938	0.9707	-0.504
Mof_O 	O 	0.9682	0.6045	0.6973	-0.352
Mof_O 	O 	0.9889	0.6966	0.6112	-0.366
Mof_O 	O 	0.0625	0.5359	0.3955	-0.459
Mof_O 	O 	0.9666	0.6062	0.4707	-0.509
Mof_O 	O 	0.0318	0.8955	0.1973	-0.354
Mof_O 	O 	0.0111	0.8034	0.1112	-0.368
Mof_O 	O 	0.0625	0.0359	0.1045	-0.457
Mof_O 	O 	0.9666	0.1062	0.0293	-0.504
Mof_O 	O 	0.0318	0.3955	0.3027	-0.352
Mof_O 	O 	0.0111	0.3034	0.3888	-0.366
Mof_O 	O 	0.9375	0.4641	0.6045	-0.459
Mof_O 	O 	0.0334	0.3938	0.5293	-0.509
Mof_O 	O 	0.9682	0.1045	0.8027	-0.354
Mof_O 	O 	0.9889	0.1966	0.8888	-0.368
_end
