data_functionalizedCrystal
_audit_creation_method	'EQeq! by Chris Wilmer'
_symmetry_space_group_name_H-M	'P1'
_symmetry_Int_Tables_number	1
_symmetry_cell_setting	triclinic
loop_
_symmetry_equiv_pos_as_xyz
  x,y,z
_cell_length_a	12.4391
_cell_length_b	20.6318
_cell_length_c	17.7916
_cell_angle_alpha	90
_cell_angle_beta	91.098
_cell_angle_gamma	90
loop_
_atom_site_label
_atom_site_type_symbol
_atom_site_fract_x
_atom_site_fract_y
_atom_site_fract_z
_atom_site_charge
Mof_Zn	Zn	0.3334	0.60902	0.22	1.244
Mof_Zn	Zn	0.05212	0.62768	0.2216	1.246
Mof_Zn	Zn	0.80041	0.59572	0.24602	1.238
Mof_O 	O 	0.4822	0.5855	0.1947	-0.488
Mof_O 	O 	0.3511	0.6611	0.3116	-0.454
Mof_O 	O 	0.1786	0.6645	0.2881	-0.493
Mof_O 	O 	0.2925	0.8465	0.6294	-0.481
Mof_O 	O 	0.7172	0.0227	0.2649	-0.478
Mof_O 	O 	0.89	0.03692	0.2953	-0.472
Mof_O 	O 	0.1138	0.8313	0.6269	-0.45
Mof_O 	O 	0.9669	0.7093	0.24	-0.444
Mof_O 	O 	0.9042	0.5901	0.1632	-0.53
Mof_O 	O 	0.9956	0.5887	0.324	-0.458
Mof_O 	O 	0.8308	0.552	0.3409	-0.459
Mof_O 	O 	0.7927	0.69	0.2626	-0.461
Mof_O 	O 	0.6555	0.5748	0.2092	-0.498
Mof_O 	O 	0.8439	0.49	0.1722	-0.313
Mof_C 	C 	0.2562	0.6783	0.3278	0.39
Mof_C 	C 	0.2424	0.7178	0.3974	-0.085
Mof_C 	C 	0.3319	0.7388	0.4392	-0.011
Mof_H 	H 	0.4021	0.7284	0.4229	0.054
Mof_C 	C 	0.1408	0.7327	0.4213	-0.011
Mof_H 	H 	0.0794	0.7194	0.3927	0.051
Mof_C 	C 	0.8123	0.003	0.2783	0.394
Mof_C 	C 	0.2045	0.8256	0.6011	0.404
Mof_C 	C 	0.2176	0.7889	0.5287	-0.082
Mof_C 	C 	0.3194	0.7746	0.5037	-0.009
Mof_H 	H 	0.3809	0.7894	0.5311	0.055
Mof_C 	C 	0.1284	0.7674	0.4879	-0.011
Mof_H 	H 	0.0583	0.7765	0.5054	0.05
Mof_C 	C 	0.8733	0.7267	0.2547	0.374
Mof_C 	C 	0.8592	0.7971	0.2724	-0.028
Mof_C 	C 	0.9452	0.8394	0.2643	-0.001
Mof_H 	H 	0.0151	0.8228	0.2556	0.034
Mof_C 	C 	0.929	0.9059	0.2691	-0.007
Mof_H 	H 	0.9878	0.9348	0.2636	0.027
Mof_C 	C 	0.8267	0.9301	0.2819	-0.035
Mof_C 	C 	0.7407	0.8879	0.29	-0.002
Mof_H 	H 	0.6708	0.9044	0.2987	0.038
Mof_C 	C 	0.7569	0.8214	0.2852	0
Mof_H 	H 	0.6981	0.7925	0.2907	0.039
Mof_C 	C 	0.9281	0.5583	0.3603	0.38
Mof_C 	C 	0.9648	0.5275	0.4327	-0.078
Mof_C 	C 	0.8927	0.4953	0.4771	-0.013
Mof_H 	H 	0.8193	0.4919	0.462	0.055
Mof_C 	C 	0.0707	0.5323	0.4551	-0.011
Mof_H 	H 	0.1199	0.5546	0.4242	0.05
Mof_C 	C 	0.8959	0.5307	0.1392	0.328
Mof_C 	C 	0.9502	0.5154	0.0665	-0.061
Mof_C 	C 	0.9925	0.564	0.0233	-0.021
Mof_H 	H 	0.9876	0.6078	0.0394	0.056
Mof_C 	C 	0.9575	0.4506	0.044	-0.015
Mof_H 	H 	0.9287	0.417	0.0741	0.054
Mof_C 	C 	0.5692	0.5993	0.224	0.566
Mof_H 	H 	0.5694	0.632	0.2617	-0.165
Mof_C 	C 	0.8527	0.7981	0.2558	-0.037
Mof_C 	C 	0.9398	0.837	0.2761	-0.014
Mof_H 	H 	0.008	0.8179	0.2864	0.026
Mof_C 	C 	0.9272	0.9038	0.2812	-0.014
Mof_H 	H 	0.9867	0.9303	0.295	0.039
Mof_C 	C 	0.8274	0.9317	0.266	-0.03
Mof_C 	C 	0.7403	0.8928	0.2458	-0.03
Mof_H 	H 	0.6721	0.9119	0.2354	0.05
Mof_C 	C 	0.7529	0.826	0.2407	-0.032
Mof_H 	H 	0.6934	0.7995	0.2269	0.043
Mof_Zn	Zn	0.6666	0.10902	0.28	1.243
Mof_Zn	Zn	0.94788	0.12768	0.2784	1.244
Mof_Zn	Zn	0.19959	0.09572	0.25398	1.238
Mof_O 	O 	0.5178	0.0855	0.3053	-0.488
Mof_O 	O 	0.6489	0.1611	0.1884	-0.454
Mof_O 	O 	0.8214	0.1645	0.2119	-0.493
Mof_O 	O 	0.7075	0.3465	0.8706	-0.481
Mof_O 	O 	0.2828	0.5227	0.2351	-0.478
Mof_O 	O 	0.11	0.53692	0.2047	-0.471
Mof_O 	O 	0.8862	0.3313	0.8731	-0.45
Mof_O 	O 	0.0331	0.2093	0.26	-0.444
Mof_O 	O 	0.0958	0.0901	0.3368	-0.53
Mof_O 	O 	0.0044	0.0887	0.176	-0.457
Mof_O 	O 	0.1692	0.052	0.1591	-0.458
Mof_O 	O 	0.2073	0.19	0.2374	-0.461
Mof_O 	O 	0.3445	0.0748	0.2908	-0.497
Mof_O 	O 	0.1561	0.99	0.3278	-0.315
Mof_C 	C 	0.7438	0.1783	0.1722	0.39
Mof_C 	C 	0.7576	0.2178	0.1026	-0.085
Mof_C 	C 	0.6681	0.2388	0.0608	-0.011
Mof_H 	H 	0.5979	0.2284	0.0771	0.054
Mof_C 	C 	0.8592	0.2327	0.0787	-0.011
Mof_H 	H 	0.9206	0.2194	0.1073	0.051
Mof_C 	C 	0.1877	0.503	0.2217	0.396
Mof_C 	C 	0.7955	0.3256	0.8989	0.404
Mof_C 	C 	0.7824	0.2889	0.9713	-0.082
Mof_C 	C 	0.6806	0.2746	0.9963	-0.01
Mof_H 	H 	0.6191	0.2894	0.9689	0.055
Mof_C 	C 	0.8716	0.2674	0.0121	-0.012
Mof_H 	H 	0.9417	0.2765	0.9946	0.05
Mof_C 	C 	0.1267	0.2267	0.2453	0.373
Mof_C 	C 	0.1408	0.2971	0.2276	-0.028
Mof_C 	C 	0.0548	0.3394	0.2357	-0.001
Mof_H 	H 	0.9849	0.3228	0.2444	0.034
Mof_C 	C 	0.071	0.4059	0.2309	-0.007
Mof_H 	H 	0.0122	0.4348	0.2364	0.027
Mof_C 	C 	0.1733	0.4301	0.2181	-0.036
Mof_C 	C 	0.2593	0.3879	0.21	-0.002
Mof_H 	H 	0.3292	0.4044	0.2013	0.038
Mof_C 	C 	0.2431	0.3214	0.2148	-0
Mof_H 	H 	0.3019	0.2925	0.2093	0.039
Mof_C 	C 	0.0719	0.0583	0.1397	0.378
Mof_C 	C 	0.0352	0.0275	0.0673	-0.073
Mof_C 	C 	0.1073	0.9953	0.0229	-0.016
Mof_H 	H 	0.1807	0.9919	0.038	0.056
Mof_C 	C 	0.9293	0.0323	0.0449	-0.015
Mof_H 	H 	0.8801	0.0546	0.0758	0.051
Mof_C 	C 	0.1041	0.0307	0.3608	0.33
Mof_C 	C 	0.0498	0.0154	0.4335	-0.059
Mof_C 	C 	0.0075	0.064	0.4767	-0.017
Mof_H 	H 	0.0124	0.1078	0.4606	0.055
Mof_C 	C 	0.0425	0.9506	0.456	-0.021
Mof_H 	H 	0.0713	0.917	0.4259	0.055
Mof_C 	C 	0.4308	0.0993	0.276	0.566
Mof_H 	H 	0.4306	0.132	0.2383	-0.165
Mof_C 	C 	0.1473	0.2981	0.2442	-0.037
Mof_C 	C 	0.0602	0.337	0.2239	-0.015
Mof_H 	H 	0.992	0.3179	0.2136	0.027
Mof_C 	C 	0.0728	0.4038	0.2188	-0.013
Mof_H 	H 	0.0133	0.4303	0.205	0.038
Mof_C 	C 	0.1726	0.4317	0.234	-0.031
Mof_C 	C 	0.2597	0.3928	0.2542	-0.03
Mof_H 	H 	0.3279	0.4119	0.2646	0.049
Mof_C 	C 	0.2471	0.326	0.2593	-0.032
Mof_H 	H 	0.3066	0.2995	0.2731	0.043
Mof_Zn	Zn	0.6666	0.39098	0.78	1.243
Mof_Zn	Zn	0.94788	0.37232	0.7784	1.245
Mof_Zn	Zn	0.19959	0.40428	0.75398	1.238
Mof_O 	O 	0.5178	0.4145	0.8053	-0.488
Mof_O 	O 	0.6489	0.3389	0.6884	-0.454
Mof_O 	O 	0.8214	0.3355	0.7119	-0.493
Mof_O 	O 	0.7075	0.1535	0.3706	-0.481
Mof_O 	O 	0.2828	0.9773	0.7351	-0.478
Mof_O 	O 	0.11	0.96308	0.7047	-0.472
Mof_O 	O 	0.8862	0.1687	0.3731	-0.45
Mof_O 	O 	0.0331	0.2907	0.76	-0.444
Mof_O 	O 	0.0958	0.4099	0.8368	-0.53
Mof_O 	O 	0.0044	0.4113	0.676	-0.458
Mof_O 	O 	0.1692	0.448	0.6591	-0.459
Mof_O 	O 	0.2073	0.31	0.7374	-0.461
Mof_O 	O 	0.3445	0.4252	0.7908	-0.498
Mof_O 	O 	0.1561	0.51	0.8278	-0.313
Mof_C 	C 	0.7438	0.3217	0.6722	0.39
Mof_C 	C 	0.7576	0.2822	0.6026	-0.085
Mof_C 	C 	0.6681	0.2612	0.5608	-0.011
Mof_H 	H 	0.5979	0.2716	0.5771	0.054
Mof_C 	C 	0.8592	0.2673	0.5787	-0.011
Mof_H 	H 	0.9206	0.2806	0.6073	0.051
Mof_C 	C 	0.1877	0.997	0.7217	0.394
Mof_C 	C 	0.7955	0.1744	0.3989	0.404
Mof_C 	C 	0.7824	0.2111	0.4713	-0.082
Mof_C 	C 	0.6806	0.2254	0.4963	-0.009
Mof_H 	H 	0.6191	0.2106	0.4689	0.055
Mof_C 	C 	0.8716	0.2326	0.5121	-0.011
Mof_H 	H 	0.9417	0.2235	0.4946	0.05
Mof_C 	C 	0.1267	0.2733	0.7453	0.374
Mof_C 	C 	0.1408	0.2029	0.7276	-0.028
Mof_C 	C 	0.0548	0.1606	0.7357	-0.001
Mof_H 	H 	0.9849	0.1772	0.7444	0.034
Mof_C 	C 	0.071	0.0941	0.7309	-0.007
Mof_H 	H 	0.0122	0.0652	0.7364	0.027
Mof_C 	C 	0.1733	0.0699	0.7181	-0.035
Mof_C 	C 	0.2593	0.1121	0.71	-0.002
Mof_H 	H 	0.3292	0.0956	0.7013	0.038
Mof_C 	C 	0.2431	0.1786	0.7148	0
Mof_H 	H 	0.3019	0.2075	0.7093	0.039
Mof_C 	C 	0.0719	0.4417	0.6397	0.38
Mof_C 	C 	0.0352	0.4725	0.5673	-0.078
Mof_C 	C 	0.1073	0.5047	0.5229	-0.013
Mof_H 	H 	0.1807	0.5081	0.538	0.055
Mof_C 	C 	0.9293	0.4677	0.5449	-0.011
Mof_H 	H 	0.8801	0.4454	0.5758	0.05
Mof_C 	C 	0.1041	0.4693	0.8608	0.328
Mof_C 	C 	0.0498	0.4846	0.9335	-0.061
Mof_C 	C 	0.0075	0.436	0.9767	-0.021
Mof_H 	H 	0.0124	0.3922	0.9606	0.056
Mof_C 	C 	0.0425	0.5494	0.956	-0.015
Mof_H 	H 	0.0713	0.583	0.9259	0.054
Mof_C 	C 	0.4308	0.4007	0.776	0.566
Mof_H 	H 	0.4306	0.368	0.7383	-0.165
Mof_C 	C 	0.1473	0.2019	0.7442	-0.037
Mof_C 	C 	0.0602	0.163	0.7239	-0.014
Mof_H 	H 	0.992	0.1821	0.7136	0.026
Mof_C 	C 	0.0728	0.0962	0.7188	-0.014
Mof_H 	H 	0.0133	0.0697	0.705	0.039
Mof_C 	C 	0.1726	0.0683	0.734	-0.03
Mof_C 	C 	0.2597	0.1072	0.7542	-0.03
Mof_H 	H 	0.3279	0.0881	0.7646	0.05
Mof_C 	C 	0.2471	0.174	0.7593	-0.032
Mof_H 	H 	0.3066	0.2005	0.7731	0.043
Mof_Zn	Zn	0.3334	0.89098	0.72	1.243
Mof_Zn	Zn	0.05212	0.87232	0.7216	1.244
Mof_Zn	Zn	0.80041	0.90428	0.74602	1.238
Mof_O 	O 	0.4822	0.9145	0.6947	-0.488
Mof_O 	O 	0.3511	0.8389	0.8116	-0.454
Mof_O 	O 	0.1786	0.8355	0.7881	-0.493
Mof_O 	O 	0.2925	0.6535	0.1294	-0.481
Mof_O 	O 	0.7172	0.4773	0.7649	-0.478
Mof_O 	O 	0.89	0.46308	0.7953	-0.471
Mof_O 	O 	0.1138	0.6687	0.1269	-0.45
Mof_O 	O 	0.9669	0.7907	0.74	-0.444
Mof_O 	O 	0.9042	0.9099	0.6632	-0.53
Mof_O 	O 	0.9956	0.9113	0.824	-0.457
Mof_O 	O 	0.8308	0.948	0.8409	-0.458
Mof_O 	O 	0.7927	0.81	0.7626	-0.461
Mof_O 	O 	0.6555	0.9252	0.7092	-0.497
Mof_O 	O 	0.8439	0.01	0.6722	-0.315
Mof_C 	C 	0.2562	0.8217	0.8278	0.39
Mof_C 	C 	0.2424	0.7822	0.8974	-0.085
Mof_C 	C 	0.3319	0.7612	0.9392	-0.011
Mof_H 	H 	0.4021	0.7716	0.9229	0.054
Mof_C 	C 	0.1408	0.7673	0.9213	-0.011
Mof_H 	H 	0.0794	0.7806	0.8927	0.051
Mof_C 	C 	0.8123	0.497	0.7783	0.396
Mof_C 	C 	0.2045	0.6744	0.1011	0.404
Mof_C 	C 	0.2176	0.7111	0.0287	-0.082
Mof_C 	C 	0.3194	0.7254	0.0037	-0.01
Mof_H 	H 	0.3809	0.7106	0.0311	0.055
Mof_C 	C 	0.1284	0.7326	0.9879	-0.012
Mof_H 	H 	0.0583	0.7235	0.0054	0.05
Mof_C 	C 	0.8733	0.7733	0.7547	0.373
Mof_C 	C 	0.8592	0.7029	0.7724	-0.028
Mof_C 	C 	0.9452	0.6606	0.7643	-0.001
Mof_H 	H 	0.0151	0.6772	0.7556	0.034
Mof_C 	C 	0.929	0.5941	0.7691	-0.007
Mof_H 	H 	0.9878	0.5652	0.7636	0.027
Mof_C 	C 	0.8267	0.5699	0.7819	-0.036
Mof_C 	C 	0.7407	0.6121	0.79	-0.002
Mof_H 	H 	0.6708	0.5956	0.7987	0.038
Mof_C 	C 	0.7569	0.6786	0.7852	-0
Mof_H 	H 	0.6981	0.7075	0.7907	0.039
Mof_C 	C 	0.9281	0.9417	0.8603	0.378
Mof_C 	C 	0.9648	0.9725	0.9327	-0.073
Mof_C 	C 	0.8927	0.0047	0.9771	-0.016
Mof_H 	H 	0.8193	0.0081	0.962	0.056
Mof_C 	C 	0.0707	0.9677	0.9551	-0.015
Mof_H 	H 	0.1199	0.9454	0.9242	0.051
Mof_C 	C 	0.8959	0.9693	0.6392	0.33
Mof_C 	C 	0.9502	0.9846	0.5665	-0.059
Mof_C 	C 	0.9925	0.936	0.5233	-0.017
Mof_H 	H 	0.9876	0.8922	0.5394	0.055
Mof_C 	C 	0.9575	0.0494	0.544	-0.021
Mof_H 	H 	0.9287	0.083	0.5741	0.055
Mof_C 	C 	0.5692	0.9007	0.724	0.566
Mof_H 	H 	0.5694	0.868	0.7617	-0.165
Mof_C 	C 	0.8527	0.7019	0.7558	-0.037
Mof_C 	C 	0.9398	0.663	0.7761	-0.015
Mof_H 	H 	0.008	0.6821	0.7864	0.027
Mof_C 	C 	0.9272	0.5962	0.7812	-0.013
Mof_H 	H 	0.9867	0.5697	0.795	0.038
Mof_C 	C 	0.8274	0.5683	0.766	-0.031
Mof_C 	C 	0.7403	0.6072	0.7458	-0.03
Mof_H 	H 	0.6721	0.5881	0.7354	0.049
Mof_C 	C 	0.7529	0.674	0.7407	-0.032
Mof_H 	H 	0.6934	0.7005	0.7269	0.043
_end
