data_functionalizedCrystal
_audit_creation_method	'EQeq! by Chris Wilmer'
_symmetry_space_group_name_H-M	'P1'
_symmetry_Int_Tables_number	1
_symmetry_cell_setting	triclinic
loop_
_symmetry_equiv_pos_as_xyz
  x,y,z
_cell_length_a	6.0544
_cell_length_b	12.4991
_cell_length_c	14.7539
_cell_angle_alpha	114.462
_cell_angle_beta	93.213
_cell_angle_gamma	100.177
loop_
_atom_site_label
_atom_site_type_symbol
_atom_site_fract_x
_atom_site_fract_y
_atom_site_fract_z
_atom_site_charge
Mof_Cs	Cs	0.77078	0.69302	0.12405	3.543
Mof_S 	S 	0.34417	0.96919	0.20551	0.427
Mof_O 	O 	0.1022	0.9565	0.19562	-0.517
Mof_O 	O 	0.4356	0.86321	0.16177	-0.646
Mof_O 	O 	0.6495	0.39751	0.04323	-0.949
Mof_O 	O 	0.9768	0.34402	0.05781	-0.756
Mof_O 	O 	0.6114	0.29963	0.70295	-0.591
Mof_O 	O 	0.9181	0.2216	0.67343	-0.652
Mof_C 	C 	0.7677	0.33446	0.06175	0.525
Mof_C 	C 	0.6531	0.23927	0.09263	-0.298
Mof_C 	C 	0.762	0.14883	0.08925	0.108
Mof_H 	H 	0.9002	0.1452	0.0648	-0.056
Mof_C 	C 	0.4443	0.24306	0.12662	0.097
Mof_H 	H 	0.3679	0.3012	0.1261	-0.118
Mof_C 	C 	0.6677	0.06447	0.1217	-0.092
Mof_H 	H 	0.7404	0.0038	0.1191	-0
Mof_C 	C 	0.4618	0.07201	0.15837	-0.051
Mof_C 	C 	0.349	0.16028	0.16152	-0.127
Mof_H 	H 	0.2116	0.1642	0.1866	0.053
Mof_C 	C 	0.4533	0.04352	0.33516	-0.118
Mof_C 	C 	0.6619	0.02956	0.36737	0.021
Mof_H 	H 	0.7416	0.9801	0.3218	-0.08
Mof_C 	C 	0.7487	0.0908	0.46862	-0.017
Mof_H 	H 	0.888	0.0823	0.4914	0.018
Mof_C 	C 	0.6297	0.16452	0.53632	-0.161
Mof_C 	C 	0.4212	0.1775	0.50331	0.019
Mof_H 	H 	0.3409	0.2263	0.5491	-0.022
Mof_C 	C 	0.3325	0.1175	0.40177	-0.044
Mof_H 	H 	0.1942	0.1269	0.3789	0.026
Mof_C 	C 	0.7348	0.2308	0.64461	0.46
Mof_Cs	Cs	0.22922	0.30698	0.87595	3.542
Mof_S 	S 	0.65583	0.03081	0.79449	0.426
Mof_O 	O 	0.8978	0.0435	0.80438	-0.518
Mof_O 	O 	0.5644	0.13679	0.83823	-0.647
Mof_O 	O 	0.3505	0.60249	0.95677	-0.949
Mof_O 	O 	0.0232	0.65598	0.94219	-0.756
Mof_O 	O 	0.3886	0.70037	0.29705	-0.591
Mof_O 	O 	0.0819	0.7784	0.32657	-0.652
Mof_C 	C 	0.2323	0.66554	0.93825	0.525
Mof_C 	C 	0.3469	0.76073	0.90737	-0.298
Mof_C 	C 	0.238	0.85117	0.91075	0.108
Mof_H 	H 	0.0998	0.8548	0.9352	-0.056
Mof_C 	C 	0.5557	0.75694	0.87338	0.097
Mof_H 	H 	0.6321	0.6988	0.8739	-0.118
Mof_C 	C 	0.3323	0.93553	0.8783	-0.092
Mof_H 	H 	0.2596	0.9962	0.8809	-0
Mof_C 	C 	0.5382	0.92799	0.84163	-0.051
Mof_C 	C 	0.651	0.83972	0.83848	-0.127
Mof_H 	H 	0.7884	0.8358	0.8134	0.053
Mof_C 	C 	0.5467	0.95648	0.66484	-0.118
Mof_C 	C 	0.3381	0.97044	0.63263	0.021
Mof_H 	H 	0.2584	0.0199	0.6782	-0.08
Mof_C 	C 	0.2513	0.9092	0.53138	-0.017
Mof_H 	H 	0.112	0.9177	0.5086	0.018
Mof_C 	C 	0.3703	0.83548	0.46368	-0.161
Mof_C 	C 	0.5788	0.8225	0.49669	0.019
Mof_H 	H 	0.6591	0.7737	0.4509	-0.022
Mof_C 	C 	0.6675	0.8825	0.59823	-0.044
Mof_H 	H 	0.8058	0.8731	0.6211	0.026
Mof_C 	C 	0.2652	0.7692	0.35539	0.46
_end
