data_functionalizedCrystal
_audit_creation_method	'EQeq! by Chris Wilmer'
_symmetry_space_group_name_H-M	'P1'
_symmetry_Int_Tables_number	1
_symmetry_cell_setting	triclinic
loop_
_symmetry_equiv_pos_as_xyz
  x,y,z
_cell_length_a	8.7259
_cell_length_b	34.0441
_cell_length_c	8.6527
_cell_angle_alpha	90
_cell_angle_beta	107.669
_cell_angle_gamma	90
loop_
_atom_site_label
_atom_site_type_symbol
_atom_site_fract_x
_atom_site_fract_y
_atom_site_fract_z
_atom_site_charge
Mof_Cu	Cu	0.74999	0.20353	0.48376	0.949
Mof_Cu	Cu	0.73904	0.04566	0.49884	0.948
Mof_O 	O 	0.89531	0.15395	0.61284	-0.257
Mof_O 	O 	0.85109	0.09006	0.62851	-0.292
Mof_O 	O 	0.62185	0.16006	0.3616	-0.289
Mof_O 	O 	0.61278	0.09499	0.34207	-0.252
Mof_O 	O 	0.62437	0.20627	0.64571	-0.274
Mof_O 	O 	0.59117	0.24855	0.82888	-0.244
Mof_O 	O 	0.87605	0.24607	0.61935	-0.293
Mof_O 	O 	0.86144	0.28753	0.81338	-0.287
Mof_O 	O 	0.90731	0.04059	0.38339	-0.277
Mof_O 	O 	0.08955	0.99948	0.34496	-0.247
Mof_O 	O 	0.57063	0.04184	0.61484	-0.282
Mof_O 	O 	0.37952	0.99958	0.62773	-0.289
Mof_C 	C 	0.8193	0.12336	0.5639	0.229
Mof_C 	C 	0.6706	0.12596	0.4082	0.232
Mof_C 	C 	0.8133	0.25871	0.7229	0.239
Mof_C 	C 	0.663	0.2364	0.7361	0.213
Mof_C 	C 	0.0006	0.01116	0.4214	0.23
Mof_C 	C 	0.4854	0.01199	0.57	0.225
Mof_Cu	Cu	0.25001	0.70353	0.01624	0.943
Mof_Cu	Cu	0.26096	0.54566	0.00116	0.947
Mof_O 	O 	0.10469	0.65395	0.88716	-0.251
Mof_O 	O 	0.14891	0.59006	0.87149	-0.289
Mof_O 	O 	0.37815	0.66006	0.1384	-0.291
Mof_O 	O 	0.38722	0.59499	0.15793	-0.252
Mof_O 	O 	0.37563	0.70627	0.85429	-0.267
Mof_O 	O 	0.40883	0.74855	0.67112	-0.239
Mof_O 	O 	0.12395	0.74607	0.88065	-0.284
Mof_O 	O 	0.13856	0.78753	0.68662	-0.282
Mof_O 	O 	0.09269	0.54059	0.11661	-0.282
Mof_O 	O 	0.91045	0.49948	0.15504	-0.246
Mof_O 	O 	0.42937	0.54184	0.88516	-0.279
Mof_O 	O 	0.62048	0.49958	0.87227	-0.289
Mof_C 	C 	0.1807	0.62336	0.9361	0.241
Mof_C 	C 	0.3294	0.62596	0.0918	0.222
Mof_C 	C 	0.1867	0.75871	0.7771	0.24
Mof_C 	C 	0.337	0.7364	0.7639	0.214
Mof_C 	C 	0.9994	0.51116	0.0786	0.235
Mof_C 	C 	0.5146	0.51199	0.93	0.225
Mof_Cu	Cu	0.25001	0.79647	0.51624	0.95
Mof_Cu	Cu	0.26096	0.95434	0.50116	0.949
Mof_O 	O 	0.10469	0.84605	0.38716	-0.256
Mof_O 	O 	0.14891	0.90994	0.37149	-0.291
Mof_O 	O 	0.37815	0.83994	0.6384	-0.289
Mof_O 	O 	0.38722	0.90501	0.65793	-0.252
Mof_O 	O 	0.37563	0.79373	0.35429	-0.274
Mof_O 	O 	0.40883	0.75145	0.17112	-0.244
Mof_O 	O 	0.12395	0.75393	0.38065	-0.293
Mof_O 	O 	0.13856	0.71247	0.18662	-0.287
Mof_O 	O 	0.09269	0.95941	0.61661	-0.277
Mof_O 	O 	0.91045	0.00052	0.65504	-0.247
Mof_O 	O 	0.42937	0.95816	0.38516	-0.282
Mof_O 	O 	0.62048	0.00042	0.37227	-0.289
Mof_C 	C 	0.1807	0.87664	0.4361	0.229
Mof_C 	C 	0.3294	0.87404	0.5918	0.232
Mof_C 	C 	0.1867	0.74129	0.2771	0.239
Mof_C 	C 	0.337	0.7636	0.2639	0.213
Mof_C 	C 	0.9994	0.98884	0.5786	0.23
Mof_C 	C 	0.5146	0.98801	0.43	0.225
Mof_Cu	Cu	0.74999	0.29647	0.98376	0.943
Mof_Cu	Cu	0.73904	0.45434	0.99884	0.947
Mof_O 	O 	0.89531	0.34605	0.11284	-0.251
Mof_O 	O 	0.85109	0.40994	0.12851	-0.289
Mof_O 	O 	0.62185	0.33994	0.8616	-0.291
Mof_O 	O 	0.61278	0.40501	0.84207	-0.252
Mof_O 	O 	0.62437	0.29373	0.14571	-0.267
Mof_O 	O 	0.59117	0.25145	0.32888	-0.239
Mof_O 	O 	0.87605	0.25393	0.11935	-0.284
Mof_O 	O 	0.86144	0.21247	0.31338	-0.282
Mof_O 	O 	0.90731	0.45941	0.88339	-0.282
Mof_O 	O 	0.08955	0.50052	0.84496	-0.246
Mof_O 	O 	0.57063	0.45816	0.11484	-0.279
Mof_O 	O 	0.37952	0.50042	0.12773	-0.289
Mof_C 	C 	0.8193	0.37664	0.0639	0.241
Mof_C 	C 	0.6706	0.37404	0.9082	0.222
Mof_C 	C 	0.8133	0.24129	0.2229	0.24
Mof_C 	C 	0.663	0.2636	0.2361	0.214
Mof_C 	C 	0.0006	0.48884	0.9214	0.235
Mof_C 	C 	0.4854	0.48801	0.07	0.225
_end
