data_functionalizedCrystal
_audit_creation_method	'EQeq! by Chris Wilmer'
_symmetry_space_group_name_H-M	'P1'
_symmetry_Int_Tables_number	1
_symmetry_cell_setting	triclinic
loop_
_symmetry_equiv_pos_as_xyz
  x,y,z
_cell_length_a	10.2386
_cell_length_b	10.2386
_cell_length_c	31.013
_cell_angle_alpha	90
_cell_angle_beta	90
_cell_angle_gamma	120
loop_
_atom_site_label
_atom_site_type_symbol
_atom_site_fract_x
_atom_site_fract_y
_atom_site_fract_z
_atom_site_charge
Mof_O 	O 	0.27699	0.09118	0.0212	-0.481
Mof_O 	O 	0.16173	0.15617	0.06997	-0.601
Mof_O 	O 	0.25427	0.00638	0.1316	-0.537
Mof_O 	O 	0.49723	0.14376	0.14898	-0.607
Mof_C 	C 	0.27795	0.15146	0.05656	0.546
Mof_C 	C 	0.41571	0.21365	0.08514	-0.727
Mof_H 	H 	0.4435	0.3151	0.0941	0.246
Mof_H 	H 	0.4993	0.219	0.069	0.232
Mof_C 	C 	0.38618	0.11475	0.12496	0.614
Mof_O 	O 	0.94366	0.42451	0.35453	-0.475
Mof_O 	O 	0.8284	0.4895	0.4033	-0.67
Mof_O 	O 	0.92094	0.33971	0.46493	-0.451
Mof_O 	O 	0.1639	0.47709	0.48231	-0.598
Mof_C 	C 	0.94462	0.48479	0.38989	0.678
Mof_C 	C 	0.08238	0.54698	0.41847	-0.84
Mof_H 	H 	0.11017	0.64843	0.42743	0.258
Mof_H 	H 	0.16597	0.55233	0.40233	0.254
Mof_C 	C 	0.05285	0.44808	0.45829	0.514
Mof_O 	O 	0.61032	0.75785	0.68787	-0.466
Mof_O 	O 	0.49506	0.82284	0.73664	-0.655
Mof_O 	O 	0.5876	0.67305	0.79827	-0.519
Mof_O 	O 	0.83056	0.81043	0.81565	-0.424
Mof_C 	C 	0.61128	0.81813	0.72323	0.596
Mof_C 	C 	0.74904	0.88032	0.75181	-0.767
Mof_H 	H 	0.77683	0.98177	0.76077	0.316
Mof_H 	H 	0.83263	0.88567	0.73567	0.31
Mof_C 	C 	0.71951	0.78142	0.79163	0.614
Mof_O 	O 	0.90882	0.18581	0.0212	-0.362
Mof_O 	O 	0.84383	0.00556	0.06997	-0.553
Mof_O 	O 	0.99362	0.24789	0.1316	-0.39
Mof_O 	O 	0.85624	0.35347	0.14898	-0.555
Mof_C 	C 	0.84854	0.12649	0.05656	0.518
Mof_C 	C 	0.78635	0.20206	0.08514	-0.665
Mof_H 	H 	0.6849	0.1284	0.0941	0.206
Mof_H 	H 	0.781	0.2803	0.069	0.227
Mof_C 	C 	0.88525	0.27143	0.12496	0.584
Mof_O 	O 	0.57549	0.51914	0.35453	-0.473
Mof_O 	O 	0.5105	0.33889	0.4033	-0.677
Mof_O 	O 	0.66029	0.58122	0.46493	-0.513
Mof_O 	O 	0.52291	0.6868	0.48231	-0.584
Mof_C 	C 	0.51521	0.45982	0.38989	0.56
Mof_C 	C 	0.45302	0.53539	0.41847	-0.72
Mof_H 	H 	0.35157	0.46173	0.42743	0.224
Mof_H 	H 	0.44767	0.61363	0.40233	0.241
Mof_C 	C 	0.55192	0.60476	0.45829	0.628
Mof_O 	O 	0.24215	0.85248	0.68787	-0.475
Mof_O 	O 	0.17716	0.67223	0.73664	-0.683
Mof_O 	O 	0.32695	0.91456	0.79827	-0.531
Mof_O 	O 	0.18957	0.02014	0.81565	-0.671
Mof_C 	C 	0.18187	0.79316	0.72323	0.577
Mof_C 	C 	0.11968	0.86873	0.75181	-0.785
Mof_H 	H 	0.01823	0.79507	0.76077	0.233
Mof_H 	H 	0.11433	0.94697	0.73567	0.276
Mof_C 	C 	0.21858	0.9381	0.79163	0.765
Mof_O 	O 	0.81419	0.72301	0.0212	-0.354
Mof_O 	O 	0.99444	0.83827	0.06997	-0.377
Mof_O 	O 	0.75211	0.74573	0.1316	-0.408
Mof_O 	O 	0.64653	0.50277	0.14898	-0.579
Mof_C 	C 	0.87351	0.72205	0.05656	0.521
Mof_C 	C 	0.79794	0.58429	0.08514	-0.671
Mof_H 	H 	0.8716	0.5565	0.0941	0.255
Mof_H 	H 	0.7197	0.5007	0.069	0.227
Mof_C 	C 	0.72857	0.61382	0.12496	0.596
Mof_O 	O 	0.48086	0.05634	0.35453	-0.503
Mof_O 	O 	0.66111	0.1716	0.4033	-0.657
Mof_O 	O 	0.41878	0.07906	0.46493	-0.646
Mof_O 	O 	0.3132	0.8361	0.48231	-0.61
Mof_C 	C 	0.54018	0.05538	0.38989	0.463
Mof_C 	C 	0.46461	0.91762	0.41847	-0.633
Mof_H 	H 	0.53827	0.88983	0.42743	0.242
Mof_H 	H 	0.38637	0.83403	0.40233	0.224
Mof_C 	C 	0.39524	0.94715	0.45829	0.743
Mof_O 	O 	0.14752	0.38968	0.68787	-0.503
Mof_O 	O 	0.32777	0.50494	0.73664	-0.651
Mof_O 	O 	0.08544	0.4124	0.79827	-0.507
Mof_O 	O 	0.97986	0.16944	0.81565	-0.368
Mof_C 	C 	0.20684	0.38872	0.72323	0.512
Mof_C 	C 	0.13127	0.25096	0.75181	-0.58
Mof_H 	H 	0.20493	0.22317	0.76077	0.178
Mof_H 	H 	0.05303	0.16737	0.73567	0.126
Mof_C 	C 	0.0619	0.28049	0.79163	0.393
Mof_O 	O 	0.72301	0.90882	0.9788	-0.297
Mof_O 	O 	0.83827	0.84383	0.93003	-0.417
Mof_O 	O 	0.74573	0.99362	0.8684	-0.357
Mof_O 	O 	0.50277	0.85624	0.85102	-0.554
Mof_C 	C 	0.72205	0.84854	0.94344	0.514
Mof_C 	C 	0.58429	0.78635	0.91486	-0.651
Mof_H 	H 	0.5565	0.6849	0.9059	0.229
Mof_H 	H 	0.5007	0.781	0.931	0.231
Mof_C 	C 	0.61382	0.88525	0.87504	0.585
Mof_O 	O 	0.38968	0.24215	0.31213	-0.497
Mof_O 	O 	0.50494	0.17716	0.26336	-0.672
Mof_O 	O 	0.4124	0.32695	0.20173	-0.521
Mof_O 	O 	0.16944	0.18957	0.18435	-0.562
Mof_C 	C 	0.38872	0.18187	0.27677	0.527
Mof_C 	C 	0.25096	0.11968	0.24819	-0.656
Mof_H 	H 	0.22317	0.01823	0.23923	0.167
Mof_H 	H 	0.16737	0.11433	0.26433	0.163
Mof_C 	C 	0.28049	0.21858	0.20837	0.574
Mof_O 	O 	0.05634	0.57549	0.64547	-0.491
Mof_O 	O 	0.1716	0.5105	0.5967	-0.666
Mof_O 	O 	0.07906	0.66029	0.53507	-0.621
Mof_O 	O 	0.8361	0.52291	0.51769	-0.597
Mof_C 	C 	0.05538	0.51521	0.61011	0.453
Mof_C 	C 	0.91762	0.45302	0.58153	-0.617
Mof_H 	H 	0.88983	0.35157	0.57257	0.226
Mof_H 	H 	0.83403	0.44767	0.59767	0.225
Mof_C 	C 	0.94715	0.55192	0.54171	0.74
Mof_O 	O 	0.09118	0.81419	0.9788	-0.405
Mof_O 	O 	0.15617	0.99444	0.93003	-0.451
Mof_O 	O 	0.00638	0.75211	0.8684	-0.496
Mof_O 	O 	0.14376	0.64653	0.85102	-0.606
Mof_C 	C 	0.15146	0.87351	0.94344	0.537
Mof_C 	C 	0.21365	0.79794	0.91486	-0.709
Mof_H 	H 	0.3151	0.8716	0.9059	0.268
Mof_H 	H 	0.219	0.7197	0.931	0.234
Mof_C 	C 	0.11475	0.72857	0.87504	0.613
Mof_O 	O 	0.75785	0.14752	0.31213	-0.488
Mof_O 	O 	0.82284	0.32777	0.26336	-0.644
Mof_O 	O 	0.67305	0.08544	0.20173	-0.511
Mof_O 	O 	0.81043	0.97986	0.18435	-0.32
Mof_C 	C 	0.81813	0.20684	0.27677	0.55
Mof_C 	C 	0.88032	0.13127	0.24819	-0.649
Mof_H 	H 	0.98177	0.20493	0.23923	0.259
Mof_H 	H 	0.88567	0.05303	0.26433	0.206
Mof_C 	C 	0.78142	0.0619	0.20837	0.433
Mof_O 	O 	0.42451	0.48086	0.64547	-0.494
Mof_O 	O 	0.4895	0.66111	0.5967	-0.66
Mof_O 	O 	0.33971	0.41878	0.53507	-0.563
Mof_O 	O 	0.47709	0.3132	0.51769	-0.611
Mof_C 	C 	0.48479	0.54018	0.61011	0.574
Mof_C 	C 	0.54698	0.46461	0.58153	-0.743
Mof_H 	H 	0.64843	0.53827	0.57257	0.259
Mof_H 	H 	0.55233	0.38637	0.59767	0.239
Mof_C 	C 	0.44808	0.39524	0.54171	0.63
Mof_O 	O 	0.18581	0.27699	0.9788	-0.423
Mof_O 	O 	0.00556	0.16173	0.93003	-0.641
Mof_O 	O 	0.24789	0.25427	0.8684	-0.485
Mof_O 	O 	0.35347	0.49723	0.85102	-0.582
Mof_C 	C 	0.12649	0.27795	0.94344	0.536
Mof_C 	C 	0.20206	0.41571	0.91486	-0.706
Mof_H 	H 	0.1284	0.4435	0.9059	0.219
Mof_H 	H 	0.2803	0.4993	0.931	0.236
Mof_C 	C 	0.27143	0.38618	0.87504	0.601
Mof_O 	O 	0.85248	0.61032	0.31213	-0.46
Mof_O 	O 	0.67223	0.49506	0.26336	-0.674
Mof_O 	O 	0.91456	0.5876	0.20173	-0.528
Mof_O 	O 	0.02014	0.83056	0.18435	-0.591
Mof_C 	C 	0.79316	0.61128	0.27677	0.609
Mof_C 	C 	0.86873	0.74904	0.24819	-0.833
Mof_H 	H 	0.79507	0.77683	0.23923	0.305
Mof_H 	H 	0.94697	0.83263	0.26433	0.345
Mof_C 	C 	0.9381	0.71951	0.20837	0.773
Mof_O 	O 	0.51914	0.94366	0.64547	-0.465
Mof_O 	O 	0.33889	0.8284	0.5967	-0.678
Mof_O 	O 	0.58122	0.92094	0.53507	-0.433
Mof_O 	O 	0.6868	0.1639	0.51769	-0.585
Mof_C 	C 	0.45982	0.94462	0.61011	0.67
Mof_C 	C 	0.53539	0.08238	0.58153	-0.829
Mof_H 	H 	0.46173	0.11017	0.57257	0.24
Mof_H 	H 	0.61363	0.16597	0.59767	0.256
Mof_C 	C 	0.60476	0.05285	0.54171	0.521
Mof_Nd	Nd	-0	0	-0	1.554
Mof_Nd	Nd	0.66667	0.33333	0.33333	2.431
Mof_Nd	Nd	0.33333	0.66667	0.66667	2.431
Mof_Nd	Nd	-0	0	0.13188	1.957
Mof_Nd	Nd	0.66667	0.33333	0.46521	2.803
Mof_Nd	Nd	0.33333	0.66667	0.79855	2.778
Mof_Nd	Nd	-1.79318e-32	-3.58637e-32	0.86812	1.963
Mof_Nd	Nd	0.66667	0.33333	0.20145	2.778
Mof_Nd	Nd	0.33333	0.66667	0.53479	2.802
_end
