data_functionalizedCrystal
_audit_creation_method	'EQeq! by Chris Wilmer'
_symmetry_space_group_name_H-M	'P1'
_symmetry_Int_Tables_number	1
_symmetry_cell_setting	triclinic
loop_
_symmetry_equiv_pos_as_xyz
  x,y,z
_cell_length_a	13.1198
_cell_length_b	13.1198
_cell_length_c	13.6007
_cell_angle_alpha	90
_cell_angle_beta	90
_cell_angle_gamma	120
loop_
_atom_site_label
_atom_site_type_symbol
_atom_site_fract_x
_atom_site_fract_y
_atom_site_fract_z
_atom_site_charge
Mof_Cd	Cd	0.66667	0.33334	0.89794	0.419
Mof_Cd	Cd	0.66667	0.33334	0.60206	0.377
Mof_Cd	Cd	0.48725	0.48725	0.5	0.372
Mof_Cd	Cd	0.48725	0.48725	-0	0.327
Mof_Cd	Cd	0.33333	0.66666	0.39794	0.376
Mof_Cd	Cd	-7.40248e-18	0.51275	0.5	0.35
Mof_Cd	Cd	0.33333	0.66666	0.10206	0.339
Mof_Cd	Cd	5.60743e-17	0.51275	-0	0.303
Mof_Cd	Cd	0.51275	0	-0	0.311
Mof_Cd	Cd	0.51275	0	0.5	0.353
Mof_H 	H 	0.4297	0.8433	0.802	0.325
Mof_H 	H 	0.5703	0.4136	0.198	0.315
Mof_H 	H 	0.2638	0.2841	0.3705	0.158
Mof_H 	H 	0.4136	0.5703	0.698	0.316
Mof_H 	H 	0.841	0.0505	0.1611	0.153
Mof_H 	H 	0.5864	0.1567	0.198	0.311
Mof_H 	H 	0.5864	0.1567	0.302	0.31
Mof_H 	H 	0.7905	0.9495	0.6611	0.16
Mof_H 	H 	0.841	0.0505	0.3389	0.157
Mof_H 	H 	0.1567	0.5864	0.698	0.311
Mof_H 	H 	0.2638	0.2841	0.1295	0.15
Mof_H 	H 	0.7362	0.0203	0.6295	0.145
Mof_H 	H 	0.7905	0.9495	0.8389	0.164
Mof_H 	H 	0.5703	0.4136	0.302	0.315
Mof_H 	H 	0.4297	0.8433	0.698	0.323
Mof_H 	H 	0.2841	0.2638	0.8705	0.17
Mof_H 	H 	0.7159	0.9797	0.3705	0.183
Mof_H 	H 	0.0505	0.841	0.8389	0.163
Mof_H 	H 	0.2095	0.159	0.3389	0.145
Mof_H 	H 	0.4136	0.5703	0.802	0.319
Mof_H 	H 	0.1567	0.5864	0.802	0.314
Mof_H 	H 	0.8433	0.4297	0.302	0.323
Mof_H 	H 	0.9495	0.7905	0.1611	0.152
Mof_H 	H 	0.0203	0.7362	0.1295	0.132
Mof_H 	H 	0.7362	0.0203	0.8705	0.154
Mof_H 	H 	0.0203	0.7362	0.3705	0.141
Mof_H 	H 	0.9495	0.7905	0.3389	0.157
Mof_H 	H 	0.8433	0.4297	0.198	0.323
Mof_H 	H 	0.0505	0.841	0.6611	0.159
Mof_H 	H 	0.2095	0.159	0.1611	0.141
Mof_H 	H 	0.2841	0.2638	0.6295	0.16
Mof_H 	H 	0.9797	0.7159	0.6295	0.186
Mof_H 	H 	0.159	0.2095	0.8389	0.152
Mof_H 	H 	0.159	0.2095	0.6611	0.147
Mof_H 	H 	0.7159	0.9797	0.1295	0.174
Mof_H 	H 	0.9797	0.7159	0.8705	0.195
Mof_C 	C 	0.2089	0.3477	0.9184	0.216
Mof_C 	C 	0.6523	0.8612	0.9184	0.221
Mof_C 	C 	0.8612	0.6523	0.0816	0.201
Mof_C 	C 	0.2089	0.3477	0.5816	0.205
Mof_C 	C 	0.6523	0.8612	0.5816	0.211
Mof_C 	C 	0.0134	0.517	0.75	0.206
Mof_C 	C 	0.8612	0.6523	0.4184	0.211
Mof_C 	C 	0.5036	0.9866	0.75	0.28
Mof_C 	C 	0.4964	0.483	0.25	0.241
Mof_C 	C 	0.9866	0.5036	0.25	0.284
Mof_C 	C 	0.1388	0.7911	0.5816	0.211
Mof_C 	C 	0.7911	0.1388	0.0816	0.202
Mof_C 	C 	0.1388	0.7911	0.9184	0.222
Mof_C 	C 	0.517	0.0134	0.25	0.208
Mof_C 	C 	0.3477	0.2089	0.4184	0.205
Mof_C 	C 	0.3477	0.2089	0.0816	0.195
Mof_C 	C 	0.483	0.4964	0.75	0.243
Mof_C 	C 	0.7911	0.1388	0.4184	0.211
Mof_N 	N 	0.2636	0.2185	0.3701	-0.332
Mof_N 	N 	0.8567	0.5642	0.4692	-0.142
Mof_N 	N 	0.4071	0.5716	0.298	-0.075
Mof_N 	N 	0.485	0.947	0.1693	-0.131
Mof_N 	N 	0.4284	0.8355	0.298	-0.073
Mof_N 	N 	0.3589	0.1124	0.0877	-0.121
Mof_N 	N 	0.4542	0.1384	0.4665	-0.079
Mof_N 	N 	0.2456	0.5012	0.9991	-0.065
Mof_N 	N 	0.1347	0.5752	0.75	-0.584
Mof_N 	N 	0.4988	0.7444	0.5009	-0.081
Mof_N 	N 	0.5716	0.4071	0.702	-0.074
Mof_N 	N 	0.5012	0.2456	0.4991	-0.081
Mof_N 	N 	0.515	0.462	0.8307	-0.135
Mof_N 	N 	0.7815	0.0451	0.1299	-0.351
Mof_N 	N 	0.3158	0.8616	0.5335	-0.073
Mof_N 	N 	0.7544	0.2556	0.0009	-0.093
Mof_N 	N 	0.7535	0.6411	0.4123	-0.112
Mof_N 	N 	0.5595	0.4248	0.25	-0.593
Mof_N 	N 	0.515	0.462	0.6693	-0.146
Mof_N 	N 	0.7075	0.1433	0.0308	-0.155
Mof_N 	N 	0.2556	0.7544	0.9991	-0.064
Mof_N 	N 	0.7075	0.1433	0.4692	-0.15
Mof_N 	N 	0.2465	0.8876	0.9123	-0.104
Mof_N 	N 	0.7535	0.6411	0.0877	-0.116
Mof_N 	N 	0.947	0.485	0.6693	-0.126
Mof_N 	N 	0.7544	0.2556	0.4991	-0.08
Mof_N 	N 	0.7815	0.0451	0.3701	-0.354
Mof_N 	N 	0.4542	0.1384	0.0335	-0.085
Mof_N 	N 	0.5012	0.2456	0.0009	-0.094
Mof_N 	N 	0.947	0.485	0.8307	-0.116
Mof_N 	N 	0.8355	0.4284	0.798	-0.069
Mof_N 	N 	0.538	0.053	0.8307	-0.151
Mof_N 	N 	0.538	0.053	0.6693	-0.161
Mof_N 	N 	0.2185	0.2636	0.8701	-0.335
Mof_N 	N 	0.5716	0.4071	0.798	-0.071
Mof_N 	N 	0.8355	0.4284	0.702	-0.073
Mof_N 	N 	0.5642	0.8567	0.5308	-0.143
Mof_N 	N 	0.2456	0.5012	0.5009	-0.081
Mof_N 	N 	0.1433	0.7075	0.9692	-0.136
Mof_N 	N 	0.4358	0.2925	0.4692	-0.148
Mof_N 	N 	0.4284	0.8355	0.202	-0.076
Mof_N 	N 	0.485	0.947	0.3307	-0.128
Mof_N 	N 	0.4071	0.5716	0.202	-0.077
Mof_N 	N 	0.2925	0.4358	0.5308	-0.148
Mof_N 	N 	0.7364	0.9549	0.8701	-0.318
Mof_N 	N 	0.1433	0.7075	0.5308	-0.15
Mof_N 	N 	0.2636	0.2185	0.1299	-0.33
Mof_N 	N 	0.5929	0.1645	0.702	-0.075
Mof_N 	N 	0.3158	0.8616	0.9665	-0.058
Mof_N 	N 	0.4358	0.2925	0.0308	-0.153
Mof_N 	N 	0.2925	0.4358	0.9692	-0.134
Mof_N 	N 	0.053	0.538	0.1693	-0.166
Mof_N 	N 	0.1645	0.5929	0.298	-0.075
Mof_N 	N 	0.7444	0.4988	0.4991	-0.08
Mof_N 	N 	0.2556	0.7544	0.5009	-0.08
Mof_N 	N 	0.0451	0.7815	0.6299	-0.357
Mof_N 	N 	0.5642	0.8567	0.9692	-0.129
Mof_N 	N 	0.5458	0.6842	0.5335	-0.077
Mof_N 	N 	0.462	0.515	0.3307	-0.146
Mof_N 	N 	0.2185	0.2636	0.6299	-0.333
Mof_N 	N 	0.4405	0.8653	0.75	-0.606
Mof_N 	N 	0.8616	0.3158	0.0335	-0.077
Mof_N 	N 	0.1384	0.4542	0.5335	-0.079
Mof_N 	N 	0.4988	0.7444	0.9991	-0.064
Mof_N 	N 	0.7364	0.9549	0.6299	-0.317
Mof_N 	N 	0.9549	0.7364	0.1299	-0.309
Mof_N 	N 	0.6411	0.7535	0.9123	-0.106
Mof_N 	N 	0.6842	0.5458	0.4665	-0.077
Mof_N 	N 	0.8653	0.4405	0.25	-0.607
Mof_N 	N 	0.8876	0.2465	0.0877	-0.112
Mof_N 	N 	0.5458	0.6842	0.9665	-0.063
Mof_N 	N 	0.1124	0.3589	0.5877	-0.117
Mof_N 	N 	0.1384	0.4542	0.9665	-0.064
Mof_N 	N 	0.8876	0.2465	0.4123	-0.109
Mof_N 	N 	0.5929	0.1645	0.798	-0.071
Mof_N 	N 	0.5752	0.1347	0.25	-0.583
Mof_N 	N 	0.6842	0.5458	0.0335	-0.083
Mof_N 	N 	0.4248	0.5595	0.75	-0.595
Mof_N 	N 	0.9549	0.7364	0.3701	-0.312
Mof_N 	N 	0.2465	0.8876	0.5877	-0.109
Mof_N 	N 	0.8616	0.3158	0.4665	-0.072
Mof_N 	N 	0.1124	0.3589	0.9123	-0.112
Mof_N 	N 	0.462	0.515	0.1693	-0.148
Mof_N 	N 	0.0451	0.7815	0.8701	-0.358
Mof_N 	N 	0.3589	0.1124	0.4123	-0.118
Mof_N 	N 	0.8567	0.5642	0.0308	-0.146
Mof_N 	N 	0.6411	0.7535	0.5877	-0.111
Mof_N 	N 	0.7444	0.4988	0.0009	-0.093
Mof_N 	N 	0.1645	0.5929	0.202	-0.078
Mof_N 	N 	0.053	0.538	0.3307	-0.164
_end
