data_functionalizedCrystal
_audit_creation_method	'EQeq! by Chris Wilmer'
_symmetry_space_group_name_H-M	'P1'
_symmetry_Int_Tables_number	1
_symmetry_cell_setting	triclinic
loop_
_symmetry_equiv_pos_as_xyz
  x,y,z
_cell_length_a	7.7895
_cell_length_b	8.0754
_cell_length_c	9.7286
_cell_angle_alpha	75.902
_cell_angle_beta	79.142
_cell_angle_gamma	86.695
loop_
_atom_site_label
_atom_site_type_symbol
_atom_site_fract_x
_atom_site_fract_y
_atom_site_fract_z
_atom_site_charge
Mof_Mn	Mn	0.65797	0.46703	0.25269	0.978
Mof_Mn	Mn	0.32238	0.19107	0.37035	0.94
Mof_P 	P 	0.57321	0.23023	0.59513	0.599
Mof_O 	O 	0.5229	0.2959	0.4458	-0.461
Mof_O 	O 	0.4647	0.3139	0.7056	-0.377
Mof_O 	O 	0.5603	0.0398	0.6451	-0.368
Mof_O 	O 	0.7721	0.276	0.5772	-0.473
Mof_H 	H 	0.7792	0.3601	0.609	0.304
Mof_O 	O 	0.8455	0.2567	0.2217	-0.296
Mof_O 	O 	0.0887	0.1403	0.2918	-0.292
Mof_O 	O 	0.9112	0.5479	0.2853	-0.303
Mof_O 	O 	0.1601	0.4357	0.3501	-0.33
Mof_O 	O 	0.4674	0.3473	0.1635	-0.388
Mof_O 	O 	0.3131	0.4017	0.9844	-0.299
Mof_C 	C 	0.982	0.2611	0.2691	0.247
Mof_C 	C 	0.0212	0.4301	0.3055	0.254
Mof_C 	C 	0.4338	0.4273	0.042	0.265
Mof_Mn	Mn	0.34203	0.53297	0.74731	0.978
Mof_Mn	Mn	0.67762	0.80893	0.62965	0.94
Mof_P 	P 	0.42679	0.76977	0.40487	0.599
Mof_O 	O 	0.4771	0.7041	0.5542	-0.461
Mof_O 	O 	0.5353	0.6861	0.2944	-0.377
Mof_O 	O 	0.4397	0.9602	0.3549	-0.368
Mof_O 	O 	0.2279	0.724	0.4228	-0.473
Mof_H 	H 	0.2208	0.6399	0.391	0.304
Mof_O 	O 	0.1545	0.7433	0.7783	-0.296
Mof_O 	O 	0.9113	0.8597	0.7082	-0.292
Mof_O 	O 	0.0888	0.4521	0.7147	-0.303
Mof_O 	O 	0.8399	0.5643	0.6499	-0.33
Mof_O 	O 	0.5326	0.6527	0.8365	-0.388
Mof_O 	O 	0.6869	0.5983	0.0156	-0.299
Mof_C 	C 	0.018	0.7389	0.7309	0.247
Mof_C 	C 	0.9788	0.5699	0.6945	0.254
Mof_C 	C 	0.5662	0.5727	0.958	0.265
_end
