data_functionalizedCrystal
_audit_creation_method	'EQeq! by Chris Wilmer'
_symmetry_space_group_name_H-M	'P1'
_symmetry_Int_Tables_number	1
_symmetry_cell_setting	triclinic
loop_
_symmetry_equiv_pos_as_xyz
  x,y,z
_cell_length_a	10.0317
_cell_length_b	10.0317
_cell_length_c	12.8837
_cell_angle_alpha	90
_cell_angle_beta	90
_cell_angle_gamma	90
loop_
_atom_site_label
_atom_site_type_symbol
_atom_site_fract_x
_atom_site_fract_y
_atom_site_fract_z
_atom_site_charge
Mof_Co	Co	0.8759	0.1246	0.2978	1.215
Mof_P 	P 	0.852	0.859	0.1799	0.609
Mof_O 	O 	0.73	0.7684	0.183	-0.431
Mof_O 	O 	0.9176	0.848	0.0762	-0.399
Mof_O 	O 	0.8091	0.0075	0.1966	-0.52
Mof_O 	O 	0.8875	0.0481	0.4329	-0.381
Mof_O 	O 	0.0546	0.1858	0.2664	-0.5
Mof_Co	Co	0.1241	0.8754	0.2978	1.187
Mof_P 	P 	0.148	0.141	0.1799	0.49
Mof_O 	O 	0.27	0.2316	0.183	-0.455
Mof_O 	O 	0.0824	0.152	0.0762	-0.501
Mof_O 	O 	0.1909	0.9925	0.1966	-0.417
Mof_O 	O 	0.1125	0.9519	0.4329	-0.363
Mof_O 	O 	0.9454	0.8142	0.2664	-0.399
Mof_Co	Co	0.1246	0.1241	0.7022	1.174
Mof_P 	P 	0.859	0.148	0.8201	0.608
Mof_O 	O 	0.7684	0.27	0.817	-0.408
Mof_O 	O 	0.848	0.0824	0.9238	-0.367
Mof_O 	O 	0.0075	0.1909	0.8034	-0.515
Mof_O 	O 	0.0481	0.1125	0.5671	-0.456
Mof_O 	O 	0.1858	0.9454	0.7336	-0.403
Mof_Co	Co	0.8754	0.8759	0.7022	1.232
Mof_P 	P 	0.141	0.852	0.8201	0.493
Mof_O 	O 	0.2316	0.73	0.817	-0.415
Mof_O 	O 	0.152	0.9176	0.9238	-0.334
Mof_O 	O 	0.9925	0.8091	0.8034	-0.364
Mof_O 	O 	0.9519	0.8875	0.5671	-0.297
Mof_O 	O 	0.8142	0.0546	0.7336	-0.472
Mof_Co	Co	0.6241	0.6246	0.2022	1.203
Mof_P 	P 	0.648	0.359	0.3201	0.551
Mof_O 	O 	0.77	0.2684	0.317	-0.421
Mof_O 	O 	0.5824	0.348	0.4238	-0.429
Mof_O 	O 	0.6909	0.5075	0.3034	-0.451
Mof_O 	O 	0.6125	0.5481	0.0671	-0.444
Mof_O 	O 	0.4454	0.6858	0.2336	-0.449
Mof_Co	Co	0.3759	0.3754	0.2022	1.195
Mof_P 	P 	0.352	0.641	0.3201	0.551
Mof_O 	O 	0.23	0.7316	0.317	-0.446
Mof_O 	O 	0.4176	0.652	0.4238	-0.42
Mof_O 	O 	0.3091	0.4925	0.3034	-0.475
Mof_O 	O 	0.3875	0.4519	0.0671	-0.461
Mof_O 	O 	0.5546	0.3142	0.2336	-0.465
Mof_Co	Co	0.3754	0.6241	0.7978	1.205
Mof_P 	P 	0.641	0.648	0.6799	0.553
Mof_O 	O 	0.7316	0.77	0.683	-0.401
Mof_O 	O 	0.652	0.5824	0.5762	-0.414
Mof_O 	O 	0.4925	0.6909	0.6966	-0.448
Mof_O 	O 	0.4519	0.6125	0.9329	-0.338
Mof_O 	O 	0.3142	0.4454	0.7664	-0.443
Mof_Co	Co	0.6246	0.3759	0.7978	1.206
Mof_P 	P 	0.359	0.352	0.6799	0.55
Mof_O 	O 	0.2684	0.23	0.683	-0.443
Mof_O 	O 	0.348	0.4176	0.5762	-0.435
Mof_O 	O 	0.5075	0.3091	0.6966	-0.464
Mof_O 	O 	0.5481	0.3875	0.9329	-0.345
Mof_O 	O 	0.6858	0.5546	0.7664	-0.422
Mof_Co	Co	-0	0	-0	1.042
Mof_Co	Co	0.5	0.5	0.5	1.173
Mof_P 	P 	7.27512e-33	4.86744e-33	0.5	0.342
Mof_P 	P 	0.5	0.5	-0	0.432
_end
