data_functionalizedCrystal
_audit_creation_method	'EQeq! by Chris Wilmer'
_symmetry_space_group_name_H-M	'P1'
_symmetry_Int_Tables_number	1
_symmetry_cell_setting	triclinic
loop_
_symmetry_equiv_pos_as_xyz
  x,y,z
_cell_length_a	12.7405
_cell_length_b	12.7405
_cell_length_c	13.7595
_cell_angle_alpha	66.3888
_cell_angle_beta	65.3679
_cell_angle_gamma	96.7371
loop_
_atom_site_label
_atom_site_type_symbol
_atom_site_fract_x
_atom_site_fract_y
_atom_site_fract_z
_atom_site_charge
Mof_Mn	Mn	0.31145	0.06145	0.75	0.952
Mof_Mn	Mn	0.68855	0.93855	0.25	1.047
Mof_Mn	Mn	0.5	0	0.5	0.9
Mof_Mn	Mn	-0	0	-0	0.832
Mof_H 	H 	0.5535	0.3969	0.5812	0.054
Mof_H 	H 	0.6517	0.6029	0.4798	0.052
Mof_H 	H 	0.8556	0.5953	0.1725	0.051
Mof_H 	H 	0.7527	0.3905	0.2718	0.052
Mof_H 	H 	0.2017	0.7687	0.9784	0.063
Mof_H 	H 	0.1479	0.5675	0.0286	0.005
Mof_H 	H 	0.9049	0.6134	0.9223	0.053
Mof_H 	H 	0.9606	0.8122	0.8748	0.047
Mof_H 	H 	0.4781	0.1347	0.9188	0.077
Mof_H 	H 	0.5827	0.1315	0.0202	0.029
Mof_H 	H 	0.2678	0.0281	0.3275	0.045
Mof_H 	H 	0.1623	0.0245	0.2282	0.035
Mof_H 	H 	0.2471	0.1801	0.5216	0.065
Mof_H 	H 	0.0961	0.1765	0.4714	0.002
Mof_H 	H 	0.0357	0.8272	0.5777	-0.005
Mof_H 	H 	0.187	0.8354	0.6252	0.056
Mof_H 	H 	0.4465	0.6031	0.4188	0.05
Mof_H 	H 	0.3483	0.3971	0.5202	0.05
Mof_H 	H 	0.1444	0.4047	0.8275	0.064
Mof_H 	H 	0.2473	0.6095	0.7282	0.052
Mof_H 	H 	0.7983	0.2313	0.0216	0.007
Mof_H 	H 	0.8521	0.4325	0.9714	0.126
Mof_H 	H 	0.0951	0.3866	0.0777	0.091
Mof_H 	H 	0.0394	0.1878	0.1252	0.018
Mof_H 	H 	0.5219	0.8653	0.0812	0.02
Mof_H 	H 	0.4173	0.8685	0.9798	0.077
Mof_H 	H 	0.7322	0.9719	0.6725	0.069
Mof_H 	H 	0.8377	0.9755	0.7718	0.067
Mof_H 	H 	0.7529	0.8199	0.4784	0.001
Mof_H 	H 	0.9039	0.8235	0.5286	0.139
Mof_H 	H 	0.9643	0.1728	0.4223	0.147
Mof_H 	H 	0.813	0.1646	0.3748	0.006
Mof_C 	C 	0.5686	0.2398	0.5014	0.36
Mof_C 	C 	0.6414	0.372	0.437	-0.079
Mof_C 	C 	0.6134	0.4369	0.4981	-0.018
Mof_C 	C 	0.6729	0.5601	0.4376	-0.02
Mof_C 	C 	0.765	0.6221	0.3135	-0.074
Mof_C 	C 	0.7934	0.556	0.2548	-0.019
Mof_C 	C 	0.8243	0.7588	0.2457	0.36
Mof_C 	C 	0.7324	0.4329	0.3145	-0.018
Mof_C 	C 	0.1413	0.7369	0.9666	0.007
Mof_C 	C 	0.1081	0.6158	0.9973	0.007
Mof_C 	C 	0.0182	0.5643	0.9831	-0.039
Mof_C 	C 	0.9656	0.6424	0.9352	-0.05
Mof_C 	C 	0.9996	0.7624	0.9056	0.047
Mof_C 	C 	0.2412	0.07	0.9986	0.409
Mof_C 	C 	0.309	0.0784	0.063	-0.105
Mof_C 	C 	0.435	0.1115	0.0019	-0.072
Mof_C 	C 	0.4977	0.1105	0.0624	-0
Mof_C 	C 	0.4356	0.0785	0.1865	-0.093
Mof_C 	C 	0.3108	0.0482	0.2452	-0.023
Mof_C 	C 	0.5045	0.07	0.2543	0.363
Mof_C 	C 	0.2474	0.0469	0.1855	-0.015
Mof_C 	C 	0.2035	0.1079	0.5334	-0.039
Mof_C 	C 	0.1131	0.1054	0.5027	0.045
Mof_C 	C 	0.0474	0.0013	0.5169	-0.238
Mof_C 	C 	0.0776	0.9008	0.5648	0.094
Mof_C 	C 	0.168	0.9052	0.5944	0.012
Mof_C 	C 	0.4314	0.7602	0.4986	0.364
Mof_C 	C 	0.3586	0.628	0.563	-0.082
Mof_C 	C 	0.3866	0.5631	0.5019	-0.013
Mof_C 	C 	0.3271	0.4399	0.5624	-0.025
Mof_C 	C 	0.235	0.3779	0.6865	-0.068
Mof_C 	C 	0.2066	0.444	0.7452	-0.026
Mof_C 	C 	0.1757	0.2412	0.7543	0.355
Mof_C 	C 	0.2676	0.5671	0.6855	-0.011
Mof_C 	C 	0.8587	0.2631	0.0334	0.11
Mof_C 	C 	0.8919	0.3842	0.0027	-0.216
Mof_C 	C 	0.9818	0.4357	0.0169	0.138
Mof_C 	C 	0.0344	0.3576	0.0648	-0.198
Mof_C 	C 	0.0004	0.2376	0.0944	0.07
Mof_C 	C 	0.7588	0.93	0.0014	0.31
Mof_C 	C 	0.691	0.9216	0.937	-0.058
Mof_C 	C 	0.565	0.8885	0.9981	0.052
Mof_C 	C 	0.5023	0.8895	0.9376	-0.05
Mof_C 	C 	0.5644	0.9215	0.8135	-0.048
Mof_C 	C 	0.6892	0.9518	0.7548	-0.023
Mof_C 	C 	0.4955	0.93	0.7457	0.356
Mof_C 	C 	0.7526	0.9531	0.8145	-0.013
Mof_C 	C 	0.7965	0.8921	0.4666	0.158
Mof_C 	C 	0.8869	0.8946	0.4973	-0.269
Mof_C 	C 	0.9526	0.9987	0.4831	0.325
Mof_C 	C 	0.9224	0.0992	0.4352	-0.324
Mof_C 	C 	0.832	0.0948	0.4056	0.118
Mof_N 	N 	0.0865	0.8077	0.92	-0.057
Mof_N 	N 	0.2277	0.0065	0.58	-0.059
Mof_N 	N 	0.9135	0.1923	0.08	-0.073
Mof_N 	N 	0.7723	0.9935	0.42	-0.079
Mof_O 	O 	0.4884	0.1901	0.6149	-0.385
Mof_O 	O 	0.5907	0.1863	0.439	-0.365
Mof_O 	O 	0.1205	0.9256	0.8867	-0.233
Mof_O 	O 	0.7778	0.8138	0.3014	-0.372
Mof_O 	O 	0.9156	0.808	0.139	-0.331
Mof_O 	O 	0.305	0.1033	0.8851	-0.394
Mof_O 	O 	0.1253	0.0297	0.061	-0.4
Mof_O 	O 	0.3123	0.0072	0.6133	-0.296
Mof_O 	O 	0.6152	0.0792	0.1986	-0.404
Mof_O 	O 	0.447	0.0546	0.361	-0.365
Mof_O 	O 	0.5116	0.8099	0.3851	-0.379
Mof_O 	O 	0.4093	0.8137	0.561	-0.343
Mof_O 	O 	0.8795	0.0744	0.1133	-0.29
Mof_O 	O 	0.2222	0.1862	0.6986	-0.379
Mof_O 	O 	0.0844	0.192	0.861	-0.343
Mof_O 	O 	0.695	0.8967	0.1149	-0.365
Mof_O 	O 	0.8747	0.9703	0.939	-0.289
Mof_O 	O 	0.6877	0.9928	0.3867	-0.252
Mof_O 	O 	0.3848	0.9208	0.8014	-0.348
Mof_O 	O 	0.553	0.9454	0.639	-0.329
_end
