data_functionalizedCrystal
_audit_creation_method	'EQeq! by Chris Wilmer'
_symmetry_space_group_name_H-M	'P1'
_symmetry_Int_Tables_number	1
_symmetry_cell_setting	triclinic
loop_
_symmetry_equiv_pos_as_xyz
  x,y,z
_cell_length_a	33.9418
_cell_length_b	33.9418
_cell_length_c	14.2185
_cell_angle_alpha	90
_cell_angle_beta	90
_cell_angle_gamma	120
loop_
_atom_site_label
_atom_site_type_symbol
_atom_site_fract_x
_atom_site_fract_y
_atom_site_fract_z
_atom_site_charge
Mof_Zn	Zn	0.34026	0.07965	0.62148	1.233
Mof_O 	O 	0.32122	0.12296	0.57839	-0.48
Mof_O 	O 	0.29731	0.01927	0.57878	-0.509
Mof_O 	O 	0.40331	0.10776	0.57848	-0.499
Mof_O 	O 	0.62474	0.27262	0.42188	-0.45
Mof_O 	O 	0.33526	0.08823	0.75496	-0.438
Mof_O 	O 	0.36732	0.04584	0.76078	-0.321
Mof_O 	O 	0.67733	0.30655	0.2508	-0.208
Mof_O 	O 	0.65317	0.35623	0.2522	-0.316
Mof_C 	C 	0.32807	0.24987	0.5857	0.047
Mof_C 	C 	0.3465	0.28346	0.6547	-0.079
Mof_H 	H 	0.3407	0.3081	0.6539	0.074
Mof_C 	C 	0.37353	0.2804	0.72499	-0.023
Mof_H 	H 	0.3861	0.3029	0.7729	0.043
Mof_C 	C 	0.38214	0.24452	0.725	-0.03
Mof_H 	H 	0.4004	0.2425	0.7732	0.041
Mof_C 	C 	0.36443	0.21182	0.65565	-0.07
Mof_H 	H 	0.371	0.1877	0.6557	0.062
Mof_C 	C 	0.33689	0.21404	0.58518	0.04
Mof_C 	C 	0.54701	0.18111	0.41601	0.048
Mof_C 	C 	0.57699	0.18006	0.3509	-0.077
Mof_H 	H 	0.608	0.2035	0.3502	0.083
Mof_C 	C 	0.56103	0.14407	0.2864	-0.026
Mof_H 	H 	0.5811	0.143	0.2414	0.04
Mof_C 	C 	0.51565	0.10991	0.2887	-0.023
Mof_H 	H 	0.5052	0.0852	0.246	0.037
Mof_C 	C 	0.48558	0.11131	0.3517	-0.08
Mof_H 	H 	0.4545	0.0882	0.3512	0.075
Mof_C 	C 	0.50108	0.14691	0.4163	0.047
Mof_C 	C 	0.35692	0.07445	0.9075	-0.101
Mof_C 	C 	0.35353	0.1148	0.95108	0.042
Mof_C 	C 	0.35374	0.15047	0.9031	-0.077
Mof_H 	H 	0.3535	0.1504	0.8362	0.078
Mof_C 	C 	0.35428	0.1863	0.9517	-0.022
Mof_H 	H 	0.3543	0.2081	0.9085	0.038
Mof_C 	C 	0.40037	0.07953	0.95043	0.041
Mof_C 	C 	0.43897	0.08706	0.9025	-0.076
Mof_H 	H 	0.4393	0.0878	0.8357	0.072
Mof_C 	C 	0.47684	0.0935	0.9505	-0.022
Mof_H 	H 	0.5004	0.0977	0.9073	0.036
Mof_C 	C 	0.31721	0.03234	0.95132	0.039
Mof_C 	C 	0.28282	0.99579	0.9021	-0.072
Mof_H 	H 	0.2826	0.9957	0.8353	0.066
Mof_C 	C 	0.24929	0.95996	0.9513	-0.024
Mof_H 	H 	0.2281	0.9373	0.9087	0.042
Mof_C 	C 	0.35393	0.0696	0.79963	0.325
Mof_C 	C 	0.63875	0.28679	0.0471	0.062
Mof_C 	C 	0.61123	0.24485	0.0983	-0.084
Mof_H 	H 	0.6096	0.2449	0.165	0.104
Mof_C 	C 	0.58727	0.20453	0.0482	-0.017
Mof_H 	H 	0.5713	0.1797	0.0911	0.038
Mof_Zn	Zn	0.92035	0.2606	0.62148	1.233
Mof_O 	O 	0.87704	0.19826	0.57839	-0.48
Mof_O 	O 	0.98073	0.27804	0.57878	-0.509
Mof_O 	O 	0.89224	0.29555	0.57848	-0.499
Mof_O 	O 	0.72738	0.35212	0.42188	-0.45
Mof_O 	O 	0.91177	0.24703	0.75496	-0.438
Mof_O 	O 	0.95416	0.32148	0.76078	-0.321
Mof_O 	O 	0.69345	0.37078	0.2508	-0.208
Mof_O 	O 	0.64377	0.29694	0.2522	-0.316
Mof_C 	C 	0.75013	0.0782	0.5857	0.047
Mof_C 	C 	0.71654	0.06304	0.6547	-0.079
Mof_H 	H 	0.6919	0.0326	0.6539	0.074
Mof_C 	C 	0.7196	0.09313	0.72499	-0.023
Mof_H 	H 	0.6971	0.0832	0.7729	0.043
Mof_C 	C 	0.75548	0.13762	0.725	-0.03
Mof_H 	H 	0.7575	0.1579	0.7732	0.041
Mof_C 	C 	0.78818	0.15261	0.65565	-0.07
Mof_H 	H 	0.8123	0.1833	0.6557	0.062
Mof_C 	C 	0.78596	0.12285	0.58518	0.04
Mof_C 	C 	0.81889	0.3659	0.41601	0.048
Mof_C 	C 	0.81994	0.39693	0.3509	-0.077
Mof_H 	H 	0.7965	0.4045	0.3502	0.083
Mof_C 	C 	0.85593	0.41696	0.2864	-0.026
Mof_H 	H 	0.857	0.4381	0.2414	0.04
Mof_C 	C 	0.89009	0.40574	0.2887	-0.023
Mof_H 	H 	0.9148	0.42	0.246	0.037
Mof_C 	C 	0.88869	0.37427	0.3517	-0.08
Mof_H 	H 	0.9118	0.3663	0.3512	0.075
Mof_C 	C 	0.85309	0.35417	0.4163	0.047
Mof_C 	C 	0.92555	0.28247	0.9075	-0.101
Mof_C 	C 	0.8852	0.23873	0.95108	0.042
Mof_C 	C 	0.84953	0.20327	0.9031	-0.077
Mof_H 	H 	0.8496	0.2031	0.8362	0.078
Mof_C 	C 	0.8137	0.16798	0.9517	-0.022
Mof_H 	H 	0.7919	0.1462	0.9085	0.038
Mof_C 	C 	0.92047	0.32084	0.95043	0.041
Mof_C 	C 	0.91294	0.35191	0.9025	-0.076
Mof_H 	H 	0.9122	0.3515	0.8357	0.072
Mof_C 	C 	0.9065	0.38334	0.9505	-0.022
Mof_H 	H 	0.9023	0.4027	0.9073	0.036
Mof_C 	C 	0.96766	0.28487	0.95132	0.039
Mof_C 	C 	0.00421	0.28703	0.9021	-0.072
Mof_H 	H 	0.0043	0.2869	0.8353	0.066
Mof_C 	C 	0.04004	0.28933	0.9513	-0.024
Mof_H 	H 	0.0627	0.2908	0.9087	0.042
Mof_C 	C 	0.9304	0.28433	0.79963	0.325
Mof_C 	C 	0.71321	0.35196	0.0471	0.062
Mof_C 	C 	0.75515	0.36638	0.0983	-0.084
Mof_H 	H 	0.7551	0.3647	0.165	0.104
Mof_C 	C 	0.79547	0.38274	0.0482	-0.017
Mof_H 	H 	0.8203	0.3916	0.0911	0.038
Mof_Zn	Zn	0.7394	0.65974	0.62148	1.233
Mof_O 	O 	0.80174	0.67878	0.57839	-0.48
Mof_O 	O 	0.72196	0.70269	0.57878	-0.509
Mof_O 	O 	0.70445	0.59669	0.57848	-0.499
Mof_O 	O 	0.64788	0.37526	0.42188	-0.45
Mof_O 	O 	0.75297	0.66474	0.75496	-0.438
Mof_O 	O 	0.67852	0.63268	0.76078	-0.321
Mof_O 	O 	0.62922	0.32267	0.2508	-0.208
Mof_O 	O 	0.70306	0.34683	0.2522	-0.316
Mof_C 	C 	0.9218	0.67193	0.5857	0.047
Mof_C 	C 	0.93696	0.6535	0.6547	-0.079
Mof_H 	H 	0.9674	0.6593	0.6539	0.074
Mof_C 	C 	0.90687	0.62647	0.72499	-0.023
Mof_H 	H 	0.9168	0.6139	0.7729	0.043
Mof_C 	C 	0.86238	0.61786	0.725	-0.03
Mof_H 	H 	0.8421	0.5996	0.7732	0.041
Mof_C 	C 	0.84739	0.63557	0.65565	-0.07
Mof_H 	H 	0.8167	0.629	0.6557	0.062
Mof_C 	C 	0.87715	0.66311	0.58518	0.04
Mof_C 	C 	0.6341	0.45299	0.41601	0.048
Mof_C 	C 	0.60307	0.42301	0.3509	-0.077
Mof_H 	H 	0.5955	0.392	0.3502	0.083
Mof_C 	C 	0.58304	0.43897	0.2864	-0.026
Mof_H 	H 	0.5619	0.4189	0.2414	0.04
Mof_C 	C 	0.59426	0.48435	0.2887	-0.023
Mof_H 	H 	0.58	0.4948	0.246	0.037
Mof_C 	C 	0.62573	0.51442	0.3517	-0.08
Mof_H 	H 	0.6337	0.5455	0.3512	0.075
Mof_C 	C 	0.64583	0.49892	0.4163	0.047
Mof_C 	C 	0.71753	0.64308	0.9075	-0.101
Mof_C 	C 	0.76127	0.64647	0.95108	0.042
Mof_C 	C 	0.79673	0.64626	0.9031	-0.077
Mof_H 	H 	0.7969	0.6465	0.8362	0.078
Mof_C 	C 	0.83202	0.64572	0.9517	-0.022
Mof_H 	H 	0.8538	0.6457	0.9085	0.038
Mof_C 	C 	0.67916	0.59963	0.95043	0.041
Mof_C 	C 	0.64809	0.56103	0.9025	-0.076
Mof_H 	H 	0.6485	0.5607	0.8357	0.072
Mof_C 	C 	0.61666	0.52316	0.9505	-0.022
Mof_H 	H 	0.5973	0.4996	0.9073	0.036
Mof_C 	C 	0.71513	0.68279	0.95132	0.039
Mof_C 	C 	0.71297	0.71718	0.9021	-0.072
Mof_H 	H 	0.7131	0.7174	0.8353	0.066
Mof_C 	C 	0.71067	0.75071	0.9513	-0.024
Mof_H 	H 	0.7092	0.7719	0.9087	0.042
Mof_C 	C 	0.71567	0.64607	0.79963	0.325
Mof_C 	C 	0.64804	0.36125	0.0471	0.062
Mof_C 	C 	0.63362	0.38877	0.0983	-0.084
Mof_H 	H 	0.6353	0.3904	0.165	0.104
Mof_C 	C 	0.61726	0.41273	0.0482	-0.017
Mof_H 	H 	0.6084	0.4287	0.0911	0.038
Mof_Zn	Zn	0.65974	0.92035	0.62148	1.233
Mof_O 	O 	0.67878	0.87704	0.57839	-0.48
Mof_O 	O 	0.70269	0.98073	0.57878	-0.509
Mof_O 	O 	0.59669	0.89224	0.57848	-0.499
Mof_O 	O 	0.37526	0.72738	0.42188	-0.45
Mof_O 	O 	0.66474	0.91177	0.75496	-0.438
Mof_O 	O 	0.63268	0.95416	0.76078	-0.321
Mof_O 	O 	0.32267	0.69345	0.2508	-0.208
Mof_O 	O 	0.34683	0.64377	0.2522	-0.316
Mof_C 	C 	0.67193	0.75013	0.5857	0.047
Mof_C 	C 	0.6535	0.71654	0.6547	-0.079
Mof_H 	H 	0.6593	0.6919	0.6539	0.074
Mof_C 	C 	0.62647	0.7196	0.72499	-0.023
Mof_H 	H 	0.6139	0.6971	0.7729	0.043
Mof_C 	C 	0.61786	0.75548	0.725	-0.03
Mof_H 	H 	0.5996	0.7575	0.7732	0.041
Mof_C 	C 	0.63557	0.78818	0.65565	-0.07
Mof_H 	H 	0.629	0.8123	0.6557	0.062
Mof_C 	C 	0.66311	0.78596	0.58518	0.04
Mof_C 	C 	0.45299	0.81889	0.41601	0.048
Mof_C 	C 	0.42301	0.81994	0.3509	-0.077
Mof_H 	H 	0.392	0.7965	0.3502	0.083
Mof_C 	C 	0.43897	0.85593	0.2864	-0.026
Mof_H 	H 	0.4189	0.857	0.2414	0.04
Mof_C 	C 	0.48435	0.89009	0.2887	-0.023
Mof_H 	H 	0.4948	0.9148	0.246	0.037
Mof_C 	C 	0.51442	0.88869	0.3517	-0.08
Mof_H 	H 	0.5455	0.9118	0.3512	0.075
Mof_C 	C 	0.49892	0.85309	0.4163	0.047
Mof_C 	C 	0.64308	0.92555	0.9075	-0.101
Mof_C 	C 	0.64647	0.8852	0.95108	0.042
Mof_C 	C 	0.64626	0.84953	0.9031	-0.077
Mof_H 	H 	0.6465	0.8496	0.8362	0.078
Mof_C 	C 	0.64572	0.8137	0.9517	-0.022
Mof_H 	H 	0.6457	0.7919	0.9085	0.038
Mof_C 	C 	0.59963	0.92047	0.95043	0.041
Mof_C 	C 	0.56103	0.91294	0.9025	-0.076
Mof_H 	H 	0.5607	0.9122	0.8357	0.072
Mof_C 	C 	0.52316	0.9065	0.9505	-0.022
Mof_H 	H 	0.4996	0.9023	0.9073	0.036
Mof_C 	C 	0.68279	0.96766	0.95132	0.039
Mof_C 	C 	0.71718	0.00421	0.9021	-0.072
Mof_H 	H 	0.7174	0.0043	0.8353	0.066
Mof_C 	C 	0.75071	0.04004	0.9513	-0.024
Mof_H 	H 	0.7719	0.0627	0.9087	0.042
Mof_C 	C 	0.64607	0.9304	0.79963	0.325
Mof_C 	C 	0.36125	0.71321	0.0471	0.062
Mof_C 	C 	0.38877	0.75515	0.0983	-0.084
Mof_H 	H 	0.3904	0.7551	0.165	0.104
Mof_C 	C 	0.41273	0.79547	0.0482	-0.017
Mof_H 	H 	0.4287	0.8203	0.0911	0.038
Mof_Zn	Zn	0.07965	0.7394	0.62148	1.233
Mof_O 	O 	0.12296	0.80174	0.57839	-0.48
Mof_O 	O 	0.01927	0.72196	0.57878	-0.509
Mof_O 	O 	0.10776	0.70445	0.57848	-0.499
Mof_O 	O 	0.27262	0.64788	0.42188	-0.45
Mof_O 	O 	0.08823	0.75297	0.75496	-0.438
Mof_O 	O 	0.04584	0.67852	0.76078	-0.321
Mof_O 	O 	0.30655	0.62922	0.2508	-0.208
Mof_O 	O 	0.35623	0.70306	0.2522	-0.316
Mof_C 	C 	0.24987	0.9218	0.5857	0.047
Mof_C 	C 	0.28346	0.93696	0.6547	-0.079
Mof_H 	H 	0.3081	0.9674	0.6539	0.074
Mof_C 	C 	0.2804	0.90687	0.72499	-0.023
Mof_H 	H 	0.3029	0.9168	0.7729	0.043
Mof_C 	C 	0.24452	0.86238	0.725	-0.03
Mof_H 	H 	0.2425	0.8421	0.7732	0.041
Mof_C 	C 	0.21182	0.84739	0.65565	-0.07
Mof_H 	H 	0.1877	0.8167	0.6557	0.062
Mof_C 	C 	0.21404	0.87715	0.58518	0.04
Mof_C 	C 	0.18111	0.6341	0.41601	0.048
Mof_C 	C 	0.18006	0.60307	0.3509	-0.077
Mof_H 	H 	0.2035	0.5955	0.3502	0.083
Mof_C 	C 	0.14407	0.58304	0.2864	-0.026
Mof_H 	H 	0.143	0.5619	0.2414	0.04
Mof_C 	C 	0.10991	0.59426	0.2887	-0.023
Mof_H 	H 	0.0852	0.58	0.246	0.037
Mof_C 	C 	0.11131	0.62573	0.3517	-0.08
Mof_H 	H 	0.0882	0.6337	0.3512	0.075
Mof_C 	C 	0.14691	0.64583	0.4163	0.047
Mof_C 	C 	0.07445	0.71753	0.9075	-0.101
Mof_C 	C 	0.1148	0.76127	0.95108	0.042
Mof_C 	C 	0.15047	0.79673	0.9031	-0.077
Mof_H 	H 	0.1504	0.7969	0.8362	0.078
Mof_C 	C 	0.1863	0.83202	0.9517	-0.022
Mof_H 	H 	0.2081	0.8538	0.9085	0.038
Mof_C 	C 	0.07953	0.67916	0.95043	0.041
Mof_C 	C 	0.08706	0.64809	0.9025	-0.076
Mof_H 	H 	0.0878	0.6485	0.8357	0.072
Mof_C 	C 	0.0935	0.61666	0.9505	-0.022
Mof_H 	H 	0.0977	0.5973	0.9073	0.036
Mof_C 	C 	0.03234	0.71513	0.95132	0.039
Mof_C 	C 	0.99579	0.71297	0.9021	-0.072
Mof_H 	H 	0.9957	0.7131	0.8353	0.066
Mof_C 	C 	0.95996	0.71067	0.9513	-0.024
Mof_H 	H 	0.9373	0.7092	0.9087	0.042
Mof_C 	C 	0.0696	0.71567	0.79963	0.325
Mof_C 	C 	0.28679	0.64804	0.0471	0.062
Mof_C 	C 	0.24485	0.63362	0.0983	-0.084
Mof_H 	H 	0.2449	0.6353	0.165	0.104
Mof_C 	C 	0.20453	0.61726	0.0482	-0.017
Mof_H 	H 	0.1797	0.6084	0.0911	0.038
Mof_Zn	Zn	0.2606	0.34026	0.62148	1.233
Mof_O 	O 	0.19826	0.32122	0.57839	-0.48
Mof_O 	O 	0.27804	0.29731	0.57878	-0.509
Mof_O 	O 	0.29555	0.40331	0.57848	-0.499
Mof_O 	O 	0.35212	0.62474	0.42188	-0.45
Mof_O 	O 	0.24703	0.33526	0.75496	-0.438
Mof_O 	O 	0.32148	0.36732	0.76078	-0.321
Mof_O 	O 	0.37078	0.67733	0.2508	-0.208
Mof_O 	O 	0.29694	0.65317	0.2522	-0.316
Mof_C 	C 	0.0782	0.32807	0.5857	0.047
Mof_C 	C 	0.06304	0.3465	0.6547	-0.079
Mof_H 	H 	0.0326	0.3407	0.6539	0.074
Mof_C 	C 	0.09313	0.37353	0.72499	-0.023
Mof_H 	H 	0.0832	0.3861	0.7729	0.043
Mof_C 	C 	0.13762	0.38214	0.725	-0.03
Mof_H 	H 	0.1579	0.4004	0.7732	0.041
Mof_C 	C 	0.15261	0.36443	0.65565	-0.07
Mof_H 	H 	0.1833	0.371	0.6557	0.062
Mof_C 	C 	0.12285	0.33689	0.58518	0.04
Mof_C 	C 	0.3659	0.54701	0.41601	0.048
Mof_C 	C 	0.39693	0.57699	0.3509	-0.077
Mof_H 	H 	0.4045	0.608	0.3502	0.083
Mof_C 	C 	0.41696	0.56103	0.2864	-0.026
Mof_H 	H 	0.4381	0.5811	0.2414	0.04
Mof_C 	C 	0.40574	0.51565	0.2887	-0.023
Mof_H 	H 	0.42	0.5052	0.246	0.037
Mof_C 	C 	0.37427	0.48558	0.3517	-0.08
Mof_H 	H 	0.3663	0.4545	0.3512	0.075
Mof_C 	C 	0.35417	0.50108	0.4163	0.047
Mof_C 	C 	0.28247	0.35692	0.9075	-0.101
Mof_C 	C 	0.23873	0.35353	0.95108	0.042
Mof_C 	C 	0.20327	0.35374	0.9031	-0.077
Mof_H 	H 	0.2031	0.3535	0.8362	0.078
Mof_C 	C 	0.16798	0.35428	0.9517	-0.022
Mof_H 	H 	0.1462	0.3543	0.9085	0.038
Mof_C 	C 	0.32084	0.40037	0.95043	0.041
Mof_C 	C 	0.35191	0.43897	0.9025	-0.076
Mof_H 	H 	0.3515	0.4393	0.8357	0.072
Mof_C 	C 	0.38334	0.47684	0.9505	-0.022
Mof_H 	H 	0.4027	0.5004	0.9073	0.036
Mof_C 	C 	0.28487	0.31721	0.95132	0.039
Mof_C 	C 	0.28703	0.28282	0.9021	-0.072
Mof_H 	H 	0.2869	0.2826	0.8353	0.066
Mof_C 	C 	0.28933	0.24929	0.9513	-0.024
Mof_H 	H 	0.2908	0.2281	0.9087	0.042
Mof_C 	C 	0.28433	0.35393	0.79963	0.325
Mof_C 	C 	0.35196	0.63875	0.0471	0.062
Mof_C 	C 	0.36638	0.61123	0.0983	-0.084
Mof_H 	H 	0.3647	0.6096	0.165	0.104
Mof_C 	C 	0.38274	0.58727	0.0482	-0.017
Mof_H 	H 	0.3916	0.5713	0.0911	0.038
Mof_Zn	Zn	0.65974	0.92035	0.37852	1.233
Mof_O 	O 	0.67878	0.87704	0.42161	-0.48
Mof_O 	O 	0.70269	0.98073	0.42122	-0.509
Mof_O 	O 	0.59669	0.89224	0.42152	-0.499
Mof_O 	O 	0.37526	0.72738	0.57812	-0.45
Mof_O 	O 	0.66474	0.91177	0.24504	-0.438
Mof_O 	O 	0.63268	0.95416	0.23922	-0.321
Mof_O 	O 	0.32267	0.69345	0.7492	-0.208
Mof_O 	O 	0.34683	0.64377	0.7478	-0.316
Mof_C 	C 	0.67193	0.75013	0.4143	0.047
Mof_C 	C 	0.6535	0.71654	0.3453	-0.079
Mof_H 	H 	0.6593	0.6919	0.3461	0.074
Mof_C 	C 	0.62647	0.7196	0.27501	-0.023
Mof_H 	H 	0.6139	0.6971	0.2271	0.043
Mof_C 	C 	0.61786	0.75548	0.275	-0.03
Mof_H 	H 	0.5996	0.7575	0.2268	0.041
Mof_C 	C 	0.63557	0.78818	0.34435	-0.07
Mof_H 	H 	0.629	0.8123	0.3443	0.062
Mof_C 	C 	0.66311	0.78596	0.41482	0.04
Mof_C 	C 	0.45299	0.81889	0.58399	0.048
Mof_C 	C 	0.42301	0.81994	0.6491	-0.077
Mof_H 	H 	0.392	0.7965	0.6498	0.083
Mof_C 	C 	0.43897	0.85593	0.7136	-0.026
Mof_H 	H 	0.4189	0.857	0.7586	0.04
Mof_C 	C 	0.48435	0.89009	0.7113	-0.023
Mof_H 	H 	0.4948	0.9148	0.754	0.037
Mof_C 	C 	0.51442	0.88869	0.6483	-0.08
Mof_H 	H 	0.5455	0.9118	0.6488	0.075
Mof_C 	C 	0.49892	0.85309	0.5837	0.047
Mof_C 	C 	0.64308	0.92555	0.0925	-0.101
Mof_C 	C 	0.64647	0.8852	0.04892	0.042
Mof_C 	C 	0.64626	0.84953	0.0969	-0.077
Mof_H 	H 	0.6465	0.8496	0.1638	0.078
Mof_C 	C 	0.64572	0.8137	0.0483	-0.022
Mof_H 	H 	0.6457	0.7919	0.0915	0.038
Mof_C 	C 	0.59963	0.92047	0.04957	0.041
Mof_C 	C 	0.56103	0.91294	0.0975	-0.076
Mof_H 	H 	0.5607	0.9122	0.1643	0.072
Mof_C 	C 	0.52316	0.9065	0.0495	-0.022
Mof_H 	H 	0.4996	0.9023	0.0927	0.036
Mof_C 	C 	0.68279	0.96766	0.04868	0.039
Mof_C 	C 	0.71718	0.00421	0.0979	-0.072
Mof_H 	H 	0.7174	0.0043	0.1647	0.066
Mof_C 	C 	0.75071	0.04004	0.0487	-0.024
Mof_H 	H 	0.7719	0.0627	0.0913	0.042
Mof_C 	C 	0.64607	0.9304	0.20037	0.325
Mof_C 	C 	0.36125	0.71321	0.9529	0.062
Mof_C 	C 	0.38877	0.75515	0.9017	-0.084
Mof_H 	H 	0.3904	0.7551	0.835	0.104
Mof_C 	C 	0.41273	0.79547	0.9518	-0.017
Mof_H 	H 	0.4287	0.8203	0.9089	0.038
Mof_Zn	Zn	0.07965	0.7394	0.37852	1.233
Mof_O 	O 	0.12296	0.80174	0.42161	-0.48
Mof_O 	O 	0.01927	0.72196	0.42122	-0.509
Mof_O 	O 	0.10776	0.70445	0.42152	-0.499
Mof_O 	O 	0.27262	0.64788	0.57812	-0.45
Mof_O 	O 	0.08823	0.75297	0.24504	-0.438
Mof_O 	O 	0.04584	0.67852	0.23922	-0.321
Mof_O 	O 	0.30655	0.62922	0.7492	-0.208
Mof_O 	O 	0.35623	0.70306	0.7478	-0.316
Mof_C 	C 	0.24987	0.9218	0.4143	0.047
Mof_C 	C 	0.28346	0.93696	0.3453	-0.079
Mof_H 	H 	0.3081	0.9674	0.3461	0.074
Mof_C 	C 	0.2804	0.90687	0.27501	-0.023
Mof_H 	H 	0.3029	0.9168	0.2271	0.043
Mof_C 	C 	0.24452	0.86238	0.275	-0.03
Mof_H 	H 	0.2425	0.8421	0.2268	0.041
Mof_C 	C 	0.21182	0.84739	0.34435	-0.07
Mof_H 	H 	0.1877	0.8167	0.3443	0.062
Mof_C 	C 	0.21404	0.87715	0.41482	0.04
Mof_C 	C 	0.18111	0.6341	0.58399	0.048
Mof_C 	C 	0.18006	0.60307	0.6491	-0.077
Mof_H 	H 	0.2035	0.5955	0.6498	0.083
Mof_C 	C 	0.14407	0.58304	0.7136	-0.026
Mof_H 	H 	0.143	0.5619	0.7586	0.04
Mof_C 	C 	0.10991	0.59426	0.7113	-0.023
Mof_H 	H 	0.0852	0.58	0.754	0.037
Mof_C 	C 	0.11131	0.62573	0.6483	-0.08
Mof_H 	H 	0.0882	0.6337	0.6488	0.075
Mof_C 	C 	0.14691	0.64583	0.5837	0.047
Mof_C 	C 	0.07445	0.71753	0.0925	-0.101
Mof_C 	C 	0.1148	0.76127	0.04892	0.042
Mof_C 	C 	0.15047	0.79673	0.0969	-0.077
Mof_H 	H 	0.1504	0.7969	0.1638	0.078
Mof_C 	C 	0.1863	0.83202	0.0483	-0.022
Mof_H 	H 	0.2081	0.8538	0.0915	0.038
Mof_C 	C 	0.07953	0.67916	0.04957	0.041
Mof_C 	C 	0.08706	0.64809	0.0975	-0.076
Mof_H 	H 	0.0878	0.6485	0.1643	0.072
Mof_C 	C 	0.0935	0.61666	0.0495	-0.022
Mof_H 	H 	0.0977	0.5973	0.0927	0.036
Mof_C 	C 	0.03234	0.71513	0.04868	0.039
Mof_C 	C 	0.99579	0.71297	0.0979	-0.072
Mof_H 	H 	0.9957	0.7131	0.1647	0.066
Mof_C 	C 	0.95996	0.71067	0.0487	-0.024
Mof_H 	H 	0.9373	0.7092	0.0913	0.042
Mof_C 	C 	0.0696	0.71567	0.20037	0.325
Mof_C 	C 	0.28679	0.64804	0.9529	0.062
Mof_C 	C 	0.24485	0.63362	0.9017	-0.084
Mof_H 	H 	0.2449	0.6353	0.835	0.104
Mof_C 	C 	0.20453	0.61726	0.9518	-0.017
Mof_H 	H 	0.1797	0.6084	0.9089	0.038
Mof_Zn	Zn	0.2606	0.34026	0.37852	1.233
Mof_O 	O 	0.19826	0.32122	0.42161	-0.48
Mof_O 	O 	0.27804	0.29731	0.42122	-0.509
Mof_O 	O 	0.29555	0.40331	0.42152	-0.499
Mof_O 	O 	0.35212	0.62474	0.57812	-0.45
Mof_O 	O 	0.24703	0.33526	0.24504	-0.438
Mof_O 	O 	0.32148	0.36732	0.23922	-0.321
Mof_O 	O 	0.37078	0.67733	0.7492	-0.208
Mof_O 	O 	0.29694	0.65317	0.7478	-0.316
Mof_C 	C 	0.0782	0.32807	0.4143	0.047
Mof_C 	C 	0.06304	0.3465	0.3453	-0.079
Mof_H 	H 	0.0326	0.3407	0.3461	0.074
Mof_C 	C 	0.09313	0.37353	0.27501	-0.023
Mof_H 	H 	0.0832	0.3861	0.2271	0.043
Mof_C 	C 	0.13762	0.38214	0.275	-0.03
Mof_H 	H 	0.1579	0.4004	0.2268	0.041
Mof_C 	C 	0.15261	0.36443	0.34435	-0.07
Mof_H 	H 	0.1833	0.371	0.3443	0.062
Mof_C 	C 	0.12285	0.33689	0.41482	0.04
Mof_C 	C 	0.3659	0.54701	0.58399	0.048
Mof_C 	C 	0.39693	0.57699	0.6491	-0.077
Mof_H 	H 	0.4045	0.608	0.6498	0.083
Mof_C 	C 	0.41696	0.56103	0.7136	-0.026
Mof_H 	H 	0.4381	0.5811	0.7586	0.04
Mof_C 	C 	0.40574	0.51565	0.7113	-0.023
Mof_H 	H 	0.42	0.5052	0.754	0.037
Mof_C 	C 	0.37427	0.48558	0.6483	-0.08
Mof_H 	H 	0.3663	0.4545	0.6488	0.075
Mof_C 	C 	0.35417	0.50108	0.5837	0.047
Mof_C 	C 	0.28247	0.35692	0.0925	-0.101
Mof_C 	C 	0.23873	0.35353	0.04892	0.042
Mof_C 	C 	0.20327	0.35374	0.0969	-0.077
Mof_H 	H 	0.2031	0.3535	0.1638	0.078
Mof_C 	C 	0.16798	0.35428	0.0483	-0.022
Mof_H 	H 	0.1462	0.3543	0.0915	0.038
Mof_C 	C 	0.32084	0.40037	0.04957	0.041
Mof_C 	C 	0.35191	0.43897	0.0975	-0.076
Mof_H 	H 	0.3515	0.4393	0.1643	0.072
Mof_C 	C 	0.38334	0.47684	0.0495	-0.022
Mof_H 	H 	0.4027	0.5004	0.0927	0.036
Mof_C 	C 	0.28487	0.31721	0.04868	0.039
Mof_C 	C 	0.28703	0.28282	0.0979	-0.072
Mof_H 	H 	0.2869	0.2826	0.1647	0.066
Mof_C 	C 	0.28933	0.24929	0.0487	-0.024
Mof_H 	H 	0.2908	0.2281	0.0913	0.042
Mof_C 	C 	0.28433	0.35393	0.20037	0.325
Mof_C 	C 	0.35196	0.63875	0.9529	0.062
Mof_C 	C 	0.36638	0.61123	0.9017	-0.084
Mof_H 	H 	0.3647	0.6096	0.835	0.104
Mof_C 	C 	0.38274	0.58727	0.9518	-0.017
Mof_H 	H 	0.3916	0.5713	0.9089	0.038
Mof_Zn	Zn	0.34026	0.07965	0.37852	1.233
Mof_O 	O 	0.32122	0.12296	0.42161	-0.48
Mof_O 	O 	0.29731	0.01927	0.42122	-0.509
Mof_O 	O 	0.40331	0.10776	0.42152	-0.499
Mof_O 	O 	0.62474	0.27262	0.57812	-0.45
Mof_O 	O 	0.33526	0.08823	0.24504	-0.438
Mof_O 	O 	0.36732	0.04584	0.23922	-0.321
Mof_O 	O 	0.67733	0.30655	0.7492	-0.208
Mof_O 	O 	0.65317	0.35623	0.7478	-0.316
Mof_C 	C 	0.32807	0.24987	0.4143	0.047
Mof_C 	C 	0.3465	0.28346	0.3453	-0.079
Mof_H 	H 	0.3407	0.3081	0.3461	0.074
Mof_C 	C 	0.37353	0.2804	0.27501	-0.023
Mof_H 	H 	0.3861	0.3029	0.2271	0.043
Mof_C 	C 	0.38214	0.24452	0.275	-0.03
Mof_H 	H 	0.4004	0.2425	0.2268	0.041
Mof_C 	C 	0.36443	0.21182	0.34435	-0.07
Mof_H 	H 	0.371	0.1877	0.3443	0.062
Mof_C 	C 	0.33689	0.21404	0.41482	0.04
Mof_C 	C 	0.54701	0.18111	0.58399	0.048
Mof_C 	C 	0.57699	0.18006	0.6491	-0.077
Mof_H 	H 	0.608	0.2035	0.6498	0.083
Mof_C 	C 	0.56103	0.14407	0.7136	-0.026
Mof_H 	H 	0.5811	0.143	0.7586	0.04
Mof_C 	C 	0.51565	0.10991	0.7113	-0.023
Mof_H 	H 	0.5052	0.0852	0.754	0.037
Mof_C 	C 	0.48558	0.11131	0.6483	-0.08
Mof_H 	H 	0.4545	0.0882	0.6488	0.075
Mof_C 	C 	0.50108	0.14691	0.5837	0.047
Mof_C 	C 	0.35692	0.07445	0.0925	-0.101
Mof_C 	C 	0.35353	0.1148	0.04892	0.042
Mof_C 	C 	0.35374	0.15047	0.0969	-0.077
Mof_H 	H 	0.3535	0.1504	0.1638	0.078
Mof_C 	C 	0.35428	0.1863	0.0483	-0.022
Mof_H 	H 	0.3543	0.2081	0.0915	0.038
Mof_C 	C 	0.40037	0.07953	0.04957	0.041
Mof_C 	C 	0.43897	0.08706	0.0975	-0.076
Mof_H 	H 	0.4393	0.0878	0.1643	0.072
Mof_C 	C 	0.47684	0.0935	0.0495	-0.022
Mof_H 	H 	0.5004	0.0977	0.0927	0.036
Mof_C 	C 	0.31721	0.03234	0.04868	0.039
Mof_C 	C 	0.28282	0.99579	0.0979	-0.072
Mof_H 	H 	0.2826	0.9957	0.1647	0.066
Mof_C 	C 	0.24929	0.95996	0.0487	-0.024
Mof_H 	H 	0.2281	0.9373	0.0913	0.042
Mof_C 	C 	0.35393	0.0696	0.20037	0.325
Mof_C 	C 	0.63875	0.28679	0.9529	0.062
Mof_C 	C 	0.61123	0.24485	0.9017	-0.084
Mof_H 	H 	0.6096	0.2449	0.835	0.104
Mof_C 	C 	0.58727	0.20453	0.9518	-0.017
Mof_H 	H 	0.5713	0.1797	0.9089	0.038
Mof_Zn	Zn	0.92035	0.2606	0.37852	1.233
Mof_O 	O 	0.87704	0.19826	0.42161	-0.48
Mof_O 	O 	0.98073	0.27804	0.42122	-0.509
Mof_O 	O 	0.89224	0.29555	0.42152	-0.499
Mof_O 	O 	0.72738	0.35212	0.57812	-0.45
Mof_O 	O 	0.91177	0.24703	0.24504	-0.438
Mof_O 	O 	0.95416	0.32148	0.23922	-0.321
Mof_O 	O 	0.69345	0.37078	0.7492	-0.208
Mof_O 	O 	0.64377	0.29694	0.7478	-0.316
Mof_C 	C 	0.75013	0.0782	0.4143	0.047
Mof_C 	C 	0.71654	0.06304	0.3453	-0.079
Mof_H 	H 	0.6919	0.0326	0.3461	0.074
Mof_C 	C 	0.7196	0.09313	0.27501	-0.023
Mof_H 	H 	0.6971	0.0832	0.2271	0.043
Mof_C 	C 	0.75548	0.13762	0.275	-0.03
Mof_H 	H 	0.7575	0.1579	0.2268	0.041
Mof_C 	C 	0.78818	0.15261	0.34435	-0.07
Mof_H 	H 	0.8123	0.1833	0.3443	0.062
Mof_C 	C 	0.78596	0.12285	0.41482	0.04
Mof_C 	C 	0.81889	0.3659	0.58399	0.048
Mof_C 	C 	0.81994	0.39693	0.6491	-0.077
Mof_H 	H 	0.7965	0.4045	0.6498	0.083
Mof_C 	C 	0.85593	0.41696	0.7136	-0.026
Mof_H 	H 	0.857	0.4381	0.7586	0.04
Mof_C 	C 	0.89009	0.40574	0.7113	-0.023
Mof_H 	H 	0.9148	0.42	0.754	0.037
Mof_C 	C 	0.88869	0.37427	0.6483	-0.08
Mof_H 	H 	0.9118	0.3663	0.6488	0.075
Mof_C 	C 	0.85309	0.35417	0.5837	0.047
Mof_C 	C 	0.92555	0.28247	0.0925	-0.101
Mof_C 	C 	0.8852	0.23873	0.04892	0.042
Mof_C 	C 	0.84953	0.20327	0.0969	-0.077
Mof_H 	H 	0.8496	0.2031	0.1638	0.078
Mof_C 	C 	0.8137	0.16798	0.0483	-0.022
Mof_H 	H 	0.7919	0.1462	0.0915	0.038
Mof_C 	C 	0.92047	0.32084	0.04957	0.041
Mof_C 	C 	0.91294	0.35191	0.0975	-0.076
Mof_H 	H 	0.9122	0.3515	0.1643	0.072
Mof_C 	C 	0.9065	0.38334	0.0495	-0.022
Mof_H 	H 	0.9023	0.4027	0.0927	0.036
Mof_C 	C 	0.96766	0.28487	0.04868	0.039
Mof_C 	C 	0.00421	0.28703	0.0979	-0.072
Mof_H 	H 	0.0043	0.2869	0.1647	0.066
Mof_C 	C 	0.04004	0.28933	0.0487	-0.024
Mof_H 	H 	0.0627	0.2908	0.0913	0.042
Mof_C 	C 	0.9304	0.28433	0.20037	0.325
Mof_C 	C 	0.71321	0.35196	0.9529	0.062
Mof_C 	C 	0.75515	0.36638	0.9017	-0.084
Mof_H 	H 	0.7551	0.3647	0.835	0.104
Mof_C 	C 	0.79547	0.38274	0.9518	-0.017
Mof_H 	H 	0.8203	0.3916	0.9089	0.038
Mof_Zn	Zn	0.7394	0.65974	0.37852	1.233
Mof_O 	O 	0.80174	0.67878	0.42161	-0.48
Mof_O 	O 	0.72196	0.70269	0.42122	-0.509
Mof_O 	O 	0.70445	0.59669	0.42152	-0.499
Mof_O 	O 	0.64788	0.37526	0.57812	-0.45
Mof_O 	O 	0.75297	0.66474	0.24504	-0.438
Mof_O 	O 	0.67852	0.63268	0.23922	-0.321
Mof_O 	O 	0.62922	0.32267	0.7492	-0.208
Mof_O 	O 	0.70306	0.34683	0.7478	-0.316
Mof_C 	C 	0.9218	0.67193	0.4143	0.047
Mof_C 	C 	0.93696	0.6535	0.3453	-0.079
Mof_H 	H 	0.9674	0.6593	0.3461	0.074
Mof_C 	C 	0.90687	0.62647	0.27501	-0.023
Mof_H 	H 	0.9168	0.6139	0.2271	0.043
Mof_C 	C 	0.86238	0.61786	0.275	-0.03
Mof_H 	H 	0.8421	0.5996	0.2268	0.041
Mof_C 	C 	0.84739	0.63557	0.34435	-0.07
Mof_H 	H 	0.8167	0.629	0.3443	0.062
Mof_C 	C 	0.87715	0.66311	0.41482	0.04
Mof_C 	C 	0.6341	0.45299	0.58399	0.048
Mof_C 	C 	0.60307	0.42301	0.6491	-0.077
Mof_H 	H 	0.5955	0.392	0.6498	0.083
Mof_C 	C 	0.58304	0.43897	0.7136	-0.026
Mof_H 	H 	0.5619	0.4189	0.7586	0.04
Mof_C 	C 	0.59426	0.48435	0.7113	-0.023
Mof_H 	H 	0.58	0.4948	0.754	0.037
Mof_C 	C 	0.62573	0.51442	0.6483	-0.08
Mof_H 	H 	0.6337	0.5455	0.6488	0.075
Mof_C 	C 	0.64583	0.49892	0.5837	0.047
Mof_C 	C 	0.71753	0.64308	0.0925	-0.101
Mof_C 	C 	0.76127	0.64647	0.04892	0.042
Mof_C 	C 	0.79673	0.64626	0.0969	-0.077
Mof_H 	H 	0.7969	0.6465	0.1638	0.078
Mof_C 	C 	0.83202	0.64572	0.0483	-0.022
Mof_H 	H 	0.8538	0.6457	0.0915	0.038
Mof_C 	C 	0.67916	0.59963	0.04957	0.041
Mof_C 	C 	0.64809	0.56103	0.0975	-0.076
Mof_H 	H 	0.6485	0.5607	0.1643	0.072
Mof_C 	C 	0.61666	0.52316	0.0495	-0.022
Mof_H 	H 	0.5973	0.4996	0.0927	0.036
Mof_C 	C 	0.71513	0.68279	0.04868	0.039
Mof_C 	C 	0.71297	0.71718	0.0979	-0.072
Mof_H 	H 	0.7131	0.7174	0.1647	0.066
Mof_C 	C 	0.71067	0.75071	0.0487	-0.024
Mof_H 	H 	0.7092	0.7719	0.0913	0.042
Mof_C 	C 	0.71567	0.64607	0.20037	0.325
Mof_C 	C 	0.64804	0.36125	0.9529	0.062
Mof_C 	C 	0.63362	0.38877	0.9017	-0.084
Mof_H 	H 	0.6353	0.3904	0.835	0.104
Mof_C 	C 	0.61726	0.41273	0.9518	-0.017
Mof_H 	H 	0.6084	0.4287	0.9089	0.038
Mof_Zn	Zn	0.66667	0.33333	0.36903	1.276
Mof_C 	C 	0.66667	0.33333	0.11009	-0.204
Mof_C 	C 	0.66667	0.33333	0.2144	0.808
Mof_Zn	Zn	0.33333	0.66667	0.36903	1.276
Mof_C 	C 	0.33333	0.66667	0.11009	-0.204
Mof_C 	C 	0.33333	0.66667	0.2144	0.808
Mof_Zn	Zn	0.33333	0.66667	0.63097	1.276
Mof_C 	C 	0.33333	0.66667	0.88991	-0.204
Mof_C 	C 	0.33333	0.66667	0.7856	0.808
Mof_Zn	Zn	0.66667	0.33333	0.63097	1.276
Mof_C 	C 	0.66667	0.33333	0.88991	-0.204
Mof_C 	C 	0.66667	0.33333	0.7856	0.808
Mof_C 	C 	0.31657	0.18215	0.5	-0.128
Mof_C 	C 	0.26522	0.1663	0.5	0.045
Mof_C 	C 	0.22984	0.12235	0.5	-0.073
Mof_H 	H 	0.2357	0.0978	0.5	0.061
Mof_C 	C 	0.18532	0.11378	0.5	-0.025
Mof_H 	H 	0.1607	0.0833	0.5	0.037
Mof_C 	C 	0.17684	0.14918	0.5	-0.024
Mof_H 	H 	0.1463	0.1432	0.5	0.037
Mof_C 	C 	0.21253	0.19383	0.5	-0.075
Mof_H 	H 	0.2064	0.2182	0.5	0.057
Mof_C 	C 	0.25633	0.20269	0.5	0.045
Mof_C 	C 	0.29959	0.24935	0.5	-0.132
Mof_C 	C 	0.321	0.14028	0.5	0.398
Mof_C 	C 	0.28473	2e-05	0.5	0.415
Mof_C 	C 	0.47417	0.15051	0.5	-0.129
Mof_C 	C 	0.48123	0.19875	0.5	0.042
Mof_C 	C 	0.44786	0.21026	0.5	-0.07
Mof_H 	H 	0.4167	0.1873	0.5	0.05
Mof_C 	C 	0.46028	0.25658	0.5	-0.029
Mof_H 	H 	0.4374	0.2649	0.5	0.045
Mof_C 	C 	0.50472	0.28913	0.5	-0.023
Mof_H 	H 	0.5127	0.3202	0.5	0.042
Mof_C 	C 	0.53961	0.2779	0.5	-0.067
Mof_H 	H 	0.5708	0.301	0.5	0.056
Mof_C 	C 	0.52702	0.23229	0.5	0.042
Mof_C 	C 	0.55979	0.21387	0.5	-0.12
Mof_C 	C 	0.42294	0.11804	0.5	0.413
Mof_C 	C 	0.6079	0.25566	0.5	0.399
Mof_C 	C 	0.81785	0.13442	0.5	-0.128
Mof_C 	C 	0.8337	0.09892	0.5	0.045
Mof_C 	C 	0.87765	0.10749	0.5	-0.073
Mof_H 	H 	0.9022	0.1379	0.5	0.061
Mof_C 	C 	0.88622	0.07154	0.5	-0.025
Mof_H 	H 	0.9167	0.0774	0.5	0.037
Mof_C 	C 	0.85082	0.02766	0.5	-0.024
Mof_H 	H 	0.8568	0.0031	0.5	0.037
Mof_C 	C 	0.80617	0.0187	0.5	-0.075
Mof_H 	H 	0.7818	0.9882	0.5	0.057
Mof_C 	C 	0.79731	0.05364	0.5	0.045
Mof_C 	C 	0.75065	0.05024	0.5	-0.132
Mof_C 	C 	0.85972	0.18072	0.5	0.398
Mof_C 	C 	0.99998	0.28471	0.5	0.415
Mof_C 	C 	0.84949	0.32366	0.5	-0.129
Mof_C 	C 	0.80125	0.28248	0.5	0.042
Mof_C 	C 	0.78974	0.2376	0.5	-0.07
Mof_H 	H 	0.8127	0.2294	0.5	0.05
Mof_C 	C 	0.74342	0.2037	0.5	-0.029
Mof_H 	H 	0.7351	0.1725	0.5	0.045
Mof_C 	C 	0.71087	0.21559	0.5	-0.023
Mof_H 	H 	0.6798	0.1925	0.5	0.042
Mof_C 	C 	0.7221	0.26171	0.5	-0.067
Mof_H 	H 	0.699	0.2698	0.5	0.056
Mof_C 	C 	0.76771	0.29473	0.5	0.042
Mof_C 	C 	0.78613	0.34592	0.5	-0.12
Mof_C 	C 	0.88196	0.3049	0.5	0.413
Mof_C 	C 	0.74434	0.35224	0.5	0.399
Mof_C 	C 	0.86558	0.68343	0.5	-0.128
Mof_C 	C 	0.90108	0.73478	0.5	0.045
Mof_C 	C 	0.89251	0.77016	0.5	-0.073
Mof_H 	H 	0.8621	0.7643	0.5	0.061
Mof_C 	C 	0.92846	0.81468	0.5	-0.025
Mof_H 	H 	0.9226	0.8393	0.5	0.037
Mof_C 	C 	0.97234	0.82316	0.5	-0.025
Mof_H 	H 	0.9969	0.8537	0.5	0.037
Mof_C 	C 	0.9813	0.78747	0.5	-0.075
Mof_H 	H 	0.0118	0.7936	0.5	0.057
Mof_C 	C 	0.94636	0.74367	0.5	0.045
Mof_C 	C 	0.94976	0.70041	0.5	-0.132
Mof_C 	C 	0.81928	0.679	0.5	0.398
Mof_C 	C 	0.71529	0.71527	0.5	0.415
Mof_C 	C 	0.67634	0.52583	0.5	-0.129
Mof_C 	C 	0.71752	0.51877	0.5	0.042
Mof_C 	C 	0.7624	0.55214	0.5	-0.07
Mof_H 	H 	0.7706	0.5833	0.5	0.05
Mof_C 	C 	0.7963	0.53972	0.5	-0.029
Mof_H 	H 	0.8275	0.5626	0.5	0.045
Mof_C 	C 	0.78441	0.49528	0.5	-0.023
Mof_H 	H 	0.8075	0.4873	0.5	0.042
Mof_C 	C 	0.73829	0.46039	0.5	-0.067
Mof_H 	H 	0.7302	0.4292	0.5	0.056
Mof_C 	C 	0.70527	0.47298	0.5	0.042
Mof_C 	C 	0.65408	0.44021	0.5	-0.12
Mof_C 	C 	0.6951	0.57706	0.5	0.413
Mof_C 	C 	0.64776	0.3921	0.5	0.399
Mof_C 	C 	0.68343	0.81785	0.5	-0.128
Mof_C 	C 	0.73478	0.8337	0.5	0.045
Mof_C 	C 	0.77016	0.87765	0.5	-0.073
Mof_H 	H 	0.7643	0.9022	0.5	0.061
Mof_C 	C 	0.81468	0.88622	0.5	-0.025
Mof_H 	H 	0.8393	0.9167	0.5	0.037
Mof_C 	C 	0.82316	0.85082	0.5	-0.024
Mof_H 	H 	0.8537	0.8568	0.5	0.037
Mof_C 	C 	0.78747	0.80617	0.5	-0.075
Mof_H 	H 	0.7936	0.7818	0.5	0.057
Mof_C 	C 	0.74367	0.79731	0.5	0.045
Mof_C 	C 	0.70041	0.75065	0.5	-0.132
Mof_C 	C 	0.679	0.85972	0.5	0.398
Mof_C 	C 	0.71527	0.99998	0.5	0.415
Mof_C 	C 	0.52583	0.84949	0.5	-0.129
Mof_C 	C 	0.51877	0.80125	0.5	0.042
Mof_C 	C 	0.55214	0.78974	0.5	-0.07
Mof_H 	H 	0.5833	0.8127	0.5	0.05
Mof_C 	C 	0.53972	0.74342	0.5	-0.029
Mof_H 	H 	0.5626	0.7351	0.5	0.045
Mof_C 	C 	0.49528	0.71087	0.5	-0.023
Mof_H 	H 	0.4873	0.6798	0.5	0.042
Mof_C 	C 	0.46039	0.7221	0.5	-0.067
Mof_H 	H 	0.4292	0.699	0.5	0.056
Mof_C 	C 	0.47298	0.76771	0.5	0.042
Mof_C 	C 	0.44021	0.78613	0.5	-0.12
Mof_C 	C 	0.57706	0.88196	0.5	0.413
Mof_C 	C 	0.3921	0.74434	0.5	0.399
Mof_C 	C 	0.18215	0.86558	0.5	-0.128
Mof_C 	C 	0.1663	0.90108	0.5	0.045
Mof_C 	C 	0.12235	0.89251	0.5	-0.073
Mof_H 	H 	0.0978	0.8621	0.5	0.061
Mof_C 	C 	0.11378	0.92846	0.5	-0.025
Mof_H 	H 	0.0833	0.9226	0.5	0.037
Mof_C 	C 	0.14918	0.97234	0.5	-0.024
Mof_H 	H 	0.1432	0.9969	0.5	0.037
Mof_C 	C 	0.19383	0.9813	0.5	-0.075
Mof_H 	H 	0.2182	0.0118	0.5	0.057
Mof_C 	C 	0.20269	0.94636	0.5	0.045
Mof_C 	C 	0.24935	0.94976	0.5	-0.132
Mof_C 	C 	0.14028	0.81928	0.5	0.398
Mof_C 	C 	2e-05	0.71529	0.5	0.415
Mof_C 	C 	0.15051	0.67634	0.5	-0.129
Mof_C 	C 	0.19875	0.71752	0.5	0.042
Mof_C 	C 	0.21026	0.7624	0.5	-0.07
Mof_H 	H 	0.1873	0.7706	0.5	0.05
Mof_C 	C 	0.25658	0.7963	0.5	-0.029
Mof_H 	H 	0.2649	0.8275	0.5	0.045
Mof_C 	C 	0.28913	0.78441	0.5	-0.023
Mof_H 	H 	0.3202	0.8075	0.5	0.042
Mof_C 	C 	0.2779	0.73829	0.5	-0.067
Mof_H 	H 	0.301	0.7302	0.5	0.056
Mof_C 	C 	0.23229	0.70527	0.5	0.042
Mof_C 	C 	0.21387	0.65408	0.5	-0.12
Mof_C 	C 	0.11804	0.6951	0.5	0.413
Mof_C 	C 	0.25566	0.64776	0.5	0.399
Mof_C 	C 	0.13442	0.31657	0.5	-0.128
Mof_C 	C 	0.09892	0.26522	0.5	0.045
Mof_C 	C 	0.10749	0.22984	0.5	-0.073
Mof_H 	H 	0.1379	0.2357	0.5	0.061
Mof_C 	C 	0.07154	0.18532	0.5	-0.025
Mof_H 	H 	0.0774	0.1607	0.5	0.037
Mof_C 	C 	0.02766	0.17684	0.5	-0.025
Mof_H 	H 	0.0031	0.1463	0.5	0.037
Mof_C 	C 	0.0187	0.21253	0.5	-0.075
Mof_H 	H 	0.9882	0.2064	0.5	0.057
Mof_C 	C 	0.05364	0.25633	0.5	0.045
Mof_C 	C 	0.05024	0.29959	0.5	-0.132
Mof_C 	C 	0.18072	0.321	0.5	0.398
Mof_C 	C 	0.28471	0.28473	0.5	0.415
Mof_C 	C 	0.32366	0.47417	0.5	-0.129
Mof_C 	C 	0.28248	0.48123	0.5	0.042
Mof_C 	C 	0.2376	0.44786	0.5	-0.07
Mof_H 	H 	0.2294	0.4167	0.5	0.05
Mof_C 	C 	0.2037	0.46028	0.5	-0.029
Mof_H 	H 	0.1725	0.4374	0.5	0.045
Mof_C 	C 	0.21559	0.50472	0.5	-0.023
Mof_H 	H 	0.1925	0.5127	0.5	0.042
Mof_C 	C 	0.26171	0.53961	0.5	-0.067
Mof_H 	H 	0.2698	0.5708	0.5	0.056
Mof_C 	C 	0.29473	0.52702	0.5	0.042
Mof_C 	C 	0.34592	0.55979	0.5	-0.12
Mof_C 	C 	0.3049	0.42294	0.5	0.413
Mof_C 	C 	0.35224	0.6079	0.5	0.399
_end
