data_functionalizedCrystal
_audit_creation_method	'EQeq! by Chris Wilmer'
_symmetry_space_group_name_H-M	'P1'
_symmetry_Int_Tables_number	1
_symmetry_cell_setting	triclinic
loop_
_symmetry_equiv_pos_as_xyz
  x,y,z
_cell_length_a	14.0086
_cell_length_b	16.332
_cell_length_c	16.622
_cell_angle_alpha	90
_cell_angle_beta	90
_cell_angle_gamma	90
loop_
_atom_site_label
_atom_site_type_symbol
_atom_site_fract_x
_atom_site_fract_y
_atom_site_fract_z
_atom_site_charge
Mof_Ni	Ni	0.97368	0.17556	0.61066	1.149
Mof_C 	C 	0.7526	0.99679	0.65727	0.004
Mof_C 	C 	0.71905	0.92024	0.63312	-0.022
Mof_H 	H 	0.7455	0.8942	0.5871	0.061
Mof_C 	C 	0.64662	0.88192	0.6767	-0.041
Mof_C 	C 	0.60947	0.92028	0.74457	-0.011
Mof_H 	H 	0.5637	0.8925	0.7767	0.059
Mof_C 	C 	0.63842	0.99841	0.76579	0.008
Mof_C 	C 	0.71062	0.03695	0.72173	-0.079
Mof_H 	H 	0.7309	0.0906	0.7359	0.091
Mof_C 	C 	0.83818	0.0356	0.61566	0.315
Mof_C 	C 	0.60771	0.79961	0.65169	0.288
Mof_C 	C 	0.59061	0.03946	0.83615	0.294
Mof_O 	O 	0.8736	0.09738	0.65006	-0.387
Mof_O 	O 	0.86694	0.00046	0.55263	-0.38
Mof_O 	O 	0.63326	0.76855	0.58595	-0.337
Mof_O 	O 	0.54746	0.76484	0.69616	-0.362
Mof_O 	O 	0.56128	0.99269	0.88931	-0.345
Mof_O 	O 	0.58225	0.1167	0.83378	-0.377
Mof_C 	C 	0.91843	0.8062	0.60873	-1.069
Mof_H 	H 	0.8487	0.802	0.6099	0.363
Mof_H 	H 	0.9464	0.7574	0.6336	0.38
Mof_H 	H 	0.9385	0.855	0.6386	0.381
Mof_C 	C 	0.95185	0.81271	0.52286	0.716
Mof_O 	O 	0.93247	0.75818	0.4724	-0.424
Mof_O 	O 	0.0042	0.87123	0.50144	-0.644
Mof_Ni	Ni	0.52632	0.82444	0.11066	1.122
Mof_C 	C 	0.7474	0.00321	0.15727	-0.208
Mof_C 	C 	0.78095	0.07976	0.13312	0.099
Mof_H 	H 	0.7545	0.1058	0.0871	0.008
Mof_C 	C 	0.85338	0.11808	0.1767	-0.138
Mof_C 	C 	0.89053	0.07972	0.24457	0.115
Mof_H 	H 	0.9363	0.1075	0.2767	0.028
Mof_C 	C 	0.86158	0.00159	0.26579	-0.211
Mof_C 	C 	0.78938	0.96305	0.22173	0.18
Mof_H 	H 	0.7691	0.9094	0.2359	0.008
Mof_C 	C 	0.66182	0.9644	0.11566	0.413
Mof_C 	C 	0.89229	0.20039	0.15169	0.32
Mof_C 	C 	0.90939	0.96054	0.33615	0.454
Mof_O 	O 	0.6264	0.90262	0.15006	-0.422
Mof_O 	O 	0.63306	0.99954	0.05263	-0.41
Mof_O 	O 	0.86674	0.23145	0.08595	-0.357
Mof_O 	O 	0.95254	0.23516	0.19616	-0.35
Mof_O 	O 	0.93872	0.00731	0.38931	-0.421
Mof_O 	O 	0.91775	0.8833	0.33378	-0.396
Mof_C 	C 	0.58157	0.1938	0.10873	-0.879
Mof_H 	H 	0.6513	0.198	0.1099	0.298
Mof_H 	H 	0.5536	0.2426	0.1336	0.301
Mof_H 	H 	0.5615	0.145	0.1386	0.303
Mof_C 	C 	0.54815	0.18729	0.02286	0.506
Mof_O 	O 	0.56753	0.24182	0.9724	-0.341
Mof_O 	O 	0.4958	0.12877	0.00144	-0.586
Mof_Ni	Ni	0.02632	0.67556	0.88934	1.12
Mof_C 	C 	0.2474	0.49679	0.84273	-0.105
Mof_C 	C 	0.28095	0.42024	0.86688	0.038
Mof_H 	H 	0.2545	0.3942	0.9129	0.044
Mof_C 	C 	0.35338	0.38192	0.8233	-0.091
Mof_C 	C 	0.39053	0.42028	0.75543	0.056
Mof_H 	H 	0.4363	0.3925	0.7233	0.034
Mof_C 	C 	0.36158	0.49841	0.73421	-0.115
Mof_C 	C 	0.28938	0.53695	0.77827	0.056
Mof_H 	H 	0.2691	0.5906	0.7641	0.041
Mof_C 	C 	0.16182	0.5356	0.88434	0.363
Mof_C 	C 	0.39229	0.29961	0.84831	0.301
Mof_C 	C 	0.40939	0.53946	0.66385	0.383
Mof_O 	O 	0.1264	0.59738	0.84994	-0.417
Mof_O 	O 	0.13306	0.50046	0.94737	-0.378
Mof_O 	O 	0.36674	0.26855	0.91405	-0.327
Mof_O 	O 	0.45254	0.26484	0.80384	-0.369
Mof_O 	O 	0.43872	0.49269	0.61069	-0.416
Mof_O 	O 	0.41775	0.6167	0.66622	-0.406
Mof_C 	C 	0.08157	0.3062	0.89127	-0.918
Mof_H 	H 	0.1513	0.302	0.8901	0.318
Mof_H 	H 	0.0536	0.2574	0.8664	0.307
Mof_H 	H 	0.0615	0.355	0.8614	0.293
Mof_C 	C 	0.04815	0.31271	0.97714	0.587
Mof_O 	O 	0.06753	0.25818	0.0276	-0.494
Mof_O 	O 	0.9958	0.37123	0.99856	-0.465
Mof_Ni	Ni	0.47368	0.32444	0.38934	1.13
Mof_C 	C 	0.2526	0.50321	0.34273	-0.119
Mof_C 	C 	0.21905	0.57976	0.36688	0.047
Mof_H 	H 	0.2455	0.6058	0.4129	0.031
Mof_C 	C 	0.14662	0.61808	0.3233	-0.113
Mof_C 	C 	0.10947	0.57972	0.25543	0.065
Mof_H 	H 	0.0637	0.6075	0.2233	0.015
Mof_C 	C 	0.13842	0.50159	0.23421	-0.134
Mof_C 	C 	0.21062	0.46305	0.27827	0.064
Mof_H 	H 	0.2309	0.4094	0.2641	0.035
Mof_C 	C 	0.33818	0.4644	0.38434	0.368
Mof_C 	C 	0.10771	0.70039	0.34831	0.309
Mof_C 	C 	0.09061	0.46054	0.16385	0.385
Mof_O 	O 	0.3736	0.40262	0.34994	-0.415
Mof_O 	O 	0.36694	0.49954	0.44737	-0.4
Mof_O 	O 	0.13326	0.73145	0.41405	-0.355
Mof_O 	O 	0.04746	0.73516	0.30384	-0.393
Mof_O 	O 	0.06128	0.50731	0.11069	-0.447
Mof_O 	O 	0.08225	0.3833	0.16622	-0.441
Mof_C 	C 	0.41843	0.6938	0.39127	-0.967
Mof_H 	H 	0.3487	0.698	0.3901	0.329
Mof_H 	H 	0.4464	0.7426	0.3664	0.335
Mof_H 	H 	0.4385	0.645	0.3614	0.329
Mof_C 	C 	0.45185	0.68729	0.47714	0.614
Mof_O 	O 	0.43247	0.74182	0.5276	-0.423
Mof_O 	O 	0.5042	0.62877	0.49856	-0.576
Mof_Ni	Ni	0.02632	0.82444	0.38934	1.115
Mof_C 	C 	0.2474	0.00321	0.34273	-0.235
Mof_C 	C 	0.28095	0.07976	0.36688	0.114
Mof_H 	H 	0.2545	0.1058	0.4129	0.007
Mof_C 	C 	0.35338	0.11808	0.3233	-0.158
Mof_C 	C 	0.39053	0.07972	0.25543	0.134
Mof_H 	H 	0.4363	0.1075	0.2233	0.005
Mof_C 	C 	0.36158	0.00159	0.23421	-0.251
Mof_C 	C 	0.28938	0.96305	0.27827	0.211
Mof_H 	H 	0.2691	0.9094	0.2641	-0.009
Mof_C 	C 	0.16182	0.9644	0.38434	0.423
Mof_C 	C 	0.39229	0.20039	0.34831	0.324
Mof_C 	C 	0.40939	0.96054	0.16385	0.473
Mof_O 	O 	0.1264	0.90262	0.34994	-0.433
Mof_O 	O 	0.13306	0.99954	0.44737	-0.4
Mof_O 	O 	0.36674	0.23145	0.41405	-0.351
Mof_O 	O 	0.45254	0.23516	0.30384	-0.377
Mof_O 	O 	0.43872	0.00731	0.11069	-0.472
Mof_O 	O 	0.41775	0.8833	0.16622	-0.434
Mof_C 	C 	0.08157	0.1938	0.39127	-0.849
Mof_H 	H 	0.1513	0.198	0.3901	0.292
Mof_H 	H 	0.0536	0.2426	0.3664	0.283
Mof_H 	H 	0.0615	0.145	0.3614	0.272
Mof_C 	C 	0.04815	0.18729	0.47714	0.498
Mof_O 	O 	0.06753	0.24182	0.5276	-0.421
Mof_O 	O 	0.9958	0.12877	0.49856	-0.49
Mof_Ni	Ni	0.47368	0.17556	0.88934	1.138
Mof_C 	C 	0.2526	0.99679	0.84273	0.018
Mof_C 	C 	0.21905	0.92024	0.86688	-0.033
Mof_H 	H 	0.2455	0.8942	0.9129	0.069
Mof_C 	C 	0.14662	0.88192	0.8233	-0.043
Mof_C 	C 	0.10947	0.92028	0.75543	-0.02
Mof_H 	H 	0.0637	0.8925	0.7233	0.046
Mof_C 	C 	0.13842	0.99841	0.73421	0.013
Mof_C 	C 	0.21062	0.03695	0.77827	-0.102
Mof_H 	H 	0.2309	0.0906	0.7641	0.089
Mof_C 	C 	0.33818	0.0356	0.88434	0.305
Mof_C 	C 	0.10771	0.79961	0.84831	0.285
Mof_C 	C 	0.09061	0.03946	0.66385	0.282
Mof_O 	O 	0.3736	0.09738	0.84994	-0.396
Mof_O 	O 	0.36694	0.00046	0.94737	-0.371
Mof_O 	O 	0.13326	0.76855	0.91405	-0.331
Mof_O 	O 	0.04746	0.76484	0.80384	-0.387
Mof_O 	O 	0.06128	0.99269	0.61069	-0.383
Mof_O 	O 	0.08225	0.1167	0.66622	-0.412
Mof_C 	C 	0.41843	0.8062	0.89127	-1.048
Mof_H 	H 	0.3487	0.802	0.8901	0.359
Mof_H 	H 	0.4464	0.7574	0.8664	0.365
Mof_H 	H 	0.4385	0.855	0.8614	0.354
Mof_C 	C 	0.45185	0.81271	0.97714	0.717
Mof_O 	O 	0.43247	0.75818	0.0276	-0.504
Mof_O 	O 	0.5042	0.87123	0.99856	-0.553
Mof_Ni	Ni	0.97368	0.32444	0.11066	1.138
Mof_C 	C 	0.7526	0.50321	0.15727	-0.113
Mof_C 	C 	0.71905	0.57976	0.13312	0.045
Mof_H 	H 	0.7455	0.6058	0.0871	0.026
Mof_C 	C 	0.64662	0.61808	0.1767	-0.105
Mof_C 	C 	0.60947	0.57972	0.24457	0.061
Mof_H 	H 	0.5637	0.6075	0.2767	0.031
Mof_C 	C 	0.63842	0.50159	0.26579	-0.119
Mof_C 	C 	0.71062	0.46305	0.22173	0.061
Mof_H 	H 	0.7309	0.4094	0.2359	0.044
Mof_C 	C 	0.83818	0.4644	0.11566	0.367
Mof_C 	C 	0.60771	0.70039	0.15169	0.309
Mof_C 	C 	0.59061	0.46054	0.33615	0.385
Mof_O 	O 	0.8736	0.40262	0.15006	-0.404
Mof_O 	O 	0.86694	0.49954	0.05263	-0.403
Mof_O 	O 	0.63326	0.73145	0.08595	-0.362
Mof_O 	O 	0.54746	0.73516	0.19616	-0.37
Mof_O 	O 	0.56128	0.50731	0.38931	-0.414
Mof_O 	O 	0.58225	0.3833	0.33378	-0.406
Mof_C 	C 	0.91843	0.6938	0.10873	-0.972
Mof_H 	H 	0.8487	0.698	0.1099	0.327
Mof_H 	H 	0.9464	0.7426	0.1336	0.344
Mof_H 	H 	0.9385	0.645	0.1386	0.351
Mof_C 	C 	0.95185	0.68729	0.02286	0.596
Mof_O 	O 	0.93247	0.74182	0.9724	-0.334
Mof_O 	O 	0.0042	0.62877	0.00144	-0.649
Mof_Ni	Ni	0.52632	0.67556	0.61066	1.13
Mof_C 	C 	0.7474	0.49679	0.65727	-0.099
Mof_C 	C 	0.78095	0.42024	0.63312	0.035
Mof_H 	H 	0.7545	0.3942	0.5871	0.041
Mof_C 	C 	0.85338	0.38192	0.6767	-0.08
Mof_C 	C 	0.89053	0.42028	0.74457	0.048
Mof_H 	H 	0.9363	0.3925	0.7767	0.054
Mof_C 	C 	0.86158	0.49841	0.76579	-0.096
Mof_C 	C 	0.78938	0.53695	0.72173	0.052
Mof_H 	H 	0.7691	0.5906	0.7359	0.051
Mof_C 	C 	0.66182	0.5356	0.61566	0.365
Mof_C 	C 	0.89229	0.29961	0.65169	0.3
Mof_C 	C 	0.90939	0.53946	0.83615	0.378
Mof_O 	O 	0.6264	0.59738	0.65006	-0.408
Mof_O 	O 	0.63306	0.50046	0.55263	-0.394
Mof_O 	O 	0.86674	0.26855	0.58595	-0.332
Mof_O 	O 	0.95254	0.26484	0.69616	-0.341
Mof_O 	O 	0.93872	0.49269	0.88931	-0.36
Mof_O 	O 	0.91775	0.6167	0.83378	-0.367
Mof_C 	C 	0.58157	0.3062	0.60873	-0.966
Mof_H 	H 	0.6513	0.302	0.6099	0.329
Mof_H 	H 	0.5536	0.2574	0.6336	0.331
Mof_H 	H 	0.5615	0.355	0.6386	0.329
Mof_C 	C 	0.54815	0.31271	0.52286	0.614
Mof_O 	O 	0.56753	0.25818	0.4724	-0.424
Mof_O 	O 	0.4958	0.37123	0.50144	-0.577
Mof_Ni	Ni	2.22444e-33	0	0.5	1.104
Mof_Ni	Ni	0.5	0	-0	1.105
Mof_Ni	Ni	-0	0.5	-0	1.09
Mof_Ni	Ni	0.5	0.5	0.5	1.146
_end
