data_functionalizedCrystal
_audit_creation_method	'EQeq! by Chris Wilmer'
_symmetry_space_group_name_H-M	'P1'
_symmetry_Int_Tables_number	1
_symmetry_cell_setting	triclinic
loop_
_symmetry_equiv_pos_as_xyz
  x,y,z
_cell_length_a	10.327
_cell_length_b	12.129
_cell_length_c	15.073
_cell_angle_alpha	90
_cell_angle_beta	106.288
_cell_angle_gamma	90
loop_
_atom_site_label
_atom_site_type_symbol
_atom_site_fract_x
_atom_site_fract_y
_atom_site_fract_z
_atom_site_charge
Mof_U 	U 	0.16176	0.0706	0.57247	0.005
Mof_U 	U 	0.22351	0.60399	0.25914	0.014
Mof_U 	U 	0.27649	0.10399	0.24086	0.015
Mof_U 	U 	0.33824	0.5706	0.92753	0.007
Mof_U 	U 	0.72351	0.89601	0.75914	0.015
Mof_U 	U 	0.66176	0.4294	0.07247	0.007
Mof_U 	U 	0.83824	0.9294	0.42753	0.006
Mof_U 	U 	0.77649	0.39601	0.74086	0.015
Mof_H 	H 	0.3494	0.8127	0.4317	0.161
Mof_H 	H 	0.1195	0.9353	0.0095	0.148
Mof_H 	H 	0.3805	0.4353	0.4905	0.148
Mof_H 	H 	0.6195	0.5647	0.5095	0.148
Mof_H 	H 	0.1506	0.3127	0.0683	0.16
Mof_H 	H 	0.8805	0.0647	0.9905	0.148
Mof_H 	H 	0.6506	0.1873	0.5683	0.161
Mof_H 	H 	0.8494	0.6873	0.9317	0.16
Mof_C 	C 	0.9147	0.1332	0.9807	-0.191
Mof_C 	C 	0.0485	0.444	0.9171	0.241
Mof_C 	C 	0.0066	0.3352	0.9464	0.103
Mof_C 	C 	0.5759	0.2196	0.5271	-0.19
Mof_C 	C 	0.7307	0.1546	0.8303	0.243
Mof_C 	C 	0.9515	0.556	0.0829	0.241
Mof_C 	C 	0.8527	0.1935	0.9037	0.108
Mof_C 	C 	0.5853	0.6332	0.5193	-0.193
Mof_C 	C 	0.4934	0.8352	0.5536	0.106
Mof_C 	C 	0.9934	0.6648	0.0536	0.103
Mof_C 	C 	0.9686	0.8239	0.9548	0.266
Mof_C 	C 	0.6473	0.6935	0.5963	0.109
Mof_C 	C 	0.2307	0.3454	0.3303	0.243
Mof_C 	C 	0.0314	0.1761	0.0452	0.266
Mof_C 	C 	0.4241	0.7804	0.4729	-0.19
Mof_C 	C 	0.0853	0.8668	0.0193	-0.191
Mof_C 	C 	0.4515	0.944	0.5829	0.242
Mof_C 	C 	0.0759	0.2804	0.0271	-0.186
Mof_C 	C 	0.2693	0.8454	0.1697	0.243
Mof_C 	C 	0.5066	0.1648	0.4464	0.106
Mof_C 	C 	0.7693	0.6546	0.6697	0.243
Mof_C 	C 	0.3527	0.3065	0.4037	0.109
Mof_C 	C 	0.1473	0.8065	0.0963	0.108
Mof_C 	C 	0.5485	0.056	0.4171	0.242
Mof_C 	C 	0.4147	0.3668	0.4807	-0.193
Mof_C 	C 	0.5314	0.3239	0.5452	0.268
Mof_C 	C 	0.9241	0.7196	0.9729	-0.186
Mof_C 	C 	0.4686	0.6761	0.4548	0.268
Mof_N 	N 	0.3951	0.2067	0.3851	-0.095
Mof_N 	N 	0.6049	0.7933	0.6149	-0.095
Mof_N 	N 	0.8951	0.2933	0.8851	-0.093
Mof_N 	N 	0.1049	0.7067	0.1149	-0.093
Mof_O 	O 	0.688	0.0569	0.8366	-0.149
Mof_O 	O 	0.4294	0.4454	0.047	-0.046
Mof_O 	O 	0.0706	0.9454	0.453	-0.046
Mof_O 	O 	0.5896	0.3804	0.6202	-0.167
Mof_O 	O 	0.6486	0.0067	0.4684	-0.163
Mof_O 	O 	0.3213	0.7803	0.2336	-0.151
Mof_O 	O 	0.8514	0.5067	0.0316	-0.163
Mof_O 	O 	0.0896	0.1196	0.1202	-0.166
Mof_O 	O 	0.6787	0.2197	0.7664	-0.151
Mof_O 	O 	0.1486	0.4933	0.9684	-0.163
Mof_O 	O 	0.5706	0.5546	0.953	-0.046
Mof_O 	O 	0.812	0.5569	0.6634	-0.149
Mof_O 	O 	0.3514	0.9933	0.5316	-0.163
Mof_O 	O 	0.8213	0.7197	0.7336	-0.151
Mof_O 	O 	0.4104	0.6196	0.3798	-0.167
Mof_O 	O 	0.477	0.0193	0.3407	-0.145
Mof_O 	O 	0.188	0.4431	0.3366	-0.149
Mof_O 	O 	0.1787	0.2803	0.2664	-0.151
Mof_O 	O 	0.9104	0.8804	0.8798	-0.166
Mof_O 	O 	0.523	0.9807	0.6593	-0.145
Mof_O 	O 	0.023	0.5193	0.1593	-0.144
Mof_O 	O 	0.9294	0.0546	0.547	-0.046
Mof_O 	O 	0.312	0.9431	0.1634	-0.149
Mof_O 	O 	0.977	0.4807	0.8407	-0.144
_end
