data_functionalizedCrystal
_audit_creation_method	'EQeq! by Chris Wilmer'
_symmetry_space_group_name_H-M	'P1'
_symmetry_Int_Tables_number	1
_symmetry_cell_setting	triclinic
loop_
_symmetry_equiv_pos_as_xyz
  x,y,z
_cell_length_a	33.4124
_cell_length_b	33.4124
_cell_length_c	13.0665
_cell_angle_alpha	90
_cell_angle_beta	90
_cell_angle_gamma	90
loop_
_atom_site_label
_atom_site_type_symbol
_atom_site_fract_x
_atom_site_fract_y
_atom_site_fract_z
_atom_site_charge
Mof_Mn	Mn	0.2232	0.84376	0.99697	0.904
Mof_O 	O 	0.25016	0.72338	0.092	-0.367
Mof_O 	O 	0.23981	0.78308	0.0147	-0.37
Mof_O 	O 	0.16351	0.78286	0.6789	-0.407
Mof_O 	O 	0.15012	0.72441	0.6123	-0.337
Mof_O 	O 	0.114	0.51065	0.9784	-0.275
Mof_O 	O 	0.11178	0.54296	0.6852	-0.276
Mof_O 	O 	0.31188	0.37418	0.6191	-0.382
Mof_O 	O 	0.3356	0.33756	0.7514	-0.381
Mof_O 	O 	0.2736	0.35062	0.0922	-0.357
Mof_O 	O 	0.2179	0.3855	0.1129	-0.31
Mof_C 	C 	0.2332	0.7458	0.023	0.333
Mof_C 	C 	0.2051	0.72569	0.9501	-0.089
Mof_C 	C 	0.19497	0.74467	0.859	0.021
Mof_H 	H 	0.2039	0.7712	0.8463	0.034
Mof_C 	C 	0.17183	0.72482	0.7867	-0.085
Mof_C 	C 	0.15881	0.68599	0.8053	-0.053
Mof_H 	H 	0.143	0.6724	0.7559	0.043
Mof_C 	C 	0.16894	0.66701	0.8964	0.037
Mof_C 	C 	0.19208	0.68685	0.9688	-0.029
Mof_H 	H 	0.199	0.6739	0.031	0.036
Mof_C 	C 	0.1602	0.7451	0.6913	0.313
Mof_C 	C 	0.15518	0.62498	0.9162	-0.129
Mof_C 	C 	0.16434	0.59362	0.8504	0.164
Mof_C 	C 	0.15062	0.55522	0.8715	-0.109
Mof_C 	C 	0.12773	0.54819	0.9585	0.225
Mof_C 	C 	0.11857	0.57955	0.0244	-0.298
Mof_C 	C 	0.1323	0.61794	0.0032	0.093
Mof_H 	H 	0.126	0.6394	0.0482	-0.015
Mof_C 	C 	0.1919	0.5998	0.757	-0.513
Mof_H 	H 	0.1991	0.6281	0.7515	0.176
Mof_H 	H 	0.1779	0.5914	0.6947	0.175
Mof_H 	H 	0.2163	0.5838	0.7655	0.167
Mof_C 	C 	0.16037	0.52003	0.8048	-0.105
Mof_C 	C 	0.13955	0.51504	0.7136	0.218
Mof_C 	C 	0.14667	0.48163	0.6529	-0.3
Mof_C 	C 	0.17462	0.45321	0.6833	0.11
Mof_H 	H 	0.1795	0.4304	0.6419	-0.02
Mof_C 	C 	0.19545	0.45821	0.7745	-0.143
Mof_C 	C 	0.18832	0.49162	0.8353	0.164
Mof_C 	C 	0.2137	0.5021	0.9312	-0.508
Mof_H 	H 	0.2323	0.4801	0.9456	0.172
Mof_H 	H 	0.1959	0.5059	0.9901	0.174
Mof_H 	H 	0.2288	0.5267	0.9185	0.167
Mof_C 	C 	0.22357	0.42522	0.8106	0.056
Mof_C 	C 	0.25256	0.40987	0.7452	-0.056
Mof_H 	H 	0.254	0.4189	0.6763	0.054
Mof_C 	C 	0.27952	0.38137	0.7806	-0.074
Mof_C 	C 	0.27748	0.36821	0.8813	-0.006
Mof_H 	H 	0.2959	0.3487	0.9055	0.054
Mof_C 	C 	0.24849	0.38356	0.9468	-0.05
Mof_C 	C 	0.22153	0.41206	0.9114	-0.084
Mof_H 	H 	0.2017	0.4226	0.9561	0.056
Mof_C 	C 	0.2445	0.373	0.0604	0.299
Mof_C 	C 	0.31	0.3642	0.7103	0.332
Mof_C 	C 	0.0935	0.5718	0.1251	0.648
Mof_C 	C 	0.0515	0.5553	0.097	-0.883
Mof_H 	H 	0.0362	0.5504	0.1598	0.264
Mof_H 	H 	0.0544	0.5302	0.0591	0.267
Mof_H 	H 	0.0373	0.5749	0.0545	0.277
Mof_C 	C 	0.1147	0.5414	0.1944	-0.887
Mof_H 	H 	0.0986	0.537	0.2561	0.248
Mof_H 	H 	0.1411	0.5518	0.2137	0.262
Mof_H 	H 	0.118	0.5161	0.1576	0.275
Mof_C 	C 	0.087	0.6092	0.1864	-0.958
Mof_H 	H 	0.0715	0.6028	0.2479	0.295
Mof_H 	H 	0.0724	0.6288	0.145	0.311
Mof_H 	H 	0.113	0.6204	0.2065	0.294
Mof_C 	C 	0.1247	0.4765	0.5465	0.678
Mof_C 	C 	0.0796	0.4743	0.561	-0.952
Mof_H 	H 	0.0666	0.4713	0.4942	0.282
Mof_H 	H 	0.0702	0.4989	0.5938	0.291
Mof_H 	H 	0.073	0.4513	0.6043	0.298
Mof_C 	C 	0.1356	0.5127	0.4769	-0.894
Mof_H 	H 	0.1222	0.5099	0.4106	0.254
Mof_H 	H 	0.1647	0.5135	0.4664	0.266
Mof_H 	H 	0.1269	0.5376	0.5097	0.28
Mof_C 	C 	0.1364	0.4386	0.4932	-0.989
Mof_H 	H 	0.1223	0.4368	0.4276	0.301
Mof_H 	H 	0.1293	0.4156	0.5361	0.316
Mof_H 	H 	0.1653	0.4386	0.4809	0.305
Mof_Mn	Mn	0.7768	0.15624	0.49697	0.893
Mof_O 	O 	0.74984	0.27662	0.592	-0.367
Mof_O 	O 	0.76019	0.21692	0.5147	-0.368
Mof_O 	O 	0.83649	0.21714	0.1789	-0.408
Mof_O 	O 	0.84988	0.27559	0.1123	-0.34
Mof_O 	O 	0.886	0.48935	0.4784	-0.279
Mof_O 	O 	0.88822	0.45704	0.1852	-0.274
Mof_O 	O 	0.68812	0.62582	0.1191	-0.384
Mof_O 	O 	0.6644	0.66244	0.2514	-0.383
Mof_O 	O 	0.7264	0.64938	0.5922	-0.358
Mof_O 	O 	0.7821	0.6145	0.6129	-0.31
Mof_C 	C 	0.7668	0.2542	0.523	0.336
Mof_C 	C 	0.7949	0.27431	0.4501	-0.089
Mof_C 	C 	0.80503	0.25533	0.359	0.019
Mof_H 	H 	0.7961	0.2288	0.3463	0.035
Mof_C 	C 	0.82817	0.27518	0.2867	-0.083
Mof_C 	C 	0.84119	0.31401	0.3053	-0.058
Mof_H 	H 	0.857	0.3276	0.2559	0.045
Mof_C 	C 	0.83106	0.33299	0.3964	0.045
Mof_C 	C 	0.80792	0.31315	0.4688	-0.044
Mof_H 	H 	0.801	0.3261	0.531	0.046
Mof_C 	C 	0.8398	0.2549	0.1913	0.312
Mof_C 	C 	0.84482	0.37502	0.4162	-0.141
Mof_C 	C 	0.83566	0.40638	0.3504	0.167
Mof_C 	C 	0.84938	0.44478	0.3715	-0.111
Mof_C 	C 	0.87227	0.45181	0.4585	0.219
Mof_C 	C 	0.88143	0.42045	0.5244	-0.295
Mof_C 	C 	0.8677	0.38206	0.5032	0.106
Mof_H 	H 	0.874	0.3606	0.5482	-0.017
Mof_C 	C 	0.8081	0.4002	0.257	-0.515
Mof_H 	H 	0.8009	0.3719	0.2515	0.175
Mof_H 	H 	0.8221	0.4086	0.1947	0.174
Mof_H 	H 	0.7837	0.4162	0.2655	0.167
Mof_C 	C 	0.83963	0.47997	0.3048	-0.1
Mof_C 	C 	0.86045	0.48496	0.2136	0.21
Mof_C 	C 	0.85333	0.51837	0.1529	-0.282
Mof_C 	C 	0.82538	0.54679	0.1833	0.098
Mof_H 	H 	0.8205	0.5696	0.1419	-0.016
Mof_C 	C 	0.80455	0.54179	0.2745	-0.136
Mof_C 	C 	0.81168	0.50838	0.3353	0.158
Mof_C 	C 	0.7863	0.4979	0.4312	-0.5
Mof_H 	H 	0.7677	0.5199	0.4456	0.168
Mof_H 	H 	0.8041	0.4941	0.4901	0.17
Mof_H 	H 	0.7712	0.4733	0.4185	0.164
Mof_C 	C 	0.77643	0.57478	0.3106	0.05
Mof_C 	C 	0.74744	0.59013	0.2452	-0.052
Mof_H 	H 	0.746	0.5811	0.1763	0.051
Mof_C 	C 	0.72048	0.61863	0.2806	-0.079
Mof_C 	C 	0.72252	0.63179	0.3813	0.001
Mof_H 	H 	0.7041	0.6513	0.4055	0.05
Mof_C 	C 	0.75151	0.61644	0.4468	-0.063
Mof_C 	C 	0.77847	0.58794	0.4114	-0.076
Mof_H 	H 	0.7983	0.5774	0.4561	0.052
Mof_C 	C 	0.7555	0.627	0.5604	0.31
Mof_C 	C 	0.69	0.6358	0.2103	0.333
Mof_C 	C 	0.9065	0.4282	0.6251	0.656
Mof_C 	C 	0.9485	0.4447	0.597	-0.893
Mof_H 	H 	0.9638	0.4496	0.6598	0.267
Mof_H 	H 	0.9456	0.4698	0.5591	0.273
Mof_H 	H 	0.9627	0.4251	0.5545	0.282
Mof_C 	C 	0.8853	0.4586	0.6944	-0.898
Mof_H 	H 	0.9014	0.463	0.7561	0.254
Mof_H 	H 	0.8589	0.4482	0.7137	0.267
Mof_H 	H 	0.882	0.4839	0.6576	0.281
Mof_C 	C 	0.913	0.3908	0.6864	-0.967
Mof_H 	H 	0.9285	0.3972	0.7479	0.299
Mof_H 	H 	0.9276	0.3712	0.645	0.314
Mof_H 	H 	0.887	0.3796	0.7065	0.298
Mof_C 	C 	0.8753	0.5235	0.0465	0.623
Mof_C 	C 	0.9204	0.5257	0.061	-0.937
Mof_H 	H 	0.9334	0.5287	0.9942	0.285
Mof_H 	H 	0.9298	0.5011	0.0938	0.285
Mof_H 	H 	0.927	0.5487	0.1043	0.293
Mof_C 	C 	0.8644	0.4873	0.9769	-0.811
Mof_H 	H 	0.8778	0.4901	0.9106	0.232
Mof_H 	H 	0.8353	0.4865	0.9664	0.247
Mof_H 	H 	0.8731	0.4624	0.0097	0.249
Mof_C 	C 	0.8636	0.5614	0.9932	-0.903
Mof_H 	H 	0.8777	0.5632	0.9276	0.279
Mof_H 	H 	0.8707	0.5844	0.0361	0.286
Mof_H 	H 	0.8347	0.5614	0.9809	0.284
Mof_Mn	Mn	0.65624	0.7232	0.24697	0.892
Mof_O 	O 	0.77662	0.75016	0.342	-0.368
Mof_O 	O 	0.71692	0.73981	0.2647	-0.368
Mof_O 	O 	0.71714	0.66351	0.9289	-0.406
Mof_O 	O 	0.77559	0.65012	0.8623	-0.338
Mof_O 	O 	0.98935	0.614	0.2284	-0.279
Mof_O 	O 	0.95704	0.61178	0.9352	-0.276
Mof_O 	O 	0.12582	0.81188	0.8691	-0.387
Mof_O 	O 	0.16244	0.8356	0.0014	-0.393
Mof_O 	O 	0.14938	0.7736	0.3422	-0.359
Mof_O 	O 	0.1145	0.7179	0.3629	-0.311
Mof_C 	C 	0.7542	0.7332	0.273	0.337
Mof_C 	C 	0.77431	0.7051	0.2001	-0.092
Mof_C 	C 	0.75533	0.69497	0.109	0.025
Mof_H 	H 	0.7288	0.7039	0.0963	0.031
Mof_C 	C 	0.77518	0.67183	0.0367	-0.095
Mof_C 	C 	0.81401	0.65881	0.0553	-0.053
Mof_H 	H 	0.8276	0.643	0.0059	0.041
Mof_C 	C 	0.83299	0.66894	0.1464	0.042
Mof_C 	C 	0.81315	0.69208	0.2188	-0.042
Mof_H 	H 	0.8261	0.699	0.281	0.044
Mof_C 	C 	0.7549	0.6602	0.9413	0.323
Mof_C 	C 	0.87502	0.65518	0.1662	-0.142
Mof_C 	C 	0.90638	0.66434	0.1004	0.173
Mof_C 	C 	0.94478	0.65062	0.1215	-0.11
Mof_C 	C 	0.95181	0.62773	0.2085	0.218
Mof_C 	C 	0.92045	0.61857	0.2744	-0.294
Mof_C 	C 	0.88206	0.6323	0.2532	0.106
Mof_H 	H 	0.8606	0.626	0.2982	-0.017
Mof_C 	C 	0.9002	0.6919	0.007	-0.544
Mof_H 	H 	0.8719	0.6991	0.0015	0.182
Mof_H 	H 	0.9086	0.6779	0.9447	0.19
Mof_H 	H 	0.9162	0.7163	0.0155	0.174
Mof_C 	C 	0.97997	0.66037	0.0548	-0.117
Mof_C 	C 	0.98496	0.63955	0.9636	0.232
Mof_C 	C 	0.01837	0.64667	0.9029	-0.308
Mof_C 	C 	0.04679	0.67462	0.9333	0.124
Mof_H 	H 	0.0696	0.6795	0.8919	-0.023
Mof_C 	C 	0.04179	0.69545	0.0245	-0.15
Mof_C 	C 	0.00838	0.68832	0.0853	0.168
Mof_C 	C 	0.9979	0.7137	0.1812	-0.508
Mof_H 	H 	0.0199	0.7323	0.1956	0.17
Mof_H 	H 	0.9941	0.6959	0.2401	0.172
Mof_H 	H 	0.9733	0.7288	0.1685	0.165
Mof_C 	C 	0.07478	0.72357	0.0606	0.037
Mof_C 	C 	0.09013	0.75256	0.9952	-0.025
Mof_H 	H 	0.0811	0.754	0.9263	0.045
Mof_C 	C 	0.11863	0.77952	0.0306	-0.105
Mof_C 	C 	0.13179	0.77748	0.1313	0.014
Mof_H 	H 	0.1513	0.7959	0.1555	0.045
Mof_C 	C 	0.11644	0.74849	0.1968	-0.072
Mof_C 	C 	0.08794	0.72153	0.1614	-0.068
Mof_H 	H 	0.0774	0.7017	0.2061	0.049
Mof_C 	C 	0.127	0.7445	0.3104	0.312
Mof_C 	C 	0.1358	0.81	0.9603	0.352
Mof_C 	C 	0.9282	0.5935	0.3751	0.652
Mof_C 	C 	0.9447	0.5515	0.347	-0.89
Mof_H 	H 	0.9496	0.5362	0.4098	0.266
Mof_H 	H 	0.9698	0.5544	0.3091	0.272
Mof_H 	H 	0.9251	0.5373	0.3045	0.281
Mof_C 	C 	0.9586	0.6147	0.4444	-0.892
Mof_H 	H 	0.963	0.5986	0.5061	0.25
Mof_H 	H 	0.9482	0.6411	0.4637	0.264
Mof_H 	H 	0.9839	0.618	0.4076	0.278
Mof_C 	C 	0.8908	0.587	0.4364	-0.962
Mof_H 	H 	0.8972	0.5715	0.4979	0.297
Mof_H 	H 	0.8712	0.5724	0.395	0.312
Mof_H 	H 	0.8796	0.613	0.4565	0.296
Mof_C 	C 	0.0235	0.6247	0.7965	0.686
Mof_C 	C 	0.0257	0.5796	0.811	-0.96
Mof_H 	H 	0.0287	0.5666	0.7442	0.285
Mof_H 	H 	0.0011	0.5702	0.8438	0.294
Mof_H 	H 	0.0487	0.573	0.8543	0.302
Mof_C 	C 	0.9873	0.6356	0.7269	-0.9
Mof_H 	H 	0.9901	0.6222	0.6606	0.256
Mof_H 	H 	0.9865	0.6647	0.7164	0.269
Mof_H 	H 	0.9624	0.6269	0.7597	0.282
Mof_C 	C 	0.0614	0.6364	0.7432	-0.996
Mof_H 	H 	0.0632	0.6223	0.6776	0.304
Mof_H 	H 	0.0844	0.6293	0.7861	0.319
Mof_H 	H 	0.0614	0.6653	0.7309	0.307
Mof_Mn	Mn	0.34376	0.2768	0.74697	0.894
Mof_O 	O 	0.22338	0.24984	0.842	-0.362
Mof_O 	O 	0.28308	0.26019	0.7647	-0.367
Mof_O 	O 	0.28286	0.33649	0.4289	-0.408
Mof_O 	O 	0.22441	0.34988	0.3623	-0.339
Mof_O 	O 	0.01065	0.386	0.7284	-0.277
Mof_O 	O 	0.04296	0.38822	0.4352	-0.277
Mof_O 	O 	0.87418	0.18812	0.3691	-0.383
Mof_O 	O 	0.83756	0.1644	0.5014	-0.383
Mof_O 	O 	0.85062	0.2264	0.8422	-0.353
Mof_O 	O 	0.8855	0.2821	0.8629	-0.306
Mof_C 	C 	0.2458	0.2668	0.773	0.336
Mof_C 	C 	0.22569	0.2949	0.7001	-0.088
Mof_C 	C 	0.24467	0.30503	0.609	0.019
Mof_H 	H 	0.2712	0.2961	0.5963	0.035
Mof_C 	C 	0.22482	0.32817	0.5367	-0.083
Mof_C 	C 	0.18599	0.34119	0.5553	-0.058
Mof_H 	H 	0.1724	0.357	0.5059	0.045
Mof_C 	C 	0.16701	0.33106	0.6464	0.045
Mof_C 	C 	0.18685	0.30792	0.7188	-0.044
Mof_H 	H 	0.1739	0.301	0.781	0.046
Mof_C 	C 	0.2451	0.3398	0.4413	0.312
Mof_C 	C 	0.12498	0.34482	0.6662	-0.14
Mof_C 	C 	0.09362	0.33566	0.6004	0.166
Mof_C 	C 	0.05522	0.34938	0.6215	-0.108
Mof_C 	C 	0.04819	0.37227	0.7085	0.216
Mof_C 	C 	0.07955	0.38143	0.7744	-0.289
Mof_C 	C 	0.11794	0.3677	0.7532	0.103
Mof_H 	H 	0.1394	0.374	0.7982	-0.016
Mof_C 	C 	0.0998	0.3081	0.507	-0.515
Mof_H 	H 	0.1281	0.3009	0.5015	0.176
Mof_H 	H 	0.0914	0.3221	0.4447	0.175
Mof_H 	H 	0.0838	0.2837	0.5155	0.167
Mof_C 	C 	0.02003	0.33963	0.5548	-0.105
Mof_C 	C 	0.01504	0.36045	0.4636	0.217
Mof_C 	C 	0.98163	0.35333	0.4029	-0.299
Mof_C 	C 	0.95321	0.32538	0.4333	0.109
Mof_H 	H 	0.9304	0.3205	0.3919	-0.02
Mof_C 	C 	0.95821	0.30455	0.5245	-0.141
Mof_C 	C 	0.99162	0.31168	0.5853	0.163
Mof_C 	C 	0.0021	0.2863	0.6812	-0.505
Mof_H 	H 	0.9801	0.2677	0.6956	0.17
Mof_H 	H 	0.0059	0.3041	0.7401	0.172
Mof_H 	H 	0.0267	0.2712	0.6685	0.166
Mof_C 	C 	0.92522	0.27643	0.5606	0.052
Mof_C 	C 	0.90987	0.24744	0.4952	-0.053
Mof_H 	H 	0.9189	0.246	0.4263	0.053
Mof_C 	C 	0.88137	0.22048	0.5306	-0.078
Mof_C 	C 	0.86821	0.22252	0.6313	-0
Mof_H 	H 	0.8487	0.2041	0.6555	0.05
Mof_C 	C 	0.88356	0.25151	0.6968	-0.061
Mof_C 	C 	0.91206	0.27847	0.6614	-0.078
Mof_H 	H 	0.9226	0.2983	0.7061	0.053
Mof_C 	C 	0.873	0.2555	0.8104	0.308
Mof_C 	C 	0.8642	0.19	0.4603	0.333
Mof_C 	C 	0.0718	0.4065	0.8751	0.641
Mof_C 	C 	0.0553	0.4485	0.847	-0.882
Mof_H 	H 	0.0504	0.4638	0.9098	0.266
Mof_H 	H 	0.0302	0.4456	0.8091	0.27
Mof_H 	H 	0.0749	0.4627	0.8045	0.279
Mof_C 	C 	0.0414	0.3853	0.9444	-0.856
Mof_H 	H 	0.037	0.4014	0.0061	0.233
Mof_H 	H 	0.0518	0.3589	0.9637	0.257
Mof_H 	H 	0.0161	0.382	0.9076	0.27
Mof_C 	C 	0.1092	0.413	0.9364	-0.955
Mof_H 	H 	0.1028	0.4285	0.9979	0.297
Mof_H 	H 	0.1288	0.4276	0.895	0.31
Mof_H 	H 	0.1204	0.387	0.9565	0.295
Mof_C 	C 	0.9765	0.3753	0.2965	0.676
Mof_C 	C 	0.9743	0.4204	0.311	-0.949
Mof_H 	H 	0.9713	0.4334	0.2442	0.281
Mof_H 	H 	0.9989	0.4298	0.3438	0.29
Mof_H 	H 	0.9513	0.427	0.3543	0.298
Mof_C 	C 	0.0127	0.3644	0.2269	-0.89
Mof_H 	H 	0.0099	0.3778	0.1606	0.252
Mof_H 	H 	0.0135	0.3353	0.2164	0.264
Mof_H 	H 	0.0376	0.3731	0.2597	0.278
Mof_C 	C 	0.9386	0.3636	0.2432	-0.986
Mof_H 	H 	0.9368	0.3777	0.1776	0.3
Mof_H 	H 	0.9156	0.3707	0.2861	0.315
Mof_H 	H 	0.9386	0.3347	0.2309	0.303
Mof_Mn	Mn	0.2768	0.34376	0.25303	0.892
Mof_O 	O 	0.24984	0.22338	0.158	-0.367
Mof_O 	O 	0.26019	0.28308	0.2353	-0.368
Mof_O 	O 	0.33649	0.28286	0.5711	-0.408
Mof_O 	O 	0.34988	0.22441	0.6377	-0.338
Mof_O 	O 	0.386	0.01065	0.2716	-0.279
Mof_O 	O 	0.38822	0.04296	0.5648	-0.277
Mof_O 	O 	0.18812	0.87418	0.6309	-0.383
Mof_O 	O 	0.1644	0.83756	0.4986	-0.383
Mof_O 	O 	0.2264	0.85062	0.1578	-0.36
Mof_O 	O 	0.2821	0.8855	0.1371	-0.313
Mof_C 	C 	0.2668	0.2458	0.227	0.336
Mof_C 	C 	0.2949	0.22569	0.2999	-0.089
Mof_C 	C 	0.30503	0.24467	0.391	0.019
Mof_H 	H 	0.2961	0.2712	0.4037	0.035
Mof_C 	C 	0.32817	0.22482	0.4633	-0.082
Mof_C 	C 	0.34119	0.18599	0.4447	-0.058
Mof_H 	H 	0.357	0.1724	0.4941	0.045
Mof_C 	C 	0.33106	0.16701	0.3536	0.045
Mof_C 	C 	0.30792	0.18685	0.2812	-0.044
Mof_H 	H 	0.301	0.1739	0.219	0.045
Mof_C 	C 	0.3398	0.2451	0.5587	0.312
Mof_C 	C 	0.34482	0.12498	0.3338	-0.142
Mof_C 	C 	0.33566	0.09362	0.3996	0.168
Mof_C 	C 	0.34938	0.05522	0.3785	-0.11
Mof_C 	C 	0.37227	0.04819	0.2915	0.219
Mof_C 	C 	0.38143	0.07955	0.2256	-0.296
Mof_C 	C 	0.3677	0.11794	0.2468	0.106
Mof_H 	H 	0.374	0.1394	0.2018	-0.018
Mof_C 	C 	0.3081	0.0998	0.493	-0.517
Mof_H 	H 	0.3009	0.1281	0.4985	0.177
Mof_H 	H 	0.3221	0.0914	0.5553	0.176
Mof_H 	H 	0.2837	0.0838	0.4845	0.168
Mof_C 	C 	0.33963	0.02003	0.4452	-0.104
Mof_C 	C 	0.36045	0.01504	0.5364	0.218
Mof_C 	C 	0.35333	0.98163	0.5971	-0.3
Mof_C 	C 	0.32538	0.95321	0.5667	0.109
Mof_H 	H 	0.3205	0.9304	0.6081	-0.02
Mof_C 	C 	0.30455	0.95821	0.4755	-0.141
Mof_C 	C 	0.31168	0.99162	0.4147	0.161
Mof_C 	C 	0.2863	0.0021	0.3188	-0.501
Mof_H 	H 	0.2677	0.9801	0.3044	0.168
Mof_H 	H 	0.3041	0.0059	0.2599	0.169
Mof_H 	H 	0.2712	0.0267	0.3315	0.164
Mof_C 	C 	0.27643	0.92522	0.4394	0.052
Mof_C 	C 	0.24744	0.90987	0.5048	-0.053
Mof_H 	H 	0.246	0.9189	0.5737	0.053
Mof_C 	C 	0.22048	0.88137	0.4694	-0.079
Mof_C 	C 	0.22252	0.86821	0.3687	0
Mof_H 	H 	0.2041	0.8487	0.3445	0.05
Mof_C 	C 	0.25151	0.88356	0.3032	-0.063
Mof_C 	C 	0.27847	0.91206	0.3386	-0.077
Mof_H 	H 	0.2983	0.9226	0.2939	0.052
Mof_C 	C 	0.2555	0.873	0.1896	0.31
Mof_C 	C 	0.19	0.8642	0.5397	0.333
Mof_C 	C 	0.4065	0.0718	0.1249	0.659
Mof_C 	C 	0.4485	0.0553	0.153	-0.894
Mof_H 	H 	0.4638	0.0504	0.0902	0.266
Mof_H 	H 	0.4456	0.0302	0.1909	0.272
Mof_H 	H 	0.4627	0.0749	0.1955	0.282
Mof_C 	C 	0.3853	0.0414	0.0556	-0.916
Mof_H 	H 	0.4014	0.037	0.9939	0.262
Mof_H 	H 	0.3589	0.0518	0.0363	0.269
Mof_H 	H 	0.382	0.0161	0.0924	0.284
Mof_C 	C 	0.413	0.1092	0.0636	-0.966
Mof_H 	H 	0.4285	0.1028	0.0021	0.296
Mof_H 	H 	0.4276	0.1288	0.105	0.313
Mof_H 	H 	0.387	0.1204	0.0435	0.295
Mof_C 	C 	0.3753	0.9765	0.7035	0.68
Mof_C 	C 	0.4204	0.9743	0.689	-0.954
Mof_H 	H 	0.4334	0.9713	0.7558	0.283
Mof_H 	H 	0.4298	0.9989	0.6562	0.291
Mof_H 	H 	0.427	0.9513	0.6457	0.299
Mof_C 	C 	0.3644	0.0127	0.7731	-0.896
Mof_H 	H 	0.3778	0.0099	0.8394	0.255
Mof_H 	H 	0.3353	0.0135	0.7836	0.268
Mof_H 	H 	0.3731	0.0376	0.7403	0.281
Mof_C 	C 	0.3636	0.9386	0.7568	-0.992
Mof_H 	H 	0.3777	0.9368	0.8224	0.303
Mof_H 	H 	0.3707	0.9156	0.7139	0.317
Mof_H 	H 	0.3347	0.9386	0.7691	0.306
Mof_Mn	Mn	0.7232	0.65624	0.75303	0.894
Mof_O 	O 	0.75016	0.77662	0.658	-0.366
Mof_O 	O 	0.73981	0.71692	0.7353	-0.367
Mof_O 	O 	0.66351	0.71714	0.0711	-0.407
Mof_O 	O 	0.65012	0.77559	0.1377	-0.338
Mof_O 	O 	0.614	0.98935	0.7716	-0.279
Mof_O 	O 	0.61178	0.95704	0.0648	-0.277
Mof_O 	O 	0.81188	0.12582	0.1309	-0.376
Mof_O 	O 	0.8356	0.16244	0.9986	-0.365
Mof_O 	O 	0.7736	0.14938	0.6578	-0.357
Mof_O 	O 	0.7179	0.1145	0.6371	-0.309
Mof_C 	C 	0.7332	0.7542	0.727	0.335
Mof_C 	C 	0.7051	0.77431	0.7999	-0.086
Mof_C 	C 	0.69497	0.75533	0.891	0.014
Mof_H 	H 	0.7039	0.7288	0.9037	0.038
Mof_C 	C 	0.67183	0.77518	0.9633	-0.071
Mof_C 	C 	0.65881	0.81401	0.9447	-0.063
Mof_H 	H 	0.643	0.8276	0.9941	0.049
Mof_C 	C 	0.66894	0.83299	0.8536	0.047
Mof_C 	C 	0.69208	0.81315	0.7812	-0.046
Mof_H 	H 	0.699	0.8261	0.719	0.046
Mof_C 	C 	0.6602	0.7549	0.0587	0.301
Mof_C 	C 	0.65518	0.87502	0.8338	-0.14
Mof_C 	C 	0.66434	0.90638	0.8996	0.163
Mof_C 	C 	0.65062	0.94478	0.8785	-0.109
Mof_C 	C 	0.62773	0.95181	0.7915	0.218
Mof_C 	C 	0.61857	0.92045	0.7256	-0.293
Mof_C 	C 	0.6323	0.88206	0.7468	0.104
Mof_H 	H 	0.626	0.8606	0.7018	-0.017
Mof_C 	C 	0.6919	0.9002	0.993	-0.492
Mof_H 	H 	0.6991	0.8719	0.9985	0.171
Mof_H 	H 	0.6779	0.9086	0.0553	0.163
Mof_H 	H 	0.7163	0.9162	0.9845	0.163
Mof_C 	C 	0.66037	0.97997	0.9452	-0.094
Mof_C 	C 	0.63955	0.98496	0.0364	0.206
Mof_C 	C 	0.64667	0.01837	0.0971	-0.292
Mof_C 	C 	0.67462	0.04679	0.0667	0.095
Mof_H 	H 	0.6795	0.0696	0.1081	-0.017
Mof_C 	C 	0.69545	0.04179	0.9755	-0.135
Mof_C 	C 	0.68832	0.00838	0.9147	0.159
Mof_C 	C 	0.7137	0.9979	0.8188	-0.501
Mof_H 	H 	0.7323	0.0199	0.8044	0.169
Mof_H 	H 	0.6959	0.9941	0.7599	0.17
Mof_H 	H 	0.7288	0.9733	0.8315	0.165
Mof_C 	C 	0.72357	0.07478	0.9394	0.077
Mof_C 	C 	0.75256	0.09013	0.0048	-0.098
Mof_H 	H 	0.754	0.0811	0.0737	0.065
Mof_C 	C 	0.77952	0.11863	0.9694	-0.036
Mof_C 	C 	0.77748	0.13179	0.8687	-0.023
Mof_H 	H 	0.7959	0.1513	0.8445	0.059
Mof_C 	C 	0.74849	0.11644	0.8032	-0.047
Mof_C 	C 	0.72153	0.08794	0.8386	-0.094
Mof_H 	H 	0.7017	0.0774	0.7939	0.058
Mof_C 	C 	0.7445	0.127	0.6896	0.304
Mof_C 	C 	0.81	0.1358	0.0397	0.301
Mof_C 	C 	0.5935	0.9282	0.6249	0.651
Mof_C 	C 	0.5515	0.9447	0.653	-0.889
Mof_H 	H 	0.5362	0.9496	0.5902	0.266
Mof_H 	H 	0.5544	0.9698	0.6909	0.271
Mof_H 	H 	0.5373	0.9251	0.6955	0.281
Mof_C 	C 	0.6147	0.9586	0.5556	-0.891
Mof_H 	H 	0.5986	0.963	0.4939	0.25
Mof_H 	H 	0.6411	0.9482	0.5363	0.264
Mof_H 	H 	0.618	0.9839	0.5924	0.278
Mof_C 	C 	0.587	0.8908	0.5636	-0.961
Mof_H 	H 	0.5715	0.8972	0.5021	0.296
Mof_H 	H 	0.5724	0.8712	0.605	0.312
Mof_H 	H 	0.613	0.8796	0.5435	0.295
Mof_C 	C 	0.6247	0.0235	0.2035	0.672
Mof_C 	C 	0.5796	0.0257	0.189	-0.945
Mof_H 	H 	0.5666	0.0287	0.2558	0.28
Mof_H 	H 	0.5702	0.0011	0.1562	0.288
Mof_H 	H 	0.573	0.0487	0.1457	0.295
Mof_C 	C 	0.6356	0.9873	0.2731	-0.888
Mof_H 	H 	0.6222	0.9901	0.3394	0.252
Mof_H 	H 	0.6647	0.9865	0.2836	0.265
Mof_H 	H 	0.6269	0.9624	0.2403	0.278
Mof_C 	C 	0.6364	0.0614	0.2568	-0.984
Mof_H 	H 	0.6223	0.0632	0.3224	0.3
Mof_H 	H 	0.6293	0.0844	0.2139	0.314
Mof_H 	H 	0.6653	0.0614	0.2691	0.303
Mof_Mn	Mn	0.84376	0.2232	0.00303	0.873
Mof_O 	O 	0.72338	0.25016	0.908	-0.366
Mof_O 	O 	0.78308	0.23981	0.9853	-0.361
Mof_O 	O 	0.78286	0.16351	0.3211	-0.407
Mof_O 	O 	0.72441	0.15012	0.3877	-0.338
Mof_O 	O 	0.51065	0.114	0.0216	-0.281
Mof_O 	O 	0.54296	0.11178	0.3148	-0.277
Mof_O 	O 	0.37418	0.31188	0.3809	-0.383
Mof_O 	O 	0.33756	0.3356	0.2486	-0.384
Mof_O 	O 	0.35062	0.2736	0.9078	-0.357
Mof_O 	O 	0.3855	0.2179	0.8871	-0.31
Mof_C 	C 	0.7458	0.2332	0.977	0.342
Mof_C 	C 	0.72569	0.2051	0.0499	-0.091
Mof_C 	C 	0.74467	0.19497	0.141	0.017
Mof_H 	H 	0.7712	0.2039	0.1537	0.034
Mof_C 	C 	0.72482	0.17183	0.2133	-0.079
Mof_C 	C 	0.68599	0.15881	0.1947	-0.065
Mof_H 	H 	0.6724	0.143	0.2441	0.047
Mof_C 	C 	0.66701	0.16894	0.1036	0.055
Mof_C 	C 	0.68685	0.19208	0.0312	-0.066
Mof_H 	H 	0.6739	0.199	0.969	0.059
Mof_C 	C 	0.7451	0.1602	0.3087	0.31
Mof_C 	C 	0.62498	0.15518	0.0838	-0.157
Mof_C 	C 	0.59362	0.16434	0.1496	0.172
Mof_C 	C 	0.55522	0.15062	0.1285	-0.111
Mof_C 	C 	0.54819	0.12773	0.0415	0.212
Mof_C 	C 	0.57955	0.11857	0.9756	-0.29
Mof_C 	C 	0.61794	0.1323	0.9968	0.12
Mof_H 	H 	0.6394	0.126	0.9518	-0.02
Mof_C 	C 	0.5998	0.1919	0.243	-0.52
Mof_H 	H 	0.6281	0.1991	0.2485	0.177
Mof_H 	H 	0.5914	0.1779	0.3053	0.177
Mof_H 	H 	0.5838	0.2163	0.2345	0.168
Mof_C 	C 	0.52003	0.16037	0.1952	-0.103
Mof_C 	C 	0.51504	0.13955	0.2864	0.217
Mof_C 	C 	0.48163	0.14667	0.3471	-0.299
Mof_C 	C 	0.45321	0.17462	0.3167	0.108
Mof_H 	H 	0.4304	0.1795	0.3581	-0.019
Mof_C 	C 	0.45821	0.19545	0.2255	-0.139
Mof_C 	C 	0.49162	0.18832	0.1647	0.159
Mof_C 	C 	0.5021	0.2137	0.0688	-0.497
Mof_H 	H 	0.4801	0.2323	0.0544	0.166
Mof_H 	H 	0.5059	0.1959	0.0099	0.167
Mof_H 	H 	0.5267	0.2288	0.0815	0.161
Mof_C 	C 	0.42522	0.22357	0.1894	0.048
Mof_C 	C 	0.40987	0.25256	0.2548	-0.05
Mof_H 	H 	0.4189	0.254	0.3237	0.052
Mof_C 	C 	0.38137	0.27952	0.2194	-0.082
Mof_C 	C 	0.36821	0.27748	0.1187	0.006
Mof_H 	H 	0.3487	0.2959	0.0945	0.046
Mof_C 	C 	0.38356	0.24849	0.0532	-0.074
Mof_C 	C 	0.41206	0.22153	0.0886	-0.072
Mof_H 	H 	0.4226	0.2017	0.0439	0.049
Mof_C 	C 	0.373	0.2445	0.9396	0.319
Mof_C 	C 	0.3642	0.31	0.2897	0.334
Mof_C 	C 	0.5718	0.0935	0.8749	0.656
Mof_C 	C 	0.5553	0.0515	0.903	-0.895
Mof_H 	H 	0.5504	0.0362	0.8402	0.268
Mof_H 	H 	0.5302	0.0544	0.9409	0.276
Mof_H 	H 	0.5749	0.0373	0.9455	0.285
Mof_C 	C 	0.5414	0.1147	0.8056	-0.896
Mof_H 	H 	0.537	0.0986	0.7439	0.252
Mof_H 	H 	0.5518	0.1411	0.7863	0.266
Mof_H 	H 	0.5161	0.118	0.8424	0.281
Mof_C 	C 	0.6092	0.087	0.8136	-0.965
Mof_H 	H 	0.6028	0.0715	0.7521	0.298
Mof_H 	H 	0.6288	0.0724	0.855	0.313
Mof_H 	H 	0.6204	0.113	0.7935	0.296
Mof_C 	C 	0.4765	0.1247	0.4535	0.679
Mof_C 	C 	0.4743	0.0796	0.439	-0.952
Mof_H 	H 	0.4713	0.0666	0.5058	0.283
Mof_H 	H 	0.4989	0.0702	0.4062	0.291
Mof_H 	H 	0.4513	0.073	0.3957	0.299
Mof_C 	C 	0.5127	0.1356	0.5231	-0.895
Mof_H 	H 	0.5099	0.1222	0.5894	0.254
Mof_H 	H 	0.5135	0.1647	0.5336	0.267
Mof_H 	H 	0.5376	0.1269	0.4903	0.28
Mof_C 	C 	0.4386	0.1364	0.5068	-0.991
Mof_H 	H 	0.4368	0.1223	0.5724	0.303
Mof_H 	H 	0.4156	0.1293	0.4639	0.317
Mof_H 	H 	0.4386	0.1653	0.5191	0.306
Mof_Mn	Mn	0.15624	0.7768	0.50303	0.893
Mof_O 	O 	0.27662	0.74984	0.408	-0.367
Mof_O 	O 	0.21692	0.76019	0.4853	-0.368
Mof_O 	O 	0.21714	0.83649	0.8211	-0.408
Mof_O 	O 	0.27559	0.84988	0.8877	-0.337
Mof_O 	O 	0.48935	0.886	0.5216	-0.278
Mof_O 	O 	0.45704	0.88822	0.8148	-0.278
Mof_O 	O 	0.62582	0.68812	0.8809	-0.378
Mof_O 	O 	0.66244	0.6644	0.7486	-0.382
Mof_O 	O 	0.64938	0.7264	0.4078	-0.358
Mof_O 	O 	0.6145	0.7821	0.3871	-0.311
Mof_C 	C 	0.2542	0.7668	0.477	0.336
Mof_C 	C 	0.27431	0.7949	0.5499	-0.089
Mof_C 	C 	0.25533	0.80503	0.641	0.019
Mof_H 	H 	0.2288	0.7961	0.6537	0.035
Mof_C 	C 	0.27518	0.82817	0.7133	-0.082
Mof_C 	C 	0.31401	0.84119	0.6947	-0.058
Mof_H 	H 	0.3276	0.857	0.7441	0.045
Mof_C 	C 	0.33299	0.83106	0.6036	0.045
Mof_C 	C 	0.31315	0.80792	0.5312	-0.044
Mof_H 	H 	0.3261	0.801	0.469	0.045
Mof_C 	C 	0.2549	0.8398	0.8087	0.312
Mof_C 	C 	0.37502	0.84482	0.5838	-0.141
Mof_C 	C 	0.40638	0.83566	0.6496	0.167
Mof_C 	C 	0.44478	0.84938	0.6285	-0.109
Mof_C 	C 	0.45181	0.87227	0.5415	0.217
Mof_C 	C 	0.42045	0.88143	0.4756	-0.292
Mof_C 	C 	0.38206	0.8677	0.4968	0.104
Mof_H 	H 	0.3606	0.874	0.4518	-0.017
Mof_C 	C 	0.4002	0.8081	0.743	-0.517
Mof_H 	H 	0.3719	0.8009	0.7485	0.177
Mof_H 	H 	0.4086	0.8221	0.8053	0.176
Mof_H 	H 	0.4162	0.7837	0.7345	0.168
Mof_C 	C 	0.47997	0.83963	0.6952	-0.106
Mof_C 	C 	0.48496	0.86045	0.7864	0.222
Mof_C 	C 	0.51837	0.85333	0.8471	-0.31
Mof_C 	C 	0.54679	0.82538	0.8167	0.116
Mof_H 	H 	0.5696	0.8205	0.8581	-0.022
Mof_C 	C 	0.54179	0.80455	0.7255	-0.144
Mof_C 	C 	0.50838	0.81168	0.6647	0.164
Mof_C 	C 	0.4979	0.7863	0.5688	-0.504
Mof_H 	H 	0.5199	0.7677	0.5544	0.169
Mof_H 	H 	0.4941	0.8041	0.5099	0.171
Mof_H 	H 	0.4733	0.7712	0.5815	0.165
Mof_C 	C 	0.57478	0.77643	0.6894	0.054
Mof_C 	C 	0.59013	0.74744	0.7548	-0.055
Mof_H 	H 	0.5811	0.746	0.8237	0.054
Mof_C 	C 	0.61863	0.72048	0.7194	-0.077
Mof_C 	C 	0.63179	0.72252	0.6187	-0.001
Mof_H 	H 	0.6513	0.7041	0.5945	0.05
Mof_C 	C 	0.61644	0.75151	0.5532	-0.062
Mof_C 	C 	0.58794	0.77847	0.5886	-0.079
Mof_H 	H 	0.5774	0.7983	0.5439	0.053
Mof_C 	C 	0.627	0.7555	0.4396	0.309
Mof_C 	C 	0.6358	0.69	0.7897	0.332
Mof_C 	C 	0.4282	0.9065	0.3749	0.649
Mof_C 	C 	0.4447	0.9485	0.403	-0.887
Mof_H 	H 	0.4496	0.9638	0.3402	0.265
Mof_H 	H 	0.4698	0.9456	0.4409	0.271
Mof_H 	H 	0.4251	0.9627	0.4455	0.28
Mof_C 	C 	0.4586	0.8853	0.3056	-0.888
Mof_H 	H 	0.463	0.9014	0.2439	0.248
Mof_H 	H 	0.4482	0.8589	0.2863	0.262
Mof_H 	H 	0.4839	0.882	0.3424	0.277
Mof_C 	C 	0.3908	0.913	0.3136	-0.958
Mof_H 	H 	0.3972	0.9285	0.2521	0.295
Mof_H 	H 	0.3712	0.9276	0.355	0.311
Mof_H 	H 	0.3796	0.887	0.2935	0.294
Mof_C 	C 	0.5235	0.8753	0.9535	0.712
Mof_C 	C 	0.5257	0.9204	0.939	-0.961
Mof_H 	H 	0.5287	0.9334	0.0058	0.281
Mof_H 	H 	0.5011	0.9298	0.9062	0.294
Mof_H 	H 	0.5487	0.927	0.8957	0.302
Mof_C 	C 	0.4873	0.8644	0.0231	-0.942
Mof_H 	H 	0.4901	0.8778	0.0894	0.266
Mof_H 	H 	0.4865	0.8353	0.0336	0.278
Mof_H 	H 	0.4624	0.8731	0.9903	0.297
Mof_C 	C 	0.5614	0.8636	0.0068	-1.044
Mof_H 	H 	0.5632	0.8777	0.0724	0.316
Mof_H 	H 	0.5844	0.8707	0.9639	0.336
Mof_H 	H 	0.5614	0.8347	0.0191	0.318
Mof_Mn	Mn	0.26659	0.73341	0.25	0.637
Mof_Mn	Mn	0.73341	0.26659	0.75	0.64
Mof_Mn	Mn	0.76659	0.76659	0.5	0.638
Mof_Mn	Mn	0.23341	0.23341	-0	0.629
Mof_Mn	Mn	0.15725	0.84275	0.75	0.796
Mof_Mn	Mn	0.84275	0.15725	0.25	0.791
Mof_Mn	Mn	0.65725	0.65725	-0	0.783
Mof_Mn	Mn	0.34275	0.34275	0.5	0.794
_end
