data_functionalizedCrystal
_audit_creation_method	'EQeq! by Chris Wilmer'
_symmetry_space_group_name_H-M	'P1'
_symmetry_Int_Tables_number	1
_symmetry_cell_setting	triclinic
loop_
_symmetry_equiv_pos_as_xyz
  x,y,z
_cell_length_a	32.425
_cell_length_b	32.425
_cell_length_c	9.34
_cell_angle_alpha	90
_cell_angle_beta	90
_cell_angle_gamma	120
loop_
_atom_site_label
_atom_site_type_symbol
_atom_site_fract_x
_atom_site_fract_y
_atom_site_fract_z
_atom_site_charge
Mof_N 	N 	0.53513	0.00209	0.1783	-0.276
Mof_N 	N 	0.49889	0.0576	0.0695	-0.267
Mof_N 	N 	0.3764	0.13728	0.7583	-0.241
Mof_C 	C 	0.55621	0.97521	0.2043	0.122
Mof_C 	C 	0.5843	0.9913	0.3337	-0.078
Mof_H 	H 	0.6017	0.978	0.376	0.06
Mof_C 	C 	0.5813	0.0283	0.3825	-0.083
Mof_H 	H 	0.5967	0.0468	0.465	0.058
Mof_C 	C 	0.55063	0.03496	0.2874	0.085
Mof_C 	C 	0.54196	0.07351	0.2979	-0.094
Mof_C 	C 	0.51674	0.08223	0.196	0.083
Mof_C 	C 	0.50457	0.1194	0.2091	-0.074
Mof_H 	H 	0.5131	0.1417	0.2851	0.053
Mof_C 	C 	0.47875	0.1162	0.0919	-0.084
Mof_H 	H 	0.4657	0.136	0.07	0.054
Mof_C 	C 	0.47461	0.0777	0.0066	0.07
Mof_C 	C 	0.44812	0.06209	0.8794	-0.129
Mof_C 	C 	0.42338	0.08813	0.8353	0.15
Mof_C 	C 	0.4396	0.1206	0.7265	-0.199
Mof_H 	H 	0.4673	0.1269	0.6745	0.094
Mof_C 	C 	0.4154	0.14408	0.6931	0.109
Mof_H 	H 	0.4276	0.1668	0.6177	-0.021
Mof_C 	C 	0.3607	0.1056	0.8658	0.102
Mof_H 	H 	0.333	0.1002	0.9164	-0.009
Mof_C 	C 	0.38255	0.0804	0.9061	-0.186
Mof_H 	H 	0.3698	0.0579	0.982	0.099
Mof_C 	C 	0.55982	0.10466	0.4278	-0.01
Mof_C 	C 	0.54303	0.0874	0.5629	0.02
Mof_H 	H 	0.5197	0.0548	0.5741	0.024
Mof_C 	C 	0.5593	0.1165	0.6835	-0.209
Mof_H 	H 	0.5481	0.1029	0.7754	0.096
Mof_C 	C 	0.5906	0.1637	0.6729	0.239
Mof_C 	C 	0.6078	0.1812	0.5367	-0.204
Mof_H 	H 	0.6306	0.214	0.5262	0.083
Mof_C 	C 	0.5929	0.1525	0.4152	0.018
Mof_H 	H 	0.6055	0.1658	0.324	0.015
Mof_C 	C 	0.6088	0.1948	0.8056	-0.591
Mof_H 	H 	0.5827	0.1848	0.8747	0.191
Mof_H 	H 	0.6208	0.2281	0.779	0.177
Mof_H 	H 	0.6346	0.1916	0.8488	0.19
Mof_N 	N 	0.2018	0.33542	0.51163	-0.265
Mof_N 	N 	0.16556	0.39093	0.40283	-0.265
Mof_N 	N 	0.04307	0.47061	0.09163	-0.232
Mof_C 	C 	0.22288	0.30854	0.53763	0.111
Mof_C 	C 	0.25097	0.32463	0.66703	-0.087
Mof_H 	H 	0.26837	0.31133	0.70933	0.064
Mof_C 	C 	0.24797	0.36163	0.71583	-0.066
Mof_H 	H 	0.26337	0.38013	0.79833	0.058
Mof_C 	C 	0.2173	0.36829	0.62073	0.083
Mof_C 	C 	0.20863	0.40684	0.63123	-0.09
Mof_C 	C 	0.18341	0.41556	0.52933	0.082
Mof_C 	C 	0.17124	0.45273	0.54243	-0.067
Mof_H 	H 	0.17977	0.47503	0.61843	0.053
Mof_C 	C 	0.14542	0.44953	0.42523	-0.092
Mof_H 	H 	0.13237	0.46933	0.40333	0.064
Mof_C 	C 	0.14128	0.41103	0.33993	0.099
Mof_C 	C 	0.11479	0.39542	0.21273	-0.145
Mof_C 	C 	0.09005	0.42146	0.16863	0.128
Mof_C 	C 	0.10627	0.45393	0.05983	-0.169
Mof_H 	H 	0.13397	0.46023	0.00783	0.076
Mof_C 	C 	0.08207	0.47741	0.02643	0.049
Mof_H 	H 	0.09427	0.50013	0.95103	0.015
Mof_C 	C 	0.02737	0.43893	0.19913	0.072
Mof_H 	H 	0.99967	0.43353	0.24973	0.002
Mof_C 	C 	0.04922	0.41373	0.23943	-0.17
Mof_H 	H 	0.03647	0.39123	0.31533	0.084
Mof_C 	C 	0.22649	0.43799	0.76113	-0.01
Mof_C 	C 	0.2097	0.42073	0.89623	0.047
Mof_H 	H 	0.18637	0.38813	0.90743	0.024
Mof_C 	C 	0.22597	0.44983	0.01683	-0.226
Mof_H 	H 	0.21477	0.43623	0.10873	0.096
Mof_C 	C 	0.25727	0.49703	0.00623	0.203
Mof_C 	C 	0.27447	0.51453	0.87003	-0.162
Mof_H 	H 	0.29727	0.54733	0.85953	0.078
Mof_C 	C 	0.25957	0.48583	0.74853	0.005
Mof_H 	H 	0.27217	0.49913	0.65733	0.023
Mof_C 	C 	0.27547	0.52813	0.13893	-0.557
Mof_H 	H 	0.24937	0.51813	0.20803	0.176
Mof_H 	H 	0.28747	0.56143	0.11233	0.162
Mof_H 	H 	0.30127	0.52493	0.18213	0.176
Mof_N 	N 	0.86846	0.66876	0.84497	-0.27
Mof_N 	N 	0.83222	0.72427	0.73617	-0.266
Mof_N 	N 	0.70973	0.80395	0.42497	-0.243
Mof_C 	C 	0.88954	0.64188	0.87097	0.138
Mof_C 	C 	0.91763	0.65797	0.00037	-0.113
Mof_H 	H 	0.93503	0.64467	0.04267	0.065
Mof_C 	C 	0.91463	0.69497	0.04917	-0.084
Mof_H 	H 	0.93003	0.71347	0.13167	0.058
Mof_C 	C 	0.88396	0.70163	0.95407	0.103
Mof_C 	C 	0.87529	0.74018	0.96457	-0.083
Mof_C 	C 	0.85007	0.7489	0.86267	0.082
Mof_C 	C 	0.8379	0.78607	0.87577	-0.063
Mof_H 	H 	0.84643	0.80837	0.95177	0.057
Mof_C 	C 	0.81208	0.78287	0.75857	-0.096
Mof_H 	H 	0.79903	0.80267	0.73667	0.066
Mof_C 	C 	0.80794	0.74437	0.67327	0.106
Mof_C 	C 	0.78145	0.72876	0.54607	-0.161
Mof_C 	C 	0.75671	0.7548	0.50197	0.158
Mof_C 	C 	0.77293	0.78727	0.39317	-0.207
Mof_H 	H 	0.80063	0.79357	0.34117	0.095
Mof_C 	C 	0.74873	0.81075	0.35977	0.11
Mof_H 	H 	0.76093	0.83347	0.28437	-0.023
Mof_C 	C 	0.69403	0.77227	0.53247	0.103
Mof_H 	H 	0.66633	0.76687	0.58307	-0.013
Mof_C 	C 	0.71588	0.74707	0.57277	-0.194
Mof_H 	H 	0.70313	0.72457	0.64867	0.096
Mof_C 	C 	0.89315	0.77133	0.09447	-0.009
Mof_C 	C 	0.87636	0.75407	0.22957	0.01
Mof_H 	H 	0.85303	0.72147	0.24077	0.026
Mof_C 	C 	0.89263	0.78317	0.35017	-0.194
Mof_H 	H 	0.88143	0.76957	0.44207	0.088
Mof_C 	C 	0.92393	0.83037	0.33957	0.22
Mof_C 	C 	0.94113	0.84787	0.20337	-0.175
Mof_H 	H 	0.96393	0.88067	0.19287	0.074
Mof_C 	C 	0.92623	0.81917	0.08187	-0.03
Mof_H 	H 	0.93883	0.83247	0.99067	0.049
Mof_C 	C 	0.94213	0.86147	0.47227	-0.572
Mof_H 	H 	0.91603	0.85147	0.54137	0.181
Mof_H 	H 	0.95413	0.89477	0.44567	0.172
Mof_H 	H 	0.96793	0.85827	0.51547	0.185
Mof_N 	N 	0.99791	0.53304	0.1783	-0.263
Mof_N 	N 	0.9424	0.44129	0.0695	-0.263
Mof_N 	N 	0.86272	0.23912	0.7583	-0.241
Mof_C 	C 	0.02479	0.581	0.2043	0.116
Mof_C 	C 	0.0087	0.593	0.3337	-0.11
Mof_H 	H 	0.022	0.6237	0.376	0.067
Mof_C 	C 	0.9717	0.553	0.3825	-0.048
Mof_H 	H 	0.9532	0.5499	0.465	0.049
Mof_C 	C 	0.96504	0.51567	0.2874	0.078
Mof_C 	C 	0.92649	0.46845	0.2979	-0.089
Mof_C 	C 	0.91777	0.43451	0.196	0.082
Mof_C 	C 	0.8806	0.38517	0.2091	-0.073
Mof_H 	H 	0.8583	0.3714	0.2851	0.053
Mof_C 	C 	0.8838	0.36255	0.0919	-0.085
Mof_H 	H 	0.864	0.3297	0.07	0.054
Mof_C 	C 	0.9223	0.39691	0.0066	0.073
Mof_C 	C 	0.93791	0.38603	0.8794	-0.129
Mof_C 	C 	0.91187	0.33525	0.8353	0.151
Mof_C 	C 	0.8794	0.319	0.7265	-0.2
Mof_H 	H 	0.8731	0.3404	0.6745	0.094
Mof_C 	C 	0.85592	0.27132	0.6931	0.11
Mof_H 	H 	0.8332	0.2608	0.6177	-0.021
Mof_C 	C 	0.8944	0.2551	0.8658	0.103
Mof_H 	H 	0.8998	0.2328	0.9164	-0.009
Mof_C 	C 	0.9196	0.30215	0.9061	-0.186
Mof_H 	H 	0.9421	0.3119	0.982	0.101
Mof_C 	C 	0.89534	0.45516	0.4278	-0.011
Mof_C 	C 	0.9126	0.45563	0.5629	0.02
Mof_H 	H 	0.9452	0.4649	0.5741	0.028
Mof_C 	C 	0.8835	0.4428	0.6835	-0.208
Mof_H 	H 	0.8971	0.4452	0.7754	0.096
Mof_C 	C 	0.8363	0.4269	0.6729	0.239
Mof_C 	C 	0.8188	0.4266	0.5367	-0.205
Mof_H 	H 	0.786	0.4166	0.5262	0.083
Mof_C 	C 	0.8475	0.4404	0.4152	0.018
Mof_H 	H 	0.8342	0.4397	0.324	0.015
Mof_C 	C 	0.8052	0.414	0.8056	-0.591
Mof_H 	H 	0.8152	0.3979	0.8747	0.19
Mof_H 	H 	0.7719	0.3927	0.779	0.177
Mof_H 	H 	0.8084	0.443	0.8488	0.19
Mof_N 	N 	0.66458	0.86637	0.51163	-0.265
Mof_N 	N 	0.60907	0.77462	0.40283	-0.265
Mof_N 	N 	0.52939	0.57245	0.09163	-0.235
Mof_C 	C 	0.69146	0.91433	0.53763	0.116
Mof_C 	C 	0.67537	0.92633	0.66703	-0.09
Mof_H 	H 	0.68867	0.95703	0.70933	0.067
Mof_C 	C 	0.63837	0.88633	0.71583	-0.064
Mof_H 	H 	0.61987	0.88323	0.79833	0.058
Mof_C 	C 	0.63171	0.849	0.62073	0.083
Mof_C 	C 	0.59316	0.80178	0.63123	-0.09
Mof_C 	C 	0.58444	0.76784	0.52933	0.082
Mof_C 	C 	0.54727	0.7185	0.54243	-0.066
Mof_H 	H 	0.52497	0.70473	0.61843	0.053
Mof_C 	C 	0.55047	0.69588	0.42523	-0.093
Mof_H 	H 	0.53067	0.66303	0.40333	0.065
Mof_C 	C 	0.58897	0.73024	0.33993	0.1
Mof_C 	C 	0.60458	0.71936	0.21273	-0.147
Mof_C 	C 	0.57854	0.66858	0.16863	0.135
Mof_C 	C 	0.54607	0.65233	0.05983	-0.173
Mof_H 	H 	0.53977	0.67373	0.00783	0.078
Mof_C 	C 	0.52259	0.60465	0.02643	0.053
Mof_H 	H 	0.49987	0.59413	0.95103	0.014
Mof_C 	C 	0.56107	0.58843	0.19913	0.093
Mof_H 	H 	0.56647	0.56613	0.24973	-0.011
Mof_C 	C 	0.58627	0.63548	0.23943	-0.181
Mof_H 	H 	0.60877	0.64523	0.31533	0.09
Mof_C 	C 	0.56201	0.78849	0.76113	-0.01
Mof_C 	C 	0.57927	0.78896	0.89623	0.047
Mof_H 	H 	0.61187	0.79823	0.90743	0.024
Mof_C 	C 	0.55017	0.77613	0.01683	-0.226
Mof_H 	H 	0.56377	0.77853	0.10873	0.096
Mof_C 	C 	0.50297	0.76023	0.00623	0.203
Mof_C 	C 	0.48547	0.75993	0.87003	-0.162
Mof_H 	H 	0.45267	0.74993	0.85953	0.078
Mof_C 	C 	0.51417	0.77373	0.74853	0.005
Mof_H 	H 	0.50087	0.77303	0.65733	0.023
Mof_C 	C 	0.47187	0.74733	0.13893	-0.557
Mof_H 	H 	0.48187	0.73123	0.20803	0.176
Mof_H 	H 	0.43857	0.72603	0.11233	0.162
Mof_H 	H 	0.47507	0.77633	0.18213	0.176
Mof_N 	N 	0.33124	0.19971	0.84497	-0.27
Mof_N 	N 	0.27573	0.10796	0.73617	-0.265
Mof_N 	N 	0.19605	0.90579	0.42497	-0.236
Mof_C 	C 	0.35812	0.24767	0.87097	0.137
Mof_C 	C 	0.34203	0.25967	0.00037	-0.113
Mof_H 	H 	0.35533	0.29037	0.04267	0.063
Mof_C 	C 	0.30503	0.21967	0.04917	-0.086
Mof_H 	H 	0.28653	0.21657	0.13167	0.058
Mof_C 	C 	0.29837	0.18234	0.95407	0.104
Mof_C 	C 	0.25982	0.13512	0.96457	-0.083
Mof_C 	C 	0.2511	0.10118	0.86267	0.08
Mof_C 	C 	0.21393	0.05184	0.87577	-0.055
Mof_H 	H 	0.19163	0.03807	0.95177	0.052
Mof_C 	C 	0.21713	0.02922	0.75857	-0.114
Mof_H 	H 	0.19733	0.99637	0.73667	0.078
Mof_C 	C 	0.25563	0.06358	0.67327	0.106
Mof_C 	C 	0.27124	0.0527	0.54607	-0.15
Mof_C 	C 	0.2452	0.00192	0.50197	0.118
Mof_C 	C 	0.21273	0.98567	0.39317	-0.158
Mof_H 	H 	0.20643	0.00707	0.34117	0.073
Mof_C 	C 	0.18925	0.93799	0.35977	0.087
Mof_H 	H 	0.16653	0.92747	0.28437	-0.014
Mof_C 	C 	0.22773	0.92177	0.53247	0.088
Mof_H 	H 	0.23313	0.89947	0.58307	-0.008
Mof_C 	C 	0.25293	0.96882	0.57277	-0.163
Mof_H 	H 	0.27543	0.97857	0.64867	0.089
Mof_C 	C 	0.22867	0.12183	0.09447	-0.006
Mof_C 	C 	0.24593	0.1223	0.22957	0.005
Mof_H 	H 	0.27853	0.13157	0.24077	0.028
Mof_C 	C 	0.21683	0.10947	0.35017	-0.187
Mof_H 	H 	0.23043	0.11187	0.44207	0.086
Mof_C 	C 	0.16963	0.09357	0.33957	0.21
Mof_C 	C 	0.15213	0.09327	0.20337	-0.169
Mof_H 	H 	0.11933	0.08327	0.19287	0.067
Mof_C 	C 	0.18083	0.10707	0.08187	-0.037
Mof_H 	H 	0.16753	0.10637	0.99067	0.049
Mof_C 	C 	0.13853	0.08067	0.47227	-0.557
Mof_H 	H 	0.14853	0.06457	0.54137	0.175
Mof_H 	H 	0.10523	0.05937	0.44567	0.163
Mof_H 	H 	0.14173	0.10967	0.51547	0.178
Mof_N 	N 	0.46696	0.46487	0.1783	-0.27
Mof_N 	N 	0.55871	0.50111	0.0695	-0.265
Mof_N 	N 	0.76088	0.6236	0.7583	-0.241
Mof_C 	C 	0.419	0.44379	0.2043	0.119
Mof_C 	C 	0.407	0.4157	0.3337	-0.094
Mof_H 	H 	0.3763	0.3983	0.376	0.063
Mof_C 	C 	0.447	0.4187	0.3825	-0.065
Mof_H 	H 	0.4501	0.4033	0.465	0.053
Mof_C 	C 	0.48433	0.44937	0.2874	0.081
Mof_C 	C 	0.53155	0.45804	0.2979	-0.092
Mof_C 	C 	0.56549	0.48326	0.196	0.082
Mof_C 	C 	0.61483	0.49543	0.2091	-0.074
Mof_H 	H 	0.6286	0.4869	0.2851	0.053
Mof_C 	C 	0.63745	0.52125	0.0919	-0.084
Mof_H 	H 	0.6703	0.5343	0.07	0.054
Mof_C 	C 	0.60309	0.52539	0.0066	0.071
Mof_C 	C 	0.61397	0.55188	0.8794	-0.129
Mof_C 	C 	0.66475	0.57662	0.8353	0.15
Mof_C 	C 	0.681	0.5604	0.7265	-0.2
Mof_H 	H 	0.6596	0.5327	0.6745	0.094
Mof_C 	C 	0.72868	0.5846	0.6931	0.109
Mof_H 	H 	0.7392	0.5724	0.6177	-0.021
Mof_C 	C 	0.7449	0.6393	0.8658	0.102
Mof_H 	H 	0.7672	0.667	0.9164	-0.009
Mof_C 	C 	0.69785	0.61745	0.9061	-0.186
Mof_H 	H 	0.6881	0.6302	0.982	0.1
Mof_C 	C 	0.54484	0.44018	0.4278	-0.01
Mof_C 	C 	0.54437	0.45697	0.5629	0.02
Mof_H 	H 	0.5351	0.4803	0.5741	0.026
Mof_C 	C 	0.5572	0.4407	0.6835	-0.208
Mof_H 	H 	0.5548	0.4519	0.7754	0.096
Mof_C 	C 	0.5731	0.4094	0.6729	0.239
Mof_C 	C 	0.5734	0.3922	0.5367	-0.204
Mof_H 	H 	0.5834	0.3694	0.5262	0.083
Mof_C 	C 	0.5596	0.4071	0.4152	0.018
Mof_H 	H 	0.5603	0.3945	0.324	0.015
Mof_C 	C 	0.586	0.3912	0.8056	-0.591
Mof_H 	H 	0.6021	0.4173	0.8747	0.19
Mof_H 	H 	0.6073	0.3792	0.779	0.177
Mof_H 	H 	0.557	0.3654	0.8488	0.19
Mof_N 	N 	0.13363	0.7982	0.51163	-0.264
Mof_N 	N 	0.22538	0.83444	0.40283	-0.265
Mof_N 	N 	0.42755	0.95693	0.09163	-0.237
Mof_C 	C 	0.08567	0.77712	0.53763	0.106
Mof_C 	C 	0.07367	0.74903	0.66703	-0.084
Mof_H 	H 	0.04297	0.73163	0.70933	0.061
Mof_C 	C 	0.11367	0.75203	0.71583	-0.069
Mof_H 	H 	0.11677	0.73663	0.79833	0.059
Mof_C 	C 	0.151	0.7827	0.62073	0.084
Mof_C 	C 	0.19822	0.79137	0.63123	-0.09
Mof_C 	C 	0.23216	0.81659	0.52933	0.082
Mof_C 	C 	0.2815	0.82876	0.54243	-0.066
Mof_H 	H 	0.29527	0.82023	0.61843	0.053
Mof_C 	C 	0.30412	0.85458	0.42523	-0.093
Mof_H 	H 	0.33697	0.86763	0.40333	0.065
Mof_C 	C 	0.26976	0.85872	0.33993	0.101
Mof_C 	C 	0.28064	0.88521	0.21273	-0.149
Mof_C 	C 	0.33142	0.90995	0.16863	0.14
Mof_C 	C 	0.34767	0.89373	0.05983	-0.177
Mof_H 	H 	0.32627	0.86603	0.00783	0.079
Mof_C 	C 	0.39535	0.91793	0.02643	0.056
Mof_H 	H 	0.40587	0.90573	0.95103	0.013
Mof_C 	C 	0.41157	0.97263	0.19913	0.113
Mof_H 	H 	0.43387	0.00033	0.24973	-0.023
Mof_C 	C 	0.36452	0.95078	0.23943	-0.191
Mof_H 	H 	0.35477	0.96353	0.31533	0.096
Mof_C 	C 	0.21151	0.77351	0.76113	-0.01
Mof_C 	C 	0.21104	0.7903	0.89623	0.047
Mof_H 	H 	0.20177	0.81363	0.90743	0.024
Mof_C 	C 	0.22387	0.77403	0.01683	-0.226
Mof_H 	H 	0.22147	0.78523	0.10873	0.096
Mof_C 	C 	0.23977	0.74273	0.00623	0.203
Mof_C 	C 	0.24007	0.72553	0.87003	-0.162
Mof_H 	H 	0.25007	0.70273	0.85953	0.078
Mof_C 	C 	0.22627	0.74043	0.74853	0.005
Mof_H 	H 	0.22697	0.72783	0.65733	0.023
Mof_C 	C 	0.25267	0.72453	0.13893	-0.556
Mof_H 	H 	0.26877	0.75063	0.20803	0.176
Mof_H 	H 	0.27397	0.71253	0.11233	0.162
Mof_H 	H 	0.22367	0.69873	0.18213	0.176
Mof_N 	N 	0.80029	0.13154	0.84497	-0.27
Mof_N 	N 	0.89204	0.16778	0.73617	-0.266
Mof_N 	N 	0.09421	0.29027	0.42497	-0.25
Mof_C 	C 	0.75233	0.11046	0.87097	0.135
Mof_C 	C 	0.74033	0.08237	0.00037	-0.112
Mof_H 	H 	0.70963	0.06497	0.04267	0.061
Mof_C 	C 	0.78033	0.08537	0.04917	-0.087
Mof_H 	H 	0.78343	0.06997	0.13167	0.057
Mof_C 	C 	0.81766	0.11604	0.95407	0.105
Mof_C 	C 	0.86488	0.12471	0.96457	-0.085
Mof_C 	C 	0.89882	0.14993	0.86267	0.086
Mof_C 	C 	0.94816	0.1621	0.87577	-0.072
Mof_H 	H 	0.96193	0.15357	0.95177	0.062
Mof_C 	C 	0.97078	0.18792	0.75857	-0.078
Mof_H 	H 	0.00363	0.20097	0.73667	0.055
Mof_C 	C 	0.93642	0.19206	0.67327	0.105
Mof_C 	C 	0.9473	0.21855	0.54607	-0.172
Mof_C 	C 	0.99808	0.24329	0.50197	0.197
Mof_C 	C 	0.01433	0.22707	0.39317	-0.255
Mof_H 	H 	0.99293	0.19937	0.34117	0.116
Mof_C 	C 	0.06201	0.25127	0.35977	0.133
Mof_H 	H 	0.07253	0.23907	0.28437	-0.031
Mof_C 	C 	0.07823	0.30597	0.53247	0.118
Mof_H 	H 	0.10053	0.33367	0.58307	-0.018
Mof_C 	C 	0.03118	0.28412	0.57277	-0.225
Mof_H 	H 	0.02143	0.29687	0.64867	0.103
Mof_C 	C 	0.87817	0.10685	0.09447	-0.006
Mof_C 	C 	0.8777	0.12364	0.22957	0.007
Mof_H 	H 	0.86843	0.14697	0.24077	0.027
Mof_C 	C 	0.89053	0.10737	0.35017	-0.19
Mof_H 	H 	0.88813	0.11857	0.44207	0.087
Mof_C 	C 	0.90643	0.07607	0.33957	0.214
Mof_C 	C 	0.90673	0.05887	0.20337	-0.171
Mof_H 	H 	0.91673	0.03607	0.19287	0.069
Mof_C 	C 	0.89293	0.07377	0.08187	-0.035
Mof_H 	H 	0.89363	0.06117	0.99067	0.048
Mof_C 	C 	0.91933	0.05787	0.47227	-0.562
Mof_H 	H 	0.93543	0.08397	0.54137	0.179
Mof_H 	H 	0.94063	0.04587	0.44567	0.167
Mof_H 	H 	0.89033	0.03207	0.51547	0.178
Mof_N 	N 	0.46487	0.99791	0.8217	-0.251
Mof_N 	N 	0.50111	0.9424	0.9305	-0.262
Mof_N 	N 	0.6236	0.86272	0.2417	-0.245
Mof_C 	C 	0.44379	0.02479	0.7957	0.1
Mof_C 	C 	0.4157	0.0087	0.6663	-0.098
Mof_H 	H 	0.3983	0.022	0.624	0.063
Mof_C 	C 	0.4187	0.9717	0.6175	-0.052
Mof_H 	H 	0.4033	0.9532	0.535	0.051
Mof_C 	C 	0.44937	0.96504	0.7126	0.081
Mof_C 	C 	0.45804	0.92649	0.7021	-0.089
Mof_C 	C 	0.48326	0.91777	0.804	0.079
Mof_C 	C 	0.49543	0.8806	0.7909	-0.054
Mof_H 	H 	0.4869	0.8583	0.7149	0.048
Mof_C 	C 	0.52125	0.8838	0.9081	-0.111
Mof_H 	H 	0.5343	0.864	0.93	0.078
Mof_C 	C 	0.52539	0.9223	0.9934	0.142
Mof_C 	C 	0.55188	0.93791	0.1206	-0.193
Mof_C 	C 	0.57662	0.91187	0.1647	0.166
Mof_C 	C 	0.5604	0.8794	0.2735	-0.214
Mof_H 	H 	0.5327	0.8731	0.3255	0.099
Mof_C 	C 	0.5846	0.85592	0.3069	0.115
Mof_H 	H 	0.5724	0.8332	0.3823	-0.023
Mof_C 	C 	0.6393	0.8944	0.1342	0.105
Mof_H 	H 	0.667	0.8998	0.0836	-0.018
Mof_C 	C 	0.61745	0.9196	0.0939	-0.204
Mof_H 	H 	0.6302	0.9421	0.018	0.093
Mof_C 	C 	0.44018	0.89534	0.5722	-0.004
Mof_C 	C 	0.45697	0.9126	0.4371	0.011
Mof_H 	H 	0.4803	0.9452	0.4259	0.031
Mof_C 	C 	0.4407	0.8835	0.3165	-0.194
Mof_H 	H 	0.4519	0.8971	0.2246	0.086
Mof_C 	C 	0.4094	0.8363	0.3271	0.223
Mof_C 	C 	0.3922	0.8188	0.4633	-0.192
Mof_H 	H 	0.3694	0.786	0.4738	0.081
Mof_C 	C 	0.4071	0.8475	0.5848	0.01
Mof_H 	H 	0.3945	0.8342	0.676	0.023
Mof_C 	C 	0.3912	0.8052	0.1944	-0.564
Mof_H 	H 	0.4173	0.8152	0.1253	0.173
Mof_H 	H 	0.3792	0.7719	0.221	0.167
Mof_H 	H 	0.3654	0.8084	0.1512	0.177
Mof_N 	N 	0.13154	0.33124	0.15503	-0.26
Mof_N 	N 	0.16778	0.27573	0.26383	-0.266
Mof_N 	N 	0.29027	0.19605	0.57503	-0.243
Mof_C 	C 	0.11046	0.35812	0.12903	0.081
Mof_C 	C 	0.08237	0.34203	0.99963	-0.061
Mof_H 	H 	0.06497	0.35533	0.95733	0.058
Mof_C 	C 	0.08537	0.30503	0.95083	-0.05
Mof_H 	H 	0.06997	0.28653	0.86833	0.05
Mof_C 	C 	0.11604	0.29837	0.04593	0.062
Mof_C 	C 	0.12471	0.25982	0.03543	-0.101
Mof_C 	C 	0.14993	0.2511	0.13733	0.081
Mof_C 	C 	0.1621	0.21393	0.12423	-0.066
Mof_H 	H 	0.15357	0.19163	0.04823	0.044
Mof_C 	C 	0.18792	0.21713	0.24143	-0.099
Mof_H 	H 	0.20097	0.19733	0.26333	0.065
Mof_C 	C 	0.19206	0.25563	0.32673	0.105
Mof_C 	C 	0.21855	0.27124	0.45393	-0.161
Mof_C 	C 	0.24329	0.2452	0.49803	0.159
Mof_C 	C 	0.22707	0.21273	0.60683	-0.207
Mof_H 	H 	0.19937	0.20643	0.65883	0.098
Mof_C 	C 	0.25127	0.18925	0.64023	0.113
Mof_H 	H 	0.23907	0.16653	0.71563	-0.021
Mof_C 	C 	0.30597	0.22773	0.46753	0.103
Mof_H 	H 	0.33367	0.23313	0.41693	-0.014
Mof_C 	C 	0.28412	0.25293	0.42723	-0.195
Mof_H 	H 	0.29687	0.27543	0.35133	0.095
Mof_C 	C 	0.10685	0.22867	0.90553	-0.005
Mof_C 	C 	0.12364	0.24593	0.77043	0.021
Mof_H 	H 	0.14697	0.27853	0.75923	0.029
Mof_C 	C 	0.10737	0.21683	0.64983	-0.209
Mof_H 	H 	0.11857	0.23043	0.55793	0.093
Mof_C 	C 	0.07607	0.16963	0.66043	0.243
Mof_C 	C 	0.05887	0.15213	0.79663	-0.223
Mof_H 	H 	0.03607	0.11933	0.80713	0.091
Mof_C 	C 	0.07377	0.18083	0.91813	0.06
Mof_H 	H 	0.06117	0.16753	0.00933	-0.012
Mof_C 	C 	0.05787	0.13853	0.52773	-0.584
Mof_H 	H 	0.08397	0.14853	0.45863	0.183
Mof_H 	H 	0.04587	0.10523	0.55433	0.172
Mof_H 	H 	0.03207	0.14173	0.48453	0.183
Mof_N 	N 	0.7982	0.66458	0.48837	-0.265
Mof_N 	N 	0.83444	0.60907	0.59717	-0.267
Mof_N 	N 	0.95693	0.52939	0.90837	-0.25
Mof_C 	C 	0.77712	0.69146	0.46237	0.11
Mof_C 	C 	0.74903	0.67537	0.33297	-0.089
Mof_H 	H 	0.73163	0.68867	0.29067	0.058
Mof_C 	C 	0.75203	0.63837	0.28417	-0.069
Mof_H 	H 	0.73663	0.61987	0.20167	0.05
Mof_C 	C 	0.7827	0.63171	0.37927	0.083
Mof_C 	C 	0.79137	0.59316	0.36877	-0.094
Mof_C 	C 	0.81659	0.58444	0.47067	0.081
Mof_C 	C 	0.82876	0.54727	0.45757	-0.063
Mof_H 	H 	0.82023	0.52497	0.38157	0.048
Mof_C 	C 	0.85458	0.55047	0.57477	-0.101
Mof_H 	H 	0.86763	0.53067	0.59667	0.067
Mof_C 	C 	0.85872	0.58897	0.66007	0.112
Mof_C 	C 	0.88521	0.60458	0.78727	-0.176
Mof_C 	C 	0.90995	0.57854	0.83137	0.186
Mof_C 	C 	0.89373	0.54607	0.94017	-0.242
Mof_H 	H 	0.86603	0.53977	0.99217	0.115
Mof_C 	C 	0.91793	0.52259	0.97357	0.17
Mof_H 	H 	0.90573	0.49987	0.04897	-0.056
Mof_C 	C 	0.97263	0.56107	0.80087	0.132
Mof_H 	H 	0.00033	0.56647	0.75027	-0.027
Mof_C 	C 	0.95078	0.58627	0.76057	-0.217
Mof_H 	H 	0.96353	0.60877	0.68467	0.106
Mof_C 	C 	0.77351	0.56201	0.23887	-0.003
Mof_C 	C 	0.7903	0.57927	0.10377	-0.015
Mof_H 	H 	0.81363	0.61187	0.09257	0.031
Mof_C 	C 	0.77403	0.55017	0.98317	-0.178
Mof_H 	H 	0.78523	0.56377	0.89127	0.085
Mof_C 	C 	0.74273	0.50297	0.99377	0.256
Mof_C 	C 	0.72553	0.48547	0.12997	-0.231
Mof_H 	H 	0.70273	0.45267	0.14047	0.086
Mof_C 	C 	0.74043	0.51417	0.25147	0.021
Mof_H 	H 	0.72783	0.50087	0.34267	0.016
Mof_C 	C 	0.72453	0.47187	0.86107	-0.597
Mof_H 	H 	0.75063	0.48187	0.79197	0.187
Mof_H 	H 	0.71253	0.43857	0.88767	0.181
Mof_H 	H 	0.69873	0.47507	0.81787	0.191
Mof_N 	N 	0.00209	0.46696	0.8217	-0.262
Mof_N 	N 	0.0576	0.55871	0.9305	-0.265
Mof_N 	N 	0.13728	0.76088	0.2417	-0.245
Mof_C 	C 	0.97521	0.419	0.7957	0.106
Mof_C 	C 	0.9913	0.407	0.6663	-0.067
Mof_H 	H 	0.978	0.3763	0.624	0.056
Mof_C 	C 	0.0283	0.447	0.6175	-0.087
Mof_H 	H 	0.0468	0.4501	0.535	0.06
Mof_C 	C 	0.03496	0.48433	0.7126	0.088
Mof_C 	C 	0.07351	0.53155	0.7021	-0.093
Mof_C 	C 	0.08223	0.56549	0.804	0.081
Mof_C 	C 	0.1194	0.61483	0.7909	-0.056
Mof_H 	H 	0.1417	0.6286	0.7149	0.049
Mof_C 	C 	0.1162	0.63745	0.9081	-0.11
Mof_H 	H 	0.136	0.6703	0.93	0.078
Mof_C 	C 	0.0777	0.60309	0.9934	0.141
Mof_C 	C 	0.06209	0.61397	0.1206	-0.194
Mof_C 	C 	0.08813	0.66475	0.1647	0.165
Mof_C 	C 	0.1206	0.681	0.2735	-0.214
Mof_H 	H 	0.1269	0.6596	0.3255	0.099
Mof_C 	C 	0.14408	0.72868	0.3069	0.114
Mof_H 	H 	0.1668	0.7392	0.3823	-0.023
Mof_C 	C 	0.1056	0.7449	0.1342	0.103
Mof_H 	H 	0.1002	0.7672	0.0836	-0.018
Mof_C 	C 	0.0804	0.69785	0.0939	-0.203
Mof_H 	H 	0.0579	0.6881	0.018	0.089
Mof_C 	C 	0.10466	0.54484	0.5722	-0.003
Mof_C 	C 	0.0874	0.54437	0.4371	0.01
Mof_H 	H 	0.0548	0.5351	0.4259	0.028
Mof_C 	C 	0.1165	0.5572	0.3165	-0.195
Mof_H 	H 	0.1029	0.5548	0.2246	0.085
Mof_C 	C 	0.1637	0.5731	0.3271	0.223
Mof_C 	C 	0.1812	0.5734	0.4633	-0.192
Mof_H 	H 	0.214	0.5834	0.4738	0.081
Mof_C 	C 	0.1525	0.5596	0.5848	0.009
Mof_H 	H 	0.1658	0.5603	0.676	0.023
Mof_C 	C 	0.1948	0.586	0.1944	-0.564
Mof_H 	H 	0.1848	0.6021	0.1253	0.173
Mof_H 	H 	0.2281	0.6073	0.221	0.167
Mof_H 	H 	0.1916	0.557	0.1512	0.177
Mof_N 	N 	0.66876	0.80029	0.15503	-0.26
Mof_N 	N 	0.72427	0.89204	0.26383	-0.266
Mof_N 	N 	0.80395	0.09421	0.57503	-0.251
Mof_C 	C 	0.64188	0.75233	0.12903	0.083
Mof_C 	C 	0.65797	0.74033	0.99963	-0.062
Mof_H 	H 	0.64467	0.70963	0.95733	0.059
Mof_C 	C 	0.69497	0.78033	0.95083	-0.05
Mof_H 	H 	0.71347	0.78343	0.86833	0.051
Mof_C 	C 	0.70163	0.81766	0.04593	0.062
Mof_C 	C 	0.74018	0.86488	0.03543	-0.101
Mof_C 	C 	0.7489	0.89882	0.13733	0.083
Mof_C 	C 	0.78607	0.94816	0.12423	-0.074
Mof_H 	H 	0.80837	0.96193	0.04823	0.05
Mof_C 	C 	0.78287	0.97078	0.24143	-0.08
Mof_H 	H 	0.80267	0.00363	0.26333	0.054
Mof_C 	C 	0.74437	0.93642	0.32673	0.105
Mof_C 	C 	0.72876	0.9473	0.45393	-0.172
Mof_C 	C 	0.7548	0.99808	0.49803	0.198
Mof_C 	C 	0.78727	0.01433	0.60683	-0.255
Mof_H 	H 	0.79357	0.99293	0.65883	0.12
Mof_C 	C 	0.81075	0.06201	0.64023	0.136
Mof_H 	H 	0.83347	0.07253	0.71563	-0.03
Mof_C 	C 	0.77227	0.07823	0.46753	0.118
Mof_H 	H 	0.76687	0.10053	0.41693	-0.019
Mof_C 	C 	0.74707	0.03118	0.42723	-0.225
Mof_H 	H 	0.72457	0.02143	0.35133	0.102
Mof_C 	C 	0.77133	0.87817	0.90553	-0.007
Mof_C 	C 	0.75407	0.8777	0.77043	0.024
Mof_H 	H 	0.72147	0.86843	0.75923	0.028
Mof_C 	C 	0.78317	0.89053	0.64983	-0.215
Mof_H 	H 	0.76957	0.88813	0.55793	0.095
Mof_C 	C 	0.83037	0.90643	0.66043	0.251
Mof_C 	C 	0.84787	0.90673	0.79663	-0.226
Mof_H 	H 	0.88067	0.91673	0.80713	0.097
Mof_C 	C 	0.81917	0.89293	0.91813	0.063
Mof_H 	H 	0.83247	0.89363	0.00933	-0.01
Mof_C 	C 	0.86147	0.91933	0.52773	-0.598
Mof_H 	H 	0.85147	0.93543	0.45863	0.189
Mof_H 	H 	0.89477	0.94063	0.55433	0.181
Mof_H 	H 	0.85827	0.89033	0.48453	0.19
Mof_N 	N 	0.33542	0.13363	0.48837	-0.264
Mof_N 	N 	0.39093	0.22538	0.59717	-0.267
Mof_N 	N 	0.47061	0.42755	0.90837	-0.249
Mof_C 	C 	0.30854	0.08567	0.46237	0.105
Mof_C 	C 	0.32463	0.07367	0.33297	-0.086
Mof_H 	H 	0.31133	0.04297	0.29067	0.055
Mof_C 	C 	0.36163	0.11367	0.28417	-0.071
Mof_H 	H 	0.38013	0.11677	0.20167	0.051
Mof_C 	C 	0.36829	0.151	0.37927	0.084
Mof_C 	C 	0.40684	0.19822	0.36877	-0.094
Mof_C 	C 	0.41556	0.23216	0.47067	0.081
Mof_C 	C 	0.45273	0.2815	0.45757	-0.063
Mof_H 	H 	0.47503	0.29527	0.38157	0.048
Mof_C 	C 	0.44953	0.30412	0.57477	-0.101
Mof_H 	H 	0.46933	0.33697	0.59667	0.067
Mof_C 	C 	0.41103	0.26976	0.66007	0.111
Mof_C 	C 	0.39542	0.28064	0.78727	-0.175
Mof_C 	C 	0.42146	0.33142	0.83137	0.181
Mof_C 	C 	0.45393	0.34767	0.94017	-0.239
Mof_H 	H 	0.46023	0.32627	0.99217	0.115
Mof_C 	C 	0.47741	0.39535	0.97357	0.168
Mof_H 	H 	0.50013	0.40587	0.04897	-0.056
Mof_C 	C 	0.43893	0.41157	0.80087	0.113
Mof_H 	H 	0.43353	0.43387	0.75027	-0.016
Mof_C 	C 	0.41373	0.36452	0.76057	-0.208
Mof_H 	H 	0.39123	0.35477	0.68467	0.101
Mof_C 	C 	0.43799	0.21151	0.23887	-0.003
Mof_C 	C 	0.42073	0.21104	0.10377	-0.016
Mof_H 	H 	0.38813	0.20177	0.09257	0.031
Mof_C 	C 	0.44983	0.22387	0.98317	-0.177
Mof_H 	H 	0.43623	0.22147	0.89127	0.085
Mof_C 	C 	0.49703	0.23977	0.99377	0.256
Mof_C 	C 	0.51453	0.24007	0.12997	-0.231
Mof_H 	H 	0.54733	0.25007	0.14047	0.086
Mof_C 	C 	0.48583	0.22627	0.25147	0.021
Mof_H 	H 	0.49913	0.22697	0.34267	0.016
Mof_C 	C 	0.52813	0.25267	0.86107	-0.597
Mof_H 	H 	0.51813	0.26877	0.79197	0.187
Mof_H 	H 	0.56143	0.27397	0.88767	0.181
Mof_H 	H 	0.52493	0.22367	0.81787	0.191
Mof_N 	N 	0.53304	0.53513	0.8217	-0.258
Mof_N 	N 	0.44129	0.49889	0.9305	-0.264
Mof_N 	N 	0.23912	0.3764	0.2417	-0.245
Mof_C 	C 	0.581	0.55621	0.7957	0.103
Mof_C 	C 	0.593	0.5843	0.6663	-0.082
Mof_H 	H 	0.6237	0.6017	0.624	0.059
Mof_C 	C 	0.553	0.5813	0.6175	-0.07
Mof_H 	H 	0.5499	0.5967	0.535	0.055
Mof_C 	C 	0.51567	0.55063	0.7126	0.085
Mof_C 	C 	0.46845	0.54196	0.7021	-0.091
Mof_C 	C 	0.43451	0.51674	0.804	0.08
Mof_C 	C 	0.38517	0.50457	0.7909	-0.055
Mof_H 	H 	0.3714	0.5131	0.7149	0.049
Mof_C 	C 	0.36255	0.47875	0.9081	-0.11
Mof_H 	H 	0.3297	0.4657	0.93	0.078
Mof_C 	C 	0.39691	0.47461	0.9934	0.142
Mof_C 	C 	0.38603	0.44812	0.1206	-0.194
Mof_C 	C 	0.33525	0.42338	0.1647	0.166
Mof_C 	C 	0.319	0.4396	0.2735	-0.214
Mof_H 	H 	0.3404	0.4673	0.3255	0.099
Mof_C 	C 	0.27132	0.4154	0.3069	0.114
Mof_H 	H 	0.2608	0.4276	0.3823	-0.023
Mof_C 	C 	0.2551	0.3607	0.1342	0.104
Mof_H 	H 	0.2328	0.333	0.0836	-0.018
Mof_C 	C 	0.30215	0.38255	0.0939	-0.204
Mof_H 	H 	0.3119	0.3698	0.018	0.091
Mof_C 	C 	0.45516	0.55982	0.5722	-0.003
Mof_C 	C 	0.45563	0.54303	0.4371	0.01
Mof_H 	H 	0.4649	0.5197	0.4259	0.029
Mof_C 	C 	0.4428	0.5593	0.3165	-0.194
Mof_H 	H 	0.4452	0.5481	0.2246	0.086
Mof_C 	C 	0.4269	0.5906	0.3271	0.223
Mof_C 	C 	0.4266	0.6078	0.4633	-0.192
Mof_H 	H 	0.4166	0.6306	0.4738	0.081
Mof_C 	C 	0.4404	0.5929	0.5848	0.009
Mof_H 	H 	0.4397	0.6055	0.676	0.023
Mof_C 	C 	0.414	0.6088	0.1944	-0.564
Mof_H 	H 	0.3979	0.5827	0.1253	0.173
Mof_H 	H 	0.3927	0.6208	0.221	0.167
Mof_H 	H 	0.443	0.6346	0.1512	0.177
Mof_N 	N 	0.19971	0.86846	0.15503	-0.26
Mof_N 	N 	0.10796	0.83222	0.26383	-0.265
Mof_N 	N 	0.90579	0.70973	0.57503	-0.236
Mof_C 	C 	0.24767	0.88954	0.12903	0.085
Mof_C 	C 	0.25967	0.91763	0.99963	-0.063
Mof_H 	H 	0.29037	0.93503	0.95733	0.061
Mof_C 	C 	0.21967	0.91463	0.95083	-0.048
Mof_H 	H 	0.21657	0.93003	0.86833	0.051
Mof_C 	C 	0.18234	0.88396	0.04593	0.061
Mof_C 	C 	0.13512	0.87529	0.03543	-0.099
Mof_C 	C 	0.10118	0.85007	0.13733	0.077
Mof_C 	C 	0.05184	0.8379	0.12423	-0.057
Mof_H 	H 	0.03807	0.84643	0.04823	0.039
Mof_C 	C 	0.02922	0.81208	0.24143	-0.117
Mof_H 	H 	0.99637	0.79903	0.26333	0.077
Mof_C 	C 	0.06358	0.80794	0.32673	0.106
Mof_C 	C 	0.0527	0.78145	0.45393	-0.151
Mof_C 	C 	0.00192	0.75671	0.49803	0.12
Mof_C 	C 	0.98567	0.77293	0.60683	-0.16
Mof_H 	H 	0.00707	0.80063	0.65883	0.078
Mof_C 	C 	0.93799	0.74873	0.64023	0.091
Mof_H 	H 	0.92747	0.76093	0.71563	-0.013
Mof_C 	C 	0.92177	0.69403	0.46753	0.089
Mof_H 	H 	0.89947	0.66633	0.41693	-0.009
Mof_C 	C 	0.96882	0.71588	0.42723	-0.165
Mof_H 	H 	0.97857	0.70313	0.35133	0.088
Mof_C 	C 	0.12183	0.89315	0.90553	-0.007
Mof_C 	C 	0.1223	0.87636	0.77043	0.024
Mof_H 	H 	0.13157	0.85303	0.75923	0.028
Mof_C 	C 	0.10947	0.89263	0.64983	-0.213
Mof_H 	H 	0.11187	0.88143	0.55793	0.095
Mof_C 	C 	0.09357	0.92393	0.66043	0.248
Mof_C 	C 	0.09327	0.94113	0.79663	-0.226
Mof_H 	H 	0.08327	0.96393	0.80713	0.096
Mof_C 	C 	0.10707	0.92623	0.91813	0.064
Mof_H 	H 	0.10637	0.93883	0.00933	-0.011
Mof_C 	C 	0.08067	0.94213	0.52773	-0.594
Mof_H 	H 	0.06457	0.91603	0.45863	0.185
Mof_H 	H 	0.05937	0.95413	0.55433	0.177
Mof_H 	H 	0.10967	0.96793	0.48453	0.19
Mof_N 	N 	0.86637	0.2018	0.48837	-0.266
Mof_N 	N 	0.77462	0.16556	0.59717	-0.266
Mof_N 	N 	0.57245	0.04307	0.90837	-0.246
Mof_C 	C 	0.91433	0.22288	0.46237	0.116
Mof_C 	C 	0.92633	0.25097	0.33297	-0.093
Mof_H 	H 	0.95703	0.26837	0.29067	0.062
Mof_C 	C 	0.88633	0.24797	0.28417	-0.066
Mof_H 	H 	0.88323	0.26337	0.20167	0.05
Mof_C 	C 	0.849	0.2173	0.37927	0.082
Mof_C 	C 	0.80178	0.20863	0.36877	-0.093
Mof_C 	C 	0.76784	0.18341	0.47067	0.081
Mof_C 	C 	0.7185	0.17124	0.45757	-0.063
Mof_H 	H 	0.70473	0.17977	0.38157	0.048
Mof_C 	C 	0.69588	0.14542	0.57477	-0.101
Mof_H 	H 	0.66303	0.13237	0.59667	0.066
Mof_C 	C 	0.73024	0.14128	0.66007	0.11
Mof_C 	C 	0.71936	0.11479	0.78727	-0.173
Mof_C 	C 	0.66858	0.09005	0.83137	0.175
Mof_C 	C 	0.65233	0.10627	0.94017	-0.235
Mof_H 	H 	0.67373	0.13397	0.99217	0.113
Mof_C 	C 	0.60465	0.08207	0.97357	0.165
Mof_H 	H 	0.59413	0.09427	0.04897	-0.055
Mof_C 	C 	0.58843	0.02737	0.80087	0.094
Mof_H 	H 	0.56613	0.99967	0.75027	-0.003
Mof_C 	C 	0.63548	0.04922	0.76057	-0.197
Mof_H 	H 	0.64523	0.03647	0.68467	0.095
Mof_C 	C 	0.78849	0.22649	0.23887	-0.003
Mof_C 	C 	0.78896	0.2097	0.10377	-0.015
Mof_H 	H 	0.79823	0.18637	0.09257	0.031
Mof_C 	C 	0.77613	0.22597	0.98317	-0.178
Mof_H 	H 	0.77853	0.21477	0.89127	0.085
Mof_C 	C 	0.76023	0.25727	0.99377	0.256
Mof_C 	C 	0.75993	0.27447	0.12997	-0.231
Mof_H 	H 	0.74993	0.29727	0.14047	0.086
Mof_C 	C 	0.77373	0.25957	0.25147	0.021
Mof_H 	H 	0.77303	0.27217	0.34267	0.016
Mof_C 	C 	0.74733	0.27547	0.86107	-0.597
Mof_H 	H 	0.73123	0.24937	0.79197	0.187
Mof_H 	H 	0.72603	0.28747	0.88767	0.181
Mof_H 	H 	0.77633	0.30127	0.81787	0.191
Mof_Co	Co	0.5	0	-0	1.127
Mof_Co	Co	0.16667	0.33333	0.33333	1.141
Mof_Co	Co	0.83333	0.66667	0.66667	1.141
Mof_Co	Co	5.34728e-17	0.5	-0	1.127
Mof_Co	Co	0.66667	0.83333	0.33333	1.141
Mof_Co	Co	0.33333	0.16667	0.66667	1.141
Mof_Co	Co	0.5	0.5	-0	1.13
Mof_Co	Co	0.16667	0.83333	0.33333	1.14
Mof_Co	Co	0.83333	0.16667	0.66667	1.141
_end
