data_functionalizedCrystal
_audit_creation_method	'EQeq! by Chris Wilmer'
_symmetry_space_group_name_H-M	'P1'
_symmetry_Int_Tables_number	1
_symmetry_cell_setting	triclinic
loop_
_symmetry_equiv_pos_as_xyz
  x,y,z
_cell_length_a	22.739
_cell_length_b	16.038
_cell_length_c	9.7046
_cell_angle_alpha	90
_cell_angle_beta	94
_cell_angle_gamma	90
loop_
_atom_site_label
_atom_site_type_symbol
_atom_site_fract_x
_atom_site_fract_y
_atom_site_fract_z
_atom_site_charge
Mof_S 	S 	0.85887	0.41436	0.51029	-0.003
Mof_S 	S 	0.83504	0.52186	0.60011	-0.016
Mof_C 	C 	0.94271	0.17428	0.9532	0.438
Mof_C 	C 	0.91742	0.23548	0.8482	-0.142
Mof_C 	C 	0.92404	0.22312	0.7084	0.097
Mof_H 	H 	0.9423	0.1731	0.6806	0.052
Mof_C 	C 	0.87936	0.34745	0.6519	0.115
Mof_C 	C 	0.86874	0.3639	0.7882	-0.141
Mof_H 	H 	0.8483	0.4128	0.8126	0.1
Mof_C 	C 	0.88878	0.307	0.8872	0.091
Mof_H 	H 	0.8829	0.3168	0.9818	0.038
Mof_C 	C 	0.75979	0.50632	0.6366	0.112
Mof_C 	C 	0.67161	0.4346	0.6207	0.099
Mof_H 	H 	0.6479	0.3902	0.5835	0.016
Mof_C 	C 	0.64728	0.49124	0.7078	-0.156
Mof_C 	C 	0.6817	0.55748	0.7559	0.099
Mof_H 	H 	0.6659	0.5973	0.8156	0.023
Mof_C 	C 	0.73833	0.56642	0.7185	-0.155
Mof_H 	H 	0.7618	0.6129	0.7485	0.101
Mof_C 	C 	0.58634	0.47708	0.7534	0.401
Mof_N 	N 	0.90603	0.27815	0.6114	-0.129
Mof_N 	N 	0.7285	0.44048	0.5865	-0.135
Mof_O 	O 	0.9672	0.11114	0.9078	-0.318
Mof_O 	O 	0.93914	0.19244	0.078	-0.39
Mof_O 	O 	0.55214	0.4331	0.67117	-0.446
Mof_O 	O 	0.57422	0.50641	0.86684	-0.352
Mof_S 	S 	0.35887	0.91436	0.51029	0.005
Mof_S 	S 	0.33504	0.02186	0.60011	-0.054
Mof_C 	C 	0.44271	0.67428	0.9532	0.46
Mof_C 	C 	0.41742	0.73548	0.8482	-0.17
Mof_C 	C 	0.42404	0.72312	0.7084	0.101
Mof_H 	H 	0.4423	0.6731	0.6806	0.026
Mof_C 	C 	0.37936	0.84745	0.6519	0.113
Mof_C 	C 	0.36874	0.8639	0.7882	-0.152
Mof_H 	H 	0.3483	0.9128	0.8126	0.11
Mof_C 	C 	0.38878	0.807	0.8872	0.1
Mof_H 	H 	0.3829	0.8168	0.9818	0.028
Mof_C 	C 	0.25979	0.00632	0.6366	0.07
Mof_C 	C 	0.17161	0.9346	0.6207	0.082
Mof_H 	H 	0.1479	0.8902	0.5835	0.023
Mof_C 	C 	0.14728	0.99124	0.7078	-0.096
Mof_C 	C 	0.1817	0.05748	0.7559	0.024
Mof_H 	H 	0.1659	0.0973	0.8156	0.046
Mof_C 	C 	0.23833	0.06642	0.7185	-0.111
Mof_H 	H 	0.2618	0.1129	0.7485	0.085
Mof_C 	C 	0.08634	0.97708	0.7534	0.418
Mof_N 	N 	0.40603	0.77815	0.6114	-0.144
Mof_N 	N 	0.2285	0.94048	0.5865	-0.11
Mof_O 	O 	0.4672	0.61114	0.9078	-0.388
Mof_O 	O 	0.43914	0.69244	0.078	-0.447
Mof_O 	O 	0.05214	0.9331	0.67117	-0.433
Mof_O 	O 	0.07422	0.00641	0.86684	-0.372
Mof_S 	S 	0.14113	0.41436	0.98971	-0.002
Mof_S 	S 	0.16496	0.52186	0.89989	-0.027
Mof_C 	C 	0.05729	0.17428	0.5468	0.391
Mof_C 	C 	0.08258	0.23548	0.6518	-0.166
Mof_C 	C 	0.07596	0.22312	0.7916	0.085
Mof_H 	H 	0.0577	0.1731	0.8194	0.019
Mof_C 	C 	0.12064	0.34745	0.8481	0.102
Mof_C 	C 	0.13126	0.3639	0.7118	-0.153
Mof_H 	H 	0.1517	0.4128	0.6874	0.089
Mof_C 	C 	0.11122	0.307	0.6128	0.08
Mof_H 	H 	0.1171	0.3168	0.5182	0.009
Mof_C 	C 	0.24021	0.50632	0.8634	0.119
Mof_C 	C 	0.32839	0.4346	0.8793	0.103
Mof_H 	H 	0.3521	0.3902	0.9165	0.027
Mof_C 	C 	0.35272	0.49124	0.7922	-0.156
Mof_C 	C 	0.3183	0.55748	0.7441	0.101
Mof_H 	H 	0.3341	0.5973	0.6844	0.016
Mof_C 	C 	0.26167	0.56642	0.7815	-0.159
Mof_H 	H 	0.2382	0.6129	0.7515	0.097
Mof_C 	C 	0.41366	0.47708	0.7466	0.404
Mof_N 	N 	0.09397	0.27815	0.8886	-0.14
Mof_N 	N 	0.2715	0.44048	0.9135	-0.128
Mof_O 	O 	0.0328	0.11114	0.5922	-0.408
Mof_O 	O 	0.06086	0.19244	0.422	-0.401
Mof_O 	O 	0.44786	0.4331	0.82883	-0.43
Mof_O 	O 	0.42578	0.50641	0.63316	-0.377
Mof_S 	S 	0.64113	0.91436	0.98971	0.034
Mof_S 	S 	0.66496	0.02186	0.89989	-0.042
Mof_C 	C 	0.55729	0.67428	0.5468	0.407
Mof_C 	C 	0.58258	0.73548	0.6518	-0.158
Mof_C 	C 	0.57596	0.72312	0.7916	0.094
Mof_H 	H 	0.5577	0.6731	0.8194	0.034
Mof_C 	C 	0.62064	0.84745	0.8481	0.107
Mof_C 	C 	0.63126	0.8639	0.7118	-0.146
Mof_H 	H 	0.6517	0.9128	0.6874	0.098
Mof_C 	C 	0.61122	0.807	0.6128	0.086
Mof_H 	H 	0.6171	0.8168	0.5182	0.014
Mof_C 	C 	0.74021	0.00632	0.8634	0.074
Mof_C 	C 	0.82839	0.9346	0.8793	0.079
Mof_H 	H 	0.8521	0.8902	0.9165	0.041
Mof_C 	C 	0.85272	0.99124	0.7922	-0.091
Mof_C 	C 	0.8183	0.05748	0.7441	0.023
Mof_H 	H 	0.8341	0.0973	0.6844	0.039
Mof_C 	C 	0.76167	0.06642	0.7815	-0.113
Mof_H 	H 	0.7382	0.1129	0.7515	0.081
Mof_C 	C 	0.91366	0.97708	0.7466	0.401
Mof_N 	N 	0.59397	0.77815	0.8886	-0.133
Mof_N 	N 	0.7715	0.94048	0.9135	-0.104
Mof_O 	O 	0.5328	0.61114	0.5922	-0.397
Mof_O 	O 	0.56086	0.69244	0.422	-0.404
Mof_O 	O 	0.94786	0.9331	0.82883	-0.344
Mof_O 	O 	0.92578	0.00641	0.63316	-0.348
Mof_S 	S 	0.14113	0.58564	0.48971	-0.031
Mof_S 	S 	0.16496	0.47814	0.39989	-0.054
Mof_C 	C 	0.05729	0.82572	0.0468	0.331
Mof_C 	C 	0.08258	0.76452	0.1518	-0.147
Mof_C 	C 	0.07596	0.77688	0.2916	0.073
Mof_H 	H 	0.0577	0.8269	0.3194	0.02
Mof_C 	C 	0.12064	0.65255	0.3481	0.098
Mof_C 	C 	0.13126	0.6361	0.2118	-0.151
Mof_H 	H 	0.1517	0.5872	0.1874	0.078
Mof_C 	C 	0.11122	0.693	0.1128	0.063
Mof_H 	H 	0.1171	0.6832	0.0182	-0
Mof_C 	C 	0.24021	0.49368	0.3634	0.115
Mof_C 	C 	0.32839	0.5654	0.3793	0.098
Mof_H 	H 	0.3521	0.6098	0.4165	0.014
Mof_C 	C 	0.35272	0.50876	0.2922	-0.168
Mof_C 	C 	0.3183	0.44252	0.2441	0.099
Mof_H 	H 	0.3341	0.4027	0.1844	0.007
Mof_C 	C 	0.26167	0.43358	0.2815	-0.168
Mof_H 	H 	0.2382	0.3871	0.2515	0.088
Mof_C 	C 	0.41366	0.52292	0.2466	0.406
Mof_N 	N 	0.09397	0.72185	0.3886	-0.146
Mof_N 	N 	0.2715	0.55952	0.4135	-0.137
Mof_O 	O 	0.0328	0.88886	0.0922	-0.375
Mof_O 	O 	0.06086	0.80756	0.922	-0.346
Mof_O 	O 	0.44786	0.5669	0.32883	-0.448
Mof_O 	O 	0.42578	0.49359	0.13316	-0.386
Mof_S 	S 	0.64113	0.08564	0.48971	-0.046
Mof_S 	S 	0.66496	0.97814	0.39989	-0.017
Mof_C 	C 	0.55729	0.32572	0.0468	0.344
Mof_C 	C 	0.58258	0.26452	0.1518	-0.142
Mof_C 	C 	0.57596	0.27688	0.2916	0.081
Mof_H 	H 	0.5577	0.3269	0.3194	0.033
Mof_C 	C 	0.62064	0.15255	0.3481	0.103
Mof_C 	C 	0.63126	0.1361	0.2118	-0.148
Mof_H 	H 	0.6517	0.0872	0.1874	0.071
Mof_C 	C 	0.61122	0.193	0.1128	0.066
Mof_H 	H 	0.6171	0.1832	0.0182	0.001
Mof_C 	C 	0.74021	0.99368	0.3634	0.151
Mof_C 	C 	0.82839	0.0654	0.3793	0.103
Mof_H 	H 	0.8521	0.1098	0.4165	0.018
Mof_C 	C 	0.85272	0.00876	0.2922	-0.196
Mof_C 	C 	0.8183	0.94252	0.2441	0.155
Mof_H 	H 	0.8341	0.9027	0.1844	-0.007
Mof_C 	C 	0.76167	0.93358	0.2815	-0.199
Mof_H 	H 	0.7382	0.8871	0.2515	0.099
Mof_C 	C 	0.91366	0.02292	0.2466	0.352
Mof_N 	N 	0.59397	0.22185	0.3886	-0.139
Mof_N 	N 	0.7715	0.05952	0.4135	-0.157
Mof_O 	O 	0.5328	0.38886	0.0922	-0.384
Mof_O 	O 	0.56086	0.30756	0.922	-0.353
Mof_O 	O 	0.94786	0.0669	0.32883	-0.359
Mof_O 	O 	0.92578	0.99359	0.13316	-0.293
Mof_S 	S 	0.85887	0.58564	0.01029	-0.031
Mof_S 	S 	0.83504	0.47814	0.10011	-0.042
Mof_C 	C 	0.94271	0.82572	0.4532	0.385
Mof_C 	C 	0.91742	0.76452	0.3482	-0.128
Mof_C 	C 	0.92404	0.77688	0.2084	0.087
Mof_H 	H 	0.9423	0.8269	0.1806	0.053
Mof_C 	C 	0.87936	0.65255	0.1519	0.112
Mof_C 	C 	0.86874	0.6361	0.2882	-0.14
Mof_H 	H 	0.8483	0.5872	0.3126	0.091
Mof_C 	C 	0.88878	0.693	0.3872	0.076
Mof_H 	H 	0.8829	0.6832	0.4818	0.027
Mof_C 	C 	0.75979	0.49368	0.1366	0.108
Mof_C 	C 	0.67161	0.5654	0.1207	0.095
Mof_H 	H 	0.6479	0.6098	0.0835	0.004
Mof_C 	C 	0.64728	0.50876	0.2078	-0.166
Mof_C 	C 	0.6817	0.44252	0.2559	0.098
Mof_H 	H 	0.6659	0.4027	0.3156	0.015
Mof_C 	C 	0.73833	0.43358	0.2185	-0.163
Mof_H 	H 	0.7618	0.3871	0.2485	0.092
Mof_C 	C 	0.58634	0.52292	0.2534	0.407
Mof_N 	N 	0.90603	0.72185	0.1114	-0.134
Mof_N 	N 	0.7285	0.55952	0.0865	-0.144
Mof_O 	O 	0.9672	0.88886	0.4078	-0.31
Mof_O 	O 	0.93914	0.80756	0.578	-0.343
Mof_O 	O 	0.55214	0.5669	0.17117	-0.451
Mof_O 	O 	0.57422	0.49359	0.36684	-0.379
Mof_S 	S 	0.35887	0.08564	0.01029	-0.081
Mof_S 	S 	0.33504	0.97814	0.10011	-0.025
Mof_C 	C 	0.44271	0.32572	0.4532	0.406
Mof_C 	C 	0.41742	0.26452	0.3482	-0.157
Mof_C 	C 	0.42404	0.27688	0.2084	0.088
Mof_H 	H 	0.4423	0.3269	0.1806	0.026
Mof_C 	C 	0.37936	0.15255	0.1519	0.11
Mof_C 	C 	0.36874	0.1361	0.2882	-0.156
Mof_H 	H 	0.3483	0.0872	0.3126	0.083
Mof_C 	C 	0.38878	0.193	0.3872	0.082
Mof_H 	H 	0.3829	0.1832	0.4818	0.016
Mof_C 	C 	0.25979	0.99368	0.1366	0.156
Mof_C 	C 	0.17161	0.0654	0.1207	0.109
Mof_H 	H 	0.1479	0.1098	0.0835	-0.001
Mof_C 	C 	0.14728	0.00876	0.2078	-0.212
Mof_C 	C 	0.1817	0.94252	0.2559	0.172
Mof_H 	H 	0.1659	0.9027	0.3156	-0.005
Mof_C 	C 	0.23833	0.93358	0.2185	-0.206
Mof_H 	H 	0.2618	0.8871	0.2485	0.107
Mof_C 	C 	0.08634	0.02292	0.2534	0.367
Mof_N 	N 	0.40603	0.22185	0.1114	-0.15
Mof_N 	N 	0.2285	0.05952	0.0865	-0.168
Mof_O 	O 	0.4672	0.38886	0.4078	-0.397
Mof_O 	O 	0.43914	0.30756	0.578	-0.402
Mof_O 	O 	0.05214	0.0669	0.17117	-0.439
Mof_O 	O 	0.07422	0.99359	0.36684	-0.33
Mof_Mn	Mn	-0	0	-0	0.76
Mof_Mn	Mn	0.5	0.5	-0	0.945
Mof_Mn	Mn	2.01257e-18	3.57504e-33	0.5	0.823
Mof_Mn	Mn	0.5	0.5	0.5	1.01
Mof_Mn	Mn	1.00628e-18	0.16922	0.25	0.707
Mof_Mn	Mn	0.5	0.66922	0.25	0.838
Mof_Mn	Mn	1.28385e-33	0.83078	0.75	0.741
Mof_Mn	Mn	0.5	0.33078	0.75	0.854
_end
