data_functionalizedCrystal
_audit_creation_method	'EQeq! by Chris Wilmer'
_symmetry_space_group_name_H-M	'P1'
_symmetry_Int_Tables_number	1
_symmetry_cell_setting	triclinic
loop_
_symmetry_equiv_pos_as_xyz
  x,y,z
_cell_length_a	9.3322
_cell_length_b	10.795
_cell_length_c	21.6181
_cell_angle_alpha	91.584
_cell_angle_beta	90
_cell_angle_gamma	90
loop_
_atom_site_label
_atom_site_type_symbol
_atom_site_fract_x
_atom_site_fract_y
_atom_site_fract_z
_atom_site_charge
Mof_Zn	Zn	0.63372	0.25393	0.75007	1.178
Mof_Zn	Zn	0.10962	0.92585	0.81213	1.224
Mof_Zn	Zn	0.39528	0.06806	0.68954	1.224
Mof_Zn	Zn	0.13372	0.24607	0.24993	1.178
Mof_Zn	Zn	0.60962	0.57415	0.18787	1.222
Mof_Zn	Zn	0.89528	0.43194	0.31046	1.223
Mof_Zn	Zn	0.36628	0.74607	0.24993	1.177
Mof_Zn	Zn	0.89038	0.07415	0.18787	1.223
Mof_Zn	Zn	0.60472	0.93194	0.31046	1.223
Mof_Zn	Zn	0.86628	0.75393	0.75007	1.177
Mof_Zn	Zn	0.39038	0.42585	0.81213	1.222
Mof_Zn	Zn	0.10472	0.56806	0.68954	1.223
Mof_P 	P 	0.36386	0.13669	0.82693	0.51
Mof_P 	P 	0.35823	0.35804	0.673	0.514
Mof_P 	P 	0.86386	0.36331	0.17307	0.51
Mof_P 	P 	0.85823	0.14196	0.327	0.514
Mof_P 	P 	0.63614	0.86331	0.17307	0.51
Mof_P 	P 	0.64177	0.64196	0.327	0.514
Mof_P 	P 	0.13614	0.63669	0.82693	0.51
Mof_P 	P 	0.14177	0.85804	0.673	0.514
Mof_H 	H 	0.4606	0.9735	0.8792	0.155
Mof_H 	H 	0.5446	0.0954	0.8959	0.175
Mof_H 	H 	0.4718	0.2267	0.9835	0.135
Mof_H 	H 	0.3515	0.2437	0.0767	-0.021
Mof_H 	H 	0.1154	0.9454	0.0298	-0.017
Mof_H 	H 	0.2415	0.9241	0.9381	0.12
Mof_H 	H 	0.4554	0.5212	0.6218	0.159
Mof_H 	H 	0.5404	0.3996	0.6055	0.176
Mof_H 	H 	0.4756	0.2717	0.5163	0.136
Mof_H 	H 	0.3575	0.2551	0.4221	-0.022
Mof_H 	H 	0.1166	0.5495	0.4689	-0.021
Mof_H 	H 	0.2386	0.5708	0.5619	0.125
Mof_H 	H 	0.9606	0.5265	0.1208	0.155
Mof_H 	H 	0.0446	0.4046	0.1041	0.174
Mof_H 	H 	0.9718	0.2733	0.0165	0.136
Mof_H 	H 	0.8515	0.2563	0.9233	-0.022
Mof_H 	H 	0.6154	0.5546	0.9702	-0.019
Mof_H 	H 	0.7415	0.5759	0.0619	0.12
Mof_H 	H 	0.9554	0.9788	0.3782	0.158
Mof_H 	H 	0.0404	0.1004	0.3945	0.174
Mof_H 	H 	0.9756	0.2283	0.4837	0.136
Mof_H 	H 	0.8575	0.2449	0.5779	-0.022
Mof_H 	H 	0.6166	0.9505	0.5311	-0.022
Mof_H 	H 	0.7386	0.9292	0.4381	0.125
Mof_H 	H 	0.5394	0.0265	0.1208	0.155
Mof_H 	H 	0.4554	0.9046	0.1041	0.175
Mof_H 	H 	0.5282	0.7733	0.0165	0.135
Mof_H 	H 	0.6485	0.7563	0.9233	-0.021
Mof_H 	H 	0.8846	0.0546	0.9702	-0.017
Mof_H 	H 	0.7585	0.0759	0.0619	0.12
Mof_H 	H 	0.5446	0.4788	0.3782	0.159
Mof_H 	H 	0.4596	0.6004	0.3945	0.176
Mof_H 	H 	0.5244	0.7283	0.4837	0.136
Mof_H 	H 	0.6425	0.7449	0.5779	-0.022
Mof_H 	H 	0.8834	0.4505	0.5311	-0.021
Mof_H 	H 	0.7614	0.4292	0.4381	0.125
Mof_H 	H 	0.0394	0.4735	0.8792	0.155
Mof_H 	H 	0.9554	0.5954	0.8959	0.174
Mof_H 	H 	0.0282	0.7267	0.9835	0.136
Mof_H 	H 	0.1485	0.7437	0.0767	-0.022
Mof_H 	H 	0.3846	0.4454	0.0298	-0.019
Mof_H 	H 	0.2585	0.4241	0.9381	0.12
Mof_H 	H 	0.0446	0.0212	0.6218	0.158
Mof_H 	H 	0.9596	0.8996	0.6055	0.174
Mof_H 	H 	0.0244	0.7717	0.5163	0.136
Mof_H 	H 	0.1425	0.7551	0.4221	-0.022
Mof_H 	H 	0.3834	0.0495	0.4689	-0.022
Mof_H 	H 	0.2614	0.0708	0.5619	0.125
Mof_C 	C 	0.4495	0.0607	0.89014	-0.469
Mof_C 	C 	0.3688	0.0723	0.95075	0.283
Mof_C 	C 	0.4012	0.1695	0.99293	-0.285
Mof_C 	C 	0.3282	0.1802	0.04855	0.163
Mof_C 	C 	0.2209	0.0971	0.06261	-0.228
Mof_C 	C 	0.1878	0.0014	0.02079	0.167
Mof_C 	C 	0.263	0.9893	0.96559	-0.293
Mof_C 	C 	0.1412	0.1097	0.12244	0.398
Mof_C 	C 	0.445	0.434	0.61059	-0.478
Mof_C 	C 	0.3677	0.4231	0.54942	0.291
Mof_C 	C 	0.4039	0.3281	0.50685	-0.291
Mof_C 	C 	0.3328	0.3179	0.45043	0.168
Mof_C 	C 	0.2251	0.4008	0.4361	-0.235
Mof_C 	C 	0.1895	0.4942	0.47814	0.176
Mof_C 	C 	0.2618	0.5062	0.53432	-0.301
Mof_C 	C 	0.1475	0.3896	0.37526	0.41
Mof_C 	C 	0.9495	0.4393	0.10986	-0.468
Mof_C 	C 	0.8688	0.4277	0.04925	0.283
Mof_C 	C 	0.9012	0.3305	0.00707	-0.286
Mof_C 	C 	0.8282	0.3198	0.95145	0.164
Mof_C 	C 	0.7209	0.4029	0.93739	-0.229
Mof_C 	C 	0.6878	0.4986	0.97921	0.17
Mof_C 	C 	0.763	0.5107	0.03441	-0.295
Mof_C 	C 	0.6412	0.3903	0.87756	0.399
Mof_C 	C 	0.945	0.066	0.38941	-0.476
Mof_C 	C 	0.8677	0.0769	0.45058	0.291
Mof_C 	C 	0.9039	0.1719	0.49315	-0.291
Mof_C 	C 	0.8328	0.1821	0.54957	0.168
Mof_C 	C 	0.7251	0.0992	0.5639	-0.235
Mof_C 	C 	0.6895	0.0058	0.52186	0.178
Mof_C 	C 	0.7618	0.9938	0.46568	-0.302
Mof_C 	C 	0.6475	0.1104	0.62474	0.411
Mof_C 	C 	0.5505	0.9393	0.10986	-0.469
Mof_C 	C 	0.6312	0.9277	0.04925	0.283
Mof_C 	C 	0.5988	0.8305	0.00707	-0.285
Mof_C 	C 	0.6718	0.8198	0.95145	0.163
Mof_C 	C 	0.7791	0.9029	0.93739	-0.228
Mof_C 	C 	0.8122	0.9986	0.97921	0.167
Mof_C 	C 	0.737	0.0107	0.03441	-0.293
Mof_C 	C 	0.8588	0.8903	0.87756	0.398
Mof_C 	C 	0.555	0.566	0.38941	-0.478
Mof_C 	C 	0.6323	0.5769	0.45058	0.291
Mof_C 	C 	0.5961	0.6719	0.49315	-0.291
Mof_C 	C 	0.6672	0.6821	0.54957	0.168
Mof_C 	C 	0.7749	0.5992	0.5639	-0.235
Mof_C 	C 	0.8105	0.5058	0.52186	0.176
Mof_C 	C 	0.7382	0.4938	0.46568	-0.301
Mof_C 	C 	0.8525	0.6104	0.62474	0.41
Mof_C 	C 	0.0505	0.5607	0.89014	-0.468
Mof_C 	C 	0.1312	0.5723	0.95075	0.283
Mof_C 	C 	0.0988	0.6695	0.99293	-0.286
Mof_C 	C 	0.1718	0.6802	0.04855	0.164
Mof_C 	C 	0.2791	0.5971	0.06261	-0.229
Mof_C 	C 	0.3122	0.5014	0.02079	0.17
Mof_C 	C 	0.237	0.4893	0.96559	-0.295
Mof_C 	C 	0.3588	0.6097	0.12244	0.399
Mof_C 	C 	0.055	0.934	0.61059	-0.476
Mof_C 	C 	0.1323	0.9231	0.54942	0.291
Mof_C 	C 	0.0961	0.8281	0.50685	-0.291
Mof_C 	C 	0.1672	0.8179	0.45043	0.168
Mof_C 	C 	0.2749	0.9008	0.4361	-0.235
Mof_C 	C 	0.3105	0.9942	0.47814	0.178
Mof_C 	C 	0.2382	0.0062	0.53432	-0.302
Mof_C 	C 	0.3525	0.8896	0.37526	0.411
Mof_O 	O 	0.4709	0.1245	0.77172	-0.614
Mof_O 	O 	0.2266	0.0694	0.80873	-0.509
Mof_O 	O 	0.3318	0.2697	0.84567	-0.477
Mof_O 	O 	0.1612	0.2047	0.15587	-0.518
Mof_O 	O 	0.056	0.0216	0.13614	-0.492
Mof_O 	O 	0.2148	0.42	0.68802	-0.499
Mof_O 	O 	0.4615	0.3748	0.72872	-0.62
Mof_O 	O 	0.3337	0.2228	0.6553	-0.476
Mof_O 	O 	0.0644	0.4781	0.36138	-0.495
Mof_O 	O 	0.1689	0.2952	0.3416	-0.524
Mof_O 	O 	0.9709	0.3755	0.22828	-0.614
Mof_O 	O 	0.7266	0.4306	0.19127	-0.509
Mof_O 	O 	0.8318	0.2303	0.15433	-0.477
Mof_O 	O 	0.6612	0.2953	0.84413	-0.518
Mof_O 	O 	0.556	0.4784	0.86386	-0.491
Mof_O 	O 	0.7148	0.08	0.31198	-0.499
Mof_O 	O 	0.9615	0.1252	0.27128	-0.619
Mof_O 	O 	0.8337	0.2772	0.3447	-0.476
Mof_O 	O 	0.5644	0.0219	0.63862	-0.495
Mof_O 	O 	0.6689	0.2048	0.6584	-0.524
Mof_O 	O 	0.5291	0.8755	0.22828	-0.614
Mof_O 	O 	0.7734	0.9306	0.19127	-0.509
Mof_O 	O 	0.6682	0.7303	0.15433	-0.477
Mof_O 	O 	0.8388	0.7953	0.84413	-0.518
Mof_O 	O 	0.944	0.9784	0.86386	-0.492
Mof_O 	O 	0.7852	0.58	0.31198	-0.499
Mof_O 	O 	0.5385	0.6252	0.27128	-0.62
Mof_O 	O 	0.6663	0.7772	0.3447	-0.476
Mof_O 	O 	0.9356	0.5219	0.63862	-0.495
Mof_O 	O 	0.8311	0.7048	0.6584	-0.524
Mof_O 	O 	0.0291	0.6245	0.77172	-0.614
Mof_O 	O 	0.2734	0.5694	0.80873	-0.509
Mof_O 	O 	0.1682	0.7697	0.84567	-0.477
Mof_O 	O 	0.3388	0.7047	0.15587	-0.518
Mof_O 	O 	0.444	0.5216	0.13614	-0.491
Mof_O 	O 	0.2852	0.92	0.68802	-0.499
Mof_O 	O 	0.0385	0.8748	0.72872	-0.619
Mof_O 	O 	0.1663	0.7228	0.6553	-0.476
Mof_O 	O 	0.4356	0.9781	0.36138	-0.495
Mof_O 	O 	0.3311	0.7952	0.3416	-0.524
_end
