data_functionalizedCrystal
_audit_creation_method	'EQeq! by Chris Wilmer'
_symmetry_space_group_name_H-M	'P1'
_symmetry_Int_Tables_number	1
_symmetry_cell_setting	triclinic
loop_
_symmetry_equiv_pos_as_xyz
  x,y,z
_cell_length_a	26.291
_cell_length_b	26.291
_cell_length_c	26.291
_cell_angle_alpha	90
_cell_angle_beta	90
_cell_angle_gamma	90
loop_
_atom_site_label
_atom_site_type_symbol
_atom_site_fract_x
_atom_site_fract_y
_atom_site_fract_z
_atom_site_charge
Mof_O 	O 	0.152	0.2985	0.1107	-0.306
Mof_O 	O 	0.1915	0.2498	0.0551	-0.347
Mof_N 	N 	0.1287	0.3691	0.0431	-0.189
Mof_C 	C 	0.1504	0.3248	0.0261	-0.087
Mof_C 	C 	0.1658	0.2883	0.0656	0.328
Mof_O 	O 	0.152	0.7985	0.6107	-0.301
Mof_O 	O 	0.1915	0.7498	0.5551	-0.339
Mof_N 	N 	0.1287	0.8691	0.5431	-0.196
Mof_C 	C 	0.1504	0.8248	0.5261	-0.044
Mof_C 	C 	0.1658	0.7883	0.5656	0.318
Mof_O 	O 	0.652	0.2985	0.6107	-0.3
Mof_O 	O 	0.6915	0.2498	0.5551	-0.339
Mof_N 	N 	0.6287	0.3691	0.5431	-0.197
Mof_C 	C 	0.6504	0.3248	0.5261	-0.043
Mof_C 	C 	0.6658	0.2883	0.5656	0.318
Mof_O 	O 	0.652	0.7985	0.1107	-0.304
Mof_O 	O 	0.6915	0.7498	0.0551	-0.344
Mof_N 	N 	0.6287	0.8691	0.0431	-0.187
Mof_C 	C 	0.6504	0.8248	0.0261	-0.085
Mof_C 	C 	0.6658	0.7883	0.0656	0.329
Mof_O 	O 	0.848	0.7015	0.1107	-0.301
Mof_O 	O 	0.8085	0.7502	0.0551	-0.34
Mof_N 	N 	0.8713	0.6309	0.0431	-0.187
Mof_C 	C 	0.8496	0.6752	0.0261	-0.084
Mof_C 	C 	0.8342	0.7117	0.0656	0.33
Mof_O 	O 	0.848	0.2015	0.6107	-0.297
Mof_O 	O 	0.8085	0.2502	0.5551	-0.335
Mof_N 	N 	0.8713	0.1309	0.5431	-0.197
Mof_C 	C 	0.8496	0.1752	0.5261	-0.042
Mof_C 	C 	0.8342	0.2117	0.5656	0.319
Mof_O 	O 	0.348	0.7015	0.6107	-0.299
Mof_O 	O 	0.3085	0.7502	0.5551	-0.336
Mof_N 	N 	0.3713	0.6309	0.5431	-0.197
Mof_C 	C 	0.3496	0.6752	0.5261	-0.043
Mof_C 	C 	0.3342	0.7117	0.5656	0.318
Mof_O 	O 	0.348	0.2015	0.1107	-0.304
Mof_O 	O 	0.3085	0.2502	0.0551	-0.343
Mof_N 	N 	0.3713	0.1309	0.0431	-0.189
Mof_C 	C 	0.3496	0.1752	0.0261	-0.086
Mof_C 	C 	0.3342	0.2117	0.0656	0.328
Mof_O 	O 	0.848	0.2985	0.8893	-0.292
Mof_O 	O 	0.8085	0.2498	0.9449	-0.313
Mof_N 	N 	0.8713	0.3691	0.9569	-0.182
Mof_C 	C 	0.8496	0.3248	0.9739	0.007
Mof_C 	C 	0.8342	0.2883	0.9344	0.305
Mof_O 	O 	0.848	0.7985	0.3893	-0.298
Mof_O 	O 	0.8085	0.7498	0.4449	-0.335
Mof_N 	N 	0.8713	0.8691	0.4569	-0.195
Mof_C 	C 	0.8496	0.8248	0.4739	-0.041
Mof_C 	C 	0.8342	0.7883	0.4344	0.32
Mof_O 	O 	0.348	0.2985	0.3893	-0.301
Mof_O 	O 	0.3085	0.2498	0.4449	-0.339
Mof_N 	N 	0.3713	0.3691	0.4569	-0.197
Mof_C 	C 	0.3496	0.3248	0.4739	-0.044
Mof_C 	C 	0.3342	0.2883	0.4344	0.318
Mof_O 	O 	0.348	0.7985	0.8893	-0.294
Mof_O 	O 	0.3085	0.7498	0.9449	-0.313
Mof_N 	N 	0.3713	0.8691	0.9569	-0.183
Mof_C 	C 	0.3496	0.8248	0.9739	0.006
Mof_C 	C 	0.3342	0.7883	0.9344	0.304
Mof_O 	O 	0.152	0.7015	0.8893	-0.294
Mof_O 	O 	0.1915	0.7502	0.9449	-0.313
Mof_N 	N 	0.1287	0.6309	0.9569	-0.184
Mof_C 	C 	0.1504	0.6752	0.9739	0.005
Mof_C 	C 	0.1658	0.7117	0.9344	0.303
Mof_O 	O 	0.152	0.2015	0.3893	-0.3
Mof_O 	O 	0.1915	0.2502	0.4449	-0.339
Mof_N 	N 	0.1287	0.1309	0.4569	-0.198
Mof_C 	C 	0.1504	0.1752	0.4739	-0.045
Mof_C 	C 	0.1658	0.2117	0.4344	0.317
Mof_O 	O 	0.652	0.7015	0.3893	-0.299
Mof_O 	O 	0.6915	0.7502	0.4449	-0.336
Mof_N 	N 	0.6287	0.6309	0.4569	-0.197
Mof_C 	C 	0.6504	0.6752	0.4739	-0.043
Mof_C 	C 	0.6658	0.7117	0.4344	0.318
Mof_O 	O 	0.652	0.2015	0.8893	-0.293
Mof_O 	O 	0.6915	0.2502	0.9449	-0.313
Mof_N 	N 	0.6287	0.1309	0.9569	-0.184
Mof_C 	C 	0.6504	0.1752	0.9739	0.006
Mof_C 	C 	0.6658	0.2117	0.9344	0.304
Mof_O 	O 	0.1107	0.152	0.2985	-0.305
Mof_O 	O 	0.0551	0.1915	0.2498	-0.346
Mof_N 	N 	0.0431	0.1287	0.3691	-0.188
Mof_C 	C 	0.0261	0.1504	0.3248	-0.087
Mof_C 	C 	0.0656	0.1658	0.2883	0.328
Mof_O 	O 	0.1107	0.652	0.7985	-0.304
Mof_O 	O 	0.0551	0.6915	0.7498	-0.344
Mof_N 	N 	0.0431	0.6287	0.8691	-0.187
Mof_C 	C 	0.0261	0.6504	0.8248	-0.085
Mof_C 	C 	0.0656	0.6658	0.7883	0.329
Mof_O 	O 	0.6107	0.152	0.7985	-0.301
Mof_O 	O 	0.5551	0.1915	0.7498	-0.339
Mof_N 	N 	0.5431	0.1287	0.8691	-0.196
Mof_C 	C 	0.5261	0.1504	0.8248	-0.044
Mof_C 	C 	0.5656	0.1658	0.7883	0.318
Mof_O 	O 	0.6107	0.652	0.2985	-0.3
Mof_O 	O 	0.5551	0.6915	0.2498	-0.339
Mof_N 	N 	0.5431	0.6287	0.3691	-0.197
Mof_C 	C 	0.5261	0.6504	0.3248	-0.043
Mof_C 	C 	0.5656	0.6658	0.2883	0.318
Mof_O 	O 	0.1107	0.848	0.7015	-0.301
Mof_O 	O 	0.0551	0.8085	0.7502	-0.34
Mof_N 	N 	0.0431	0.8713	0.6309	-0.187
Mof_C 	C 	0.0261	0.8496	0.6752	-0.084
Mof_C 	C 	0.0656	0.8342	0.7117	0.33
Mof_O 	O 	0.1107	0.348	0.2015	-0.304
Mof_O 	O 	0.0551	0.3085	0.2502	-0.343
Mof_N 	N 	0.0431	0.3713	0.1309	-0.189
Mof_C 	C 	0.0261	0.3496	0.1752	-0.086
Mof_C 	C 	0.0656	0.3342	0.2117	0.328
Mof_O 	O 	0.6107	0.848	0.2015	-0.297
Mof_O 	O 	0.5551	0.8085	0.2502	-0.335
Mof_N 	N 	0.5431	0.8713	0.1309	-0.197
Mof_C 	C 	0.5261	0.8496	0.1752	-0.042
Mof_C 	C 	0.5656	0.8342	0.2117	0.319
Mof_O 	O 	0.6107	0.348	0.7015	-0.299
Mof_O 	O 	0.5551	0.3085	0.7502	-0.336
Mof_N 	N 	0.5431	0.3713	0.6309	-0.197
Mof_C 	C 	0.5261	0.3496	0.6752	-0.043
Mof_C 	C 	0.5656	0.3342	0.7117	0.318
Mof_O 	O 	0.8893	0.848	0.2985	-0.292
Mof_O 	O 	0.9449	0.8085	0.2498	-0.313
Mof_N 	N 	0.9569	0.8713	0.3691	-0.182
Mof_C 	C 	0.9739	0.8496	0.3248	0.007
Mof_C 	C 	0.9344	0.8342	0.2883	0.305
Mof_O 	O 	0.8893	0.348	0.7985	-0.294
Mof_O 	O 	0.9449	0.3085	0.7498	-0.313
Mof_N 	N 	0.9569	0.3713	0.8691	-0.183
Mof_C 	C 	0.9739	0.3496	0.8248	0.006
Mof_C 	C 	0.9344	0.3342	0.7883	0.304
Mof_O 	O 	0.3893	0.848	0.7985	-0.298
Mof_O 	O 	0.4449	0.8085	0.7498	-0.335
Mof_N 	N 	0.4569	0.8713	0.8691	-0.195
Mof_C 	C 	0.4739	0.8496	0.8248	-0.041
Mof_C 	C 	0.4344	0.8342	0.7883	0.32
Mof_O 	O 	0.3893	0.348	0.2985	-0.301
Mof_O 	O 	0.4449	0.3085	0.2498	-0.339
Mof_N 	N 	0.4569	0.3713	0.3691	-0.197
Mof_C 	C 	0.4739	0.3496	0.3248	-0.044
Mof_C 	C 	0.4344	0.3342	0.2883	0.318
Mof_O 	O 	0.8893	0.152	0.7015	-0.294
Mof_O 	O 	0.9449	0.1915	0.7502	-0.313
Mof_N 	N 	0.9569	0.1287	0.6309	-0.184
Mof_C 	C 	0.9739	0.1504	0.6752	0.005
Mof_C 	C 	0.9344	0.1658	0.7117	0.303
Mof_O 	O 	0.8893	0.652	0.2015	-0.293
Mof_O 	O 	0.9449	0.6915	0.2502	-0.313
Mof_N 	N 	0.9569	0.6287	0.1309	-0.184
Mof_C 	C 	0.9739	0.6504	0.1752	0.006
Mof_C 	C 	0.9344	0.6658	0.2117	0.304
Mof_O 	O 	0.3893	0.152	0.2015	-0.3
Mof_O 	O 	0.4449	0.1915	0.2502	-0.339
Mof_N 	N 	0.4569	0.1287	0.1309	-0.198
Mof_C 	C 	0.4739	0.1504	0.1752	-0.045
Mof_C 	C 	0.4344	0.1658	0.2117	0.317
Mof_O 	O 	0.3893	0.652	0.7015	-0.299
Mof_O 	O 	0.4449	0.6915	0.7502	-0.336
Mof_N 	N 	0.4569	0.6287	0.6309	-0.197
Mof_C 	C 	0.4739	0.6504	0.6752	-0.043
Mof_C 	C 	0.4344	0.6658	0.7117	0.318
Mof_O 	O 	0.2985	0.1107	0.152	-0.305
Mof_O 	O 	0.2498	0.0551	0.1915	-0.346
Mof_N 	N 	0.3691	0.0431	0.1287	-0.188
Mof_C 	C 	0.3248	0.0261	0.1504	-0.087
Mof_C 	C 	0.2883	0.0656	0.1658	0.328
Mof_O 	O 	0.2985	0.6107	0.652	-0.3
Mof_O 	O 	0.2498	0.5551	0.6915	-0.339
Mof_N 	N 	0.3691	0.5431	0.6287	-0.197
Mof_C 	C 	0.3248	0.5261	0.6504	-0.043
Mof_C 	C 	0.2883	0.5656	0.6658	0.318
Mof_O 	O 	0.7985	0.1107	0.652	-0.304
Mof_O 	O 	0.7498	0.0551	0.6915	-0.344
Mof_N 	N 	0.8691	0.0431	0.6287	-0.187
Mof_C 	C 	0.8248	0.0261	0.6504	-0.085
Mof_C 	C 	0.7883	0.0656	0.6658	0.329
Mof_O 	O 	0.7985	0.6107	0.152	-0.301
Mof_O 	O 	0.7498	0.5551	0.1915	-0.339
Mof_N 	N 	0.8691	0.5431	0.1287	-0.196
Mof_C 	C 	0.8248	0.5261	0.1504	-0.044
Mof_C 	C 	0.7883	0.5656	0.1658	0.318
Mof_O 	O 	0.7015	0.1107	0.848	-0.301
Mof_O 	O 	0.7502	0.0551	0.8085	-0.34
Mof_N 	N 	0.6309	0.0431	0.8713	-0.187
Mof_C 	C 	0.6752	0.0261	0.8496	-0.084
Mof_C 	C 	0.7117	0.0656	0.8342	0.33
Mof_O 	O 	0.7015	0.6107	0.348	-0.299
Mof_O 	O 	0.7502	0.5551	0.3085	-0.336
Mof_N 	N 	0.6309	0.5431	0.3713	-0.197
Mof_C 	C 	0.6752	0.5261	0.3496	-0.043
Mof_C 	C 	0.7117	0.5656	0.3342	0.318
Mof_O 	O 	0.2015	0.1107	0.348	-0.304
Mof_O 	O 	0.2502	0.0551	0.3085	-0.343
Mof_N 	N 	0.1309	0.0431	0.3713	-0.189
Mof_C 	C 	0.1752	0.0261	0.3496	-0.086
Mof_C 	C 	0.2117	0.0656	0.3342	0.328
Mof_O 	O 	0.2015	0.6107	0.848	-0.297
Mof_O 	O 	0.2502	0.5551	0.8085	-0.335
Mof_N 	N 	0.1309	0.5431	0.8713	-0.197
Mof_C 	C 	0.1752	0.5261	0.8496	-0.042
Mof_C 	C 	0.2117	0.5656	0.8342	0.319
Mof_O 	O 	0.2985	0.8893	0.848	-0.292
Mof_O 	O 	0.2498	0.9449	0.8085	-0.313
Mof_N 	N 	0.3691	0.9569	0.8713	-0.182
Mof_C 	C 	0.3248	0.9739	0.8496	0.007
Mof_C 	C 	0.2883	0.9344	0.8342	0.305
Mof_O 	O 	0.2985	0.3893	0.348	-0.301
Mof_O 	O 	0.2498	0.4449	0.3085	-0.339
Mof_N 	N 	0.3691	0.4569	0.3713	-0.197
Mof_C 	C 	0.3248	0.4739	0.3496	-0.044
Mof_C 	C 	0.2883	0.4344	0.3342	0.318
Mof_O 	O 	0.7985	0.8893	0.348	-0.294
Mof_O 	O 	0.7498	0.9449	0.3085	-0.313
Mof_N 	N 	0.8691	0.9569	0.3713	-0.183
Mof_C 	C 	0.8248	0.9739	0.3496	0.006
Mof_C 	C 	0.7883	0.9344	0.3342	0.304
Mof_O 	O 	0.7985	0.3893	0.848	-0.298
Mof_O 	O 	0.7498	0.4449	0.8085	-0.335
Mof_N 	N 	0.8691	0.4569	0.8713	-0.195
Mof_C 	C 	0.8248	0.4739	0.8496	-0.041
Mof_C 	C 	0.7883	0.4344	0.8342	0.32
Mof_O 	O 	0.7015	0.8893	0.152	-0.294
Mof_O 	O 	0.7502	0.9449	0.1915	-0.313
Mof_N 	N 	0.6309	0.9569	0.1287	-0.184
Mof_C 	C 	0.6752	0.9739	0.1504	0.005
Mof_C 	C 	0.7117	0.9344	0.1658	0.303
Mof_O 	O 	0.7015	0.3893	0.652	-0.299
Mof_O 	O 	0.7502	0.4449	0.6915	-0.336
Mof_N 	N 	0.6309	0.4569	0.6287	-0.197
Mof_C 	C 	0.6752	0.4739	0.6504	-0.043
Mof_C 	C 	0.7117	0.4344	0.6658	0.318
Mof_O 	O 	0.2015	0.8893	0.652	-0.293
Mof_O 	O 	0.2502	0.9449	0.6915	-0.313
Mof_N 	N 	0.1309	0.9569	0.6287	-0.184
Mof_C 	C 	0.1752	0.9739	0.6504	0.006
Mof_C 	C 	0.2117	0.9344	0.6658	0.304
Mof_O 	O 	0.2015	0.3893	0.152	-0.3
Mof_O 	O 	0.2502	0.4449	0.1915	-0.339
Mof_N 	N 	0.1309	0.4569	0.1287	-0.198
Mof_C 	C 	0.1752	0.4739	0.1504	-0.045
Mof_C 	C 	0.2117	0.4344	0.1658	0.317
Mof_O 	O 	0.848	0.7015	0.8893	-0.291
Mof_O 	O 	0.8085	0.7502	0.9449	-0.31
Mof_N 	N 	0.8713	0.6309	0.9569	-0.182
Mof_C 	C 	0.8496	0.6752	0.9739	0.008
Mof_C 	C 	0.8342	0.7117	0.9344	0.305
Mof_O 	O 	0.848	0.2015	0.3893	-0.297
Mof_O 	O 	0.8085	0.2502	0.4449	-0.335
Mof_N 	N 	0.8713	0.1309	0.4569	-0.197
Mof_C 	C 	0.8496	0.1752	0.4739	-0.042
Mof_C 	C 	0.8342	0.2117	0.4344	0.319
Mof_O 	O 	0.348	0.7015	0.3893	-0.299
Mof_O 	O 	0.3085	0.7502	0.4449	-0.336
Mof_N 	N 	0.3713	0.6309	0.4569	-0.197
Mof_C 	C 	0.3496	0.6752	0.4739	-0.043
Mof_C 	C 	0.3342	0.7117	0.4344	0.318
Mof_O 	O 	0.348	0.2015	0.8893	-0.294
Mof_O 	O 	0.3085	0.2502	0.9449	-0.313
Mof_N 	N 	0.3713	0.1309	0.9569	-0.185
Mof_C 	C 	0.3496	0.1752	0.9739	0.005
Mof_C 	C 	0.3342	0.2117	0.9344	0.303
Mof_O 	O 	0.152	0.2985	0.8893	-0.295
Mof_O 	O 	0.1915	0.2498	0.9449	-0.316
Mof_N 	N 	0.1287	0.3691	0.9569	-0.184
Mof_C 	C 	0.1504	0.3248	0.9739	0.005
Mof_C 	C 	0.1658	0.2883	0.9344	0.303
Mof_O 	O 	0.152	0.7985	0.3893	-0.301
Mof_O 	O 	0.1915	0.7498	0.4449	-0.339
Mof_N 	N 	0.1287	0.8691	0.4569	-0.196
Mof_C 	C 	0.1504	0.8248	0.4739	-0.044
Mof_C 	C 	0.1658	0.7883	0.4344	0.318
Mof_O 	O 	0.652	0.2985	0.3893	-0.3
Mof_O 	O 	0.6915	0.2498	0.4449	-0.339
Mof_N 	N 	0.6287	0.3691	0.4569	-0.197
Mof_C 	C 	0.6504	0.3248	0.4739	-0.043
Mof_C 	C 	0.6658	0.2883	0.4344	0.318
Mof_O 	O 	0.652	0.7985	0.8893	-0.294
Mof_O 	O 	0.6915	0.7498	0.9449	-0.314
Mof_N 	N 	0.6287	0.8691	0.9569	-0.182
Mof_C 	C 	0.6504	0.8248	0.9739	0.007
Mof_C 	C 	0.6658	0.7883	0.9344	0.305
Mof_O 	O 	0.152	0.7015	0.1107	-0.304
Mof_O 	O 	0.1915	0.7502	0.0551	-0.343
Mof_N 	N 	0.1287	0.6309	0.0431	-0.188
Mof_C 	C 	0.1504	0.6752	0.0261	-0.086
Mof_C 	C 	0.1658	0.7117	0.0656	0.328
Mof_O 	O 	0.152	0.2015	0.6107	-0.3
Mof_O 	O 	0.1915	0.2502	0.5551	-0.339
Mof_N 	N 	0.1287	0.1309	0.5431	-0.198
Mof_C 	C 	0.1504	0.1752	0.5261	-0.045
Mof_C 	C 	0.1658	0.2117	0.5656	0.317
Mof_O 	O 	0.652	0.7015	0.6107	-0.299
Mof_O 	O 	0.6915	0.7502	0.5551	-0.336
Mof_N 	N 	0.6287	0.6309	0.5431	-0.197
Mof_C 	C 	0.6504	0.6752	0.5261	-0.043
Mof_C 	C 	0.6658	0.7117	0.5656	0.318
Mof_O 	O 	0.652	0.2015	0.1107	-0.303
Mof_O 	O 	0.6915	0.2502	0.0551	-0.343
Mof_N 	N 	0.6287	0.1309	0.0431	-0.189
Mof_C 	C 	0.6504	0.1752	0.0261	-0.086
Mof_C 	C 	0.6658	0.2117	0.0656	0.329
Mof_O 	O 	0.848	0.2985	0.1107	-0.302
Mof_O 	O 	0.8085	0.2498	0.0551	-0.342
Mof_N 	N 	0.8713	0.3691	0.0431	-0.187
Mof_C 	C 	0.8496	0.3248	0.0261	-0.084
Mof_C 	C 	0.8342	0.2883	0.0656	0.33
Mof_O 	O 	0.848	0.7985	0.6107	-0.298
Mof_O 	O 	0.8085	0.7498	0.5551	-0.335
Mof_N 	N 	0.8713	0.8691	0.5431	-0.195
Mof_C 	C 	0.8496	0.8248	0.5261	-0.041
Mof_C 	C 	0.8342	0.7883	0.5656	0.32
Mof_O 	O 	0.348	0.2985	0.6107	-0.301
Mof_O 	O 	0.3085	0.2498	0.5551	-0.339
Mof_N 	N 	0.3713	0.3691	0.5431	-0.198
Mof_C 	C 	0.3496	0.3248	0.5261	-0.044
Mof_C 	C 	0.3342	0.2883	0.5656	0.318
Mof_O 	O 	0.348	0.7985	0.1107	-0.304
Mof_O 	O 	0.3085	0.7498	0.0551	-0.343
Mof_N 	N 	0.3713	0.8691	0.0431	-0.187
Mof_C 	C 	0.3496	0.8248	0.0261	-0.086
Mof_C 	C 	0.3342	0.7883	0.0656	0.329
Mof_O 	O 	0.8893	0.848	0.7015	-0.291
Mof_O 	O 	0.9449	0.8085	0.7502	-0.31
Mof_N 	N 	0.9569	0.8713	0.6309	-0.182
Mof_C 	C 	0.9739	0.8496	0.6752	0.008
Mof_C 	C 	0.9344	0.8342	0.7117	0.305
Mof_O 	O 	0.8893	0.348	0.2015	-0.294
Mof_O 	O 	0.9449	0.3085	0.2502	-0.313
Mof_N 	N 	0.9569	0.3713	0.1309	-0.185
Mof_C 	C 	0.9739	0.3496	0.1752	0.005
Mof_C 	C 	0.9344	0.3342	0.2117	0.303
Mof_O 	O 	0.3893	0.848	0.2015	-0.297
Mof_O 	O 	0.4449	0.8085	0.2502	-0.335
Mof_N 	N 	0.4569	0.8713	0.1309	-0.197
Mof_C 	C 	0.4739	0.8496	0.1752	-0.042
Mof_C 	C 	0.4344	0.8342	0.2117	0.319
Mof_O 	O 	0.3893	0.348	0.7015	-0.299
Mof_O 	O 	0.4449	0.3085	0.7502	-0.336
Mof_N 	N 	0.4569	0.3713	0.6309	-0.197
Mof_C 	C 	0.4739	0.3496	0.6752	-0.043
Mof_C 	C 	0.4344	0.3342	0.7117	0.318
Mof_O 	O 	0.8893	0.152	0.2985	-0.295
Mof_O 	O 	0.9449	0.1915	0.2498	-0.316
Mof_N 	N 	0.9569	0.1287	0.3691	-0.184
Mof_C 	C 	0.9739	0.1504	0.3248	0.005
Mof_C 	C 	0.9344	0.1658	0.2883	0.303
Mof_O 	O 	0.8893	0.652	0.7985	-0.294
Mof_O 	O 	0.9449	0.6915	0.7498	-0.314
Mof_N 	N 	0.9569	0.6287	0.8691	-0.182
Mof_C 	C 	0.9739	0.6504	0.8248	0.007
Mof_C 	C 	0.9344	0.6658	0.7883	0.305
Mof_O 	O 	0.3893	0.152	0.7985	-0.301
Mof_O 	O 	0.4449	0.1915	0.7498	-0.339
Mof_N 	N 	0.4569	0.1287	0.8691	-0.196
Mof_C 	C 	0.4739	0.1504	0.8248	-0.044
Mof_C 	C 	0.4344	0.1658	0.7883	0.318
Mof_O 	O 	0.3893	0.652	0.2985	-0.3
Mof_O 	O 	0.4449	0.6915	0.2498	-0.339
Mof_N 	N 	0.4569	0.6287	0.3691	-0.197
Mof_C 	C 	0.4739	0.6504	0.3248	-0.043
Mof_C 	C 	0.4344	0.6658	0.2883	0.318
Mof_O 	O 	0.1107	0.152	0.7015	-0.304
Mof_O 	O 	0.0551	0.1915	0.7502	-0.343
Mof_N 	N 	0.0431	0.1287	0.6309	-0.188
Mof_C 	C 	0.0261	0.1504	0.6752	-0.086
Mof_C 	C 	0.0656	0.1658	0.7117	0.328
Mof_O 	O 	0.1107	0.652	0.2015	-0.303
Mof_O 	O 	0.0551	0.6915	0.2502	-0.343
Mof_N 	N 	0.0431	0.6287	0.1309	-0.189
Mof_C 	C 	0.0261	0.6504	0.1752	-0.086
Mof_C 	C 	0.0656	0.6658	0.2117	0.329
Mof_O 	O 	0.6107	0.152	0.2015	-0.3
Mof_O 	O 	0.5551	0.1915	0.2502	-0.339
Mof_N 	N 	0.5431	0.1287	0.1309	-0.198
Mof_C 	C 	0.5261	0.1504	0.1752	-0.045
Mof_C 	C 	0.5656	0.1658	0.2117	0.317
Mof_O 	O 	0.6107	0.652	0.7015	-0.299
Mof_O 	O 	0.5551	0.6915	0.7502	-0.336
Mof_N 	N 	0.5431	0.6287	0.6309	-0.197
Mof_C 	C 	0.5261	0.6504	0.6752	-0.043
Mof_C 	C 	0.5656	0.6658	0.7117	0.318
Mof_O 	O 	0.1107	0.848	0.2985	-0.302
Mof_O 	O 	0.0551	0.8085	0.2498	-0.342
Mof_N 	N 	0.0431	0.8713	0.3691	-0.187
Mof_C 	C 	0.0261	0.8496	0.3248	-0.084
Mof_C 	C 	0.0656	0.8342	0.2883	0.33
Mof_O 	O 	0.1107	0.348	0.7985	-0.304
Mof_O 	O 	0.0551	0.3085	0.7498	-0.343
Mof_N 	N 	0.0431	0.3713	0.8691	-0.187
Mof_C 	C 	0.0261	0.3496	0.8248	-0.086
Mof_C 	C 	0.0656	0.3342	0.7883	0.329
Mof_O 	O 	0.6107	0.848	0.7985	-0.298
Mof_O 	O 	0.5551	0.8085	0.7498	-0.335
Mof_N 	N 	0.5431	0.8713	0.8691	-0.195
Mof_C 	C 	0.5261	0.8496	0.8248	-0.041
Mof_C 	C 	0.5656	0.8342	0.7883	0.32
Mof_O 	O 	0.6107	0.348	0.2985	-0.301
Mof_O 	O 	0.5551	0.3085	0.2498	-0.339
Mof_N 	N 	0.5431	0.3713	0.3691	-0.198
Mof_C 	C 	0.5261	0.3496	0.3248	-0.044
Mof_C 	C 	0.5656	0.3342	0.2883	0.318
Mof_O 	O 	0.7015	0.8893	0.848	-0.291
Mof_O 	O 	0.7502	0.9449	0.8085	-0.31
Mof_N 	N 	0.6309	0.9569	0.8713	-0.182
Mof_C 	C 	0.6752	0.9739	0.8496	0.008
Mof_C 	C 	0.7117	0.9344	0.8342	0.305
Mof_O 	O 	0.7015	0.3893	0.348	-0.299
Mof_O 	O 	0.7502	0.4449	0.3085	-0.336
Mof_N 	N 	0.6309	0.4569	0.3713	-0.197
Mof_C 	C 	0.6752	0.4739	0.3496	-0.043
Mof_C 	C 	0.7117	0.4344	0.3342	0.318
Mof_O 	O 	0.2015	0.8893	0.348	-0.294
Mof_O 	O 	0.2502	0.9449	0.3085	-0.313
Mof_N 	N 	0.1309	0.9569	0.3713	-0.185
Mof_C 	C 	0.1752	0.9739	0.3496	0.005
Mof_C 	C 	0.2117	0.9344	0.3342	0.303
Mof_O 	O 	0.2015	0.3893	0.848	-0.297
Mof_O 	O 	0.2502	0.4449	0.8085	-0.335
Mof_N 	N 	0.1309	0.4569	0.8713	-0.197
Mof_C 	C 	0.1752	0.4739	0.8496	-0.042
Mof_C 	C 	0.2117	0.4344	0.8342	0.319
Mof_O 	O 	0.2985	0.8893	0.152	-0.295
Mof_O 	O 	0.2498	0.9449	0.1915	-0.316
Mof_N 	N 	0.3691	0.9569	0.1287	-0.184
Mof_C 	C 	0.3248	0.9739	0.1504	0.005
Mof_C 	C 	0.2883	0.9344	0.1658	0.303
Mof_O 	O 	0.2985	0.3893	0.652	-0.3
Mof_O 	O 	0.2498	0.4449	0.6915	-0.339
Mof_N 	N 	0.3691	0.4569	0.6287	-0.197
Mof_C 	C 	0.3248	0.4739	0.6504	-0.043
Mof_C 	C 	0.2883	0.4344	0.6658	0.318
Mof_O 	O 	0.7985	0.8893	0.652	-0.294
Mof_O 	O 	0.7498	0.9449	0.6915	-0.314
Mof_N 	N 	0.8691	0.9569	0.6287	-0.182
Mof_C 	C 	0.8248	0.9739	0.6504	0.007
Mof_C 	C 	0.7883	0.9344	0.6658	0.305
Mof_O 	O 	0.7985	0.3893	0.152	-0.301
Mof_O 	O 	0.7498	0.4449	0.1915	-0.339
Mof_N 	N 	0.8691	0.4569	0.1287	-0.196
Mof_C 	C 	0.8248	0.4739	0.1504	-0.044
Mof_C 	C 	0.7883	0.4344	0.1658	0.318
Mof_O 	O 	0.7015	0.1107	0.152	-0.304
Mof_O 	O 	0.7502	0.0551	0.1915	-0.343
Mof_N 	N 	0.6309	0.0431	0.1287	-0.188
Mof_C 	C 	0.6752	0.0261	0.1504	-0.086
Mof_C 	C 	0.7117	0.0656	0.1658	0.328
Mof_O 	O 	0.7015	0.6107	0.652	-0.299
Mof_O 	O 	0.7502	0.5551	0.6915	-0.336
Mof_N 	N 	0.6309	0.5431	0.6287	-0.197
Mof_C 	C 	0.6752	0.5261	0.6504	-0.043
Mof_C 	C 	0.7117	0.5656	0.6658	0.318
Mof_O 	O 	0.2015	0.1107	0.652	-0.303
Mof_O 	O 	0.2502	0.0551	0.6915	-0.343
Mof_N 	N 	0.1309	0.0431	0.6287	-0.189
Mof_C 	C 	0.1752	0.0261	0.6504	-0.086
Mof_C 	C 	0.2117	0.0656	0.6658	0.329
Mof_O 	O 	0.2015	0.6107	0.152	-0.3
Mof_O 	O 	0.2502	0.5551	0.1915	-0.339
Mof_N 	N 	0.1309	0.5431	0.1287	-0.198
Mof_C 	C 	0.1752	0.5261	0.1504	-0.045
Mof_C 	C 	0.2117	0.5656	0.1658	0.317
Mof_O 	O 	0.2985	0.1107	0.848	-0.302
Mof_O 	O 	0.2498	0.0551	0.8085	-0.342
Mof_N 	N 	0.3691	0.0431	0.8713	-0.187
Mof_C 	C 	0.3248	0.0261	0.8496	-0.084
Mof_C 	C 	0.2883	0.0656	0.8342	0.33
Mof_O 	O 	0.2985	0.6107	0.348	-0.301
Mof_O 	O 	0.2498	0.5551	0.3085	-0.339
Mof_N 	N 	0.3691	0.5431	0.3713	-0.198
Mof_C 	C 	0.3248	0.5261	0.3496	-0.044
Mof_C 	C 	0.2883	0.5656	0.3342	0.318
Mof_O 	O 	0.7985	0.1107	0.348	-0.304
Mof_O 	O 	0.7498	0.0551	0.3085	-0.343
Mof_N 	N 	0.8691	0.0431	0.3713	-0.187
Mof_C 	C 	0.8248	0.0261	0.3496	-0.086
Mof_C 	C 	0.7883	0.0656	0.3342	0.329
Mof_O 	O 	0.7985	0.6107	0.848	-0.298
Mof_O 	O 	0.7498	0.5551	0.8085	-0.335
Mof_N 	N 	0.8691	0.5431	0.8713	-0.195
Mof_C 	C 	0.8248	0.5261	0.8496	-0.041
Mof_C 	C 	0.7883	0.5656	0.8342	0.32
Mof_Mn	Mn	0.12415	0.37585	0.12415	0.862
Mof_Mn	Mn	0.87585	0.62415	0.12415	0.869
Mof_Mn	Mn	0.37585	0.12415	0.12415	0.862
Mof_Mn	Mn	0.87585	0.37585	0.87585	0.875
Mof_Mn	Mn	0.37585	0.37585	0.37585	0.866
Mof_Mn	Mn	0.12415	0.62415	0.87585	0.869
Mof_Mn	Mn	0.12415	0.12415	0.37585	0.862
Mof_Mn	Mn	0.12415	0.87585	0.62415	0.869
Mof_Mn	Mn	0.87585	0.87585	0.37585	0.875
Mof_Mn	Mn	0.87585	0.12415	0.62415	0.869
Mof_Mn	Mn	0.37585	0.62415	0.62415	0.867
Mof_Mn	Mn	0.62415	0.12415	0.87585	0.869
Mof_Mn	Mn	0.62415	0.62415	0.37585	0.867
Mof_Mn	Mn	0.37585	0.87585	0.87585	0.875
Mof_Mn	Mn	0.62415	0.87585	0.12415	0.869
Mof_Mn	Mn	0.62415	0.37585	0.62415	0.867
Mof_Mn	Mn	0.87585	0.62415	0.87585	0.876
Mof_Mn	Mn	0.87585	0.12415	0.37585	0.869
Mof_Mn	Mn	0.37585	0.12415	0.87585	0.869
Mof_Mn	Mn	0.12415	0.37585	0.87585	0.869
Mof_Mn	Mn	0.12415	0.62415	0.12415	0.862
Mof_Mn	Mn	0.87585	0.37585	0.12415	0.869
Mof_Mn	Mn	0.37585	0.37585	0.62415	0.867
Mof_Mn	Mn	0.87585	0.87585	0.62415	0.876
Mof_Mn	Mn	0.37585	0.87585	0.12415	0.869
Mof_Mn	Mn	0.37585	0.62415	0.37585	0.867
Mof_Mn	Mn	0.12415	0.12415	0.62415	0.862
Mof_Mn	Mn	0.12415	0.87585	0.37585	0.869
Mof_Mn	Mn	0.62415	0.87585	0.87585	0.876
Mof_Mn	Mn	0.62415	0.37585	0.37585	0.867
Mof_Mn	Mn	0.62415	0.12415	0.12415	0.862
Mof_Mn	Mn	0.62415	0.62415	0.62415	0.868
Mof_Mn	Mn	0.25	0.25	-0	0.834
Mof_Mn	Mn	0.25	0.75	0.5	0.882
Mof_Mn	Mn	0.75	0.75	-0	0.839
Mof_Mn	Mn	0.75	0.25	0.5	0.881
Mof_Mn	Mn	0.75	0.25	-0	0.836
Mof_Mn	Mn	0.75	0.75	0.5	0.884
Mof_Mn	Mn	0.25	0.25	0.5	0.88
Mof_Mn	Mn	0.25	0.75	-0	0.837
Mof_Mn	Mn	-4.61899e-33	0.25	0.25	0.834
Mof_Mn	Mn	0.5	0.25	0.75	0.882
Mof_Mn	Mn	-8.30064e-33	0.75	0.75	0.839
Mof_Mn	Mn	0.5	0.75	0.25	0.881
Mof_Mn	Mn	-7.39717e-33	0.75	0.25	0.836
Mof_Mn	Mn	0.5	0.75	0.75	0.884
Mof_Mn	Mn	0.5	0.25	0.25	0.88
Mof_Mn	Mn	-8.30064e-33	0.25	0.75	0.837
Mof_Mn	Mn	0.25	-2.77817e-33	0.25	0.834
Mof_Mn	Mn	0.25	0.5	0.75	0.881
Mof_Mn	Mn	0.75	-5.55634e-33	0.75	0.839
Mof_Mn	Mn	0.75	0.5	0.25	0.882
Mof_Mn	Mn	0.25	-5.55634e-33	0.75	0.836
Mof_Mn	Mn	0.25	0.5	0.25	0.88
Mof_Mn	Mn	0.75	-2.77817e-33	0.25	0.837
Mof_Mn	Mn	0.75	0.5	0.75	0.884
Mof_C 	C 	0.1186	0.3934	-0	0.09
Mof_H 	H 	0.1047	0.4268	-0	-0.028
Mof_C 	C 	0.1186	0.8934	0.5	0.129
Mof_H 	H 	0.1047	0.9268	0.5	-0.022
Mof_C 	C 	0.6186	0.3934	0.5	0.129
Mof_H 	H 	0.6047	0.4268	0.5	-0.029
Mof_C 	C 	0.6186	0.8934	-0	0.093
Mof_H 	H 	0.6047	0.9268	-0	-0.018
Mof_C 	C 	0.8814	0.6066	-0	0.095
Mof_H 	H 	0.8953	0.5732	-0	-0.022
Mof_C 	C 	0.8814	0.1066	0.5	0.132
Mof_H 	H 	0.8953	0.0732	0.5	-0.029
Mof_C 	C 	0.3814	0.6066	0.5	0.129
Mof_H 	H 	0.3953	0.5732	0.5	-0.029
Mof_C 	C 	0.3814	0.1066	-0	0.09
Mof_H 	H 	0.3953	0.0732	-0	-0.03
Mof_C 	C 	0.8814	0.3934	-0	0.095
Mof_H 	H 	0.8953	0.4268	-0	-0.022
Mof_C 	C 	0.8814	0.8934	0.5	0.134
Mof_H 	H 	0.8953	0.9268	0.5	-0.017
Mof_C 	C 	0.3814	0.3934	0.5	0.129
Mof_H 	H 	0.3953	0.4268	0.5	-0.029
Mof_C 	C 	0.3814	0.8934	-0	0.092
Mof_H 	H 	0.3953	0.9268	-0	-0.018
Mof_C 	C 	0.1186	0.6066	-0	0.09
Mof_H 	H 	0.1047	0.5732	-0	-0.028
Mof_C 	C 	0.1186	0.1066	0.5	0.127
Mof_H 	H 	0.1047	0.0732	0.5	-0.034
Mof_C 	C 	0.6186	0.6066	0.5	0.13
Mof_H 	H 	0.6047	0.5732	0.5	-0.029
Mof_C 	C 	0.6186	0.1066	-0	0.091
Mof_H 	H 	0.6047	0.0732	-0	-0.03
Mof_C 	C 	-4.08133e-33	0.1186	0.3934	0.09
Mof_H 	H 	1.60024e-33	0.1047	0.4268	-0.028
Mof_C 	C 	3.34971e-33	0.6186	0.8934	0.093
Mof_H 	H 	3.47494e-33	0.6047	0.9268	-0.018
Mof_C 	C 	0.5	0.1186	0.8934	0.129
Mof_H 	H 	0.5	0.1047	0.9268	-0.022
Mof_C 	C 	0.5	0.6186	0.3934	0.129
Mof_H 	H 	0.5	0.6047	0.4268	-0.029
Mof_C 	C 	-3.28196e-33	0.8814	0.6066	0.095
Mof_H 	H 	-3.40719e-33	0.8953	0.5732	-0.022
Mof_C 	C 	3.17786e-33	0.3814	0.1066	0.09
Mof_H 	H 	-3.19826e-33	0.3953	0.0732	-0.03
Mof_C 	C 	0.5	0.8814	0.1066	0.132
Mof_H 	H 	0.5	0.8953	0.0732	-0.029
Mof_C 	C 	0.5	0.3814	0.6066	0.129
Mof_H 	H 	0.5	0.3953	0.5732	-0.029
Mof_C 	C 	-4.08133e-33	0.8814	0.3934	0.095
Mof_H 	H 	7.15659e-33	0.8953	0.4268	-0.022
Mof_C 	C 	3.34971e-33	0.3814	0.8934	0.092
Mof_H 	H 	3.47494e-33	0.3953	0.9268	-0.018
Mof_C 	C 	0.5	0.8814	0.8934	0.134
Mof_H 	H 	0.5	0.8953	0.9268	-0.017
Mof_C 	C 	0.5	0.3814	0.3934	0.129
Mof_H 	H 	0.5	0.3953	0.4268	-0.029
Mof_C 	C 	2.27439e-33	0.1186	0.6066	0.09
Mof_H 	H 	-3.40719e-33	0.1047	0.5732	-0.028
Mof_C 	C 	3.99686e-34	0.6186	0.1066	0.091
Mof_H 	H 	-3.19826e-33	0.6047	0.0732	-0.03
Mof_C 	C 	0.5	0.1186	0.1066	0.127
Mof_H 	H 	0.5	0.1047	0.0732	-0.034
Mof_C 	C 	0.5	0.6186	0.6066	0.13
Mof_H 	H 	0.5	0.6047	0.5732	-0.029
Mof_C 	C 	0.3934	0	0.1186	0.09
Mof_H 	H 	0.4268	0	0.1047	-0.028
Mof_C 	C 	0.3934	0.5	0.6186	0.129
Mof_H 	H 	0.4268	0.5	0.6047	-0.029
Mof_C 	C 	0.8934	0	0.6186	0.093
Mof_H 	H 	0.9268	0	0.6047	-0.018
Mof_C 	C 	0.8934	0.5	0.1186	0.129
Mof_H 	H 	0.9268	0.5	0.1047	-0.022
Mof_C 	C 	0.6066	0	0.8814	0.095
Mof_H 	H 	0.5732	0	0.8953	-0.022
Mof_C 	C 	0.6066	0.5	0.3814	0.129
Mof_H 	H 	0.5732	0.5	0.3953	-0.029
Mof_C 	C 	0.1066	0	0.3814	0.09
Mof_H 	H 	0.0732	-2.77817e-33	0.3953	-0.03
Mof_C 	C 	0.1066	0.5	0.8814	0.132
Mof_H 	H 	0.0732	0.5	0.8953	-0.029
Mof_C 	C 	0.3934	0	0.8814	0.095
Mof_H 	H 	0.4268	0	0.8953	-0.022
Mof_C 	C 	0.3934	0.5	0.3814	0.129
Mof_H 	H 	0.4268	0.5	0.3953	-0.029
Mof_C 	C 	0.8934	0	0.3814	0.092
Mof_H 	H 	0.9268	-2.77817e-33	0.3953	-0.018
Mof_C 	C 	0.8934	0.5	0.8814	0.134
Mof_H 	H 	0.9268	0.5	0.8953	-0.017
Mof_C 	C 	0.6066	0	0.1186	0.09
Mof_H 	H 	0.5732	0	0.1047	-0.028
Mof_C 	C 	0.6066	0.5	0.6186	0.13
Mof_H 	H 	0.5732	0.5	0.6047	-0.029
Mof_C 	C 	0.1066	0	0.6186	0.091
Mof_H 	H 	0.0732	0	0.6047	-0.03
Mof_C 	C 	0.1066	0.5	0.1186	0.127
Mof_H 	H 	0.0732	0.5	0.1047	-0.034
_end
