data_functionalizedCrystal
_audit_creation_method	'EQeq! by Chris Wilmer'
_symmetry_space_group_name_H-M	'P1'
_symmetry_Int_Tables_number	1
_symmetry_cell_setting	triclinic
loop_
_symmetry_equiv_pos_as_xyz
  x,y,z
_cell_length_a	37.072
_cell_length_b	37.072
_cell_length_c	30.0333
_cell_angle_alpha	90
_cell_angle_beta	90
_cell_angle_gamma	120
loop_
_atom_site_label
_atom_site_type_symbol
_atom_site_fract_x
_atom_site_fract_y
_atom_site_fract_z
_atom_site_charge
Mof_C 	C 	0.02226	0.97844	0.24989	0.013
Mof_C 	C 	0.97843	0.95713	0.25052	-0.062
Mof_C 	C 	0.95647	0.97901	0.25116	0.013
Mof_C 	C 	0.979	0.02292	0.25149	-0.06
Mof_C 	C 	0.02318	0.04551	0.25053	0.013
Mof_C 	C 	0.04422	0.02237	0.24957	-0.06
Mof_H 	H 	0.96134	0.92337	0.25052	0.046
Mof_H 	H 	0.9616	0.03923	0.25105	0.044
Mof_H 	H 	0.07791	0.03826	0.25	0.044
Mof_C 	C 	0.04399	0.02356	0.75063	0.016
Mof_C 	C 	0.02095	0.0447	0.7488	-0.062
Mof_C 	C 	0.97667	0.0233	0.75111	0.017
Mof_C 	C 	0.95575	0.97916	0.75394	-0.064
Mof_C 	C 	0.97763	0.95717	0.75395	0.016
Mof_C 	C 	0.02141	0.97955	0.75295	-0.064
Mof_H 	H 	0.03796	0.07833	0.74961	0.045
Mof_H 	H 	0.92211	0.96109	0.75346	0.046
Mof_H 	H 	0.03767	0.9621	0.7525	0.046
Mof_C 	C 	0.31136	0.62241	0.24792	0.016
Mof_C 	C 	0.28984	0.64481	0.24803	-0.061
Mof_C 	C 	0.31125	0.68872	0.2486	0.016
Mof_C 	C 	0.35516	0.71024	0.24902	-0.061
Mof_C 	C 	0.37768	0.68884	0.2489	0.016
Mof_C 	C 	0.35528	0.64493	0.24833	-0.061
Mof_H 	H 	0.25618	0.62793	0.24772	0.045
Mof_H 	H 	0.37195	0.74391	0.24945	0.045
Mof_H 	H 	0.37216	0.62814	0.24825	0.045
Mof_C 	C 	0.62149	0.31152	0.74884	0.016
Mof_C 	C 	0.64398	0.35551	0.74831	-0.061
Mof_C 	C 	0.68796	0.378	0.7477	0.016
Mof_C 	C 	0.70936	0.35548	0.74712	-0.062
Mof_C 	C 	0.68781	0.31167	0.74809	0.017
Mof_C 	C 	0.644	0.29011	0.74915	-0.062
Mof_H 	H 	0.62715	0.37234	0.74842	0.045
Mof_H 	H 	0.74299	0.37198	0.74483	0.046
Mof_H 	H 	0.62749	0.25647	0.7514	0.046
Mof_C 	C 	0.36988	0.30344	0.10053	0.016
Mof_C 	C 	0.40891	0.31325	0.11908	-0.06
Mof_C 	C 	0.43797	0.30523	0.0964	0.016
Mof_C 	C 	0.42747	0.28902	0.05245	-0.061
Mof_C 	C 	0.38908	0.27938	0.03287	0.016
Mof_C 	C 	0.36091	0.2865	0.0571	-0.061
Mof_H 	H 	0.4164	0.32685	0.15179	0.044
Mof_H 	H 	0.44769	0.2814	0.03378	0.045
Mof_H 	H 	0.33266	0.28066	0.04037	0.046
Mof_C 	C 	0.38493	0.10801	0.46656	0.016
Mof_C 	C 	0.42332	0.13771	0.44783	-0.062
Mof_C 	C 	0.4345	0.13285	0.40424	0.016
Mof_C 	C 	0.40666	0.09724	0.37954	-0.062
Mof_C 	C 	0.36783	0.06728	0.3974	0.017
Mof_C 	C 	0.35761	0.07313	0.44106	-0.062
Mof_H 	H 	0.44443	0.16484	0.46717	0.046
Mof_H 	H 	0.41457	0.09378	0.3457	0.046
Mof_H 	H 	0.32852	0.04992	0.45586	0.047
Mof_C 	C 	0.71573	0.1077	0.03219	0.016
Mof_C 	C 	0.7069	0.13695	0.05243	-0.06
Mof_C 	C 	0.69146	0.13179	0.0967	0.016
Mof_C 	C 	0.68388	0.09502	0.11959	-0.06
Mof_C 	C 	0.69258	0.06554	0.10033	0.016
Mof_C 	C 	0.70825	0.07225	0.0566	-0.061
Mof_H 	H 	0.71366	0.16446	0.0337	0.045
Mof_H 	H 	0.67077	0.08851	0.15265	0.045
Mof_H 	H 	0.7153	0.04993	0.04168	0.046
Mof_C 	C 	0.30349	0.37019	0.59969	0.016
Mof_C 	C 	0.31229	0.40864	0.61837	-0.061
Mof_C 	C 	0.30445	0.43714	0.59479	0.016
Mof_C 	C 	0.2889	0.42683	0.5508	-0.061
Mof_C 	C 	0.2802	0.38865	0.53123	0.016
Mof_C 	C 	0.28759	0.36081	0.556	-0.062
Mof_H 	H 	0.32467	0.41601	0.65182	0.045
Mof_H 	H 	0.28195	0.44766	0.53223	0.046
Mof_H 	H 	0.2816	0.3319	0.54064	0.046
Mof_C 	C 	0.11005	0.72143	0.53408	0.016
Mof_C 	C 	0.07469	0.71415	0.5585	-0.061
Mof_C 	C 	0.06701	0.69753	0.6022	0.016
Mof_C 	C 	0.09645	0.68785	0.62059	-0.06
Mof_C 	C 	0.13311	0.69593	0.59739	0.016
Mof_C 	C 	0.13905	0.71223	0.55374	-0.061
Mof_H 	H 	0.05211	0.71971	0.54174	0.046
Mof_H 	H 	0.09184	0.67535	0.65387	0.044
Mof_H 	H 	0.16695	0.71923	0.53542	0.046
Mof_C 	C 	0.10776	0.38186	0.96313	0.015
Mof_C 	C 	0.13806	0.41981	0.94426	-0.062
Mof_C 	C 	0.13421	0.43047	0.90018	0.016
Mof_C 	C 	0.09926	0.40234	0.87482	-0.061
Mof_C 	C 	0.06778	0.36416	0.893	0.015
Mof_C 	C 	0.07294	0.35458	0.93743	-0.061
Mof_H 	H 	0.1648	0.4411	0.96397	0.046
Mof_H 	H 	0.09626	0.41115	0.84127	0.045
Mof_H 	H 	0.05043	0.32518	0.9522	0.045
Mof_C 	C 	0.89317	0.27983	0.46558	0.016
Mof_C 	C 	0.92896	0.28824	0.44118	-0.061
Mof_C 	C 	0.93612	0.30461	0.39724	0.016
Mof_C 	C 	0.9062	0.31359	0.37879	-0.061
Mof_C 	C 	0.86977	0.30496	0.40235	0.016
Mof_C 	C 	0.86385	0.28837	0.44563	-0.062
Mof_H 	H 	0.9515	0.28228	0.45725	0.045
Mof_H 	H 	0.90934	0.32461	0.3449	0.045
Mof_H 	H 	0.83638	0.28265	0.46405	0.046
Mof_C 	C 	0.69929	0.63249	0.39801	0.016
Mof_C 	C 	0.69035	0.59367	0.38006	-0.062
Mof_C 	C 	0.69804	0.56574	0.40466	0.016
Mof_C 	C 	0.71414	0.57683	0.44825	-0.062
Mof_C 	C 	0.72292	0.61522	0.46707	0.016
Mof_C 	C 	0.71541	0.64262	0.44166	-0.062
Mof_H 	H 	0.67896	0.58584	0.34622	0.046
Mof_H 	H 	0.72009	0.55564	0.46751	0.046
Mof_H 	H 	0.72137	0.67172	0.45652	0.047
Mof_C 	C 	0.89129	0.61035	0.03285	0.016
Mof_C 	C 	0.86196	0.57203	0.05233	-0.061
Mof_C 	C 	0.86669	0.56159	0.09671	0.016
Mof_C 	C 	0.90328	0.5907	0.12003	-0.061
Mof_C 	C 	0.93285	0.6291	0.10123	0.016
Mof_C 	C 	0.92632	0.63837	0.05762	-0.062
Mof_H 	H 	0.8344	0.55189	0.03323	0.045
Mof_H 	H 	0.90964	0.58383	0.15304	0.045
Mof_H 	H 	0.94915	0.66734	0.04228	0.047
Mof_C 	C 	0.61468	0.89063	0.53573	0.016
Mof_C 	C 	0.5769	0.86042	0.55525	-0.061
Mof_C 	C 	0.56702	0.86435	0.59978	0.016
Mof_C 	C 	0.59578	0.89984	0.62428	-0.061
Mof_C 	C 	0.63371	0.93103	0.60555	0.016
Mof_C 	C 	0.64246	0.9256	0.56098	-0.061
Mof_H 	H 	0.55595	0.83315	0.53607	0.046
Mof_H 	H 	0.58734	0.90427	0.65744	0.045
Mof_H 	H 	0.67166	0.94796	0.54575	0.045
Mof_C 	C 	0.27671	0.89112	0.966	0.016
Mof_C 	C 	0.28396	0.92612	0.94096	-0.061
Mof_C 	C 	0.3004	0.9331	0.89712	0.015
Mof_C 	C 	0.31001	0.90338	0.87928	-0.061
Mof_C 	C 	0.30222	0.86747	0.90353	0.016
Mof_C 	C 	0.28587	0.86196	0.94697	-0.062
Mof_H 	H 	0.27855	0.94896	0.95733	0.046
Mof_H 	H 	0.3211	0.90637	0.84543	0.045
Mof_H 	H 	0.28002	0.83473	0.966	0.046
Mof_C 	C 	0.63301	0.69916	0.89827	0.015
Mof_C 	C 	0.59364	0.68932	0.88038	-0.06
Mof_C 	C 	0.56544	0.69791	0.90385	0.015
Mof_C 	C 	0.57703	0.71524	0.94711	-0.061
Mof_C 	C 	0.61523	0.72419	0.96629	0.015
Mof_C 	C 	0.6427	0.71629	0.94172	-0.061
Mof_H 	H 	0.58647	0.67851	0.84641	0.044
Mof_H 	H 	0.55596	0.72091	0.96687	0.045
Mof_H 	H 	0.67091	0.72171	0.9582	0.046
Mof_Zn	Zn	0.62252	0.33842	0.2731	1.247
Mof_Zn	Zn	0.66613	0.33349	0.18965	1.239
Mof_Zn	Zn	0.71485	0.3776	0.27282	1.247
Mof_Zn	Zn	0.66189	0.28533	0.27325	1.247
Mof_O 	O 	0.66632	0.33368	0.25184	-1.018
Mof_O 	O 	0.58905	0.33619	0.22889	-0.528
Mof_O 	O 	0.71044	0.38162	0.16669	-0.51
Mof_O 	O 	0.70665	0.41227	0.30837	-0.523
Mof_O 	O 	0.61792	0.32964	0.16708	-0.511
Mof_O 	O 	0.63853	0.38644	0.30385	-0.52
Mof_O 	O 	0.74564	0.41091	0.2285	-0.53
Mof_O 	O 	0.70551	0.29385	0.30782	-0.523
Mof_O 	O 	0.66965	0.28892	0.16713	-0.511
Mof_O 	O 	0.74745	0.36199	0.30289	-0.52
Mof_O 	O 	0.66342	0.25378	0.22909	-0.529
Mof_O 	O 	0.61415	0.25344	0.30447	-0.52
Mof_O 	O 	0.58784	0.29535	0.30845	-0.523
Mof_C 	C 	0.58811	0.33101	0.18695	0.397
Mof_C 	C 	0.74148	0.41164	0.18655	0.398
Mof_C 	C 	0.67429	0.41457	0.31723	0.398
Mof_C 	C 	0.74028	0.32634	0.31607	0.398
Mof_C 	C 	0.66817	0.25772	0.18711	0.398
Mof_C 	C 	0.58579	0.26085	0.31757	0.398
Mof_Zn	Zn	0.28557	0.66125	0.77405	1.246
Mof_Zn	Zn	0.339	0.62219	0.77301	1.247
Mof_Zn	Zn	0.33412	0.66664	0.69055	1.239
Mof_Zn	Zn	0.37793	0.7143	0.7745	1.246
Mof_O 	O 	0.33411	0.66611	0.75266	-1.019
Mof_O 	O 	0.25351	0.61269	0.80417	-0.519
Mof_O 	O 	0.33583	0.58869	0.72847	-0.529
Mof_O 	O 	0.29016	0.67138	0.66815	-0.51
Mof_O 	O 	0.29629	0.58737	0.80851	-0.523
Mof_O 	O 	0.25446	0.66419	0.72998	-0.526
Mof_O 	O 	0.32949	0.61836	0.66719	-0.511
Mof_O 	O 	0.41243	0.74489	0.73063	-0.528
Mof_O 	O 	0.38744	0.63786	0.80283	-0.519
Mof_O 	O 	0.3829	0.71048	0.6684	-0.511
Mof_O 	O 	0.41184	0.70553	0.81089	-0.522
Mof_O 	O 	0.36197	0.74695	0.80416	-0.519
Mof_O 	O 	0.29395	0.70425	0.80967	-0.522
Mof_C 	C 	0.26138	0.58458	0.81717	0.397
Mof_C 	C 	0.33033	0.5881	0.68665	0.398
Mof_C 	C 	0.25899	0.67	0.68813	0.395
Mof_C 	C 	0.41338	0.7407	0.68869	0.397
Mof_C 	C 	0.41486	0.67326	0.81779	0.396
Mof_C 	C 	0.32622	0.73927	0.81772	0.396
Mof_Zn	Zn	0.16075	0.29989	0.20029	1.247
Mof_Zn	Zn	0.22324	0.36678	0.26029	1.246
Mof_Zn	Zn	0.14427	0.36627	0.23486	1.246
Mof_Zn	Zn	0.14108	0.30098	0.29662	1.246
Mof_O 	O 	0.16735	0.33353	0.24801	-1.02
Mof_O 	O 	0.20932	0.30512	0.18295	-0.531
Mof_O 	O 	0.24057	0.42126	0.2524	-0.524
Mof_O 	O 	0.12977	0.36251	0.17693	-0.524
Mof_O 	O 	0.25658	0.35389	0.22667	-0.515
Mof_O 	O 	0.14083	0.31292	0.15105	-0.518
Mof_O 	O 	0.1813	0.42107	0.2416	-0.523
Mof_O 	O 	0.0977	0.30623	0.3136	-0.531
Mof_O 	O 	0.2348	0.36461	0.31829	-0.524
Mof_O 	O 	0.09824	0.35381	0.2687	-0.514
Mof_O 	O 	0.17458	0.31558	0.3456	-0.518
Mof_O 	O 	0.11849	0.24561	0.28561	-0.52
Mof_O 	O 	0.12846	0.24482	0.21283	-0.52
Mof_C 	C 	0.24696	0.32738	0.19532	0.401
Mof_C 	C 	0.22064	0.44065	0.24692	0.404
Mof_C 	C 	0.13067	0.34069	0.14469	0.399
Mof_C 	C 	0.08185	0.32792	0.30067	0.401
Mof_C 	C 	0.21251	0.3437	0.35118	0.399
Mof_C 	C 	0.11376	0.22569	0.24947	0.397
Mof_Zn	Zn	0.29948	0.14021	0.79816	1.246
Mof_Zn	Zn	0.36569	0.22243	0.762	1.246
Mof_Zn	Zn	0.36525	0.14354	0.73727	1.246
Mof_Zn	Zn	0.29904	0.16008	0.70181	1.246
Mof_O 	O 	0.33237	0.16656	0.7498	-1.02
Mof_O 	O 	0.31456	0.17356	0.84735	-0.518
Mof_O 	O 	0.42017	0.23983	0.75393	-0.524
Mof_O 	O 	0.35201	0.09699	0.77051	-0.514
Mof_O 	O 	0.36371	0.23379	0.82008	-0.524
Mof_O 	O 	0.30395	0.0962	0.81481	-0.53
Mof_O 	O 	0.42005	0.18043	0.74486	-0.523
Mof_O 	O 	0.3128	0.1406	0.65268	-0.518
Mof_O 	O 	0.35283	0.25584	0.72847	-0.515
Mof_O 	O 	0.36227	0.1297	0.67934	-0.526
Mof_O 	O 	0.30409	0.20867	0.68464	-0.53
Mof_O 	O 	0.24382	0.12763	0.71389	-0.519
Mof_O 	O 	0.24413	0.1183	0.78686	-0.519
Mof_C 	C 	0.34293	0.21141	0.85298	0.398
Mof_C 	C 	0.43961	0.21987	0.74937	0.404
Mof_C 	C 	0.32556	0.08023	0.80194	0.4
Mof_C 	C 	0.34087	0.13075	0.64678	0.399
Mof_C 	C 	0.32629	0.24627	0.69716	0.401
Mof_C 	C 	0.22442	0.11336	0.75049	0.395
Mof_Zn	Zn	0.15952	0.85889	0.29813	1.246
Mof_Zn	Zn	0.22196	0.85547	0.23721	1.246
Mof_Zn	Zn	0.14363	0.77671	0.26242	1.246
Mof_Zn	Zn	0.13946	0.83906	0.20191	1.247
Mof_O 	O 	0.16616	0.8325	0.24991	-1.021
Mof_O 	O 	0.20787	0.90322	0.31434	-0.531
Mof_O 	O 	0.2399	0.81873	0.24496	-0.524
Mof_O 	O 	0.1304	0.76552	0.32066	-0.523
Mof_O 	O 	0.25514	0.90201	0.27033	-0.515
Mof_O 	O 	0.14148	0.82587	0.34754	-0.517
Mof_O 	O 	0.18068	0.75926	0.25419	-0.524
Mof_O 	O 	0.09553	0.79055	0.18523	-0.53
Mof_O 	O 	0.2329	0.86913	0.17916	-0.525
Mof_O 	O 	0.09722	0.74339	0.22904	-0.515
Mof_O 	O 	0.17243	0.85793	0.1526	-0.518
Mof_O 	O 	0.11757	0.8723	0.21367	-0.521
Mof_O 	O 	0.12585	0.88043	0.28681	-0.52
Mof_C 	C 	0.2454	0.91907	0.30139	0.401
Mof_C 	C 	0.22008	0.77931	0.24948	0.404
Mof_C 	C 	0.132	0.78805	0.35343	0.397
Mof_C 	C 	0.08011	0.75298	0.19787	0.4
Mof_C 	C 	0.21033	0.86781	0.14659	0.399
Mof_C 	C 	0.11192	0.88619	0.25027	0.396
Mof_Zn	Zn	0.69978	0.84097	0.29848	1.247
Mof_Zn	Zn	0.63386	0.7786	0.23753	1.246
Mof_Zn	Zn	0.63329	0.85682	0.26332	1.246
Mof_Zn	Zn	0.69982	0.86132	0.20237	1.246
Mof_O 	O 	0.66662	0.83442	0.25041	-1.021
Mof_O 	O 	0.69556	0.79258	0.31482	-0.531
Mof_O 	O 	0.57914	0.76056	0.24504	-0.524
Mof_O 	O 	0.63604	0.87066	0.32151	-0.523
Mof_O 	O 	0.6471	0.74537	0.27075	-0.515
Mof_O 	O 	0.68538	0.85945	0.34786	-0.518
Mof_O 	O 	0.57872	0.81951	0.25584	-0.524
Mof_O 	O 	0.69461	0.90485	0.18553	-0.53
Mof_O 	O 	0.63681	0.76777	0.1795	-0.525
Mof_O 	O 	0.64567	0.90279	0.2295	-0.515
Mof_O 	O 	0.68598	0.82835	0.15305	-0.518
Mof_O 	O 	0.75505	0.88367	0.2141	-0.521
Mof_O 	O 	0.7549	0.87438	0.28704	-0.521
Mof_C 	C 	0.67382	0.75506	0.30188	0.401
Mof_C 	C 	0.55945	0.7802	0.25039	0.404
Mof_C 	C 	0.65733	0.86926	0.35404	0.398
Mof_C 	C 	0.6721	0.9199	0.1981	0.4
Mof_C 	C 	0.65809	0.79042	0.14698	0.399
Mof_C 	C 	0.77459	0.88885	0.25063	0.396
Mof_Zn	Zn	0.79617	0.16454	0.70658	1.25
Mof_Zn	Zn	0.81114	0.11416	0.773	1.242
Mof_Zn	Zn	0.8845	0.18705	0.72623	1.243
Mof_Zn	Zn	0.83404	0.20283	0.79163	1.25
Mof_O 	O 	0.83183	0.16674	0.74937	-1.027
Mof_O 	O 	0.75953	0.11247	0.68935	-0.527
Mof_O 	O 	0.85083	0.09865	0.77168	-0.514
Mof_O 	O 	0.88847	0.20596	0.66862	-0.513
Mof_O 	O 	0.76826	0.07409	0.73989	-0.517
Mof_O 	O 	0.82309	0.18993	0.65687	-0.532
Mof_O 	O 	0.8998	0.14738	0.72849	-0.515
Mof_O 	O 	0.8861	0.23939	0.80905	-0.527
Mof_O 	O 	0.79155	0.11071	0.83039	-0.512
Mof_O 	O 	0.9245	0.23016	0.75897	-0.518
Mof_O 	O 	0.80804	0.17634	0.8413	-0.531
Mof_O 	O 	0.80927	0.23199	0.77468	-0.524
Mof_O 	O 	0.7672	0.18976	0.72268	-0.524
Mof_C 	C 	0.75058	0.07706	0.70477	0.401
Mof_C 	C 	0.88515	0.11321	0.7502	0.389
Mof_C 	C 	0.8605	0.20589	0.6436	0.4
Mof_C 	C 	0.92152	0.24814	0.7938	0.402
Mof_C 	C 	0.79157	0.13898	0.85489	0.399
Mof_C 	C 	0.77844	0.22076	0.74856	0.397
Mof_Zn	Zn	0.86089	0.70074	0.7025	1.246
Mof_Zn	Zn	0.77824	0.63443	0.73773	1.246
Mof_Zn	Zn	0.85664	0.63362	0.76202	1.245
Mof_Zn	Zn	0.84074	0.6996	0.79897	1.246
Mof_O 	O 	0.83413	0.66708	0.75029	-1.021
Mof_O 	O 	0.82772	0.68701	0.65329	-0.518
Mof_O 	O 	0.76021	0.57964	0.74489	-0.523
Mof_O 	O 	0.9031	0.64693	0.72852	-0.514
Mof_O 	O 	0.7673	0.63762	0.67987	-0.526
Mof_O 	O 	0.90471	0.69602	0.68521	-0.529
Mof_O 	O 	0.81936	0.57913	0.75345	-0.523
Mof_O 	O 	0.85929	0.68445	0.84776	-0.519
Mof_O 	O 	0.74501	0.64752	0.77128	-0.514
Mof_O 	O 	0.8701	0.63527	0.82007	-0.524
Mof_O 	O 	0.79231	0.69503	0.816	-0.53
Mof_O 	O 	0.87401	0.75496	0.78812	-0.52
Mof_O 	O 	0.88288	0.75588	0.71501	-0.519
Mof_C 	C 	0.78979	0.65901	0.64733	0.4
Mof_C 	C 	0.77993	0.55989	0.74893	0.403
Mof_C 	C 	0.92015	0.67373	0.69742	0.399
Mof_C 	C 	0.86881	0.65608	0.85311	0.399
Mof_C 	C 	0.75474	0.67365	0.80303	0.4
Mof_C 	C 	0.88815	0.77505	0.75184	0.394
Mof_C 	C 	0.47936	0.31367	0.16489	-0.069
Mof_C 	C 	0.47581	0.31224	0.11788	0.025
Mof_C 	C 	0.51101	0.31726	0.09368	-0.068
Mof_C 	C 	0.54754	0.32363	0.11548	0.028
Mof_C 	C 	0.55043	0.32542	0.16219	-0.119
Mof_C 	C 	0.51571	0.32036	0.1863	0.029
Mof_H 	H 	0.45354	0.30766	0.18627	0.046
Mof_H 	H 	0.51141	0.31765	0.05772	0.045
Mof_H 	H 	0.57362	0.32742	0.09567	0.033
Mof_H 	H 	0.51607	0.32059	0.22236	0.036
Mof_C 	C 	0.50061	0.15509	0.36022	-0.07
Mof_C 	C 	0.47449	0.16572	0.38393	0.025
Mof_C 	C 	0.48638	0.2081	0.38722	-0.07
Mof_C 	C 	0.52276	0.2389	0.36643	0.03
Mof_C 	C 	0.54877	0.22831	0.34241	-0.121
Mof_C 	C 	0.53747	0.18599	0.34011	0.029
Mof_H 	H 	0.49251	0.12278	0.35727	0.047
Mof_H 	H 	0.46685	0.21738	0.40489	0.048
Mof_H 	H 	0.53035	0.27109	0.36885	0.033
Mof_H 	H 	0.55653	0.17661	0.32168	0.033
Mof_C 	C 	0.67988	0.19309	0.09396	-0.068
Mof_C 	C 	0.68489	0.1629	0.11817	0.025
Mof_C 	C 	0.68392	0.1653	0.16518	-0.069
Mof_C 	C 	0.67794	0.19542	0.18658	0.029
Mof_C 	C 	0.67308	0.2252	0.16242	-0.119
Mof_C 	C 	0.67422	0.22368	0.11572	0.028
Mof_H 	H 	0.67895	0.19283	0.05802	0.046
Mof_H 	H 	0.68972	0.14532	0.18652	0.046
Mof_H 	H 	0.67807	0.1958	0.22264	0.036
Mof_H 	H 	0.67047	0.24599	0.0959	0.033
Mof_C 	C 	0.30428	0.47674	0.66333	-0.069
Mof_C 	C 	0.31084	0.47642	0.61718	0.025
Mof_C 	C 	0.32319	0.51373	0.59337	-0.069
Mof_C 	C 	0.32921	0.55008	0.61525	0.028
Mof_C 	C 	0.32363	0.55025	0.6616	-0.12
Mof_C 	C 	0.31093	0.51293	0.68508	0.029
Mof_H 	H 	0.29333	0.44873	0.68299	0.047
Mof_H 	H 	0.32886	0.51512	0.5579	0.046
Mof_H 	H 	0.3389	0.57818	0.59606	0.032
Mof_H 	H 	0.30546	0.51141	0.72064	0.035
Mof_C 	C 	0.79448	0.28019	0.38402	-0.07
Mof_C 	C 	0.8367	0.31131	0.38117	0.025
Mof_C 	C 	0.8468	0.34809	0.35782	-0.07
Mof_C 	C 	0.81551	0.35357	0.33791	0.029
Mof_C 	C 	0.77333	0.32208	0.34011	-0.121
Mof_C 	C 	0.76333	0.28535	0.36351	0.03
Mof_H 	H 	0.78559	0.25133	0.40139	0.047
Mof_H 	H 	0.87895	0.37276	0.35519	0.047
Mof_H 	H 	0.82445	0.38214	0.31991	0.033
Mof_H 	H 	0.73131	0.26036	0.36582	0.034
Mof_C 	C 	0.65405	0.49985	0.36034	-0.07
Mof_C 	C 	0.69078	0.52575	0.3842	0.025
Mof_C 	C 	0.72115	0.51369	0.3874	-0.07
Mof_C 	C 	0.71547	0.47736	0.36638	0.03
Mof_C 	C 	0.67889	0.45158	0.3422	-0.121
Mof_C 	C 	0.648	0.46306	0.33998	0.029
Mof_H 	H 	0.62993	0.50808	0.35744	0.047
Mof_H 	H 	0.74993	0.53304	0.40518	0.048
Mof_H 	H 	0.73997	0.46963	0.36877	0.034
Mof_H 	H 	0.61958	0.44416	0.32146	0.033
Mof_C 	C 	0.83288	0.52036	0.16491	-0.069
Mof_C 	C 	0.83551	0.52384	0.11793	0.025
Mof_C 	C 	0.80556	0.48865	0.09353	-0.068
Mof_C 	C 	0.77515	0.45214	0.11515	0.028
Mof_C 	C 	0.77359	0.44931	0.16186	-0.119
Mof_C 	C 	0.80299	0.48406	0.18614	0.029
Mof_H 	H 	0.85254	0.54617	0.18637	0.046
Mof_H 	H 	0.80594	0.48824	0.05757	0.045
Mof_H 	H 	0.75308	0.42603	0.09523	0.033
Mof_H 	H 	0.80252	0.48375	0.2222	0.036
Mof_C 	C 	0.19113	0.67735	0.59561	-0.068
Mof_C 	C 	0.16579	0.68904	0.61976	0.025
Mof_C 	C 	0.17242	0.69478	0.66604	-0.069
Mof_C 	C 	0.20219	0.68818	0.68748	0.028
Mof_C 	C 	0.22732	0.67638	0.66358	-0.118
Mof_C 	C 	0.22167	0.67142	0.61717	0.028
Mof_H 	H 	0.18708	0.67222	0.56005	0.046
Mof_H 	H 	0.15508	0.70517	0.68604	0.047
Mof_H 	H 	0.20597	0.69309	0.72313	0.035
Mof_H 	H 	0.2404	0.66237	0.59762	0.032
Mof_C 	C 	0.20937	0.4839	0.8848	-0.07
Mof_C 	C 	0.16681	0.47098	0.88055	0.025
Mof_C 	C 	0.15576	0.4969	0.85704	-0.07
Mof_C 	C 	0.18642	0.53451	0.83798	0.029
Mof_C 	C 	0.22895	0.54686	0.8412	-0.12
Mof_C 	C 	0.23995	0.52106	0.86506	0.03
Mof_H 	H 	0.21897	0.46463	0.90248	0.048
Mof_H 	H 	0.1233	0.48807	0.85349	0.047
Mof_H 	H 	0.17673	0.55337	0.81963	0.033
Mof_H 	H 	0.27232	0.52943	0.86816	0.034
Mof_C 	C 	0.52619	0.82346	0.6673	-0.069
Mof_C 	C 	0.52718	0.83155	0.62137	0.025
Mof_C 	C 	0.48982	0.80825	0.59706	-0.069
Mof_C 	C 	0.45279	0.77839	0.61826	0.028
Mof_C 	C 	0.45196	0.7715	0.66443	-0.119
Mof_C 	C 	0.48932	0.79441	0.68841	0.029
Mof_H 	H 	0.55416	0.8393	0.68728	0.046
Mof_H 	H 	0.4889	0.81355	0.56176	0.046
Mof_H 	H 	0.42468	0.76127	0.59869	0.032
Mof_H 	H 	0.4903	0.78949	0.72384	0.035
Mof_C 	C 	0.34615	0.84534	0.85912	-0.07
Mof_C 	C 	0.30941	0.83469	0.88288	0.025
Mof_C 	C 	0.27907	0.79224	0.88633	-0.07
Mof_C 	C 	0.28485	0.76143	0.86588	0.029
Mof_C 	C 	0.3215	0.77201	0.84196	-0.119
Mof_C 	C 	0.35229	0.81441	0.83929	0.028
Mof_H 	H 	0.37026	0.87767	0.85601	0.047
Mof_H 	H 	0.25025	0.78289	0.90401	0.047
Mof_H 	H 	0.26038	0.72921	0.86858	0.034
Mof_H 	H 	0.38076	0.8238	0.8209	0.033
Mof_C 	C 	0.5059	0.65861	0.85201	-0.069
Mof_C 	C 	0.52705	0.69041	0.88404	0.025
Mof_C 	C 	0.50901	0.71509	0.8951	-0.069
Mof_C 	C 	0.4726	0.70922	0.87406	0.03
Mof_C 	C 	0.45194	0.67761	0.84229	-0.12
Mof_C 	C 	0.46872	0.65197	0.83208	0.029
Mof_H 	H 	0.51719	0.63774	0.84302	0.046
Mof_H 	H 	0.52408	0.74076	0.91825	0.047
Mof_H 	H 	0.46071	0.72975	0.88247	0.032
Mof_H 	H 	0.45366	0.62738	0.80763	0.031
Mof_C 	C 	0.07516	0.96219	0.28286	-0.071
Mof_C 	C 	0.0452	0.95478	0.24999	0.026
Mof_C 	C 	0.03723	0.9245	0.21731	-0.071
Mof_C 	C 	0.05916	0.90263	0.2171	0.03
Mof_C 	C 	0.0888	0.90965	0.2503	-0.12
Mof_C 	C 	0.09628	0.93953	0.28337	0.03
Mof_H 	H 	0.08182	0.98519	0.30855	0.048
Mof_H 	H 	0.0144	0.9182	0.19152	0.048
Mof_H 	H 	0.05253	0.87979	0.19124	0.032
Mof_H 	H 	0.11899	0.94585	0.3093	0.031
Mof_C 	C 	0.08472	0.11292	0.22881	-0.07
Mof_C 	C 	0.04573	0.09014	0.25047	0.026
Mof_C 	C 	0.02994	0.11336	0.27198	-0.07
Mof_C 	C 	0.05243	0.15713	0.2725	0.032
Mof_C 	C 	0.09058	0.17929	0.25	-0.121
Mof_C 	C 	0.10626	0.1567	0.22782	0.032
Mof_H 	H 	0.09801	0.09712	0.21068	0.047
Mof_H 	H 	0.00092	0.09791	0.29027	0.047
Mof_H 	H 	0.03964	0.17377	0.28998	0.028
Mof_H 	H 	0.13558	0.17299	0.21009	0.028
Mof_C 	C 	0.88765	0.9641	0.21844	-0.071
Mof_C 	C 	0.90988	0.95597	0.25108	0.026
Mof_C 	C 	0.88725	0.92563	0.28358	-0.071
Mof_C 	C 	0.84347	0.90434	0.2838	0.03
Mof_C 	C 	0.82116	0.91203	0.2508	-0.121
Mof_C 	C 	0.84386	0.94203	0.21794	0.03
Mof_H 	H 	0.90424	0.98718	0.19289	0.048
Mof_H 	H 	0.90352	0.91879	0.3092	0.048
Mof_H 	H 	0.82701	0.88135	0.30947	0.032
Mof_H 	H 	0.82772	0.94883	0.19214	0.032
Mof_C 	C 	0.11176	0.08441	0.72806	-0.069
Mof_C 	C 	0.08868	0.04592	0.75058	0.025
Mof_C 	C 	0.11167	0.03045	0.77324	-0.069
Mof_C 	C 	0.15546	0.05276	0.77401	0.03
Mof_C 	C 	0.17794	0.0904	0.75069	-0.12
Mof_C 	C 	0.15559	0.10575	0.72736	0.03
Mof_H 	H 	0.09616	0.09743	0.70911	0.046
Mof_H 	H 	0.09602	0.00186	0.79224	0.047
Mof_H 	H 	0.17185	0.0402	0.79238	0.028
Mof_H 	H 	0.1721	0.13467	0.70896	0.028
Mof_C 	C 	0.91346	0.02813	0.76935	-0.065
Mof_C 	C 	0.95395	0.04548	0.75079	0.022
Mof_C 	C 	0.97095	0.08582	0.73198	-0.066
Mof_C 	C 	0.94871	0.10739	0.73166	0.026
Mof_C 	C 	0.90868	0.08993	0.75043	-0.115
Mof_C 	C 	0.89148	0.04999	0.76934	0.026
Mof_H 	H 	0.89884	0.99819	0.78577	0.044
Mof_H 	H 	0.00094	0.10063	0.71563	0.044
Mof_H 	H 	0.96304	0.13797	0.71647	0.035
Mof_H 	H 	0.86084	0.03546	0.78437	0.035
Mof_C 	C 	0.96248	0.88858	0.72028	-0.07
Mof_C 	C 	0.95466	0.91049	0.75359	0.024
Mof_C 	C 	0.92475	0.88748	0.78634	-0.07
Mof_C 	C 	0.90367	0.84365	0.78616	0.029
Mof_C 	C 	0.91111	0.82168	0.7525	-0.119
Mof_C 	C 	0.94062	0.84479	0.7194	0.029
Mof_H 	H 	0.98518	0.90543	0.69448	0.048
Mof_H 	H 	0.91812	0.90346	0.81245	0.047
Mof_H 	H 	0.88104	0.82691	0.81204	0.032
Mof_H 	H 	0.94723	0.82897	0.69308	0.032
Mof_C 	C 	0.35181	0.33986	0.15918	-0.069
Mof_C 	C 	0.34005	0.3098	0.12474	0.025
Mof_C 	C 	0.297	0.2857	0.11521	-0.069
Mof_C 	C 	0.26753	0.2916	0.13817	0.03
Mof_C 	C 	0.27944	0.32175	0.17186	-0.122
Mof_C 	C 	0.32202	0.34575	0.18219	0.029
Mof_H 	H 	0.38415	0.36041	0.16755	0.046
Mof_H 	H 	0.28515	0.26069	0.09114	0.046
Mof_H 	H 	0.23502	0.27198	0.1295	0.035
Mof_H 	H 	0.33243	0.36944	0.2078	0.034
Mof_C 	C 	0.9889	0.33959	0.33681	-0.068
Mof_C 	C 	0.97179	0.31059	0.37232	0.025
Mof_C 	C 	0.99142	0.28719	0.38222	-0.069
Mof_C 	C 	0.02653	0.29303	0.35887	0.029
Mof_C 	C 	0.04384	0.32236	0.32431	-0.121
Mof_C 	C 	0.02442	0.34547	0.31338	0.028
Mof_H 	H 	0.97618	0.35925	0.3279	0.046
Mof_H 	H 	0.97902	0.26272	0.40691	0.046
Mof_H 	H 	0.03999	0.274	0.36797	0.036
Mof_H 	H 	0.03688	0.3684	0.28698	0.034
Mof_C 	C 	0.29426	0.01561	0.3747	-0.069
Mof_C 	C 	0.33721	0.03032	0.37065	0.025
Mof_C 	C 	0.35004	0.00888	0.34173	-0.068
Mof_C 	C 	0.3206	0.97316	0.3185	0.029
Mof_C 	C 	0.27763	0.95794	0.32379	-0.122
Mof_C 	C 	0.26505	0.98	0.35189	0.029
Mof_H 	H 	0.28301	0.03173	0.39554	0.046
Mof_H 	H 	0.3828	0.01908	0.33788	0.046
Mof_H 	H 	0.33144	0.957	0.29713	0.033
Mof_H 	H 	0.23233	0.96973	0.35642	0.034
Mof_C 	C 	0.71614	0.01488	0.12237	-0.069
Mof_C 	C 	0.687	0.02846	0.12643	0.025
Mof_C 	C 	0.65307	0.00643	0.15566	-0.069
Mof_C 	C 	0.64829	0.97162	0.1796	0.028
Mof_C 	C 	0.67717	0.95778	0.1747	-0.121
Mof_C 	C 	0.71122	0.98011	0.14588	0.029
Mof_H 	H 	0.74324	0.03143	0.10124	0.047
Mof_H 	H 	0.62972	0.01559	0.15946	0.047
Mof_H 	H 	0.62162	0.95514	0.20132	0.033
Mof_H 	H 	0.7344	0.97078	0.14147	0.034
Mof_C 	C 	0.34329	0.35142	0.65557	-0.07
Mof_C 	C 	0.30952	0.33906	0.62598	0.025
Mof_C 	C 	0.28113	0.29618	0.62148	-0.07
Mof_C 	C 	0.28667	0.26664	0.64481	0.03
Mof_C 	C 	0.32062	0.2788	0.67389	-0.122
Mof_C 	C 	0.34871	0.32167	0.6793	0.029
Mof_H 	H 	0.36605	0.38407	0.65975	0.047
Mof_H 	H 	0.25416	0.28526	0.60008	0.046
Mof_H 	H 	0.26405	0.23401	0.64004	0.034
Mof_H 	H 	0.37524	0.3322	0.7013	0.033
Mof_C 	C 	0.28313	0.98849	0.88198	-0.07
Mof_C 	C 	0.30647	0.96878	0.87213	0.026
Mof_C 	C 	0.33579	0.98609	0.83692	-0.07
Mof_C 	C 	0.34219	0.02203	0.81395	0.03
Mof_C 	C 	0.31928	0.04166	0.82499	-0.122
Mof_C 	C 	0.28947	0.024	0.85907	0.031
Mof_H 	H 	0.25846	0.97593	0.90645	0.046
Mof_H 	H 	0.35534	0.97326	0.828	0.046
Mof_H 	H 	0.36543	0.0347	0.78785	0.034
Mof_H 	H 	0.27054	0.03756	0.86818	0.035
Mof_C 	C 	0.992	0.64789	0.15631	-0.069
Mof_C 	C 	0.97015	0.66023	0.12732	0.025
Mof_C 	C 	0.98435	0.70307	0.1232	-0.069
Mof_C 	C 	0.01957	0.73262	0.14636	0.029
Mof_C 	C 	0.04175	0.72047	0.17487	-0.121
Mof_C 	C 	0.02726	0.67763	0.17989	0.029
Mof_H 	H 	0.98239	0.61527	0.16012	0.047
Mof_H 	H 	0.968	0.71394	0.1022	0.046
Mof_H 	H 	0.02938	0.76524	0.14189	0.034
Mof_H 	H 	0.0436	0.66712	0.20141	0.033
Mof_C 	C 	0.01334	0.6621	0.66189	-0.069
Mof_C 	C 	0.031	0.69141	0.62669	0.025
Mof_C 	C 	0.0115	0.71493	0.61664	-0.07
Mof_C 	C 	0.97615	0.70905	0.63967	0.03
Mof_C 	C 	0.95841	0.67949	0.67399	-0.121
Mof_C 	C 	0.97761	0.65617	0.68493	0.029
Mof_H 	H 	0.02572	0.64217	0.67086	0.046
Mof_H 	H 	0.02417	0.73947	0.59202	0.046
Mof_H 	H 	0.96281	0.72816	0.63051	0.035
Mof_H 	H 	0.96482	0.633	0.71109	0.034
Mof_C 	C 	0.99323	0.31024	0.88902	-0.07
Mof_C 	C 	0.03175	0.33617	0.86775	0.026
Mof_C 	C 	0.03299	0.33302	0.82081	-0.071
Mof_C 	C 	0.99762	0.30426	0.79665	0.032
Mof_C 	C 	0.95953	0.27897	0.81834	-0.123
Mof_C 	C 	0.95779	0.2827	0.8647	0.031
Mof_H 	H 	0.98958	0.31216	0.92453	0.047
Mof_H 	H 	0.06172	0.35126	0.80261	0.047
Mof_H 	H 	0.99998	0.30203	0.76093	0.03
Mof_H 	H 	0.9289	0.26372	0.88248	0.031
Mof_C 	C 	0.65874	0.65037	0.34236	-0.07
Mof_C 	C 	0.69298	0.66316	0.37133	0.026
Mof_C 	C 	0.72125	0.7061	0.37541	-0.07
Mof_C 	C 	0.71494	0.73534	0.35256	0.031
Mof_C 	C 	0.68035	0.72279	0.32437	-0.122
Mof_C 	C 	0.65254	0.67984	0.31908	0.03
Mof_H 	H 	0.63616	0.61763	0.33848	0.047
Mof_H 	H 	0.74859	0.71731	0.39629	0.046
Mof_H 	H 	0.73742	0.76805	0.35709	0.034
Mof_H 	H 	0.62559	0.66904	0.29766	0.033
Mof_C 	C 	0.66562	0.96568	0.67757	-0.071
Mof_C 	C 	0.66219	0.96699	0.63065	0.025
Mof_C 	C 	0.68826	0.00548	0.60939	-0.069
Mof_C 	C 	0.716	0.04084	0.63374	0.031
Mof_C 	C 	0.71981	0.03905	0.68011	-0.123
Mof_C 	C 	0.69452	0.00095	0.70174	0.033
Mof_H 	H 	0.6474	0.93694	0.69577	0.046
Mof_H 	H 	0.68628	0.00917	0.5739	0.047
Mof_H 	H 	0.73502	0.06973	0.61598	0.031
Mof_H 	H 	0.69682	0.9985	0.73744	0.03
Mof_C 	C 	0.70565	0.71638	0.88299	-0.069
Mof_C 	C 	0.66254	0.69279	0.87349	0.025
Mof_C 	C 	0.65041	0.66303	0.83871	-0.068
Mof_C 	C 	0.6799	0.65662	0.81567	0.029
Mof_C 	C 	0.72251	0.67988	0.82627	-0.121
Mof_C 	C 	0.73477	0.70998	0.86005	0.03
Mof_H 	H 	0.71785	0.74133	0.90715	0.045
Mof_H 	H 	0.61798	0.64317	0.83015	0.046
Mof_H 	H 	0.66924	0.63311	0.78986	0.034
Mof_H 	H 	0.76732	0.72915	0.86883	0.035
Mof_C 	C 	0.10789	0.33142	0.01976	-0.07
Mof_C 	C 	0.11231	0.37056	0.00982	0.026
Mof_C 	C 	0.12103	0.39886	0.04488	-0.071
Mof_C 	C 	0.12537	0.3884	0.0887	0.029
Mof_C 	C 	0.12193	0.34964	0.09862	-0.121
Mof_C 	C 	0.11312	0.32127	0.06351	0.03
Mof_H 	H 	0.10133	0.30901	0.99343	0.047
Mof_H 	H 	0.1243	0.42909	0.03839	0.048
Mof_H 	H 	0.13256	0.41124	0.11472	0.033
Mof_H 	H 	0.1105	0.29129	0.06982	0.033
Mof_C 	C 	0.28125	0.40491	0.44942	-0.07
Mof_C 	C 	0.26279	0.37709	0.48509	0.025
Mof_C 	C 	0.22817	0.33756	0.47616	-0.07
Mof_C 	C 	0.21204	0.32639	0.4328	0.03
Mof_C 	C 	0.23072	0.3541	0.39701	-0.121
Mof_C 	C 	0.26571	0.39343	0.40593	0.029
Mof_H 	H 	0.3081	0.43541	0.45511	0.047
Mof_H 	H 	0.21315	0.31547	0.50296	0.047
Mof_H 	H 	0.18494	0.29604	0.42729	0.033
Mof_H 	H 	0.28063	0.41581	0.37935	0.033
Mof_C 	C 	0.40489	0.28027	0.95091	-0.07
Mof_C 	C 	0.37757	0.26149	0.98689	0.025
Mof_C 	C 	0.33822	0.22644	0.97832	-0.07
Mof_C 	C 	0.32667	0.21036	0.93501	0.03
Mof_C 	C 	0.3538	0.22944	0.89888	-0.121
Mof_C 	C 	0.39304	0.26472	0.90747	0.029
Mof_H 	H 	0.43521	0.30747	0.95631	0.047
Mof_H 	H 	0.31648	0.2112	0.00536	0.047
Mof_H 	H 	0.29643	0.18301	0.92978	0.033
Mof_H 	H 	0.41501	0.27995	0.88062	0.033
Mof_C 	C 	0.40103	0.12222	0.54834	-0.07
Mof_C 	C 	0.37315	0.11311	0.5128	0.025
Mof_C 	C 	0.33372	0.10837	0.52188	-0.07
Mof_C 	C 	0.32281	0.11349	0.56531	0.03
Mof_C 	C 	0.35071	0.12251	0.60093	-0.122
Mof_C 	C 	0.38983	0.12645	0.59183	0.03
Mof_H 	H 	0.43144	0.12571	0.54251	0.048
Mof_H 	H 	0.3116	0.10147	0.49515	0.047
Mof_H 	H 	0.29259	0.1105	0.571	0.033
Mof_H 	H 	0.41232	0.13382	0.61828	0.033
Mof_C 	C 	0.76422	0.15553	0.97252	-0.07
Mof_C 	C 	0.73481	0.11507	0.98641	0.025
Mof_C 	C 	0.72496	0.08186	0.95662	-0.069
Mof_C 	C 	0.7438	0.08905	0.91432	0.029
Mof_C 	C 	0.77266	0.12969	0.90046	-0.121
Mof_C 	C 	0.78257	0.16271	0.9303	0.03
Mof_H 	H 	0.77371	0.18187	0.99454	0.047
Mof_H 	H 	0.70218	0.05025	0.96569	0.047
Mof_H 	H 	0.73515	0.06293	0.89217	0.032
Mof_H 	H 	0.80493	0.19446	0.92111	0.035
Mof_C 	C 	0.27881	0.87655	0.04774	-0.07
Mof_C 	C 	0.25979	0.88552	0.01232	0.026
Mof_C 	C 	0.22494	0.88992	0.02163	-0.07
Mof_C 	C 	0.20906	0.88472	0.06513	0.03
Mof_C 	C 	0.22822	0.87592	0.10064	-0.121
Mof_C 	C 	0.2635	0.87222	0.09134	0.03
Mof_H 	H 	0.30587	0.87333	0.04176	0.048
Mof_H 	H 	0.20953	0.89672	0.99501	0.047
Mof_H 	H 	0.18175	0.88753	0.07096	0.033
Mof_H 	H 	0.27883	0.86502	0.1177	0.033
Mof_C 	C 	0.12523	0.72006	0.45223	-0.07
Mof_C 	C 	0.11617	0.73883	0.48785	0.025
Mof_C 	C 	0.11141	0.77351	0.47872	-0.07
Mof_C 	C 	0.11608	0.78931	0.43523	0.03
Mof_C 	C 	0.12471	0.77027	0.39947	-0.12
Mof_C 	C 	0.12903	0.7353	0.40861	0.029
Mof_H 	H 	0.12872	0.69314	0.45805	0.047
Mof_H 	H 	0.10453	0.78875	0.50545	0.047
Mof_H 	H 	0.11286	0.81641	0.42959	0.033
Mof_H 	H 	0.13619	0.72011	0.38207	0.033
Mof_C 	C 	0.84514	0.23128	0.52485	-0.07
Mof_C 	C 	0.88569	0.26078	0.51131	0.025
Mof_C 	C 	0.91862	0.27119	0.54164	-0.07
Mof_C 	C 	0.91102	0.25287	0.58424	0.03
Mof_C 	C 	0.87026	0.22405	0.59778	-0.122
Mof_C 	C 	0.83755	0.21346	0.56733	0.031
Mof_H 	H 	0.81903	0.22148	0.5024	0.046
Mof_H 	H 	0.95026	0.29412	0.53287	0.047
Mof_H 	H 	0.93689	0.26197	0.60689	0.031
Mof_H 	H 	0.80574	0.19108	0.57628	0.034
Mof_C 	C 	0.72107	0.59901	0.54883	-0.07
Mof_C 	C 	0.73986	0.62692	0.51331	0.025
Mof_C 	C 	0.77459	0.66631	0.52244	-0.07
Mof_C 	C 	0.79063	0.67716	0.56587	0.03
Mof_C 	C 	0.77173	0.64924	0.60146	-0.122
Mof_C 	C 	0.73651	0.61015	0.59233	0.03
Mof_H 	H 	0.69411	0.56862	0.54297	0.048
Mof_H 	H 	0.78983	0.68846	0.49573	0.047
Mof_H 	H 	0.81789	0.70735	0.57159	0.033
Mof_H 	H 	0.72137	0.58764	0.61875	0.033
Mof_C 	C 	0.89001	0.66146	0.97812	-0.071
Mof_C 	C 	0.88539	0.62201	0.98678	0.025
Mof_C 	C 	0.87636	0.59444	0.95093	-0.07
Mof_C 	C 	0.87236	0.60613	0.90751	0.029
Mof_C 	C 	0.87647	0.6454	0.89886	-0.121
Mof_C 	C 	0.88517	0.67284	0.93484	0.03
Mof_H 	H 	0.89683	0.68336	0.00507	0.047
Mof_H 	H 	0.87294	0.56401	0.95642	0.047
Mof_H 	H 	0.86516	0.58396	0.88076	0.033
Mof_H 	H 	0.88824	0.70314	0.92955	0.033
Mof_C 	C 	0.66569	0.77608	0.02194	-0.07
Mof_C 	C 	0.6265	0.74114	0.01261	0.026
Mof_C 	C 	0.59857	0.72195	0.04804	-0.071
Mof_C 	C 	0.60951	0.7372	0.09165	0.03
Mof_C 	C 	0.64841	0.77259	0.10099	-0.121
Mof_C 	C 	0.67632	0.7919	0.06547	0.03
Mof_H 	H 	0.68787	0.79158	0.99532	0.047
Mof_H 	H 	0.56836	0.69479	0.04204	0.048
Mof_H 	H 	0.58701	0.72174	0.11801	0.033
Mof_H 	H 	0.70639	0.8193	0.07133	0.033
Mof_C 	C 	0.6652	0.89052	0.47923	-0.07
Mof_C 	C 	0.62585	0.88567	0.48906	0.025
Mof_C 	C 	0.59764	0.87675	0.45386	-0.07
Mof_C 	C 	0.60851	0.87293	0.40999	0.029
Mof_C 	C 	0.64761	0.87709	0.40019	-0.121
Mof_C 	C 	0.67577	0.88584	0.43549	0.03
Mof_H 	H 	0.68758	0.89722	0.50563	0.048
Mof_H 	H 	0.56724	0.87312	0.46025	0.047
Mof_H 	H 	0.5858	0.86572	0.38382	0.033
Mof_H 	H 	0.70598	0.88896	0.42932	0.033
Mof_C 	C 	0.30386	0.55289	0.26958	-0.071
Mof_C 	C 	0.28802	0.57561	0.2475	0.026
Mof_C 	C 	0.24959	0.55306	0.22513	-0.071
Mof_C 	C 	0.22758	0.50939	0.22529	0.033
Mof_C 	C 	0.24377	0.48697	0.24697	-0.125
Mof_C 	C 	0.28228	0.50925	0.26889	0.033
Mof_H 	H 	0.33272	0.56873	0.2881	0.047
Mof_H 	H 	0.23659	0.56906	0.20686	0.047
Mof_H 	H 	0.19815	0.49312	0.20776	0.031
Mof_H 	H 	0.29539	0.49287	0.2863	0.032
Mof_C 	C 	0.30383	0.75089	0.22727	-0.071
Mof_C 	C 	0.28778	0.71206	0.24882	0.026
Mof_C 	C 	0.24905	0.6958	0.27062	-0.071
Mof_C 	C 	0.22695	0.71737	0.27041	0.033
Mof_C 	C 	0.24334	0.75625	0.24928	-0.125
Mof_C 	C 	0.28214	0.77286	0.22792	0.033
Mof_H 	H 	0.33296	0.76422	0.20921	0.047
Mof_H 	H 	0.23588	0.6666	0.28852	0.047
Mof_H 	H 	0.19731	0.70393	0.28754	0.031
Mof_H 	H 	0.29541	0.80257	0.21096	0.031
Mof_C 	C 	0.44737	0.69668	0.22727	-0.071
Mof_C 	C 	0.42448	0.71231	0.24938	0.026
Mof_C 	C 	0.44686	0.75066	0.27194	-0.071
Mof_C 	C 	0.49053	0.7728	0.2719	0.033
Mof_C 	C 	0.51313	0.75684	0.25017	-0.125
Mof_C 	C 	0.49103	0.7184	0.22808	0.033
Mof_H 	H 	0.43167	0.66787	0.20863	0.047
Mof_H 	H 	0.43074	0.76348	0.29028	0.047
Mof_H 	H 	0.50665	0.80216	0.28957	0.031
Mof_H 	H 	0.50756	0.70547	0.21065	0.032
Mof_C 	C 	0.55211	0.24879	0.72805	-0.071
Mof_C 	C 	0.57466	0.2879	0.74916	0.026
Mof_C 	C 	0.5519	0.30411	0.77044	-0.071
Mof_C 	C 	0.50822	0.28224	0.77012	0.032
Mof_C 	C 	0.48596	0.24312	0.74938	-0.125
Mof_C 	C 	0.50844	0.22655	0.7286	0.032
Mof_H 	H 	0.56812	0.23545	0.71042	0.046
Mof_H 	H 	0.5677	0.3335	0.78799	0.047
Mof_H 	H 	0.49182	0.29569	0.78682	0.032
Mof_H 	H 	0.49221	0.19665	0.71196	0.032
Mof_C 	C 	0.74723	0.30213	0.77407	-0.07
Mof_C 	C 	0.71109	0.28839	0.74812	0.026
Mof_C 	C 	0.69737	0.2522	0.72225	-0.07
Mof_C 	C 	0.71924	0.2304	0.72225	0.03
Mof_C 	C 	0.7553	0.24406	0.74834	-0.121
Mof_C 	C 	0.76897	0.28021	0.77428	0.03
Mof_H 	H 	0.75841	0.32959	0.79477	0.047
Mof_H 	H 	0.66994	0.241	0.70149	0.047
Mof_H 	H 	0.7078	0.20275	0.70181	0.035
Mof_H 	H 	0.79655	0.29164	0.79483	0.035
Mof_C 	C 	0.7507	0.44716	0.76893	-0.071
Mof_C 	C 	0.7116	0.42484	0.74778	0.026
Mof_C 	C 	0.69542	0.44783	0.72695	-0.071
Mof_C 	C 	0.71734	0.49152	0.7277	0.032
Mof_C 	C 	0.75649	0.51354	0.74844	-0.124
Mof_C 	C 	0.77299	0.49082	0.76882	0.032
Mof_H 	H 	0.76401	0.43098	0.78629	0.046
Mof_H 	H 	0.666	0.4322	0.70942	0.047
Mof_H 	H 	0.70394	0.50812	0.71134	0.032
Mof_H 	H 	0.80289	0.50685	0.78547	0.032
_end
