data_functionalizedCrystal
_audit_creation_method	'EQeq! by Chris Wilmer'
_symmetry_space_group_name_H-M	'P1'
_symmetry_Int_Tables_number	1
_symmetry_cell_setting	triclinic
loop_
_symmetry_equiv_pos_as_xyz
  x,y,z
_cell_length_a	10.615
_cell_length_b	14.5889
_cell_length_c	29.856
_cell_angle_alpha	90
_cell_angle_beta	90.395
_cell_angle_gamma	90
loop_
_atom_site_label
_atom_site_type_symbol
_atom_site_fract_x
_atom_site_fract_y
_atom_site_fract_z
_atom_site_charge
Mof_Cd	Cd	0.35457	0.16625	0.22468	0.445
Mof_Cd	Cd	0.81476	0.95873	0.25048	0.447
Mof_Cd	Cd	0.64543	0.66625	0.27532	0.446
Mof_Cd	Cd	0.18524	0.45873	0.24952	0.45
Mof_Cd	Cd	0.64543	0.83375	0.77532	0.446
Mof_Cd	Cd	0.18524	0.04127	0.74952	0.448
Mof_Cd	Cd	0.35457	0.33375	0.72468	0.446
Mof_Cd	Cd	0.81476	0.54127	0.75048	0.45
Mof_H 	H 	0.1074	0.8749	0.1572	0.049
Mof_H 	H 	0.1401	0.0277	0.1741	0.055
Mof_H 	H 	0.698	0.4279	0.206	0.042
Mof_H 	H 	0.8843	0.5032	0.2208	0.041
Mof_H 	H 	0.4721	0.3471	0.1822	0.02
Mof_H 	H 	0.5628	0.4025	0.1172	0.111
Mof_H 	H 	0.3547	0.2184	0.0505	0.1
Mof_H 	H 	0.2796	0.1679	0.1188	0.022
Mof_H 	H 	0.3459	0.3645	0.9994	0.072
Mof_H 	H 	0.7864	0.4186	0.9888	0.072
Mof_H 	H 	0.5494	0.3627	0.8685	0.126
Mof_H 	H 	0.6198	0.4114	0.8001	0.029
Mof_H 	H 	0.8736	0.567	0.8566	0.008
Mof_H 	H 	0.8103	0.5211	0.9264	0.097
Mof_H 	H 	0.2548	0.3629	0.9424	0.051
Mof_H 	H 	0.2649	0.4562	0.9693	0.053
Mof_H 	H 	0.2544	0.4479	0.8739	0.036
Mof_H 	H 	0.2567	0.5399	0.9018	0.057
Mof_H 	H 	0.0683	0.4159	0.905	0.229
Mof_H 	H 	0.9374	0.1636	0.1143	0.27
Mof_H 	H 	0.9051	0.4033	0.0559	0.08
Mof_H 	H 	0.8803	0.321	0.0239	0.072
Mof_H 	H 	0.9239	0.3014	0.1142	0.031
Mof_H 	H 	0.0317	0.3034	0.0799	0.021
Mof_H 	H 	0.8926	0.3749	0.3428	0.048
Mof_H 	H 	0.8599	0.5277	0.3259	0.056
Mof_H 	H 	0.302	0.9279	0.294	0.042
Mof_H 	H 	0.1157	0.0032	0.2792	0.04
Mof_H 	H 	0.5279	0.8471	0.3178	0.02
Mof_H 	H 	0.4372	0.9025	0.3828	0.111
Mof_H 	H 	0.6453	0.7184	0.4495	0.1
Mof_H 	H 	0.7204	0.6679	0.3812	0.022
Mof_H 	H 	0.6541	0.8645	0.5006	0.072
Mof_H 	H 	0.2136	0.9186	0.5112	0.073
Mof_H 	H 	0.4506	0.8627	0.6315	0.124
Mof_H 	H 	0.3802	0.9114	0.6999	0.029
Mof_H 	H 	0.1264	0.067	0.6434	0.011
Mof_H 	H 	0.1897	0.0211	0.5736	0.093
Mof_H 	H 	0.7452	0.8629	0.5576	0.051
Mof_H 	H 	0.7351	0.9562	0.5307	0.052
Mof_H 	H 	0.7456	0.9479	0.6261	0.037
Mof_H 	H 	0.7433	0.0399	0.5982	0.058
Mof_H 	H 	0.9317	0.9159	0.595	0.229
Mof_H 	H 	0.0626	0.6636	0.3857	0.27
Mof_H 	H 	0.0949	0.9033	0.4441	0.081
Mof_H 	H 	0.1197	0.821	0.4761	0.072
Mof_H 	H 	0.0761	0.8014	0.3858	0.031
Mof_H 	H 	0.9683	0.8034	0.4201	0.021
Mof_H 	H 	0.8926	0.1251	0.8428	0.049
Mof_H 	H 	0.8599	0.9723	0.8259	0.055
Mof_H 	H 	0.302	0.5721	0.794	0.042
Mof_H 	H 	0.1157	0.4968	0.7792	0.041
Mof_H 	H 	0.5279	0.6529	0.8178	0.02
Mof_H 	H 	0.4372	0.5975	0.8828	0.111
Mof_H 	H 	0.6453	0.7816	0.9495	0.1
Mof_H 	H 	0.7204	0.8321	0.8812	0.022
Mof_H 	H 	0.6541	0.6355	0.0006	0.072
Mof_H 	H 	0.2136	0.5814	0.0112	0.072
Mof_H 	H 	0.4506	0.6373	0.1315	0.126
Mof_H 	H 	0.3802	0.5886	0.1999	0.029
Mof_H 	H 	0.1264	0.433	0.1434	0.008
Mof_H 	H 	0.1897	0.4789	0.0736	0.097
Mof_H 	H 	0.7452	0.6371	0.0576	0.051
Mof_H 	H 	0.7351	0.5438	0.0307	0.053
Mof_H 	H 	0.7456	0.5521	0.1261	0.036
Mof_H 	H 	0.7433	0.4601	0.0982	0.057
Mof_H 	H 	0.9317	0.5841	0.095	0.229
Mof_H 	H 	0.0626	0.8364	0.8857	0.27
Mof_H 	H 	0.0949	0.5967	0.9441	0.08
Mof_H 	H 	0.1197	0.679	0.9761	0.072
Mof_H 	H 	0.0761	0.6986	0.8858	0.031
Mof_H 	H 	0.9683	0.6966	0.9201	0.021
Mof_H 	H 	0.1074	0.6251	0.6572	0.048
Mof_H 	H 	0.1401	0.4723	0.6741	0.056
Mof_H 	H 	0.698	0.0721	0.706	0.042
Mof_H 	H 	0.8843	0.9968	0.7208	0.04
Mof_H 	H 	0.4721	0.1529	0.6822	0.02
Mof_H 	H 	0.5628	0.0975	0.6172	0.111
Mof_H 	H 	0.3547	0.2816	0.5505	0.1
Mof_H 	H 	0.2796	0.3321	0.6188	0.022
Mof_H 	H 	0.3459	0.1355	0.4994	0.072
Mof_H 	H 	0.7864	0.0814	0.4888	0.073
Mof_H 	H 	0.5494	0.1373	0.3685	0.124
Mof_H 	H 	0.6198	0.0886	0.3001	0.029
Mof_H 	H 	0.8736	0.933	0.3566	0.011
Mof_H 	H 	0.8103	0.9789	0.4264	0.093
Mof_H 	H 	0.2548	0.1371	0.4424	0.051
Mof_H 	H 	0.2649	0.0438	0.4693	0.052
Mof_H 	H 	0.2544	0.0521	0.3739	0.037
Mof_H 	H 	0.2567	0.9601	0.4018	0.058
Mof_H 	H 	0.0683	0.0841	0.405	0.229
Mof_H 	H 	0.9374	0.3364	0.6143	0.27
Mof_H 	H 	0.9051	0.0967	0.5559	0.081
Mof_H 	H 	0.8803	0.179	0.5239	0.072
Mof_H 	H 	0.9239	0.1986	0.6142	0.031
Mof_H 	H 	0.0317	0.1966	0.5799	0.021
Mof_C 	C 	0.4115	0.9564	0.19977	-0.003
Mof_C 	C 	0.3986	0.8635	0.1916	0.008
Mof_C 	C 	0.1849	0.8944	0.1683	0.007
Mof_C 	C 	0.2054	0.9861	0.17845	0.012
Mof_C 	C 	0.534	0.9972	0.21742	0.291
Mof_C 	C 	0.4997	0.7927	0.20177	0.3
Mof_C 	C 	0.9935	0.3038	0.21861	-0
Mof_C 	C 	0.8835	0.2545	0.2107	-0.001
Mof_C 	C 	0.772	0.3945	0.2097	0.009
Mof_C 	C 	0.8845	0.4397	0.21823	0.014
Mof_C 	C 	0.122	0.258	0.2207	0.276
Mof_C 	C 	0.8795	0.1513	0.2055	0.309
Mof_C 	C 	0.4637	0.3137	0.1558	0.11
Mof_C 	C 	0.5083	0.3526	0.1163	-0.162
Mof_C 	C 	0.4703	0.3157	0.0756	0.131
Mof_C 	C 	0.3858	0.2433	0.077	-0.159
Mof_C 	C 	0.3475	0.2081	0.1178	0.084
Mof_C 	C 	0.5014	0.3988	0.9604	0.155
Mof_C 	C 	0.6302	0.4029	0.9499	-0.055
Mof_C 	C 	0.5173	0.3518	0.0336	-0.051
Mof_C 	C 	0.4331	0.3703	0.9981	-0.102
Mof_C 	C 	0.7035	0.398	0.9884	-0.105
Mof_C 	C 	0.6475	0.3605	0.0265	0.148
Mof_C 	C 	0.6725	0.4353	0.9059	0.135
Mof_C 	C 	0.616	0.4041	0.867	-0.173
Mof_C 	C 	0.6583	0.4342	0.82588	0.104
Mof_C 	C 	0.8075	0.5255	0.8589	0.108
Mof_C 	C 	0.7699	0.4977	0.9011	-0.174
Mof_C 	C 	0.2838	0.4259	0.9413	-0.034
Mof_C 	C 	0.2296	0.4764	0.9019	0.04
Mof_C 	C 	0.869	0.342	0.0543	-0.079
Mof_C 	C 	0.947	0.2814	0.084	0.083
Mof_C 	C 	0.5885	0.4564	0.30023	-0.004
Mof_C 	C 	0.6014	0.3635	0.3084	0.008
Mof_C 	C 	0.8151	0.3944	0.3317	0.007
Mof_C 	C 	0.7946	0.4861	0.32155	0.011
Mof_C 	C 	0.466	0.4972	0.28258	0.292
Mof_C 	C 	0.5003	0.2927	0.29823	0.3
Mof_C 	C 	0.0065	0.8038	0.28139	-0
Mof_C 	C 	0.1165	0.7545	0.2893	-0.001
Mof_C 	C 	0.228	0.8945	0.2903	0.008
Mof_C 	C 	0.1155	0.9397	0.28177	0.016
Mof_C 	C 	0.878	0.758	0.2793	0.276
Mof_C 	C 	0.1205	0.6513	0.2945	0.309
Mof_C 	C 	0.5363	0.8137	0.3442	0.11
Mof_C 	C 	0.4917	0.8526	0.3837	-0.162
Mof_C 	C 	0.5297	0.8157	0.4244	0.131
Mof_C 	C 	0.6142	0.7433	0.423	-0.159
Mof_C 	C 	0.6525	0.7081	0.3822	0.084
Mof_C 	C 	0.4986	0.8988	0.5396	0.154
Mof_C 	C 	0.3698	0.9029	0.5501	-0.052
Mof_C 	C 	0.4827	0.8518	0.4664	-0.052
Mof_C 	C 	0.5669	0.8703	0.5019	-0.102
Mof_C 	C 	0.2965	0.898	0.5116	-0.106
Mof_C 	C 	0.3525	0.8605	0.4735	0.149
Mof_C 	C 	0.3275	0.9353	0.5941	0.13
Mof_C 	C 	0.384	0.9041	0.633	-0.169
Mof_C 	C 	0.3417	0.9342	0.67412	0.102
Mof_C 	C 	0.1925	0.0255	0.6411	0.099
Mof_C 	C 	0.2301	0.9977	0.5989	-0.164
Mof_C 	C 	0.7162	0.9259	0.5587	-0.033
Mof_C 	C 	0.7704	0.9764	0.5981	0.039
Mof_C 	C 	0.131	0.842	0.4457	-0.08
Mof_C 	C 	0.053	0.7814	0.416	0.084
Mof_C 	C 	0.5885	0.0436	0.80023	-0.003
Mof_C 	C 	0.6014	0.1365	0.8084	0.008
Mof_C 	C 	0.8151	0.1056	0.8317	0.007
Mof_C 	C 	0.7946	0.0139	0.82155	0.012
Mof_C 	C 	0.466	0.0028	0.78258	0.291
Mof_C 	C 	0.5003	0.2073	0.79823	0.3
Mof_C 	C 	0.0065	0.6962	0.78139	-0
Mof_C 	C 	0.1165	0.7455	0.7893	-0.001
Mof_C 	C 	0.228	0.6055	0.7903	0.009
Mof_C 	C 	0.1155	0.5603	0.78177	0.014
Mof_C 	C 	0.878	0.742	0.7793	0.276
Mof_C 	C 	0.1205	0.8487	0.7945	0.309
Mof_C 	C 	0.5363	0.6863	0.8442	0.11
Mof_C 	C 	0.4917	0.6474	0.8837	-0.162
Mof_C 	C 	0.5297	0.6843	0.9244	0.131
Mof_C 	C 	0.6142	0.7567	0.923	-0.159
Mof_C 	C 	0.6525	0.7919	0.8822	0.084
Mof_C 	C 	0.4986	0.6012	0.0396	0.155
Mof_C 	C 	0.3698	0.5971	0.0501	-0.055
Mof_C 	C 	0.4827	0.6482	0.9664	-0.051
Mof_C 	C 	0.5669	0.6297	0.0019	-0.102
Mof_C 	C 	0.2965	0.602	0.0116	-0.105
Mof_C 	C 	0.3525	0.6395	0.9735	0.148
Mof_C 	C 	0.3275	0.5647	0.0941	0.135
Mof_C 	C 	0.384	0.5959	0.133	-0.173
Mof_C 	C 	0.3417	0.5658	0.17412	0.104
Mof_C 	C 	0.1925	0.4745	0.1411	0.108
Mof_C 	C 	0.2301	0.5023	0.0989	-0.174
Mof_C 	C 	0.7162	0.5741	0.0587	-0.034
Mof_C 	C 	0.7704	0.5236	0.0981	0.04
Mof_C 	C 	0.131	0.658	0.9457	-0.079
Mof_C 	C 	0.053	0.7186	0.916	0.083
Mof_C 	C 	0.4115	0.5436	0.69977	-0.004
Mof_C 	C 	0.3986	0.6365	0.6916	0.008
Mof_C 	C 	0.1849	0.6056	0.6683	0.007
Mof_C 	C 	0.2054	0.5139	0.67845	0.011
Mof_C 	C 	0.534	0.5028	0.71742	0.292
Mof_C 	C 	0.4997	0.7073	0.70177	0.3
Mof_C 	C 	0.9935	0.1962	0.71861	-0
Mof_C 	C 	0.8835	0.2455	0.7107	-0.001
Mof_C 	C 	0.772	0.1055	0.7097	0.008
Mof_C 	C 	0.8845	0.0603	0.71823	0.016
Mof_C 	C 	0.122	0.242	0.7207	0.276
Mof_C 	C 	0.8795	0.3487	0.7055	0.309
Mof_C 	C 	0.4637	0.1863	0.6558	0.11
Mof_C 	C 	0.5083	0.1474	0.6163	-0.162
Mof_C 	C 	0.4703	0.1843	0.5756	0.131
Mof_C 	C 	0.3858	0.2567	0.577	-0.159
Mof_C 	C 	0.3475	0.2919	0.6178	0.084
Mof_C 	C 	0.5014	0.1012	0.4604	0.154
Mof_C 	C 	0.6302	0.0971	0.4499	-0.052
Mof_C 	C 	0.5173	0.1482	0.5336	-0.052
Mof_C 	C 	0.4331	0.1297	0.4981	-0.102
Mof_C 	C 	0.7035	0.102	0.4884	-0.106
Mof_C 	C 	0.6475	0.1395	0.5265	0.149
Mof_C 	C 	0.6725	0.0647	0.4059	0.13
Mof_C 	C 	0.616	0.0959	0.367	-0.169
Mof_C 	C 	0.6583	0.0658	0.32588	0.102
Mof_C 	C 	0.8075	0.9745	0.3589	0.099
Mof_C 	C 	0.7699	0.0023	0.4011	-0.164
Mof_C 	C 	0.2838	0.0741	0.4413	-0.033
Mof_C 	C 	0.2296	0.0236	0.4019	0.039
Mof_C 	C 	0.869	0.158	0.5543	-0.08
Mof_C 	C 	0.947	0.2186	0.584	0.084
Mof_N 	N 	0.3162	0.0167	0.19421	-0.116
Mof_N 	N 	0.2823	0.8321	0.1752	-0.085
Mof_N 	N 	0.9936	0.3945	0.22283	-0.121
Mof_N 	N 	0.7696	0.3014	0.2068	-0.08
Mof_N 	N 	0.4105	0.2327	0.1579	-0.144
Mof_N 	N 	0.7528	0.4952	0.82151	-0.154
Mof_N 	N 	0.6838	0.5167	0.30579	-0.116
Mof_N 	N 	0.7177	0.3321	0.3248	-0.085
Mof_N 	N 	0.0064	0.8945	0.27717	-0.121
Mof_N 	N 	0.2304	0.8014	0.2932	-0.08
Mof_N 	N 	0.5895	0.7327	0.3421	-0.144
Mof_N 	N 	0.2472	0.9952	0.67849	-0.151
Mof_N 	N 	0.6838	0.9833	0.80579	-0.116
Mof_N 	N 	0.7177	0.1679	0.8248	-0.085
Mof_N 	N 	0.0064	0.6055	0.77717	-0.121
Mof_N 	N 	0.2304	0.6986	0.7932	-0.08
Mof_N 	N 	0.5895	0.7673	0.8421	-0.144
Mof_N 	N 	0.2472	0.5048	0.17849	-0.154
Mof_N 	N 	0.3162	0.4833	0.69421	-0.116
Mof_N 	N 	0.2823	0.6679	0.6752	-0.085
Mof_N 	N 	0.9936	0.1055	0.72283	-0.121
Mof_N 	N 	0.7696	0.1986	0.7068	-0.08
Mof_N 	N 	0.4105	0.2673	0.6579	-0.144
Mof_N 	N 	0.7528	0.0048	0.32151	-0.151
Mof_O 	O 	0.5383	0.0797	0.22767	-0.259
Mof_O 	O 	0.6246	0.9416	0.21933	-0.259
Mof_O 	O 	0.5034	0.7645	0.24101	-0.249
Mof_O 	O 	0.5634	0.7627	0.16925	-0.227
Mof_O 	O 	0.2157	0.3054	0.23328	-0.276
Mof_O 	O 	0.1304	0.1762	0.20943	-0.266
Mof_O 	O 	0.8684	0.118	0.16685	-0.247
Mof_O 	O 	0.8798	0.1085	0.24176	-0.261
Mof_O 	O 	0.4202	0.432	0.9301	-0.208
Mof_O 	O 	0.0907	0.4692	0.9086	-0.364
Mof_O 	O 	0.7286	0.3527	0.0613	-0.191
Mof_O 	O 	0.9635	0.1795	0.0897	-0.356
Mof_O 	O 	0.4617	0.5797	0.27233	-0.26
Mof_O 	O 	0.3754	0.4416	0.28067	-0.259
Mof_O 	O 	0.4966	0.2645	0.25899	-0.249
Mof_O 	O 	0.4366	0.2627	0.33075	-0.227
Mof_O 	O 	0.7843	0.8054	0.26672	-0.276
Mof_O 	O 	0.8696	0.6762	0.29057	-0.266
Mof_O 	O 	0.1316	0.618	0.33315	-0.248
Mof_O 	O 	0.1202	0.6085	0.25824	-0.262
Mof_O 	O 	0.5798	0.932	0.5699	-0.208
Mof_O 	O 	0.9093	0.9692	0.5914	-0.365
Mof_O 	O 	0.2714	0.8527	0.4387	-0.191
Mof_O 	O 	0.0365	0.6795	0.4103	-0.356
Mof_O 	O 	0.4617	0.9203	0.77233	-0.259
Mof_O 	O 	0.3754	0.0584	0.78067	-0.259
Mof_O 	O 	0.4966	0.2355	0.75899	-0.249
Mof_O 	O 	0.4366	0.2373	0.83075	-0.227
Mof_O 	O 	0.7843	0.6946	0.76672	-0.276
Mof_O 	O 	0.8696	0.8238	0.79057	-0.266
Mof_O 	O 	0.1316	0.882	0.83315	-0.247
Mof_O 	O 	0.1202	0.8915	0.75824	-0.261
Mof_O 	O 	0.5798	0.568	0.0699	-0.208
Mof_O 	O 	0.9093	0.5308	0.0914	-0.364
Mof_O 	O 	0.2714	0.6473	0.9387	-0.191
Mof_O 	O 	0.0365	0.8205	0.9103	-0.356
Mof_O 	O 	0.5383	0.4203	0.72767	-0.26
Mof_O 	O 	0.6246	0.5584	0.71933	-0.259
Mof_O 	O 	0.5034	0.7355	0.74101	-0.249
Mof_O 	O 	0.5634	0.7373	0.66925	-0.227
Mof_O 	O 	0.2157	0.1946	0.73328	-0.276
Mof_O 	O 	0.1304	0.3238	0.70943	-0.266
Mof_O 	O 	0.8684	0.382	0.66685	-0.248
Mof_O 	O 	0.8798	0.3915	0.74176	-0.262
Mof_O 	O 	0.4202	0.068	0.4301	-0.208
Mof_O 	O 	0.0907	0.0308	0.4086	-0.365
Mof_O 	O 	0.7286	0.1473	0.5613	-0.191
Mof_O 	O 	0.9635	0.3205	0.5897	-0.356
_end
