data_functionalizedCrystal
_audit_creation_method	'EQeq! by Chris Wilmer'
_symmetry_space_group_name_H-M	'P1'
_symmetry_Int_Tables_number	1
_symmetry_cell_setting	triclinic
loop_
_symmetry_equiv_pos_as_xyz
  x,y,z
_cell_length_a	7.3361
_cell_length_b	10.7496
_cell_length_c	14.028
_cell_angle_alpha	90
_cell_angle_beta	90.778
_cell_angle_gamma	90
loop_
_atom_site_label
_atom_site_type_symbol
_atom_site_fract_x
_atom_site_fract_y
_atom_site_fract_z
_atom_site_charge
Mof_Cu	Cu	0.91107	0.9079	0.88013	0.897
Mof_Cu	Cu	0.08893	0.4079	0.61987	0.901
Mof_Cu	Cu	0.08893	0.0921	0.11987	0.897
Mof_Cu	Cu	0.91107	0.5921	0.38013	0.901
Mof_H 	H 	0.3689	0.753	0.8112	0.063
Mof_H 	H 	0.4656	0.4542	0.5813	0.021
Mof_H 	H 	0.1299	0.6342	0.7504	0.024
Mof_H 	H 	0.6311	0.253	0.6888	0.064
Mof_H 	H 	0.5344	0.9542	0.9187	0.013
Mof_H 	H 	0.8701	0.1342	0.7496	0.024
Mof_H 	H 	0.6311	0.247	0.1888	0.063
Mof_H 	H 	0.5344	0.5458	0.4187	0.021
Mof_H 	H 	0.8701	0.3658	0.2496	0.024
Mof_H 	H 	0.3689	0.747	0.3112	0.064
Mof_H 	H 	0.4656	0.0458	0.0813	0.013
Mof_H 	H 	0.1299	0.8658	0.2504	0.024
Mof_C 	C 	0.7242	0.7538	0.7667	0.282
Mof_C 	C 	0.5679	0.674	0.731	0.015
Mof_C 	C 	0.5937	0.5865	0.6594	-0.096
Mof_C 	C 	0.3918	0.6917	0.764	-0.076
Mof_C 	C 	0.4467	0.5159	0.6286	0.065
Mof_C 	C 	0.7746	0.5591	0.6136	0.373
Mof_C 	C 	0.25	0.62	0.7282	0.057
Mof_C 	C 	0.2758	0.2538	0.7333	0.281
Mof_C 	C 	0.4321	0.174	0.769	0.017
Mof_C 	C 	0.4063	0.0865	0.8406	-0.1
Mof_C 	C 	0.6082	0.1917	0.736	-0.078
Mof_C 	C 	0.5533	0.0159	0.8714	0.076
Mof_C 	C 	0.2254	0.0591	0.8864	0.375
Mof_C 	C 	0.75	0.12	0.7718	0.058
Mof_C 	C 	0.2758	0.2462	0.2333	0.282
Mof_C 	C 	0.4321	0.326	0.269	0.015
Mof_C 	C 	0.4063	0.4135	0.3406	-0.096
Mof_C 	C 	0.6082	0.3083	0.236	-0.076
Mof_C 	C 	0.5533	0.4841	0.3714	0.065
Mof_C 	C 	0.2254	0.4409	0.3864	0.373
Mof_C 	C 	0.75	0.38	0.2718	0.057
Mof_C 	C 	0.7242	0.7462	0.2667	0.281
Mof_C 	C 	0.5679	0.826	0.231	0.017
Mof_C 	C 	0.5937	0.9135	0.1594	-0.1
Mof_C 	C 	0.3918	0.8083	0.264	-0.078
Mof_C 	C 	0.4467	0.9841	0.1286	0.076
Mof_C 	C 	0.7746	0.9409	0.1136	0.375
Mof_C 	C 	0.25	0.88	0.2282	0.058
Mof_N 	N 	0.2778	0.5311	0.6631	-0.204
Mof_N 	N 	0.7222	0.0311	0.8369	-0.205
Mof_N 	N 	0.7222	0.4689	0.3369	-0.204
Mof_N 	N 	0.2778	0.9689	0.1631	-0.205
Mof_O 	O 	0.7319	0.7704	0.857	-0.355
Mof_O 	O 	0.7886	0.5781	0.52762	-0.388
Mof_O 	O 	0.8942	0.512	0.66897	-0.408
Mof_O 	O 	0.8288	0.7978	0.7082	-0.278
Mof_O 	O 	0.2681	0.2704	0.643	-0.353
Mof_O 	O 	0.2114	0.0781	0.97238	-0.384
Mof_O 	O 	0.1058	0.012	0.83103	-0.406
Mof_O 	O 	0.1712	0.2978	0.7918	-0.275
Mof_O 	O 	0.2681	0.2296	0.143	-0.355
Mof_O 	O 	0.2114	0.4219	0.47238	-0.388
Mof_O 	O 	0.1058	0.488	0.33103	-0.408
Mof_O 	O 	0.1712	0.2022	0.2918	-0.278
Mof_O 	O 	0.7319	0.7296	0.357	-0.353
Mof_O 	O 	0.7886	0.9219	0.02762	-0.384
Mof_O 	O 	0.8942	0.988	0.16897	-0.406
Mof_O 	O 	0.8288	0.7022	0.2082	-0.275
_end
