data_functionalizedCrystal
_audit_creation_method	'EQeq! by Chris Wilmer'
_symmetry_space_group_name_H-M	'P1'
_symmetry_Int_Tables_number	1
_symmetry_cell_setting	triclinic
loop_
_symmetry_equiv_pos_as_xyz
  x,y,z
_cell_length_a	7.877
_cell_length_b	12.06
_cell_length_c	12.275
_cell_angle_alpha	112.12
_cell_angle_beta	89.98
_cell_angle_gamma	99.95
loop_
_atom_site_label
_atom_site_type_symbol
_atom_site_fract_x
_atom_site_fract_y
_atom_site_fract_z
_atom_site_charge
Mof_Pr	Pr	0.99088	0.14557	0.85426	2.452
Mof_Pr	Pr	0.49083	0.14516	0.75199	2.507
Mof_C 	C 	0.638	0.138	0.0214	0.528
Mof_C 	C 	0.615	0.167	0.148	-0.289
Mof_H 	H 	0.5334	0.1014	0.1558	0.095
Mof_H 	H 	0.5655	0.2403	0.1787	0.096
Mof_C 	C 	0.782	0.1873	0.2221	-0.235
Mof_H 	H 	0.8673	0.2475	0.2075	0.083
Mof_H 	H 	0.7588	0.2212	0.3047	0.083
Mof_C 	C 	0.857	0.078	0.201	0.444
Mof_C 	C 	0.645	0.93	0.648	0.511
Mof_C 	C 	0.715	0.811	0.585	-0.238
Mof_H 	H 	0.6277	0.7529	0.5261	0.087
Mof_H 	H 	0.7349	0.7761	0.6426	0.089
Mof_C 	C 	0.245	0.473	0.866	-0.382
Mof_H 	H 	0.1208	0.4502	0.8492	0.131
Mof_H 	H 	0.2891	0.5239	0.8231	0.131
Mof_C 	C 	0.32	0.363	0.823	0.478
Mof_C 	C 	0.863	0.855	0.421	0.494
Mof_C 	C 	0.898	0.831	0.5211	-0.343
Mof_H 	H 	0.9792	0.8993	0.576	0.113
Mof_H 	H 	0.9487	0.7591	0.4986	0.117
Mof_C 	C 	0.285	0.544	0.996	-0.035
Mof_C 	C 	0.183	0.641	0.045	0.336
Mof_O 	O 	0.2269	0.7217	0.1541	-0.69
Mof_O 	O 	0.052	0.6472	0.9951	-0.48
Mof_O 	O 	0.762	0.9822	0.2087	-0.683
Mof_O 	O 	0.01	0.0736	0.1784	-0.529
Mof_O 	O 	0.453	0.3583	0.7552	-0.494
Mof_O 	O 	0.2735	0.2777	0.8553	-0.742
Mof_O 	O 	0.511	0.1488	0.9643	-0.558
Mof_O 	O 	0.7714	0.1024	0.98	-0.622
Mof_O 	O 	0.9897	0.8449	0.349	-0.533
Mof_O 	O 	0.724	0.8905	0.3998	-0.606
Mof_O 	O 	0.736	0.0173	0.7211	-0.75
Mof_O 	O 	0.49	0.9275	0.6199	-0.564
Mof_Pr	Pr	0.00912	0.85443	0.14574	2.451
Mof_Pr	Pr	0.50917	0.85484	0.24801	2.506
Mof_C 	C 	0.362	0.862	0.9786	0.527
Mof_C 	C 	0.385	0.833	0.852	-0.29
Mof_H 	H 	0.4666	0.8986	0.8442	0.095
Mof_H 	H 	0.4345	0.7597	0.8213	0.096
Mof_C 	C 	0.218	0.8127	0.7779	-0.235
Mof_H 	H 	0.1327	0.7525	0.7925	0.083
Mof_H 	H 	0.2412	0.7788	0.6953	0.083
Mof_C 	C 	0.143	0.922	0.799	0.444
Mof_C 	C 	0.355	0.07	0.352	0.511
Mof_C 	C 	0.285	0.189	0.415	-0.238
Mof_H 	H 	0.3723	0.2471	0.4739	0.087
Mof_H 	H 	0.2651	0.2239	0.3574	0.089
Mof_C 	C 	0.755	0.527	0.134	-0.382
Mof_H 	H 	0.8792	0.5498	0.1508	0.131
Mof_H 	H 	0.7109	0.4761	0.1769	0.131
Mof_C 	C 	0.68	0.637	0.177	0.478
Mof_C 	C 	0.137	0.145	0.579	0.494
Mof_C 	C 	0.102	0.169	0.4789	-0.343
Mof_H 	H 	0.0208	0.1007	0.424	0.113
Mof_H 	H 	0.0513	0.2409	0.5014	0.117
Mof_C 	C 	0.715	0.456	0.004	-0.035
Mof_C 	C 	0.817	0.359	0.955	0.336
Mof_O 	O 	0.7731	0.2783	0.8459	-0.69
Mof_O 	O 	0.948	0.3528	0.0049	-0.48
Mof_O 	O 	0.238	0.0178	0.7913	-0.683
Mof_O 	O 	0.99	0.9264	0.8216	-0.529
Mof_O 	O 	0.547	0.6417	0.2448	-0.494
Mof_O 	O 	0.7265	0.7223	0.1447	-0.742
Mof_O 	O 	0.489	0.8512	0.0357	-0.558
Mof_O 	O 	0.2286	0.8976	0.02	-0.622
Mof_O 	O 	0.0103	0.1551	0.651	-0.533
Mof_O 	O 	0.276	0.1095	0.6002	-0.606
Mof_O 	O 	0.264	0.9827	0.2789	-0.75
Mof_O 	O 	0.51	0.0725	0.3801	-0.564
_end
