data_functionalizedCrystal
_audit_creation_method	'EQeq! by Chris Wilmer'
_symmetry_space_group_name_H-M	'P1'
_symmetry_Int_Tables_number	1
_symmetry_cell_setting	triclinic
loop_
_symmetry_equiv_pos_as_xyz
  x,y,z
_cell_length_a	12.3052
_cell_length_b	11.8124
_cell_length_c	12.6877
_cell_angle_alpha	90
_cell_angle_beta	98.84
_cell_angle_gamma	90
loop_
_atom_site_label
_atom_site_type_symbol
_atom_site_fract_x
_atom_site_fract_y
_atom_site_fract_z
_atom_site_charge
Mof_V 	V 	0.30204	0.20165	0.11804	1.728
Mof_V 	V 	0.26394	0.49596	0.20821	1.822
Mof_V 	V 	0.8214	0.24426	0.16086	1.795
Mof_P 	P 	0.32471	0.2055	0.86475	0.472
Mof_H 	H 	0.438	0.192	0.876	-0.045
Mof_P 	P 	0.56927	0.16104	0.1335	0.46
Mof_H 	H 	0.559	0.094	0.039	-0.063
Mof_P 	P 	0.23295	0.75175	0.09974	0.46
Mof_H 	H 	0.337	0.8	0.103	-0.042
Mof_P 	P 	0.05904	0.33561	0.1126	0.472
Mof_H 	H 	0.01	0.352	0.007	-0.019
Mof_O 	O 	0.1407	0.2449	0.0956	-0.49
Mof_O 	O 	0.3243	0.4048	0.1424	-0.644
Mof_O 	O 	0.302	0.2531	0.9681	-0.474
Mof_O 	O 	0.4632	0.2225	0.1449	-0.481
Mof_O 	O 	0.3038	0.294	0.7777	-0.487
Mof_O 	O 	0.2599	0.0972	0.8366	-0.494
Mof_O 	O 	0.11	0.4469	0.1554	-0.452
Mof_O 	O 	0.5995	0.0741	0.2218	-0.485
Mof_O 	O 	0.2433	0.6235	0.1052	-0.486
Mof_O 	O 	0.1685	0.7849	0.9926	-0.464
Mof_O 	O 	0.978	0.2926	0.1837	-0.453
Mof_O 	O 	0.1695	0.6124	0.3025	-0.67
Mof_O 	O 	0.1806	0.803	0.1908	-0.47
Mof_O 	O 	0.6579	0.2496	0.129	-0.49
Mof_V 	V 	0.69796	0.70165	0.38196	1.728
Mof_V 	V 	0.73606	0.99596	0.29179	1.821
Mof_V 	V 	0.1786	0.74426	0.33914	1.795
Mof_P 	P 	0.67529	0.7055	0.63525	0.472
Mof_H 	H 	0.562	0.692	0.624	-0.044
Mof_P 	P 	0.43073	0.66104	0.3665	0.46
Mof_H 	H 	0.441	0.594	0.461	-0.064
Mof_P 	P 	0.76705	0.25175	0.40026	0.462
Mof_H 	H 	0.663	0.3	0.397	-0.041
Mof_P 	P 	0.94096	0.83561	0.3874	0.474
Mof_H 	H 	0.99	0.852	0.493	-0.019
Mof_O 	O 	0.8593	0.7449	0.4044	-0.49
Mof_O 	O 	0.6757	0.9048	0.3576	-0.644
Mof_O 	O 	0.698	0.7531	0.5319	-0.474
Mof_O 	O 	0.5368	0.7225	0.3551	-0.481
Mof_O 	O 	0.6962	0.794	0.7223	-0.488
Mof_O 	O 	0.7401	0.5972	0.6634	-0.493
Mof_O 	O 	0.89	0.9469	0.3446	-0.453
Mof_O 	O 	0.4005	0.5741	0.2782	-0.487
Mof_O 	O 	0.7567	0.1235	0.3948	-0.484
Mof_O 	O 	0.8315	0.2849	0.5074	-0.467
Mof_O 	O 	0.022	0.7926	0.3163	-0.455
Mof_O 	O 	0.8305	0.1124	0.1975	-0.667
Mof_O 	O 	0.8194	0.303	0.3092	-0.47
Mof_O 	O 	0.3421	0.7496	0.371	-0.491
Mof_V 	V 	0.69796	0.79835	0.88196	1.728
Mof_V 	V 	0.73606	0.50404	0.79179	1.822
Mof_V 	V 	0.1786	0.75574	0.83914	1.795
Mof_P 	P 	0.67529	0.7945	0.13525	0.472
Mof_H 	H 	0.562	0.808	0.124	-0.045
Mof_P 	P 	0.43073	0.83896	0.8665	0.46
Mof_H 	H 	0.441	0.906	0.961	-0.063
Mof_P 	P 	0.76705	0.24825	0.90026	0.46
Mof_H 	H 	0.663	0.2	0.897	-0.042
Mof_P 	P 	0.94096	0.66439	0.8874	0.472
Mof_H 	H 	0.99	0.648	0.993	-0.019
Mof_O 	O 	0.8593	0.7551	0.9044	-0.49
Mof_O 	O 	0.6757	0.5952	0.8576	-0.644
Mof_O 	O 	0.698	0.7469	0.0319	-0.474
Mof_O 	O 	0.5368	0.7775	0.8551	-0.481
Mof_O 	O 	0.6962	0.706	0.2223	-0.487
Mof_O 	O 	0.7401	0.9028	0.1634	-0.494
Mof_O 	O 	0.89	0.5531	0.8446	-0.452
Mof_O 	O 	0.4005	0.9259	0.7782	-0.485
Mof_O 	O 	0.7567	0.3765	0.8948	-0.486
Mof_O 	O 	0.8315	0.2151	0.0074	-0.464
Mof_O 	O 	0.022	0.7074	0.8163	-0.453
Mof_O 	O 	0.8305	0.3876	0.6975	-0.67
Mof_O 	O 	0.8194	0.197	0.8092	-0.47
Mof_O 	O 	0.3421	0.7504	0.871	-0.49
Mof_V 	V 	0.30204	0.29835	0.61804	1.728
Mof_V 	V 	0.26394	0.00404	0.70821	1.821
Mof_V 	V 	0.8214	0.25574	0.66086	1.795
Mof_P 	P 	0.32471	0.2945	0.36475	0.472
Mof_H 	H 	0.438	0.308	0.376	-0.044
Mof_P 	P 	0.56927	0.33896	0.6335	0.46
Mof_H 	H 	0.559	0.406	0.539	-0.064
Mof_P 	P 	0.23295	0.74825	0.59974	0.462
Mof_H 	H 	0.337	0.7	0.603	-0.041
Mof_P 	P 	0.05904	0.16439	0.6126	0.474
Mof_H 	H 	0.01	0.148	0.507	-0.019
Mof_O 	O 	0.1407	0.2551	0.5956	-0.49
Mof_O 	O 	0.3243	0.0952	0.6424	-0.644
Mof_O 	O 	0.302	0.2469	0.4681	-0.474
Mof_O 	O 	0.4632	0.2775	0.6449	-0.481
Mof_O 	O 	0.3038	0.206	0.2777	-0.488
Mof_O 	O 	0.2599	0.4028	0.3366	-0.493
Mof_O 	O 	0.11	0.0531	0.6554	-0.453
Mof_O 	O 	0.5995	0.4259	0.7218	-0.487
Mof_O 	O 	0.2433	0.8765	0.6052	-0.484
Mof_O 	O 	0.1685	0.7151	0.4926	-0.467
Mof_O 	O 	0.978	0.2074	0.6837	-0.455
Mof_O 	O 	0.1695	0.8876	0.8025	-0.667
Mof_O 	O 	0.1806	0.697	0.6908	-0.47
Mof_O 	O 	0.6579	0.2504	0.629	-0.491
_end
