data_functionalizedCrystal
_audit_creation_method	'EQeq! by Chris Wilmer'
_symmetry_space_group_name_H-M	'P1'
_symmetry_Int_Tables_number	1
_symmetry_cell_setting	triclinic
loop_
_symmetry_equiv_pos_as_xyz
  x,y,z
_cell_length_a	16.7513
_cell_length_b	18.1923
_cell_length_c	12.0258
_cell_angle_alpha	90
_cell_angle_beta	123.87
_cell_angle_gamma	90
loop_
_atom_site_label
_atom_site_type_symbol
_atom_site_fract_x
_atom_site_fract_y
_atom_site_fract_z
_atom_site_charge
Mof_O 	O 	0.09866	0.22254	0.39026	-0.466
Mof_O 	O 	0.08245	0.29668	0.1733	-0.488
Mof_O 	O 	0.08488	0.61931	0.8801	-0.539
Mof_O 	O 	0.22311	0.65451	0.06649	-0.513
Mof_O 	O 	0.23549	0.31127	0.34432	-0.449
Mof_N 	N 	0.07141	0.16102	0.4213	0.003
Mof_C 	C 	0.0661	0.03208	0.4237	0.088
Mof_C 	C 	0.0941	0.0961	0.3944	-0.093
Mof_C 	C 	0.1569	0.6084	0.9962	0.512
Mof_C 	C 	0.0152	0.03412	0.4834	-0.257
Mof_C 	C 	0.1636	0.53428	0.0557	-0.249
Mof_C 	C 	0.1619	0.32974	0.233	0.347
Mof_C 	C 	0.1667	0.39864	0.1674	0.02
Mof_C 	C 	0.9945	0.10312	0.5107	0.21
Mof_C 	C 	0.2365	0.45059	0.242	-0.105
Mof_C 	C 	0.0233	0.16578	0.4801	-0.151
Mof_C 	C 	0.2345	0.51783	0.1873	0.097
Mof_C 	C 	0.0953	0.48121	0.9801	0.187
Mof_C 	C 	0.0964	0.41426	0.0356	-0.245
Mof_H 	H 	0.085	0.9867	0.405	-0.011
Mof_H 	H 	0.129	0.0984	0.355	0.081
Mof_H 	H 	0.963	0.108	0.559	-0.019
Mof_H 	H 	0.05	0.381	0.991	0.141
Mof_H 	H 	0.279	0.555	0.243	0.012
Mof_H 	H 	0.285	0.441	0.34	0.078
Mof_H 	H 	0.042	0.496	0.886	-0.02
Mof_H 	H 	0.009	0.218	0.494	0.082
Mof_O 	O 	0.59866	0.72254	0.39026	-0.448
Mof_O 	O 	0.58245	0.79668	0.1733	-0.466
Mof_O 	O 	0.58488	0.11931	0.8801	-0.52
Mof_O 	O 	0.72311	0.15451	0.06649	-0.51
Mof_O 	O 	0.73549	0.81127	0.34432	-0.446
Mof_N 	N 	0.57141	0.66102	0.4213	-0.043
Mof_C 	C 	0.5661	0.53208	0.4237	-0.08
Mof_C 	C 	0.5941	0.5961	0.3944	0.017
Mof_C 	C 	0.6569	0.1084	0.9962	0.514
Mof_C 	C 	0.5152	0.53412	0.4834	0.029
Mof_C 	C 	0.6636	0.03428	0.0557	-0.249
Mof_C 	C 	0.6619	0.82974	0.233	0.341
Mof_C 	C 	0.6667	0.89864	0.1674	0.036
Mof_C 	C 	0.4945	0.60312	0.5107	-0.073
Mof_C 	C 	0.7365	0.95059	0.242	-0.113
Mof_C 	C 	0.5233	0.66578	0.4801	0.024
Mof_C 	C 	0.7345	0.01783	0.1873	0.109
Mof_C 	C 	0.5953	0.98121	0.9801	0.203
Mof_C 	C 	0.5964	0.91426	0.0356	-0.261
Mof_H 	H 	0.585	0.4867	0.405	0.058
Mof_H 	H 	0.629	0.5984	0.355	0.048
Mof_H 	H 	0.463	0.608	0.559	0.057
Mof_H 	H 	0.55	0.881	0.991	0.163
Mof_H 	H 	0.779	0.055	0.243	0.014
Mof_H 	H 	0.785	0.941	0.34	0.082
Mof_H 	H 	0.542	0.996	0.886	-0.008
Mof_H 	H 	0.509	0.718	0.494	0.05
Mof_O 	O 	0.90134	0.22254	0.10974	-0.438
Mof_O 	O 	0.91755	0.29668	0.3267	-0.447
Mof_O 	O 	0.91512	0.61931	0.6199	-0.48
Mof_O 	O 	0.77689	0.65451	0.43351	-0.47
Mof_O 	O 	0.76451	0.31127	0.15568	-0.461
Mof_N 	N 	0.92859	0.16102	0.0787	-0.066
Mof_C 	C 	0.9339	0.03208	0.0763	-0.16
Mof_C 	C 	0.9059	0.0961	0.1056	0.069
Mof_C 	C 	0.8431	0.6084	0.5038	0.418
Mof_C 	C 	0.9848	0.03412	0.0166	0.18
Mof_C 	C 	0.8364	0.53428	0.4443	-0.098
Mof_C 	C 	0.8381	0.32974	0.267	0.379
Mof_C 	C 	0.8333	0.39864	0.3326	-0.067
Mof_C 	C 	0.0055	0.10312	0.9893	-0.225
Mof_C 	C 	0.7635	0.45059	0.258	-0.015
Mof_C 	C 	0.9767	0.16578	0.0199	0.117
Mof_C 	C 	0.7655	0.51783	0.3127	-0.003
Mof_C 	C 	0.9047	0.48121	0.5199	0.02
Mof_C 	C 	0.9036	0.41426	0.4644	-0.039
Mof_H 	H 	0.915	0.9867	0.095	0.089
Mof_H 	H 	0.871	0.0984	0.145	0.037
Mof_H 	H 	0.037	0.108	0.941	0.096
Mof_H 	H 	0.95	0.381	0.509	0.078
Mof_H 	H 	0.721	0.555	0.257	0.045
Mof_H 	H 	0.715	0.441	0.16	0.047
Mof_H 	H 	0.958	0.496	0.614	0.063
Mof_H 	H 	0.991	0.218	0.006	0.032
Mof_O 	O 	0.40134	0.72254	0.10974	-0.456
Mof_O 	O 	0.41755	0.79668	0.3267	-0.47
Mof_O 	O 	0.41512	0.11931	0.6199	-0.499
Mof_O 	O 	0.27689	0.15451	0.43351	-0.475
Mof_O 	O 	0.26451	0.81127	0.15568	-0.463
Mof_N 	N 	0.42859	0.66102	0.0787	-0.021
Mof_C 	C 	0.4339	0.53208	0.0763	-0.003
Mof_C 	C 	0.4059	0.5961	0.1056	-0.037
Mof_C 	C 	0.3431	0.1084	0.5038	0.42
Mof_C 	C 	0.4848	0.53412	0.0166	-0.107
Mof_C 	C 	0.3364	0.03428	0.4443	-0.105
Mof_C 	C 	0.3381	0.82974	0.267	0.381
Mof_C 	C 	0.3333	0.89864	0.3326	-0.073
Mof_C 	C 	0.5055	0.60312	0.9893	0.06
Mof_C 	C 	0.2635	0.95059	0.258	-0.023
Mof_C 	C 	0.4767	0.66578	0.0199	-0.06
Mof_C 	C 	0.2655	0.01783	0.3127	0
Mof_C 	C 	0.4047	0.98121	0.5199	0.012
Mof_C 	C 	0.4036	0.91426	0.4644	-0.043
Mof_H 	H 	0.415	0.4867	0.095	0.027
Mof_H 	H 	0.371	0.5984	0.145	0.067
Mof_H 	H 	0.537	0.608	0.941	0.02
Mof_H 	H 	0.45	0.881	0.509	0.064
Mof_H 	H 	0.221	0.055	0.257	0.039
Mof_H 	H 	0.215	0.941	0.16	0.046
Mof_H 	H 	0.458	0.996	0.614	0.047
Mof_H 	H 	0.491	0.718	0.006	0.065
Mof_O 	O 	0.90134	0.77746	0.60974	-0.431
Mof_O 	O 	0.91755	0.70332	0.8267	-0.451
Mof_O 	O 	0.91512	0.38069	0.1199	-0.462
Mof_O 	O 	0.77689	0.34549	0.93351	-0.428
Mof_O 	O 	0.76451	0.68873	0.65568	-0.461
Mof_N 	N 	0.92859	0.83898	0.5787	-0.089
Mof_C 	C 	0.9339	0.96792	0.5763	-0.249
Mof_C 	C 	0.9059	0.9039	0.6056	0.124
Mof_C 	C 	0.8431	0.3916	0.0038	0.323
Mof_C 	C 	0.9848	0.96588	0.5166	0.312
Mof_C 	C 	0.8364	0.46572	0.9443	0.048
Mof_C 	C 	0.8381	0.67026	0.767	0.418
Mof_C 	C 	0.8333	0.60136	0.8326	-0.169
Mof_C 	C 	0.0055	0.89688	0.4893	-0.355
Mof_C 	C 	0.7635	0.54941	0.758	0.078
Mof_C 	C 	0.9767	0.83422	0.5199	0.197
Mof_C 	C 	0.7655	0.48217	0.8127	-0.108
Mof_C 	C 	0.9047	0.51879	0.0199	-0.17
Mof_C 	C 	0.9036	0.58574	0.9644	0.177
Mof_H 	H 	0.915	0.0133	0.595	0.128
Mof_H 	H 	0.871	0.9016	0.645	0.018
Mof_H 	H 	0.037	0.892	0.441	0.131
Mof_H 	H 	0.95	0.619	0.009	-0.021
Mof_H 	H 	0.721	0.445	0.757	0.084
Mof_H 	H 	0.715	0.559	0.66	0.027
Mof_H 	H 	0.958	0.504	0.114	0.113
Mof_H 	H 	0.991	0.782	0.506	0.017
Mof_O 	O 	0.40134	0.27746	0.60974	-0.449
Mof_O 	O 	0.41755	0.20332	0.8267	-0.474
Mof_O 	O 	0.41512	0.88069	0.1199	-0.483
Mof_O 	O 	0.27689	0.84549	0.93351	-0.434
Mof_O 	O 	0.26451	0.18873	0.65568	-0.463
Mof_N 	N 	0.42859	0.33898	0.5787	-0.043
Mof_C 	C 	0.4339	0.46792	0.5763	-0.081
Mof_C 	C 	0.4059	0.4039	0.6056	0.014
Mof_C 	C 	0.3431	0.8916	0.0038	0.328
Mof_C 	C 	0.4848	0.46588	0.5166	0.027
Mof_C 	C 	0.3364	0.96572	0.9443	0.033
Mof_C 	C 	0.3381	0.17026	0.767	0.419
Mof_C 	C 	0.3333	0.10136	0.8326	-0.171
Mof_C 	C 	0.5055	0.39688	0.4893	-0.074
Mof_C 	C 	0.2635	0.04941	0.758	0.072
Mof_C 	C 	0.4767	0.33422	0.5199	0.022
Mof_C 	C 	0.2655	0.98217	0.8127	-0.107
Mof_C 	C 	0.4047	0.01879	0.0199	-0.163
Mof_C 	C 	0.4036	0.08574	0.9644	0.161
Mof_H 	H 	0.415	0.5133	0.595	0.059
Mof_H 	H 	0.371	0.4016	0.645	0.05
Mof_H 	H 	0.537	0.392	0.441	0.056
Mof_H 	H 	0.45	0.119	0.009	-0.029
Mof_H 	H 	0.221	0.945	0.757	0.078
Mof_H 	H 	0.215	0.059	0.66	0.026
Mof_H 	H 	0.458	0.004	0.114	0.095
Mof_H 	H 	0.491	0.282	0.506	0.049
Mof_O 	O 	0.09866	0.77746	0.89026	-0.458
Mof_O 	O 	0.08245	0.70332	0.6733	-0.49
Mof_O 	O 	0.08488	0.38069	0.3801	-0.521
Mof_O 	O 	0.22311	0.34549	0.56649	-0.474
Mof_O 	O 	0.23549	0.68873	0.84432	-0.448
Mof_N 	N 	0.07141	0.83898	0.9213	-0.02
Mof_C 	C 	0.0661	0.96792	0.9237	0.001
Mof_C 	C 	0.0941	0.9039	0.8944	-0.039
Mof_C 	C 	0.1569	0.3916	0.4962	0.422
Mof_C 	C 	0.0152	0.96588	0.9834	-0.122
Mof_C 	C 	0.1636	0.46572	0.5557	-0.113
Mof_C 	C 	0.1619	0.67026	0.733	0.382
Mof_C 	C 	0.1667	0.60136	0.6674	-0.074
Mof_C 	C 	0.9945	0.89688	0.0107	0.073
Mof_C 	C 	0.2365	0.54941	0.742	-0.019
Mof_C 	C 	0.0233	0.83422	0.9801	-0.068
Mof_C 	C 	0.2345	0.48217	0.6873	-0
Mof_C 	C 	0.0953	0.51879	0.4801	0.012
Mof_C 	C 	0.0964	0.58574	0.5356	-0.048
Mof_H 	H 	0.085	0.0133	0.905	0.026
Mof_H 	H 	0.129	0.9016	0.855	0.062
Mof_H 	H 	0.963	0.892	0.059	0.017
Mof_H 	H 	0.05	0.619	0.491	0.05
Mof_H 	H 	0.279	0.445	0.743	0.049
Mof_H 	H 	0.285	0.559	0.84	0.06
Mof_H 	H 	0.042	0.504	0.386	0.027
Mof_H 	H 	0.009	0.782	0.994	0.065
Mof_O 	O 	0.59866	0.27746	0.89026	-0.441
Mof_O 	O 	0.58245	0.20332	0.6733	-0.469
Mof_O 	O 	0.58488	0.88069	0.3801	-0.504
Mof_O 	O 	0.72311	0.84549	0.56649	-0.469
Mof_O 	O 	0.73549	0.18873	0.84432	-0.446
Mof_N 	N 	0.57141	0.33898	0.9213	-0.065
Mof_C 	C 	0.5661	0.46792	0.9237	-0.159
Mof_C 	C 	0.5941	0.4039	0.8944	0.067
Mof_C 	C 	0.6569	0.8916	0.4962	0.421
Mof_C 	C 	0.5152	0.46588	0.9834	0.163
Mof_C 	C 	0.6636	0.96572	0.5557	-0.107
Mof_C 	C 	0.6619	0.17026	0.733	0.38
Mof_C 	C 	0.6667	0.10136	0.6674	-0.068
Mof_C 	C 	0.4945	0.39688	0.0107	-0.206
Mof_C 	C 	0.7365	0.04941	0.742	-0.012
Mof_C 	C 	0.5233	0.33422	0.9801	0.105
Mof_C 	C 	0.7345	0.98217	0.6873	-0.003
Mof_C 	C 	0.5953	0.01879	0.4801	0.019
Mof_C 	C 	0.5964	0.08574	0.5356	-0.044
Mof_H 	H 	0.585	0.5133	0.905	0.09
Mof_H 	H 	0.629	0.4016	0.855	0.032
Mof_H 	H 	0.463	0.392	0.059	0.092
Mof_H 	H 	0.55	0.119	0.491	0.064
Mof_H 	H 	0.779	0.945	0.743	0.055
Mof_H 	H 	0.785	0.059	0.84	0.06
Mof_H 	H 	0.542	0.004	0.386	0.042
Mof_H 	H 	0.509	0.282	0.994	0.033
Mof_Mg	Mg	1.86807e-17	0.30208	0.25	1.473
Mof_Mg	Mg	0.5	0.80208	0.25	1.478
Mof_Mg	Mg	3.73614e-17	0.69792	0.75	1.474
Mof_Mg	Mg	0.5	0.19792	0.75	1.479
Mof_Mg	Mg	0.25	0.25	0.5	1.476
Mof_Mg	Mg	0.75	0.25	-0	1.474
Mof_Mg	Mg	0.75	0.75	0.5	1.476
Mof_Mg	Mg	0.25	0.75	-0	1.474
_end
