data_functionalizedCrystal
_audit_creation_method	'EQeq! by Chris Wilmer'
_symmetry_space_group_name_H-M	'P1'
_symmetry_Int_Tables_number	1
_symmetry_cell_setting	triclinic
loop_
_symmetry_equiv_pos_as_xyz
  x,y,z
_cell_length_a	20.448
_cell_length_b	20.448
_cell_length_c	20.448
_cell_angle_alpha	90
_cell_angle_beta	90
_cell_angle_gamma	90
loop_
_atom_site_label
_atom_site_type_symbol
_atom_site_fract_x
_atom_site_fract_y
_atom_site_fract_z
_atom_site_charge
Mof_Co	Co	0.83867	0.60157	0.85682	1.2
Mof_Co	Co	0.99393	0.43875	0.72403	1.181
Mof_Co	Co	0.66133	0.39843	0.35682	1.2
Mof_Co	Co	0.50607	0.56125	0.22403	1.181
Mof_Co	Co	0.16133	0.10157	0.64318	1.2
Mof_Co	Co	0.00607	0.93875	0.77597	1.179
Mof_Co	Co	0.33867	0.89843	0.14318	1.199
Mof_Co	Co	0.49393	0.06125	0.27597	1.181
Mof_Co	Co	0.85682	0.83867	0.60157	1.2
Mof_Co	Co	0.72403	0.99393	0.43875	1.181
Mof_Co	Co	0.35682	0.66133	0.39843	1.2
Mof_Co	Co	0.22403	0.50607	0.56125	1.181
Mof_Co	Co	0.64318	0.16133	0.10157	1.2
Mof_Co	Co	0.77597	0.00607	0.93875	1.179
Mof_Co	Co	0.14318	0.33867	0.89843	1.199
Mof_Co	Co	0.27597	0.49393	0.06125	1.181
Mof_Co	Co	0.60157	0.85682	0.83867	1.2
Mof_Co	Co	0.43875	0.72403	0.99393	1.181
Mof_Co	Co	0.39843	0.35682	0.66133	1.2
Mof_Co	Co	0.56125	0.22403	0.50607	1.181
Mof_Co	Co	0.10157	0.64318	0.16133	1.2
Mof_Co	Co	0.93875	0.77597	0.00607	1.179
Mof_Co	Co	0.89843	0.14318	0.33867	1.199
Mof_Co	Co	0.06125	0.27597	0.49393	1.181
Mof_Co	Co	0.16133	0.39843	0.14318	1.2
Mof_Co	Co	0.00607	0.56125	0.27597	1.181
Mof_Co	Co	0.33867	0.60157	0.64318	1.2
Mof_Co	Co	0.49393	0.43875	0.77597	1.181
Mof_Co	Co	0.83867	0.89843	0.35682	1.2
Mof_Co	Co	0.99393	0.06125	0.22403	1.179
Mof_Co	Co	0.66133	0.10157	0.85682	1.198
Mof_Co	Co	0.50607	0.93875	0.72403	1.18
Mof_Co	Co	0.14318	0.16133	0.39843	1.199
Mof_Co	Co	0.27597	0.00607	0.56125	1.18
Mof_Co	Co	0.64318	0.33867	0.60157	1.199
Mof_Co	Co	0.77597	0.49393	0.43875	1.18
Mof_Co	Co	0.35682	0.83867	0.89843	1.199
Mof_Co	Co	0.22403	0.99393	0.06125	1.178
Mof_Co	Co	0.85682	0.66133	0.10157	1.198
Mof_Co	Co	0.72403	0.50607	0.93875	1.18
Mof_Co	Co	0.39843	0.14318	0.16133	1.199
Mof_Co	Co	0.56125	0.27597	0.00607	1.18
Mof_Co	Co	0.60157	0.64318	0.33867	1.199
Mof_Co	Co	0.43875	0.77597	0.49393	1.18
Mof_Co	Co	0.89843	0.35682	0.83867	1.199
Mof_Co	Co	0.06125	0.22403	0.99393	1.178
Mof_Co	Co	0.10157	0.85682	0.66133	1.198
Mof_Co	Co	0.93875	0.72403	0.50607	1.18
Mof_H 	H 	0.8788	0.622	0.699	0.059
Mof_H 	H 	0.9974	0.6612	0.692	0.091
Mof_H 	H 	0.0085	0.6993	0.7932	0.074
Mof_H 	H 	0.8889	0.7632	0.8049	0.077
Mof_H 	H 	0.8533	0.4946	0.9231	0.23
Mof_H 	H 	0.8415	0.5517	0.9732	0.234
Mof_H 	H 	0.6212	0.378	0.199	0.06
Mof_H 	H 	0.5026	0.3388	0.192	0.088
Mof_H 	H 	0.4915	0.3007	0.2932	0.08
Mof_H 	H 	0.6111	0.2368	0.3049	0.076
Mof_H 	H 	0.6467	0.5054	0.4231	0.23
Mof_H 	H 	0.6585	0.4483	0.4732	0.233
Mof_H 	H 	0.1212	0.122	0.801	0.06
Mof_H 	H 	0.0026	0.1612	0.808	0.089
Mof_H 	H 	0.9915	0.1993	0.7068	0.079
Mof_H 	H 	0.1111	0.2632	0.6951	0.076
Mof_H 	H 	0.1467	0.9946	0.5769	0.228
Mof_H 	H 	0.1585	0.0517	0.5268	0.233
Mof_H 	H 	0.3788	0.878	0.301	0.059
Mof_H 	H 	0.4974	0.8388	0.308	0.088
Mof_H 	H 	0.5085	0.8007	0.2068	0.08
Mof_H 	H 	0.3889	0.7368	0.1951	0.076
Mof_H 	H 	0.3533	0.0054	0.0769	0.233
Mof_H 	H 	0.3415	0.9483	0.0268	0.233
Mof_H 	H 	0.699	0.8788	0.622	0.059
Mof_H 	H 	0.692	0.9974	0.6612	0.091
Mof_H 	H 	0.7932	0.0085	0.6993	0.074
Mof_H 	H 	0.8049	0.8889	0.7632	0.077
Mof_H 	H 	0.9231	0.8533	0.4946	0.23
Mof_H 	H 	0.9732	0.8415	0.5517	0.234
Mof_H 	H 	0.199	0.6212	0.378	0.06
Mof_H 	H 	0.192	0.5026	0.3388	0.088
Mof_H 	H 	0.2932	0.4915	0.3007	0.08
Mof_H 	H 	0.3049	0.6111	0.2368	0.076
Mof_H 	H 	0.4231	0.6467	0.5054	0.23
Mof_H 	H 	0.4732	0.6585	0.4483	0.233
Mof_H 	H 	0.801	0.1212	0.122	0.06
Mof_H 	H 	0.808	0.0026	0.1612	0.089
Mof_H 	H 	0.7068	0.9915	0.1993	0.079
Mof_H 	H 	0.6951	0.1111	0.2632	0.076
Mof_H 	H 	0.5769	0.1467	0.9946	0.228
Mof_H 	H 	0.5268	0.1585	0.0517	0.233
Mof_H 	H 	0.301	0.3788	0.878	0.059
Mof_H 	H 	0.308	0.4974	0.8388	0.088
Mof_H 	H 	0.2068	0.5085	0.8007	0.08
Mof_H 	H 	0.1951	0.3889	0.7368	0.076
Mof_H 	H 	0.0769	0.3533	0.0054	0.233
Mof_H 	H 	0.0268	0.3415	0.9483	0.233
Mof_H 	H 	0.622	0.699	0.8788	0.059
Mof_H 	H 	0.6612	0.692	0.9974	0.091
Mof_H 	H 	0.6993	0.7932	0.0085	0.074
Mof_H 	H 	0.7632	0.8049	0.8889	0.077
Mof_H 	H 	0.4946	0.9231	0.8533	0.23
Mof_H 	H 	0.5517	0.9732	0.8415	0.234
Mof_H 	H 	0.378	0.199	0.6212	0.06
Mof_H 	H 	0.3388	0.192	0.5026	0.088
Mof_H 	H 	0.3007	0.2932	0.4915	0.08
Mof_H 	H 	0.2368	0.3049	0.6111	0.076
Mof_H 	H 	0.5054	0.4231	0.6467	0.23
Mof_H 	H 	0.4483	0.4732	0.6585	0.233
Mof_H 	H 	0.122	0.801	0.1212	0.06
Mof_H 	H 	0.1612	0.808	0.0026	0.089
Mof_H 	H 	0.1993	0.7068	0.9915	0.079
Mof_H 	H 	0.2632	0.6951	0.1111	0.076
Mof_H 	H 	0.9946	0.5769	0.1467	0.228
Mof_H 	H 	0.0517	0.5268	0.1585	0.233
Mof_H 	H 	0.878	0.301	0.3788	0.059
Mof_H 	H 	0.8388	0.308	0.4974	0.088
Mof_H 	H 	0.8007	0.2068	0.5085	0.08
Mof_H 	H 	0.7368	0.1951	0.3889	0.076
Mof_H 	H 	0.0054	0.0769	0.3533	0.233
Mof_H 	H 	0.9483	0.0268	0.3415	0.233
Mof_H 	H 	0.1212	0.378	0.301	0.059
Mof_H 	H 	0.0026	0.3388	0.308	0.091
Mof_H 	H 	0.9915	0.3007	0.2068	0.074
Mof_H 	H 	0.1111	0.2368	0.1951	0.077
Mof_H 	H 	0.1467	0.5054	0.0769	0.23
Mof_H 	H 	0.1585	0.4483	0.0268	0.234
Mof_H 	H 	0.3788	0.622	0.801	0.06
Mof_H 	H 	0.4974	0.6612	0.808	0.088
Mof_H 	H 	0.5085	0.6993	0.7068	0.08
Mof_H 	H 	0.3889	0.7632	0.6951	0.076
Mof_H 	H 	0.3533	0.4946	0.5769	0.23
Mof_H 	H 	0.3415	0.5517	0.5268	0.233
Mof_H 	H 	0.8788	0.878	0.199	0.06
Mof_H 	H 	0.9974	0.8388	0.192	0.089
Mof_H 	H 	0.0085	0.8007	0.2932	0.079
Mof_H 	H 	0.8889	0.7368	0.3049	0.076
Mof_H 	H 	0.8533	0.0054	0.4231	0.228
Mof_H 	H 	0.8415	0.9483	0.4732	0.233
Mof_H 	H 	0.6212	0.122	0.699	0.059
Mof_H 	H 	0.5026	0.1612	0.692	0.088
Mof_H 	H 	0.4915	0.1993	0.7932	0.08
Mof_H 	H 	0.6111	0.2632	0.8049	0.076
Mof_H 	H 	0.6467	0.9946	0.9231	0.233
Mof_H 	H 	0.6585	0.0517	0.9732	0.233
Mof_H 	H 	0.301	0.1212	0.378	0.059
Mof_H 	H 	0.308	0.0026	0.3388	0.091
Mof_H 	H 	0.2068	0.9915	0.3007	0.074
Mof_H 	H 	0.1951	0.1111	0.2368	0.077
Mof_H 	H 	0.0769	0.1467	0.5054	0.23
Mof_H 	H 	0.0268	0.1585	0.4483	0.234
Mof_H 	H 	0.801	0.3788	0.622	0.06
Mof_H 	H 	0.808	0.4974	0.6612	0.088
Mof_H 	H 	0.7068	0.5085	0.6993	0.08
Mof_H 	H 	0.6951	0.3889	0.7632	0.076
Mof_H 	H 	0.5769	0.3533	0.4946	0.23
Mof_H 	H 	0.5268	0.3415	0.5517	0.233
Mof_H 	H 	0.199	0.8788	0.878	0.06
Mof_H 	H 	0.192	0.9974	0.8388	0.089
Mof_H 	H 	0.2932	0.0085	0.8007	0.079
Mof_H 	H 	0.3049	0.8889	0.7368	0.076
Mof_H 	H 	0.4231	0.8533	0.0054	0.228
Mof_H 	H 	0.4732	0.8415	0.9483	0.233
Mof_H 	H 	0.699	0.6212	0.122	0.059
Mof_H 	H 	0.692	0.5026	0.1612	0.088
Mof_H 	H 	0.7932	0.4915	0.1993	0.08
Mof_H 	H 	0.8049	0.6111	0.2632	0.076
Mof_H 	H 	0.9231	0.6467	0.9946	0.233
Mof_H 	H 	0.9732	0.6585	0.0517	0.233
Mof_H 	H 	0.378	0.301	0.1212	0.059
Mof_H 	H 	0.3388	0.308	0.0026	0.091
Mof_H 	H 	0.3007	0.2068	0.9915	0.074
Mof_H 	H 	0.2368	0.1951	0.1111	0.077
Mof_H 	H 	0.5054	0.0769	0.1467	0.23
Mof_H 	H 	0.4483	0.0268	0.1585	0.234
Mof_H 	H 	0.622	0.801	0.3788	0.06
Mof_H 	H 	0.6612	0.808	0.4974	0.088
Mof_H 	H 	0.6993	0.7068	0.5085	0.08
Mof_H 	H 	0.7632	0.6951	0.3889	0.076
Mof_H 	H 	0.4946	0.5769	0.3533	0.23
Mof_H 	H 	0.5517	0.5268	0.3415	0.233
Mof_H 	H 	0.878	0.199	0.8788	0.06
Mof_H 	H 	0.8388	0.192	0.9974	0.089
Mof_H 	H 	0.8007	0.2932	0.0085	0.079
Mof_H 	H 	0.7368	0.3049	0.8889	0.076
Mof_H 	H 	0.0054	0.4231	0.8533	0.228
Mof_H 	H 	0.9483	0.4732	0.8415	0.233
Mof_H 	H 	0.122	0.699	0.6212	0.059
Mof_H 	H 	0.1612	0.692	0.5026	0.088
Mof_H 	H 	0.1993	0.7932	0.4915	0.08
Mof_H 	H 	0.2632	0.8049	0.6111	0.076
Mof_H 	H 	0.9946	0.9231	0.6467	0.233
Mof_H 	H 	0.0517	0.9732	0.6585	0.233
Mof_C 	C 	0.909	0.6336	0.7343	-0.032
Mof_C 	C 	0.9382	0.5712	0.762	0.34
Mof_C 	C 	0.9582	0.6837	0.7082	-0.127
Mof_C 	C 	0.9259	0.7212	0.6532	0.421
Mof_C 	C 	0.9751	0.7238	0.769	-0.088
Mof_C 	C 	0.0037	0.7912	0.7539	0.387
Mof_C 	C 	0.9125	0.7218	0.8099	-0.038
Mof_C 	C 	0.9261	0.7098	0.8816	0.346
Mof_C 	C 	0.591	0.3664	0.2343	-0.033
Mof_C 	C 	0.5618	0.4288	0.262	0.341
Mof_C 	C 	0.5418	0.3163	0.2082	-0.123
Mof_C 	C 	0.5741	0.2788	0.1532	0.419
Mof_C 	C 	0.5249	0.2762	0.269	-0.1
Mof_C 	C 	0.4963	0.2088	0.2539	0.397
Mof_C 	C 	0.5875	0.2782	0.3099	-0.034
Mof_C 	C 	0.5739	0.2902	0.3816	0.345
Mof_C 	C 	0.091	0.1336	0.7657	-0.033
Mof_C 	C 	0.0618	0.0712	0.738	0.341
Mof_C 	C 	0.0418	0.1837	0.7918	-0.123
Mof_C 	C 	0.0741	0.2212	0.8468	0.419
Mof_C 	C 	0.0249	0.2238	0.731	-0.099
Mof_C 	C 	0.9963	0.2912	0.7461	0.398
Mof_C 	C 	0.0875	0.2218	0.6901	-0.034
Mof_C 	C 	0.0739	0.2098	0.6184	0.345
Mof_C 	C 	0.409	0.8664	0.2657	-0.033
Mof_C 	C 	0.4382	0.9288	0.238	0.341
Mof_C 	C 	0.4582	0.8163	0.2918	-0.123
Mof_C 	C 	0.4259	0.7788	0.3468	0.419
Mof_C 	C 	0.4751	0.7762	0.231	-0.1
Mof_C 	C 	0.5037	0.7088	0.2461	0.397
Mof_C 	C 	0.4125	0.7782	0.1901	-0.034
Mof_C 	C 	0.4261	0.7902	0.1184	0.345
Mof_C 	C 	0.7343	0.909	0.6336	-0.032
Mof_C 	C 	0.762	0.9382	0.5712	0.34
Mof_C 	C 	0.7082	0.9582	0.6837	-0.127
Mof_C 	C 	0.6532	0.9259	0.7212	0.421
Mof_C 	C 	0.769	0.9751	0.7238	-0.088
Mof_C 	C 	0.7539	0.0037	0.7912	0.387
Mof_C 	C 	0.8099	0.9125	0.7218	-0.038
Mof_C 	C 	0.8816	0.9261	0.7098	0.346
Mof_C 	C 	0.2343	0.591	0.3664	-0.033
Mof_C 	C 	0.262	0.5618	0.4288	0.341
Mof_C 	C 	0.2082	0.5418	0.3163	-0.123
Mof_C 	C 	0.1532	0.5741	0.2788	0.419
Mof_C 	C 	0.269	0.5249	0.2762	-0.1
Mof_C 	C 	0.2539	0.4963	0.2088	0.397
Mof_C 	C 	0.3099	0.5875	0.2782	-0.034
Mof_C 	C 	0.3816	0.5739	0.2902	0.345
Mof_C 	C 	0.7657	0.091	0.1336	-0.033
Mof_C 	C 	0.738	0.0618	0.0712	0.341
Mof_C 	C 	0.7918	0.0418	0.1837	-0.123
Mof_C 	C 	0.8468	0.0741	0.2212	0.419
Mof_C 	C 	0.731	0.0249	0.2238	-0.099
Mof_C 	C 	0.7461	0.9963	0.2912	0.398
Mof_C 	C 	0.6901	0.0875	0.2218	-0.034
Mof_C 	C 	0.6184	0.0739	0.2098	0.345
Mof_C 	C 	0.2657	0.409	0.8664	-0.033
Mof_C 	C 	0.238	0.4382	0.9288	0.341
Mof_C 	C 	0.2918	0.4582	0.8163	-0.123
Mof_C 	C 	0.3468	0.4259	0.7788	0.419
Mof_C 	C 	0.231	0.4751	0.7762	-0.1
Mof_C 	C 	0.2461	0.5037	0.7088	0.397
Mof_C 	C 	0.1901	0.4125	0.7782	-0.034
Mof_C 	C 	0.1184	0.4261	0.7902	0.345
Mof_C 	C 	0.6336	0.7343	0.909	-0.032
Mof_C 	C 	0.5712	0.762	0.9382	0.34
Mof_C 	C 	0.6837	0.7082	0.9582	-0.127
Mof_C 	C 	0.7212	0.6532	0.9259	0.421
Mof_C 	C 	0.7238	0.769	0.9751	-0.088
Mof_C 	C 	0.7912	0.7539	0.0037	0.387
Mof_C 	C 	0.7218	0.8099	0.9125	-0.038
Mof_C 	C 	0.7098	0.8816	0.9261	0.346
Mof_C 	C 	0.3664	0.2343	0.591	-0.033
Mof_C 	C 	0.4288	0.262	0.5618	0.341
Mof_C 	C 	0.3163	0.2082	0.5418	-0.123
Mof_C 	C 	0.2788	0.1532	0.5741	0.419
Mof_C 	C 	0.2762	0.269	0.5249	-0.1
Mof_C 	C 	0.2088	0.2539	0.4963	0.397
Mof_C 	C 	0.2782	0.3099	0.5875	-0.034
Mof_C 	C 	0.2902	0.3816	0.5739	0.345
Mof_C 	C 	0.1336	0.7657	0.091	-0.033
Mof_C 	C 	0.0712	0.738	0.0618	0.341
Mof_C 	C 	0.1837	0.7918	0.0418	-0.123
Mof_C 	C 	0.2212	0.8468	0.0741	0.419
Mof_C 	C 	0.2238	0.731	0.0249	-0.099
Mof_C 	C 	0.2912	0.7461	0.9963	0.398
Mof_C 	C 	0.2218	0.6901	0.0875	-0.034
Mof_C 	C 	0.2098	0.6184	0.0739	0.345
Mof_C 	C 	0.8664	0.2657	0.409	-0.033
Mof_C 	C 	0.9288	0.238	0.4382	0.341
Mof_C 	C 	0.8163	0.2918	0.4582	-0.123
Mof_C 	C 	0.7788	0.3468	0.4259	0.419
Mof_C 	C 	0.7762	0.231	0.4751	-0.1
Mof_C 	C 	0.7088	0.2461	0.5037	0.397
Mof_C 	C 	0.7782	0.1901	0.4125	-0.034
Mof_C 	C 	0.7902	0.1184	0.4261	0.345
Mof_C 	C 	0.091	0.3664	0.2657	-0.032
Mof_C 	C 	0.0618	0.4288	0.238	0.34
Mof_C 	C 	0.0418	0.3163	0.2918	-0.127
Mof_C 	C 	0.0741	0.2788	0.3468	0.421
Mof_C 	C 	0.0249	0.2762	0.231	-0.088
Mof_C 	C 	0.9963	0.2088	0.2461	0.387
Mof_C 	C 	0.0875	0.2782	0.1901	-0.038
Mof_C 	C 	0.0739	0.2902	0.1184	0.346
Mof_C 	C 	0.409	0.6336	0.7657	-0.033
Mof_C 	C 	0.4382	0.5712	0.738	0.341
Mof_C 	C 	0.4582	0.6837	0.7918	-0.123
Mof_C 	C 	0.4259	0.7212	0.8468	0.419
Mof_C 	C 	0.4751	0.7238	0.731	-0.1
Mof_C 	C 	0.5037	0.7912	0.7461	0.397
Mof_C 	C 	0.4125	0.7218	0.6901	-0.034
Mof_C 	C 	0.4261	0.7098	0.6184	0.345
Mof_C 	C 	0.909	0.8664	0.2343	-0.033
Mof_C 	C 	0.9382	0.9288	0.262	0.341
Mof_C 	C 	0.9582	0.8163	0.2082	-0.123
Mof_C 	C 	0.9259	0.7788	0.1532	0.419
Mof_C 	C 	0.9751	0.7762	0.269	-0.099
Mof_C 	C 	0.0037	0.7088	0.2539	0.398
Mof_C 	C 	0.9125	0.7782	0.3099	-0.034
Mof_C 	C 	0.9261	0.7902	0.3816	0.345
Mof_C 	C 	0.591	0.1336	0.7343	-0.033
Mof_C 	C 	0.5618	0.0712	0.762	0.341
Mof_C 	C 	0.5418	0.1837	0.7082	-0.123
Mof_C 	C 	0.5741	0.2212	0.6532	0.419
Mof_C 	C 	0.5249	0.2238	0.769	-0.1
Mof_C 	C 	0.4963	0.2912	0.7539	0.397
Mof_C 	C 	0.5875	0.2218	0.8099	-0.034
Mof_C 	C 	0.5739	0.2098	0.8816	0.345
Mof_C 	C 	0.2657	0.091	0.3664	-0.032
Mof_C 	C 	0.238	0.0618	0.4288	0.34
Mof_C 	C 	0.2918	0.0418	0.3163	-0.127
Mof_C 	C 	0.3468	0.0741	0.2788	0.421
Mof_C 	C 	0.231	0.0249	0.2762	-0.088
Mof_C 	C 	0.2461	0.9963	0.2088	0.387
Mof_C 	C 	0.1901	0.0875	0.2782	-0.038
Mof_C 	C 	0.1184	0.0739	0.2902	0.346
Mof_C 	C 	0.7657	0.409	0.6336	-0.033
Mof_C 	C 	0.738	0.4382	0.5712	0.341
Mof_C 	C 	0.7918	0.4582	0.6837	-0.123
Mof_C 	C 	0.8468	0.4259	0.7212	0.419
Mof_C 	C 	0.731	0.4751	0.7238	-0.1
Mof_C 	C 	0.7461	0.5037	0.7912	0.397
Mof_C 	C 	0.6901	0.4125	0.7218	-0.034
Mof_C 	C 	0.6184	0.4261	0.7098	0.345
Mof_C 	C 	0.2343	0.909	0.8664	-0.033
Mof_C 	C 	0.262	0.9382	0.9288	0.341
Mof_C 	C 	0.2082	0.9582	0.8163	-0.123
Mof_C 	C 	0.1532	0.9259	0.7788	0.419
Mof_C 	C 	0.269	0.9751	0.7762	-0.099
Mof_C 	C 	0.2539	0.0037	0.7088	0.398
Mof_C 	C 	0.3099	0.9125	0.7782	-0.034
Mof_C 	C 	0.3816	0.9261	0.7902	0.345
Mof_C 	C 	0.7343	0.591	0.1336	-0.033
Mof_C 	C 	0.762	0.5618	0.0712	0.341
Mof_C 	C 	0.7082	0.5418	0.1837	-0.123
Mof_C 	C 	0.6532	0.5741	0.2212	0.419
Mof_C 	C 	0.769	0.5249	0.2238	-0.1
Mof_C 	C 	0.7539	0.4963	0.2912	0.397
Mof_C 	C 	0.8099	0.5875	0.2218	-0.034
Mof_C 	C 	0.8816	0.5739	0.2098	0.345
Mof_C 	C 	0.3664	0.2657	0.091	-0.032
Mof_C 	C 	0.4288	0.238	0.0618	0.34
Mof_C 	C 	0.3163	0.2918	0.0418	-0.127
Mof_C 	C 	0.2788	0.3468	0.0741	0.421
Mof_C 	C 	0.2762	0.231	0.0249	-0.088
Mof_C 	C 	0.2088	0.2461	0.9963	0.387
Mof_C 	C 	0.2782	0.1901	0.0875	-0.038
Mof_C 	C 	0.2902	0.1184	0.0739	0.346
Mof_C 	C 	0.6336	0.7657	0.409	-0.033
Mof_C 	C 	0.5712	0.738	0.4382	0.341
Mof_C 	C 	0.6837	0.7918	0.4582	-0.123
Mof_C 	C 	0.7212	0.8468	0.4259	0.419
Mof_C 	C 	0.7238	0.731	0.4751	-0.1
Mof_C 	C 	0.7912	0.7461	0.5037	0.397
Mof_C 	C 	0.7218	0.6901	0.4125	-0.034
Mof_C 	C 	0.7098	0.6184	0.4261	0.345
Mof_C 	C 	0.8664	0.2343	0.909	-0.033
Mof_C 	C 	0.9288	0.262	0.9382	0.341
Mof_C 	C 	0.8163	0.2082	0.9582	-0.123
Mof_C 	C 	0.7788	0.1532	0.9259	0.419
Mof_C 	C 	0.7762	0.269	0.9751	-0.099
Mof_C 	C 	0.7088	0.2539	0.0037	0.398
Mof_C 	C 	0.7782	0.3099	0.9125	-0.034
Mof_C 	C 	0.7902	0.3816	0.9261	0.345
Mof_C 	C 	0.1336	0.7343	0.591	-0.033
Mof_C 	C 	0.0712	0.762	0.5618	0.341
Mof_C 	C 	0.1837	0.7082	0.5418	-0.123
Mof_C 	C 	0.2212	0.6532	0.5741	0.419
Mof_C 	C 	0.2238	0.769	0.5249	-0.1
Mof_C 	C 	0.2912	0.7539	0.4963	0.397
Mof_C 	C 	0.2218	0.8099	0.5875	-0.034
Mof_C 	C 	0.2098	0.8816	0.5739	0.345
Mof_O 	O 	0.8731	0.66888	0.78384	-0.261
Mof_O 	O 	0.9192	0.5514	0.8168	-0.424
Mof_O 	O 	0.9772	0.541	0.726	-0.396
Mof_O 	O 	0.9293	0.6941	0.5985	-0.469
Mof_O 	O 	0.8968	0.7723	0.6655	-0.432
Mof_O 	O 	0.0513	0.7905	0.7151	-0.438
Mof_O 	O 	0.9807	0.8404	0.7815	-0.425
Mof_O 	O 	0.9574	0.7541	0.9102	-0.403
Mof_O 	O 	0.9066	0.6584	0.9082	-0.425
Mof_O 	O 	0.827	0.5331	0.9321	-0.676
Mof_O 	O 	0.6269	0.33112	0.28384	-0.261
Mof_O 	O 	0.5808	0.4486	0.3168	-0.424
Mof_O 	O 	0.5228	0.459	0.226	-0.397
Mof_O 	O 	0.5707	0.3059	0.0985	-0.469
Mof_O 	O 	0.6032	0.2277	0.1655	-0.432
Mof_O 	O 	0.4487	0.2095	0.2151	-0.44
Mof_O 	O 	0.5193	0.1596	0.2815	-0.431
Mof_O 	O 	0.5426	0.2459	0.4102	-0.405
Mof_O 	O 	0.5934	0.3416	0.4082	-0.425
Mof_O 	O 	0.673	0.4669	0.4321	-0.676
Mof_O 	O 	0.1269	0.16888	0.71616	-0.261
Mof_O 	O 	0.0808	0.0514	0.6832	-0.423
Mof_O 	O 	0.0228	0.041	0.774	-0.396
Mof_O 	O 	0.0707	0.1941	0.9015	-0.47
Mof_O 	O 	0.1032	0.2723	0.8345	-0.432
Mof_O 	O 	0.9487	0.2905	0.7849	-0.44
Mof_O 	O 	0.0193	0.3404	0.7185	-0.431
Mof_O 	O 	0.0426	0.2541	0.5898	-0.404
Mof_O 	O 	0.0934	0.1584	0.5918	-0.425
Mof_O 	O 	0.173	0.0331	0.5679	-0.674
Mof_O 	O 	0.3731	0.83112	0.21616	-0.261
Mof_O 	O 	0.4192	0.9486	0.1832	-0.425
Mof_O 	O 	0.4772	0.959	0.274	-0.397
Mof_O 	O 	0.4293	0.8059	0.4015	-0.469
Mof_O 	O 	0.3968	0.7277	0.3345	-0.432
Mof_O 	O 	0.5513	0.7095	0.2849	-0.44
Mof_O 	O 	0.4807	0.6596	0.2185	-0.431
Mof_O 	O 	0.4574	0.7459	0.0898	-0.405
Mof_O 	O 	0.4066	0.8416	0.0918	-0.426
Mof_O 	O 	0.327	0.9669	0.0679	-0.68
Mof_O 	O 	0.78384	0.8731	0.66888	-0.261
Mof_O 	O 	0.8168	0.9192	0.5514	-0.424
Mof_O 	O 	0.726	0.9772	0.541	-0.396
Mof_O 	O 	0.5985	0.9293	0.6941	-0.469
Mof_O 	O 	0.6655	0.8968	0.7723	-0.432
Mof_O 	O 	0.7151	0.0513	0.7905	-0.438
Mof_O 	O 	0.7815	0.9807	0.8404	-0.425
Mof_O 	O 	0.9102	0.9574	0.7541	-0.403
Mof_O 	O 	0.9082	0.9066	0.6584	-0.425
Mof_O 	O 	0.9321	0.827	0.5331	-0.676
Mof_O 	O 	0.28384	0.6269	0.33112	-0.261
Mof_O 	O 	0.3168	0.5808	0.4486	-0.424
Mof_O 	O 	0.226	0.5228	0.459	-0.397
Mof_O 	O 	0.0985	0.5707	0.3059	-0.469
Mof_O 	O 	0.1655	0.6032	0.2277	-0.432
Mof_O 	O 	0.2151	0.4487	0.2095	-0.44
Mof_O 	O 	0.2815	0.5193	0.1596	-0.431
Mof_O 	O 	0.4102	0.5426	0.2459	-0.405
Mof_O 	O 	0.4082	0.5934	0.3416	-0.425
Mof_O 	O 	0.4321	0.673	0.4669	-0.676
Mof_O 	O 	0.71616	0.1269	0.16888	-0.261
Mof_O 	O 	0.6832	0.0808	0.0514	-0.423
Mof_O 	O 	0.774	0.0228	0.041	-0.396
Mof_O 	O 	0.9015	0.0707	0.1941	-0.47
Mof_O 	O 	0.8345	0.1032	0.2723	-0.432
Mof_O 	O 	0.7849	0.9487	0.2905	-0.44
Mof_O 	O 	0.7185	0.0193	0.3404	-0.431
Mof_O 	O 	0.5898	0.0426	0.2541	-0.404
Mof_O 	O 	0.5918	0.0934	0.1584	-0.425
Mof_O 	O 	0.5679	0.173	0.0331	-0.674
Mof_O 	O 	0.21616	0.3731	0.83112	-0.261
Mof_O 	O 	0.1832	0.4192	0.9486	-0.425
Mof_O 	O 	0.274	0.4772	0.959	-0.397
Mof_O 	O 	0.4015	0.4293	0.8059	-0.469
Mof_O 	O 	0.3345	0.3968	0.7277	-0.432
Mof_O 	O 	0.2849	0.5513	0.7095	-0.44
Mof_O 	O 	0.2185	0.4807	0.6596	-0.431
Mof_O 	O 	0.0898	0.4574	0.7459	-0.405
Mof_O 	O 	0.0918	0.4066	0.8416	-0.426
Mof_O 	O 	0.0679	0.327	0.9669	-0.68
Mof_O 	O 	0.66888	0.78384	0.8731	-0.261
Mof_O 	O 	0.5514	0.8168	0.9192	-0.424
Mof_O 	O 	0.541	0.726	0.9772	-0.396
Mof_O 	O 	0.6941	0.5985	0.9293	-0.469
Mof_O 	O 	0.7723	0.6655	0.8968	-0.432
Mof_O 	O 	0.7905	0.7151	0.0513	-0.438
Mof_O 	O 	0.8404	0.7815	0.9807	-0.425
Mof_O 	O 	0.7541	0.9102	0.9574	-0.403
Mof_O 	O 	0.6584	0.9082	0.9066	-0.425
Mof_O 	O 	0.5331	0.9321	0.827	-0.676
Mof_O 	O 	0.33112	0.28384	0.6269	-0.261
Mof_O 	O 	0.4486	0.3168	0.5808	-0.424
Mof_O 	O 	0.459	0.226	0.5228	-0.397
Mof_O 	O 	0.3059	0.0985	0.5707	-0.469
Mof_O 	O 	0.2277	0.1655	0.6032	-0.432
Mof_O 	O 	0.2095	0.2151	0.4487	-0.44
Mof_O 	O 	0.1596	0.2815	0.5193	-0.431
Mof_O 	O 	0.2459	0.4102	0.5426	-0.405
Mof_O 	O 	0.3416	0.4082	0.5934	-0.425
Mof_O 	O 	0.4669	0.4321	0.673	-0.676
Mof_O 	O 	0.16888	0.71616	0.1269	-0.261
Mof_O 	O 	0.0514	0.6832	0.0808	-0.423
Mof_O 	O 	0.041	0.774	0.0228	-0.396
Mof_O 	O 	0.1941	0.9015	0.0707	-0.47
Mof_O 	O 	0.2723	0.8345	0.1032	-0.432
Mof_O 	O 	0.2905	0.7849	0.9487	-0.44
Mof_O 	O 	0.3404	0.7185	0.0193	-0.431
Mof_O 	O 	0.2541	0.5898	0.0426	-0.404
Mof_O 	O 	0.1584	0.5918	0.0934	-0.425
Mof_O 	O 	0.0331	0.5679	0.173	-0.674
Mof_O 	O 	0.83112	0.21616	0.3731	-0.261
Mof_O 	O 	0.9486	0.1832	0.4192	-0.425
Mof_O 	O 	0.959	0.274	0.4772	-0.397
Mof_O 	O 	0.8059	0.4015	0.4293	-0.469
Mof_O 	O 	0.7277	0.3345	0.3968	-0.432
Mof_O 	O 	0.7095	0.2849	0.5513	-0.44
Mof_O 	O 	0.6596	0.2185	0.4807	-0.431
Mof_O 	O 	0.7459	0.0898	0.4574	-0.405
Mof_O 	O 	0.8416	0.0918	0.4066	-0.426
Mof_O 	O 	0.9669	0.0679	0.327	-0.68
Mof_O 	O 	0.1269	0.33112	0.21616	-0.261
Mof_O 	O 	0.0808	0.4486	0.1832	-0.424
Mof_O 	O 	0.0228	0.459	0.274	-0.396
Mof_O 	O 	0.0707	0.3059	0.4015	-0.469
Mof_O 	O 	0.1032	0.2277	0.3345	-0.432
Mof_O 	O 	0.9487	0.2095	0.2849	-0.438
Mof_O 	O 	0.0193	0.1596	0.2185	-0.425
Mof_O 	O 	0.0426	0.2459	0.0898	-0.403
Mof_O 	O 	0.0934	0.3416	0.0918	-0.425
Mof_O 	O 	0.173	0.4669	0.0679	-0.676
Mof_O 	O 	0.3731	0.66888	0.71616	-0.261
Mof_O 	O 	0.4192	0.5514	0.6832	-0.424
Mof_O 	O 	0.4772	0.541	0.774	-0.397
Mof_O 	O 	0.4293	0.6941	0.9015	-0.469
Mof_O 	O 	0.3968	0.7723	0.8345	-0.432
Mof_O 	O 	0.5513	0.7905	0.7849	-0.44
Mof_O 	O 	0.4807	0.8404	0.7185	-0.431
Mof_O 	O 	0.4574	0.7541	0.5898	-0.405
Mof_O 	O 	0.4066	0.6584	0.5918	-0.425
Mof_O 	O 	0.327	0.5331	0.5679	-0.676
Mof_O 	O 	0.8731	0.83112	0.28384	-0.261
Mof_O 	O 	0.9192	0.9486	0.3168	-0.423
Mof_O 	O 	0.9772	0.959	0.226	-0.396
Mof_O 	O 	0.9293	0.8059	0.0985	-0.47
Mof_O 	O 	0.8968	0.7277	0.1655	-0.432
Mof_O 	O 	0.0513	0.7095	0.2151	-0.44
Mof_O 	O 	0.9807	0.6596	0.2815	-0.431
Mof_O 	O 	0.9574	0.7459	0.4102	-0.404
Mof_O 	O 	0.9066	0.8416	0.4082	-0.425
Mof_O 	O 	0.827	0.9669	0.4321	-0.674
Mof_O 	O 	0.6269	0.16888	0.78384	-0.261
Mof_O 	O 	0.5808	0.0514	0.8168	-0.425
Mof_O 	O 	0.5228	0.041	0.726	-0.397
Mof_O 	O 	0.5707	0.1941	0.5985	-0.469
Mof_O 	O 	0.6032	0.2723	0.6655	-0.432
Mof_O 	O 	0.4487	0.2905	0.7151	-0.44
Mof_O 	O 	0.5193	0.3404	0.7815	-0.431
Mof_O 	O 	0.5426	0.2541	0.9102	-0.405
Mof_O 	O 	0.5934	0.1584	0.9082	-0.426
Mof_O 	O 	0.673	0.0331	0.9321	-0.68
Mof_O 	O 	0.21616	0.1269	0.33112	-0.261
Mof_O 	O 	0.1832	0.0808	0.4486	-0.424
Mof_O 	O 	0.274	0.0228	0.459	-0.396
Mof_O 	O 	0.4015	0.0707	0.3059	-0.469
Mof_O 	O 	0.3345	0.1032	0.2277	-0.432
Mof_O 	O 	0.2849	0.9487	0.2095	-0.438
Mof_O 	O 	0.2185	0.0193	0.1596	-0.425
Mof_O 	O 	0.0898	0.0426	0.2459	-0.403
Mof_O 	O 	0.0918	0.0934	0.3416	-0.425
Mof_O 	O 	0.0679	0.173	0.4669	-0.676
Mof_O 	O 	0.71616	0.3731	0.66888	-0.261
Mof_O 	O 	0.6832	0.4192	0.5514	-0.424
Mof_O 	O 	0.774	0.4772	0.541	-0.397
Mof_O 	O 	0.9015	0.4293	0.6941	-0.469
Mof_O 	O 	0.8345	0.3968	0.7723	-0.432
Mof_O 	O 	0.7849	0.5513	0.7905	-0.44
Mof_O 	O 	0.7185	0.4807	0.8404	-0.431
Mof_O 	O 	0.5898	0.4574	0.7541	-0.405
Mof_O 	O 	0.5918	0.4066	0.6584	-0.425
Mof_O 	O 	0.5679	0.327	0.5331	-0.676
Mof_O 	O 	0.28384	0.8731	0.83112	-0.261
Mof_O 	O 	0.3168	0.9192	0.9486	-0.423
Mof_O 	O 	0.226	0.9772	0.959	-0.396
Mof_O 	O 	0.0985	0.9293	0.8059	-0.47
Mof_O 	O 	0.1655	0.8968	0.7277	-0.432
Mof_O 	O 	0.2151	0.0513	0.7095	-0.44
Mof_O 	O 	0.2815	0.9807	0.6596	-0.431
Mof_O 	O 	0.4102	0.9574	0.7459	-0.404
Mof_O 	O 	0.4082	0.9066	0.8416	-0.425
Mof_O 	O 	0.4321	0.827	0.9669	-0.674
Mof_O 	O 	0.78384	0.6269	0.16888	-0.261
Mof_O 	O 	0.8168	0.5808	0.0514	-0.425
Mof_O 	O 	0.726	0.5228	0.041	-0.397
Mof_O 	O 	0.5985	0.5707	0.1941	-0.469
Mof_O 	O 	0.6655	0.6032	0.2723	-0.432
Mof_O 	O 	0.7151	0.4487	0.2905	-0.44
Mof_O 	O 	0.7815	0.5193	0.3404	-0.431
Mof_O 	O 	0.9102	0.5426	0.2541	-0.405
Mof_O 	O 	0.9082	0.5934	0.1584	-0.426
Mof_O 	O 	0.9321	0.673	0.0331	-0.68
Mof_O 	O 	0.33112	0.21616	0.1269	-0.261
Mof_O 	O 	0.4486	0.1832	0.0808	-0.424
Mof_O 	O 	0.459	0.274	0.0228	-0.396
Mof_O 	O 	0.3059	0.4015	0.0707	-0.469
Mof_O 	O 	0.2277	0.3345	0.1032	-0.432
Mof_O 	O 	0.2095	0.2849	0.9487	-0.438
Mof_O 	O 	0.1596	0.2185	0.0193	-0.425
Mof_O 	O 	0.2459	0.0898	0.0426	-0.403
Mof_O 	O 	0.3416	0.0918	0.0934	-0.425
Mof_O 	O 	0.4669	0.0679	0.173	-0.676
Mof_O 	O 	0.66888	0.71616	0.3731	-0.261
Mof_O 	O 	0.5514	0.6832	0.4192	-0.424
Mof_O 	O 	0.541	0.774	0.4772	-0.397
Mof_O 	O 	0.6941	0.9015	0.4293	-0.469
Mof_O 	O 	0.7723	0.8345	0.3968	-0.432
Mof_O 	O 	0.7905	0.7849	0.5513	-0.44
Mof_O 	O 	0.8404	0.7185	0.4807	-0.431
Mof_O 	O 	0.7541	0.5898	0.4574	-0.405
Mof_O 	O 	0.6584	0.5918	0.4066	-0.425
Mof_O 	O 	0.5331	0.5679	0.327	-0.676
Mof_O 	O 	0.83112	0.28384	0.8731	-0.261
Mof_O 	O 	0.9486	0.3168	0.9192	-0.423
Mof_O 	O 	0.959	0.226	0.9772	-0.396
Mof_O 	O 	0.8059	0.0985	0.9293	-0.47
Mof_O 	O 	0.7277	0.1655	0.8968	-0.432
Mof_O 	O 	0.7095	0.2151	0.0513	-0.44
Mof_O 	O 	0.6596	0.2815	0.9807	-0.431
Mof_O 	O 	0.7459	0.4102	0.9574	-0.404
Mof_O 	O 	0.8416	0.4082	0.9066	-0.425
Mof_O 	O 	0.9669	0.4321	0.827	-0.674
Mof_O 	O 	0.16888	0.78384	0.6269	-0.261
Mof_O 	O 	0.0514	0.8168	0.5808	-0.425
Mof_O 	O 	0.041	0.726	0.5228	-0.397
Mof_O 	O 	0.1941	0.5985	0.5707	-0.469
Mof_O 	O 	0.2723	0.6655	0.6032	-0.432
Mof_O 	O 	0.2905	0.7151	0.4487	-0.44
Mof_O 	O 	0.3404	0.7815	0.5193	-0.431
Mof_O 	O 	0.2541	0.9102	0.5426	-0.405
Mof_O 	O 	0.1584	0.9082	0.5934	-0.426
Mof_O 	O 	0.0331	0.9321	0.673	-0.68
_end
