data_functionalizedCrystal
_audit_creation_method	'EQeq! by Chris Wilmer'
_symmetry_space_group_name_H-M	'P1'
_symmetry_Int_Tables_number	1
_symmetry_cell_setting	triclinic
loop_
_symmetry_equiv_pos_as_xyz
  x,y,z
_cell_length_a	12.7112
_cell_length_b	12.7112
_cell_length_c	13.7568
_cell_angle_alpha	67.8503
_cell_angle_beta	65.1878
_cell_angle_gamma	97.9203
loop_
_atom_site_label
_atom_site_type_symbol
_atom_site_fract_x
_atom_site_fract_y
_atom_site_fract_z
_atom_site_charge
Mof_Mn	Mn	0.5	0	0.5	0.904
Mof_Mn	Mn	-0	0	-0	0.836
Mof_Mn	Mn	0.68731	0.93731	0.25	1.047
Mof_Mn	Mn	0.31269	0.06269	0.75	0.952
Mof_H 	H 	0.2372	0.6133	0.7235	0.052
Mof_H 	H 	0.1343	0.4065	0.8242	0.063
Mof_H 	H 	0.3478	0.3915	0.5245	0.05
Mof_H 	H 	0.4462	0.5981	0.4219	0.05
Mof_H 	H 	0.25	0.177	0.5244	0.065
Mof_H 	H 	0.0999	0.176	0.4737	0.001
Mof_H 	H 	0.0285	0.8272	0.5795	-0.007
Mof_H 	H 	0.1845	0.8344	0.6223	0.057
Mof_H 	H 	0.8368	0.9607	0.7765	0.066
Mof_H 	H 	0.7307	0.9585	0.6758	0.068
Mof_H 	H 	0.416	0.8723	0.9755	0.077
Mof_H 	H 	0.52	0.8681	0.0781	0.02
Mof_H 	H 	0.2014	0.7744	0.9756	0.063
Mof_H 	H 	0.1497	0.5736	0.0263	0.005
Mof_H 	H 	0.9067	0.608	0.9205	0.052
Mof_H 	H 	0.9567	0.8068	0.8777	0.047
Mof_H 	H 	0.7628	0.3867	0.2765	0.052
Mof_H 	H 	0.8657	0.5935	0.1758	0.052
Mof_H 	H 	0.6522	0.6085	0.4755	0.051
Mof_H 	H 	0.5538	0.4019	0.5781	0.054
Mof_H 	H 	0.75	0.823	0.4756	-0.003
Mof_H 	H 	0.9001	0.824	0.5263	0.144
Mof_H 	H 	0.9715	0.1728	0.4205	0.151
Mof_H 	H 	0.8155	0.1656	0.3777	0.005
Mof_H 	H 	0.1632	0.0393	0.2235	0.036
Mof_H 	H 	0.2693	0.0415	0.3242	0.046
Mof_H 	H 	0.584	0.1277	0.0245	0.029
Mof_H 	H 	0.48	0.1319	0.9219	0.077
Mof_H 	H 	0.7986	0.2256	0.0244	0.004
Mof_H 	H 	0.8503	0.4264	0.9737	0.13
Mof_H 	H 	0.0933	0.392	0.0795	0.093
Mof_H 	H 	0.0433	0.1932	0.1223	0.017
Mof_C 	C 	0.429	0.7602	0.4968	0.37
Mof_C 	C 	0.355	0.6269	0.5625	-0.082
Mof_C 	C 	0.2604	0.5689	0.6827	-0.011
Mof_C 	C 	0.1992	0.4444	0.7434	-0.026
Mof_C 	C 	0.2322	0.3765	0.6869	-0.069
Mof_C 	C 	0.3251	0.4358	0.5655	-0.024
Mof_C 	C 	0.3847	0.5597	0.5042	-0.014
Mof_C 	C 	0.1746	0.2396	0.7558	0.357
Mof_C 	C 	0.2047	0.1051	0.5356	-0.04
Mof_C 	C 	0.115	0.1047	0.5045	0.048
Mof_C 	C 	0.0476	0.0011	0.5179	-0.24
Mof_C 	C 	0.0739	0.9005	0.5656	0.099
Mof_C 	C 	0.1658	0.904	0.594	0.01
Mof_C 	C 	0.757	0.9258	0.0032	0.316
Mof_C 	C 	0.6894	0.9175	0.9375	-0.059
Mof_C 	C 	0.7516	0.9431	0.8173	-0.012
Mof_C 	C 	0.6878	0.9426	0.7566	-0.022
Mof_C 	C 	0.5634	0.9191	0.8131	-0.049
Mof_C 	C 	0.5013	0.8906	0.9345	-0.048
Mof_C 	C 	0.5639	0.8889	0.9958	0.051
Mof_C 	C 	0.4954	0.9304	0.7442	0.359
Mof_C 	C 	0.1407	0.7403	0.9644	0.008
Mof_C 	C 	0.1092	0.6195	0.9955	0.006
Mof_C 	C 	0.019	0.5655	0.9821	-0.04
Mof_C 	C 	0.9661	0.6395	0.9344	-0.049
Mof_C 	C 	0.998	0.7598	0.906	0.047
Mof_C 	C 	0.571	0.2398	0.5032	0.366
Mof_C 	C 	0.645	0.3731	0.4375	-0.079
Mof_C 	C 	0.7396	0.4311	0.3173	-0.018
Mof_C 	C 	0.8008	0.5556	0.2566	-0.018
Mof_C 	C 	0.7678	0.6235	0.3131	-0.075
Mof_C 	C 	0.6749	0.5642	0.4345	-0.018
Mof_C 	C 	0.6153	0.4403	0.4958	-0.018
Mof_C 	C 	0.8254	0.7604	0.2442	0.363
Mof_C 	C 	0.7953	0.8949	0.4644	0.17
Mof_C 	C 	0.885	0.8953	0.4955	-0.283
Mof_C 	C 	0.9524	0.9989	0.4821	0.334
Mof_C 	C 	0.9261	0.0995	0.4344	-0.334
Mof_C 	C 	0.8342	0.096	0.406	0.122
Mof_C 	C 	0.243	0.0742	0.9968	0.415
Mof_C 	C 	0.3106	0.0825	0.0625	-0.104
Mof_C 	C 	0.2484	0.0569	0.1827	-0.015
Mof_C 	C 	0.3122	0.0574	0.2434	-0.023
Mof_C 	C 	0.4366	0.0809	0.1869	-0.094
Mof_C 	C 	0.4987	0.1094	0.0655	0.001
Mof_C 	C 	0.4361	0.1111	0.0042	-0.072
Mof_C 	C 	0.5046	0.0696	0.2558	0.367
Mof_C 	C 	0.8593	0.2597	0.0356	0.12
Mof_C 	C 	0.8908	0.3805	0.0045	-0.228
Mof_C 	C 	0.981	0.4345	0.0179	0.145
Mof_C 	C 	0.0339	0.3605	0.0656	-0.205
Mof_C 	C 	0.002	0.2402	0.094	0.074
Mof_N 	N 	0.2273	0.0054	0.5811	-0.058
Mof_N 	N 	0.0865	0.8084	0.9189	-0.057
Mof_N 	N 	0.7727	0.9946	0.4189	-0.083
Mof_N 	N 	0.9135	0.1916	0.0811	-0.076
Mof_O 	O 	0.4071	0.8146	0.5595	-0.346
Mof_O 	O 	0.508	0.8073	0.3853	-0.382
Mof_O 	O 	0.0843	0.1908	0.8627	-0.345
Mof_O 	O 	0.22332	0.18422	0.7009	-0.382
Mof_O 	O 	0.3124	0.0058	0.6138	-0.298
Mof_O 	O 	0.8741	0.9666	0.9405	-0.292
Mof_O 	O 	0.6926	0.8933	0.1147	-0.368
Mof_O 	O 	0.5535	0.947	0.6373	-0.33
Mof_O 	O 	0.38512	0.92422	0.7991	-0.351
Mof_O 	O 	0.1196	0.9262	0.8862	-0.234
Mof_O 	O 	0.5929	0.1854	0.4405	-0.368
Mof_O 	O 	0.492	0.1927	0.6147	-0.388
Mof_O 	O 	0.9157	0.8092	0.1373	-0.333
Mof_O 	O 	0.77668	0.81578	0.2991	-0.375
Mof_O 	O 	0.6876	0.9942	0.3862	-0.252
Mof_O 	O 	0.1259	0.0334	0.0595	-0.403
Mof_O 	O 	0.3074	0.1067	0.8853	-0.398
Mof_O 	O 	0.4465	0.053	0.3627	-0.367
Mof_O 	O 	0.61488	0.07578	0.2009	-0.408
Mof_O 	O 	0.8804	0.0738	0.1138	-0.291
_end
