data_functionalizedCrystal
_audit_creation_method	'EQeq! by Chris Wilmer'
_symmetry_space_group_name_H-M	'P1'
_symmetry_Int_Tables_number	1
_symmetry_cell_setting	triclinic
loop_
_symmetry_equiv_pos_as_xyz
  x,y,z
_cell_length_a	20.131
_cell_length_b	15.67
_cell_length_c	9.097
_cell_angle_alpha	90
_cell_angle_beta	105.988
_cell_angle_gamma	90
loop_
_atom_site_label
_atom_site_type_symbol
_atom_site_fract_x
_atom_site_fract_y
_atom_site_fract_z
_atom_site_charge
Mof_Ga	Ga	0.16196	0.13569	0.33238	4.191
Mof_Ga	Ga	0.25196	0.88372	0.43563	4.327
Mof_P 	P 	0.21073	0.97965	0.13595	1.122
Mof_P 	P 	0.14413	0.23309	0.00449	0.995
Mof_C 	C 	0.2198	0.2757	0.5113	0.317
Mof_O 	O 	0.1608	0.2459	0.4585	-0.779
Mof_O 	O 	0.2339	0.3458	0.5826	-0.852
Mof_O 	O 	0.063	0.1334	0.2696	-0.964
Mof_O 	O 	0.1697	0.2136	0.1726	-1.126
Mof_O 	O 	0.1707	0.0351	0.2178	-1.135
Mof_O 	O 	0.2566	0.916	0.2477	-1.234
Mof_O 	O 	0.1596	0.9328	0.0082	-1.059
Mof_O 	O 	0.2625	0.0308	0.0745	-1.235
Mof_O 	O 	0.1678	0.1646	0.9095	-1.239
Mof_O 	O 	0.174	0.319	0.9725	-1.239
Mof_O 	O 	0.0663	0.2381	0.9438	-0.296
Mof_O 	O 	0.0073	0.2489	0.3867	-0.293
Mof_Ga	Ga	0.66196	0.63569	0.33238	4.205
Mof_Ga	Ga	0.75196	0.38372	0.43563	4.338
Mof_P 	P 	0.71073	0.47965	0.13595	1.132
Mof_P 	P 	0.64413	0.73309	0.00449	0.978
Mof_C 	C 	0.7198	0.7757	0.5113	0.316
Mof_O 	O 	0.6608	0.7459	0.4585	-0.777
Mof_O 	O 	0.7339	0.8458	0.5826	-0.848
Mof_O 	O 	0.563	0.6334	0.2696	-0.965
Mof_O 	O 	0.6697	0.7136	0.1726	-1.124
Mof_O 	O 	0.6707	0.5351	0.2178	-1.138
Mof_O 	O 	0.7566	0.416	0.2477	-1.232
Mof_O 	O 	0.6596	0.4328	0.0082	-1.05
Mof_O 	O 	0.7625	0.5308	0.0745	-1.247
Mof_O 	O 	0.6678	0.6646	0.9095	-1.237
Mof_O 	O 	0.674	0.819	0.9725	-1.219
Mof_O 	O 	0.5663	0.7381	0.9438	-0.26
Mof_O 	O 	0.5073	0.7489	0.3867	-0.271
Mof_Ga	Ga	0.83804	0.13569	0.16762	4.208
Mof_Ga	Ga	0.74804	0.88372	0.06437	4.301
Mof_P 	P 	0.78927	0.97965	0.36405	1.125
Mof_P 	P 	0.85587	0.23309	0.49551	0.987
Mof_C 	C 	0.7802	0.2757	0.9887	0.302
Mof_O 	O 	0.8392	0.2459	0.0415	-0.764
Mof_O 	O 	0.7661	0.3458	0.9174	-0.844
Mof_O 	O 	0.937	0.1334	0.2304	-0.916
Mof_O 	O 	0.8303	0.2136	0.3274	-1.121
Mof_O 	O 	0.8293	0.0351	0.2822	-1.13
Mof_O 	O 	0.7434	0.916	0.2523	-1.229
Mof_O 	O 	0.8404	0.9328	0.4918	-1.044
Mof_O 	O 	0.7375	0.0308	0.4255	-1.246
Mof_O 	O 	0.8322	0.1646	0.5905	-1.234
Mof_O 	O 	0.826	0.319	0.5275	-1.227
Mof_O 	O 	0.9337	0.2381	0.5562	-0.239
Mof_O 	O 	0.9927	0.2489	0.1133	-0.205
Mof_Ga	Ga	0.33804	0.63569	0.16762	4.203
Mof_Ga	Ga	0.24804	0.38372	0.06437	4.332
Mof_P 	P 	0.28927	0.47965	0.36405	1.131
Mof_P 	P 	0.35587	0.73309	0.49551	0.987
Mof_C 	C 	0.2802	0.7757	0.9887	0.329
Mof_O 	O 	0.3392	0.7459	0.0415	-0.784
Mof_O 	O 	0.2661	0.8458	0.9174	-0.849
Mof_O 	O 	0.437	0.6334	0.2304	-0.964
Mof_O 	O 	0.3303	0.7136	0.3274	-1.125
Mof_O 	O 	0.3293	0.5351	0.2822	-1.138
Mof_O 	O 	0.2434	0.416	0.2523	-1.237
Mof_O 	O 	0.3404	0.4328	0.4918	-1.051
Mof_O 	O 	0.2375	0.5308	0.4255	-1.251
Mof_O 	O 	0.3322	0.6646	0.5905	-1.236
Mof_O 	O 	0.326	0.819	0.5275	-1.229
Mof_O 	O 	0.4337	0.7381	0.5562	-0.264
Mof_O 	O 	0.4927	0.7489	0.1133	-0.272
Mof_Ga	Ga	0.83804	0.86431	0.66762	4.196
Mof_Ga	Ga	0.74804	0.11628	0.56437	4.331
Mof_P 	P 	0.78927	0.02035	0.86405	1.122
Mof_P 	P 	0.85587	0.76691	0.99551	0.993
Mof_C 	C 	0.7802	0.7243	0.4887	0.315
Mof_O 	O 	0.8392	0.7541	0.5415	-0.77
Mof_O 	O 	0.7661	0.6542	0.4174	-0.846
Mof_O 	O 	0.937	0.8666	0.7304	-0.916
Mof_O 	O 	0.8303	0.7864	0.8274	-1.119
Mof_O 	O 	0.8293	0.9649	0.7822	-1.127
Mof_O 	O 	0.7434	0.084	0.7523	-1.234
Mof_O 	O 	0.8404	0.0672	0.9918	-1.05
Mof_O 	O 	0.7375	0.9692	0.9255	-1.235
Mof_O 	O 	0.8322	0.8354	0.0905	-1.231
Mof_O 	O 	0.826	0.681	0.0275	-1.23
Mof_O 	O 	0.9337	0.7619	0.0562	-0.242
Mof_O 	O 	0.9927	0.7511	0.6133	-0.209
Mof_Ga	Ga	0.33804	0.36431	0.66762	4.204
Mof_Ga	Ga	0.24804	0.61628	0.56437	4.326
Mof_P 	P 	0.28927	0.52035	0.86405	1.131
Mof_P 	P 	0.35587	0.26691	0.99551	0.979
Mof_C 	C 	0.2802	0.2243	0.4887	0.315
Mof_O 	O 	0.3392	0.2541	0.5415	-0.777
Mof_O 	O 	0.2661	0.1542	0.4174	-0.846
Mof_O 	O 	0.437	0.3666	0.7304	-0.964
Mof_O 	O 	0.3303	0.2864	0.8274	-1.124
Mof_O 	O 	0.3293	0.4649	0.7822	-1.138
Mof_O 	O 	0.2434	0.584	0.7523	-1.236
Mof_O 	O 	0.3404	0.5672	0.9918	-1.049
Mof_O 	O 	0.2375	0.4692	0.9255	-1.252
Mof_O 	O 	0.3322	0.3354	0.0905	-1.235
Mof_O 	O 	0.326	0.181	0.0275	-1.219
Mof_O 	O 	0.4337	0.2619	0.0562	-0.261
Mof_O 	O 	0.4927	0.2511	0.6133	-0.271
Mof_Ga	Ga	0.16196	0.86431	0.83238	4.203
Mof_Ga	Ga	0.25196	0.11628	0.93563	4.3
Mof_P 	P 	0.21073	0.02035	0.63595	1.125
Mof_P 	P 	0.14413	0.76691	0.50449	0.988
Mof_C 	C 	0.2198	0.7243	0.0113	0.303
Mof_O 	O 	0.1608	0.7541	0.9585	-0.774
Mof_O 	O 	0.2339	0.6542	0.0826	-0.85
Mof_O 	O 	0.063	0.8666	0.7696	-0.965
Mof_O 	O 	0.1697	0.7864	0.6726	-1.128
Mof_O 	O 	0.1707	0.9649	0.7178	-1.137
Mof_O 	O 	0.2566	0.084	0.7477	-1.229
Mof_O 	O 	0.1596	0.0672	0.5082	-1.053
Mof_O 	O 	0.2625	0.9692	0.5745	-1.244
Mof_O 	O 	0.1678	0.8354	0.4095	-1.242
Mof_O 	O 	0.174	0.681	0.4725	-1.236
Mof_O 	O 	0.0663	0.7619	0.4438	-0.293
Mof_O 	O 	0.0073	0.7511	0.8867	-0.29
Mof_Ga	Ga	0.66196	0.36431	0.83238	4.205
Mof_Ga	Ga	0.75196	0.61628	0.93563	4.344
Mof_P 	P 	0.71073	0.52035	0.63595	1.132
Mof_P 	P 	0.64413	0.26691	0.50449	0.988
Mof_C 	C 	0.7198	0.2243	0.0113	0.329
Mof_O 	O 	0.6608	0.2541	0.9585	-0.784
Mof_O 	O 	0.7339	0.1542	0.0826	-0.85
Mof_O 	O 	0.563	0.3666	0.7696	-0.965
Mof_O 	O 	0.6697	0.2864	0.6726	-1.125
Mof_O 	O 	0.6707	0.4649	0.7178	-1.138
Mof_O 	O 	0.7566	0.584	0.7477	-1.234
Mof_O 	O 	0.6596	0.5672	0.5082	-1.051
Mof_O 	O 	0.7625	0.4692	0.5745	-1.246
Mof_O 	O 	0.6678	0.3354	0.4095	-1.239
Mof_O 	O 	0.674	0.181	0.4725	-1.23
Mof_O 	O 	0.5663	0.2619	0.4438	-0.264
Mof_O 	O 	0.5073	0.2511	0.8867	-0.272
Mof_P 	P 	5.40248e-34	0.18896	0.25	0.751
Mof_P 	P 	0.5	0.68896	0.25	0.839
Mof_P 	P 	1.62074e-33	0.81104	0.75	0.754
Mof_P 	P 	0.5	0.31104	0.75	0.839
_end
