data_functionalizedCrystal
_audit_creation_method	'EQeq! by Chris Wilmer'
_symmetry_space_group_name_H-M	'P1'
_symmetry_Int_Tables_number	1
_symmetry_cell_setting	triclinic
loop_
_symmetry_equiv_pos_as_xyz
  x,y,z
_cell_length_a	16.6606
_cell_length_b	16.6606
_cell_length_c	51.316
_cell_angle_alpha	90
_cell_angle_beta	90
_cell_angle_gamma	120
loop_
_atom_site_label
_atom_site_type_symbol
_atom_site_fract_x
_atom_site_fract_y
_atom_site_fract_z
_atom_site_charge
Mof_W 	W 	0.74842	0.47997	0.02976	1.003
Mof_Yb	Yb	0.1163	0.77159	0.07954	1.304
Mof_O 	O 	0.58	0.4724	0.0766	-0.477
Mof_C 	C 	0.3775	0.9402	0.0297	-0.212
Mof_O 	O 	0.8779	0.5478	0.0437	-0.467
Mof_O 	O 	0.6804	0.5107	0.118	-0.447
Mof_O 	O 	0.7277	0.5697	0.046	-0.439
Mof_O 	O 	0.7314	0.4423	0.1558	-0.432
Mof_O 	O 	0.8386	0.6112	0.088	-0.468
Mof_O 	O 	0.2457	0.8582	0.0564	-0.499
Mof_O 	O 	0.0023	0.6141	0.0824	-0.463
Mof_O 	O 	0.3743	0.0891	0.9519	-0.461
Mof_C 	C 	0.3803	0.0172	0.991	-0.27
Mof_N 	N 	0.5038	0.9951	0.9975	-0.127
Mof_C 	C 	0.4636	0.0297	0.987	0.118
Mof_H 	H 	0.498	0.0693	0.9727	-0.022
Mof_C 	C 	0.3349	0.9675	0.013	0.234
Mof_H 	H 	0.2721	0.9521	0.0164	-0.021
Mof_C 	C 	0.4664	0.9553	0.0222	0.14
Mof_H 	H 	0.4984	0.9327	0.0328	-0.009
Mof_C 	C 	0.33	0.047	0.9723	0.363
Mof_O 	O 	0.3714	0.867	0.0718	-0.305
Mof_C 	C 	0.3291	0.8836	0.0538	0.412
Mof_O 	O 	0.7394	0.4508	0.0725	-0.35
Mof_W 	W 	0.7092	0.56075	0.084	1.025
Mof_W 	W 	0.88554	0.5249	0.07994	1.228
Mof_O 	O 	0.2603	0.051	0.9824	-0.315
Mof_O 	O 	0.7718	0.3785	0.0272	-0.455
Mof_W 	W 	0.80018	0.39208	0.1406	1.026
Mof_O 	O 	0.8543	0.4842	0.1168	-0.466
Mof_W 	W 	0.41509	0.8133	0.36309	1.024
Mof_Yb	Yb	0.78297	0.10492	0.41288	1.115
Mof_O 	O 	0.24667	0.80573	0.40993	-0.477
Mof_C 	C 	0.04417	0.27353	0.36303	-0.105
Mof_O 	O 	0.54457	0.88113	0.37703	-0.442
Mof_O 	O 	0.34707	0.84403	0.45133	-0.443
Mof_O 	O 	0.39437	0.90303	0.37933	-0.43
Mof_O 	O 	0.39807	0.77563	0.48913	-0.434
Mof_O 	O 	0.50527	0.94453	0.42133	-0.441
Mof_O 	O 	0.91237	0.19153	0.38973	-0.473
Mof_O 	O 	0.66897	0.94743	0.41573	-0.473
Mof_O 	O 	0.04097	0.42243	0.28523	-0.334
Mof_C 	C 	0.04697	0.35053	0.32433	-0.107
Mof_N 	N 	0.17047	0.32843	0.33083	-0.153
Mof_C 	C 	0.13027	0.36303	0.32033	0.125
Mof_H 	H 	0.16467	0.40263	0.30603	-0.004
Mof_C 	C 	0.00157	0.30083	0.34633	0.178
Mof_H 	H 	0.93877	0.28543	0.34973	-0.069
Mof_C 	C 	0.13307	0.28863	0.35553	0.077
Mof_H 	H 	0.16507	0.26603	0.36613	0.003
Mof_C 	C 	0.99667	0.38033	0.30563	0.201
Mof_O 	O 	0.03807	0.20033	0.40513	-0.227
Mof_C 	C 	0.99577	0.21693	0.38713	0.226
Mof_O 	O 	0.40607	0.78413	0.40583	-0.362
Mof_W 	W 	0.37587	0.89408	0.41733	1.051
Mof_W 	W 	0.55221	0.85823	0.41327	1.296
Mof_O 	O 	0.92697	0.38433	0.31573	-0.285
Mof_O 	O 	0.43847	0.71183	0.36053	-0.452
Mof_W 	W 	0.46685	0.72541	0.47394	1.043
Mof_O 	O 	0.52097	0.81753	0.45013	-0.455
Mof_W 	W 	0.08175	0.14664	0.69642	1.079
Mof_Yb	Yb	0.44963	0.43826	0.74621	1.244
Mof_O 	O 	0.91333	0.13907	0.74327	-0.511
Mof_C 	C 	0.71083	0.60687	0.69637	-0.189
Mof_O 	O 	0.21123	0.21447	0.71037	-0.461
Mof_O 	O 	0.01373	0.17737	0.78467	-0.393
Mof_O 	O 	0.06103	0.23637	0.71267	-0.424
Mof_O 	O 	0.06473	0.10897	0.82247	-0.39
Mof_O 	O 	0.17193	0.27787	0.75467	-0.465
Mof_O 	O 	0.57903	0.52487	0.72307	-0.502
Mof_O 	O 	0.33563	0.28077	0.74907	-0.516
Mof_O 	O 	0.70763	0.75577	0.61857	-0.455
Mof_C 	C 	0.71363	0.68387	0.65767	-0.207
Mof_N 	N 	0.83713	0.66177	0.66417	-0.18
Mof_C 	C 	0.79693	0.69637	0.65367	0.177
Mof_H 	H 	0.83133	0.73597	0.63937	-0.034
Mof_C 	C 	0.66823	0.63417	0.67967	0.132
Mof_H 	H 	0.60543	0.61877	0.68307	-0.012
Mof_C 	C 	0.79973	0.62197	0.68887	0.105
Mof_H 	H 	0.83173	0.59937	0.69947	-0.013
Mof_C 	C 	0.66333	0.71367	0.63897	0.361
Mof_O 	O 	0.70473	0.53367	0.73847	-0.312
Mof_C 	C 	0.66243	0.55027	0.72047	0.394
Mof_O 	O 	0.07273	0.11747	0.73917	-0.362
Mof_W 	W 	0.04253	0.22742	0.75066	1.089
Mof_W 	W 	0.21887	0.19157	0.74661	1.296
Mof_O 	O 	0.59363	0.71767	0.64907	-0.293
Mof_O 	O 	0.10513	0.04517	0.69387	-0.494
Mof_W 	W 	0.13351	0.05875	0.80727	0.948
Mof_O 	O 	0.18763	0.15087	0.78347	-0.457
Mof_W 	W 	0.52003	0.26845	0.02976	1.009
Mof_Yb	Yb	0.22841	0.34471	0.07954	1.255
Mof_O 	O 	0.5276	0.1076	0.0766	-0.485
Mof_C 	C 	0.0598	0.4373	0.0297	-0.22
Mof_O 	O 	0.4522	0.3301	0.0437	-0.453
Mof_O 	O 	0.4893	0.1697	0.118	-0.45
Mof_O 	O 	0.4303	0.158	0.046	-0.447
Mof_O 	O 	0.5577	0.2891	0.1558	-0.434
Mof_O 	O 	0.3888	0.2274	0.088	-0.461
Mof_O 	O 	0.1418	0.3875	0.0564	-0.501
Mof_O 	O 	0.3859	0.3882	0.0824	-0.515
Mof_O 	O 	0.9109	0.2852	0.9519	-0.464
Mof_C 	C 	0.9828	0.3631	0.991	-0.286
Mof_N 	N 	0.0049	0.5087	0.9975	-0.122
Mof_C 	C 	0.9703	0.4339	0.987	0.112
Mof_H 	H 	0.9307	0.4287	0.9727	-0.024
Mof_C 	C 	0.0325	0.3674	0.013	0.25
Mof_H 	H 	0.0479	0.32	0.0164	-0.033
Mof_C 	C 	0.0447	0.5111	0.0222	0.145
Mof_H 	H 	0.0673	0.5657	0.0328	-0.011
Mof_C 	C 	0.953	0.283	0.9723	0.365
Mof_O 	O 	0.133	0.5044	0.0718	-0.305
Mof_C 	C 	0.1164	0.4455	0.0538	0.414
Mof_O 	O 	0.5492	0.2886	0.0725	-0.355
Mof_W 	W 	0.43925	0.14845	0.084	1.004
Mof_W 	W 	0.4751	0.36064	0.07994	1.297
Mof_O 	O 	0.949	0.2093	0.9824	-0.34
Mof_O 	O 	0.6215	0.3933	0.0272	-0.451
Mof_W 	W 	0.60792	0.4081	0.1406	1.04
Mof_O 	O 	0.5158	0.3701	0.1168	-0.463
Mof_W 	W 	0.1867	0.60178	0.36309	1.025
Mof_Yb	Yb	0.89508	0.67804	0.41288	1.155
Mof_O 	O 	0.19427	0.44093	0.40993	-0.478
Mof_C 	C 	0.72647	0.77063	0.36303	-0.186
Mof_O 	O 	0.11887	0.66343	0.37703	-0.441
Mof_O 	O 	0.15597	0.50303	0.45133	-0.444
Mof_O 	O 	0.09697	0.49133	0.37933	-0.429
Mof_O 	O 	0.22437	0.62243	0.48913	-0.434
Mof_O 	O 	0.05547	0.56073	0.42133	-0.44
Mof_O 	O 	0.80847	0.72083	0.38973	-0.497
Mof_O 	O 	0.05257	0.72153	0.41573	-0.47
Mof_O 	O 	0.57757	0.61853	0.28523	-0.454
Mof_C 	C 	0.64947	0.69643	0.32433	-0.203
Mof_N 	N 	0.67157	0.84203	0.33083	-0.163
Mof_C 	C 	0.63697	0.76723	0.32033	0.174
Mof_H 	H 	0.59737	0.76203	0.30603	-0.022
Mof_C 	C 	0.69917	0.70073	0.34633	0.13
Mof_H 	H 	0.71457	0.65333	0.34973	-0.016
Mof_C 	C 	0.71137	0.84443	0.35553	0.108
Mof_H 	H 	0.73397	0.89903	0.36613	0.002
Mof_C 	C 	0.61967	0.61633	0.30563	0.36
Mof_O 	O 	0.79967	0.83773	0.40513	-0.306
Mof_C 	C 	0.78307	0.77883	0.38713	0.388
Mof_O 	O 	0.21587	0.62193	0.40583	-0.362
Mof_W 	W 	0.10592	0.48178	0.41733	1.053
Mof_W 	W 	0.14177	0.69397	0.41327	1.299
Mof_O 	O 	0.61567	0.54263	0.31573	-0.303
Mof_O 	O 	0.28817	0.72663	0.36053	-0.453
Mof_W 	W 	0.27459	0.74143	0.47394	1.05
Mof_O 	O 	0.18247	0.70343	0.45013	-0.454
Mof_W 	W 	0.85336	0.93512	0.69642	1.065
Mof_Yb	Yb	0.56174	0.01138	0.74621	1.125
Mof_O 	O 	0.86093	0.77427	0.74327	-0.468
Mof_C 	C 	0.39313	0.10397	0.69637	-0.148
Mof_O 	O 	0.78553	0.99677	0.71037	-0.399
Mof_O 	O 	0.82263	0.83637	0.78467	-0.432
Mof_O 	O 	0.76363	0.82467	0.71267	-0.443
Mof_O 	O 	0.89103	0.95577	0.82247	-0.388
Mof_O 	O 	0.72213	0.89407	0.75467	-0.421
Mof_O 	O 	0.47513	0.05417	0.72307	-0.502
Mof_O 	O 	0.71923	0.05487	0.74907	-0.506
Mof_O 	O 	0.24423	0.95187	0.61857	-0.444
Mof_C 	C 	0.31613	0.02977	0.65767	-0.231
Mof_N 	N 	0.33823	0.17537	0.66417	-0.17
Mof_C 	C 	0.30363	0.10057	0.65367	0.181
Mof_H 	H 	0.26403	0.09537	0.63937	-0.041
Mof_C 	C 	0.36583	0.03407	0.67967	0.011
Mof_H 	H 	0.38123	0.98667	0.68307	0.074
Mof_C 	C 	0.37803	0.17777	0.68887	0.09
Mof_H 	H 	0.40063	0.23237	0.69947	-0.004
Mof_C 	C 	0.28633	0.94967	0.63897	0.41
Mof_O 	O 	0.46633	0.17107	0.73847	-0.312
Mof_C 	C 	0.44973	0.11217	0.72047	0.368
Mof_O 	O 	0.88253	0.95527	0.73917	-0.338
Mof_W 	W 	0.77258	0.81512	0.75066	1.02
Mof_W 	W 	0.80843	0.02731	0.74661	1.178
Mof_O 	O 	0.28233	0.87597	0.64907	-0.292
Mof_O 	O 	0.95483	0.05997	0.69387	-0.542
Mof_W 	W 	0.94125	0.07477	0.80727	0.856
Mof_O 	O 	0.84913	0.03677	0.78347	-0.462
Mof_W 	W 	0.73155	0.25158	0.02976	1
Mof_Yb	Yb	0.65529	0.8837	0.07954	1.259
Mof_O 	O 	0.8924	0.42	0.0766	-0.486
Mof_C 	C 	0.5627	0.6225	0.0297	-0.19
Mof_O 	O 	0.6699	0.1221	0.0437	-0.469
Mof_O 	O 	0.8303	0.3196	0.118	-0.451
Mof_O 	O 	0.842	0.2723	0.046	-0.452
Mof_O 	O 	0.7109	0.2686	0.1558	-0.433
Mof_O 	O 	0.7726	0.1614	0.088	-0.472
Mof_O 	O 	0.6125	0.7543	0.0564	-0.504
Mof_O 	O 	0.6118	0.9977	0.0824	-0.467
Mof_O 	O 	0.7148	0.6257	0.9519	-0.456
Mof_C 	C 	0.6369	0.6197	0.991	-0.206
Mof_N 	N 	0.4913	0.4962	0.9975	-0.171
Mof_C 	C 	0.5661	0.5364	0.987	0.177
Mof_H 	H 	0.5713	0.502	0.9727	-0.028
Mof_C 	C 	0.6326	0.6651	0.013	0.132
Mof_H 	H 	0.68	0.7279	0.0164	-0.014
Mof_C 	C 	0.4889	0.5336	0.0222	0.109
Mof_H 	H 	0.4343	0.5016	0.0328	-0.01
Mof_C 	C 	0.717	0.67	0.9723	0.361
Mof_O 	O 	0.4956	0.6286	0.0718	-0.313
Mof_C 	C 	0.5545	0.6709	0.0538	0.395
Mof_O 	O 	0.7114	0.2606	0.0725	-0.347
Mof_W 	W 	0.85155	0.2908	0.084	0.994
Mof_W 	W 	0.63936	0.11446	0.07994	1.235
Mof_O 	O 	0.7907	0.7397	0.9824	-0.306
Mof_O 	O 	0.6067	0.2282	0.0272	-0.455
Mof_W 	W 	0.5919	0.19982	0.1406	1.028
Mof_O 	O 	0.6299	0.1457	0.1168	-0.465
Mof_W 	W 	0.39822	0.58491	0.36309	1.014
Mof_Yb	Yb	0.32196	0.21703	0.41288	1.206
Mof_O 	O 	0.55907	0.75333	0.40993	-0.478
Mof_C 	C 	0.22937	0.95583	0.36303	-0.109
Mof_O 	O 	0.33657	0.45543	0.37703	-0.453
Mof_O 	O 	0.49697	0.65293	0.45133	-0.448
Mof_O 	O 	0.50867	0.60563	0.37933	-0.439
Mof_O 	O 	0.37757	0.60193	0.48913	-0.436
Mof_O 	O 	0.43927	0.49473	0.42133	-0.461
Mof_O 	O 	0.27917	0.08763	0.38973	-0.477
Mof_O 	O 	0.27847	0.33103	0.41573	-0.511
Mof_O 	O 	0.38147	0.95903	0.28523	-0.347
Mof_C 	C 	0.30357	0.95303	0.32433	-0.115
Mof_N 	N 	0.15797	0.82953	0.33083	-0.146
Mof_C 	C 	0.23277	0.86973	0.32033	0.127
Mof_H 	H 	0.23797	0.83533	0.30603	-0.002
Mof_C 	C 	0.29927	0.99843	0.34633	0.168
Mof_H 	H 	0.34667	0.06123	0.34973	-0.06
Mof_C 	C 	0.15557	0.86693	0.35553	0.079
Mof_H 	H 	0.10097	0.83493	0.36613	0.018
Mof_C 	C 	0.38367	0.00333	0.30563	0.218
Mof_O 	O 	0.16227	0.96193	0.40513	-0.215
Mof_C 	C 	0.22117	0.00423	0.38713	0.248
Mof_O 	O 	0.37807	0.59393	0.40583	-0.359
Mof_W 	W 	0.51822	0.62413	0.41733	1.028
Mof_W 	W 	0.30603	0.44779	0.41327	1.297
Mof_O 	O 	0.45737	0.07303	0.31573	-0.286
Mof_O 	O 	0.27337	0.56153	0.36053	-0.453
Mof_W 	W 	0.25857	0.53315	0.47394	1.045
Mof_O 	O 	0.29657	0.47903	0.45013	-0.463
Mof_W 	W 	0.06488	0.91825	0.69642	1.134
Mof_Yb	Yb	0.98862	0.55037	0.74621	1.113
Mof_O 	O 	0.22573	0.08667	0.74327	-0.517
Mof_C 	C 	0.89603	0.28917	0.69637	-0.143
Mof_O 	O 	0.00323	0.78877	0.71037	-0.398
Mof_O 	O 	0.16363	0.98627	0.78467	-0.401
Mof_O 	O 	0.17533	0.93897	0.71267	-0.431
Mof_O 	O 	0.04423	0.93527	0.82247	-0.352
Mof_O 	O 	0.10593	0.82807	0.75467	-0.424
Mof_O 	O 	0.94583	0.42097	0.72307	-0.502
Mof_O 	O 	0.94513	0.66437	0.74907	-0.504
Mof_O 	O 	0.04813	0.29237	0.61857	-0.451
Mof_C 	C 	0.97023	0.28637	0.65767	-0.241
Mof_N 	N 	0.82463	0.16287	0.66417	-0.18
Mof_C 	C 	0.89943	0.20307	0.65367	0.187
Mof_H 	H 	0.90463	0.16867	0.63937	-0.057
Mof_C 	C 	0.96593	0.33177	0.67967	-0.003
Mof_H 	H 	0.01333	0.39457	0.68307	0.084
Mof_C 	C 	0.82223	0.20027	0.68887	0.084
Mof_H 	H 	0.76763	0.16827	0.69947	-0.007
Mof_C 	C 	0.05033	0.33667	0.63897	0.419
Mof_O 	O 	0.82893	0.29527	0.73847	-0.31
Mof_C 	C 	0.88783	0.33757	0.72047	0.364
Mof_O 	O 	0.04473	0.92727	0.73917	-0.309
Mof_W 	W 	0.18488	0.95747	0.75066	1.088
Mof_W 	W 	0.97269	0.78113	0.74661	1.168
Mof_O 	O 	0.12403	0.40637	0.64907	-0.299
Mof_O 	O 	0.94003	0.89487	0.69387	-0.498
Mof_W 	W 	0.92523	0.86649	0.80727	0.97
Mof_O 	O 	0.96323	0.81237	0.78347	-0.469
Mof_W 	W 	0.52003	0.25158	0.52976	1.004
Mof_Yb	Yb	0.22841	0.8837	0.57954	1.302
Mof_O 	O 	0.5276	0.42	0.5766	-0.478
Mof_C 	C 	0.0598	0.6225	0.5297	-0.217
Mof_O 	O 	0.4522	0.1221	0.5437	-0.466
Mof_O 	O 	0.4893	0.3196	0.618	-0.448
Mof_O 	O 	0.4303	0.2723	0.546	-0.44
Mof_O 	O 	0.5577	0.2686	0.6558	-0.433
Mof_O 	O 	0.3888	0.1614	0.588	-0.468
Mof_O 	O 	0.1418	0.7543	0.5564	-0.499
Mof_O 	O 	0.3859	0.9977	0.5824	-0.47
Mof_O 	O 	0.9109	0.6257	0.4519	-0.463
Mof_C 	C 	0.9828	0.6197	0.491	-0.282
Mof_N 	N 	0.0049	0.4962	0.4975	-0.123
Mof_C 	C 	0.9703	0.5364	0.487	0.11
Mof_H 	H 	0.9307	0.502	0.4727	-0.023
Mof_C 	C 	0.0325	0.6651	0.513	0.247
Mof_H 	H 	0.0479	0.7279	0.5164	-0.025
Mof_C 	C 	0.0447	0.5336	0.5222	0.144
Mof_H 	H 	0.0673	0.5016	0.5328	-0.011
Mof_C 	C 	0.953	0.67	0.4723	0.364
Mof_O 	O 	0.133	0.6286	0.5718	-0.305
Mof_C 	C 	0.1164	0.6709	0.5538	0.415
Mof_O 	O 	0.5492	0.2606	0.5725	-0.351
Mof_W 	W 	0.43925	0.2908	0.584	1.026
Mof_W 	W 	0.4751	0.11446	0.57994	1.236
Mof_O 	O 	0.949	0.7397	0.4824	-0.319
Mof_O 	O 	0.6215	0.2282	0.5272	-0.455
Mof_W 	W 	0.60792	0.19982	0.6406	1.027
Mof_O 	O 	0.5158	0.1457	0.6168	-0.466
Mof_W 	W 	0.1867	0.58491	0.86309	1.025
Mof_Yb	Yb	0.89508	0.21703	0.91288	1.11
Mof_O 	O 	0.19427	0.75333	0.90993	-0.477
Mof_C 	C 	0.72647	0.95583	0.86303	-0.115
Mof_O 	O 	0.11887	0.45543	0.87703	-0.441
Mof_O 	O 	0.15597	0.65293	0.95133	-0.443
Mof_O 	O 	0.09697	0.60563	0.87933	-0.429
Mof_O 	O 	0.22437	0.60193	0.98913	-0.433
Mof_O 	O 	0.05547	0.49473	0.92133	-0.439
Mof_O 	O 	0.80847	0.08763	0.88973	-0.475
Mof_O 	O 	0.05257	0.33103	0.91573	-0.469
Mof_O 	O 	0.57757	0.95903	0.78523	-0.348
Mof_C 	C 	0.64947	0.95303	0.82433	-0.119
Mof_N 	N 	0.67157	0.82953	0.83083	-0.155
Mof_C 	C 	0.63697	0.86973	0.82033	0.131
Mof_H 	H 	0.59737	0.83533	0.80603	-0.007
Mof_C 	C 	0.69917	0.99843	0.84633	0.173
Mof_H 	H 	0.71457	0.06123	0.84973	-0.064
Mof_C 	C 	0.71137	0.86693	0.85553	0.081
Mof_H 	H 	0.73397	0.83493	0.86613	0.001
Mof_C 	C 	0.61967	0.00333	0.80563	0.219
Mof_O 	O 	0.79967	0.96193	0.90513	-0.238
Mof_C 	C 	0.78307	0.00423	0.88713	0.244
Mof_O 	O 	0.21587	0.59393	0.90583	-0.362
Mof_W 	W 	0.10592	0.62413	0.91733	1.054
Mof_W 	W 	0.14177	0.44779	0.91327	1.297
Mof_O 	O 	0.61567	0.07303	0.81573	-0.287
Mof_O 	O 	0.28817	0.56153	0.86053	-0.452
Mof_W 	W 	0.27459	0.53315	0.97394	1.044
Mof_O 	O 	0.18247	0.47903	0.95013	-0.454
Mof_W 	W 	0.85336	0.91825	0.19642	1.071
Mof_Yb	Yb	0.56174	0.55037	0.24621	1.243
Mof_O 	O 	0.86093	0.08667	0.24327	-0.505
Mof_C 	C 	0.39313	0.28917	0.19637	-0.189
Mof_O 	O 	0.78553	0.78877	0.21037	-0.46
Mof_O 	O 	0.82263	0.98627	0.28467	-0.398
Mof_O 	O 	0.76363	0.93897	0.21267	-0.425
Mof_O 	O 	0.89103	0.93527	0.32247	-0.394
Mof_O 	O 	0.72213	0.82807	0.25467	-0.464
Mof_O 	O 	0.47513	0.42097	0.22307	-0.501
Mof_O 	O 	0.71923	0.66437	0.24907	-0.516
Mof_O 	O 	0.24423	0.29237	0.11857	-0.454
Mof_C 	C 	0.31613	0.28637	0.15767	-0.206
Mof_N 	N 	0.33823	0.16287	0.16417	-0.179
Mof_C 	C 	0.30363	0.20307	0.15367	0.177
Mof_H 	H 	0.26403	0.16867	0.13937	-0.032
Mof_C 	C 	0.36583	0.33177	0.17967	0.132
Mof_H 	H 	0.38123	0.39457	0.18307	-0.012
Mof_C 	C 	0.37803	0.20027	0.18887	0.105
Mof_H 	H 	0.40063	0.16827	0.19947	-0.013
Mof_C 	C 	0.28633	0.33667	0.13897	0.361
Mof_O 	O 	0.46633	0.29527	0.23847	-0.312
Mof_C 	C 	0.44973	0.33757	0.22047	0.394
Mof_O 	O 	0.88253	0.92727	0.23917	-0.365
Mof_W 	W 	0.77258	0.95747	0.25066	1.081
Mof_W 	W 	0.80843	0.78113	0.24661	1.296
Mof_O 	O 	0.28233	0.40637	0.14907	-0.293
Mof_O 	O 	0.95483	0.89487	0.19387	-0.5
Mof_W 	W 	0.94125	0.86649	0.30727	0.934
Mof_O 	O 	0.84913	0.81237	0.28347	-0.457
Mof_W 	W 	0.73155	0.47997	0.52976	1.009
Mof_Yb	Yb	0.65529	0.77159	0.57954	1.25
Mof_O 	O 	0.8924	0.4724	0.5766	-0.486
Mof_C 	C 	0.5627	0.9402	0.5297	-0.218
Mof_O 	O 	0.6699	0.5478	0.5437	-0.453
Mof_O 	O 	0.8303	0.5107	0.618	-0.451
Mof_O 	O 	0.842	0.5697	0.546	-0.449
Mof_O 	O 	0.7109	0.4423	0.6558	-0.434
Mof_O 	O 	0.7726	0.6112	0.588	-0.462
Mof_O 	O 	0.6125	0.8582	0.5564	-0.501
Mof_O 	O 	0.6118	0.6141	0.5824	-0.515
Mof_O 	O 	0.7148	0.0891	0.4519	-0.463
Mof_C 	C 	0.6369	0.0172	0.491	-0.279
Mof_N 	N 	0.4913	0.9951	0.4975	-0.128
Mof_C 	C 	0.5661	0.0297	0.487	0.12
Mof_H 	H 	0.5713	0.0693	0.4727	-0.025
Mof_C 	C 	0.6326	0.9675	0.513	0.239
Mof_H 	H 	0.68	0.9521	0.5164	-0.032
Mof_C 	C 	0.4889	0.9553	0.5222	0.142
Mof_H 	H 	0.4343	0.9327	0.5328	-0.011
Mof_C 	C 	0.717	0.047	0.4723	0.365
Mof_O 	O 	0.4956	0.867	0.5718	-0.306
Mof_C 	C 	0.5545	0.8836	0.5538	0.412
Mof_O 	O 	0.7114	0.4508	0.5725	-0.354
Mof_W 	W 	0.85155	0.56075	0.584	1
Mof_W 	W 	0.63936	0.5249	0.57994	1.297
Mof_O 	O 	0.7907	0.051	0.4824	-0.339
Mof_O 	O 	0.6067	0.3785	0.5272	-0.451
Mof_W 	W 	0.5919	0.39208	0.6406	1.04
Mof_O 	O 	0.6299	0.4842	0.6168	-0.463
Mof_W 	W 	0.39822	0.8133	0.86309	1.024
Mof_Yb	Yb	0.32196	0.10492	0.91288	1.165
Mof_O 	O 	0.55907	0.80573	0.90993	-0.478
Mof_C 	C 	0.22937	0.27353	0.86303	-0.186
Mof_O 	O 	0.33657	0.88113	0.87703	-0.443
Mof_O 	O 	0.49697	0.84403	0.95133	-0.444
Mof_O 	O 	0.50867	0.90303	0.87933	-0.43
Mof_O 	O 	0.37757	0.77563	0.98913	-0.434
Mof_O 	O 	0.43927	0.94453	0.92133	-0.442
Mof_O 	O 	0.27917	0.19153	0.88973	-0.498
Mof_O 	O 	0.27847	0.94743	0.91573	-0.475
Mof_O 	O 	0.38147	0.42243	0.78523	-0.454
Mof_C 	C 	0.30357	0.35053	0.82433	-0.203
Mof_N 	N 	0.15797	0.32843	0.83083	-0.162
Mof_C 	C 	0.23277	0.36303	0.82033	0.173
Mof_H 	H 	0.23797	0.40263	0.80603	-0.021
Mof_C 	C 	0.29927	0.30083	0.84633	0.13
Mof_H 	H 	0.34667	0.28543	0.84973	-0.015
Mof_C 	C 	0.15557	0.28863	0.85553	0.108
Mof_H 	H 	0.10097	0.26603	0.86613	0.004
Mof_C 	C 	0.38367	0.38033	0.80563	0.36
Mof_O 	O 	0.16227	0.20033	0.90513	-0.304
Mof_C 	C 	0.22117	0.21693	0.88713	0.388
Mof_O 	O 	0.37807	0.78413	0.90583	-0.362
Mof_W 	W 	0.51822	0.89408	0.91733	1.05
Mof_W 	W 	0.30603	0.85823	0.91327	1.299
Mof_O 	O 	0.45737	0.38433	0.81573	-0.303
Mof_O 	O 	0.27337	0.71183	0.86053	-0.453
Mof_W 	W 	0.25857	0.72541	0.97394	1.05
Mof_O 	O 	0.29657	0.81753	0.95013	-0.455
Mof_W 	W 	0.06488	0.14664	0.19642	1.072
Mof_Yb	Yb	0.98862	0.43826	0.24621	1.111
Mof_O 	O 	0.22573	0.13907	0.24327	-0.469
Mof_C 	C 	0.89603	0.60687	0.19637	-0.143
Mof_O 	O 	0.00323	0.21447	0.21037	-0.392
Mof_O 	O 	0.16363	0.17737	0.28467	-0.433
Mof_O 	O 	0.17533	0.23637	0.21267	-0.443
Mof_O 	O 	0.04423	0.10897	0.32247	-0.383
Mof_O 	O 	0.10593	0.27787	0.25467	-0.416
Mof_O 	O 	0.94583	0.52487	0.22307	-0.502
Mof_O 	O 	0.94513	0.28077	0.24907	-0.505
Mof_O 	O 	0.04813	0.75577	0.11857	-0.444
Mof_C 	C 	0.97023	0.68387	0.15767	-0.235
Mof_N 	N 	0.82463	0.66177	0.16417	-0.17
Mof_C 	C 	0.89943	0.69637	0.15367	0.182
Mof_H 	H 	0.90463	0.73597	0.13937	-0.044
Mof_C 	C 	0.96593	0.63417	0.17967	-0.005
Mof_H 	H 	0.01333	0.61877	0.18307	0.085
Mof_C 	C 	0.82223	0.62197	0.18887	0.087
Mof_H 	H 	0.76763	0.59937	0.19947	-0.004
Mof_C 	C 	0.05033	0.71367	0.13897	0.417
Mof_O 	O 	0.82893	0.53367	0.23847	-0.311
Mof_C 	C 	0.88783	0.55027	0.22047	0.364
Mof_O 	O 	0.04473	0.11747	0.23917	-0.332
Mof_W 	W 	0.18488	0.22742	0.25066	1.021
Mof_W 	W 	0.97269	0.19157	0.24661	1.164
Mof_O 	O 	0.12403	0.71767	0.14907	-0.293
Mof_O 	O 	0.94003	0.04517	0.19387	-0.542
Mof_W 	W 	0.92523	0.05875	0.30727	0.86
Mof_O 	O 	0.96323	0.15087	0.28347	-0.464
Mof_W 	W 	0.74842	0.26845	0.52976	1
Mof_Yb	Yb	0.1163	0.34471	0.57954	1.265
Mof_O 	O 	0.58	0.1076	0.5766	-0.485
Mof_C 	C 	0.3775	0.4373	0.5297	-0.19
Mof_O 	O 	0.8779	0.3301	0.5437	-0.47
Mof_O 	O 	0.6804	0.1697	0.618	-0.45
Mof_O 	O 	0.7277	0.158	0.546	-0.451
Mof_O 	O 	0.7314	0.2891	0.6558	-0.433
Mof_O 	O 	0.8386	0.2274	0.588	-0.473
Mof_O 	O 	0.2457	0.3875	0.5564	-0.504
Mof_O 	O 	0.0023	0.3882	0.5824	-0.461
Mof_O 	O 	0.3743	0.2852	0.4519	-0.456
Mof_C 	C 	0.3803	0.3631	0.491	-0.207
Mof_N 	N 	0.5038	0.5087	0.4975	-0.171
Mof_C 	C 	0.4636	0.4339	0.487	0.177
Mof_H 	H 	0.498	0.4287	0.4727	-0.028
Mof_C 	C 	0.3349	0.3674	0.513	0.133
Mof_H 	H 	0.2721	0.32	0.5164	-0.013
Mof_C 	C 	0.4664	0.5111	0.5222	0.11
Mof_H 	H 	0.4984	0.5657	0.5328	-0.01
Mof_C 	C 	0.33	0.283	0.4723	0.361
Mof_O 	O 	0.3714	0.5044	0.5718	-0.313
Mof_C 	C 	0.3291	0.4455	0.5538	0.395
Mof_O 	O 	0.7394	0.2886	0.5725	-0.346
Mof_W 	W 	0.7092	0.14845	0.584	0.997
Mof_W 	W 	0.88554	0.36064	0.57994	1.227
Mof_O 	O 	0.2603	0.2093	0.4824	-0.304
Mof_O 	O 	0.7718	0.3933	0.5272	-0.455
Mof_W 	W 	0.80018	0.4081	0.6406	1.027
Mof_O 	O 	0.8543	0.3701	0.6168	-0.466
Mof_W 	W 	0.41509	0.60178	0.86309	1.014
Mof_Yb	Yb	0.78297	0.67804	0.91288	1.201
Mof_O 	O 	0.24667	0.44093	0.90993	-0.477
Mof_C 	C 	0.04417	0.77063	0.86303	-0.1
Mof_O 	O 	0.54457	0.66343	0.87703	-0.453
Mof_O 	O 	0.34707	0.50303	0.95133	-0.448
Mof_O 	O 	0.39437	0.49133	0.87933	-0.439
Mof_O 	O 	0.39807	0.62243	0.98913	-0.436
Mof_O 	O 	0.50527	0.56073	0.92133	-0.461
Mof_O 	O 	0.91237	0.72083	0.88973	-0.474
Mof_O 	O 	0.66897	0.72153	0.91573	-0.511
Mof_O 	O 	0.04097	0.61853	0.78523	-0.334
Mof_C 	C 	0.04697	0.69643	0.82433	-0.104
Mof_N 	N 	0.17047	0.84203	0.83083	-0.145
Mof_C 	C 	0.13027	0.76723	0.82033	0.122
Mof_H 	H 	0.16467	0.76203	0.80603	0
Mof_C 	C 	0.00157	0.70073	0.84633	0.174
Mof_H 	H 	0.93877	0.65333	0.84973	-0.066
Mof_C 	C 	0.13307	0.84443	0.85553	0.076
Mof_H 	H 	0.16507	0.89903	0.86613	0.018
Mof_C 	C 	0.99667	0.61633	0.80563	0.2
Mof_O 	O 	0.03807	0.83773	0.90513	-0.206
Mof_C 	C 	0.99577	0.77883	0.88713	0.23
Mof_O 	O 	0.40607	0.62193	0.90583	-0.359
Mof_W 	W 	0.37587	0.48178	0.91733	1.029
Mof_W 	W 	0.55221	0.69397	0.91327	1.297
Mof_O 	O 	0.92697	0.54263	0.81573	-0.284
Mof_O 	O 	0.43847	0.72663	0.86053	-0.453
Mof_W 	W 	0.46685	0.74143	0.97394	1.044
Mof_O 	O 	0.52097	0.70343	0.95013	-0.463
Mof_W 	W 	0.08175	0.93512	0.19642	1.135
Mof_Yb	Yb	0.44963	0.01138	0.24621	1.128
Mof_O 	O 	0.91333	0.77427	0.24327	-0.522
Mof_C 	C 	0.71083	0.10397	0.19637	-0.148
Mof_O 	O 	0.21123	0.99677	0.21037	-0.406
Mof_O 	O 	0.01373	0.83637	0.28467	-0.396
Mof_O 	O 	0.06103	0.82467	0.21267	-0.429
Mof_O 	O 	0.06473	0.95577	0.32247	-0.353
Mof_O 	O 	0.17193	0.89407	0.25467	-0.43
Mof_O 	O 	0.57903	0.05417	0.22307	-0.502
Mof_O 	O 	0.33563	0.05487	0.24907	-0.505
Mof_O 	O 	0.70763	0.95187	0.11857	-0.452
Mof_C 	C 	0.71363	0.02977	0.15767	-0.238
Mof_N 	N 	0.83713	0.17537	0.16417	-0.181
Mof_C 	C 	0.79693	0.10057	0.15367	0.186
Mof_H 	H 	0.83133	0.09537	0.13937	-0.056
Mof_C 	C 	0.66823	0.03407	0.17967	0.013
Mof_H 	H 	0.60543	0.98667	0.18307	0.073
Mof_C 	C 	0.79973	0.17777	0.18887	0.085
Mof_H 	H 	0.83173	0.23237	0.19947	-0.008
Mof_C 	C 	0.66333	0.94967	0.13897	0.412
Mof_O 	O 	0.70473	0.17107	0.23847	-0.31
Mof_C 	C 	0.66243	0.11217	0.22047	0.367
Mof_O 	O 	0.07273	0.95527	0.23917	-0.312
Mof_W 	W 	0.04253	0.81512	0.25066	1.096
Mof_W 	W 	0.21887	0.02731	0.24661	1.183
Mof_O 	O 	0.59363	0.87597	0.14907	-0.299
Mof_O 	O 	0.10513	0.05997	0.19387	-0.493
Mof_W 	W 	0.13351	0.07477	0.30727	0.979
Mof_O 	O 	0.18763	0.03677	0.28347	-0.468
Mof_O 	O 	0.66667	0.33333	0.116	-0.29
Mof_O 	O 	0.33333	0.66667	0.44933	-0.296
Mof_O 	O 	-0	0	0.78267	-0.273
Mof_O 	O 	0.66667	0.33333	0.616	-0.29
Mof_O 	O 	0.33333	0.66667	0.94933	-0.296
Mof_O 	O 	1.6371e-32	0	0.28267	-0.273
_end
