data_functionalizedCrystal
_audit_creation_method	'EQeq! by Chris Wilmer'
_symmetry_space_group_name_H-M	'P1'
_symmetry_Int_Tables_number	1
_symmetry_cell_setting	triclinic
loop_
_symmetry_equiv_pos_as_xyz
  x,y,z
_cell_length_a	8.4752
_cell_length_b	8.4797
_cell_length_c	16.1725
_cell_angle_alpha	78.177
_cell_angle_beta	89.232
_cell_angle_gamma	69.334
loop_
_atom_site_label
_atom_site_type_symbol
_atom_site_fract_x
_atom_site_fract_y
_atom_site_fract_z
_atom_site_charge
Mof_Li	Li	0.76	0.58	0.374	4.212
Mof_Li	Li	0.796	0.901	0.4347	4.211
Mof_Li	Li	0.758	0.243	0.9088	4.439
Mof_Li	Li	0.813	0.226	0.4277	1.543
Mof_Zr	Zr	0.23713	0.12979	0.16443	3.2
Mof_Zr	Zr	0.31408	0.34442	0.64019	3.199
Mof_C 	C 	0.0103	0.5584	0.5151	0.595
Mof_C 	C 	0.0097	0.2661	0.3012	0.574
Mof_C 	C 	0.5387	0.2128	0.5011	0.406
Mof_C 	C 	0.5351	0.3949	0.4921	0.41
Mof_C 	C 	0.5415	0.9103	0.2909	0.566
Mof_C 	C 	0.0006	0.0832	0.0376	0.261
Mof_C 	C 	0.0224	0.0699	0.3115	0.543
Mof_C 	C 	0.9502	0.277	0.0318	0.161
Mof_C 	C 	0.157	0.084	0.7303	0.232
Mof_C 	C 	0.3912	0.389	0.075	0.131
Mof_C 	C 	0.114	0.23	0.7812	0.474
Mof_C 	C 	0.0316	0.6915	0.5645	0.258
Mof_C 	C 	0.548	0.393	0.765	0.181
Mof_C 	C 	0.5196	0.7846	0.2408	0.113
Mof_C 	C 	0.6061	0.1915	0.7754	0.285
Mof_C 	C 	0.4473	0.244	0.0253	0.394
Mof_O 	O 	0.8947	0.6197	0.4568	-1.801
Mof_O 	O 	0.52	0.1514	0.7205	-0.615
Mof_O 	O 	0.6111	0.4562	0.4378	-1.273
Mof_O 	O 	0.127	0.9552	0.7533	-0.239
Mof_O 	O 	0.4205	0.523	0.0499	-0.216
Mof_O 	O 	0.2289	0.1216	0.6656	-0.578
Mof_O 	O 	0.1277	0.9942	0.0943	-0.578
Mof_O 	O 	0.9311	0.8404	0.5468	-1.049
Mof_O 	O 	0.6336	0.1168	0.4572	-1.326
Mof_O 	O 	0.9236	0.3532	0.3464	-1.385
Mof_O 	O 	0.8376	0.3791	0.9756	-0.929
Mof_O 	O 	0.1621	0.3525	0.7478	-0.682
Mof_O 	O 	0.6513	0.8558	0.3472	-1.686
Mof_O 	O 	0.0152	0.2349	0.8368	-0.682
Mof_O 	O 	0.1512	0.6241	0.6222	-0.546
Mof_O 	O 	0.3976	0.1146	0.0599	-0.662
Mof_O 	O 	0.5042	0.2615	0.9565	-0.821
Mof_O 	O 	0.1126	0.4074	0.5399	-0.782
Mof_O 	O 	0.4336	0.4784	0.5439	-0.72
Mof_O 	O 	0.4415	0.0662	0.2659	-0.707
Mof_O 	O 	0.1041	0.3025	0.2482	-0.734
Mof_O 	O 	0.3998	0.8501	0.183	-0.519
Mof_O 	O 	0.6305	0.451	0.8074	-0.84
Mof_O 	O 	0.3145	0.3537	0.1445	-0.547
Mof_O 	O 	0.4472	0.1651	0.5583	-0.658
Mof_O 	O 	0.7145	0.0981	0.8269	-0.895
Mof_O 	O 	0.0335	0.3208	0.0808	-0.576
Mof_O 	O 	0.1104	0.9951	0.2612	-0.777
Mof_O 	O 	0.9356	0.0197	0.3656	-1.349
Mof_O 	O 	0.9294	0.0277	0.9967	-0.842
Mof_O 	O 	0.4242	0.4778	0.7118	-0.546
Mof_O 	O 	0.6111	0.6311	0.2592	-0.828
_end
