data_functionalizedCrystal
_audit_creation_method	'EQeq! by Chris Wilmer'
_symmetry_space_group_name_H-M	'P1'
_symmetry_Int_Tables_number	1
_symmetry_cell_setting	triclinic
loop_
_symmetry_equiv_pos_as_xyz
  x,y,z
_cell_length_a	6.0783
_cell_length_b	8.6457
_cell_length_c	16.1954
_cell_angle_alpha	77.801
_cell_angle_beta	88.351
_cell_angle_gamma	83.637
loop_
_atom_site_label
_atom_site_type_symbol
_atom_site_fract_x
_atom_site_fract_y
_atom_site_fract_z
_atom_site_charge
Mof_Tb	Tb	0.8801	0.10263	0.21809	2.138
Mof_Tb	Tb	0.1199	0.89737	0.78191	2.138
Mof_H 	H 	0.4316	0.4896	0.1425	0.096
Mof_H 	H 	0.2767	0.4665	0.0169	0.054
Mof_H 	H 	0.1274	0.7579	0.0841	0.106
Mof_H 	H 	0.8122	0.9115	0.0051	0.039
Mof_H 	H 	0.8567	0.0193	0.4619	0.061
Mof_H 	H 	0.545	0.145	0.5199	0.057
Mof_H 	H 	0.5684	0.5104	0.8575	0.096
Mof_H 	H 	0.7233	0.5335	0.9831	0.054
Mof_H 	H 	0.8726	0.2421	0.9159	0.106
Mof_H 	H 	0.1878	0.0885	0.9949	0.039
Mof_H 	H 	0.1433	0.9807	0.5381	0.061
Mof_H 	H 	0.455	0.855	0.4801	0.057
Mof_C 	C 	0.3687	0.2534	0.1655	0.451
Mof_C 	C 	0.4851	0.3964	0.1192	-0.076
Mof_C 	C 	0.4354	0.4334	0.0248	0.069
Mof_C 	C 	0.8573	0.7703	0.1644	0.351
Mof_C 	C 	0.034	0.8411	0.1053	-0.107
Mof_C 	C 	0.9185	0.9618	0.0324	0.108
Mof_C 	C 	0.8002	0.2433	0.3877	0.357
Mof_C 	C 	0.7369	0.0766	0.4246	-0.058
Mof_C 	C 	0.5249	0.0826	0.4773	0.064
Mof_C 	C 	0.6313	0.7466	0.8345	0.451
Mof_C 	C 	0.5149	0.6036	0.8808	-0.076
Mof_C 	C 	0.5646	0.5666	0.9752	0.069
Mof_C 	C 	0.1427	0.2297	0.8356	0.351
Mof_C 	C 	0.966	0.1589	0.8947	-0.107
Mof_C 	C 	0.0815	0.0382	0.9676	0.108
Mof_C 	C 	0.1998	0.7567	0.6123	0.357
Mof_C 	C 	0.2631	0.9234	0.5754	-0.058
Mof_C 	C 	0.4751	0.9174	0.5227	0.064
Mof_O 	O 	0.4897	0.1352	0.2048	-0.485
Mof_O 	O 	0.1613	0.2663	0.162	-0.477
Mof_O 	O 	0.7168	0.3606	0.134	-0.265
Mof_O 	O 	0.4904	0.2917	0.9927	-0.138
Mof_O 	O 	0.8101	0.8301	0.228	-0.415
Mof_O 	O 	0.7642	0.6605	0.1454	-0.215
Mof_O 	O 	0.1646	0.9295	0.1464	-0.265
Mof_O 	O 	0.8051	0.0814	0.0724	-0.329
Mof_O 	O 	0.8478	0.2767	0.3096	-0.454
Mof_O 	O 	0.8063	0.334	0.4367	-0.219
Mof_O 	O 	0.7172	0.9921	0.3584	-0.29
Mof_O 	O 	0.343	0.1583	0.4264	-0.158
Mof_O 	O 	0.5103	0.8648	0.7952	-0.485
Mof_O 	O 	0.8387	0.7337	0.838	-0.477
Mof_O 	O 	0.2832	0.6394	0.866	-0.265
Mof_O 	O 	0.5096	0.7083	0.0073	-0.138
Mof_O 	O 	0.1899	0.1699	0.772	-0.415
Mof_O 	O 	0.2358	0.3395	0.8546	-0.215
Mof_O 	O 	0.8354	0.0705	0.8536	-0.265
Mof_O 	O 	0.1949	0.9186	0.9276	-0.329
Mof_O 	O 	0.1522	0.7233	0.6904	-0.454
Mof_O 	O 	0.1937	0.666	0.5633	-0.219
Mof_O 	O 	0.2828	0.0079	0.6416	-0.29
Mof_O 	O 	0.657	0.8417	0.5736	-0.158
_end
