data_functionalizedCrystal
_audit_creation_method	'EQeq! by Chris Wilmer'
_symmetry_space_group_name_H-M	'P1'
_symmetry_Int_Tables_number	1
_symmetry_cell_setting	triclinic
loop_
_symmetry_equiv_pos_as_xyz
  x,y,z
_cell_length_a	14.392
_cell_length_b	15.699
_cell_length_c	10.741
_cell_angle_alpha	90
_cell_angle_beta	90
_cell_angle_gamma	90
loop_
_atom_site_label
_atom_site_type_symbol
_atom_site_fract_x
_atom_site_fract_y
_atom_site_fract_z
_atom_site_charge
Mof_C 	C 	0.86822	0.62066	0.5947	0.613
Mof_O 	O 	0.89813	0.59164	0.4882	-0.73
Mof_O 	O 	0.80545	0.67684	0.5978	-0.751
Mof_O 	O 	0.90138	0.5905	0.6976	-0.765
Mof_O 	O 	0.79832	0.67123	0.88646	-0.993
Mof_H 	H 	0.7701	0.6889	0.9643	0.186
Mof_H 	H 	0.8651	0.6776	0.8944	0.143
Mof_H 	H 	0.8124	0.449	0.117	0.17
Mof_H 	H 	0.8631	0.523	0.0971	0.179
Mof_C 	C 	0.86822	0.12066	0.0947	0.67
Mof_O 	O 	0.89813	0.09164	0.9882	-0.719
Mof_O 	O 	0.80545	0.17684	0.0978	-0.722
Mof_O 	O 	0.90138	0.0905	0.1976	-0.731
Mof_O 	O 	0.79832	0.17123	0.38646	-0.954
Mof_H 	H 	0.7701	0.1889	0.4643	0.206
Mof_H 	H 	0.8651	0.1776	0.3944	0.148
Mof_H 	H 	0.8124	0.949	0.617	0.404
Mof_H 	H 	0.8631	0.023	0.5971	0.029
Mof_C 	C 	0.36822	0.62066	0.0947	0.69
Mof_O 	O 	0.39813	0.59164	0.9882	-0.792
Mof_O 	O 	0.30545	0.67684	0.0978	-0.743
Mof_O 	O 	0.40138	0.5905	0.1976	-0.808
Mof_O 	O 	0.29832	0.67123	0.38646	-1.003
Mof_H 	H 	0.2701	0.6889	0.4643	0.208
Mof_H 	H 	0.3651	0.6776	0.3944	0.15
Mof_H 	H 	0.3124	0.449	0.617	0.17
Mof_H 	H 	0.3631	0.523	0.5971	0.169
Mof_C 	C 	0.36822	0.12066	0.5947	0.591
Mof_O 	O 	0.39813	0.09164	0.4882	-0.688
Mof_O 	O 	0.30545	0.17684	0.5978	-0.74
Mof_O 	O 	0.40138	0.0905	0.6976	-0.718
Mof_O 	O 	0.29832	0.17123	0.88646	-0.934
Mof_H 	H 	0.2701	0.1889	0.9643	0.176
Mof_H 	H 	0.3651	0.1776	0.8944	0.128
Mof_H 	H 	0.3124	0.949	0.117	0.375
Mof_H 	H 	0.3631	0.023	0.0971	0.039
Mof_C 	C 	0.13178	0.37934	0.5947	0.613
Mof_O 	O 	0.10187	0.40836	0.4882	-0.746
Mof_O 	O 	0.19455	0.32316	0.5978	-0.758
Mof_O 	O 	0.09862	0.4095	0.6976	-0.782
Mof_O 	O 	0.20168	0.32877	0.88646	-0.99
Mof_H 	H 	0.2299	0.3111	0.9643	0.181
Mof_H 	H 	0.1349	0.3224	0.8944	0.129
Mof_H 	H 	0.1876	0.551	0.117	0.164
Mof_H 	H 	0.1369	0.477	0.0971	0.173
Mof_C 	C 	0.13178	0.87934	0.0947	0.64
Mof_O 	O 	0.10187	0.90836	0.9882	-0.605
Mof_O 	O 	0.19455	0.82316	0.0978	-0.703
Mof_O 	O 	0.09862	0.9095	0.1976	-0.637
Mof_O 	O 	0.20168	0.82877	0.38646	-0.92
Mof_H 	H 	0.2299	0.8111	0.4643	0.207
Mof_H 	H 	0.1349	0.8224	0.3944	0.149
Mof_H 	H 	0.1876	0.051	0.617	0.432
Mof_H 	H 	0.1369	0.977	0.5971	0.513
Mof_C 	C 	0.63178	0.37934	0.0947	0.694
Mof_O 	O 	0.60187	0.40836	0.9882	-0.799
Mof_O 	O 	0.69455	0.32316	0.0978	-0.743
Mof_O 	O 	0.59862	0.4095	0.1976	-0.811
Mof_O 	O 	0.70168	0.32877	0.38646	-1.005
Mof_H 	H 	0.7299	0.3111	0.4643	0.209
Mof_H 	H 	0.6349	0.3224	0.3944	0.147
Mof_H 	H 	0.6876	0.551	0.617	0.169
Mof_H 	H 	0.6369	0.477	0.5971	0.169
Mof_C 	C 	0.63178	0.87934	0.5947	0.582
Mof_O 	O 	0.60187	0.90836	0.4882	-0.577
Mof_O 	O 	0.69455	0.82316	0.5978	-0.715
Mof_O 	O 	0.59862	0.9095	0.6976	-0.604
Mof_O 	O 	0.70168	0.82877	0.88646	-0.902
Mof_H 	H 	0.7299	0.8111	0.9643	0.185
Mof_H 	H 	0.6349	0.8224	0.8944	0.141
Mof_H 	H 	0.6876	0.051	0.117	0.406
Mof_H 	H 	0.6369	0.977	0.0971	0.494
Mof_C 	C 	0.86822	0.37934	0.5947	0.613
Mof_O 	O 	0.89813	0.40836	0.4882	-0.731
Mof_O 	O 	0.80545	0.32316	0.5978	-0.754
Mof_O 	O 	0.90138	0.4095	0.6976	-0.767
Mof_O 	O 	0.79832	0.32877	0.88646	-0.993
Mof_H 	H 	0.7701	0.3111	0.9643	0.184
Mof_H 	H 	0.8651	0.3224	0.8944	0.139
Mof_H 	H 	0.8124	0.551	0.117	0.169
Mof_H 	H 	0.8631	0.477	0.0971	0.18
Mof_C 	C 	0.86822	0.87934	0.0947	0.638
Mof_O 	O 	0.89813	0.90836	0.9882	-0.589
Mof_O 	O 	0.80545	0.82316	0.0978	-0.7
Mof_O 	O 	0.90138	0.9095	0.1976	-0.622
Mof_O 	O 	0.79832	0.82877	0.38646	-0.923
Mof_H 	H 	0.7701	0.8111	0.4643	0.209
Mof_H 	H 	0.8651	0.8224	0.3944	0.159
Mof_H 	H 	0.8124	0.051	0.617	0.437
Mof_H 	H 	0.8631	0.977	0.5971	0.52
Mof_C 	C 	0.36822	0.37934	0.0947	0.694
Mof_O 	O 	0.39813	0.40836	0.9882	-0.798
Mof_O 	O 	0.30545	0.32316	0.0978	-0.743
Mof_O 	O 	0.40138	0.4095	0.1976	-0.81
Mof_O 	O 	0.29832	0.32877	0.38646	-1.004
Mof_H 	H 	0.2701	0.3111	0.4643	0.209
Mof_H 	H 	0.3651	0.3224	0.3944	0.148
Mof_H 	H 	0.3124	0.551	0.617	0.17
Mof_H 	H 	0.3631	0.477	0.5971	0.169
Mof_C 	C 	0.36822	0.87934	0.5947	0.582
Mof_O 	O 	0.39813	0.90836	0.4882	-0.576
Mof_O 	O 	0.30545	0.82316	0.5978	-0.715
Mof_O 	O 	0.40138	0.9095	0.6976	-0.603
Mof_O 	O 	0.29832	0.82877	0.88646	-0.902
Mof_H 	H 	0.2701	0.8111	0.9643	0.185
Mof_H 	H 	0.3651	0.8224	0.8944	0.142
Mof_H 	H 	0.3124	0.051	0.117	0.408
Mof_H 	H 	0.3631	0.977	0.0971	0.494
Mof_C 	C 	0.13178	0.62066	0.5947	0.614
Mof_O 	O 	0.10187	0.59164	0.4882	-0.746
Mof_O 	O 	0.19455	0.67684	0.5978	-0.754
Mof_O 	O 	0.09862	0.5905	0.6976	-0.781
Mof_O 	O 	0.20168	0.67123	0.88646	-0.989
Mof_H 	H 	0.2299	0.6889	0.9643	0.184
Mof_H 	H 	0.1349	0.6776	0.8944	0.133
Mof_H 	H 	0.1876	0.449	0.117	0.165
Mof_H 	H 	0.1369	0.523	0.0971	0.172
Mof_C 	C 	0.13178	0.12066	0.0947	0.672
Mof_O 	O 	0.10187	0.09164	0.9882	-0.736
Mof_O 	O 	0.19455	0.17684	0.0978	-0.726
Mof_O 	O 	0.09862	0.0905	0.1976	-0.746
Mof_O 	O 	0.20168	0.17123	0.38646	-0.951
Mof_H 	H 	0.2299	0.1889	0.4643	0.203
Mof_H 	H 	0.1349	0.1776	0.3944	0.139
Mof_H 	H 	0.1876	0.949	0.617	0.398
Mof_H 	H 	0.1369	0.023	0.5971	0.022
Mof_C 	C 	0.63178	0.62066	0.0947	0.69
Mof_O 	O 	0.60187	0.59164	0.9882	-0.793
Mof_O 	O 	0.69455	0.67684	0.0978	-0.743
Mof_O 	O 	0.59862	0.5905	0.1976	-0.809
Mof_O 	O 	0.70168	0.67123	0.38646	-1.004
Mof_H 	H 	0.7299	0.6889	0.4643	0.209
Mof_H 	H 	0.6349	0.6776	0.3944	0.15
Mof_H 	H 	0.6876	0.449	0.617	0.169
Mof_H 	H 	0.6369	0.523	0.5971	0.169
Mof_C 	C 	0.63178	0.12066	0.5947	0.591
Mof_O 	O 	0.60187	0.09164	0.4882	-0.689
Mof_O 	O 	0.69455	0.17684	0.5978	-0.739
Mof_O 	O 	0.59862	0.0905	0.6976	-0.719
Mof_O 	O 	0.70168	0.17123	0.88646	-0.935
Mof_H 	H 	0.7299	0.1889	0.9643	0.177
Mof_H 	H 	0.6349	0.1776	0.8944	0.127
Mof_H 	H 	0.6876	0.949	0.117	0.374
Mof_H 	H 	0.6369	0.023	0.0971	0.039
Mof_Ru	Ru	1.36003e-33	0.5	0.48603	0.895
Mof_Ru	Ru	7.14808e-33	0.5	0.69584	0.565
Mof_Cl	Cl	7.00288e-34	0.5	0.25026	-0.968
Mof_Ru	Ru	-2.4418e-33	0	0.98603	0.609
Mof_Ru	Ru	5.48008e-34	0	0.19584	0.449
Mof_Cl	Cl	2.09941e-33	0	0.75026	-1.037
Mof_Ru	Ru	0.5	0.5	0.98603	0.87
Mof_Ru	Ru	0.5	0.5	0.19584	0.704
Mof_Cl	Cl	0.5	0.5	0.75026	-0.947
Mof_Ru	Ru	0.5	0	0.48603	0.727
Mof_Ru	Ru	0.5	0	0.69584	0.369
Mof_Cl	Cl	0.5	0	0.25026	-1.016
Mof_Mg	Mg	0.75	0.75	0.7412	1.443
Mof_Mg	Mg	0.75	0.25	0.2412	1.443
Mof_Mg	Mg	0.25	0.25	0.7412	1.441
Mof_Mg	Mg	0.25	0.75	0.2412	1.443
Mof_Mg	Mg	0.75	0.25	0.7412	1.442
Mof_Mg	Mg	0.75	0.75	0.2412	1.443
Mof_Mg	Mg	0.25	0.75	0.7412	1.443
Mof_Mg	Mg	0.25	0.25	0.2412	1.442
Mof_K 	K 	0.75552	0.5	0.8408	3.62
Mof_O 	O 	0.8099	0.5	0.0905	-1.408
Mof_K 	K 	0.75552	0	0.3408	3.156
Mof_O 	O 	0.8099	0	0.5905	-1.929
Mof_K 	K 	0.25552	0.5	0.3408	3.724
Mof_O 	O 	0.3099	0.5	0.5905	-1.426
Mof_K 	K 	0.25552	-5.20095e-33	0.8408	2.954
Mof_O 	O 	0.3099	6.50119e-34	0.0905	-1.835
Mof_K 	K 	0.24448	0.5	0.8408	3.594
Mof_O 	O 	0.1901	0.5	0.0905	-1.393
Mof_K 	K 	0.24448	0	0.3408	3.134
Mof_O 	O 	0.1901	0	0.5905	-1.914
Mof_K 	K 	0.74448	0.5	0.3408	3.745
Mof_O 	O 	0.6901	0.5	0.5905	-1.429
Mof_K 	K 	0.74448	-5.20095e-33	0.8408	2.976
Mof_O 	O 	0.6901	6.50119e-34	0.0905	-1.838
_end
