data_functionalizedCrystal
_audit_creation_method	'EQeq! by Chris Wilmer'
_symmetry_space_group_name_H-M	'P1'
_symmetry_Int_Tables_number	1
_symmetry_cell_setting	triclinic
loop_
_symmetry_equiv_pos_as_xyz
  x,y,z
_cell_length_a	10.4588
_cell_length_b	14.995
_cell_length_c	16.699
_cell_angle_alpha	65.446
_cell_angle_beta	83.487
_cell_angle_gamma	73.305
loop_
_atom_site_label
_atom_site_type_symbol
_atom_site_fract_x
_atom_site_fract_y
_atom_site_fract_z
_atom_site_charge
Mof_La	La	0.20832	0.74396	0.29051	1.804
Mof_La	La	0.2791	0.49318	0.87103	1.596
Mof_La	La	0.79168	0.25604	0.70949	1.804
Mof_La	La	0.7209	0.50682	0.12897	1.596
Mof_H 	H 	0.5212	0.0603	0.6858	0.276
Mof_H 	H 	0.6761	0.0336	0.795	0.258
Mof_H 	H 	0.8011	0.0369	0.6658	0.261
Mof_H 	H 	0.4345	0.7552	0.8371	0.045
Mof_H 	H 	0.6391	0.7593	0.62	0.053
Mof_H 	H 	0.3662	0.0174	0.7855	0.121
Mof_H 	H 	0.3085	0.9242	0.8407	0.097
Mof_H 	H 	0.6902	0.8606	0.0821	0.056
Mof_H 	H 	0.3826	0.8237	0.9882	0.061
Mof_H 	H 	0.7466	0.0612	0.902	0.089
Mof_H 	H 	0.8035	0.9818	0.9952	0.097
Mof_H 	H 	0.1737	0.8068	0.7968	0.028
Mof_H 	H 	0.9643	0.8211	0.0083	0.043
Mof_H 	H 	0.009	0.0497	0.6464	0.083
Mof_H 	H 	0.1443	0.9654	0.6609	0.076
Mof_H 	H 	0.8555	0.8148	0.5066	0.05
Mof_H 	H 	0.1664	0.8353	0.6095	0.044
Mof_H 	H 	0.64	0.9282	0.499	0.095
Mof_H 	H 	0.623	0.0199	0.5254	0.117
Mof_H 	H 	0.4788	0.9397	0.3142	0.275
Mof_H 	H 	0.3239	0.9664	0.205	0.257
Mof_H 	H 	0.1989	0.9631	0.3342	0.26
Mof_H 	H 	0.5655	0.2448	0.1629	0.044
Mof_H 	H 	0.3609	0.2407	0.38	0.053
Mof_H 	H 	0.6338	0.9826	0.2145	0.121
Mof_H 	H 	0.6915	0.0758	0.1593	0.097
Mof_H 	H 	0.3098	0.1394	0.9179	0.056
Mof_H 	H 	0.6174	0.1763	0.0118	0.061
Mof_H 	H 	0.2534	0.9388	0.098	0.089
Mof_H 	H 	0.1965	0.0182	0.0048	0.097
Mof_H 	H 	0.8263	0.1932	0.2032	0.028
Mof_H 	H 	0.0357	0.1789	0.9917	0.043
Mof_H 	H 	0.991	0.9503	0.3536	0.083
Mof_H 	H 	0.8557	0.0346	0.3391	0.076
Mof_H 	H 	0.1445	0.1852	0.4934	0.05
Mof_H 	H 	0.8336	0.1647	0.3905	0.044
Mof_H 	H 	0.36	0.0718	0.501	0.095
Mof_H 	H 	0.377	0.9801	0.4746	0.117
Mof_C 	C 	0.5363	0.7435	0.7315	-0.108
Mof_C 	C 	0.4707	0.7915	0.7841	-0.02
Mof_C 	C 	0.4581	0.8931	0.7588	-0.006
Mof_C 	C 	0.5132	0.9446	0.6786	0.149
Mof_C 	C 	0.5847	0.8956	0.6272	0.003
Mof_C 	C 	0.5938	0.7938	0.6543	-0.022
Mof_C 	C 	0.3902	0.9444	0.8188	-0.171
Mof_C 	C 	0.5349	0.8306	0.0469	-0.13
Mof_C 	C 	0.6375	0.8755	0.0345	-0.016
Mof_C 	C 	0.6622	0.9424	0.9521	-0.031
Mof_C 	C 	0.5821	0.9627	0.8829	0.156
Mof_C 	C 	0.4764	0.9183	0.8952	-0.001
Mof_C 	C 	0.4533	0.853	0.9782	-0.026
Mof_C 	C 	0.7763	0.9891	0.9387	-0.147
Mof_C 	C 	0.0803	0.7981	0.9106	-0.138
Mof_C 	C 	0.1033	0.841	0.8215	0.003
Mof_C 	C 	0.0233	0.934	0.7683	-0.036
Mof_C 	C 	0.9164	0.9844	0.8057	0.16
Mof_C 	C 	0.8941	0.9409	0.8964	-0.025
Mof_C 	C 	0.9775	0.8491	0.9478	0.002
Mof_C 	C 	0.0488	0.9769	0.6706	-0.127
Mof_C 	C 	0.0235	0.8137	0.555	-0.107
Mof_C 	C 	0.8893	0.844	0.536	-0.025
Mof_C 	C 	0.8052	0.9173	0.5604	-0.002
Mof_C 	C 	0.8581	0.9605	0.6038	0.162
Mof_C 	C 	0.9937	0.9308	0.6221	-0.04
Mof_C 	C 	0.0753	0.8565	0.5974	-0.007
Mof_C 	C 	0.6572	0.9467	0.5452	-0.166
Mof_C 	C 	0.4637	0.2565	0.2685	-0.108
Mof_C 	C 	0.5293	0.2085	0.2159	-0.02
Mof_C 	C 	0.5419	0.1069	0.2412	-0.006
Mof_C 	C 	0.4868	0.0554	0.3214	0.149
Mof_C 	C 	0.4153	0.1044	0.3728	0.003
Mof_C 	C 	0.4062	0.2062	0.3457	-0.022
Mof_C 	C 	0.6098	0.0556	0.1812	-0.171
Mof_C 	C 	0.4651	0.1694	0.9531	-0.13
Mof_C 	C 	0.3625	0.1245	0.9655	-0.016
Mof_C 	C 	0.3378	0.0576	0.0479	-0.031
Mof_C 	C 	0.4179	0.0373	0.1171	0.156
Mof_C 	C 	0.5236	0.0817	0.1048	-0.001
Mof_C 	C 	0.5467	0.147	0.0218	-0.026
Mof_C 	C 	0.2237	0.0109	0.0613	-0.147
Mof_C 	C 	0.9197	0.2019	0.0894	-0.138
Mof_C 	C 	0.8967	0.159	0.1785	0.003
Mof_C 	C 	0.9767	0.066	0.2317	-0.036
Mof_C 	C 	0.0836	0.0156	0.1943	0.16
Mof_C 	C 	0.1059	0.0591	0.1036	-0.025
Mof_C 	C 	0.0225	0.1509	0.0522	0.002
Mof_C 	C 	0.9512	0.0231	0.3294	-0.127
Mof_C 	C 	0.9765	0.1863	0.445	-0.107
Mof_C 	C 	0.1107	0.156	0.464	-0.025
Mof_C 	C 	0.1948	0.0827	0.4396	-0.002
Mof_C 	C 	0.1419	0.0395	0.3962	0.162
Mof_C 	C 	0.0063	0.0692	0.3779	-0.04
Mof_C 	C 	0.9247	0.1435	0.4026	-0.007
Mof_C 	C 	0.3428	0.0533	0.4548	-0.166
Mof_S 	S 	0.55077	0.61298	0.76758	0.63
Mof_S 	S 	0.51065	0.7416	0.15116	0.654
Mof_S 	S 	0.17757	0.67925	0.97846	0.603
Mof_S 	S 	0.12564	0.71919	0.52412	0.58
Mof_S 	S 	0.44923	0.38702	0.23242	0.63
Mof_S 	S 	0.48935	0.2584	0.84884	0.654
Mof_S 	S 	0.82243	0.32075	0.02154	0.603
Mof_S 	S 	0.87436	0.28081	0.47588	0.58
Mof_N 	N 	0.9468	0.8449	0.1961	0.068
Mof_N 	N 	0.0532	0.1551	0.8039	0.068
Mof_O 	O 	0.6221	0.5637	0.8504	-0.333
Mof_O 	O 	0.6242	0.5813	0.7032	-0.34
Mof_O 	O 	0.4194	0.6012	0.7788	-0.482
Mof_O 	O 	0.4945	0.0473	0.6486	-0.398
Mof_O 	O 	0.5935	0.7431	0.2125	-0.354
Mof_O 	O 	0.5437	0.6445	0.1443	-0.519
Mof_O 	O 	0.3695	0.7698	0.1702	-0.501
Mof_O 	O 	0.6005	0.0262	0.7997	-0.424
Mof_O 	O 	0.0876	0.625	0.0367	-0.365
Mof_O 	O 	0.2454	0.6302	0.921	-0.491
Mof_O 	O 	0.2717	0.6922	0.0248	-0.3
Mof_O 	O 	0.8318	0.0718	0.7546	-0.411
Mof_O 	O 	0.2491	0.6822	0.5722	-0.32
Mof_O 	O 	0.0566	0.6418	0.5455	-0.331
Mof_O 	O 	0.1464	0.7652	0.4301	-0.479
Mof_O 	O 	0.7705	0.0317	0.6254	-0.401
Mof_O 	O 	0.8389	0.8797	0.1624	-0.142
Mof_O 	O 	0.9565	0.8131	0.2789	-0.298
Mof_O 	O 	0.0521	0.8373	0.1541	-0.278
Mof_O 	O 	0.3779	0.4363	0.1496	-0.333
Mof_O 	O 	0.3758	0.4187	0.2968	-0.34
Mof_O 	O 	0.5806	0.3988	0.2212	-0.482
Mof_O 	O 	0.5055	0.9527	0.3514	-0.398
Mof_O 	O 	0.4065	0.2569	0.7875	-0.354
Mof_O 	O 	0.4563	0.3555	0.8557	-0.519
Mof_O 	O 	0.6305	0.2302	0.8298	-0.501
Mof_O 	O 	0.3995	0.9738	0.2003	-0.424
Mof_O 	O 	0.9124	0.375	0.9633	-0.365
Mof_O 	O 	0.7546	0.3698	0.079	-0.491
Mof_O 	O 	0.7283	0.3078	0.9752	-0.3
Mof_O 	O 	0.1682	0.9282	0.2454	-0.411
Mof_O 	O 	0.7509	0.3178	0.4278	-0.32
Mof_O 	O 	0.9434	0.3582	0.4545	-0.331
Mof_O 	O 	0.8536	0.2348	0.5699	-0.479
Mof_O 	O 	0.2295	0.9683	0.3746	-0.401
Mof_O 	O 	0.1611	0.1203	0.8376	-0.142
Mof_O 	O 	0.0435	0.1869	0.7211	-0.298
Mof_O 	O 	0.9479	0.1627	0.8459	-0.278
_end
