data_functionalizedCrystal
_audit_creation_method	'EQeq! by Chris Wilmer'
_symmetry_space_group_name_H-M	'P1'
_symmetry_Int_Tables_number	1
_symmetry_cell_setting	triclinic
loop_
_symmetry_equiv_pos_as_xyz
  x,y,z
_cell_length_a	17.7179
_cell_length_b	17.7179
_cell_length_c	27.5566
_cell_angle_alpha	90
_cell_angle_beta	90
_cell_angle_gamma	90
loop_
_atom_site_label
_atom_site_type_symbol
_atom_site_fract_x
_atom_site_fract_y
_atom_site_fract_z
_atom_site_charge
Mof_C 	C 	0.1542	0.2476	0.68498	0.357
Mof_C 	C 	0.0368	0.3139	0.5773	-0.046
Mof_C 	C 	0.0853	0.3128	0.61668	-0.003
Mof_H 	H 	0.1104	0.3581	0.6257	0.065
Mof_C 	C 	0.0986	0.2473	0.6436	-0.046
Mof_C 	C 	0.0109	0.1821	0.5926	0.114
Mof_C 	C 	0.0004	0.2441	0.5661	-0.087
Mof_H 	H 	0.9676	0.2418	0.5389	0.08
Mof_C 	C 	0.058	0.1811	0.6307	-0.086
Mof_H 	H 	0.0643	0.1361	0.649	0.081
Mof_O 	O 	0.1822	0.3106	0.69464	-0.409
Mof_O 	O 	0.1648	0.1862	0.70539	-0.409
Mof_N 	N 	0.9698	0.1165	0.5807	-0.156
Mof_C 	C 	0.0245	0.384	0.5476	0.357
Mof_O 	O 	0.0539	0.44193	0.56428	-0.41
Mof_O 	O 	0.9851	0.3756	0.51046	-0.41
Mof_C 	C 	0.9671	0.0942	0.5312	-0
Mof_H 	H 	0.996	0.1126	0.5047	0.037
Mof_C 	C 	0.3458	0.2524	0.68498	0.356
Mof_C 	C 	0.4632	0.1861	0.5773	-0.046
Mof_C 	C 	0.4147	0.1872	0.61668	-0.004
Mof_H 	H 	0.3896	0.1419	0.6257	0.064
Mof_C 	C 	0.4014	0.2527	0.6436	-0.046
Mof_C 	C 	0.4891	0.3179	0.5926	0.114
Mof_C 	C 	0.4996	0.2559	0.5661	-0.087
Mof_H 	H 	0.5324	0.2582	0.5389	0.08
Mof_C 	C 	0.442	0.3189	0.6307	-0.086
Mof_H 	H 	0.4357	0.3639	0.649	0.081
Mof_O 	O 	0.3178	0.1894	0.69464	-0.409
Mof_O 	O 	0.3352	0.3138	0.70539	-0.409
Mof_N 	N 	0.5302	0.3835	0.5807	-0.156
Mof_C 	C 	0.4755	0.116	0.5476	0.357
Mof_O 	O 	0.4461	0.05807	0.56428	-0.41
Mof_O 	O 	0.5149	0.1244	0.51046	-0.41
Mof_C 	C 	0.5329	0.4058	0.5312	-0
Mof_H 	H 	0.504	0.3874	0.5047	0.037
Mof_C 	C 	0.2524	0.1542	0.18498	0.356
Mof_C 	C 	0.1861	0.0368	0.0773	-0.045
Mof_C 	C 	0.1872	0.0853	0.11668	-0.005
Mof_H 	H 	0.1419	0.1104	0.1257	0.064
Mof_C 	C 	0.2527	0.0986	0.1436	-0.045
Mof_C 	C 	0.3179	0.0109	0.0926	0.114
Mof_C 	C 	0.2559	0.0004	0.0661	-0.091
Mof_H 	H 	0.2582	0.9676	0.0389	0.082
Mof_C 	C 	0.3189	0.058	0.1307	-0.087
Mof_H 	H 	0.3639	0.0643	0.149	0.081
Mof_O 	O 	0.1894	0.1822	0.19464	-0.409
Mof_O 	O 	0.3138	0.1648	0.20539	-0.409
Mof_N 	N 	0.3835	0.9698	0.0807	-0.156
Mof_C 	C 	0.116	0.0245	0.0476	0.354
Mof_O 	O 	0.05807	0.0539	0.06428	-0.409
Mof_O 	O 	0.1244	0.9851	0.01046	-0.407
Mof_C 	C 	0.4058	0.9671	0.0312	-0
Mof_H 	H 	0.3874	0.996	0.0047	0.038
Mof_C 	C 	0.2476	0.3458	0.18498	0.356
Mof_C 	C 	0.3139	0.4632	0.0773	-0.046
Mof_C 	C 	0.3128	0.4147	0.11668	-0.004
Mof_H 	H 	0.3581	0.3896	0.1257	0.064
Mof_C 	C 	0.2473	0.4014	0.1436	-0.046
Mof_C 	C 	0.1821	0.4891	0.0926	0.114
Mof_C 	C 	0.2441	0.4996	0.0661	-0.087
Mof_H 	H 	0.2418	0.5324	0.0389	0.08
Mof_C 	C 	0.1811	0.442	0.1307	-0.086
Mof_H 	H 	0.1361	0.4357	0.149	0.081
Mof_O 	O 	0.3106	0.3178	0.19464	-0.409
Mof_O 	O 	0.1862	0.3352	0.20539	-0.409
Mof_N 	N 	0.1165	0.5302	0.0807	-0.156
Mof_C 	C 	0.384	0.4755	0.0476	0.356
Mof_O 	O 	0.44193	0.4461	0.06428	-0.41
Mof_O 	O 	0.3756	0.5149	0.01046	-0.41
Mof_C 	C 	0.0942	0.5329	0.0312	-0
Mof_H 	H 	0.1126	0.504	0.0047	0.037
Mof_C 	C 	0.3458	0.2476	0.81502	0.356
Mof_C 	C 	0.4632	0.3139	0.9227	-0.046
Mof_C 	C 	0.4147	0.3128	0.88332	-0.004
Mof_H 	H 	0.3896	0.3581	0.8743	0.064
Mof_C 	C 	0.4014	0.2473	0.8564	-0.046
Mof_C 	C 	0.4891	0.1821	0.9074	0.114
Mof_C 	C 	0.4996	0.2441	0.9339	-0.087
Mof_H 	H 	0.5324	0.2418	0.9611	0.08
Mof_C 	C 	0.442	0.1811	0.8693	-0.086
Mof_H 	H 	0.4357	0.1361	0.851	0.081
Mof_O 	O 	0.3178	0.3106	0.80536	-0.409
Mof_O 	O 	0.3352	0.1862	0.79461	-0.409
Mof_N 	N 	0.5302	0.1165	0.9193	-0.156
Mof_C 	C 	0.4755	0.384	0.9524	0.356
Mof_O 	O 	0.4461	0.44193	0.93572	-0.41
Mof_O 	O 	0.5149	0.3756	0.98954	-0.41
Mof_C 	C 	0.5329	0.0942	0.9688	-0
Mof_H 	H 	0.504	0.1126	0.9953	0.037
Mof_C 	C 	0.1542	0.2524	0.81502	0.356
Mof_C 	C 	0.0368	0.1861	0.9227	-0.045
Mof_C 	C 	0.0853	0.1872	0.88332	-0.005
Mof_H 	H 	0.1104	0.1419	0.8743	0.064
Mof_C 	C 	0.0986	0.2527	0.8564	-0.045
Mof_C 	C 	0.0109	0.3179	0.9074	0.114
Mof_C 	C 	0.0004	0.2559	0.9339	-0.091
Mof_H 	H 	0.9676	0.2582	0.9611	0.082
Mof_C 	C 	0.058	0.3189	0.8693	-0.087
Mof_H 	H 	0.0643	0.3639	0.851	0.081
Mof_O 	O 	0.1822	0.1894	0.80536	-0.409
Mof_O 	O 	0.1648	0.3138	0.79461	-0.409
Mof_N 	N 	0.9698	0.3835	0.9193	-0.156
Mof_C 	C 	0.0245	0.116	0.9524	0.354
Mof_O 	O 	0.0539	0.05807	0.93572	-0.409
Mof_O 	O 	0.9851	0.1244	0.98954	-0.407
Mof_C 	C 	0.9671	0.4058	0.9688	-0
Mof_H 	H 	0.996	0.3874	0.9953	0.038
Mof_C 	C 	0.2476	0.1542	0.31502	0.356
Mof_C 	C 	0.3139	0.0368	0.4227	-0.047
Mof_C 	C 	0.3128	0.0853	0.38332	-0.004
Mof_H 	H 	0.3581	0.1104	0.3743	0.064
Mof_C 	C 	0.2473	0.0986	0.3564	-0.046
Mof_C 	C 	0.1821	0.0109	0.4074	0.114
Mof_C 	C 	0.2441	0.0004	0.4339	-0.087
Mof_H 	H 	0.2418	0.9676	0.4611	0.08
Mof_C 	C 	0.1811	0.058	0.3693	-0.086
Mof_H 	H 	0.1361	0.0643	0.351	0.081
Mof_O 	O 	0.3106	0.1822	0.30536	-0.409
Mof_O 	O 	0.1862	0.1648	0.29461	-0.409
Mof_N 	N 	0.1165	0.9698	0.4193	-0.156
Mof_C 	C 	0.384	0.0245	0.4524	0.357
Mof_O 	O 	0.44193	0.0539	0.43572	-0.41
Mof_O 	O 	0.3756	0.9851	0.48954	-0.41
Mof_C 	C 	0.0942	0.9671	0.4688	-0
Mof_H 	H 	0.1126	0.996	0.4953	0.037
Mof_C 	C 	0.2524	0.3458	0.31502	0.356
Mof_C 	C 	0.1861	0.4632	0.4227	-0.046
Mof_C 	C 	0.1872	0.4147	0.38332	-0.004
Mof_H 	H 	0.1419	0.3896	0.3743	0.064
Mof_C 	C 	0.2527	0.4014	0.3564	-0.046
Mof_C 	C 	0.3179	0.4891	0.4074	0.114
Mof_C 	C 	0.2559	0.4996	0.4339	-0.087
Mof_H 	H 	0.2582	0.5324	0.4611	0.08
Mof_C 	C 	0.3189	0.442	0.3693	-0.086
Mof_H 	H 	0.3639	0.4357	0.351	0.081
Mof_O 	O 	0.1894	0.3178	0.30536	-0.409
Mof_O 	O 	0.3138	0.3352	0.29461	-0.409
Mof_N 	N 	0.3835	0.5302	0.4193	-0.156
Mof_C 	C 	0.116	0.4755	0.4524	0.357
Mof_O 	O 	0.05807	0.4461	0.43572	-0.41
Mof_O 	O 	0.1244	0.5149	0.48954	-0.41
Mof_C 	C 	0.4058	0.5329	0.4688	-0
Mof_H 	H 	0.3874	0.504	0.4953	0.037
Mof_C 	C 	0.8458	0.7524	0.31502	0.356
Mof_C 	C 	0.9632	0.6861	0.4227	-0.047
Mof_C 	C 	0.9147	0.6872	0.38332	-0.004
Mof_H 	H 	0.8896	0.6419	0.3743	0.064
Mof_C 	C 	0.9014	0.7527	0.3564	-0.046
Mof_C 	C 	0.9891	0.8179	0.4074	0.114
Mof_C 	C 	0.9996	0.7559	0.4339	-0.087
Mof_H 	H 	0.0324	0.7582	0.4611	0.08
Mof_C 	C 	0.942	0.8189	0.3693	-0.086
Mof_H 	H 	0.9357	0.8639	0.351	0.081
Mof_O 	O 	0.8178	0.6894	0.30536	-0.409
Mof_O 	O 	0.8352	0.8138	0.29461	-0.409
Mof_N 	N 	0.0302	0.8835	0.4193	-0.156
Mof_C 	C 	0.9755	0.616	0.4524	0.357
Mof_O 	O 	0.9461	0.55807	0.43572	-0.41
Mof_O 	O 	0.0149	0.6244	0.48954	-0.41
Mof_C 	C 	0.0329	0.9058	0.4688	-0
Mof_H 	H 	0.004	0.8874	0.4953	0.037
Mof_C 	C 	0.6542	0.7476	0.31502	0.356
Mof_C 	C 	0.5368	0.8139	0.4227	-0.046
Mof_C 	C 	0.5853	0.8128	0.38332	-0.004
Mof_H 	H 	0.6104	0.8581	0.3743	0.064
Mof_C 	C 	0.5986	0.7473	0.3564	-0.046
Mof_C 	C 	0.5109	0.6821	0.4074	0.114
Mof_C 	C 	0.5004	0.7441	0.4339	-0.087
Mof_H 	H 	0.4676	0.7418	0.4611	0.08
Mof_C 	C 	0.558	0.6811	0.3693	-0.086
Mof_H 	H 	0.5643	0.6361	0.351	0.081
Mof_O 	O 	0.6822	0.8106	0.30536	-0.409
Mof_O 	O 	0.6648	0.6862	0.29461	-0.409
Mof_N 	N 	0.4698	0.6165	0.4193	-0.156
Mof_C 	C 	0.5245	0.884	0.4524	0.357
Mof_O 	O 	0.5539	0.94193	0.43572	-0.41
Mof_O 	O 	0.4851	0.8756	0.48954	-0.41
Mof_C 	C 	0.4671	0.5942	0.4688	-0
Mof_H 	H 	0.496	0.6126	0.4953	0.037
Mof_C 	C 	0.7476	0.8458	0.81502	0.356
Mof_C 	C 	0.8139	0.9632	0.9227	-0.045
Mof_C 	C 	0.8128	0.9147	0.88332	-0.005
Mof_H 	H 	0.8581	0.8896	0.8743	0.064
Mof_C 	C 	0.7473	0.9014	0.8564	-0.045
Mof_C 	C 	0.6821	0.9891	0.9074	0.114
Mof_C 	C 	0.7441	0.9996	0.9339	-0.091
Mof_H 	H 	0.7418	0.0324	0.9611	0.082
Mof_C 	C 	0.6811	0.942	0.8693	-0.087
Mof_H 	H 	0.6361	0.9357	0.851	0.081
Mof_O 	O 	0.8106	0.8178	0.80536	-0.409
Mof_O 	O 	0.6862	0.8352	0.79461	-0.409
Mof_N 	N 	0.6165	0.0302	0.9193	-0.156
Mof_C 	C 	0.884	0.9755	0.9524	0.354
Mof_O 	O 	0.94193	0.9461	0.93572	-0.409
Mof_O 	O 	0.8756	0.0149	0.98954	-0.407
Mof_C 	C 	0.5942	0.0329	0.9688	-0
Mof_H 	H 	0.6126	0.004	0.9953	0.038
Mof_C 	C 	0.7524	0.6542	0.81502	0.356
Mof_C 	C 	0.6861	0.5368	0.9227	-0.046
Mof_C 	C 	0.6872	0.5853	0.88332	-0.004
Mof_H 	H 	0.6419	0.6104	0.8743	0.064
Mof_C 	C 	0.7527	0.5986	0.8564	-0.046
Mof_C 	C 	0.8179	0.5109	0.9074	0.114
Mof_C 	C 	0.7559	0.5004	0.9339	-0.087
Mof_H 	H 	0.7582	0.4676	0.9611	0.08
Mof_C 	C 	0.8189	0.558	0.8693	-0.086
Mof_H 	H 	0.8639	0.5643	0.851	0.081
Mof_O 	O 	0.6894	0.6822	0.80536	-0.409
Mof_O 	O 	0.8138	0.6648	0.79461	-0.409
Mof_N 	N 	0.8835	0.4698	0.9193	-0.156
Mof_C 	C 	0.616	0.5245	0.9524	0.356
Mof_O 	O 	0.55807	0.5539	0.93572	-0.41
Mof_O 	O 	0.6244	0.4851	0.98954	-0.41
Mof_C 	C 	0.9058	0.4671	0.9688	-0
Mof_H 	H 	0.8874	0.496	0.9953	0.037
Mof_C 	C 	0.6542	0.7524	0.18498	0.356
Mof_C 	C 	0.5368	0.6861	0.0773	-0.046
Mof_C 	C 	0.5853	0.6872	0.11668	-0.004
Mof_H 	H 	0.6104	0.6419	0.1257	0.064
Mof_C 	C 	0.5986	0.7527	0.1436	-0.046
Mof_C 	C 	0.5109	0.8179	0.0926	0.114
Mof_C 	C 	0.5004	0.7559	0.0661	-0.087
Mof_H 	H 	0.4676	0.7582	0.0389	0.08
Mof_C 	C 	0.558	0.8189	0.1307	-0.086
Mof_H 	H 	0.5643	0.8639	0.149	0.081
Mof_O 	O 	0.6822	0.6894	0.19464	-0.409
Mof_O 	O 	0.6648	0.8138	0.20539	-0.409
Mof_N 	N 	0.4698	0.8835	0.0807	-0.156
Mof_C 	C 	0.5245	0.616	0.0476	0.356
Mof_O 	O 	0.5539	0.55807	0.06428	-0.41
Mof_O 	O 	0.4851	0.6244	0.01046	-0.41
Mof_C 	C 	0.4671	0.9058	0.0312	-0
Mof_H 	H 	0.496	0.8874	0.0047	0.037
Mof_C 	C 	0.8458	0.7476	0.18498	0.356
Mof_C 	C 	0.9632	0.8139	0.0773	-0.045
Mof_C 	C 	0.9147	0.8128	0.11668	-0.005
Mof_H 	H 	0.8896	0.8581	0.1257	0.064
Mof_C 	C 	0.9014	0.7473	0.1436	-0.045
Mof_C 	C 	0.9891	0.6821	0.0926	0.114
Mof_C 	C 	0.9996	0.7441	0.0661	-0.091
Mof_H 	H 	0.0324	0.7418	0.0389	0.082
Mof_C 	C 	0.942	0.6811	0.1307	-0.087
Mof_H 	H 	0.9357	0.6361	0.149	0.081
Mof_O 	O 	0.8178	0.8106	0.19464	-0.409
Mof_O 	O 	0.8352	0.6862	0.20539	-0.409
Mof_N 	N 	0.0302	0.6165	0.0807	-0.156
Mof_C 	C 	0.9755	0.884	0.0476	0.354
Mof_O 	O 	0.9461	0.94193	0.06428	-0.409
Mof_O 	O 	0.0149	0.8756	0.01046	-0.407
Mof_C 	C 	0.0329	0.5942	0.0312	-0
Mof_H 	H 	0.004	0.6126	0.0047	0.038
Mof_C 	C 	0.7524	0.8458	0.68498	0.356
Mof_C 	C 	0.6861	0.9632	0.5773	-0.047
Mof_C 	C 	0.6872	0.9147	0.61668	-0.004
Mof_H 	H 	0.6419	0.8896	0.6257	0.064
Mof_C 	C 	0.7527	0.9014	0.6436	-0.046
Mof_C 	C 	0.8179	0.9891	0.5926	0.114
Mof_C 	C 	0.7559	0.9996	0.5661	-0.087
Mof_H 	H 	0.7582	0.0324	0.5389	0.08
Mof_C 	C 	0.8189	0.942	0.6307	-0.086
Mof_H 	H 	0.8639	0.9357	0.649	0.081
Mof_O 	O 	0.6894	0.8178	0.69464	-0.409
Mof_O 	O 	0.8138	0.8352	0.70539	-0.409
Mof_N 	N 	0.8835	0.0302	0.5807	-0.156
Mof_C 	C 	0.616	0.9755	0.5476	0.357
Mof_O 	O 	0.55807	0.9461	0.56428	-0.41
Mof_O 	O 	0.6244	0.0149	0.51046	-0.41
Mof_C 	C 	0.9058	0.0329	0.5312	-0
Mof_H 	H 	0.8874	0.004	0.5047	0.037
Mof_C 	C 	0.7476	0.6542	0.68498	0.356
Mof_C 	C 	0.8139	0.5368	0.5773	-0.046
Mof_C 	C 	0.8128	0.5853	0.61668	-0.004
Mof_H 	H 	0.8581	0.6104	0.6257	0.064
Mof_C 	C 	0.7473	0.5986	0.6436	-0.046
Mof_C 	C 	0.6821	0.5109	0.5926	0.114
Mof_C 	C 	0.7441	0.5004	0.5661	-0.087
Mof_H 	H 	0.7418	0.4676	0.5389	0.08
Mof_C 	C 	0.6811	0.558	0.6307	-0.086
Mof_H 	H 	0.6361	0.5643	0.649	0.081
Mof_O 	O 	0.8106	0.6822	0.69464	-0.409
Mof_O 	O 	0.6862	0.6648	0.70539	-0.409
Mof_N 	N 	0.6165	0.4698	0.5807	-0.156
Mof_C 	C 	0.884	0.5245	0.5476	0.357
Mof_O 	O 	0.94193	0.5539	0.56428	-0.41
Mof_O 	O 	0.8756	0.4851	0.51046	-0.41
Mof_C 	C 	0.5942	0.4671	0.5312	-0
Mof_H 	H 	0.6126	0.496	0.5047	0.037
Mof_Cu	Cu	0.03972	0.53972	0.53215	0.904
Mof_Cu	Cu	0.46028	0.96028	0.53215	0.904
Mof_Cu	Cu	0.96028	0.03972	0.03215	0.902
Mof_Cu	Cu	0.53972	0.46028	0.03215	0.904
Mof_Cu	Cu	0.46028	0.53972	0.96785	0.904
Mof_Cu	Cu	0.03972	0.96028	0.96785	0.902
Mof_Cu	Cu	0.53972	0.03972	0.46785	0.904
Mof_Cu	Cu	0.96028	0.46028	0.46785	0.904
Mof_Cu	Cu	0.25	0.32483	0.75	0.905
Mof_Cu	Cu	0.25	0.17517	0.75	0.905
Mof_Cu	Cu	0.17517	0.25	0.25	0.905
Mof_Cu	Cu	0.32483	0.25	0.25	0.905
Mof_Cu	Cu	0.75	0.67517	0.25	0.905
Mof_Cu	Cu	0.75	0.82483	0.25	0.905
Mof_Cu	Cu	0.82483	0.75	0.75	0.905
Mof_Cu	Cu	0.67517	0.75	0.75	0.905
Mof_C 	C 	0.9124	0.0876	0.5993	0.145
Mof_H 	H 	0.8907	0.1093	0.6276	-0.005
Mof_C 	C 	0.5876	0.4124	0.5993	0.145
Mof_H 	H 	0.6093	0.3907	0.6276	-0.005
Mof_C 	C 	0.4124	0.9124	0.0993	0.145
Mof_H 	H 	0.3907	0.8907	0.1276	-0.005
Mof_C 	C 	0.0876	0.5876	0.0993	0.145
Mof_H 	H 	0.1093	0.6093	0.1276	-0.005
Mof_C 	C 	0.5876	0.0876	0.9007	0.145
Mof_H 	H 	0.6093	0.1093	0.8724	-0.005
Mof_C 	C 	0.9124	0.4124	0.9007	0.145
Mof_H 	H 	0.8907	0.3907	0.8724	-0.005
Mof_C 	C 	0.0876	0.9124	0.4007	0.145
Mof_H 	H 	0.1093	0.8907	0.3724	-0.005
Mof_C 	C 	0.4124	0.5876	0.4007	0.145
Mof_H 	H 	0.3907	0.6093	0.3724	-0.005
_end
