data_functionalizedCrystal
_audit_creation_method	'EQeq! by Chris Wilmer'
_symmetry_space_group_name_H-M	'P1'
_symmetry_Int_Tables_number	1
_symmetry_cell_setting	triclinic
loop_
_symmetry_equiv_pos_as_xyz
  x,y,z
_cell_length_a	25.789
_cell_length_b	25.789
_cell_length_c	19.797
_cell_angle_alpha	90
_cell_angle_beta	90
_cell_angle_gamma	120
loop_
_atom_site_label
_atom_site_type_symbol
_atom_site_fract_x
_atom_site_fract_y
_atom_site_fract_z
_atom_site_charge
Mof_Zn	Zn	0.43191	0.10032	0.59785	1.192
Mof_H 	H 	0.2975	0.0756	0.591	0.052
Mof_H 	H 	0.4358	0.12	0.439	0.073
Mof_H 	H 	0.4831	0.1849	0.29	0.235
Mof_H 	H 	0.4137	0.1411	0.2896	0.241
Mof_H 	H 	0.4549	0.1273	0.3352	0.255
Mof_H 	H 	0.5493	0.195	0.5274	0.02
Mof_H 	H 	0.3245	0.998	0.6885	0.013
Mof_C 	C 	0.3148	0.0221	0.527	0.066
Mof_C 	C 	0.2826	0.0464	0.556	-0.145
Mof_C 	C 	0.2217	0.0212	0.5257	0.06
Mof_C 	C 	0.187	0.05	0.558	-0.168
Mof_C 	C 	0.4323	0.1902	0.4985	0.077
Mof_C 	C 	0.4365	0.1571	0.4383	-0.194
Mof_C 	C 	0.4419	0.194	0.3755	0.21
Mof_C 	C 	0.449	0.158	0.317	-0.729
Mof_C 	C 	0.555	0.1642	0.5458	0.002
Mof_C 	C 	0.3541	0.0285	0.7162	-0.005
Mof_N 	N 	0.3713	0.0351	0.5428	-0.281
Mof_N 	N 	0.4306	0.1708	0.5641	-0.284
Mof_N 	N 	0.5117	0.1136	0.5758	-0.286
Mof_N 	N 	0.4042	0.08	0.6931	-0.277
Mof_O 	O 	0.5453	0.0084	0.6324	-0.173
Mof_O 	O 	0.5085	0.1858	0.6947	-0.162
Mof_Zn	Zn	0.89968	0.33159	0.59785	1.193
Mof_H 	H 	0.9244	0.2219	0.591	0.054
Mof_H 	H 	0.88	0.3158	0.439	0.075
Mof_H 	H 	0.8151	0.2982	0.29	0.237
Mof_H 	H 	0.8589	0.2726	0.2896	0.242
Mof_H 	H 	0.8727	0.3276	0.3352	0.256
Mof_H 	H 	0.805	0.3543	0.5274	0.02
Mof_H 	H 	0.002	0.3265	0.6885	0.009
Mof_C 	C 	0.9779	0.2927	0.527	0.071
Mof_C 	C 	0.9536	0.2362	0.556	-0.148
Mof_C 	C 	0.9788	0.2005	0.5257	0.065
Mof_C 	C 	0.95	0.137	0.558	-0.169
Mof_C 	C 	0.8098	0.2421	0.4985	0.078
Mof_C 	C 	0.8429	0.2794	0.4383	-0.195
Mof_C 	C 	0.806	0.2479	0.3755	0.212
Mof_C 	C 	0.842	0.291	0.317	-0.731
Mof_C 	C 	0.8358	0.3908	0.5458	0.002
Mof_C 	C 	0.9715	0.3256	0.7162	-0.002
Mof_N 	N 	0.9649	0.3362	0.5428	-0.281
Mof_N 	N 	0.8292	0.2598	0.5641	-0.284
Mof_N 	N 	0.8864	0.3981	0.5758	-0.286
Mof_N 	N 	0.92	0.3242	0.6931	-0.278
Mof_O 	O 	0.9916	0.5369	0.6324	-0.172
Mof_O 	O 	0.8142	0.3227	0.6947	-0.162
Mof_Zn	Zn	0.66841	0.56809	0.59785	1.192
Mof_H 	H 	0.7781	0.7025	0.591	0.054
Mof_H 	H 	0.6842	0.5642	0.439	0.032
Mof_H 	H 	0.6457	0.4507	0.5274	0.02
Mof_H 	H 	0.6735	0.6755	0.6885	0.011
Mof_C 	C 	0.7073	0.6852	0.527	0.07
Mof_C 	C 	0.7638	0.7174	0.556	-0.147
Mof_C 	C 	0.7995	0.7783	0.5257	0.064
Mof_C 	C 	0.863	0.813	0.558	-0.169
Mof_C 	C 	0.7579	0.5677	0.4985	0.018
Mof_C 	C 	0.7206	0.5635	0.4383	-0.056
Mof_C 	C 	0.7521	0.5581	0.3755	-0.127
Mof_C 	C 	0.6092	0.445	0.5458	0.003
Mof_C 	C 	0.6744	0.6459	0.7162	-0.003
Mof_N 	N 	0.6638	0.6287	0.5428	-0.281
Mof_N 	N 	0.7402	0.5694	0.5641	-0.275
Mof_N 	N 	0.6019	0.4883	0.5758	-0.286
Mof_N 	N 	0.6758	0.5958	0.6931	-0.278
Mof_O 	O 	0.4631	0.4547	0.6324	-0.172
Mof_O 	O 	0.6773	0.4915	0.6947	-0.162
Mof_Zn	Zn	0.56809	0.89968	0.09785	1.193
Mof_H 	H 	0.7025	0.9244	0.091	0.053
Mof_H 	H 	0.5642	0.88	0.939	0.076
Mof_H 	H 	0.5169	0.8151	0.79	0.238
Mof_H 	H 	0.5863	0.8589	0.7896	0.243
Mof_H 	H 	0.5451	0.8727	0.8352	0.257
Mof_H 	H 	0.4507	0.805	0.0274	0.02
Mof_H 	H 	0.6755	0.002	0.1885	0.008
Mof_C 	C 	0.6852	0.9779	0.027	0.068
Mof_C 	C 	0.7174	0.9536	0.056	-0.146
Mof_C 	C 	0.7783	0.9788	0.0257	0.063
Mof_C 	C 	0.813	0.95	0.058	-0.167
Mof_C 	C 	0.5677	0.8098	0.9985	0.08
Mof_C 	C 	0.5635	0.8429	0.9383	-0.195
Mof_C 	C 	0.5581	0.806	0.8755	0.213
Mof_C 	C 	0.551	0.842	0.817	-0.733
Mof_C 	C 	0.445	0.8358	0.0458	0.002
Mof_C 	C 	0.6459	0.9715	0.2162	-0.001
Mof_N 	N 	0.6287	0.9649	0.0428	-0.28
Mof_N 	N 	0.5694	0.8292	0.0641	-0.285
Mof_N 	N 	0.4883	0.8864	0.0758	-0.286
Mof_N 	N 	0.5958	0.92	0.1931	-0.278
Mof_O 	O 	0.4547	0.9916	0.1324	-0.172
Mof_O 	O 	0.4915	0.8142	0.1947	-0.162
Mof_Zn	Zn	0.10032	0.66841	0.09785	1.193
Mof_H 	H 	0.0756	0.7781	0.091	0.052
Mof_H 	H 	0.12	0.6842	0.939	0.075
Mof_H 	H 	0.1849	0.7018	0.79	0.237
Mof_H 	H 	0.1411	0.7274	0.7896	0.242
Mof_H 	H 	0.1273	0.6724	0.8352	0.256
Mof_H 	H 	0.195	0.6457	0.0274	0.02
Mof_H 	H 	0.998	0.6735	0.1885	0.015
Mof_C 	C 	0.0221	0.7073	0.027	0.064
Mof_C 	C 	0.0464	0.7638	0.056	-0.143
Mof_C 	C 	0.0212	0.7995	0.0257	0.058
Mof_C 	C 	0.05	0.863	0.058	-0.166
Mof_C 	C 	0.1902	0.7579	0.9985	0.079
Mof_C 	C 	0.1571	0.7206	0.9383	-0.195
Mof_C 	C 	0.194	0.7521	0.8755	0.212
Mof_C 	C 	0.158	0.709	0.817	-0.731
Mof_C 	C 	0.1642	0.6092	0.0458	0.002
Mof_C 	C 	0.0285	0.6744	0.2162	-0.005
Mof_N 	N 	0.0351	0.6638	0.0428	-0.28
Mof_N 	N 	0.1708	0.7402	0.0641	-0.285
Mof_N 	N 	0.1136	0.6019	0.0758	-0.286
Mof_N 	N 	0.08	0.6758	0.1931	-0.277
Mof_O 	O 	0.0084	0.4631	0.1324	-0.172
Mof_O 	O 	0.1858	0.6773	0.1947	-0.162
Mof_Zn	Zn	0.33159	0.43191	0.09785	1.193
Mof_H 	H 	0.2219	0.2975	0.091	0.052
Mof_H 	H 	0.3158	0.4358	0.939	0.076
Mof_H 	H 	0.2982	0.4831	0.79	0.237
Mof_H 	H 	0.2726	0.4137	0.7896	0.242
Mof_H 	H 	0.3276	0.4549	0.8352	0.256
Mof_H 	H 	0.3543	0.5493	0.0274	0.02
Mof_H 	H 	0.3265	0.3245	0.1885	0.011
Mof_C 	C 	0.2927	0.3148	0.027	0.065
Mof_C 	C 	0.2362	0.2826	0.056	-0.144
Mof_C 	C 	0.2005	0.2217	0.0257	0.059
Mof_C 	C 	0.137	0.187	0.058	-0.166
Mof_C 	C 	0.2421	0.4323	0.9985	0.079
Mof_C 	C 	0.2794	0.4365	0.9383	-0.194
Mof_C 	C 	0.2479	0.4419	0.8755	0.211
Mof_C 	C 	0.291	0.449	0.817	-0.731
Mof_C 	C 	0.3908	0.555	0.0458	0.002
Mof_C 	C 	0.3256	0.3541	0.2162	-0.003
Mof_N 	N 	0.3362	0.3713	0.0428	-0.281
Mof_N 	N 	0.2598	0.4306	0.0641	-0.285
Mof_N 	N 	0.3981	0.5117	0.0758	-0.286
Mof_N 	N 	0.3242	0.4042	0.1931	-0.278
Mof_O 	O 	0.5369	0.5453	0.1324	-0.178
Mof_O 	O 	0.3227	0.5085	0.1947	-0.162
Mof_Zn	Zn	0.10032	0.43191	0.40215	1.193
Mof_H 	H 	0.0756	0.2975	0.409	0.033
Mof_H 	H 	0.12	0.4358	0.561	0.075
Mof_H 	H 	0.1849	0.4831	0.71	0.237
Mof_H 	H 	0.1411	0.4137	0.7104	0.242
Mof_H 	H 	0.1273	0.4549	0.6648	0.256
Mof_H 	H 	0.195	0.5493	0.4726	0.02
Mof_H 	H 	0.998	0.3245	0.3115	0.012
Mof_C 	C 	0.0221	0.3148	0.473	0.041
Mof_C 	C 	0.0464	0.2826	0.444	-0.09
Mof_C 	C 	0.0212	0.2217	0.4743	-0.056
Mof_C 	C 	0.1902	0.4323	0.5015	0.077
Mof_C 	C 	0.1571	0.4365	0.5617	-0.194
Mof_C 	C 	0.194	0.4419	0.6245	0.21
Mof_C 	C 	0.158	0.449	0.683	-0.73
Mof_C 	C 	0.1642	0.555	0.4542	0.002
Mof_C 	C 	0.0285	0.3541	0.2838	-0.005
Mof_N 	N 	0.0351	0.3713	0.4572	-0.277
Mof_N 	N 	0.1708	0.4306	0.4359	-0.284
Mof_N 	N 	0.1136	0.5117	0.4242	-0.286
Mof_N 	N 	0.08	0.4042	0.3069	-0.277
Mof_O 	O 	0.0084	0.5453	0.3676	-0.178
Mof_O 	O 	0.1858	0.5085	0.3053	-0.162
Mof_Zn	Zn	0.33159	0.89968	0.40215	1.193
Mof_H 	H 	0.2219	0.9244	0.409	0.035
Mof_H 	H 	0.3158	0.88	0.561	0.075
Mof_H 	H 	0.2982	0.8151	0.71	0.238
Mof_H 	H 	0.2726	0.8589	0.7104	0.243
Mof_H 	H 	0.3276	0.8727	0.6648	0.257
Mof_H 	H 	0.3543	0.805	0.4726	0.02
Mof_H 	H 	0.3265	0.002	0.3115	0.009
Mof_C 	C 	0.2927	0.9779	0.473	0.046
Mof_C 	C 	0.2362	0.9536	0.444	-0.094
Mof_C 	C 	0.2005	0.9788	0.4743	-0.05
Mof_C 	C 	0.2421	0.8098	0.5015	0.078
Mof_C 	C 	0.2794	0.8429	0.5617	-0.195
Mof_C 	C 	0.2479	0.806	0.6245	0.212
Mof_C 	C 	0.291	0.842	0.683	-0.733
Mof_C 	C 	0.3908	0.8358	0.4542	0.002
Mof_C 	C 	0.3256	0.9715	0.2838	-0.001
Mof_N 	N 	0.3362	0.9649	0.4572	-0.276
Mof_N 	N 	0.2598	0.8292	0.4359	-0.284
Mof_N 	N 	0.3981	0.8864	0.4242	-0.286
Mof_N 	N 	0.3242	0.92	0.3069	-0.278
Mof_O 	O 	0.5369	0.9916	0.3676	-0.172
Mof_O 	O 	0.3227	0.8142	0.3053	-0.162
Mof_Zn	Zn	0.56809	0.66841	0.40215	1.193
Mof_H 	H 	0.7025	0.7781	0.409	0.034
Mof_H 	H 	0.5642	0.6842	0.561	0.075
Mof_H 	H 	0.5169	0.7018	0.71	0.238
Mof_H 	H 	0.5863	0.7274	0.7104	0.242
Mof_H 	H 	0.5451	0.6724	0.6648	0.257
Mof_H 	H 	0.4507	0.6457	0.4726	0.02
Mof_H 	H 	0.6755	0.6735	0.3115	0.014
Mof_C 	C 	0.6852	0.7073	0.473	0.043
Mof_C 	C 	0.7174	0.7638	0.444	-0.091
Mof_C 	C 	0.7783	0.7995	0.4743	-0.054
Mof_C 	C 	0.5677	0.7579	0.5015	0.078
Mof_C 	C 	0.5635	0.7206	0.5617	-0.195
Mof_C 	C 	0.5581	0.7521	0.6245	0.212
Mof_C 	C 	0.551	0.709	0.683	-0.732
Mof_C 	C 	0.445	0.6092	0.4542	0.002
Mof_C 	C 	0.6459	0.6744	0.2838	-0.003
Mof_N 	N 	0.6287	0.6638	0.4572	-0.277
Mof_N 	N 	0.5694	0.7402	0.4359	-0.284
Mof_N 	N 	0.4883	0.6019	0.4242	-0.286
Mof_N 	N 	0.5958	0.6758	0.3069	-0.277
Mof_O 	O 	0.4547	0.4631	0.3676	-0.171
Mof_O 	O 	0.4915	0.6773	0.3053	-0.162
Mof_Zn	Zn	0.89968	0.56809	0.90215	1.193
Mof_H 	H 	0.9244	0.7025	0.909	0.035
Mof_H 	H 	0.88	0.5642	0.061	0.032
Mof_H 	H 	0.805	0.4507	0.9726	0.021
Mof_H 	H 	0.002	0.6755	0.8115	0.009
Mof_C 	C 	0.9779	0.6852	0.973	0.049
Mof_C 	C 	0.9536	0.7174	0.944	-0.096
Mof_C 	C 	0.9788	0.7783	0.9743	-0.047
Mof_C 	C 	0.8098	0.5677	0.0015	0.016
Mof_C 	C 	0.8429	0.5635	0.0617	-0.056
Mof_C 	C 	0.806	0.5581	0.1245	-0.127
Mof_C 	C 	0.8358	0.445	0.9542	0.004
Mof_C 	C 	0.9715	0.6459	0.7838	-0.001
Mof_N 	N 	0.9649	0.6287	0.9572	-0.276
Mof_N 	N 	0.8292	0.5694	0.9359	-0.274
Mof_N 	N 	0.8864	0.4883	0.9242	-0.286
Mof_N 	N 	0.92	0.5958	0.8069	-0.278
Mof_O 	O 	0.9916	0.4547	0.8676	-0.171
Mof_O 	O 	0.8142	0.4915	0.8053	-0.162
Mof_Zn	Zn	0.66841	0.10032	0.90215	1.193
Mof_H 	H 	0.7781	0.0756	0.909	0.033
Mof_H 	H 	0.6842	0.12	0.061	0.074
Mof_H 	H 	0.7018	0.1849	0.21	0.237
Mof_H 	H 	0.7274	0.1411	0.2104	0.242
Mof_H 	H 	0.6724	0.1273	0.1648	0.256
Mof_H 	H 	0.6457	0.195	0.9726	0.021
Mof_H 	H 	0.6735	0.998	0.8115	0.013
Mof_C 	C 	0.7073	0.0221	0.973	0.044
Mof_C 	C 	0.7638	0.0464	0.944	-0.093
Mof_C 	C 	0.7995	0.0212	0.9743	-0.053
Mof_C 	C 	0.7579	0.1902	0.0015	0.075
Mof_C 	C 	0.7206	0.1571	0.0617	-0.195
Mof_C 	C 	0.7521	0.194	0.1245	0.211
Mof_C 	C 	0.709	0.158	0.183	-0.73
Mof_C 	C 	0.6092	0.1642	0.9542	0.002
Mof_C 	C 	0.6744	0.0285	0.7838	-0.005
Mof_N 	N 	0.6638	0.0351	0.9572	-0.275
Mof_N 	N 	0.7402	0.1708	0.9359	-0.282
Mof_N 	N 	0.6019	0.1136	0.9242	-0.286
Mof_N 	N 	0.6758	0.08	0.8069	-0.277
Mof_O 	O 	0.4631	0.0084	0.8676	-0.172
Mof_O 	O 	0.6773	0.1858	0.8053	-0.162
Mof_Zn	Zn	0.43191	0.33159	0.90215	1.193
Mof_H 	H 	0.2975	0.2219	0.909	0.035
Mof_H 	H 	0.4358	0.3158	0.061	0.074
Mof_H 	H 	0.4831	0.2982	0.21	0.236
Mof_H 	H 	0.4137	0.2726	0.2104	0.241
Mof_H 	H 	0.4549	0.3276	0.1648	0.255
Mof_H 	H 	0.5493	0.3543	0.9726	0.021
Mof_H 	H 	0.3245	0.3265	0.8115	0.011
Mof_C 	C 	0.3148	0.2927	0.973	0.047
Mof_C 	C 	0.2826	0.2362	0.944	-0.095
Mof_C 	C 	0.2217	0.2005	0.9743	-0.049
Mof_C 	C 	0.4323	0.2421	0.0015	0.075
Mof_C 	C 	0.4365	0.2794	0.0617	-0.194
Mof_C 	C 	0.4419	0.2479	0.1245	0.21
Mof_C 	C 	0.449	0.291	0.183	-0.729
Mof_C 	C 	0.555	0.3908	0.9542	0.002
Mof_C 	C 	0.3541	0.3256	0.7838	-0.003
Mof_N 	N 	0.3713	0.3362	0.9572	-0.276
Mof_N 	N 	0.4306	0.2598	0.9359	-0.283
Mof_N 	N 	0.5117	0.3981	0.9242	-0.286
Mof_N 	N 	0.4042	0.3242	0.8069	-0.278
Mof_O 	O 	0.5453	0.5369	0.8676	-0.172
Mof_O 	O 	0.5085	0.3227	0.8053	-0.162
Mof_Zn	Zn	0.56809	0.89968	0.40215	1.193
Mof_H 	H 	0.7025	0.9244	0.409	0.054
Mof_H 	H 	0.5642	0.88	0.561	0.032
Mof_H 	H 	0.4507	0.805	0.4726	0.02
Mof_H 	H 	0.6755	0.002	0.3115	0.011
Mof_C 	C 	0.6852	0.9779	0.473	0.073
Mof_C 	C 	0.7174	0.9536	0.444	-0.148
Mof_C 	C 	0.7783	0.9788	0.4743	0.067
Mof_C 	C 	0.813	0.95	0.442	-0.169
Mof_C 	C 	0.5677	0.8098	0.5015	0.018
Mof_C 	C 	0.5635	0.8429	0.5617	-0.055
Mof_C 	C 	0.5581	0.806	0.6245	-0.129
Mof_C 	C 	0.445	0.8358	0.4542	0.003
Mof_C 	C 	0.6459	0.9715	0.2838	-0.001
Mof_N 	N 	0.6287	0.9649	0.4572	-0.28
Mof_N 	N 	0.5694	0.8292	0.4359	-0.275
Mof_N 	N 	0.4883	0.8864	0.4242	-0.286
Mof_N 	N 	0.5958	0.92	0.3069	-0.278
Mof_O 	O 	0.4547	0.9916	0.3676	-0.176
Mof_O 	O 	0.4915	0.8142	0.3053	-0.162
Mof_Zn	Zn	0.10032	0.66841	0.40215	1.192
Mof_H 	H 	0.0756	0.7781	0.409	0.053
Mof_H 	H 	0.12	0.6842	0.561	0.031
Mof_H 	H 	0.195	0.6457	0.4726	0.02
Mof_H 	H 	0.998	0.6735	0.3115	0.012
Mof_C 	C 	0.0221	0.7073	0.473	0.067
Mof_C 	C 	0.0464	0.7638	0.444	-0.145
Mof_C 	C 	0.0212	0.7995	0.4743	0.061
Mof_C 	C 	0.05	0.863	0.442	-0.168
Mof_C 	C 	0.1902	0.7579	0.5015	0.018
Mof_C 	C 	0.1571	0.7206	0.5617	-0.055
Mof_C 	C 	0.194	0.7521	0.6245	-0.129
Mof_C 	C 	0.1642	0.6092	0.4542	0.003
Mof_C 	C 	0.0285	0.6744	0.2838	-0.005
Mof_N 	N 	0.0351	0.6638	0.4572	-0.281
Mof_N 	N 	0.1708	0.7402	0.4359	-0.275
Mof_N 	N 	0.1136	0.6019	0.4242	-0.286
Mof_N 	N 	0.08	0.6758	0.3069	-0.278
Mof_O 	O 	0.0084	0.4631	0.3676	-0.178
Mof_O 	O 	0.1858	0.6773	0.3053	-0.162
Mof_Zn	Zn	0.33159	0.43191	0.40215	1.193
Mof_H 	H 	0.2219	0.2975	0.409	0.053
Mof_H 	H 	0.3158	0.4358	0.561	0.032
Mof_H 	H 	0.3543	0.5493	0.4726	0.02
Mof_H 	H 	0.3265	0.3245	0.3115	0.014
Mof_C 	C 	0.2927	0.3148	0.473	0.07
Mof_C 	C 	0.2362	0.2826	0.444	-0.146
Mof_C 	C 	0.2005	0.2217	0.4743	0.063
Mof_C 	C 	0.137	0.187	0.442	-0.168
Mof_C 	C 	0.2421	0.4323	0.5015	0.018
Mof_C 	C 	0.2794	0.4365	0.5617	-0.056
Mof_C 	C 	0.2479	0.4419	0.6245	-0.127
Mof_C 	C 	0.3908	0.555	0.4542	0.003
Mof_C 	C 	0.3256	0.3541	0.2838	-0.003
Mof_N 	N 	0.3362	0.3713	0.4572	-0.281
Mof_N 	N 	0.2598	0.4306	0.4359	-0.275
Mof_N 	N 	0.3981	0.5117	0.4242	-0.286
Mof_N 	N 	0.3242	0.4042	0.3069	-0.277
Mof_O 	O 	0.5369	0.5453	0.3676	-0.171
Mof_O 	O 	0.3227	0.5085	0.3053	-0.162
Mof_Zn	Zn	0.43191	0.10032	0.90215	1.193
Mof_H 	H 	0.2975	0.0756	0.909	0.054
Mof_H 	H 	0.4358	0.12	0.061	0.031
Mof_H 	H 	0.5493	0.195	0.9726	0.021
Mof_H 	H 	0.3245	0.998	0.8115	0.015
Mof_C 	C 	0.3148	0.0221	0.973	0.071
Mof_C 	C 	0.2826	0.0464	0.944	-0.148
Mof_C 	C 	0.2217	0.0212	0.9743	0.064
Mof_C 	C 	0.187	0.05	0.942	-0.169
Mof_C 	C 	0.4323	0.1902	0.0015	0.016
Mof_C 	C 	0.4365	0.1571	0.0617	-0.056
Mof_C 	C 	0.4419	0.194	0.1245	-0.127
Mof_C 	C 	0.555	0.1642	0.9542	0.003
Mof_C 	C 	0.3541	0.0285	0.7838	-0.005
Mof_N 	N 	0.3713	0.0351	0.9572	-0.279
Mof_N 	N 	0.4306	0.1708	0.9359	-0.274
Mof_N 	N 	0.5117	0.1136	0.9242	-0.286
Mof_N 	N 	0.4042	0.08	0.8069	-0.277
Mof_O 	O 	0.5453	0.0084	0.8676	-0.177
Mof_O 	O 	0.5085	0.1858	0.8053	-0.162
Mof_Zn	Zn	0.89968	0.33159	0.90215	1.193
Mof_H 	H 	0.9244	0.2219	0.909	0.055
Mof_H 	H 	0.88	0.3158	0.061	0.031
Mof_H 	H 	0.805	0.3543	0.9726	0.021
Mof_H 	H 	0.002	0.3265	0.8115	0.012
Mof_C 	C 	0.9779	0.2927	0.973	0.076
Mof_C 	C 	0.9536	0.2362	0.944	-0.151
Mof_C 	C 	0.9788	0.2005	0.9743	0.07
Mof_C 	C 	0.95	0.137	0.942	-0.171
Mof_C 	C 	0.8098	0.2421	0.0015	0.016
Mof_C 	C 	0.8429	0.2794	0.0617	-0.056
Mof_C 	C 	0.806	0.2479	0.1245	-0.129
Mof_C 	C 	0.8358	0.3908	0.9542	0.004
Mof_C 	C 	0.9715	0.3256	0.7838	-0.001
Mof_N 	N 	0.9649	0.3362	0.9572	-0.279
Mof_N 	N 	0.8292	0.2598	0.9359	-0.274
Mof_N 	N 	0.8864	0.3981	0.9242	-0.286
Mof_N 	N 	0.92	0.3242	0.8069	-0.277
Mof_O 	O 	0.9916	0.5369	0.8676	-0.175
Mof_O 	O 	0.8142	0.3227	0.8053	-0.162
Mof_Zn	Zn	0.66841	0.56809	0.90215	1.193
Mof_H 	H 	0.7781	0.7025	0.909	0.055
Mof_H 	H 	0.6842	0.5642	0.061	0.074
Mof_H 	H 	0.7018	0.5169	0.21	0.236
Mof_H 	H 	0.7274	0.5863	0.2104	0.242
Mof_H 	H 	0.6724	0.5451	0.1648	0.255
Mof_H 	H 	0.6457	0.4507	0.9726	0.021
Mof_H 	H 	0.6735	0.6755	0.8115	0.014
Mof_C 	C 	0.7073	0.6852	0.973	0.074
Mof_C 	C 	0.7638	0.7174	0.944	-0.149
Mof_C 	C 	0.7995	0.7783	0.9743	0.068
Mof_C 	C 	0.863	0.813	0.942	-0.17
Mof_C 	C 	0.7579	0.5677	0.0015	0.075
Mof_C 	C 	0.7206	0.5635	0.0617	-0.194
Mof_C 	C 	0.7521	0.5581	0.1245	0.21
Mof_C 	C 	0.709	0.551	0.183	-0.729
Mof_C 	C 	0.6092	0.445	0.9542	0.002
Mof_C 	C 	0.6744	0.6459	0.7838	-0.003
Mof_N 	N 	0.6638	0.6287	0.9572	-0.28
Mof_N 	N 	0.7402	0.5694	0.9359	-0.283
Mof_N 	N 	0.6019	0.4883	0.9242	-0.286
Mof_N 	N 	0.6758	0.5958	0.8069	-0.277
Mof_O 	O 	0.4631	0.4547	0.8676	-0.176
Mof_O 	O 	0.6773	0.4915	0.8053	-0.162
Mof_Zn	Zn	0.89968	0.56809	0.59785	1.193
Mof_H 	H 	0.9244	0.7025	0.591	0.034
Mof_H 	H 	0.88	0.5642	0.439	0.075
Mof_H 	H 	0.8151	0.5169	0.29	0.237
Mof_H 	H 	0.8589	0.5863	0.2896	0.242
Mof_H 	H 	0.8727	0.5451	0.3352	0.256
Mof_H 	H 	0.805	0.4507	0.5274	0.02
Mof_H 	H 	0.002	0.6755	0.6885	0.012
Mof_C 	C 	0.9779	0.6852	0.527	0.046
Mof_C 	C 	0.9536	0.7174	0.556	-0.094
Mof_C 	C 	0.9788	0.7783	0.5257	-0.051
Mof_C 	C 	0.8098	0.5677	0.4985	0.077
Mof_C 	C 	0.8429	0.5635	0.4383	-0.194
Mof_C 	C 	0.806	0.5581	0.3755	0.21
Mof_C 	C 	0.842	0.551	0.317	-0.73
Mof_C 	C 	0.8358	0.445	0.5458	0.002
Mof_C 	C 	0.9715	0.6459	0.7162	-0.001
Mof_N 	N 	0.9649	0.6287	0.5428	-0.276
Mof_N 	N 	0.8292	0.5694	0.5641	-0.284
Mof_N 	N 	0.8864	0.4883	0.5758	-0.286
Mof_N 	N 	0.92	0.5958	0.6931	-0.277
Mof_O 	O 	0.9916	0.4547	0.6324	-0.176
Mof_O 	O 	0.8142	0.4915	0.6947	-0.162
Mof_Zn	Zn	0.66841	0.10032	0.59785	1.192
Mof_H 	H 	0.7781	0.0756	0.591	0.032
Mof_H 	H 	0.6842	0.12	0.439	0.031
Mof_H 	H 	0.6457	0.195	0.5274	0.02
Mof_H 	H 	0.6735	0.998	0.6885	0.016
Mof_C 	C 	0.7073	0.0221	0.527	0.04
Mof_C 	C 	0.7638	0.0464	0.556	-0.09
Mof_C 	C 	0.7995	0.0212	0.5257	-0.058
Mof_C 	C 	0.7579	0.1902	0.4985	0.018
Mof_C 	C 	0.7206	0.1571	0.4383	-0.056
Mof_C 	C 	0.7521	0.194	0.3755	-0.129
Mof_C 	C 	0.6092	0.1642	0.5458	0.003
Mof_C 	C 	0.6744	0.0285	0.7162	-0.005
Mof_N 	N 	0.6638	0.0351	0.5428	-0.276
Mof_N 	N 	0.7402	0.1708	0.5641	-0.275
Mof_N 	N 	0.6019	0.1136	0.5758	-0.286
Mof_N 	N 	0.6758	0.08	0.6931	-0.277
Mof_O 	O 	0.4631	0.0084	0.6324	-0.177
Mof_O 	O 	0.6773	0.1858	0.6947	-0.162
Mof_Zn	Zn	0.43191	0.33159	0.59785	1.193
Mof_H 	H 	0.2975	0.2219	0.591	0.034
Mof_H 	H 	0.4358	0.3158	0.439	0.032
Mof_H 	H 	0.5493	0.3543	0.5274	0.02
Mof_H 	H 	0.3245	0.3265	0.6885	0.014
Mof_C 	C 	0.3148	0.2927	0.527	0.044
Mof_C 	C 	0.2826	0.2362	0.556	-0.092
Mof_C 	C 	0.2217	0.2005	0.5257	-0.054
Mof_C 	C 	0.4323	0.2421	0.4985	0.018
Mof_C 	C 	0.4365	0.2794	0.4383	-0.056
Mof_C 	C 	0.4419	0.2479	0.3755	-0.127
Mof_C 	C 	0.555	0.3908	0.5458	0.003
Mof_C 	C 	0.3541	0.3256	0.7162	-0.003
Mof_N 	N 	0.3713	0.3362	0.5428	-0.277
Mof_N 	N 	0.4306	0.2598	0.5641	-0.275
Mof_N 	N 	0.5117	0.3981	0.5758	-0.286
Mof_N 	N 	0.4042	0.3242	0.6931	-0.277
Mof_O 	O 	0.5453	0.5369	0.6324	-0.176
Mof_O 	O 	0.5085	0.3227	0.6947	-0.162
Mof_Zn	Zn	0.10032	0.43191	0.09785	1.192
Mof_H 	H 	0.0756	0.2975	0.091	0.032
Mof_H 	H 	0.12	0.4358	0.939	0.032
Mof_H 	H 	0.195	0.5493	0.0274	0.02
Mof_H 	H 	0.998	0.3245	0.1885	0.015
Mof_C 	C 	0.0221	0.3148	0.027	0.037
Mof_C 	C 	0.0464	0.2826	0.056	-0.087
Mof_C 	C 	0.0212	0.2217	0.0257	-0.061
Mof_C 	C 	0.1902	0.4323	0.9985	0.02
Mof_C 	C 	0.1571	0.4365	0.9383	-0.056
Mof_C 	C 	0.194	0.4419	0.8755	-0.127
Mof_C 	C 	0.1642	0.555	0.0458	0.003
Mof_C 	C 	0.0285	0.3541	0.2162	-0.004
Mof_N 	N 	0.0351	0.3713	0.0428	-0.276
Mof_N 	N 	0.1708	0.4306	0.0641	-0.276
Mof_N 	N 	0.1136	0.5117	0.0758	-0.286
Mof_N 	N 	0.08	0.4042	0.1931	-0.277
Mof_O 	O 	0.0084	0.5453	0.1324	-0.172
Mof_O 	O 	0.1858	0.5085	0.1947	-0.162
Mof_Zn	Zn	0.33159	0.89968	0.09785	1.193
Mof_H 	H 	0.2219	0.9244	0.091	0.034
Mof_H 	H 	0.3158	0.88	0.939	0.033
Mof_H 	H 	0.3543	0.805	0.0274	0.02
Mof_H 	H 	0.3265	0.002	0.1885	0.011
Mof_C 	C 	0.2927	0.9779	0.027	0.043
Mof_C 	C 	0.2362	0.9536	0.056	-0.091
Mof_C 	C 	0.2005	0.9788	0.0257	-0.054
Mof_C 	C 	0.2421	0.8098	0.9985	0.02
Mof_C 	C 	0.2794	0.8429	0.9383	-0.056
Mof_C 	C 	0.2479	0.806	0.8755	-0.129
Mof_C 	C 	0.3908	0.8358	0.0458	0.003
Mof_C 	C 	0.3256	0.9715	0.2162	-0.001
Mof_N 	N 	0.3362	0.9649	0.0428	-0.275
Mof_N 	N 	0.2598	0.8292	0.0641	-0.276
Mof_N 	N 	0.3981	0.8864	0.0758	-0.286
Mof_N 	N 	0.3242	0.92	0.1931	-0.278
Mof_O 	O 	0.5369	0.9916	0.1324	-0.176
Mof_O 	O 	0.3227	0.8142	0.1947	-0.162
Mof_Zn	Zn	0.56809	0.66841	0.09785	1.192
Mof_H 	H 	0.7025	0.7781	0.091	0.033
Mof_H 	H 	0.5642	0.6842	0.939	0.032
Mof_H 	H 	0.4507	0.6457	0.0274	0.02
Mof_H 	H 	0.6755	0.6735	0.1885	0.011
Mof_C 	C 	0.6852	0.7073	0.027	0.039
Mof_C 	C 	0.7174	0.7638	0.056	-0.089
Mof_C 	C 	0.7783	0.7995	0.0257	-0.058
Mof_C 	C 	0.5677	0.7579	0.9985	0.02
Mof_C 	C 	0.5635	0.7206	0.9383	-0.055
Mof_C 	C 	0.5581	0.7521	0.8755	-0.129
Mof_C 	C 	0.445	0.6092	0.0458	0.003
Mof_C 	C 	0.6459	0.6744	0.2162	-0.003
Mof_N 	N 	0.6287	0.6638	0.0428	-0.276
Mof_N 	N 	0.5694	0.7402	0.0641	-0.276
Mof_N 	N 	0.4883	0.6019	0.0758	-0.286
Mof_N 	N 	0.5958	0.6758	0.1931	-0.278
Mof_O 	O 	0.4547	0.4631	0.1324	-0.178
Mof_O 	O 	0.4915	0.6773	0.1947	-0.162
Mof_H 	H 	0.421	0	0.5	-0.007
Mof_C 	C 	0.3842	0	0.5	0.045
Mof_H 	H 	3.27578e-17	0.421	0.5	-0.007
Mof_C 	C 	3.27578e-17	0.3842	0.5	0.045
Mof_H 	H 	0.579	0.579	0.5	-0.006
Mof_C 	C 	0.6158	0.6158	0.5	0.05
Mof_H 	H 	0.579	0	-0	-0.006
Mof_C 	C 	0.6158	0	-0	0.041
Mof_H 	H 	-3.98815e-17	0.579	-0	-0.006
Mof_C 	C 	3.98815e-17	0.6158	-0	0.046
Mof_H 	H 	0.421	0.421	-0	-0.007
Mof_C 	C 	0.3842	0.3842	-0	0.044
Mof_H 	H 	0.579	0	0.5	-0.006
Mof_C 	C 	0.6158	0	0.5	0.05
Mof_H 	H 	-7.12371e-18	0.579	0.5	-0.006
Mof_C 	C 	3.27578e-17	0.6158	0.5	0.048
Mof_H 	H 	0.421	0.421	0.5	-0.006
Mof_C 	C 	0.3842	0.3842	0.5	0.052
Mof_H 	H 	0.421	0	-0	-0.006
Mof_C 	C 	0.3842	0	-0	0.047
Mof_H 	H 	-0	0.421	-0	-0.006
Mof_C 	C 	-0	0.3842	-0	0.048
Mof_H 	H 	0.579	0.579	-0	-0.006
Mof_C 	C 	0.6158	0.6158	-0	0.047
Mof_H 	H 	0.4341	0.21705	0.6506	-0.007
Mof_C 	C 	0.4321	0.21605	0.6026	0.069
Mof_H 	H 	0.78295	0.21705	0.6506	-0.007
Mof_C 	C 	0.78395	0.21605	0.6026	0.069
Mof_H 	H 	0.78295	0.5659	0.6506	-0.007
Mof_C 	C 	0.78395	0.5679	0.6026	0.069
Mof_H 	H 	0.5659	0.78295	0.1506	-0.007
Mof_C 	C 	0.5679	0.78395	0.1026	0.069
Mof_H 	H 	0.21705	0.78295	0.1506	-0.007
Mof_C 	C 	0.21605	0.78395	0.1026	0.069
Mof_H 	H 	0.21705	0.4341	0.1506	-0.007
Mof_C 	C 	0.21605	0.4321	0.1026	0.069
Mof_H 	H 	0.21705	0.4341	0.3494	-0.007
Mof_C 	C 	0.21605	0.4321	0.3974	0.069
Mof_H 	H 	0.21705	0.78295	0.3494	-0.007
Mof_C 	C 	0.21605	0.78395	0.3974	0.069
Mof_H 	H 	0.5659	0.78295	0.3494	-0.007
Mof_C 	C 	0.5679	0.78395	0.3974	0.069
Mof_H 	H 	0.78295	0.5659	0.8494	-0.007
Mof_C 	C 	0.78395	0.5679	0.8974	0.07
Mof_H 	H 	0.78295	0.21705	0.8494	-0.007
Mof_C 	C 	0.78395	0.21605	0.8974	0.069
Mof_H 	H 	0.4341	0.21705	0.8494	-0.007
Mof_C 	C 	0.4321	0.21605	0.8974	0.069
Mof_C 	C 	0.54585	0.0917	0.5913	0.198
Mof_N 	N 	0.5195	0.039	0.63	-0.039
Mof_C 	C 	0.9083	0.45415	0.5913	0.198
Mof_N 	N 	0.961	0.4805	0.63	-0.039
Mof_C 	C 	0.54585	0.45415	0.5913	0.198
Mof_N 	N 	0.5195	0.4805	0.63	-0.039
Mof_C 	C 	0.45415	0.9083	0.0913	0.198
Mof_N 	N 	0.4805	0.961	0.13	-0.039
Mof_C 	C 	0.0917	0.54585	0.0913	0.198
Mof_N 	N 	0.039	0.5195	0.13	-0.039
Mof_C 	C 	0.45415	0.54585	0.0913	0.197
Mof_N 	N 	0.4805	0.5195	0.13	-0.038
Mof_C 	C 	0.0917	0.54585	0.4087	0.198
Mof_N 	N 	0.039	0.5195	0.37	-0.038
Mof_C 	C 	0.45415	0.9083	0.4087	0.198
Mof_N 	N 	0.4805	0.961	0.37	-0.039
Mof_C 	C 	0.45415	0.54585	0.4087	0.198
Mof_N 	N 	0.4805	0.5195	0.37	-0.039
Mof_C 	C 	0.9083	0.45415	0.9087	0.199
Mof_N 	N 	0.961	0.4805	0.87	-0.039
Mof_C 	C 	0.54585	0.0917	0.9087	0.198
Mof_N 	N 	0.5195	0.039	0.87	-0.039
Mof_C 	C 	0.54585	0.45415	0.9087	0.198
Mof_N 	N 	0.5195	0.4805	0.87	-0.039
Mof_C 	C 	0.4296	0.1062	0.75	0.161
Mof_N 	N 	0.4866	0.162	0.75	-0.03
Mof_C 	C 	0.8938	0.3234	0.75	0.161
Mof_N 	N 	0.838	0.3246	0.75	-0.03
Mof_C 	C 	0.6766	0.5704	0.75	0.161
Mof_N 	N 	0.6754	0.5134	0.75	-0.03
Mof_C 	C 	0.5704	0.8938	0.25	0.161
Mof_N 	N 	0.5134	0.838	0.25	-0.03
Mof_C 	C 	0.1062	0.6766	0.25	0.161
Mof_N 	N 	0.162	0.6754	0.25	-0.03
Mof_C 	C 	0.3234	0.4296	0.25	0.161
Mof_N 	N 	0.3246	0.4866	0.25	-0.03
Mof_C 	C 	0.1062	0.4296	0.25	0.161
Mof_N 	N 	0.162	0.4866	0.25	-0.03
Mof_C 	C 	0.3234	0.8938	0.25	0.161
Mof_N 	N 	0.3246	0.838	0.25	-0.03
Mof_C 	C 	0.5704	0.6766	0.25	0.161
Mof_N 	N 	0.5134	0.6754	0.25	-0.03
Mof_C 	C 	0.8938	0.5704	0.75	0.161
Mof_N 	N 	0.838	0.5134	0.75	-0.03
Mof_C 	C 	0.6766	0.1062	0.75	0.161
Mof_N 	N 	0.6754	0.162	0.75	-0.03
Mof_C 	C 	0.4296	0.3234	0.75	0.161
Mof_N 	N 	0.4866	0.3246	0.75	-0.03
Mof_H 	H 	0.78294	0.91446	0.09611	0.053
Mof_H 	H 	0.85466	0.98606	0.08472	0.052
Mof_H 	H 	0.8268	0.92841	0.01681	0.053
Mof_H 	H 	0.82597	0.27214	0.17414	0.043
Mof_H 	H 	0.44637	0.17771	0.17654	0.041
Mof_H 	H 	0.72786	0.17403	0.32586	0.043
Mof_H 	H 	0.44637	0.26866	0.32346	0.041
Mof_H 	H 	0.18989	0.15323	0.54464	0.029
Mof_H 	H 	0.55383	0.82597	0.67414	0.043
Mof_H 	H 	0.17403	0.72786	0.67414	0.043
Mof_H 	H 	0.27214	0.82597	0.82586	0.043
Mof_H 	H 	0.55383	0.72786	0.82586	0.043
Mof_H 	H 	0.73134	0.55363	0.32346	0.041
Mof_H 	H 	0.82229	0.55363	0.17654	0.041
Mof_H 	H 	0.03666	0.18989	0.45536	0.03
Mof_H 	H 	0.15323	0.96334	0.45536	0.028
Mof_H 	H 	0.80793	0.84643	0.45313	0.031
Mof_H 	H 	0.9615	0.80793	0.95313	0.028
Mof_H 	H 	0.84643	0.0385	0.95313	0.031
Mof_H 	H 	0.18989	0.15323	0.95536	0.028
Mof_H 	H 	0.26866	0.44637	0.67654	0.041
Mof_H 	H 	0.9615	0.80793	0.54687	0.029
Mof_H 	H 	0.84643	0.0385	0.54687	0.031
Mof_H 	H 	0.03666	0.18989	0.04464	0.031
Mof_H 	H 	0.17771	0.44637	0.82346	0.041
Mof_H 	H 	0.15323	0.96334	0.04464	0.029
Mof_H 	H 	0.81011	0.84677	0.04464	0.031
Mof_H 	H 	0.10168	0.16971	0.01643	0.052
Mof_H 	H 	0.13002	0.21828	0.09268	0.052
Mof_H 	H 	0.13283	0.14761	0.08853	0.051
Mof_H 	H 	0.01626	0.8793	0.05749	0.051
Mof_H 	H 	0.09135	0.89531	0.02782	0.054
Mof_H 	H 	0.06348	0.86087	0.11233	0.052
Mof_H 	H 	0.14001	0.02851	0.53565	0.051
Mof_H 	H 	0.21172	0.10011	0.54704	0.056
Mof_H 	H 	0.18387	0.04246	0.61495	0.052
Mof_H 	H 	0.13002	0.21828	0.40732	0.053
Mof_H 	H 	0.10168	0.16971	0.48357	0.053
Mof_H 	H 	0.13283	0.14761	0.41147	0.052
Mof_H 	H 	0.21172	0.10011	0.95296	0.056
Mof_H 	H 	0.14001	0.02851	0.96435	0.052
Mof_H 	H 	0.18387	0.04246	0.88505	0.053
Mof_H 	H 	0.90221	0.12231	0.57427	0.054
Mof_H 	H 	0.97729	0.13832	0.60394	0.053
Mof_H 	H 	0.94942	0.10389	0.51943	0.052
Mof_H 	H 	0.97729	0.13832	0.89606	0.053
Mof_H 	H 	0.90221	0.12231	0.92573	0.055
Mof_H 	H 	0.94942	0.10389	0.98057	0.053
Mof_H 	H 	0.09135	0.89531	0.47218	0.055
Mof_H 	H 	0.01626	0.8793	0.44251	0.051
Mof_H 	H 	0.06348	0.86087	0.38767	0.052
Mof_H 	H 	0.85866	0.81265	0.61533	0.053
Mof_H 	H 	0.887	0.86121	0.53909	0.052
Mof_H 	H 	0.88981	0.79054	0.54323	0.056
Mof_H 	H 	0.85466	0.98606	0.41528	0.053
Mof_H 	H 	0.78294	0.91446	0.40389	0.053
Mof_H 	H 	0.8268	0.92841	0.48319	0.054
Mof_H 	H 	0.887	0.86121	0.96091	0.052
Mof_H 	H 	0.85866	0.81265	0.88467	0.053
Mof_H 	H 	0.88981	0.79054	0.95677	0.056
_end
