data_functionalizedCrystal
_audit_creation_method	'EQeq! by Chris Wilmer'
_symmetry_space_group_name_H-M	'P1'
_symmetry_Int_Tables_number	1
_symmetry_cell_setting	triclinic
loop_
_symmetry_equiv_pos_as_xyz
  x,y,z
_cell_length_a	9.1269
_cell_length_b	9.3427
_cell_length_c	9.604
_cell_angle_alpha	114.455
_cell_angle_beta	90
_cell_angle_gamma	90
loop_
_atom_site_label
_atom_site_type_symbol
_atom_site_fract_x
_atom_site_fract_y
_atom_site_fract_z
_atom_site_charge
Mof_Zn	Zn	0.56466	0.40359	0.28456	1.189
Mof_Zn	Zn	0.06466	0.59641	0.71544	1.184
Mof_H 	H 	0.2769	0.5664	0.4544	-0.033
Mof_H 	H 	0.4312	0.3573	0.8428	0.104
Mof_H 	H 	0.2624	0.3877	0.8453	0.103
Mof_H 	H 	0.5744	0.6206	0.9124	0.155
Mof_H 	H 	0.5594	0.3383	0.5921	0.043
Mof_H 	H 	0.6788	0.0789	0.2522	-0.02
Mof_H 	H 	0.7672	0.1118	0.1287	-0.019
Mof_H 	H 	0.2897	0.6512	-0	0.023
Mof_H 	H 	0.6612	0.8924	0.9339	0.126
Mof_H 	H 	0.7423	0.8415	0.05	0.124
Mof_H 	H 	0.55	0.161	0.046	0.147
Mof_H 	H 	0.476	0.133	0.159	0.145
Mof_H 	H 	0.7769	0.4336	0.5456	-0.03
Mof_H 	H 	0.9312	0.6427	0.1572	0.107
Mof_H 	H 	0.7624	0.6123	0.1547	0.099
Mof_H 	H 	0.0744	0.3794	0.0876	0.149
Mof_H 	H 	0.0594	0.6617	0.4079	0
Mof_H 	H 	0.1788	0.9211	0.7478	-0.024
Mof_H 	H 	0.2672	0.8882	0.8713	-0.019
Mof_H 	H 	0.7897	0.3488	-0	0.028
Mof_H 	H 	0.1612	0.1076	0.0661	0.107
Mof_H 	H 	0.2423	0.1585	0.95	0.114
Mof_H 	H 	0.05	0.839	0.954	0.148
Mof_H 	H 	0.976	0.867	0.841	0.173
Mof_C 	C 	0.3232	0.5215	0.5129	0.081
Mof_C 	C 	0.3578	0.4321	0.8422	-0.26
Mof_C 	C 	0.4783	0.3965	0.5877	-0.072
Mof_C 	C 	0.3706	0.4512	0.6964	0.118
Mof_C 	C 	0.6751	0.0719	0.1487	0.095
Mof_C 	C 	0.3846	0.5384	0.1229	0.306
Mof_C 	C 	0.3763	0.5849	0.9876	0.016
Mof_C 	C 	0.6592	0.9	0.0377	-0.353
Mof_C 	C 	0.5198	0.8255	0.0607	0.293
Mof_C 	C 	0.8232	0.4785	0.4871	0.085
Mof_C 	C 	0.8578	0.5679	0.1578	-0.242
Mof_C 	C 	0.9783	0.6035	0.4123	-0.005
Mof_C 	C 	0.8706	0.5488	0.3036	0.1
Mof_C 	C 	0.1751	0.9281	0.8513	0.085
Mof_C 	C 	0.8846	0.4616	0.8771	0.347
Mof_C 	C 	0.8763	0.4151	0.0124	0.011
Mof_C 	C 	0.1592	0.1	0.9623	-0.323
Mof_C 	C 	0.0198	0.1745	0.9393	0.252
Mof_N 	N 	0.5528	0.1735	0.1372	-0.444
Mof_N 	N 	0.5059	0.6703	0.9753	-0.241
Mof_N 	N 	0.4475	0.441	0.4709	-0.271
Mof_N 	N 	0.2705	0.5323	0.6467	-0.293
Mof_N 	N 	0.0528	0.8265	0.8628	-0.469
Mof_N 	N 	0.0059	0.3297	0.0247	-0.248
Mof_N 	N 	0.9475	0.559	0.5291	-0.271
Mof_N 	N 	0.7705	0.4677	0.3533	-0.287
Mof_O 	O 	0.51356	0.5244	0.1671	-0.469
Mof_O 	O 	0.2691	0.5094	0.1744	-0.32
Mof_O 	O 	0.4227	0.9029	0.1506	-0.278
Mof_O 	O 	0.01356	0.4756	0.8329	-0.499
Mof_O 	O 	0.7691	0.4906	0.8256	-0.323
Mof_O 	O 	0.9227	0.0971	0.8494	-0.244
_end
