data_functionalizedCrystal
_audit_creation_method	'EQeq! by Chris Wilmer'
_symmetry_space_group_name_H-M	'P1'
_symmetry_Int_Tables_number	1
_symmetry_cell_setting	triclinic
loop_
_symmetry_equiv_pos_as_xyz
  x,y,z
_cell_length_a	18.651
_cell_length_b	18.651
_cell_length_c	18.651
_cell_angle_alpha	60
_cell_angle_beta	60
_cell_angle_gamma	60
loop_
_atom_site_label
_atom_site_type_symbol
_atom_site_fract_x
_atom_site_fract_y
_atom_site_fract_z
_atom_site_charge
Mof_Cu	Cu	0.06986	0.5	0.5	0.903
Mof_Cu	Cu	0.5	0.06986	0.93014	0.903
Mof_Cu	Cu	0.5	0.93014	0.06986	0.903
Mof_Cu	Cu	0.93014	0.5	0.5	0.903
Mof_Cu	Cu	0.06986	0.5	0.93014	0.903
Mof_Cu	Cu	0.5	0.93014	0.5	0.903
Mof_Cu	Cu	0.5	0.06986	0.5	0.903
Mof_Cu	Cu	0.93014	0.5	0.06986	0.903
Mof_Cu	Cu	0.06986	0.93014	0.5	0.903
Mof_Cu	Cu	0.5	0.5	0.06986	0.903
Mof_Cu	Cu	0.5	0.5	0.93014	0.903
Mof_Cu	Cu	0.93014	0.06986	0.5	0.903
Mof_H 	H 	0.7726	0.4674	0.7726	0.042
Mof_H 	H 	0.4674	0.7726	0.9874	0.041
Mof_H 	H 	0.7726	0.9874	0.7726	0.042
Mof_H 	H 	0.9874	0.7726	0.4674	0.041
Mof_H 	H 	0.7726	0.7726	0.9874	0.042
Mof_H 	H 	0.4674	0.9874	0.7726	0.041
Mof_H 	H 	0.7726	0.7726	0.4674	0.042
Mof_H 	H 	0.9874	0.4674	0.7726	0.041
Mof_H 	H 	0.7726	0.9874	0.4674	0.041
Mof_H 	H 	0.4674	0.7726	0.7726	0.042
Mof_H 	H 	0.7726	0.4674	0.9874	0.041
Mof_H 	H 	0.9874	0.7726	0.7726	0.042
Mof_H 	H 	0.5326	0.2274	0.2274	0.042
Mof_H 	H 	0.2274	0.5326	0.0126	0.041
Mof_H 	H 	0.0126	0.2274	0.2274	0.042
Mof_H 	H 	0.2274	0.0126	0.5326	0.041
Mof_H 	H 	0.2274	0.2274	0.0126	0.042
Mof_H 	H 	0.0126	0.5326	0.2274	0.041
Mof_H 	H 	0.2274	0.2274	0.5326	0.042
Mof_H 	H 	0.5326	0.0126	0.2274	0.041
Mof_H 	H 	0.0126	0.2274	0.5326	0.041
Mof_H 	H 	0.2274	0.5326	0.2274	0.042
Mof_H 	H 	0.5326	0.2274	0.0126	0.041
Mof_H 	H 	0.2274	0.0126	0.2274	0.042
Mof_C 	C 	0.9309	0.47426	0.66394	0.366
Mof_C 	C 	0.8874	0.46712	0.75808	-0.122
Mof_C 	C 	0.47426	0.9309	0.9309	0.354
Mof_C 	C 	0.46712	0.8874	0.8874	-0.119
Mof_C 	C 	0.66394	0.9309	0.9309	0.345
Mof_C 	C 	0.75808	0.8874	0.8874	-0.114
Mof_C 	C 	0.9309	0.66394	0.47426	0.366
Mof_C 	C 	0.8874	0.75808	0.46712	-0.122
Mof_C 	C 	0.9309	0.66394	0.9309	0.345
Mof_C 	C 	0.8874	0.75808	0.8874	-0.114
Mof_C 	C 	0.47426	0.9309	0.66394	0.366
Mof_C 	C 	0.46712	0.8874	0.75808	-0.122
Mof_C 	C 	0.66394	0.9309	0.47426	0.366
Mof_C 	C 	0.75808	0.8874	0.46712	-0.122
Mof_C 	C 	0.9309	0.47426	0.9309	0.354
Mof_C 	C 	0.8874	0.46712	0.8874	-0.119
Mof_C 	C 	0.9309	0.9309	0.47426	0.354
Mof_C 	C 	0.8874	0.8874	0.46712	-0.119
Mof_C 	C 	0.47426	0.66394	0.9309	0.366
Mof_C 	C 	0.46712	0.75808	0.8874	-0.122
Mof_C 	C 	0.66394	0.47426	0.9309	0.366
Mof_C 	C 	0.75808	0.46712	0.8874	-0.122
Mof_C 	C 	0.9309	0.9309	0.66394	0.345
Mof_C 	C 	0.8874	0.8874	0.75808	-0.114
Mof_C 	C 	0.52574	0.0691	0.33606	0.366
Mof_C 	C 	0.53288	0.1126	0.24192	-0.122
Mof_C 	C 	0.0691	0.52574	0.0691	0.354
Mof_C 	C 	0.1126	0.53288	0.1126	-0.119
Mof_C 	C 	0.0691	0.33606	0.0691	0.345
Mof_C 	C 	0.1126	0.24192	0.1126	-0.114
Mof_C 	C 	0.33606	0.0691	0.52574	0.366
Mof_C 	C 	0.24192	0.1126	0.53288	-0.122
Mof_C 	C 	0.33606	0.0691	0.0691	0.345
Mof_C 	C 	0.24192	0.1126	0.1126	-0.114
Mof_C 	C 	0.0691	0.52574	0.33606	0.366
Mof_C 	C 	0.1126	0.53288	0.24192	-0.122
Mof_C 	C 	0.0691	0.33606	0.52574	0.366
Mof_C 	C 	0.1126	0.24192	0.53288	-0.122
Mof_C 	C 	0.52574	0.0691	0.0691	0.354
Mof_C 	C 	0.53288	0.1126	0.1126	-0.119
Mof_C 	C 	0.0691	0.0691	0.52574	0.354
Mof_C 	C 	0.1126	0.1126	0.53288	-0.119
Mof_C 	C 	0.33606	0.52574	0.0691	0.366
Mof_C 	C 	0.24192	0.53288	0.1126	-0.122
Mof_C 	C 	0.52574	0.33606	0.0691	0.366
Mof_C 	C 	0.53288	0.24192	0.1126	-0.122
Mof_C 	C 	0.0691	0.0691	0.33606	0.345
Mof_C 	C 	0.1126	0.1126	0.24192	-0.114
Mof_C 	C 	0.8015	0.46722	0.8015	0.067
Mof_C 	C 	0.46722	0.8015	0.92978	0.065
Mof_C 	C 	0.8015	0.92978	0.8015	0.057
Mof_C 	C 	0.92978	0.8015	0.46722	0.065
Mof_C 	C 	0.8015	0.8015	0.92978	0.057
Mof_C 	C 	0.46722	0.92978	0.8015	0.065
Mof_C 	C 	0.8015	0.8015	0.46722	0.067
Mof_C 	C 	0.92978	0.46722	0.8015	0.065
Mof_C 	C 	0.8015	0.92978	0.46722	0.065
Mof_C 	C 	0.46722	0.8015	0.8015	0.067
Mof_C 	C 	0.8015	0.46722	0.92978	0.065
Mof_C 	C 	0.92978	0.8015	0.8015	0.057
Mof_C 	C 	0.53278	0.1985	0.1985	0.067
Mof_C 	C 	0.1985	0.53278	0.07022	0.065
Mof_C 	C 	0.07022	0.1985	0.1985	0.057
Mof_C 	C 	0.1985	0.07022	0.53278	0.065
Mof_C 	C 	0.1985	0.1985	0.07022	0.057
Mof_C 	C 	0.07022	0.53278	0.1985	0.065
Mof_C 	C 	0.1985	0.1985	0.53278	0.067
Mof_C 	C 	0.53278	0.07022	0.1985	0.065
Mof_C 	C 	0.07022	0.1985	0.53278	0.065
Mof_C 	C 	0.1985	0.53278	0.1985	0.067
Mof_C 	C 	0.53278	0.1985	0.07022	0.065
Mof_C 	C 	0.1985	0.07022	0.1985	0.057
Mof_O 	O 	0.0074	0.47868	0.62646	-0.401
Mof_O 	O 	0.47868	0.0074	0.88746	-0.395
Mof_O 	O 	0.62646	0.88746	0.0074	-0.391
Mof_O 	O 	0.88746	0.62646	0.47868	-0.403
Mof_O 	O 	0.0074	0.62646	0.88746	-0.391
Mof_O 	O 	0.47868	0.88746	0.62646	-0.403
Mof_O 	O 	0.62646	0.0074	0.47868	-0.401
Mof_O 	O 	0.88746	0.47868	0.0074	-0.395
Mof_O 	O 	0.0074	0.88746	0.47868	-0.395
Mof_O 	O 	0.47868	0.62646	0.0074	-0.401
Mof_O 	O 	0.62646	0.47868	0.88746	-0.403
Mof_O 	O 	0.88746	0.0074	0.62646	-0.391
Mof_O 	O 	0.52132	0.9926	0.37354	-0.401
Mof_O 	O 	0.9926	0.52132	0.11254	-0.395
Mof_O 	O 	0.11254	0.37354	0.9926	-0.391
Mof_O 	O 	0.37354	0.11254	0.52132	-0.403
Mof_O 	O 	0.37354	0.9926	0.11254	-0.391
Mof_O 	O 	0.11254	0.52132	0.37354	-0.403
Mof_O 	O 	0.9926	0.37354	0.52132	-0.401
Mof_O 	O 	0.52132	0.11254	0.9926	-0.395
Mof_O 	O 	0.11254	0.9926	0.52132	-0.395
Mof_O 	O 	0.37354	0.52132	0.9926	-0.401
Mof_O 	O 	0.52132	0.37354	0.11254	-0.403
Mof_O 	O 	0.9926	0.11254	0.37354	-0.391
Mof_O 	O 	0.9926	0.52132	0.37354	-0.401
Mof_O 	O 	0.52132	0.9926	0.11254	-0.395
Mof_O 	O 	0.37354	0.11254	0.9926	-0.391
Mof_O 	O 	0.11254	0.37354	0.52132	-0.403
Mof_O 	O 	0.9926	0.37354	0.11254	-0.391
Mof_O 	O 	0.52132	0.11254	0.37354	-0.403
Mof_O 	O 	0.37354	0.9926	0.52132	-0.401
Mof_O 	O 	0.11254	0.52132	0.9926	-0.395
Mof_O 	O 	0.9926	0.11254	0.52132	-0.395
Mof_O 	O 	0.52132	0.37354	0.9926	-0.401
Mof_O 	O 	0.37354	0.52132	0.11254	-0.403
Mof_O 	O 	0.11254	0.9926	0.37354	-0.391
Mof_O 	O 	0.47868	0.0074	0.62646	-0.401
Mof_O 	O 	0.0074	0.47868	0.88746	-0.395
Mof_O 	O 	0.88746	0.62646	0.0074	-0.391
Mof_O 	O 	0.62646	0.88746	0.47868	-0.403
Mof_O 	O 	0.62646	0.0074	0.88746	-0.391
Mof_O 	O 	0.88746	0.47868	0.62646	-0.403
Mof_O 	O 	0.0074	0.62646	0.47868	-0.401
Mof_O 	O 	0.47868	0.88746	0.0074	-0.395
Mof_O 	O 	0.88746	0.0074	0.47868	-0.395
Mof_O 	O 	0.62646	0.47868	0.0074	-0.401
Mof_O 	O 	0.47868	0.62646	0.88746	-0.403
Mof_O 	O 	0.0074	0.88746	0.62646	-0.391
_end
