data_functionalizedCrystal
_audit_creation_method	'EQeq! by Chris Wilmer'
_symmetry_space_group_name_H-M	'P1'
_symmetry_Int_Tables_number	1
_symmetry_cell_setting	triclinic
loop_
_symmetry_equiv_pos_as_xyz
  x,y,z
_cell_length_a	34.607
_cell_length_b	12.8631
_cell_length_c	23.8751
_cell_angle_alpha	90
_cell_angle_beta	114.026
_cell_angle_gamma	90
loop_
_atom_site_label
_atom_site_type_symbol
_atom_site_fract_x
_atom_site_fract_y
_atom_site_fract_z
_atom_site_charge
Mof_C 	C 	0.0816	0.9505	0.7797	0.014
Mof_H 	H 	0.0752	0.9335	0.739	-0.012
Mof_C 	C 	0.121	0.9332	0.8303	-0.125
Mof_H 	H 	0.1451	0.9046	0.8284	0.037
Mof_C 	C 	0.11704	0.965	0.8803	-0.072
Mof_H 	H 	0.1379	0.9616	0.92	0.047
Mof_C 	C 	0.07639	0.0046	0.8635	0.062
Mof_C 	C 	0.05852	0.0488	0.9026	-0.09
Mof_C 	C 	0.01967	0.0964	0.8837	0.018
Mof_C 	C 	0.9964	0.1232	0.9209	0.015
Mof_H 	H 	0.0052	0.1104	0.9626	0.012
Mof_C 	C 	0.95982	0.1699	0.884	-0.087
Mof_H 	H 	0.939	0.1952	0.8957	0.061
Mof_C 	C 	0.95914	0.1731	0.8245	0.008
Mof_C 	C 	0.08299	0.0326	0.9698	0.021
Mof_C 	C 	0.0949	0.9342	0.9934	-0.033
Mof_C 	C 	0.1143	0.9239	0.0566	-0.002
Mof_C 	C 	0.12304	0.0055	0.0955	-0.051
Mof_C 	C 	0.1126	0.1076	0.0716	-0.001
Mof_C 	C 	0.0908	0.1189	0.0078	-0.026
Mof_C 	C 	0.1409	0.99	0.161	0.086
Mof_C 	C 	0.92804	0.2207	0.7689	0.002
Mof_C 	C 	0.8852	0.2405	0.7516	-0.105
Mof_H 	H 	0.8695	0.2255	0.7742	0.034
Mof_C 	C 	0.87055	0.2863	0.6948	-0.128
Mof_H 	H 	0.8429	0.3074	0.6713	0.057
Mof_C 	C 	0.90628	0.2953	0.6788	0.093
Mof_C 	C 	0.90835	0.3375	0.6261	-0.162
Mof_C 	C 	0.94272	0.3732	0.6199	0.123
Mof_C 	C 	0.94748	0.4065	0.5655	-0.156
Mof_H 	H 	0.9254	0.4125	0.5269	0.089
Mof_C 	C 	0.9897	0.4286	0.5784	0.082
Mof_H 	H 	0.0017	0.4467	0.5513	-0.021
Mof_C 	C 	0.0103	0.4168	0.6438	-0.073
Mof_H 	H 	0.0386	0.4323	0.6669	0.028
Mof_C 	C 	0.86627	0.352	0.5736	0.107
Mof_C 	C 	0.84108	0.2635	0.5484	-0.123
Mof_H 	H 	0.8509	0.198	0.5644	0.064
Mof_C 	C 	0.80089	0.2739	0.4988	0.003
Mof_H 	H 	0.7831	0.217	0.4839	0.027
Mof_C 	C 	0.78954	0.3684	0.4744	-0.054
Mof_C 	C 	0.8132	0.4589	0.496	0.005
Mof_H 	H 	0.8038	0.5235	0.4782	0.023
Mof_C 	C 	0.8527	0.4454	0.5472	-0.136
Mof_H 	H 	0.8698	0.5033	0.5631	0.076
Mof_C 	C 	0.7482	0.3826	0.4224	0.087
Mof_N 	N 	0.05512	0.9961	0.8011	-0.287
Mof_N 	N 	0.99426	0.1249	0.82387	-0.286
Mof_N 	N 	0.1544	0.9804	0.2122	-0.197
Mof_N 	N 	0.94244	0.2547	0.72681	-0.312
Mof_N 	N 	0.98377	0.3805	0.6675	-0.257
Mof_N 	N 	0.71572	0.3961	0.3848	-0.206
Mof_C 	C 	0.5816	0.4505	0.7797	0.01
Mof_H 	H 	0.5752	0.4335	0.739	-0.01
Mof_C 	C 	0.621	0.4332	0.8303	-0.118
Mof_H 	H 	0.6451	0.4046	0.8284	0.035
Mof_C 	C 	0.61704	0.465	0.8803	-0.084
Mof_H 	H 	0.6379	0.4616	0.92	0.051
Mof_C 	C 	0.57639	0.5046	0.8635	0.079
Mof_C 	C 	0.55852	0.5488	0.9026	-0.119
Mof_C 	C 	0.51967	0.5964	0.8837	0.089
Mof_C 	C 	0.4964	0.6232	0.9209	-0.099
Mof_H 	H 	0.5052	0.6104	0.9626	0.069
Mof_C 	C 	0.45982	0.6699	0.884	-0.028
Mof_H 	H 	0.439	0.6952	0.8957	0.037
Mof_C 	C 	0.45914	0.6731	0.8245	-0.014
Mof_C 	C 	0.58299	0.5326	0.9698	0.037
Mof_C 	C 	0.5949	0.4342	0.9934	-0.039
Mof_C 	C 	0.6143	0.4239	0.0566	0.004
Mof_C 	C 	0.62304	0.5055	0.0955	-0.057
Mof_C 	C 	0.6126	0.6076	0.0716	0.003
Mof_C 	C 	0.5908	0.6189	0.0078	-0.032
Mof_C 	C 	0.6409	0.49	0.161	0.09
Mof_C 	C 	0.42804	0.7207	0.7689	0.009
Mof_C 	C 	0.3852	0.7405	0.7516	-0.111
Mof_H 	H 	0.3695	0.7255	0.7742	0.036
Mof_C 	C 	0.37055	0.7863	0.6948	-0.123
Mof_H 	H 	0.3429	0.8074	0.6713	0.055
Mof_C 	C 	0.40628	0.7953	0.6788	0.087
Mof_C 	C 	0.40835	0.8375	0.6261	-0.152
Mof_C 	C 	0.44272	0.8732	0.6199	0.1
Mof_C 	C 	0.44748	0.9065	0.5655	-0.097
Mof_H 	H 	0.4254	0.9125	0.5269	0.066
Mof_C 	C 	0.4897	0.9286	0.5784	-0.046
Mof_H 	H 	0.5017	0.9467	0.5513	0.041
Mof_C 	C 	0.5103	0.9168	0.6438	0.024
Mof_H 	H 	0.5386	0.9323	0.6669	-0.002
Mof_C 	C 	0.36627	0.852	0.5736	0.1
Mof_C 	C 	0.34108	0.7635	0.5484	-0.119
Mof_H 	H 	0.3509	0.698	0.5644	0.063
Mof_C 	C 	0.30089	0.7739	0.4988	-0.001
Mof_H 	H 	0.2831	0.717	0.4839	0.028
Mof_C 	C 	0.28954	0.8684	0.4744	-0.051
Mof_C 	C 	0.3132	0.9589	0.496	0
Mof_H 	H 	0.3038	0.0235	0.4782	0.025
Mof_C 	C 	0.3527	0.9454	0.5472	-0.13
Mof_H 	H 	0.3698	0.0033	0.5631	0.073
Mof_C 	C 	0.2482	0.8826	0.4224	0.086
Mof_N 	N 	0.55512	0.4961	0.8011	-0.287
Mof_N 	N 	0.49426	0.6249	0.82387	-0.307
Mof_N 	N 	0.6544	0.4804	0.2122	-0.197
Mof_N 	N 	0.44244	0.7547	0.72681	-0.316
Mof_N 	N 	0.48377	0.8805	0.6675	-0.284
Mof_N 	N 	0.21572	0.8961	0.3848	-0.205
Mof_C 	C 	0.9184	0.9505	0.7203	0.01
Mof_H 	H 	0.9248	0.9335	0.761	-0.006
Mof_C 	C 	0.879	0.9332	0.6697	-0.113
Mof_H 	H 	0.8549	0.9046	0.6716	0.034
Mof_C 	C 	0.88296	0.965	0.6197	-0.092
Mof_H 	H 	0.8621	0.9616	0.58	0.054
Mof_C 	C 	0.92361	0.0046	0.6365	0.092
Mof_C 	C 	0.94148	0.0488	0.5974	-0.144
Mof_C 	C 	0.98033	0.0964	0.6163	0.16
Mof_C 	C 	0.0036	0.1232	0.5791	-0.214
Mof_H 	H 	0.9948	0.1104	0.5374	0.126
Mof_C 	C 	0.04018	0.1699	0.616	0.031
Mof_H 	H 	0.061	0.1952	0.6043	0.013
Mof_C 	C 	0.04086	0.1731	0.6755	-0.036
Mof_C 	C 	0.91701	0.0326	0.5302	0.047
Mof_C 	C 	0.9051	0.9342	0.5066	-0.037
Mof_C 	C 	0.8857	0.9239	0.4434	0.004
Mof_C 	C 	0.87696	0.0055	0.4045	-0.056
Mof_C 	C 	0.8874	0.1076	0.4284	0.005
Mof_C 	C 	0.9092	0.1189	0.4922	-0.034
Mof_C 	C 	0.8591	0.99	0.339	0.09
Mof_C 	C 	0.07196	0.2207	0.7311	0.016
Mof_C 	C 	0.1148	0.2405	0.7484	-0.118
Mof_H 	H 	0.1305	0.2255	0.7258	0.038
Mof_C 	C 	0.12945	0.2863	0.8052	-0.119
Mof_H 	H 	0.1571	0.3074	0.8287	0.053
Mof_C 	C 	0.09372	0.2953	0.8212	0.082
Mof_C 	C 	0.09165	0.3375	0.8739	-0.142
Mof_C 	C 	0.05728	0.3732	0.8801	0.078
Mof_C 	C 	0.05252	0.4065	0.9345	-0.041
Mof_H 	H 	0.0746	0.4125	0.9731	0.044
Mof_C 	C 	0.0103	0.4286	0.9216	-0.17
Mof_H 	H 	0.9983	0.4467	0.9487	0.103
Mof_C 	C 	0.9897	0.4168	0.8562	0.12
Mof_H 	H 	0.9614	0.4323	0.8331	-0.031
Mof_C 	C 	0.13373	0.352	0.9264	0.097
Mof_C 	C 	0.15892	0.2635	0.9516	-0.119
Mof_H 	H 	0.1491	0.198	0.9356	0.062
Mof_C 	C 	0.19911	0.2739	0.0012	0.001
Mof_H 	H 	0.2169	0.217	0.0161	0.028
Mof_C 	C 	0.21046	0.3684	0.0256	-0.052
Mof_C 	C 	0.1868	0.4589	0.004	0.001
Mof_H 	H 	0.1962	0.5235	0.0218	0.024
Mof_C 	C 	0.1473	0.4454	0.9528	-0.129
Mof_H 	H 	0.1302	0.5033	0.9369	0.071
Mof_C 	C 	0.2518	0.3826	0.0776	0.086
Mof_N 	N 	0.94488	0.9961	0.6989	-0.284
Mof_N 	N 	0.00574	0.1249	0.67613	-0.325
Mof_N 	N 	0.8456	0.9804	0.2878	-0.197
Mof_N 	N 	0.05756	0.2547	0.77319	-0.318
Mof_N 	N 	0.01623	0.3805	0.8325	-0.308
Mof_N 	N 	0.28428	0.3961	0.1152	-0.206
Mof_C 	C 	0.4184	0.4505	0.7203	0.01
Mof_H 	H 	0.4248	0.4335	0.761	-0.01
Mof_C 	C 	0.379	0.4332	0.6697	-0.118
Mof_H 	H 	0.3549	0.4046	0.6716	0.035
Mof_C 	C 	0.38296	0.465	0.6197	-0.084
Mof_H 	H 	0.3621	0.4616	0.58	0.051
Mof_C 	C 	0.42361	0.5046	0.6365	0.079
Mof_C 	C 	0.44148	0.5488	0.5974	-0.119
Mof_C 	C 	0.48033	0.5964	0.6163	0.089
Mof_C 	C 	0.5036	0.6232	0.5791	-0.099
Mof_H 	H 	0.4948	0.6104	0.5374	0.069
Mof_C 	C 	0.54018	0.6699	0.616	-0.028
Mof_H 	H 	0.561	0.6952	0.6043	0.037
Mof_C 	C 	0.54086	0.6731	0.6755	-0.014
Mof_C 	C 	0.41701	0.5326	0.5302	0.037
Mof_C 	C 	0.4051	0.4342	0.5066	-0.037
Mof_C 	C 	0.3857	0.4239	0.4434	0.003
Mof_C 	C 	0.37696	0.5055	0.4045	-0.057
Mof_C 	C 	0.3874	0.6076	0.4284	0.003
Mof_C 	C 	0.4092	0.6189	0.4922	-0.032
Mof_C 	C 	0.3591	0.49	0.339	0.09
Mof_C 	C 	0.57196	0.7207	0.7311	0.009
Mof_C 	C 	0.6148	0.7405	0.7484	-0.112
Mof_H 	H 	0.6305	0.7255	0.7258	0.036
Mof_C 	C 	0.62945	0.7863	0.8052	-0.123
Mof_H 	H 	0.6571	0.8074	0.8287	0.055
Mof_C 	C 	0.59372	0.7953	0.8212	0.087
Mof_C 	C 	0.59165	0.8375	0.8739	-0.15
Mof_C 	C 	0.55728	0.8732	0.8801	0.099
Mof_C 	C 	0.55252	0.9065	0.9345	-0.097
Mof_H 	H 	0.5746	0.9125	0.9731	0.066
Mof_C 	C 	0.5103	0.9286	0.9216	-0.046
Mof_H 	H 	0.4983	0.9467	0.9487	0.042
Mof_C 	C 	0.4897	0.9168	0.8562	0.024
Mof_H 	H 	0.4614	0.9323	0.8331	-0.002
Mof_C 	C 	0.63373	0.852	0.9264	0.096
Mof_C 	C 	0.65892	0.7635	0.9516	-0.114
Mof_H 	H 	0.6491	0.698	0.9356	0.061
Mof_C 	C 	0.69911	0.7739	0.0012	-0.006
Mof_H 	H 	0.7169	0.717	0.0161	0.03
Mof_C 	C 	0.71046	0.8684	0.0256	-0.046
Mof_C 	C 	0.6868	0.9589	0.004	-0.009
Mof_H 	H 	0.6962	0.0235	0.0218	0.029
Mof_C 	C 	0.6473	0.9454	0.9528	-0.121
Mof_H 	H 	0.6302	0.0033	0.9369	0.069
Mof_C 	C 	0.7518	0.8826	0.0776	0.084
Mof_N 	N 	0.44488	0.4961	0.6989	-0.287
Mof_N 	N 	0.50574	0.6249	0.67613	-0.307
Mof_N 	N 	0.3456	0.4804	0.2878	-0.197
Mof_N 	N 	0.55756	0.7547	0.77319	-0.316
Mof_N 	N 	0.51623	0.8805	0.8325	-0.283
Mof_N 	N 	0.78428	0.8961	0.1152	-0.205
Mof_Ag	Ag	0.847	0.91385	0.19566	0.57
Mof_Ag	Ag	0.347	0.41385	0.19566	0.571
Mof_Ag	Ag	0.153	0.91385	0.30434	0.571
Mof_Ag	Ag	0.653	0.41385	0.30434	0.571
Mof_Zn	Zn	-4.68461e-17	0.06686	0.75	1.149
Mof_Zn	Zn	-4.68461e-17	0.31425	0.75	1.153
Mof_Zn	Zn	0.5	0.56686	0.75	1.157
Mof_Zn	Zn	0.5	0.81425	0.75	1.16
Mof_Ag	Ag	0.153	0.08615	0.80434	0.57
Mof_Ag	Ag	0.653	0.58615	0.80434	0.571
Mof_Ag	Ag	0.847	0.08615	0.69566	0.57
Mof_Ag	Ag	0.347	0.58615	0.69566	0.571
Mof_C 	C 	0.9184	0.0495	0.2203	0.01
Mof_H 	H 	0.9248	0.0665	0.261	-0.006
Mof_C 	C 	0.879	0.0668	0.1697	-0.114
Mof_H 	H 	0.8549	0.0954	0.1716	0.034
Mof_C 	C 	0.88296	0.035	0.1197	-0.089
Mof_H 	H 	0.8621	0.0384	0.08	0.054
Mof_C 	C 	0.92361	0.9954	0.1365	0.089
Mof_C 	C 	0.94148	0.9512	0.0974	-0.142
Mof_C 	C 	0.98033	0.9036	0.1163	0.158
Mof_C 	C 	0.0036	0.8768	0.0791	-0.212
Mof_H 	H 	0.9948	0.8896	0.0374	0.125
Mof_C 	C 	0.04018	0.8301	0.116	0.03
Mof_H 	H 	0.061	0.8048	0.1043	0.014
Mof_C 	C 	0.04086	0.8269	0.1755	-0.036
Mof_C 	C 	0.91701	0.9674	0.0302	0.043
Mof_C 	C 	0.9051	0.0658	0.0066	-0.032
Mof_C 	C 	0.8857	0.0761	0.9434	-0.001
Mof_C 	C 	0.87696	0.9945	0.9045	-0.053
Mof_C 	C 	0.8874	0.8924	0.9284	0.004
Mof_C 	C 	0.9092	0.8811	0.9922	-0.033
Mof_C 	C 	0.8591	0.01	0.839	0.088
Mof_C 	C 	0.07196	0.7793	0.2311	0.016
Mof_C 	C 	0.1148	0.7595	0.2484	-0.118
Mof_H 	H 	0.1305	0.7745	0.2258	0.038
Mof_C 	C 	0.12945	0.7137	0.3052	-0.118
Mof_H 	H 	0.1571	0.6926	0.3287	0.053
Mof_C 	C 	0.09372	0.7047	0.3212	0.082
Mof_C 	C 	0.09165	0.6625	0.3739	-0.141
Mof_C 	C 	0.05728	0.6268	0.3801	0.077
Mof_C 	C 	0.05252	0.5935	0.4345	-0.039
Mof_H 	H 	0.0746	0.5875	0.4731	0.043
Mof_C 	C 	0.0103	0.5714	0.4216	-0.173
Mof_H 	H 	0.9983	0.5533	0.4487	0.105
Mof_C 	C 	0.9897	0.5832	0.3562	0.122
Mof_H 	H 	0.9614	0.5677	0.3331	-0.032
Mof_C 	C 	0.13373	0.648	0.4264	0.094
Mof_C 	C 	0.15892	0.7365	0.4516	-0.115
Mof_H 	H 	0.1491	0.802	0.4356	0.061
Mof_C 	C 	0.19911	0.7261	0.5012	-0.004
Mof_H 	H 	0.2169	0.783	0.5161	0.029
Mof_C 	C 	0.21046	0.6316	0.5256	-0.049
Mof_C 	C 	0.1868	0.5411	0.504	-0.003
Mof_H 	H 	0.1962	0.4765	0.5218	0.026
Mof_C 	C 	0.1473	0.5546	0.4528	-0.125
Mof_H 	H 	0.1302	0.4967	0.4369	0.07
Mof_C 	C 	0.2518	0.6174	0.5776	0.085
Mof_N 	N 	0.94488	0.0039	0.1989	-0.283
Mof_N 	N 	0.00574	0.8751	0.17613	-0.325
Mof_N 	N 	0.8456	0.0196	0.7878	-0.197
Mof_N 	N 	0.05756	0.7453	0.27319	-0.318
Mof_N 	N 	0.01623	0.6195	0.3325	-0.308
Mof_N 	N 	0.28428	0.6039	0.6152	-0.205
Mof_C 	C 	0.4184	0.5495	0.2203	0.01
Mof_H 	H 	0.4248	0.5665	0.261	-0.01
Mof_C 	C 	0.379	0.5668	0.1697	-0.118
Mof_H 	H 	0.3549	0.5954	0.1716	0.035
Mof_C 	C 	0.38296	0.535	0.1197	-0.084
Mof_H 	H 	0.3621	0.5384	0.08	0.051
Mof_C 	C 	0.42361	0.4954	0.1365	0.079
Mof_C 	C 	0.44148	0.4512	0.0974	-0.119
Mof_C 	C 	0.48033	0.4036	0.1163	0.089
Mof_C 	C 	0.5036	0.3768	0.0791	-0.099
Mof_H 	H 	0.4948	0.3896	0.0374	0.069
Mof_C 	C 	0.54018	0.3301	0.116	-0.028
Mof_H 	H 	0.561	0.3048	0.1043	0.037
Mof_C 	C 	0.54086	0.3269	0.1755	-0.014
Mof_C 	C 	0.41701	0.4674	0.0302	0.038
Mof_C 	C 	0.4051	0.5658	0.0066	-0.038
Mof_C 	C 	0.3857	0.5761	0.9434	0.003
Mof_C 	C 	0.37696	0.4945	0.9045	-0.057
Mof_C 	C 	0.3874	0.3924	0.9284	0.003
Mof_C 	C 	0.4092	0.3811	0.9922	-0.034
Mof_C 	C 	0.3591	0.51	0.839	0.09
Mof_C 	C 	0.57196	0.2793	0.2311	0.009
Mof_C 	C 	0.6148	0.2595	0.2484	-0.111
Mof_H 	H 	0.6305	0.2745	0.2258	0.036
Mof_C 	C 	0.62945	0.2137	0.3052	-0.123
Mof_H 	H 	0.6571	0.1926	0.3287	0.055
Mof_C 	C 	0.59372	0.2047	0.3212	0.087
Mof_C 	C 	0.59165	0.1625	0.3739	-0.152
Mof_C 	C 	0.55728	0.1268	0.3801	0.1
Mof_C 	C 	0.55252	0.0935	0.4345	-0.097
Mof_H 	H 	0.5746	0.0875	0.4731	0.066
Mof_C 	C 	0.5103	0.0714	0.4216	-0.046
Mof_H 	H 	0.4983	0.0533	0.4487	0.042
Mof_C 	C 	0.4897	0.0832	0.3562	0.024
Mof_H 	H 	0.4614	0.0677	0.3331	-0.002
Mof_C 	C 	0.63373	0.148	0.4264	0.1
Mof_C 	C 	0.65892	0.2365	0.4516	-0.119
Mof_H 	H 	0.6491	0.302	0.4356	0.063
Mof_C 	C 	0.69911	0.2261	0.5012	-0.001
Mof_H 	H 	0.7169	0.283	0.5161	0.028
Mof_C 	C 	0.71046	0.1316	0.5256	-0.051
Mof_C 	C 	0.6868	0.0411	0.504	0
Mof_H 	H 	0.6962	0.9765	0.5218	0.025
Mof_C 	C 	0.6473	0.0546	0.4528	-0.13
Mof_H 	H 	0.6302	0.9967	0.4369	0.073
Mof_C 	C 	0.7518	0.1174	0.5776	0.086
Mof_N 	N 	0.44488	0.5039	0.1989	-0.287
Mof_N 	N 	0.50574	0.3751	0.17613	-0.307
Mof_N 	N 	0.3456	0.5196	0.7878	-0.197
Mof_N 	N 	0.55756	0.2453	0.27319	-0.316
Mof_N 	N 	0.51623	0.1195	0.3325	-0.284
Mof_N 	N 	0.78428	0.1039	0.6152	-0.205
Mof_C 	C 	0.0816	0.0495	0.2797	0.012
Mof_H 	H 	0.0752	0.0665	0.239	-0.013
Mof_C 	C 	0.121	0.0668	0.3303	-0.125
Mof_H 	H 	0.1451	0.0954	0.3284	0.037
Mof_C 	C 	0.11704	0.035	0.3803	-0.074
Mof_H 	H 	0.1379	0.0384	0.42	0.047
Mof_C 	C 	0.07639	0.9954	0.3635	0.064
Mof_C 	C 	0.05852	0.9512	0.4026	-0.091
Mof_C 	C 	0.01967	0.9036	0.3837	0.018
Mof_C 	C 	0.9964	0.8768	0.4209	0.017
Mof_H 	H 	0.0052	0.8896	0.4626	0.012
Mof_C 	C 	0.95982	0.8301	0.384	-0.088
Mof_H 	H 	0.939	0.8048	0.3957	0.061
Mof_C 	C 	0.95914	0.8269	0.3245	0.008
Mof_C 	C 	0.08299	0.9674	0.4698	0.026
Mof_C 	C 	0.0949	0.0658	0.4934	-0.037
Mof_C 	C 	0.1143	0.0761	0.5566	0.001
Mof_C 	C 	0.12304	0.9945	0.5955	-0.055
Mof_C 	C 	0.1126	0.8924	0.5716	0
Mof_C 	C 	0.0908	0.8811	0.5078	-0.03
Mof_C 	C 	0.1409	0.01	0.661	0.088
Mof_C 	C 	0.92804	0.7793	0.2689	0.002
Mof_C 	C 	0.8852	0.7595	0.2516	-0.104
Mof_H 	H 	0.8695	0.7745	0.2742	0.034
Mof_C 	C 	0.87055	0.7137	0.1948	-0.128
Mof_H 	H 	0.8429	0.6926	0.1713	0.057
Mof_C 	C 	0.90628	0.7047	0.1788	0.093
Mof_C 	C 	0.90835	0.6625	0.1261	-0.161
Mof_C 	C 	0.94272	0.6268	0.1199	0.123
Mof_C 	C 	0.94748	0.5935	0.0655	-0.155
Mof_H 	H 	0.9254	0.5875	0.0269	0.089
Mof_C 	C 	0.9897	0.5714	0.0784	0.081
Mof_H 	H 	0.0017	0.5533	0.0513	-0.02
Mof_C 	C 	0.0103	0.5832	0.1438	-0.072
Mof_H 	H 	0.0386	0.5677	0.1669	0.028
Mof_C 	C 	0.86627	0.648	0.0736	0.106
Mof_C 	C 	0.84108	0.7365	0.0484	-0.121
Mof_H 	H 	0.8509	0.802	0.0644	0.064
Mof_C 	C 	0.80089	0.7261	0.9988	0
Mof_H 	H 	0.7831	0.783	0.9839	0.027
Mof_C 	C 	0.78954	0.6316	0.9744	-0.052
Mof_C 	C 	0.8132	0.5411	0.996	0.001
Mof_H 	H 	0.8038	0.4765	0.9782	0.024
Mof_C 	C 	0.8527	0.5546	0.0472	-0.133
Mof_H 	H 	0.8698	0.4967	0.0631	0.076
Mof_C 	C 	0.7482	0.6174	0.9224	0.086
Mof_N 	N 	0.05512	0.0039	0.3011	-0.287
Mof_N 	N 	0.99426	0.8751	0.32387	-0.286
Mof_N 	N 	0.1544	0.0196	0.7122	-0.197
Mof_N 	N 	0.94244	0.7453	0.22681	-0.312
Mof_N 	N 	0.98377	0.6195	0.1675	-0.257
Mof_N 	N 	0.71572	0.6039	0.8848	-0.206
Mof_C 	C 	0.5816	0.5495	0.2797	0.01
Mof_H 	H 	0.5752	0.5665	0.239	-0.01
Mof_C 	C 	0.621	0.5668	0.3303	-0.118
Mof_H 	H 	0.6451	0.5954	0.3284	0.035
Mof_C 	C 	0.61704	0.535	0.3803	-0.084
Mof_H 	H 	0.6379	0.5384	0.42	0.051
Mof_C 	C 	0.57639	0.4954	0.3635	0.079
Mof_C 	C 	0.55852	0.4512	0.4026	-0.119
Mof_C 	C 	0.51967	0.4036	0.3837	0.089
Mof_C 	C 	0.4964	0.3768	0.4209	-0.099
Mof_H 	H 	0.5052	0.3896	0.4626	0.069
Mof_C 	C 	0.45982	0.3301	0.384	-0.028
Mof_H 	H 	0.439	0.3048	0.3957	0.037
Mof_C 	C 	0.45914	0.3269	0.3245	-0.014
Mof_C 	C 	0.58299	0.4674	0.4698	0.037
Mof_C 	C 	0.5949	0.5658	0.4934	-0.037
Mof_C 	C 	0.6143	0.5761	0.5566	0.003
Mof_C 	C 	0.62304	0.4945	0.5955	-0.057
Mof_C 	C 	0.6126	0.3924	0.5716	0.003
Mof_C 	C 	0.5908	0.3811	0.5078	-0.032
Mof_C 	C 	0.6409	0.51	0.661	0.09
Mof_C 	C 	0.42804	0.2793	0.2689	0.009
Mof_C 	C 	0.3852	0.2595	0.2516	-0.112
Mof_H 	H 	0.3695	0.2745	0.2742	0.036
Mof_C 	C 	0.37055	0.2137	0.1948	-0.122
Mof_H 	H 	0.3429	0.1926	0.1713	0.055
Mof_C 	C 	0.40628	0.2047	0.1788	0.086
Mof_C 	C 	0.40835	0.1625	0.1261	-0.148
Mof_C 	C 	0.44272	0.1268	0.1199	0.099
Mof_C 	C 	0.44748	0.0935	0.0655	-0.096
Mof_H 	H 	0.4254	0.0875	0.0269	0.066
Mof_C 	C 	0.4897	0.0714	0.0784	-0.046
Mof_H 	H 	0.5017	0.0533	0.0513	0.042
Mof_C 	C 	0.5103	0.0832	0.1438	0.024
Mof_H 	H 	0.5386	0.0677	0.1669	-0.002
Mof_C 	C 	0.36627	0.148	0.0736	0.093
Mof_C 	C 	0.34108	0.2365	0.0484	-0.11
Mof_H 	H 	0.3509	0.302	0.0644	0.06
Mof_C 	C 	0.30089	0.2261	0.9988	-0.01
Mof_H 	H 	0.2831	0.283	0.9839	0.031
Mof_C 	C 	0.28954	0.1316	0.9744	-0.043
Mof_C 	C 	0.3132	0.0411	0.996	-0.013
Mof_H 	H 	0.3038	0.9765	0.9782	0.03
Mof_C 	C 	0.3527	0.0546	0.0472	-0.117
Mof_H 	H 	0.3698	0.9967	0.0631	0.068
Mof_C 	C 	0.2482	0.1174	0.9224	0.083
Mof_N 	N 	0.55512	0.5039	0.3011	-0.287
Mof_N 	N 	0.49426	0.3751	0.32387	-0.307
Mof_N 	N 	0.6544	0.5196	0.7122	-0.197
Mof_N 	N 	0.44244	0.2453	0.22681	-0.316
Mof_N 	N 	0.48377	0.1195	0.1675	-0.283
Mof_N 	N 	0.21572	0.1039	0.8848	-0.205
Mof_Zn	Zn	9.09963e-34	0.93314	0.25	1.149
Mof_Zn	Zn	-1.17115e-17	0.68575	0.25	1.153
Mof_Zn	Zn	0.5	0.43314	0.25	1.157
Mof_Zn	Zn	0.5	0.18575	0.25	1.16
_end
