data_functionalizedCrystal
_audit_creation_method	'EQeq! by Chris Wilmer'
_symmetry_space_group_name_H-M	'P1'
_symmetry_Int_Tables_number	1
_symmetry_cell_setting	triclinic
loop_
_symmetry_equiv_pos_as_xyz
  x,y,z
_cell_length_a	6.7002
_cell_length_b	27.1331
_cell_length_c	7.6817
_cell_angle_alpha	90
_cell_angle_beta	90
_cell_angle_gamma	90
loop_
_atom_site_label
_atom_site_type_symbol
_atom_site_fract_x
_atom_site_fract_y
_atom_site_fract_z
_atom_site_charge
Mof_Co	Co	0.99587	0.71742	0.24966	1.19
Mof_Co	Co	0.00413	0.28258	0.24966	1.19
Mof_Co	Co	0.49587	0.78258	0.75034	1.196
Mof_Co	Co	0.50413	0.21742	0.75034	1.196
Mof_H 	H 	0.6163	0.6126	0.3105	0.104
Mof_H 	H 	0.9896	0.8487	0.0904	0.019
Mof_H 	H 	0.1479	0.5376	0.1166	0.09
Mof_H 	H 	0.2844	0.8546	0.2557	0.179
Mof_H 	H 	0.0929	0.8605	0.3701	0.182
Mof_H 	H 	0.413	0.6813	0.3217	0.006
Mof_H 	H 	0.9682	0.6107	0.1167	-0.012
Mof_H 	H 	0.669	0.5278	0.2162	0.061
Mof_H 	H 	0.3837	0.3874	0.3105	0.104
Mof_H 	H 	0.0104	0.1513	0.0904	0.019
Mof_H 	H 	0.8521	0.4624	0.1166	0.09
Mof_H 	H 	0.7156	0.1454	0.2557	0.179
Mof_H 	H 	0.9071	0.1395	0.3701	0.182
Mof_H 	H 	0.587	0.3187	0.3217	0.006
Mof_H 	H 	0.0318	0.3893	0.1167	-0.012
Mof_H 	H 	0.331	0.4722	0.2162	0.061
Mof_H 	H 	0.1163	0.8874	0.6895	0.114
Mof_H 	H 	0.4896	0.6513	0.9096	0.034
Mof_H 	H 	0.6479	0.9624	0.8834	0.087
Mof_H 	H 	0.7844	0.6454	0.7443	0.172
Mof_H 	H 	0.5929	0.6395	0.6299	0.175
Mof_H 	H 	0.913	0.8187	0.6783	-0
Mof_H 	H 	0.4682	0.8893	0.8833	-0.001
Mof_H 	H 	0.169	0.9722	0.7838	0.061
Mof_H 	H 	0.8837	0.1126	0.6895	0.114
Mof_H 	H 	0.5104	0.3487	0.9096	0.034
Mof_H 	H 	0.3521	0.0376	0.8834	0.087
Mof_H 	H 	0.2156	0.3546	0.7443	0.172
Mof_H 	H 	0.4071	0.3605	0.6299	0.175
Mof_H 	H 	0.087	0.1813	0.6783	-0
Mof_H 	H 	0.5318	0.1107	0.8833	-0.001
Mof_H 	H 	0.831	0.0278	0.7838	0.061
Mof_C 	C 	0.484	0.6106	0.2747	-0.183
Mof_C 	C 	0.0422	0.8195	0.1503	0.095
Mof_C 	C 	0.2468	0.7972	0.4251	0.488
Mof_C 	C 	0.4061	0.567	0.2146	0.127
Mof_C 	C 	0.2059	0.5666	0.1572	-0.177
Mof_C 	C 	0.1703	0.8371	0.3024	-0.453
Mof_C 	C 	0.3593	0.6519	0.2807	0.107
Mof_C 	C 	0.1666	0.7901	0.0204	0.29
Mof_C 	C 	0.0966	0.6104	0.1627	0.114
Mof_C 	C 	0.5316	0.5229	0.2155	-0.091
Mof_C 	C 	0.516	0.3894	0.2747	-0.183
Mof_C 	C 	0.9578	0.1805	0.1503	0.095
Mof_C 	C 	0.7532	0.2028	0.4251	0.488
Mof_C 	C 	0.5939	0.433	0.2146	0.127
Mof_C 	C 	0.7941	0.4334	0.1572	-0.177
Mof_C 	C 	0.8297	0.1629	0.3024	-0.453
Mof_C 	C 	0.6407	0.3481	0.2807	0.107
Mof_C 	C 	0.8334	0.2099	0.0204	0.29
Mof_C 	C 	0.9034	0.3896	0.1627	0.114
Mof_C 	C 	0.4684	0.4771	0.2155	-0.091
Mof_C 	C 	0.984	0.8894	0.7253	-0.2
Mof_C 	C 	0.5422	0.6805	0.8497	0.064
Mof_C 	C 	0.7468	0.7028	0.5749	0.482
Mof_C 	C 	0.9061	0.933	0.7854	0.128
Mof_C 	C 	0.7059	0.9334	0.8428	-0.171
Mof_C 	C 	0.6703	0.6629	0.6976	-0.438
Mof_C 	C 	0.8593	0.8481	0.7193	0.114
Mof_C 	C 	0.6666	0.7099	0.9796	0.296
Mof_C 	C 	0.5966	0.8896	0.8373	0.097
Mof_C 	C 	0.0316	0.9771	0.7845	-0.09
Mof_C 	C 	0.016	0.1106	0.7253	-0.2
Mof_C 	C 	0.4578	0.3195	0.8497	0.064
Mof_C 	C 	0.2532	0.2972	0.5749	0.482
Mof_C 	C 	0.0939	0.067	0.7854	0.128
Mof_C 	C 	0.2941	0.0666	0.8428	-0.171
Mof_C 	C 	0.3297	0.3371	0.6976	-0.438
Mof_C 	C 	0.1407	0.1519	0.7193	0.114
Mof_C 	C 	0.3334	0.2901	0.9796	0.296
Mof_C 	C 	0.4034	0.1104	0.8373	0.097
Mof_C 	C 	0.9684	0.0229	0.7845	-0.09
Mof_N 	N 	0.1695	0.6519	0.2317	-0.226
Mof_N 	N 	0.8305	0.3481	0.2317	-0.226
Mof_N 	N 	0.6695	0.8481	0.7683	-0.228
Mof_N 	N 	0.3305	0.1519	0.7683	-0.228
Mof_O 	O 	0.2777	0.813	0.9219	-0.372
Mof_O 	O 	0.8758	0.792	0.2184	-0.277
Mof_O 	O 	0.1435	0.7436	0.0245	-0.356
Mof_O 	O 	0.2103	0.7521	0.3998	-0.441
Mof_O 	O 	0.3416	0.8139	0.5511	-0.453
Mof_O 	O 	0.7223	0.187	0.9219	-0.372
Mof_O 	O 	0.1242	0.208	0.2184	-0.277
Mof_O 	O 	0.8565	0.2564	0.0245	-0.356
Mof_O 	O 	0.7897	0.2479	0.3998	-0.441
Mof_O 	O 	0.6584	0.1861	0.5511	-0.453
Mof_O 	O 	0.7777	0.687	0.0781	-0.376
Mof_O 	O 	0.3758	0.708	0.7816	-0.264
Mof_O 	O 	0.6435	0.7564	0.9755	-0.364
Mof_O 	O 	0.7103	0.7479	0.6002	-0.444
Mof_O 	O 	0.8416	0.6861	0.4489	-0.455
Mof_O 	O 	0.2223	0.313	0.0781	-0.376
Mof_O 	O 	0.6242	0.292	0.7816	-0.264
Mof_O 	O 	0.3565	0.2436	0.9755	-0.364
Mof_O 	O 	0.2897	0.2521	0.6002	-0.444
Mof_O 	O 	0.1584	0.3139	0.4489	-0.455
_end
