data_functionalizedCrystal
_audit_creation_method	'EQeq! by Chris Wilmer'
_symmetry_space_group_name_H-M	'P1'
_symmetry_Int_Tables_number	1
_symmetry_cell_setting	triclinic
loop_
_symmetry_equiv_pos_as_xyz
  x,y,z
_cell_length_a	15.437
_cell_length_b	15.437
_cell_length_c	7.5112
_cell_angle_alpha	90
_cell_angle_beta	90
_cell_angle_gamma	90
loop_
_atom_site_label
_atom_site_type_symbol
_atom_site_fract_x
_atom_site_fract_y
_atom_site_fract_z
_atom_site_charge
Mof_S 	S 	0.41788	0.52951	0.27047	-0.025
Mof_S 	S 	0.59615	0.58087	0.363	-0.003
Mof_N 	N 	0.3332	0.6805	0.6602	-0.244
Mof_C 	C 	0.4756	0.5906	0.113	-0.023
Mof_C 	C 	0.5565	0.6127	0.1576	-0.063
Mof_H 	H 	0.5908	0.6445	0.0797	0.049
Mof_C 	C 	0.503	0.5225	0.4237	-0.003
Mof_C 	C 	0.4191	0.6936	0.675	0.091
Mof_H 	H 	0.4466	0.7247	0.5854	-0.013
Mof_C 	C 	0.4687	0.6639	0.8135	-0.166
Mof_H 	H 	0.5279	0.6748	0.816	0.087
Mof_C 	C 	0.4297	0.6172	0.9503	0.099
Mof_C 	C 	0.3425	0.5996	0.9298	-0.166
Mof_H 	H 	0.3139	0.5658	0.0139	0.091
Mof_C 	C 	0.2976	0.6316	0.7858	0.092
Mof_H 	H 	0.2391	0.6182	0.7758	-0.021
Mof_S 	S 	0.08212	0.97049	0.27047	-0.023
Mof_S 	S 	0.90385	0.91913	0.363	-0.002
Mof_N 	N 	0.1668	0.8195	0.6602	-0.243
Mof_C 	C 	0.0244	0.9094	0.113	-0.021
Mof_C 	C 	0.9435	0.8873	0.1576	-0.063
Mof_H 	H 	0.9092	0.8555	0.0797	0.05
Mof_C 	C 	0.997	0.9775	0.4237	-0.004
Mof_C 	C 	0.0809	0.8064	0.675	0.09
Mof_H 	H 	0.0534	0.7753	0.5854	-0.013
Mof_C 	C 	0.0313	0.8361	0.8135	-0.163
Mof_H 	H 	0.9721	0.8252	0.816	0.085
Mof_C 	C 	0.0703	0.8828	0.9503	0.098
Mof_C 	C 	0.1575	0.9004	0.9298	-0.166
Mof_H 	H 	0.1861	0.9342	0.0139	0.091
Mof_C 	C 	0.2024	0.8684	0.7858	0.092
Mof_H 	H 	0.2609	0.8818	0.7758	-0.021
Mof_S 	S 	0.97049	0.41788	0.27047	-0.023
Mof_S 	S 	0.91913	0.59615	0.363	-0.002
Mof_N 	N 	0.8195	0.3332	0.6602	-0.243
Mof_C 	C 	0.9094	0.4756	0.113	-0.022
Mof_C 	C 	0.8873	0.5565	0.1576	-0.062
Mof_H 	H 	0.8555	0.5908	0.0797	0.05
Mof_C 	C 	0.9775	0.503	0.4237	-0.003
Mof_C 	C 	0.8064	0.4191	0.675	0.091
Mof_H 	H 	0.7753	0.4466	0.5854	-0.013
Mof_C 	C 	0.8361	0.4687	0.8135	-0.166
Mof_H 	H 	0.8252	0.5279	0.816	0.086
Mof_C 	C 	0.8828	0.4297	0.9503	0.099
Mof_C 	C 	0.9004	0.3425	0.9298	-0.166
Mof_H 	H 	0.9342	0.3139	0.0139	0.091
Mof_C 	C 	0.8684	0.2976	0.7858	0.092
Mof_H 	H 	0.8818	0.2391	0.7758	-0.021
Mof_S 	S 	0.52951	0.08212	0.27047	-0.024
Mof_S 	S 	0.58087	0.90385	0.363	-0.002
Mof_N 	N 	0.6805	0.1668	0.6602	-0.243
Mof_C 	C 	0.5906	0.0244	0.113	-0.022
Mof_C 	C 	0.6127	0.9435	0.1576	-0.062
Mof_H 	H 	0.6445	0.9092	0.0797	0.05
Mof_C 	C 	0.5225	0.997	0.4237	-0.003
Mof_C 	C 	0.6936	0.0809	0.675	0.09
Mof_H 	H 	0.7247	0.0534	0.5854	-0.013
Mof_C 	C 	0.6639	0.0313	0.8135	-0.164
Mof_H 	H 	0.6748	0.9721	0.816	0.086
Mof_C 	C 	0.6172	0.0703	0.9503	0.099
Mof_C 	C 	0.5996	0.1575	0.9298	-0.165
Mof_H 	H 	0.5658	0.1861	0.0139	0.091
Mof_C 	C 	0.6316	0.2024	0.7858	0.092
Mof_H 	H 	0.6182	0.2609	0.7758	-0.021
Mof_S 	S 	0.58212	0.47049	0.72953	-0.024
Mof_S 	S 	0.40385	0.41913	0.637	-0.002
Mof_N 	N 	0.6668	0.3195	0.3398	-0.243
Mof_C 	C 	0.5244	0.4094	0.887	-0.022
Mof_C 	C 	0.4435	0.3873	0.8424	-0.062
Mof_H 	H 	0.4092	0.3555	0.9203	0.05
Mof_C 	C 	0.497	0.4775	0.5763	-0.003
Mof_C 	C 	0.5809	0.3064	0.325	0.091
Mof_H 	H 	0.5534	0.2753	0.4146	-0.013
Mof_C 	C 	0.5313	0.3361	0.1865	-0.166
Mof_H 	H 	0.4721	0.3252	0.184	0.087
Mof_C 	C 	0.5703	0.3828	0.0497	0.099
Mof_C 	C 	0.6575	0.4004	0.0702	-0.166
Mof_H 	H 	0.6861	0.4342	0.9861	0.091
Mof_C 	C 	0.7024	0.3684	0.2142	0.092
Mof_H 	H 	0.7609	0.3818	0.2242	-0.021
Mof_S 	S 	0.91788	0.02951	0.72953	-0.023
Mof_S 	S 	0.09615	0.08087	0.637	-0.002
Mof_N 	N 	0.8332	0.1805	0.3398	-0.243
Mof_C 	C 	0.9756	0.0906	0.887	-0.021
Mof_C 	C 	0.0565	0.1127	0.8424	-0.063
Mof_H 	H 	0.0908	0.1445	0.9203	0.05
Mof_C 	C 	0.003	0.0225	0.5763	-0.004
Mof_C 	C 	0.9191	0.1936	0.325	0.09
Mof_H 	H 	0.9466	0.2247	0.4146	-0.013
Mof_C 	C 	0.9687	0.1639	0.1865	-0.163
Mof_H 	H 	0.0279	0.1748	0.184	0.085
Mof_C 	C 	0.9297	0.1172	0.0497	0.098
Mof_C 	C 	0.8425	0.0996	0.0702	-0.166
Mof_H 	H 	0.8139	0.0658	0.9861	0.091
Mof_C 	C 	0.7976	0.1316	0.2142	0.092
Mof_H 	H 	0.7391	0.1182	0.2242	-0.021
Mof_S 	S 	0.02951	0.58212	0.72953	-0.023
Mof_S 	S 	0.08087	0.40385	0.637	-0.002
Mof_N 	N 	0.1805	0.6668	0.3398	-0.243
Mof_C 	C 	0.0906	0.5244	0.887	-0.022
Mof_C 	C 	0.1127	0.4435	0.8424	-0.062
Mof_H 	H 	0.1445	0.4092	0.9203	0.05
Mof_C 	C 	0.0225	0.497	0.5763	-0.003
Mof_C 	C 	0.1936	0.5809	0.325	0.091
Mof_H 	H 	0.2247	0.5534	0.4146	-0.013
Mof_C 	C 	0.1639	0.5313	0.1865	-0.166
Mof_H 	H 	0.1748	0.4721	0.184	0.086
Mof_C 	C 	0.1172	0.5703	0.0497	0.099
Mof_C 	C 	0.0996	0.6575	0.0702	-0.166
Mof_H 	H 	0.0658	0.6861	0.9861	0.091
Mof_C 	C 	0.1316	0.7024	0.2142	0.092
Mof_H 	H 	0.1182	0.7609	0.2242	-0.021
Mof_S 	S 	0.47049	0.91788	0.72953	-0.024
Mof_S 	S 	0.41913	0.09615	0.637	-0.002
Mof_N 	N 	0.3195	0.8332	0.3398	-0.243
Mof_C 	C 	0.4094	0.9756	0.887	-0.022
Mof_C 	C 	0.3873	0.0565	0.8424	-0.062
Mof_H 	H 	0.3555	0.0908	0.9203	0.05
Mof_C 	C 	0.4775	0.003	0.5763	-0.003
Mof_C 	C 	0.3064	0.9191	0.325	0.09
Mof_H 	H 	0.2753	0.9466	0.4146	-0.013
Mof_C 	C 	0.3361	0.9687	0.1865	-0.164
Mof_H 	H 	0.3252	0.0279	0.184	0.086
Mof_C 	C 	0.3828	0.9297	0.0497	0.099
Mof_C 	C 	0.4004	0.8425	0.0702	-0.165
Mof_H 	H 	0.4342	0.8139	0.9861	0.091
Mof_C 	C 	0.3684	0.7976	0.2142	0.092
Mof_H 	H 	0.3818	0.7391	0.2242	-0.021
Mof_Cu	Cu	0.25	0.75	0.5	0.851
Mof_Cu	Cu	0.75	0.25	0.5	0.851
_end
