data_functionalizedCrystal
_audit_creation_method	'EQeq! by Chris Wilmer'
_symmetry_space_group_name_H-M	'P1'
_symmetry_Int_Tables_number	1
_symmetry_cell_setting	triclinic
loop_
_symmetry_equiv_pos_as_xyz
  x,y,z
_cell_length_a	8.438
_cell_length_b	17.081
_cell_length_c	9.585
_cell_angle_alpha	90
_cell_angle_beta	111.72
_cell_angle_gamma	90
loop_
_atom_site_label
_atom_site_type_symbol
_atom_site_fract_x
_atom_site_fract_y
_atom_site_fract_z
_atom_site_charge
Mof_Er	Er	0.66309	0.758	0.97823	1.808
Mof_O 	O 	0.4149	0.7326	0.7719	-0.497
Mof_O 	O 	0.4815	0.6922	0.5784	-0.549
Mof_O 	O 	0.8423	0.7278	0.3594	-0.569
Mof_O 	O 	0.9058	0.7003	0.1593	-0.48
Mof_O 	O 	0.6888	0.6225	0.9048	-0.388
Mof_O 	O 	0.5417	0.6463	0.0491	-0.414
Mof_C 	C 	0.3775	0.7134	0.636	0.485
Mof_C 	C 	0.191	0.7163	0.5394	-0.164
Mof_H 	H 	0.1147	0.7326	0.5829	0.094
Mof_C 	C 	0.1298	0.6968	0.3959	-0.165
Mof_H 	H 	0.2031	0.6753	0.3537	0.094
Mof_C 	C 	0.9463	0.7082	0.2993	0.458
Mof_C 	C 	0.5977	0.5986	0.9749	0.32
Mof_C 	C 	0.5529	0.5144	0.9694	-0.122
Mof_H 	H 	0.601	0.4801	0.9208	0.085
Mof_Er	Er	0.33691	0.258	0.52177	1.818
Mof_O 	O 	0.5851	0.2326	0.7281	-0.496
Mof_O 	O 	0.5185	0.1922	0.9216	-0.545
Mof_O 	O 	0.1577	0.2278	0.1406	-0.569
Mof_O 	O 	0.0942	0.2003	0.3407	-0.483
Mof_O 	O 	0.3112	0.1225	0.5952	-0.387
Mof_O 	O 	0.4583	0.1463	0.4509	-0.418
Mof_C 	C 	0.6225	0.2134	0.864	0.484
Mof_C 	C 	0.809	0.2163	0.9606	-0.164
Mof_H 	H 	0.8853	0.2326	0.9171	0.094
Mof_C 	C 	0.8702	0.1968	0.1041	-0.161
Mof_H 	H 	0.7969	0.1753	0.1463	0.092
Mof_C 	C 	0.0537	0.2082	0.2007	0.453
Mof_C 	C 	0.4023	0.0986	0.5251	0.322
Mof_C 	C 	0.4471	0.0144	0.5306	-0.122
Mof_H 	H 	0.399	0.9801	0.5792	0.085
Mof_Er	Er	0.33691	0.242	0.02177	1.809
Mof_O 	O 	0.5851	0.2674	0.2281	-0.496
Mof_O 	O 	0.5185	0.3078	0.4216	-0.549
Mof_O 	O 	0.1577	0.2722	0.6406	-0.569
Mof_O 	O 	0.0942	0.2997	0.8407	-0.48
Mof_O 	O 	0.3112	0.3775	0.0952	-0.388
Mof_O 	O 	0.4583	0.3537	0.9509	-0.414
Mof_C 	C 	0.6225	0.2866	0.364	0.485
Mof_C 	C 	0.809	0.2837	0.4606	-0.164
Mof_H 	H 	0.8853	0.2674	0.4171	0.094
Mof_C 	C 	0.8702	0.3032	0.6041	-0.165
Mof_H 	H 	0.7969	0.3247	0.6463	0.094
Mof_C 	C 	0.0537	0.2918	0.7007	0.458
Mof_C 	C 	0.4023	0.4014	0.0251	0.32
Mof_C 	C 	0.4471	0.4856	0.0306	-0.122
Mof_H 	H 	0.399	0.5199	0.0792	0.085
Mof_Er	Er	0.66309	0.742	0.47823	1.818
Mof_O 	O 	0.4149	0.7674	0.2719	-0.496
Mof_O 	O 	0.4815	0.8078	0.0784	-0.545
Mof_O 	O 	0.8423	0.7722	0.8594	-0.569
Mof_O 	O 	0.9058	0.7997	0.6593	-0.483
Mof_O 	O 	0.6888	0.8775	0.4048	-0.387
Mof_O 	O 	0.5417	0.8537	0.5491	-0.418
Mof_C 	C 	0.3775	0.7866	0.136	0.484
Mof_C 	C 	0.191	0.7837	0.0394	-0.164
Mof_H 	H 	0.1147	0.7674	0.0829	0.094
Mof_C 	C 	0.1298	0.8032	0.8959	-0.161
Mof_H 	H 	0.2031	0.8247	0.8537	0.092
Mof_C 	C 	0.9463	0.7918	0.7993	0.453
Mof_C 	C 	0.5977	0.9014	0.4749	0.322
Mof_C 	C 	0.5529	0.9856	0.4694	-0.122
Mof_H 	H 	0.601	0.0199	0.4208	0.085
_end
