data_functionalizedCrystal
_audit_creation_method	'EQeq! by Chris Wilmer'
_symmetry_space_group_name_H-M	'P1'
_symmetry_Int_Tables_number	1
_symmetry_cell_setting	triclinic
loop_
_symmetry_equiv_pos_as_xyz
  x,y,z
_cell_length_a	8.4258
_cell_length_b	9.271
_cell_length_c	12.824
_cell_angle_alpha	90
_cell_angle_beta	105.76
_cell_angle_gamma	90
loop_
_atom_site_label
_atom_site_type_symbol
_atom_site_fract_x
_atom_site_fract_y
_atom_site_fract_z
_atom_site_charge
Mof_Mn	Mn	0.25702	0.74841	0.01078	0.791
Mof_N 	N 	0.32562	0.79743	0.1886	-0.12
Mof_N 	N 	0.26937	0.8001	0.26239	-0.02
Mof_N 	N 	0.21348	0.80678	0.33612	-0.121
Mof_N 	N 	0.043	0.61974	0.01824	-0.126
Mof_N 	N 	0.10732	0.94643	0.97211	-0.128
Mof_N 	N 	0.48162	0.87531	0.00742	-0.123
Mof_N 	N 	0.42938	0.55915	0.05486	-0.116
Mof_Mn	Mn	0.74298	0.24841	0.48922	0.79
Mof_N 	N 	0.67438	0.29743	0.3114	-0.118
Mof_N 	N 	0.73063	0.3001	0.23761	-0.019
Mof_N 	N 	0.78652	0.30678	0.16388	-0.119
Mof_N 	N 	0.957	0.11974	0.48176	-0.13
Mof_N 	N 	0.89268	0.44643	0.52789	-0.127
Mof_N 	N 	0.51838	0.37531	0.49258	-0.117
Mof_N 	N 	0.57062	0.05915	0.44514	-0.115
Mof_Mn	Mn	0.74298	0.25159	0.98922	0.782
Mof_N 	N 	0.67438	0.20257	0.8114	-0.119
Mof_N 	N 	0.73063	0.1999	0.73761	-0.02
Mof_N 	N 	0.78652	0.19322	0.66388	-0.121
Mof_N 	N 	0.957	0.38026	0.98176	-0.134
Mof_N 	N 	0.89268	0.05357	0.02789	-0.121
Mof_N 	N 	0.51838	0.12469	0.99258	-0.121
Mof_N 	N 	0.57062	0.44085	0.94514	-0.119
Mof_Mn	Mn	0.25702	0.75159	0.51078	0.789
Mof_N 	N 	0.32562	0.70257	0.6886	-0.119
Mof_N 	N 	0.26937	0.6999	0.76239	-0.019
Mof_N 	N 	0.21348	0.69322	0.83612	-0.121
Mof_N 	N 	0.043	0.88026	0.51824	-0.13
Mof_N 	N 	0.10732	0.55357	0.47211	-0.122
Mof_N 	N 	0.48162	0.62469	0.50742	-0.118
Mof_N 	N 	0.42938	0.94085	0.55486	-0.121
Mof_N 	N 	-6.54591e-33	0.5	-0	-0.016
Mof_N 	N 	3.62825e-33	0	0.5	-0.014
Mof_N 	N 	-0	0	-0	-0.012
Mof_N 	N 	3.62825e-33	0.5	0.5	-0.018
Mof_N 	N 	0.5	0	-0	-0.016
Mof_N 	N 	0.5	0.5	0.5	-0.027
Mof_N 	N 	0.5	0.5	-0	-0.023
Mof_N 	N 	0.5	0	0.5	-0.022
_end
