data_functionalizedCrystal
_audit_creation_method	'EQeq! by Chris Wilmer'
_symmetry_space_group_name_H-M	'P1'
_symmetry_Int_Tables_number	1
_symmetry_cell_setting	triclinic
loop_
_symmetry_equiv_pos_as_xyz
  x,y,z
_cell_length_a	21.2459
_cell_length_b	21.2459
_cell_length_c	21.2459
_cell_angle_alpha	102.033
_cell_angle_beta	102.033
_cell_angle_gamma	102.033
loop_
_atom_site_label
_atom_site_type_symbol
_atom_site_fract_x
_atom_site_fract_y
_atom_site_fract_z
_atom_site_charge
Mof_Zn	Zn	0.67018	0.76066	0.76872	1.21
Mof_Zn	Zn	0.76872	0.67018	0.76066	1.21
Mof_Zn	Zn	0.32982	0.23128	0.23934	1.211
Mof_Zn	Zn	0.36042	0.36042	0.36042	1.219
Mof_Zn	Zn	0.76066	0.76872	0.67018	1.211
Mof_Zn	Zn	0.23934	0.32982	0.23128	1.211
Mof_Zn	Zn	0.23128	0.23934	0.32982	1.211
Mof_Zn	Zn	0.63958	0.63958	0.63958	1.219
Mof_H 	H 	0.4036	0.888	0.369	0.044
Mof_H 	H 	0.425	0.616	0.5819	0.021
Mof_H 	H 	0.5198	0.2429	0.2412	0.019
Mof_H 	H 	0.5938	0.6286	0.2211	0.04
Mof_H 	H 	0.5819	0.425	0.616	0.021
Mof_H 	H 	0.231	0.9525	0.3859	0.066
Mof_H 	H 	0.1425	0.8352	0.6935	0.121
Mof_H 	H 	0.6309	0.2546	0.2375	0.079
Mof_H 	H 	0.7454	0.3691	0.7625	0.079
Mof_H 	H 	0.3691	0.7625	0.7454	0.079
Mof_H 	H 	0.384	0.575	0.4181	0.021
Mof_H 	H 	0.5964	0.631	0.112	0.044
Mof_H 	H 	0.6798	0.3478	0.0573	0.04
Mof_H 	H 	0.3065	0.1648	0.8575	0.121
Mof_H 	H 	0.3859	0.231	0.9525	0.066
Mof_H 	H 	0.9525	0.3859	0.231	0.066
Mof_H 	H 	0.616	0.5819	0.425	0.021
Mof_H 	H 	0.6196	0.5701	0.3138	0.08
Mof_H 	H 	0.2344	0.0546	0.8088	0.038
Mof_H 	H 	0.8088	0.2344	0.0546	0.038
Mof_H 	H 	0.9501	0.2876	0.3752	0.066
Mof_H 	H 	0.6286	0.2211	0.5938	0.04
Mof_H 	H 	0.2412	0.5198	0.2429	0.019
Mof_H 	H 	0.6805	0.3203	0.8318	0.122
Mof_H 	H 	0.8352	0.6935	0.1425	0.121
Mof_H 	H 	0.3202	0.9427	0.6522	0.04
Mof_H 	H 	0.3478	0.0573	0.6798	0.04
Mof_H 	H 	0.9427	0.6522	0.3202	0.04
Mof_H 	H 	0.9454	0.7656	0.1912	0.038
Mof_H 	H 	0.4299	0.3804	0.6862	0.08
Mof_H 	H 	0.888	0.369	0.4036	0.044
Mof_H 	H 	0.6141	0.0475	0.769	0.066
Mof_H 	H 	0.369	0.4036	0.888	0.044
Mof_H 	H 	0.1912	0.9454	0.7656	0.038
Mof_H 	H 	0.6332	0.9443	0.7763	0.035
Mof_H 	H 	0.3752	0.9501	0.2876	0.066
Mof_H 	H 	0.2211	0.5938	0.6286	0.04
Mof_H 	H 	0.5701	0.3138	0.6196	0.08
Mof_H 	H 	0.3668	0.2237	0.0557	0.035
Mof_H 	H 	0.9466	0.6321	0.7313	0.038
Mof_H 	H 	0.4062	0.7789	0.3714	0.04
Mof_H 	H 	0.1648	0.8575	0.3065	0.121
Mof_H 	H 	0.2237	0.0557	0.3668	0.035
Mof_H 	H 	0.9443	0.7763	0.6332	0.035
Mof_H 	H 	0.2375	0.6309	0.2546	0.079
Mof_H 	H 	0.2687	0.3679	0.0534	0.038
Mof_H 	H 	0.4181	0.384	0.575	0.021
Mof_H 	H 	0.2546	0.2375	0.6309	0.079
Mof_H 	H 	0.575	0.4181	0.384	0.021
Mof_H 	H 	0.112	0.5964	0.631	0.044
Mof_H 	H 	0.1682	0.6797	0.3195	0.122
Mof_H 	H 	0.3804	0.6862	0.4299	0.08
Mof_H 	H 	0.8575	0.3065	0.1648	0.121
Mof_H 	H 	0.6797	0.3195	0.1682	0.122
Mof_H 	H 	0.0499	0.6248	0.7124	0.066
Mof_H 	H 	0.2429	0.2412	0.5198	0.019
Mof_H 	H 	0.6321	0.7313	0.9466	0.038
Mof_H 	H 	0.8318	0.6805	0.3203	0.122
Mof_H 	H 	0.631	0.112	0.5964	0.044
Mof_H 	H 	0.7656	0.1912	0.9454	0.038
Mof_H 	H 	0.4802	0.7588	0.7571	0.019
Mof_H 	H 	0.3714	0.4062	0.7789	0.04
Mof_H 	H 	0.7625	0.7454	0.3691	0.079
Mof_H 	H 	0.0534	0.2687	0.3679	0.038
Mof_H 	H 	0.7313	0.9466	0.6321	0.038
Mof_H 	H 	0.0546	0.8088	0.2344	0.038
Mof_H 	H 	0.6862	0.4299	0.3804	0.08
Mof_H 	H 	0.7763	0.6332	0.9443	0.035
Mof_H 	H 	0.3203	0.8318	0.6805	0.122
Mof_H 	H 	0.3195	0.1682	0.6797	0.122
Mof_H 	H 	0.0573	0.6798	0.3478	0.04
Mof_H 	H 	0.7588	0.7571	0.4802	0.019
Mof_H 	H 	0.7789	0.3714	0.4062	0.04
Mof_H 	H 	0.7571	0.4802	0.7588	0.019
Mof_H 	H 	0.6935	0.1425	0.8352	0.121
Mof_H 	H 	0.0475	0.769	0.6141	0.066
Mof_H 	H 	0.6522	0.3202	0.9427	0.04
Mof_H 	H 	0.6248	0.7124	0.0499	0.066
Mof_H 	H 	0.3138	0.6196	0.5701	0.08
Mof_H 	H 	0.2876	0.3752	0.9501	0.066
Mof_H 	H 	0.769	0.6141	0.0475	0.066
Mof_H 	H 	0.0557	0.3668	0.2237	0.035
Mof_H 	H 	0.3679	0.0534	0.2687	0.038
Mof_H 	H 	0.7124	0.0499	0.6248	0.066
Mof_C 	C 	0.2446	0.7554	0.6712	0.068
Mof_C 	C 	0.6831	0.3008	0.9657	-0.036
Mof_C 	C 	0.8543	0.3588	0.3632	-0.045
Mof_C 	C 	0.6932	0.2377	0.8567	0.143
Mof_C 	C 	0.313	0.537	0.3294	-0.156
Mof_C 	C 	0.7569	0.6727	0.1798	0.058
Mof_C 	C 	0.7413	0.638	0.027	-0.11
Mof_C 	C 	0.6861	0.6819	0.5357	0.453
Mof_C 	C 	0.3181	0.3139	0.4643	0.453
Mof_C 	C 	0.6706	0.463	0.687	-0.156
Mof_C 	C 	0.9657	0.7455	0.6492	0.023
Mof_C 	C 	0.3849	0.3542	0.5864	0.074
Mof_C 	C 	0.648	0.6081	0.3476	-0.144
Mof_C 	C 	0.3273	0.2431	0.8202	0.058
Mof_C 	C 	0.7623	0.3068	0.1433	0.143
Mof_C 	C 	0.669	0.3433	0.3087	0.094
Mof_C 	C 	0.3805	0.7327	0.7122	-0.143
Mof_C 	C 	0.6492	0.9657	0.7455	0.023
Mof_C 	C 	0.7554	0.6712	0.2446	0.068
Mof_C 	C 	0.6996	0.8677	0.7061	0.316
Mof_C 	C 	0.3508	0.2545	0.0343	0.023
Mof_C 	C 	0.6727	0.1798	0.7569	0.058
Mof_C 	C 	0.7076	0.9671	0.6599	0.018
Mof_C 	C 	0.3288	0.2446	0.7554	0.068
Mof_C 	C 	0.3476	0.648	0.6081	-0.144
Mof_C 	C 	0.2431	0.8202	0.3273	0.058
Mof_C 	C 	0.4136	0.6458	0.6151	0.074
Mof_C 	C 	0.0284	0.6555	0.6963	-0.107
Mof_C 	C 	0.0584	0.6963	0.6615	0.065
Mof_C 	C 	0.9657	0.6831	0.3008	-0.036
Mof_C 	C 	0.9358	0.7049	0.684	-0.081
Mof_C 	C 	0.6712	0.2446	0.7554	0.068
Mof_C 	C 	0.7455	0.6492	0.9657	0.023
Mof_C 	C 	0.26	0.6946	0.6548	-0.055
Mof_C 	C 	0.684	0.9358	0.7049	-0.081
Mof_C 	C 	0.5864	0.3849	0.3542	0.074
Mof_C 	C 	0.1304	0.6977	0.6577	-0.038
Mof_C 	C 	0.74	0.3452	0.3054	-0.055
Mof_C 	C 	0.9671	0.6599	0.7076	0.018
Mof_C 	C 	0.3433	0.3087	0.669	0.094
Mof_C 	C 	0.1457	0.6368	0.6412	-0.045
Mof_C 	C 	0.032	0.7724	0.2478	-0.035
Mof_C 	C 	0.4465	0.7305	0.7192	0.071
Mof_C 	C 	0.3919	0.352	0.6524	-0.144
Mof_C 	C 	0.3139	0.4643	0.3181	0.453
Mof_C 	C 	0.1433	0.7623	0.3068	0.143
Mof_C 	C 	0.6567	0.331	0.6913	0.094
Mof_C 	C 	0.3385	0.3037	0.9416	0.065
Mof_C 	C 	0.6577	0.1304	0.6977	-0.038
Mof_C 	C 	0.7418	0.2897	0.0699	-0.036
Mof_C 	C 	0.3054	0.74	0.3452	-0.055
Mof_C 	C 	0.9301	0.7103	0.2582	-0.036
Mof_C 	C 	0.2545	0.0343	0.3508	0.023
Mof_C 	C 	0.7061	0.6996	0.8677	0.316
Mof_C 	C 	0.1798	0.7569	0.6727	0.058
Mof_C 	C 	0.3632	0.8543	0.3588	-0.045
Mof_C 	C 	0.2695	0.5535	0.2808	0.071
Mof_C 	C 	0.2587	0.973	0.362	-0.11
Mof_C 	C 	0.362	0.2587	0.973	-0.11
Mof_C 	C 	0.5357	0.6861	0.6819	0.453
Mof_C 	C 	0.3602	0.3646	0.7894	-0.03
Mof_C 	C 	0.2939	0.1323	0.3004	0.316
Mof_C 	C 	0.537	0.3294	0.313	-0.156
Mof_C 	C 	0.9416	0.3385	0.3037	0.065
Mof_C 	C 	0.2478	0.032	0.7724	-0.035
Mof_C 	C 	0.6081	0.3476	0.648	-0.144
Mof_C 	C 	0.6946	0.6548	0.26	-0.055
Mof_C 	C 	0.1323	0.3004	0.2939	0.316
Mof_C 	C 	0.3037	0.9416	0.3385	0.065
Mof_C 	C 	0.027	0.7413	0.638	-0.11
Mof_C 	C 	0.3004	0.2939	0.1323	0.316
Mof_C 	C 	0.3542	0.5864	0.3849	0.074
Mof_C 	C 	0.6963	0.0284	0.6555	-0.107
Mof_C 	C 	0.3068	0.1433	0.7623	0.143
Mof_C 	C 	0.2808	0.2695	0.5535	0.071
Mof_C 	C 	0.0343	0.3508	0.2545	0.023
Mof_C 	C 	0.687	0.6706	0.463	-0.156
Mof_C 	C 	0.4643	0.3181	0.3139	0.453
Mof_C 	C 	0.7305	0.7192	0.4465	0.071
Mof_C 	C 	0.6458	0.6151	0.4136	0.074
Mof_C 	C 	0.6368	0.6412	0.1457	-0.045
Mof_C 	C 	0.2106	0.6354	0.6398	-0.03
Mof_C 	C 	0.6151	0.4136	0.6458	0.074
Mof_C 	C 	0.968	0.7522	0.2276	-0.035
Mof_C 	C 	0.2924	0.3401	0.0329	0.018
Mof_C 	C 	0.2276	0.968	0.7522	-0.035
Mof_C 	C 	0.6615	0.0584	0.6963	0.065
Mof_C 	C 	0.6548	0.26	0.6946	-0.055
Mof_C 	C 	0.2582	0.9301	0.7103	-0.036
Mof_C 	C 	0.2377	0.8567	0.6932	0.143
Mof_C 	C 	0.0329	0.2924	0.3401	0.018
Mof_C 	C 	0.3087	0.669	0.3433	0.094
Mof_C 	C 	0.8696	0.3423	0.3023	-0.038
Mof_C 	C 	0.6913	0.6567	0.331	0.094
Mof_C 	C 	0.3037	0.3445	0.9716	-0.107
Mof_C 	C 	0.6412	0.1457	0.6368	-0.045
Mof_C 	C 	0.6963	0.6615	0.0584	0.065
Mof_C 	C 	0.3445	0.9716	0.3037	-0.107
Mof_C 	C 	0.3294	0.313	0.537	-0.156
Mof_C 	C 	0.7327	0.7122	0.3805	-0.143
Mof_C 	C 	0.6977	0.6577	0.1304	-0.038
Mof_C 	C 	0.5535	0.2808	0.2695	0.071
Mof_C 	C 	0.6195	0.2878	0.2673	-0.143
Mof_C 	C 	0.7049	0.684	0.9358	-0.081
Mof_C 	C 	0.463	0.687	0.6706	-0.156
Mof_C 	C 	0.8567	0.6932	0.2377	0.143
Mof_C 	C 	0.331	0.6913	0.6567	0.094
Mof_C 	C 	0.3008	0.9657	0.6831	-0.036
Mof_C 	C 	0.7103	0.2582	0.9301	-0.036
Mof_C 	C 	0.638	0.027	0.7413	-0.11
Mof_C 	C 	0.973	0.362	0.2587	-0.11
Mof_C 	C 	0.3646	0.7894	0.3602	-0.03
Mof_C 	C 	0.6555	0.6963	0.0284	-0.107
Mof_C 	C 	0.7894	0.3602	0.3646	-0.03
Mof_C 	C 	0.6398	0.2106	0.6354	-0.03
Mof_C 	C 	0.0642	0.316	0.2951	-0.081
Mof_C 	C 	0.3452	0.3054	0.74	-0.055
Mof_C 	C 	0.6354	0.6398	0.2106	-0.03
Mof_C 	C 	0.3401	0.0329	0.2924	0.018
Mof_C 	C 	0.8202	0.3273	0.2431	0.058
Mof_C 	C 	0.7724	0.2478	0.032	-0.035
Mof_C 	C 	0.6992	0.3169	0.0343	-0.036
Mof_C 	C 	0.7522	0.2276	0.968	-0.035
Mof_C 	C 	0.7192	0.4465	0.7305	0.071
Mof_C 	C 	0.2951	0.0642	0.316	-0.081
Mof_C 	C 	0.6524	0.3919	0.352	-0.144
Mof_C 	C 	0.352	0.6524	0.3919	-0.144
Mof_C 	C 	0.3169	0.0343	0.6992	-0.036
Mof_C 	C 	0.9716	0.3037	0.3445	-0.107
Mof_C 	C 	0.8677	0.7061	0.6996	0.316
Mof_C 	C 	0.2446	0.7554	0.3288	0.068
Mof_C 	C 	0.2878	0.2673	0.6195	-0.143
Mof_C 	C 	0.7122	0.3805	0.7327	-0.143
Mof_C 	C 	0.6819	0.5357	0.6861	0.453
Mof_C 	C 	0.2673	0.6195	0.2878	-0.143
Mof_C 	C 	0.0343	0.6992	0.3169	-0.036
Mof_C 	C 	0.6599	0.7076	0.9671	0.018
Mof_C 	C 	0.3588	0.3632	0.8543	-0.045
Mof_C 	C 	0.0699	0.7418	0.2897	-0.036
Mof_C 	C 	0.3023	0.8696	0.3423	-0.038
Mof_C 	C 	0.2897	0.0699	0.7418	-0.036
Mof_C 	C 	0.316	0.2951	0.0642	-0.081
Mof_C 	C 	0.7554	0.3288	0.2446	0.068
Mof_C 	C 	0.3423	0.3023	0.8696	-0.038
Mof_N 	N 	0.1794	0.8227	0.312	-0.216
Mof_N 	N 	0.1773	0.8206	0.688	-0.216
Mof_N 	N 	0.6814	0.2785	0.8181	-0.217
Mof_N 	N 	0.312	0.1794	0.8227	-0.216
Mof_N 	N 	0.688	0.1773	0.8206	-0.216
Mof_N 	N 	0.7215	0.3186	0.1819	-0.217
Mof_N 	N 	0.2785	0.8181	0.6814	-0.217
Mof_N 	N 	0.8206	0.688	0.1773	-0.216
Mof_N 	N 	0.8227	0.312	0.1794	-0.216
Mof_N 	N 	0.3186	0.1819	0.7215	-0.217
Mof_N 	N 	0.1819	0.7215	0.3186	-0.217
Mof_N 	N 	0.8181	0.6814	0.2785	-0.217
Mof_O 	O 	0.7558	0.6766	0.8479	-0.486
Mof_O 	O 	0.4267	0.2664	0.2796	-0.533
Mof_O 	O 	0.2796	0.4267	0.2664	-0.533
Mof_O 	O 	0.4506	0.3651	0.3499	-0.506
Mof_O 	O 	0.259	0.3223	0.1489	-0.513
Mof_O 	O 	0.6501	0.6349	0.5494	-0.506
Mof_O 	O 	0.7204	0.7336	0.5733	-0.533
Mof_O 	O 	0.1489	0.259	0.3223	-0.513
Mof_O 	O 	0.3499	0.4506	0.3651	-0.506
Mof_O 	O 	0.5494	0.6501	0.6349	-0.506
Mof_O 	O 	0.6777	0.741	0.8511	-0.513
Mof_O 	O 	0.5733	0.7204	0.7336	-0.533
Mof_O 	O 	0.7336	0.5733	0.7204	-0.533
Mof_O 	O 	0.3651	0.3499	0.4506	-0.506
Mof_O 	O 	0.8479	0.7558	0.6766	-0.486
Mof_O 	O 	0.1521	0.3234	0.2442	-0.486
Mof_O 	O 	0.3234	0.2442	0.1521	-0.486
Mof_O 	O 	0.6349	0.5494	0.6501	-0.506
Mof_O 	O 	0.6766	0.8479	0.7558	-0.486
Mof_O 	O 	0.741	0.8511	0.6777	-0.513
Mof_O 	O 	0.70777	0.70777	0.70777	-0.966
Mof_O 	O 	0.2442	0.1521	0.3234	-0.486
Mof_O 	O 	0.29223	0.29223	0.29223	-0.966
Mof_O 	O 	0.2664	0.2796	0.4267	-0.533
Mof_O 	O 	0.3223	0.1489	0.259	-0.513
Mof_O 	O 	0.8511	0.6777	0.741	-0.513
_end
