data_functionalizedCrystal
_audit_creation_method	'EQeq! by Chris Wilmer'
_symmetry_space_group_name_H-M	'P1'
_symmetry_Int_Tables_number	1
_symmetry_cell_setting	triclinic
loop_
_symmetry_equiv_pos_as_xyz
  x,y,z
_cell_length_a	21.617
_cell_length_b	8.2378
_cell_length_c	23.158
_cell_angle_alpha	90
_cell_angle_beta	99.426
_cell_angle_gamma	90
loop_
_atom_site_label
_atom_site_type_symbol
_atom_site_fract_x
_atom_site_fract_y
_atom_site_fract_z
_atom_site_charge
Mof_C 	C 	0.1723	0.7851	0.178	0.485
Mof_C 	C 	0.0492	0.9924	0.0702	-0.002
Mof_C 	C 	0.0924	0.883	0.0975	0.069
Mof_H 	H 	0.0988	0.7863	0.0786	0.034
Mof_C 	C 	0.2597	0.7031	0.3588	0.561
Mof_C 	C 	0.263	0.5028	0.4388	0.068
Mof_H 	H 	0.2362	0.4389	0.4127	0.001
Mof_C 	C 	0.3254	0.5391	0.5331	0.032
Mof_H 	H 	0.3416	0.4982	0.5699	-0.004
Mof_C 	C 	0.1269	0.9132	0.1526	-0.297
Mof_C 	C 	0.2816	0.6522	0.4215	-0.24
Mof_C 	C 	0.284	0.4469	0.4952	0.007
Mof_C 	C 	0.0432	0.1403	0.0952	0.046
Mof_H 	H 	0.0165	0.2186	0.0759	0.023
Mof_C 	C 	0.3225	0.7514	0.4596	0.252
Mof_C 	C 	0.3437	0.6939	0.517	-0.189
Mof_H 	H 	0.3695	0.7583	0.5439	0.098
Mof_C 	C 	0.0779	0.1718	0.1501	-0.271
Mof_H 	H 	0.0714	0.2691	0.1686	0.101
Mof_C 	C 	0.1217	0.0637	0.1783	0.39
Mof_Lu	Lu	0.2479	0.53693	0.22855	2.933
Mof_N 	N 	0.0181	0.9483	0.0129	-0.076
Mof_N 	N 	0.2646	0.301	0.5184	-0.086
Mof_O 	O 	0.2379	0.5879	0.3221	-0.725
Mof_O 	O 	0.1546	0.1043	0.2294	-0.702
Mof_O 	O 	0.2122	0.8093	0.2249	-0.971
Mof_O 	O 	0.1684	0.6438	0.1553	-0.603
Mof_O 	O 	0.2707	0.8493	0.345	-0.704
Mof_O 	O 	0.3399	0.899	0.4459	-0.208
Mof_C 	C 	0.6723	0.2851	0.178	0.489
Mof_C 	C 	0.5492	0.4924	0.0702	-0.019
Mof_C 	C 	0.5924	0.383	0.0975	0.081
Mof_H 	H 	0.5988	0.2863	0.0786	0.028
Mof_C 	C 	0.7597	0.2031	0.3588	0.56
Mof_C 	C 	0.763	0.0028	0.4388	0.061
Mof_H 	H 	0.7362	0.9389	0.4127	0.005
Mof_C 	C 	0.8254	0.0391	0.5331	0.037
Mof_H 	H 	0.8416	0.9982	0.5699	-0.008
Mof_C 	C 	0.6269	0.4132	0.1526	-0.315
Mof_C 	C 	0.7816	0.1522	0.4215	-0.239
Mof_C 	C 	0.784	0.9469	0.4952	0.008
Mof_C 	C 	0.5432	0.6403	0.0952	0.066
Mof_H 	H 	0.5165	0.7186	0.0759	0.018
Mof_C 	C 	0.8225	0.2514	0.4596	0.253
Mof_C 	C 	0.8437	0.1939	0.517	-0.192
Mof_H 	H 	0.8695	0.2583	0.5439	0.1
Mof_C 	C 	0.5779	0.6718	0.1501	-0.286
Mof_H 	H 	0.5714	0.7691	0.1686	0.108
Mof_C 	C 	0.6217	0.5637	0.1783	0.408
Mof_Lu	Lu	0.7479	0.03693	0.22855	2.911
Mof_N 	N 	0.5181	0.4483	0.0129	-0.075
Mof_N 	N 	0.7646	0.801	0.5184	-0.086
Mof_O 	O 	0.7379	0.0879	0.3221	-0.725
Mof_O 	O 	0.6546	0.6043	0.2294	-0.706
Mof_O 	O 	0.7122	0.3093	0.2249	-0.976
Mof_O 	O 	0.6684	0.1438	0.1553	-0.604
Mof_O 	O 	0.7707	0.3493	0.345	-0.709
Mof_O 	O 	0.8399	0.399	0.4459	-0.21
Mof_C 	C 	0.8277	0.7851	0.322	0.484
Mof_C 	C 	0.9508	0.9924	0.4298	-0.007
Mof_C 	C 	0.9076	0.883	0.4025	0.071
Mof_H 	H 	0.9012	0.7863	0.4214	0.033
Mof_C 	C 	0.7403	0.7031	0.1412	0.561
Mof_C 	C 	0.737	0.5028	0.0612	0.07
Mof_H 	H 	0.7638	0.4389	0.0873	-0.001
Mof_C 	C 	0.6746	0.5391	0.9669	0.034
Mof_H 	H 	0.6584	0.4982	0.9301	-0.005
Mof_C 	C 	0.8731	0.9132	0.3474	-0.299
Mof_C 	C 	0.7184	0.6522	0.0785	-0.241
Mof_C 	C 	0.716	0.4469	0.0048	0.004
Mof_C 	C 	0.9568	0.1403	0.4048	0.051
Mof_H 	H 	0.9835	0.2186	0.4241	0.022
Mof_C 	C 	0.6775	0.7514	0.0404	0.254
Mof_C 	C 	0.6563	0.6939	0.983	-0.193
Mof_H 	H 	0.6305	0.7583	0.9561	0.099
Mof_C 	C 	0.9221	0.1718	0.3499	-0.274
Mof_H 	H 	0.9286	0.2691	0.3314	0.102
Mof_C 	C 	0.8783	0.0637	0.3217	0.393
Mof_Lu	Lu	0.7521	0.53693	0.27145	2.933
Mof_N 	N 	0.9819	0.9483	0.4871	-0.076
Mof_N 	N 	0.7354	0.301	0.9816	-0.085
Mof_O 	O 	0.7621	0.5879	0.1779	-0.725
Mof_O 	O 	0.8454	0.1043	0.2706	-0.702
Mof_O 	O 	0.7878	0.8093	0.2751	-0.971
Mof_O 	O 	0.8316	0.6438	0.3447	-0.603
Mof_O 	O 	0.7293	0.8493	0.155	-0.704
Mof_O 	O 	0.6601	0.899	0.0541	-0.208
Mof_C 	C 	0.3277	0.2851	0.322	0.489
Mof_C 	C 	0.4508	0.4924	0.4298	-0.019
Mof_C 	C 	0.4076	0.383	0.4025	0.081
Mof_H 	H 	0.4012	0.2863	0.4214	0.029
Mof_C 	C 	0.2403	0.2031	0.1412	0.559
Mof_C 	C 	0.237	0.0028	0.0612	0.051
Mof_H 	H 	0.2638	0.9389	0.0873	0.009
Mof_C 	C 	0.1746	0.0391	0.9669	0.038
Mof_H 	H 	0.1584	0.9982	0.9301	-0.01
Mof_C 	C 	0.3731	0.4132	0.3474	-0.314
Mof_C 	C 	0.2184	0.1522	0.0785	-0.235
Mof_C 	C 	0.216	0.9469	0.0048	0.013
Mof_C 	C 	0.4568	0.6403	0.4048	0.066
Mof_H 	H 	0.4835	0.7186	0.4241	0.017
Mof_C 	C 	0.1775	0.2514	0.0404	0.249
Mof_C 	C 	0.1563	0.1939	0.983	-0.19
Mof_H 	H 	0.1305	0.2583	0.9561	0.099
Mof_C 	C 	0.4221	0.6718	0.3499	-0.286
Mof_H 	H 	0.4286	0.7691	0.3314	0.108
Mof_C 	C 	0.3783	0.5637	0.3217	0.408
Mof_Lu	Lu	0.2521	0.03693	0.27145	2.912
Mof_N 	N 	0.4819	0.4483	0.4871	-0.074
Mof_N 	N 	0.2354	0.801	0.9816	-0.089
Mof_O 	O 	0.2621	0.0879	0.1779	-0.725
Mof_O 	O 	0.3454	0.6043	0.2706	-0.706
Mof_O 	O 	0.2878	0.3093	0.2751	-0.976
Mof_O 	O 	0.3316	0.1438	0.3447	-0.604
Mof_O 	O 	0.2293	0.3493	0.155	-0.709
Mof_O 	O 	0.1601	0.399	0.0541	-0.209
Mof_C 	C 	0.8277	0.2149	0.822	0.484
Mof_C 	C 	0.9508	0.0076	0.9298	-0.003
Mof_C 	C 	0.9076	0.117	0.9025	0.068
Mof_H 	H 	0.9012	0.2137	0.9214	0.033
Mof_C 	C 	0.7403	0.2969	0.6412	0.56
Mof_C 	C 	0.737	0.4972	0.5612	0.067
Mof_H 	H 	0.7638	0.5611	0.5873	0
Mof_C 	C 	0.6746	0.4609	0.4669	0.031
Mof_H 	H 	0.6584	0.5018	0.4301	-0.004
Mof_C 	C 	0.8731	0.0868	0.8474	-0.297
Mof_C 	C 	0.7184	0.3478	0.5785	-0.24
Mof_C 	C 	0.716	0.5531	0.5048	0.007
Mof_C 	C 	0.9568	0.8597	0.9048	0.046
Mof_H 	H 	0.9835	0.7814	0.9241	0.023
Mof_C 	C 	0.6775	0.2486	0.5404	0.252
Mof_C 	C 	0.6563	0.3061	0.483	-0.189
Mof_H 	H 	0.6305	0.2417	0.4561	0.098
Mof_C 	C 	0.9221	0.8282	0.8499	-0.271
Mof_H 	H 	0.9286	0.7309	0.8314	0.101
Mof_C 	C 	0.8783	0.9363	0.8217	0.39
Mof_Lu	Lu	0.7521	0.46307	0.77145	2.933
Mof_N 	N 	0.9819	0.0517	0.9871	-0.076
Mof_N 	N 	0.7354	0.699	0.4816	-0.086
Mof_O 	O 	0.7621	0.4121	0.6779	-0.725
Mof_O 	O 	0.8454	0.8957	0.7706	-0.702
Mof_O 	O 	0.7878	0.1907	0.7751	-0.971
Mof_O 	O 	0.8316	0.3562	0.8447	-0.603
Mof_O 	O 	0.7293	0.1507	0.655	-0.704
Mof_O 	O 	0.6601	0.101	0.5541	-0.208
Mof_C 	C 	0.3277	0.7149	0.822	0.489
Mof_C 	C 	0.4508	0.5076	0.9298	-0.019
Mof_C 	C 	0.4076	0.617	0.9025	0.081
Mof_H 	H 	0.4012	0.7137	0.9214	0.028
Mof_C 	C 	0.2403	0.7969	0.6412	0.56
Mof_C 	C 	0.237	0.9972	0.5612	0.061
Mof_H 	H 	0.2638	0.0611	0.5873	0.005
Mof_C 	C 	0.1746	0.9609	0.4669	0.037
Mof_H 	H 	0.1584	0.0018	0.4301	-0.008
Mof_C 	C 	0.3731	0.5868	0.8474	-0.315
Mof_C 	C 	0.2184	0.8478	0.5785	-0.239
Mof_C 	C 	0.216	0.0531	0.5048	0.008
Mof_C 	C 	0.4568	0.3597	0.9048	0.066
Mof_H 	H 	0.4835	0.2814	0.9241	0.018
Mof_C 	C 	0.1775	0.7486	0.5404	0.253
Mof_C 	C 	0.1563	0.8061	0.483	-0.192
Mof_H 	H 	0.1305	0.7417	0.4561	0.1
Mof_C 	C 	0.4221	0.3282	0.8499	-0.286
Mof_H 	H 	0.4286	0.2309	0.8314	0.108
Mof_C 	C 	0.3783	0.4363	0.8217	0.408
Mof_Lu	Lu	0.2521	0.96307	0.77145	2.911
Mof_N 	N 	0.4819	0.5517	0.9871	-0.075
Mof_N 	N 	0.2354	0.199	0.4816	-0.086
Mof_O 	O 	0.2621	0.9121	0.6779	-0.725
Mof_O 	O 	0.3454	0.3957	0.7706	-0.706
Mof_O 	O 	0.2878	0.6907	0.7751	-0.976
Mof_O 	O 	0.3316	0.8562	0.8447	-0.604
Mof_O 	O 	0.2293	0.6507	0.655	-0.709
Mof_O 	O 	0.1601	0.601	0.5541	-0.21
Mof_C 	C 	0.1723	0.2149	0.678	0.484
Mof_C 	C 	0.0492	0.0076	0.5702	-0.007
Mof_C 	C 	0.0924	0.117	0.5975	0.071
Mof_H 	H 	0.0988	0.2137	0.5786	0.033
Mof_C 	C 	0.2597	0.2969	0.8588	0.561
Mof_C 	C 	0.263	0.4972	0.9388	0.07
Mof_H 	H 	0.2362	0.5611	0.9127	-0.001
Mof_C 	C 	0.3254	0.4609	0.0331	0.034
Mof_H 	H 	0.3416	0.5018	0.0699	-0.005
Mof_C 	C 	0.1269	0.0868	0.6526	-0.299
Mof_C 	C 	0.2816	0.3478	0.9215	-0.241
Mof_C 	C 	0.284	0.5531	0.9952	0.004
Mof_C 	C 	0.0432	0.8597	0.5952	0.051
Mof_H 	H 	0.0165	0.7814	0.5759	0.022
Mof_C 	C 	0.3225	0.2486	0.9596	0.254
Mof_C 	C 	0.3437	0.3061	0.017	-0.193
Mof_H 	H 	0.3695	0.2417	0.0439	0.099
Mof_C 	C 	0.0779	0.8282	0.6501	-0.274
Mof_H 	H 	0.0714	0.7309	0.6686	0.102
Mof_C 	C 	0.1217	0.9363	0.6783	0.393
Mof_Lu	Lu	0.2479	0.46307	0.72855	2.933
Mof_N 	N 	0.0181	0.0517	0.5129	-0.076
Mof_N 	N 	0.2646	0.699	0.0184	-0.085
Mof_O 	O 	0.2379	0.4121	0.8221	-0.725
Mof_O 	O 	0.1546	0.8957	0.7294	-0.702
Mof_O 	O 	0.2122	0.1907	0.7249	-0.971
Mof_O 	O 	0.1684	0.3562	0.6553	-0.603
Mof_O 	O 	0.2707	0.1507	0.845	-0.704
Mof_O 	O 	0.3399	0.101	0.9459	-0.208
Mof_C 	C 	0.6723	0.7149	0.678	0.489
Mof_C 	C 	0.5492	0.5076	0.5702	-0.019
Mof_C 	C 	0.5924	0.617	0.5975	0.081
Mof_H 	H 	0.5988	0.7137	0.5786	0.029
Mof_C 	C 	0.7597	0.7969	0.8588	0.559
Mof_C 	C 	0.763	0.9972	0.9388	0.051
Mof_H 	H 	0.7362	0.0611	0.9127	0.009
Mof_C 	C 	0.8254	0.9609	0.0331	0.038
Mof_H 	H 	0.8416	0.0018	0.0699	-0.01
Mof_C 	C 	0.6269	0.5868	0.6526	-0.314
Mof_C 	C 	0.7816	0.8478	0.9215	-0.235
Mof_C 	C 	0.784	0.0531	0.9952	0.013
Mof_C 	C 	0.5432	0.3597	0.5952	0.066
Mof_H 	H 	0.5165	0.2814	0.5759	0.017
Mof_C 	C 	0.8225	0.7486	0.9596	0.249
Mof_C 	C 	0.8437	0.8061	0.017	-0.19
Mof_H 	H 	0.8695	0.7417	0.0439	0.099
Mof_C 	C 	0.5779	0.3282	0.6501	-0.286
Mof_H 	H 	0.5714	0.2309	0.6686	0.108
Mof_C 	C 	0.6217	0.4363	0.6783	0.408
Mof_Lu	Lu	0.7479	0.96307	0.72855	2.912
Mof_N 	N 	0.5181	0.5517	0.5129	-0.074
Mof_N 	N 	0.7646	0.199	0.0184	-0.089
Mof_O 	O 	0.7379	0.9121	0.8221	-0.725
Mof_O 	O 	0.6546	0.3957	0.7294	-0.706
Mof_O 	O 	0.7122	0.6907	0.7249	-0.976
Mof_O 	O 	0.6684	0.8562	0.6553	-0.604
Mof_O 	O 	0.7707	0.6507	0.845	-0.709
Mof_O 	O 	0.8399	0.601	0.9459	-0.209
_end
