data_functionalizedCrystal
_audit_creation_method	'EQeq! by Chris Wilmer'
_symmetry_space_group_name_H-M	'P1'
_symmetry_Int_Tables_number	1
_symmetry_cell_setting	triclinic
loop_
_symmetry_equiv_pos_as_xyz
  x,y,z
_cell_length_a	29.007
_cell_length_b	29.007
_cell_length_c	16.175
_cell_angle_alpha	90
_cell_angle_beta	90
_cell_angle_gamma	120
loop_
_atom_site_label
_atom_site_type_symbol
_atom_site_fract_x
_atom_site_fract_y
_atom_site_fract_z
_atom_site_charge
Mof_C 	C 	0.96418	0.25099	0.0899	0.624
Mof_C 	C 	0.79566	0.08822	0.0675	0.496
Mof_C 	C 	0.84626	0.1243	0.1099	-0.074
Mof_C 	C 	0.8675	0.12319	0.1847	-0.029
Mof_H 	H 	0.8524	0.0962	0.224	-0.052
Mof_C 	C 	0.91643	0.1706	0.1906	-0.02
Mof_H 	H 	0.9401	0.181	0.2347	-0.013
Mof_C 	C 	0.92295	0.19853	0.1202	-0.101
Mof_O 	O 	0.00466	0.27581	0.13881	-0.903
Mof_O 	O 	0.95907	0.26754	0.02236	-0.925
Mof_O 	O 	0.79271	0.10228	0.99322	-0.772
Mof_O 	O 	0.76119	0.04867	0.10397	-0.837
Mof_O 	O 	0.87985	0.17064	0.06943	-0.338
Mof_C 	C 	0.63085	0.58432	0.42323	0.487
Mof_C 	C 	0.46233	0.42155	0.40083	0.471
Mof_C 	C 	0.51293	0.45763	0.44323	-0.062
Mof_C 	C 	0.53417	0.45652	0.51803	-0.032
Mof_H 	H 	0.51907	0.42953	0.55733	-0.046
Mof_C 	C 	0.5831	0.50393	0.52393	-0.043
Mof_H 	H 	0.60677	0.51433	0.56803	-0.029
Mof_C 	C 	0.58962	0.53186	0.45353	-0.077
Mof_O 	O 	0.67133	0.60914	0.47214	-0.829
Mof_O 	O 	0.62574	0.60087	0.35569	-0.877
Mof_O 	O 	0.45938	0.43561	0.32655	-0.749
Mof_O 	O 	0.42786	0.382	0.4373	-0.749
Mof_O 	O 	0.54652	0.50397	0.40276	-0.349
Mof_C 	C 	0.29751	0.91766	0.75657	0.497
Mof_C 	C 	0.12899	0.75489	0.73417	0.459
Mof_C 	C 	0.17959	0.79097	0.77657	-0.055
Mof_C 	C 	0.20083	0.78986	0.85137	-0.033
Mof_H 	H 	0.18573	0.76287	0.89067	-0.041
Mof_C 	C 	0.24976	0.83727	0.85727	-0.042
Mof_H 	H 	0.27343	0.84767	0.90137	-0.02
Mof_C 	C 	0.25628	0.8652	0.78687	-0.072
Mof_O 	O 	0.33799	0.94248	0.80548	-0.752
Mof_O 	O 	0.2924	0.93421	0.68903	-0.903
Mof_O 	O 	0.12604	0.76895	0.65989	-0.74
Mof_O 	O 	0.09452	0.71534	0.77064	-0.708
Mof_O 	O 	0.21318	0.83731	0.7361	-0.349
Mof_C 	C 	0.74901	0.71319	0.0899	0.489
Mof_C 	C 	0.91178	0.70744	0.0675	0.453
Mof_C 	C 	0.8757	0.72196	0.1099	-0.041
Mof_C 	C 	0.87681	0.74431	0.1847	-0.038
Mof_H 	H 	0.9038	0.7562	0.224	-0.025
Mof_C 	C 	0.8294	0.74583	0.1906	-0.031
Mof_H 	H 	0.819	0.7591	0.2347	-0.024
Mof_C 	C 	0.80147	0.72442	0.1202	-0.075
Mof_O 	O 	0.72419	0.72885	0.13881	-0.827
Mof_O 	O 	0.73246	0.69153	0.02236	-0.877
Mof_O 	O 	0.89772	0.69043	0.99322	-0.729
Mof_O 	O 	0.95133	0.71252	0.10397	-0.656
Mof_O 	O 	0.82936	0.70921	0.06943	-0.349
Mof_C 	C 	0.41568	0.04652	0.42323	0.47
Mof_C 	C 	0.57845	0.04077	0.40083	0.446
Mof_C 	C 	0.54237	0.05529	0.44323	-0.065
Mof_C 	C 	0.54348	0.07764	0.51803	-0.048
Mof_H 	H 	0.57047	0.08953	0.55733	-0.041
Mof_C 	C 	0.49607	0.07916	0.52393	-0.043
Mof_H 	H 	0.48567	0.09243	0.56803	-0.038
Mof_C 	C 	0.46814	0.05775	0.45353	-0.094
Mof_O 	O 	0.39086	0.06218	0.47214	-0.88
Mof_O 	O 	0.39913	0.02486	0.35569	-0.846
Mof_O 	O 	0.56439	0.02376	0.32655	-0.742
Mof_O 	O 	0.618	0.04585	0.4373	-0.717
Mof_O 	O 	0.49603	0.04254	0.40276	-0.34
Mof_C 	C 	0.08234	0.37986	0.75657	0.476
Mof_C 	C 	0.24511	0.37411	0.73417	0.471
Mof_C 	C 	0.20903	0.38863	0.77657	-0.061
Mof_C 	C 	0.21014	0.41098	0.85137	-0.033
Mof_H 	H 	0.23713	0.42287	0.89067	-0.045
Mof_C 	C 	0.16273	0.4125	0.85727	-0.041
Mof_H 	H 	0.15233	0.42577	0.90137	-0.034
Mof_C 	C 	0.1348	0.39109	0.78687	-0.08
Mof_O 	O 	0.05752	0.39552	0.80548	-0.885
Mof_O 	O 	0.06579	0.3582	0.68903	-0.846
Mof_O 	O 	0.23105	0.3571	0.65989	-0.749
Mof_O 	O 	0.28466	0.37919	0.77064	-0.749
Mof_O 	O 	0.16269	0.37588	0.7361	-0.349
Mof_C 	C 	0.28681	0.03582	0.0899	0.34
Mof_C 	C 	0.29256	0.20434	0.0675	0.472
Mof_C 	C 	0.27804	0.15374	0.1099	-0.072
Mof_C 	C 	0.25569	0.1325	0.1847	-0.02
Mof_H 	H 	0.2438	0.1476	0.224	-0.061
Mof_C 	C 	0.25417	0.08357	0.1906	-0.085
Mof_H 	H 	0.2409	0.0599	0.2347	-0.033
Mof_C 	C 	0.27558	0.07705	0.1202	-0.039
Mof_O 	O 	0.27115	0.99534	0.13881	-0.676
Mof_O 	O 	0.30847	0.04093	0.02236	-0.813
Mof_O 	O 	0.30957	0.20729	0.99322	-0.752
Mof_O 	O 	0.28748	0.23881	0.10397	-0.755
Mof_O 	O 	0.29079	0.12015	0.06943	-0.358
Mof_C 	C 	0.95348	0.36915	0.42323	0.463
Mof_C 	C 	0.95923	0.53767	0.40083	0.484
Mof_C 	C 	0.94471	0.48707	0.44323	-0.047
Mof_C 	C 	0.92236	0.46583	0.51803	-0.016
Mof_H 	H 	0.91047	0.48093	0.55733	-0.029
Mof_C 	C 	0.92084	0.4169	0.52393	-0.04
Mof_H 	H 	0.90757	0.39323	0.56803	-0.009
Mof_C 	C 	0.94225	0.41038	0.45353	-0.045
Mof_O 	O 	0.93782	0.32867	0.47214	-0.755
Mof_O 	O 	0.97514	0.37426	0.35569	-0.756
Mof_O 	O 	0.97624	0.54062	0.32655	-0.677
Mof_O 	O 	0.95415	0.57214	0.4373	-0.768
Mof_O 	O 	0.95746	0.45348	0.40276	-0.304
Mof_C 	C 	0.62014	0.70249	0.75657	0.487
Mof_C 	C 	0.62589	0.87101	0.73417	0.45
Mof_C 	C 	0.61137	0.82041	0.77657	-0.051
Mof_C 	C 	0.58902	0.79917	0.85137	-0.039
Mof_H 	H 	0.57713	0.81427	0.89067	-0.041
Mof_C 	C 	0.5875	0.75024	0.85727	-0.039
Mof_H 	H 	0.57423	0.72657	0.90137	-0.03
Mof_C 	C 	0.60891	0.74372	0.78687	-0.078
Mof_O 	O 	0.60448	0.66201	0.80548	-0.829
Mof_O 	O 	0.6418	0.7076	0.68903	-0.877
Mof_O 	O 	0.6429	0.87396	0.65989	-0.735
Mof_O 	O 	0.62081	0.90548	0.77064	-0.675
Mof_O 	O 	0.62412	0.78682	0.7361	-0.351
Mof_C 	C 	0.25099	0.96418	0.4101	0.622
Mof_C 	C 	0.08822	0.79566	0.4325	0.492
Mof_C 	C 	0.1243	0.84626	0.3901	-0.075
Mof_C 	C 	0.12319	0.8675	0.3153	-0.031
Mof_H 	H 	0.0962	0.8524	0.276	-0.054
Mof_C 	C 	0.1706	0.91643	0.3094	-0.021
Mof_H 	H 	0.181	0.9401	0.2653	-0.015
Mof_C 	C 	0.19853	0.92295	0.3798	-0.101
Mof_O 	O 	0.27581	0.00466	0.36119	-0.903
Mof_O 	O 	0.26754	0.95907	0.47764	-0.928
Mof_O 	O 	0.10228	0.79271	0.50678	-0.769
Mof_O 	O 	0.04867	0.76119	0.39603	-0.839
Mof_O 	O 	0.17064	0.87985	0.43057	-0.339
Mof_C 	C 	0.91766	0.29751	0.74343	0.496
Mof_C 	C 	0.75489	0.12899	0.76583	0.459
Mof_C 	C 	0.79097	0.17959	0.72343	-0.055
Mof_C 	C 	0.78986	0.20083	0.64863	-0.034
Mof_H 	H 	0.76287	0.18573	0.60933	-0.042
Mof_C 	C 	0.83727	0.24976	0.64273	-0.042
Mof_H 	H 	0.84767	0.27343	0.59863	-0.021
Mof_C 	C 	0.8652	0.25628	0.71313	-0.072
Mof_O 	O 	0.94248	0.33799	0.69452	-0.753
Mof_O 	O 	0.93421	0.2924	0.81097	-0.901
Mof_O 	O 	0.76895	0.12604	0.84011	-0.739
Mof_O 	O 	0.71534	0.09452	0.72936	-0.707
Mof_O 	O 	0.83731	0.21318	0.7639	-0.349
Mof_C 	C 	0.58432	0.63085	0.07677	0.487
Mof_C 	C 	0.42155	0.46233	0.09917	0.471
Mof_C 	C 	0.45763	0.51293	0.05677	-0.062
Mof_C 	C 	0.45652	0.53417	0.98197	-0.032
Mof_H 	H 	0.42953	0.51907	0.94267	-0.046
Mof_C 	C 	0.50393	0.5831	0.97607	-0.042
Mof_H 	H 	0.51433	0.60677	0.93197	-0.029
Mof_C 	C 	0.53186	0.58962	0.04647	-0.078
Mof_O 	O 	0.60914	0.67133	0.02786	-0.83
Mof_O 	O 	0.60087	0.62574	0.14431	-0.878
Mof_O 	O 	0.43561	0.45938	0.17345	-0.749
Mof_O 	O 	0.382	0.42786	0.0627	-0.75
Mof_O 	O 	0.50397	0.54652	0.09724	-0.349
Mof_C 	C 	0.71319	0.74901	0.4101	0.49
Mof_C 	C 	0.70744	0.91178	0.4325	0.452
Mof_C 	C 	0.72196	0.8757	0.3901	-0.04
Mof_C 	C 	0.74431	0.87681	0.3153	-0.038
Mof_H 	H 	0.7562	0.9038	0.276	-0.026
Mof_C 	C 	0.74583	0.8294	0.3094	-0.031
Mof_H 	H 	0.7591	0.819	0.2653	-0.024
Mof_C 	C 	0.72442	0.80147	0.3798	-0.075
Mof_O 	O 	0.72885	0.72419	0.36119	-0.826
Mof_O 	O 	0.69153	0.73246	0.47764	-0.876
Mof_O 	O 	0.69043	0.89772	0.50678	-0.727
Mof_O 	O 	0.71252	0.95133	0.39603	-0.657
Mof_O 	O 	0.70921	0.82936	0.43057	-0.35
Mof_C 	C 	0.37986	0.08234	0.74343	0.476
Mof_C 	C 	0.37411	0.24511	0.76583	0.471
Mof_C 	C 	0.38863	0.20903	0.72343	-0.061
Mof_C 	C 	0.41098	0.21014	0.64863	-0.033
Mof_H 	H 	0.42287	0.23713	0.60933	-0.045
Mof_C 	C 	0.4125	0.16273	0.64273	-0.04
Mof_H 	H 	0.42577	0.15233	0.59863	-0.034
Mof_C 	C 	0.39109	0.1348	0.71313	-0.081
Mof_O 	O 	0.39552	0.05752	0.69452	-0.888
Mof_O 	O 	0.3582	0.06579	0.81097	-0.846
Mof_O 	O 	0.3571	0.23105	0.84011	-0.749
Mof_O 	O 	0.37919	0.28466	0.72936	-0.749
Mof_O 	O 	0.37588	0.16269	0.7639	-0.349
Mof_C 	C 	0.04652	0.41568	0.07677	0.47
Mof_C 	C 	0.04077	0.57845	0.09917	0.446
Mof_C 	C 	0.05529	0.54237	0.05677	-0.069
Mof_C 	C 	0.07764	0.54348	0.98197	-0.044
Mof_H 	H 	0.08953	0.57047	0.94267	-0.042
Mof_C 	C 	0.07916	0.49607	0.97607	-0.041
Mof_H 	H 	0.09243	0.48567	0.93197	-0.038
Mof_C 	C 	0.05775	0.46814	0.04647	-0.097
Mof_O 	O 	0.06218	0.39086	0.02786	-0.879
Mof_O 	O 	0.02486	0.39913	0.14431	-0.845
Mof_O 	O 	0.02376	0.56439	0.17345	-0.742
Mof_O 	O 	0.04585	0.618	0.0627	-0.717
Mof_O 	O 	0.04254	0.49603	0.09724	-0.339
Mof_C 	C 	0.03582	0.28681	0.4101	0.335
Mof_C 	C 	0.20434	0.29256	0.4325	0.471
Mof_C 	C 	0.15374	0.27804	0.3901	-0.072
Mof_C 	C 	0.1325	0.25569	0.3153	-0.02
Mof_H 	H 	0.1476	0.2438	0.276	-0.061
Mof_C 	C 	0.08357	0.25417	0.3094	-0.086
Mof_H 	H 	0.0599	0.2409	0.2653	-0.033
Mof_C 	C 	0.07705	0.27558	0.3798	-0.038
Mof_O 	O 	0.99534	0.27115	0.36119	-0.671
Mof_O 	O 	0.04093	0.30847	0.47764	-0.813
Mof_O 	O 	0.20729	0.30957	0.50678	-0.752
Mof_O 	O 	0.23881	0.28748	0.39603	-0.754
Mof_O 	O 	0.12015	0.29079	0.43057	-0.359
Mof_C 	C 	0.70249	0.62014	0.74343	0.487
Mof_C 	C 	0.87101	0.62589	0.76583	0.451
Mof_C 	C 	0.82041	0.61137	0.72343	-0.051
Mof_C 	C 	0.79917	0.58902	0.64863	-0.039
Mof_H 	H 	0.81427	0.57713	0.60933	-0.042
Mof_C 	C 	0.75024	0.5875	0.64273	-0.039
Mof_H 	H 	0.72657	0.57423	0.59863	-0.03
Mof_C 	C 	0.74372	0.60891	0.71313	-0.078
Mof_O 	O 	0.66201	0.60448	0.69452	-0.829
Mof_O 	O 	0.7076	0.6418	0.81097	-0.877
Mof_O 	O 	0.87396	0.6429	0.84011	-0.735
Mof_O 	O 	0.90548	0.62081	0.72936	-0.678
Mof_O 	O 	0.78682	0.62412	0.7639	-0.351
Mof_C 	C 	0.36915	0.95348	0.07677	0.465
Mof_C 	C 	0.53767	0.95923	0.09917	0.484
Mof_C 	C 	0.48707	0.94471	0.05677	-0.051
Mof_C 	C 	0.46583	0.92236	0.98197	-0.014
Mof_H 	H 	0.48093	0.91047	0.94267	-0.029
Mof_C 	C 	0.4169	0.92084	0.97607	-0.036
Mof_H 	H 	0.39323	0.90757	0.93197	-0.01
Mof_C 	C 	0.41038	0.94225	0.04647	-0.049
Mof_O 	O 	0.32867	0.93782	0.02786	-0.757
Mof_O 	O 	0.37426	0.97514	0.14431	-0.76
Mof_O 	O 	0.54062	0.97624	0.17345	-0.679
Mof_O 	O 	0.57214	0.95415	0.0627	-0.768
Mof_O 	O 	0.45348	0.95746	0.09724	-0.304
Mof_C 	C 	0.03582	0.74901	0.9101	0.344
Mof_C 	C 	0.20434	0.91178	0.9325	0.456
Mof_C 	C 	0.15374	0.8757	0.8901	-0.051
Mof_C 	C 	0.1325	0.87681	0.8153	-0.025
Mof_H 	H 	0.1476	0.9038	0.776	-0.039
Mof_C 	C 	0.08357	0.8294	0.8094	-0.073
Mof_H 	H 	0.0599	0.819	0.7653	-0.028
Mof_C 	C 	0.07705	0.80147	0.8798	-0.037
Mof_O 	O 	0.99534	0.72419	0.86119	-0.676
Mof_O 	O 	0.04093	0.73246	0.97764	-0.811
Mof_O 	O 	0.20729	0.89772	0.00678	-0.733
Mof_O 	O 	0.23881	0.95133	0.89603	-0.66
Mof_O 	O 	0.12015	0.82936	0.93057	-0.357
Mof_C 	C 	0.70249	0.08234	0.24343	0.477
Mof_C 	C 	0.87101	0.24511	0.26583	0.45
Mof_C 	C 	0.82041	0.20903	0.22343	-0.049
Mof_C 	C 	0.79917	0.21014	0.14863	-0.04
Mof_H 	H 	0.81427	0.23713	0.10933	-0.039
Mof_C 	C 	0.75024	0.16273	0.14273	-0.037
Mof_H 	H 	0.72657	0.15233	0.09863	-0.035
Mof_C 	C 	0.74372	0.1348	0.21313	-0.081
Mof_O 	O 	0.66201	0.05752	0.19452	-0.885
Mof_O 	O 	0.7076	0.06579	0.31097	-0.846
Mof_O 	O 	0.87396	0.23105	0.34011	-0.734
Mof_O 	O 	0.90548	0.28466	0.22936	-0.674
Mof_O 	O 	0.78682	0.16269	0.2639	-0.351
Mof_C 	C 	0.36915	0.41568	0.57677	0.487
Mof_C 	C 	0.53767	0.57845	0.59917	0.472
Mof_C 	C 	0.48707	0.54237	0.55677	-0.062
Mof_C 	C 	0.46583	0.54348	0.48197	-0.032
Mof_H 	H 	0.48093	0.57047	0.44267	-0.046
Mof_C 	C 	0.4169	0.49607	0.47607	-0.043
Mof_H 	H 	0.39323	0.48567	0.43197	-0.028
Mof_C 	C 	0.41038	0.46814	0.54647	-0.077
Mof_O 	O 	0.32867	0.39086	0.52786	-0.828
Mof_O 	O 	0.37426	0.39913	0.64431	-0.877
Mof_O 	O 	0.54062	0.56439	0.67345	-0.75
Mof_O 	O 	0.57214	0.618	0.5627	-0.751
Mof_O 	O 	0.45348	0.49603	0.59724	-0.349
Mof_C 	C 	0.25099	0.28681	0.9101	0.484
Mof_C 	C 	0.08822	0.29256	0.9325	0.491
Mof_C 	C 	0.1243	0.27804	0.8901	-0.083
Mof_C 	C 	0.12319	0.25569	0.8153	-0.026
Mof_H 	H 	0.0962	0.2438	0.776	-0.066
Mof_C 	C 	0.1706	0.25417	0.8094	-0.054
Mof_H 	H 	0.181	0.2409	0.7653	-0.033
Mof_C 	C 	0.19853	0.27558	0.8798	-0.08
Mof_O 	O 	0.27581	0.27115	0.86119	-0.831
Mof_O 	O 	0.26754	0.30847	0.97764	-0.877
Mof_O 	O 	0.10228	0.30957	0.00678	-0.772
Mof_O 	O 	0.04867	0.28748	0.89603	-0.841
Mof_O 	O 	0.17064	0.29079	0.93057	-0.348
Mof_C 	C 	0.91766	0.62014	0.24343	0.496
Mof_C 	C 	0.75489	0.62589	0.26583	0.472
Mof_C 	C 	0.79097	0.61137	0.22343	-0.063
Mof_C 	C 	0.78986	0.58902	0.14863	-0.029
Mof_H 	H 	0.76287	0.57713	0.10933	-0.047
Mof_C 	C 	0.83727	0.5875	0.14273	-0.046
Mof_H 	H 	0.84767	0.57423	0.09863	-0.02
Mof_C 	C 	0.8652	0.60891	0.21313	-0.071
Mof_O 	O 	0.94248	0.60448	0.19452	-0.752
Mof_O 	O 	0.93421	0.6418	0.31097	-0.903
Mof_O 	O 	0.76895	0.6429	0.34011	-0.75
Mof_O 	O 	0.71534	0.62081	0.22936	-0.751
Mof_O 	O 	0.83731	0.62412	0.2639	-0.35
Mof_C 	C 	0.58432	0.95348	0.57677	0.463
Mof_C 	C 	0.42155	0.95923	0.59917	0.484
Mof_C 	C 	0.45763	0.94471	0.55677	-0.047
Mof_C 	C 	0.45652	0.92236	0.48197	-0.016
Mof_H 	H 	0.42953	0.91047	0.44267	-0.029
Mof_C 	C 	0.50393	0.92084	0.47607	-0.04
Mof_H 	H 	0.51433	0.90757	0.43197	-0.009
Mof_C 	C 	0.53186	0.94225	0.54647	-0.045
Mof_O 	O 	0.60914	0.93782	0.52786	-0.756
Mof_O 	O 	0.60087	0.97514	0.64431	-0.757
Mof_O 	O 	0.43561	0.97624	0.67345	-0.677
Mof_O 	O 	0.382	0.95415	0.5627	-0.768
Mof_O 	O 	0.50397	0.95746	0.59724	-0.304
Mof_C 	C 	0.71319	0.96418	0.9101	0.624
Mof_C 	C 	0.70744	0.79566	0.9325	0.473
Mof_C 	C 	0.72196	0.84626	0.8901	-0.054
Mof_C 	C 	0.74431	0.8675	0.8153	-0.037
Mof_H 	H 	0.7562	0.8524	0.776	-0.033
Mof_C 	C 	0.74583	0.91643	0.8094	-0.01
Mof_H 	H 	0.7591	0.9401	0.7653	-0.01
Mof_C 	C 	0.72442	0.92295	0.8798	-0.099
Mof_O 	O 	0.72885	0.00466	0.86119	-0.901
Mof_O 	O 	0.69153	0.95907	0.97764	-0.926
Mof_O 	O 	0.69043	0.79271	0.00678	-0.748
Mof_O 	O 	0.71252	0.76119	0.89603	-0.746
Mof_O 	O 	0.70921	0.87985	0.93057	-0.341
Mof_C 	C 	0.37986	0.29751	0.24343	0.487
Mof_C 	C 	0.37411	0.12899	0.26583	0.459
Mof_C 	C 	0.38863	0.17959	0.22343	-0.054
Mof_C 	C 	0.41098	0.20083	0.14863	-0.036
Mof_H 	H 	0.42287	0.18573	0.10933	-0.041
Mof_C 	C 	0.4125	0.24976	0.14273	-0.039
Mof_H 	H 	0.42577	0.27343	0.09863	-0.029
Mof_C 	C 	0.39109	0.25628	0.21313	-0.078
Mof_O 	O 	0.39552	0.33799	0.19452	-0.828
Mof_O 	O 	0.3582	0.2924	0.31097	-0.877
Mof_O 	O 	0.3571	0.12604	0.34011	-0.739
Mof_O 	O 	0.37919	0.09452	0.22936	-0.708
Mof_O 	O 	0.37588	0.21318	0.2639	-0.349
Mof_C 	C 	0.04652	0.63085	0.57677	0.47
Mof_C 	C 	0.04077	0.46233	0.59917	0.445
Mof_C 	C 	0.05529	0.51293	0.55677	-0.065
Mof_C 	C 	0.07764	0.53417	0.48197	-0.048
Mof_H 	H 	0.08953	0.51907	0.44267	-0.041
Mof_C 	C 	0.07916	0.5831	0.47607	-0.043
Mof_H 	H 	0.09243	0.60677	0.43197	-0.038
Mof_C 	C 	0.05775	0.58962	0.54647	-0.094
Mof_O 	O 	0.06218	0.67133	0.52786	-0.88
Mof_O 	O 	0.02486	0.62574	0.64431	-0.847
Mof_O 	O 	0.02376	0.45938	0.67345	-0.742
Mof_O 	O 	0.04585	0.42786	0.5627	-0.716
Mof_O 	O 	0.04254	0.54652	0.59724	-0.34
Mof_C 	C 	0.74901	0.03582	0.5899	0.34
Mof_C 	C 	0.91178	0.20434	0.5675	0.452
Mof_C 	C 	0.8757	0.15374	0.6099	-0.05
Mof_C 	C 	0.87681	0.1325	0.6847	-0.026
Mof_H 	H 	0.9038	0.1476	0.724	-0.04
Mof_C 	C 	0.8294	0.08357	0.6906	-0.074
Mof_H 	H 	0.819	0.0599	0.7347	-0.029
Mof_C 	C 	0.80147	0.07705	0.6202	-0.036
Mof_O 	O 	0.72419	0.99534	0.63881	-0.671
Mof_O 	O 	0.73246	0.04093	0.52236	-0.813
Mof_O 	O 	0.89772	0.20729	0.49322	-0.729
Mof_O 	O 	0.95133	0.23881	0.60397	-0.661
Mof_O 	O 	0.82936	0.12015	0.56943	-0.359
Mof_C 	C 	0.41568	0.36915	0.92323	0.487
Mof_C 	C 	0.57845	0.53767	0.90083	0.472
Mof_C 	C 	0.54237	0.48707	0.94323	-0.063
Mof_C 	C 	0.54348	0.46583	0.01803	-0.032
Mof_H 	H 	0.57047	0.48093	0.05733	-0.046
Mof_C 	C 	0.49607	0.4169	0.02393	-0.042
Mof_H 	H 	0.48567	0.39323	0.06803	-0.028
Mof_C 	C 	0.46814	0.41038	0.95353	-0.078
Mof_O 	O 	0.39086	0.32867	0.97214	-0.828
Mof_O 	O 	0.39913	0.37426	0.85569	-0.877
Mof_O 	O 	0.56439	0.54062	0.82655	-0.75
Mof_O 	O 	0.618	0.57214	0.9373	-0.751
Mof_O 	O 	0.49603	0.45348	0.90276	-0.349
Mof_C 	C 	0.08234	0.70249	0.25657	0.477
Mof_C 	C 	0.24511	0.87101	0.23417	0.451
Mof_C 	C 	0.20903	0.82041	0.27657	-0.05
Mof_C 	C 	0.21014	0.79917	0.35137	-0.04
Mof_H 	H 	0.23713	0.81427	0.39067	-0.04
Mof_C 	C 	0.16273	0.75024	0.35727	-0.037
Mof_H 	H 	0.15233	0.72657	0.40137	-0.036
Mof_C 	C 	0.1348	0.74372	0.28687	-0.081
Mof_O 	O 	0.05752	0.66201	0.30548	-0.888
Mof_O 	O 	0.06579	0.7076	0.18903	-0.845
Mof_O 	O 	0.23105	0.87396	0.15989	-0.734
Mof_O 	O 	0.28466	0.90548	0.27064	-0.676
Mof_O 	O 	0.16269	0.78682	0.2361	-0.35
Mof_C 	C 	0.28681	0.25099	0.5899	0.484
Mof_C 	C 	0.29256	0.08822	0.5675	0.491
Mof_C 	C 	0.27804	0.1243	0.6099	-0.084
Mof_C 	C 	0.25569	0.12319	0.6847	-0.026
Mof_H 	H 	0.2438	0.0962	0.724	-0.067
Mof_C 	C 	0.25417	0.1706	0.6906	-0.054
Mof_H 	H 	0.2409	0.181	0.7347	-0.033
Mof_C 	C 	0.27558	0.19853	0.6202	-0.08
Mof_O 	O 	0.27115	0.27581	0.63881	-0.831
Mof_O 	O 	0.30847	0.26754	0.52236	-0.877
Mof_O 	O 	0.30957	0.10228	0.49322	-0.771
Mof_O 	O 	0.28748	0.04867	0.60397	-0.844
Mof_O 	O 	0.29079	0.17064	0.56943	-0.348
Mof_C 	C 	0.95348	0.58432	0.92323	0.464
Mof_C 	C 	0.95923	0.42155	0.90083	0.484
Mof_C 	C 	0.94471	0.45763	0.94323	-0.051
Mof_C 	C 	0.92236	0.45652	0.01803	-0.014
Mof_H 	H 	0.91047	0.42953	0.05733	-0.029
Mof_C 	C 	0.92084	0.50393	0.02393	-0.037
Mof_H 	H 	0.90757	0.51433	0.06803	-0.01
Mof_C 	C 	0.94225	0.53186	0.95353	-0.049
Mof_O 	O 	0.93782	0.60914	0.97214	-0.758
Mof_O 	O 	0.97514	0.60087	0.85569	-0.76
Mof_O 	O 	0.97624	0.43561	0.82655	-0.679
Mof_O 	O 	0.95415	0.382	0.9373	-0.768
Mof_O 	O 	0.95746	0.50397	0.90276	-0.304
Mof_C 	C 	0.62014	0.91766	0.25657	0.495
Mof_C 	C 	0.62589	0.75489	0.23417	0.472
Mof_C 	C 	0.61137	0.79097	0.27657	-0.063
Mof_C 	C 	0.58902	0.78986	0.35137	-0.029
Mof_H 	H 	0.57713	0.76287	0.39067	-0.047
Mof_C 	C 	0.5875	0.83727	0.35727	-0.046
Mof_H 	H 	0.57423	0.84767	0.40137	-0.021
Mof_C 	C 	0.60891	0.8652	0.28687	-0.071
Mof_O 	O 	0.60448	0.94248	0.30548	-0.754
Mof_O 	O 	0.6418	0.93421	0.18903	-0.902
Mof_O 	O 	0.6429	0.76895	0.15989	-0.749
Mof_O 	O 	0.62081	0.71534	0.27064	-0.751
Mof_O 	O 	0.62412	0.83731	0.2361	-0.35
Mof_C 	C 	0.96418	0.71319	0.5899	0.622
Mof_C 	C 	0.79566	0.70744	0.5675	0.473
Mof_C 	C 	0.84626	0.72196	0.6099	-0.053
Mof_C 	C 	0.8675	0.74431	0.6847	-0.037
Mof_H 	H 	0.8524	0.7562	0.724	-0.033
Mof_C 	C 	0.91643	0.74583	0.6906	-0.01
Mof_H 	H 	0.9401	0.7591	0.7347	-0.011
Mof_C 	C 	0.92295	0.72442	0.6202	-0.098
Mof_O 	O 	0.00466	0.72885	0.63881	-0.9
Mof_O 	O 	0.95907	0.69153	0.52236	-0.927
Mof_O 	O 	0.79271	0.69043	0.49322	-0.747
Mof_O 	O 	0.76119	0.71252	0.60397	-0.746
Mof_O 	O 	0.87985	0.70921	0.56943	-0.341
Mof_C 	C 	0.63085	0.04652	0.92323	0.471
Mof_C 	C 	0.46233	0.04077	0.90083	0.446
Mof_C 	C 	0.51293	0.05529	0.94323	-0.068
Mof_C 	C 	0.53417	0.07764	0.01803	-0.045
Mof_H 	H 	0.51907	0.08953	0.05733	-0.041
Mof_C 	C 	0.5831	0.07916	0.02393	-0.04
Mof_H 	H 	0.60677	0.09243	0.06803	-0.038
Mof_C 	C 	0.58962	0.05775	0.95353	-0.098
Mof_O 	O 	0.67133	0.06218	0.97214	-0.88
Mof_O 	O 	0.62574	0.02486	0.85569	-0.846
Mof_O 	O 	0.45938	0.02376	0.82655	-0.742
Mof_O 	O 	0.42786	0.04585	0.9373	-0.717
Mof_O 	O 	0.54652	0.04254	0.90276	-0.339
Mof_C 	C 	0.29751	0.37986	0.25657	0.487
Mof_C 	C 	0.12899	0.37411	0.23417	0.458
Mof_C 	C 	0.17959	0.38863	0.27657	-0.054
Mof_C 	C 	0.20083	0.41098	0.35137	-0.036
Mof_H 	H 	0.18573	0.42287	0.39067	-0.041
Mof_C 	C 	0.24976	0.4125	0.35727	-0.039
Mof_H 	H 	0.27343	0.42577	0.40137	-0.029
Mof_C 	C 	0.25628	0.39109	0.28687	-0.078
Mof_O 	O 	0.33799	0.39552	0.30548	-0.828
Mof_O 	O 	0.2924	0.3582	0.18903	-0.877
Mof_O 	O 	0.12604	0.3571	0.15989	-0.739
Mof_O 	O 	0.09452	0.37919	0.27064	-0.707
Mof_O 	O 	0.21318	0.37588	0.2361	-0.348
Mof_Na	Na	0.99836	0.33169	0.91667	3.208
Mof_Na	Na	0.85426	0.1876	0.91667	1.768
Mof_Na	Na	0.66502	0.66502	0.25	2.829
Mof_Na	Na	0.52093	0.52093	0.25	1.781
Mof_Na	Na	0.66831	0.66667	0.91667	2.83
Mof_Na	Na	0.8124	0.66667	0.91667	1.791
Mof_Na	Na	0.33498	2.14176e-33	0.25	2.48
Mof_Na	Na	0.47907	2.14176e-33	0.25	1.554
Mof_Na	Na	0.33333	0.00164	0.91667	2.439
Mof_Na	Na	0.33333	0.14574	0.91667	1.771
Mof_Na	Na	-3.63635e-17	0.33498	0.25	2.468
Mof_Na	Na	-1.70723e-17	0.47907	0.25	1.547
Mof_Na	Na	0.33169	0.99836	0.58333	3.226
Mof_Na	Na	0.1876	0.85426	0.58333	1.776
Mof_Na	Na	0.66667	0.66831	0.58333	2.831
Mof_Na	Na	0.66667	0.8124	0.58333	1.794
Mof_Na	Na	0.00164	0.33333	0.58333	2.442
Mof_Na	Na	0.14574	0.33333	0.58333	1.773
Mof_Na	Na	0.00164	0.66831	0.08333	2.438
Mof_Na	Na	0.14574	0.8124	0.08333	1.78
Mof_Na	Na	0.33169	0.33333	0.08333	2.826
Mof_Na	Na	0.1876	0.33333	0.08333	1.762
Mof_Na	Na	0.66667	0.99836	0.08333	3.207
Mof_Na	Na	0.66667	0.85426	0.08333	1.789
Mof_Na	Na	0.66831	0.00164	0.41667	2.446
Mof_Na	Na	0.8124	0.14574	0.41667	1.787
Mof_Na	Na	0.33498	0.33498	0.75	2.827
Mof_Na	Na	0.47907	0.47907	0.75	1.783
Mof_Na	Na	0.33333	0.33169	0.41667	2.826
Mof_Na	Na	0.33333	0.1876	0.41667	1.763
Mof_Na	Na	-8.97994e-17	0.66502	0.75	2.482
Mof_Na	Na	2.59479e-17	0.52093	0.75	1.554
Mof_Na	Na	0.99836	0.66667	0.41667	3.221
Mof_Na	Na	0.85426	0.66667	0.41667	1.793
Mof_Na	Na	0.66502	0	0.75	2.47
Mof_Na	Na	0.52093	0	0.75	1.546
Mof_Zn	Zn	0.06648	0.33333	0.08333	1.157
Mof_Zn	Zn	0.66667	0.73314	0.08333	1.162
Mof_Zn	Zn	0.33333	0.06648	0.41667	1.157
Mof_Zn	Zn	0.26686	0.93352	0.08333	1.174
Mof_Zn	Zn	0.60019	0.60019	0.75	1.161
Mof_Zn	Zn	2.59479e-17	0.39981	0.75	1.133
Mof_Zn	Zn	0.73314	0.66667	0.41667	1.162
Mof_Zn	Zn	0.39981	0	0.75	1.132
Mof_Zn	Zn	0.93352	0.26686	0.41667	1.175
Mof_Zn	Zn	0.93352	0.66667	0.91667	1.174
Mof_Zn	Zn	0.60019	2.14176e-33	0.25	1.133
Mof_Zn	Zn	0.26686	0.33333	0.58333	1.161
Mof_Zn	Zn	0.33333	0.26686	0.91667	1.161
Mof_Zn	Zn	-1.70723e-17	0.60019	0.25	1.132
Mof_Zn	Zn	0.73314	0.06648	0.91667	1.157
Mof_Zn	Zn	0.39981	0.39981	0.25	1.162
Mof_Zn	Zn	0.66667	0.93352	0.58333	1.175
Mof_Zn	Zn	0.06648	0.73314	0.58333	1.157
_end
