data_functionalizedCrystal
_audit_creation_method	'EQeq! by Chris Wilmer'
_symmetry_space_group_name_H-M	'P1'
_symmetry_Int_Tables_number	1
_symmetry_cell_setting	triclinic
loop_
_symmetry_equiv_pos_as_xyz
  x,y,z
_cell_length_a	8.9114
_cell_length_b	11.39
_cell_length_c	13.2137
_cell_angle_alpha	115.53
_cell_angle_beta	92.9955
_cell_angle_gamma	90
loop_
_atom_site_label
_atom_site_type_symbol
_atom_site_fract_x
_atom_site_fract_y
_atom_site_fract_z
_atom_site_charge
Mof_Cu	Cu	-0	0	-0	0.808
Mof_Cu	Cu	0.62777	0.03032	0.06064	0.878
Mof_Cu	Cu	0.37223	0.96968	0.93936	0.95
Mof_H 	H 	0.9507	0.1546	0.447	0.034
Mof_H 	H 	0.7558	0.6617	0.7666	0.19
Mof_H 	H 	0.6818	0.5971	0.8358	0.188
Mof_H 	H 	0.456	0.5617	0.7094	0.032
Mof_H 	H 	0.5599	0.5954	0.6326	0.028
Mof_H 	H 	0.7501	0.0858	0.3088	0.191
Mof_H 	H 	0.0493	0.7076	0.553	0.015
Mof_H 	H 	0.2442	0.8951	0.2334	0.173
Mof_H 	H 	0.3182	0.7613	0.1642	0.158
Mof_H 	H 	0.544	0.8523	0.2906	0.048
Mof_H 	H 	0.4401	0.9628	0.3674	0.047
Mof_H 	H 	0.2499	0.777	0.6912	0.189
Mof_H 	H 	0.0493	0.8454	0.553	0.022
Mof_H 	H 	0.2442	0.3383	0.2334	0.163
Mof_H 	H 	0.3182	0.4029	0.1642	0.16
Mof_H 	H 	0.544	0.4383	0.2906	0.037
Mof_H 	H 	0.4401	0.4046	0.3674	0.026
Mof_H 	H 	0.2499	0.9142	0.6912	0.199
Mof_H 	H 	0.9507	0.2924	0.447	0.042
Mof_H 	H 	0.7558	0.1049	0.7666	0.183
Mof_H 	H 	0.6818	0.2387	0.8358	0.191
Mof_H 	H 	0.456	0.1477	0.7094	0.022
Mof_H 	H 	0.5599	0.0372	0.6326	0.009
Mof_H 	H 	0.7501	0.223	0.3088	0.203
Mof_C 	C 	0.5936	0.7758	0.8666	0.443
Mof_C 	C 	0.6609	0.6452	0.7916	-0.42
Mof_C 	C 	0.5586	0.5603	0.6876	0.121
Mof_C 	C 	0.7183	0.3874	0.5586	0.271
Mof_C 	C 	0.4064	0.9092	0.1334	0.437
Mof_C 	C 	0.3391	0.8536	0.2084	-0.396
Mof_C 	C 	0.4414	0.8727	0.3124	0.098
Mof_C 	C 	0.2817	0.8288	0.4414	0.269
Mof_C 	C 	0.4064	0.2242	0.1334	0.439
Mof_C 	C 	0.3391	0.3548	0.2084	-0.407
Mof_C 	C 	0.4414	0.4397	0.3124	0.11
Mof_C 	C 	0.2817	0.6126	0.4414	0.27
Mof_C 	C 	0.5936	0.0908	0.8666	0.444
Mof_C 	C 	0.6609	0.1464	0.7916	-0.429
Mof_C 	C 	0.5586	0.1273	0.6876	0.132
Mof_C 	C 	0.7183	0.1712	0.5586	0.272
Mof_C 	C 	0.9257	0.1126	0.2252	0.496
Mof_C 	C 	0.8121	0.1585	0.317	-0.483
Mof_C 	C 	0.8875	0.2181	0.4362	0.134
Mof_C 	C 	0.5592	0.3419	0.6838	0.258
Mof_C 	C 	0.0743	0.8874	0.7748	0.345
Mof_C 	C 	0.1879	0.8415	0.683	-0.43
Mof_C 	C 	0.1125	0.7819	0.5638	0.124
Mof_C 	C 	0.4408	0.6581	0.3162	0.259
Mof_N 	N 	0.6111	0.4234	0.637	-0.193
Mof_N 	N 	0.3889	0.7864	0.363	-0.188
Mof_N 	N 	0.3889	0.5766	0.363	-0.192
Mof_N 	N 	0.6111	0.2136	0.637	-0.197
Mof_N 	N 	0.7696	0.2609	0.5218	-0.195
Mof_N 	N 	0.2304	0.7391	0.4782	-0.196
Mof_O 	O 	0.6774	0.8526	0.9502	-0.392
Mof_O 	O 	0.461	0.79907	0.84514	-0.402
Mof_O 	O 	0.7637	0.4629	0.5222	-0.218
Mof_O 	O 	0.3226	0.9024	0.0498	-0.452
Mof_O 	O 	0.539	0.95393	0.15486	-0.393
Mof_O 	O 	0.2363	0.9407	0.4778	-0.22
Mof_O 	O 	0.3226	0.1474	0.0498	-0.492
Mof_O 	O 	0.539	0.20093	0.15486	-0.432
Mof_O 	O 	0.2363	0.5371	0.4778	-0.242
Mof_O 	O 	0.6774	0.0976	0.9502	-0.418
Mof_O 	O 	0.461	0.04607	0.84514	-0.43
Mof_O 	O 	0.7637	0.0593	0.5222	-0.239
Mof_O 	O 	0.8629	0.0615	0.123	-0.521
Mof_O 	O 	0.0634	0.1227	0.2454	-0.398
Mof_O 	O 	0.4717	0.3802	0.7604	-0.226
Mof_O 	O 	0.1371	0.9385	0.877	-0.448
Mof_O 	O 	0.9366	0.8773	0.7546	-0.23
Mof_O 	O 	0.5283	0.6198	0.2396	-0.229
_end
