data_functionalizedCrystal
_audit_creation_method	'EQeq! by Chris Wilmer'
_symmetry_space_group_name_H-M	'P1'
_symmetry_Int_Tables_number	1
_symmetry_cell_setting	triclinic
loop_
_symmetry_equiv_pos_as_xyz
  x,y,z
_cell_length_a	31.8181
_cell_length_b	31.8181
_cell_length_c	31.8181
_cell_angle_alpha	90
_cell_angle_beta	90
_cell_angle_gamma	90
loop_
_atom_site_label
_atom_site_type_symbol
_atom_site_fract_x
_atom_site_fract_y
_atom_site_fract_z
_atom_site_charge
Mof_N 	N 	0.70592	0.95375	0.73778	-0.099
Mof_N 	N 	0.65438	0.00016	0.68634	-0.158
Mof_N 	N 	0.70759	0.00463	0.64208	-0.136
Mof_C 	C 	0.77827	0.9414	0.76382	-0.154
Mof_H 	H 	0.7895	0.9589	0.7424	0.093
Mof_C 	C 	0.8045	0.9229	0.7933	0.056
Mof_H 	H 	0.834	0.9274	0.7921	0.007
Mof_C 	C 	0.7875	0.8977	0.8242	-0.123
Mof_H 	H 	0.8054	0.8852	0.8445	0.066
Mof_C 	C 	0.7443	0.8904	0.8261	0.057
Mof_H 	H 	0.733	0.8727	0.8472	0.012
Mof_C 	C 	0.718	0.9093	0.79675	-0.156
Mof_H 	H 	0.6884	0.9052	0.798	0.092
Mof_C 	C 	0.7354	0.93399	0.76604	0.151
Mof_N 	N 	0.72275	0.96869	0.705	-0.099
Mof_C 	C 	0.69431	0.98991	0.67959	0.18
Mof_C 	C 	0.64175	0.02161	0.6515	0.005
Mof_H 	H 	0.6144	0.0327	0.6472	0.036
Mof_C 	C 	0.67438	0.02484	0.62363	0.006
Mof_H 	H 	0.674	0.0383	0.597	0.035
Mof_H 	H 	0.7703	0.004	0.6474	0.03
Mof_N 	N 	0.20592	0.45375	0.23778	-0.1
Mof_N 	N 	0.15438	0.50016	0.18634	-0.156
Mof_N 	N 	0.20759	0.50463	0.14208	-0.13
Mof_C 	C 	0.27827	0.4414	0.26382	-0.154
Mof_H 	H 	0.2895	0.4589	0.2424	0.092
Mof_C 	C 	0.3045	0.4229	0.2933	0.055
Mof_H 	H 	0.334	0.4274	0.2921	0.006
Mof_C 	C 	0.2875	0.3977	0.3242	-0.122
Mof_H 	H 	0.3054	0.3852	0.3445	0.066
Mof_C 	C 	0.2443	0.3904	0.3261	0.057
Mof_H 	H 	0.233	0.3727	0.3472	0.012
Mof_C 	C 	0.218	0.4093	0.29675	-0.156
Mof_H 	H 	0.1884	0.4052	0.298	0.092
Mof_C 	C 	0.2354	0.43399	0.26604	0.15
Mof_N 	N 	0.22275	0.46869	0.205	-0.098
Mof_C 	C 	0.19431	0.48991	0.17959	0.172
Mof_C 	C 	0.14175	0.52161	0.1515	0.005
Mof_H 	H 	0.1144	0.5327	0.1472	0.035
Mof_C 	C 	0.17438	0.52484	0.12363	0.005
Mof_H 	H 	0.174	0.5383	0.097	0.034
Mof_H 	H 	0.2703	0.504	0.1474	0.036
Mof_N 	N 	0.79408	0.04625	0.23778	-0.101
Mof_N 	N 	0.84562	0.99984	0.18634	-0.153
Mof_N 	N 	0.79241	0.99537	0.14208	-0.126
Mof_C 	C 	0.72173	0.0586	0.26382	-0.155
Mof_H 	H 	0.7105	0.0411	0.2424	0.09
Mof_C 	C 	0.6955	0.0771	0.2933	0.054
Mof_H 	H 	0.666	0.0726	0.2921	0.005
Mof_C 	C 	0.7125	0.1023	0.3242	-0.123
Mof_H 	H 	0.6946	0.1148	0.3445	0.065
Mof_C 	C 	0.7557	0.1096	0.3261	0.056
Mof_H 	H 	0.767	0.1273	0.3472	0.011
Mof_C 	C 	0.782	0.0907	0.29675	-0.156
Mof_H 	H 	0.8116	0.0948	0.298	0.091
Mof_C 	C 	0.7646	0.06601	0.26604	0.149
Mof_N 	N 	0.77725	0.03131	0.205	-0.099
Mof_C 	C 	0.80569	0.01009	0.17959	0.166
Mof_C 	C 	0.85825	0.97839	0.1515	0.006
Mof_H 	H 	0.8856	0.9673	0.1472	0.035
Mof_C 	C 	0.82562	0.97516	0.12363	0.004
Mof_H 	H 	0.826	0.9617	0.097	0.035
Mof_H 	H 	0.7297	0.996	0.1474	0.043
Mof_N 	N 	0.29408	0.54625	0.73778	-0.101
Mof_N 	N 	0.34562	0.49984	0.68634	-0.157
Mof_N 	N 	0.29241	0.49537	0.64208	-0.131
Mof_C 	C 	0.22173	0.5586	0.76382	-0.155
Mof_H 	H 	0.2105	0.5411	0.7424	0.091
Mof_C 	C 	0.1955	0.5771	0.7933	0.054
Mof_H 	H 	0.166	0.5726	0.7921	0.006
Mof_C 	C 	0.2125	0.6023	0.8242	-0.123
Mof_H 	H 	0.1946	0.6148	0.8445	0.065
Mof_C 	C 	0.2557	0.6096	0.8261	0.056
Mof_H 	H 	0.267	0.6273	0.8472	0.011
Mof_C 	C 	0.282	0.5907	0.79675	-0.157
Mof_H 	H 	0.3116	0.5948	0.798	0.091
Mof_C 	C 	0.2646	0.56601	0.76604	0.149
Mof_N 	N 	0.27725	0.53131	0.705	-0.099
Mof_C 	C 	0.30569	0.51009	0.67959	0.172
Mof_C 	C 	0.35825	0.47839	0.6515	0.005
Mof_H 	H 	0.3856	0.4673	0.6472	0.035
Mof_C 	C 	0.32562	0.47516	0.62363	0.005
Mof_H 	H 	0.326	0.4617	0.597	0.035
Mof_H 	H 	0.2297	0.496	0.6474	0.036
Mof_N 	N 	0.29408	0.45375	0.76222	-0.101
Mof_N 	N 	0.34562	0.50016	0.81366	-0.157
Mof_N 	N 	0.29241	0.50463	0.85792	-0.131
Mof_C 	C 	0.22173	0.4414	0.73618	-0.155
Mof_H 	H 	0.2105	0.4589	0.7576	0.091
Mof_C 	C 	0.1955	0.4229	0.7067	0.054
Mof_H 	H 	0.166	0.4274	0.7079	0.006
Mof_C 	C 	0.2125	0.3977	0.6758	-0.123
Mof_H 	H 	0.1946	0.3852	0.6555	0.065
Mof_C 	C 	0.2557	0.3904	0.6739	0.056
Mof_H 	H 	0.267	0.3727	0.6528	0.011
Mof_C 	C 	0.282	0.4093	0.70325	-0.157
Mof_H 	H 	0.3116	0.4052	0.702	0.091
Mof_C 	C 	0.2646	0.43399	0.73396	0.149
Mof_N 	N 	0.27725	0.46869	0.795	-0.099
Mof_C 	C 	0.30569	0.48991	0.82041	0.173
Mof_C 	C 	0.35825	0.52161	0.8485	0.005
Mof_H 	H 	0.3856	0.5327	0.8528	0.035
Mof_C 	C 	0.32562	0.52484	0.87637	0.005
Mof_H 	H 	0.326	0.5383	0.903	0.035
Mof_H 	H 	0.2297	0.504	0.8526	0.036
Mof_N 	N 	0.79408	0.95375	0.26222	-0.1
Mof_N 	N 	0.84562	0.00016	0.31366	-0.159
Mof_N 	N 	0.79241	0.00463	0.35792	-0.137
Mof_C 	C 	0.72173	0.9414	0.23618	-0.155
Mof_H 	H 	0.7105	0.9589	0.2576	0.092
Mof_C 	C 	0.6955	0.9229	0.2067	0.055
Mof_H 	H 	0.666	0.9274	0.2079	0.006
Mof_C 	C 	0.7125	0.8977	0.1758	-0.124
Mof_H 	H 	0.6946	0.8852	0.1555	0.065
Mof_C 	C 	0.7557	0.8904	0.1739	0.056
Mof_H 	H 	0.767	0.8727	0.1528	0.01
Mof_C 	C 	0.782	0.9093	0.20325	-0.157
Mof_H 	H 	0.8116	0.9052	0.202	0.091
Mof_C 	C 	0.7646	0.93399	0.23396	0.15
Mof_N 	N 	0.77725	0.96869	0.295	-0.1
Mof_C 	C 	0.80569	0.98991	0.32041	0.179
Mof_C 	C 	0.85825	0.02161	0.3485	0.004
Mof_H 	H 	0.8856	0.0327	0.3528	0.035
Mof_C 	C 	0.82562	0.02484	0.37637	0.005
Mof_H 	H 	0.826	0.0383	0.403	0.034
Mof_H 	H 	0.7297	0.004	0.3526	0.029
Mof_N 	N 	0.20592	0.54625	0.26222	-0.101
Mof_N 	N 	0.15438	0.49984	0.31366	-0.157
Mof_N 	N 	0.20759	0.49537	0.35792	-0.131
Mof_C 	C 	0.27827	0.5586	0.23618	-0.155
Mof_H 	H 	0.2895	0.5411	0.2576	0.091
Mof_C 	C 	0.3045	0.5771	0.2067	0.054
Mof_H 	H 	0.334	0.5726	0.2079	0.005
Mof_C 	C 	0.2875	0.6023	0.1758	-0.123
Mof_H 	H 	0.3054	0.6148	0.1555	0.065
Mof_C 	C 	0.2443	0.6096	0.1739	0.056
Mof_H 	H 	0.233	0.6273	0.1528	0.01
Mof_C 	C 	0.218	0.5907	0.20325	-0.157
Mof_H 	H 	0.1884	0.5948	0.202	0.091
Mof_C 	C 	0.2354	0.56601	0.23396	0.15
Mof_N 	N 	0.22275	0.53131	0.295	-0.099
Mof_C 	C 	0.19431	0.51009	0.32041	0.172
Mof_C 	C 	0.14175	0.47839	0.3485	0.005
Mof_H 	H 	0.1144	0.4673	0.3528	0.035
Mof_C 	C 	0.17438	0.47516	0.37637	0.005
Mof_H 	H 	0.174	0.4617	0.403	0.035
Mof_H 	H 	0.2703	0.496	0.3526	0.036
Mof_N 	N 	0.70592	0.04625	0.76222	-0.101
Mof_N 	N 	0.65438	0.99984	0.81366	-0.153
Mof_N 	N 	0.70759	0.99537	0.85792	-0.126
Mof_C 	C 	0.77827	0.0586	0.73618	-0.155
Mof_H 	H 	0.7895	0.0411	0.7576	0.09
Mof_C 	C 	0.8045	0.0771	0.7067	0.054
Mof_H 	H 	0.834	0.0726	0.7079	0.005
Mof_C 	C 	0.7875	0.1023	0.6758	-0.123
Mof_H 	H 	0.8054	0.1148	0.6555	0.065
Mof_C 	C 	0.7443	0.1096	0.6739	0.056
Mof_H 	H 	0.733	0.1273	0.6528	0.011
Mof_C 	C 	0.718	0.0907	0.70325	-0.157
Mof_H 	H 	0.6884	0.0948	0.702	0.091
Mof_C 	C 	0.7354	0.06601	0.73396	0.149
Mof_N 	N 	0.72275	0.03131	0.795	-0.099
Mof_C 	C 	0.69431	0.01009	0.82041	0.166
Mof_C 	C 	0.64175	0.97839	0.8485	0.006
Mof_H 	H 	0.6144	0.9673	0.8528	0.035
Mof_C 	C 	0.67438	0.97516	0.87637	0.004
Mof_H 	H 	0.674	0.9617	0.903	0.036
Mof_H 	H 	0.7703	0.996	0.8526	0.043
Mof_N 	N 	0.73778	0.70592	0.95375	-0.1
Mof_N 	N 	0.68634	0.65438	0.00016	-0.159
Mof_N 	N 	0.64208	0.70759	0.00463	-0.137
Mof_C 	C 	0.76382	0.77827	0.9414	-0.155
Mof_H 	H 	0.7424	0.7895	0.9589	0.092
Mof_C 	C 	0.7933	0.8045	0.9229	0.055
Mof_H 	H 	0.7921	0.834	0.9274	0.006
Mof_C 	C 	0.8242	0.7875	0.8977	-0.124
Mof_H 	H 	0.8445	0.8054	0.8852	0.065
Mof_C 	C 	0.8261	0.7443	0.8904	0.056
Mof_H 	H 	0.8472	0.733	0.8727	0.011
Mof_C 	C 	0.79675	0.718	0.9093	-0.157
Mof_H 	H 	0.798	0.6884	0.9052	0.091
Mof_C 	C 	0.76604	0.7354	0.93399	0.15
Mof_N 	N 	0.705	0.72275	0.96869	-0.1
Mof_C 	C 	0.67959	0.69431	0.98991	0.179
Mof_C 	C 	0.6515	0.64175	0.02161	0.004
Mof_H 	H 	0.6472	0.6144	0.0327	0.035
Mof_C 	C 	0.62363	0.67438	0.02484	0.005
Mof_H 	H 	0.597	0.674	0.0383	0.034
Mof_H 	H 	0.6474	0.7703	0.004	0.029
Mof_N 	N 	0.23778	0.20592	0.45375	-0.101
Mof_N 	N 	0.18634	0.15438	0.50016	-0.157
Mof_N 	N 	0.14208	0.20759	0.50463	-0.131
Mof_C 	C 	0.26382	0.27827	0.4414	-0.155
Mof_H 	H 	0.2424	0.2895	0.4589	0.091
Mof_C 	C 	0.2933	0.3045	0.4229	0.054
Mof_H 	H 	0.2921	0.334	0.4274	0.005
Mof_C 	C 	0.3242	0.2875	0.3977	-0.123
Mof_H 	H 	0.3445	0.3054	0.3852	0.065
Mof_C 	C 	0.3261	0.2443	0.3904	0.056
Mof_H 	H 	0.3472	0.233	0.3727	0.011
Mof_C 	C 	0.29675	0.218	0.4093	-0.157
Mof_H 	H 	0.298	0.1884	0.4052	0.091
Mof_C 	C 	0.26604	0.2354	0.43399	0.149
Mof_N 	N 	0.205	0.22275	0.46869	-0.099
Mof_C 	C 	0.17959	0.19431	0.48991	0.172
Mof_C 	C 	0.1515	0.14175	0.52161	0.005
Mof_H 	H 	0.1472	0.1144	0.5327	0.035
Mof_C 	C 	0.12363	0.17438	0.52484	0.005
Mof_H 	H 	0.097	0.174	0.5383	0.034
Mof_H 	H 	0.1474	0.2703	0.504	0.036
Mof_N 	N 	0.23778	0.79408	0.04625	-0.101
Mof_N 	N 	0.18634	0.84562	0.99984	-0.153
Mof_N 	N 	0.14208	0.79241	0.99537	-0.126
Mof_C 	C 	0.26382	0.72173	0.0586	-0.155
Mof_H 	H 	0.2424	0.7105	0.0411	0.09
Mof_C 	C 	0.2933	0.6955	0.0771	0.054
Mof_H 	H 	0.2921	0.666	0.0726	0.005
Mof_C 	C 	0.3242	0.7125	0.1023	-0.123
Mof_H 	H 	0.3445	0.6946	0.1148	0.065
Mof_C 	C 	0.3261	0.7557	0.1096	0.056
Mof_H 	H 	0.3472	0.767	0.1273	0.011
Mof_C 	C 	0.29675	0.782	0.0907	-0.156
Mof_H 	H 	0.298	0.8116	0.0948	0.091
Mof_C 	C 	0.26604	0.7646	0.06601	0.149
Mof_N 	N 	0.205	0.77725	0.03131	-0.099
Mof_C 	C 	0.17959	0.80569	0.01009	0.166
Mof_C 	C 	0.1515	0.85825	0.97839	0.006
Mof_H 	H 	0.1472	0.8856	0.9673	0.035
Mof_C 	C 	0.12363	0.82562	0.97516	0.004
Mof_H 	H 	0.097	0.826	0.9617	0.035
Mof_H 	H 	0.1474	0.7297	0.996	0.043
Mof_N 	N 	0.73778	0.29408	0.54625	-0.101
Mof_N 	N 	0.68634	0.34562	0.49984	-0.157
Mof_N 	N 	0.64208	0.29241	0.49537	-0.131
Mof_C 	C 	0.76382	0.22173	0.5586	-0.155
Mof_H 	H 	0.7424	0.2105	0.5411	0.091
Mof_C 	C 	0.7933	0.1955	0.5771	0.054
Mof_H 	H 	0.7921	0.166	0.5726	0.006
Mof_C 	C 	0.8242	0.2125	0.6023	-0.123
Mof_H 	H 	0.8445	0.1946	0.6148	0.065
Mof_C 	C 	0.8261	0.2557	0.6096	0.056
Mof_H 	H 	0.8472	0.267	0.6273	0.011
Mof_C 	C 	0.79675	0.282	0.5907	-0.157
Mof_H 	H 	0.798	0.3116	0.5948	0.091
Mof_C 	C 	0.76604	0.2646	0.56601	0.149
Mof_N 	N 	0.705	0.27725	0.53131	-0.099
Mof_C 	C 	0.67959	0.30569	0.51009	0.172
Mof_C 	C 	0.6515	0.35825	0.47839	0.005
Mof_H 	H 	0.6472	0.3856	0.4673	0.035
Mof_C 	C 	0.62363	0.32562	0.47516	0.005
Mof_H 	H 	0.597	0.326	0.4617	0.035
Mof_H 	H 	0.6474	0.2297	0.496	0.036
Mof_N 	N 	0.76222	0.29408	0.45375	-0.101
Mof_N 	N 	0.81366	0.34562	0.50016	-0.157
Mof_N 	N 	0.85792	0.29241	0.50463	-0.131
Mof_C 	C 	0.73618	0.22173	0.4414	-0.155
Mof_H 	H 	0.7576	0.2105	0.4589	0.091
Mof_C 	C 	0.7067	0.1955	0.4229	0.054
Mof_H 	H 	0.7079	0.166	0.4274	0.006
Mof_C 	C 	0.6758	0.2125	0.3977	-0.123
Mof_H 	H 	0.6555	0.1946	0.3852	0.065
Mof_C 	C 	0.6739	0.2557	0.3904	0.056
Mof_H 	H 	0.6528	0.267	0.3727	0.011
Mof_C 	C 	0.70325	0.282	0.4093	-0.157
Mof_H 	H 	0.702	0.3116	0.4052	0.091
Mof_C 	C 	0.73396	0.2646	0.43399	0.149
Mof_N 	N 	0.795	0.27725	0.46869	-0.099
Mof_C 	C 	0.82041	0.30569	0.48991	0.173
Mof_C 	C 	0.8485	0.35825	0.52161	0.005
Mof_H 	H 	0.8528	0.3856	0.5327	0.035
Mof_C 	C 	0.87637	0.32562	0.52484	0.005
Mof_H 	H 	0.903	0.326	0.5383	0.035
Mof_H 	H 	0.8526	0.2297	0.504	0.036
Mof_N 	N 	0.26222	0.79408	0.95375	-0.1
Mof_N 	N 	0.31366	0.84562	0.00016	-0.159
Mof_N 	N 	0.35792	0.79241	0.00463	-0.137
Mof_C 	C 	0.23618	0.72173	0.9414	-0.155
Mof_H 	H 	0.2576	0.7105	0.9589	0.092
Mof_C 	C 	0.2067	0.6955	0.9229	0.055
Mof_H 	H 	0.2079	0.666	0.9274	0.006
Mof_C 	C 	0.1758	0.7125	0.8977	-0.124
Mof_H 	H 	0.1555	0.6946	0.8852	0.065
Mof_C 	C 	0.1739	0.7557	0.8904	0.056
Mof_H 	H 	0.1528	0.767	0.8727	0.01
Mof_C 	C 	0.20325	0.782	0.9093	-0.157
Mof_H 	H 	0.202	0.8116	0.9052	0.091
Mof_C 	C 	0.23396	0.7646	0.93399	0.15
Mof_N 	N 	0.295	0.77725	0.96869	-0.1
Mof_C 	C 	0.32041	0.80569	0.98991	0.179
Mof_C 	C 	0.3485	0.85825	0.02161	0.004
Mof_H 	H 	0.3528	0.8856	0.0327	0.035
Mof_C 	C 	0.37637	0.82562	0.02484	0.005
Mof_H 	H 	0.403	0.826	0.0383	0.034
Mof_H 	H 	0.3526	0.7297	0.004	0.029
Mof_N 	N 	0.26222	0.20592	0.54625	-0.101
Mof_N 	N 	0.31366	0.15438	0.49984	-0.157
Mof_N 	N 	0.35792	0.20759	0.49537	-0.131
Mof_C 	C 	0.23618	0.27827	0.5586	-0.155
Mof_H 	H 	0.2576	0.2895	0.5411	0.091
Mof_C 	C 	0.2067	0.3045	0.5771	0.054
Mof_H 	H 	0.2079	0.334	0.5726	0.005
Mof_C 	C 	0.1758	0.2875	0.6023	-0.123
Mof_H 	H 	0.1555	0.3054	0.6148	0.065
Mof_C 	C 	0.1739	0.2443	0.6096	0.056
Mof_H 	H 	0.1528	0.233	0.6273	0.01
Mof_C 	C 	0.20325	0.218	0.5907	-0.157
Mof_H 	H 	0.202	0.1884	0.5948	0.091
Mof_C 	C 	0.23396	0.2354	0.56601	0.15
Mof_N 	N 	0.295	0.22275	0.53131	-0.099
Mof_C 	C 	0.32041	0.19431	0.51009	0.172
Mof_C 	C 	0.3485	0.14175	0.47839	0.005
Mof_H 	H 	0.3528	0.1144	0.4673	0.035
Mof_C 	C 	0.37637	0.17438	0.47516	0.005
Mof_H 	H 	0.403	0.174	0.4617	0.035
Mof_H 	H 	0.3526	0.2703	0.496	0.036
Mof_N 	N 	0.76222	0.70592	0.04625	-0.101
Mof_N 	N 	0.81366	0.65438	0.99984	-0.153
Mof_N 	N 	0.85792	0.70759	0.99537	-0.126
Mof_C 	C 	0.73618	0.77827	0.0586	-0.155
Mof_H 	H 	0.7576	0.7895	0.0411	0.09
Mof_C 	C 	0.7067	0.8045	0.0771	0.054
Mof_H 	H 	0.7079	0.834	0.0726	0.005
Mof_C 	C 	0.6758	0.7875	0.1023	-0.123
Mof_H 	H 	0.6555	0.8054	0.1148	0.065
Mof_C 	C 	0.6739	0.7443	0.1096	0.056
Mof_H 	H 	0.6528	0.733	0.1273	0.011
Mof_C 	C 	0.70325	0.718	0.0907	-0.157
Mof_H 	H 	0.702	0.6884	0.0948	0.091
Mof_C 	C 	0.73396	0.7354	0.06601	0.149
Mof_N 	N 	0.795	0.72275	0.03131	-0.099
Mof_C 	C 	0.82041	0.69431	0.01009	0.166
Mof_C 	C 	0.8485	0.64175	0.97839	0.006
Mof_H 	H 	0.8528	0.6144	0.9673	0.035
Mof_C 	C 	0.87637	0.67438	0.97516	0.004
Mof_H 	H 	0.903	0.674	0.9617	0.036
Mof_H 	H 	0.8526	0.7703	0.996	0.043
Mof_N 	N 	0.95375	0.73778	0.70592	-0.1
Mof_N 	N 	0.00016	0.68634	0.65438	-0.159
Mof_N 	N 	0.00463	0.64208	0.70759	-0.137
Mof_C 	C 	0.9414	0.76382	0.77827	-0.155
Mof_H 	H 	0.9589	0.7424	0.7895	0.092
Mof_C 	C 	0.9229	0.7933	0.8045	0.055
Mof_H 	H 	0.9274	0.7921	0.834	0.006
Mof_C 	C 	0.8977	0.8242	0.7875	-0.124
Mof_H 	H 	0.8852	0.8445	0.8054	0.065
Mof_C 	C 	0.8904	0.8261	0.7443	0.056
Mof_H 	H 	0.8727	0.8472	0.733	0.011
Mof_C 	C 	0.9093	0.79675	0.718	-0.157
Mof_H 	H 	0.9052	0.798	0.6884	0.091
Mof_C 	C 	0.93399	0.76604	0.7354	0.15
Mof_N 	N 	0.96869	0.705	0.72275	-0.1
Mof_C 	C 	0.98991	0.67959	0.69431	0.179
Mof_C 	C 	0.02161	0.6515	0.64175	0.004
Mof_H 	H 	0.0327	0.6472	0.6144	0.035
Mof_C 	C 	0.02484	0.62363	0.67438	0.005
Mof_H 	H 	0.0383	0.597	0.674	0.034
Mof_H 	H 	0.004	0.6474	0.7703	0.029
Mof_N 	N 	0.45375	0.23778	0.20592	-0.101
Mof_N 	N 	0.50016	0.18634	0.15438	-0.157
Mof_N 	N 	0.50463	0.14208	0.20759	-0.131
Mof_C 	C 	0.4414	0.26382	0.27827	-0.155
Mof_H 	H 	0.4589	0.2424	0.2895	0.091
Mof_C 	C 	0.4229	0.2933	0.3045	0.054
Mof_H 	H 	0.4274	0.2921	0.334	0.005
Mof_C 	C 	0.3977	0.3242	0.2875	-0.123
Mof_H 	H 	0.3852	0.3445	0.3054	0.065
Mof_C 	C 	0.3904	0.3261	0.2443	0.056
Mof_H 	H 	0.3727	0.3472	0.233	0.011
Mof_C 	C 	0.4093	0.29675	0.218	-0.157
Mof_H 	H 	0.4052	0.298	0.1884	0.091
Mof_C 	C 	0.43399	0.26604	0.2354	0.149
Mof_N 	N 	0.46869	0.205	0.22275	-0.099
Mof_C 	C 	0.48991	0.17959	0.19431	0.172
Mof_C 	C 	0.52161	0.1515	0.14175	0.005
Mof_H 	H 	0.5327	0.1472	0.1144	0.035
Mof_C 	C 	0.52484	0.12363	0.17438	0.005
Mof_H 	H 	0.5383	0.097	0.174	0.034
Mof_H 	H 	0.504	0.1474	0.2703	0.036
Mof_N 	N 	0.04625	0.23778	0.79408	-0.101
Mof_N 	N 	0.99984	0.18634	0.84562	-0.153
Mof_N 	N 	0.99537	0.14208	0.79241	-0.126
Mof_C 	C 	0.0586	0.26382	0.72173	-0.155
Mof_H 	H 	0.0411	0.2424	0.7105	0.09
Mof_C 	C 	0.0771	0.2933	0.6955	0.054
Mof_H 	H 	0.0726	0.2921	0.666	0.005
Mof_C 	C 	0.1023	0.3242	0.7125	-0.123
Mof_H 	H 	0.1148	0.3445	0.6946	0.065
Mof_C 	C 	0.1096	0.3261	0.7557	0.056
Mof_H 	H 	0.1273	0.3472	0.767	0.011
Mof_C 	C 	0.0907	0.29675	0.782	-0.156
Mof_H 	H 	0.0948	0.298	0.8116	0.091
Mof_C 	C 	0.06601	0.26604	0.7646	0.149
Mof_N 	N 	0.03131	0.205	0.77725	-0.099
Mof_C 	C 	0.01009	0.17959	0.80569	0.166
Mof_C 	C 	0.97839	0.1515	0.85825	0.006
Mof_H 	H 	0.9673	0.1472	0.8856	0.035
Mof_C 	C 	0.97516	0.12363	0.82562	0.004
Mof_H 	H 	0.9617	0.097	0.826	0.035
Mof_H 	H 	0.996	0.1474	0.7297	0.043
Mof_N 	N 	0.54625	0.73778	0.29408	-0.101
Mof_N 	N 	0.49984	0.68634	0.34562	-0.157
Mof_N 	N 	0.49537	0.64208	0.29241	-0.131
Mof_C 	C 	0.5586	0.76382	0.22173	-0.155
Mof_H 	H 	0.5411	0.7424	0.2105	0.091
Mof_C 	C 	0.5771	0.7933	0.1955	0.054
Mof_H 	H 	0.5726	0.7921	0.166	0.006
Mof_C 	C 	0.6023	0.8242	0.2125	-0.123
Mof_H 	H 	0.6148	0.8445	0.1946	0.065
Mof_C 	C 	0.6096	0.8261	0.2557	0.056
Mof_H 	H 	0.6273	0.8472	0.267	0.011
Mof_C 	C 	0.5907	0.79675	0.282	-0.157
Mof_H 	H 	0.5948	0.798	0.3116	0.091
Mof_C 	C 	0.56601	0.76604	0.2646	0.149
Mof_N 	N 	0.53131	0.705	0.27725	-0.099
Mof_C 	C 	0.51009	0.67959	0.30569	0.172
Mof_C 	C 	0.47839	0.6515	0.35825	0.005
Mof_H 	H 	0.4673	0.6472	0.3856	0.035
Mof_C 	C 	0.47516	0.62363	0.32562	0.005
Mof_H 	H 	0.4617	0.597	0.326	0.035
Mof_H 	H 	0.496	0.6474	0.2297	0.036
Mof_N 	N 	0.45375	0.76222	0.29408	-0.101
Mof_N 	N 	0.50016	0.81366	0.34562	-0.157
Mof_N 	N 	0.50463	0.85792	0.29241	-0.131
Mof_C 	C 	0.4414	0.73618	0.22173	-0.155
Mof_H 	H 	0.4589	0.7576	0.2105	0.091
Mof_C 	C 	0.4229	0.7067	0.1955	0.054
Mof_H 	H 	0.4274	0.7079	0.166	0.006
Mof_C 	C 	0.3977	0.6758	0.2125	-0.123
Mof_H 	H 	0.3852	0.6555	0.1946	0.065
Mof_C 	C 	0.3904	0.6739	0.2557	0.056
Mof_H 	H 	0.3727	0.6528	0.267	0.011
Mof_C 	C 	0.4093	0.70325	0.282	-0.157
Mof_H 	H 	0.4052	0.702	0.3116	0.091
Mof_C 	C 	0.43399	0.73396	0.2646	0.149
Mof_N 	N 	0.46869	0.795	0.27725	-0.099
Mof_C 	C 	0.48991	0.82041	0.30569	0.173
Mof_C 	C 	0.52161	0.8485	0.35825	0.005
Mof_H 	H 	0.5327	0.8528	0.3856	0.035
Mof_C 	C 	0.52484	0.87637	0.32562	0.005
Mof_H 	H 	0.5383	0.903	0.326	0.035
Mof_H 	H 	0.504	0.8526	0.2297	0.036
Mof_N 	N 	0.95375	0.26222	0.79408	-0.1
Mof_N 	N 	0.00016	0.31366	0.84562	-0.159
Mof_N 	N 	0.00463	0.35792	0.79241	-0.137
Mof_C 	C 	0.9414	0.23618	0.72173	-0.155
Mof_H 	H 	0.9589	0.2576	0.7105	0.092
Mof_C 	C 	0.9229	0.2067	0.6955	0.055
Mof_H 	H 	0.9274	0.2079	0.666	0.006
Mof_C 	C 	0.8977	0.1758	0.7125	-0.124
Mof_H 	H 	0.8852	0.1555	0.6946	0.065
Mof_C 	C 	0.8904	0.1739	0.7557	0.056
Mof_H 	H 	0.8727	0.1528	0.767	0.01
Mof_C 	C 	0.9093	0.20325	0.782	-0.157
Mof_H 	H 	0.9052	0.202	0.8116	0.091
Mof_C 	C 	0.93399	0.23396	0.7646	0.15
Mof_N 	N 	0.96869	0.295	0.77725	-0.1
Mof_C 	C 	0.98991	0.32041	0.80569	0.179
Mof_C 	C 	0.02161	0.3485	0.85825	0.004
Mof_H 	H 	0.0327	0.3528	0.8856	0.035
Mof_C 	C 	0.02484	0.37637	0.82562	0.005
Mof_H 	H 	0.0383	0.403	0.826	0.034
Mof_H 	H 	0.004	0.3526	0.7297	0.029
Mof_N 	N 	0.54625	0.26222	0.20592	-0.101
Mof_N 	N 	0.49984	0.31366	0.15438	-0.157
Mof_N 	N 	0.49537	0.35792	0.20759	-0.131
Mof_C 	C 	0.5586	0.23618	0.27827	-0.155
Mof_H 	H 	0.5411	0.2576	0.2895	0.091
Mof_C 	C 	0.5771	0.2067	0.3045	0.054
Mof_H 	H 	0.5726	0.2079	0.334	0.005
Mof_C 	C 	0.6023	0.1758	0.2875	-0.123
Mof_H 	H 	0.6148	0.1555	0.3054	0.065
Mof_C 	C 	0.6096	0.1739	0.2443	0.056
Mof_H 	H 	0.6273	0.1528	0.233	0.01
Mof_C 	C 	0.5907	0.20325	0.218	-0.157
Mof_H 	H 	0.5948	0.202	0.1884	0.091
Mof_C 	C 	0.56601	0.23396	0.2354	0.15
Mof_N 	N 	0.53131	0.295	0.22275	-0.099
Mof_C 	C 	0.51009	0.32041	0.19431	0.172
Mof_C 	C 	0.47839	0.3485	0.14175	0.005
Mof_H 	H 	0.4673	0.3528	0.1144	0.035
Mof_C 	C 	0.47516	0.37637	0.17438	0.005
Mof_H 	H 	0.4617	0.403	0.174	0.035
Mof_H 	H 	0.496	0.3526	0.2703	0.036
Mof_N 	N 	0.04625	0.76222	0.70592	-0.101
Mof_N 	N 	0.99984	0.81366	0.65438	-0.153
Mof_N 	N 	0.99537	0.85792	0.70759	-0.126
Mof_C 	C 	0.0586	0.73618	0.77827	-0.155
Mof_H 	H 	0.0411	0.7576	0.7895	0.09
Mof_C 	C 	0.0771	0.7067	0.8045	0.054
Mof_H 	H 	0.0726	0.7079	0.834	0.005
Mof_C 	C 	0.1023	0.6758	0.7875	-0.123
Mof_H 	H 	0.1148	0.6555	0.8054	0.065
Mof_C 	C 	0.1096	0.6739	0.7443	0.056
Mof_H 	H 	0.1273	0.6528	0.733	0.011
Mof_C 	C 	0.0907	0.70325	0.718	-0.157
Mof_H 	H 	0.0948	0.702	0.6884	0.091
Mof_C 	C 	0.06601	0.73396	0.7354	0.149
Mof_N 	N 	0.03131	0.795	0.72275	-0.099
Mof_C 	C 	0.01009	0.82041	0.69431	0.166
Mof_C 	C 	0.97839	0.8485	0.64175	0.006
Mof_H 	H 	0.9673	0.8528	0.6144	0.035
Mof_C 	C 	0.97516	0.87637	0.67438	0.004
Mof_H 	H 	0.9617	0.903	0.674	0.036
Mof_H 	H 	0.996	0.8526	0.7703	0.043
Mof_N 	N 	0.70375	0.95592	0.51222	-0.102
Mof_N 	N 	0.75016	0.90438	0.56366	-0.157
Mof_N 	N 	0.75463	0.95759	0.60792	-0.134
Mof_C 	C 	0.6914	0.02827	0.48618	-0.169
Mof_H 	H 	0.7089	0.0395	0.5076	0.095
Mof_C 	C 	0.6729	0.0545	0.4567	0.067
Mof_H 	H 	0.6774	0.084	0.4579	0.001
Mof_C 	C 	0.6477	0.0375	0.4258	-0.139
Mof_H 	H 	0.6352	0.0554	0.4055	0.07
Mof_C 	C 	0.6404	0.9943	0.4239	0.071
Mof_H 	H 	0.6227	0.983	0.4028	0.006
Mof_C 	C 	0.6593	0.968	0.45325	-0.167
Mof_H 	H 	0.6552	0.9384	0.452	0.095
Mof_C 	C 	0.68399	0.9854	0.48396	0.161
Mof_N 	N 	0.71869	0.97275	0.545	-0.098
Mof_C 	C 	0.73991	0.94431	0.57041	0.173
Mof_C 	C 	0.77161	0.89175	0.5985	0.004
Mof_H 	H 	0.7827	0.8644	0.6028	0.035
Mof_C 	C 	0.77484	0.92438	0.62637	0.006
Mof_H 	H 	0.7883	0.924	0.653	0.035
Mof_H 	H 	0.754	0.0203	0.6026	0.029
Mof_N 	N 	0.20375	0.45592	0.01222	-0.102
Mof_N 	N 	0.25016	0.40438	0.06366	-0.157
Mof_N 	N 	0.25463	0.45759	0.10792	-0.131
Mof_C 	C 	0.1914	0.52827	0.98618	-0.147
Mof_H 	H 	0.2089	0.5395	0.0076	0.086
Mof_C 	C 	0.1729	0.5545	0.9567	0.049
Mof_H 	H 	0.1774	0.584	0.9579	0.008
Mof_C 	C 	0.1477	0.5375	0.9258	-0.12
Mof_H 	H 	0.1352	0.5554	0.9055	0.064
Mof_C 	C 	0.1404	0.4943	0.9239	0.054
Mof_H 	H 	0.1227	0.483	0.9028	0.011
Mof_C 	C 	0.1593	0.468	0.95325	-0.155
Mof_H 	H 	0.1552	0.4384	0.952	0.091
Mof_C 	C 	0.18399	0.4854	0.98396	0.149
Mof_N 	N 	0.21869	0.47275	0.045	-0.1
Mof_C 	C 	0.23991	0.44431	0.07041	0.172
Mof_C 	C 	0.27161	0.39175	0.0985	0.005
Mof_H 	H 	0.2827	0.3644	0.1028	0.035
Mof_C 	C 	0.27484	0.42438	0.12637	0.005
Mof_H 	H 	0.2883	0.424	0.153	0.035
Mof_H 	H 	0.254	0.5203	0.1026	0.036
Mof_N 	N 	0.79625	0.04408	0.01222	-0.101
Mof_N 	N 	0.74984	0.09562	0.06366	-0.157
Mof_N 	N 	0.74537	0.04241	0.10792	-0.129
Mof_C 	C 	0.8086	0.97173	0.98618	-0.133
Mof_H 	H 	0.7911	0.9605	0.0076	0.082
Mof_C 	C 	0.8271	0.9455	0.9567	0.037
Mof_H 	H 	0.8226	0.916	0.9579	0.012
Mof_C 	C 	0.8523	0.9625	0.9258	-0.104
Mof_H 	H 	0.8648	0.9446	0.9055	0.06
Mof_C 	C 	0.8596	0.0057	0.9239	0.039
Mof_H 	H 	0.8773	0.017	0.9028	0.016
Mof_C 	C 	0.8407	0.032	0.95325	-0.144
Mof_H 	H 	0.8448	0.0616	0.952	0.088
Mof_C 	C 	0.81601	0.0146	0.98396	0.138
Mof_N 	N 	0.78131	0.02725	0.045	-0.1
Mof_C 	C 	0.76009	0.05569	0.07041	0.171
Mof_C 	C 	0.72839	0.10825	0.0985	0.005
Mof_H 	H 	0.7173	0.1356	0.1028	0.035
Mof_C 	C 	0.72516	0.07562	0.12637	0.004
Mof_H 	H 	0.7117	0.076	0.153	0.035
Mof_H 	H 	0.746	0.9797	0.1026	0.043
Mof_N 	N 	0.29625	0.54408	0.51222	-0.101
Mof_N 	N 	0.24984	0.59562	0.56366	-0.157
Mof_N 	N 	0.24537	0.54241	0.60792	-0.131
Mof_C 	C 	0.3086	0.47173	0.48618	-0.155
Mof_H 	H 	0.2911	0.4605	0.5076	0.091
Mof_C 	C 	0.3271	0.4455	0.4567	0.054
Mof_H 	H 	0.3226	0.416	0.4579	0.005
Mof_C 	C 	0.3523	0.4625	0.4258	-0.123
Mof_H 	H 	0.3648	0.4446	0.4055	0.065
Mof_C 	C 	0.3596	0.5057	0.4239	0.056
Mof_H 	H 	0.3773	0.517	0.4028	0.011
Mof_C 	C 	0.3407	0.532	0.45325	-0.157
Mof_H 	H 	0.3448	0.5616	0.452	0.091
Mof_C 	C 	0.31601	0.5146	0.48396	0.149
Mof_N 	N 	0.28131	0.52725	0.545	-0.099
Mof_C 	C 	0.26009	0.55569	0.57041	0.172
Mof_C 	C 	0.22839	0.60825	0.5985	0.005
Mof_H 	H 	0.2173	0.6356	0.6028	0.035
Mof_C 	C 	0.22516	0.57562	0.62637	0.005
Mof_H 	H 	0.2117	0.576	0.653	0.035
Mof_H 	H 	0.246	0.4797	0.6026	0.036
Mof_N 	N 	0.20375	0.54408	0.48778	-0.101
Mof_N 	N 	0.25016	0.59562	0.43634	-0.157
Mof_N 	N 	0.25463	0.54241	0.39208	-0.131
Mof_C 	C 	0.1914	0.47173	0.51382	-0.155
Mof_H 	H 	0.2089	0.4605	0.4924	0.091
Mof_C 	C 	0.1729	0.4455	0.5433	0.054
Mof_H 	H 	0.1774	0.416	0.5421	0.005
Mof_C 	C 	0.1477	0.4625	0.5742	-0.123
Mof_H 	H 	0.1352	0.4446	0.5945	0.065
Mof_C 	C 	0.1404	0.5057	0.5761	0.056
Mof_H 	H 	0.1227	0.517	0.5972	0.01
Mof_C 	C 	0.1593	0.532	0.54675	-0.157
Mof_H 	H 	0.1552	0.5616	0.548	0.091
Mof_C 	C 	0.18399	0.5146	0.51604	0.149
Mof_N 	N 	0.21869	0.52725	0.455	-0.099
Mof_C 	C 	0.23991	0.55569	0.42959	0.172
Mof_C 	C 	0.27161	0.60825	0.4015	0.005
Mof_H 	H 	0.2827	0.6356	0.3972	0.035
Mof_C 	C 	0.27484	0.57562	0.37363	0.005
Mof_H 	H 	0.2883	0.576	0.347	0.035
Mof_H 	H 	0.254	0.4797	0.3974	0.036
Mof_N 	N 	0.70375	0.04408	0.98778	-0.098
Mof_N 	N 	0.75016	0.09562	0.93634	-0.156
Mof_N 	N 	0.75463	0.04241	0.89208	-0.129
Mof_C 	C 	0.6914	0.97173	0.01382	-0.15
Mof_H 	H 	0.7089	0.9605	0.9924	0.093
Mof_C 	C 	0.6729	0.9455	0.0433	0.047
Mof_H 	H 	0.6774	0.916	0.0421	0.007
Mof_C 	C 	0.6477	0.9625	0.0742	-0.111
Mof_H 	H 	0.6352	0.9446	0.0945	0.062
Mof_C 	C 	0.6404	0.0057	0.0761	0.043
Mof_H 	H 	0.6227	0.017	0.0972	0.014
Mof_C 	C 	0.6593	0.032	0.04675	-0.148
Mof_H 	H 	0.6552	0.0616	0.048	0.087
Mof_C 	C 	0.68399	0.0146	0.01604	0.139
Mof_N 	N 	0.71869	0.02725	0.955	-0.1
Mof_C 	C 	0.73991	0.05569	0.92959	0.172
Mof_C 	C 	0.77161	0.10825	0.9015	0.006
Mof_H 	H 	0.7827	0.1356	0.8972	0.035
Mof_C 	C 	0.77484	0.07562	0.87363	0.004
Mof_H 	H 	0.7883	0.076	0.847	0.035
Mof_H 	H 	0.754	0.9797	0.8974	0.043
Mof_N 	N 	0.29625	0.45592	0.98778	-0.099
Mof_N 	N 	0.24984	0.40438	0.93634	-0.156
Mof_N 	N 	0.24537	0.45759	0.89208	-0.131
Mof_C 	C 	0.3086	0.52827	0.01382	-0.164
Mof_H 	H 	0.2911	0.5395	0.9924	0.097
Mof_C 	C 	0.3271	0.5545	0.0433	0.059
Mof_H 	H 	0.3226	0.584	0.0421	0.003
Mof_C 	C 	0.3523	0.5375	0.0742	-0.127
Mof_H 	H 	0.3648	0.5554	0.0945	0.066
Mof_C 	C 	0.3596	0.4943	0.0761	0.058
Mof_H 	H 	0.3773	0.483	0.0972	0.01
Mof_C 	C 	0.3407	0.468	0.04675	-0.159
Mof_H 	H 	0.3448	0.4384	0.048	0.091
Mof_C 	C 	0.31601	0.4854	0.01604	0.15
Mof_N 	N 	0.28131	0.47275	0.955	-0.099
Mof_C 	C 	0.26009	0.44431	0.92959	0.173
Mof_C 	C 	0.22839	0.39175	0.9015	0.005
Mof_H 	H 	0.2173	0.3644	0.8972	0.035
Mof_C 	C 	0.22516	0.42438	0.87363	0.005
Mof_H 	H 	0.2117	0.424	0.847	0.035
Mof_H 	H 	0.246	0.5203	0.8974	0.036
Mof_N 	N 	0.79625	0.95592	0.48778	-0.102
Mof_N 	N 	0.74984	0.90438	0.43634	-0.157
Mof_N 	N 	0.74537	0.95759	0.39208	-0.133
Mof_C 	C 	0.8086	0.02827	0.51382	-0.169
Mof_H 	H 	0.7911	0.0395	0.4924	0.095
Mof_C 	C 	0.8271	0.0545	0.5433	0.067
Mof_H 	H 	0.8226	0.084	0.5421	0.001
Mof_C 	C 	0.8523	0.0375	0.5742	-0.139
Mof_H 	H 	0.8648	0.0554	0.5945	0.07
Mof_C 	C 	0.8596	0.9943	0.5761	0.071
Mof_H 	H 	0.8773	0.983	0.5972	0.007
Mof_C 	C 	0.8407	0.968	0.54675	-0.167
Mof_H 	H 	0.8448	0.9384	0.548	0.095
Mof_C 	C 	0.81601	0.9854	0.51604	0.161
Mof_N 	N 	0.78131	0.97275	0.455	-0.098
Mof_C 	C 	0.76009	0.94431	0.42959	0.173
Mof_C 	C 	0.72839	0.89175	0.4015	0.004
Mof_H 	H 	0.7173	0.8644	0.3972	0.035
Mof_C 	C 	0.72516	0.92438	0.37363	0.006
Mof_H 	H 	0.7117	0.924	0.347	0.035
Mof_H 	H 	0.746	0.0203	0.3974	0.029
Mof_N 	N 	0.45592	0.98778	0.29625	-0.099
Mof_N 	N 	0.40438	0.93634	0.24984	-0.156
Mof_N 	N 	0.45759	0.89208	0.24537	-0.131
Mof_C 	C 	0.52827	0.01382	0.3086	-0.164
Mof_H 	H 	0.5395	0.9924	0.2911	0.097
Mof_C 	C 	0.5545	0.0433	0.3271	0.059
Mof_H 	H 	0.584	0.0421	0.3226	0.003
Mof_C 	C 	0.5375	0.0742	0.3523	-0.127
Mof_H 	H 	0.5554	0.0945	0.3648	0.066
Mof_C 	C 	0.4943	0.0761	0.3596	0.058
Mof_H 	H 	0.483	0.0972	0.3773	0.01
Mof_C 	C 	0.468	0.04675	0.3407	-0.159
Mof_H 	H 	0.4384	0.048	0.3448	0.091
Mof_C 	C 	0.4854	0.01604	0.31601	0.15
Mof_N 	N 	0.47275	0.955	0.28131	-0.099
Mof_C 	C 	0.44431	0.92959	0.26009	0.173
Mof_C 	C 	0.39175	0.9015	0.22839	0.005
Mof_H 	H 	0.3644	0.8972	0.2173	0.035
Mof_C 	C 	0.42438	0.87363	0.22516	0.005
Mof_H 	H 	0.424	0.847	0.2117	0.035
Mof_H 	H 	0.5203	0.8974	0.246	0.036
Mof_N 	N 	0.95592	0.48778	0.79625	-0.102
Mof_N 	N 	0.90438	0.43634	0.74984	-0.157
Mof_N 	N 	0.95759	0.39208	0.74537	-0.133
Mof_C 	C 	0.02827	0.51382	0.8086	-0.169
Mof_H 	H 	0.0395	0.4924	0.7911	0.095
Mof_C 	C 	0.0545	0.5433	0.8271	0.067
Mof_H 	H 	0.084	0.5421	0.8226	0.001
Mof_C 	C 	0.0375	0.5742	0.8523	-0.139
Mof_H 	H 	0.0554	0.5945	0.8648	0.07
Mof_C 	C 	0.9943	0.5761	0.8596	0.071
Mof_H 	H 	0.983	0.5972	0.8773	0.007
Mof_C 	C 	0.968	0.54675	0.8407	-0.167
Mof_H 	H 	0.9384	0.548	0.8448	0.095
Mof_C 	C 	0.9854	0.51604	0.81601	0.161
Mof_N 	N 	0.97275	0.455	0.78131	-0.098
Mof_C 	C 	0.94431	0.42959	0.76009	0.173
Mof_C 	C 	0.89175	0.4015	0.72839	0.004
Mof_H 	H 	0.8644	0.3972	0.7173	0.035
Mof_C 	C 	0.92438	0.37363	0.72516	0.006
Mof_H 	H 	0.924	0.347	0.7117	0.035
Mof_H 	H 	0.0203	0.3974	0.746	0.029
Mof_N 	N 	0.54408	0.48778	0.20375	-0.101
Mof_N 	N 	0.59562	0.43634	0.25016	-0.157
Mof_N 	N 	0.54241	0.39208	0.25463	-0.131
Mof_C 	C 	0.47173	0.51382	0.1914	-0.155
Mof_H 	H 	0.4605	0.4924	0.2089	0.091
Mof_C 	C 	0.4455	0.5433	0.1729	0.054
Mof_H 	H 	0.416	0.5421	0.1774	0.005
Mof_C 	C 	0.4625	0.5742	0.1477	-0.123
Mof_H 	H 	0.4446	0.5945	0.1352	0.065
Mof_C 	C 	0.5057	0.5761	0.1404	0.056
Mof_H 	H 	0.517	0.5972	0.1227	0.01
Mof_C 	C 	0.532	0.54675	0.1593	-0.157
Mof_H 	H 	0.5616	0.548	0.1552	0.091
Mof_C 	C 	0.5146	0.51604	0.18399	0.149
Mof_N 	N 	0.52725	0.455	0.21869	-0.099
Mof_C 	C 	0.55569	0.42959	0.23991	0.172
Mof_C 	C 	0.60825	0.4015	0.27161	0.005
Mof_H 	H 	0.6356	0.3972	0.2827	0.035
Mof_C 	C 	0.57562	0.37363	0.27484	0.005
Mof_H 	H 	0.576	0.347	0.2883	0.035
Mof_H 	H 	0.4797	0.3974	0.254	0.036
Mof_N 	N 	0.04408	0.98778	0.70375	-0.098
Mof_N 	N 	0.09562	0.93634	0.75016	-0.156
Mof_N 	N 	0.04241	0.89208	0.75463	-0.129
Mof_C 	C 	0.97173	0.01382	0.6914	-0.15
Mof_H 	H 	0.9605	0.9924	0.7089	0.093
Mof_C 	C 	0.9455	0.0433	0.6729	0.047
Mof_H 	H 	0.916	0.0421	0.6774	0.007
Mof_C 	C 	0.9625	0.0742	0.6477	-0.111
Mof_H 	H 	0.9446	0.0945	0.6352	0.062
Mof_C 	C 	0.0057	0.0761	0.6404	0.043
Mof_H 	H 	0.017	0.0972	0.6227	0.014
Mof_C 	C 	0.032	0.04675	0.6593	-0.148
Mof_H 	H 	0.0616	0.048	0.6552	0.087
Mof_C 	C 	0.0146	0.01604	0.68399	0.139
Mof_N 	N 	0.02725	0.955	0.71869	-0.1
Mof_C 	C 	0.05569	0.92959	0.73991	0.172
Mof_C 	C 	0.10825	0.9015	0.77161	0.006
Mof_H 	H 	0.1356	0.8972	0.7827	0.035
Mof_C 	C 	0.07562	0.87363	0.77484	0.004
Mof_H 	H 	0.076	0.847	0.7883	0.035
Mof_H 	H 	0.9797	0.8974	0.754	0.043
Mof_N 	N 	0.04408	0.01222	0.79625	-0.101
Mof_N 	N 	0.09562	0.06366	0.74984	-0.157
Mof_N 	N 	0.04241	0.10792	0.74537	-0.129
Mof_C 	C 	0.97173	0.98618	0.8086	-0.133
Mof_H 	H 	0.9605	0.0076	0.7911	0.082
Mof_C 	C 	0.9455	0.9567	0.8271	0.037
Mof_H 	H 	0.916	0.9579	0.8226	0.012
Mof_C 	C 	0.9625	0.9258	0.8523	-0.104
Mof_H 	H 	0.9446	0.9055	0.8648	0.06
Mof_C 	C 	0.0057	0.9239	0.8596	0.039
Mof_H 	H 	0.017	0.9028	0.8773	0.016
Mof_C 	C 	0.032	0.95325	0.8407	-0.144
Mof_H 	H 	0.0616	0.952	0.8448	0.088
Mof_C 	C 	0.0146	0.98396	0.81601	0.138
Mof_N 	N 	0.02725	0.045	0.78131	-0.1
Mof_C 	C 	0.05569	0.07041	0.76009	0.171
Mof_C 	C 	0.10825	0.0985	0.72839	0.005
Mof_H 	H 	0.1356	0.1028	0.7173	0.035
Mof_C 	C 	0.07562	0.12637	0.72516	0.004
Mof_H 	H 	0.076	0.153	0.7117	0.035
Mof_H 	H 	0.9797	0.1026	0.746	0.043
Mof_N 	N 	0.54408	0.51222	0.29625	-0.101
Mof_N 	N 	0.59562	0.56366	0.24984	-0.157
Mof_N 	N 	0.54241	0.60792	0.24537	-0.131
Mof_C 	C 	0.47173	0.48618	0.3086	-0.155
Mof_H 	H 	0.4605	0.5076	0.2911	0.091
Mof_C 	C 	0.4455	0.4567	0.3271	0.054
Mof_H 	H 	0.416	0.4579	0.3226	0.005
Mof_C 	C 	0.4625	0.4258	0.3523	-0.123
Mof_H 	H 	0.4446	0.4055	0.3648	0.065
Mof_C 	C 	0.5057	0.4239	0.3596	0.056
Mof_H 	H 	0.517	0.4028	0.3773	0.011
Mof_C 	C 	0.532	0.45325	0.3407	-0.157
Mof_H 	H 	0.5616	0.452	0.3448	0.091
Mof_C 	C 	0.5146	0.48396	0.31601	0.149
Mof_N 	N 	0.52725	0.545	0.28131	-0.099
Mof_C 	C 	0.55569	0.57041	0.26009	0.172
Mof_C 	C 	0.60825	0.5985	0.22839	0.005
Mof_H 	H 	0.6356	0.6028	0.2173	0.035
Mof_C 	C 	0.57562	0.62637	0.22516	0.005
Mof_H 	H 	0.576	0.653	0.2117	0.035
Mof_H 	H 	0.4797	0.6026	0.246	0.036
Mof_N 	N 	0.95592	0.51222	0.70375	-0.102
Mof_N 	N 	0.90438	0.56366	0.75016	-0.157
Mof_N 	N 	0.95759	0.60792	0.75463	-0.134
Mof_C 	C 	0.02827	0.48618	0.6914	-0.169
Mof_H 	H 	0.0395	0.5076	0.7089	0.095
Mof_C 	C 	0.0545	0.4567	0.6729	0.067
Mof_H 	H 	0.084	0.4579	0.6774	0.001
Mof_C 	C 	0.0375	0.4258	0.6477	-0.139
Mof_H 	H 	0.0554	0.4055	0.6352	0.07
Mof_C 	C 	0.9943	0.4239	0.6404	0.071
Mof_H 	H 	0.983	0.4028	0.6227	0.006
Mof_C 	C 	0.968	0.45325	0.6593	-0.167
Mof_H 	H 	0.9384	0.452	0.6552	0.095
Mof_C 	C 	0.9854	0.48396	0.68399	0.161
Mof_N 	N 	0.97275	0.545	0.71869	-0.098
Mof_C 	C 	0.94431	0.57041	0.73991	0.173
Mof_C 	C 	0.89175	0.5985	0.77161	0.004
Mof_H 	H 	0.8644	0.6028	0.7827	0.035
Mof_C 	C 	0.92438	0.62637	0.77484	0.006
Mof_H 	H 	0.924	0.653	0.7883	0.035
Mof_H 	H 	0.0203	0.6026	0.754	0.029
Mof_N 	N 	0.45592	0.01222	0.20375	-0.102
Mof_N 	N 	0.40438	0.06366	0.25016	-0.157
Mof_N 	N 	0.45759	0.10792	0.25463	-0.131
Mof_C 	C 	0.52827	0.98618	0.1914	-0.147
Mof_H 	H 	0.5395	0.0076	0.2089	0.086
Mof_C 	C 	0.5545	0.9567	0.1729	0.049
Mof_H 	H 	0.584	0.9579	0.1774	0.008
Mof_C 	C 	0.5375	0.9258	0.1477	-0.12
Mof_H 	H 	0.5554	0.9055	0.1352	0.064
Mof_C 	C 	0.4943	0.9239	0.1404	0.054
Mof_H 	H 	0.483	0.9028	0.1227	0.011
Mof_C 	C 	0.468	0.95325	0.1593	-0.155
Mof_H 	H 	0.4384	0.952	0.1552	0.091
Mof_C 	C 	0.4854	0.98396	0.18399	0.149
Mof_N 	N 	0.47275	0.045	0.21869	-0.1
Mof_C 	C 	0.44431	0.07041	0.23991	0.172
Mof_C 	C 	0.39175	0.0985	0.27161	0.005
Mof_H 	H 	0.3644	0.1028	0.2827	0.035
Mof_C 	C 	0.42438	0.12637	0.27484	0.005
Mof_H 	H 	0.424	0.153	0.2883	0.035
Mof_H 	H 	0.5203	0.1026	0.254	0.036
Mof_N 	N 	0.48778	0.20375	0.54408	-0.101
Mof_N 	N 	0.43634	0.25016	0.59562	-0.157
Mof_N 	N 	0.39208	0.25463	0.54241	-0.131
Mof_C 	C 	0.51382	0.1914	0.47173	-0.155
Mof_H 	H 	0.4924	0.2089	0.4605	0.091
Mof_C 	C 	0.5433	0.1729	0.4455	0.054
Mof_H 	H 	0.5421	0.1774	0.416	0.005
Mof_C 	C 	0.5742	0.1477	0.4625	-0.123
Mof_H 	H 	0.5945	0.1352	0.4446	0.065
Mof_C 	C 	0.5761	0.1404	0.5057	0.056
Mof_H 	H 	0.5972	0.1227	0.517	0.01
Mof_C 	C 	0.54675	0.1593	0.532	-0.157
Mof_H 	H 	0.548	0.1552	0.5616	0.091
Mof_C 	C 	0.51604	0.18399	0.5146	0.149
Mof_N 	N 	0.455	0.21869	0.52725	-0.099
Mof_C 	C 	0.42959	0.23991	0.55569	0.172
Mof_C 	C 	0.4015	0.27161	0.60825	0.005
Mof_H 	H 	0.3972	0.2827	0.6356	0.035
Mof_C 	C 	0.37363	0.27484	0.57562	0.005
Mof_H 	H 	0.347	0.2883	0.576	0.035
Mof_H 	H 	0.3974	0.254	0.4797	0.036
Mof_N 	N 	0.98778	0.70375	0.04408	-0.098
Mof_N 	N 	0.93634	0.75016	0.09562	-0.156
Mof_N 	N 	0.89208	0.75463	0.04241	-0.129
Mof_C 	C 	0.01382	0.6914	0.97173	-0.15
Mof_H 	H 	0.9924	0.7089	0.9605	0.093
Mof_C 	C 	0.0433	0.6729	0.9455	0.047
Mof_H 	H 	0.0421	0.6774	0.916	0.007
Mof_C 	C 	0.0742	0.6477	0.9625	-0.111
Mof_H 	H 	0.0945	0.6352	0.9446	0.062
Mof_C 	C 	0.0761	0.6404	0.0057	0.043
Mof_H 	H 	0.0972	0.6227	0.017	0.014
Mof_C 	C 	0.04675	0.6593	0.032	-0.148
Mof_H 	H 	0.048	0.6552	0.0616	0.087
Mof_C 	C 	0.01604	0.68399	0.0146	0.139
Mof_N 	N 	0.955	0.71869	0.02725	-0.1
Mof_C 	C 	0.92959	0.73991	0.05569	0.172
Mof_C 	C 	0.9015	0.77161	0.10825	0.006
Mof_H 	H 	0.8972	0.7827	0.1356	0.035
Mof_C 	C 	0.87363	0.77484	0.07562	0.004
Mof_H 	H 	0.847	0.7883	0.076	0.035
Mof_H 	H 	0.8974	0.754	0.9797	0.043
Mof_N 	N 	0.98778	0.29625	0.45592	-0.099
Mof_N 	N 	0.93634	0.24984	0.40438	-0.156
Mof_N 	N 	0.89208	0.24537	0.45759	-0.131
Mof_C 	C 	0.01382	0.3086	0.52827	-0.164
Mof_H 	H 	0.9924	0.2911	0.5395	0.097
Mof_C 	C 	0.0433	0.3271	0.5545	0.059
Mof_H 	H 	0.0421	0.3226	0.584	0.003
Mof_C 	C 	0.0742	0.3523	0.5375	-0.127
Mof_H 	H 	0.0945	0.3648	0.5554	0.066
Mof_C 	C 	0.0761	0.3596	0.4943	0.058
Mof_H 	H 	0.0972	0.3773	0.483	0.01
Mof_C 	C 	0.04675	0.3407	0.468	-0.159
Mof_H 	H 	0.048	0.3448	0.4384	0.091
Mof_C 	C 	0.01604	0.31601	0.4854	0.15
Mof_N 	N 	0.955	0.28131	0.47275	-0.099
Mof_C 	C 	0.92959	0.26009	0.44431	0.173
Mof_C 	C 	0.9015	0.22839	0.39175	0.005
Mof_H 	H 	0.8972	0.2173	0.3644	0.035
Mof_C 	C 	0.87363	0.22516	0.42438	0.005
Mof_H 	H 	0.847	0.2117	0.424	0.035
Mof_H 	H 	0.8974	0.246	0.5203	0.036
Mof_N 	N 	0.48778	0.79625	0.95592	-0.102
Mof_N 	N 	0.43634	0.74984	0.90438	-0.157
Mof_N 	N 	0.39208	0.74537	0.95759	-0.133
Mof_C 	C 	0.51382	0.8086	0.02827	-0.169
Mof_H 	H 	0.4924	0.7911	0.0395	0.095
Mof_C 	C 	0.5433	0.8271	0.0545	0.067
Mof_H 	H 	0.5421	0.8226	0.084	0.001
Mof_C 	C 	0.5742	0.8523	0.0375	-0.139
Mof_H 	H 	0.5945	0.8648	0.0554	0.07
Mof_C 	C 	0.5761	0.8596	0.9943	0.071
Mof_H 	H 	0.5972	0.8773	0.983	0.007
Mof_C 	C 	0.54675	0.8407	0.968	-0.167
Mof_H 	H 	0.548	0.8448	0.9384	0.095
Mof_C 	C 	0.51604	0.81601	0.9854	0.161
Mof_N 	N 	0.455	0.78131	0.97275	-0.098
Mof_C 	C 	0.42959	0.76009	0.94431	0.173
Mof_C 	C 	0.4015	0.72839	0.89175	0.004
Mof_H 	H 	0.3972	0.7173	0.8644	0.035
Mof_C 	C 	0.37363	0.72516	0.92438	0.006
Mof_H 	H 	0.347	0.7117	0.924	0.035
Mof_H 	H 	0.3974	0.746	0.0203	0.029
Mof_N 	N 	0.51222	0.70375	0.95592	-0.102
Mof_N 	N 	0.56366	0.75016	0.90438	-0.157
Mof_N 	N 	0.60792	0.75463	0.95759	-0.134
Mof_C 	C 	0.48618	0.6914	0.02827	-0.169
Mof_H 	H 	0.5076	0.7089	0.0395	0.095
Mof_C 	C 	0.4567	0.6729	0.0545	0.067
Mof_H 	H 	0.4579	0.6774	0.084	0.001
Mof_C 	C 	0.4258	0.6477	0.0375	-0.139
Mof_H 	H 	0.4055	0.6352	0.0554	0.07
Mof_C 	C 	0.4239	0.6404	0.9943	0.071
Mof_H 	H 	0.4028	0.6227	0.983	0.006
Mof_C 	C 	0.45325	0.6593	0.968	-0.167
Mof_H 	H 	0.452	0.6552	0.9384	0.095
Mof_C 	C 	0.48396	0.68399	0.9854	0.161
Mof_N 	N 	0.545	0.71869	0.97275	-0.098
Mof_C 	C 	0.57041	0.73991	0.94431	0.173
Mof_C 	C 	0.5985	0.77161	0.89175	0.004
Mof_H 	H 	0.6028	0.7827	0.8644	0.035
Mof_C 	C 	0.62637	0.77484	0.92438	0.006
Mof_H 	H 	0.653	0.7883	0.924	0.035
Mof_H 	H 	0.6026	0.754	0.0203	0.029
Mof_N 	N 	0.01222	0.20375	0.45592	-0.102
Mof_N 	N 	0.06366	0.25016	0.40438	-0.157
Mof_N 	N 	0.10792	0.25463	0.45759	-0.131
Mof_C 	C 	0.98618	0.1914	0.52827	-0.147
Mof_H 	H 	0.0076	0.2089	0.5395	0.086
Mof_C 	C 	0.9567	0.1729	0.5545	0.049
Mof_H 	H 	0.9579	0.1774	0.584	0.008
Mof_C 	C 	0.9258	0.1477	0.5375	-0.12
Mof_H 	H 	0.9055	0.1352	0.5554	0.064
Mof_C 	C 	0.9239	0.1404	0.4943	0.054
Mof_H 	H 	0.9028	0.1227	0.483	0.011
Mof_C 	C 	0.95325	0.1593	0.468	-0.155
Mof_H 	H 	0.952	0.1552	0.4384	0.091
Mof_C 	C 	0.98396	0.18399	0.4854	0.149
Mof_N 	N 	0.045	0.21869	0.47275	-0.1
Mof_C 	C 	0.07041	0.23991	0.44431	0.172
Mof_C 	C 	0.0985	0.27161	0.39175	0.005
Mof_H 	H 	0.1028	0.2827	0.3644	0.035
Mof_C 	C 	0.12637	0.27484	0.42438	0.005
Mof_H 	H 	0.153	0.2883	0.424	0.035
Mof_H 	H 	0.1026	0.254	0.5203	0.036
Mof_N 	N 	0.01222	0.79625	0.04408	-0.101
Mof_N 	N 	0.06366	0.74984	0.09562	-0.157
Mof_N 	N 	0.10792	0.74537	0.04241	-0.129
Mof_C 	C 	0.98618	0.8086	0.97173	-0.133
Mof_H 	H 	0.0076	0.7911	0.9605	0.082
Mof_C 	C 	0.9567	0.8271	0.9455	0.037
Mof_H 	H 	0.9579	0.8226	0.916	0.012
Mof_C 	C 	0.9258	0.8523	0.9625	-0.104
Mof_H 	H 	0.9055	0.8648	0.9446	0.06
Mof_C 	C 	0.9239	0.8596	0.0057	0.039
Mof_H 	H 	0.9028	0.8773	0.017	0.016
Mof_C 	C 	0.95325	0.8407	0.032	-0.144
Mof_H 	H 	0.952	0.8448	0.0616	0.088
Mof_C 	C 	0.98396	0.81601	0.0146	0.138
Mof_N 	N 	0.045	0.78131	0.02725	-0.1
Mof_C 	C 	0.07041	0.76009	0.05569	0.171
Mof_C 	C 	0.0985	0.72839	0.10825	0.005
Mof_H 	H 	0.1028	0.7173	0.1356	0.035
Mof_C 	C 	0.12637	0.72516	0.07562	0.004
Mof_H 	H 	0.153	0.7117	0.076	0.035
Mof_H 	H 	0.1026	0.746	0.9797	0.043
Mof_N 	N 	0.51222	0.29625	0.54408	-0.101
Mof_N 	N 	0.56366	0.24984	0.59562	-0.157
Mof_N 	N 	0.60792	0.24537	0.54241	-0.131
Mof_C 	C 	0.48618	0.3086	0.47173	-0.155
Mof_H 	H 	0.5076	0.2911	0.4605	0.091
Mof_C 	C 	0.4567	0.3271	0.4455	0.054
Mof_H 	H 	0.4579	0.3226	0.416	0.005
Mof_C 	C 	0.4258	0.3523	0.4625	-0.123
Mof_H 	H 	0.4055	0.3648	0.4446	0.065
Mof_C 	C 	0.4239	0.3596	0.5057	0.056
Mof_H 	H 	0.4028	0.3773	0.517	0.011
Mof_C 	C 	0.45325	0.3407	0.532	-0.157
Mof_H 	H 	0.452	0.3448	0.5616	0.091
Mof_C 	C 	0.48396	0.31601	0.5146	0.149
Mof_N 	N 	0.545	0.28131	0.52725	-0.099
Mof_C 	C 	0.57041	0.26009	0.55569	0.172
Mof_C 	C 	0.5985	0.22839	0.60825	0.005
Mof_H 	H 	0.6028	0.2173	0.6356	0.035
Mof_C 	C 	0.62637	0.22516	0.57562	0.005
Mof_H 	H 	0.653	0.2117	0.576	0.035
Mof_H 	H 	0.6026	0.246	0.4797	0.036
Mof_N 	N 	0.29408	0.04625	0.26222	-0.101
Mof_N 	N 	0.34562	0.99984	0.31366	-0.153
Mof_N 	N 	0.29241	0.99537	0.35792	-0.126
Mof_C 	C 	0.22173	0.0586	0.23618	-0.155
Mof_H 	H 	0.2105	0.0411	0.2576	0.09
Mof_C 	C 	0.1955	0.0771	0.2067	0.054
Mof_H 	H 	0.166	0.0726	0.2079	0.005
Mof_C 	C 	0.2125	0.1023	0.1758	-0.123
Mof_H 	H 	0.1946	0.1148	0.1555	0.065
Mof_C 	C 	0.2557	0.1096	0.1739	0.056
Mof_H 	H 	0.267	0.1273	0.1528	0.011
Mof_C 	C 	0.282	0.0907	0.20325	-0.156
Mof_H 	H 	0.3116	0.0948	0.202	0.091
Mof_C 	C 	0.2646	0.06601	0.23396	0.149
Mof_N 	N 	0.27725	0.03131	0.295	-0.099
Mof_C 	C 	0.30569	0.01009	0.32041	0.166
Mof_C 	C 	0.35825	0.97839	0.3485	0.006
Mof_H 	H 	0.3856	0.9673	0.3528	0.035
Mof_C 	C 	0.32562	0.97516	0.37637	0.004
Mof_H 	H 	0.326	0.9617	0.403	0.036
Mof_H 	H 	0.2297	0.996	0.3526	0.044
Mof_N 	N 	0.79408	0.54625	0.76222	-0.101
Mof_N 	N 	0.84562	0.49984	0.81366	-0.157
Mof_N 	N 	0.79241	0.49537	0.85792	-0.131
Mof_C 	C 	0.72173	0.5586	0.73618	-0.155
Mof_H 	H 	0.7105	0.5411	0.7576	0.091
Mof_C 	C 	0.6955	0.5771	0.7067	0.054
Mof_H 	H 	0.666	0.5726	0.7079	0.005
Mof_C 	C 	0.7125	0.6023	0.6758	-0.123
Mof_H 	H 	0.6946	0.6148	0.6555	0.065
Mof_C 	C 	0.7557	0.6096	0.6739	0.056
Mof_H 	H 	0.767	0.6273	0.6528	0.011
Mof_C 	C 	0.782	0.5907	0.70325	-0.157
Mof_H 	H 	0.8116	0.5948	0.702	0.091
Mof_C 	C 	0.7646	0.56601	0.73396	0.149
Mof_N 	N 	0.77725	0.53131	0.795	-0.099
Mof_C 	C 	0.80569	0.51009	0.82041	0.173
Mof_C 	C 	0.85825	0.47839	0.8485	0.005
Mof_H 	H 	0.8856	0.4673	0.8528	0.035
Mof_C 	C 	0.82562	0.47516	0.87637	0.005
Mof_H 	H 	0.826	0.4617	0.903	0.035
Mof_H 	H 	0.7297	0.496	0.8526	0.036
Mof_N 	N 	0.20592	0.95375	0.76222	-0.1
Mof_N 	N 	0.15438	0.00016	0.81366	-0.159
Mof_N 	N 	0.20759	0.00463	0.85792	-0.137
Mof_C 	C 	0.27827	0.9414	0.73618	-0.155
Mof_H 	H 	0.2895	0.9589	0.7576	0.092
Mof_C 	C 	0.3045	0.9229	0.7067	0.055
Mof_H 	H 	0.334	0.9274	0.7079	0.006
Mof_C 	C 	0.2875	0.8977	0.6758	-0.124
Mof_H 	H 	0.3054	0.8852	0.6555	0.065
Mof_C 	C 	0.2443	0.8904	0.6739	0.056
Mof_H 	H 	0.233	0.8727	0.6528	0.01
Mof_C 	C 	0.218	0.9093	0.70325	-0.157
Mof_H 	H 	0.1884	0.9052	0.702	0.091
Mof_C 	C 	0.2354	0.93399	0.73396	0.15
Mof_N 	N 	0.22275	0.96869	0.795	-0.1
Mof_C 	C 	0.19431	0.98991	0.82041	0.179
Mof_C 	C 	0.14175	0.02161	0.8485	0.004
Mof_H 	H 	0.1144	0.0327	0.8528	0.035
Mof_C 	C 	0.17438	0.02484	0.87637	0.005
Mof_H 	H 	0.174	0.0383	0.903	0.034
Mof_H 	H 	0.2703	0.004	0.8526	0.029
Mof_N 	N 	0.70592	0.45375	0.26222	-0.101
Mof_N 	N 	0.65438	0.50016	0.31366	-0.157
Mof_N 	N 	0.70759	0.50463	0.35792	-0.131
Mof_C 	C 	0.77827	0.4414	0.23618	-0.155
Mof_H 	H 	0.7895	0.4589	0.2576	0.091
Mof_C 	C 	0.8045	0.4229	0.2067	0.054
Mof_H 	H 	0.834	0.4274	0.2079	0.005
Mof_C 	C 	0.7875	0.3977	0.1758	-0.123
Mof_H 	H 	0.8054	0.3852	0.1555	0.065
Mof_C 	C 	0.7443	0.3904	0.1739	0.056
Mof_H 	H 	0.733	0.3727	0.1528	0.01
Mof_C 	C 	0.718	0.4093	0.20325	-0.157
Mof_H 	H 	0.6884	0.4052	0.202	0.091
Mof_C 	C 	0.7354	0.43399	0.23396	0.15
Mof_N 	N 	0.72275	0.46869	0.295	-0.099
Mof_C 	C 	0.69431	0.48991	0.32041	0.172
Mof_C 	C 	0.64175	0.52161	0.3485	0.005
Mof_H 	H 	0.6144	0.5327	0.3528	0.035
Mof_C 	C 	0.67438	0.52484	0.37637	0.005
Mof_H 	H 	0.674	0.5383	0.403	0.035
Mof_H 	H 	0.7703	0.504	0.3526	0.036
Mof_N 	N 	0.70592	0.54625	0.23778	-0.101
Mof_N 	N 	0.65438	0.49984	0.18634	-0.157
Mof_N 	N 	0.70759	0.49537	0.14208	-0.131
Mof_C 	C 	0.77827	0.5586	0.26382	-0.155
Mof_H 	H 	0.7895	0.5411	0.2424	0.091
Mof_C 	C 	0.8045	0.5771	0.2933	0.054
Mof_H 	H 	0.834	0.5726	0.2921	0.005
Mof_C 	C 	0.7875	0.6023	0.3242	-0.123
Mof_H 	H 	0.8054	0.6148	0.3445	0.065
Mof_C 	C 	0.7443	0.6096	0.3261	0.056
Mof_H 	H 	0.733	0.6273	0.3472	0.011
Mof_C 	C 	0.718	0.5907	0.29675	-0.157
Mof_H 	H 	0.6884	0.5948	0.298	0.091
Mof_C 	C 	0.7354	0.56601	0.26604	0.15
Mof_N 	N 	0.72275	0.53131	0.205	-0.099
Mof_C 	C 	0.69431	0.51009	0.17959	0.172
Mof_C 	C 	0.64175	0.47839	0.1515	0.005
Mof_H 	H 	0.6144	0.4673	0.1472	0.035
Mof_C 	C 	0.67438	0.47516	0.12363	0.005
Mof_H 	H 	0.674	0.4617	0.097	0.034
Mof_H 	H 	0.7703	0.496	0.1474	0.036
Mof_N 	N 	0.20592	0.04625	0.73778	-0.101
Mof_N 	N 	0.15438	0.99984	0.68634	-0.153
Mof_N 	N 	0.20759	0.99537	0.64208	-0.126
Mof_C 	C 	0.27827	0.0586	0.76382	-0.155
Mof_H 	H 	0.2895	0.0411	0.7424	0.09
Mof_C 	C 	0.3045	0.0771	0.7933	0.054
Mof_H 	H 	0.334	0.0726	0.7921	0.005
Mof_C 	C 	0.2875	0.1023	0.8242	-0.123
Mof_H 	H 	0.3054	0.1148	0.8445	0.065
Mof_C 	C 	0.2443	0.1096	0.8261	0.056
Mof_H 	H 	0.233	0.1273	0.8472	0.011
Mof_C 	C 	0.218	0.0907	0.79675	-0.156
Mof_H 	H 	0.1884	0.0948	0.798	0.091
Mof_C 	C 	0.2354	0.06601	0.76604	0.149
Mof_N 	N 	0.22275	0.03131	0.705	-0.099
Mof_C 	C 	0.19431	0.01009	0.67959	0.166
Mof_C 	C 	0.14175	0.97839	0.6515	0.006
Mof_H 	H 	0.1144	0.9673	0.6472	0.035
Mof_C 	C 	0.17438	0.97516	0.62363	0.004
Mof_H 	H 	0.174	0.9617	0.597	0.036
Mof_H 	H 	0.2703	0.996	0.6474	0.043
Mof_N 	N 	0.79408	0.45375	0.73778	-0.101
Mof_N 	N 	0.84562	0.50016	0.68634	-0.157
Mof_N 	N 	0.79241	0.50463	0.64208	-0.131
Mof_C 	C 	0.72173	0.4414	0.76382	-0.155
Mof_H 	H 	0.7105	0.4589	0.7424	0.091
Mof_C 	C 	0.6955	0.4229	0.7933	0.054
Mof_H 	H 	0.666	0.4274	0.7921	0.005
Mof_C 	C 	0.7125	0.3977	0.8242	-0.123
Mof_H 	H 	0.6946	0.3852	0.8445	0.065
Mof_C 	C 	0.7557	0.3904	0.8261	0.056
Mof_H 	H 	0.767	0.3727	0.8472	0.011
Mof_C 	C 	0.782	0.4093	0.79675	-0.157
Mof_H 	H 	0.8116	0.4052	0.798	0.091
Mof_C 	C 	0.7646	0.43399	0.76604	0.149
Mof_N 	N 	0.77725	0.46869	0.705	-0.099
Mof_C 	C 	0.80569	0.48991	0.67959	0.172
Mof_C 	C 	0.85825	0.52161	0.6515	0.005
Mof_H 	H 	0.8856	0.5327	0.6472	0.035
Mof_C 	C 	0.82562	0.52484	0.62363	0.005
Mof_H 	H 	0.826	0.5383	0.597	0.035
Mof_H 	H 	0.7297	0.504	0.6474	0.036
Mof_N 	N 	0.29408	0.95375	0.23778	-0.1
Mof_N 	N 	0.34562	0.00016	0.18634	-0.159
Mof_N 	N 	0.29241	0.00463	0.14208	-0.137
Mof_C 	C 	0.22173	0.9414	0.26382	-0.155
Mof_H 	H 	0.2105	0.9589	0.2424	0.092
Mof_C 	C 	0.1955	0.9229	0.2933	0.055
Mof_H 	H 	0.166	0.9274	0.2921	0.006
Mof_C 	C 	0.2125	0.8977	0.3242	-0.123
Mof_H 	H 	0.1946	0.8852	0.3445	0.065
Mof_C 	C 	0.2557	0.8904	0.3261	0.056
Mof_H 	H 	0.267	0.8727	0.3472	0.01
Mof_C 	C 	0.282	0.9093	0.29675	-0.157
Mof_H 	H 	0.3116	0.9052	0.298	0.091
Mof_C 	C 	0.2646	0.93399	0.26604	0.15
Mof_N 	N 	0.27725	0.96869	0.205	-0.1
Mof_C 	C 	0.30569	0.98991	0.17959	0.179
Mof_C 	C 	0.35825	0.02161	0.1515	0.004
Mof_H 	H 	0.3856	0.0327	0.1472	0.034
Mof_C 	C 	0.32562	0.02484	0.12363	0.005
Mof_H 	H 	0.326	0.0383	0.097	0.033
Mof_H 	H 	0.2297	0.004	0.1474	0.029
Mof_N 	N 	0.26222	0.29408	0.04625	-0.101
Mof_N 	N 	0.31366	0.34562	0.99984	-0.153
Mof_N 	N 	0.35792	0.29241	0.99537	-0.126
Mof_C 	C 	0.23618	0.22173	0.0586	-0.155
Mof_H 	H 	0.2576	0.2105	0.0411	0.09
Mof_C 	C 	0.2067	0.1955	0.0771	0.054
Mof_H 	H 	0.2079	0.166	0.0726	0.005
Mof_C 	C 	0.1758	0.2125	0.1023	-0.123
Mof_H 	H 	0.1555	0.1946	0.1148	0.065
Mof_C 	C 	0.1739	0.2557	0.1096	0.056
Mof_H 	H 	0.1528	0.267	0.1273	0.011
Mof_C 	C 	0.20325	0.282	0.0907	-0.156
Mof_H 	H 	0.202	0.3116	0.0948	0.091
Mof_C 	C 	0.23396	0.2646	0.06601	0.149
Mof_N 	N 	0.295	0.27725	0.03131	-0.099
Mof_C 	C 	0.32041	0.30569	0.01009	0.166
Mof_C 	C 	0.3485	0.35825	0.97839	0.006
Mof_H 	H 	0.3528	0.3856	0.9673	0.035
Mof_C 	C 	0.37637	0.32562	0.97516	0.004
Mof_H 	H 	0.403	0.326	0.9617	0.036
Mof_H 	H 	0.3526	0.2297	0.996	0.044
Mof_N 	N 	0.76222	0.79408	0.54625	-0.101
Mof_N 	N 	0.81366	0.84562	0.49984	-0.157
Mof_N 	N 	0.85792	0.79241	0.49537	-0.131
Mof_C 	C 	0.73618	0.72173	0.5586	-0.155
Mof_H 	H 	0.7576	0.7105	0.5411	0.091
Mof_C 	C 	0.7067	0.6955	0.5771	0.054
Mof_H 	H 	0.7079	0.666	0.5726	0.005
Mof_C 	C 	0.6758	0.7125	0.6023	-0.123
Mof_H 	H 	0.6555	0.6946	0.6148	0.065
Mof_C 	C 	0.6739	0.7557	0.6096	0.056
Mof_H 	H 	0.6528	0.767	0.6273	0.011
Mof_C 	C 	0.70325	0.782	0.5907	-0.157
Mof_H 	H 	0.702	0.8116	0.5948	0.091
Mof_C 	C 	0.73396	0.7646	0.56601	0.149
Mof_N 	N 	0.795	0.77725	0.53131	-0.099
Mof_C 	C 	0.82041	0.80569	0.51009	0.173
Mof_C 	C 	0.8485	0.85825	0.47839	0.005
Mof_H 	H 	0.8528	0.8856	0.4673	0.035
Mof_C 	C 	0.87637	0.82562	0.47516	0.005
Mof_H 	H 	0.903	0.826	0.4617	0.035
Mof_H 	H 	0.8526	0.7297	0.496	0.036
Mof_N 	N 	0.76222	0.20592	0.95375	-0.1
Mof_N 	N 	0.81366	0.15438	0.00016	-0.159
Mof_N 	N 	0.85792	0.20759	0.00463	-0.137
Mof_C 	C 	0.73618	0.27827	0.9414	-0.155
Mof_H 	H 	0.7576	0.2895	0.9589	0.092
Mof_C 	C 	0.7067	0.3045	0.9229	0.055
Mof_H 	H 	0.7079	0.334	0.9274	0.006
Mof_C 	C 	0.6758	0.2875	0.8977	-0.124
Mof_H 	H 	0.6555	0.3054	0.8852	0.065
Mof_C 	C 	0.6739	0.2443	0.8904	0.056
Mof_H 	H 	0.6528	0.233	0.8727	0.01
Mof_C 	C 	0.70325	0.218	0.9093	-0.157
Mof_H 	H 	0.702	0.1884	0.9052	0.091
Mof_C 	C 	0.73396	0.2354	0.93399	0.15
Mof_N 	N 	0.795	0.22275	0.96869	-0.1
Mof_C 	C 	0.82041	0.19431	0.98991	0.179
Mof_C 	C 	0.8485	0.14175	0.02161	0.004
Mof_H 	H 	0.8528	0.1144	0.0327	0.035
Mof_C 	C 	0.87637	0.17438	0.02484	0.005
Mof_H 	H 	0.903	0.174	0.0383	0.034
Mof_H 	H 	0.8526	0.2703	0.004	0.029
Mof_N 	N 	0.26222	0.70592	0.45375	-0.101
Mof_N 	N 	0.31366	0.65438	0.50016	-0.157
Mof_N 	N 	0.35792	0.70759	0.50463	-0.131
Mof_C 	C 	0.23618	0.77827	0.4414	-0.155
Mof_H 	H 	0.2576	0.7895	0.4589	0.091
Mof_C 	C 	0.2067	0.8045	0.4229	0.054
Mof_H 	H 	0.2079	0.834	0.4274	0.005
Mof_C 	C 	0.1758	0.7875	0.3977	-0.123
Mof_H 	H 	0.1555	0.8054	0.3852	0.065
Mof_C 	C 	0.1739	0.7443	0.3904	0.056
Mof_H 	H 	0.1528	0.733	0.3727	0.01
Mof_C 	C 	0.20325	0.718	0.4093	-0.157
Mof_H 	H 	0.202	0.6884	0.4052	0.091
Mof_C 	C 	0.23396	0.7354	0.43399	0.15
Mof_N 	N 	0.295	0.72275	0.46869	-0.099
Mof_C 	C 	0.32041	0.69431	0.48991	0.172
Mof_C 	C 	0.3485	0.64175	0.52161	0.005
Mof_H 	H 	0.3528	0.6144	0.5327	0.035
Mof_C 	C 	0.37637	0.67438	0.52484	0.005
Mof_H 	H 	0.403	0.674	0.5383	0.035
Mof_H 	H 	0.3526	0.7703	0.504	0.036
Mof_N 	N 	0.23778	0.70592	0.54625	-0.101
Mof_N 	N 	0.18634	0.65438	0.49984	-0.157
Mof_N 	N 	0.14208	0.70759	0.49537	-0.131
Mof_C 	C 	0.26382	0.77827	0.5586	-0.155
Mof_H 	H 	0.2424	0.7895	0.5411	0.091
Mof_C 	C 	0.2933	0.8045	0.5771	0.054
Mof_H 	H 	0.2921	0.834	0.5726	0.005
Mof_C 	C 	0.3242	0.7875	0.6023	-0.123
Mof_H 	H 	0.3445	0.8054	0.6148	0.065
Mof_C 	C 	0.3261	0.7443	0.6096	0.056
Mof_H 	H 	0.3472	0.733	0.6273	0.011
Mof_C 	C 	0.29675	0.718	0.5907	-0.157
Mof_H 	H 	0.298	0.6884	0.5948	0.091
Mof_C 	C 	0.26604	0.7354	0.56601	0.15
Mof_N 	N 	0.205	0.72275	0.53131	-0.099
Mof_C 	C 	0.17959	0.69431	0.51009	0.172
Mof_C 	C 	0.1515	0.64175	0.47839	0.005
Mof_H 	H 	0.1472	0.6144	0.4673	0.035
Mof_C 	C 	0.12363	0.67438	0.47516	0.005
Mof_H 	H 	0.097	0.674	0.4617	0.034
Mof_H 	H 	0.1474	0.7703	0.496	0.036
Mof_N 	N 	0.73778	0.20592	0.04625	-0.101
Mof_N 	N 	0.68634	0.15438	0.99984	-0.153
Mof_N 	N 	0.64208	0.20759	0.99537	-0.126
Mof_C 	C 	0.76382	0.27827	0.0586	-0.155
Mof_H 	H 	0.7424	0.2895	0.0411	0.09
Mof_C 	C 	0.7933	0.3045	0.0771	0.054
Mof_H 	H 	0.7921	0.334	0.0726	0.005
Mof_C 	C 	0.8242	0.2875	0.1023	-0.123
Mof_H 	H 	0.8445	0.3054	0.1148	0.065
Mof_C 	C 	0.8261	0.2443	0.1096	0.056
Mof_H 	H 	0.8472	0.233	0.1273	0.011
Mof_C 	C 	0.79675	0.218	0.0907	-0.156
Mof_H 	H 	0.798	0.1884	0.0948	0.091
Mof_C 	C 	0.76604	0.2354	0.06601	0.149
Mof_N 	N 	0.705	0.22275	0.03131	-0.099
Mof_C 	C 	0.67959	0.19431	0.01009	0.166
Mof_C 	C 	0.6515	0.14175	0.97839	0.006
Mof_H 	H 	0.6472	0.1144	0.9673	0.035
Mof_C 	C 	0.62363	0.17438	0.97516	0.004
Mof_H 	H 	0.597	0.174	0.9617	0.036
Mof_H 	H 	0.6474	0.2703	0.996	0.043
Mof_N 	N 	0.73778	0.79408	0.45375	-0.101
Mof_N 	N 	0.68634	0.84562	0.50016	-0.157
Mof_N 	N 	0.64208	0.79241	0.50463	-0.131
Mof_C 	C 	0.76382	0.72173	0.4414	-0.155
Mof_H 	H 	0.7424	0.7105	0.4589	0.091
Mof_C 	C 	0.7933	0.6955	0.4229	0.054
Mof_H 	H 	0.7921	0.666	0.4274	0.005
Mof_C 	C 	0.8242	0.7125	0.3977	-0.123
Mof_H 	H 	0.8445	0.6946	0.3852	0.065
Mof_C 	C 	0.8261	0.7557	0.3904	0.056
Mof_H 	H 	0.8472	0.767	0.3727	0.011
Mof_C 	C 	0.79675	0.782	0.4093	-0.157
Mof_H 	H 	0.798	0.8116	0.4052	0.091
Mof_C 	C 	0.76604	0.7646	0.43399	0.149
Mof_N 	N 	0.705	0.77725	0.46869	-0.099
Mof_C 	C 	0.67959	0.80569	0.48991	0.172
Mof_C 	C 	0.6515	0.85825	0.52161	0.005
Mof_H 	H 	0.6472	0.8856	0.5327	0.035
Mof_C 	C 	0.62363	0.82562	0.52484	0.005
Mof_H 	H 	0.597	0.826	0.5383	0.035
Mof_H 	H 	0.6474	0.7297	0.504	0.036
Mof_N 	N 	0.23778	0.29408	0.95375	-0.1
Mof_N 	N 	0.18634	0.34562	0.00016	-0.159
Mof_N 	N 	0.14208	0.29241	0.00463	-0.137
Mof_C 	C 	0.26382	0.22173	0.9414	-0.155
Mof_H 	H 	0.2424	0.2105	0.9589	0.092
Mof_C 	C 	0.2933	0.1955	0.9229	0.055
Mof_H 	H 	0.2921	0.166	0.9274	0.006
Mof_C 	C 	0.3242	0.2125	0.8977	-0.123
Mof_H 	H 	0.3445	0.1946	0.8852	0.065
Mof_C 	C 	0.3261	0.2557	0.8904	0.056
Mof_H 	H 	0.3472	0.267	0.8727	0.01
Mof_C 	C 	0.29675	0.282	0.9093	-0.157
Mof_H 	H 	0.298	0.3116	0.9052	0.091
Mof_C 	C 	0.26604	0.2646	0.93399	0.15
Mof_N 	N 	0.205	0.27725	0.96869	-0.1
Mof_C 	C 	0.17959	0.30569	0.98991	0.179
Mof_C 	C 	0.1515	0.35825	0.02161	0.004
Mof_H 	H 	0.1472	0.3856	0.0327	0.034
Mof_C 	C 	0.12363	0.32562	0.02484	0.005
Mof_H 	H 	0.097	0.326	0.0383	0.033
Mof_H 	H 	0.1474	0.2297	0.004	0.029
Mof_N 	N 	0.04625	0.26222	0.29408	-0.101
Mof_N 	N 	0.99984	0.31366	0.34562	-0.153
Mof_N 	N 	0.99537	0.35792	0.29241	-0.126
Mof_C 	C 	0.0586	0.23618	0.22173	-0.155
Mof_H 	H 	0.0411	0.2576	0.2105	0.09
Mof_C 	C 	0.0771	0.2067	0.1955	0.054
Mof_H 	H 	0.0726	0.2079	0.166	0.005
Mof_C 	C 	0.1023	0.1758	0.2125	-0.123
Mof_H 	H 	0.1148	0.1555	0.1946	0.065
Mof_C 	C 	0.1096	0.1739	0.2557	0.056
Mof_H 	H 	0.1273	0.1528	0.267	0.011
Mof_C 	C 	0.0907	0.20325	0.282	-0.156
Mof_H 	H 	0.0948	0.202	0.3116	0.091
Mof_C 	C 	0.06601	0.23396	0.2646	0.149
Mof_N 	N 	0.03131	0.295	0.27725	-0.099
Mof_C 	C 	0.01009	0.32041	0.30569	0.166
Mof_C 	C 	0.97839	0.3485	0.35825	0.006
Mof_H 	H 	0.9673	0.3528	0.3856	0.035
Mof_C 	C 	0.97516	0.37637	0.32562	0.004
Mof_H 	H 	0.9617	0.403	0.326	0.036
Mof_H 	H 	0.996	0.3526	0.2297	0.044
Mof_N 	N 	0.54625	0.76222	0.79408	-0.101
Mof_N 	N 	0.49984	0.81366	0.84562	-0.157
Mof_N 	N 	0.49537	0.85792	0.79241	-0.131
Mof_C 	C 	0.5586	0.73618	0.72173	-0.155
Mof_H 	H 	0.5411	0.7576	0.7105	0.091
Mof_C 	C 	0.5771	0.7067	0.6955	0.054
Mof_H 	H 	0.5726	0.7079	0.666	0.005
Mof_C 	C 	0.6023	0.6758	0.7125	-0.123
Mof_H 	H 	0.6148	0.6555	0.6946	0.065
Mof_C 	C 	0.6096	0.6739	0.7557	0.056
Mof_H 	H 	0.6273	0.6528	0.767	0.011
Mof_C 	C 	0.5907	0.70325	0.782	-0.157
Mof_H 	H 	0.5948	0.702	0.8116	0.091
Mof_C 	C 	0.56601	0.73396	0.7646	0.149
Mof_N 	N 	0.53131	0.795	0.77725	-0.099
Mof_C 	C 	0.51009	0.82041	0.80569	0.173
Mof_C 	C 	0.47839	0.8485	0.85825	0.005
Mof_H 	H 	0.4673	0.8528	0.8856	0.035
Mof_C 	C 	0.47516	0.87637	0.82562	0.005
Mof_H 	H 	0.4617	0.903	0.826	0.035
Mof_H 	H 	0.496	0.8526	0.7297	0.036
Mof_N 	N 	0.95375	0.76222	0.20592	-0.1
Mof_N 	N 	0.00016	0.81366	0.15438	-0.159
Mof_N 	N 	0.00463	0.85792	0.20759	-0.137
Mof_C 	C 	0.9414	0.73618	0.27827	-0.155
Mof_H 	H 	0.9589	0.7576	0.2895	0.092
Mof_C 	C 	0.9229	0.7067	0.3045	0.055
Mof_H 	H 	0.9274	0.7079	0.334	0.006
Mof_C 	C 	0.8977	0.6758	0.2875	-0.124
Mof_H 	H 	0.8852	0.6555	0.3054	0.065
Mof_C 	C 	0.8904	0.6739	0.2443	0.056
Mof_H 	H 	0.8727	0.6528	0.233	0.01
Mof_C 	C 	0.9093	0.70325	0.218	-0.157
Mof_H 	H 	0.9052	0.702	0.1884	0.091
Mof_C 	C 	0.93399	0.73396	0.2354	0.15
Mof_N 	N 	0.96869	0.795	0.22275	-0.1
Mof_C 	C 	0.98991	0.82041	0.19431	0.179
Mof_C 	C 	0.02161	0.8485	0.14175	0.004
Mof_H 	H 	0.0327	0.8528	0.1144	0.035
Mof_C 	C 	0.02484	0.87637	0.17438	0.005
Mof_H 	H 	0.0383	0.903	0.174	0.034
Mof_H 	H 	0.004	0.8526	0.2703	0.029
Mof_N 	N 	0.45375	0.26222	0.70592	-0.101
Mof_N 	N 	0.50016	0.31366	0.65438	-0.157
Mof_N 	N 	0.50463	0.35792	0.70759	-0.131
Mof_C 	C 	0.4414	0.23618	0.77827	-0.155
Mof_H 	H 	0.4589	0.2576	0.7895	0.091
Mof_C 	C 	0.4229	0.2067	0.8045	0.054
Mof_H 	H 	0.4274	0.2079	0.834	0.005
Mof_C 	C 	0.3977	0.1758	0.7875	-0.123
Mof_H 	H 	0.3852	0.1555	0.8054	0.065
Mof_C 	C 	0.3904	0.1739	0.7443	0.056
Mof_H 	H 	0.3727	0.1528	0.733	0.01
Mof_C 	C 	0.4093	0.20325	0.718	-0.157
Mof_H 	H 	0.4052	0.202	0.6884	0.091
Mof_C 	C 	0.43399	0.23396	0.7354	0.15
Mof_N 	N 	0.46869	0.295	0.72275	-0.099
Mof_C 	C 	0.48991	0.32041	0.69431	0.172
Mof_C 	C 	0.52161	0.3485	0.64175	0.005
Mof_H 	H 	0.5327	0.3528	0.6144	0.035
Mof_C 	C 	0.52484	0.37637	0.67438	0.005
Mof_H 	H 	0.5383	0.403	0.674	0.035
Mof_H 	H 	0.504	0.3526	0.7703	0.036
Mof_N 	N 	0.54625	0.23778	0.70592	-0.101
Mof_N 	N 	0.49984	0.18634	0.65438	-0.157
Mof_N 	N 	0.49537	0.14208	0.70759	-0.131
Mof_C 	C 	0.5586	0.26382	0.77827	-0.155
Mof_H 	H 	0.5411	0.2424	0.7895	0.091
Mof_C 	C 	0.5771	0.2933	0.8045	0.054
Mof_H 	H 	0.5726	0.2921	0.834	0.005
Mof_C 	C 	0.6023	0.3242	0.7875	-0.123
Mof_H 	H 	0.6148	0.3445	0.8054	0.065
Mof_C 	C 	0.6096	0.3261	0.7443	0.056
Mof_H 	H 	0.6273	0.3472	0.733	0.011
Mof_C 	C 	0.5907	0.29675	0.718	-0.157
Mof_H 	H 	0.5948	0.298	0.6884	0.091
Mof_C 	C 	0.56601	0.26604	0.7354	0.15
Mof_N 	N 	0.53131	0.205	0.72275	-0.099
Mof_C 	C 	0.51009	0.17959	0.69431	0.172
Mof_C 	C 	0.47839	0.1515	0.64175	0.005
Mof_H 	H 	0.4673	0.1472	0.6144	0.035
Mof_C 	C 	0.47516	0.12363	0.67438	0.005
Mof_H 	H 	0.4617	0.097	0.674	0.034
Mof_H 	H 	0.496	0.1474	0.7703	0.036
Mof_N 	N 	0.04625	0.73778	0.20592	-0.101
Mof_N 	N 	0.99984	0.68634	0.15438	-0.153
Mof_N 	N 	0.99537	0.64208	0.20759	-0.126
Mof_C 	C 	0.0586	0.76382	0.27827	-0.155
Mof_H 	H 	0.0411	0.7424	0.2895	0.09
Mof_C 	C 	0.0771	0.7933	0.3045	0.054
Mof_H 	H 	0.0726	0.7921	0.334	0.005
Mof_C 	C 	0.1023	0.8242	0.2875	-0.123
Mof_H 	H 	0.1148	0.8445	0.3054	0.065
Mof_C 	C 	0.1096	0.8261	0.2443	0.056
Mof_H 	H 	0.1273	0.8472	0.233	0.011
Mof_C 	C 	0.0907	0.79675	0.218	-0.156
Mof_H 	H 	0.0948	0.798	0.1884	0.091
Mof_C 	C 	0.06601	0.76604	0.2354	0.149
Mof_N 	N 	0.03131	0.705	0.22275	-0.099
Mof_C 	C 	0.01009	0.67959	0.19431	0.166
Mof_C 	C 	0.97839	0.6515	0.14175	0.006
Mof_H 	H 	0.9673	0.6472	0.1144	0.035
Mof_C 	C 	0.97516	0.62363	0.17438	0.004
Mof_H 	H 	0.9617	0.597	0.174	0.036
Mof_H 	H 	0.996	0.6474	0.2703	0.043
Mof_N 	N 	0.45375	0.73778	0.79408	-0.101
Mof_N 	N 	0.50016	0.68634	0.84562	-0.157
Mof_N 	N 	0.50463	0.64208	0.79241	-0.131
Mof_C 	C 	0.4414	0.76382	0.72173	-0.155
Mof_H 	H 	0.4589	0.7424	0.7105	0.091
Mof_C 	C 	0.4229	0.7933	0.6955	0.054
Mof_H 	H 	0.4274	0.7921	0.666	0.005
Mof_C 	C 	0.3977	0.8242	0.7125	-0.123
Mof_H 	H 	0.3852	0.8445	0.6946	0.065
Mof_C 	C 	0.3904	0.8261	0.7557	0.056
Mof_H 	H 	0.3727	0.8472	0.767	0.011
Mof_C 	C 	0.4093	0.79675	0.782	-0.157
Mof_H 	H 	0.4052	0.798	0.8116	0.091
Mof_C 	C 	0.43399	0.76604	0.7646	0.149
Mof_N 	N 	0.46869	0.705	0.77725	-0.099
Mof_C 	C 	0.48991	0.67959	0.80569	0.172
Mof_C 	C 	0.52161	0.6515	0.85825	0.005
Mof_H 	H 	0.5327	0.6472	0.8856	0.035
Mof_C 	C 	0.52484	0.62363	0.82562	0.005
Mof_H 	H 	0.5383	0.597	0.826	0.035
Mof_H 	H 	0.504	0.6474	0.7297	0.036
Mof_N 	N 	0.95375	0.23778	0.29408	-0.1
Mof_N 	N 	0.00016	0.18634	0.34562	-0.159
Mof_N 	N 	0.00463	0.14208	0.29241	-0.137
Mof_C 	C 	0.9414	0.26382	0.22173	-0.155
Mof_H 	H 	0.9589	0.2424	0.2105	0.092
Mof_C 	C 	0.9229	0.2933	0.1955	0.055
Mof_H 	H 	0.9274	0.2921	0.166	0.006
Mof_C 	C 	0.8977	0.3242	0.2125	-0.123
Mof_H 	H 	0.8852	0.3445	0.1946	0.065
Mof_C 	C 	0.8904	0.3261	0.2557	0.056
Mof_H 	H 	0.8727	0.3472	0.267	0.01
Mof_C 	C 	0.9093	0.29675	0.282	-0.157
Mof_H 	H 	0.9052	0.298	0.3116	0.091
Mof_C 	C 	0.93399	0.26604	0.2646	0.15
Mof_N 	N 	0.96869	0.205	0.27725	-0.1
Mof_C 	C 	0.98991	0.17959	0.30569	0.179
Mof_C 	C 	0.02161	0.1515	0.35825	0.004
Mof_H 	H 	0.0327	0.1472	0.3856	0.034
Mof_C 	C 	0.02484	0.12363	0.32562	0.005
Mof_H 	H 	0.0383	0.097	0.326	0.033
Mof_H 	H 	0.004	0.1474	0.2297	0.029
Mof_N 	N 	0.29625	0.04408	0.48778	-0.099
Mof_N 	N 	0.24984	0.09562	0.43634	-0.157
Mof_N 	N 	0.24537	0.04241	0.39208	-0.129
Mof_C 	C 	0.3086	0.97173	0.51382	-0.141
Mof_H 	H 	0.2911	0.9605	0.4924	0.087
Mof_C 	C 	0.3271	0.9455	0.5433	0.042
Mof_H 	H 	0.3226	0.916	0.5421	0.01
Mof_C 	C 	0.3523	0.9625	0.5742	-0.108
Mof_H 	H 	0.3648	0.9446	0.5945	0.061
Mof_C 	C 	0.3596	0.0057	0.5761	0.041
Mof_H 	H 	0.3773	0.017	0.5972	0.015
Mof_C 	C 	0.3407	0.032	0.54675	-0.146
Mof_H 	H 	0.3448	0.0616	0.548	0.087
Mof_C 	C 	0.31601	0.0146	0.51604	0.138
Mof_N 	N 	0.28131	0.02725	0.455	-0.1
Mof_C 	C 	0.26009	0.05569	0.42959	0.172
Mof_C 	C 	0.22839	0.10825	0.4015	0.006
Mof_H 	H 	0.2173	0.1356	0.3972	0.035
Mof_C 	C 	0.22516	0.07562	0.37363	0.004
Mof_H 	H 	0.2117	0.076	0.347	0.035
Mof_H 	H 	0.246	0.9797	0.3974	0.043
Mof_N 	N 	0.79625	0.54408	0.98778	-0.099
Mof_N 	N 	0.74984	0.59562	0.93634	-0.156
Mof_N 	N 	0.74537	0.54241	0.89208	-0.131
Mof_C 	C 	0.8086	0.47173	0.01382	-0.164
Mof_H 	H 	0.7911	0.4605	0.9924	0.097
Mof_C 	C 	0.8271	0.4455	0.0433	0.059
Mof_H 	H 	0.8226	0.416	0.0421	0.003
Mof_C 	C 	0.8523	0.4625	0.0742	-0.127
Mof_H 	H 	0.8648	0.4446	0.0945	0.066
Mof_C 	C 	0.8596	0.5057	0.0761	0.058
Mof_H 	H 	0.8773	0.517	0.0972	0.01
Mof_C 	C 	0.8407	0.532	0.04675	-0.158
Mof_H 	H 	0.8448	0.5616	0.048	0.091
Mof_C 	C 	0.81601	0.5146	0.01604	0.15
Mof_N 	N 	0.78131	0.52725	0.955	-0.099
Mof_C 	C 	0.76009	0.55569	0.92959	0.173
Mof_C 	C 	0.72839	0.60825	0.9015	0.005
Mof_H 	H 	0.7173	0.6356	0.8972	0.035
Mof_C 	C 	0.72516	0.57562	0.87363	0.005
Mof_H 	H 	0.7117	0.576	0.847	0.035
Mof_H 	H 	0.746	0.4797	0.8974	0.036
Mof_N 	N 	0.20375	0.95592	0.98778	-0.1
Mof_N 	N 	0.25016	0.90438	0.93634	-0.156
Mof_N 	N 	0.25463	0.95759	0.89208	-0.134
Mof_C 	C 	0.1914	0.02827	0.01382	-0.178
Mof_H 	H 	0.2089	0.0395	0.9924	0.1
Mof_C 	C 	0.1729	0.0545	0.0433	0.071
Mof_H 	H 	0.1774	0.084	0.0421	-0.001
Mof_C 	C 	0.1477	0.0375	0.0742	-0.142
Mof_H 	H 	0.1352	0.0554	0.0945	0.071
Mof_C 	C 	0.1404	0.9943	0.0761	0.073
Mof_H 	H 	0.1227	0.983	0.0972	0.005
Mof_C 	C 	0.1593	0.968	0.04675	-0.169
Mof_H 	H 	0.1552	0.9384	0.048	0.094
Mof_C 	C 	0.18399	0.9854	0.01604	0.161
Mof_N 	N 	0.21869	0.97275	0.955	-0.098
Mof_C 	C 	0.23991	0.94431	0.92959	0.174
Mof_C 	C 	0.27161	0.89175	0.9015	0.005
Mof_H 	H 	0.2827	0.8644	0.8972	0.035
Mof_C 	C 	0.27484	0.92438	0.87363	0.006
Mof_H 	H 	0.2883	0.924	0.847	0.035
Mof_H 	H 	0.254	0.0203	0.8974	0.029
Mof_N 	N 	0.70375	0.45592	0.48778	-0.101
Mof_N 	N 	0.75016	0.40438	0.43634	-0.157
Mof_N 	N 	0.75463	0.45759	0.39208	-0.131
Mof_C 	C 	0.6914	0.52827	0.51382	-0.155
Mof_H 	H 	0.7089	0.5395	0.4924	0.091
Mof_C 	C 	0.6729	0.5545	0.5433	0.054
Mof_H 	H 	0.6774	0.584	0.5421	0.005
Mof_C 	C 	0.6477	0.5375	0.5742	-0.123
Mof_H 	H 	0.6352	0.5554	0.5945	0.065
Mof_C 	C 	0.6404	0.4943	0.5761	0.056
Mof_H 	H 	0.6227	0.483	0.5972	0.011
Mof_C 	C 	0.6593	0.468	0.54675	-0.157
Mof_H 	H 	0.6552	0.4384	0.548	0.091
Mof_C 	C 	0.68399	0.4854	0.51604	0.149
Mof_N 	N 	0.71869	0.47275	0.455	-0.099
Mof_C 	C 	0.73991	0.44431	0.42959	0.172
Mof_C 	C 	0.77161	0.39175	0.4015	0.005
Mof_H 	H 	0.7827	0.3644	0.3972	0.035
Mof_C 	C 	0.77484	0.42438	0.37363	0.005
Mof_H 	H 	0.7883	0.424	0.347	0.035
Mof_H 	H 	0.754	0.5203	0.3974	0.036
Mof_N 	N 	0.79625	0.45592	0.51222	-0.101
Mof_N 	N 	0.74984	0.40438	0.56366	-0.157
Mof_N 	N 	0.74537	0.45759	0.60792	-0.131
Mof_C 	C 	0.8086	0.52827	0.48618	-0.155
Mof_H 	H 	0.7911	0.5395	0.5076	0.091
Mof_C 	C 	0.8271	0.5545	0.4567	0.054
Mof_H 	H 	0.8226	0.584	0.4579	0.006
Mof_C 	C 	0.8523	0.5375	0.4258	-0.123
Mof_H 	H 	0.8648	0.5554	0.4055	0.065
Mof_C 	C 	0.8596	0.4943	0.4239	0.056
Mof_H 	H 	0.8773	0.483	0.4028	0.011
Mof_C 	C 	0.8407	0.468	0.45325	-0.157
Mof_H 	H 	0.8448	0.4384	0.452	0.091
Mof_C 	C 	0.81601	0.4854	0.48396	0.15
Mof_N 	N 	0.78131	0.47275	0.545	-0.099
Mof_C 	C 	0.76009	0.44431	0.57041	0.173
Mof_C 	C 	0.72839	0.39175	0.5985	0.005
Mof_H 	H 	0.7173	0.3644	0.6028	0.035
Mof_C 	C 	0.72516	0.42438	0.62637	0.005
Mof_H 	H 	0.7117	0.424	0.653	0.035
Mof_H 	H 	0.746	0.5203	0.6026	0.036
Mof_N 	N 	0.29625	0.95592	0.01222	-0.104
Mof_N 	N 	0.24984	0.90438	0.06366	-0.157
Mof_N 	N 	0.24537	0.95759	0.10792	-0.133
Mof_C 	C 	0.3086	0.02827	0.98618	-0.16
Mof_H 	H 	0.2911	0.0395	0.0076	0.09
Mof_C 	C 	0.3271	0.0545	0.9567	0.062
Mof_H 	H 	0.3226	0.084	0.9579	0.004
Mof_C 	C 	0.3523	0.0375	0.9258	-0.135
Mof_H 	H 	0.3648	0.0554	0.9055	0.069
Mof_C 	C 	0.3596	0.9943	0.9239	0.069
Mof_H 	H 	0.3773	0.983	0.9028	0.007
Mof_C 	C 	0.3407	0.968	0.95325	-0.165
Mof_H 	H 	0.3448	0.9384	0.952	0.095
Mof_C 	C 	0.31601	0.9854	0.98396	0.16
Mof_N 	N 	0.28131	0.97275	0.045	-0.099
Mof_C 	C 	0.26009	0.94431	0.07041	0.173
Mof_C 	C 	0.22839	0.89175	0.0985	0.004
Mof_H 	H 	0.2173	0.8644	0.1028	0.035
Mof_C 	C 	0.22516	0.92438	0.12637	0.006
Mof_H 	H 	0.2117	0.924	0.153	0.035
Mof_H 	H 	0.246	0.0203	0.1026	0.029
Mof_N 	N 	0.70375	0.54408	0.01222	-0.102
Mof_N 	N 	0.75016	0.59562	0.06366	-0.157
Mof_N 	N 	0.75463	0.54241	0.10792	-0.131
Mof_C 	C 	0.6914	0.47173	0.98618	-0.146
Mof_H 	H 	0.7089	0.4605	0.0076	0.086
Mof_C 	C 	0.6729	0.4455	0.9567	0.049
Mof_H 	H 	0.6774	0.416	0.9579	0.008
Mof_C 	C 	0.6477	0.4625	0.9258	-0.12
Mof_H 	H 	0.6352	0.4446	0.9055	0.064
Mof_C 	C 	0.6404	0.5057	0.9239	0.054
Mof_H 	H 	0.6227	0.517	0.9028	0.011
Mof_C 	C 	0.6593	0.532	0.95325	-0.155
Mof_H 	H 	0.6552	0.5616	0.952	0.091
Mof_C 	C 	0.68399	0.5146	0.98396	0.149
Mof_N 	N 	0.71869	0.52725	0.045	-0.1
Mof_C 	C 	0.73991	0.55569	0.07041	0.172
Mof_C 	C 	0.77161	0.60825	0.0985	0.005
Mof_H 	H 	0.7827	0.6356	0.1028	0.035
Mof_C 	C 	0.77484	0.57562	0.12637	0.005
Mof_H 	H 	0.7883	0.576	0.153	0.035
Mof_H 	H 	0.754	0.4797	0.1026	0.036
Mof_N 	N 	0.20375	0.04408	0.51222	-0.099
Mof_N 	N 	0.25016	0.09562	0.56366	-0.157
Mof_N 	N 	0.25463	0.04241	0.60792	-0.129
Mof_C 	C 	0.1914	0.97173	0.48618	-0.141
Mof_H 	H 	0.2089	0.9605	0.5076	0.087
Mof_C 	C 	0.1729	0.9455	0.4567	0.042
Mof_H 	H 	0.1774	0.916	0.4579	0.01
Mof_C 	C 	0.1477	0.9625	0.4258	-0.108
Mof_H 	H 	0.1352	0.9446	0.4055	0.06
Mof_C 	C 	0.1404	0.0057	0.4239	0.041
Mof_H 	H 	0.1227	0.017	0.4028	0.014
Mof_C 	C 	0.1593	0.032	0.45325	-0.146
Mof_H 	H 	0.1552	0.0616	0.452	0.087
Mof_C 	C 	0.18399	0.0146	0.48396	0.138
Mof_N 	N 	0.21869	0.02725	0.545	-0.1
Mof_C 	C 	0.23991	0.05569	0.57041	0.172
Mof_C 	C 	0.27161	0.10825	0.5985	0.006
Mof_H 	H 	0.2827	0.1356	0.6028	0.035
Mof_C 	C 	0.27484	0.07562	0.62637	0.004
Mof_H 	H 	0.2883	0.076	0.653	0.035
Mof_H 	H 	0.254	0.9797	0.6026	0.043
Mof_N 	N 	0.54408	0.01222	0.70375	-0.102
Mof_N 	N 	0.59562	0.06366	0.75016	-0.157
Mof_N 	N 	0.54241	0.10792	0.75463	-0.131
Mof_C 	C 	0.47173	0.98618	0.6914	-0.146
Mof_H 	H 	0.4605	0.0076	0.7089	0.086
Mof_C 	C 	0.4455	0.9567	0.6729	0.049
Mof_H 	H 	0.416	0.9579	0.6774	0.008
Mof_C 	C 	0.4625	0.9258	0.6477	-0.12
Mof_H 	H 	0.4446	0.9055	0.6352	0.064
Mof_C 	C 	0.5057	0.9239	0.6404	0.054
Mof_H 	H 	0.517	0.9028	0.6227	0.011
Mof_C 	C 	0.532	0.95325	0.6593	-0.155
Mof_H 	H 	0.5616	0.952	0.6552	0.091
Mof_C 	C 	0.5146	0.98396	0.68399	0.149
Mof_N 	N 	0.52725	0.045	0.71869	-0.1
Mof_C 	C 	0.55569	0.07041	0.73991	0.172
Mof_C 	C 	0.60825	0.0985	0.77161	0.005
Mof_H 	H 	0.6356	0.1028	0.7827	0.035
Mof_C 	C 	0.57562	0.12637	0.77484	0.005
Mof_H 	H 	0.576	0.153	0.7883	0.035
Mof_H 	H 	0.4797	0.1026	0.754	0.036
Mof_N 	N 	0.04408	0.51222	0.20375	-0.099
Mof_N 	N 	0.09562	0.56366	0.25016	-0.157
Mof_N 	N 	0.04241	0.60792	0.25463	-0.129
Mof_C 	C 	0.97173	0.48618	0.1914	-0.141
Mof_H 	H 	0.9605	0.5076	0.2089	0.087
Mof_C 	C 	0.9455	0.4567	0.1729	0.042
Mof_H 	H 	0.916	0.4579	0.1774	0.01
Mof_C 	C 	0.9625	0.4258	0.1477	-0.108
Mof_H 	H 	0.9446	0.4055	0.1352	0.06
Mof_C 	C 	0.0057	0.4239	0.1404	0.041
Mof_H 	H 	0.017	0.4028	0.1227	0.014
Mof_C 	C 	0.032	0.45325	0.1593	-0.146
Mof_H 	H 	0.0616	0.452	0.1552	0.087
Mof_C 	C 	0.0146	0.48396	0.18399	0.138
Mof_N 	N 	0.02725	0.545	0.21869	-0.1
Mof_C 	C 	0.05569	0.57041	0.23991	0.172
Mof_C 	C 	0.10825	0.5985	0.27161	0.006
Mof_H 	H 	0.1356	0.6028	0.2827	0.035
Mof_C 	C 	0.07562	0.62637	0.27484	0.004
Mof_H 	H 	0.076	0.653	0.2883	0.035
Mof_H 	H 	0.9797	0.6026	0.254	0.043
Mof_N 	N 	0.45592	0.51222	0.79625	-0.101
Mof_N 	N 	0.40438	0.56366	0.74984	-0.157
Mof_N 	N 	0.45759	0.60792	0.74537	-0.131
Mof_C 	C 	0.52827	0.48618	0.8086	-0.155
Mof_H 	H 	0.5395	0.5076	0.7911	0.091
Mof_C 	C 	0.5545	0.4567	0.8271	0.054
Mof_H 	H 	0.584	0.4579	0.8226	0.006
Mof_C 	C 	0.5375	0.4258	0.8523	-0.123
Mof_H 	H 	0.5554	0.4055	0.8648	0.065
Mof_C 	C 	0.4943	0.4239	0.8596	0.056
Mof_H 	H 	0.483	0.4028	0.8773	0.011
Mof_C 	C 	0.468	0.45325	0.8407	-0.157
Mof_H 	H 	0.4384	0.452	0.8448	0.091
Mof_C 	C 	0.4854	0.48396	0.81601	0.15
Mof_N 	N 	0.47275	0.545	0.78131	-0.099
Mof_C 	C 	0.44431	0.57041	0.76009	0.173
Mof_C 	C 	0.39175	0.5985	0.72839	0.005
Mof_H 	H 	0.3644	0.6028	0.7173	0.035
Mof_C 	C 	0.42438	0.62637	0.72516	0.005
Mof_H 	H 	0.424	0.653	0.7117	0.035
Mof_H 	H 	0.5203	0.6026	0.746	0.036
Mof_N 	N 	0.95592	0.01222	0.29625	-0.104
Mof_N 	N 	0.90438	0.06366	0.24984	-0.157
Mof_N 	N 	0.95759	0.10792	0.24537	-0.133
Mof_C 	C 	0.02827	0.98618	0.3086	-0.16
Mof_H 	H 	0.0395	0.0076	0.2911	0.09
Mof_C 	C 	0.0545	0.9567	0.3271	0.062
Mof_H 	H 	0.084	0.9579	0.3226	0.004
Mof_C 	C 	0.0375	0.9258	0.3523	-0.135
Mof_H 	H 	0.0554	0.9055	0.3648	0.069
Mof_C 	C 	0.9943	0.9239	0.3596	0.069
Mof_H 	H 	0.983	0.9028	0.3773	0.007
Mof_C 	C 	0.968	0.95325	0.3407	-0.165
Mof_H 	H 	0.9384	0.952	0.3448	0.095
Mof_C 	C 	0.9854	0.98396	0.31601	0.16
Mof_N 	N 	0.97275	0.045	0.28131	-0.099
Mof_C 	C 	0.94431	0.07041	0.26009	0.173
Mof_C 	C 	0.89175	0.0985	0.22839	0.004
Mof_H 	H 	0.8644	0.1028	0.2173	0.035
Mof_C 	C 	0.92438	0.12637	0.22516	0.006
Mof_H 	H 	0.924	0.153	0.2117	0.035
Mof_H 	H 	0.0203	0.1026	0.246	0.029
Mof_N 	N 	0.95592	0.98778	0.20375	-0.1
Mof_N 	N 	0.90438	0.93634	0.25016	-0.156
Mof_N 	N 	0.95759	0.89208	0.25463	-0.134
Mof_C 	C 	0.02827	0.01382	0.1914	-0.178
Mof_H 	H 	0.0395	0.9924	0.2089	0.1
Mof_C 	C 	0.0545	0.0433	0.1729	0.071
Mof_H 	H 	0.084	0.0421	0.1774	-0.001
Mof_C 	C 	0.0375	0.0742	0.1477	-0.142
Mof_H 	H 	0.0554	0.0945	0.1352	0.071
Mof_C 	C 	0.9943	0.0761	0.1404	0.073
Mof_H 	H 	0.983	0.0972	0.1227	0.005
Mof_C 	C 	0.968	0.04675	0.1593	-0.169
Mof_H 	H 	0.9384	0.048	0.1552	0.094
Mof_C 	C 	0.9854	0.01604	0.18399	0.161
Mof_N 	N 	0.97275	0.955	0.21869	-0.098
Mof_C 	C 	0.94431	0.92959	0.23991	0.174
Mof_C 	C 	0.89175	0.9015	0.27161	0.005
Mof_H 	H 	0.8644	0.8972	0.2827	0.035
Mof_C 	C 	0.92438	0.87363	0.27484	0.006
Mof_H 	H 	0.924	0.847	0.2883	0.035
Mof_H 	H 	0.0203	0.8974	0.254	0.029
Mof_N 	N 	0.45592	0.48778	0.70375	-0.101
Mof_N 	N 	0.40438	0.43634	0.75016	-0.157
Mof_N 	N 	0.45759	0.39208	0.75463	-0.131
Mof_C 	C 	0.52827	0.51382	0.6914	-0.155
Mof_H 	H 	0.5395	0.4924	0.7089	0.091
Mof_C 	C 	0.5545	0.5433	0.6729	0.054
Mof_H 	H 	0.584	0.5421	0.6774	0.005
Mof_C 	C 	0.5375	0.5742	0.6477	-0.123
Mof_H 	H 	0.5554	0.5945	0.6352	0.065
Mof_C 	C 	0.4943	0.5761	0.6404	0.056
Mof_H 	H 	0.483	0.5972	0.6227	0.011
Mof_C 	C 	0.468	0.54675	0.6593	-0.157
Mof_H 	H 	0.4384	0.548	0.6552	0.091
Mof_C 	C 	0.4854	0.51604	0.68399	0.149
Mof_N 	N 	0.47275	0.455	0.71869	-0.099
Mof_C 	C 	0.44431	0.42959	0.73991	0.172
Mof_C 	C 	0.39175	0.4015	0.77161	0.005
Mof_H 	H 	0.3644	0.3972	0.7827	0.035
Mof_C 	C 	0.42438	0.37363	0.77484	0.005
Mof_H 	H 	0.424	0.347	0.7883	0.035
Mof_H 	H 	0.5203	0.3974	0.754	0.036
Mof_N 	N 	0.04408	0.48778	0.29625	-0.099
Mof_N 	N 	0.09562	0.43634	0.24984	-0.157
Mof_N 	N 	0.04241	0.39208	0.24537	-0.129
Mof_C 	C 	0.97173	0.51382	0.3086	-0.141
Mof_H 	H 	0.9605	0.4924	0.2911	0.087
Mof_C 	C 	0.9455	0.5433	0.3271	0.042
Mof_H 	H 	0.916	0.5421	0.3226	0.01
Mof_C 	C 	0.9625	0.5742	0.3523	-0.108
Mof_H 	H 	0.9446	0.5945	0.3648	0.061
Mof_C 	C 	0.0057	0.5761	0.3596	0.041
Mof_H 	H 	0.017	0.5972	0.3773	0.015
Mof_C 	C 	0.032	0.54675	0.3407	-0.146
Mof_H 	H 	0.0616	0.548	0.3448	0.087
Mof_C 	C 	0.0146	0.51604	0.31601	0.138
Mof_N 	N 	0.02725	0.455	0.28131	-0.1
Mof_C 	C 	0.05569	0.42959	0.26009	0.172
Mof_C 	C 	0.10825	0.4015	0.22839	0.006
Mof_H 	H 	0.1356	0.3972	0.2173	0.035
Mof_C 	C 	0.07562	0.37363	0.22516	0.004
Mof_H 	H 	0.076	0.347	0.2117	0.035
Mof_H 	H 	0.9797	0.3974	0.246	0.043
Mof_N 	N 	0.54408	0.98778	0.79625	-0.099
Mof_N 	N 	0.59562	0.93634	0.74984	-0.156
Mof_N 	N 	0.54241	0.89208	0.74537	-0.131
Mof_C 	C 	0.47173	0.01382	0.8086	-0.164
Mof_H 	H 	0.4605	0.9924	0.7911	0.097
Mof_C 	C 	0.4455	0.0433	0.8271	0.059
Mof_H 	H 	0.416	0.0421	0.8226	0.003
Mof_C 	C 	0.4625	0.0742	0.8523	-0.127
Mof_H 	H 	0.4446	0.0945	0.8648	0.066
Mof_C 	C 	0.5057	0.0761	0.8596	0.058
Mof_H 	H 	0.517	0.0972	0.8773	0.01
Mof_C 	C 	0.532	0.04675	0.8407	-0.158
Mof_H 	H 	0.5616	0.048	0.8448	0.091
Mof_C 	C 	0.5146	0.01604	0.81601	0.15
Mof_N 	N 	0.52725	0.955	0.78131	-0.099
Mof_C 	C 	0.55569	0.92959	0.76009	0.173
Mof_C 	C 	0.60825	0.9015	0.72839	0.005
Mof_H 	H 	0.6356	0.8972	0.7173	0.035
Mof_C 	C 	0.57562	0.87363	0.72516	0.005
Mof_H 	H 	0.576	0.847	0.7117	0.035
Mof_H 	H 	0.4797	0.8974	0.746	0.036
Mof_N 	N 	0.51222	0.79625	0.45592	-0.101
Mof_N 	N 	0.56366	0.74984	0.40438	-0.157
Mof_N 	N 	0.60792	0.74537	0.45759	-0.131
Mof_C 	C 	0.48618	0.8086	0.52827	-0.155
Mof_H 	H 	0.5076	0.7911	0.5395	0.091
Mof_C 	C 	0.4567	0.8271	0.5545	0.054
Mof_H 	H 	0.4579	0.8226	0.584	0.006
Mof_C 	C 	0.4258	0.8523	0.5375	-0.123
Mof_H 	H 	0.4055	0.8648	0.5554	0.065
Mof_C 	C 	0.4239	0.8596	0.4943	0.056
Mof_H 	H 	0.4028	0.8773	0.483	0.011
Mof_C 	C 	0.45325	0.8407	0.468	-0.157
Mof_H 	H 	0.452	0.8448	0.4384	0.091
Mof_C 	C 	0.48396	0.81601	0.4854	0.15
Mof_N 	N 	0.545	0.78131	0.47275	-0.099
Mof_C 	C 	0.57041	0.76009	0.44431	0.173
Mof_C 	C 	0.5985	0.72839	0.39175	0.005
Mof_H 	H 	0.6028	0.7173	0.3644	0.035
Mof_C 	C 	0.62637	0.72516	0.42438	0.005
Mof_H 	H 	0.653	0.7117	0.424	0.035
Mof_H 	H 	0.6026	0.746	0.5203	0.036
Mof_N 	N 	0.01222	0.29625	0.95592	-0.104
Mof_N 	N 	0.06366	0.24984	0.90438	-0.157
Mof_N 	N 	0.10792	0.24537	0.95759	-0.133
Mof_C 	C 	0.98618	0.3086	0.02827	-0.16
Mof_H 	H 	0.0076	0.2911	0.0395	0.09
Mof_C 	C 	0.9567	0.3271	0.0545	0.062
Mof_H 	H 	0.9579	0.3226	0.084	0.004
Mof_C 	C 	0.9258	0.3523	0.0375	-0.135
Mof_H 	H 	0.9055	0.3648	0.0554	0.069
Mof_C 	C 	0.9239	0.3596	0.9943	0.069
Mof_H 	H 	0.9028	0.3773	0.983	0.007
Mof_C 	C 	0.95325	0.3407	0.968	-0.165
Mof_H 	H 	0.952	0.3448	0.9384	0.095
Mof_C 	C 	0.98396	0.31601	0.9854	0.16
Mof_N 	N 	0.045	0.28131	0.97275	-0.099
Mof_C 	C 	0.07041	0.26009	0.94431	0.173
Mof_C 	C 	0.0985	0.22839	0.89175	0.004
Mof_H 	H 	0.1028	0.2173	0.8644	0.035
Mof_C 	C 	0.12637	0.22516	0.92438	0.006
Mof_H 	H 	0.153	0.2117	0.924	0.035
Mof_H 	H 	0.1026	0.246	0.0203	0.029
Mof_N 	N 	0.01222	0.70375	0.54408	-0.102
Mof_N 	N 	0.06366	0.75016	0.59562	-0.157
Mof_N 	N 	0.10792	0.75463	0.54241	-0.131
Mof_C 	C 	0.98618	0.6914	0.47173	-0.146
Mof_H 	H 	0.0076	0.7089	0.4605	0.086
Mof_C 	C 	0.9567	0.6729	0.4455	0.049
Mof_H 	H 	0.9579	0.6774	0.416	0.008
Mof_C 	C 	0.9258	0.6477	0.4625	-0.12
Mof_H 	H 	0.9055	0.6352	0.4446	0.064
Mof_C 	C 	0.9239	0.6404	0.5057	0.054
Mof_H 	H 	0.9028	0.6227	0.517	0.011
Mof_C 	C 	0.95325	0.6593	0.532	-0.155
Mof_H 	H 	0.952	0.6552	0.5616	0.091
Mof_C 	C 	0.98396	0.68399	0.5146	0.149
Mof_N 	N 	0.045	0.71869	0.52725	-0.1
Mof_C 	C 	0.07041	0.73991	0.55569	0.172
Mof_C 	C 	0.0985	0.77161	0.60825	0.005
Mof_H 	H 	0.1028	0.7827	0.6356	0.035
Mof_C 	C 	0.12637	0.77484	0.57562	0.005
Mof_H 	H 	0.153	0.7883	0.576	0.035
Mof_H 	H 	0.1026	0.754	0.4797	0.036
Mof_N 	N 	0.51222	0.20375	0.04408	-0.099
Mof_N 	N 	0.56366	0.25016	0.09562	-0.157
Mof_N 	N 	0.60792	0.25463	0.04241	-0.129
Mof_C 	C 	0.48618	0.1914	0.97173	-0.141
Mof_H 	H 	0.5076	0.2089	0.9605	0.087
Mof_C 	C 	0.4567	0.1729	0.9455	0.042
Mof_H 	H 	0.4579	0.1774	0.916	0.01
Mof_C 	C 	0.4258	0.1477	0.9625	-0.108
Mof_H 	H 	0.4055	0.1352	0.9446	0.06
Mof_C 	C 	0.4239	0.1404	0.0057	0.041
Mof_H 	H 	0.4028	0.1227	0.017	0.014
Mof_C 	C 	0.45325	0.1593	0.032	-0.146
Mof_H 	H 	0.452	0.1552	0.0616	0.087
Mof_C 	C 	0.48396	0.18399	0.0146	0.138
Mof_N 	N 	0.545	0.21869	0.02725	-0.1
Mof_C 	C 	0.57041	0.23991	0.05569	0.172
Mof_C 	C 	0.5985	0.27161	0.10825	0.006
Mof_H 	H 	0.6028	0.2827	0.1356	0.035
Mof_C 	C 	0.62637	0.27484	0.07562	0.004
Mof_H 	H 	0.653	0.2883	0.076	0.035
Mof_H 	H 	0.6026	0.254	0.9797	0.043
Mof_N 	N 	0.48778	0.29625	0.04408	-0.099
Mof_N 	N 	0.43634	0.24984	0.09562	-0.157
Mof_N 	N 	0.39208	0.24537	0.04241	-0.129
Mof_C 	C 	0.51382	0.3086	0.97173	-0.141
Mof_H 	H 	0.4924	0.2911	0.9605	0.087
Mof_C 	C 	0.5433	0.3271	0.9455	0.042
Mof_H 	H 	0.5421	0.3226	0.916	0.01
Mof_C 	C 	0.5742	0.3523	0.9625	-0.108
Mof_H 	H 	0.5945	0.3648	0.9446	0.061
Mof_C 	C 	0.5761	0.3596	0.0057	0.041
Mof_H 	H 	0.5972	0.3773	0.017	0.015
Mof_C 	C 	0.54675	0.3407	0.032	-0.146
Mof_H 	H 	0.548	0.3448	0.0616	0.087
Mof_C 	C 	0.51604	0.31601	0.0146	0.138
Mof_N 	N 	0.455	0.28131	0.02725	-0.1
Mof_C 	C 	0.42959	0.26009	0.05569	0.172
Mof_C 	C 	0.4015	0.22839	0.10825	0.006
Mof_H 	H 	0.3972	0.2173	0.1356	0.035
Mof_C 	C 	0.37363	0.22516	0.07562	0.004
Mof_H 	H 	0.347	0.2117	0.076	0.035
Mof_H 	H 	0.3974	0.246	0.9797	0.043
Mof_N 	N 	0.98778	0.79625	0.54408	-0.099
Mof_N 	N 	0.93634	0.74984	0.59562	-0.156
Mof_N 	N 	0.89208	0.74537	0.54241	-0.131
Mof_C 	C 	0.01382	0.8086	0.47173	-0.164
Mof_H 	H 	0.9924	0.7911	0.4605	0.097
Mof_C 	C 	0.0433	0.8271	0.4455	0.059
Mof_H 	H 	0.0421	0.8226	0.416	0.003
Mof_C 	C 	0.0742	0.8523	0.4625	-0.127
Mof_H 	H 	0.0945	0.8648	0.4446	0.066
Mof_C 	C 	0.0761	0.8596	0.5057	0.058
Mof_H 	H 	0.0972	0.8773	0.517	0.01
Mof_C 	C 	0.04675	0.8407	0.532	-0.158
Mof_H 	H 	0.048	0.8448	0.5616	0.091
Mof_C 	C 	0.01604	0.81601	0.5146	0.15
Mof_N 	N 	0.955	0.78131	0.52725	-0.099
Mof_C 	C 	0.92959	0.76009	0.55569	0.173
Mof_C 	C 	0.9015	0.72839	0.60825	0.005
Mof_H 	H 	0.8972	0.7173	0.6356	0.035
Mof_C 	C 	0.87363	0.72516	0.57562	0.005
Mof_H 	H 	0.847	0.7117	0.576	0.035
Mof_H 	H 	0.8974	0.746	0.4797	0.036
Mof_N 	N 	0.98778	0.20375	0.95592	-0.1
Mof_N 	N 	0.93634	0.25016	0.90438	-0.156
Mof_N 	N 	0.89208	0.25463	0.95759	-0.134
Mof_C 	C 	0.01382	0.1914	0.02827	-0.178
Mof_H 	H 	0.9924	0.2089	0.0395	0.1
Mof_C 	C 	0.0433	0.1729	0.0545	0.071
Mof_H 	H 	0.0421	0.1774	0.084	-0.001
Mof_C 	C 	0.0742	0.1477	0.0375	-0.142
Mof_H 	H 	0.0945	0.1352	0.0554	0.071
Mof_C 	C 	0.0761	0.1404	0.9943	0.073
Mof_H 	H 	0.0972	0.1227	0.983	0.005
Mof_C 	C 	0.04675	0.1593	0.968	-0.169
Mof_H 	H 	0.048	0.1552	0.9384	0.094
Mof_C 	C 	0.01604	0.18399	0.9854	0.161
Mof_N 	N 	0.955	0.21869	0.97275	-0.098
Mof_C 	C 	0.92959	0.23991	0.94431	0.174
Mof_C 	C 	0.9015	0.27161	0.89175	0.005
Mof_H 	H 	0.8972	0.2827	0.8644	0.035
Mof_C 	C 	0.87363	0.27484	0.92438	0.006
Mof_H 	H 	0.847	0.2883	0.924	0.035
Mof_H 	H 	0.8974	0.254	0.0203	0.029
Mof_N 	N 	0.48778	0.70375	0.45592	-0.101
Mof_N 	N 	0.43634	0.75016	0.40438	-0.157
Mof_N 	N 	0.39208	0.75463	0.45759	-0.131
Mof_C 	C 	0.51382	0.6914	0.52827	-0.155
Mof_H 	H 	0.4924	0.7089	0.5395	0.091
Mof_C 	C 	0.5433	0.6729	0.5545	0.054
Mof_H 	H 	0.5421	0.6774	0.584	0.005
Mof_C 	C 	0.5742	0.6477	0.5375	-0.123
Mof_H 	H 	0.5945	0.6352	0.5554	0.065
Mof_C 	C 	0.5761	0.6404	0.4943	0.056
Mof_H 	H 	0.5972	0.6227	0.483	0.011
Mof_C 	C 	0.54675	0.6593	0.468	-0.157
Mof_H 	H 	0.548	0.6552	0.4384	0.091
Mof_C 	C 	0.51604	0.68399	0.4854	0.149
Mof_N 	N 	0.455	0.71869	0.47275	-0.099
Mof_C 	C 	0.42959	0.73991	0.44431	0.172
Mof_C 	C 	0.4015	0.77161	0.39175	0.005
Mof_H 	H 	0.3972	0.7827	0.3644	0.035
Mof_C 	C 	0.37363	0.77484	0.42438	0.005
Mof_H 	H 	0.347	0.7883	0.424	0.035
Mof_H 	H 	0.3974	0.754	0.5203	0.036
Mof_Cd	Cd	0.625	0	0.75	0.39
Mof_Cd	Cd	0.875	0	0.25	0.39
Mof_Cd	Cd	0.375	0.5	0.75	0.393
Mof_Cd	Cd	0.125	0.5	0.25	0.393
Mof_Cd	Cd	0.75	0.625	-0	0.39
Mof_Cd	Cd	0.25	0.875	-0	0.39
Mof_Cd	Cd	0.75	0.375	0.5	0.393
Mof_Cd	Cd	0.25	0.125	0.5	0.393
Mof_Cd	Cd	-3.92591e-33	0.75	0.625	0.39
Mof_Cd	Cd	3.28072e-33	0.25	0.875	0.39
Mof_Cd	Cd	0.5	0.75	0.375	0.393
Mof_Cd	Cd	0.5	0.25	0.125	0.393
Mof_Cd	Cd	0.75	0.875	0.5	0.393
Mof_Cd	Cd	0.75	0.125	-0	0.39
Mof_Cd	Cd	0.25	0.625	0.5	0.393
Mof_Cd	Cd	0.25	0.375	-0	0.39
Mof_Cd	Cd	0.375	0	0.25	0.39
Mof_Cd	Cd	0.625	0.5	0.25	0.393
Mof_Cd	Cd	0.125	0	0.75	0.39
Mof_Cd	Cd	0.875	0.5	0.75	0.393
Mof_Cd	Cd	0.5	0.25	0.625	0.393
Mof_Cd	Cd	4.54066e-33	0.25	0.375	0.39
Mof_Cd	Cd	0.5	0.75	0.875	0.393
Mof_Cd	Cd	4.68675e-34	0.75	0.125	0.39
Mof_C 	C 	0.74919	0.99919	0.625	0.044
Mof_C 	C 	0.24919	0.49919	0.125	0.027
Mof_C 	C 	0.75081	0.00081	0.125	0.01
Mof_C 	C 	0.25081	0.50081	0.625	0.027
Mof_C 	C 	0.25081	0.49919	0.875	0.027
Mof_C 	C 	0.75081	0.99919	0.375	0.044
Mof_C 	C 	0.24919	0.50081	0.375	0.027
Mof_C 	C 	0.74919	0.00081	0.875	0.01
Mof_C 	C 	0.625	0.74919	0.99919	0.044
Mof_C 	C 	0.125	0.24919	0.49919	0.027
Mof_C 	C 	0.125	0.75081	0.00081	0.01
Mof_C 	C 	0.625	0.25081	0.50081	0.027
Mof_C 	C 	0.875	0.25081	0.49919	0.027
Mof_C 	C 	0.375	0.75081	0.99919	0.044
Mof_C 	C 	0.375	0.24919	0.50081	0.027
Mof_C 	C 	0.875	0.74919	0.00081	0.01
Mof_C 	C 	0.99919	0.625	0.74919	0.044
Mof_C 	C 	0.49919	0.125	0.24919	0.027
Mof_C 	C 	0.00081	0.125	0.75081	0.01
Mof_C 	C 	0.50081	0.625	0.25081	0.027
Mof_C 	C 	0.49919	0.875	0.25081	0.027
Mof_C 	C 	0.99919	0.375	0.75081	0.044
Mof_C 	C 	0.50081	0.375	0.24919	0.027
Mof_C 	C 	0.00081	0.875	0.74919	0.01
Mof_C 	C 	0.25081	0.00081	0.375	0.01
Mof_C 	C 	0.75081	0.50081	0.875	0.027
Mof_C 	C 	0.24919	0.99919	0.875	0.044
Mof_C 	C 	0.74919	0.49919	0.375	0.027
Mof_C 	C 	0.74919	0.50081	0.125	0.027
Mof_C 	C 	0.24919	0.00081	0.625	0.01
Mof_C 	C 	0.75081	0.49919	0.625	0.027
Mof_C 	C 	0.25081	0.99919	0.125	0.044
Mof_C 	C 	0.375	0.25081	0.00081	0.01
Mof_C 	C 	0.875	0.75081	0.50081	0.027
Mof_C 	C 	0.875	0.24919	0.99919	0.044
Mof_C 	C 	0.375	0.74919	0.49919	0.027
Mof_C 	C 	0.125	0.74919	0.50081	0.027
Mof_C 	C 	0.625	0.24919	0.00081	0.01
Mof_C 	C 	0.625	0.75081	0.49919	0.027
Mof_C 	C 	0.125	0.25081	0.99919	0.044
Mof_C 	C 	0.00081	0.375	0.25081	0.01
Mof_C 	C 	0.50081	0.875	0.75081	0.027
Mof_C 	C 	0.99919	0.875	0.24919	0.044
Mof_C 	C 	0.49919	0.375	0.74919	0.027
Mof_C 	C 	0.50081	0.125	0.74919	0.027
Mof_C 	C 	0.00081	0.625	0.24919	0.01
Mof_C 	C 	0.49919	0.625	0.75081	0.027
Mof_C 	C 	0.99919	0.125	0.25081	0.044
_end
