data_functionalizedCrystal
_audit_creation_method	'EQeq! by Chris Wilmer'
_symmetry_space_group_name_H-M	'P1'
_symmetry_Int_Tables_number	1
_symmetry_cell_setting	triclinic
loop_
_symmetry_equiv_pos_as_xyz
  x,y,z
_cell_length_a	6.1156
_cell_length_b	12.419
_cell_length_c	23.426
_cell_angle_alpha	90
_cell_angle_beta	90
_cell_angle_gamma	94.4286
loop_
_atom_site_label
_atom_site_type_symbol
_atom_site_fract_x
_atom_site_fract_y
_atom_site_fract_z
_atom_site_charge
Mof_Tb	Tb	0.99199	0.89141	0.33273	1.845
Mof_Tb	Tb	0.00801	0.10859	0.66727	1.709
Mof_Tb	Tb	0.50801	0.60859	0.83273	1.81
Mof_Tb	Tb	0.49199	0.39141	0.16727	1.789
Mof_Cu	Cu	-0	0	-0	0.887
Mof_Cu	Cu	0.5	0.5	0.5	0.927
Mof_H 	H 	0.8289	0.8568	0.1042	0.056
Mof_H 	H 	0.4433	0.129	0.8292	0.066
Mof_H 	H 	0.0275	0.7751	0.837	0.005
Mof_H 	H 	0.5275	0.2751	0.663	0.024
Mof_H 	H 	0.1093	0.0766	0.2063	0.005
Mof_H 	H 	0.3289	0.3568	0.3958	0.044
Mof_H 	H 	0.5567	0.871	0.1708	0.041
Mof_H 	H 	0.6093	0.5766	0.2937	0.034
Mof_H 	H 	0.8907	0.9234	0.7937	0.073
Mof_H 	H 	0.9433	0.629	0.6708	0.053
Mof_H 	H 	0.9725	0.2249	0.163	0.033
Mof_H 	H 	0.4725	0.7249	0.337	0.021
Mof_H 	H 	0.0567	0.371	0.3292	0.054
Mof_H 	H 	0.1711	0.1432	0.8958	0.037
Mof_H 	H 	0.3907	0.4234	0.7063	0.032
Mof_H 	H 	0.6711	0.6432	0.6042	0.051
Mof_C 	C 	0.3645	0.9353	0.9433	0.011
Mof_C 	C 	0.519	0.9911	0.304	0.464
Mof_C 	C 	0.6355	0.0647	0.0567	-0.04
Mof_C 	C 	0.3178	0.859	0.9921	0.326
Mof_C 	C 	0.9689	0.5726	0.4033	-0.042
Mof_C 	C 	0.5858	0.7679	0.7215	0.351
Mof_C 	C 	0.6045	0.3095	0.6929	0.035
Mof_C 	C 	0.3079	0.1579	0.095	0.438
Mof_C 	C 	0.4267	0.0781	0.8584	-0.032
Mof_C 	C 	0.8955	0.1905	0.1929	0.018
Mof_C 	C 	0.5268	0.4019	0.7173	0.022
Mof_C 	C 	0.1355	0.5647	0.4433	-0.03
Mof_C 	C 	0.7376	0.9131	0.1014	0.011
Mof_C 	C 	0.4142	0.2321	0.2785	0.344
Mof_C 	C 	0.6595	0.0736	0.2701	-0.091
Mof_C 	C 	0.1822	0.641	0.4921	0.298
Mof_C 	C 	0.981	0.5089	0.804	0.468
Mof_C 	C 	0.6822	0.141	0.0079	0.262
Mof_C 	C 	0.9732	0.0981	0.2173	0.055
Mof_C 	C 	0.481	0.0089	0.696	0.386
Mof_C 	C 	0.0268	0.9019	0.7827	-0.028
Mof_C 	C 	0.0733	0.4219	0.3584	0.001
Mof_C 	C 	0.2376	0.4131	0.3986	0.029
Mof_C 	C 	0.8645	0.4353	0.5567	0.006
Mof_C 	C 	0.8405	0.4264	0.7701	-0.072
Mof_C 	C 	0.3405	0.9264	0.7299	-0.025
Mof_C 	C 	0.9267	0.5781	0.6416	0.037
Mof_C 	C 	0.5733	0.9219	0.1416	0.059
Mof_C 	C 	0.0973	0.6726	0.2479	-0.023
Mof_C 	C 	0.8079	0.6579	0.405	0.438
Mof_C 	C 	0.1045	0.8095	0.8071	0.057
Mof_C 	C 	0.0858	0.2679	0.7785	0.315
Mof_C 	C 	0.2624	0.0869	0.8986	0.043
Mof_C 	C 	0.8178	0.359	0.5079	0.292
Mof_C 	C 	0.4732	0.5981	0.2827	0.021
Mof_C 	C 	0.1921	0.3421	0.595	0.437
Mof_C 	C 	0.9027	0.3274	0.7521	0.024
Mof_C 	C 	0.5973	0.1726	0.2521	-0.006
Mof_C 	C 	0.4027	0.8274	0.7479	-0.018
Mof_C 	C 	0.6921	0.8421	0.905	0.437
Mof_C 	C 	0.0311	0.4274	0.5967	-0.078
Mof_C 	C 	0.5311	0.9274	0.9033	-0.053
Mof_C 	C 	0.019	0.4911	0.196	0.411
Mof_C 	C 	0.3955	0.6905	0.3071	0.034
Mof_C 	C 	0.4689	0.0726	0.0967	-0.057
Mof_C 	C 	0.1595	0.5736	0.2299	-0.055
Mof_C 	C 	0.9142	0.7321	0.2215	0.359
Mof_C 	C 	0.7624	0.5869	0.6014	0.023
Mof_N 	N 	0.2335	0.0169	0.9407	-0.201
Mof_N 	N 	0.6441	0.46	0.756	-0.164
Mof_N 	N 	0.8559	0.04	0.256	-0.178
Mof_N 	N 	0.7665	0.9831	0.0593	-0.157
Mof_N 	N 	0.1441	0.96	0.744	-0.15
Mof_N 	N 	0.9395	0.5007	0.3603	-0.083
Mof_N 	N 	0.7137	0.2298	0.2118	-0.18
Mof_N 	N 	0.2863	0.7702	0.7882	-0.188
Mof_N 	N 	0.3559	0.54	0.244	-0.167
Mof_N 	N 	0.2137	0.7298	0.2882	-0.184
Mof_N 	N 	0.5605	0.9993	0.8603	-0.061
Mof_N 	N 	0.7335	0.5169	0.5593	-0.183
Mof_N 	N 	0.2665	0.4831	0.4407	-0.183
Mof_N 	N 	0.7863	0.2702	0.7118	-0.178
Mof_N 	N 	0.0605	0.4993	0.6397	-0.099
Mof_N 	N 	0.4395	0.0007	0.1397	-0.115
Mof_O 	O 	0.6476	0.6441	0.4362	-0.357
Mof_O 	O 	0.1476	0.1441	0.0638	-0.379
Mof_O 	O 	0.1742	0.8863	0.02757	-0.377
Mof_O 	O 	0.5878	0.2242	0.0045	-0.28
Mof_O 	O 	0.9122	0.2758	0.5045	-0.268
Mof_O 	O 	0.0878	0.7242	0.4955	-0.278
Mof_O 	O 	0.3258	0.6137	0.52757	-0.358
Mof_O 	O 	0.6814	0.0195	0.70581	-0.485
Mof_O 	O 	0.6216	0.9338	0.33777	-0.517
Mof_O 	O 	0.8524	0.8559	0.9362	-0.333
Mof_O 	O 	0.8258	0.1137	0.97243	-0.314
Mof_O 	O 	0.6742	0.3863	0.47243	-0.357
Mof_O 	O 	0.1216	0.4338	0.16223	-0.514
Mof_O 	O 	0.3456	0.2356	0.1281	-0.526
Mof_O 	O 	0.1544	0.2644	0.6281	-0.518
Mof_O 	O 	0.1539	0.1919	0.7498	-0.439
Mof_O 	O 	0.8186	0.4805	0.20581	-0.489
Mof_O 	O 	0.3461	0.3081	0.2498	-0.447
Mof_O 	O 	0.8461	0.8081	0.2502	-0.448
Mof_O 	O 	0.6539	0.6919	0.7502	-0.445
Mof_O 	O 	0.6449	0.7945	0.67281	-0.275
Mof_O 	O 	0.6544	0.7644	0.8719	-0.518
Mof_O 	O 	0.3551	0.2055	0.32719	-0.296
Mof_O 	O 	0.8551	0.7055	0.17281	-0.287
Mof_O 	O 	0.1814	0.5195	0.79419	-0.528
Mof_O 	O 	0.4122	0.7758	0.9955	-0.271
Mof_O 	O 	0.1449	0.2945	0.82719	-0.284
Mof_O 	O 	0.8456	0.7356	0.3719	-0.524
Mof_O 	O 	0.3524	0.3559	0.5638	-0.362
Mof_O 	O 	0.3784	0.0662	0.66223	-0.499
Mof_O 	O 	0.3186	0.9805	0.29419	-0.502
Mof_O 	O 	0.8784	0.5662	0.83777	-0.512
_end
