data_functionalizedCrystal
_audit_creation_method	'EQeq! by Chris Wilmer'
_symmetry_space_group_name_H-M	'P1'
_symmetry_Int_Tables_number	1
_symmetry_cell_setting	triclinic
loop_
_symmetry_equiv_pos_as_xyz
  x,y,z
_cell_length_a	5.763
_cell_length_b	10.213
_cell_length_c	11.649
_cell_angle_alpha	84.242
_cell_angle_beta	89.051
_cell_angle_gamma	82.876
loop_
_atom_site_label
_atom_site_type_symbol
_atom_site_fract_x
_atom_site_fract_y
_atom_site_fract_z
_atom_site_charge
Mof_La	La	0.21771	0.14523	0.47195	2.14
Mof_La	La	0.78229	0.85477	0.52805	2.14
Mof_P 	P 	0.7208	0.17009	0.66127	0.484
Mof_P 	P 	0.6702	0.16013	0.30946	0.478
Mof_P 	P 	0.2792	0.82991	0.33873	0.483
Mof_P 	P 	0.3298	0.83987	0.69054	0.477
Mof_H 	H 	0.5115	0.9828	0.1597	0.129
Mof_H 	H 	0.0233	0.2722	0.7276	0.077
Mof_H 	H 	0.7944	0.3722	0.7181	0.103
Mof_H 	H 	0.6792	0.39	0.479	0.018
Mof_H 	H 	0.6949	0.5103	0.5511	0.011
Mof_H 	H 	0.0467	0.5305	0.6533	0.041
Mof_H 	H 	0.2671	0.4244	0.6464	0.046
Mof_H 	H 	0.9052	0.0323	0.1902	0.09
Mof_H 	H 	0.8145	0.1685	0.1231	0.094
Mof_H 	H 	0.8256	0.9843	0.9794	0.052
Mof_H 	H 	0.8282	0.8689	0.0792	0.039
Mof_H 	H 	0.3514	0.1901	0.0855	0.047
Mof_H 	H 	0.5327	0.1834	0.9835	0.06
Mof_H 	H 	0.4885	0.0172	0.8403	0.129
Mof_H 	H 	0.9767	0.7278	0.2724	0.077
Mof_H 	H 	0.2056	0.6278	0.2819	0.103
Mof_H 	H 	0.3208	0.61	0.521	0.018
Mof_H 	H 	0.3051	0.4897	0.4489	0.011
Mof_H 	H 	0.9533	0.4695	0.3467	0.041
Mof_H 	H 	0.7329	0.5756	0.3536	0.046
Mof_H 	H 	0.0948	0.9677	0.8098	0.09
Mof_H 	H 	0.1855	0.8315	0.8769	0.094
Mof_H 	H 	0.1744	0.0157	0.0206	0.052
Mof_H 	H 	0.1718	0.1311	0.9208	0.039
Mof_H 	H 	0.6486	0.8099	0.9145	0.047
Mof_H 	H 	0.4673	0.8166	0.0165	0.06
Mof_C 	C 	0.8908	0.3061	0.6783	-0.248
Mof_C 	C 	0.7832	0.4502	0.5024	-0.022
Mof_C 	C 	0.1334	0.4708	0.6037	-0.087
Mof_C 	C 	0.7668	0.0955	0.1741	-0.21
Mof_C 	C 	0.7275	0.9361	0.0325	-0.056
Mof_C 	C 	0.4403	0.131	0.0362	-0.059
Mof_C 	C 	0.1092	0.6939	0.3217	-0.248
Mof_C 	C 	0.2168	0.5498	0.4976	-0.022
Mof_C 	C 	0.8666	0.5292	0.3963	-0.087
Mof_C 	C 	0.2332	0.9045	0.8259	-0.21
Mof_C 	C 	0.2725	0.0639	0.9675	-0.056
Mof_C 	C 	0.5597	0.869	0.9638	-0.059
Mof_N 	N 	0.9797	0.3725	0.57	-0.157
Mof_N 	N 	0.5993	0.029	0.1085	-0.135
Mof_N 	N 	0.0203	0.6275	0.43	-0.157
Mof_N 	N 	0.4007	0.971	0.8915	-0.135
Mof_O 	O 	0.4959	0.2225	0.5971	-0.497
Mof_O 	O 	0.8837	0.0729	0.5933	-0.614
Mof_O 	O 	0.686	0.1097	0.7851	-0.299
Mof_O 	O 	0.8871	0.2186	0.3424	-0.49
Mof_O 	O 	0.4447	0.2578	0.2984	-0.42
Mof_O 	O 	0.6074	0.0418	0.3917	-0.614
Mof_O 	O 	0.5041	0.7775	0.4029	-0.497
Mof_O 	O 	0.1163	0.9271	0.4067	-0.614
Mof_O 	O 	0.314	0.8903	0.2149	-0.299
Mof_O 	O 	0.1129	0.7814	0.6576	-0.49
Mof_O 	O 	0.5553	0.7422	0.7016	-0.42
Mof_O 	O 	0.3926	0.9582	0.6083	-0.614
_end
