data_functionalizedCrystal
_audit_creation_method	'EQeq! by Chris Wilmer'
_symmetry_space_group_name_H-M	'P1'
_symmetry_Int_Tables_number	1
_symmetry_cell_setting	triclinic
loop_
_symmetry_equiv_pos_as_xyz
  x,y,z
_cell_length_a	9.9493
_cell_length_b	15.2347
_cell_length_c	10.8891
_cell_angle_alpha	90
_cell_angle_beta	107.253
_cell_angle_gamma	90
loop_
_atom_site_label
_atom_site_type_symbol
_atom_site_fract_x
_atom_site_fract_y
_atom_site_fract_z
_atom_site_charge
Mof_Zn	Zn	0.31091	0.1943	0.05955	1.189
Mof_C 	C 	0.1521	0.3414	0.9783	0.328
Mof_C 	C 	0.0676	0.4208	0.9893	-0.047
Mof_C 	C 	0.0908	0.4622	0.1064	-0.006
Mof_H 	H 	0.152	0.4361	0.1787	0.048
Mof_C 	C 	0.9728	0.4587	0.8785	-0.053
Mof_C 	C 	0.9329	0.4176	0.7491	0.321
Mof_C 	C 	0.0735	0.1375	0.8398	0.091
Mof_H 	H 	0.0233	0.1791	0.8707	-0.012
Mof_C 	C 	0.0099	0.0967	0.724	-0.176
Mof_H 	H 	0.917	0.11	0.6795	0.078
Mof_C 	C 	0.0827	0.0363	0.6731	0.112
Mof_C 	C 	0.2185	0.017	0.7481	-0.177
Mof_H 	H 	0.2708	0.9745	0.7213	0.114
Mof_C 	C 	0.2744	0.0599	0.8597	0.102
Mof_H 	H 	0.3674	0.0479	0.9055	-0.01
Mof_C 	C 	0.0288	0.9939	0.5466	-0.04
Mof_O 	O 	0.1843	0.2905	0.0749	-0.457
Mof_O 	O 	0.1919	0.3315	0.8825	-0.334
Mof_O 	O 	0.8786	0.3412	0.7405	-0.45
Mof_O 	O 	0.944	0.4594	0.6563	-0.335
Mof_N 	N 	0.2051	0.1186	0.9087	-0.284
Mof_Zn	Zn	0.18909	0.6943	0.44045	1.188
Mof_C 	C 	0.3479	0.8414	0.5217	0.325
Mof_C 	C 	0.4324	0.9208	0.5107	-0.05
Mof_C 	C 	0.4092	0.9622	0.3936	-0.004
Mof_H 	H 	0.348	0.9361	0.3213	0.048
Mof_C 	C 	0.5272	0.9587	0.6215	-0.052
Mof_C 	C 	0.5671	0.9176	0.7509	0.321
Mof_C 	C 	0.4265	0.6375	0.6602	0.094
Mof_H 	H 	0.4767	0.6791	0.6293	-0.013
Mof_C 	C 	0.4901	0.5967	0.776	-0.181
Mof_H 	H 	0.583	0.61	0.8205	0.081
Mof_C 	C 	0.4173	0.5363	0.8269	0.114
Mof_C 	C 	0.2815	0.517	0.7519	-0.183
Mof_H 	H 	0.2292	0.4745	0.7787	0.118
Mof_C 	C 	0.2256	0.5599	0.6403	0.105
Mof_H 	H 	0.1326	0.5479	0.5945	-0.012
Mof_C 	C 	0.4712	0.4939	0.9534	-0.038
Mof_O 	O 	0.3157	0.7905	0.4251	-0.456
Mof_O 	O 	0.3081	0.8315	0.6175	-0.334
Mof_O 	O 	0.6214	0.8412	0.7595	-0.45
Mof_O 	O 	0.556	0.9594	0.8437	-0.336
Mof_N 	N 	0.2949	0.6186	0.5913	-0.286
Mof_Zn	Zn	0.68909	0.8057	0.94045	1.188
Mof_C 	C 	0.8479	0.6586	0.0217	0.327
Mof_C 	C 	0.9324	0.5792	0.0107	-0.047
Mof_C 	C 	0.9092	0.5378	0.8936	-0.006
Mof_H 	H 	0.848	0.5639	0.8213	0.048
Mof_C 	C 	0.0272	0.5413	0.1215	-0.053
Mof_C 	C 	0.0671	0.5824	0.2509	0.321
Mof_C 	C 	0.9265	0.8625	0.1602	0.091
Mof_H 	H 	0.9767	0.8209	0.1293	-0.012
Mof_C 	C 	0.9901	0.9033	0.276	-0.176
Mof_H 	H 	0.083	0.89	0.3205	0.078
Mof_C 	C 	0.9173	0.9637	0.3269	0.112
Mof_C 	C 	0.7815	0.983	0.2519	-0.177
Mof_H 	H 	0.7292	0.0255	0.2787	0.114
Mof_C 	C 	0.7256	0.9401	0.1403	0.102
Mof_H 	H 	0.6326	0.9521	0.0945	-0.01
Mof_C 	C 	0.9712	0.0061	0.4534	-0.04
Mof_O 	O 	0.8157	0.7095	0.9251	-0.457
Mof_O 	O 	0.8081	0.6685	0.1175	-0.334
Mof_O 	O 	0.1214	0.6588	0.2595	-0.45
Mof_O 	O 	0.056	0.5406	0.3437	-0.335
Mof_N 	N 	0.7949	0.8814	0.0913	-0.284
Mof_Zn	Zn	0.81091	0.3057	0.55955	1.188
Mof_C 	C 	0.6521	0.1586	0.4783	0.325
Mof_C 	C 	0.5676	0.0792	0.4893	-0.05
Mof_C 	C 	0.5908	0.0378	0.6064	-0.004
Mof_H 	H 	0.652	0.0639	0.6787	0.048
Mof_C 	C 	0.4728	0.0413	0.3785	-0.052
Mof_C 	C 	0.4329	0.0824	0.2491	0.321
Mof_C 	C 	0.5735	0.3625	0.3398	0.094
Mof_H 	H 	0.5233	0.3209	0.3707	-0.013
Mof_C 	C 	0.5099	0.4033	0.224	-0.181
Mof_H 	H 	0.417	0.39	0.1795	0.081
Mof_C 	C 	0.5827	0.4637	0.1731	0.114
Mof_C 	C 	0.7185	0.483	0.2481	-0.183
Mof_H 	H 	0.7708	0.5255	0.2213	0.118
Mof_C 	C 	0.7744	0.4401	0.3597	0.105
Mof_H 	H 	0.8674	0.4521	0.4055	-0.012
Mof_C 	C 	0.5288	0.5061	0.0466	-0.038
Mof_O 	O 	0.6843	0.2095	0.5749	-0.456
Mof_O 	O 	0.6919	0.1685	0.3825	-0.334
Mof_O 	O 	0.3786	0.1588	0.2405	-0.45
Mof_O 	O 	0.444	0.0406	0.1563	-0.336
Mof_N 	N 	0.7051	0.3814	0.4087	-0.286
_end
