data_functionalizedCrystal
_audit_creation_method	'EQeq! by Chris Wilmer'
_symmetry_space_group_name_H-M	'P1'
_symmetry_Int_Tables_number	1
_symmetry_cell_setting	triclinic
loop_
_symmetry_equiv_pos_as_xyz
  x,y,z
_cell_length_a	13.1523
_cell_length_b	13.1523
_cell_length_c	16.5765
_cell_angle_alpha	111.191
_cell_angle_beta	111.191
_cell_angle_gamma	94.1804
loop_
_atom_site_label
_atom_site_type_symbol
_atom_site_fract_x
_atom_site_fract_y
_atom_site_fract_z
_atom_site_charge
Mof_Cd	Cd	0.12363	0.87637	0.25	0.35
Mof_Cd	Cd	0.87637	0.12363	0.75	0.35
Mof_H 	H 	0.9287	0.9523	0.3144	0.011
Mof_H 	H 	0.2347	0.1389	0.4267	0.034
Mof_H 	H 	0.8758	0.0958	0.4097	0.133
Mof_H 	H 	0.1884	0.2848	0.525	0.188
Mof_H 	H 	0.353	0.8178	0.2318	0.003
Mof_H 	H 	0.0459	0.7187	0.0275	-0.003
Mof_H 	H 	0.4218	0.7252	0.1246	0.148
Mof_H 	H 	0.1117	0.6215	0.9158	0.139
Mof_H 	H 	0.3406	0.6546	0.9113	0.209
Mof_H 	H 	0.2503	0.5381	0.8725	0.164
Mof_H 	H 	0.0405	0.3195	0.6023	0.164
Mof_H 	H 	0.9215	0.2707	0.5299	0.15
Mof_H 	H 	0.0477	0.0713	0.1856	0.009
Mof_H 	H 	0.8611	0.7653	0.0733	0.035
Mof_H 	H 	0.9042	0.1242	0.0903	0.135
Mof_H 	H 	0.7152	0.8116	0.975	0.186
Mof_H 	H 	0.1822	0.647	0.2682	0.002
Mof_H 	H 	0.2813	0.9541	0.4725	-0.004
Mof_H 	H 	0.2748	0.5782	0.3754	0.15
Mof_H 	H 	0.3785	0.8883	0.5842	0.141
Mof_H 	H 	0.3454	0.6594	0.5887	0.21
Mof_H 	H 	0.4619	0.7497	0.6275	0.165
Mof_H 	H 	0.6805	0.9595	0.8977	0.163
Mof_H 	H 	0.7293	0.0785	0.9701	0.15
Mof_H 	H 	0.0713	0.0477	0.6856	0.011
Mof_H 	H 	0.7653	0.8611	0.5733	0.034
Mof_H 	H 	0.1242	0.9042	0.5903	0.133
Mof_H 	H 	0.8116	0.7152	0.475	0.188
Mof_H 	H 	0.647	0.1822	0.7682	0.003
Mof_H 	H 	0.9541	0.2813	0.9725	-0.003
Mof_H 	H 	0.5782	0.2748	0.8754	0.148
Mof_H 	H 	0.8883	0.3785	0.0842	0.139
Mof_H 	H 	0.6594	0.3454	0.0887	0.209
Mof_H 	H 	0.7497	0.4619	0.1275	0.164
Mof_H 	H 	0.9595	0.6805	0.3977	0.164
Mof_H 	H 	0.0785	0.7293	0.4701	0.15
Mof_H 	H 	0.9523	0.9287	0.8144	0.009
Mof_H 	H 	0.1389	0.2347	0.9267	0.035
Mof_H 	H 	0.0958	0.8758	0.9097	0.135
Mof_H 	H 	0.2848	0.1884	0.025	0.186
Mof_H 	H 	0.8178	0.353	0.7318	0.002
Mof_H 	H 	0.7187	0.0459	0.5275	-0.004
Mof_H 	H 	0.7252	0.4218	0.6246	0.15
Mof_H 	H 	0.6215	0.1117	0.4158	0.141
Mof_H 	H 	0.6546	0.3406	0.4113	0.21
Mof_H 	H 	0.5381	0.2503	0.3725	0.165
Mof_H 	H 	0.3195	0.0405	0.1023	0.163
Mof_H 	H 	0.2707	0.9215	0.0299	0.15
Mof_C 	C 	0.30149	0.77903	0.16415	0.129
Mof_C 	C 	0.12436	0.72118	0.04636	0.132
Mof_C 	C 	0.34538	0.7242	0.10063	-0.226
Mof_C 	C 	0.16174	0.66404	0.97858	-0.235
Mof_C 	C 	0.27411	0.66437	0.00499	0.243
Mof_C 	C 	0.315	0.60144	0.93042	-0.257
Mof_C 	C 	0.41004	0.54966	0.96641	-0.021
Mof_C 	C 	0.39181	0.44423	0.96524	0.22
Mof_C 	C 	0.47862	0.39646	0.99743	0.21
Mof_C 	C 	0.98343	0.02017	0.3585	0.122
Mof_C 	C 	0.16091	0.12769	0.4235	0.142
Mof_C 	C 	0.95012	0.10528	0.414	-0.219
Mof_C 	C 	0.13369	0.21671	0.4818	-0.244
Mof_C 	C 	0.02947	0.20497	0.47598	0.257
Mof_C 	C 	0.99492	0.2989	0.53834	-0.288
Mof_C 	C 	0.99859	0.40221	0.51847	-0.017
Mof_C 	C 	0.91397	0.40829	0.44233	0.223
Mof_C 	C 	0.91437	0.50281	0.42436	0.233
Mof_C 	C 	0.22097	0.69851	0.33585	0.131
Mof_C 	C 	0.27882	0.87564	0.45364	0.137
Mof_C 	C 	0.2758	0.65462	0.39937	-0.23
Mof_C 	C 	0.33596	0.83826	0.52142	-0.242
Mof_C 	C 	0.33563	0.72589	0.49501	0.249
Mof_C 	C 	0.39856	0.685	0.56958	-0.261
Mof_C 	C 	0.45034	0.58996	0.53359	-0.02
Mof_C 	C 	0.55577	0.60819	0.53476	0.22
Mof_C 	C 	0.60354	0.52138	0.50257	0.21
Mof_C 	C 	0.97983	0.01657	0.1415	0.126
Mof_C 	C 	0.87231	0.83909	0.0765	0.141
Mof_C 	C 	0.89472	0.04988	0.086	-0.221
Mof_C 	C 	0.78329	0.86631	0.0182	-0.241
Mof_C 	C 	0.79503	0.97053	0.02402	0.258
Mof_C 	C 	0.7011	0.00508	0.96166	-0.288
Mof_C 	C 	0.59779	0.00141	0.98153	-0.016
Mof_C 	C 	0.59171	0.08603	0.05767	0.223
Mof_C 	C 	0.49719	0.08563	0.07564	0.232
Mof_C 	C 	0.69851	0.22097	0.83585	0.129
Mof_C 	C 	0.87564	0.27882	0.95364	0.132
Mof_C 	C 	0.65462	0.2758	0.89937	-0.226
Mof_C 	C 	0.83826	0.33596	0.02142	-0.235
Mof_C 	C 	0.72589	0.33563	0.99501	0.243
Mof_C 	C 	0.685	0.39856	0.06958	-0.257
Mof_C 	C 	0.58996	0.45034	0.03359	-0.021
Mof_C 	C 	0.60819	0.55577	0.03476	0.22
Mof_C 	C 	0.52138	0.60354	0.00257	0.21
Mof_C 	C 	0.01657	0.97983	0.6415	0.122
Mof_C 	C 	0.83909	0.87231	0.5765	0.142
Mof_C 	C 	0.04988	0.89472	0.586	-0.219
Mof_C 	C 	0.86631	0.78329	0.5182	-0.244
Mof_C 	C 	0.97053	0.79503	0.52402	0.257
Mof_C 	C 	0.00508	0.7011	0.46166	-0.288
Mof_C 	C 	0.00141	0.59779	0.48153	-0.017
Mof_C 	C 	0.08603	0.59171	0.55767	0.223
Mof_C 	C 	0.08563	0.49719	0.57564	0.233
Mof_C 	C 	0.77903	0.30149	0.66415	0.131
Mof_C 	C 	0.72118	0.12436	0.54636	0.137
Mof_C 	C 	0.7242	0.34538	0.60063	-0.23
Mof_C 	C 	0.66404	0.16174	0.47858	-0.242
Mof_C 	C 	0.66437	0.27411	0.50499	0.249
Mof_C 	C 	0.60144	0.315	0.43042	-0.261
Mof_C 	C 	0.54966	0.41004	0.46641	-0.02
Mof_C 	C 	0.44423	0.39181	0.46524	0.22
Mof_C 	C 	0.39646	0.47862	0.49743	0.21
Mof_C 	C 	0.02017	0.98343	0.8585	0.126
Mof_C 	C 	0.12769	0.16091	0.9235	0.141
Mof_C 	C 	0.10528	0.95012	0.914	-0.221
Mof_C 	C 	0.21671	0.13369	0.9818	-0.241
Mof_C 	C 	0.20497	0.02947	0.97598	0.258
Mof_C 	C 	0.2989	0.99492	0.03834	-0.288
Mof_C 	C 	0.40221	0.99859	0.01847	-0.016
Mof_C 	C 	0.40829	0.91397	0.94233	0.223
Mof_C 	C 	0.50281	0.91437	0.92436	0.232
Mof_N 	N 	0.19245	0.77825	0.13847	-0.176
Mof_N 	N 	0.09104	0.02666	0.3628	-0.169
Mof_N 	N 	0.22175	0.80755	0.36153	-0.177
Mof_N 	N 	0.97334	0.90896	0.1372	-0.168
Mof_N 	N 	0.80755	0.22175	0.86153	-0.176
Mof_N 	N 	0.90896	0.97334	0.6372	-0.169
Mof_N 	N 	0.77825	0.19245	0.63847	-0.177
Mof_N 	N 	0.02666	0.09104	0.8628	-0.168
Mof_F 	F 	0.28577	0.38683	0.93187	-0.411
Mof_F 	F 	0.45374	0.29318	0.99415	-0.393
Mof_F 	F 	0.82749	0.31795	0.38275	-0.386
Mof_F 	F 	0.82852	0.50152	0.34917	-0.387
Mof_F 	F 	0.61317	0.71423	0.56813	-0.411
Mof_F 	F 	0.70682	0.54626	0.50585	-0.393
Mof_F 	F 	0.68205	0.17251	0.11725	-0.386
Mof_F 	F 	0.49848	0.17148	0.15083	-0.387
Mof_F 	F 	0.71423	0.61317	0.06813	-0.411
Mof_F 	F 	0.54626	0.70682	0.00585	-0.393
Mof_F 	F 	0.17251	0.68205	0.61725	-0.386
Mof_F 	F 	0.17148	0.49848	0.65083	-0.387
Mof_F 	F 	0.38683	0.28577	0.43187	-0.411
Mof_F 	F 	0.29318	0.45374	0.49415	-0.393
Mof_F 	F 	0.31795	0.82749	0.88275	-0.386
Mof_F 	F 	0.50152	0.82852	0.84917	-0.387
_end
