data_functionalizedCrystal
_audit_creation_method	'EQeq! by Chris Wilmer'
_symmetry_space_group_name_H-M	'P1'
_symmetry_Int_Tables_number	1
_symmetry_cell_setting	triclinic
loop_
_symmetry_equiv_pos_as_xyz
  x,y,z
_cell_length_a	10.24
_cell_length_b	10.24
_cell_length_c	9.6523
_cell_angle_alpha	90
_cell_angle_beta	90
_cell_angle_gamma	90
loop_
_atom_site_label
_atom_site_type_symbol
_atom_site_fract_x
_atom_site_fract_y
_atom_site_fract_z
_atom_site_charge
Mof_O 	O 	0.6965	0.4818	0.7819	-0.826
Mof_O 	O 	0.1965	0.9818	0.2819	-0.826
Mof_O 	O 	0.3035	0.5182	0.7819	-0.826
Mof_O 	O 	0.8035	0.0182	0.2819	-0.826
Mof_O 	O 	0.4818	0.3035	0.2181	-0.826
Mof_O 	O 	0.9818	0.8035	0.7181	-0.826
Mof_O 	O 	0.5182	0.6965	0.2181	-0.826
Mof_O 	O 	0.0182	0.1965	0.7181	-0.826
Mof_O 	O 	0.3035	0.4818	0.2181	-0.826
Mof_O 	O 	0.8035	0.9818	0.7181	-0.826
Mof_O 	O 	0.6965	0.5182	0.2181	-0.826
Mof_O 	O 	0.1965	0.0182	0.7181	-0.826
Mof_O 	O 	0.5182	0.3035	0.7819	-0.825
Mof_O 	O 	0.0182	0.8035	0.2819	-0.825
Mof_O 	O 	0.4818	0.6965	0.7819	-0.825
Mof_O 	O 	0.9818	0.1965	0.2819	-0.825
Mof_Al	Al	0.6332	0.3668	0.1316	2.343
Mof_P 	P 	0.6647	0.3353	0.8091	0.763
Mof_O 	O 	0.6999	0.3001	0.9555	-0.8
Mof_O 	O 	0.7413	0.2587	0.7046	-0.654
Mof_Al	Al	0.1332	0.8668	0.6316	2.342
Mof_P 	P 	0.1647	0.8353	0.3091	0.763
Mof_O 	O 	0.1999	0.8001	0.4555	-0.8
Mof_O 	O 	0.2413	0.7587	0.2046	-0.654
Mof_Al	Al	0.3668	0.6332	0.1316	2.343
Mof_P 	P 	0.3353	0.6647	0.8091	0.763
Mof_O 	O 	0.3001	0.6999	0.9555	-0.8
Mof_O 	O 	0.2587	0.7413	0.7046	-0.654
Mof_Al	Al	0.8668	0.1332	0.6316	2.342
Mof_P 	P 	0.8353	0.1647	0.3091	0.763
Mof_O 	O 	0.8001	0.1999	0.4555	-0.8
Mof_O 	O 	0.7587	0.2413	0.2046	-0.654
Mof_Al	Al	0.3668	0.3668	0.8684	2.343
Mof_P 	P 	0.3353	0.3353	0.1909	0.763
Mof_O 	O 	0.3001	0.3001	0.0445	-0.8
Mof_O 	O 	0.2587	0.2587	0.2954	-0.654
Mof_Al	Al	0.8668	0.8668	0.3684	2.342
Mof_P 	P 	0.8353	0.8353	0.6909	0.763
Mof_O 	O 	0.8001	0.8001	0.5445	-0.8
Mof_O 	O 	0.7587	0.7587	0.7954	-0.654
Mof_Al	Al	0.6332	0.6332	0.8684	2.343
Mof_P 	P 	0.6647	0.6647	0.1909	0.763
Mof_O 	O 	0.6999	0.6999	0.0445	-0.8
Mof_O 	O 	0.7413	0.7413	0.2954	-0.654
Mof_Al	Al	0.1332	0.1332	0.3684	2.342
Mof_P 	P 	0.1647	0.1647	0.6909	0.763
Mof_O 	O 	0.1999	0.1999	0.5445	-0.8
Mof_O 	O 	0.2413	0.2413	0.7954	-0.654
_end
