data_functionalizedCrystal
_audit_creation_method	'EQeq! by Chris Wilmer'
_symmetry_space_group_name_H-M	'P1'
_symmetry_Int_Tables_number	1
_symmetry_cell_setting	triclinic
loop_
_symmetry_equiv_pos_as_xyz
  x,y,z
_cell_length_a	13.838
_cell_length_b	26.893
_cell_length_c	7.543
_cell_angle_alpha	90
_cell_angle_beta	90
_cell_angle_gamma	90.92
loop_
_atom_site_label
_atom_site_type_symbol
_atom_site_fract_x
_atom_site_fract_y
_atom_site_fract_z
_atom_site_charge
Mof_Cd	Cd	0.26592	0.3696	0.37952	0.374
Mof_Cd	Cd	0.19154	0.63703	0.37937	0.372
Mof_Ni	Ni	0.19669	0.50006	0.8723	1.059
Mof_Ni	Ni	0.9959	0.23606	0.2604	1.067
Mof_N 	N 	0.222	0.4215	0.148	-0.073
Mof_N 	N 	0.2097	0.4227	0.587	-0.076
Mof_N 	N 	0.1302	0.3184	0.372	-0.07
Mof_N 	N 	0.3342	0.3162	0.602	-0.066
Mof_N 	N 	0.3266	0.3139	0.157	-0.114
Mof_N 	N 	0.4288	0.39243	0.338	-0.125
Mof_N 	N 	0.2052	0.5757	0.163	-0.073
Mof_N 	N 	0.1861	0.5821	0.604	-0.078
Mof_N 	N 	0.8534	0.1579	0.13	-0.075
Mof_N 	N 	0.8321	0.293	0.42	-0.065
Mof_N 	N 	0.1687	0.6944	0.144	-0.114
Mof_N 	N 	0.0238	0.6346	0.326	-0.123
Mof_C 	C 	0.2116	0.4506	0.044	-0.23
Mof_C 	C 	0.201	0.4519	0.694	-0.231
Mof_C 	C 	0.0789	0.2869	0.333	-0.215
Mof_C 	C 	0.3992	0.2969	0.664	-0.22
Mof_C 	C 	0.2006	0.5477	0.051	-0.236
Mof_C 	C 	0.1883	0.551	0.704	-0.231
Mof_C 	C 	0.9097	0.1868	0.181	-0.221
Mof_C 	C 	0.894	0.2709	0.358	-0.222
Mof_C 	C 	0.429	0.3212	0.148	-0.018
Mof_C 	C 	0.47	0.3668	0.189	0.038
Mof_C 	C 	0.58	0.373	0.167	-0.035
Mof_C 	C 	0.068	0.6971	0.114	-0.014
Mof_C 	C 	0.9991	0.6698	0.187	0.033
Mof_C 	C 	0.8944	0.6761	0.147	-0.022
Mof_Cd	Cd	0.23408	0.1304	0.87952	0.373
Mof_Cd	Cd	0.30846	0.86297	0.87937	0.372
Mof_Ni	Ni	0.30331	0.99994	0.3723	1.06
Mof_Ni	Ni	0.5041	0.26394	0.7604	1.068
Mof_N 	N 	0.278	0.0785	0.648	-0.073
Mof_N 	N 	0.2903	0.0773	0.087	-0.075
Mof_N 	N 	0.3698	0.1816	0.872	-0.07
Mof_N 	N 	0.1658	0.1838	0.102	-0.065
Mof_N 	N 	0.1734	0.1861	0.657	-0.114
Mof_N 	N 	0.0712	0.10757	0.838	-0.126
Mof_N 	N 	0.2948	0.9243	0.663	-0.073
Mof_N 	N 	0.3139	0.9179	0.104	-0.077
Mof_N 	N 	0.6466	0.3421	0.63	-0.075
Mof_N 	N 	0.6679	0.207	0.92	-0.065
Mof_N 	N 	0.3313	0.8056	0.644	-0.114
Mof_N 	N 	0.4762	0.8654	0.826	-0.124
Mof_C 	C 	0.2884	0.0494	0.544	-0.231
Mof_C 	C 	0.299	0.0481	0.194	-0.229
Mof_C 	C 	0.4211	0.2131	0.833	-0.218
Mof_C 	C 	0.1008	0.2031	0.164	-0.217
Mof_C 	C 	0.2994	0.9523	0.551	-0.238
Mof_C 	C 	0.3117	0.949	0.204	-0.23
Mof_C 	C 	0.5903	0.3132	0.681	-0.219
Mof_C 	C 	0.606	0.2291	0.858	-0.221
Mof_C 	C 	0.071	0.1788	0.648	-0.018
Mof_C 	C 	0.03	0.1332	0.689	0.039
Mof_C 	C 	0.92	0.127	0.667	-0.034
Mof_C 	C 	0.432	0.8029	0.614	-0.017
Mof_C 	C 	0.5009	0.8302	0.687	0.035
Mof_C 	C 	0.6056	0.8239	0.647	-0.021
Mof_Cd	Cd	0.73408	0.6304	0.62048	0.375
Mof_Cd	Cd	0.80846	0.36297	0.62063	0.373
Mof_Ni	Ni	0.80331	0.49994	0.1277	1.059
Mof_Ni	Ni	0.0041	0.76394	0.7396	1.067
Mof_N 	N 	0.778	0.5785	0.852	-0.073
Mof_N 	N 	0.7903	0.5773	0.413	-0.076
Mof_N 	N 	0.8698	0.6816	0.628	-0.07
Mof_N 	N 	0.6658	0.6838	0.398	-0.066
Mof_N 	N 	0.6734	0.6861	0.843	-0.114
Mof_N 	N 	0.5712	0.60757	0.662	-0.125
Mof_N 	N 	0.7948	0.4243	0.837	-0.073
Mof_N 	N 	0.8139	0.4179	0.396	-0.078
Mof_N 	N 	0.1466	0.8421	0.87	-0.075
Mof_N 	N 	0.1679	0.707	0.58	-0.065
Mof_N 	N 	0.8313	0.3056	0.856	-0.114
Mof_N 	N 	0.9762	0.3654	0.674	-0.123
Mof_C 	C 	0.7884	0.5494	0.956	-0.23
Mof_C 	C 	0.799	0.5481	0.306	-0.231
Mof_C 	C 	0.9211	0.7131	0.667	-0.215
Mof_C 	C 	0.6008	0.7031	0.336	-0.22
Mof_C 	C 	0.7994	0.4523	0.949	-0.236
Mof_C 	C 	0.8117	0.449	0.296	-0.231
Mof_C 	C 	0.0903	0.8132	0.819	-0.221
Mof_C 	C 	0.106	0.7291	0.642	-0.222
Mof_C 	C 	0.571	0.6788	0.852	-0.018
Mof_C 	C 	0.53	0.6332	0.811	0.038
Mof_C 	C 	0.42	0.627	0.833	-0.035
Mof_C 	C 	0.932	0.3029	0.886	-0.014
Mof_C 	C 	0.0009	0.3302	0.813	0.033
Mof_C 	C 	0.1056	0.3239	0.853	-0.022
Mof_Cd	Cd	0.76592	0.8696	0.12048	0.373
Mof_Cd	Cd	0.69154	0.13703	0.12063	0.372
Mof_Ni	Ni	0.69669	6e-05	0.6277	1.06
Mof_Ni	Ni	0.4959	0.73606	0.2396	1.068
Mof_N 	N 	0.722	0.9215	0.352	-0.073
Mof_N 	N 	0.7097	0.9227	0.913	-0.075
Mof_N 	N 	0.6302	0.8184	0.128	-0.07
Mof_N 	N 	0.8342	0.8162	0.898	-0.065
Mof_N 	N 	0.8266	0.8139	0.343	-0.114
Mof_N 	N 	0.9288	0.89243	0.162	-0.126
Mof_N 	N 	0.7052	0.0757	0.337	-0.073
Mof_N 	N 	0.6861	0.0821	0.896	-0.077
Mof_N 	N 	0.3534	0.6579	0.37	-0.075
Mof_N 	N 	0.3321	0.793	0.08	-0.065
Mof_N 	N 	0.6687	0.1944	0.356	-0.114
Mof_N 	N 	0.5238	0.1346	0.174	-0.124
Mof_C 	C 	0.7116	0.9506	0.456	-0.231
Mof_C 	C 	0.701	0.9519	0.806	-0.229
Mof_C 	C 	0.5789	0.7869	0.167	-0.218
Mof_C 	C 	0.8992	0.7969	0.836	-0.217
Mof_C 	C 	0.7006	0.0477	0.449	-0.238
Mof_C 	C 	0.6883	0.051	0.796	-0.23
Mof_C 	C 	0.4097	0.6868	0.319	-0.219
Mof_C 	C 	0.394	0.7709	0.142	-0.221
Mof_C 	C 	0.929	0.8212	0.352	-0.018
Mof_C 	C 	0.97	0.8668	0.311	0.039
Mof_C 	C 	0.08	0.873	0.333	-0.034
Mof_C 	C 	0.568	0.1971	0.386	-0.017
Mof_C 	C 	0.4991	0.1698	0.313	0.035
Mof_C 	C 	0.3944	0.1761	0.353	-0.021
_end
