data_functionalizedCrystal
_audit_creation_method	'EQeq! by Chris Wilmer'
_symmetry_space_group_name_H-M	'P1'
_symmetry_Int_Tables_number	1
_symmetry_cell_setting	triclinic
loop_
_symmetry_equiv_pos_as_xyz
  x,y,z
_cell_length_a	20.5909
_cell_length_b	20.5909
_cell_length_c	28.3082
_cell_angle_alpha	90
_cell_angle_beta	90
_cell_angle_gamma	120
loop_
_atom_site_label
_atom_site_type_symbol
_atom_site_fract_x
_atom_site_fract_y
_atom_site_fract_z
_atom_site_charge
Mof_K 	K 	0.15045	0.39599	0.02815	3.509
Mof_K 	K 	0.92559	0.72803	0.11036	3.44
Mof_K 	K 	0.57481	0.05749	0.11394	3.548
Mof_K 	K 	0.24554	0.84955	0.36148	3.427
Mof_K 	K 	0.80244	0.07441	0.44369	3.433
Mof_K 	K 	0.48268	0.42519	0.44727	3.541
Mof_K 	K 	0.60401	0.75446	0.69482	3.426
Mof_K 	K 	0.27197	0.19756	0.77703	3.43
Mof_K 	K 	0.94251	0.51732	0.78061	3.534
Mof_K 	K 	0.84955	0.60401	0.52815	3.427
Mof_K 	K 	0.07441	0.27197	0.61036	3.434
Mof_K 	K 	0.42519	0.94251	0.61394	3.537
Mof_K 	K 	0.75446	0.15045	0.86148	3.414
Mof_K 	K 	0.19756	0.92559	0.94369	3.338
Mof_K 	K 	0.51732	0.57481	0.94727	3.465
Mof_K 	K 	0.39599	0.24554	0.19482	3.432
Mof_K 	K 	0.72803	0.80244	0.27703	3.432
Mof_K 	K 	0.05749	0.48268	0.28061	3.538
Mof_Cd	Cd	0.112	0.44325	0.1556	0.329
Mof_Cd	Cd	0.00301	0.77051	0.98199	0.288
Mof_Cd	Cd	0.42354	0.08737	0.15646	0.284
Mof_Cd	Cd	0.33125	0.888	0.48893	0.331
Mof_Cd	Cd	0.7675	0.99699	0.31532	0.322
Mof_Cd	Cd	0.66383	0.57646	0.48979	0.283
Mof_Cd	Cd	0.55675	0.66875	0.82226	0.332
Mof_Cd	Cd	0.22949	0.2325	0.64866	0.322
Mof_Cd	Cd	0.91264	0.33618	0.82313	0.283
Mof_Cd	Cd	0.888	0.55675	0.6556	0.331
Mof_Cd	Cd	0.99699	0.22949	0.48199	0.321
Mof_Cd	Cd	0.57646	0.91263	0.65646	0.283
Mof_Cd	Cd	0.66875	0.112	0.98893	0.298
Mof_Cd	Cd	0.2325	0.00301	0.81532	0.325
Mof_Cd	Cd	0.33617	0.42353	0.98979	0.25
Mof_Cd	Cd	0.44325	0.33125	0.32226	0.331
Mof_Cd	Cd	0.77051	0.7675	0.14866	0.322
Mof_Cd	Cd	0.08737	0.66383	0.32313	0.283
Mof_H 	H 	0.3141	0.4396	0.2502	-0.086
Mof_H 	H 	0.3745	0.5307	0.379	-0.12
Mof_H 	H 	0.308	0.5921	0.3682	0.115
Mof_H 	H 	0.2389	0.573	0.3001	-0.153
Mof_H 	H 	0.9667	0.2006	0.2207	-0.049
Mof_H 	H 	0.8878	0.9935	0.1679	-0.012
Mof_H 	H 	0.9636	0.0453	0.1017	0.1
Mof_H 	H 	0.0361	0.1732	0.0937	-0.081
Mof_H 	H 	0.1197	0.6555	0.0657	-0.082
Mof_H 	H 	0.2587	0.5851	0.0204	-0.134
Mof_H 	H 	0.2856	0.66	0.9542	0.103
Mof_H 	H 	0.2314	0.7347	0.9443	-0.073
Mof_H 	H 	0.6249	0.0983	0.2449	-0.165
Mof_H 	H 	0.6973	0.1856	0.3736	-0.118
Mof_H 	H 	0.6339	0.2516	0.3666	0.136
Mof_H 	H 	0.557	0.2319	0.3022	-0.066
Mof_H 	H 	0.4444	0.2921	0.0714	-0.2
Mof_H 	H 	0.5886	0.234	0.018	-0.084
Mof_H 	H 	0.6175	0.3215	0.9578	0.154
Mof_H 	H 	0.5546	0.388	0.9525	-0.123
Mof_H 	H 	0.188	0.9774	0.0659	-0.292
Mof_H 	H 	0.1739	0.0639	0.1878	-0.154
Mof_H 	H 	0.0451	0.0003	0.1789	0.163
Mof_H 	H 	0.99	0.9227	0.1144	-0.154
Mof_H 	H 	0.1255	0.6859	0.58353	-0.086
Mof_H 	H 	0.1562	0.6255	0.71233	-0.12
Mof_H 	H 	0.2841	0.692	0.70153	0.115
Mof_H 	H 	0.3341	0.7611	0.63343	-0.153
Mof_H 	H 	0.2339	0.0333	0.55403	-0.049
Mof_H 	H 	0.1057	0.1122	0.50123	-0.014
Mof_H 	H 	0.0817	0.0364	0.43503	0.098
Mof_H 	H 	0.1371	0.9639	0.42703	-0.082
Mof_H 	H 	0.5358	0.8803	0.39903	-0.099
Mof_H 	H 	0.3264	0.7413	0.35373	-0.13
Mof_H 	H 	0.3744	0.7144	0.28753	0.104
Mof_H 	H 	0.5033	0.7686	0.27763	-0.096
Mof_H 	H 	0.4734	0.3751	0.57823	-0.165
Mof_H 	H 	0.4883	0.3027	0.70693	-0.117
Mof_H 	H 	0.6177	0.3661	0.69993	0.135
Mof_H 	H 	0.6749	0.443	0.63553	-0.066
Mof_H 	H 	0.8477	0.5556	0.40473	-0.2
Mof_H 	H 	0.6454	0.4114	0.35133	-0.073
Mof_H 	H 	0.704	0.3825	0.29113	0.142
Mof_H 	H 	0.8334	0.4454	0.28583	-0.127
Mof_H 	H 	0.7894	0.812	0.39923	-0.307
Mof_H 	H 	0.89	0.8261	0.52113	-0.159
Mof_H 	H 	0.9552	0.9549	0.51223	0.17
Mof_H 	H 	0.9327	0.01	0.44773	-0.162
Mof_H 	H 	0.5604	0.8745	0.91687	-0.082
Mof_H 	H 	0.4693	0.8438	0.04567	-0.12
Mof_H 	H 	0.4079	0.7159	0.03487	0.1
Mof_H 	H 	0.427	0.6659	0.96677	-0.136
Mof_H 	H 	0.7994	0.7661	0.88737	-0.051
Mof_H 	H 	0.0065	0.8943	0.83457	-0.012
Mof_H 	H 	0.9547	0.9183	0.76837	0.098
Mof_H 	H 	0.8268	0.8629	0.76037	-0.082
Mof_H 	H 	0.3445	0.4642	0.73237	-0.099
Mof_H 	H 	0.4149	0.6736	0.68707	-0.13
Mof_H 	H 	0.34	0.6256	0.62087	0.104
Mof_H 	H 	0.2653	0.4967	0.61097	-0.096
Mof_H 	H 	0.9017	0.5266	0.91157	-0.162
Mof_H 	H 	0.8144	0.5117	0.04027	-0.118
Mof_H 	H 	0.7484	0.3823	0.03327	0.121
Mof_H 	H 	0.7681	0.3251	0.96887	-0.052
Mof_H 	H 	0.7079	0.1523	0.73807	-0.199
Mof_H 	H 	0.766	0.3546	0.68467	-0.073
Mof_H 	H 	0.6785	0.296	0.62447	0.142
Mof_H 	H 	0.612	0.1666	0.61917	-0.127
Mof_H 	H 	0.0226	0.2106	0.73257	-0.307
Mof_H 	H 	0.9361	0.11	0.85447	-0.159
Mof_H 	H 	0.9997	0.0448	0.84557	0.169
Mof_H 	H 	0.0773	0.0673	0.78107	-0.16
Mof_H 	H 	0.6859	0.5604	0.7502	-0.085
Mof_H 	H 	0.6255	0.4693	0.879	-0.12
Mof_H 	H 	0.692	0.4079	0.8682	0.114
Mof_H 	H 	0.7611	0.427	0.8001	-0.152
Mof_H 	H 	0.0333	0.7994	0.7207	-0.048
Mof_H 	H 	0.1122	0.0065	0.6679	-0.011
Mof_H 	H 	0.0364	0.9547	0.6017	0.097
Mof_H 	H 	0.9639	0.8268	0.5937	-0.081
Mof_H 	H 	0.8803	0.3445	0.5657	-0.099
Mof_H 	H 	0.7413	0.4149	0.5204	-0.13
Mof_H 	H 	0.7144	0.34	0.4542	0.104
Mof_H 	H 	0.7686	0.2653	0.4443	-0.096
Mof_H 	H 	0.3751	0.9017	0.7449	-0.165
Mof_H 	H 	0.3027	0.8144	0.8736	-0.118
Mof_H 	H 	0.3661	0.7484	0.8666	0.134
Mof_H 	H 	0.443	0.7681	0.8022	-0.065
Mof_H 	H 	0.5556	0.7079	0.5714	-0.2
Mof_H 	H 	0.4114	0.766	0.518	-0.073
Mof_H 	H 	0.3825	0.6785	0.4578	0.142
Mof_H 	H 	0.4454	0.612	0.4525	-0.127
Mof_H 	H 	0.812	0.0226	0.5659	-0.307
Mof_H 	H 	0.8261	0.9361	0.6878	-0.157
Mof_H 	H 	0.9549	0.9997	0.6789	0.167
Mof_H 	H 	0.01	0.0773	0.6144	-0.159
Mof_H 	H 	0.8745	0.3141	0.08353	-0.082
Mof_H 	H 	0.8438	0.3745	0.21233	-0.119
Mof_H 	H 	0.7159	0.308	0.20153	0.115
Mof_H 	H 	0.6659	0.2389	0.13343	-0.152
Mof_H 	H 	0.7661	0.9667	0.05403	-0.039
Mof_H 	H 	0.8943	0.8878	0.00123	0.076
Mof_H 	H 	0.9183	0.9636	0.93503	0.059
Mof_H 	H 	0.8629	0.0361	0.92703	-0.062
Mof_H 	H 	0.4642	0.1197	0.89903	-0.101
Mof_H 	H 	0.6736	0.2587	0.85373	-0.13
Mof_H 	H 	0.6256	0.2856	0.78753	0.105
Mof_H 	H 	0.4967	0.2314	0.77763	-0.096
Mof_H 	H 	0.5266	0.6249	0.07823	-0.156
Mof_H 	H 	0.5117	0.6973	0.20693	-0.116
Mof_H 	H 	0.3823	0.6339	0.19993	0.134
Mof_H 	H 	0.3251	0.557	0.13553	-0.064
Mof_H 	H 	0.1523	0.4444	0.90473	-0.209
Mof_H 	H 	0.3546	0.5886	0.85133	-0.075
Mof_H 	H 	0.296	0.6175	0.79113	0.144
Mof_H 	H 	0.1666	0.5546	0.78583	-0.128
Mof_H 	H 	0.2106	0.188	0.89923	-0.303
Mof_H 	H 	0.11	0.1739	0.02113	-0.125
Mof_H 	H 	0.0448	0.0451	0.01223	0.207
Mof_H 	H 	0.0673	0.99	0.94773	-0.175
Mof_H 	H 	0.4396	0.1255	0.41687	-0.086
Mof_H 	H 	0.5307	0.1562	0.54567	-0.12
Mof_H 	H 	0.5921	0.2841	0.53487	0.115
Mof_H 	H 	0.573	0.3341	0.46677	-0.153
Mof_H 	H 	0.2006	0.2339	0.38737	-0.049
Mof_H 	H 	0.9935	0.1057	0.33457	-0.014
Mof_H 	H 	0.0453	0.0817	0.26837	0.098
Mof_H 	H 	0.1732	0.1371	0.26037	-0.082
Mof_H 	H 	0.6555	0.5358	0.23237	-0.099
Mof_H 	H 	0.5851	0.3264	0.18707	-0.13
Mof_H 	H 	0.66	0.3744	0.12087	0.105
Mof_H 	H 	0.7347	0.5033	0.11097	-0.094
Mof_H 	H 	0.0983	0.4734	0.41157	-0.165
Mof_H 	H 	0.1856	0.4883	0.54027	-0.118
Mof_H 	H 	0.2516	0.6177	0.53327	0.135
Mof_H 	H 	0.2319	0.6749	0.46887	-0.066
Mof_H 	H 	0.2921	0.8477	0.23807	-0.2
Mof_H 	H 	0.234	0.6454	0.18467	-0.073
Mof_H 	H 	0.3215	0.704	0.12447	0.143
Mof_H 	H 	0.388	0.8334	0.11917	-0.125
Mof_H 	H 	0.9774	0.7894	0.23257	-0.308
Mof_H 	H 	0.0639	0.89	0.35447	-0.158
Mof_H 	H 	0.0003	0.9552	0.34557	0.169
Mof_H 	H 	0.9227	0.9327	0.28107	-0.161
Mof_C 	C 	0.31127	0.46878	0.27437	0.236
Mof_C 	C 	0.35035	0.47755	0.31651	-0.365
Mof_C 	C 	0.3482	0.5238	0.35104	0.235
Mof_C 	C 	0.3078	0.5603	0.34477	-0.335
Mof_C 	C 	0.2671	0.5495	0.30393	0.203
Mof_C 	C 	0.26839	0.50273	0.26798	-0.358
Mof_C 	C 	0.39272	0.43626	0.32312	0.539
Mof_C 	C 	0.22031	0.48551	0.22486	0.465
Mof_C 	C 	0.96487	0.16953	0.19627	0.155
Mof_C 	C 	0.91952	0.09265	0.20062	-0.222
Mof_C 	C 	0.9182	0.0452	0.16511	0.118
Mof_C 	C 	0.9631	0.0764	0.12534	-0.236
Mof_C 	C 	0.0069	0.1532	0.12063	0.161
Mof_C 	C 	0.00772	0.20105	0.15587	-0.29
Mof_C 	C 	0.86794	0.06046	0.24294	0.371
Mof_C 	C 	0.05327	0.28489	0.15007	0.504
Mof_C 	C 	0.15212	0.65562	0.04277	0.18
Mof_C 	C 	0.18472	0.61092	0.0489	-0.338
Mof_C 	C 	0.2357	0.6137	0.01607	0.213
Mof_C 	C 	0.2521	0.6589	0.97666	-0.319
Mof_C 	C 	0.2189	0.7032	0.97036	0.113
Mof_C 	C 	0.1673	0.7	0.00307	-0.24
Mof_C 	C 	0.16138	0.55788	0.09016	0.444
Mof_C 	C 	0.1247	0.7414	0.99359	0.382
Mof_C 	C 	0.625	0.12722	0.27018	0.285
Mof_C 	C 	0.66772	0.13436	0.30992	-0.368
Mof_C 	C 	0.6695	0.1804	0.34649	0.24
Mof_C 	C 	0.6301	0.2187	0.34282	-0.346
Mof_C 	C 	0.5853	0.2082	0.30377	0.255
Mof_C 	C 	0.58231	0.16246	0.26726	-0.398
Mof_C 	C 	0.7073	0.0903	0.31359	0.482
Mof_C 	C 	0.53023	0.14403	0.22622	0.582
Mof_C 	C 	0.47758	0.29637	0.04767	0.325
Mof_C 	C 	0.5132	0.25411	0.05075	-0.436
Mof_C 	C 	0.565	0.2624	0.0166	0.331
Mof_C 	C 	0.5813	0.314	0.98011	-0.416
Mof_C 	C 	0.5437	0.3541	0.97707	0.242
Mof_C 	C 	0.4903	0.34429	0.01031	-0.384
Mof_C 	C 	0.49062	0.19764	0.08953	0.61
Mof_C 	C 	0.4432	0.38105	0.00483	0.536
Mof_C 	C 	0.1639	0.9832	0.0881	0.51
Mof_C 	C 	0.1976	0.02709	0.12795	-0.512
Mof_C 	C 	0.1523	0.0336	0.16151	0.34
Mof_C 	C 	0.075	0.9952	0.15623	-0.455
Mof_C 	C 	0.0419	0.9493	0.11733	0.342
Mof_C 	C 	0.08655	0.94323	0.08284	-0.588
Mof_C 	C 	0.2801	0.0578	0.13597	0.521
Mof_C 	C 	0.0547	0.88869	0.04265	0.712
Mof_C 	C 	0.15751	0.68873	0.6077	0.235
Mof_C 	C 	0.1272	0.64965	0.64984	-0.364
Mof_C 	C 	0.1756	0.6518	0.68437	0.234
Mof_C 	C 	0.2525	0.6922	0.6781	-0.334
Mof_C 	C 	0.2824	0.7329	0.63726	0.202
Mof_C 	C 	0.23434	0.73161	0.60131	-0.358
Mof_C 	C 	0.04354	0.60728	0.65645	0.539
Mof_C 	C 	0.2652	0.77969	0.55819	0.464
Mof_C 	C 	0.20466	0.03513	0.5296	0.155
Mof_C 	C 	0.17313	0.08048	0.53395	-0.223
Mof_C 	C 	0.127	0.0818	0.49844	0.121
Mof_C 	C 	0.1133	0.0369	0.45867	-0.237
Mof_C 	C 	0.1463	0.9931	0.45396	0.16
Mof_C 	C 	0.19333	0.99228	0.4892	-0.289
Mof_C 	C 	0.19252	0.13206	0.57627	0.373
Mof_C 	C 	0.23162	0.94673	0.4834	0.501
Mof_C 	C 	0.5035	0.84788	0.3761	0.222
Mof_C 	C 	0.4262	0.81528	0.38223	-0.349
Mof_C 	C 	0.378	0.7643	0.3494	0.182
Mof_C 	C 	0.4068	0.7479	0.30999	-0.303
Mof_C 	C 	0.4843	0.7811	0.30369	0.189
Mof_C 	C 	0.5327	0.8327	0.3364	-0.344
Mof_C 	C 	0.3965	0.83862	0.42349	0.445
Mof_C 	C 	0.6167	0.8753	0.32692	0.48
Mof_C 	C 	0.50222	0.375	0.60351	0.285
Mof_C 	C 	0.46664	0.33228	0.64325	-0.368
Mof_C 	C 	0.5109	0.3305	0.67982	0.24
Mof_C 	C 	0.5886	0.3699	0.67615	-0.345
Mof_C 	C 	0.6229	0.4147	0.6371	0.254
Mof_C 	C 	0.58015	0.41769	0.60059	-0.397
Mof_C 	C 	0.383	0.2927	0.64692	0.482
Mof_C 	C 	0.6138	0.46977	0.55955	0.581
Mof_C 	C 	0.81879	0.52242	0.381	0.319
Mof_C 	C 	0.74091	0.4868	0.38408	-0.423
Mof_C 	C 	0.6974	0.435	0.34993	0.272
Mof_C 	C 	0.7327	0.4187	0.31344	-0.364
Mof_C 	C 	0.8104	0.4563	0.3104	0.265
Mof_C 	C 	0.85399	0.5097	0.34364	-0.409
Mof_C 	C 	0.70702	0.50938	0.42286	0.603
Mof_C 	C 	0.93785	0.5568	0.33816	0.502
Mof_C 	C 	0.8193	0.8361	0.42143	0.527
Mof_C 	C 	0.82949	0.8024	0.46128	-0.525
Mof_C 	C 	0.8813	0.8477	0.49484	0.354
Mof_C 	C 	0.9202	0.925	0.48956	-0.472
Mof_C 	C 	0.9074	0.9581	0.45066	0.359
Mof_C 	C 	0.85668	0.91345	0.41617	-0.607
Mof_C 	C 	0.7777	0.7199	0.4693	0.525
Mof_C 	C 	0.83399	0.9453	0.37598	0.727
Mof_C 	C 	0.53122	0.84249	0.94104	0.224
Mof_C 	C 	0.52245	0.8728	0.98318	-0.384
Mof_C 	C 	0.4762	0.8244	0.01771	0.253
Mof_C 	C 	0.4397	0.7475	0.01144	-0.272
Mof_C 	C 	0.4505	0.7176	0.9706	0.134
Mof_C 	C 	0.49727	0.76566	0.93465	-0.337
Mof_C 	C 	0.56374	0.95646	0.98979	0.498
Mof_C 	C 	0.51449	0.7348	0.89153	0.454
Mof_C 	C 	0.83047	0.79534	0.86294	0.155
Mof_C 	C 	0.90735	0.82687	0.86729	-0.223
Mof_C 	C 	0.9548	0.873	0.83178	0.119
Mof_C 	C 	0.9236	0.8867	0.79201	-0.237
Mof_C 	C 	0.8468	0.8537	0.7873	0.16
Mof_C 	C 	0.79895	0.80667	0.82254	-0.288
Mof_C 	C 	0.93954	0.80748	0.90961	0.372
Mof_C 	C 	0.71511	0.76838	0.81674	0.5
Mof_C 	C 	0.34438	0.4965	0.70944	0.222
Mof_C 	C 	0.38908	0.5738	0.71557	-0.348
Mof_C 	C 	0.3863	0.622	0.68274	0.182
Mof_C 	C 	0.3411	0.5932	0.64333	-0.302
Mof_C 	C 	0.2968	0.5157	0.63703	0.189
Mof_C 	C 	0.3	0.4673	0.66974	-0.344
Mof_C 	C 	0.44212	0.6035	0.75683	0.445
Mof_C 	C 	0.2586	0.3833	0.66026	0.48
Mof_C 	C 	0.87278	0.49778	0.93685	0.273
Mof_C 	C 	0.86564	0.53336	0.97659	-0.387
Mof_C 	C 	0.8196	0.4891	0.01316	0.257
Mof_C 	C 	0.7813	0.4114	0.00949	-0.286
Mof_C 	C 	0.7918	0.3771	0.97044	0.187
Mof_C 	C 	0.83754	0.41985	0.93393	-0.379
Mof_C 	C 	0.9097	0.617	0.98026	0.441
Mof_C 	C 	0.85597	0.3862	0.89289	0.572
Mof_C 	C 	0.70363	0.18121	0.71434	0.318
Mof_C 	C 	0.74589	0.25909	0.71742	-0.422
Mof_C 	C 	0.7376	0.3026	0.68327	0.271
Mof_C 	C 	0.686	0.2673	0.64678	-0.363
Mof_C 	C 	0.6459	0.1896	0.64374	0.264
Mof_C 	C 	0.65571	0.14601	0.67698	-0.408
Mof_C 	C 	0.80236	0.29298	0.7562	0.602
Mof_C 	C 	0.61895	0.06215	0.6715	0.502
Mof_C 	C 	0.0168	0.1807	0.75477	0.527
Mof_C 	C 	0.97291	0.17051	0.79462	-0.526
Mof_C 	C 	0.9664	0.1187	0.82818	0.351
Mof_C 	C 	0.0048	0.0798	0.8229	-0.467
Mof_C 	C 	0.0507	0.0926	0.784	0.357
Mof_C 	C 	0.05677	0.14332	0.74951	-0.606
Mof_C 	C 	0.9422	0.2223	0.80264	0.525
Mof_C 	C 	0.11131	0.16601	0.70932	0.727
Mof_C 	C 	0.68873	0.53122	0.77437	0.234
Mof_C 	C 	0.64965	0.52245	0.81651	-0.362
Mof_C 	C 	0.6518	0.4762	0.85104	0.232
Mof_C 	C 	0.6922	0.4397	0.84477	-0.333
Mof_C 	C 	0.7329	0.4505	0.80393	0.201
Mof_C 	C 	0.73161	0.49727	0.76798	-0.357
Mof_C 	C 	0.60728	0.56374	0.82312	0.536
Mof_C 	C 	0.77969	0.51449	0.72486	0.464
Mof_C 	C 	0.03513	0.83047	0.69627	0.153
Mof_C 	C 	0.08048	0.90735	0.70062	-0.22
Mof_C 	C 	0.0818	0.9548	0.66511	0.116
Mof_C 	C 	0.0369	0.9236	0.62534	-0.234
Mof_C 	C 	0.9931	0.8468	0.62063	0.158
Mof_C 	C 	0.99228	0.79895	0.65587	-0.287
Mof_C 	C 	0.13206	0.93954	0.74294	0.37
Mof_C 	C 	0.94673	0.71511	0.65007	0.5
Mof_C 	C 	0.84788	0.34438	0.54277	0.222
Mof_C 	C 	0.81528	0.38908	0.5489	-0.349
Mof_C 	C 	0.7643	0.3863	0.51607	0.182
Mof_C 	C 	0.7479	0.3411	0.47666	-0.303
Mof_C 	C 	0.7811	0.2968	0.47036	0.189
Mof_C 	C 	0.8327	0.3	0.50307	-0.344
Mof_C 	C 	0.83862	0.44212	0.59016	0.445
Mof_C 	C 	0.8753	0.2586	0.49359	0.48
Mof_C 	C 	0.375	0.87278	0.77018	0.284
Mof_C 	C 	0.33228	0.86564	0.80992	-0.366
Mof_C 	C 	0.3305	0.8196	0.84649	0.238
Mof_C 	C 	0.3699	0.7813	0.84282	-0.345
Mof_C 	C 	0.4147	0.7918	0.80377	0.253
Mof_C 	C 	0.41769	0.83754	0.76726	-0.397
Mof_C 	C 	0.2927	0.9097	0.81359	0.479
Mof_C 	C 	0.46977	0.85597	0.72622	0.581
Mof_C 	C 	0.52242	0.70363	0.54767	0.319
Mof_C 	C 	0.4868	0.74589	0.55075	-0.423
Mof_C 	C 	0.435	0.7376	0.5166	0.272
Mof_C 	C 	0.4187	0.686	0.48011	-0.364
Mof_C 	C 	0.4563	0.6459	0.47707	0.265
Mof_C 	C 	0.5097	0.65571	0.51031	-0.409
Mof_C 	C 	0.50938	0.80236	0.58953	0.603
Mof_C 	C 	0.5568	0.61895	0.50483	0.502
Mof_C 	C 	0.8361	0.0168	0.5881	0.525
Mof_C 	C 	0.8024	0.97291	0.62795	-0.524
Mof_C 	C 	0.8477	0.9664	0.66151	0.348
Mof_C 	C 	0.925	0.0048	0.65623	-0.464
Mof_C 	C 	0.9581	0.0507	0.61733	0.353
Mof_C 	C 	0.91345	0.05677	0.58284	-0.604
Mof_C 	C 	0.7199	0.9422	0.63597	0.524
Mof_C 	C 	0.9453	0.11131	0.54265	0.726
Mof_C 	C 	0.84249	0.31127	0.1077	0.233
Mof_C 	C 	0.8728	0.35035	0.14984	-0.362
Mof_C 	C 	0.8244	0.3482	0.18437	0.233
Mof_C 	C 	0.7475	0.3078	0.1781	-0.333
Mof_C 	C 	0.7176	0.2671	0.13726	0.2
Mof_C 	C 	0.76566	0.26839	0.10131	-0.354
Mof_C 	C 	0.95646	0.39272	0.15645	0.539
Mof_C 	C 	0.7348	0.22031	0.05819	0.462
Mof_C 	C 	0.79534	0.96487	0.0296	0.139
Mof_C 	C 	0.82687	0.91952	0.03395	-0.124
Mof_C 	C 	0.873	0.9182	0.99844	-0.064
Mof_C 	C 	0.8867	0.9631	0.95867	-0.139
Mof_C 	C 	0.8537	0.0069	0.95396	0.099
Mof_C 	C 	0.80667	0.00772	0.9892	-0.277
Mof_C 	C 	0.80748	0.86794	0.07627	0.342
Mof_C 	C 	0.76838	0.05327	0.9834	0.454
Mof_C 	C 	0.4965	0.15212	0.8761	0.222
Mof_C 	C 	0.5738	0.18472	0.88223	-0.351
Mof_C 	C 	0.622	0.2357	0.8494	0.183
Mof_C 	C 	0.5932	0.2521	0.80999	-0.303
Mof_C 	C 	0.5157	0.2189	0.80369	0.19
Mof_C 	C 	0.4673	0.1673	0.8364	-0.344
Mof_C 	C 	0.6035	0.16138	0.92349	0.446
Mof_C 	C 	0.3833	0.1247	0.82692	0.48
Mof_C 	C 	0.49778	0.625	0.10351	0.278
Mof_C 	C 	0.53336	0.66772	0.14325	-0.361
Mof_C 	C 	0.4891	0.6695	0.17982	0.235
Mof_C 	C 	0.4114	0.6301	0.17615	-0.34
Mof_C 	C 	0.3771	0.5853	0.1371	0.249
Mof_C 	C 	0.41985	0.58231	0.10059	-0.389
Mof_C 	C 	0.617	0.7073	0.14692	0.479
Mof_C 	C 	0.3862	0.53023	0.05955	0.575
Mof_C 	C 	0.18121	0.47758	0.881	0.325
Mof_C 	C 	0.25909	0.5132	0.88408	-0.431
Mof_C 	C 	0.3026	0.565	0.84993	0.276
Mof_C 	C 	0.2673	0.5813	0.81344	-0.369
Mof_C 	C 	0.1896	0.5437	0.8104	0.269
Mof_C 	C 	0.14601	0.4903	0.84364	-0.415
Mof_C 	C 	0.29298	0.49062	0.92286	0.608
Mof_C 	C 	0.06215	0.4432	0.83816	0.504
Mof_C 	C 	0.1807	0.1639	0.92143	0.514
Mof_C 	C 	0.17051	0.1976	0.96128	-0.504
Mof_C 	C 	0.1187	0.1523	0.99484	0.305
Mof_C 	C 	0.0798	0.075	0.98956	-0.516
Mof_C 	C 	0.0926	0.0419	0.95066	0.381
Mof_C 	C 	0.14332	0.08655	0.91617	-0.609
Mof_C 	C 	0.2223	0.2801	0.9693	0.478
Mof_C 	C 	0.16601	0.0547	0.87598	0.727
Mof_C 	C 	0.46878	0.15751	0.44104	0.236
Mof_C 	C 	0.47755	0.1272	0.48318	-0.364
Mof_C 	C 	0.5238	0.1756	0.51771	0.234
Mof_C 	C 	0.5603	0.2525	0.51144	-0.335
Mof_C 	C 	0.5495	0.2824	0.4706	0.202
Mof_C 	C 	0.50273	0.23434	0.43465	-0.358
Mof_C 	C 	0.43626	0.04354	0.48979	0.539
Mof_C 	C 	0.48551	0.2652	0.39153	0.464
Mof_C 	C 	0.16953	0.20466	0.36294	0.155
Mof_C 	C 	0.09265	0.17313	0.36729	-0.223
Mof_C 	C 	0.0452	0.127	0.33178	0.121
Mof_C 	C 	0.0764	0.1133	0.29201	-0.238
Mof_C 	C 	0.1532	0.1463	0.2873	0.16
Mof_C 	C 	0.20105	0.19333	0.32254	-0.289
Mof_C 	C 	0.06046	0.19252	0.40961	0.373
Mof_C 	C 	0.28489	0.23162	0.31674	0.501
Mof_C 	C 	0.65562	0.5035	0.20944	0.222
Mof_C 	C 	0.61092	0.4262	0.21557	-0.348
Mof_C 	C 	0.6137	0.378	0.18274	0.182
Mof_C 	C 	0.6589	0.4068	0.14333	-0.302
Mof_C 	C 	0.7032	0.4843	0.13703	0.19
Mof_C 	C 	0.7	0.5327	0.16974	-0.343
Mof_C 	C 	0.55788	0.3965	0.25683	0.445
Mof_C 	C 	0.7414	0.6167	0.16026	0.48
Mof_C 	C 	0.12722	0.50222	0.43685	0.285
Mof_C 	C 	0.13436	0.46664	0.47659	-0.368
Mof_C 	C 	0.1804	0.5109	0.51316	0.24
Mof_C 	C 	0.2187	0.5886	0.50949	-0.346
Mof_C 	C 	0.2082	0.6229	0.47044	0.254
Mof_C 	C 	0.16246	0.58015	0.43393	-0.398
Mof_C 	C 	0.0903	0.383	0.48026	0.482
Mof_C 	C 	0.14403	0.6138	0.39289	0.581
Mof_C 	C 	0.29637	0.81879	0.21434	0.318
Mof_C 	C 	0.25411	0.74091	0.21742	-0.422
Mof_C 	C 	0.2624	0.6974	0.18327	0.271
Mof_C 	C 	0.314	0.7327	0.14678	-0.363
Mof_C 	C 	0.3541	0.8104	0.14374	0.265
Mof_C 	C 	0.34429	0.85399	0.17698	-0.408
Mof_C 	C 	0.19764	0.70702	0.2562	0.603
Mof_C 	C 	0.38105	0.93785	0.1715	0.502
Mof_C 	C 	0.9832	0.8193	0.25477	0.527
Mof_C 	C 	0.02709	0.82949	0.29462	-0.526
Mof_C 	C 	0.0336	0.8813	0.32818	0.352
Mof_C 	C 	0.9952	0.9202	0.3229	-0.469
Mof_C 	C 	0.9493	0.9074	0.284	0.358
Mof_C 	C 	0.94323	0.85668	0.24951	-0.606
Mof_C 	C 	0.0578	0.7777	0.30264	0.525
Mof_C 	C 	0.88869	0.83399	0.20932	0.727
Mof_O 	O 	0.4206	0.43717	0.36255	-0.724
Mof_O 	O 	0.39679	0.40012	0.28823	-0.451
Mof_O 	O 	0.17049	0.50477	0.22448	-0.714
Mof_O 	O 	0.22721	0.44988	0.19114	-0.374
Mof_O 	O 	0.81296	0.99389	0.2402	-0.413
Mof_O 	O 	0.88021	0.10031	0.27876	-0.337
Mof_O 	O 	0.08427	0.3128	0.11149	-0.692
Mof_O 	O 	0.05804	0.32445	0.18562	-0.43
Mof_O 	O 	0.18022	0.50799	0.09014	-0.689
Mof_O 	O 	0.12248	0.56213	0.12265	-0.379
Mof_O 	O 	0.1353	0.77672	0.95624	-0.7
Mof_O 	O 	0.07647	0.73443	0.0233	-0.443
Mof_O 	O 	0.74569	0.09696	0.34956	-0.606
Mof_O 	O 	0.69921	0.0467	0.28005	-0.392
Mof_O 	O 	0.47079	0.14772	0.23126	-0.541
Mof_O 	O 	0.54462	0.12286	0.18819	-0.747
Mof_O 	O 	0.49208	0.13766	0.08295	-0.606
Mof_O 	O 	0.46754	0.21074	0.12773	-0.748
Mof_O 	O 	0.45694	0.42658	0.97152	-0.74
Mof_O 	O 	0.38914	0.36263	0.03242	-0.416
Mof_O 	O 	0.31009	0.09819	0.17194	-0.716
Mof_O 	O 	0.3158	0.03957	0.10836	-0.428
Mof_O 	O 	0.0937	0.89666	0.00771	-0.794
Mof_O 	O 	0.9895	0.83384	0.04713	-0.797
Mof_O 	O 	0.01657	0.5794	0.69588	-0.723
Mof_O 	O 	0.00333	0.60321	0.62156	-0.45
Mof_O 	O 	0.33428	0.82951	0.55781	-0.713
Mof_O 	O 	0.22267	0.77279	0.52447	-0.373
Mof_O 	O 	0.18093	0.18704	0.57353	-0.414
Mof_O 	O 	0.2201	0.11979	0.61209	-0.337
Mof_O 	O 	0.22853	0.91573	0.44482	-0.685
Mof_O 	O 	0.26641	0.94196	0.51895	-0.429
Mof_O 	O 	0.32777	0.81978	0.42347	-0.683
Mof_O 	O 	0.43965	0.87752	0.45598	-0.379
Mof_O 	O 	0.64142	0.8647	0.28957	-0.729
Mof_O 	O 	0.65796	0.92353	0.35663	-0.495
Mof_O 	O 	0.35127	0.25431	0.68289	-0.606
Mof_O 	O 	0.34749	0.30079	0.61338	-0.392
Mof_O 	O 	0.67693	0.52921	0.56459	-0.54
Mof_O 	O 	0.57824	0.45538	0.52152	-0.746
Mof_O 	O 	0.64558	0.50792	0.41628	-0.608
Mof_O 	O 	0.7432	0.53246	0.46106	-0.747
Mof_O 	O 	0.96964	0.54306	0.30485	-0.717
Mof_O 	O 	0.97349	0.61086	0.36575	-0.421
Mof_O 	O 	0.7881	0.68991	0.50527	-0.717
Mof_O 	O 	0.72377	0.6842	0.44169	-0.434
Mof_O 	O 	0.80296	0.9063	0.34104	-0.83
Mof_O 	O 	0.84434	0.0105	0.38046	-0.81
Mof_O 	O 	0.56283	0.98343	0.02922	-0.687
Mof_O 	O 	0.59988	0.99667	0.9549	-0.444
Mof_O 	O 	0.49523	0.66572	0.89115	-0.705
Mof_O 	O 	0.55012	0.77733	0.85781	-0.371
Mof_O 	O 	0.00611	0.81907	0.90687	-0.411
Mof_O 	O 	0.89969	0.7799	0.94543	-0.349
Mof_O 	O 	0.6872	0.77147	0.77816	-0.685
Mof_O 	O 	0.67555	0.73359	0.85229	-0.429
Mof_O 	O 	0.49201	0.67223	0.75681	-0.682
Mof_O 	O 	0.43787	0.56035	0.78932	-0.378
Mof_O 	O 	0.22328	0.35858	0.62291	-0.729
Mof_O 	O 	0.26557	0.34204	0.68997	-0.495
Mof_O 	O 	0.90304	0.64873	0.01623	-0.569
Mof_O 	O 	0.9533	0.65251	0.94672	-0.385
Mof_O 	O 	0.85228	0.32307	0.89793	-0.542
Mof_O 	O 	0.87714	0.42176	0.85486	-0.744
Mof_O 	O 	0.86234	0.35442	0.74962	-0.608
Mof_O 	O 	0.78926	0.2568	0.7944	-0.745
Mof_O 	O 	0.57342	0.03036	0.63819	-0.717
Mof_O 	O 	0.63737	0.02651	0.69909	-0.42
Mof_O 	O 	0.90181	0.2119	0.83861	-0.718
Mof_O 	O 	0.96043	0.27623	0.77503	-0.434
Mof_O 	O 	0.10334	0.19704	0.67438	-0.83
Mof_O 	O 	0.16616	0.15566	0.7138	-0.809
Mof_O 	O 	0.5794	0.56283	0.86255	-0.717
Mof_O 	O 	0.60321	0.59988	0.78823	-0.449
Mof_O 	O 	0.82951	0.49523	0.72448	-0.713
Mof_O 	O 	0.77279	0.55012	0.69114	-0.373
Mof_O 	O 	0.18704	0.00611	0.7402	-0.412
Mof_O 	O 	0.11979	0.89969	0.77876	-0.336
Mof_O 	O 	0.91573	0.6872	0.61149	-0.685
Mof_O 	O 	0.94196	0.67555	0.68562	-0.428
Mof_O 	O 	0.81978	0.49201	0.59014	-0.683
Mof_O 	O 	0.87752	0.43787	0.62265	-0.379
Mof_O 	O 	0.8647	0.22328	0.45624	-0.729
Mof_O 	O 	0.92353	0.26557	0.5233	-0.495
Mof_O 	O 	0.25431	0.90304	0.84956	-0.6
Mof_O 	O 	0.30079	0.9533	0.78005	-0.392
Mof_O 	O 	0.52921	0.85228	0.73126	-0.54
Mof_O 	O 	0.45538	0.87714	0.68819	-0.746
Mof_O 	O 	0.50792	0.86234	0.58295	-0.608
Mof_O 	O 	0.53246	0.78926	0.62773	-0.747
Mof_O 	O 	0.54306	0.57342	0.47152	-0.718
Mof_O 	O 	0.61086	0.63737	0.53242	-0.421
Mof_O 	O 	0.68991	0.90181	0.67194	-0.717
Mof_O 	O 	0.6842	0.96043	0.60836	-0.434
Mof_O 	O 	0.9063	0.10334	0.50771	-0.829
Mof_O 	O 	0.0105	0.16616	0.54713	-0.809
Mof_O 	O 	0.98343	0.4206	0.19588	-0.723
Mof_O 	O 	0.99667	0.39679	0.12156	-0.45
Mof_O 	O 	0.66572	0.17049	0.05781	-0.703
Mof_O 	O 	0.77733	0.22721	0.02447	-0.356
Mof_O 	O 	0.81907	0.81296	0.07353	-0.4
Mof_O 	O 	0.7799	0.88021	0.11209	-0.328
Mof_O 	O 	0.77147	0.08427	0.94482	-0.676
Mof_O 	O 	0.73359	0.05804	0.01895	-0.39
Mof_O 	O 	0.67223	0.18022	0.92347	-0.685
Mof_O 	O 	0.56035	0.12248	0.95598	-0.388
Mof_O 	O 	0.35858	0.1353	0.78957	-0.728
Mof_O 	O 	0.34204	0.07647	0.85663	-0.493
Mof_O 	O 	0.64873	0.74569	0.18289	-0.605
Mof_O 	O 	0.65251	0.69921	0.11338	-0.386
Mof_O 	O 	0.32307	0.47079	0.06459	-0.534
Mof_O 	O 	0.42176	0.54462	0.02152	-0.717
Mof_O 	O 	0.35442	0.49208	0.91628	-0.607
Mof_O 	O 	0.2568	0.46754	0.96106	-0.77
Mof_O 	O 	0.03036	0.45694	0.80485	-0.717
Mof_O 	O 	0.02651	0.38914	0.86575	-0.425
Mof_O 	O 	0.2119	0.31009	0.00527	-0.686
Mof_O 	O 	0.27623	0.3158	0.94169	-0.426
Mof_O 	O 	0.19704	0.0937	0.84104	-0.829
Mof_O 	O 	0.15566	0.9895	0.88046	-0.803
Mof_O 	O 	0.43717	0.01657	0.52922	-0.723
Mof_O 	O 	0.40012	0.00333	0.4549	-0.451
Mof_O 	O 	0.50477	0.33428	0.39115	-0.714
Mof_O 	O 	0.44988	0.22267	0.35781	-0.373
Mof_O 	O 	0.99389	0.18093	0.40687	-0.414
Mof_O 	O 	0.10031	0.2201	0.44543	-0.337
Mof_O 	O 	0.3128	0.22853	0.27816	-0.686
Mof_O 	O 	0.32445	0.26641	0.35229	-0.429
Mof_O 	O 	0.50799	0.32777	0.25681	-0.683
Mof_O 	O 	0.56213	0.43965	0.28932	-0.379
Mof_O 	O 	0.77672	0.64142	0.12291	-0.727
Mof_O 	O 	0.73443	0.65796	0.18997	-0.495
Mof_O 	O 	0.09696	0.35127	0.51623	-0.606
Mof_O 	O 	0.0467	0.34749	0.44672	-0.392
Mof_O 	O 	0.14772	0.67693	0.39793	-0.54
Mof_O 	O 	0.12286	0.57824	0.35486	-0.746
Mof_O 	O 	0.13766	0.64558	0.24962	-0.608
Mof_O 	O 	0.21074	0.7432	0.2944	-0.747
Mof_O 	O 	0.42658	0.96964	0.13819	-0.715
Mof_O 	O 	0.36263	0.97349	0.19909	-0.42
Mof_O 	O 	0.09819	0.7881	0.33861	-0.717
Mof_O 	O 	0.03957	0.72377	0.27503	-0.435
Mof_O 	O 	0.89666	0.80296	0.17438	-0.831
Mof_O 	O 	0.83384	0.84434	0.2138	-0.81
_end
