data_functionalizedCrystal
_audit_creation_method	'EQeq! by Chris Wilmer'
_symmetry_space_group_name_H-M	'P1'
_symmetry_Int_Tables_number	1
_symmetry_cell_setting	triclinic
loop_
_symmetry_equiv_pos_as_xyz
  x,y,z
_cell_length_a	12.8199
_cell_length_b	12.8199
_cell_length_c	32.617
_cell_angle_alpha	90
_cell_angle_beta	90
_cell_angle_gamma	90
loop_
_atom_site_label
_atom_site_type_symbol
_atom_site_fract_x
_atom_site_fract_y
_atom_site_fract_z
_atom_site_charge
Mof_N 	N 	0.4214	0.9213	0.2941	-0.252
Mof_C 	C 	0.4697	0.8712	0.323	0.102
Mof_C 	C 	0.3176	0.921	0.2949	0.089
Mof_C 	C 	0.4197	0.8172	0.3542	-0.17
Mof_H 	H 	0.5423	0.8716	0.3229	-0.03
Mof_H 	H 	0.2813	0.9576	0.2748	-0.029
Mof_C 	C 	0.2624	0.8681	0.3245	-0.162
Mof_C 	C 	0.3128	0.815	0.3554	0.079
Mof_H 	H 	0.4584	0.7826	0.3741	0.083
Mof_H 	H 	0.1899	0.8683	0.3237	0.077
Mof_C 	C 	0.2525	0.7565	0.3868	0.014
Mof_C 	C 	0.3002	0.6945	0.4148	-0.097
Mof_C 	C 	0.1465	0.7625	0.389	-0.094
Mof_C 	C 	0.2424	0.6373	0.4433	0.013
Mof_H 	H 	0.3726	0.69	0.415	0.052
Mof_C 	C 	0.0898	0.707	0.4179	0.02
Mof_H 	H 	0.1111	0.8051	0.3705	0.055
Mof_C 	C 	0.1338	0.6394	0.4442	-0.111
Mof_H 	H 	0.2777	0.5964	0.4623	0.011
Mof_H 	H 	0.018	0.7172	0.4192	0.019
Mof_C 	C 	0.0689	0.5702	0.4726	0.275
Mof_H 	H 	0.1809	0.4569	0.4829	0.145
Mof_H 	H 	0.0437	0.4571	0.429	0.145
Mof_H 	H 	0.0436	0.6833	0.5169	0.141
Mof_N 	N 	0.5786	0.0787	0.2941	-0.248
Mof_C 	C 	0.5303	0.1288	0.323	0.103
Mof_C 	C 	0.6824	0.079	0.2949	0.09
Mof_C 	C 	0.5803	0.1828	0.3542	-0.168
Mof_H 	H 	0.4577	0.1284	0.3229	-0.025
Mof_H 	H 	0.7187	0.0424	0.2748	-0.025
Mof_C 	C 	0.7376	0.1319	0.3245	-0.159
Mof_C 	C 	0.6872	0.185	0.3554	0.079
Mof_H 	H 	0.5416	0.2174	0.3741	0.083
Mof_H 	H 	0.8101	0.1317	0.3237	0.076
Mof_C 	C 	0.7475	0.2435	0.3868	0.015
Mof_C 	C 	0.6998	0.3055	0.4148	-0.096
Mof_C 	C 	0.8535	0.2375	0.389	-0.094
Mof_C 	C 	0.7576	0.3627	0.4433	0.011
Mof_H 	H 	0.6274	0.31	0.415	0.052
Mof_C 	C 	0.9102	0.293	0.4179	0.018
Mof_H 	H 	0.8889	0.1949	0.3705	0.053
Mof_C 	C 	0.8662	0.3606	0.4442	-0.109
Mof_H 	H 	0.7223	0.4036	0.4623	0.011
Mof_H 	H 	0.982	0.2828	0.4192	0.01
Mof_C 	C 	0.9311	0.4298	0.4726	0.257
Mof_H 	H 	0.8191	0.5431	0.4829	0.142
Mof_H 	H 	0.9563	0.5429	0.429	0.133
Mof_H 	H 	0.9564	0.3167	0.5169	0.131
Mof_N 	N 	0.5787	0.9214	0.7941	-0.248
Mof_C 	C 	0.6288	0.9697	0.823	0.075
Mof_C 	C 	0.579	0.8176	0.7949	0.09
Mof_C 	C 	0.6828	0.9197	0.8542	-0.16
Mof_H 	H 	0.6284	0.0423	0.8229	-0.01
Mof_H 	H 	0.5424	0.7813	0.7748	-0.027
Mof_C 	C 	0.6319	0.7624	0.8245	-0.164
Mof_C 	C 	0.685	0.8128	0.8554	0.085
Mof_H 	H 	0.7174	0.9584	0.8741	0.078
Mof_H 	H 	0.6317	0.6899	0.8237	0.078
Mof_C 	C 	0.7435	0.7525	0.8868	-0.012
Mof_C 	C 	0.8055	0.8002	0.9148	-0.063
Mof_C 	C 	0.7375	0.6465	0.889	-0.058
Mof_C 	C 	0.8627	0.7424	0.9433	-0.036
Mof_H 	H 	0.81	0.8726	0.915	0.038
Mof_C 	C 	0.793	0.5898	0.9179	-0.033
Mof_H 	H 	0.6949	0.6111	0.8705	0.042
Mof_C 	C 	0.8606	0.6338	0.9442	-0.046
Mof_H 	H 	0.9036	0.7777	0.9623	0.023
Mof_H 	H 	0.7828	0.518	0.9192	0.034
Mof_C 	C 	0.9298	0.5689	0.9726	0.125
Mof_H 	H 	0.0431	0.6809	0.9829	0.078
Mof_H 	H 	0.0429	0.5437	0.929	0.11
Mof_H 	H 	0.8167	0.5436	0.0169	0.105
Mof_N 	N 	0.4213	0.0786	0.7941	-0.257
Mof_C 	C 	0.3712	0.0303	0.823	0.142
Mof_C 	C 	0.421	0.1824	0.7949	0.101
Mof_C 	C 	0.3172	0.0803	0.8542	-0.198
Mof_H 	H 	0.3716	0.9577	0.8229	-0.048
Mof_H 	H 	0.4576	0.2187	0.7748	-0.03
Mof_C 	C 	0.3681	0.2376	0.8245	-0.179
Mof_C 	C 	0.315	0.1872	0.8554	0.107
Mof_H 	H 	0.2826	0.0416	0.8741	0.099
Mof_H 	H 	0.3683	0.3101	0.8237	0.084
Mof_C 	C 	0.2565	0.2475	0.8868	-0.021
Mof_C 	C 	0.1945	0.1998	0.9148	-0.054
Mof_C 	C 	0.2625	0.3535	0.889	-0.051
Mof_C 	C 	0.1373	0.2576	0.9433	-0.036
Mof_H 	H 	0.19	0.1274	0.915	0.041
Mof_C 	C 	0.207	0.4102	0.9179	-0.035
Mof_H 	H 	0.3051	0.3889	0.8705	0.039
Mof_C 	C 	0.1394	0.3662	0.9442	-0.043
Mof_H 	H 	0.0964	0.2223	0.9623	0.03
Mof_H 	H 	0.2172	0.482	0.9192	0.035
Mof_C 	C 	0.0702	0.4311	0.9726	0.141
Mof_H 	H 	0.9569	0.3191	0.9829	0.068
Mof_H 	H 	0.9571	0.4563	0.929	0.101
Mof_H 	H 	0.1833	0.4564	0.0169	0.108
Mof_N 	N 	0.5786	0.9213	0.7059	-0.253
Mof_C 	C 	0.5303	0.8712	0.677	0.101
Mof_C 	C 	0.6824	0.921	0.7051	0.087
Mof_C 	C 	0.5803	0.8172	0.6458	-0.17
Mof_H 	H 	0.4577	0.8716	0.6771	-0.029
Mof_H 	H 	0.7187	0.9576	0.7252	-0.03
Mof_C 	C 	0.7376	0.8681	0.6755	-0.162
Mof_C 	C 	0.6872	0.815	0.6446	0.078
Mof_H 	H 	0.5416	0.7826	0.6259	0.083
Mof_H 	H 	0.8101	0.8683	0.6763	0.073
Mof_C 	C 	0.7475	0.7565	0.6132	0.012
Mof_C 	C 	0.6998	0.6945	0.5852	-0.095
Mof_C 	C 	0.8535	0.7625	0.611	-0.094
Mof_C 	C 	0.7576	0.6373	0.5567	0.01
Mof_H 	H 	0.6274	0.69	0.585	0.051
Mof_C 	C 	0.9102	0.707	0.5821	0.016
Mof_H 	H 	0.8889	0.8051	0.6295	0.05
Mof_C 	C 	0.8662	0.6394	0.5558	-0.109
Mof_H 	H 	0.7223	0.5964	0.5377	0.012
Mof_H 	H 	0.982	0.7172	0.5808	0.01
Mof_C 	C 	0.9311	0.5702	0.5274	0.257
Mof_H 	H 	0.8191	0.4569	0.5171	0.142
Mof_H 	H 	0.9563	0.4571	0.571	0.133
Mof_H 	H 	0.9564	0.6833	0.4831	0.129
Mof_N 	N 	0.4214	0.0787	0.7059	-0.248
Mof_C 	C 	0.4697	0.1288	0.677	0.103
Mof_C 	C 	0.3176	0.079	0.7051	0.091
Mof_C 	C 	0.4197	0.1828	0.6458	-0.168
Mof_H 	H 	0.5423	0.1284	0.6771	-0.025
Mof_H 	H 	0.2813	0.0424	0.7252	-0.023
Mof_C 	C 	0.2624	0.1319	0.6755	-0.159
Mof_C 	C 	0.3128	0.185	0.6446	0.08
Mof_H 	H 	0.4584	0.2174	0.6259	0.083
Mof_H 	H 	0.1899	0.1317	0.6763	0.079
Mof_C 	C 	0.2525	0.2435	0.6132	0.017
Mof_C 	C 	0.3002	0.3055	0.5852	-0.097
Mof_C 	C 	0.1465	0.2375	0.611	-0.094
Mof_C 	C 	0.2424	0.3627	0.5567	0.014
Mof_H 	H 	0.3726	0.31	0.585	0.052
Mof_C 	C 	0.0898	0.293	0.5821	0.022
Mof_H 	H 	0.1111	0.1949	0.6295	0.058
Mof_C 	C 	0.1338	0.3606	0.5558	-0.112
Mof_H 	H 	0.2777	0.4036	0.5377	0.01
Mof_H 	H 	0.018	0.2828	0.5808	0.02
Mof_C 	C 	0.0689	0.4298	0.5274	0.276
Mof_H 	H 	0.1809	0.5431	0.5171	0.145
Mof_H 	H 	0.0437	0.5429	0.571	0.145
Mof_H 	H 	0.0436	0.3167	0.4831	0.143
Mof_N 	N 	0.4213	0.9214	0.2059	-0.248
Mof_C 	C 	0.3712	0.9697	0.177	0.074
Mof_C 	C 	0.421	0.8176	0.2051	0.089
Mof_C 	C 	0.3172	0.9197	0.1458	-0.159
Mof_H 	H 	0.3716	0.0423	0.1771	-0.009
Mof_H 	H 	0.4576	0.7813	0.2252	-0.027
Mof_C 	C 	0.3681	0.7624	0.1755	-0.162
Mof_C 	C 	0.315	0.8128	0.1446	0.084
Mof_H 	H 	0.2826	0.9584	0.1259	0.078
Mof_H 	H 	0.3683	0.6899	0.1763	0.078
Mof_C 	C 	0.2565	0.7525	0.1132	-0.007
Mof_C 	C 	0.1945	0.8002	0.0852	-0.064
Mof_C 	C 	0.2625	0.6465	0.111	-0.062
Mof_C 	C 	0.1373	0.7424	0.0567	-0.025
Mof_H 	H 	0.19	0.8726	0.085	0.043
Mof_C 	C 	0.207	0.5898	0.0821	-0.023
Mof_H 	H 	0.3051	0.6111	0.1295	0.044
Mof_C 	C 	0.1394	0.6338	0.0558	-0.051
Mof_H 	H 	0.0964	0.7777	0.0377	0.033
Mof_H 	H 	0.2172	0.518	0.0808	0.033
Mof_C 	C 	0.0702	0.5689	0.0274	0.171
Mof_H 	H 	0.9569	0.6809	0.0171	0.083
Mof_H 	H 	0.9571	0.5437	0.071	0.105
Mof_H 	H 	0.1833	0.5436	0.9831	0.092
Mof_N 	N 	0.5787	0.0786	0.2059	-0.257
Mof_C 	C 	0.6288	0.0303	0.177	0.141
Mof_C 	C 	0.579	0.1824	0.2051	0.1
Mof_C 	C 	0.6828	0.0803	0.1458	-0.199
Mof_H 	H 	0.6284	0.9577	0.1771	-0.049
Mof_H 	H 	0.5424	0.2187	0.2252	-0.03
Mof_C 	C 	0.6319	0.2376	0.1755	-0.18
Mof_C 	C 	0.685	0.1872	0.1446	0.106
Mof_H 	H 	0.7174	0.0416	0.1259	0.098
Mof_H 	H 	0.6317	0.3101	0.1763	0.084
Mof_C 	C 	0.7435	0.2475	0.1132	-0.022
Mof_C 	C 	0.8055	0.1998	0.0852	-0.054
Mof_C 	C 	0.7375	0.3535	0.111	-0.05
Mof_C 	C 	0.8627	0.2576	0.0567	-0.037
Mof_H 	H 	0.81	0.1274	0.085	0.04
Mof_C 	C 	0.793	0.4102	0.0821	-0.034
Mof_H 	H 	0.6949	0.3889	0.1295	0.04
Mof_C 	C 	0.8606	0.3662	0.0558	-0.044
Mof_H 	H 	0.9036	0.2223	0.0377	0.033
Mof_H 	H 	0.7828	0.482	0.0808	0.036
Mof_C 	C 	0.9298	0.4311	0.0274	0.151
Mof_H 	H 	0.0431	0.3191	0.0171	0.094
Mof_H 	H 	0.0429	0.4563	0.071	0.116
Mof_H 	H 	0.8167	0.4564	0.9831	0.089
Mof_Cu	Cu	0.5	-4.70909e-33	0.25	0.857
Mof_Cu	Cu	0.5	-1.88364e-32	0.75	0.857
Mof_C 	C 	0.1364	0.5	0.5	-0.406
Mof_C 	C 	0.8636	0.5	0.5	-0.394
Mof_C 	C 	-9.41818e-33	0.6364	-0	-0.208
Mof_C 	C 	-4.70909e-33	0.3636	-0	-0.207
Mof_C 	C 	-1.4577e-32	0.5	0.4465	-0.374
Mof_C 	C 	-9.80732e-33	0.5	0.9465	-0.26
Mof_C 	C 	5.28006e-33	0.5	0.5535	-0.374
Mof_C 	C 	-1.00851e-32	0.5	0.0535	-0.277
Mof_C 	C 	-3.2903e-32	0.6389	0.5	-0.368
Mof_C 	C 	-1.40667e-32	0.3611	0.5	-0.37
Mof_C 	C 	0.8611	0.5	-0	-0.241
Mof_C 	C 	0.1389	0.5	-0	-0.252
Mof_N 	N 	0.9214	0.4213	0.7941	-0.248
Mof_C 	C 	0.9697	0.3712	0.823	0.075
Mof_C 	C 	0.8176	0.421	0.7949	0.09
Mof_C 	C 	0.9197	0.3172	0.8542	-0.159
Mof_H 	H 	0.0423	0.3716	0.8229	-0.009
Mof_H 	H 	0.7813	0.4576	0.7748	-0.027
Mof_C 	C 	0.7624	0.3681	0.8245	-0.163
Mof_C 	C 	0.8128	0.315	0.8554	0.085
Mof_H 	H 	0.9584	0.2826	0.8741	0.078
Mof_H 	H 	0.6899	0.3683	0.8237	0.078
Mof_C 	C 	0.7525	0.2565	0.8868	-0.009
Mof_C 	C 	0.8002	0.1945	0.9148	-0.063
Mof_C 	C 	0.6465	0.2625	0.889	-0.06
Mof_C 	C 	0.7424	0.1373	0.9433	-0.031
Mof_H 	H 	0.8726	0.19	0.915	0.041
Mof_C 	C 	0.5898	0.207	0.9179	-0.028
Mof_H 	H 	0.6111	0.3051	0.8705	0.043
Mof_C 	C 	0.6338	0.1394	0.9442	-0.048
Mof_H 	H 	0.7777	0.0964	0.9623	0.026
Mof_H 	H 	0.518	0.2172	0.9192	0.033
Mof_C 	C 	0.5689	0.0702	0.9726	0.143
Mof_H 	H 	0.6809	0.9569	0.9829	0.068
Mof_H 	H 	0.5437	0.9571	0.929	0.101
Mof_H 	H 	0.5436	0.1833	0.0169	0.108
Mof_N 	N 	0.0786	0.5787	0.7941	-0.257
Mof_C 	C 	0.0303	0.6288	0.823	0.141
Mof_C 	C 	0.1824	0.579	0.7949	0.1
Mof_C 	C 	0.0803	0.6828	0.8542	-0.199
Mof_H 	H 	0.9577	0.6284	0.8229	-0.049
Mof_H 	H 	0.2187	0.5424	0.7748	-0.03
Mof_C 	C 	0.2376	0.6319	0.8245	-0.18
Mof_C 	C 	0.1872	0.685	0.8554	0.107
Mof_H 	H 	0.0416	0.7174	0.8741	0.099
Mof_H 	H 	0.3101	0.6317	0.8237	0.084
Mof_C 	C 	0.2475	0.7435	0.8868	-0.024
Mof_C 	C 	0.1998	0.8055	0.9148	-0.054
Mof_C 	C 	0.3535	0.7375	0.889	-0.049
Mof_C 	C 	0.2576	0.8627	0.9433	-0.042
Mof_H 	H 	0.1274	0.81	0.915	0.038
Mof_C 	C 	0.4102	0.793	0.9179	-0.04
Mof_H 	H 	0.3889	0.6949	0.8705	0.038
Mof_C 	C 	0.3662	0.8606	0.9442	-0.041
Mof_H 	H 	0.2223	0.9036	0.9623	0.026
Mof_H 	H 	0.482	0.7828	0.9192	0.037
Mof_C 	C 	0.4311	0.9298	0.9726	0.124
Mof_H 	H 	0.3191	0.0431	0.9829	0.078
Mof_H 	H 	0.4563	0.0429	0.929	0.11
Mof_H 	H 	0.4564	0.8167	0.0169	0.105
Mof_N 	N 	0.0787	0.4214	0.2941	-0.248
Mof_C 	C 	0.1288	0.4697	0.323	0.103
Mof_C 	C 	0.079	0.3176	0.2949	0.091
Mof_C 	C 	0.1828	0.4197	0.3542	-0.168
Mof_H 	H 	0.1284	0.5423	0.3229	-0.025
Mof_H 	H 	0.0424	0.2813	0.2748	-0.023
Mof_C 	C 	0.1319	0.2624	0.3245	-0.159
Mof_C 	C 	0.185	0.3128	0.3554	0.08
Mof_H 	H 	0.2174	0.4584	0.3741	0.083
Mof_H 	H 	0.1317	0.1899	0.3237	0.079
Mof_C 	C 	0.2435	0.2525	0.3868	0.016
Mof_C 	C 	0.3055	0.3002	0.4148	-0.097
Mof_C 	C 	0.2375	0.1465	0.389	-0.094
Mof_C 	C 	0.3627	0.2424	0.4433	0.014
Mof_H 	H 	0.31	0.3726	0.415	0.052
Mof_C 	C 	0.293	0.0898	0.4179	0.022
Mof_H 	H 	0.1949	0.1111	0.3705	0.058
Mof_C 	C 	0.3606	0.1338	0.4442	-0.112
Mof_H 	H 	0.4036	0.2777	0.4623	0.01
Mof_H 	H 	0.2828	0.018	0.4192	0.02
Mof_C 	C 	0.4298	0.0689	0.4726	0.276
Mof_H 	H 	0.5431	0.1809	0.4829	0.145
Mof_H 	H 	0.5429	0.0437	0.429	0.145
Mof_H 	H 	0.3167	0.0436	0.5169	0.143
Mof_N 	N 	0.9213	0.5786	0.2941	-0.253
Mof_C 	C 	0.8712	0.5303	0.323	0.101
Mof_C 	C 	0.921	0.6824	0.2949	0.087
Mof_C 	C 	0.8172	0.5803	0.3542	-0.17
Mof_H 	H 	0.8716	0.4577	0.3229	-0.029
Mof_H 	H 	0.9576	0.7187	0.2748	-0.03
Mof_C 	C 	0.8681	0.7376	0.3245	-0.162
Mof_C 	C 	0.815	0.6872	0.3554	0.078
Mof_H 	H 	0.7826	0.5416	0.3741	0.083
Mof_H 	H 	0.8683	0.8101	0.3237	0.073
Mof_C 	C 	0.7565	0.7475	0.3868	0.012
Mof_C 	C 	0.6945	0.6998	0.4148	-0.095
Mof_C 	C 	0.7625	0.8535	0.389	-0.094
Mof_C 	C 	0.6373	0.7576	0.4433	0.01
Mof_H 	H 	0.69	0.6274	0.415	0.051
Mof_C 	C 	0.707	0.9102	0.4179	0.016
Mof_H 	H 	0.8051	0.8889	0.3705	0.05
Mof_C 	C 	0.6394	0.8662	0.4442	-0.109
Mof_H 	H 	0.5964	0.7223	0.4623	0.012
Mof_H 	H 	0.7172	0.982	0.4192	0.01
Mof_C 	C 	0.5702	0.9311	0.4726	0.257
Mof_H 	H 	0.4569	0.8191	0.4829	0.142
Mof_H 	H 	0.4571	0.9563	0.429	0.133
Mof_H 	H 	0.6833	0.9564	0.5169	0.129
Mof_N 	N 	0.0786	0.4213	0.2059	-0.257
Mof_C 	C 	0.0303	0.3712	0.177	0.142
Mof_C 	C 	0.1824	0.421	0.2051	0.1
Mof_C 	C 	0.0803	0.3172	0.1458	-0.198
Mof_H 	H 	0.9577	0.3716	0.1771	-0.049
Mof_H 	H 	0.2187	0.4576	0.2252	-0.03
Mof_C 	C 	0.2376	0.3681	0.1755	-0.179
Mof_C 	C 	0.1872	0.315	0.1446	0.107
Mof_H 	H 	0.0416	0.2826	0.1259	0.099
Mof_H 	H 	0.3101	0.3683	0.1763	0.084
Mof_C 	C 	0.2475	0.2565	0.1132	-0.019
Mof_C 	C 	0.1998	0.1945	0.0852	-0.055
Mof_C 	C 	0.3535	0.2625	0.111	-0.052
Mof_C 	C 	0.2576	0.1373	0.0567	-0.031
Mof_H 	H 	0.1274	0.19	0.085	0.043
Mof_C 	C 	0.4102	0.207	0.0821	-0.029
Mof_H 	H 	0.3889	0.3051	0.1295	0.041
Mof_C 	C 	0.3662	0.1394	0.0558	-0.046
Mof_H 	H 	0.2223	0.0964	0.0377	0.037
Mof_H 	H 	0.482	0.2172	0.0808	0.035
Mof_C 	C 	0.4311	0.0702	0.0274	0.169
Mof_H 	H 	0.3191	0.9569	0.0171	0.083
Mof_H 	H 	0.4563	0.9571	0.071	0.105
Mof_H 	H 	0.4564	0.1833	0.9831	0.092
Mof_N 	N 	0.9214	0.5787	0.2059	-0.248
Mof_C 	C 	0.9697	0.6288	0.177	0.074
Mof_C 	C 	0.8176	0.579	0.2051	0.089
Mof_C 	C 	0.9197	0.6828	0.1458	-0.16
Mof_H 	H 	0.0423	0.6284	0.1771	-0.01
Mof_H 	H 	0.7813	0.5424	0.2252	-0.027
Mof_C 	C 	0.7624	0.6319	0.1755	-0.163
Mof_C 	C 	0.8128	0.685	0.1446	0.084
Mof_H 	H 	0.9584	0.7174	0.1259	0.077
Mof_H 	H 	0.6899	0.6317	0.1763	0.078
Mof_C 	C 	0.7525	0.7435	0.1132	-0.01
Mof_C 	C 	0.8002	0.8055	0.0852	-0.063
Mof_C 	C 	0.6465	0.7375	0.111	-0.06
Mof_C 	C 	0.7424	0.8627	0.0567	-0.031
Mof_H 	H 	0.8726	0.81	0.085	0.04
Mof_C 	C 	0.5898	0.793	0.0821	-0.027
Mof_H 	H 	0.6111	0.6949	0.1295	0.043
Mof_C 	C 	0.6338	0.8606	0.0558	-0.049
Mof_H 	H 	0.7777	0.9036	0.0377	0.029
Mof_H 	H 	0.518	0.7828	0.0808	0.034
Mof_C 	C 	0.5689	0.9298	0.0274	0.153
Mof_H 	H 	0.6809	0.0431	0.0171	0.094
Mof_H 	H 	0.5437	0.0429	0.071	0.116
Mof_H 	H 	0.5436	0.8167	0.9831	0.089
Mof_N 	N 	0.9213	0.4214	0.7059	-0.253
Mof_C 	C 	0.8712	0.4697	0.677	0.101
Mof_C 	C 	0.921	0.3176	0.7051	0.088
Mof_C 	C 	0.8172	0.4197	0.6458	-0.17
Mof_H 	H 	0.8716	0.5423	0.6771	-0.03
Mof_H 	H 	0.9576	0.2813	0.7252	-0.029
Mof_C 	C 	0.8681	0.2624	0.6755	-0.162
Mof_C 	C 	0.815	0.3128	0.6446	0.079
Mof_H 	H 	0.7826	0.4584	0.6259	0.083
Mof_H 	H 	0.8683	0.1899	0.6763	0.077
Mof_C 	C 	0.7565	0.2525	0.6132	0.014
Mof_C 	C 	0.6945	0.3002	0.5852	-0.097
Mof_C 	C 	0.7625	0.1465	0.611	-0.094
Mof_C 	C 	0.6373	0.2424	0.5567	0.013
Mof_H 	H 	0.69	0.3726	0.585	0.052
Mof_C 	C 	0.707	0.0898	0.5821	0.02
Mof_H 	H 	0.8051	0.1111	0.6295	0.055
Mof_C 	C 	0.6394	0.1338	0.5558	-0.111
Mof_H 	H 	0.5964	0.2777	0.5377	0.011
Mof_H 	H 	0.7172	0.018	0.5808	0.019
Mof_C 	C 	0.5702	0.0689	0.5274	0.276
Mof_H 	H 	0.4569	0.1809	0.5171	0.145
Mof_H 	H 	0.4571	0.0437	0.571	0.145
Mof_H 	H 	0.6833	0.0436	0.4831	0.141
Mof_N 	N 	0.0787	0.5786	0.7059	-0.248
Mof_C 	C 	0.1288	0.5303	0.677	0.103
Mof_C 	C 	0.079	0.6824	0.7051	0.09
Mof_C 	C 	0.1828	0.5803	0.6458	-0.168
Mof_H 	H 	0.1284	0.4577	0.6771	-0.025
Mof_H 	H 	0.0424	0.7187	0.7252	-0.025
Mof_C 	C 	0.1319	0.7376	0.6755	-0.159
Mof_C 	C 	0.185	0.6872	0.6446	0.079
Mof_H 	H 	0.2174	0.5416	0.6259	0.083
Mof_H 	H 	0.1317	0.8101	0.6763	0.076
Mof_C 	C 	0.2435	0.7475	0.6132	0.015
Mof_C 	C 	0.3055	0.6998	0.5852	-0.096
Mof_C 	C 	0.2375	0.8535	0.611	-0.094
Mof_C 	C 	0.3627	0.7576	0.5567	0.011
Mof_H 	H 	0.31	0.6274	0.585	0.052
Mof_C 	C 	0.293	0.9102	0.5821	0.018
Mof_H 	H 	0.1949	0.8889	0.6295	0.053
Mof_C 	C 	0.3606	0.8662	0.5558	-0.109
Mof_H 	H 	0.4036	0.7223	0.5377	0.011
Mof_H 	H 	0.2828	0.982	0.5808	0.01
Mof_C 	C 	0.4298	0.9311	0.5274	0.257
Mof_H 	H 	0.5431	0.8191	0.5171	0.142
Mof_H 	H 	0.5429	0.9563	0.571	0.133
Mof_H 	H 	0.3167	0.9564	0.4831	0.13
Mof_Cu	Cu	-1.64515e-32	0.5	0.25	0.857
Mof_Cu	Cu	7.15455e-33	0.5	0.75	0.857
Mof_C 	C 	0.6364	0	-0	-0.208
Mof_C 	C 	0.3636	0	-0	-0.207
Mof_C 	C 	0.5	0.1364	0.5	-0.406
Mof_C 	C 	0.5	0.8636	0.5	-0.394
Mof_C 	C 	0.5	-1.88364e-32	0.9465	-0.26
Mof_C 	C 	0.5	-9.41818e-33	0.4465	-0.374
Mof_C 	C 	0.5	-1.17727e-33	0.0535	-0.277
Mof_C 	C 	0.5	0	0.5535	-0.374
Mof_C 	C 	0.5	0.1389	-0	-0.252
Mof_C 	C 	0.5	0.8611	-0	-0.241
Mof_C 	C 	0.3611	-9.41818e-33	0.5	-0.37
Mof_C 	C 	0.6389	-9.41818e-33	0.5	-0.368
_end
