data_functionalizedCrystal
_audit_creation_method	'EQeq! by Chris Wilmer'
_symmetry_space_group_name_H-M	'P1'
_symmetry_Int_Tables_number	1
_symmetry_cell_setting	triclinic
loop_
_symmetry_equiv_pos_as_xyz
  x,y,z
_cell_length_a	7.7563
_cell_length_b	9.6938
_cell_length_c	9.6938
_cell_angle_alpha	114.1
_cell_angle_beta	99.3055
_cell_angle_gamma	80.6945
loop_
_atom_site_label
_atom_site_type_symbol
_atom_site_fract_x
_atom_site_fract_y
_atom_site_fract_z
_atom_site_charge
Mof_Mn	Mn	0.52501	0.44554	0.11214	0.81
Mof_Mn	Mn	0.02501	0.88786	0.55446	0.794
Mof_H 	H 	0.8676	0.4797	0.7347	0.083
Mof_H 	H 	0.0174	0.2536	0.7394	0.001
Mof_H 	H 	0.834	0.027	0.3188	0.033
Mof_H 	H 	0.6762	0.2413	0.3001	0.062
Mof_H 	H 	0.6655	0.6788	0.7246	0.134
Mof_H 	H 	0.3676	0.2653	0.5203	0.072
Mof_H 	H 	0.5174	0.2606	0.7464	0.023
Mof_H 	H 	0.334	0.6812	0.973	0.032
Mof_H 	H 	0.1762	0.6999	0.7587	0.059
Mof_H 	H 	0.1655	0.2754	0.3212	0.13
Mof_C 	C 	0.2963	0.7054	0.3224	0.323
Mof_C 	C 	0.4322	0.6693	0.4365	-0.043
Mof_C 	C 	0.4206	0.9076	0.7064	0.293
Mof_C 	C 	0.4819	0.7521	0.5915	0.007
Mof_C 	C 	0.8572	0.3891	0.6499	-0.118
Mof_C 	C 	0.9473	0.2516	0.6514	0.098
Mof_C 	C 	0.8383	0.1184	0.4034	0.067
Mof_C 	C 	0.7435	0.247	0.3904	-0.103
Mof_C 	C 	0.7507	0.3865	0.5165	0.032
Mof_C 	C 	0.6388	0.5244	0.5096	0.108
Mof_C 	C 	0.7963	0.6776	0.2946	0.32
Mof_C 	C 	0.9322	0.5635	0.3307	-0.029
Mof_C 	C 	0.9206	0.2936	0.0924	0.308
Mof_C 	C 	0.9819	0.4085	0.2479	0.011
Mof_C 	C 	0.3572	0.3501	0.6109	-0.103
Mof_C 	C 	0.4473	0.3486	0.7484	0.062
Mof_C 	C 	0.3383	0.5966	0.8816	0.061
Mof_C 	C 	0.2435	0.6096	0.753	-0.099
Mof_C 	C 	0.2507	0.4835	0.6135	0.022
Mof_C 	C 	0.1388	0.4904	0.4756	0.106
Mof_N 	N 	0.5345	0.528	0.387	-0.16
Mof_N 	N 	0.6112	0.658	0.6348	-0.195
Mof_N 	N 	0.9374	0.1171	0.5321	-0.17
Mof_N 	N 	0.0345	0.613	0.472	-0.168
Mof_N 	N 	0.1112	0.3652	0.342	-0.202
Mof_N 	N 	0.4374	0.4679	0.8829	-0.168
Mof_O 	O 	0.2975	0.6112	0.187	-0.341
Mof_O 	O 	0.1912	0.8262	0.3678	-0.326
Mof_O 	O 	0.2591	0.9541	0.7029	-0.342
Mof_O 	O 	0.5405	0.9783	0.8021	-0.236
Mof_O 	O 	0.7975	0.813	0.3888	-0.329
Mof_O 	O 	0.6912	0.6322	0.1738	-0.322
Mof_O 	O 	0.7591	0.2971	0.0459	-0.345
Mof_O 	O 	0.0405	0.1979	0.0217	-0.252
_end
