data_functionalizedCrystal
_audit_creation_method	'EQeq! by Chris Wilmer'
_symmetry_space_group_name_H-M	'P1'
_symmetry_Int_Tables_number	1
_symmetry_cell_setting	triclinic
loop_
_symmetry_equiv_pos_as_xyz
  x,y,z
_cell_length_a	10.1845
_cell_length_b	20.8747
_cell_length_c	10.707
_cell_angle_alpha	90
_cell_angle_beta	101.876
_cell_angle_gamma	90
loop_
_atom_site_label
_atom_site_type_symbol
_atom_site_fract_x
_atom_site_fract_y
_atom_site_fract_z
_atom_site_charge
Mof_Co	Co	0.91462	0.44935	0.55978	1.14
Mof_Co	Co	0.07706	0.38594	0.36418	1.174
Mof_O 	O 	0.94709	0.35448	0.6131	-0.445
Mof_O 	O 	0.10913	0.31866	0.5149	-0.407
Mof_O 	O 	0.68345	0.1672	0.7483	-0.377
Mof_O 	O 	0.80539	0.09967	0.8776	-0.368
Mof_O 	O 	0.29205	0.07902	0.8823	-0.451
Mof_O 	O 	0.39639	0.15909	0.805	-0.42
Mof_O 	O 	0.09379	0.45603	0.4929	-0.793
Mof_H 	H 	0.161	0.4538	0.558	0.259
Mof_N 	N 	0.0106	0.48016	0.7454	-0.218
Mof_N 	N 	0.9988	0.5436	0.7797	-0.206
Mof_N 	N 	0.1339	0.49484	0.9355	-0.122
Mof_C 	C 	0.3742	0.49194	0.029	0.058
Mof_C 	C 	0.4269	0.55221	0.0237	-0.064
Mof_H 	H 	0.3773	0.5881	0.04	0.059
Mof_C 	C 	0.4481	0.4393	0.0054	-0.067
Mof_H 	H 	0.4134	0.3978	0.0091	0.062
Mof_C 	C 	0.2349	0.4834	0.0539	-0.107
Mof_H 	H 	0.2248	0.4399	0.0847	0.066
Mof_H 	H 	0.2207	0.5136	0.12	0.058
Mof_C 	C 	0.0915	0.45251	0.8404	0.097
Mof_H 	H 	0.1168	0.4092	0.8423	-0.001
Mof_C 	C 	0.0744	0.55083	0.8936	0.103
Mof_H 	H 	0.0857	0.5895	0.9395	0.001
Mof_C 	C 	0.0326	0.25089	0.6611	-0.124
Mof_C 	C 	0.9165	0.22638	0.6931	0.057
Mof_H 	H 	0.8346	0.2482	0.6677	0.037
Mof_C 	C 	0.9215	0.17001	0.7623	-0.114
Mof_C 	C 	0.0427	0.13911	0.8031	0.058
Mof_H 	H 	0.0463	0.1017	0.8526	0.03
Mof_C 	C 	0.1602	0.16287	0.7718	-0.129
Mof_C 	C 	0.1533	0.21792	0.6986	0.064
Mof_H 	H 	0.2309	0.2332	0.6738	0.039
Mof_C 	C 	0.0295	0.31279	0.5896	0.372
Mof_C 	C 	0.7964	0.14396	0.7982	0.318
Mof_C 	C 	0.2922	0.13113	0.8233	0.373
Mof_Co	Co	0.58538	0.94935	0.94022	1.137
Mof_Co	Co	0.42294	0.88594	0.13582	1.173
Mof_O 	O 	0.55291	0.85448	0.8869	-0.448
Mof_O 	O 	0.39087	0.81866	0.9851	-0.409
Mof_O 	O 	0.81655	0.6672	0.7517	-0.379
Mof_O 	O 	0.69461	0.59967	0.6224	-0.37
Mof_O 	O 	0.20795	0.57902	0.6177	-0.454
Mof_O 	O 	0.10361	0.65909	0.695	-0.421
Mof_O 	O 	0.40621	0.95603	0.0071	-0.787
Mof_H 	H 	0.339	0.9538	0.942	0.255
Mof_N 	N 	0.4894	0.98016	0.7546	-0.219
Mof_N 	N 	0.5012	0.0436	0.7203	-0.205
Mof_N 	N 	0.3661	0.99484	0.5645	-0.123
Mof_C 	C 	0.1258	0.99194	0.471	0.058
Mof_C 	C 	0.0731	0.05221	0.4763	-0.066
Mof_H 	H 	0.1227	0.0881	0.46	0.059
Mof_C 	C 	0.0519	0.9393	0.4946	-0.066
Mof_H 	H 	0.0866	0.8978	0.4909	0.061
Mof_C 	C 	0.2651	0.9834	0.4461	-0.104
Mof_H 	H 	0.2752	0.9399	0.4153	0.066
Mof_H 	H 	0.2793	0.0136	0.38	0.056
Mof_C 	C 	0.4085	0.95251	0.6596	0.097
Mof_H 	H 	0.3832	0.9092	0.6577	-0.001
Mof_C 	C 	0.4256	0.05083	0.6064	0.103
Mof_H 	H 	0.4143	0.0895	0.5605	0.001
Mof_C 	C 	0.4674	0.75089	0.8389	-0.125
Mof_C 	C 	0.5835	0.72638	0.8069	0.057
Mof_H 	H 	0.6654	0.7482	0.8323	0.037
Mof_C 	C 	0.5785	0.67001	0.7377	-0.114
Mof_C 	C 	0.4573	0.63911	0.6969	0.058
Mof_H 	H 	0.4537	0.6017	0.6474	0.03
Mof_C 	C 	0.3398	0.66287	0.7282	-0.13
Mof_C 	C 	0.3467	0.71792	0.8014	0.064
Mof_H 	H 	0.2691	0.7332	0.8262	0.038
Mof_C 	C 	0.4705	0.81279	0.9104	0.372
Mof_C 	C 	0.7036	0.64396	0.7018	0.318
Mof_C 	C 	0.2078	0.63113	0.6767	0.373
Mof_Co	Co	0.08538	0.55065	0.44022	1.139
Mof_Co	Co	0.92294	0.61406	0.63582	1.173
Mof_O 	O 	0.05291	0.64552	0.3869	-0.446
Mof_O 	O 	0.89087	0.68134	0.4851	-0.408
Mof_O 	O 	0.31655	0.8328	0.2517	-0.378
Mof_O 	O 	0.19461	0.90033	0.1224	-0.369
Mof_O 	O 	0.70795	0.92098	0.1177	-0.452
Mof_O 	O 	0.60361	0.84091	0.195	-0.421
Mof_O 	O 	0.90621	0.54397	0.5071	-0.793
Mof_H 	H 	0.839	0.5462	0.442	0.259
Mof_N 	N 	0.9894	0.51984	0.2546	-0.218
Mof_N 	N 	0.0012	0.4564	0.2203	-0.206
Mof_N 	N 	0.8661	0.50516	0.0645	-0.122
Mof_C 	C 	0.6258	0.50806	0.971	0.058
Mof_C 	C 	0.5731	0.44779	0.9763	-0.064
Mof_H 	H 	0.6227	0.4119	0.96	0.059
Mof_C 	C 	0.5519	0.5607	0.9946	-0.067
Mof_H 	H 	0.5866	0.6022	0.9909	0.062
Mof_C 	C 	0.7651	0.5166	0.9461	-0.107
Mof_H 	H 	0.7752	0.5601	0.9153	0.066
Mof_H 	H 	0.7793	0.4864	0.88	0.058
Mof_C 	C 	0.9085	0.54749	0.1596	0.097
Mof_H 	H 	0.8832	0.5908	0.1577	-0.001
Mof_C 	C 	0.9256	0.44917	0.1064	0.103
Mof_H 	H 	0.9143	0.4105	0.0605	0.001
Mof_C 	C 	0.9674	0.74911	0.3389	-0.124
Mof_C 	C 	0.0835	0.77362	0.3069	0.057
Mof_H 	H 	0.1654	0.7518	0.3323	0.037
Mof_C 	C 	0.0785	0.82999	0.2377	-0.114
Mof_C 	C 	0.9573	0.86089	0.1969	0.058
Mof_H 	H 	0.9537	0.8983	0.1474	0.03
Mof_C 	C 	0.8398	0.83713	0.2282	-0.129
Mof_C 	C 	0.8467	0.78208	0.3014	0.064
Mof_H 	H 	0.7691	0.7668	0.3262	0.039
Mof_C 	C 	0.9705	0.68721	0.4104	0.372
Mof_C 	C 	0.2036	0.85604	0.2018	0.318
Mof_C 	C 	0.7078	0.86887	0.1767	0.373
Mof_Co	Co	0.41462	0.05065	0.05978	1.137
Mof_Co	Co	0.57706	0.11406	0.86418	1.173
Mof_O 	O 	0.44709	0.14552	0.1131	-0.448
Mof_O 	O 	0.60913	0.18134	0.0149	-0.409
Mof_O 	O 	0.18345	0.3328	0.2483	-0.379
Mof_O 	O 	0.30539	0.40033	0.3776	-0.37
Mof_O 	O 	0.79205	0.42098	0.3823	-0.454
Mof_O 	O 	0.89639	0.34091	0.305	-0.421
Mof_O 	O 	0.59379	0.04397	0.9929	-0.787
Mof_H 	H 	0.661	0.0462	0.058	0.255
Mof_N 	N 	0.5106	0.01984	0.2454	-0.219
Mof_N 	N 	0.4988	0.9564	0.2797	-0.205
Mof_N 	N 	0.6339	0.00516	0.4355	-0.123
Mof_C 	C 	0.8742	0.00806	0.529	0.058
Mof_C 	C 	0.9269	0.94779	0.5237	-0.066
Mof_H 	H 	0.8773	0.9119	0.54	0.059
Mof_C 	C 	0.9481	0.0607	0.5054	-0.066
Mof_H 	H 	0.9134	0.1022	0.5091	0.061
Mof_C 	C 	0.7349	0.0166	0.5539	-0.104
Mof_H 	H 	0.7248	0.0601	0.5847	0.066
Mof_H 	H 	0.7207	0.9864	0.62	0.056
Mof_C 	C 	0.5915	0.04749	0.3404	0.097
Mof_H 	H 	0.6168	0.0908	0.3423	-0.001
Mof_C 	C 	0.5744	0.94917	0.3936	0.103
Mof_H 	H 	0.5857	0.9105	0.4395	0.001
Mof_C 	C 	0.5326	0.24911	0.1611	-0.125
Mof_C 	C 	0.4165	0.27362	0.1931	0.057
Mof_H 	H 	0.3346	0.2518	0.1677	0.037
Mof_C 	C 	0.4215	0.32999	0.2623	-0.114
Mof_C 	C 	0.5427	0.36089	0.3031	0.058
Mof_H 	H 	0.5463	0.3983	0.3526	0.03
Mof_C 	C 	0.6602	0.33713	0.2718	-0.13
Mof_C 	C 	0.6533	0.28208	0.1986	0.064
Mof_H 	H 	0.7309	0.2668	0.1738	0.038
Mof_C 	C 	0.5295	0.18721	0.0896	0.372
Mof_C 	C 	0.2964	0.35604	0.2982	0.318
Mof_C 	C 	0.7922	0.36887	0.3233	0.373
_end
