data_functionalizedCrystal
_audit_creation_method	'EQeq! by Chris Wilmer'
_symmetry_space_group_name_H-M	'P1'
_symmetry_Int_Tables_number	1
_symmetry_cell_setting	triclinic
loop_
_symmetry_equiv_pos_as_xyz
  x,y,z
_cell_length_a	25.0692
_cell_length_b	26.5622
_cell_length_c	15.2443
_cell_angle_alpha	90
_cell_angle_beta	90
_cell_angle_gamma	90
loop_
_atom_site_label
_atom_site_type_symbol
_atom_site_fract_x
_atom_site_fract_y
_atom_site_fract_z
_atom_site_charge
Mof_Tb	Tb	0.8995	0.68339	0.65482	2.054
Mof_Cl	Cl	0.08107	0.81307	0.7169	-0.225
Mof_Cl	Cl	0.15835	0.86455	0.58866	-0.188
Mof_Cl	Cl	0.99957	0.87162	0.34649	-0.197
Mof_Cl	Cl	0.92315	0.82458	0.48154	-0.233
Mof_Cl	Cl	0.04294	0.06735	0.38487	-0.215
Mof_Cl	Cl	0.07709	0.97799	0.50005	-0.171
Mof_Cl	Cl	0.12971	0.8747	0.20594	-0.191
Mof_Cl	Cl	0.10856	0.97118	0.09702	-0.23
Mof_Cl	Cl	0.21516	0.94944	0.41729	-0.175
Mof_Cl	Cl	0.32324	0.89774	0.38458	-0.216
Mof_Cl	Cl	0.22341	0.71951	0.35171	-0.248
Mof_Cl	Cl	0.11506	0.77077	0.37298	-0.191
Mof_O 	O 	0.95327	0.75303	0.642	-0.559
Mof_O 	O 	0.9551	0.82355	0.7209	-0.494
Mof_O 	O 	0.0181	0.0594	0.1571	-0.231
Mof_O 	O 	0.09573	0.09527	0.1878	-0.453
Mof_O 	O 	0.34242	0.8046	0.2727	-0.521
Mof_O 	O 	0.33824	0.75109	0.3864	-0.472
Mof_C 	C 	0.96801	0.79686	0.6579	0.603
Mof_C 	C 	0.0622	0.0603	0.1915	0.465
Mof_C 	C 	0.32152	0.78679	0.3408	0.563
Mof_C 	C 	0.00619	0.82035	0.5915	-0.195
Mof_C 	C 	0.0594	0.82951	0.6141	0.211
Mof_C 	C 	0.09379	0.85123	0.5541	0.115
Mof_C 	C 	0.07772	0.86431	0.4691	-0.009
Mof_C 	C 	0.02395	0.8563	0.4491	0.123
Mof_C 	C 	0.98961	0.83415	0.5093	0.212
Mof_C 	C 	0.116	0.8841	0.4034	0.131
Mof_C 	C 	0.078	0.01448	0.2465	-0.146
Mof_C 	C 	0.07	0.01459	0.337	0.201
Mof_C 	C 	0.0833	0.97315	0.3877	0.13
Mof_C 	C 	0.10315	0.92928	0.3496	-0.015
Mof_C 	C 	0.1102	0.92945	0.2592	0.12
Mof_C 	C 	0.0983	0.9719	0.2091	0.192
Mof_C 	C 	0.1681	0.8589	0.3926	-0.014
Mof_C 	C 	0.21601	0.88609	0.3939	0.119
Mof_C 	C 	0.26536	0.86283	0.3802	0.202
Mof_C 	C 	0.2687	0.81139	0.3652	-0.184
Mof_C 	C 	0.22123	0.78399	0.3694	0.205
Mof_C 	C 	0.17214	0.80713	0.3808	0.123
Mof_Tb	Tb	0.6005	0.31661	0.65482	2.055
Mof_Cl	Cl	0.41893	0.18693	0.7169	-0.225
Mof_Cl	Cl	0.34165	0.13545	0.58866	-0.187
Mof_Cl	Cl	0.50043	0.12838	0.34649	-0.197
Mof_Cl	Cl	0.57685	0.17542	0.48154	-0.232
Mof_Cl	Cl	0.45706	0.93265	0.38487	-0.214
Mof_Cl	Cl	0.42291	0.02201	0.50005	-0.172
Mof_Cl	Cl	0.37029	0.1253	0.20594	-0.19
Mof_Cl	Cl	0.39144	0.02882	0.09702	-0.23
Mof_Cl	Cl	0.28484	0.05056	0.41729	-0.175
Mof_Cl	Cl	0.17676	0.10226	0.38458	-0.216
Mof_Cl	Cl	0.27659	0.28049	0.35171	-0.248
Mof_Cl	Cl	0.38494	0.22923	0.37298	-0.191
Mof_O 	O 	0.54673	0.24697	0.642	-0.559
Mof_O 	O 	0.5449	0.17645	0.7209	-0.494
Mof_O 	O 	0.4819	0.9406	0.1571	-0.231
Mof_O 	O 	0.40427	0.90473	0.1878	-0.452
Mof_O 	O 	0.15758	0.1954	0.2727	-0.521
Mof_O 	O 	0.16176	0.24891	0.3864	-0.472
Mof_C 	C 	0.53199	0.20314	0.6579	0.604
Mof_C 	C 	0.4378	0.9397	0.1915	0.464
Mof_C 	C 	0.17848	0.21321	0.3408	0.563
Mof_C 	C 	0.49381	0.17965	0.5915	-0.196
Mof_C 	C 	0.4406	0.17049	0.6141	0.212
Mof_C 	C 	0.40621	0.14877	0.5541	0.115
Mof_C 	C 	0.42228	0.13569	0.4691	-0.009
Mof_C 	C 	0.47605	0.1437	0.4491	0.123
Mof_C 	C 	0.51039	0.16585	0.5093	0.213
Mof_C 	C 	0.384	0.1159	0.4034	0.131
Mof_C 	C 	0.422	0.98552	0.2465	-0.146
Mof_C 	C 	0.43	0.98541	0.337	0.201
Mof_C 	C 	0.4167	0.02685	0.3877	0.13
Mof_C 	C 	0.39685	0.07072	0.3496	-0.015
Mof_C 	C 	0.3898	0.07055	0.2592	0.12
Mof_C 	C 	0.4017	0.0281	0.2091	0.192
Mof_C 	C 	0.3319	0.1411	0.3926	-0.014
Mof_C 	C 	0.28399	0.11391	0.3939	0.119
Mof_C 	C 	0.23464	0.13717	0.3802	0.202
Mof_C 	C 	0.2313	0.18861	0.3652	-0.184
Mof_C 	C 	0.27877	0.21601	0.3694	0.205
Mof_C 	C 	0.32786	0.19287	0.3808	0.123
Mof_Tb	Tb	0.6005	0.18339	0.84518	2.055
Mof_Cl	Cl	0.41893	0.31307	0.7831	-0.225
Mof_Cl	Cl	0.34165	0.36455	0.91134	-0.187
Mof_Cl	Cl	0.50043	0.37162	0.15351	-0.197
Mof_Cl	Cl	0.57685	0.32458	0.01846	-0.232
Mof_Cl	Cl	0.45706	0.56735	0.11513	-0.214
Mof_Cl	Cl	0.42291	0.47799	0.99995	-0.171
Mof_Cl	Cl	0.37029	0.3747	0.29406	-0.19
Mof_Cl	Cl	0.39144	0.47118	0.40298	-0.229
Mof_Cl	Cl	0.28484	0.44944	0.08271	-0.176
Mof_Cl	Cl	0.17676	0.39774	0.11542	-0.217
Mof_Cl	Cl	0.27659	0.21951	0.14829	-0.249
Mof_Cl	Cl	0.38494	0.27077	0.12702	-0.191
Mof_O 	O 	0.54673	0.25303	0.858	-0.559
Mof_O 	O 	0.5449	0.32355	0.7791	-0.494
Mof_O 	O 	0.4819	0.5594	0.3429	-0.231
Mof_O 	O 	0.40427	0.59527	0.3122	-0.452
Mof_O 	O 	0.15758	0.3046	0.2273	-0.521
Mof_O 	O 	0.16176	0.25109	0.1136	-0.472
Mof_C 	C 	0.53199	0.29686	0.8421	0.604
Mof_C 	C 	0.4378	0.5603	0.3085	0.464
Mof_C 	C 	0.17848	0.28679	0.1592	0.563
Mof_C 	C 	0.49381	0.32035	0.9085	-0.196
Mof_C 	C 	0.4406	0.32951	0.8859	0.211
Mof_C 	C 	0.40621	0.35123	0.9459	0.116
Mof_C 	C 	0.42228	0.36431	0.0309	-0.009
Mof_C 	C 	0.47605	0.3563	0.0509	0.124
Mof_C 	C 	0.51039	0.33415	0.9907	0.212
Mof_C 	C 	0.384	0.3841	0.0966	0.131
Mof_C 	C 	0.422	0.51448	0.2535	-0.146
Mof_C 	C 	0.43	0.51459	0.163	0.201
Mof_C 	C 	0.4167	0.47315	0.1123	0.129
Mof_C 	C 	0.39685	0.42928	0.1504	-0.015
Mof_C 	C 	0.3898	0.42945	0.2408	0.12
Mof_C 	C 	0.4017	0.4719	0.2909	0.192
Mof_C 	C 	0.3319	0.3589	0.1074	-0.014
Mof_C 	C 	0.28399	0.38609	0.1061	0.119
Mof_C 	C 	0.23464	0.36283	0.1198	0.202
Mof_C 	C 	0.2313	0.31139	0.1348	-0.184
Mof_C 	C 	0.27877	0.28399	0.1306	0.205
Mof_C 	C 	0.32786	0.30713	0.1192	0.123
Mof_Tb	Tb	0.8995	0.81661	0.84518	2.054
Mof_Cl	Cl	0.08107	0.68693	0.7831	-0.224
Mof_Cl	Cl	0.15835	0.63545	0.91134	-0.187
Mof_Cl	Cl	0.99957	0.62838	0.15351	-0.195
Mof_Cl	Cl	0.92315	0.67542	0.01846	-0.229
Mof_Cl	Cl	0.04294	0.43265	0.11513	-0.215
Mof_Cl	Cl	0.07709	0.52201	0.99995	-0.169
Mof_Cl	Cl	0.12971	0.6253	0.29406	-0.19
Mof_Cl	Cl	0.10856	0.52882	0.40298	-0.229
Mof_Cl	Cl	0.21516	0.55056	0.08271	-0.176
Mof_Cl	Cl	0.32324	0.60226	0.11542	-0.217
Mof_Cl	Cl	0.22341	0.78049	0.14829	-0.249
Mof_Cl	Cl	0.11506	0.72923	0.12702	-0.192
Mof_O 	O 	0.95327	0.74697	0.858	-0.559
Mof_O 	O 	0.9551	0.67645	0.7791	-0.493
Mof_O 	O 	0.0181	0.4406	0.3429	-0.231
Mof_O 	O 	0.09573	0.40473	0.3122	-0.452
Mof_O 	O 	0.34242	0.6954	0.2273	-0.521
Mof_O 	O 	0.33824	0.74891	0.1136	-0.472
Mof_C 	C 	0.96801	0.70314	0.8421	0.6
Mof_C 	C 	0.0622	0.4397	0.3085	0.465
Mof_C 	C 	0.32152	0.71321	0.1592	0.563
Mof_C 	C 	0.00619	0.67965	0.9085	-0.19
Mof_C 	C 	0.0594	0.67049	0.8859	0.209
Mof_C 	C 	0.09379	0.64877	0.9459	0.119
Mof_C 	C 	0.07772	0.63569	0.0309	-0.012
Mof_C 	C 	0.02395	0.6437	0.0509	0.124
Mof_C 	C 	0.98961	0.66585	0.9907	0.207
Mof_C 	C 	0.116	0.6159	0.0966	0.131
Mof_C 	C 	0.078	0.48552	0.2535	-0.146
Mof_C 	C 	0.07	0.48541	0.163	0.201
Mof_C 	C 	0.0833	0.52685	0.1123	0.128
Mof_C 	C 	0.10315	0.57072	0.1504	-0.015
Mof_C 	C 	0.1102	0.57055	0.2408	0.12
Mof_C 	C 	0.0983	0.5281	0.2909	0.192
Mof_C 	C 	0.1681	0.6411	0.1074	-0.015
Mof_C 	C 	0.21601	0.61391	0.1061	0.119
Mof_C 	C 	0.26536	0.63717	0.1198	0.202
Mof_C 	C 	0.2687	0.68861	0.1348	-0.184
Mof_C 	C 	0.22123	0.71601	0.1306	0.204
Mof_C 	C 	0.17214	0.69287	0.1192	0.123
Mof_Tb	Tb	0.1005	0.31661	0.34518	2.055
Mof_Cl	Cl	0.91893	0.18693	0.2831	-0.224
Mof_Cl	Cl	0.84165	0.13545	0.41134	-0.187
Mof_Cl	Cl	0.00043	0.12838	0.65351	-0.196
Mof_Cl	Cl	0.07685	0.17542	0.51846	-0.232
Mof_Cl	Cl	0.95706	0.93265	0.61513	-0.214
Mof_Cl	Cl	0.92291	0.02201	0.49995	-0.171
Mof_Cl	Cl	0.87029	0.1253	0.79406	-0.191
Mof_Cl	Cl	0.89144	0.02882	0.90298	-0.23
Mof_Cl	Cl	0.78484	0.05056	0.58271	-0.175
Mof_Cl	Cl	0.67676	0.10226	0.61542	-0.216
Mof_Cl	Cl	0.77659	0.28049	0.64829	-0.248
Mof_Cl	Cl	0.88494	0.22923	0.62702	-0.191
Mof_O 	O 	0.04673	0.24697	0.358	-0.559
Mof_O 	O 	0.0449	0.17645	0.2791	-0.494
Mof_O 	O 	0.9819	0.9406	0.8429	-0.231
Mof_O 	O 	0.90427	0.90473	0.8122	-0.453
Mof_O 	O 	0.65758	0.1954	0.7273	-0.521
Mof_O 	O 	0.66176	0.24891	0.6136	-0.472
Mof_C 	C 	0.03199	0.20314	0.3421	0.603
Mof_C 	C 	0.9378	0.9397	0.8085	0.465
Mof_C 	C 	0.67848	0.21321	0.6592	0.563
Mof_C 	C 	0.99381	0.17965	0.4085	-0.195
Mof_C 	C 	0.9406	0.17049	0.3859	0.211
Mof_C 	C 	0.90621	0.14877	0.4459	0.115
Mof_C 	C 	0.92228	0.13569	0.5309	-0.009
Mof_C 	C 	0.97605	0.1437	0.5509	0.123
Mof_C 	C 	0.01039	0.16585	0.4907	0.212
Mof_C 	C 	0.884	0.1159	0.5966	0.131
Mof_C 	C 	0.922	0.98552	0.7535	-0.146
Mof_C 	C 	0.93	0.98541	0.663	0.201
Mof_C 	C 	0.9167	0.02685	0.6123	0.13
Mof_C 	C 	0.89685	0.07072	0.6504	-0.015
Mof_C 	C 	0.8898	0.07055	0.7408	0.12
Mof_C 	C 	0.9017	0.0281	0.7909	0.192
Mof_C 	C 	0.8319	0.1411	0.6074	-0.014
Mof_C 	C 	0.78399	0.11391	0.6061	0.119
Mof_C 	C 	0.73464	0.13717	0.6198	0.202
Mof_C 	C 	0.7313	0.18861	0.6348	-0.184
Mof_C 	C 	0.77877	0.21601	0.6306	0.205
Mof_C 	C 	0.82786	0.19287	0.6192	0.123
Mof_Tb	Tb	0.3995	0.68339	0.34518	2.055
Mof_Cl	Cl	0.58107	0.81307	0.2831	-0.225
Mof_Cl	Cl	0.65835	0.86455	0.41134	-0.187
Mof_Cl	Cl	0.49957	0.87162	0.65351	-0.197
Mof_Cl	Cl	0.42315	0.82458	0.51846	-0.232
Mof_Cl	Cl	0.54294	0.06735	0.61513	-0.214
Mof_Cl	Cl	0.57709	0.97799	0.49995	-0.172
Mof_Cl	Cl	0.62971	0.8747	0.79406	-0.19
Mof_Cl	Cl	0.60856	0.97118	0.90298	-0.23
Mof_Cl	Cl	0.71516	0.94944	0.58271	-0.175
Mof_Cl	Cl	0.82324	0.89774	0.61542	-0.216
Mof_Cl	Cl	0.72341	0.71951	0.64829	-0.248
Mof_Cl	Cl	0.61506	0.77077	0.62702	-0.191
Mof_O 	O 	0.45327	0.75303	0.358	-0.559
Mof_O 	O 	0.4551	0.82355	0.2791	-0.494
Mof_O 	O 	0.5181	0.0594	0.8429	-0.231
Mof_O 	O 	0.59573	0.09527	0.8122	-0.452
Mof_O 	O 	0.84242	0.8046	0.7273	-0.521
Mof_O 	O 	0.83824	0.75109	0.6136	-0.472
Mof_C 	C 	0.46801	0.79686	0.3421	0.604
Mof_C 	C 	0.5622	0.0603	0.8085	0.464
Mof_C 	C 	0.82152	0.78679	0.6592	0.563
Mof_C 	C 	0.50619	0.82035	0.4085	-0.196
Mof_C 	C 	0.5594	0.82951	0.3859	0.212
Mof_C 	C 	0.59379	0.85123	0.4459	0.115
Mof_C 	C 	0.57772	0.86431	0.5309	-0.009
Mof_C 	C 	0.52395	0.8563	0.5509	0.123
Mof_C 	C 	0.48961	0.83415	0.4907	0.213
Mof_C 	C 	0.616	0.8841	0.5966	0.131
Mof_C 	C 	0.578	0.01448	0.7535	-0.146
Mof_C 	C 	0.57	0.01459	0.663	0.201
Mof_C 	C 	0.5833	0.97315	0.6123	0.13
Mof_C 	C 	0.60315	0.92928	0.6504	-0.015
Mof_C 	C 	0.6102	0.92945	0.7408	0.12
Mof_C 	C 	0.5983	0.9719	0.7909	0.192
Mof_C 	C 	0.6681	0.8589	0.6074	-0.014
Mof_C 	C 	0.71601	0.88609	0.6061	0.119
Mof_C 	C 	0.76536	0.86283	0.6198	0.202
Mof_C 	C 	0.7687	0.81139	0.6348	-0.184
Mof_C 	C 	0.72123	0.78399	0.6306	0.205
Mof_C 	C 	0.67214	0.80713	0.6192	0.123
Mof_Tb	Tb	0.3995	0.81661	0.15482	2.055
Mof_Cl	Cl	0.58107	0.68693	0.2169	-0.225
Mof_Cl	Cl	0.65835	0.63545	0.08866	-0.187
Mof_Cl	Cl	0.49957	0.62838	0.84649	-0.197
Mof_Cl	Cl	0.42315	0.67542	0.98154	-0.232
Mof_Cl	Cl	0.54294	0.43265	0.88487	-0.214
Mof_Cl	Cl	0.57709	0.52201	5e-05	-0.171
Mof_Cl	Cl	0.62971	0.6253	0.70594	-0.19
Mof_Cl	Cl	0.60856	0.52882	0.59702	-0.229
Mof_Cl	Cl	0.71516	0.55056	0.91729	-0.176
Mof_Cl	Cl	0.82324	0.60226	0.88458	-0.217
Mof_Cl	Cl	0.72341	0.78049	0.85171	-0.249
Mof_Cl	Cl	0.61506	0.72923	0.87298	-0.191
Mof_O 	O 	0.45327	0.74697	0.142	-0.559
Mof_O 	O 	0.4551	0.67645	0.2209	-0.494
Mof_O 	O 	0.5181	0.4406	0.6571	-0.231
Mof_O 	O 	0.59573	0.40473	0.6878	-0.452
Mof_O 	O 	0.84242	0.6954	0.7727	-0.521
Mof_O 	O 	0.83824	0.74891	0.8864	-0.472
Mof_C 	C 	0.46801	0.70314	0.1579	0.604
Mof_C 	C 	0.5622	0.4397	0.6915	0.464
Mof_C 	C 	0.82152	0.71321	0.8408	0.563
Mof_C 	C 	0.50619	0.67965	0.0915	-0.196
Mof_C 	C 	0.5594	0.67049	0.1141	0.211
Mof_C 	C 	0.59379	0.64877	0.0541	0.116
Mof_C 	C 	0.57772	0.63569	0.9691	-0.009
Mof_C 	C 	0.52395	0.6437	0.9491	0.124
Mof_C 	C 	0.48961	0.66585	0.0093	0.212
Mof_C 	C 	0.616	0.6159	0.9034	0.131
Mof_C 	C 	0.578	0.48552	0.7465	-0.146
Mof_C 	C 	0.57	0.48541	0.837	0.201
Mof_C 	C 	0.5833	0.52685	0.8877	0.129
Mof_C 	C 	0.60315	0.57072	0.8496	-0.015
Mof_C 	C 	0.6102	0.57055	0.7592	0.12
Mof_C 	C 	0.5983	0.5281	0.7091	0.192
Mof_C 	C 	0.6681	0.6411	0.8926	-0.014
Mof_C 	C 	0.71601	0.61391	0.8939	0.119
Mof_C 	C 	0.76536	0.63717	0.8802	0.202
Mof_C 	C 	0.7687	0.68861	0.8652	-0.184
Mof_C 	C 	0.72123	0.71601	0.8694	0.205
Mof_C 	C 	0.67214	0.69287	0.8808	0.123
Mof_Tb	Tb	0.1005	0.18339	0.15482	2.054
Mof_Cl	Cl	0.91893	0.31307	0.2169	-0.224
Mof_Cl	Cl	0.84165	0.36455	0.08866	-0.187
Mof_Cl	Cl	0.00043	0.37162	0.84649	-0.195
Mof_Cl	Cl	0.07685	0.32458	0.98154	-0.229
Mof_Cl	Cl	0.95706	0.56735	0.88487	-0.215
Mof_Cl	Cl	0.92291	0.47799	5e-05	-0.169
Mof_Cl	Cl	0.87029	0.3747	0.70594	-0.19
Mof_Cl	Cl	0.89144	0.47118	0.59702	-0.229
Mof_Cl	Cl	0.78484	0.44944	0.91729	-0.176
Mof_Cl	Cl	0.67676	0.39774	0.88458	-0.217
Mof_Cl	Cl	0.77659	0.21951	0.85171	-0.249
Mof_Cl	Cl	0.88494	0.27077	0.87298	-0.192
Mof_O 	O 	0.04673	0.25303	0.142	-0.559
Mof_O 	O 	0.0449	0.32355	0.2209	-0.493
Mof_O 	O 	0.9819	0.5594	0.6571	-0.231
Mof_O 	O 	0.90427	0.59527	0.6878	-0.452
Mof_O 	O 	0.65758	0.3046	0.7727	-0.521
Mof_O 	O 	0.66176	0.25109	0.8864	-0.472
Mof_C 	C 	0.03199	0.29686	0.1579	0.6
Mof_C 	C 	0.9378	0.5603	0.6915	0.465
Mof_C 	C 	0.67848	0.28679	0.8408	0.563
Mof_C 	C 	0.99381	0.32035	0.0915	-0.19
Mof_C 	C 	0.9406	0.32951	0.1141	0.209
Mof_C 	C 	0.90621	0.35123	0.0541	0.119
Mof_C 	C 	0.92228	0.36431	0.9691	-0.012
Mof_C 	C 	0.97605	0.3563	0.9491	0.124
Mof_C 	C 	0.01039	0.33415	0.0093	0.207
Mof_C 	C 	0.884	0.3841	0.9034	0.131
Mof_C 	C 	0.922	0.51448	0.7465	-0.146
Mof_C 	C 	0.93	0.51459	0.837	0.201
Mof_C 	C 	0.9167	0.47315	0.8877	0.128
Mof_C 	C 	0.89685	0.42928	0.8496	-0.015
Mof_C 	C 	0.8898	0.42945	0.7592	0.12
Mof_C 	C 	0.9017	0.4719	0.7091	0.192
Mof_C 	C 	0.8319	0.3589	0.8926	-0.015
Mof_C 	C 	0.78399	0.38609	0.8939	0.119
Mof_C 	C 	0.73464	0.36283	0.8802	0.202
Mof_C 	C 	0.7313	0.31139	0.8652	-0.184
Mof_C 	C 	0.77877	0.28399	0.8694	0.204
Mof_C 	C 	0.82786	0.30713	0.8808	0.123
_end
