data_functionalizedCrystal
_audit_creation_method	'EQeq! by Chris Wilmer'
_symmetry_space_group_name_H-M	'P1'
_symmetry_Int_Tables_number	1
_symmetry_cell_setting	triclinic
loop_
_symmetry_equiv_pos_as_xyz
  x,y,z
_cell_length_a	16.557
_cell_length_b	18.311
_cell_length_c	11.9349
_cell_angle_alpha	90
_cell_angle_beta	123.096
_cell_angle_gamma	90
loop_
_atom_site_label
_atom_site_type_symbol
_atom_site_fract_x
_atom_site_fract_y
_atom_site_fract_z
_atom_site_charge
Mof_O 	O 	0.08439	0.3799	0.382	-0.45
Mof_O 	O 	0.2204	0.34318	0.5686	-0.352
Mof_O 	O 	0.08595	0.70228	0.6761	-0.596
Mof_O 	O 	0.23762	0.68646	0.8472	-0.567
Mof_O 	O 	0.09758	0.22253	0.3883	-0.451
Mof_N 	N 	0.0698	0.1609	0.4187	0.008
Mof_C 	C 	0.1627	0.464	0.5581	1.095
Mof_C 	C 	0.2319	0.4785	0.6906	-1.161
Mof_H 	H 	0.271	0.443	0.745	0.467
Mof_C 	C 	0.235	0.5455	0.745	1.017
Mof_H 	H 	0.281	0.554	0.842	-0.263
Mof_C 	C 	0.1685	0.5991	0.6709	-1.298
Mof_C 	C 	0.1001	0.5842	0.5383	2.409
Mof_H 	H 	0.073	0.619	0.499	-1.068
Mof_C 	C 	0.0981	0.5176	0.484	-2.253
Mof_H 	H 	0.068	0.507	0.404	0.965
Mof_C 	C 	0.1547	0.39	0.4982	-0.016
Mof_C 	C 	0.1642	0.6679	0.736	0.835
Mof_C 	C 	0.096	0.0968	0.3952	-0.018
Mof_H 	H 	0.144	0.1	0.37	0.05
Mof_C 	C 	0.0678	0.0331	0.4244	0.094
Mof_H 	H 	0.09	0.991	0.412	-0
Mof_C 	C 	0.0139	0.0345	0.4813	-0.218
Mof_C 	C 	0.9887	0.1022	0.5026	0.19
Mof_H 	H 	0.951	0.111	0.539	-0.033
Mof_C 	C 	0.016	0.165	0.4715	-0.167
Mof_H 	H 	0.995	0.219	0.477	0.148
Mof_O 	O 	0.58439	0.8799	0.382	-0.386
Mof_O 	O 	0.7204	0.84318	0.5686	-0.237
Mof_O 	O 	0.58595	0.20228	0.6761	-0.705
Mof_O 	O 	0.73762	0.18646	0.8472	-0.701
Mof_O 	O 	0.59758	0.72253	0.3883	-0.433
Mof_N 	N 	0.5698	0.6609	0.4187	-0.042
Mof_C 	C 	0.6627	0.964	0.5581	2.368
Mof_C 	C 	0.7319	0.9785	0.6906	-2.37
Mof_H 	H 	0.771	0.943	0.745	0.907
Mof_C 	C 	0.735	0.0455	0.745	2.107
Mof_H 	H 	0.781	0.054	0.842	-0.619
Mof_C 	C 	0.6685	0.0991	0.6709	-2.631
Mof_C 	C 	0.6001	0.0842	0.5383	5.087
Mof_H 	H 	0.573	0.119	0.499	-2.303
Mof_C 	C 	0.5981	0.0176	0.484	-4.673
Mof_H 	H 	0.568	0.007	0.404	1.955
Mof_C 	C 	0.6547	0.89	0.4982	-0.47
Mof_C 	C 	0.6642	0.1679	0.736	1.33
Mof_C 	C 	0.596	0.5968	0.3952	0.06
Mof_H 	H 	0.644	0.6	0.37	0.033
Mof_C 	C 	0.5678	0.5331	0.4244	-0.094
Mof_H 	H 	0.59	0.491	0.412	0.075
Mof_C 	C 	0.5139	0.5345	0.4813	0.043
Mof_C 	C 	0.4887	0.6022	0.5026	-0.09
Mof_H 	H 	0.451	0.611	0.539	0.072
Mof_C 	C 	0.516	0.665	0.4715	0.038
Mof_H 	H 	0.495	0.719	0.477	0.093
Mof_O 	O 	0.91561	0.3799	0.118	-0.318
Mof_O 	O 	0.7796	0.34318	0.9314	-0.284
Mof_O 	O 	0.91405	0.70228	0.8239	-0.679
Mof_O 	O 	0.76238	0.68646	0.6528	-0.672
Mof_O 	O 	0.90242	0.22253	0.1117	-0.42
Mof_N 	N 	0.9302	0.1609	0.0813	-0.105
Mof_C 	C 	0.8373	0.464	0.9419	2.24
Mof_C 	C 	0.7681	0.4785	0.8094	-2.258
Mof_H 	H 	0.729	0.443	0.755	0.864
Mof_C 	C 	0.765	0.5455	0.755	2.025
Mof_H 	H 	0.719	0.554	0.658	-0.568
Mof_C 	C 	0.8315	0.5991	0.8291	-2.485
Mof_C 	C 	0.8999	0.5842	0.9617	4.838
Mof_H 	H 	0.927	0.619	0.001	-2.177
Mof_C 	C 	0.9019	0.5176	0.016	-4.432
Mof_H 	H 	0.932	0.507	0.096	1.923
Mof_C 	C 	0.8453	0.39	0.0018	-0.403
Mof_C 	C 	0.8358	0.6679	0.764	1.292
Mof_C 	C 	0.904	0.0968	0.1048	0.144
Mof_H 	H 	0.856	0.1	0.13	-0.025
Mof_C 	C 	0.9322	0.0331	0.0756	-0.162
Mof_H 	H 	0.91	0.991	0.088	0.064
Mof_C 	C 	0.9861	0.0345	0.0187	0.346
Mof_C 	C 	0.0113	0.1022	0.9974	-0.515
Mof_H 	H 	0.049	0.111	0.961	0.189
Mof_C 	C 	0.984	0.165	0.0285	0.353
Mof_H 	H 	0.005	0.219	0.023	-0.031
Mof_O 	O 	0.41561	0.8799	0.118	-0.059
Mof_O 	O 	0.2796	0.84318	0.9314	0.095
Mof_O 	O 	0.41405	0.20228	0.8239	-0.988
Mof_O 	O 	0.26238	0.18646	0.6528	-0.986
Mof_O 	O 	0.40242	0.72253	0.1117	-0.436
Mof_N 	N 	0.4302	0.6609	0.0813	-0.039
Mof_C 	C 	0.3373	0.964	0.9419	5.733
Mof_C 	C 	0.2681	0.9785	0.8094	-5.492
Mof_H 	H 	0.229	0.943	0.755	2.033
Mof_C 	C 	0.265	0.0455	0.755	4.903
Mof_H 	H 	0.219	0.054	0.658	-1.453
Mof_C 	C 	0.3315	0.0991	0.8291	-5.933
Mof_C 	C 	0.3999	0.0842	0.9617	11.758
Mof_H 	H 	0.427	0.119	0.001	-5.364
Mof_C 	C 	0.4019	0.0176	0.016	-10.832
Mof_H 	H 	0.432	0.007	0.096	4.607
Mof_C 	C 	0.3453	0.89	0.0018	-1.798
Mof_C 	C 	0.3358	0.1679	0.764	2.58
Mof_C 	C 	0.404	0.5968	0.1048	0.047
Mof_H 	H 	0.356	0.6	0.13	0.021
Mof_C 	C 	0.4322	0.5331	0.0756	-0.103
Mof_H 	H 	0.41	0.491	0.088	0.078
Mof_C 	C 	0.4861	0.5345	0.0187	0.036
Mof_C 	C 	0.5113	0.6022	0.9974	-0.052
Mof_H 	H 	0.549	0.611	0.961	0.073
Mof_C 	C 	0.484	0.665	0.0285	0.004
Mof_H 	H 	0.505	0.719	0.023	0.145
Mof_O 	O 	0.91561	0.6201	0.618	-0.434
Mof_O 	O 	0.7796	0.65682	0.4314	-0.359
Mof_O 	O 	0.91405	0.29772	0.3239	-0.565
Mof_O 	O 	0.76238	0.31354	0.1528	-0.547
Mof_O 	O 	0.90242	0.77747	0.6117	-0.423
Mof_N 	N 	0.9302	0.8391	0.5813	-0.076
Mof_C 	C 	0.8373	0.536	0.4419	0.95
Mof_C 	C 	0.7681	0.5215	0.3094	-1.012
Mof_H 	H 	0.729	0.557	0.255	0.417
Mof_C 	C 	0.765	0.4545	0.255	0.885
Mof_H 	H 	0.719	0.446	0.158	-0.221
Mof_C 	C 	0.8315	0.4009	0.3291	-1.135
Mof_C 	C 	0.8999	0.4158	0.4617	2.096
Mof_H 	H 	0.927	0.381	0.501	-0.91
Mof_C 	C 	0.9019	0.4824	0.516	-1.958
Mof_H 	H 	0.932	0.493	0.596	0.861
Mof_C 	C 	0.8453	0.61	0.5018	0.041
Mof_C 	C 	0.8358	0.3321	0.264	0.773
Mof_C 	C 	0.904	0.9032	0.6048	0.163
Mof_H 	H 	0.856	0.9	0.63	-0.005
Mof_C 	C 	0.9322	0.9669	0.5756	-0.225
Mof_H 	H 	0.91	0.009	0.588	0.134
Mof_C 	C 	0.9861	0.9655	0.5187	0.246
Mof_C 	C 	0.0113	0.8978	0.4974	-0.297
Mof_H 	H 	0.049	0.889	0.461	0.117
Mof_C 	C 	0.984	0.835	0.5285	0.174
Mof_H 	H 	0.005	0.781	0.523	0.016
Mof_O 	O 	0.41561	0.1201	0.618	-0.39
Mof_O 	O 	0.2796	0.15682	0.4314	-0.249
Mof_O 	O 	0.41405	0.79772	0.3239	-0.695
Mof_O 	O 	0.26238	0.81354	0.1528	-0.687
Mof_O 	O 	0.40242	0.27747	0.6117	-0.434
Mof_N 	N 	0.4302	0.3391	0.5813	-0.043
Mof_C 	C 	0.3373	0.036	0.4419	2.256
Mof_C 	C 	0.2681	0.0215	0.3094	-2.254
Mof_H 	H 	0.229	0.057	0.255	0.861
Mof_C 	C 	0.265	0.9545	0.255	1.995
Mof_H 	H 	0.219	0.946	0.158	-0.588
Mof_C 	C 	0.3315	0.9009	0.3291	-2.514
Mof_C 	C 	0.3999	0.9158	0.4617	4.849
Mof_H 	H 	0.427	0.881	0.501	-2.194
Mof_C 	C 	0.4019	0.9824	0.516	-4.467
Mof_H 	H 	0.432	0.993	0.596	1.871
Mof_C 	C 	0.3453	0.11	0.5018	-0.428
Mof_C 	C 	0.3358	0.8321	0.264	1.283
Mof_C 	C 	0.404	0.4032	0.6048	0.057
Mof_H 	H 	0.356	0.4	0.63	0.031
Mof_C 	C 	0.4322	0.4669	0.5756	-0.098
Mof_H 	H 	0.41	0.509	0.588	0.076
Mof_C 	C 	0.4861	0.4655	0.5187	0.042
Mof_C 	C 	0.5113	0.3978	0.4974	-0.092
Mof_H 	H 	0.549	0.389	0.461	0.072
Mof_C 	C 	0.484	0.335	0.5285	0.036
Mof_H 	H 	0.505	0.281	0.523	0.095
Mof_O 	O 	0.08439	0.6201	0.882	-0.371
Mof_O 	O 	0.2204	0.65682	0.0686	-0.316
Mof_O 	O 	0.08595	0.29772	0.1761	-0.662
Mof_O 	O 	0.23762	0.31354	0.3472	-0.636
Mof_O 	O 	0.09758	0.77747	0.8883	-0.449
Mof_N 	N 	0.0698	0.8391	0.9187	-0.022
Mof_C 	C 	0.1627	0.536	0.0581	1.853
Mof_C 	C 	0.2319	0.5215	0.1906	-1.894
Mof_H 	H 	0.271	0.557	0.245	0.731
Mof_C 	C 	0.235	0.4545	0.245	1.692
Mof_H 	H 	0.281	0.446	0.342	-0.468
Mof_C 	C 	0.1685	0.4009	0.1709	-2.1
Mof_C 	C 	0.1001	0.4158	0.0383	4.041
Mof_H 	H 	0.073	0.381	0.999	-1.822
Mof_C 	C 	0.0981	0.4824	0.984	-3.721
Mof_H 	H 	0.068	0.493	0.904	1.606
Mof_C 	C 	0.1547	0.61	0.9982	-0.264
Mof_C 	C 	0.1642	0.3321	0.236	1.144
Mof_C 	C 	0.096	0.9032	0.8952	-0.03
Mof_H 	H 	0.144	0.9	0.87	0.018
Mof_C 	C 	0.0678	0.9669	0.9244	0.127
Mof_H 	H 	0.09	0.009	0.912	-0.054
Mof_C 	C 	0.0139	0.9655	0.9813	-0.122
Mof_C 	C 	0.9887	0.8978	0.0026	-0.028
Mof_H 	H 	0.951	0.889	0.039	0.039
Mof_C 	C 	0.016	0.835	0.9715	0.008
Mof_H 	H 	0.995	0.781	0.977	0.11
Mof_O 	O 	0.58439	0.1201	0.882	-0.09
Mof_O 	O 	0.7204	0.15682	0.0686	0.064
Mof_O 	O 	0.58595	0.79772	0.1761	-0.951
Mof_O 	O 	0.73762	0.81354	0.3472	-0.944
Mof_O 	O 	0.59758	0.27747	0.8883	-0.438
Mof_N 	N 	0.5698	0.3391	0.9187	-0.036
Mof_C 	C 	0.6627	0.036	0.0581	5.313
Mof_C 	C 	0.7319	0.0215	0.1906	-5.076
Mof_H 	H 	0.771	0.057	0.245	1.889
Mof_C 	C 	0.735	0.9545	0.245	4.528
Mof_H 	H 	0.781	0.946	0.342	-1.338
Mof_C 	C 	0.6685	0.9009	0.1709	-5.494
Mof_C 	C 	0.6001	0.9158	0.0383	10.874
Mof_H 	H 	0.573	0.881	0.999	-4.955
Mof_C 	C 	0.5981	0.9824	0.984	-10.034
Mof_H 	H 	0.568	0.993	0.904	4.267
Mof_C 	C 	0.6547	0.11	0.9982	-1.643
Mof_C 	C 	0.6642	0.8321	0.236	2.414
Mof_C 	C 	0.596	0.4032	0.8952	0.041
Mof_H 	H 	0.644	0.4	0.87	0.019
Mof_C 	C 	0.5678	0.4669	0.9244	-0.096
Mof_H 	H 	0.59	0.509	0.912	0.074
Mof_C 	C 	0.5139	0.4655	0.9813	0.02
Mof_C 	C 	0.4887	0.3978	0.0026	-0.036
Mof_H 	H 	0.451	0.389	0.039	0.068
Mof_C 	C 	0.516	0.335	0.9715	-0.007
Mof_H 	H 	0.495	0.281	0.977	0.154
Mof_Mg	Mg	1.87521e-17	0.30224	0.25	1.472
Mof_Mg	Mg	0.5	0.80224	0.25	1.474
Mof_Mg	Mg	3.75042e-17	0.69776	0.75	1.475
Mof_Mg	Mg	0.5	0.19776	0.75	1.474
Mof_Mg	Mg	0.25	0.25	0.5	1.48
Mof_Mg	Mg	0.75	0.25	-0	1.477
Mof_Mg	Mg	0.75	0.75	0.5	1.48
Mof_Mg	Mg	0.25	0.75	-0	1.471
_end
