data_functionalizedCrystal
_audit_creation_method	'EQeq! by Chris Wilmer'
_symmetry_space_group_name_H-M	'P1'
_symmetry_Int_Tables_number	1
_symmetry_cell_setting	triclinic
loop_
_symmetry_equiv_pos_as_xyz
  x,y,z
_cell_length_a	19.202
_cell_length_b	21.012
_cell_length_c	6.277
_cell_angle_alpha	90
_cell_angle_beta	101.011
_cell_angle_gamma	90
loop_
_atom_site_label
_atom_site_type_symbol
_atom_site_fract_x
_atom_site_fract_y
_atom_site_fract_z
_atom_site_charge
Mof_N 	N 	0.5942	0.9453	0.0712	-0.305
Mof_H 	H 	0.6022	0.9274	0.9478	0.121
Mof_H 	H 	0.6309	0.9712	0.122	0.093
Mof_N 	N 	0.6576	0.8055	0.4341	-0.291
Mof_H 	H 	0.6203	0.7796	0.3901	0.079
Mof_H 	H 	0.6514	0.8243	0.558	0.082
Mof_C 	C 	0.5911	0.8954	0.2298	-0.034
Mof_H 	H 	0.5503	0.8684	0.179	0.001
Mof_H 	H 	0.5852	0.9145	0.3659	0.001
Mof_C 	C 	0.6576	0.8555	0.267	-0.048
Mof_H 	H 	0.6625	0.8354	0.1314	-0.016
Mof_H 	H 	0.6984	0.8829	0.3117	0.01
Mof_N 	N 	0.8441	0.8051	0.0694	-0.319
Mof_H 	H 	0.881	0.7791	0.1185	0.084
Mof_H 	H 	0.8517	0.823	0.9455	0.119
Mof_N 	N 	0.9073	0.9444	0.436	-0.263
Mof_H 	H 	0.9011	0.9259	0.5603	0.096
Mof_H 	H 	0.8699	0.9701	0.3909	0.097
Mof_C 	C 	0.8424	0.8549	0.2281	-0.012
Mof_H 	H 	0.8358	0.8357	0.3634	-0.016
Mof_H 	H 	0.8021	0.8824	0.1774	-0.006
Mof_C 	C 	0.9082	0.894	0.2693	-0.073
Mof_H 	H 	0.9143	0.9139	0.1345	0.017
Mof_H 	H 	0.9487	0.8664	0.317	0.033
Mof_N 	N 	0.0942	0.4453	0.0712	-0.312
Mof_H 	H 	0.1022	0.4274	0.9478	0.112
Mof_H 	H 	0.1309	0.4712	0.122	0.079
Mof_N 	N 	0.1576	0.3055	0.4341	-0.287
Mof_H 	H 	0.1203	0.2796	0.3901	0.073
Mof_H 	H 	0.1514	0.3243	0.558	0.077
Mof_C 	C 	0.0911	0.3954	0.2298	-0.025
Mof_H 	H 	0.0503	0.3684	0.179	-0.016
Mof_H 	H 	0.0852	0.4145	0.3659	-0.016
Mof_C 	C 	0.1576	0.3555	0.267	-0.054
Mof_H 	H 	0.1625	0.3354	0.1314	-0.016
Mof_H 	H 	0.1984	0.3829	0.3117	0.008
Mof_N 	N 	0.3441	0.3051	0.0694	-0.315
Mof_H 	H 	0.381	0.2791	0.1185	0.077
Mof_H 	H 	0.3517	0.323	0.9455	0.113
Mof_N 	N 	0.4073	0.4444	0.436	-0.288
Mof_H 	H 	0.4011	0.4259	0.5603	0.079
Mof_H 	H 	0.3699	0.4701	0.3909	0.078
Mof_C 	C 	0.3424	0.3549	0.2281	-0.025
Mof_H 	H 	0.3358	0.3357	0.3634	-0.015
Mof_H 	H 	0.3021	0.3824	0.1774	-0.007
Mof_C 	C 	0.4082	0.394	0.2693	-0.054
Mof_H 	H 	0.4143	0.4139	0.1345	-0.016
Mof_H 	H 	0.4487	0.3664	0.317	0.007
Mof_N 	N 	0.4058	0.9453	0.4288	-0.28
Mof_H 	H 	0.3978	0.9274	0.5522	0.09
Mof_H 	H 	0.3691	0.9712	0.378	0.095
Mof_N 	N 	0.3424	0.8055	0.0659	-0.314
Mof_H 	H 	0.3797	0.7796	0.1099	0.077
Mof_H 	H 	0.3486	0.8243	0.942	0.115
Mof_C 	C 	0.4089	0.8954	0.2702	-0.037
Mof_H 	H 	0.4497	0.8684	0.321	0.007
Mof_H 	H 	0.4148	0.9145	0.1341	-0.007
Mof_C 	C 	0.3424	0.8555	0.233	-0.046
Mof_H 	H 	0.3375	0.8354	0.3686	-0.007
Mof_H 	H 	0.3016	0.8829	0.1883	0.005
Mof_N 	N 	0.1559	0.8051	0.4306	-0.288
Mof_H 	H 	0.119	0.7791	0.3815	0.073
Mof_H 	H 	0.1483	0.823	0.5545	0.08
Mof_N 	N 	0.0927	0.9444	0.064	-0.298
Mof_H 	H 	0.0989	0.9259	0.9397	0.119
Mof_H 	H 	0.1301	0.9701	0.1091	0.093
Mof_C 	C 	0.1576	0.8549	0.2719	-0.031
Mof_H 	H 	0.1642	0.8357	0.1366	-0.022
Mof_H 	H 	0.1979	0.8824	0.3226	0.005
Mof_C 	C 	0.0918	0.894	0.2307	-0.051
Mof_H 	H 	0.0857	0.9139	0.3655	0.006
Mof_H 	H 	0.0513	0.8664	0.183	-0.003
Mof_N 	N 	0.9058	0.4453	0.4288	-0.275
Mof_H 	H 	0.8978	0.4274	0.5522	0.087
Mof_H 	H 	0.8691	0.4712	0.378	0.081
Mof_N 	N 	0.8424	0.3055	0.0659	-0.317
Mof_H 	H 	0.8797	0.2796	0.1099	0.083
Mof_H 	H 	0.8486	0.3243	0.942	0.116
Mof_C 	C 	0.9089	0.3954	0.2702	-0.048
Mof_H 	H 	0.9497	0.3684	0.321	0.021
Mof_H 	H 	0.9148	0.4145	0.1341	-0.004
Mof_C 	C 	0.8424	0.3555	0.233	-0.037
Mof_H 	H 	0.8375	0.3354	0.3686	-0.009
Mof_H 	H 	0.8016	0.3829	0.1883	-0.002
Mof_N 	N 	0.6559	0.3051	0.4306	-0.29
Mof_H 	H 	0.619	0.2791	0.3815	0.078
Mof_H 	H 	0.6483	0.323	0.5545	0.08
Mof_N 	N 	0.5927	0.4444	0.064	-0.313
Mof_H 	H 	0.5989	0.4259	0.9397	0.112
Mof_H 	H 	0.6301	0.4701	0.1091	0.077
Mof_C 	C 	0.6576	0.3549	0.2719	-0.028
Mof_H 	H 	0.6642	0.3357	0.1366	-0.023
Mof_H 	H 	0.6979	0.3824	0.3226	-0.001
Mof_C 	C 	0.5918	0.394	0.2307	-0.052
Mof_H 	H 	0.5857	0.4139	0.3655	-0.007
Mof_H 	H 	0.5513	0.3664	0.183	0.001
Mof_N 	N 	0.4058	0.0547	0.9288	-0.237
Mof_H 	H 	0.3978	0.0726	0.0522	0.033
Mof_H 	H 	0.3691	0.0288	0.878	0.073
Mof_N 	N 	0.3424	0.1945	0.5659	-0.287
Mof_H 	H 	0.3797	0.2204	0.6099	0.083
Mof_H 	H 	0.3486	0.1757	0.442	0.07
Mof_C 	C 	0.4089	0.1046	0.7702	-0.038
Mof_H 	H 	0.4497	0.1316	0.821	0.014
Mof_H 	H 	0.4148	0.0855	0.6341	-0.013
Mof_C 	C 	0.3424	0.1445	0.733	-0.051
Mof_H 	H 	0.3375	0.1646	0.8686	0.008
Mof_H 	H 	0.3016	0.1171	0.6883	0.007
Mof_N 	N 	0.1559	0.1949	0.9306	-0.243
Mof_H 	H 	0.119	0.2209	0.8815	0.079
Mof_H 	H 	0.1483	0.177	0.0545	0.033
Mof_N 	N 	0.0927	0.0556	0.564	-0.276
Mof_H 	H 	0.0989	0.0741	0.4397	0.066
Mof_H 	H 	0.1301	0.0299	0.6091	0.073
Mof_C 	C 	0.1576	0.1451	0.7719	-0.028
Mof_H 	H 	0.1642	0.1643	0.6366	-0.017
Mof_H 	H 	0.1979	0.1176	0.8226	0.007
Mof_C 	C 	0.0918	0.106	0.7307	-0.059
Mof_H 	H 	0.0857	0.0861	0.8655	0.008
Mof_H 	H 	0.0513	0.1336	0.683	0.005
Mof_N 	N 	0.9058	0.5547	0.9288	-0.231
Mof_H 	H 	0.8978	0.5726	0.0522	0.044
Mof_H 	H 	0.8691	0.5288	0.878	0.087
Mof_N 	N 	0.8424	0.6945	0.5659	-0.291
Mof_H 	H 	0.8797	0.7204	0.6099	0.09
Mof_H 	H 	0.8486	0.6757	0.442	0.075
Mof_C 	C 	0.9089	0.6046	0.7702	-0.047
Mof_H 	H 	0.9497	0.6316	0.821	0.031
Mof_H 	H 	0.9148	0.5855	0.6341	0.004
Mof_C 	C 	0.8424	0.6445	0.733	-0.043
Mof_H 	H 	0.8375	0.6646	0.8686	0.007
Mof_H 	H 	0.8016	0.6171	0.6883	0.008
Mof_N 	N 	0.6559	0.6949	0.9306	-0.246
Mof_H 	H 	0.619	0.7209	0.8815	0.084
Mof_H 	H 	0.6483	0.677	0.0545	0.037
Mof_N 	N 	0.5927	0.5556	0.564	-0.286
Mof_H 	H 	0.5989	0.5741	0.4397	0.07
Mof_H 	H 	0.6301	0.5299	0.6091	0.083
Mof_C 	C 	0.6576	0.6451	0.7719	-0.026
Mof_H 	H 	0.6642	0.6643	0.6366	-0.016
Mof_H 	H 	0.6979	0.6176	0.8226	0.01
Mof_C 	C 	0.5918	0.606	0.7307	-0.058
Mof_H 	H 	0.5857	0.5861	0.8655	0.009
Mof_H 	H 	0.5513	0.6336	0.683	0.012
Mof_N 	N 	0.5942	0.0547	0.5712	-0.28
Mof_H 	H 	0.6022	0.0726	0.4478	0.068
Mof_H 	H 	0.6309	0.0288	0.622	0.073
Mof_N 	N 	0.6576	0.1945	0.9341	-0.245
Mof_H 	H 	0.6203	0.2204	0.8901	0.084
Mof_H 	H 	0.6514	0.1757	0.058	0.035
Mof_C 	C 	0.5911	0.1046	0.7298	-0.044
Mof_H 	H 	0.5503	0.1316	0.679	0.008
Mof_H 	H 	0.5852	0.0855	0.8659	0.005
Mof_C 	C 	0.6576	0.1445	0.767	-0.043
Mof_H 	H 	0.6625	0.1646	0.6314	-0.011
Mof_H 	H 	0.6984	0.1171	0.8117	0.012
Mof_N 	N 	0.8441	0.1949	0.5694	-0.292
Mof_H 	H 	0.881	0.2209	0.6185	0.09
Mof_H 	H 	0.8517	0.177	0.4455	0.075
Mof_N 	N 	0.9073	0.0556	0.936	-0.222
Mof_H 	H 	0.9011	0.0741	0.0603	0.04
Mof_H 	H 	0.8699	0.0299	0.8909	0.076
Mof_C 	C 	0.8424	0.1451	0.7281	-0.018
Mof_H 	H 	0.8358	0.1643	0.8634	-0.001
Mof_H 	H 	0.8021	0.1176	0.6774	-0.003
Mof_C 	C 	0.9082	0.106	0.7693	-0.072
Mof_H 	H 	0.9143	0.0861	0.6345	0.011
Mof_H 	H 	0.9487	0.1336	0.817	0.04
Mof_N 	N 	0.0942	0.5547	0.5712	-0.285
Mof_H 	H 	0.1022	0.5726	0.4478	0.07
Mof_H 	H 	0.1309	0.5288	0.622	0.085
Mof_N 	N 	0.1576	0.6945	0.9341	-0.243
Mof_H 	H 	0.1203	0.7204	0.8901	0.08
Mof_H 	H 	0.1514	0.6757	0.058	0.034
Mof_C 	C 	0.0911	0.6046	0.7298	-0.033
Mof_H 	H 	0.0503	0.6316	0.679	-0.005
Mof_H 	H 	0.0852	0.5855	0.8659	0.001
Mof_C 	C 	0.1576	0.6445	0.767	-0.051
Mof_H 	H 	0.1625	0.6646	0.6314	-0.009
Mof_H 	H 	0.1984	0.6171	0.8117	0.017
Mof_N 	N 	0.3441	0.6949	0.5694	-0.288
Mof_H 	H 	0.381	0.7209	0.6185	0.083
Mof_H 	H 	0.3517	0.677	0.4455	0.071
Mof_N 	N 	0.4073	0.5556	0.936	-0.243
Mof_H 	H 	0.4011	0.5741	0.0603	0.036
Mof_H 	H 	0.3699	0.5299	0.8909	0.084
Mof_C 	C 	0.3424	0.6451	0.7281	-0.033
Mof_H 	H 	0.3358	0.6643	0.8634	0.002
Mof_H 	H 	0.3021	0.6176	0.6774	0.004
Mof_C 	C 	0.4082	0.606	0.7693	-0.05
Mof_H 	H 	0.4143	0.5861	0.6345	-0.009
Mof_H 	H 	0.4487	0.6336	0.817	0.017
Mof_Ag	Ag	0.5	0	-0	0.242
Mof_Ag	Ag	-0	0.5	-0	0.247
Mof_Ag	Ag	0.5	0	0.5	0.344
Mof_Ag	Ag	7.29875e-34	0.5	0.5	0.345
Mof_Ag	Ag	0.75	0.75	0.5	0.405
Mof_Ag	Ag	0.25	0.75	-0	0.302
Mof_Ag	Ag	0.25	0.25	0.5	0.399
Mof_Ag	Ag	0.75	0.25	-0	0.301
Mof_Ag	Ag	0.75	0.75	-0	0.297
Mof_Ag	Ag	0.25	0.75	0.5	0.393
Mof_Ag	Ag	0.25	0.25	-0	0.29
Mof_Ag	Ag	0.75	0.25	0.5	0.394
Mof_Ag	Ag	7.29875e-34	0	0.5	0.295
Mof_Ag	Ag	0.5	0.5	0.5	0.398
Mof_Ag	Ag	-0	0	-0	0.195
Mof_Ag	Ag	0.5	0.5	-0	0.297
_end
