data_functionalizedCrystal
_audit_creation_method	'EQeq! by Chris Wilmer'
_symmetry_space_group_name_H-M	'P1'
_symmetry_Int_Tables_number	1
_symmetry_cell_setting	triclinic
loop_
_symmetry_equiv_pos_as_xyz
  x,y,z
_cell_length_a	15.229
_cell_length_b	15.229
_cell_length_c	15.852
_cell_angle_alpha	90
_cell_angle_beta	90
_cell_angle_gamma	120
loop_
_atom_site_label
_atom_site_type_symbol
_atom_site_fract_x
_atom_site_fract_y
_atom_site_fract_z
_atom_site_charge
Mof_Er	Er	0.33333	0.66666	0.75	1.837
Mof_Er	Er	0.66667	0.33334	0.75	1.837
Mof_Er	Er	0.66667	0.33334	0.25	1.827
Mof_Er	Er	0.33333	0.66666	0.25	1.827
Mof_Mn	Mn	0.5	0	-0	0.701
Mof_Mn	Mn	0.5	0.5	-0	0.782
Mof_Mn	Mn	-0	0.5	-0	0.701
Mof_Mn	Mn	0.5	0	0.5	0.841
Mof_Mn	Mn	-2.80303e-17	0.5	0.5	0.841
Mof_Mn	Mn	0.5	0.5	0.5	0.925
Mof_H 	H 	0.7086	0.9417	0.8433	0.084
Mof_H 	H 	0.2331	0.2914	0.8433	0.061
Mof_H 	H 	0.0583	0.7669	0.8433	0.057
Mof_H 	H 	0.2914	0.0583	0.8433	0.051
Mof_H 	H 	0.7669	0.7086	0.8433	0.073
Mof_H 	H 	0.9417	0.2331	0.8433	0.078
Mof_H 	H 	0.7669	0.0583	0.6567	0.042
Mof_H 	H 	0.9417	0.7086	0.6567	0.069
Mof_H 	H 	0.2914	0.2331	0.6567	0.045
Mof_H 	H 	0.2331	0.9417	0.6567	0.063
Mof_H 	H 	0.0583	0.2914	0.6567	0.035
Mof_H 	H 	0.7086	0.7669	0.6567	0.058
Mof_H 	H 	0.2914	0.0583	0.1567	0.022
Mof_H 	H 	0.7669	0.7086	0.1567	0.045
Mof_H 	H 	0.9417	0.2331	0.1567	0.05
Mof_H 	H 	0.7086	0.9417	0.1567	0.056
Mof_H 	H 	0.2331	0.2914	0.1567	0.031
Mof_H 	H 	0.0583	0.7669	0.1567	0.029
Mof_H 	H 	0.2331	0.9417	0.3433	0.061
Mof_H 	H 	0.0583	0.2914	0.3433	0.033
Mof_H 	H 	0.7086	0.7669	0.3433	0.055
Mof_H 	H 	0.7669	0.0583	0.3433	0.039
Mof_H 	H 	0.9417	0.7086	0.3433	0.067
Mof_H 	H 	0.2914	0.2331	0.3433	0.042
Mof_H 	H 	0.7978	0.8989	0.75	0.06
Mof_H 	H 	0.1011	0.2022	0.75	0.024
Mof_H 	H 	0.1011	0.8989	0.75	0.041
Mof_H 	H 	0.2022	0.1011	0.75	0.024
Mof_H 	H 	0.8989	0.7978	0.75	0.059
Mof_H 	H 	0.8989	0.1011	0.75	0.041
Mof_H 	H 	0.2022	0.1011	0.25	0.02
Mof_H 	H 	0.8989	0.7978	0.25	0.057
Mof_H 	H 	0.8989	0.1011	0.25	0.038
Mof_H 	H 	0.7978	0.8989	0.25	0.057
Mof_H 	H 	0.1011	0.2022	0.25	0.02
Mof_H 	H 	0.1011	0.8989	0.25	0.038
Mof_C 	C 	0.5049	0.8581	0.8591	0.344
Mof_C 	C 	0.5712	0.8375	0.8029	-0.003
Mof_C 	C 	0.6743	0.8892	0.8049	-0.029
Mof_C 	C 	0.3532	0.4951	0.8591	0.35
Mof_C 	C 	0.2663	0.4288	0.8029	-0.018
Mof_C 	C 	0.2149	0.3257	0.8049	-0.034
Mof_C 	C 	0.1419	0.6468	0.8591	0.348
Mof_C 	C 	0.1625	0.7337	0.8029	-0.017
Mof_C 	C 	0.1108	0.7851	0.8049	-0.033
Mof_C 	C 	0.4951	0.1419	0.8591	0.347
Mof_C 	C 	0.4288	0.1625	0.8029	-0.022
Mof_C 	C 	0.3257	0.1108	0.8049	-0.035
Mof_C 	C 	0.6468	0.5049	0.8591	0.351
Mof_C 	C 	0.7337	0.5712	0.8029	-0.01
Mof_C 	C 	0.7851	0.6743	0.8049	-0.028
Mof_C 	C 	0.8581	0.3532	0.8591	0.344
Mof_C 	C 	0.8375	0.2663	0.8029	-0.006
Mof_C 	C 	0.8892	0.2149	0.8049	-0.033
Mof_C 	C 	0.6468	0.1419	0.6409	0.358
Mof_C 	C 	0.7337	0.1625	0.6971	-0.029
Mof_C 	C 	0.7851	0.1108	0.6951	-0.03
Mof_C 	C 	0.8581	0.5049	0.6409	0.354
Mof_C 	C 	0.8375	0.5712	0.6971	-0.015
Mof_C 	C 	0.8892	0.6743	0.6951	-0.027
Mof_C 	C 	0.4951	0.3532	0.6409	0.36
Mof_C 	C 	0.4288	0.2663	0.6971	-0.031
Mof_C 	C 	0.3257	0.2149	0.6951	-0.031
Mof_C 	C 	0.3532	0.8581	0.6409	0.354
Mof_C 	C 	0.2663	0.8375	0.6971	-0.019
Mof_C 	C 	0.2149	0.8892	0.6951	-0.031
Mof_C 	C 	0.1419	0.4951	0.6409	0.357
Mof_C 	C 	0.1625	0.4288	0.6971	-0.034
Mof_C 	C 	0.1108	0.3257	0.6951	-0.032
Mof_C 	C 	0.5049	0.6468	0.6409	0.361
Mof_C 	C 	0.5712	0.7337	0.6971	-0.023
Mof_C 	C 	0.6743	0.7851	0.6951	-0.025
Mof_C 	C 	0.4951	0.1419	0.1409	0.352
Mof_C 	C 	0.4288	0.1625	0.1971	-0.044
Mof_C 	C 	0.3257	0.1108	0.1951	-0.026
Mof_C 	C 	0.6468	0.5049	0.1409	0.356
Mof_C 	C 	0.7337	0.5712	0.1971	-0.033
Mof_C 	C 	0.7851	0.6743	0.1951	-0.019
Mof_C 	C 	0.8581	0.3532	0.1409	0.349
Mof_C 	C 	0.8375	0.2663	0.1971	-0.028
Mof_C 	C 	0.8892	0.2149	0.1951	-0.024
Mof_C 	C 	0.5049	0.8581	0.1409	0.35
Mof_C 	C 	0.5712	0.8375	0.1971	-0.025
Mof_C 	C 	0.6743	0.8892	0.1951	-0.02
Mof_C 	C 	0.3532	0.4951	0.1409	0.355
Mof_C 	C 	0.2663	0.4288	0.1971	-0.041
Mof_C 	C 	0.2149	0.3257	0.1951	-0.025
Mof_C 	C 	0.1419	0.6468	0.1409	0.353
Mof_C 	C 	0.1625	0.7337	0.1971	-0.039
Mof_C 	C 	0.1108	0.7851	0.1951	-0.024
Mof_C 	C 	0.3532	0.8581	0.3591	0.355
Mof_C 	C 	0.2663	0.8375	0.3029	-0.024
Mof_C 	C 	0.2149	0.8892	0.3049	-0.024
Mof_C 	C 	0.1419	0.4951	0.3591	0.358
Mof_C 	C 	0.1625	0.4288	0.3029	-0.04
Mof_C 	C 	0.1108	0.3257	0.3049	-0.025
Mof_C 	C 	0.5049	0.6468	0.3591	0.362
Mof_C 	C 	0.5712	0.7337	0.3029	-0.028
Mof_C 	C 	0.6743	0.7851	0.3049	-0.018
Mof_C 	C 	0.6468	0.1419	0.3591	0.359
Mof_C 	C 	0.7337	0.1625	0.3029	-0.035
Mof_C 	C 	0.7851	0.1108	0.3049	-0.023
Mof_C 	C 	0.8581	0.5049	0.3591	0.355
Mof_C 	C 	0.8375	0.5712	0.3029	-0.021
Mof_C 	C 	0.8892	0.6743	0.3049	-0.02
Mof_C 	C 	0.4951	0.3532	0.3591	0.361
Mof_C 	C 	0.4288	0.2663	0.3029	-0.037
Mof_C 	C 	0.3257	0.2149	0.3049	-0.024
Mof_C 	C 	0.7273	0.86365	0.75	-0.024
Mof_C 	C 	0.13635	0.2727	0.75	-0.04
Mof_C 	C 	0.13635	0.86365	0.75	-0.03
Mof_C 	C 	0.2727	0.13635	0.75	-0.04
Mof_C 	C 	0.86365	0.7273	0.75	-0.024
Mof_C 	C 	0.86365	0.13635	0.75	-0.03
Mof_C 	C 	0.2727	0.13635	0.25	-0.057
Mof_C 	C 	0.86365	0.7273	0.25	-0.04
Mof_C 	C 	0.86365	0.13635	0.25	-0.046
Mof_C 	C 	0.7273	0.86365	0.25	-0.04
Mof_C 	C 	0.13635	0.2727	0.25	-0.057
Mof_C 	C 	0.13635	0.86365	0.25	-0.047
Mof_N 	N 	0.519	0.7595	0.75	-0.188
Mof_N 	N 	0.2405	0.481	0.75	-0.188
Mof_N 	N 	0.2405	0.7595	0.75	-0.189
Mof_N 	N 	0.481	0.2405	0.75	-0.188
Mof_N 	N 	0.7595	0.519	0.75	-0.188
Mof_N 	N 	0.7595	0.2405	0.75	-0.189
Mof_N 	N 	0.481	0.2405	0.25	-0.185
Mof_N 	N 	0.7595	0.519	0.25	-0.185
Mof_N 	N 	0.7595	0.2405	0.25	-0.186
Mof_N 	N 	0.519	0.7595	0.25	-0.185
Mof_N 	N 	0.2405	0.481	0.25	-0.185
Mof_N 	N 	0.2405	0.7595	0.25	-0.186
Mof_O 	O 	0.5493	0.9341	0.9068	-0.271
Mof_O 	O 	0.4108	0.7987	0.85467	-0.389
Mof_O 	O 	0.3848	0.4507	0.9068	-0.311
Mof_O 	O 	0.3879	0.5892	0.85467	-0.4
Mof_O 	O 	0.0659	0.6152	0.9068	-0.315
Mof_O 	O 	0.2013	0.6121	0.85467	-0.403
Mof_O 	O 	0.4507	0.0659	0.9068	-0.317
Mof_O 	O 	0.5892	0.2013	0.85467	-0.403
Mof_O 	O 	0.6152	0.5493	0.9068	-0.307
Mof_O 	O 	0.6121	0.4108	0.85467	-0.399
Mof_O 	O 	0.9341	0.3848	0.9068	-0.273
Mof_O 	O 	0.7987	0.3879	0.85467	-0.389
Mof_O 	O 	0.6152	0.0659	0.5932	-0.376
Mof_O 	O 	0.6121	0.2013	0.64533	-0.429
Mof_O 	O 	0.9341	0.5493	0.5932	-0.332
Mof_O 	O 	0.7987	0.4108	0.64533	-0.414
Mof_O 	O 	0.4507	0.3848	0.5932	-0.373
Mof_O 	O 	0.5892	0.3879	0.64533	-0.426
Mof_O 	O 	0.3848	0.9341	0.5932	-0.334
Mof_O 	O 	0.3879	0.7987	0.64533	-0.414
Mof_O 	O 	0.0659	0.4507	0.5932	-0.379
Mof_O 	O 	0.2013	0.5892	0.64533	-0.429
Mof_O 	O 	0.5493	0.6152	0.5932	-0.368
Mof_O 	O 	0.4108	0.6121	0.64533	-0.425
Mof_O 	O 	0.4507	0.0659	0.0932	-0.385
Mof_O 	O 	0.5892	0.2013	0.14533	-0.437
Mof_O 	O 	0.6152	0.5493	0.0932	-0.375
Mof_O 	O 	0.6121	0.4108	0.14533	-0.433
Mof_O 	O 	0.9341	0.3848	0.0932	-0.34
Mof_O 	O 	0.7987	0.3879	0.14533	-0.423
Mof_O 	O 	0.5493	0.9341	0.0932	-0.337
Mof_O 	O 	0.4108	0.7987	0.14533	-0.422
Mof_O 	O 	0.3848	0.4507	0.0932	-0.38
Mof_O 	O 	0.3879	0.5892	0.14533	-0.434
Mof_O 	O 	0.0659	0.6152	0.0932	-0.383
Mof_O 	O 	0.2013	0.6121	0.14533	-0.437
Mof_O 	O 	0.3848	0.9341	0.4068	-0.334
Mof_O 	O 	0.3879	0.7987	0.35467	-0.413
Mof_O 	O 	0.0659	0.4507	0.4068	-0.379
Mof_O 	O 	0.2013	0.5892	0.35467	-0.428
Mof_O 	O 	0.5493	0.6152	0.4068	-0.369
Mof_O 	O 	0.4108	0.6121	0.35467	-0.424
Mof_O 	O 	0.6152	0.0659	0.4068	-0.377
Mof_O 	O 	0.6121	0.2013	0.35467	-0.428
Mof_O 	O 	0.9341	0.5493	0.4068	-0.332
Mof_O 	O 	0.7987	0.4108	0.35467	-0.413
Mof_O 	O 	0.4507	0.3848	0.4068	-0.374
Mof_O 	O 	0.5892	0.3879	0.35467	-0.425
_end
