data_functionalizedCrystal
_audit_creation_method	'EQeq! by Chris Wilmer'
_symmetry_space_group_name_H-M	'P1'
_symmetry_Int_Tables_number	1
_symmetry_cell_setting	triclinic
loop_
_symmetry_equiv_pos_as_xyz
  x,y,z
_cell_length_a	10.744
_cell_length_b	11.971
_cell_length_c	13.304
_cell_angle_alpha	91.512
_cell_angle_beta	111.418
_cell_angle_gamma	106.334
loop_
_atom_site_label
_atom_site_type_symbol
_atom_site_fract_x
_atom_site_fract_y
_atom_site_fract_z
_atom_site_charge
Mof_N 	N 	0.7577	0.0551	0.6793	-0.079
Mof_O 	O 	0.5962	0.8699	0.9779	-0.376
Mof_O 	O 	0.8189	0.9824	0.0259	-0.448
Mof_N 	N 	0.1963	0.9297	0.6699	-0.148
Mof_N 	N 	0.3469	0.9305	0.8351	-0.212
Mof_N 	N 	0.7638	0.2976	0.9282	-0.162
Mof_N 	N 	0.8752	0.8282	0.9183	-0.176
Mof_C 	C 	0.9634	0.8828	0.522	0.183
Mof_C 	C 	0.7181	0.8893	0.9815	0.386
Mof_C 	C 	0.7479	0.7947	0.9233	-0.036
Mof_C 	C 	0.253	0.9769	0.7757	0.204
Mof_H 	H 	0.2283	0.0357	0.8034	-0.064
Mof_N 	N 	0.9127	0.0614	0.8454	-0.199
Mof_N 	N 	0.6113	0.1336	0.9319	-0.238
Mof_C 	C 	0.8545	0.5742	0.7333	0.293
Mof_C 	C 	0.7799	0.0199	0.7774	-0.029
Mof_H 	H 	0.7092	0.9715	0.7956	0.072
Mof_C 	C 	0.0939	0.9644	0.5821	0.079
Mof_C 	C 	0.9913	0.4091	0.9295	-0.26
Mof_H 	H 	0.9831	0.3463	0.8823	0.149
Mof_C 	C 	0.8838	0.4032	0.966	0.175
Mof_C 	C 	0.7223	0.2211	0.9896	0.256
Mof_H 	H 	0.7675	0.2293	0.065	-0.093
Mof_C 	C 	0.1105	0.5074	0.9625	0.381
Mof_C 	C 	0.6253	0.0244	0.5869	-0.157
Mof_C 	C 	0.2585	0.845	0.6616	-0.004
Mof_H 	H 	0.2408	0.7969	0.5986	0.023
Mof_C 	C 	0.549	0.9084	0.5485	0.384
Mof_C 	C 	0.8842	0.1286	0.6862	-0.064
Mof_H 	H 	0.9018	0.1691	0.6316	0.065
Mof_C 	C 	0.4199	0.8849	0.4583	-0.337
Mof_H 	H 	0.3648	0.8074	0.4291	0.152
Mof_O 	O 	0.9797	0.6103	0.7443	-0.252
Mof_C 	C 	0.98	0.1313	0.7881	0.106
Mof_H 	H 	0.0754	0.1736	0.8147	-0.035
Mof_C 	C 	0.6508	0.6865	0.8745	-0.049
Mof_H 	H 	0.5646	0.6634	0.8817	0.049
Mof_C 	C 	0.87	0.9211	0.4383	-0.082
Mof_H 	H 	0.782	0.8689	0.3955	0.069
Mof_C 	C 	0.8109	0.6473	0.804	-0.08
Mof_C 	C 	0.9064	0.7561	0.8588	0.059
Mof_H 	H 	0.9941	0.7796	0.8542	0.04
Mof_C 	C 	0.5782	0.157	0.8258	0.006
Mof_H 	H 	0.5022	0.1104	0.7654	0.013
Mof_C 	C 	0.6728	0.2576	0.8227	0.004
Mof_H 	H 	0.6751	0.2922	0.7613	0.046
Mof_C 	C 	0.3496	0.8463	0.763	0.003
Mof_H 	H 	0.4061	0.7977	0.7821	0.023
Mof_O 	O 	0.7579	0.484	0.6742	-0.253
Mof_C 	C 	0.2259	0.5116	0.9255	-0.95
Mof_H 	H 	0.2279	0.4331	0.9116	0.315
Mof_H 	H 	0.3141	0.5575	0.9812	0.34
Mof_H 	H 	0.2105	0.5467	0.8598	0.317
Mof_C 	C 	0.6855	0.6122	0.8135	-0.001
Mof_H 	H 	0.6219	0.5384	0.7795	0.037
Mof_C 	C 	0.5943	0.805	0.5949	-0.895
Mof_H 	H 	0.6942	0.8232	0.6163	0.307
Mof_H 	H 	0.5468	0.7365	0.5404	0.293
Mof_H 	H 	0.5707	0.79	0.6573	0.298
Mof_C 	C 	0.9165	0.7561	0.5414	-0.696
Mof_H 	H 	0.9784	0.7162	0.5321	0.256
Mof_H 	H 	0.8222	0.7174	0.4902	0.232
Mof_H 	H 	0.9193	0.7548	0.6143	0.252
Mof_N 	N 	0.2423	0.9449	0.3207	-0.176
Mof_O 	O 	0.4038	0.1301	0.0221	-0.417
Mof_O 	O 	0.1811	0.0176	0.9741	-0.37
Mof_N 	N 	0.8037	0.0703	0.3301	-0.097
Mof_N 	N 	0.6531	0.0695	0.1649	-0.214
Mof_N 	N 	0.2362	0.7024	0.0718	-0.087
Mof_N 	N 	0.1248	0.1718	0.0817	-0.242
Mof_C 	C 	0.0366	0.1172	0.478	0.19
Mof_C 	C 	0.2819	0.1107	0.0185	0.222
Mof_C 	C 	0.2521	0.2053	0.0767	-0.031
Mof_C 	C 	0.747	0.0231	0.2243	-0.034
Mof_H 	H 	0.7717	0.9643	0.1966	0.084
Mof_N 	N 	0.0873	0.9386	0.1546	-0.225
Mof_N 	N 	0.3887	0.8664	0.0681	-0.192
Mof_C 	C 	0.1455	0.4258	0.2667	0.298
Mof_C 	C 	0.2201	0.9801	0.2226	0.237
Mof_H 	H 	0.2908	0.0285	0.2044	-0.105
Mof_C 	C 	0.9061	0.0356	0.4179	-0.034
Mof_C 	C 	0.0087	0.5909	0.0705	-0.119
Mof_H 	H 	0.0169	0.6537	0.1177	0.068
Mof_C 	C 	0.1162	0.5968	0.034	-0.135
Mof_C 	C 	0.2777	0.7789	0.0104	-0.054
Mof_H 	H 	0.2325	0.7707	0.935	0.085
Mof_C 	C 	0.8895	0.4926	0.0375	0.089
Mof_C 	C 	0.3747	0.9756	0.4131	0.209
Mof_C 	C 	0.7415	0.155	0.3384	-0.009
Mof_H 	H 	0.7592	0.2031	0.4014	0.037
Mof_C 	C 	0.451	0.0916	0.4515	-0.023
Mof_C 	C 	0.1158	0.8714	0.3138	0.058
Mof_H 	H 	0.0982	0.8309	0.3684	0.002
Mof_C 	C 	0.5801	0.1151	0.5417	-0.02
Mof_H 	H 	0.6352	0.1926	0.5709	0.05
Mof_O 	O 	0.0203	0.3897	0.2557	-0.29
Mof_C 	C 	0.02	0.8687	0.2119	-0.091
Mof_H 	H 	0.9246	0.8264	0.1853	0.072
Mof_C 	C 	0.3492	0.3135	0.1255	-0.086
Mof_H 	H 	0.4354	0.3366	0.1183	0.045
Mof_C 	C 	0.13	0.0789	0.5617	-0.285
Mof_H 	H 	0.218	0.1311	0.6045	0.118
Mof_C 	C 	0.1891	0.3527	0.196	-0.106
Mof_C 	C 	0.0936	0.2439	0.1412	0.038
Mof_H 	H 	0.0059	0.2204	0.1458	-0.008
Mof_C 	C 	0.4218	0.843	0.1742	0.012
Mof_H 	H 	0.4978	0.8896	0.2346	0.04
Mof_C 	C 	0.3272	0.7424	0.1773	-0.02
Mof_H 	H 	0.3249	0.7078	0.2387	0.049
Mof_C 	C 	0.6504	0.1537	0.237	0.005
Mof_H 	H 	0.5939	0.2023	0.2179	0.022
Mof_O 	O 	0.2421	0.516	0.3258	-0.266
Mof_C 	C 	0.7741	0.4884	0.0745	-0.568
Mof_H 	H 	0.7721	0.5669	0.0884	0.188
Mof_H 	H 	0.6859	0.4425	0.0188	0.171
Mof_H 	H 	0.7895	0.4533	0.1402	0.212
Mof_C 	C 	0.3145	0.3878	0.1865	0.002
Mof_H 	H 	0.3781	0.4616	0.2205	0.027
Mof_C 	C 	0.4057	0.195	0.4051	-0.465
Mof_H 	H 	0.3058	0.1768	0.3837	0.156
Mof_H 	H 	0.4532	0.2635	0.4596	0.168
Mof_H 	H 	0.4293	0.21	0.3427	0.167
Mof_C 	C 	0.0835	0.2439	0.4586	-0.71
Mof_H 	H 	0.0216	0.2838	0.4679	0.234
Mof_H 	H 	0.1778	0.2826	0.5098	0.233
Mof_H 	H 	0.0807	0.2452	0.3857	0.244
Mof_Co	Co	0.5	0	-0	1.085
Mof_Co	Co	-0	0	-0	1.07
_end
