data_functionalizedCrystal
_audit_creation_method	'EQeq! by Chris Wilmer'
_symmetry_space_group_name_H-M	'P1'
_symmetry_Int_Tables_number	1
_symmetry_cell_setting	triclinic
loop_
_symmetry_equiv_pos_as_xyz
  x,y,z
_cell_length_a	16.9751
_cell_length_b	10.9659
_cell_length_c	22.442
_cell_angle_alpha	90
_cell_angle_beta	109.714
_cell_angle_gamma	90
loop_
_atom_site_label
_atom_site_type_symbol
_atom_site_fract_x
_atom_site_fract_y
_atom_site_fract_z
_atom_site_charge
Mof_Zn	Zn	0.19942	0.0307	0.28337	1.196
Mof_Zn	Zn	0.072	0.07541	0.13554	1.175
Mof_O 	O 	0.2061	0.0469	0.37157	-0.494
Mof_O 	O 	0.3356	0.1099	0.38801	-0.328
Mof_O 	O 	0.1182	0.9374	0.5553	-0.432
Mof_O 	O 	0.1783	0.036	0.64348	-0.462
Mof_O 	O 	0.44023	0.256	0.68064	-0.54
Mof_O 	O 	0.47907	0.3056	0.5986	-0.512
Mof_O 	O 	0.07781	0.0256	0.22959	-0.731
Mof_C 	C 	0.2865	0.0993	0.47556	-0.14
Mof_C 	C 	0.2272	0.0481	0.49899	0.082
Mof_H 	H 	0.1811	0.0069	0.4719	0.014
Mof_C 	C 	0.2376	0.059	0.56267	-0.144
Mof_C 	C 	0.3052	0.1242	0.60272	0.09
Mof_H 	H 	0.3111	0.1325	0.6453	0.016
Mof_C 	C 	0.3634	0.1767	0.58013	-0.164
Mof_C 	C 	0.3533	0.1639	0.5162	0.091
Mof_H 	H 	0.3921	0.1993	0.5005	0.027
Mof_C 	C 	0.2763	0.086	0.4071	0.358
Mof_C 	C 	0.1742	0.0067	0.5884	0.344
Mof_C 	C 	0.433	0.2534	0.62332	0.444
Mof_C 	C 	0.2656	0.2795	0.26102	0.108
Mof_H 	H 	0.3092	0.283	0.2996	-0.015
Mof_C 	C 	0.179	0.3249	0.1719	0.106
Mof_H 	H 	0.1502	0.3673	0.135	-0.029
Mof_N 	N 	0.1591	0.2151	0.18397	-0.237
Mof_N 	N 	0.2161	0.1848	0.24158	-0.258
Mof_N 	N 	0.2457	0.3707	0.21846	-0.288
Mof_Zn	Zn	0.69942	0.5307	0.28337	1.197
Mof_Zn	Zn	0.572	0.57541	0.13554	1.191
Mof_O 	O 	0.7061	0.5469	0.37157	-0.485
Mof_O 	O 	0.8356	0.6099	0.38801	-0.311
Mof_O 	O 	0.6182	0.4374	0.5553	-0.404
Mof_O 	O 	0.6783	0.536	0.64348	-0.452
Mof_O 	O 	0.94023	0.756	0.68064	-0.5
Mof_O 	O 	0.97907	0.8056	0.5986	-0.464
Mof_O 	O 	0.57781	0.5256	0.22959	-0.703
Mof_C 	C 	0.7865	0.5993	0.47556	-0.121
Mof_C 	C 	0.7272	0.5481	0.49899	0.069
Mof_H 	H 	0.6811	0.5069	0.4719	0.026
Mof_C 	C 	0.7376	0.559	0.56267	-0.125
Mof_C 	C 	0.8052	0.6242	0.60272	0.077
Mof_H 	H 	0.8111	0.6325	0.6453	0.026
Mof_C 	C 	0.8634	0.6767	0.58013	-0.14
Mof_C 	C 	0.8533	0.6639	0.5162	0.077
Mof_H 	H 	0.8921	0.6993	0.5005	0.044
Mof_C 	C 	0.7763	0.586	0.4071	0.35
Mof_C 	C 	0.6742	0.5067	0.5884	0.336
Mof_C 	C 	0.933	0.7534	0.62332	0.432
Mof_C 	C 	0.7656	0.7795	0.26102	0.113
Mof_H 	H 	0.8092	0.783	0.2996	-0.009
Mof_C 	C 	0.679	0.8249	0.1719	0.113
Mof_H 	H 	0.6502	0.8673	0.135	-0.016
Mof_N 	N 	0.6591	0.7151	0.18397	-0.227
Mof_N 	N 	0.7161	0.6848	0.24158	-0.256
Mof_N 	N 	0.7457	0.8707	0.21846	-0.284
Mof_Zn	Zn	0.80058	0.0307	0.21663	1.197
Mof_Zn	Zn	0.928	0.07541	0.36446	1.208
Mof_O 	O 	0.7939	0.0469	0.12843	-0.479
Mof_O 	O 	0.6644	0.1099	0.11199	-0.325
Mof_O 	O 	0.8818	0.9374	0.9447	-0.384
Mof_O 	O 	0.8217	0.036	0.85652	-0.447
Mof_O 	O 	0.55977	0.256	0.81936	-0.54
Mof_O 	O 	0.52093	0.3056	0.9014	-0.513
Mof_O 	O 	0.92219	0.0256	0.27041	-0.666
Mof_C 	C 	0.7135	0.0993	0.02444	-0.127
Mof_C 	C 	0.7728	0.0481	0.00101	0.071
Mof_H 	H 	0.8189	0.0069	0.0281	0.032
Mof_C 	C 	0.7624	0.059	0.93733	-0.129
Mof_C 	C 	0.6948	0.1242	0.89728	0.081
Mof_H 	H 	0.6889	0.1325	0.8547	0.02
Mof_C 	C 	0.6366	0.1767	0.91987	-0.157
Mof_C 	C 	0.6467	0.1639	0.9838	0.079
Mof_H 	H 	0.6079	0.1993	0.9995	0.03
Mof_C 	C 	0.7237	0.086	0.0929	0.351
Mof_C 	C 	0.8258	0.0067	0.9116	0.335
Mof_C 	C 	0.567	0.2534	0.87668	0.441
Mof_C 	C 	0.7344	0.2795	0.23898	0.113
Mof_H 	H 	0.6908	0.283	0.2004	-0.016
Mof_C 	C 	0.821	0.3249	0.3281	0.116
Mof_H 	H 	0.8498	0.3673	0.365	-0.004
Mof_N 	N 	0.8409	0.2151	0.31603	-0.218
Mof_N 	N 	0.7839	0.1848	0.25842	-0.257
Mof_N 	N 	0.7543	0.3707	0.28154	-0.285
Mof_Zn	Zn	0.30058	0.5307	0.21663	1.196
Mof_Zn	Zn	0.428	0.57541	0.36446	1.191
Mof_O 	O 	0.2939	0.5469	0.12843	-0.489
Mof_O 	O 	0.1644	0.6099	0.11199	-0.341
Mof_O 	O 	0.3818	0.4374	0.9447	-0.409
Mof_O 	O 	0.3217	0.536	0.85652	-0.457
Mof_O 	O 	0.05977	0.756	0.81936	-0.569
Mof_O 	O 	0.02093	0.8056	0.9014	-0.558
Mof_O 	O 	0.42219	0.5256	0.27041	-0.703
Mof_C 	C 	0.2135	0.5993	0.02444	-0.144
Mof_C 	C 	0.2728	0.5481	0.00101	0.085
Mof_H 	H 	0.3189	0.5069	0.0281	0.019
Mof_C 	C 	0.2624	0.559	0.93733	-0.148
Mof_C 	C 	0.1948	0.6242	0.89728	0.093
Mof_H 	H 	0.1889	0.6325	0.8547	0.011
Mof_C 	C 	0.1366	0.6767	0.91987	-0.179
Mof_C 	C 	0.1467	0.6639	0.9838	0.09
Mof_H 	H 	0.1079	0.6993	0.9995	0.014
Mof_C 	C 	0.2237	0.586	0.0929	0.358
Mof_C 	C 	0.3258	0.5067	0.9116	0.34
Mof_C 	C 	0.067	0.7534	0.87668	0.45
Mof_C 	C 	0.2344	0.7795	0.23898	0.108
Mof_H 	H 	0.1908	0.783	0.2004	-0.021
Mof_C 	C 	0.321	0.8249	0.3281	0.109
Mof_H 	H 	0.3498	0.8673	0.365	-0.017
Mof_N 	N 	0.3409	0.7151	0.31603	-0.229
Mof_N 	N 	0.2839	0.6848	0.25842	-0.259
Mof_N 	N 	0.2543	0.8707	0.28154	-0.288
Mof_Zn	Zn	0.80058	0.9693	0.71663	1.198
Mof_Zn	Zn	0.928	0.92459	0.86446	1.207
Mof_O 	O 	0.7939	0.9531	0.62843	-0.479
Mof_O 	O 	0.6644	0.8901	0.61199	-0.326
Mof_O 	O 	0.8818	0.0626	0.4447	-0.38
Mof_O 	O 	0.8217	0.964	0.35652	-0.446
Mof_O 	O 	0.55977	0.744	0.31936	-0.54
Mof_O 	O 	0.52093	0.6944	0.4014	-0.512
Mof_O 	O 	0.92219	0.9744	0.77041	-0.666
Mof_C 	C 	0.7135	0.9007	0.52444	-0.129
Mof_C 	C 	0.7728	0.9519	0.50101	0.069
Mof_H 	H 	0.8189	0.9931	0.5281	0.033
Mof_C 	C 	0.7624	0.941	0.43733	-0.126
Mof_C 	C 	0.6948	0.8758	0.39728	0.081
Mof_H 	H 	0.6889	0.8675	0.3547	0.02
Mof_C 	C 	0.6366	0.8233	0.41987	-0.157
Mof_C 	C 	0.6467	0.8361	0.4838	0.083
Mof_H 	H 	0.6079	0.8007	0.4995	0.03
Mof_C 	C 	0.7237	0.914	0.5929	0.351
Mof_C 	C 	0.8258	0.9933	0.4116	0.333
Mof_C 	C 	0.567	0.7466	0.37668	0.442
Mof_C 	C 	0.7344	0.7205	0.73898	0.113
Mof_H 	H 	0.6908	0.717	0.7004	-0.016
Mof_C 	C 	0.821	0.6751	0.8281	0.116
Mof_H 	H 	0.8498	0.6327	0.865	-0.005
Mof_N 	N 	0.8409	0.7849	0.81603	-0.219
Mof_N 	N 	0.7839	0.8152	0.75842	-0.257
Mof_N 	N 	0.7543	0.6293	0.78154	-0.285
Mof_Zn	Zn	0.30058	0.4693	0.71663	1.196
Mof_Zn	Zn	0.428	0.42459	0.86446	1.19
Mof_O 	O 	0.2939	0.4531	0.62843	-0.49
Mof_O 	O 	0.1644	0.3901	0.61199	-0.342
Mof_O 	O 	0.3818	0.5626	0.4447	-0.407
Mof_O 	O 	0.3217	0.464	0.35652	-0.457
Mof_O 	O 	0.05977	0.244	0.31936	-0.569
Mof_O 	O 	0.02093	0.1944	0.4014	-0.558
Mof_O 	O 	0.42219	0.4744	0.77041	-0.703
Mof_C 	C 	0.2135	0.4007	0.52444	-0.147
Mof_C 	C 	0.2728	0.4519	0.50101	0.081
Mof_H 	H 	0.3189	0.4931	0.5281	0.02
Mof_C 	C 	0.2624	0.441	0.43733	-0.144
Mof_C 	C 	0.1948	0.3758	0.39728	0.093
Mof_H 	H 	0.1889	0.3675	0.3547	0.011
Mof_C 	C 	0.1366	0.3233	0.41987	-0.18
Mof_C 	C 	0.1467	0.3361	0.4838	0.095
Mof_H 	H 	0.1079	0.3007	0.4995	0.014
Mof_C 	C 	0.2237	0.414	0.5929	0.359
Mof_C 	C 	0.3258	0.4933	0.4116	0.339
Mof_C 	C 	0.067	0.2466	0.37668	0.45
Mof_C 	C 	0.2344	0.2205	0.73898	0.108
Mof_H 	H 	0.1908	0.217	0.7004	-0.021
Mof_C 	C 	0.321	0.1751	0.8281	0.109
Mof_H 	H 	0.3498	0.1327	0.865	-0.017
Mof_N 	N 	0.3409	0.2849	0.81603	-0.229
Mof_N 	N 	0.2839	0.3152	0.75842	-0.259
Mof_N 	N 	0.2543	0.1293	0.78154	-0.288
Mof_Zn	Zn	0.19942	0.9693	0.78337	1.195
Mof_Zn	Zn	0.072	0.92459	0.63554	1.174
Mof_O 	O 	0.2061	0.9531	0.87157	-0.495
Mof_O 	O 	0.3356	0.8901	0.88801	-0.329
Mof_O 	O 	0.1182	0.0626	0.0553	-0.432
Mof_O 	O 	0.1783	0.964	0.14348	-0.461
Mof_O 	O 	0.44023	0.744	0.18064	-0.54
Mof_O 	O 	0.47907	0.6944	0.0986	-0.512
Mof_O 	O 	0.07781	0.9744	0.72959	-0.731
Mof_C 	C 	0.2865	0.9007	0.97556	-0.145
Mof_C 	C 	0.2272	0.9519	0.99899	0.076
Mof_H 	H 	0.1811	0.9931	0.9719	0.015
Mof_C 	C 	0.2376	0.941	0.06267	-0.138
Mof_C 	C 	0.3052	0.8758	0.10272	0.089
Mof_H 	H 	0.3111	0.8675	0.1453	0.017
Mof_C 	C 	0.3634	0.8233	0.08013	-0.164
Mof_C 	C 	0.3533	0.8361	0.0162	0.097
Mof_H 	H 	0.3921	0.8007	0.0005	0.027
Mof_C 	C 	0.2763	0.914	0.9071	0.358
Mof_C 	C 	0.1742	0.9933	0.0884	0.345
Mof_C 	C 	0.433	0.7466	0.12332	0.444
Mof_C 	C 	0.2656	0.7205	0.76102	0.108
Mof_H 	H 	0.3092	0.717	0.7996	-0.015
Mof_C 	C 	0.179	0.6751	0.6719	0.106
Mof_H 	H 	0.1502	0.6327	0.635	-0.03
Mof_N 	N 	0.1591	0.7849	0.68397	-0.237
Mof_N 	N 	0.2161	0.8152	0.74158	-0.258
Mof_N 	N 	0.2457	0.6293	0.71846	-0.288
Mof_Zn	Zn	0.69942	0.4693	0.78337	1.197
Mof_Zn	Zn	0.572	0.42459	0.63554	1.191
Mof_O 	O 	0.7061	0.4531	0.87157	-0.485
Mof_O 	O 	0.8356	0.3901	0.88801	-0.312
Mof_O 	O 	0.6182	0.5626	0.0553	-0.402
Mof_O 	O 	0.6783	0.464	0.14348	-0.451
Mof_O 	O 	0.94023	0.244	0.18064	-0.499
Mof_O 	O 	0.97907	0.1944	0.0986	-0.464
Mof_O 	O 	0.57781	0.4744	0.72959	-0.703
Mof_C 	C 	0.7865	0.4007	0.97556	-0.125
Mof_C 	C 	0.7272	0.4519	0.99899	0.063
Mof_H 	H 	0.6811	0.4931	0.9719	0.027
Mof_C 	C 	0.7376	0.441	0.06267	-0.12
Mof_C 	C 	0.8052	0.3758	0.10272	0.076
Mof_H 	H 	0.8111	0.3675	0.1453	0.026
Mof_C 	C 	0.8634	0.3233	0.08013	-0.14
Mof_C 	C 	0.8533	0.3361	0.0162	0.081
Mof_H 	H 	0.8921	0.3007	0.0005	0.043
Mof_C 	C 	0.7763	0.414	0.9071	0.35
Mof_C 	C 	0.6742	0.4933	0.0884	0.335
Mof_C 	C 	0.933	0.2466	0.12332	0.432
Mof_C 	C 	0.7656	0.2205	0.76102	0.113
Mof_H 	H 	0.8092	0.217	0.7996	-0.009
Mof_C 	C 	0.679	0.1751	0.6719	0.113
Mof_H 	H 	0.6502	0.1327	0.635	-0.017
Mof_N 	N 	0.6591	0.2849	0.68397	-0.227
Mof_N 	N 	0.7161	0.3152	0.74158	-0.256
Mof_N 	N 	0.7457	0.1293	0.71846	-0.285
Mof_Zn	Zn	-1.44542e-17	0.13695	0.25	1.18
Mof_Zn	Zn	0.5	0.63695	0.25	1.207
Mof_Zn	Zn	5.78167e-17	0.86305	0.75	1.18
Mof_Zn	Zn	0.5	0.36305	0.75	1.207
_end
