data_functionalizedCrystal
_audit_creation_method	'EQeq! by Chris Wilmer'
_symmetry_space_group_name_H-M	'P1'
_symmetry_Int_Tables_number	1
_symmetry_cell_setting	triclinic
loop_
_symmetry_equiv_pos_as_xyz
  x,y,z
_cell_length_a	28.5893
_cell_length_b	41.9618
_cell_length_c	12.0642
_cell_angle_alpha	90
_cell_angle_beta	90
_cell_angle_gamma	90
loop_
_atom_site_label
_atom_site_type_symbol
_atom_site_fract_x
_atom_site_fract_y
_atom_site_fract_z
_atom_site_charge
Mof_Cd	Cd	0.25318	0.17596	0.26386	0.363
Mof_N 	N 	0.19192	0.20297	0.1727	-0.17
Mof_N 	N 	0.197	0.14527	0.3577	-0.166
Mof_O 	O 	0.25363	0.13621	0.126	-0.287
Mof_N 	N 	0.31102	0.14672	0.3593	-0.177
Mof_N 	N 	0.30996	0.20338	0.1605	-0.145
Mof_C 	C 	0.19272	0.23414	0.1619	0.111
Mof_C 	C 	0.15753	0.188	0.122	0.108
Mof_C 	C 	0.19802	0.11356	0.3596	0.097
Mof_C 	C 	0.16274	0.15896	0.4154	0.098
Mof_H 	H 	0.2377	0.1177	0.1532	0.148
Mof_H 	H 	0.2159	0.2454	0.1993	-0.014
Mof_C 	C 	0.16136	0.25123	0.0986	-0.192
Mof_C 	C 	0.12431	0.20314	0.0562	-0.186
Mof_H 	H 	0.1553	0.166	0.1307	-0.002
Mof_H 	H 	0.2215	0.1032	0.3202	-0.006
Mof_C 	C 	0.16573	0.09492	0.4175	-0.178
Mof_C 	C 	0.13029	0.14263	0.4767	-0.18
Mof_H 	H 	0.1607	0.1811	0.414	-0.004
Mof_H 	H 	0.164	0.2733	0.0944	0.093
Mof_C 	C 	0.12614	0.23599	0.0414	0.133
Mof_H 	H 	0.1009	0.1913	0.0222	0.094
Mof_H 	H 	0.1676	0.0728	0.4146	0.091
Mof_C 	C 	0.131	0.1094	0.479	0.122
Mof_H 	H 	0.1078	0.1537	0.5168	0.091
Mof_C 	C 	0.09223	0.25296	0.9705	-0.104
Mof_C 	C 	0.09638	0.09134	0.5445	-0.086
Mof_C 	C 	0.1002	0.28348	0.9337	0.064
Mof_C 	C 	0.05169	0.23883	0.9329	0.061
Mof_C 	C 	0.10532	0.06082	0.5832	0.043
Mof_C 	C 	0.05345	0.10416	0.5716	0.044
Mof_H 	H 	0.1269	0.2942	0.9572	0.004
Mof_C 	C 	0.06979	0.29855	0.8633	-0.188
Mof_C 	C 	0.02088	0.25407	0.8637	-0.182
Mof_H 	H 	0.045	0.2181	0.9554	0.006
Mof_H 	H 	0.1333	0.0509	0.5644	0.012
Mof_C 	C 	0.07352	0.04487	0.6489	-0.167
Mof_C 	C 	0.02131	0.08864	0.6359	-0.164
Mof_H 	H 	0.046	0.1243	0.5448	0.011
Mof_H 	H 	0.0764	0.3193	0.8412	0.102
Mof_C 	C 	0.02999	0.28412	0.8242	0.166
Mof_H 	H 	0.9933	0.2439	0.8432	0.09
Mof_H 	H 	0.0804	0.0244	0.6731	0.092
Mof_C 	C 	0.03162	0.05882	0.6793	0.148
Mof_H 	H 	0.9925	0.0981	0.6506	0.086
Mof_C 	C 	0.02086	0.35038	0.6648	-0.126
Mof_C 	C 	0.98092	0.99156	0.6636	-0.132
Mof_H 	H 	0.035	0.3393	0.6069	0.077
Mof_C 	C 	0.02091	0.38369	0.6644	-0.018
Mof_H 	H 	0.9681	0.0026	0.6041	0.079
Mof_C 	C 	0.98033	0.95873	0.6634	-0.02
Mof_H 	H 	0.0351	0.3946	0.6063	0.035
Mof_H 	H 	0.9666	0.9478	0.6047	0.041
Mof_C 	C 	0.03682	0.45328	0.7056	-0.005
Mof_C 	C 	0.95901	0.88903	0.7362	-0.005
Mof_H 	H 	0.062	0.4424	0.6749	0.029
Mof_C 	C 	0.03718	0.48614	0.7057	-0.138
Mof_H 	H 	0.931	0.8999	0.7263	0.034
Mof_C 	C 	0.95872	0.85647	0.7369	-0.141
Mof_H 	H 	0.0626	0.4969	0.6757	0.081
Mof_H 	H 	0.9306	0.8456	0.7285	0.085
Mof_C 	C 	0.96901	0.55469	0.8185	0.169
Mof_C 	C 	0.96869	0.7886	0.6796	0.139
Mof_C 	C 	0.94107	0.5774	0.7715	-0.193
Mof_C 	C 	0.96653	0.55044	0.9296	-0.196
Mof_C 	C 	0.96025	0.79848	0.5717	-0.159
Mof_C 	C 	0.94598	0.76174	0.7182	-0.159
Mof_H 	H 	0.9425	0.5809	0.6955	0.099
Mof_C 	C 	0.91078	0.59529	0.8354	0.075
Mof_C 	C 	0.93666	0.56883	0.9931	0.072
Mof_H 	H 	0.9851	0.535	0.9634	0.099
Mof_H 	H 	0.9753	0.8165	0.5446	0.084
Mof_C 	C 	0.92998	0.78206	0.5045	0.031
Mof_C 	C 	0.91551	0.74545	0.6502	0.035
Mof_H 	H 	0.9513	0.7547	0.7901	0.092
Mof_H 	H 	0.8919	0.6104	0.8011	-0
Mof_C 	C 	0.90782	0.59138	0.9467	-0.116
Mof_H 	H 	0.9361	0.5658	0.0694	0.005
Mof_H 	H 	0.9249	0.7891	0.4324	0.009
Mof_C 	C 	0.9068	0.75504	0.5431	-0.069
Mof_H 	H 	0.9004	0.7275	0.6775	0.014
Mof_C 	C 	0.87512	0.61062	0.0143	0.159
Mof_C 	C 	0.87381	0.73693	0.4706	0.087
Mof_C 	C 	0.83885	0.62682	0.9687	-0.211
Mof_C 	C 	0.87837	0.61367	0.1268	-0.21
Mof_C 	C 	0.8557	0.7504	0.3758	-0.188
Mof_C 	C 	0.8662	0.7053	0.4846	0.065
Mof_H 	H 	0.8343	0.6259	0.8925	0.102
Mof_C 	C 	0.80847	0.64466	0.0331	0.121
Mof_C 	C 	0.84614	0.63165	0.1855	0.121
Mof_H 	H 	0.9025	0.6035	0.1645	0.105
Mof_H 	H 	0.8649	0.7708	0.3547	0.088
Mof_C 	C 	0.824	0.7339	0.3124	0.051
Mof_C 	C 	0.8335	0.6902	0.4176	-0.133
Mof_H 	H 	0.8825	0.6939	0.5381	0.003
Mof_H 	H 	0.7848	0.6559	0.9974	-0.016
Mof_H 	H 	0.8498	0.6331	0.262	-0.007
Mof_H 	H 	0.8117	0.7435	0.2494	0.004
Mof_H 	H 	0.8282	0.6687	0.4305	0.082
Mof_C 	C 	0.8762	0.7354	0.3618	0.034
Mof_H 	H 	0.9004	0.7457	0.3248	0.021
Mof_C 	C 	0.8428	0.7185	0.3014	0.01
Mof_H 	H 	0.8458	0.7188	0.2246	0.018
Mof_C 	C 	0.805	0.7043	0.4551	0.185
Mof_H 	H 	0.7797	0.694	0.4875	-0.029
Mof_C 	C 	0.836	0.7198	0.5215	-0.23
Mof_H 	H 	0.8328	0.7192	0.5982	0.106
Mof_Cd	Cd	0.74682	0.17596	0.23614	0.362
Mof_N 	N 	0.80808	0.20297	0.3273	-0.171
Mof_N 	N 	0.803	0.14527	0.1423	-0.167
Mof_O 	O 	0.74637	0.13621	0.374	-0.288
Mof_N 	N 	0.68898	0.14672	0.1407	-0.178
Mof_N 	N 	0.69004	0.20338	0.3395	-0.146
Mof_C 	C 	0.80728	0.23414	0.3381	0.111
Mof_C 	C 	0.84247	0.188	0.378	0.109
Mof_C 	C 	0.80198	0.11356	0.1404	0.098
Mof_C 	C 	0.83726	0.15896	0.0846	0.099
Mof_H 	H 	0.7623	0.1177	0.3468	0.148
Mof_H 	H 	0.7841	0.2454	0.3007	-0.014
Mof_C 	C 	0.83864	0.25123	0.4014	-0.195
Mof_C 	C 	0.87569	0.20314	0.4438	-0.188
Mof_H 	H 	0.8447	0.166	0.3693	-0.003
Mof_H 	H 	0.7785	0.1032	0.1798	-0.006
Mof_C 	C 	0.83427	0.09492	0.0825	-0.18
Mof_C 	C 	0.86971	0.14263	0.0233	-0.181
Mof_H 	H 	0.8393	0.1811	0.086	-0.004
Mof_H 	H 	0.836	0.2733	0.4056	0.094
Mof_C 	C 	0.87386	0.23599	0.4586	0.137
Mof_H 	H 	0.8991	0.1913	0.4778	0.095
Mof_H 	H 	0.8324	0.0728	0.0854	0.091
Mof_C 	C 	0.869	0.1094	0.021	0.125
Mof_H 	H 	0.8922	0.1537	0.9832	0.092
Mof_C 	C 	0.90777	0.25296	0.5295	-0.111
Mof_C 	C 	0.90362	0.09134	0.9555	-0.093
Mof_C 	C 	0.8998	0.28348	0.5663	0.07
Mof_C 	C 	0.94831	0.23883	0.5671	0.072
Mof_C 	C 	0.89468	0.06082	0.9168	0.049
Mof_C 	C 	0.94655	0.10416	0.9284	0.056
Mof_H 	H 	0.8731	0.2942	0.5428	0.002
Mof_C 	C 	0.93021	0.29855	0.6367	-0.194
Mof_C 	C 	0.97912	0.25407	0.6363	-0.201
Mof_H 	H 	0.955	0.2181	0.5446	-0
Mof_H 	H 	0.8667	0.0509	0.9356	0.01
Mof_C 	C 	0.92648	0.04487	0.8511	-0.173
Mof_C 	C 	0.97869	0.08864	0.8641	-0.183
Mof_H 	H 	0.954	0.1243	0.9552	0.006
Mof_H 	H 	0.9236	0.3193	0.6588	0.104
Mof_C 	C 	0.97001	0.28412	0.6758	0.171
Mof_H 	H 	0.0067	0.2439	0.6568	0.101
Mof_H 	H 	0.9196	0.0244	0.8269	0.093
Mof_C 	C 	0.96838	0.05882	0.8207	0.153
Mof_H 	H 	0.0075	0.0981	0.8494	0.097
Mof_C 	C 	0.97914	0.35038	0.8352	-0.13
Mof_C 	C 	0.01908	0.99156	0.8364	-0.129
Mof_H 	H 	0.965	0.3393	0.8931	0.077
Mof_C 	C 	0.97909	0.38369	0.8356	-0.021
Mof_H 	H 	0.0319	0.0026	0.8959	0.079
Mof_C 	C 	0.01967	0.95873	0.8366	-0.017
Mof_H 	H 	0.9649	0.3946	0.8937	0.035
Mof_H 	H 	0.0334	0.9478	0.8953	0.041
Mof_C 	C 	0.96318	0.45328	0.7944	-0.008
Mof_C 	C 	0.04099	0.88903	0.7638	-0.002
Mof_H 	H 	0.938	0.4424	0.8251	0.029
Mof_C 	C 	0.96282	0.48614	0.7943	-0.141
Mof_H 	H 	0.069	0.8999	0.7737	0.034
Mof_C 	C 	0.04128	0.85647	0.7631	-0.138
Mof_H 	H 	0.9374	0.4969	0.8243	0.082
Mof_H 	H 	0.0694	0.8456	0.7715	0.084
Mof_C 	C 	0.03099	0.55469	0.6815	0.174
Mof_C 	C 	0.03131	0.7886	0.8204	0.144
Mof_C 	C 	0.05893	0.5774	0.7285	-0.196
Mof_C 	C 	0.03347	0.55044	0.5704	-0.2
Mof_C 	C 	0.03975	0.79848	0.9283	-0.162
Mof_C 	C 	0.05402	0.76174	0.7818	-0.161
Mof_H 	H 	0.0575	0.5809	0.8045	0.102
Mof_C 	C 	0.08922	0.59529	0.6646	0.078
Mof_C 	C 	0.06334	0.56883	0.5069	0.076
Mof_H 	H 	0.0149	0.535	0.5366	0.103
Mof_H 	H 	0.0247	0.8165	0.9554	0.086
Mof_C 	C 	0.07002	0.78206	0.9955	0.034
Mof_C 	C 	0.08449	0.74545	0.8498	0.038
Mof_H 	H 	0.0487	0.7547	0.7099	0.094
Mof_H 	H 	0.1081	0.6104	0.6989	-0.001
Mof_C 	C 	0.09218	0.59138	0.5533	-0.118
Mof_H 	H 	0.0639	0.5658	0.4306	0.005
Mof_H 	H 	0.0751	0.7891	0.0676	0.008
Mof_C 	C 	0.0932	0.75504	0.9569	-0.071
Mof_H 	H 	0.0996	0.7275	0.8225	0.014
Mof_C 	C 	0.12488	0.61062	0.4857	0.16
Mof_C 	C 	0.12619	0.73693	0.0294	0.088
Mof_C 	C 	0.16115	0.62682	0.5313	-0.211
Mof_C 	C 	0.12163	0.61367	0.3732	-0.211
Mof_C 	C 	0.1443	0.7504	0.1242	-0.19
Mof_C 	C 	0.1338	0.7053	0.0154	0.067
Mof_H 	H 	0.1657	0.6259	0.6075	0.103
Mof_C 	C 	0.19153	0.64466	0.4669	0.121
Mof_C 	C 	0.15386	0.63165	0.3145	0.121
Mof_H 	H 	0.0975	0.6035	0.3355	0.105
Mof_H 	H 	0.1351	0.7708	0.1453	0.089
Mof_C 	C 	0.176	0.7339	0.1876	0.051
Mof_C 	C 	0.1665	0.6902	0.0824	-0.135
Mof_H 	H 	0.1175	0.6939	0.9619	0.003
Mof_H 	H 	0.2152	0.6559	0.5026	-0.016
Mof_H 	H 	0.1502	0.6331	0.238	-0.007
Mof_H 	H 	0.1883	0.7435	0.2506	0.004
Mof_H 	H 	0.1718	0.6687	0.0695	0.083
Mof_C 	C 	0.1238	0.7354	0.1382	0.035
Mof_H 	H 	0.0996	0.7457	0.1752	0.021
Mof_C 	C 	0.1572	0.7185	0.1986	0.01
Mof_H 	H 	0.1542	0.7188	0.2754	0.018
Mof_C 	C 	0.195	0.7043	0.0449	0.188
Mof_H 	H 	0.2203	0.694	0.0125	-0.03
Mof_C 	C 	0.164	0.7198	0.9785	-0.233
Mof_H 	H 	0.1672	0.7192	0.9018	0.107
Mof_Cd	Cd	0.75318	0.67596	0.23614	0.362
Mof_N 	N 	0.69192	0.70297	0.3273	-0.171
Mof_N 	N 	0.697	0.64527	0.1423	-0.167
Mof_O 	O 	0.75363	0.63621	0.374	-0.288
Mof_N 	N 	0.81102	0.64672	0.1407	-0.178
Mof_N 	N 	0.80996	0.70338	0.3395	-0.146
Mof_C 	C 	0.69272	0.73414	0.3381	0.11
Mof_C 	C 	0.65753	0.688	0.378	0.109
Mof_C 	C 	0.69802	0.61356	0.1404	0.097
Mof_C 	C 	0.66274	0.65896	0.0846	0.098
Mof_H 	H 	0.7377	0.6177	0.3468	0.148
Mof_H 	H 	0.7159	0.7454	0.3007	-0.014
Mof_C 	C 	0.66136	0.75123	0.4014	-0.194
Mof_C 	C 	0.62431	0.70314	0.4438	-0.187
Mof_H 	H 	0.6553	0.666	0.3693	-0.002
Mof_H 	H 	0.7215	0.6032	0.1798	-0.006
Mof_C 	C 	0.66573	0.59492	0.0825	-0.179
Mof_C 	C 	0.63029	0.64263	0.0233	-0.181
Mof_H 	H 	0.6607	0.6811	0.086	-0.004
Mof_H 	H 	0.664	0.7733	0.4056	0.094
Mof_C 	C 	0.62614	0.73599	0.4586	0.135
Mof_H 	H 	0.6009	0.6913	0.4778	0.095
Mof_H 	H 	0.6676	0.5728	0.0854	0.091
Mof_C 	C 	0.631	0.6094	0.021	0.124
Mof_H 	H 	0.6078	0.6537	0.9832	0.091
Mof_C 	C 	0.59223	0.75296	0.5295	-0.109
Mof_C 	C 	0.59638	0.59134	0.9555	-0.09
Mof_C 	C 	0.6002	0.78348	0.5663	0.068
Mof_C 	C 	0.55169	0.73883	0.5671	0.067
Mof_C 	C 	0.60532	0.56082	0.9168	0.047
Mof_C 	C 	0.55345	0.60416	0.9284	0.051
Mof_H 	H 	0.6269	0.7942	0.5428	0.002
Mof_C 	C 	0.56979	0.79855	0.6367	-0.192
Mof_C 	C 	0.52088	0.75407	0.6363	-0.193
Mof_H 	H 	0.545	0.7181	0.5446	0.003
Mof_H 	H 	0.6333	0.5509	0.9356	0.011
Mof_C 	C 	0.57352	0.54487	0.8511	-0.171
Mof_C 	C 	0.52131	0.58864	0.8641	-0.175
Mof_H 	H 	0.546	0.6243	0.9552	0.008
Mof_H 	H 	0.5764	0.8193	0.6588	0.103
Mof_C 	C 	0.52999	0.78412	0.6758	0.17
Mof_H 	H 	0.4933	0.7439	0.6568	0.096
Mof_H 	H 	0.5804	0.5244	0.8269	0.093
Mof_C 	C 	0.53162	0.55882	0.8207	0.152
Mof_H 	H 	0.4925	0.5981	0.8494	0.092
Mof_C 	C 	0.52086	0.85038	0.8352	-0.126
Mof_C 	C 	0.48092	0.49156	0.8364	-0.128
Mof_H 	H 	0.535	0.8393	0.8931	0.076
Mof_C 	C 	0.52091	0.88369	0.8356	-0.019
Mof_H 	H 	0.4681	0.5026	0.8959	0.078
Mof_C 	C 	0.48033	0.45873	0.8366	-0.018
Mof_H 	H 	0.5351	0.8946	0.8937	0.035
Mof_H 	H 	0.4666	0.4478	0.8953	0.041
Mof_C 	C 	0.53682	0.95328	0.7944	-0.006
Mof_C 	C 	0.45901	0.38903	0.7638	-0.002
Mof_H 	H 	0.562	0.9424	0.8251	0.029
Mof_C 	C 	0.53718	0.98614	0.7943	-0.138
Mof_H 	H 	0.431	0.3999	0.7737	0.034
Mof_C 	C 	0.45872	0.35647	0.7631	-0.137
Mof_H 	H 	0.5626	0.9969	0.8243	0.081
Mof_H 	H 	0.4306	0.3456	0.7715	0.084
Mof_C 	C 	0.46901	0.05469	0.6815	0.173
Mof_C 	C 	0.46869	0.2886	0.8204	0.143
Mof_C 	C 	0.44107	0.0774	0.7285	-0.196
Mof_C 	C 	0.46653	0.05044	0.5704	-0.199
Mof_C 	C 	0.46025	0.29848	0.9283	-0.161
Mof_C 	C 	0.44598	0.26174	0.7818	-0.161
Mof_H 	H 	0.4425	0.0809	0.8045	0.101
Mof_C 	C 	0.41078	0.09529	0.6646	0.078
Mof_C 	C 	0.43666	0.06883	0.5069	0.075
Mof_H 	H 	0.4851	0.035	0.5366	0.102
Mof_H 	H 	0.4753	0.3165	0.9554	0.085
Mof_C 	C 	0.42998	0.28206	0.9955	0.033
Mof_C 	C 	0.41551	0.24545	0.8498	0.037
Mof_H 	H 	0.4513	0.2547	0.7099	0.093
Mof_H 	H 	0.3919	0.1104	0.6989	-0.001
Mof_C 	C 	0.40782	0.09138	0.5533	-0.118
Mof_H 	H 	0.4361	0.0658	0.4306	0.005
Mof_H 	H 	0.4249	0.2891	0.0676	0.008
Mof_C 	C 	0.4068	0.25504	0.9569	-0.071
Mof_H 	H 	0.4004	0.2275	0.8225	0.014
Mof_C 	C 	0.37512	0.11062	0.4857	0.16
Mof_C 	C 	0.37381	0.23693	0.0294	0.088
Mof_C 	C 	0.33885	0.12682	0.5313	-0.211
Mof_C 	C 	0.37837	0.11367	0.3732	-0.21
Mof_C 	C 	0.3557	0.2504	0.1242	-0.189
Mof_C 	C 	0.3662	0.2053	0.0154	0.067
Mof_H 	H 	0.3343	0.1259	0.6075	0.102
Mof_C 	C 	0.30847	0.14466	0.4669	0.121
Mof_C 	C 	0.34614	0.13165	0.3145	0.121
Mof_H 	H 	0.4025	0.1035	0.3355	0.105
Mof_H 	H 	0.3649	0.2708	0.1453	0.089
Mof_C 	C 	0.324	0.2339	0.1876	0.051
Mof_C 	C 	0.3335	0.1902	0.0824	-0.134
Mof_H 	H 	0.3825	0.1939	0.9619	0.003
Mof_H 	H 	0.2848	0.1559	0.5026	-0.016
Mof_H 	H 	0.3498	0.1331	0.238	-0.007
Mof_H 	H 	0.3117	0.2435	0.2506	0.004
Mof_H 	H 	0.3282	0.1687	0.0695	0.082
Mof_C 	C 	0.3762	0.2354	0.1382	0.035
Mof_H 	H 	0.4004	0.2457	0.1752	0.021
Mof_C 	C 	0.3428	0.2185	0.1986	0.01
Mof_H 	H 	0.3458	0.2188	0.2754	0.018
Mof_C 	C 	0.305	0.2043	0.0449	0.187
Mof_H 	H 	0.2797	0.194	0.0125	-0.029
Mof_C 	C 	0.336	0.2198	0.9785	-0.232
Mof_H 	H 	0.3328	0.2192	0.9018	0.107
Mof_Cd	Cd	0.24682	0.67596	0.26386	0.362
Mof_N 	N 	0.30808	0.70297	0.1727	-0.171
Mof_N 	N 	0.303	0.64527	0.3577	-0.167
Mof_O 	O 	0.24637	0.63621	0.126	-0.288
Mof_N 	N 	0.18898	0.64672	0.3593	-0.178
Mof_N 	N 	0.19004	0.70338	0.1605	-0.146
Mof_C 	C 	0.30728	0.73414	0.1619	0.111
Mof_C 	C 	0.34247	0.688	0.122	0.109
Mof_C 	C 	0.30198	0.61356	0.3596	0.097
Mof_C 	C 	0.33726	0.65896	0.4154	0.098
Mof_H 	H 	0.2623	0.6177	0.1532	0.148
Mof_H 	H 	0.2841	0.7454	0.1993	-0.014
Mof_C 	C 	0.33864	0.75123	0.0986	-0.194
Mof_C 	C 	0.37569	0.70314	0.0562	-0.187
Mof_H 	H 	0.3447	0.666	0.1307	-0.002
Mof_H 	H 	0.2785	0.6032	0.3202	-0.006
Mof_C 	C 	0.33427	0.59492	0.4175	-0.179
Mof_C 	C 	0.36971	0.64263	0.4767	-0.181
Mof_H 	H 	0.3393	0.6811	0.414	-0.004
Mof_H 	H 	0.336	0.7733	0.0944	0.094
Mof_C 	C 	0.37386	0.73599	0.0414	0.136
Mof_H 	H 	0.3991	0.6913	0.0222	0.095
Mof_H 	H 	0.3324	0.5728	0.4146	0.091
Mof_C 	C 	0.369	0.6094	0.479	0.124
Mof_H 	H 	0.3922	0.6537	0.5168	0.092
Mof_C 	C 	0.40777	0.75296	0.9705	-0.109
Mof_C 	C 	0.40362	0.59134	0.5445	-0.09
Mof_C 	C 	0.3998	0.78348	0.9337	0.068
Mof_C 	C 	0.44831	0.73883	0.9329	0.068
Mof_C 	C 	0.39468	0.56082	0.5832	0.047
Mof_C 	C 	0.44655	0.60416	0.5716	0.051
Mof_H 	H 	0.3731	0.7942	0.9572	0.002
Mof_C 	C 	0.43021	0.79855	0.8633	-0.192
Mof_C 	C 	0.47912	0.75407	0.8637	-0.193
Mof_H 	H 	0.455	0.7181	0.9554	0.002
Mof_H 	H 	0.3667	0.5509	0.5644	0.011
Mof_C 	C 	0.42648	0.54487	0.6489	-0.171
Mof_C 	C 	0.47869	0.58864	0.6359	-0.175
Mof_H 	H 	0.454	0.6243	0.5448	0.008
Mof_H 	H 	0.4236	0.8193	0.8412	0.103
Mof_C 	C 	0.47001	0.78412	0.8242	0.17
Mof_H 	H 	0.5067	0.7439	0.8432	0.096
Mof_H 	H 	0.4196	0.5244	0.6731	0.093
Mof_C 	C 	0.46838	0.55882	0.6793	0.152
Mof_H 	H 	0.5075	0.5981	0.6506	0.092
Mof_C 	C 	0.47914	0.85038	0.6648	-0.126
Mof_C 	C 	0.51908	0.49156	0.6636	-0.128
Mof_H 	H 	0.465	0.8393	0.6069	0.076
Mof_C 	C 	0.47909	0.88369	0.6644	-0.019
Mof_H 	H 	0.5319	0.5026	0.6041	0.078
Mof_C 	C 	0.51967	0.45873	0.6634	-0.018
Mof_H 	H 	0.4649	0.8946	0.6063	0.035
Mof_H 	H 	0.5334	0.4478	0.6047	0.041
Mof_C 	C 	0.46318	0.95328	0.7056	-0.005
Mof_C 	C 	0.54099	0.38903	0.7362	-0.002
Mof_H 	H 	0.438	0.9424	0.6749	0.029
Mof_C 	C 	0.46282	0.98614	0.7057	-0.138
Mof_H 	H 	0.569	0.3999	0.7263	0.034
Mof_C 	C 	0.54128	0.35647	0.7369	-0.137
Mof_H 	H 	0.4374	0.9969	0.6757	0.081
Mof_H 	H 	0.5694	0.3456	0.7285	0.084
Mof_C 	C 	0.53099	0.05469	0.8185	0.173
Mof_C 	C 	0.53131	0.2886	0.6796	0.143
Mof_C 	C 	0.55893	0.0774	0.7715	-0.196
Mof_C 	C 	0.53347	0.05044	0.9296	-0.199
Mof_C 	C 	0.53975	0.29848	0.5717	-0.161
Mof_C 	C 	0.55402	0.26174	0.7182	-0.161
Mof_H 	H 	0.5575	0.0809	0.6955	0.101
Mof_C 	C 	0.58922	0.09529	0.8354	0.078
Mof_C 	C 	0.56334	0.06883	0.9931	0.075
Mof_H 	H 	0.5149	0.035	0.9634	0.102
Mof_H 	H 	0.5247	0.3165	0.5446	0.085
Mof_C 	C 	0.57002	0.28206	0.5045	0.033
Mof_C 	C 	0.58449	0.24545	0.6502	0.038
Mof_H 	H 	0.5487	0.2547	0.7901	0.093
Mof_H 	H 	0.6081	0.1104	0.8011	-0.001
Mof_C 	C 	0.59218	0.09138	0.9467	-0.118
Mof_H 	H 	0.5639	0.0658	0.0694	0.005
Mof_H 	H 	0.5751	0.2891	0.4324	0.008
Mof_C 	C 	0.5932	0.25504	0.5431	-0.071
Mof_H 	H 	0.5996	0.2275	0.6775	0.014
Mof_C 	C 	0.62488	0.11062	0.0143	0.16
Mof_C 	C 	0.62619	0.23693	0.4706	0.088
Mof_C 	C 	0.66115	0.12682	0.9687	-0.211
Mof_C 	C 	0.62163	0.11367	0.1268	-0.211
Mof_C 	C 	0.6443	0.2504	0.3758	-0.189
Mof_C 	C 	0.6338	0.2053	0.4846	0.065
Mof_H 	H 	0.6657	0.1259	0.8925	0.103
Mof_C 	C 	0.69153	0.14466	0.0331	0.121
Mof_C 	C 	0.65386	0.13165	0.1855	0.121
Mof_H 	H 	0.5975	0.1035	0.1645	0.105
Mof_H 	H 	0.6351	0.2708	0.3547	0.089
Mof_C 	C 	0.676	0.2339	0.3124	0.051
Mof_C 	C 	0.6665	0.1902	0.4176	-0.132
Mof_H 	H 	0.6175	0.1939	0.5381	0.004
Mof_H 	H 	0.7152	0.1559	0.9974	-0.017
Mof_H 	H 	0.6502	0.1331	0.262	-0.007
Mof_H 	H 	0.6883	0.2435	0.2494	0.004
Mof_H 	H 	0.6718	0.1687	0.4305	0.082
Mof_C 	C 	0.6238	0.2354	0.3618	0.034
Mof_H 	H 	0.5996	0.2457	0.3248	0.021
Mof_C 	C 	0.6572	0.2185	0.3014	0.01
Mof_H 	H 	0.6542	0.2188	0.2246	0.018
Mof_C 	C 	0.695	0.2043	0.4551	0.185
Mof_H 	H 	0.7203	0.194	0.4875	-0.029
Mof_C 	C 	0.664	0.2198	0.5215	-0.23
Mof_H 	H 	0.6672	0.2192	0.5982	0.106
Mof_N 	N 	1.18664e-33	0.29967	0.75	-0.185
Mof_C 	C 	1.18664e-33	0.33371	0.75	0.122
Mof_C 	C 	8.1634e-33	0.40082	0.75	-0.007
Mof_C 	C 	-5.79013e-33	0.43605	0.75	-0.016
Mof_C 	C 	-5.79013e-33	0.50353	0.75	0.134
Mof_N 	N 	1.18664e-33	0.53675	0.75	-0.186
Mof_N 	N 	0.5	0.79967	0.75	-0.187
Mof_C 	C 	0.5	0.83371	0.75	0.118
Mof_C 	C 	0.5	0.90082	0.75	-0.009
Mof_C 	C 	0.5	0.93605	0.75	-0.019
Mof_C 	C 	0.5	0.00353	0.75	0.13
Mof_N 	N 	0.5	0.03675	0.75	-0.188
Mof_N 	N 	-2.30175e-33	0.04254	0.75	-0.176
Mof_C 	C 	1.18664e-33	0.00815	0.75	0.124
Mof_C 	C 	-5.79013e-33	0.94213	0.75	0
Mof_C 	C 	8.1634e-33	0.90638	0.75	-0.015
Mof_C 	C 	-5.79013e-33	0.83944	0.75	0.131
Mof_N 	N 	8.1634e-33	0.80585	0.75	-0.175
Mof_N 	N 	0.5	0.54254	0.75	-0.177
Mof_C 	C 	0.5	0.50815	0.75	0.12
Mof_C 	C 	0.5	0.44213	0.75	-0.002
Mof_C 	C 	0.5	0.40638	0.75	-0.017
Mof_C 	C 	0.5	0.33944	0.75	0.127
Mof_N 	N 	0.5	0.30585	0.75	-0.176
Mof_Cd	Cd	0.24682	0.32404	0.76386	0.362
Mof_N 	N 	0.30808	0.29703	0.6727	-0.171
Mof_N 	N 	0.303	0.35473	0.8577	-0.167
Mof_O 	O 	0.24637	0.36379	0.626	-0.288
Mof_N 	N 	0.18898	0.35328	0.8593	-0.178
Mof_N 	N 	0.19004	0.29662	0.6605	-0.146
Mof_C 	C 	0.30728	0.26586	0.6619	0.11
Mof_C 	C 	0.34247	0.312	0.622	0.109
Mof_C 	C 	0.30198	0.38644	0.8596	0.097
Mof_C 	C 	0.33726	0.34104	0.9154	0.098
Mof_H 	H 	0.2623	0.3823	0.6532	0.148
Mof_H 	H 	0.2841	0.2546	0.6993	-0.014
Mof_C 	C 	0.33864	0.24877	0.5986	-0.194
Mof_C 	C 	0.37569	0.29686	0.5562	-0.187
Mof_H 	H 	0.3447	0.334	0.6307	-0.002
Mof_H 	H 	0.2785	0.3968	0.8202	-0.006
Mof_C 	C 	0.33427	0.40508	0.9175	-0.179
Mof_C 	C 	0.36971	0.35737	0.9767	-0.181
Mof_H 	H 	0.3393	0.3189	0.914	-0.004
Mof_H 	H 	0.336	0.2267	0.5944	0.094
Mof_C 	C 	0.37386	0.26401	0.5414	0.135
Mof_H 	H 	0.3991	0.3087	0.5222	0.095
Mof_H 	H 	0.3324	0.4272	0.9146	0.091
Mof_C 	C 	0.369	0.3906	0.979	0.124
Mof_H 	H 	0.3922	0.3463	0.0168	0.092
Mof_C 	C 	0.40777	0.24704	0.4705	-0.109
Mof_C 	C 	0.40362	0.40866	0.0445	-0.09
Mof_C 	C 	0.3998	0.21652	0.4337	0.068
Mof_C 	C 	0.44831	0.26117	0.4329	0.067
Mof_C 	C 	0.39468	0.43918	0.0832	0.047
Mof_C 	C 	0.44655	0.39584	0.0716	0.051
Mof_H 	H 	0.3731	0.2058	0.4572	0.002
Mof_C 	C 	0.43021	0.20145	0.3633	-0.192
Mof_C 	C 	0.47912	0.24593	0.3637	-0.193
Mof_H 	H 	0.455	0.2819	0.4554	0.003
Mof_H 	H 	0.3667	0.4491	0.0644	0.011
Mof_C 	C 	0.42648	0.45513	0.1489	-0.171
Mof_C 	C 	0.47869	0.41136	0.1359	-0.175
Mof_H 	H 	0.454	0.3757	0.0448	0.008
Mof_H 	H 	0.4236	0.1807	0.3412	0.103
Mof_C 	C 	0.47001	0.21588	0.3242	0.17
Mof_H 	H 	0.5067	0.2561	0.3432	0.096
Mof_H 	H 	0.4196	0.4756	0.1731	0.093
Mof_C 	C 	0.46838	0.44118	0.1793	0.152
Mof_H 	H 	0.5075	0.4019	0.1506	0.092
Mof_C 	C 	0.47914	0.14962	0.1648	-0.126
Mof_C 	C 	0.51908	0.50844	0.1636	-0.128
Mof_H 	H 	0.465	0.1607	0.1069	0.076
Mof_C 	C 	0.47909	0.11631	0.1644	-0.019
Mof_H 	H 	0.5319	0.4974	0.1041	0.078
Mof_C 	C 	0.51967	0.54127	0.1634	-0.018
Mof_H 	H 	0.4649	0.1054	0.1063	0.035
Mof_H 	H 	0.5334	0.5522	0.1047	0.041
Mof_C 	C 	0.46318	0.04672	0.2056	-0.005
Mof_C 	C 	0.54099	0.61097	0.2362	-0.002
Mof_H 	H 	0.438	0.0576	0.1749	0.029
Mof_C 	C 	0.46282	0.01386	0.2057	-0.138
Mof_H 	H 	0.569	0.6001	0.2263	0.034
Mof_C 	C 	0.54128	0.64353	0.2369	-0.137
Mof_H 	H 	0.4374	0.0031	0.1757	0.081
Mof_H 	H 	0.5694	0.6544	0.2285	0.084
Mof_C 	C 	0.53099	0.94531	0.3185	0.173
Mof_C 	C 	0.53131	0.7114	0.1796	0.143
Mof_C 	C 	0.55893	0.9226	0.2715	-0.196
Mof_C 	C 	0.53347	0.94956	0.4296	-0.199
Mof_C 	C 	0.53975	0.70152	0.0717	-0.161
Mof_C 	C 	0.55402	0.73826	0.2182	-0.161
Mof_H 	H 	0.5575	0.9191	0.1955	0.101
Mof_C 	C 	0.58922	0.90471	0.3354	0.078
Mof_C 	C 	0.56334	0.93117	0.4931	0.075
Mof_H 	H 	0.5149	0.965	0.4634	0.102
Mof_H 	H 	0.5247	0.6835	0.0446	0.086
Mof_C 	C 	0.57002	0.71794	0.0045	0.033
Mof_C 	C 	0.58449	0.75455	0.1502	0.037
Mof_H 	H 	0.5487	0.7453	0.2901	0.093
Mof_H 	H 	0.6081	0.8896	0.3011	-0.001
Mof_C 	C 	0.59218	0.90862	0.4467	-0.118
Mof_H 	H 	0.5639	0.9342	0.5694	0.005
Mof_H 	H 	0.5751	0.7109	0.9324	0.008
Mof_C 	C 	0.5932	0.74496	0.0431	-0.07
Mof_H 	H 	0.5996	0.7725	0.1775	0.014
Mof_C 	C 	0.62488	0.88938	0.5143	0.16
Mof_C 	C 	0.62619	0.76307	0.9706	0.087
Mof_C 	C 	0.66115	0.87318	0.4687	-0.211
Mof_C 	C 	0.62163	0.88633	0.6268	-0.21
Mof_C 	C 	0.6443	0.7496	0.8758	-0.19
Mof_C 	C 	0.6338	0.7947	0.9846	0.068
Mof_H 	H 	0.6657	0.8741	0.3925	0.102
Mof_C 	C 	0.69153	0.85534	0.5331	0.121
Mof_C 	C 	0.65386	0.86835	0.6855	0.121
Mof_H 	H 	0.5975	0.8965	0.6645	0.105
Mof_H 	H 	0.6351	0.7292	0.8547	0.089
Mof_C 	C 	0.676	0.7661	0.8124	0.051
Mof_C 	C 	0.6665	0.8098	0.9176	-0.137
Mof_H 	H 	0.6175	0.8061	0.0381	0.003
Mof_H 	H 	0.7152	0.8441	0.4974	-0.016
Mof_H 	H 	0.6502	0.8669	0.762	-0.007
Mof_H 	H 	0.6883	0.7565	0.7494	0.004
Mof_H 	H 	0.6718	0.8313	0.9305	0.083
Mof_C 	C 	0.6238	0.7646	0.8618	0.035
Mof_H 	H 	0.5996	0.7543	0.8248	0.021
Mof_C 	C 	0.6572	0.7815	0.8014	0.01
Mof_H 	H 	0.6542	0.7812	0.7246	0.018
Mof_C 	C 	0.695	0.7957	0.9551	0.189
Mof_H 	H 	0.7203	0.806	0.9875	-0.03
Mof_C 	C 	0.664	0.7802	0.0215	-0.233
Mof_H 	H 	0.6672	0.7808	0.0982	0.107
Mof_Cd	Cd	0.75318	0.32404	0.73614	0.362
Mof_N 	N 	0.69192	0.29703	0.8273	-0.171
Mof_N 	N 	0.697	0.35473	0.6423	-0.167
Mof_O 	O 	0.75363	0.36379	0.874	-0.288
Mof_N 	N 	0.81102	0.35328	0.6407	-0.178
Mof_N 	N 	0.80996	0.29662	0.8395	-0.145
Mof_C 	C 	0.69272	0.26586	0.8381	0.11
Mof_C 	C 	0.65753	0.312	0.878	0.109
Mof_C 	C 	0.69802	0.38644	0.6404	0.097
Mof_C 	C 	0.66274	0.34104	0.5846	0.098
Mof_H 	H 	0.7377	0.3823	0.8468	0.148
Mof_H 	H 	0.7159	0.2546	0.8007	-0.014
Mof_C 	C 	0.66136	0.24877	0.9014	-0.194
Mof_C 	C 	0.62431	0.29686	0.9438	-0.187
Mof_H 	H 	0.6553	0.334	0.8693	-0.002
Mof_H 	H 	0.7215	0.3968	0.6798	-0.006
Mof_C 	C 	0.66573	0.40508	0.5825	-0.179
Mof_C 	C 	0.63029	0.35737	0.5233	-0.181
Mof_H 	H 	0.6607	0.3189	0.586	-0.004
Mof_H 	H 	0.664	0.2267	0.9056	0.094
Mof_C 	C 	0.62614	0.26401	0.9586	0.135
Mof_H 	H 	0.6009	0.3087	0.9778	0.095
Mof_H 	H 	0.6676	0.4272	0.5854	0.091
Mof_C 	C 	0.631	0.3906	0.521	0.124
Mof_H 	H 	0.6078	0.3463	0.4832	0.092
Mof_C 	C 	0.59223	0.24704	0.0295	-0.109
Mof_C 	C 	0.59638	0.40866	0.4555	-0.09
Mof_C 	C 	0.6002	0.21652	0.0663	0.068
Mof_C 	C 	0.55169	0.26117	0.0671	0.067
Mof_C 	C 	0.60532	0.43918	0.4168	0.047
Mof_C 	C 	0.55345	0.39584	0.4284	0.051
Mof_H 	H 	0.6269	0.2058	0.0428	0.002
Mof_C 	C 	0.56979	0.20145	0.1367	-0.192
Mof_C 	C 	0.52088	0.24593	0.1363	-0.193
Mof_H 	H 	0.545	0.2819	0.0446	0.002
Mof_H 	H 	0.6333	0.4491	0.4356	0.011
Mof_C 	C 	0.57352	0.45513	0.3511	-0.171
Mof_C 	C 	0.52131	0.41136	0.3641	-0.175
Mof_H 	H 	0.546	0.3757	0.4552	0.008
Mof_H 	H 	0.5764	0.1807	0.1588	0.103
Mof_C 	C 	0.52999	0.21588	0.1758	0.17
Mof_H 	H 	0.4933	0.2561	0.1568	0.096
Mof_H 	H 	0.5804	0.4756	0.3269	0.093
Mof_C 	C 	0.53162	0.44118	0.3207	0.152
Mof_H 	H 	0.4925	0.4019	0.3494	0.092
Mof_C 	C 	0.52086	0.14962	0.3352	-0.126
Mof_C 	C 	0.48092	0.50844	0.3364	-0.128
Mof_H 	H 	0.535	0.1607	0.3931	0.076
Mof_C 	C 	0.52091	0.11631	0.3356	-0.019
Mof_H 	H 	0.4681	0.4974	0.3959	0.078
Mof_C 	C 	0.48033	0.54127	0.3366	-0.018
Mof_H 	H 	0.5351	0.1054	0.3937	0.035
Mof_H 	H 	0.4666	0.5522	0.3953	0.041
Mof_C 	C 	0.53682	0.04672	0.2944	-0.005
Mof_C 	C 	0.45901	0.61097	0.2638	-0.002
Mof_H 	H 	0.562	0.0576	0.3251	0.029
Mof_C 	C 	0.53718	0.01386	0.2943	-0.138
Mof_H 	H 	0.431	0.6001	0.2737	0.034
Mof_C 	C 	0.45872	0.64353	0.2631	-0.137
Mof_H 	H 	0.5626	0.0031	0.3243	0.081
Mof_H 	H 	0.4306	0.6544	0.2715	0.084
Mof_C 	C 	0.46901	0.94531	0.1815	0.173
Mof_C 	C 	0.46869	0.7114	0.3204	0.143
Mof_C 	C 	0.44107	0.9226	0.2285	-0.196
Mof_C 	C 	0.46653	0.94956	0.0704	-0.199
Mof_C 	C 	0.46025	0.70152	0.4283	-0.161
Mof_C 	C 	0.44598	0.73826	0.2818	-0.161
Mof_H 	H 	0.4425	0.9191	0.3045	0.101
Mof_C 	C 	0.41078	0.90471	0.1646	0.077
Mof_C 	C 	0.43666	0.93117	0.0069	0.075
Mof_H 	H 	0.4851	0.965	0.0366	0.102
Mof_H 	H 	0.4753	0.6835	0.4554	0.085
Mof_C 	C 	0.42998	0.71794	0.4955	0.033
Mof_C 	C 	0.41551	0.75455	0.3498	0.038
Mof_H 	H 	0.4513	0.7453	0.2099	0.093
Mof_H 	H 	0.3919	0.8896	0.1989	-0.001
Mof_C 	C 	0.40782	0.90862	0.0533	-0.118
Mof_H 	H 	0.4361	0.9342	0.9306	0.005
Mof_H 	H 	0.4249	0.7109	0.5676	0.008
Mof_C 	C 	0.4068	0.74496	0.4569	-0.071
Mof_H 	H 	0.4004	0.7725	0.3225	0.014
Mof_C 	C 	0.37512	0.88938	0.9857	0.159
Mof_C 	C 	0.37381	0.76307	0.5294	0.088
Mof_C 	C 	0.33885	0.87318	0.0313	-0.211
Mof_C 	C 	0.37837	0.88633	0.8732	-0.21
Mof_C 	C 	0.3557	0.7496	0.6242	-0.189
Mof_C 	C 	0.3662	0.7947	0.5154	0.065
Mof_H 	H 	0.3343	0.8741	0.1075	0.102
Mof_C 	C 	0.30847	0.85534	0.9669	0.121
Mof_C 	C 	0.34614	0.86835	0.8145	0.121
Mof_H 	H 	0.4025	0.8965	0.8355	0.105
Mof_H 	H 	0.3649	0.7292	0.6453	0.089
Mof_C 	C 	0.324	0.7661	0.6876	0.051
Mof_C 	C 	0.3335	0.8098	0.5824	-0.133
Mof_H 	H 	0.3825	0.8061	0.4619	0.004
Mof_H 	H 	0.2848	0.8441	0.0026	-0.016
Mof_H 	H 	0.3498	0.8669	0.738	-0.007
Mof_H 	H 	0.3117	0.7565	0.7506	0.004
Mof_H 	H 	0.3282	0.8313	0.5695	0.082
Mof_C 	C 	0.3762	0.7646	0.6382	0.034
Mof_H 	H 	0.4004	0.7543	0.6752	0.021
Mof_C 	C 	0.3428	0.7815	0.6986	0.01
Mof_H 	H 	0.3458	0.7812	0.7754	0.018
Mof_C 	C 	0.305	0.7957	0.5449	0.185
Mof_H 	H 	0.2797	0.806	0.5125	-0.029
Mof_C 	C 	0.336	0.7802	0.4785	-0.231
Mof_H 	H 	0.3328	0.7808	0.4018	0.106
Mof_Cd	Cd	0.74682	0.82404	0.73614	0.362
Mof_N 	N 	0.80808	0.79703	0.8273	-0.171
Mof_N 	N 	0.803	0.85473	0.6423	-0.167
Mof_O 	O 	0.74637	0.86379	0.874	-0.288
Mof_N 	N 	0.68898	0.85328	0.6407	-0.178
Mof_N 	N 	0.69004	0.79662	0.8395	-0.146
Mof_C 	C 	0.80728	0.76586	0.8381	0.111
Mof_C 	C 	0.84247	0.812	0.878	0.109
Mof_C 	C 	0.80198	0.88644	0.6404	0.098
Mof_C 	C 	0.83726	0.84104	0.5846	0.099
Mof_H 	H 	0.7623	0.8823	0.8468	0.148
Mof_H 	H 	0.7841	0.7546	0.8007	-0.014
Mof_C 	C 	0.83864	0.74877	0.9014	-0.194
Mof_C 	C 	0.87569	0.79686	0.9438	-0.188
Mof_H 	H 	0.8447	0.834	0.8693	-0.003
Mof_H 	H 	0.7785	0.8968	0.6798	-0.006
Mof_C 	C 	0.83427	0.90508	0.5825	-0.18
Mof_C 	C 	0.86971	0.85737	0.5233	-0.182
Mof_H 	H 	0.8393	0.8189	0.586	-0.004
Mof_H 	H 	0.836	0.7267	0.9056	0.094
Mof_C 	C 	0.87386	0.76401	0.9586	0.137
Mof_H 	H 	0.8991	0.8087	0.9778	0.095
Mof_H 	H 	0.8324	0.9272	0.5854	0.091
Mof_C 	C 	0.869	0.8906	0.521	0.125
Mof_H 	H 	0.8922	0.8463	0.4832	0.092
Mof_C 	C 	0.90777	0.74704	0.0295	-0.111
Mof_C 	C 	0.90362	0.90866	0.4555	-0.093
Mof_C 	C 	0.8998	0.71652	0.0663	0.07
Mof_C 	C 	0.94831	0.76117	0.0671	0.072
Mof_C 	C 	0.89468	0.93918	0.4168	0.049
Mof_C 	C 	0.94655	0.89584	0.4284	0.056
Mof_H 	H 	0.8731	0.7058	0.0428	0.002
Mof_C 	C 	0.93021	0.70145	0.1367	-0.194
Mof_C 	C 	0.97912	0.74593	0.1363	-0.201
Mof_H 	H 	0.955	0.7819	0.0446	0
Mof_H 	H 	0.8667	0.9491	0.4356	0.01
Mof_C 	C 	0.92648	0.95513	0.3511	-0.173
Mof_C 	C 	0.97869	0.91136	0.3641	-0.182
Mof_H 	H 	0.954	0.8757	0.4552	0.006
Mof_H 	H 	0.9236	0.6807	0.1588	0.103
Mof_C 	C 	0.97001	0.71588	0.1758	0.17
Mof_H 	H 	0.0067	0.7561	0.1568	0.101
Mof_H 	H 	0.9196	0.9756	0.3269	0.093
Mof_C 	C 	0.96838	0.94118	0.3207	0.153
Mof_H 	H 	0.0075	0.9019	0.3494	0.097
Mof_C 	C 	0.97914	0.64962	0.3352	-0.129
Mof_C 	C 	0.01908	0.00844	0.3364	-0.129
Mof_H 	H 	0.965	0.6607	0.3931	0.077
Mof_C 	C 	0.97909	0.61631	0.3356	-0.021
Mof_H 	H 	0.0319	0.9974	0.3959	0.079
Mof_C 	C 	0.01967	0.04127	0.3366	-0.017
Mof_H 	H 	0.9649	0.6054	0.3937	0.035
Mof_H 	H 	0.0334	0.0522	0.3953	0.041
Mof_C 	C 	0.96318	0.54672	0.2944	-0.008
Mof_C 	C 	0.04099	0.11097	0.2638	-0.002
Mof_H 	H 	0.938	0.5576	0.3251	0.029
Mof_C 	C 	0.96282	0.51386	0.2943	-0.141
Mof_H 	H 	0.069	0.1001	0.2737	0.034
Mof_C 	C 	0.04128	0.14353	0.2631	-0.138
Mof_H 	H 	0.9374	0.5031	0.3243	0.082
Mof_H 	H 	0.0694	0.1544	0.2715	0.084
Mof_C 	C 	0.03099	0.44531	0.1815	0.174
Mof_C 	C 	0.03131	0.2114	0.3204	0.144
Mof_C 	C 	0.05893	0.4226	0.2285	-0.196
Mof_C 	C 	0.03347	0.44956	0.0704	-0.2
Mof_C 	C 	0.03975	0.20152	0.4283	-0.161
Mof_C 	C 	0.05402	0.23826	0.2818	-0.161
Mof_H 	H 	0.0575	0.4191	0.3045	0.102
Mof_C 	C 	0.08922	0.40471	0.1646	0.078
Mof_C 	C 	0.06334	0.43117	0.0069	0.076
Mof_H 	H 	0.0149	0.465	0.0366	0.103
Mof_H 	H 	0.0247	0.1835	0.4554	0.086
Mof_C 	C 	0.07002	0.21794	0.4955	0.033
Mof_C 	C 	0.08449	0.25455	0.3498	0.038
Mof_H 	H 	0.0487	0.2453	0.2099	0.094
Mof_H 	H 	0.1081	0.3896	0.1989	-0.001
Mof_C 	C 	0.09218	0.40862	0.0533	-0.118
Mof_H 	H 	0.0639	0.4342	0.9306	0.005
Mof_H 	H 	0.0751	0.2109	0.5676	0.008
Mof_C 	C 	0.0932	0.24496	0.4569	-0.071
Mof_H 	H 	0.0996	0.2725	0.3225	0.014
Mof_C 	C 	0.12488	0.38938	0.9857	0.16
Mof_C 	C 	0.12619	0.26307	0.5294	0.088
Mof_C 	C 	0.16115	0.37318	0.0313	-0.211
Mof_C 	C 	0.12163	0.38633	0.8732	-0.21
Mof_C 	C 	0.1443	0.2496	0.6242	-0.189
Mof_C 	C 	0.1338	0.2947	0.5154	0.065
Mof_H 	H 	0.1657	0.3741	0.1075	0.102
Mof_C 	C 	0.19153	0.35534	0.9669	0.121
Mof_C 	C 	0.15386	0.36835	0.8145	0.121
Mof_H 	H 	0.0975	0.3965	0.8355	0.105
Mof_H 	H 	0.1351	0.2292	0.6453	0.089
Mof_C 	C 	0.176	0.2661	0.6876	0.051
Mof_C 	C 	0.1665	0.3098	0.5824	-0.132
Mof_H 	H 	0.1175	0.3061	0.4619	0.004
Mof_H 	H 	0.2152	0.3441	0.0026	-0.016
Mof_H 	H 	0.1502	0.3669	0.738	-0.007
Mof_H 	H 	0.1883	0.2565	0.7506	0.004
Mof_H 	H 	0.1718	0.3313	0.5695	0.082
Mof_C 	C 	0.1238	0.2646	0.6382	0.034
Mof_H 	H 	0.0996	0.2543	0.6752	0.021
Mof_C 	C 	0.1572	0.2815	0.6986	0.01
Mof_H 	H 	0.1542	0.2812	0.7754	0.018
Mof_C 	C 	0.195	0.2957	0.5449	0.185
Mof_H 	H 	0.2203	0.306	0.5125	-0.029
Mof_C 	C 	0.164	0.2802	0.4785	-0.231
Mof_H 	H 	0.1672	0.2808	0.4018	0.106
Mof_Cd	Cd	0.25318	0.82404	0.76386	0.362
Mof_N 	N 	0.19192	0.79703	0.6727	-0.171
Mof_N 	N 	0.197	0.85473	0.8577	-0.167
Mof_O 	O 	0.25363	0.86379	0.626	-0.288
Mof_N 	N 	0.31102	0.85328	0.8593	-0.178
Mof_N 	N 	0.30996	0.79662	0.6605	-0.146
Mof_C 	C 	0.19272	0.76586	0.6619	0.11
Mof_C 	C 	0.15753	0.812	0.622	0.108
Mof_C 	C 	0.19802	0.88644	0.8596	0.097
Mof_C 	C 	0.16274	0.84104	0.9154	0.098
Mof_H 	H 	0.2377	0.8823	0.6532	0.148
Mof_H 	H 	0.2159	0.7546	0.6993	-0.014
Mof_C 	C 	0.16136	0.74877	0.5986	-0.192
Mof_C 	C 	0.12431	0.79686	0.5562	-0.185
Mof_H 	H 	0.1553	0.834	0.6307	-0.002
Mof_H 	H 	0.2215	0.8968	0.8202	-0.006
Mof_C 	C 	0.16573	0.90508	0.9175	-0.178
Mof_C 	C 	0.13029	0.85737	0.9767	-0.18
Mof_H 	H 	0.1607	0.8189	0.914	-0.004
Mof_H 	H 	0.164	0.7267	0.5944	0.093
Mof_C 	C 	0.12614	0.76401	0.5414	0.133
Mof_H 	H 	0.1009	0.8087	0.5222	0.094
Mof_H 	H 	0.1676	0.9272	0.9146	0.091
Mof_C 	C 	0.131	0.8906	0.979	0.122
Mof_H 	H 	0.1078	0.8463	0.0168	0.091
Mof_C 	C 	0.09223	0.74704	0.4705	-0.104
Mof_C 	C 	0.09638	0.90866	0.0445	-0.086
Mof_C 	C 	0.1002	0.71652	0.4337	0.064
Mof_C 	C 	0.05169	0.76117	0.4329	0.061
Mof_C 	C 	0.10532	0.93918	0.0832	0.044
Mof_C 	C 	0.05345	0.89584	0.0716	0.045
Mof_H 	H 	0.1269	0.7058	0.4572	0.004
Mof_C 	C 	0.06979	0.70145	0.3633	-0.188
Mof_C 	C 	0.02088	0.74593	0.3637	-0.182
Mof_H 	H 	0.045	0.7819	0.4554	0.006
Mof_H 	H 	0.1333	0.9491	0.0644	0.012
Mof_C 	C 	0.07352	0.95513	0.1489	-0.168
Mof_C 	C 	0.02131	0.91136	0.1359	-0.165
Mof_H 	H 	0.046	0.8757	0.0448	0.011
Mof_H 	H 	0.0764	0.6807	0.3412	0.102
Mof_C 	C 	0.02999	0.71588	0.3242	0.166
Mof_H 	H 	0.9933	0.7561	0.3432	0.09
Mof_H 	H 	0.0804	0.9756	0.1731	0.092
Mof_C 	C 	0.03162	0.94118	0.1793	0.148
Mof_H 	H 	0.9925	0.9019	0.1506	0.087
Mof_C 	C 	0.02086	0.64962	0.1648	-0.126
Mof_C 	C 	0.98092	0.00844	0.1636	-0.132
Mof_H 	H 	0.035	0.6607	0.1069	0.077
Mof_C 	C 	0.02091	0.61631	0.1644	-0.018
Mof_H 	H 	0.9681	0.9974	0.1041	0.079
Mof_C 	C 	0.98033	0.04127	0.1634	-0.02
Mof_H 	H 	0.0351	0.6054	0.1063	0.035
Mof_H 	H 	0.9666	0.0522	0.1047	0.041
Mof_C 	C 	0.03682	0.54672	0.2056	-0.005
Mof_C 	C 	0.95901	0.11097	0.2362	-0.005
Mof_H 	H 	0.062	0.5576	0.1749	0.029
Mof_C 	C 	0.03718	0.51386	0.2057	-0.138
Mof_H 	H 	0.931	0.1001	0.2263	0.034
Mof_C 	C 	0.95872	0.14353	0.2369	-0.141
Mof_H 	H 	0.0626	0.5031	0.1757	0.081
Mof_H 	H 	0.9306	0.1544	0.2285	0.085
Mof_C 	C 	0.96901	0.44531	0.3185	0.169
Mof_C 	C 	0.96869	0.2114	0.1796	0.14
Mof_C 	C 	0.94107	0.4226	0.2715	-0.193
Mof_C 	C 	0.96653	0.44956	0.4296	-0.197
Mof_C 	C 	0.96025	0.20152	0.0717	-0.16
Mof_C 	C 	0.94598	0.23826	0.2182	-0.159
Mof_H 	H 	0.9425	0.4191	0.1955	0.099
Mof_C 	C 	0.91078	0.40471	0.3354	0.075
Mof_C 	C 	0.93666	0.43117	0.4931	0.072
Mof_H 	H 	0.9851	0.465	0.4634	0.099
Mof_H 	H 	0.9753	0.1835	0.0446	0.084
Mof_C 	C 	0.92998	0.21794	0.0045	0.031
Mof_C 	C 	0.91551	0.25455	0.1502	0.035
Mof_H 	H 	0.9513	0.2453	0.2901	0.092
Mof_H 	H 	0.8919	0.3896	0.3011	-0
Mof_C 	C 	0.90782	0.40862	0.4467	-0.116
Mof_H 	H 	0.9361	0.4342	0.5694	0.005
Mof_H 	H 	0.9249	0.2109	0.9324	0.008
Mof_C 	C 	0.9068	0.24496	0.0431	-0.069
Mof_H 	H 	0.9004	0.2725	0.1775	0.014
Mof_C 	C 	0.87512	0.38938	0.5143	0.158
Mof_C 	C 	0.87381	0.26307	0.9706	0.087
Mof_C 	C 	0.83885	0.37318	0.4687	-0.21
Mof_C 	C 	0.87837	0.38633	0.6268	-0.21
Mof_C 	C 	0.8557	0.2496	0.8758	-0.19
Mof_C 	C 	0.8662	0.2947	0.9846	0.069
Mof_H 	H 	0.8343	0.3741	0.3925	0.102
Mof_C 	C 	0.80847	0.35534	0.5331	0.121
Mof_C 	C 	0.84614	0.36835	0.6855	0.121
Mof_H 	H 	0.9025	0.3965	0.6645	0.105
Mof_H 	H 	0.8649	0.2292	0.8547	0.089
Mof_C 	C 	0.824	0.2661	0.8124	0.052
Mof_C 	C 	0.8335	0.3098	0.9176	-0.138
Mof_H 	H 	0.8825	0.3061	0.0381	0.002
Mof_H 	H 	0.7848	0.3441	0.4974	-0.016
Mof_H 	H 	0.8498	0.3669	0.762	-0.007
Mof_H 	H 	0.8117	0.2565	0.7494	0.004
Mof_H 	H 	0.8282	0.3313	0.9305	0.083
Mof_C 	C 	0.8762	0.2646	0.8618	0.036
Mof_H 	H 	0.9004	0.2543	0.8248	0.021
Mof_C 	C 	0.8428	0.2815	0.8014	0.009
Mof_H 	H 	0.8458	0.2812	0.7246	0.019
Mof_C 	C 	0.805	0.2957	0.9551	0.19
Mof_H 	H 	0.7797	0.306	0.9875	-0.03
Mof_C 	C 	0.836	0.2802	0.0215	-0.234
Mof_H 	H 	0.8328	0.2808	0.0982	0.107
Mof_N 	N 	0.5	0.20033	0.25	-0.187
Mof_C 	C 	0.5	0.16629	0.25	0.118
Mof_C 	C 	0.5	0.09918	0.25	-0.009
Mof_C 	C 	0.5	0.06395	0.25	-0.019
Mof_C 	C 	0.5	0.99647	0.25	0.13
Mof_N 	N 	0.5	0.96325	0.25	-0.188
Mof_N 	N 	-6.58122e-33	0.70033	0.25	-0.185
Mof_C 	C 	-6.58122e-33	0.66629	0.25	0.122
Mof_C 	C 	3.95546e-34	0.59918	0.25	-0.007
Mof_C 	C 	7.37231e-33	0.56395	0.25	-0.016
Mof_C 	C 	3.95546e-34	0.49647	0.25	0.134
Mof_N 	N 	3.95546e-34	0.46325	0.25	-0.187
Mof_N 	N 	0.5	0.45746	0.25	-0.177
Mof_C 	C 	0.5	0.49185	0.25	0.12
Mof_C 	C 	0.5	0.55787	0.25	-0.002
Mof_C 	C 	0.5	0.59362	0.25	-0.017
Mof_C 	C 	0.5	0.66056	0.25	0.127
Mof_N 	N 	0.5	0.69415	0.25	-0.176
Mof_N 	N 	-6.58122e-33	0.95746	0.25	-0.176
Mof_C 	C 	-6.58122e-33	0.99185	0.25	0.124
Mof_C 	C 	-1.34865e-33	0.05787	0.25	0
Mof_C 	C 	3.95546e-34	0.09362	0.25	-0.015
Mof_C 	C 	3.95546e-34	0.16056	0.25	0.131
Mof_N 	N 	3.95546e-34	0.19415	0.25	-0.175
_end
