data_functionalizedCrystal
_audit_creation_method	'EQeq! by Chris Wilmer'
_symmetry_space_group_name_H-M	'P1'
_symmetry_Int_Tables_number	1
_symmetry_cell_setting	triclinic
loop_
_symmetry_equiv_pos_as_xyz
  x,y,z
_cell_length_a	36.079
_cell_length_b	14.978
_cell_length_c	30.734
_cell_angle_alpha	90
_cell_angle_beta	102.47
_cell_angle_gamma	90
loop_
_atom_site_label
_atom_site_type_symbol
_atom_site_fract_x
_atom_site_fract_y
_atom_site_fract_z
_atom_site_charge
Mof_Zn	Zn	0.37701	0.09068	0.43463	1.164
Mof_Zn	Zn	0.5856	0.3726	0.5877	0.646
Mof_Zn	Zn	0.571	0.61	0.0957	0.573
Mof_Zn	Zn	0.17284	0.36472	0.27398	1.163
Mof_I 	I 	0.39401	0.2334	0.39859	-0.352
Mof_I 	I 	0.3637	0.0714	0.5158	-0.23
Mof_I 	I 	0.35825	0.0932	0.5083	-0.049
Mof_I 	I 	0.62128	0.26093	0.54738	-2.477
Mof_I 	I 	0.6043	0.7357	0.06008	1.951
Mof_I 	I 	0.53297	0.33708	0.62608	5.169
Mof_I 	I 	0.5168	0.6287	0.13485	-5.515
Mof_I 	I 	0.12649	0.33549	0.19874	-0.401
Mof_I 	I 	0.6341	0.8218	0.2119	-0.117
Mof_I 	I 	0.2321	0.2731	0.2983	-0.016
Mof_I 	I 	0.7413	0.7917	0.3135	-0.309
Mof_N 	N 	0.5744	0.7257	0.4353	-0.095
Mof_N 	N 	0.5243	0.7718	0.4698	-0.191
Mof_N 	N 	0.538	0.8552	0.4089	-0.135
Mof_C 	C 	0.5521	0.7152	0.4637	0.116
Mof_C 	C 	0.5175	0.8382	0.4397	0.024
Mof_C 	C 	0.5673	0.799	0.4097	0.134
Mof_N 	N 	0.5685	0.4807	0.5449	-0.33
Mof_C 	C 	0.5918	0.5004	0.5186	0.059
Mof_H 	H 	0.612	0.4605	0.5173	0.025
Mof_C 	C 	0.5879	0.5781	0.4926	-0.065
Mof_H 	H 	0.6061	0.5924	0.4754	0.101
Mof_C 	C 	0.5574	0.6333	0.4922	0.043
Mof_C 	C 	0.532	0.6104	0.5186	-0.064
Mof_H 	H 	0.5103	0.646	0.5186	0.039
Mof_C 	C 	0.5393	0.5339	0.5452	0.015
Mof_H 	H 	0.5226	0.5196	0.5641	0.059
Mof_N 	N 	0.4215	0.005	0.4377	-0.283
Mof_C 	C 	0.4358	0.9939	0.4033	0.067
Mof_H 	H 	0.4233	0.023	0.3767	-0.023
Mof_C 	C 	0.4677	0.9433	0.4011	-0.172
Mof_H 	H 	0.4775	0.9405	0.3748	0.069
Mof_C 	C 	0.4848	0.8965	0.44	-0.012
Mof_C 	C 	0.4692	0.904	0.4762	-0.152
Mof_H 	H 	0.4795	0.8718	0.5027	0.074
Mof_C 	C 	0.438	0.9593	0.4742	0.055
Mof_H 	H 	0.4278	0.965	0.5001	0.018
Mof_N 	N 	0.6409	0.8494	0.3219	-0.271
Mof_C 	C 	0.6506	0.7916	0.3555	0.086
Mof_H 	H 	0.6745	0.7625	0.3598	-0.005
Mof_C 	C 	0.6269	0.7727	0.3841	-0.101
Mof_H 	H 	0.6342	0.7294	0.4069	0.104
Mof_C 	C 	0.5928	0.8168	0.3796	0.094
Mof_C 	C 	0.5839	0.8787	0.3454	-0.102
Mof_H 	H 	0.5609	0.9119	0.3416	0.094
Mof_C 	C 	0.6081	0.8926	0.3167	0.088
Mof_H 	H 	0.6012	0.9339	0.2929	-0.012
Mof_N 	N 	0.2207	0.9532	0.2696	-0.143
Mof_N 	N 	0.236	0.8146	0.3071	-0.134
Mof_N 	N 	0.1827	0.8272	0.2456	-0.127
Mof_C 	C 	0.1926	0.9126	0.2442	0.114
Mof_C 	C 	0.241	0.9027	0.3023	0.097
Mof_C 	C 	0.2063	0.78	0.2779	0.105
Mof_N 	N 	0.1221	0.0586	0.1382	-0.364
Mof_C 	C 	0.1159	0.9739	0.1462	0.105
Mof_H 	H 	0.0941	0.9455	0.1289	-0.006
Mof_C 	C 	0.1397	0.9255	0.1784	-0.13
Mof_H 	H 	0.1358	0.8631	0.1807	0.115
Mof_C 	C 	0.1684	0.9653	0.2066	0.086
Mof_C 	C 	0.1747	0.053	0.1993	-0.141
Mof_H 	H 	0.1949	0.0839	0.2184	0.083
Mof_C 	C 	0.1514	0.0971	0.1638	0.091
Mof_H 	H 	0.157	0.1573	0.1579	-0.059
Mof_N 	N 	0.3339	0.0301	0.3906	-0.279
Mof_C 	C 	0.3092	0.0751	0.3605	0.075
Mof_H 	H 	0.3128	0.1377	0.3586	-0.006
Mof_C 	C 	0.2786	0.0375	0.3317	-0.119
Mof_H 	H 	0.2617	0.0739	0.3111	0.089
Mof_C 	C 	0.2727	0.946	0.333	0.047
Mof_C 	C 	0.2981	0.8973	0.3645	-0.111
Mof_H 	H 	0.2952	0.8347	0.3675	0.103
Mof_C 	C 	0.3283	0.9439	0.3921	0.067
Mof_H 	H 	0.3459	0.9102	0.4132	0.025
Mof_N 	N 	0.1851	0.5002	0.2763	-0.275
Mof_C 	C 	0.2158	0.5356	0.3024	0.084
Mof_H 	H 	0.2333	0.4965	0.3206	-0.007
Mof_C 	C 	0.2237	0.6254	0.3048	-0.129
Mof_H 	H 	0.2459	0.6471	0.3245	0.093
Mof_C 	C 	0.1994	0.6828	0.2787	0.071
Mof_C 	C 	0.1675	0.6466	0.2488	-0.123
Mof_H 	H 	0.1505	0.6839	0.2288	0.096
Mof_C 	C 	0.162	0.557	0.2494	0.077
Mof_H 	H 	0.1403	0.533	0.2296	-0.014
Mof_Zn	Zn	0.87701	0.59068	0.43463	1.163
Mof_Zn	Zn	0.0856	0.8726	0.5877	0.645
Mof_Zn	Zn	0.071	0.11	0.0957	0.573
Mof_Zn	Zn	0.67284	0.86472	0.27398	1.162
Mof_I 	I 	0.89401	0.7334	0.39859	-0.353
Mof_I 	I 	0.8637	0.5714	0.5158	-0.231
Mof_I 	I 	0.85825	0.5932	0.5083	-0.05
Mof_I 	I 	0.12128	0.76093	0.54738	-2.477
Mof_I 	I 	0.1043	0.2357	0.06008	1.95
Mof_I 	I 	0.03297	0.83708	0.62608	5.163
Mof_I 	I 	0.0168	0.1287	0.13485	-5.51
Mof_I 	I 	0.62649	0.83549	0.19874	-0.401
Mof_I 	I 	0.1341	0.3218	0.2119	-0.116
Mof_I 	I 	0.7321	0.7731	0.2983	-0.016
Mof_I 	I 	0.2413	0.2917	0.3135	-0.309
Mof_N 	N 	0.0744	0.2257	0.4353	-0.096
Mof_N 	N 	0.0243	0.2718	0.4698	-0.191
Mof_N 	N 	0.038	0.3552	0.4089	-0.135
Mof_C 	C 	0.0521	0.2152	0.4637	0.116
Mof_C 	C 	0.0175	0.3382	0.4397	0.024
Mof_C 	C 	0.0673	0.299	0.4097	0.134
Mof_N 	N 	0.0685	0.9807	0.5449	-0.33
Mof_C 	C 	0.0918	0.0004	0.5186	0.059
Mof_H 	H 	0.112	0.9605	0.5173	0.025
Mof_C 	C 	0.0879	0.0781	0.4926	-0.065
Mof_H 	H 	0.1061	0.0924	0.4754	0.1
Mof_C 	C 	0.0574	0.1333	0.4922	0.042
Mof_C 	C 	0.032	0.1104	0.5186	-0.064
Mof_H 	H 	0.0103	0.146	0.5186	0.038
Mof_C 	C 	0.0393	0.0339	0.5452	0.015
Mof_H 	H 	0.0226	0.0196	0.5641	0.058
Mof_N 	N 	0.9215	0.505	0.4377	-0.283
Mof_C 	C 	0.9358	0.4939	0.4033	0.069
Mof_H 	H 	0.9233	0.523	0.3767	-0.023
Mof_C 	C 	0.9677	0.4433	0.4011	-0.172
Mof_H 	H 	0.9775	0.4405	0.3748	0.069
Mof_C 	C 	0.9848	0.3965	0.44	-0.011
Mof_C 	C 	0.9692	0.404	0.4762	-0.152
Mof_H 	H 	0.9795	0.3718	0.5027	0.074
Mof_C 	C 	0.938	0.4593	0.4742	0.055
Mof_H 	H 	0.9278	0.465	0.5001	0.017
Mof_N 	N 	0.1409	0.3494	0.3219	-0.271
Mof_C 	C 	0.1506	0.2916	0.3555	0.086
Mof_H 	H 	0.1745	0.2625	0.3598	-0.005
Mof_C 	C 	0.1269	0.2727	0.3841	-0.101
Mof_H 	H 	0.1342	0.2294	0.4069	0.104
Mof_C 	C 	0.0928	0.3168	0.3796	0.094
Mof_C 	C 	0.0839	0.3787	0.3454	-0.102
Mof_H 	H 	0.0609	0.4119	0.3416	0.094
Mof_C 	C 	0.1081	0.3926	0.3167	0.088
Mof_H 	H 	0.1012	0.4339	0.2929	-0.012
Mof_N 	N 	0.7207	0.4532	0.2696	-0.143
Mof_N 	N 	0.736	0.3146	0.3071	-0.134
Mof_N 	N 	0.6827	0.3272	0.2456	-0.127
Mof_C 	C 	0.6926	0.4126	0.2442	0.114
Mof_C 	C 	0.741	0.4027	0.3023	0.096
Mof_C 	C 	0.7063	0.28	0.2779	0.105
Mof_N 	N 	0.6221	0.5586	0.1382	-0.365
Mof_C 	C 	0.6159	0.4739	0.1462	0.106
Mof_H 	H 	0.5941	0.4455	0.1289	-0.006
Mof_C 	C 	0.6397	0.4255	0.1784	-0.131
Mof_H 	H 	0.6358	0.3631	0.1807	0.115
Mof_C 	C 	0.6684	0.4653	0.2066	0.088
Mof_C 	C 	0.6747	0.553	0.1993	-0.142
Mof_H 	H 	0.6949	0.5839	0.2184	0.083
Mof_C 	C 	0.6514	0.5971	0.1638	0.092
Mof_H 	H 	0.657	0.6573	0.1579	-0.059
Mof_N 	N 	0.8339	0.5301	0.3906	-0.279
Mof_C 	C 	0.8092	0.5751	0.3605	0.076
Mof_H 	H 	0.8128	0.6377	0.3586	-0.007
Mof_C 	C 	0.7786	0.5375	0.3317	-0.12
Mof_H 	H 	0.7617	0.5739	0.3111	0.089
Mof_C 	C 	0.7727	0.446	0.333	0.048
Mof_C 	C 	0.7981	0.3973	0.3645	-0.112
Mof_H 	H 	0.7952	0.3347	0.3675	0.104
Mof_C 	C 	0.8283	0.4439	0.3921	0.067
Mof_H 	H 	0.8459	0.4102	0.4132	0.025
Mof_N 	N 	0.6851	0.0002	0.2763	-0.275
Mof_C 	C 	0.7158	0.0356	0.3024	0.085
Mof_H 	H 	0.7333	0.9965	0.3206	-0.007
Mof_C 	C 	0.7237	0.1254	0.3048	-0.129
Mof_H 	H 	0.7459	0.1471	0.3245	0.093
Mof_C 	C 	0.6994	0.1828	0.2787	0.072
Mof_C 	C 	0.6675	0.1466	0.2488	-0.123
Mof_H 	H 	0.6505	0.1839	0.2288	0.096
Mof_C 	C 	0.662	0.057	0.2494	0.077
Mof_H 	H 	0.6403	0.033	0.2296	-0.014
Mof_Zn	Zn	0.37701	0.90932	0.93463	1.163
Mof_Zn	Zn	0.5856	0.6274	0.0877	0.645
Mof_Zn	Zn	0.571	0.39	0.5957	0.572
Mof_Zn	Zn	0.17284	0.63528	0.77398	1.162
Mof_I 	I 	0.39401	0.7666	0.89859	-0.353
Mof_I 	I 	0.3637	0.9286	0.0158	-0.231
Mof_I 	I 	0.35825	0.9068	0.0083	-0.05
Mof_I 	I 	0.62128	0.73907	0.04738	-2.477
Mof_I 	I 	0.6043	0.2643	0.56008	1.951
Mof_I 	I 	0.53297	0.66292	0.12608	5.169
Mof_I 	I 	0.5168	0.3713	0.63485	-5.515
Mof_I 	I 	0.12649	0.66451	0.69874	-0.401
Mof_I 	I 	0.6341	0.1782	0.7119	-0.117
Mof_I 	I 	0.2321	0.7269	0.7983	-0.016
Mof_I 	I 	0.7413	0.2083	0.8135	-0.309
Mof_N 	N 	0.5744	0.2743	0.9353	-0.095
Mof_N 	N 	0.5243	0.2282	0.9698	-0.191
Mof_N 	N 	0.538	0.1448	0.9089	-0.135
Mof_C 	C 	0.5521	0.2848	0.9637	0.116
Mof_C 	C 	0.5175	0.1618	0.9397	0.024
Mof_C 	C 	0.5673	0.201	0.9097	0.134
Mof_N 	N 	0.5685	0.5193	0.0449	-0.33
Mof_C 	C 	0.5918	0.4996	0.0186	0.059
Mof_H 	H 	0.612	0.5395	0.0173	0.025
Mof_C 	C 	0.5879	0.4219	0.9926	-0.065
Mof_H 	H 	0.6061	0.4076	0.9754	0.101
Mof_C 	C 	0.5574	0.3667	0.9922	0.042
Mof_C 	C 	0.532	0.3896	0.0186	-0.064
Mof_H 	H 	0.5103	0.354	0.0186	0.039
Mof_C 	C 	0.5393	0.4661	0.0452	0.015
Mof_H 	H 	0.5226	0.4804	0.0641	0.059
Mof_N 	N 	0.4215	0.995	0.9377	-0.282
Mof_C 	C 	0.4358	0.0061	0.9033	0.066
Mof_H 	H 	0.4233	0.977	0.8767	-0.022
Mof_C 	C 	0.4677	0.0567	0.9011	-0.171
Mof_H 	H 	0.4775	0.0595	0.8748	0.069
Mof_C 	C 	0.4848	0.1035	0.94	-0.012
Mof_C 	C 	0.4692	0.096	0.9762	-0.152
Mof_H 	H 	0.4795	0.1282	0.0027	0.074
Mof_C 	C 	0.438	0.0407	0.9742	0.054
Mof_H 	H 	0.4278	0.035	0.0001	0.018
Mof_N 	N 	0.6409	0.1506	0.8219	-0.271
Mof_C 	C 	0.6506	0.2084	0.8555	0.086
Mof_H 	H 	0.6745	0.2375	0.8598	-0.005
Mof_C 	C 	0.6269	0.2273	0.8841	-0.101
Mof_H 	H 	0.6342	0.2706	0.9069	0.104
Mof_C 	C 	0.5928	0.1832	0.8796	0.094
Mof_C 	C 	0.5839	0.1213	0.8454	-0.102
Mof_H 	H 	0.5609	0.0881	0.8416	0.094
Mof_C 	C 	0.6081	0.1074	0.8167	0.088
Mof_H 	H 	0.6012	0.0661	0.7929	-0.012
Mof_N 	N 	0.2207	0.0468	0.7696	-0.143
Mof_N 	N 	0.236	0.1854	0.8071	-0.134
Mof_N 	N 	0.1827	0.1728	0.7456	-0.127
Mof_C 	C 	0.1926	0.0874	0.7442	0.114
Mof_C 	C 	0.241	0.0973	0.8023	0.097
Mof_C 	C 	0.2063	0.22	0.7779	0.105
Mof_N 	N 	0.1221	0.9414	0.6382	-0.364
Mof_C 	C 	0.1159	0.0261	0.6462	0.105
Mof_H 	H 	0.0941	0.0545	0.6289	-0.006
Mof_C 	C 	0.1397	0.0745	0.6784	-0.13
Mof_H 	H 	0.1358	0.1369	0.6807	0.115
Mof_C 	C 	0.1684	0.0347	0.7066	0.086
Mof_C 	C 	0.1747	0.947	0.6993	-0.141
Mof_H 	H 	0.1949	0.9161	0.7184	0.083
Mof_C 	C 	0.1514	0.9029	0.6638	0.091
Mof_H 	H 	0.157	0.8427	0.6579	-0.059
Mof_N 	N 	0.3339	0.9699	0.8906	-0.279
Mof_C 	C 	0.3092	0.9249	0.8605	0.075
Mof_H 	H 	0.3128	0.8623	0.8586	-0.006
Mof_C 	C 	0.2786	0.9625	0.8317	-0.118
Mof_H 	H 	0.2617	0.9261	0.8111	0.089
Mof_C 	C 	0.2727	0.054	0.833	0.047
Mof_C 	C 	0.2981	0.1027	0.8645	-0.111
Mof_H 	H 	0.2952	0.1653	0.8675	0.103
Mof_C 	C 	0.3283	0.0561	0.8921	0.066
Mof_H 	H 	0.3459	0.0898	0.9132	0.025
Mof_N 	N 	0.1851	0.4998	0.7763	-0.275
Mof_C 	C 	0.2158	0.4644	0.8024	0.084
Mof_H 	H 	0.2333	0.5035	0.8206	-0.007
Mof_C 	C 	0.2237	0.3746	0.8048	-0.129
Mof_H 	H 	0.2459	0.3529	0.8245	0.093
Mof_C 	C 	0.1994	0.3172	0.7787	0.071
Mof_C 	C 	0.1675	0.3534	0.7488	-0.123
Mof_H 	H 	0.1505	0.3161	0.7288	0.096
Mof_C 	C 	0.162	0.443	0.7494	0.077
Mof_H 	H 	0.1403	0.467	0.7296	-0.014
Mof_Zn	Zn	0.87701	0.40932	0.93463	1.163
Mof_Zn	Zn	0.0856	0.1274	0.0877	0.645
Mof_Zn	Zn	0.071	0.89	0.5957	0.573
Mof_Zn	Zn	0.67284	0.13528	0.77398	1.162
Mof_I 	I 	0.89401	0.2666	0.89859	-0.354
Mof_I 	I 	0.8637	0.4286	0.0158	-0.231
Mof_I 	I 	0.85825	0.4068	0.0083	-0.05
Mof_I 	I 	0.12128	0.23907	0.04738	-2.477
Mof_I 	I 	0.1043	0.7643	0.56008	1.95
Mof_I 	I 	0.03297	0.16292	0.12608	5.163
Mof_I 	I 	0.0168	0.8713	0.63485	-5.51
Mof_I 	I 	0.62649	0.16451	0.69874	-0.401
Mof_I 	I 	0.1341	0.6782	0.7119	-0.116
Mof_I 	I 	0.7321	0.2269	0.7983	-0.016
Mof_I 	I 	0.2413	0.7083	0.8135	-0.309
Mof_N 	N 	0.0744	0.7743	0.9353	-0.096
Mof_N 	N 	0.0243	0.7282	0.9698	-0.191
Mof_N 	N 	0.038	0.6448	0.9089	-0.135
Mof_C 	C 	0.0521	0.7848	0.9637	0.116
Mof_C 	C 	0.0175	0.6618	0.9397	0.024
Mof_C 	C 	0.0673	0.701	0.9097	0.134
Mof_N 	N 	0.0685	0.0193	0.0449	-0.329
Mof_C 	C 	0.0918	0.9996	0.0186	0.057
Mof_H 	H 	0.112	0.0395	0.0173	0.026
Mof_C 	C 	0.0879	0.9219	0.9926	-0.064
Mof_H 	H 	0.1061	0.9076	0.9754	0.1
Mof_C 	C 	0.0574	0.8667	0.9922	0.042
Mof_C 	C 	0.032	0.8896	0.0186	-0.063
Mof_H 	H 	0.0103	0.854	0.0186	0.038
Mof_C 	C 	0.0393	0.9661	0.0452	0.014
Mof_H 	H 	0.0226	0.9804	0.0641	0.058
Mof_N 	N 	0.9215	0.495	0.9377	-0.283
Mof_C 	C 	0.9358	0.5061	0.9033	0.069
Mof_H 	H 	0.9233	0.477	0.8767	-0.023
Mof_C 	C 	0.9677	0.5567	0.9011	-0.172
Mof_H 	H 	0.9775	0.5595	0.8748	0.069
Mof_C 	C 	0.9848	0.6035	0.94	-0.012
Mof_C 	C 	0.9692	0.596	0.9762	-0.151
Mof_H 	H 	0.9795	0.6282	0.0027	0.073
Mof_C 	C 	0.938	0.5407	0.9742	0.055
Mof_H 	H 	0.9278	0.535	0.0001	0.017
Mof_N 	N 	0.1409	0.6506	0.8219	-0.271
Mof_C 	C 	0.1506	0.7084	0.8555	0.086
Mof_H 	H 	0.1745	0.7375	0.8598	-0.005
Mof_C 	C 	0.1269	0.7273	0.8841	-0.101
Mof_H 	H 	0.1342	0.7706	0.9069	0.104
Mof_C 	C 	0.0928	0.6832	0.8796	0.094
Mof_C 	C 	0.0839	0.6213	0.8454	-0.102
Mof_H 	H 	0.0609	0.5881	0.8416	0.094
Mof_C 	C 	0.1081	0.6074	0.8167	0.088
Mof_H 	H 	0.1012	0.5661	0.7929	-0.012
Mof_N 	N 	0.7207	0.5468	0.7696	-0.143
Mof_N 	N 	0.736	0.6854	0.8071	-0.134
Mof_N 	N 	0.6827	0.6728	0.7456	-0.127
Mof_C 	C 	0.6926	0.5874	0.7442	0.114
Mof_C 	C 	0.741	0.5973	0.8023	0.096
Mof_C 	C 	0.7063	0.72	0.7779	0.105
Mof_N 	N 	0.6221	0.4414	0.6382	-0.365
Mof_C 	C 	0.6159	0.5261	0.6462	0.106
Mof_H 	H 	0.5941	0.5545	0.6289	-0.006
Mof_C 	C 	0.6397	0.5745	0.6784	-0.131
Mof_H 	H 	0.6358	0.6369	0.6807	0.115
Mof_C 	C 	0.6684	0.5347	0.7066	0.088
Mof_C 	C 	0.6747	0.447	0.6993	-0.142
Mof_H 	H 	0.6949	0.4161	0.7184	0.083
Mof_C 	C 	0.6514	0.4029	0.6638	0.092
Mof_H 	H 	0.657	0.3427	0.6579	-0.059
Mof_N 	N 	0.8339	0.4699	0.8906	-0.279
Mof_C 	C 	0.8092	0.4249	0.8605	0.076
Mof_H 	H 	0.8128	0.3623	0.8586	-0.007
Mof_C 	C 	0.7786	0.4625	0.8317	-0.12
Mof_H 	H 	0.7617	0.4261	0.8111	0.089
Mof_C 	C 	0.7727	0.554	0.833	0.048
Mof_C 	C 	0.7981	0.6027	0.8645	-0.112
Mof_H 	H 	0.7952	0.6653	0.8675	0.104
Mof_C 	C 	0.8283	0.5561	0.8921	0.067
Mof_H 	H 	0.8459	0.5898	0.9132	0.025
Mof_N 	N 	0.6851	0.9998	0.7763	-0.275
Mof_C 	C 	0.7158	0.9644	0.8024	0.086
Mof_H 	H 	0.7333	0.0035	0.8206	-0.008
Mof_C 	C 	0.7237	0.8746	0.8048	-0.129
Mof_H 	H 	0.7459	0.8529	0.8245	0.093
Mof_C 	C 	0.6994	0.8172	0.7787	0.072
Mof_C 	C 	0.6675	0.8534	0.7488	-0.123
Mof_H 	H 	0.6505	0.8161	0.7288	0.096
Mof_C 	C 	0.662	0.943	0.7494	0.077
Mof_H 	H 	0.6403	0.967	0.7296	-0.014
Mof_Zn	Zn	0.62299	0.09068	0.06537	1.163
Mof_Zn	Zn	0.4144	0.3726	0.9123	0.645
Mof_Zn	Zn	0.429	0.61	0.4043	0.572
Mof_Zn	Zn	0.82716	0.36472	0.22602	1.162
Mof_I 	I 	0.60599	0.2334	0.10141	-0.353
Mof_I 	I 	0.6363	0.0714	0.9842	-0.231
Mof_I 	I 	0.64175	0.0932	0.9917	-0.05
Mof_I 	I 	0.37872	0.26093	0.95262	-2.477
Mof_I 	I 	0.3957	0.7357	0.43992	1.951
Mof_I 	I 	0.46703	0.33708	0.87392	5.169
Mof_I 	I 	0.4832	0.6287	0.36515	-5.515
Mof_I 	I 	0.87351	0.33549	0.30126	-0.401
Mof_I 	I 	0.3659	0.8218	0.2881	-0.117
Mof_I 	I 	0.7679	0.2731	0.2017	-0.016
Mof_I 	I 	0.2587	0.7917	0.1865	-0.309
Mof_N 	N 	0.4256	0.7257	0.0647	-0.095
Mof_N 	N 	0.4757	0.7718	0.0302	-0.191
Mof_N 	N 	0.462	0.8552	0.0911	-0.135
Mof_C 	C 	0.4479	0.7152	0.0363	0.116
Mof_C 	C 	0.4825	0.8382	0.0603	0.024
Mof_C 	C 	0.4327	0.799	0.0903	0.134
Mof_N 	N 	0.4315	0.4807	0.9551	-0.33
Mof_C 	C 	0.4082	0.5004	0.9814	0.059
Mof_H 	H 	0.388	0.4605	0.9827	0.025
Mof_C 	C 	0.4121	0.5781	0.0074	-0.065
Mof_H 	H 	0.3939	0.5924	0.0246	0.101
Mof_C 	C 	0.4426	0.6333	0.0078	0.042
Mof_C 	C 	0.468	0.6104	0.9814	-0.064
Mof_H 	H 	0.4897	0.646	0.9814	0.039
Mof_C 	C 	0.4607	0.5339	0.9548	0.015
Mof_H 	H 	0.4774	0.5196	0.9359	0.059
Mof_N 	N 	0.5785	0.005	0.0623	-0.282
Mof_C 	C 	0.5642	0.9939	0.0967	0.066
Mof_H 	H 	0.5767	0.023	0.1233	-0.022
Mof_C 	C 	0.5323	0.9433	0.0989	-0.171
Mof_H 	H 	0.5225	0.9405	0.1252	0.069
Mof_C 	C 	0.5152	0.8965	0.06	-0.012
Mof_C 	C 	0.5308	0.904	0.0238	-0.152
Mof_H 	H 	0.5205	0.8718	0.9973	0.074
Mof_C 	C 	0.562	0.9593	0.0258	0.054
Mof_H 	H 	0.5722	0.965	0.9999	0.018
Mof_N 	N 	0.3591	0.8494	0.1781	-0.271
Mof_C 	C 	0.3494	0.7916	0.1445	0.086
Mof_H 	H 	0.3255	0.7625	0.1402	-0.005
Mof_C 	C 	0.3731	0.7727	0.1159	-0.101
Mof_H 	H 	0.3658	0.7294	0.0931	0.104
Mof_C 	C 	0.4072	0.8168	0.1204	0.094
Mof_C 	C 	0.4161	0.8787	0.1546	-0.102
Mof_H 	H 	0.4391	0.9119	0.1584	0.094
Mof_C 	C 	0.3919	0.8926	0.1833	0.088
Mof_H 	H 	0.3988	0.9339	0.2071	-0.012
Mof_N 	N 	0.7793	0.9532	0.2304	-0.143
Mof_N 	N 	0.764	0.8146	0.1929	-0.134
Mof_N 	N 	0.8173	0.8272	0.2544	-0.127
Mof_C 	C 	0.8074	0.9126	0.2558	0.114
Mof_C 	C 	0.759	0.9027	0.1977	0.097
Mof_C 	C 	0.7937	0.78	0.2221	0.105
Mof_N 	N 	0.8779	0.0586	0.3618	-0.364
Mof_C 	C 	0.8841	0.9739	0.3538	0.105
Mof_H 	H 	0.9059	0.9455	0.3711	-0.006
Mof_C 	C 	0.8603	0.9255	0.3216	-0.13
Mof_H 	H 	0.8642	0.8631	0.3193	0.115
Mof_C 	C 	0.8316	0.9653	0.2934	0.086
Mof_C 	C 	0.8253	0.053	0.3007	-0.141
Mof_H 	H 	0.8051	0.0839	0.2816	0.083
Mof_C 	C 	0.8486	0.0971	0.3362	0.091
Mof_H 	H 	0.843	0.1573	0.3421	-0.059
Mof_N 	N 	0.6661	0.0301	0.1094	-0.279
Mof_C 	C 	0.6908	0.0751	0.1395	0.075
Mof_H 	H 	0.6872	0.1377	0.1414	-0.006
Mof_C 	C 	0.7214	0.0375	0.1683	-0.118
Mof_H 	H 	0.7383	0.0739	0.1889	0.089
Mof_C 	C 	0.7273	0.946	0.167	0.047
Mof_C 	C 	0.7019	0.8973	0.1355	-0.111
Mof_H 	H 	0.7048	0.8347	0.1325	0.103
Mof_C 	C 	0.6717	0.9439	0.1079	0.066
Mof_H 	H 	0.6541	0.9102	0.0868	0.025
Mof_N 	N 	0.8149	0.5002	0.2237	-0.275
Mof_C 	C 	0.7842	0.5356	0.1976	0.084
Mof_H 	H 	0.7667	0.4965	0.1794	-0.007
Mof_C 	C 	0.7763	0.6254	0.1952	-0.129
Mof_H 	H 	0.7541	0.6471	0.1755	0.093
Mof_C 	C 	0.8006	0.6828	0.2213	0.071
Mof_C 	C 	0.8325	0.6466	0.2512	-0.123
Mof_H 	H 	0.8495	0.6839	0.2712	0.096
Mof_C 	C 	0.838	0.557	0.2506	0.077
Mof_H 	H 	0.8597	0.533	0.2704	-0.014
Mof_Zn	Zn	0.12299	0.59068	0.06537	1.163
Mof_Zn	Zn	0.9144	0.8726	0.9123	0.645
Mof_Zn	Zn	0.929	0.11	0.4043	0.573
Mof_Zn	Zn	0.32716	0.86472	0.22602	1.162
Mof_I 	I 	0.10599	0.7334	0.10141	-0.354
Mof_I 	I 	0.1363	0.5714	0.9842	-0.231
Mof_I 	I 	0.14175	0.5932	0.9917	-0.05
Mof_I 	I 	0.87872	0.76093	0.95262	-2.477
Mof_I 	I 	0.8957	0.2357	0.43992	1.95
Mof_I 	I 	0.96703	0.83708	0.87392	5.163
Mof_I 	I 	0.9832	0.1287	0.36515	-5.51
Mof_I 	I 	0.37351	0.83549	0.30126	-0.401
Mof_I 	I 	0.8659	0.3218	0.2881	-0.116
Mof_I 	I 	0.2679	0.7731	0.2017	-0.016
Mof_I 	I 	0.7587	0.2917	0.1865	-0.309
Mof_N 	N 	0.9256	0.2257	0.0647	-0.096
Mof_N 	N 	0.9757	0.2718	0.0302	-0.191
Mof_N 	N 	0.962	0.3552	0.0911	-0.135
Mof_C 	C 	0.9479	0.2152	0.0363	0.116
Mof_C 	C 	0.9825	0.3382	0.0603	0.024
Mof_C 	C 	0.9327	0.299	0.0903	0.134
Mof_N 	N 	0.9315	0.9807	0.9551	-0.329
Mof_C 	C 	0.9082	0.0004	0.9814	0.057
Mof_H 	H 	0.888	0.9605	0.9827	0.026
Mof_C 	C 	0.9121	0.0781	0.0074	-0.064
Mof_H 	H 	0.8939	0.0924	0.0246	0.1
Mof_C 	C 	0.9426	0.1333	0.0078	0.042
Mof_C 	C 	0.968	0.1104	0.9814	-0.063
Mof_H 	H 	0.9897	0.146	0.9814	0.038
Mof_C 	C 	0.9607	0.0339	0.9548	0.014
Mof_H 	H 	0.9774	0.0196	0.9359	0.058
Mof_N 	N 	0.0785	0.505	0.0623	-0.283
Mof_C 	C 	0.0642	0.4939	0.0967	0.069
Mof_H 	H 	0.0767	0.523	0.1233	-0.023
Mof_C 	C 	0.0323	0.4433	0.0989	-0.172
Mof_H 	H 	0.0225	0.4405	0.1252	0.069
Mof_C 	C 	0.0152	0.3965	0.06	-0.012
Mof_C 	C 	0.0308	0.404	0.0238	-0.151
Mof_H 	H 	0.0205	0.3718	0.9973	0.073
Mof_C 	C 	0.062	0.4593	0.0258	0.055
Mof_H 	H 	0.0722	0.465	0.9999	0.017
Mof_N 	N 	0.8591	0.3494	0.1781	-0.271
Mof_C 	C 	0.8494	0.2916	0.1445	0.086
Mof_H 	H 	0.8255	0.2625	0.1402	-0.005
Mof_C 	C 	0.8731	0.2727	0.1159	-0.101
Mof_H 	H 	0.8658	0.2294	0.0931	0.104
Mof_C 	C 	0.9072	0.3168	0.1204	0.094
Mof_C 	C 	0.9161	0.3787	0.1546	-0.102
Mof_H 	H 	0.9391	0.4119	0.1584	0.094
Mof_C 	C 	0.8919	0.3926	0.1833	0.088
Mof_H 	H 	0.8988	0.4339	0.2071	-0.012
Mof_N 	N 	0.2793	0.4532	0.2304	-0.143
Mof_N 	N 	0.264	0.3146	0.1929	-0.134
Mof_N 	N 	0.3173	0.3272	0.2544	-0.127
Mof_C 	C 	0.3074	0.4126	0.2558	0.114
Mof_C 	C 	0.259	0.4027	0.1977	0.096
Mof_C 	C 	0.2937	0.28	0.2221	0.105
Mof_N 	N 	0.3779	0.5586	0.3618	-0.365
Mof_C 	C 	0.3841	0.4739	0.3538	0.106
Mof_H 	H 	0.4059	0.4455	0.3711	-0.006
Mof_C 	C 	0.3603	0.4255	0.3216	-0.131
Mof_H 	H 	0.3642	0.3631	0.3193	0.115
Mof_C 	C 	0.3316	0.4653	0.2934	0.088
Mof_C 	C 	0.3253	0.553	0.3007	-0.142
Mof_H 	H 	0.3051	0.5839	0.2816	0.083
Mof_C 	C 	0.3486	0.5971	0.3362	0.092
Mof_H 	H 	0.343	0.6573	0.3421	-0.059
Mof_N 	N 	0.1661	0.5301	0.1094	-0.279
Mof_C 	C 	0.1908	0.5751	0.1395	0.076
Mof_H 	H 	0.1872	0.6377	0.1414	-0.007
Mof_C 	C 	0.2214	0.5375	0.1683	-0.12
Mof_H 	H 	0.2383	0.5739	0.1889	0.089
Mof_C 	C 	0.2273	0.446	0.167	0.048
Mof_C 	C 	0.2019	0.3973	0.1355	-0.112
Mof_H 	H 	0.2048	0.3347	0.1325	0.104
Mof_C 	C 	0.1717	0.4439	0.1079	0.067
Mof_H 	H 	0.1541	0.4102	0.0868	0.025
Mof_N 	N 	0.3149	0.0002	0.2237	-0.275
Mof_C 	C 	0.2842	0.0356	0.1976	0.086
Mof_H 	H 	0.2667	0.9965	0.1794	-0.008
Mof_C 	C 	0.2763	0.1254	0.1952	-0.129
Mof_H 	H 	0.2541	0.1471	0.1755	0.093
Mof_C 	C 	0.3006	0.1828	0.2213	0.072
Mof_C 	C 	0.3325	0.1466	0.2512	-0.123
Mof_H 	H 	0.3495	0.1839	0.2712	0.096
Mof_C 	C 	0.338	0.057	0.2506	0.077
Mof_H 	H 	0.3597	0.033	0.2704	-0.014
Mof_Zn	Zn	0.62299	0.90932	0.56537	1.163
Mof_Zn	Zn	0.4144	0.6274	0.4123	0.645
Mof_Zn	Zn	0.429	0.39	0.9043	0.572
Mof_Zn	Zn	0.82716	0.63528	0.72602	1.162
Mof_I 	I 	0.60599	0.7666	0.60141	-0.353
Mof_I 	I 	0.6363	0.9286	0.4842	-0.231
Mof_I 	I 	0.64175	0.9068	0.4917	-0.05
Mof_I 	I 	0.37872	0.73907	0.45262	-2.478
Mof_I 	I 	0.3957	0.2643	0.93992	1.951
Mof_I 	I 	0.46703	0.66292	0.37392	5.169
Mof_I 	I 	0.4832	0.3713	0.86515	-5.515
Mof_I 	I 	0.87351	0.66451	0.80126	-0.401
Mof_I 	I 	0.3659	0.1782	0.7881	-0.117
Mof_I 	I 	0.7679	0.7269	0.7017	-0.016
Mof_I 	I 	0.2587	0.2083	0.6865	-0.309
Mof_N 	N 	0.4256	0.2743	0.5647	-0.095
Mof_N 	N 	0.4757	0.2282	0.5302	-0.191
Mof_N 	N 	0.462	0.1448	0.5911	-0.135
Mof_C 	C 	0.4479	0.2848	0.5363	0.116
Mof_C 	C 	0.4825	0.1618	0.5603	0.024
Mof_C 	C 	0.4327	0.201	0.5903	0.134
Mof_N 	N 	0.4315	0.5193	0.4551	-0.33
Mof_C 	C 	0.4082	0.4996	0.4814	0.059
Mof_H 	H 	0.388	0.5395	0.4827	0.025
Mof_C 	C 	0.4121	0.4219	0.5074	-0.065
Mof_H 	H 	0.3939	0.4076	0.5246	0.101
Mof_C 	C 	0.4426	0.3667	0.5078	0.043
Mof_C 	C 	0.468	0.3896	0.4814	-0.064
Mof_H 	H 	0.4897	0.354	0.4814	0.039
Mof_C 	C 	0.4607	0.4661	0.4548	0.015
Mof_H 	H 	0.4774	0.4804	0.4359	0.059
Mof_N 	N 	0.5785	0.995	0.5623	-0.283
Mof_C 	C 	0.5642	0.0061	0.5967	0.067
Mof_H 	H 	0.5767	0.977	0.6233	-0.023
Mof_C 	C 	0.5323	0.0567	0.5989	-0.172
Mof_H 	H 	0.5225	0.0595	0.6252	0.069
Mof_C 	C 	0.5152	0.1035	0.56	-0.012
Mof_C 	C 	0.5308	0.096	0.5238	-0.152
Mof_H 	H 	0.5205	0.1282	0.4973	0.074
Mof_C 	C 	0.562	0.0407	0.5258	0.055
Mof_H 	H 	0.5722	0.035	0.4999	0.018
Mof_N 	N 	0.3591	0.1506	0.6781	-0.271
Mof_C 	C 	0.3494	0.2084	0.6445	0.086
Mof_H 	H 	0.3255	0.2375	0.6402	-0.005
Mof_C 	C 	0.3731	0.2273	0.6159	-0.101
Mof_H 	H 	0.3658	0.2706	0.5931	0.104
Mof_C 	C 	0.4072	0.1832	0.6204	0.094
Mof_C 	C 	0.4161	0.1213	0.6546	-0.102
Mof_H 	H 	0.4391	0.0881	0.6584	0.094
Mof_C 	C 	0.3919	0.1074	0.6833	0.088
Mof_H 	H 	0.3988	0.0661	0.7071	-0.012
Mof_N 	N 	0.7793	0.0468	0.7304	-0.143
Mof_N 	N 	0.764	0.1854	0.6929	-0.134
Mof_N 	N 	0.8173	0.1728	0.7544	-0.127
Mof_C 	C 	0.8074	0.0874	0.7558	0.114
Mof_C 	C 	0.759	0.0973	0.6977	0.097
Mof_C 	C 	0.7937	0.22	0.7221	0.105
Mof_N 	N 	0.8779	0.9414	0.8618	-0.364
Mof_C 	C 	0.8841	0.0261	0.8538	0.105
Mof_H 	H 	0.9059	0.0545	0.8711	-0.006
Mof_C 	C 	0.8603	0.0745	0.8216	-0.13
Mof_H 	H 	0.8642	0.1369	0.8193	0.115
Mof_C 	C 	0.8316	0.0347	0.7934	0.086
Mof_C 	C 	0.8253	0.947	0.8007	-0.141
Mof_H 	H 	0.8051	0.9161	0.7816	0.083
Mof_C 	C 	0.8486	0.9029	0.8362	0.091
Mof_H 	H 	0.843	0.8427	0.8421	-0.059
Mof_N 	N 	0.6661	0.9699	0.6094	-0.279
Mof_C 	C 	0.6908	0.9249	0.6395	0.075
Mof_H 	H 	0.6872	0.8623	0.6414	-0.006
Mof_C 	C 	0.7214	0.9625	0.6683	-0.119
Mof_H 	H 	0.7383	0.9261	0.6889	0.089
Mof_C 	C 	0.7273	0.054	0.667	0.047
Mof_C 	C 	0.7019	0.1027	0.6355	-0.111
Mof_H 	H 	0.7048	0.1653	0.6325	0.103
Mof_C 	C 	0.6717	0.0561	0.6079	0.067
Mof_H 	H 	0.6541	0.0898	0.5868	0.025
Mof_N 	N 	0.8149	0.4998	0.7237	-0.275
Mof_C 	C 	0.7842	0.4644	0.6976	0.084
Mof_H 	H 	0.7667	0.5035	0.6794	-0.007
Mof_C 	C 	0.7763	0.3746	0.6952	-0.129
Mof_H 	H 	0.7541	0.3529	0.6755	0.093
Mof_C 	C 	0.8006	0.3172	0.7213	0.071
Mof_C 	C 	0.8325	0.3534	0.7512	-0.123
Mof_H 	H 	0.8495	0.3161	0.7712	0.096
Mof_C 	C 	0.838	0.443	0.7506	0.077
Mof_H 	H 	0.8597	0.467	0.7704	-0.014
Mof_Zn	Zn	0.12299	0.40932	0.56537	1.163
Mof_Zn	Zn	0.9144	0.1274	0.4123	0.645
Mof_Zn	Zn	0.929	0.89	0.9043	0.573
Mof_Zn	Zn	0.32716	0.13528	0.72602	1.162
Mof_I 	I 	0.10599	0.2666	0.60141	-0.353
Mof_I 	I 	0.1363	0.4286	0.4842	-0.231
Mof_I 	I 	0.14175	0.4068	0.4917	-0.05
Mof_I 	I 	0.87872	0.23907	0.45262	-2.477
Mof_I 	I 	0.8957	0.7643	0.93992	1.95
Mof_I 	I 	0.96703	0.16292	0.37392	5.163
Mof_I 	I 	0.9832	0.8713	0.86515	-5.51
Mof_I 	I 	0.37351	0.16451	0.80126	-0.401
Mof_I 	I 	0.8659	0.6782	0.7881	-0.116
Mof_I 	I 	0.2679	0.2269	0.7017	-0.016
Mof_I 	I 	0.7587	0.7083	0.6865	-0.309
Mof_N 	N 	0.9256	0.7743	0.5647	-0.096
Mof_N 	N 	0.9757	0.7282	0.5302	-0.191
Mof_N 	N 	0.962	0.6448	0.5911	-0.135
Mof_C 	C 	0.9479	0.7848	0.5363	0.116
Mof_C 	C 	0.9825	0.6618	0.5603	0.024
Mof_C 	C 	0.9327	0.701	0.5903	0.134
Mof_N 	N 	0.9315	0.0193	0.4551	-0.33
Mof_C 	C 	0.9082	0.9996	0.4814	0.059
Mof_H 	H 	0.888	0.0395	0.4827	0.025
Mof_C 	C 	0.9121	0.9219	0.5074	-0.065
Mof_H 	H 	0.8939	0.9076	0.5246	0.1
Mof_C 	C 	0.9426	0.8667	0.5078	0.042
Mof_C 	C 	0.968	0.8896	0.4814	-0.064
Mof_H 	H 	0.9897	0.854	0.4814	0.038
Mof_C 	C 	0.9607	0.9661	0.4548	0.015
Mof_H 	H 	0.9774	0.9804	0.4359	0.058
Mof_N 	N 	0.0785	0.495	0.5623	-0.283
Mof_C 	C 	0.0642	0.5061	0.5967	0.069
Mof_H 	H 	0.0767	0.477	0.6233	-0.023
Mof_C 	C 	0.0323	0.5567	0.5989	-0.172
Mof_H 	H 	0.0225	0.5595	0.6252	0.069
Mof_C 	C 	0.0152	0.6035	0.56	-0.011
Mof_C 	C 	0.0308	0.596	0.5238	-0.152
Mof_H 	H 	0.0205	0.6282	0.4973	0.074
Mof_C 	C 	0.062	0.5407	0.5258	0.055
Mof_H 	H 	0.0722	0.535	0.4999	0.017
Mof_N 	N 	0.8591	0.6506	0.6781	-0.271
Mof_C 	C 	0.8494	0.7084	0.6445	0.086
Mof_H 	H 	0.8255	0.7375	0.6402	-0.005
Mof_C 	C 	0.8731	0.7273	0.6159	-0.101
Mof_H 	H 	0.8658	0.7706	0.5931	0.104
Mof_C 	C 	0.9072	0.6832	0.6204	0.094
Mof_C 	C 	0.9161	0.6213	0.6546	-0.102
Mof_H 	H 	0.9391	0.5881	0.6584	0.094
Mof_C 	C 	0.8919	0.6074	0.6833	0.088
Mof_H 	H 	0.8988	0.5661	0.7071	-0.012
Mof_N 	N 	0.2793	0.5468	0.7304	-0.143
Mof_N 	N 	0.264	0.6854	0.6929	-0.134
Mof_N 	N 	0.3173	0.6728	0.7544	-0.127
Mof_C 	C 	0.3074	0.5874	0.7558	0.114
Mof_C 	C 	0.259	0.5973	0.6977	0.096
Mof_C 	C 	0.2937	0.72	0.7221	0.105
Mof_N 	N 	0.3779	0.4414	0.8618	-0.365
Mof_C 	C 	0.3841	0.5261	0.8538	0.106
Mof_H 	H 	0.4059	0.5545	0.8711	-0.006
Mof_C 	C 	0.3603	0.5745	0.8216	-0.131
Mof_H 	H 	0.3642	0.6369	0.8193	0.115
Mof_C 	C 	0.3316	0.5347	0.7934	0.088
Mof_C 	C 	0.3253	0.447	0.8007	-0.142
Mof_H 	H 	0.3051	0.4161	0.7816	0.083
Mof_C 	C 	0.3486	0.4029	0.8362	0.092
Mof_H 	H 	0.343	0.3427	0.8421	-0.059
Mof_N 	N 	0.1661	0.4699	0.6094	-0.279
Mof_C 	C 	0.1908	0.4249	0.6395	0.076
Mof_H 	H 	0.1872	0.3623	0.6414	-0.007
Mof_C 	C 	0.2214	0.4625	0.6683	-0.12
Mof_H 	H 	0.2383	0.4261	0.6889	0.089
Mof_C 	C 	0.2273	0.554	0.667	0.048
Mof_C 	C 	0.2019	0.6027	0.6355	-0.112
Mof_H 	H 	0.2048	0.6653	0.6325	0.104
Mof_C 	C 	0.1717	0.5561	0.6079	0.067
Mof_H 	H 	0.1541	0.5898	0.5868	0.025
Mof_N 	N 	0.3149	0.9998	0.7237	-0.275
Mof_C 	C 	0.2842	0.9644	0.6976	0.085
Mof_H 	H 	0.2667	0.0035	0.6794	-0.007
Mof_C 	C 	0.2763	0.8746	0.6952	-0.129
Mof_H 	H 	0.2541	0.8529	0.6755	0.093
Mof_C 	C 	0.3006	0.8172	0.7213	0.072
Mof_C 	C 	0.3325	0.8534	0.7512	-0.123
Mof_H 	H 	0.3495	0.8161	0.7712	0.096
Mof_C 	C 	0.338	0.943	0.7506	0.077
Mof_H 	H 	0.3597	0.967	0.7704	-0.014
_end
