data_functionalizedCrystal
_audit_creation_method	'EQeq! by Chris Wilmer'
_symmetry_space_group_name_H-M	'P1'
_symmetry_Int_Tables_number	1
_symmetry_cell_setting	triclinic
loop_
_symmetry_equiv_pos_as_xyz
  x,y,z
_cell_length_a	20.264
_cell_length_b	19.64
_cell_length_c	5.9757
_cell_angle_alpha	90
_cell_angle_beta	113.84
_cell_angle_gamma	90
loop_
_atom_site_label
_atom_site_type_symbol
_atom_site_fract_x
_atom_site_fract_y
_atom_site_fract_z
_atom_site_charge
Mof_N 	N 	0.6033	0.0441	0.134	-0.302
Mof_H 	H 	0.617	0.0588	0.289	0.075
Mof_H 	H 	0.6366	0.0151	0.1256	0.067
Mof_N 	N 	0.64	0.2091	0.879	-0.25
Mof_H 	H 	0.61	0.2392	0.9026	0.088
Mof_H 	H 	0.6222	0.1965	0.7211	0.077
Mof_N 	N 	0.8518	0.1998	0.624	-0.297
Mof_H 	H 	0.8859	0.2275	0.6131	0.093
Mof_H 	H 	0.8659	0.1858	0.7796	0.094
Mof_N 	N 	0.9015	0.0516	0.3769	-0.263
Mof_H 	H 	0.8902	0.0683	0.2256	0.069
Mof_H 	H 	0.866	0.0233	0.3728	0.068
Mof_C 	C 	0.5902	0.1005	0.963	0.064
Mof_H 	H 	0.5472	0.1248	0.9504	-0.02
Mof_H 	H 	0.582	0.0828	0.8025	-0.043
Mof_C 	C 	0.6532	0.149	0.045	-0.147
Mof_H 	H 	0.6628	0.1648	0.209	0.013
Mof_H 	H 	0.6957	0.125	0.0509	0.019
Mof_C 	C 	0.8383	0.1423	0.458	-0.009
Mof_H 	H 	0.824	0.1572	0.2902	-0.026
Mof_H 	H 	0.8015	0.1125	0.468	-0.013
Mof_C 	C 	0.911	0.1079	0.554	-0.077
Mof_H 	H 	0.9483	0.1392	0.5562	0.032
Mof_H 	H 	0.9234	0.0904	0.7175	0.019
Mof_N 	N 	0.1033	0.5441	0.134	-0.308
Mof_H 	H 	0.117	0.5588	0.289	0.08
Mof_H 	H 	0.1366	0.5151	0.1256	0.081
Mof_N 	N 	0.14	0.7091	0.879	-0.248
Mof_H 	H 	0.11	0.7392	0.9026	0.082
Mof_H 	H 	0.1222	0.6965	0.7211	0.073
Mof_N 	N 	0.3518	0.6998	0.624	-0.292
Mof_H 	H 	0.3859	0.7275	0.6131	0.088
Mof_H 	H 	0.3659	0.6858	0.7796	0.09
Mof_N 	N 	0.4015	0.5516	0.3769	-0.286
Mof_H 	H 	0.3902	0.5683	0.2256	0.068
Mof_H 	H 	0.366	0.5233	0.3728	0.078
Mof_C 	C 	0.0902	0.6005	0.963	0.077
Mof_H 	H 	0.0472	0.6248	0.9504	-0.034
Mof_H 	H 	0.082	0.5828	0.8025	-0.046
Mof_C 	C 	0.1532	0.649	0.045	-0.157
Mof_H 	H 	0.1628	0.6648	0.209	0.016
Mof_H 	H 	0.1957	0.625	0.0509	0.025
Mof_C 	C 	0.3383	0.6423	0.458	-0.023
Mof_H 	H 	0.324	0.6572	0.2902	-0.022
Mof_H 	H 	0.3015	0.6125	0.468	-0.005
Mof_C 	C 	0.411	0.6079	0.554	-0.056
Mof_H 	H 	0.4483	0.6392	0.5562	0.009
Mof_H 	H 	0.4234	0.5904	0.7175	-0.003
Mof_N 	N 	0.3967	0.0441	0.366	-0.28
Mof_H 	H 	0.383	0.0588	0.211	0.063
Mof_H 	H 	0.3634	0.0151	0.3744	0.066
Mof_N 	N 	0.36	0.2091	0.621	-0.286
Mof_H 	H 	0.39	0.2392	0.5974	0.086
Mof_H 	H 	0.3778	0.1965	0.7789	0.09
Mof_N 	N 	0.1482	0.1998	0.876	-0.252
Mof_H 	H 	0.1141	0.2275	0.8869	0.081
Mof_H 	H 	0.1341	0.1858	0.7204	0.072
Mof_N 	N 	0.0985	0.0516	0.1231	-0.296
Mof_H 	H 	0.1098	0.0683	0.2744	0.072
Mof_H 	H 	0.134	0.0233	0.1272	0.067
Mof_C 	C 	0.4098	0.1005	0.537	-0.05
Mof_H 	H 	0.4528	0.1248	0.5496	0.004
Mof_H 	H 	0.418	0.0828	0.6975	-0.006
Mof_C 	C 	0.3468	0.149	0.455	-0.038
Mof_H 	H 	0.3372	0.1648	0.291	-0.016
Mof_H 	H 	0.3043	0.125	0.4491	-0.006
Mof_C 	C 	0.1617	0.1423	0.042	-0.132
Mof_H 	H 	0.176	0.1572	0.2098	0.008
Mof_H 	H 	0.1985	0.1125	0.032	0.016
Mof_C 	C 	0.089	0.1079	0.946	0.053
Mof_H 	H 	0.0517	0.1392	0.9438	-0.022
Mof_H 	H 	0.0766	0.0904	0.7825	-0.041
Mof_N 	N 	0.8967	0.5441	0.366	-0.273
Mof_H 	H 	0.883	0.5588	0.211	0.075
Mof_H 	H 	0.8634	0.5151	0.3744	0.082
Mof_N 	N 	0.86	0.7091	0.621	-0.29
Mof_H 	H 	0.89	0.7392	0.5974	0.094
Mof_H 	H 	0.8778	0.6965	0.7789	0.096
Mof_N 	N 	0.6482	0.6998	0.876	-0.254
Mof_H 	H 	0.6141	0.7275	0.8869	0.087
Mof_H 	H 	0.6341	0.6858	0.7204	0.076
Mof_N 	N 	0.5985	0.5516	0.1231	-0.308
Mof_H 	H 	0.6098	0.5683	0.2744	0.078
Mof_H 	H 	0.634	0.5233	0.1272	0.079
Mof_C 	C 	0.9098	0.6005	0.537	-0.06
Mof_H 	H 	0.9528	0.6248	0.5496	0.022
Mof_H 	H 	0.918	0.5828	0.6975	0.012
Mof_C 	C 	0.8468	0.649	0.455	-0.03
Mof_H 	H 	0.8372	0.6648	0.291	-0.016
Mof_H 	H 	0.8043	0.625	0.4491	-0.005
Mof_C 	C 	0.6617	0.6423	0.042	-0.135
Mof_H 	H 	0.676	0.6572	0.2098	0.01
Mof_H 	H 	0.6985	0.6125	0.032	0.02
Mof_C 	C 	0.589	0.6079	0.946	0.057
Mof_H 	H 	0.5517	0.6392	0.9438	-0.015
Mof_H 	H 	0.5766	0.5904	0.7825	-0.041
Mof_N 	N 	0.3967	0.9559	0.866	-0.247
Mof_H 	H 	0.383	0.9412	0.711	0.087
Mof_H 	H 	0.3634	0.9849	0.8744	0.105
Mof_N 	N 	0.36	0.7909	0.121	-0.301
Mof_H 	H 	0.39	0.7608	0.0974	0.078
Mof_H 	H 	0.3778	0.8035	0.2789	0.084
Mof_N 	N 	0.1482	0.8002	0.376	-0.282
Mof_H 	H 	0.1141	0.7725	0.3869	0.075
Mof_H 	H 	0.1341	0.8142	0.2204	0.07
Mof_N 	N 	0.0985	0.9484	0.6231	-0.28
Mof_H 	H 	0.1098	0.9317	0.7744	0.096
Mof_H 	H 	0.134	0.9767	0.6272	0.104
Mof_C 	C 	0.4098	0.8995	0.037	-0.137
Mof_H 	H 	0.4528	0.8752	0.0496	0.025
Mof_H 	H 	0.418	0.9172	0.1975	0.023
Mof_C 	C 	0.3468	0.851	0.955	0.051
Mof_H 	H 	0.3372	0.8352	0.791	-0.034
Mof_H 	H 	0.3043	0.875	0.9491	-0.013
Mof_C 	C 	0.1617	0.8577	0.542	-0.048
Mof_H 	H 	0.176	0.8428	0.7098	-0.003
Mof_H 	H 	0.1985	0.8875	0.532	0.009
Mof_C 	C 	0.089	0.8921	0.446	-0.033
Mof_H 	H 	0.0517	0.8608	0.4438	-0.004
Mof_H 	H 	0.0766	0.9096	0.2825	-0.007
Mof_N 	N 	0.8967	0.4559	0.866	-0.243
Mof_H 	H 	0.883	0.4412	0.711	0.08
Mof_H 	H 	0.8634	0.4849	0.8744	0.089
Mof_N 	N 	0.86	0.2909	0.121	-0.304
Mof_H 	H 	0.89	0.2608	0.0974	0.085
Mof_H 	H 	0.8778	0.3035	0.2789	0.088
Mof_N 	N 	0.6482	0.3002	0.376	-0.284
Mof_H 	H 	0.6141	0.2725	0.3869	0.079
Mof_H 	H 	0.6341	0.3142	0.2204	0.07
Mof_N 	N 	0.5985	0.4484	0.6231	-0.294
Mof_H 	H 	0.6098	0.4317	0.7744	0.087
Mof_H 	H 	0.634	0.4767	0.6272	0.087
Mof_C 	C 	0.9098	0.3995	0.037	-0.148
Mof_H 	H 	0.9528	0.3752	0.0496	0.04
Mof_H 	H 	0.918	0.4172	0.1975	0.026
Mof_C 	C 	0.8468	0.351	0.955	0.059
Mof_H 	H 	0.8372	0.3352	0.791	-0.036
Mof_H 	H 	0.8043	0.375	0.9491	-0.019
Mof_C 	C 	0.6617	0.3577	0.542	-0.042
Mof_H 	H 	0.676	0.3428	0.7098	-0.005
Mof_H 	H 	0.6985	0.3875	0.532	0.002
Mof_C 	C 	0.589	0.3921	0.446	-0.038
Mof_H 	H 	0.5517	0.3608	0.4438	0.002
Mof_H 	H 	0.5766	0.4096	0.2825	-0.019
Mof_N 	N 	0.6033	0.9559	0.634	-0.286
Mof_H 	H 	0.617	0.9412	0.789	0.101
Mof_H 	H 	0.6366	0.9849	0.6256	0.106
Mof_N 	N 	0.64	0.7909	0.379	-0.279
Mof_H 	H 	0.61	0.7608	0.4026	0.08
Mof_H 	H 	0.6222	0.8035	0.2211	0.074
Mof_N 	N 	0.8518	0.8002	0.124	-0.311
Mof_H 	H 	0.8859	0.7725	0.1131	0.086
Mof_H 	H 	0.8659	0.8142	0.2796	0.088
Mof_N 	N 	0.9015	0.9484	0.8769	-0.233
Mof_H 	H 	0.8902	0.9317	0.7256	0.089
Mof_H 	H 	0.866	0.9767	0.8728	0.103
Mof_C 	C 	0.5902	0.8995	0.463	-0.027
Mof_H 	H 	0.5472	0.8752	0.4504	-0
Mof_H 	H 	0.582	0.9172	0.3025	-0.007
Mof_C 	C 	0.6532	0.851	0.545	-0.06
Mof_H 	H 	0.6628	0.8352	0.709	0.002
Mof_H 	H 	0.6957	0.875	0.5509	0.009
Mof_C 	C 	0.8383	0.8577	0.958	0.077
Mof_H 	H 	0.824	0.8428	0.7902	-0.043
Mof_H 	H 	0.8015	0.8875	0.968	-0.018
Mof_C 	C 	0.911	0.8921	0.054	-0.158
Mof_H 	H 	0.9483	0.8608	0.0562	0.05
Mof_H 	H 	0.9234	0.9096	0.2175	0.044
Mof_N 	N 	0.1033	0.4559	0.634	-0.292
Mof_H 	H 	0.117	0.4412	0.789	0.089
Mof_H 	H 	0.1366	0.4849	0.6256	0.089
Mof_N 	N 	0.14	0.2909	0.379	-0.275
Mof_H 	H 	0.11	0.2608	0.4026	0.074
Mof_H 	H 	0.1222	0.3035	0.2211	0.068
Mof_N 	N 	0.3518	0.3002	0.124	-0.308
Mof_H 	H 	0.3859	0.2725	0.1131	0.079
Mof_H 	H 	0.3659	0.3142	0.2796	0.081
Mof_N 	N 	0.4015	0.4484	0.8769	-0.255
Mof_H 	H 	0.3902	0.4317	0.7256	0.073
Mof_H 	H 	0.366	0.4767	0.8728	0.085
Mof_C 	C 	0.0902	0.3995	0.463	-0.017
Mof_H 	H 	0.0472	0.3752	0.4504	-0.019
Mof_H 	H 	0.082	0.4172	0.3025	-0.025
Mof_C 	C 	0.1532	0.351	0.545	-0.068
Mof_H 	H 	0.1628	0.3352	0.709	0.003
Mof_H 	H 	0.1957	0.375	0.5509	0.008
Mof_C 	C 	0.3383	0.3577	0.958	0.074
Mof_H 	H 	0.324	0.3428	0.7902	-0.044
Mof_H 	H 	0.3015	0.3875	0.968	-0.022
Mof_C 	C 	0.411	0.3921	0.054	-0.149
Mof_H 	H 	0.4483	0.3608	0.0562	0.027
Mof_H 	H 	0.4234	0.4096	0.2175	0.012
Mof_Ag	Ag	0.5	0	-0	0.268
Mof_Ag	Ag	-0	0.5	-0	0.27
Mof_Ag	Ag	0.5	0	0.5	0.351
Mof_Ag	Ag	1.30655e-17	0.5	0.5	0.351
Mof_Ag	Ag	0.75	0.25	-0	0.292
Mof_Ag	Ag	0.25	0.25	0.5	0.371
Mof_Ag	Ag	0.25	0.75	-0	0.293
Mof_Ag	Ag	0.75	0.75	0.5	0.375
Mof_Ag	Ag	0.75	0.25	0.5	0.393
Mof_Ag	Ag	0.25	0.25	-0	0.309
Mof_Ag	Ag	0.25	0.75	0.5	0.394
Mof_Ag	Ag	0.75	0.75	-0	0.315
Mof_Ag	Ag	7.76282e-34	0	0.5	0.297
Mof_Ag	Ag	0.5	0.5	0.5	0.4
Mof_Ag	Ag	-0	0	-0	0.218
Mof_Ag	Ag	0.5	0.5	-0	0.316
_end
