data_functionalizedCrystal
_audit_creation_method	'EQeq! by Chris Wilmer'
_symmetry_space_group_name_H-M	'P1'
_symmetry_Int_Tables_number	1
_symmetry_cell_setting	triclinic
loop_
_symmetry_equiv_pos_as_xyz
  x,y,z
_cell_length_a	26.2911
_cell_length_b	13.5761
_cell_length_c	6.762
_cell_angle_alpha	90
_cell_angle_beta	92.443
_cell_angle_gamma	90
loop_
_atom_site_label
_atom_site_type_symbol
_atom_site_fract_x
_atom_site_fract_y
_atom_site_fract_z
_atom_site_charge
Mof_Tb	Tb	0.89641	0.19315	0.98843	1.748
Mof_C 	C 	0.8216	0.5471	0.9309	0.095
Mof_H 	H 	0.8569	0.551	0.9483	0.015
Mof_C 	C 	0.7995	0.4548	0.9331	-0.144
Mof_C 	C 	0.7466	0.4487	0.9107	0.122
Mof_H 	H 	0.7303	0.3879	0.9104	-0.007
Mof_C 	C 	0.71864	0.5355	0.8888	-0.22
Mof_C 	C 	0.7449	0.6243	0.8846	0.124
Mof_H 	H 	0.7262	0.682	0.8663	0.007
Mof_C 	C 	0.8322	0.3646	0.955	0.33
Mof_C 	C 	0.6614	0.5362	0.8646	0.503
Mof_N 	N 	0.79571	0.6312	0.9056	-0.152
Mof_O 	O 	0.87857	0.3753	0.0073	-0.405
Mof_O 	O 	0.8132	0.2808	0.9228	-0.403
Mof_O 	O 	0.63805	0.4597	0.9041	-0.517
Mof_O 	O 	0.64042	0.6155	0.8091	-0.499
Mof_O 	O 	0.95545	0.1398	0.2907	-0.428
Mof_O 	O 	0.98452	0.2605	0.0781	-0.431
Mof_Tb	Tb	0.39641	0.69315	0.98843	1.747
Mof_C 	C 	0.3216	0.0471	0.9309	0.094
Mof_H 	H 	0.3569	0.051	0.9483	0.013
Mof_C 	C 	0.2995	0.9548	0.9331	-0.145
Mof_C 	C 	0.2466	0.9487	0.9107	0.124
Mof_H 	H 	0.2303	0.8879	0.9104	-0.006
Mof_C 	C 	0.21864	0.0355	0.8888	-0.221
Mof_C 	C 	0.2449	0.1243	0.8846	0.124
Mof_H 	H 	0.2262	0.182	0.8663	0.007
Mof_C 	C 	0.3322	0.8646	0.955	0.334
Mof_C 	C 	0.1614	0.0362	0.8646	0.5
Mof_N 	N 	0.29571	0.1312	0.9056	-0.152
Mof_O 	O 	0.37857	0.8753	0.0073	-0.412
Mof_O 	O 	0.3132	0.7808	0.9228	-0.403
Mof_O 	O 	0.13805	0.9597	0.9041	-0.514
Mof_O 	O 	0.14042	0.1155	0.8091	-0.499
Mof_O 	O 	0.45545	0.6398	0.2907	-0.467
Mof_O 	O 	0.48452	0.7605	0.0781	-0.476
Mof_Tb	Tb	0.10359	0.19315	0.51157	1.731
Mof_C 	C 	0.1784	0.5471	0.5691	0.098
Mof_H 	H 	0.1431	0.551	0.5517	0.01
Mof_C 	C 	0.2005	0.4548	0.5669	-0.148
Mof_C 	C 	0.2534	0.4487	0.5893	0.124
Mof_H 	H 	0.2697	0.3879	0.5896	-0.007
Mof_C 	C 	0.28136	0.5355	0.6112	-0.221
Mof_C 	C 	0.2551	0.6243	0.6154	0.125
Mof_H 	H 	0.2738	0.682	0.6337	0.007
Mof_C 	C 	0.1678	0.3646	0.545	0.334
Mof_C 	C 	0.3386	0.5362	0.6354	0.503
Mof_N 	N 	0.20429	0.6312	0.5944	-0.153
Mof_O 	O 	0.12143	0.3753	0.4927	-0.415
Mof_O 	O 	0.1868	0.2808	0.5772	-0.403
Mof_O 	O 	0.36195	0.4597	0.5959	-0.517
Mof_O 	O 	0.35958	0.6155	0.6909	-0.499
Mof_O 	O 	0.04455	0.1398	0.2093	-0.457
Mof_O 	O 	0.01548	0.2605	0.4219	-0.472
Mof_Tb	Tb	0.60359	0.69315	0.51157	1.746
Mof_C 	C 	0.6784	0.0471	0.5691	0.096
Mof_H 	H 	0.6431	0.051	0.5517	0.013
Mof_C 	C 	0.7005	0.9548	0.5669	-0.146
Mof_C 	C 	0.7534	0.9487	0.5893	0.124
Mof_H 	H 	0.7697	0.8879	0.5896	-0.007
Mof_C 	C 	0.78136	0.0355	0.6112	-0.221
Mof_C 	C 	0.7551	0.1243	0.6154	0.125
Mof_H 	H 	0.7738	0.182	0.6337	0.007
Mof_C 	C 	0.6678	0.8646	0.545	0.334
Mof_C 	C 	0.8386	0.0362	0.6354	0.503
Mof_N 	N 	0.70429	0.1312	0.5944	-0.153
Mof_O 	O 	0.62143	0.8753	0.4927	-0.412
Mof_O 	O 	0.6868	0.7808	0.5772	-0.403
Mof_O 	O 	0.86195	0.9597	0.5959	-0.517
Mof_O 	O 	0.85958	0.1155	0.6909	-0.498
Mof_O 	O 	0.54455	0.6398	0.2093	-0.467
Mof_O 	O 	0.51548	0.7605	0.4219	-0.477
Mof_Tb	Tb	0.10359	0.80685	0.01157	1.724
Mof_C 	C 	0.1784	0.4529	0.0691	0.097
Mof_H 	H 	0.1431	0.449	0.0517	0.01
Mof_C 	C 	0.2005	0.5452	0.0669	-0.147
Mof_C 	C 	0.2534	0.5513	0.0893	0.123
Mof_H 	H 	0.2697	0.6121	0.0896	-0.007
Mof_C 	C 	0.28136	0.4645	0.1112	-0.221
Mof_C 	C 	0.2551	0.3757	0.1154	0.125
Mof_H 	H 	0.2738	0.318	0.1337	0.007
Mof_C 	C 	0.1678	0.6354	0.045	0.332
Mof_C 	C 	0.3386	0.4638	0.1354	0.503
Mof_N 	N 	0.20429	0.3688	0.0944	-0.153
Mof_O 	O 	0.12143	0.6247	0.9927	-0.411
Mof_O 	O 	0.1868	0.7192	0.0772	-0.402
Mof_O 	O 	0.36195	0.5403	0.0959	-0.517
Mof_O 	O 	0.35958	0.3845	0.1909	-0.499
Mof_O 	O 	0.04455	0.8602	0.7093	-0.457
Mof_O 	O 	0.01548	0.7395	0.9219	-0.47
Mof_Tb	Tb	0.60359	0.30685	0.01157	1.747
Mof_C 	C 	0.6784	0.9529	0.0691	0.094
Mof_H 	H 	0.6431	0.949	0.0517	0.013
Mof_C 	C 	0.7005	0.0452	0.0669	-0.145
Mof_C 	C 	0.7534	0.0513	0.0893	0.124
Mof_H 	H 	0.7697	0.1121	0.0896	-0.007
Mof_C 	C 	0.78136	0.9645	0.1112	-0.222
Mof_C 	C 	0.7551	0.8757	0.1154	0.125
Mof_H 	H 	0.7738	0.818	0.1337	0.007
Mof_C 	C 	0.6678	0.1354	0.045	0.334
Mof_C 	C 	0.8386	0.9638	0.1354	0.501
Mof_N 	N 	0.70429	0.8688	0.0944	-0.152
Mof_O 	O 	0.62143	0.1247	0.9927	-0.412
Mof_O 	O 	0.6868	0.2192	0.0772	-0.403
Mof_O 	O 	0.86195	0.0403	0.0959	-0.514
Mof_O 	O 	0.85958	0.8845	0.1909	-0.498
Mof_O 	O 	0.54455	0.3602	0.7093	-0.467
Mof_O 	O 	0.51548	0.2395	0.9219	-0.476
Mof_Tb	Tb	0.89641	0.80685	0.48843	1.756
Mof_C 	C 	0.8216	0.4529	0.4309	0.095
Mof_H 	H 	0.8569	0.449	0.4483	0.015
Mof_C 	C 	0.7995	0.5452	0.4331	-0.145
Mof_C 	C 	0.7466	0.5513	0.4107	0.123
Mof_H 	H 	0.7303	0.6121	0.4104	-0.007
Mof_C 	C 	0.71864	0.4645	0.3888	-0.22
Mof_C 	C 	0.7449	0.3757	0.3846	0.125
Mof_H 	H 	0.7262	0.318	0.3663	0.007
Mof_C 	C 	0.8322	0.6354	0.455	0.333
Mof_C 	C 	0.6614	0.4638	0.3646	0.503
Mof_N 	N 	0.79571	0.3688	0.4056	-0.152
Mof_O 	O 	0.87857	0.6247	0.5073	-0.408
Mof_O 	O 	0.8132	0.7192	0.4228	-0.404
Mof_O 	O 	0.63805	0.5403	0.4041	-0.517
Mof_O 	O 	0.64042	0.3845	0.3091	-0.499
Mof_O 	O 	0.95545	0.8602	0.7907	-0.43
Mof_O 	O 	0.98452	0.7395	0.5781	-0.434
Mof_Tb	Tb	0.39641	0.30685	0.48843	1.747
Mof_C 	C 	0.3216	0.9529	0.4309	0.096
Mof_H 	H 	0.3569	0.949	0.4483	0.013
Mof_C 	C 	0.2995	0.0452	0.4331	-0.146
Mof_C 	C 	0.2466	0.0513	0.4107	0.123
Mof_H 	H 	0.2303	0.1121	0.4104	-0.007
Mof_C 	C 	0.21864	0.9645	0.3888	-0.22
Mof_C 	C 	0.2449	0.8757	0.3846	0.124
Mof_H 	H 	0.2262	0.818	0.3663	0.007
Mof_C 	C 	0.3322	0.1354	0.455	0.334
Mof_C 	C 	0.1614	0.9638	0.3646	0.501
Mof_N 	N 	0.29571	0.8688	0.4056	-0.152
Mof_O 	O 	0.37857	0.1247	0.5073	-0.412
Mof_O 	O 	0.3132	0.2192	0.4228	-0.403
Mof_O 	O 	0.13805	0.0403	0.4041	-0.517
Mof_O 	O 	0.14042	0.8845	0.3091	-0.499
Mof_O 	O 	0.45545	0.3602	0.7907	-0.467
Mof_O 	O 	0.48452	0.2395	0.5781	-0.477
Mof_S 	S 	2.5136e-34	0.20132	0.25	0.618
Mof_S 	S 	0.5	0.70132	0.25	0.708
Mof_S 	S 	7.54081e-34	0.79868	0.75	0.621
Mof_S 	S 	0.5	0.29868	0.75	0.708
_end
