data_functionalizedCrystal
_audit_creation_method	'EQeq! by Chris Wilmer'
_symmetry_space_group_name_H-M	'P1'
_symmetry_Int_Tables_number	1
_symmetry_cell_setting	triclinic
loop_
_symmetry_equiv_pos_as_xyz
  x,y,z
_cell_length_a	13.757
_cell_length_b	20.753
_cell_length_c	7.86
_cell_angle_alpha	90
_cell_angle_beta	91.66
_cell_angle_gamma	90
loop_
_atom_site_label
_atom_site_type_symbol
_atom_site_fract_x
_atom_site_fract_y
_atom_site_fract_z
_atom_site_charge
Mof_Cu	Cu	0.08405	0.51081	0.07707	0.904
Mof_Cu	Cu	0.50302	0.66455	0.53406	0.859
Mof_O 	O 	0.36576	0.66004	0.5056	-0.435
Mof_O 	O 	0.32234	0.75572	0.3944	-0.292
Mof_O 	O 	0.64339	0.82701	0.0763	-0.414
Mof_O 	O 	0.6076	0.72383	0.031	-0.331
Mof_O 	O 	0.86247	0.56571	0.0334	-0.407
Mof_O 	O 	0.12031	0.55995	0.8754	-0.399
Mof_O 	O 	0.00871	0.58525	0.1524	-0.421
Mof_O 	O 	0.9736	0.54508	0.7518	-0.412
Mof_C 	C 	0.3037	0.70234	0.4551	0.339
Mof_C 	C 	0.1994	0.68166	0.477	-0.08
Mof_C 	C 	0.1252	0.70645	0.3711	-0.002
Mof_H 	H 	0.145	0.74	0.285	0.049
Mof_C 	C 	0.0117	0.63523	0.5032	-0.021
Mof_H 	H 	0.955	0.6181	0.507	0.064
Mof_C 	C 	0.0304	0.6822	0.3834	-0.024
Mof_C 	C 	0.9456	0.70602	0.2777	0.134
Mof_C 	C 	0.9175	0.76974	0.2898	-0.221
Mof_H 	H 	0.95	0.7974	0.348	0.134
Mof_C 	C 	0.8291	0.7915	0.2193	0.115
Mof_H 	H 	0.812	0.8316	0.23	0.006
Mof_C 	C 	0.7657	0.74836	0.1408	-0.144
Mof_C 	C 	0.7955	0.6854	0.1202	0.084
Mof_H 	H 	0.754	0.6565	0.0643	0.027
Mof_C 	C 	0.8861	0.66386	0.1808	-0.159
Mof_C 	C 	0.9214	0.59941	0.1215	0.38
Mof_C 	C 	0.0578	0.56863	0.7577	0.352
Mof_C 	C 	0.0839	0.61347	0.6171	-0.078
Mof_C 	C 	0.1785	0.63583	0.5992	0.008
Mof_H 	H 	0.227	0.6247	0.662	0.055
Mof_C 	C 	0.6662	0.7672	0.0756	0.334
Mof_Cu	Cu	0.91595	0.01081	0.42293	0.903
Mof_Cu	Cu	0.49698	0.16455	0.96594	0.859
Mof_O 	O 	0.63424	0.16004	0.9944	-0.435
Mof_O 	O 	0.67766	0.25572	0.1056	-0.292
Mof_O 	O 	0.35661	0.32701	0.4237	-0.414
Mof_O 	O 	0.3924	0.22383	0.469	-0.331
Mof_O 	O 	0.13753	0.06571	0.4666	-0.406
Mof_O 	O 	0.87969	0.05995	0.6246	-0.398
Mof_O 	O 	0.99129	0.08525	0.3476	-0.42
Mof_O 	O 	0.0264	0.04508	0.7482	-0.407
Mof_C 	C 	0.6963	0.20234	0.0449	0.336
Mof_C 	C 	0.8006	0.18166	0.023	-0.074
Mof_C 	C 	0.8748	0.20645	0.1289	-0.008
Mof_H 	H 	0.855	0.24	0.215	0.052
Mof_C 	C 	0.9883	0.13523	0.9968	-0.04
Mof_H 	H 	0.045	0.1181	0.993	0.074
Mof_C 	C 	0.9696	0.1822	0.1166	-0.012
Mof_C 	C 	0.0544	0.20602	0.2223	0.126
Mof_C 	C 	0.0825	0.26974	0.2102	-0.215
Mof_H 	H 	0.05	0.2974	0.152	0.131
Mof_C 	C 	0.1709	0.2915	0.2807	0.109
Mof_H 	H 	0.188	0.3316	0.27	0.007
Mof_C 	C 	0.2343	0.24836	0.3592	-0.142
Mof_C 	C 	0.2045	0.1854	0.3798	0.081
Mof_H 	H 	0.246	0.1565	0.4357	0.028
Mof_C 	C 	0.1139	0.16386	0.3192	-0.156
Mof_C 	C 	0.0786	0.09941	0.3785	0.378
Mof_C 	C 	0.9422	0.06863	0.7423	0.343
Mof_C 	C 	0.9161	0.11347	0.8829	-0.067
Mof_C 	C 	0.8215	0.13583	0.9008	-0.002
Mof_H 	H 	0.773	0.1247	0.838	0.058
Mof_C 	C 	0.3338	0.2672	0.4244	0.332
Mof_Cu	Cu	0.91595	0.48919	0.92293	0.903
Mof_Cu	Cu	0.49698	0.33545	0.46594	0.858
Mof_O 	O 	0.63424	0.33996	0.4944	-0.436
Mof_O 	O 	0.67766	0.24428	0.6056	-0.293
Mof_O 	O 	0.35661	0.17299	0.9237	-0.414
Mof_O 	O 	0.3924	0.27617	0.969	-0.331
Mof_O 	O 	0.13753	0.43429	0.9666	-0.407
Mof_O 	O 	0.87969	0.44005	0.1246	-0.399
Mof_O 	O 	0.99129	0.41475	0.8476	-0.421
Mof_O 	O 	0.0264	0.45492	0.2482	-0.412
Mof_C 	C 	0.6963	0.29766	0.5449	0.339
Mof_C 	C 	0.8006	0.31834	0.523	-0.08
Mof_C 	C 	0.8748	0.29355	0.6289	-0.002
Mof_H 	H 	0.855	0.26	0.715	0.049
Mof_C 	C 	0.9883	0.36477	0.4968	-0.021
Mof_H 	H 	0.045	0.3819	0.493	0.064
Mof_C 	C 	0.9696	0.3178	0.6166	-0.024
Mof_C 	C 	0.0544	0.29398	0.7223	0.134
Mof_C 	C 	0.0825	0.23026	0.7102	-0.221
Mof_H 	H 	0.05	0.2026	0.652	0.134
Mof_C 	C 	0.1709	0.2085	0.7807	0.115
Mof_H 	H 	0.188	0.1684	0.77	0.006
Mof_C 	C 	0.2343	0.25164	0.8592	-0.144
Mof_C 	C 	0.2045	0.3146	0.8798	0.084
Mof_H 	H 	0.246	0.3435	0.9357	0.027
Mof_C 	C 	0.1139	0.33614	0.8192	-0.159
Mof_C 	C 	0.0786	0.40059	0.8785	0.38
Mof_C 	C 	0.9422	0.43137	0.2423	0.352
Mof_C 	C 	0.9161	0.38653	0.3829	-0.078
Mof_C 	C 	0.8215	0.36417	0.4008	0.008
Mof_H 	H 	0.773	0.3753	0.338	0.055
Mof_C 	C 	0.3338	0.2328	0.9244	0.334
Mof_Cu	Cu	0.08405	0.98919	0.57707	0.903
Mof_Cu	Cu	0.50302	0.83545	0.03406	0.859
Mof_O 	O 	0.36576	0.83996	0.0056	-0.435
Mof_O 	O 	0.32234	0.74428	0.8944	-0.292
Mof_O 	O 	0.64339	0.67299	0.5763	-0.414
Mof_O 	O 	0.6076	0.77617	0.531	-0.331
Mof_O 	O 	0.86247	0.93429	0.5334	-0.406
Mof_O 	O 	0.12031	0.94005	0.3754	-0.398
Mof_O 	O 	0.00871	0.91475	0.6524	-0.42
Mof_O 	O 	0.9736	0.95492	0.2518	-0.407
Mof_C 	C 	0.3037	0.79766	0.9551	0.336
Mof_C 	C 	0.1994	0.81834	0.977	-0.074
Mof_C 	C 	0.1252	0.79355	0.8711	-0.008
Mof_H 	H 	0.145	0.76	0.785	0.052
Mof_C 	C 	0.0117	0.86477	0.0032	-0.04
Mof_H 	H 	0.955	0.8819	0.007	0.074
Mof_C 	C 	0.0304	0.8178	0.8834	-0.012
Mof_C 	C 	0.9456	0.79398	0.7777	0.126
Mof_C 	C 	0.9175	0.73026	0.7898	-0.215
Mof_H 	H 	0.95	0.7026	0.848	0.131
Mof_C 	C 	0.8291	0.7085	0.7193	0.109
Mof_H 	H 	0.812	0.6684	0.73	0.007
Mof_C 	C 	0.7657	0.75164	0.6408	-0.142
Mof_C 	C 	0.7955	0.8146	0.6202	0.081
Mof_H 	H 	0.754	0.8435	0.5643	0.028
Mof_C 	C 	0.8861	0.83614	0.6808	-0.156
Mof_C 	C 	0.9214	0.90059	0.6215	0.378
Mof_C 	C 	0.0578	0.93137	0.2577	0.343
Mof_C 	C 	0.0839	0.88653	0.1171	-0.067
Mof_C 	C 	0.1785	0.86417	0.0992	-0.002
Mof_H 	H 	0.227	0.8753	0.162	0.058
Mof_C 	C 	0.6662	0.7328	0.5756	0.332
_end
