data_functionalizedCrystal
_audit_creation_method	'EQeq! by Chris Wilmer'
_symmetry_space_group_name_H-M	'P1'
_symmetry_Int_Tables_number	1
_symmetry_cell_setting	triclinic
loop_
_symmetry_equiv_pos_as_xyz
  x,y,z
_cell_length_a	11.2232
_cell_length_b	11.2232
_cell_length_c	21.255
_cell_angle_alpha	95.806
_cell_angle_beta	95.806
_cell_angle_gamma	106.985
loop_
_atom_site_label
_atom_site_type_symbol
_atom_site_fract_x
_atom_site_fract_y
_atom_site_fract_z
_atom_site_charge
Mof_Mn	Mn	0.00036	0.48284	0.1921	0.804
Mof_Mn	Mn	0.51716	0.99964	0.3079	0.804
Mof_Mn	Mn	0.99964	0.51716	0.8079	0.803
Mof_Mn	Mn	0.48284	0.00036	0.6921	0.803
Mof_Mn	Mn	0.74737	0.25263	0.25	1.024
Mof_Mn	Mn	0.25263	0.74737	0.75	1.024
Mof_H 	H 	0.7565	0.4697	0.4934	0.069
Mof_H 	H 	0.8482	0.4522	0.391	0.058
Mof_H 	H 	0.7674	0.9804	0.0945	0.039
Mof_H 	H 	0.7768	0.844	0.0092	0.065
Mof_H 	H 	0.1051	0.2135	0.0769	0.051
Mof_H 	H 	0.6706	0.5636	0.9225	0.057
Mof_H 	H 	0.7375	0.5089	0.0287	0.05
Mof_H 	H 	0.2187	0.5053	0.3976	0.039
Mof_H 	H 	0.4826	0.4036	0.1473	0.04
Mof_H 	H 	0.5303	0.2435	0.0066	0.071
Mof_H 	H 	0.5478	0.1518	0.109	0.057
Mof_H 	H 	0.0196	0.2326	0.4055	0.039
Mof_H 	H 	0.156	0.2232	0.4908	0.066
Mof_H 	H 	0.7865	0.8949	0.4231	0.05
Mof_H 	H 	0.4364	0.3294	0.5775	0.057
Mof_H 	H 	0.4911	0.2625	0.4713	0.05
Mof_H 	H 	0.4947	0.7813	0.1024	0.038
Mof_H 	H 	0.5964	0.5174	0.3527	0.039
Mof_H 	H 	0.2435	0.5303	0.5066	0.069
Mof_H 	H 	0.1518	0.5478	0.609	0.058
Mof_H 	H 	0.2326	0.0196	0.9055	0.039
Mof_H 	H 	0.2232	0.156	0.9908	0.065
Mof_H 	H 	0.8949	0.7865	0.9231	0.051
Mof_H 	H 	0.3294	0.4364	0.0775	0.057
Mof_H 	H 	0.2625	0.4911	0.9713	0.05
Mof_H 	H 	0.7813	0.4947	0.6024	0.039
Mof_H 	H 	0.5174	0.5964	0.8527	0.04
Mof_H 	H 	0.4697	0.7565	0.9934	0.071
Mof_H 	H 	0.4522	0.8482	0.891	0.057
Mof_H 	H 	0.9804	0.7674	0.5945	0.039
Mof_H 	H 	0.844	0.7768	0.5092	0.066
Mof_H 	H 	0.2135	0.1051	0.5769	0.05
Mof_H 	H 	0.5636	0.6706	0.4225	0.057
Mof_H 	H 	0.5089	0.7375	0.5287	0.05
Mof_H 	H 	0.5053	0.2187	0.8976	0.038
Mof_H 	H 	0.4036	0.4826	0.6473	0.039
Mof_C 	C 	0.9395	0.4881	0.48252	0.026
Mof_C 	C 	0.9505	0.9445	0.98965	0.023
Mof_C 	C 	0.0162	0.4648	0.31263	0.341
Mof_C 	C 	0.8358	0.4836	0.5161	-0.094
Mof_C 	C 	0.9272	0.4698	0.41459	-0.038
Mof_C 	C 	0.8376	0.9994	0.0731	0.02
Mof_C 	C 	0.0283	0.4773	0.38374	-0.084
Mof_C 	C 	0.843	0.9174	0.0224	-0.094
Mof_C 	C 	0.7229	0.4219	0.1395	0.367
Mof_C 	C 	0.9243	0.2041	0.1481	0.388
Mof_C 	C 	0.0399	0.1393	0.063	-0.035
Mof_C 	C 	0.9348	0.1116	0.09377	-0.093
Mof_C 	C 	0.5898	0.5506	0.9332	-0.091
Mof_C 	C 	0.6554	0.4926	0.0378	-0.038
Mof_C 	C 	0.1495	0.5007	0.4189	0.01
Mof_C 	C 	0.5617	0.5113	0.9924	0.019
Mof_C 	C 	0.6263	0.4513	0.0941	-0.09
Mof_C 	C 	0.5022	0.4306	0.1086	0.009
Mof_C 	C 	0.5119	0.0605	0.01748	0.028
Mof_C 	C 	0.0555	0.0495	0.51035	0.023
Mof_C 	C 	0.5352	0.9838	0.18737	0.342
Mof_C 	C 	0.5164	0.1642	0.9839	-0.098
Mof_C 	C 	0.5302	0.0728	0.08541	-0.037
Mof_C 	C 	0.0006	0.1624	0.4269	0.022
Mof_C 	C 	0.5227	0.9717	0.11626	-0.086
Mof_C 	C 	0.0826	0.157	0.4776	-0.095
Mof_C 	C 	0.5781	0.2771	0.3605	0.367
Mof_C 	C 	0.7959	0.0757	0.3519	0.388
Mof_C 	C 	0.8607	0.9601	0.437	-0.032
Mof_C 	C 	0.8884	0.0652	0.40623	-0.096
Mof_C 	C 	0.4494	0.4102	0.5668	-0.091
Mof_C 	C 	0.5074	0.3446	0.4622	-0.038
Mof_C 	C 	0.4993	0.8505	0.0811	0.012
Mof_C 	C 	0.4887	0.4383	0.5076	0.019
Mof_C 	C 	0.5487	0.3737	0.4059	-0.09
Mof_C 	C 	0.5694	0.4978	0.3914	0.009
Mof_C 	C 	0.0605	0.5119	0.51748	0.026
Mof_C 	C 	0.0495	0.0555	0.01035	0.023
Mof_C 	C 	0.9838	0.5352	0.68737	0.341
Mof_C 	C 	0.1642	0.5164	0.4839	-0.094
Mof_C 	C 	0.0728	0.5302	0.58541	-0.038
Mof_C 	C 	0.1624	0.0006	0.9269	0.02
Mof_C 	C 	0.9717	0.5227	0.61626	-0.084
Mof_C 	C 	0.157	0.0826	0.9776	-0.094
Mof_C 	C 	0.2771	0.5781	0.8605	0.367
Mof_C 	C 	0.0757	0.7959	0.8519	0.388
Mof_C 	C 	0.9601	0.8607	0.937	-0.035
Mof_C 	C 	0.0652	0.8884	0.90623	-0.093
Mof_C 	C 	0.4102	0.4494	0.0668	-0.091
Mof_C 	C 	0.3446	0.5074	0.9622	-0.038
Mof_C 	C 	0.8505	0.4993	0.5811	0.01
Mof_C 	C 	0.4383	0.4887	0.0076	0.019
Mof_C 	C 	0.3737	0.5487	0.9059	-0.09
Mof_C 	C 	0.4978	0.5694	0.8914	0.009
Mof_C 	C 	0.4881	0.9395	0.98252	0.028
Mof_C 	C 	0.9445	0.9505	0.48965	0.023
Mof_C 	C 	0.4648	0.0162	0.81263	0.342
Mof_C 	C 	0.4836	0.8358	0.0161	-0.098
Mof_C 	C 	0.4698	0.9272	0.91459	-0.037
Mof_C 	C 	0.9994	0.8376	0.5731	0.022
Mof_C 	C 	0.4773	0.0283	0.88374	-0.086
Mof_C 	C 	0.9174	0.843	0.5224	-0.095
Mof_C 	C 	0.4219	0.7229	0.6395	0.367
Mof_C 	C 	0.2041	0.9243	0.6481	0.388
Mof_C 	C 	0.1393	0.0399	0.563	-0.032
Mof_C 	C 	0.1116	0.9348	0.59377	-0.096
Mof_C 	C 	0.5506	0.5898	0.4332	-0.091
Mof_C 	C 	0.4926	0.6554	0.5378	-0.038
Mof_C 	C 	0.5007	0.1495	0.9189	0.012
Mof_C 	C 	0.5113	0.5617	0.4924	0.019
Mof_C 	C 	0.4513	0.6263	0.5941	-0.09
Mof_C 	C 	0.4306	0.5022	0.6086	0.009
Mof_O 	O 	0.90812	0.42148	0.27969	-0.421
Mof_O 	O 	0.0105	0.3069	0.15941	-0.394
Mof_O 	O 	0.83236	0.17064	0.17776	-0.384
Mof_O 	O 	0.112	0.5052	0.28674	-0.362
Mof_O 	O 	0.8355	0.4579	0.12953	-0.394
Mof_O 	O 	0.6821	0.3605	0.18351	-0.374
Mof_O 	O 	0.57852	0.09188	0.22031	-0.421
Mof_O 	O 	0.6931	0.9895	0.34059	-0.394
Mof_O 	O 	0.82936	0.16764	0.32224	-0.384
Mof_O 	O 	0.4948	0.888	0.21326	-0.362
Mof_O 	O 	0.5421	0.1645	0.37047	-0.395
Mof_O 	O 	0.6395	0.3179	0.31649	-0.374
Mof_O 	O 	0.09188	0.57852	0.72031	-0.421
Mof_O 	O 	0.9895	0.6931	0.84059	-0.394
Mof_O 	O 	0.16764	0.82936	0.82224	-0.384
Mof_O 	O 	0.888	0.4948	0.71326	-0.362
Mof_O 	O 	0.1645	0.5421	0.87047	-0.394
Mof_O 	O 	0.3179	0.6395	0.81649	-0.374
Mof_O 	O 	0.42148	0.90812	0.77969	-0.421
Mof_O 	O 	0.3069	0.0105	0.65941	-0.394
Mof_O 	O 	0.17064	0.83236	0.67776	-0.384
Mof_O 	O 	0.5052	0.112	0.78674	-0.362
Mof_O 	O 	0.4579	0.8355	0.62953	-0.395
Mof_O 	O 	0.3605	0.6821	0.68351	-0.374
_end
