data_functionalizedCrystal
_audit_creation_method	'EQeq! by Chris Wilmer'
_symmetry_space_group_name_H-M	'P1'
_symmetry_Int_Tables_number	1
_symmetry_cell_setting	triclinic
loop_
_symmetry_equiv_pos_as_xyz
  x,y,z
_cell_length_a	9.479
_cell_length_b	9.479
_cell_length_c	16.3869
_cell_angle_alpha	88.6422
_cell_angle_beta	88.6422
_cell_angle_gamma	83.2092
loop_
_atom_site_label
_atom_site_type_symbol
_atom_site_fract_x
_atom_site_fract_y
_atom_site_fract_z
_atom_site_charge
Mof_Zn	Zn	9.11686e-19	0	0.5	0.959
Mof_Zn	Zn	-0	0	-0	0.948
Mof_Cu	Cu	0.13631	0.49227	0.50206	0.723
Mof_Cu	Cu	0.50773	0.86369	0.99794	0.808
Mof_Cu	Cu	0.86369	0.50773	0.49794	0.792
Mof_Cu	Cu	0.49227	0.13631	0.00206	0.706
Mof_Cu	Cu	0.36396	0.63604	0.75	0.736
Mof_Cu	Cu	0.63604	0.36396	0.25	0.732
Mof_Cu	Cu	0.39785	0.60215	0.25	0.736
Mof_Cu	Cu	0.60215	0.39785	0.75	0.74
Mof_C 	C 	0.2825	0.5705	0.6603	-0.422
Mof_C 	C 	0.0421	0.3173	0.5111	-0.49
Mof_C 	C 	0.306	0.5366	0.3399	-0.425
Mof_C 	C 	0.4295	0.7175	0.8397	-0.382
Mof_C 	C 	0.6827	0.9579	0.9889	-0.278
Mof_C 	C 	0.4634	0.694	0.1601	-0.389
Mof_C 	C 	0.7175	0.4295	0.3397	-0.392
Mof_C 	C 	0.9579	0.6827	0.4889	-0.299
Mof_C 	C 	0.694	0.4634	0.6601	-0.378
Mof_C 	C 	0.5705	0.2825	0.1603	-0.433
Mof_C 	C 	0.3173	0.0421	0.0111	-0.512
Mof_C 	C 	0.5366	0.306	0.8399	-0.413
Mof_N 	N 	0.2294	0.5424	0.6022	-0.246
Mof_N 	N 	0.0266	0.2022	0.5145	-0.372
Mof_N 	N 	0.244	0.5156	0.3988	-0.247
Mof_N 	N 	0.4576	0.7706	0.8978	-0.205
Mof_N 	N 	0.7978	0.9734	0.9855	-0.239
Mof_N 	N 	0.4844	0.756	0.1012	-0.223
Mof_N 	N 	0.7706	0.4576	0.3978	-0.212
Mof_N 	N 	0.9734	0.7978	0.4855	-0.249
Mof_N 	N 	0.756	0.4844	0.6012	-0.211
Mof_N 	N 	0.5424	0.2294	0.1022	-0.252
Mof_N 	N 	0.2022	0.0266	0.0145	-0.378
Mof_N 	N 	0.5156	0.244	0.8988	-0.233
_end
