data_functionalizedCrystal
_audit_creation_method	'EQeq! by Chris Wilmer'
_symmetry_space_group_name_H-M	'P1'
_symmetry_Int_Tables_number	1
_symmetry_cell_setting	triclinic
loop_
_symmetry_equiv_pos_as_xyz
  x,y,z
_cell_length_a	34.8299
_cell_length_b	14.9133
_cell_length_c	31.5387
_cell_angle_alpha	90
_cell_angle_beta	102.403
_cell_angle_gamma	90
loop_
_atom_site_label
_atom_site_type_symbol
_atom_site_fract_x
_atom_site_fract_y
_atom_site_fract_z
_atom_site_charge
Mof_Zn	Zn	0.1716	0.3765	0.52205	0.712
Mof_I 	I 	0.23359	0.4669	0.54588	1.107
Mof_I 	I 	0.12596	0.3964	0.44794	-1.019
Mof_I 	I 	0.8576	0.1443	0.7581	-0.082
Mof_I 	I 	0.8937	0.9898	0.6516	-0.285
Mof_Zn	Zn	0.0792	0.617	0.3461	0.6
Mof_I 	I 	0.1132	0.4921	0.3165	-0.093
Mof_I 	I 	0.0177	0.5992	0.37872	-0.363
Mof_Zn	Zn	0.1695	0.0878	0.0185	0.589
Mof_I 	I 	0.1225	0.0675	0.94641	-0.502
Mof_I 	I 	0.2304	0.9929	0.04302	-0.483
Mof_I 	I 	0.3513	0.8142	0.2595	-0.252
Mof_I 	I 	0.39286	0.9737	0.14814	-0.905
Mof_Zn	Zn	0.07682	0.847	0.84698	1.022
Mof_I 	I 	0.11039	0.96853	0.81301	-18.944
Mof_I 	I 	0.01679	0.8646	0.87962	1.34
Mof_Zn	Zn	0.87479	0.13859	0.69006	1.145
Mof_Zn	Zn	0.37369	0.824	0.18948	1.15
Mof_N 	N 	0.1418	0.3915	0.5712	-0.334
Mof_C 	C 	0.1087	0.353	0.5672	0.084
Mof_H 	H 	0.101	0.3123	0.5436	-0.039
Mof_C 	C 	0.0822	0.366	0.5957	-0.138
Mof_H 	H 	0.0569	0.3393	0.5901	0.077
Mof_C 	C 	0.0951	0.4193	0.6313	0.047
Mof_C 	C 	0.1324	0.4607	0.6375	-0.119
Mof_H 	H 	0.1422	0.4982	0.6617	0.05
Mof_C 	C 	0.1532	0.4437	0.6068	0.04
Mof_H 	H 	0.1783	0.4712	0.6105	-0.04
Mof_N 	N 	0.9224	0.2201	0.6926	-0.284
Mof_C 	C 	0.9399	0.226	0.6596	0.088
Mof_H 	H 	0.9301	0.1891	0.6352	-0.029
Mof_C 	C 	0.9706	0.28	0.6574	-0.13
Mof_H 	H 	0.9806	0.283	0.6317	0.082
Mof_C 	C 	0.9871	0.331	0.6931	0.041
Mof_C 	C 	0.9681	0.329	0.7276	-0.116
Mof_H 	H 	0.9774	0.3663	0.7521	0.064
Mof_C 	C 	0.9355	0.2733	0.7273	0.049
Mof_H 	H 	0.9229	0.2732	0.7511	-0.014
Mof_N 	N 	0.0691	0.7442	0.7992	-0.319
Mof_C 	C 	0.0391	0.6931	0.7944	0.172
Mof_H 	H 	0.0196	0.7083	0.8101	-0.035
Mof_C 	C 	0.0323	0.6174	0.7683	-0.225
Mof_H 	H 	0.0093	0.582	0.7668	0.101
Mof_C 	C 	0.059	0.5958	0.7455	0.151
Mof_C 	C 	0.0912	0.6505	0.7485	-0.33
Mof_H 	H 	0.1105	0.6398	0.7319	0.067
Mof_C 	C 	0.0698	0.4343	0.662	0.098
Mof_C 	C 	0.094	0.7231	0.7772	0.297
Mof_H 	H 	0.1167	0.7597	0.7805	-0.456
Mof_N 	N 	0.0411	0.376	0.6623	-0.142
Mof_C 	C 	0.0203	0.3924	0.6922	0.088
Mof_N 	N 	0.026	0.4584	0.7212	-0.146
Mof_C 	C 	0.0543	0.5157	0.7165	0.046
Mof_N 	N 	0.0776	0.5061	0.6882	-0.141
Mof_N 	N 	0.3324	0.7039	0.6451	-0.269
Mof_C 	C 	0.312	0.6607	0.6086	0.037
Mof_H 	H 	0.3188	0.6006	0.6033	0.029
Mof_C 	C 	0.2826	0.7016	0.5801	-0.105
Mof_H 	H 	0.2679	0.6693	0.5561	0.068
Mof_C 	C 	0.2742	0.7895	0.5861	0.02
Mof_C 	C 	0.2951	0.8344	0.6219	-0.124
Mof_H 	H 	0.2896	0.8954	0.6267	0.057
Mof_C 	C 	0.3244	0.789	0.6508	0.057
Mof_H 	H 	0.339	0.8201	0.6753	-0.013
Mof_N 	N 	0.121	0.6826	0.3926	-0.272
Mof_C 	C 	0.1493	0.6425	0.4196	0.069
Mof_H 	H 	0.1534	0.5803	0.4158	-0.036
Mof_C 	C 	0.1742	0.6881	0.4543	-0.137
Mof_H 	H 	0.1954	0.6578	0.4727	0.047
Mof_C 	C 	0.1672	0.7754	0.4606	0.071
Mof_C 	C 	0.1371	0.8185	0.4325	-0.121
Mof_H 	H 	0.1337	0.8816	0.434	0.11
Mof_C 	C 	0.1119	0.7671	0.4019	0.071
Mof_H 	H 	0.0876	0.7921	0.3872	-0.007
Mof_N 	N 	0.1857	0.2397	0.5279	-0.317
Mof_C 	C 	0.1617	0.1841	0.5042	0.045
Mof_H 	H 	0.1392	0.2077	0.4848	-0.011
Mof_C 	C 	0.1668	0.0941	0.5056	-0.084
Mof_H 	H 	0.1479	0.0571	0.4875	0.042
Mof_C 	C 	0.1982	0.0556	0.5322	-0.065
Mof_C 	C 	0.2252	0.1147	0.5581	-0.091
Mof_H 	H 	0.2485	0.0934	0.5768	0.018
Mof_C 	C 	0.2156	0.2093	0.5546	0.021
Mof_H 	H 	0.2322	0.2503	0.5731	-0.025
Mof_C 	C 	0.2422	0.8354	0.5548	0.049
Mof_N 	N 	0.2217	0.7837	0.5222	-0.152
Mof_C 	C 	0.1917	0.8273	0.4966	0.088
Mof_N 	N 	0.1822	0.9135	0.5	-0.128
Mof_C 	C 	0.2066	0.9572	0.5322	0.146
Mof_N 	N 	0.2359	0.9235	0.5613	-0.167
Mof_N 	N 	0.0702	0.7194	0.2994	-0.272
Mof_C 	C 	0.0973	0.7398	0.2763	0.062
Mof_H 	H 	0.1198	0.7024	0.279	-0.031
Mof_C 	C 	0.0936	0.8147	0.2484	-0.123
Mof_H 	H 	0.1133	0.8287	0.2328	0.064
Mof_C 	C 	0.06	0.8675	0.2447	0.065
Mof_C 	C 	0.0309	0.8439	0.2684	-0.132
Mof_H 	H 	0.0076	0.8788	0.2653	0.193
Mof_C 	C 	0.0362	0.7715	0.2955	0.073
Mof_H 	H 	0.017	0.7567	0.3116	-0.01
Mof_N 	N 	0.1409	0.0671	0.0699	-0.325
Mof_C 	C 	0.1051	0.0994	0.0633	0.114
Mof_H 	H 	0.0956	0.1338	0.0379	-0.035
Mof_C 	C 	0.0807	0.0852	0.0919	-0.213
Mof_H 	H 	0.0546	0.1074	0.0852	0.114
Mof_C 	C 	0.0939	0.0401	0.1291	0.16
Mof_C 	C 	0.1317	0.0107	0.1374	-0.334
Mof_H 	H 	0.1425	0.9802	0.1638	0.183
Mof_C 	C 	0.1548	0.026	0.1066	0.151
Mof_H 	H 	0.1813	0.0058	0.1126	-0.09
Mof_N 	N 	0.9231	0.2432	0.1926	-0.259
Mof_C 	C 	0.9383	0.1938	0.2252	0.28
Mof_H 	H 	0.9274	0.1981	0.2503	-0.067
Mof_C 	C 	0.9687	0.1354	0.2266	0.018
Mof_H 	H 	0.9771	0.0971	0.2509	0.186
Mof_C 	C 	0.9865	0.1334	0.193	0.243
Mof_C 	C 	0.9704	0.184	0.1572	-0.034
Mof_H 	H 	0.9799	0.1799	0.1312	0.122
Mof_C 	C 	0.94	0.2422	0.1601	0.219
Mof_H 	H 	0.9311	0.2832	0.137	-0.022
Mof_C 	C 	0.0544	0.9497	0.2167	0.175
Mof_N 	N 	0.0771	0.9572	0.1894	-0.119
Mof_C 	C 	0.069	0.0264	0.1616	0.01
Mof_N 	N 	0.0398	0.0847	0.1608	-0.125
Mof_C 	C 	0.0199	0.0719	0.1917	0.179
Mof_N 	N 	0.0262	0.006	0.2209	-0.103
Mof_N 	N 	0.3326	0.7583	0.1429	-0.274
Mof_C 	C 	0.312	0.8008	0.108	0.053
Mof_H 	H 	0.318	0.8618	0.1035	-0.002
Mof_C 	C 	0.2825	0.7592	0.0781	-0.107
Mof_H 	H 	0.2683	0.7913	0.0537	0.084
Mof_C 	C 	0.2737	0.6695	0.0843	-0.007
Mof_C 	C 	0.2958	0.6264	0.1196	-0.099
Mof_H 	H 	0.292	0.5645	0.1244	-0.211
Mof_C 	C 	0.324	0.676	0.1481	0.123
Mof_H 	H 	0.338	0.6465	0.1735	-0.22
Mof_N 	N 	0.1857	0.2212	0.0286	-0.279
Mof_C 	C 	0.2159	0.2588	0.0556	0.033
Mof_H 	H 	0.2346	0.221	0.0735	-0.067
Mof_C 	C 	0.2213	0.3486	0.0586	-0.09
Mof_H 	H 	0.242	0.3719	0.0805	-0.056
Mof_C 	C 	0.1983	0.4056	0.032	0.004
Mof_C 	C 	0.1664	0.3684	0.0025	-0.086
Mof_H 	H 	0.1487	0.4062	0.9833	0.076
Mof_N 	N 	0.1208	0.7804	0.8917	-0.277
Mof_C 	C 	0.1608	0.2775	0.0013	0.026
Mof_H 	H 	0.1392	0.2529	0.981	0.012
Mof_C 	C 	0.1527	0.8186	0.9164	0.033
Mof_H 	H 	0.1598	0.8772	0.9092	-0.018
Mof_C 	C 	0.1751	0.7769	0.9511	-0.138
Mof_H 	H 	0.1964	0.8078	0.9691	0.074
Mof_C 	C 	0.1667	0.6876	0.9604	0.045
Mof_C 	C 	0.1353	0.6488	0.9325	-0.121
Mof_H 	H 	0.1276	0.5891	0.9373	0.098
Mof_C 	C 	0.2411	0.6246	0.0537	0.083
Mof_C 	C 	0.1151	0.6963	0.8978	0.035
Mof_H 	H 	0.0958	0.6658	0.877	-0.011
Mof_N 	N 	0.2347	0.5391	0.059	-0.187
Mof_C 	C 	0.2046	0.5032	0.0303	0.097
Mof_N 	N 	0.1808	0.5509	0.0004	-0.14
Mof_C 	C 	0.1906	0.6349	0.9969	0.098
Mof_N 	N 	0.221	0.6761	0.0224	-0.147
Mof_Zn	Zn	0.1873	0.3762	0.5364	0.709
Mof_I 	I 	0.2503	0.4521	0.5668	-1.604
Mof_I 	I 	0.1443	0.4187	0.4588	0.531
Mof_I 	I 	0.8505	0.1632	0.7655	-0.385
Mof_I 	I 	0.8853	0.9956	0.6611	0.004
Mof_Zn	Zn	0.0851	0.6155	0.341	0.548
Mof_I 	I 	0.1249	0.5023	0.3072	-0.31
Mof_I 	I 	0.0264	0.5833	0.3709	0.022
Mof_Zn	Zn	0.178	0.0828	0.028	0.62
Mof_I 	I 	0.1377	0.0494	0.9523	0.404
Mof_I 	I 	0.2435	0.0055	0.0576	0.068
Mof_I 	I 	0.37991	0.97242	0.16537	0.542
Mof_I 	I 	0.3537	0.802	0.2621	-0.257
Mof_Zn	Zn	0.092	0.8523	0.8373	1.284
Mof_I 	I 	0.1327	0.959	0.80332	18.195
Mof_I 	I 	0.0323	0.8902	0.8675	-1.245
Mof_Zn	Zn	0.6716	0.8765	0.52205	0.712
Mof_I 	I 	0.73359	0.9669	0.54588	1.109
Mof_I 	I 	0.62596	0.8964	0.44794	-0.993
Mof_I 	I 	0.3576	0.6443	0.7581	-0.07
Mof_I 	I 	0.3937	0.4898	0.6516	-0.325
Mof_Zn	Zn	0.5792	0.117	0.3461	0.594
Mof_I 	I 	0.6132	0.9921	0.3165	-0.547
Mof_I 	I 	0.5177	0.0992	0.37872	-0.381
Mof_Zn	Zn	0.6695	0.5878	0.0185	0.589
Mof_I 	I 	0.6225	0.5675	0.94641	-0.486
Mof_I 	I 	0.7304	0.4929	0.04302	0.014
Mof_I 	I 	0.8513	0.3142	0.2595	-0.264
Mof_I 	I 	0.89286	0.4737	0.14814	-0.913
Mof_Zn	Zn	0.57682	0.347	0.84698	1.024
Mof_I 	I 	0.61039	0.46853	0.81301	-19.102
Mof_I 	I 	0.51679	0.3646	0.87962	1.343
Mof_Zn	Zn	0.37479	0.63859	0.69006	1.156
Mof_Zn	Zn	0.87369	0.324	0.18948	1.149
Mof_N 	N 	0.6418	0.8915	0.5712	-0.33
Mof_C 	C 	0.6087	0.853	0.5672	0.086
Mof_H 	H 	0.601	0.8123	0.5436	-0.034
Mof_C 	C 	0.5822	0.866	0.5957	-0.125
Mof_H 	H 	0.5569	0.8393	0.5901	0.081
Mof_C 	C 	0.5951	0.9193	0.6313	0.038
Mof_C 	C 	0.6324	0.9607	0.6375	-0.104
Mof_H 	H 	0.6422	0.9982	0.6617	0.062
Mof_C 	C 	0.6532	0.9437	0.6068	0.042
Mof_H 	H 	0.6783	0.9712	0.6105	-0.03
Mof_N 	N 	0.4224	0.7201	0.6926	-0.279
Mof_C 	C 	0.4399	0.726	0.6596	0.094
Mof_H 	H 	0.4301	0.6891	0.6352	-0.018
Mof_C 	C 	0.4706	0.78	0.6574	-0.124
Mof_H 	H 	0.4806	0.783	0.6317	0.09
Mof_C 	C 	0.4871	0.831	0.6931	0.049
Mof_C 	C 	0.4681	0.829	0.7276	-0.111
Mof_H 	H 	0.4774	0.8663	0.7521	0.074
Mof_C 	C 	0.4355	0.7733	0.7273	0.057
Mof_H 	H 	0.4229	0.7732	0.7511	-0.011
Mof_N 	N 	0.5691	0.2442	0.7992	-0.321
Mof_C 	C 	0.5391	0.1931	0.7944	0.17
Mof_H 	H 	0.5196	0.2083	0.8101	-0.041
Mof_C 	C 	0.5323	0.1174	0.7683	-0.24
Mof_H 	H 	0.5093	0.082	0.7668	0.089
Mof_C 	C 	0.559	0.0958	0.7455	0.157
Mof_C 	C 	0.5912	0.1505	0.7485	-0.344
Mof_H 	H 	0.6105	0.1398	0.7319	0.056
Mof_C 	C 	0.5698	0.9343	0.662	0.155
Mof_C 	C 	0.594	0.2231	0.7772	0.294
Mof_H 	H 	0.6167	0.2597	0.7805	-0.465
Mof_N 	N 	0.5411	0.876	0.6623	-0.145
Mof_C 	C 	0.5203	0.8924	0.6922	0.101
Mof_N 	N 	0.526	0.9584	0.7212	-0.102
Mof_C 	C 	0.5543	0.0157	0.7165	-0.018
Mof_N 	N 	0.5776	0.0061	0.6882	-0.179
Mof_N 	N 	0.8324	0.2039	0.6451	-0.276
Mof_C 	C 	0.812	0.1607	0.6086	0.031
Mof_H 	H 	0.8188	0.1006	0.6033	0.008
Mof_C 	C 	0.7826	0.2016	0.5801	-0.107
Mof_H 	H 	0.7679	0.1693	0.5561	0.057
Mof_C 	C 	0.7742	0.2895	0.5861	0.013
Mof_C 	C 	0.7951	0.3344	0.6219	-0.125
Mof_H 	H 	0.7896	0.3954	0.6267	0.045
Mof_C 	C 	0.8244	0.289	0.6508	0.049
Mof_H 	H 	0.839	0.3201	0.6753	-0.018
Mof_N 	N 	0.621	0.1826	0.3926	-0.275
Mof_C 	C 	0.6493	0.1425	0.4196	0.062
Mof_H 	H 	0.6534	0.0803	0.4158	-0.052
Mof_C 	C 	0.6742	0.1881	0.4543	-0.139
Mof_H 	H 	0.6954	0.1578	0.4727	0.036
Mof_C 	C 	0.6672	0.2754	0.4606	0.063
Mof_C 	C 	0.6371	0.3185	0.4325	-0.121
Mof_H 	H 	0.6337	0.3816	0.434	0.098
Mof_C 	C 	0.6119	0.2671	0.4019	0.063
Mof_H 	H 	0.5876	0.2921	0.3872	-0.01
Mof_N 	N 	0.6857	0.7397	0.5279	-0.329
Mof_C 	C 	0.6617	0.6841	0.5042	0.082
Mof_H 	H 	0.6392	0.7077	0.4848	-0.018
Mof_C 	C 	0.6668	0.5941	0.5056	-0.14
Mof_H 	H 	0.6479	0.5571	0.4875	0.083
Mof_C 	C 	0.6982	0.5556	0.5322	0.039
Mof_C 	C 	0.7252	0.6147	0.5581	-0.134
Mof_H 	H 	0.7485	0.5934	0.5768	0.051
Mof_C 	C 	0.7156	0.7093	0.5546	0.049
Mof_H 	H 	0.7322	0.7503	0.5731	-0.031
Mof_C 	C 	0.7422	0.3354	0.5548	0.044
Mof_N 	N 	0.7217	0.2837	0.5222	-0.154
Mof_C 	C 	0.6917	0.3273	0.4966	0.083
Mof_N 	N 	0.6822	0.4135	0.5	-0.13
Mof_C 	C 	0.7066	0.4572	0.5322	0.067
Mof_N 	N 	0.7359	0.4235	0.5613	-0.167
Mof_N 	N 	0.5702	0.2194	0.2994	-0.277
Mof_C 	C 	0.5973	0.2398	0.2763	0.065
Mof_H 	H 	0.6198	0.2024	0.279	-0.05
Mof_C 	C 	0.5936	0.3147	0.2484	-0.138
Mof_H 	H 	0.6133	0.3287	0.2328	0.06
Mof_C 	C 	0.56	0.3675	0.2447	0.078
Mof_C 	C 	0.5309	0.3439	0.2684	-0.144
Mof_H 	H 	0.5076	0.3788	0.2653	0.186
Mof_C 	C 	0.5362	0.2715	0.2955	0.076
Mof_H 	H 	0.517	0.2567	0.3116	-0.015
Mof_N 	N 	0.6409	0.5671	0.0699	-0.298
Mof_C 	C 	0.6051	0.5994	0.0633	0.079
Mof_H 	H 	0.5956	0.6338	0.0379	-0.018
Mof_C 	C 	0.5807	0.5852	0.0919	-0.142
Mof_H 	H 	0.5546	0.6074	0.0852	0.098
Mof_C 	C 	0.5939	0.5401	0.1291	0.064
Mof_C 	C 	0.6317	0.5107	0.1374	-0.136
Mof_H 	H 	0.6425	0.4802	0.1638	0.067
Mof_C 	C 	0.6548	0.526	0.1066	0.065
Mof_H 	H 	0.6813	0.5058	0.1126	-0.039
Mof_N 	N 	0.4231	0.7432	0.1926	-0.257
Mof_C 	C 	0.4383	0.6938	0.2252	0.29
Mof_H 	H 	0.4274	0.6981	0.2503	-0.063
Mof_C 	C 	0.4687	0.6354	0.2266	0.019
Mof_H 	H 	0.4771	0.5971	0.2509	0.201
Mof_C 	C 	0.4865	0.6334	0.193	0.253
Mof_C 	C 	0.4704	0.684	0.1572	-0.031
Mof_H 	H 	0.4799	0.6799	0.1312	0.13
Mof_C 	C 	0.44	0.7422	0.1601	0.225
Mof_H 	H 	0.4311	0.7832	0.137	-0.018
Mof_C 	C 	0.5544	0.4497	0.2167	0.113
Mof_N 	N 	0.5771	0.4572	0.1894	-0.156
Mof_C 	C 	0.569	0.5264	0.1616	0.1
Mof_N 	N 	0.5398	0.5847	0.1608	-0.132
Mof_C 	C 	0.5199	0.5719	0.1917	0.193
Mof_N 	N 	0.5262	0.506	0.2209	-0.055
Mof_N 	N 	0.8326	0.2583	0.1429	-0.274
Mof_C 	C 	0.812	0.3008	0.108	0.045
Mof_H 	H 	0.818	0.3618	0.1035	-0.001
Mof_C 	C 	0.7825	0.2592	0.0781	-0.102
Mof_H 	H 	0.7683	0.2913	0.0537	0.074
Mof_C 	C 	0.7737	0.1695	0.0843	-0.016
Mof_C 	C 	0.7958	0.1264	0.1196	-0.098
Mof_H 	H 	0.792	0.0645	0.1244	-0.228
Mof_C 	C 	0.824	0.176	0.1481	0.116
Mof_H 	H 	0.838	0.1465	0.1735	-0.231
Mof_N 	N 	0.6857	0.7212	0.0286	-0.288
Mof_C 	C 	0.7159	0.7588	0.0556	0.068
Mof_H 	H 	0.7346	0.721	0.0735	-0.064
Mof_C 	C 	0.7213	0.8486	0.0586	-0.15
Mof_H 	H 	0.742	0.8719	0.0805	-0.017
Mof_C 	C 	0.6983	0.9056	0.032	0.114
Mof_C 	C 	0.6664	0.8684	0.0025	-0.139
Mof_H 	H 	0.6487	0.9062	0.9833	0.11
Mof_N 	N 	0.6208	0.2804	0.8917	-0.278
Mof_C 	C 	0.6608	0.7775	0.0013	0.058
Mof_H 	H 	0.6392	0.7529	0.981	0.004
Mof_C 	C 	0.6527	0.3186	0.9164	0.021
Mof_H 	H 	0.6598	0.3772	0.9092	-0.033
Mof_C 	C 	0.6751	0.2769	0.9511	-0.138
Mof_H 	H 	0.6964	0.3078	0.9691	0.056
Mof_C 	C 	0.6667	0.1876	0.9604	0.029
Mof_C 	C 	0.6353	0.1488	0.9325	-0.123
Mof_H 	H 	0.6276	0.0891	0.9373	0.076
Mof_C 	C 	0.7411	0.1246	0.0537	0.078
Mof_C 	C 	0.6151	0.1963	0.8978	0.023
Mof_H 	H 	0.5958	0.1658	0.877	-0.02
Mof_N 	N 	0.7347	0.0391	0.059	-0.186
Mof_C 	C 	0.7046	0.0032	0.0303	0.01
Mof_N 	N 	0.6808	0.0509	0.0004	-0.144
Mof_C 	C 	0.6906	0.1349	0.9969	0.087
Mof_N 	N 	0.721	0.1761	0.0224	-0.15
Mof_Zn	Zn	0.6873	0.8762	0.5364	0.709
Mof_I 	I 	0.7503	0.9521	0.5668	-1.561
Mof_I 	I 	0.6443	0.9187	0.4588	0.553
Mof_I 	I 	0.3505	0.6632	0.7655	-0.358
Mof_I 	I 	0.3853	0.4956	0.6611	-0.022
Mof_Zn	Zn	0.5851	0.1155	0.341	0.553
Mof_I 	I 	0.6249	0.0023	0.3072	0.139
Mof_I 	I 	0.5264	0.0833	0.3709	-0.004
Mof_Zn	Zn	0.678	0.5828	0.028	0.616
Mof_I 	I 	0.6377	0.5494	0.9523	0.426
Mof_I 	I 	0.7435	0.5055	0.0576	-0.443
Mof_I 	I 	0.87991	0.47242	0.16537	0.494
Mof_I 	I 	0.8537	0.302	0.2621	-0.269
Mof_Zn	Zn	0.592	0.3523	0.8373	1.286
Mof_I 	I 	0.6327	0.459	0.80332	18.281
Mof_I 	I 	0.5323	0.3902	0.8675	-1.302
Mof_Zn	Zn	0.8284	0.3765	0.47795	0.711
Mof_I 	I 	0.76641	0.4669	0.45412	1.106
Mof_I 	I 	0.87404	0.3964	0.55206	-1.02
Mof_I 	I 	0.1424	0.1443	0.2419	-0.083
Mof_I 	I 	0.1063	0.9898	0.3484	-0.286
Mof_Zn	Zn	0.9208	0.617	0.6539	0.599
Mof_I 	I 	0.8868	0.4921	0.6835	-0.093
Mof_I 	I 	0.9823	0.5992	0.62128	-0.363
Mof_Zn	Zn	0.8305	0.0878	0.9815	0.589
Mof_I 	I 	0.8775	0.0675	0.05359	-0.502
Mof_I 	I 	0.7696	0.9929	0.95698	-0.483
Mof_I 	I 	0.6487	0.8142	0.7405	-0.252
Mof_I 	I 	0.60714	0.9737	0.85186	-0.905
Mof_Zn	Zn	0.92318	0.847	0.15302	1.022
Mof_I 	I 	0.88961	0.96853	0.18699	-18.944
Mof_I 	I 	0.98321	0.8646	0.12038	1.34
Mof_Zn	Zn	0.12521	0.13859	0.30994	1.145
Mof_Zn	Zn	0.62631	0.824	0.81052	1.15
Mof_N 	N 	0.8582	0.3915	0.4288	-0.334
Mof_C 	C 	0.8913	0.353	0.4328	0.084
Mof_H 	H 	0.899	0.3123	0.4564	-0.039
Mof_C 	C 	0.9178	0.366	0.4043	-0.138
Mof_H 	H 	0.9431	0.3393	0.4099	0.077
Mof_C 	C 	0.9049	0.4193	0.3687	0.047
Mof_C 	C 	0.8676	0.4607	0.3625	-0.119
Mof_H 	H 	0.8578	0.4982	0.3383	0.05
Mof_C 	C 	0.8468	0.4437	0.3932	0.04
Mof_H 	H 	0.8217	0.4712	0.3895	-0.04
Mof_N 	N 	0.0776	0.2201	0.3074	-0.284
Mof_C 	C 	0.0601	0.226	0.3404	0.088
Mof_H 	H 	0.0699	0.1891	0.3648	-0.029
Mof_C 	C 	0.0294	0.28	0.3426	-0.13
Mof_H 	H 	0.0194	0.283	0.3683	0.082
Mof_C 	C 	0.0129	0.331	0.3069	0.041
Mof_C 	C 	0.0319	0.329	0.2724	-0.116
Mof_H 	H 	0.0226	0.3663	0.2479	0.064
Mof_C 	C 	0.0645	0.2733	0.2727	0.049
Mof_H 	H 	0.0771	0.2732	0.2489	-0.014
Mof_N 	N 	0.9309	0.7442	0.2008	-0.319
Mof_C 	C 	0.9609	0.6931	0.2056	0.172
Mof_H 	H 	0.9804	0.7083	0.1899	-0.035
Mof_C 	C 	0.9677	0.6174	0.2317	-0.225
Mof_H 	H 	0.9907	0.582	0.2332	0.101
Mof_C 	C 	0.941	0.5958	0.2545	0.151
Mof_C 	C 	0.9088	0.6505	0.2515	-0.33
Mof_H 	H 	0.8895	0.6398	0.2681	0.067
Mof_C 	C 	0.9302	0.4343	0.338	0.098
Mof_C 	C 	0.906	0.7231	0.2228	0.297
Mof_H 	H 	0.8833	0.7597	0.2195	-0.456
Mof_N 	N 	0.9589	0.376	0.3377	-0.142
Mof_C 	C 	0.9797	0.3924	0.3078	0.088
Mof_N 	N 	0.974	0.4584	0.2788	-0.146
Mof_C 	C 	0.9457	0.5157	0.2835	0.046
Mof_N 	N 	0.9224	0.5061	0.3118	-0.141
Mof_N 	N 	0.6676	0.7039	0.3549	-0.269
Mof_C 	C 	0.688	0.6607	0.3914	0.037
Mof_H 	H 	0.6812	0.6006	0.3967	0.029
Mof_C 	C 	0.7174	0.7016	0.4199	-0.105
Mof_H 	H 	0.7321	0.6693	0.4439	0.068
Mof_C 	C 	0.7258	0.7895	0.4139	0.02
Mof_C 	C 	0.7049	0.8344	0.3781	-0.124
Mof_H 	H 	0.7104	0.8954	0.3733	0.057
Mof_C 	C 	0.6756	0.789	0.3492	0.057
Mof_H 	H 	0.661	0.8201	0.3247	-0.013
Mof_N 	N 	0.879	0.6826	0.6074	-0.272
Mof_C 	C 	0.8507	0.6425	0.5804	0.069
Mof_H 	H 	0.8466	0.5803	0.5842	-0.036
Mof_C 	C 	0.8258	0.6881	0.5457	-0.137
Mof_H 	H 	0.8046	0.6578	0.5273	0.047
Mof_C 	C 	0.8328	0.7754	0.5394	0.071
Mof_C 	C 	0.8629	0.8185	0.5675	-0.121
Mof_H 	H 	0.8663	0.8816	0.566	0.11
Mof_C 	C 	0.8881	0.7671	0.5981	0.071
Mof_H 	H 	0.9124	0.7921	0.6128	-0.007
Mof_N 	N 	0.8143	0.2397	0.4721	-0.317
Mof_C 	C 	0.8383	0.1841	0.4958	0.045
Mof_H 	H 	0.8608	0.2077	0.5152	-0.011
Mof_C 	C 	0.8332	0.0941	0.4944	-0.084
Mof_H 	H 	0.8521	0.0571	0.5125	0.042
Mof_C 	C 	0.8018	0.0556	0.4678	-0.065
Mof_C 	C 	0.7748	0.1147	0.4419	-0.091
Mof_H 	H 	0.7515	0.0934	0.4232	0.018
Mof_C 	C 	0.7844	0.2093	0.4454	0.021
Mof_H 	H 	0.7678	0.2503	0.4269	-0.025
Mof_C 	C 	0.7578	0.8354	0.4452	0.049
Mof_N 	N 	0.7783	0.7837	0.4778	-0.152
Mof_C 	C 	0.8083	0.8273	0.5034	0.088
Mof_N 	N 	0.8178	0.9135	0.5	-0.128
Mof_C 	C 	0.7934	0.9572	0.4678	0.146
Mof_N 	N 	0.7641	0.9235	0.4387	-0.167
Mof_N 	N 	0.9298	0.7194	0.7006	-0.272
Mof_C 	C 	0.9027	0.7398	0.7237	0.062
Mof_H 	H 	0.8802	0.7024	0.721	-0.031
Mof_C 	C 	0.9064	0.8147	0.7516	-0.123
Mof_H 	H 	0.8867	0.8287	0.7672	0.064
Mof_C 	C 	0.94	0.8675	0.7553	0.065
Mof_C 	C 	0.9691	0.8439	0.7316	-0.132
Mof_H 	H 	0.9924	0.8788	0.7347	0.193
Mof_C 	C 	0.9638	0.7715	0.7045	0.073
Mof_H 	H 	0.983	0.7567	0.6884	-0.01
Mof_N 	N 	0.8591	0.0671	0.9301	-0.325
Mof_C 	C 	0.8949	0.0994	0.9367	0.114
Mof_H 	H 	0.9044	0.1338	0.9621	-0.035
Mof_C 	C 	0.9193	0.0852	0.9081	-0.213
Mof_H 	H 	0.9454	0.1074	0.9148	0.114
Mof_C 	C 	0.9061	0.0401	0.8709	0.16
Mof_C 	C 	0.8683	0.0107	0.8626	-0.334
Mof_H 	H 	0.8575	0.9802	0.8362	0.183
Mof_C 	C 	0.8452	0.026	0.8934	0.151
Mof_H 	H 	0.8187	0.0058	0.8874	-0.09
Mof_N 	N 	0.0769	0.2432	0.8074	-0.259
Mof_C 	C 	0.0617	0.1938	0.7748	0.28
Mof_H 	H 	0.0726	0.1981	0.7497	-0.067
Mof_C 	C 	0.0313	0.1354	0.7734	0.018
Mof_H 	H 	0.0229	0.0971	0.7491	0.186
Mof_C 	C 	0.0135	0.1334	0.807	0.243
Mof_C 	C 	0.0296	0.184	0.8428	-0.034
Mof_H 	H 	0.0201	0.1799	0.8688	0.122
Mof_C 	C 	0.06	0.2422	0.8399	0.219
Mof_H 	H 	0.0689	0.2832	0.863	-0.022
Mof_C 	C 	0.9456	0.9497	0.7833	0.175
Mof_N 	N 	0.9229	0.9572	0.8106	-0.119
Mof_C 	C 	0.931	0.0264	0.8384	0.01
Mof_N 	N 	0.9602	0.0847	0.8392	-0.125
Mof_C 	C 	0.9801	0.0719	0.8083	0.179
Mof_N 	N 	0.9738	0.006	0.7791	-0.103
Mof_N 	N 	0.6674	0.7583	0.8571	-0.274
Mof_C 	C 	0.688	0.8008	0.892	0.053
Mof_H 	H 	0.682	0.8618	0.8965	-0.002
Mof_C 	C 	0.7175	0.7592	0.9219	-0.107
Mof_H 	H 	0.7317	0.7913	0.9463	0.084
Mof_C 	C 	0.7263	0.6695	0.9157	-0.007
Mof_C 	C 	0.7042	0.6264	0.8804	-0.099
Mof_H 	H 	0.708	0.5645	0.8756	-0.211
Mof_C 	C 	0.676	0.676	0.8519	0.123
Mof_H 	H 	0.662	0.6465	0.8265	-0.22
Mof_N 	N 	0.8143	0.2212	0.9714	-0.279
Mof_C 	C 	0.7841	0.2588	0.9444	0.033
Mof_H 	H 	0.7654	0.221	0.9265	-0.067
Mof_C 	C 	0.7787	0.3486	0.9414	-0.09
Mof_H 	H 	0.758	0.3719	0.9195	-0.056
Mof_C 	C 	0.8017	0.4056	0.968	0.004
Mof_C 	C 	0.8336	0.3684	0.9975	-0.086
Mof_H 	H 	0.8513	0.4062	0.0167	0.076
Mof_N 	N 	0.8792	0.7804	0.1083	-0.277
Mof_C 	C 	0.8392	0.2775	0.9987	0.026
Mof_H 	H 	0.8608	0.2529	0.019	0.012
Mof_C 	C 	0.8473	0.8186	0.0836	0.033
Mof_H 	H 	0.8402	0.8772	0.0908	-0.018
Mof_C 	C 	0.8249	0.7769	0.0489	-0.138
Mof_H 	H 	0.8036	0.8078	0.0309	0.074
Mof_C 	C 	0.8333	0.6876	0.0396	0.045
Mof_C 	C 	0.8647	0.6488	0.0675	-0.121
Mof_H 	H 	0.8724	0.5891	0.0627	0.098
Mof_C 	C 	0.7589	0.6246	0.9463	0.083
Mof_C 	C 	0.8849	0.6963	0.1022	0.035
Mof_H 	H 	0.9042	0.6658	0.123	-0.011
Mof_N 	N 	0.7653	0.5391	0.941	-0.187
Mof_C 	C 	0.7954	0.5032	0.9697	0.097
Mof_N 	N 	0.8192	0.5509	0.9996	-0.14
Mof_C 	C 	0.8094	0.6349	0.0031	0.098
Mof_N 	N 	0.779	0.6761	0.9776	-0.147
Mof_Zn	Zn	0.8127	0.3762	0.4636	0.709
Mof_I 	I 	0.7497	0.4521	0.4332	-1.604
Mof_I 	I 	0.8557	0.4187	0.5412	0.531
Mof_I 	I 	0.1495	0.1632	0.2345	-0.385
Mof_I 	I 	0.1147	0.9956	0.3389	0.004
Mof_Zn	Zn	0.9149	0.6155	0.659	0.548
Mof_I 	I 	0.8751	0.5023	0.6928	-0.31
Mof_I 	I 	0.9736	0.5833	0.6291	0.022
Mof_Zn	Zn	0.822	0.0828	0.972	0.62
Mof_I 	I 	0.8623	0.0494	0.0477	0.404
Mof_I 	I 	0.7565	0.0055	0.9424	0.068
Mof_I 	I 	0.62009	0.97242	0.83463	0.542
Mof_I 	I 	0.6463	0.802	0.7379	-0.257
Mof_Zn	Zn	0.908	0.8523	0.1627	1.284
Mof_I 	I 	0.8673	0.959	0.19668	18.195
Mof_I 	I 	0.9677	0.8902	0.1325	-1.245
Mof_Zn	Zn	0.3284	0.8765	0.47795	0.712
Mof_I 	I 	0.26641	0.9669	0.45412	1.109
Mof_I 	I 	0.37404	0.8964	0.55206	-0.993
Mof_I 	I 	0.6424	0.6443	0.2419	-0.07
Mof_I 	I 	0.6063	0.4898	0.3484	-0.325
Mof_Zn	Zn	0.4208	0.117	0.6539	0.594
Mof_I 	I 	0.3868	0.9921	0.6835	-0.547
Mof_I 	I 	0.4823	0.0992	0.62128	-0.381
Mof_Zn	Zn	0.3305	0.5878	0.9815	0.589
Mof_I 	I 	0.3775	0.5675	0.05359	-0.486
Mof_I 	I 	0.2696	0.4929	0.95698	0.014
Mof_I 	I 	0.1487	0.3142	0.7405	-0.264
Mof_I 	I 	0.10714	0.4737	0.85186	-0.913
Mof_Zn	Zn	0.42318	0.347	0.15302	1.024
Mof_I 	I 	0.38961	0.46853	0.18699	-19.102
Mof_I 	I 	0.48321	0.3646	0.12038	1.343
Mof_Zn	Zn	0.62521	0.63859	0.30994	1.156
Mof_Zn	Zn	0.12631	0.324	0.81052	1.149
Mof_N 	N 	0.3582	0.8915	0.4288	-0.33
Mof_C 	C 	0.3913	0.853	0.4328	0.086
Mof_H 	H 	0.399	0.8123	0.4564	-0.034
Mof_C 	C 	0.4178	0.866	0.4043	-0.125
Mof_H 	H 	0.4431	0.8393	0.4099	0.081
Mof_C 	C 	0.4049	0.9193	0.3687	0.038
Mof_C 	C 	0.3676	0.9607	0.3625	-0.104
Mof_H 	H 	0.3578	0.9982	0.3383	0.062
Mof_C 	C 	0.3468	0.9437	0.3932	0.042
Mof_H 	H 	0.3217	0.9712	0.3895	-0.03
Mof_N 	N 	0.5776	0.7201	0.3074	-0.279
Mof_C 	C 	0.5601	0.726	0.3404	0.094
Mof_H 	H 	0.5699	0.6891	0.3648	-0.018
Mof_C 	C 	0.5294	0.78	0.3426	-0.124
Mof_H 	H 	0.5194	0.783	0.3683	0.09
Mof_C 	C 	0.5129	0.831	0.3069	0.049
Mof_C 	C 	0.5319	0.829	0.2724	-0.111
Mof_H 	H 	0.5226	0.8663	0.2479	0.074
Mof_C 	C 	0.5645	0.7733	0.2727	0.057
Mof_H 	H 	0.5771	0.7732	0.2489	-0.011
Mof_N 	N 	0.4309	0.2442	0.2008	-0.321
Mof_C 	C 	0.4609	0.1931	0.2056	0.17
Mof_H 	H 	0.4804	0.2083	0.1899	-0.041
Mof_C 	C 	0.4677	0.1174	0.2317	-0.24
Mof_H 	H 	0.4907	0.082	0.2332	0.089
Mof_C 	C 	0.441	0.0958	0.2545	0.157
Mof_C 	C 	0.4088	0.1505	0.2515	-0.344
Mof_H 	H 	0.3895	0.1398	0.2681	0.056
Mof_C 	C 	0.4302	0.9343	0.338	0.155
Mof_C 	C 	0.406	0.2231	0.2228	0.294
Mof_H 	H 	0.3833	0.2597	0.2195	-0.465
Mof_N 	N 	0.4589	0.876	0.3377	-0.145
Mof_C 	C 	0.4797	0.8924	0.3078	0.101
Mof_N 	N 	0.474	0.9584	0.2788	-0.102
Mof_C 	C 	0.4457	0.0157	0.2835	-0.018
Mof_N 	N 	0.4224	0.0061	0.3118	-0.179
Mof_N 	N 	0.1676	0.2039	0.3549	-0.276
Mof_C 	C 	0.188	0.1607	0.3914	0.031
Mof_H 	H 	0.1812	0.1006	0.3967	0.008
Mof_C 	C 	0.2174	0.2016	0.4199	-0.107
Mof_H 	H 	0.2321	0.1693	0.4439	0.057
Mof_C 	C 	0.2258	0.2895	0.4139	0.013
Mof_C 	C 	0.2049	0.3344	0.3781	-0.125
Mof_H 	H 	0.2104	0.3954	0.3733	0.045
Mof_C 	C 	0.1756	0.289	0.3492	0.049
Mof_H 	H 	0.161	0.3201	0.3247	-0.018
Mof_N 	N 	0.379	0.1826	0.6074	-0.275
Mof_C 	C 	0.3507	0.1425	0.5804	0.062
Mof_H 	H 	0.3466	0.0803	0.5842	-0.052
Mof_C 	C 	0.3258	0.1881	0.5457	-0.139
Mof_H 	H 	0.3046	0.1578	0.5273	0.036
Mof_C 	C 	0.3328	0.2754	0.5394	0.063
Mof_C 	C 	0.3629	0.3185	0.5675	-0.121
Mof_H 	H 	0.3663	0.3816	0.566	0.098
Mof_C 	C 	0.3881	0.2671	0.5981	0.063
Mof_H 	H 	0.4124	0.2921	0.6128	-0.01
Mof_N 	N 	0.3143	0.7397	0.4721	-0.329
Mof_C 	C 	0.3383	0.6841	0.4958	0.082
Mof_H 	H 	0.3608	0.7077	0.5152	-0.018
Mof_C 	C 	0.3332	0.5941	0.4944	-0.14
Mof_H 	H 	0.3521	0.5571	0.5125	0.083
Mof_C 	C 	0.3018	0.5556	0.4678	0.039
Mof_C 	C 	0.2748	0.6147	0.4419	-0.134
Mof_H 	H 	0.2515	0.5934	0.4232	0.051
Mof_C 	C 	0.2844	0.7093	0.4454	0.049
Mof_H 	H 	0.2678	0.7503	0.4269	-0.031
Mof_C 	C 	0.2578	0.3354	0.4452	0.044
Mof_N 	N 	0.2783	0.2837	0.4778	-0.154
Mof_C 	C 	0.3083	0.3273	0.5034	0.083
Mof_N 	N 	0.3178	0.4135	0.5	-0.13
Mof_C 	C 	0.2934	0.4572	0.4678	0.067
Mof_N 	N 	0.2641	0.4235	0.4387	-0.167
Mof_N 	N 	0.4298	0.2194	0.7006	-0.277
Mof_C 	C 	0.4027	0.2398	0.7237	0.065
Mof_H 	H 	0.3802	0.2024	0.721	-0.05
Mof_C 	C 	0.4064	0.3147	0.7516	-0.138
Mof_H 	H 	0.3867	0.3287	0.7672	0.06
Mof_C 	C 	0.44	0.3675	0.7553	0.078
Mof_C 	C 	0.4691	0.3439	0.7316	-0.144
Mof_H 	H 	0.4924	0.3788	0.7347	0.186
Mof_C 	C 	0.4638	0.2715	0.7045	0.076
Mof_H 	H 	0.483	0.2567	0.6884	-0.015
Mof_N 	N 	0.3591	0.5671	0.9301	-0.298
Mof_C 	C 	0.3949	0.5994	0.9367	0.079
Mof_H 	H 	0.4044	0.6338	0.9621	-0.018
Mof_C 	C 	0.4193	0.5852	0.9081	-0.142
Mof_H 	H 	0.4454	0.6074	0.9148	0.098
Mof_C 	C 	0.4061	0.5401	0.8709	0.064
Mof_C 	C 	0.3683	0.5107	0.8626	-0.136
Mof_H 	H 	0.3575	0.4802	0.8362	0.067
Mof_C 	C 	0.3452	0.526	0.8934	0.065
Mof_H 	H 	0.3187	0.5058	0.8874	-0.039
Mof_N 	N 	0.5769	0.7432	0.8074	-0.257
Mof_C 	C 	0.5617	0.6938	0.7748	0.29
Mof_H 	H 	0.5726	0.6981	0.7497	-0.063
Mof_C 	C 	0.5313	0.6354	0.7734	0.019
Mof_H 	H 	0.5229	0.5971	0.7491	0.201
Mof_C 	C 	0.5135	0.6334	0.807	0.253
Mof_C 	C 	0.5296	0.684	0.8428	-0.031
Mof_H 	H 	0.5201	0.6799	0.8688	0.13
Mof_C 	C 	0.56	0.7422	0.8399	0.225
Mof_H 	H 	0.5689	0.7832	0.863	-0.018
Mof_C 	C 	0.4456	0.4497	0.7833	0.113
Mof_N 	N 	0.4229	0.4572	0.8106	-0.156
Mof_C 	C 	0.431	0.5264	0.8384	0.1
Mof_N 	N 	0.4602	0.5847	0.8392	-0.132
Mof_C 	C 	0.4801	0.5719	0.8083	0.193
Mof_N 	N 	0.4738	0.506	0.7791	-0.055
Mof_N 	N 	0.1674	0.2583	0.8571	-0.274
Mof_C 	C 	0.188	0.3008	0.892	0.045
Mof_H 	H 	0.182	0.3618	0.8965	-0.001
Mof_C 	C 	0.2175	0.2592	0.9219	-0.102
Mof_H 	H 	0.2317	0.2913	0.9463	0.074
Mof_C 	C 	0.2263	0.1695	0.9157	-0.016
Mof_C 	C 	0.2042	0.1264	0.8804	-0.098
Mof_H 	H 	0.208	0.0645	0.8756	-0.228
Mof_C 	C 	0.176	0.176	0.8519	0.116
Mof_H 	H 	0.162	0.1465	0.8265	-0.231
Mof_N 	N 	0.3143	0.7212	0.9714	-0.288
Mof_C 	C 	0.2841	0.7588	0.9444	0.068
Mof_H 	H 	0.2654	0.721	0.9265	-0.064
Mof_C 	C 	0.2787	0.8486	0.9414	-0.15
Mof_H 	H 	0.258	0.8719	0.9195	-0.017
Mof_C 	C 	0.3017	0.9056	0.968	0.114
Mof_C 	C 	0.3336	0.8684	0.9975	-0.139
Mof_H 	H 	0.3513	0.9062	0.0167	0.11
Mof_N 	N 	0.3792	0.2804	0.1083	-0.278
Mof_C 	C 	0.3392	0.7775	0.9987	0.058
Mof_H 	H 	0.3608	0.7529	0.019	0.004
Mof_C 	C 	0.3473	0.3186	0.0836	0.021
Mof_H 	H 	0.3402	0.3772	0.0908	-0.033
Mof_C 	C 	0.3249	0.2769	0.0489	-0.138
Mof_H 	H 	0.3036	0.3078	0.0309	0.056
Mof_C 	C 	0.3333	0.1876	0.0396	0.029
Mof_C 	C 	0.3647	0.1488	0.0675	-0.123
Mof_H 	H 	0.3724	0.0891	0.0627	0.076
Mof_C 	C 	0.2589	0.1246	0.9463	0.078
Mof_C 	C 	0.3849	0.1963	0.1022	0.023
Mof_H 	H 	0.4042	0.1658	0.123	-0.02
Mof_N 	N 	0.2653	0.0391	0.941	-0.186
Mof_C 	C 	0.2954	0.0032	0.9697	0.01
Mof_N 	N 	0.3192	0.0509	0.9996	-0.144
Mof_C 	C 	0.3094	0.1349	0.0031	0.087
Mof_N 	N 	0.279	0.1761	0.9776	-0.15
Mof_Zn	Zn	0.3127	0.8762	0.4636	0.709
Mof_I 	I 	0.2497	0.9521	0.4332	-1.561
Mof_I 	I 	0.3557	0.9187	0.5412	0.553
Mof_I 	I 	0.6495	0.6632	0.2345	-0.358
Mof_I 	I 	0.6147	0.4956	0.3389	-0.022
Mof_Zn	Zn	0.4149	0.1155	0.659	0.553
Mof_I 	I 	0.3751	0.0023	0.6928	0.139
Mof_I 	I 	0.4736	0.0833	0.6291	-0.004
Mof_Zn	Zn	0.322	0.5828	0.972	0.616
Mof_I 	I 	0.3623	0.5494	0.0477	0.426
Mof_I 	I 	0.2565	0.5055	0.9424	-0.443
Mof_I 	I 	0.12009	0.47242	0.83463	0.494
Mof_I 	I 	0.1463	0.302	0.7379	-0.269
Mof_Zn	Zn	0.408	0.3523	0.1627	1.286
Mof_I 	I 	0.3673	0.459	0.19668	18.281
Mof_I 	I 	0.4677	0.3902	0.1325	-1.302
_end
