data_functionalizedCrystal
_audit_creation_method	'EQeq! by Chris Wilmer'
_symmetry_space_group_name_H-M	'P1'
_symmetry_Int_Tables_number	1
_symmetry_cell_setting	triclinic
loop_
_symmetry_equiv_pos_as_xyz
  x,y,z
_cell_length_a	8.4073
_cell_length_b	11.491
_cell_length_c	35.108
_cell_angle_alpha	90
_cell_angle_beta	90
_cell_angle_gamma	105.842
loop_
_atom_site_label
_atom_site_type_symbol
_atom_site_fract_x
_atom_site_fract_y
_atom_site_fract_z
_atom_site_charge
Mof_Co	Co	0.47425	0.50377	0.85219	1.157
Mof_Co	Co	0.52575	0.99623	0.35219	1.155
Mof_Co	Co	0.52575	0.49623	0.14781	1.157
Mof_Co	Co	0.47425	0.00377	0.64781	1.155
Mof_H 	H 	0.2585	0.4291	0.9622	0.049
Mof_H 	H 	0.3261	0.5417	0.014	0.088
Mof_H 	H 	0.471	0.592	0.0687	-0.007
Mof_H 	H 	0.1866	0.3173	0.1212	-0.003
Mof_H 	H 	0.0323	0.2599	0.068	0.092
Mof_H 	H 	0.8494	0.2637	0.0206	0.051
Mof_H 	H 	0.8517	0.2456	0.907	0.053
Mof_H 	H 	0.5848	0.2331	0.0151	0.088
Mof_H 	H 	0.3093	0.1366	0.0128	0.01
Mof_H 	H 	0.3547	0.0049	0.9139	0.009
Mof_H 	H 	0.6349	0.0953	0.9136	0.09
Mof_H 	H 	0.5353	0.9162	0.8344	0.054
Mof_H 	H 	0.869	0.2707	0.8181	0.109
Mof_H 	H 	0.7735	0.4297	0.836	-0.013
Mof_H 	H 	0.3201	0.2293	0.8358	0.003
Mof_H 	H 	0.4014	0.0635	0.8186	0.091
Mof_H 	H 	0.892	0.1325	0.7715	0.052
Mof_H 	H 	0.8662	0.7818	0.7809	0.05
Mof_H 	H 	0.9791	0.0875	0.7082	0.094
Mof_H 	H 	0.1858	0.0959	0.6656	-0.003
Mof_H 	H 	0.3731	0.892	0.7295	-0.011
Mof_H 	H 	0.1684	0.8727	0.7737	0.094
Mof_H 	H 	0.7415	0.0709	0.4622	0.05
Mof_H 	H 	0.6739	0.9583	0.514	0.092
Mof_H 	H 	0.529	0.908	0.5687	-0.009
Mof_H 	H 	0.8134	0.1827	0.6212	-0.004
Mof_H 	H 	0.9677	0.2401	0.568	0.093
Mof_H 	H 	0.1506	0.2363	0.5206	0.051
Mof_H 	H 	0.1483	0.2544	0.407	0.053
Mof_H 	H 	0.4152	0.2669	0.5151	0.088
Mof_H 	H 	0.6907	0.3634	0.5128	0.01
Mof_H 	H 	0.6453	0.4951	0.4139	0.01
Mof_H 	H 	0.3651	0.4047	0.4136	0.09
Mof_H 	H 	0.4647	0.5838	0.3344	0.055
Mof_H 	H 	0.131	0.2293	0.3181	0.108
Mof_H 	H 	0.2265	0.0703	0.336	-0.011
Mof_H 	H 	0.6799	0.2707	0.3358	0.004
Mof_H 	H 	0.5986	0.4365	0.3186	0.091
Mof_H 	H 	0.108	0.3675	0.2715	0.052
Mof_H 	H 	0.1338	0.7182	0.2809	0.051
Mof_H 	H 	0.0209	0.4125	0.2082	0.091
Mof_H 	H 	0.8142	0.4041	0.1656	-0.002
Mof_H 	H 	0.6269	0.608	0.2295	-0.011
Mof_H 	H 	0.8316	0.6273	0.2737	0.092
Mof_H 	H 	0.7415	0.5709	0.0378	0.05
Mof_H 	H 	0.6739	0.4583	0.986	0.089
Mof_H 	H 	0.529	0.408	0.9313	-0.007
Mof_H 	H 	0.8134	0.6827	0.8788	-0.003
Mof_H 	H 	0.9677	0.7401	0.932	0.092
Mof_H 	H 	0.1506	0.7363	0.9794	0.051
Mof_H 	H 	0.1483	0.7544	0.093	0.053
Mof_H 	H 	0.4152	0.7669	0.9849	0.088
Mof_H 	H 	0.6907	0.8634	0.9872	0.01
Mof_H 	H 	0.6453	0.9951	0.0861	0.009
Mof_H 	H 	0.3651	0.9047	0.0864	0.09
Mof_H 	H 	0.4647	0.0838	0.1656	0.054
Mof_H 	H 	0.131	0.7293	0.1819	0.109
Mof_H 	H 	0.2265	0.5703	0.164	-0.013
Mof_H 	H 	0.6799	0.7707	0.1642	0.003
Mof_H 	H 	0.5986	0.9365	0.1814	0.091
Mof_H 	H 	0.108	0.8675	0.2285	0.052
Mof_H 	H 	0.1338	0.2182	0.2191	0.05
Mof_H 	H 	0.0209	0.9125	0.2918	0.094
Mof_H 	H 	0.8142	0.9041	0.3344	-0.003
Mof_H 	H 	0.6269	0.108	0.2705	-0.011
Mof_H 	H 	0.8316	0.1273	0.2263	0.094
Mof_H 	H 	0.2585	0.9291	0.5378	0.05
Mof_H 	H 	0.3261	0.0417	0.486	0.092
Mof_H 	H 	0.471	0.092	0.4313	-0.009
Mof_H 	H 	0.1866	0.8173	0.3788	-0.004
Mof_H 	H 	0.0323	0.7599	0.432	0.093
Mof_H 	H 	0.8494	0.7637	0.4794	0.051
Mof_H 	H 	0.8517	0.7456	0.593	0.053
Mof_H 	H 	0.5848	0.7331	0.4849	0.088
Mof_H 	H 	0.3093	0.6366	0.4872	0.01
Mof_H 	H 	0.3547	0.5049	0.5861	0.01
Mof_H 	H 	0.6349	0.5953	0.5864	0.09
Mof_H 	H 	0.5353	0.4162	0.6656	0.055
Mof_H 	H 	0.869	0.7707	0.6819	0.108
Mof_H 	H 	0.7735	0.9297	0.664	-0.011
Mof_H 	H 	0.3201	0.7293	0.6642	0.004
Mof_H 	H 	0.4014	0.5635	0.6814	0.091
Mof_H 	H 	0.892	0.6325	0.7285	0.052
Mof_H 	H 	0.8662	0.2818	0.7191	0.051
Mof_H 	H 	0.9791	0.5875	0.7918	0.091
Mof_H 	H 	0.1858	0.5959	0.8344	-0.002
Mof_H 	H 	0.3731	0.392	0.7705	-0.011
Mof_H 	H 	0.1684	0.3727	0.7263	0.092
Mof_C 	C 	0.1628	0.362	0.89189	0.324
Mof_C 	C 	0.0706	0.3394	0.92885	-0.056
Mof_C 	C 	0.1498	0.381	0.96279	-0.025
Mof_C 	C 	0.0708	0.3524	0.99747	-0.015
Mof_C 	C 	0.1623	0.3914	0.03352	0.101
Mof_C 	C 	0.2953	0.4931	0.03546	-0.165
Mof_C 	C 	0.382	0.5229	0.06863	0.099
Mof_C 	C 	0.2163	0.3632	0.09917	0.1
Mof_C 	C 	0.123	0.3276	0.06714	-0.165
Mof_C 	C 	0.9044	0.2839	0.99754	-0.054
Mof_C 	C 	0.8216	0.2462	0.96402	-0.012
Mof_C 	C 	0.9062	0.2728	0.92966	-0.03
Mof_C 	C 	0.6426	0.1795	0.96423	0.098
Mof_C 	C 	0.5414	0.1876	0.9937	-0.162
Mof_C 	C 	0.3746	0.1289	0.99212	0.097
Mof_C 	C 	0.4016	0.0521	0.93469	0.088
Mof_C 	C 	0.5709	0.1071	0.93404	-0.157
Mof_C 	C 	0.6107	0.7085	0.82623	0.289
Mof_C 	C 	0.6892	0.8302	0.81013	-0.054
Mof_C 	C 	0.6281	0.9274	0.81899	-0.027
Mof_C 	C 	0.7055	0.0414	0.80481	-0.017
Mof_C 	C 	0.6461	0.1472	0.81596	0.104
Mof_C 	C 	0.7562	0.2597	0.82157	-0.173
Mof_C 	C 	0.6974	0.3549	0.83229	0.102
Mof_C 	C 	0.4323	0.2377	0.83226	0.095
Mof_C 	C 	0.4799	0.1375	0.82178	-0.166
Mof_C 	C 	0.8412	0.0562	0.78128	-0.051
Mof_C 	C 	0.903	0.9603	0.77193	-0.018
Mof_C 	C 	0.8255	0.8472	0.78679	-0.028
Mof_C 	C 	0.0434	0.9743	0.7456	0.112
Mof_C 	C 	0.056	0.0444	0.7129	-0.167
Mof_C 	C 	0.1818	0.0501	0.68754	0.096
Mof_C 	C 	0.2907	0.9302	0.72488	0.111
Mof_C 	C 	0.168	0.918	0.75174	-0.173
Mof_C 	C 	0.8372	0.138	0.39189	0.323
Mof_C 	C 	0.9294	0.1606	0.42885	-0.054
Mof_C 	C 	0.8502	0.119	0.46279	-0.026
Mof_C 	C 	0.9292	0.1476	0.49747	-0.014
Mof_C 	C 	0.8377	0.1086	0.53352	0.103
Mof_C 	C 	0.7047	0.0069	0.53546	-0.171
Mof_C 	C 	0.618	0.9771	0.56863	0.106
Mof_C 	C 	0.7837	0.1368	0.59917	0.101
Mof_C 	C 	0.877	0.1724	0.56714	-0.167
Mof_C 	C 	0.0956	0.2161	0.49754	-0.055
Mof_C 	C 	0.1784	0.2538	0.46402	-0.011
Mof_C 	C 	0.0938	0.2272	0.42966	-0.031
Mof_C 	C 	0.3574	0.3205	0.46423	0.097
Mof_C 	C 	0.4586	0.3124	0.4937	-0.161
Mof_C 	C 	0.6254	0.3711	0.49212	0.097
Mof_C 	C 	0.5984	0.4479	0.43469	0.088
Mof_C 	C 	0.4291	0.3929	0.43404	-0.157
Mof_C 	C 	0.3893	0.7915	0.32623	0.288
Mof_C 	C 	0.3108	0.6698	0.31013	-0.052
Mof_C 	C 	0.3719	0.5726	0.31899	-0.034
Mof_C 	C 	0.2945	0.4586	0.30481	-0.012
Mof_C 	C 	0.3539	0.3528	0.31596	0.102
Mof_C 	C 	0.2438	0.2403	0.32157	-0.171
Mof_C 	C 	0.3026	0.1451	0.33229	0.102
Mof_C 	C 	0.5677	0.2623	0.33226	0.095
Mof_C 	C 	0.5201	0.3625	0.32178	-0.164
Mof_C 	C 	0.1588	0.4438	0.28128	-0.049
Mof_C 	C 	0.097	0.5397	0.27193	-0.019
Mof_C 	C 	0.1745	0.6528	0.28679	-0.03
Mof_C 	C 	0.9566	0.5257	0.2456	0.102
Mof_C 	C 	0.944	0.4556	0.2129	-0.157
Mof_C 	C 	0.8182	0.4499	0.18754	0.096
Mof_C 	C 	0.7093	0.5698	0.22488	0.107
Mof_C 	C 	0.832	0.582	0.25174	-0.17
Mof_C 	C 	0.8372	0.638	0.10811	0.324
Mof_C 	C 	0.9294	0.6606	0.07115	-0.056
Mof_C 	C 	0.8502	0.619	0.03721	-0.025
Mof_C 	C 	0.9292	0.6476	0.00253	-0.015
Mof_C 	C 	0.8377	0.6086	0.96648	0.101
Mof_C 	C 	0.7047	0.5069	0.96454	-0.165
Mof_C 	C 	0.618	0.4771	0.93137	0.099
Mof_C 	C 	0.7837	0.6368	0.90083	0.1
Mof_C 	C 	0.877	0.6724	0.93286	-0.165
Mof_C 	C 	0.0956	0.7161	0.00246	-0.054
Mof_C 	C 	0.1784	0.7538	0.03598	-0.012
Mof_C 	C 	0.0938	0.7272	0.07034	-0.03
Mof_C 	C 	0.3574	0.8205	0.03577	0.098
Mof_C 	C 	0.4586	0.8124	0.0063	-0.162
Mof_C 	C 	0.6254	0.8711	0.00788	0.097
Mof_C 	C 	0.5984	0.9479	0.06531	0.088
Mof_C 	C 	0.4291	0.8929	0.06596	-0.157
Mof_C 	C 	0.3893	0.2915	0.17377	0.289
Mof_C 	C 	0.3108	0.1698	0.18987	-0.054
Mof_C 	C 	0.3719	0.0726	0.18101	-0.027
Mof_C 	C 	0.2945	0.9586	0.19519	-0.017
Mof_C 	C 	0.3539	0.8528	0.18404	0.104
Mof_C 	C 	0.2438	0.7403	0.17843	-0.173
Mof_C 	C 	0.3026	0.6451	0.16771	0.102
Mof_C 	C 	0.5677	0.7623	0.16774	0.095
Mof_C 	C 	0.5201	0.8625	0.17822	-0.166
Mof_C 	C 	0.1588	0.9438	0.21872	-0.051
Mof_C 	C 	0.097	0.0397	0.22807	-0.018
Mof_C 	C 	0.1745	0.1528	0.21321	-0.028
Mof_C 	C 	0.9566	0.0257	0.2544	0.112
Mof_C 	C 	0.944	0.9556	0.2871	-0.167
Mof_C 	C 	0.8182	0.9499	0.31246	0.096
Mof_C 	C 	0.7093	0.0698	0.27512	0.111
Mof_C 	C 	0.832	0.082	0.24826	-0.173
Mof_C 	C 	0.1628	0.862	0.60811	0.323
Mof_C 	C 	0.0706	0.8394	0.57115	-0.054
Mof_C 	C 	0.1498	0.881	0.53721	-0.026
Mof_C 	C 	0.0708	0.8524	0.50253	-0.014
Mof_C 	C 	0.1623	0.8914	0.46648	0.103
Mof_C 	C 	0.2953	0.9931	0.46454	-0.171
Mof_C 	C 	0.382	0.0229	0.43137	0.106
Mof_C 	C 	0.2163	0.8632	0.40083	0.101
Mof_C 	C 	0.123	0.8276	0.43286	-0.167
Mof_C 	C 	0.9044	0.7839	0.50246	-0.055
Mof_C 	C 	0.8216	0.7462	0.53598	-0.011
Mof_C 	C 	0.9062	0.7728	0.57034	-0.031
Mof_C 	C 	0.6426	0.6795	0.53577	0.097
Mof_C 	C 	0.5414	0.6876	0.5063	-0.161
Mof_C 	C 	0.3746	0.6289	0.50788	0.097
Mof_C 	C 	0.4016	0.5521	0.56531	0.088
Mof_C 	C 	0.5709	0.6071	0.56596	-0.157
Mof_C 	C 	0.6107	0.2085	0.67377	0.288
Mof_C 	C 	0.6892	0.3302	0.68987	-0.052
Mof_C 	C 	0.6281	0.4274	0.68101	-0.034
Mof_C 	C 	0.7055	0.5414	0.69519	-0.012
Mof_C 	C 	0.6461	0.6472	0.68404	0.102
Mof_C 	C 	0.7562	0.7597	0.67843	-0.171
Mof_C 	C 	0.6974	0.8549	0.66771	0.102
Mof_C 	C 	0.4323	0.7377	0.66774	0.095
Mof_C 	C 	0.4799	0.6375	0.67822	-0.164
Mof_C 	C 	0.8412	0.5562	0.71872	-0.049
Mof_C 	C 	0.903	0.4603	0.72807	-0.019
Mof_C 	C 	0.8255	0.3472	0.71321	-0.03
Mof_C 	C 	0.0434	0.4743	0.7544	0.102
Mof_C 	C 	0.056	0.5444	0.7871	-0.157
Mof_C 	C 	0.1818	0.5501	0.81246	0.096
Mof_C 	C 	0.2907	0.4302	0.77512	0.107
Mof_C 	C 	0.168	0.418	0.74826	-0.17
Mof_N 	N 	0.3478	0.4601	0.10074	-0.232
Mof_N 	N 	0.3028	0.0631	0.96328	-0.136
Mof_N 	N 	0.5375	0.3468	0.83776	-0.255
Mof_N 	N 	0.2995	0.9928	0.69277	-0.233
Mof_N 	N 	0.6522	0.0399	0.60074	-0.235
Mof_N 	N 	0.6972	0.4369	0.46328	-0.136
Mof_N 	N 	0.4625	0.1532	0.33776	-0.254
Mof_N 	N 	0.7005	0.5072	0.19277	-0.236
Mof_N 	N 	0.6522	0.5399	0.89926	-0.232
Mof_N 	N 	0.6972	0.9369	0.03672	-0.136
Mof_N 	N 	0.4625	0.6532	0.16224	-0.255
Mof_N 	N 	0.7005	0.0072	0.30723	-0.233
Mof_N 	N 	0.3478	0.9601	0.39926	-0.235
Mof_N 	N 	0.3028	0.5631	0.53672	-0.136
Mof_N 	N 	0.5375	0.8468	0.66224	-0.254
Mof_N 	N 	0.2995	0.4928	0.80723	-0.236
Mof_O 	O 	0.2936	0.4509	0.89171	-0.415
Mof_O 	O 	0.1094	0.2945	0.86457	-0.28
Mof_O 	O 	0.497	0.69621	0.85062	-0.368
Mof_O 	O 	0.6593	0.61924	0.81575	-0.379
Mof_O 	O 	0.7064	0.0491	0.39171	-0.413
Mof_O 	O 	0.8906	0.2055	0.36457	-0.279
Mof_O 	O 	0.503	0.80379	0.35062	-0.369
Mof_O 	O 	0.3407	0.88076	0.31575	-0.38
Mof_O 	O 	0.7064	0.5491	0.10829	-0.415
Mof_O 	O 	0.8906	0.7055	0.13543	-0.28
Mof_O 	O 	0.503	0.30379	0.14938	-0.368
Mof_O 	O 	0.3407	0.38076	0.18425	-0.379
Mof_O 	O 	0.2936	0.9509	0.60829	-0.413
Mof_O 	O 	0.1094	0.7945	0.63543	-0.279
Mof_O 	O 	0.497	0.19621	0.64938	-0.369
Mof_O 	O 	0.6593	0.11924	0.68425	-0.38
_end
