data_functionalizedCrystal
_audit_creation_method	'EQeq! by Chris Wilmer'
_symmetry_space_group_name_H-M	'P1'
_symmetry_Int_Tables_number	1
_symmetry_cell_setting	triclinic
loop_
_symmetry_equiv_pos_as_xyz
  x,y,z
_cell_length_a	8.8017
_cell_length_b	10.6674
_cell_length_c	10.9422
_cell_angle_alpha	103.157
_cell_angle_beta	108.193
_cell_angle_gamma	97.41
loop_
_atom_site_label
_atom_site_type_symbol
_atom_site_fract_x
_atom_site_fract_y
_atom_site_fract_z
_atom_site_charge
Mof_Zn	Zn	0.79882	0.83672	0.24555	1.194
Mof_O 	O 	0.0531	0.9431	0.3596	-0.361
Mof_O 	O 	0.1986	0.0945	0.5545	-0.376
Mof_N 	N 	0.5476	0.7504	0.1686	-0.256
Mof_N 	N 	0.1046	0.5451	0.8034	-0.314
Mof_N 	N 	0.2911	0.6967	0.0258	-0.307
Mof_N 	N 	0.1915	0.7854	0.8277	-0.313
Mof_C 	C 	0.0726	0.0105	0.4742	0.215
Mof_N 	N 	0.9979	0.7184	0.9385	-0.302
Mof_C 	C 	0.4408	0.7735	0.0652	0.135
Mof_H 	H 	0.4667	0.8363	0.0241	-0.043
Mof_C 	C 	0.2814	0.7716	0.7455	0.05
Mof_H 	H 	0.315	0.6957	0.713	-0
Mof_C 	C 	0.1746	0.9113	0.8493	0.143
Mof_H 	H 	0.1191	0.9479	0.9034	-0.036
Mof_C 	C 	0.3126	0.8889	0.7201	-0.023
Mof_H 	H 	0.3711	0.9068	0.6662	0.038
Mof_C 	C 	0.1928	0.4529	0.8179	0.133
Mof_H 	H 	0.2886	0.4658	0.8907	-0.045
Mof_C 	C 	0.9949	0.7596	0.0631	0.109
Mof_H 	H 	0.083	0.7674	0.1404	-0.015
Mof_C 	C 	0.4609	0.6527	0.1994	-0.017
Mof_H 	H 	0.5031	0.6155	0.2684	0.026
Mof_C 	C 	0.7604	0.7652	0.9328	-0.009
Mof_H 	H 	0.6534	0.7764	0.9014	0.017
Mof_C 	C 	0.3046	0.6199	0.113	0.046
Mof_H 	H 	0.2208	0.5567	0.1123	0.001
Mof_C 	C 	0.9753	0.4861	0.6851	0.045
Mof_H 	H 	0.8901	0.5239	0.6459	0.003
Mof_C 	C 	0.8475	0.7241	0.8556	0.042
Mof_H 	H 	0.8118	0.7033	0.7625	0.005
Mof_C 	C 	0.9944	0.3638	0.6361	-0.007
Mof_H 	H 	0.9238	0.303	0.5566	0.031
Mof_B 	B 	0.1443	0.6857	0.8982	0.924
Mof_N 	N 	0.1321	0.3427	0.7203	-0.245
Mof_N 	N 	0.8538	0.7876	0.064	-0.248
Mof_N 	N 	0.2444	0.977	0.7861	-0.242
Mof_Zn	Zn	0.20118	0.16328	0.75445	1.195
Mof_O 	O 	0.9469	0.0569	0.6404	-0.36
Mof_O 	O 	0.8014	0.9055	0.4455	-0.375
Mof_N 	N 	0.4524	0.2496	0.8314	-0.255
Mof_N 	N 	0.8954	0.4549	0.1966	-0.314
Mof_N 	N 	0.7089	0.3033	0.9742	-0.307
Mof_N 	N 	0.8085	0.2146	0.1723	-0.313
Mof_C 	C 	0.9274	0.9895	0.5258	0.215
Mof_N 	N 	0.0021	0.2816	0.0615	-0.302
Mof_C 	C 	0.5592	0.2265	0.9348	0.135
Mof_H 	H 	0.5333	0.1637	0.9759	-0.043
Mof_C 	C 	0.7186	0.2284	0.2545	0.05
Mof_H 	H 	0.685	0.3043	0.287	-0
Mof_C 	C 	0.8254	0.0887	0.1507	0.143
Mof_H 	H 	0.8809	0.0521	0.0966	-0.036
Mof_C 	C 	0.6874	0.1111	0.2799	-0.023
Mof_H 	H 	0.6289	0.0932	0.3338	0.038
Mof_C 	C 	0.8072	0.5471	0.1821	0.133
Mof_H 	H 	0.7114	0.5342	0.1093	-0.045
Mof_C 	C 	0.0051	0.2404	0.9369	0.109
Mof_H 	H 	0.917	0.2326	0.8596	-0.015
Mof_C 	C 	0.5391	0.3473	0.8006	-0.017
Mof_H 	H 	0.4969	0.3845	0.7316	0.026
Mof_C 	C 	0.2396	0.2348	0.0672	-0.009
Mof_H 	H 	0.3466	0.2236	0.0986	0.017
Mof_C 	C 	0.6954	0.3801	0.887	0.046
Mof_H 	H 	0.7792	0.4433	0.8877	0.001
Mof_C 	C 	0.0247	0.5139	0.3149	0.045
Mof_H 	H 	0.1099	0.4761	0.3541	0.003
Mof_C 	C 	0.1525	0.2759	0.1444	0.042
Mof_H 	H 	0.1882	0.2967	0.2375	0.005
Mof_C 	C 	0.0056	0.6362	0.3639	-0.007
Mof_H 	H 	0.0762	0.697	0.4434	0.031
Mof_B 	B 	0.8557	0.3143	0.1018	0.924
Mof_N 	N 	0.8679	0.6573	0.2797	-0.245
Mof_N 	N 	0.1462	0.2124	0.936	-0.248
Mof_N 	N 	0.7556	0.023	0.2139	-0.242
_end
