data_functionalizedCrystal
_audit_creation_method	'EQeq! by Chris Wilmer'
_symmetry_space_group_name_H-M	'P1'
_symmetry_Int_Tables_number	1
_symmetry_cell_setting	triclinic
loop_
_symmetry_equiv_pos_as_xyz
  x,y,z
_cell_length_a	23.452
_cell_length_b	23.452
_cell_length_c	79.27
_cell_angle_alpha	90
_cell_angle_beta	90
_cell_angle_gamma	120
loop_
_atom_site_label
_atom_site_type_symbol
_atom_site_fract_x
_atom_site_fract_y
_atom_site_fract_z
_atom_site_charge
Mof_Zn	Zn	0.08258	0.07007	0.1483	1.213
Mof_O 	O 	0.14249	0.13046	0.16362	-0.509
Mof_O 	O 	0.13348	0.04127	0.13449	-0.514
Mof_O 	O 	0.06305	0.11645	0.13048	-0.501
Mof_C 	C 	0.1316	0.1236	0.18	0.423
Mof_C 	C 	0.1108	0.9865	0.12833	0.413
Mof_C 	C 	0.1893	0.177	0.1907	-0.194
Mof_O 	O 	0.08	0.0856	0.18651	-0.551
Mof_C 	C 	0.1544	0.9773	0.11512	-0.121
Mof_C 	C 	0.2465	0.218	0.18463	0.147
Mof_C 	C 	0.1832	0.1793	0.20767	0.104
Mof_C 	C 	0.2191	0.0247	0.11284	0.055
Mof_C 	C 	0.1272	0.9183	0.10539	0.078
Mof_H 	H 	0.2536	0.215	0.1732	-0.004
Mof_C 	C 	0.2962	0.2642	0.19359	-0.204
Mof_C 	C 	0.2333	0.2249	0.21814	-0.166
Mof_H 	H 	0.1436	0.1488	0.2126	-0
Mof_H 	H 	0.2395	0.0629	0.1193	0.019
Mof_C 	C 	0.2522	0.0113	0.10013	-0.156
Mof_C 	C 	0.1599	0.9112	0.09252	-0.165
Mof_H 	H 	0.0855	0.8838	0.1081	0.017
Mof_H 	H 	0.3355	0.2917	0.188	0.105
Mof_C 	C 	0.293	0.2732	0.21017	0.105
Mof_H 	H 	0.2281	0.2239	0.2298	0.086
Mof_C 	C 	0.2208	0.9576	0.08934	0.107
Mof_H 	H 	0.2972	0.0396	0.0988	0.081
Mof_H 	H 	0.1397	0.8737	0.0858	0.087
Mof_C 	C 	0.3464	0.3207	0.22053	-0.001
Mof_C 	C 	0.2603	0.9457	0.07615	-0.009
Mof_C 	C 	0.4111	0.3361	0.21752	-0.079
Mof_C 	C 	0.3355	0.3553	0.23356	-0.076
Mof_C 	C 	0.2388	0.8807	0.07078	-0.063
Mof_H 	H 	0.4201	0.3101	0.2103	0.057
Mof_C 	C 	0.4582	0.3866	0.2248	0.003
Mof_H 	H 	0.2924	0.344	0.2362	0.056
Mof_H 	H 	0.2011	0.8445	0.075	0.053
Mof_H 	H 	0.5007	0.3979	0.2216	0.029
Mof_Zn	Zn	0.74924	0.4034	0.48163	1.212
Mof_O 	O 	0.80916	0.46379	0.49695	-0.511
Mof_O 	O 	0.80015	0.3746	0.46782	-0.504
Mof_O 	O 	0.72972	0.44978	0.46381	-0.5
Mof_C 	C 	0.79827	0.45693	0.51333	0.425
Mof_C 	C 	0.77747	0.31983	0.46166	0.396
Mof_C 	C 	0.85597	0.51033	0.52403	-0.204
Mof_O 	O 	0.74667	0.41893	0.51984	-0.552
Mof_C 	C 	0.82107	0.31063	0.44845	-0.122
Mof_C 	C 	0.91317	0.55133	0.51796	0.161
Mof_C 	C 	0.84987	0.51263	0.541	0.11
Mof_C 	C 	0.88577	0.35803	0.44617	0.049
Mof_C 	C 	0.79387	0.25163	0.43872	0.058
Mof_H 	H 	0.92027	0.54833	0.50653	-0.011
Mof_C 	C 	0.96287	0.59753	0.52692	-0.225
Mof_C 	C 	0.89997	0.55823	0.55147	-0.173
Mof_H 	H 	0.81027	0.48213	0.54593	-0.002
Mof_H 	H 	0.90617	0.39623	0.45263	0.022
Mof_C 	C 	0.91887	0.34463	0.43346	-0.124
Mof_C 	C 	0.82657	0.24453	0.42585	-0.138
Mof_H 	H 	0.75217	0.21713	0.44143	0.022
Mof_H 	H 	0.00217	0.62503	0.52133	0.116
Mof_C 	C 	0.95967	0.60653	0.5435	0.112
Mof_H 	H 	0.89477	0.55723	0.56313	0.088
Mof_C 	C 	0.88747	0.29093	0.42267	0.067
Mof_H 	H 	0.96387	0.37293	0.43213	0.071
Mof_H 	H 	0.80637	0.20703	0.41913	0.076
Mof_C 	C 	0.01307	0.65403	0.55386	-0.006
Mof_C 	C 	0.92697	0.27903	0.40948	0.029
Mof_C 	C 	0.07777	0.66943	0.55085	-0.072
Mof_C 	C 	0.00217	0.68863	0.56689	-0.059
Mof_C 	C 	0.90547	0.21403	0.40411	-0.105
Mof_H 	H 	0.08677	0.64343	0.54363	0.056
Mof_C 	C 	0.12487	0.71993	0.55813	-0.004
Mof_H 	H 	0.95907	0.67733	0.56953	0.047
Mof_H 	H 	0.86777	0.17783	0.40833	0.067
Mof_H 	H 	0.16737	0.73123	0.55493	0.032
Mof_Zn	Zn	0.41591	0.73674	0.81497	1.212
Mof_O 	O 	0.47582	0.79713	0.83029	-0.507
Mof_O 	O 	0.46681	0.70794	0.80116	-0.504
Mof_O 	O 	0.39638	0.78312	0.79715	-0.5
Mof_C 	C 	0.46493	0.79027	0.84667	0.413
Mof_C 	C 	0.44413	0.65317	0.795	0.398
Mof_C 	C 	0.52263	0.84367	0.85737	-0.167
Mof_O 	O 	0.41333	0.75227	0.85318	-0.548
Mof_C 	C 	0.48773	0.64397	0.78179	-0.126
Mof_C 	C 	0.57983	0.88467	0.8513	0.107
Mof_C 	C 	0.51653	0.84597	0.87434	0.074
Mof_C 	C 	0.55243	0.69137	0.77951	0.056
Mof_C 	C 	0.46053	0.58497	0.77206	0.066
Mof_H 	H 	0.58693	0.88167	0.83987	0.009
Mof_C 	C 	0.62953	0.93087	0.86026	-0.156
Mof_C 	C 	0.56663	0.89157	0.88481	-0.13
Mof_H 	H 	0.47693	0.81547	0.87927	0.011
Mof_H 	H 	0.57283	0.72957	0.78597	0.02
Mof_C 	C 	0.58553	0.67797	0.7668	-0.132
Mof_C 	C 	0.49323	0.57787	0.75919	-0.148
Mof_H 	H 	0.41883	0.55047	0.77477	0.019
Mof_H 	H 	0.66883	0.95837	0.85467	0.091
Mof_C 	C 	0.62633	0.93987	0.87684	0.055
Mof_H 	H 	0.56143	0.89057	0.89647	0.075
Mof_C 	C 	0.55413	0.62427	0.75601	0.079
Mof_H 	H 	0.63053	0.70627	0.76547	0.075
Mof_H 	H 	0.47303	0.54037	0.75247	0.08
Mof_C 	C 	0.67973	0.98737	0.8872	0.084
Mof_C 	C 	0.59363	0.61237	0.74282	0.011
Mof_C 	C 	0.74443	0.00277	0.88419	-0.192
Mof_C 	C 	0.66883	0.02197	0.90023	-0.14
Mof_C 	C 	0.57213	0.54737	0.73745	-0.08
Mof_H 	H 	0.75343	0.97677	0.87697	0.104
Mof_C 	C 	0.79153	0.05327	0.89147	0.087
Mof_H 	H 	0.62573	0.01067	0.90287	0.075
Mof_H 	H 	0.53443	0.51117	0.74167	0.059
Mof_H 	H 	0.83403	0.06457	0.88827	-0.002
Mof_Zn	Zn	0.92993	0.01251	0.1483	1.209
Mof_O 	O 	0.86954	0.01203	0.16362	-0.508
Mof_O 	O 	0.95873	0.09221	0.13449	-0.511
Mof_O 	O 	0.88355	0.9466	0.13048	-0.495
Mof_C 	C 	0.8764	0.008	0.18	0.396
Mof_C 	C 	0.0135	0.1243	0.12833	0.404
Mof_C 	C 	0.823	0.0123	0.1907	-0.164
Mof_O 	O 	0.9144	0.9944	0.18651	-0.535
Mof_C 	C 	0.0227	0.1771	0.11512	-0.126
Mof_C 	C 	0.782	0.0285	0.18463	0.114
Mof_C 	C 	0.8207	0.0039	0.20767	0.054
Mof_C 	C 	0.9753	0.1944	0.11284	0.055
Mof_C 	C 	0.0817	0.2089	0.10539	0.07
Mof_H 	H 	0.785	0.0386	0.1732	0.005
Mof_C 	C 	0.7358	0.032	0.19359	-0.177
Mof_C 	C 	0.7751	0.0084	0.21814	-0.138
Mof_H 	H 	0.8512	0.9948	0.2126	0.025
Mof_H 	H 	0.9371	0.1766	0.1193	0.019
Mof_C 	C 	0.9887	0.2409	0.10013	-0.142
Mof_C 	C 	0.0888	0.2487	0.09252	-0.156
Mof_H 	H 	0.1162	0.2017	0.1081	0.017
Mof_H 	H 	0.7083	0.0438	0.188	0.095
Mof_C 	C 	0.7268	0.0198	0.21017	0.084
Mof_H 	H 	0.7761	0.0042	0.2298	0.073
Mof_C 	C 	0.0424	0.2632	0.08934	0.09
Mof_H 	H 	0.9604	0.2576	0.0988	0.077
Mof_H 	H 	0.1263	0.266	0.0858	0.083
Mof_C 	C 	0.6793	0.0257	0.22053	0
Mof_C 	C 	0.0543	0.3146	0.07615	0.002
Mof_C 	C 	0.6639	0.075	0.21752	-0.088
Mof_C 	C 	0.6447	0.9802	0.23356	-0.071
Mof_C 	C 	0.1193	0.3581	0.07078	-0.073
Mof_H 	H 	0.6899	0.11	0.2103	0.06
Mof_C 	C 	0.6134	0.0716	0.2248	0.013
Mof_H 	H 	0.656	0.9484	0.2362	0.057
Mof_H 	H 	0.1555	0.3566	0.075	0.056
Mof_H 	H 	0.6021	0.1028	0.2216	0.025
Mof_Zn	Zn	0.5966	0.34584	0.48163	1.212
Mof_O 	O 	0.53621	0.34536	0.49695	-0.51
Mof_O 	O 	0.6254	0.42554	0.46782	-0.504
Mof_O 	O 	0.55022	0.27993	0.46381	-0.5
Mof_C 	C 	0.54307	0.34133	0.51333	0.422
Mof_C 	C 	0.68017	0.45763	0.46166	0.397
Mof_C 	C 	0.48967	0.34563	0.52403	-0.195
Mof_O 	O 	0.58107	0.32773	0.51984	-0.551
Mof_C 	C 	0.68937	0.51043	0.44845	-0.126
Mof_C 	C 	0.44867	0.36183	0.51796	0.145
Mof_C 	C 	0.48737	0.33723	0.541	0.102
Mof_C 	C 	0.64197	0.52773	0.44617	0.056
Mof_C 	C 	0.74837	0.54223	0.43872	0.066
Mof_H 	H 	0.45167	0.37193	0.50653	-0.005
Mof_C 	C 	0.40247	0.36533	0.52692	-0.203
Mof_C 	C 	0.44177	0.34173	0.55147	-0.166
Mof_H 	H 	0.51787	0.32813	0.54593	0
Mof_H 	H 	0.60377	0.50993	0.45263	0.02
Mof_C 	C 	0.65537	0.57423	0.43346	-0.131
Mof_C 	C 	0.75547	0.58203	0.42585	-0.148
Mof_H 	H 	0.78287	0.53503	0.44143	0.019
Mof_H 	H 	0.37497	0.37713	0.52133	0.105
Mof_C 	C 	0.39347	0.35313	0.5435	0.104
Mof_H 	H 	0.44277	0.33753	0.56313	0.086
Mof_C 	C 	0.70907	0.59653	0.42267	0.078
Mof_H 	H 	0.62707	0.59093	0.43213	0.075
Mof_H 	H 	0.79297	0.59933	0.41913	0.08
Mof_C 	C 	0.34597	0.35903	0.55386	-0
Mof_C 	C 	0.72097	0.64793	0.40948	0.011
Mof_C 	C 	0.33057	0.40833	0.55085	-0.079
Mof_C 	C 	0.31137	0.31353	0.56689	-0.076
Mof_C 	C 	0.78597	0.69143	0.40411	-0.08
Mof_H 	H 	0.35657	0.44333	0.54363	0.057
Mof_C 	C 	0.28007	0.40493	0.55813	0.003
Mof_H 	H 	0.32267	0.28173	0.56953	0.055
Mof_H 	H 	0.82217	0.68993	0.40833	0.059
Mof_H 	H 	0.26877	0.43613	0.55493	0.029
Mof_Zn	Zn	0.26326	0.67917	0.81497	1.212
Mof_O 	O 	0.20287	0.6787	0.83029	-0.509
Mof_O 	O 	0.29206	0.75888	0.80116	-0.504
Mof_O 	O 	0.21688	0.61327	0.79715	-0.5
Mof_C 	C 	0.20973	0.67467	0.84667	0.418
Mof_C 	C 	0.34683	0.79097	0.795	0.397
Mof_C 	C 	0.15633	0.67897	0.85737	-0.181
Mof_O 	O 	0.24773	0.66107	0.85318	-0.549
Mof_C 	C 	0.35603	0.84377	0.78179	-0.124
Mof_C 	C 	0.11533	0.69517	0.8513	0.128
Mof_C 	C 	0.15403	0.67057	0.87434	0.089
Mof_C 	C 	0.30863	0.86107	0.77951	0.054
Mof_C 	C 	0.41503	0.87557	0.77206	0.064
Mof_H 	H 	0.11833	0.70527	0.83987	0.002
Mof_C 	C 	0.06913	0.69867	0.86026	-0.181
Mof_C 	C 	0.10843	0.67507	0.88481	-0.149
Mof_H 	H 	0.18453	0.66147	0.87927	0.006
Mof_H 	H 	0.27043	0.84327	0.78597	0.022
Mof_C 	C 	0.32203	0.90757	0.7668	-0.127
Mof_C 	C 	0.42213	0.91537	0.75919	-0.142
Mof_H 	H 	0.44953	0.86837	0.77477	0.021
Mof_H 	H 	0.04163	0.71047	0.85467	0.098
Mof_C 	C 	0.06013	0.68647	0.87684	0.081
Mof_H 	H 	0.10943	0.67087	0.89647	0.082
Mof_C 	C 	0.37573	0.92987	0.75601	0.074
Mof_H 	H 	0.29373	0.92427	0.76547	0.075
Mof_H 	H 	0.45963	0.93267	0.75247	0.081
Mof_C 	C 	0.01263	0.69237	0.8872	0.039
Mof_C 	C 	0.38763	0.98127	0.74282	0.027
Mof_C 	C 	0.99723	0.74167	0.88419	-0.131
Mof_C 	C 	0.97803	0.64687	0.90023	-0.106
Mof_C 	C 	0.45263	0.02477	0.73745	-0.102
Mof_H 	H 	0.02323	0.77667	0.87697	0.08
Mof_C 	C 	0.94673	0.73827	0.89147	0.042
Mof_H 	H 	0.98933	0.61507	0.90287	0.065
Mof_H 	H 	0.48883	0.02327	0.74167	0.063
Mof_H 	H 	0.93543	0.76947	0.88827	0.015
Mof_Zn	Zn	0.98749	0.91742	0.1483	1.212
Mof_O 	O 	0.98797	0.85751	0.16362	-0.507
Mof_O 	O 	0.90779	0.86652	0.13449	-0.503
Mof_O 	O 	0.0534	0.93695	0.13048	-0.499
Mof_C 	C 	0.992	0.8684	0.18	0.408
Mof_C 	C 	0.8757	0.8892	0.12833	0.397
Mof_C 	C 	0.9877	0.8107	0.1907	-0.177
Mof_O 	O 	0.0056	0.92	0.18651	-0.538
Mof_C 	C 	0.8229	0.8456	0.11512	-0.125
Mof_C 	C 	0.9715	0.7535	0.18463	0.128
Mof_C 	C 	0.9961	0.8168	0.20767	0.077
Mof_C 	C 	0.8056	0.7809	0.11284	0.055
Mof_C 	C 	0.7911	0.8728	0.10539	0.065
Mof_H 	H 	0.9614	0.7464	0.1732	0.001
Mof_C 	C 	0.968	0.7038	0.19359	-0.188
Mof_C 	C 	0.9916	0.7667	0.21814	-0.15
Mof_H 	H 	0.0052	0.8564	0.2126	0.015
Mof_H 	H 	0.8234	0.7605	0.1193	0.021
Mof_C 	C 	0.7591	0.7478	0.10013	-0.131
Mof_C 	C 	0.7513	0.8401	0.09252	-0.146
Mof_H 	H 	0.7983	0.9145	0.1081	0.021
Mof_H 	H 	0.9562	0.6645	0.188	0.1
Mof_C 	C 	0.9802	0.707	0.21017	0.093
Mof_H 	H 	0.9958	0.7719	0.2298	0.08
Mof_C 	C 	0.7368	0.7792	0.08934	0.078
Mof_H 	H 	0.7424	0.7028	0.0988	0.074
Mof_H 	H 	0.734	0.8603	0.0858	0.08
Mof_C 	C 	0.9743	0.6536	0.22053	0.001
Mof_C 	C 	0.6854	0.7397	0.07615	0.011
Mof_C 	C 	0.925	0.5889	0.21752	-0.084
Mof_C 	C 	0.0198	0.6645	0.23356	-0.074
Mof_C 	C 	0.6419	0.7612	0.07078	-0.08
Mof_H 	H 	0.89	0.5799	0.2103	0.059
Mof_C 	C 	0.9284	0.5418	0.2248	0.009
Mof_H 	H 	0.0516	0.7076	0.2362	0.057
Mof_H 	H 	0.6434	0.7989	0.075	0.059
Mof_H 	H 	0.8972	0.4993	0.2216	0.027
Mof_Zn	Zn	0.65416	0.25076	0.48163	1.212
Mof_O 	O 	0.65464	0.19084	0.49695	-0.512
Mof_O 	O 	0.57446	0.19985	0.46782	-0.504
Mof_O 	O 	0.72007	0.27028	0.46381	-0.5
Mof_C 	C 	0.65867	0.20173	0.51333	0.428
Mof_C 	C 	0.54237	0.22253	0.46166	0.394
Mof_C 	C 	0.65437	0.14403	0.52403	-0.216
Mof_O 	O 	0.67227	0.25333	0.51984	-0.553
Mof_C 	C 	0.48957	0.17893	0.44845	-0.116
Mof_C 	C 	0.63817	0.08683	0.51796	0.18
Mof_C 	C 	0.66277	0.15013	0.541	0.12
Mof_C 	C 	0.47227	0.11423	0.44617	0.041
Mof_C 	C 	0.45777	0.20613	0.43872	0.049
Mof_H 	H 	0.62807	0.07973	0.50653	-0.019
Mof_C 	C 	0.63467	0.03713	0.52692	-0.251
Mof_C 	C 	0.65827	0.10003	0.55147	-0.183
Mof_H 	H 	0.67187	0.18973	0.54593	-0.006
Mof_H 	H 	0.49007	0.09383	0.45263	0.024
Mof_C 	C 	0.42577	0.08113	0.43346	-0.113
Mof_C 	C 	0.41797	0.17343	0.42585	-0.125
Mof_H 	H 	0.46497	0.24783	0.44143	0.025
Mof_H 	H 	0.62287	0.99783	0.52133	0.128
Mof_C 	C 	0.64687	0.04033	0.5435	0.121
Mof_H 	H 	0.66247	0.10523	0.56313	0.09
Mof_C 	C 	0.40347	0.11253	0.42267	0.051
Mof_H 	H 	0.40907	0.03613	0.43213	0.066
Mof_H 	H 	0.40067	0.19363	0.41913	0.071
Mof_C 	C 	0.64097	0.98693	0.55386	-0.013
Mof_C 	C 	0.35207	0.07303	0.40948	0.055
Mof_C 	C 	0.59167	0.92223	0.55085	-0.063
Mof_C 	C 	0.68647	0.99783	0.56689	-0.041
Mof_C 	C 	0.30857	0.09453	0.40411	-0.139
Mof_H 	H 	0.55667	0.91323	0.54363	0.053
Mof_C 	C 	0.59507	0.87513	0.55813	-0.013
Mof_H 	H 	0.71827	0.04093	0.56953	0.036
Mof_H 	H 	0.31007	0.13223	0.40833	0.079
Mof_H 	H 	0.56387	0.83263	0.55493	0.035
Mof_Zn	Zn	0.32083	0.58409	0.81497	1.212
Mof_O 	O 	0.3213	0.52418	0.83029	-0.51
Mof_O 	O 	0.24112	0.53319	0.80116	-0.504
Mof_O 	O 	0.38673	0.60362	0.79715	-0.5
Mof_C 	C 	0.32533	0.53507	0.84667	0.422
Mof_C 	C 	0.20903	0.55587	0.795	0.397
Mof_C 	C 	0.32103	0.47737	0.85737	-0.194
Mof_O 	O 	0.33893	0.58667	0.85318	-0.55
Mof_C 	C 	0.15623	0.51227	0.78179	-0.125
Mof_C 	C 	0.30483	0.42017	0.8513	0.145
Mof_C 	C 	0.32943	0.48347	0.87434	0.102
Mof_C 	C 	0.13893	0.44757	0.77951	0.055
Mof_C 	C 	0.12443	0.53947	0.77206	0.065
Mof_H 	H 	0.29473	0.41307	0.83987	-0.004
Mof_C 	C 	0.30133	0.37047	0.86026	-0.202
Mof_C 	C 	0.32493	0.43337	0.88481	-0.165
Mof_H 	H 	0.33853	0.52307	0.87927	0.001
Mof_H 	H 	0.15673	0.42717	0.78597	0.021
Mof_C 	C 	0.09243	0.41447	0.7668	-0.13
Mof_C 	C 	0.08463	0.50677	0.75919	-0.146
Mof_H 	H 	0.13163	0.58117	0.77477	0.02
Mof_H 	H 	0.28953	0.33117	0.85467	0.105
Mof_C 	C 	0.31353	0.37367	0.87684	0.104
Mof_H 	H 	0.32913	0.43857	0.89647	0.086
Mof_C 	C 	0.07013	0.44587	0.75601	0.077
Mof_H 	H 	0.07573	0.36947	0.76547	0.075
Mof_H 	H 	0.06733	0.52697	0.75247	0.081
Mof_C 	C 	0.30763	0.32027	0.8872	0
Mof_C 	C 	0.01873	0.40637	0.74282	0.017
Mof_C 	C 	0.25833	0.25557	0.88419	-0.08
Mof_C 	C 	0.35313	0.33117	0.90023	-0.076
Mof_C 	C 	0.97523	0.42787	0.73745	-0.089
Mof_H 	H 	0.22333	0.24657	0.87697	0.058
Mof_C 	C 	0.26173	0.20847	0.89147	0.004
Mof_H 	H 	0.38493	0.37427	0.90287	0.056
Mof_H 	H 	0.97673	0.46557	0.74167	0.06
Mof_H 	H 	0.23053	0.16597	0.88827	0.029
Mof_Zn	Zn	0.92993	0.91742	0.6483	1.213
Mof_O 	O 	0.86954	0.85751	0.66362	-0.509
Mof_O 	O 	0.95873	0.86652	0.63449	-0.508
Mof_O 	O 	0.88355	0.93695	0.63048	-0.502
Mof_C 	C 	0.8764	0.8684	0.68	0.421
Mof_C 	C 	0.0135	0.8892	0.62833	0.404
Mof_C 	C 	0.823	0.8107	0.6907	-0.193
Mof_O 	O 	0.9144	0.92	0.68651	-0.548
Mof_C 	C 	0.0227	0.8456	0.61512	-0.123
Mof_C 	C 	0.782	0.7535	0.68463	0.144
Mof_C 	C 	0.8207	0.8168	0.70767	0.102
Mof_C 	C 	0.9753	0.7809	0.61284	0.054
Mof_C 	C 	0.0817	0.8728	0.60539	0.07
Mof_H 	H 	0.785	0.7464	0.6732	-0.004
Mof_C 	C 	0.7358	0.7038	0.69359	-0.202
Mof_C 	C 	0.7751	0.7667	0.71814	-0.164
Mof_H 	H 	0.8512	0.8564	0.7126	0.002
Mof_H 	H 	0.9371	0.7605	0.6193	0.02
Mof_C 	C 	0.9887	0.7478	0.60013	-0.142
Mof_C 	C 	0.0888	0.8401	0.59252	-0.154
Mof_H 	H 	0.1162	0.9145	0.6081	0.02
Mof_H 	H 	0.7083	0.6645	0.688	0.105
Mof_C 	C 	0.7268	0.707	0.71017	0.104
Mof_H 	H 	0.7761	0.7719	0.7298	0.086
Mof_C 	C 	0.0424	0.7792	0.58934	0.091
Mof_H 	H 	0.9604	0.7028	0.5988	0.077
Mof_H 	H 	0.1263	0.8603	0.5858	0.084
Mof_C 	C 	0.6793	0.6536	0.72053	0
Mof_C 	C 	0.0543	0.7397	0.57615	0.002
Mof_C 	C 	0.6639	0.5889	0.71752	-0.08
Mof_C 	C 	0.6447	0.6645	0.73356	-0.076
Mof_C 	C 	0.1193	0.7612	0.57078	-0.072
Mof_H 	H 	0.6899	0.5799	0.7103	0.058
Mof_C 	C 	0.6134	0.5418	0.7248	0.003
Mof_H 	H 	0.656	0.7076	0.7362	0.056
Mof_H 	H 	0.1555	0.7989	0.575	0.056
Mof_H 	H 	0.6021	0.4993	0.7216	0.029
Mof_Zn	Zn	0.5966	0.25076	0.98163	1.212
Mof_O 	O 	0.53621	0.19084	0.99695	-0.512
Mof_O 	O 	0.6254	0.19985	0.96782	-0.504
Mof_O 	O 	0.55022	0.27028	0.96381	-0.5
Mof_C 	C 	0.54307	0.20173	0.01333	0.429
Mof_C 	C 	0.68017	0.22253	0.96166	0.394
Mof_C 	C 	0.48967	0.14403	0.02403	-0.217
Mof_O 	O 	0.58107	0.25333	0.01984	-0.553
Mof_C 	C 	0.68937	0.17893	0.94845	-0.117
Mof_C 	C 	0.44867	0.08683	0.01796	0.181
Mof_C 	C 	0.48737	0.15013	0.041	0.12
Mof_C 	C 	0.64197	0.11423	0.94617	0.041
Mof_C 	C 	0.74837	0.20613	0.93872	0.049
Mof_H 	H 	0.45167	0.07973	0.00653	-0.019
Mof_C 	C 	0.40247	0.03713	0.02692	-0.252
Mof_C 	C 	0.44177	0.10003	0.05147	-0.183
Mof_H 	H 	0.51787	0.18973	0.04593	-0.006
Mof_H 	H 	0.60377	0.09383	0.95263	0.024
Mof_C 	C 	0.65537	0.08113	0.93346	-0.113
Mof_C 	C 	0.75547	0.17343	0.92585	-0.125
Mof_H 	H 	0.78287	0.24783	0.94143	0.025
Mof_H 	H 	0.37497	0.99783	0.02133	0.129
Mof_C 	C 	0.39347	0.04033	0.0435	0.121
Mof_H 	H 	0.44277	0.10523	0.06313	0.091
Mof_C 	C 	0.70907	0.11253	0.92267	0.051
Mof_H 	H 	0.62707	0.03613	0.93213	0.066
Mof_H 	H 	0.79297	0.19363	0.91913	0.071
Mof_C 	C 	0.34597	0.98693	0.05386	-0.014
Mof_C 	C 	0.72097	0.07303	0.90948	0.054
Mof_C 	C 	0.33057	0.92223	0.05085	-0.062
Mof_C 	C 	0.31137	0.99783	0.06689	-0.04
Mof_C 	C 	0.78597	0.09453	0.90411	-0.138
Mof_H 	H 	0.35657	0.91323	0.04363	0.053
Mof_C 	C 	0.28007	0.87513	0.05813	-0.013
Mof_H 	H 	0.32267	0.04093	0.06953	0.036
Mof_H 	H 	0.82217	0.13223	0.90833	0.079
Mof_H 	H 	0.26877	0.83263	0.05493	0.035
Mof_Zn	Zn	0.26326	0.58409	0.31497	1.212
Mof_O 	O 	0.20287	0.52418	0.33029	-0.509
Mof_O 	O 	0.29206	0.53319	0.30116	-0.504
Mof_O 	O 	0.21688	0.60362	0.29715	-0.5
Mof_C 	C 	0.20973	0.53507	0.34667	0.418
Mof_C 	C 	0.34683	0.55587	0.295	0.398
Mof_C 	C 	0.15633	0.47737	0.35737	-0.182
Mof_O 	O 	0.24773	0.58667	0.35318	-0.549
Mof_C 	C 	0.35603	0.51227	0.28179	-0.126
Mof_C 	C 	0.11533	0.42017	0.3513	0.129
Mof_C 	C 	0.15403	0.48347	0.37434	0.09
Mof_C 	C 	0.30863	0.44757	0.27951	0.056
Mof_C 	C 	0.41503	0.53947	0.27206	0.066
Mof_H 	H 	0.11833	0.41307	0.33987	0.001
Mof_C 	C 	0.06913	0.37047	0.36026	-0.183
Mof_C 	C 	0.10843	0.43337	0.38481	-0.15
Mof_H 	H 	0.18453	0.52307	0.37927	0.005
Mof_H 	H 	0.27043	0.42717	0.28597	0.02
Mof_C 	C 	0.32203	0.41447	0.2668	-0.132
Mof_C 	C 	0.42213	0.50677	0.25919	-0.148
Mof_H 	H 	0.44953	0.58117	0.27477	0.019
Mof_H 	H 	0.04163	0.33117	0.35467	0.099
Mof_C 	C 	0.06013	0.37367	0.37684	0.083
Mof_H 	H 	0.10943	0.43857	0.39647	0.082
Mof_C 	C 	0.37573	0.44587	0.25601	0.079
Mof_H 	H 	0.29373	0.36947	0.26547	0.075
Mof_H 	H 	0.45963	0.52697	0.25247	0.08
Mof_C 	C 	0.01263	0.32027	0.3872	0.036
Mof_C 	C 	0.38763	0.40637	0.24282	0.011
Mof_C 	C 	0.99723	0.25557	0.38419	-0.128
Mof_C 	C 	0.97803	0.33117	0.40023	-0.104
Mof_C 	C 	0.45263	0.42787	0.23745	-0.08
Mof_H 	H 	0.02323	0.24657	0.37697	0.077
Mof_C 	C 	0.94673	0.20847	0.39147	0.039
Mof_H 	H 	0.98933	0.37427	0.40287	0.064
Mof_H 	H 	0.48883	0.46557	0.24167	0.058
Mof_H 	H 	0.93543	0.16597	0.38827	0.016
Mof_Zn	Zn	0.98749	0.07007	0.6483	1.21
Mof_O 	O 	0.98797	0.13046	0.66362	-0.509
Mof_O 	O 	0.90779	0.04127	0.63449	-0.516
Mof_O 	O 	0.0534	0.11645	0.63048	-0.499
Mof_C 	C 	0.992	0.1236	0.68	0.411
Mof_C 	C 	0.8757	0.9865	0.62833	0.412
Mof_C 	C 	0.9877	0.177	0.6907	-0.183
Mof_O 	O 	0.0056	0.0856	0.68651	-0.546
Mof_C 	C 	0.8229	0.9773	0.61512	-0.124
Mof_C 	C 	0.9715	0.218	0.68463	0.133
Mof_C 	C 	0.9961	0.1793	0.70767	0.082
Mof_C 	C 	0.8056	0.0247	0.61284	0.054
Mof_C 	C 	0.7911	0.9183	0.60539	0.077
Mof_H 	H 	0.9614	0.215	0.6732	-0.001
Mof_C 	C 	0.968	0.2642	0.69359	-0.193
Mof_C 	C 	0.9916	0.2249	0.71814	-0.154
Mof_H 	H 	0.0052	0.1488	0.7126	0.01
Mof_H 	H 	0.8234	0.0629	0.6193	0.019
Mof_C 	C 	0.7591	0.0113	0.60013	-0.156
Mof_C 	C 	0.7513	0.9112	0.59252	-0.165
Mof_H 	H 	0.7983	0.8838	0.6081	0.016
Mof_H 	H 	0.9562	0.2917	0.688	0.101
Mof_C 	C 	0.9802	0.2732	0.71017	0.096
Mof_H 	H 	0.9958	0.2239	0.7298	0.08
Mof_C 	C 	0.7368	0.9576	0.58934	0.106
Mof_H 	H 	0.7424	0.0396	0.5988	0.08
Mof_H 	H 	0.734	0.8737	0.5858	0.087
Mof_C 	C 	0.9743	0.3207	0.72053	-0.001
Mof_C 	C 	0.6854	0.9457	0.57615	-0.009
Mof_C 	C 	0.925	0.3361	0.71752	-0.083
Mof_C 	C 	0.0198	0.3553	0.73356	-0.073
Mof_C 	C 	0.6419	0.8807	0.57078	-0.064
Mof_H 	H 	0.89	0.3101	0.7103	0.058
Mof_C 	C 	0.9284	0.3866	0.7248	0.007
Mof_H 	H 	0.0516	0.344	0.7362	0.056
Mof_H 	H 	0.6434	0.8445	0.575	0.053
Mof_H 	H 	0.8972	0.3979	0.7216	0.027
Mof_Zn	Zn	0.65416	0.4034	0.98163	1.212
Mof_O 	O 	0.65464	0.46379	0.99695	-0.51
Mof_O 	O 	0.57446	0.3746	0.96782	-0.504
Mof_O 	O 	0.72007	0.44978	0.96381	-0.5
Mof_C 	C 	0.65867	0.45693	0.01333	0.422
Mof_C 	C 	0.54237	0.31983	0.96166	0.397
Mof_C 	C 	0.65437	0.51033	0.02403	-0.195
Mof_O 	O 	0.67227	0.41893	0.01984	-0.551
Mof_C 	C 	0.48957	0.31063	0.94845	-0.126
Mof_C 	C 	0.63817	0.55133	0.01796	0.145
Mof_C 	C 	0.66277	0.51263	0.041	0.102
Mof_C 	C 	0.47227	0.35803	0.94617	0.056
Mof_C 	C 	0.45777	0.25163	0.93872	0.065
Mof_H 	H 	0.62807	0.54833	0.00653	-0.005
Mof_C 	C 	0.63467	0.59753	0.02692	-0.203
Mof_C 	C 	0.65827	0.55823	0.05147	-0.166
Mof_H 	H 	0.67187	0.48213	0.04593	0
Mof_H 	H 	0.49007	0.39623	0.95263	0.02
Mof_C 	C 	0.42577	0.34463	0.93346	-0.131
Mof_C 	C 	0.41797	0.24453	0.92585	-0.148
Mof_H 	H 	0.46497	0.21713	0.94143	0.019
Mof_H 	H 	0.62287	0.62503	0.02133	0.105
Mof_C 	C 	0.64687	0.60653	0.0435	0.104
Mof_H 	H 	0.66247	0.55723	0.06313	0.086
Mof_C 	C 	0.40347	0.29093	0.92267	0.078
Mof_H 	H 	0.40907	0.37293	0.93213	0.075
Mof_H 	H 	0.40067	0.20703	0.91913	0.08
Mof_C 	C 	0.64097	0.65403	0.05386	-0
Mof_C 	C 	0.35207	0.27903	0.90948	0.011
Mof_C 	C 	0.59167	0.66943	0.05085	-0.079
Mof_C 	C 	0.68647	0.68863	0.06689	-0.076
Mof_C 	C 	0.30857	0.21403	0.90411	-0.081
Mof_H 	H 	0.55667	0.64343	0.04363	0.058
Mof_C 	C 	0.59507	0.71993	0.05813	0.003
Mof_H 	H 	0.71827	0.67733	0.06953	0.056
Mof_H 	H 	0.31007	0.17783	0.90833	0.058
Mof_H 	H 	0.56387	0.73123	0.05493	0.029
Mof_Zn	Zn	0.32083	0.73674	0.31497	1.212
Mof_O 	O 	0.3213	0.79713	0.33029	-0.507
Mof_O 	O 	0.24112	0.70794	0.30116	-0.504
Mof_O 	O 	0.38673	0.78312	0.29715	-0.5
Mof_C 	C 	0.32533	0.79027	0.34667	0.413
Mof_C 	C 	0.20903	0.65317	0.295	0.397
Mof_C 	C 	0.32103	0.84367	0.35737	-0.166
Mof_O 	O 	0.33893	0.75227	0.35318	-0.548
Mof_C 	C 	0.15623	0.64397	0.28179	-0.125
Mof_C 	C 	0.30483	0.88467	0.3513	0.106
Mof_C 	C 	0.32943	0.84597	0.37434	0.073
Mof_C 	C 	0.13893	0.69137	0.27951	0.055
Mof_C 	C 	0.12443	0.58497	0.27206	0.065
Mof_H 	H 	0.29473	0.88167	0.33987	0.01
Mof_C 	C 	0.30133	0.93087	0.36026	-0.154
Mof_C 	C 	0.32493	0.89157	0.38481	-0.129
Mof_H 	H 	0.33853	0.81547	0.37927	0.011
Mof_H 	H 	0.15673	0.72957	0.28597	0.021
Mof_C 	C 	0.09243	0.67797	0.2668	-0.129
Mof_C 	C 	0.08463	0.57787	0.25919	-0.145
Mof_H 	H 	0.13163	0.55047	0.27477	0.02
Mof_H 	H 	0.28953	0.95837	0.35467	0.091
Mof_C 	C 	0.31353	0.93987	0.37684	0.053
Mof_H 	H 	0.32913	0.89057	0.39647	0.075
Mof_C 	C 	0.07013	0.62427	0.25601	0.076
Mof_H 	H 	0.07573	0.70627	0.26547	0.075
Mof_H 	H 	0.06733	0.54037	0.25247	0.081
Mof_C 	C 	0.30763	0.98737	0.3872	0.087
Mof_C 	C 	0.01873	0.61237	0.24282	0.018
Mof_C 	C 	0.25833	0.00277	0.38419	-0.196
Mof_C 	C 	0.35313	0.02197	0.40023	-0.142
Mof_C 	C 	0.97523	0.54737	0.23745	-0.09
Mof_H 	H 	0.22333	0.97677	0.37697	0.105
Mof_C 	C 	0.26173	0.05327	0.39147	0.09
Mof_H 	H 	0.38493	0.01067	0.40287	0.075
Mof_H 	H 	0.97673	0.51117	0.24167	0.061
Mof_H 	H 	0.23053	0.06457	0.38827	-0.002
Mof_Zn	Zn	0.08258	0.01251	0.6483	1.21
Mof_O 	O 	0.14249	0.01203	0.66362	-0.506
Mof_O 	O 	0.13348	0.09221	0.63449	-0.506
Mof_O 	O 	0.06305	0.9466	0.63048	-0.495
Mof_C 	C 	0.1316	0.008	0.68	0.394
Mof_C 	C 	0.1108	0.1243	0.62833	0.397
Mof_C 	C 	0.1893	0.0123	0.6907	-0.16
Mof_O 	O 	0.08	0.9944	0.68651	-0.53
Mof_C 	C 	0.1544	0.1771	0.61512	-0.126
Mof_C 	C 	0.2465	0.0285	0.68463	0.111
Mof_C 	C 	0.1832	0.0039	0.70767	0.051
Mof_C 	C 	0.2191	0.1944	0.61284	0.055
Mof_C 	C 	0.1272	0.2089	0.60539	0.065
Mof_H 	H 	0.2536	0.0386	0.6732	0.007
Mof_C 	C 	0.2962	0.032	0.69359	-0.174
Mof_C 	C 	0.2333	0.0084	0.71814	-0.135
Mof_H 	H 	0.1436	0.9948	0.7126	0.028
Mof_H 	H 	0.2395	0.1766	0.6193	0.02
Mof_C 	C 	0.2522	0.2409	0.60013	-0.131
Mof_C 	C 	0.1599	0.2487	0.59252	-0.147
Mof_H 	H 	0.0855	0.2017	0.6081	0.02
Mof_H 	H 	0.3355	0.0438	0.688	0.094
Mof_C 	C 	0.293	0.0198	0.71017	0.082
Mof_H 	H 	0.2281	0.0042	0.7298	0.072
Mof_C 	C 	0.2208	0.2632	0.58934	0.078
Mof_H 	H 	0.2972	0.2576	0.5988	0.074
Mof_H 	H 	0.1397	0.266	0.5858	0.08
Mof_C 	C 	0.3464	0.0257	0.72053	0.001
Mof_C 	C 	0.2603	0.3146	0.57615	0.011
Mof_C 	C 	0.4111	0.075	0.71752	-0.089
Mof_C 	C 	0.3355	0.9802	0.73356	-0.071
Mof_C 	C 	0.2388	0.3581	0.57078	-0.08
Mof_H 	H 	0.4201	0.11	0.7103	0.061
Mof_C 	C 	0.4582	0.0716	0.7248	0.014
Mof_H 	H 	0.2924	0.9484	0.7362	0.058
Mof_H 	H 	0.2011	0.3566	0.575	0.058
Mof_H 	H 	0.5007	0.1028	0.7216	0.025
Mof_Zn	Zn	0.74924	0.34584	0.98163	1.212
Mof_O 	O 	0.80916	0.34536	0.99695	-0.511
Mof_O 	O 	0.80015	0.42554	0.96782	-0.504
Mof_O 	O 	0.72972	0.27993	0.96381	-0.5
Mof_C 	C 	0.79827	0.34133	0.01333	0.425
Mof_C 	C 	0.77747	0.45763	0.96166	0.396
Mof_C 	C 	0.85597	0.34563	0.02403	-0.204
Mof_O 	O 	0.74667	0.32773	0.01984	-0.552
Mof_C 	C 	0.82107	0.51043	0.94845	-0.122
Mof_C 	C 	0.91317	0.36183	0.01796	0.161
Mof_C 	C 	0.84987	0.33723	0.041	0.11
Mof_C 	C 	0.88577	0.52773	0.94617	0.049
Mof_C 	C 	0.79387	0.54223	0.93872	0.058
Mof_H 	H 	0.92027	0.37193	0.00653	-0.011
Mof_C 	C 	0.96287	0.36533	0.02692	-0.224
Mof_C 	C 	0.89997	0.34173	0.05147	-0.173
Mof_H 	H 	0.81027	0.32813	0.04593	-0.002
Mof_H 	H 	0.90617	0.50993	0.95263	0.022
Mof_C 	C 	0.91887	0.57423	0.93346	-0.123
Mof_C 	C 	0.82657	0.58203	0.92585	-0.137
Mof_H 	H 	0.75217	0.53503	0.94143	0.022
Mof_H 	H 	0.00217	0.37713	0.02133	0.115
Mof_C 	C 	0.95967	0.35313	0.0435	0.111
Mof_H 	H 	0.89477	0.33753	0.06313	0.088
Mof_C 	C 	0.88747	0.59653	0.92267	0.066
Mof_H 	H 	0.96387	0.59093	0.93213	0.071
Mof_H 	H 	0.80637	0.59933	0.91913	0.076
Mof_C 	C 	0.01307	0.35903	0.05386	-0.006
Mof_C 	C 	0.92697	0.64793	0.90948	0.031
Mof_C 	C 	0.07777	0.40833	0.05085	-0.072
Mof_C 	C 	0.00217	0.31353	0.06689	-0.06
Mof_C 	C 	0.90547	0.69143	0.90411	-0.107
Mof_H 	H 	0.08677	0.44333	0.04363	0.056
Mof_C 	C 	0.12487	0.40493	0.05813	-0.004
Mof_H 	H 	0.95907	0.28173	0.06953	0.047
Mof_H 	H 	0.86777	0.68993	0.90833	0.068
Mof_H 	H 	0.16737	0.43613	0.05493	0.031
Mof_Zn	Zn	0.41591	0.67917	0.31497	1.212
Mof_O 	O 	0.47582	0.6787	0.33029	-0.51
Mof_O 	O 	0.46681	0.75888	0.30116	-0.504
Mof_O 	O 	0.39638	0.61327	0.29715	-0.5
Mof_C 	C 	0.46493	0.67467	0.34667	0.422
Mof_C 	C 	0.44413	0.79097	0.295	0.397
Mof_C 	C 	0.52263	0.67897	0.35737	-0.194
Mof_O 	O 	0.41333	0.66107	0.35318	-0.55
Mof_C 	C 	0.48773	0.84377	0.28179	-0.124
Mof_C 	C 	0.57983	0.69517	0.3513	0.145
Mof_C 	C 	0.51653	0.67057	0.37434	0.102
Mof_C 	C 	0.55243	0.86107	0.27951	0.054
Mof_C 	C 	0.46053	0.87557	0.27206	0.064
Mof_H 	H 	0.58693	0.70527	0.33987	-0.004
Mof_C 	C 	0.62953	0.69867	0.36026	-0.202
Mof_C 	C 	0.56663	0.67507	0.38481	-0.165
Mof_H 	H 	0.47693	0.66147	0.37927	0.001
Mof_H 	H 	0.57283	0.84327	0.28597	0.022
Mof_C 	C 	0.58553	0.90757	0.2668	-0.127
Mof_C 	C 	0.49323	0.91537	0.25919	-0.143
Mof_H 	H 	0.41883	0.86837	0.27477	0.021
Mof_H 	H 	0.66883	0.71047	0.35467	0.105
Mof_C 	C 	0.62633	0.68647	0.37684	0.104
Mof_H 	H 	0.56143	0.67087	0.39647	0.087
Mof_C 	C 	0.55413	0.92987	0.25601	0.074
Mof_H 	H 	0.63053	0.92427	0.26547	0.075
Mof_H 	H 	0.47303	0.93267	0.25247	0.081
Mof_C 	C 	0.67973	0.69237	0.3872	0.001
Mof_C 	C 	0.59363	0.98127	0.24282	0.026
Mof_C 	C 	0.74443	0.74167	0.38419	-0.08
Mof_C 	C 	0.66883	0.64687	0.40023	-0.076
Mof_C 	C 	0.57213	0.02477	0.23745	-0.101
Mof_H 	H 	0.75343	0.77667	0.37697	0.058
Mof_C 	C 	0.79153	0.73827	0.39147	0.004
Mof_H 	H 	0.62573	0.61507	0.40287	0.056
Mof_H 	H 	0.53443	0.02327	0.24167	0.062
Mof_H 	H 	0.83403	0.76947	0.38827	0.029
Mof_O 	O 	-0	1.06972e-32	0.15756	-0.946
Mof_Zn	Zn	5.34861e-33	0	0.18239	1.208
Mof_O 	O 	0.66667	0.33333	0.49089	-0.944
Mof_Zn	Zn	0.66667	0.33333	0.51573	1.211
Mof_O 	O 	0.33333	0.66667	0.82423	-0.944
Mof_Zn	Zn	0.33333	0.66667	0.84906	1.211
Mof_O 	O 	-4.27889e-32	0	0.65756	-0.946
Mof_Zn	Zn	-0	0	0.68239	1.208
Mof_O 	O 	0.66667	0.33333	0.99089	-0.944
Mof_Zn	Zn	0.66667	0.33333	0.01573	1.211
Mof_O 	O 	0.33333	0.66667	0.32423	-0.944
Mof_Zn	Zn	0.33333	0.66667	0.34906	1.211
Mof_C 	C 	0.53905	0.31353	0.18857	0.415
Mof_C 	C 	0.48913	0.30522	0.17589	-0.176
Mof_C 	C 	0.4477	0.24578	0.16883	0.091
Mof_H 	H 	0.4509	0.2096	0.1724	0.011
Mof_C 	C 	0.4009	0.23566	0.15665	-0.16
Mof_H 	H 	0.3756	0.1943	0.1518	0.084
Mof_C 	C 	0.39228	0.28716	0.15174	0.09
Mof_C 	C 	0.42875	0.34539	0.15968	-0.167
Mof_H 	H 	0.4211	0.3799	0.1575	0.086
Mof_C 	C 	0.47734	0.35454	0.17106	0.092
Mof_H 	H 	0.5033	0.3962	0.1757	0.011
Mof_C 	C 	0.34151	0.27625	0.13889	0.005
Mof_C 	C 	0.28751	0.21447	0.1359	-0.07
Mof_H 	H 	0.2809	0.1788	0.1425	0.057
Mof_C 	C 	0.24319	0.20574	0.12311	-0.006
Mof_H 	H 	0.207	0.1641	0.1214	0.04
Mof_C 	C 	0.25126	0.25681	0.11295	-0.076
Mof_H 	H 	0.2226	0.2487	0.104	0.056
Mof_C 	C 	0.30206	0.32041	0.11606	0.019
Mof_C 	C 	0.34655	0.32929	0.1292	-0.079
Mof_H 	H 	0.3805	0.3717	0.1316	0.056
Mof_C 	C 	0.30875	0.3766	0.10572	0.051
Mof_C 	C 	0.29352	0.3695	0.08861	-0.123
Mof_H 	H 	0.283	0.3303	0.0831	0.07
Mof_C 	C 	0.294	0.4193	0.07992	0.049
Mof_H 	H 	0.2809	0.4125	0.0687	0.023
Mof_C 	C 	0.313	0.4794	0.08703	-0.117
Mof_C 	C 	0.3307	0.4901	0.10457	0.031
Mof_H 	H 	0.3416	0.5298	0.1098	0.034
Mof_C 	C 	0.3311	0.4387	0.11351	-0.106
Mof_H 	H 	0.346	0.4453	0.1246	0.067
Mof_C 	C 	0.315	0.5345	0.07752	0.343
Mof_O 	O 	0.57342	0.37173	0.19486	-0.492
Mof_O 	O 	0.54074	0.2642	0.19308	-0.524
Mof_O 	O 	0.33154	0.58954	0.08515	-0.478
Mof_O 	O 	0.30648	0.52547	0.06119	-0.5
Mof_Zn	Zn	0.65356	0.40439	0.20909	1.208
Mof_C 	C 	0.20572	0.64686	0.5219	0.415
Mof_C 	C 	0.1558	0.63855	0.50922	-0.175
Mof_C 	C 	0.11437	0.57911	0.50216	0.091
Mof_H 	H 	0.11757	0.54293	0.50573	0.012
Mof_C 	C 	0.06757	0.56899	0.48998	-0.159
Mof_H 	H 	0.04227	0.52763	0.48513	0.086
Mof_C 	C 	0.05895	0.62049	0.48507	0.09
Mof_C 	C 	0.09542	0.67872	0.49301	-0.165
Mof_H 	H 	0.08777	0.71323	0.49083	0.087
Mof_C 	C 	0.14401	0.68787	0.50439	0.091
Mof_H 	H 	0.16997	0.72953	0.50903	0.012
Mof_C 	C 	0.00818	0.60958	0.47222	0.01
Mof_C 	C 	0.95418	0.5478	0.46923	-0.077
Mof_H 	H 	0.94757	0.51213	0.47583	0.059
Mof_C 	C 	0.90986	0.53907	0.45644	-0.005
Mof_H 	H 	0.87367	0.49743	0.45473	0.04
Mof_C 	C 	0.91793	0.59014	0.44628	-0.075
Mof_H 	H 	0.88927	0.58203	0.43733	0.056
Mof_C 	C 	0.96873	0.65374	0.44939	0.013
Mof_C 	C 	0.01322	0.66262	0.46253	-0.073
Mof_H 	H 	0.04717	0.70503	0.46493	0.055
Mof_C 	C 	0.97542	0.70993	0.43905	0.054
Mof_C 	C 	0.96019	0.70283	0.42194	-0.124
Mof_H 	H 	0.94967	0.66363	0.41643	0.07
Mof_C 	C 	0.96067	0.75263	0.41325	0.049
Mof_H 	H 	0.94757	0.74583	0.40203	0.022
Mof_C 	C 	0.97967	0.81273	0.42036	-0.115
Mof_C 	C 	0.99737	0.82343	0.4379	0.025
Mof_H 	H 	0.00827	0.86313	0.44313	0.042
Mof_C 	C 	0.99777	0.77203	0.44684	-0.114
Mof_H 	H 	0.01267	0.77863	0.45793	0.074
Mof_C 	C 	0.98167	0.86783	0.41085	0.342
Mof_O 	O 	0.24009	0.70506	0.52819	-0.491
Mof_O 	O 	0.20741	0.59753	0.52641	-0.523
Mof_O 	O 	0.99821	0.92287	0.41848	-0.476
Mof_O 	O 	0.97315	0.8588	0.39452	-0.5
Mof_Zn	Zn	0.32023	0.73772	0.54243	1.208
Mof_C 	C 	0.87238	0.9802	0.85524	0.427
Mof_C 	C 	0.82246	0.97189	0.84256	-0.174
Mof_C 	C 	0.78103	0.91245	0.8355	0.1
Mof_H 	H 	0.78423	0.87627	0.83907	0.008
Mof_C 	C 	0.73423	0.90233	0.82332	-0.174
Mof_H 	H 	0.70893	0.86097	0.81847	0.09
Mof_C 	C 	0.72561	0.95383	0.81841	0.117
Mof_C 	C 	0.76208	0.01206	0.82635	-0.192
Mof_H 	H 	0.75443	0.04657	0.82417	0.092
Mof_C 	C 	0.81067	0.02121	0.83773	0.091
Mof_H 	H 	0.83663	0.06287	0.84237	0.009
Mof_C 	C 	0.67484	0.94292	0.80556	-0.014
Mof_C 	C 	0.62084	0.88114	0.80257	-0.055
Mof_H 	H 	0.61423	0.84547	0.80917	0.052
Mof_C 	C 	0.57652	0.87241	0.78978	-0.018
Mof_H 	H 	0.54033	0.83077	0.78807	0.045
Mof_C 	C 	0.58459	0.92348	0.77962	-0.066
Mof_H 	H 	0.55593	0.91537	0.77067	0.054
Mof_C 	C 	0.63539	0.98708	0.78273	0.012
Mof_C 	C 	0.67988	0.99596	0.79587	-0.047
Mof_H 	H 	0.71383	0.03837	0.79827	0.037
Mof_C 	C 	0.64208	0.04327	0.77239	0.058
Mof_C 	C 	0.62685	0.03617	0.75528	-0.158
Mof_H 	H 	0.61633	0.99697	0.74977	0.09
Mof_C 	C 	0.62733	0.08597	0.74659	0.07
Mof_H 	H 	0.61423	0.07917	0.73537	0.013
Mof_C 	C 	0.64633	0.14607	0.7537	-0.128
Mof_C 	C 	0.66403	0.15677	0.77124	0.039
Mof_H 	H 	0.67493	0.19647	0.77647	0.03
Mof_C 	C 	0.66443	0.10537	0.78018	-0.116
Mof_H 	H 	0.67933	0.11197	0.79127	0.068
Mof_C 	C 	0.64833	0.20117	0.74419	0.346
Mof_O 	O 	0.90675	0.0384	0.86153	-0.502
Mof_O 	O 	0.87407	0.93087	0.85975	-0.525
Mof_O 	O 	0.66487	0.25621	0.75182	-0.48
Mof_O 	O 	0.63981	0.19214	0.72786	-0.501
Mof_Zn	Zn	0.9869	0.07105	0.87576	1.206
Mof_C 	C 	0.68647	0.22552	0.18857	0.415
Mof_C 	C 	0.69478	0.18391	0.17589	-0.176
Mof_C 	C 	0.75422	0.20192	0.16883	0.091
Mof_H 	H 	0.7904	0.2413	0.1724	0.011
Mof_C 	C 	0.76434	0.16524	0.15665	-0.16
Mof_H 	H 	0.8057	0.1813	0.1518	0.084
Mof_C 	C 	0.71284	0.10512	0.15174	0.09
Mof_C 	C 	0.65461	0.08336	0.15968	-0.166
Mof_H 	H 	0.6201	0.0412	0.1575	0.084
Mof_C 	C 	0.64546	0.1228	0.17106	0.092
Mof_H 	H 	0.6038	0.1071	0.1757	0.01
Mof_C 	C 	0.72375	0.06526	0.13889	0.003
Mof_C 	C 	0.78553	0.07304	0.1359	-0.062
Mof_H 	H 	0.8212	0.1021	0.1425	0.054
Mof_C 	C 	0.79426	0.03745	0.12311	-0.029
Mof_H 	H 	0.8359	0.0429	0.1214	0.045
Mof_C 	C 	0.74319	0.99445	0.11295	-0.057
Mof_H 	H 	0.7513	0.9739	0.104	0.052
Mof_C 	C 	0.67959	0.98165	0.11606	0.025
Mof_C 	C 	0.67071	0.01726	0.1292	-0.091
Mof_H 	H 	0.6283	0.0088	0.1316	0.056
Mof_C 	C 	0.6234	0.93215	0.10572	0.052
Mof_C 	C 	0.6305	0.92402	0.08861	-0.122
Mof_H 	H 	0.6697	0.9527	0.0831	0.072
Mof_C 	C 	0.5807	0.8747	0.07992	0.049
Mof_H 	H 	0.5875	0.8684	0.0687	0.023
Mof_C 	C 	0.5206	0.8336	0.08703	-0.116
Mof_C 	C 	0.5099	0.8406	0.10457	0.031
Mof_H 	H 	0.4702	0.8118	0.1098	0.035
Mof_C 	C 	0.5613	0.8924	0.11351	-0.106
Mof_H 	H 	0.5547	0.9007	0.1246	0.07
Mof_C 	C 	0.4655	0.7805	0.07752	0.343
Mof_O 	O 	0.62827	0.20169	0.19486	-0.492
Mof_O 	O 	0.7358	0.27654	0.19308	-0.524
Mof_O 	O 	0.41046	0.742	0.08515	-0.478
Mof_O 	O 	0.47453	0.78101	0.06119	-0.5
Mof_Zn	Zn	0.59561	0.24918	0.20909	1.208
Mof_C 	C 	0.35314	0.55885	0.5219	0.415
Mof_C 	C 	0.36145	0.51724	0.50922	-0.176
Mof_C 	C 	0.42089	0.53525	0.50216	0.091
Mof_H 	H 	0.45707	0.57463	0.50573	0.012
Mof_C 	C 	0.43101	0.49857	0.48998	-0.16
Mof_H 	H 	0.47237	0.51463	0.48513	0.085
Mof_C 	C 	0.37951	0.43845	0.48507	0.09
Mof_C 	C 	0.32128	0.41669	0.49301	-0.166
Mof_H 	H 	0.28677	0.37453	0.49083	0.086
Mof_C 	C 	0.31213	0.45613	0.50439	0.092
Mof_H 	H 	0.27047	0.44043	0.50903	0.011
Mof_C 	C 	0.39042	0.39859	0.47222	0.005
Mof_C 	C 	0.4522	0.40637	0.46923	-0.07
Mof_H 	H 	0.48787	0.43543	0.47583	0.058
Mof_C 	C 	0.46093	0.37078	0.45644	-0.006
Mof_H 	H 	0.50257	0.37623	0.45473	0.041
Mof_C 	C 	0.40986	0.32778	0.44628	-0.077
Mof_H 	H 	0.41797	0.30723	0.43733	0.056
Mof_C 	C 	0.34626	0.31498	0.44939	0.019
Mof_C 	C 	0.33738	0.35059	0.46253	-0.08
Mof_H 	H 	0.29497	0.34213	0.46493	0.056
Mof_C 	C 	0.29007	0.26548	0.43905	0.051
Mof_C 	C 	0.29717	0.25735	0.42194	-0.123
Mof_H 	H 	0.33637	0.28603	0.41643	0.07
Mof_C 	C 	0.24737	0.20803	0.41325	0.048
Mof_H 	H 	0.25417	0.20173	0.40203	0.023
Mof_C 	C 	0.18727	0.16693	0.42036	-0.117
Mof_C 	C 	0.17657	0.17393	0.4379	0.03
Mof_H 	H 	0.13687	0.14513	0.44313	0.033
Mof_C 	C 	0.22797	0.22573	0.44684	-0.107
Mof_H 	H 	0.22137	0.23403	0.45793	0.067
Mof_C 	C 	0.13217	0.11383	0.41085	0.342
Mof_O 	O 	0.29494	0.53502	0.52819	-0.492
Mof_O 	O 	0.40247	0.60987	0.52641	-0.523
Mof_O 	O 	0.07713	0.07533	0.41848	-0.479
Mof_O 	O 	0.1412	0.11434	0.39452	-0.5
Mof_Zn	Zn	0.26228	0.58251	0.54243	1.208
Mof_C 	C 	0.0198	0.89219	0.85524	0.42
Mof_C 	C 	0.02811	0.85058	0.84256	-0.173
Mof_C 	C 	0.08755	0.86859	0.8355	0.094
Mof_H 	H 	0.12373	0.90797	0.83907	0.013
Mof_C 	C 	0.09767	0.83191	0.82332	-0.165
Mof_H 	H 	0.13903	0.84797	0.81847	0.088
Mof_C 	C 	0.04617	0.77179	0.81841	0.102
Mof_C 	C 	0.98794	0.75003	0.82635	-0.177
Mof_H 	H 	0.95343	0.70787	0.82417	0.088
Mof_C 	C 	0.97879	0.78947	0.83773	0.09
Mof_H 	H 	0.93713	0.77377	0.84237	0.011
Mof_C 	C 	0.05708	0.73193	0.80556	-0.003
Mof_C 	C 	0.11886	0.73971	0.80257	-0.063
Mof_H 	H 	0.15453	0.76877	0.80917	0.056
Mof_C 	C 	0.12759	0.70412	0.78978	-0.011
Mof_H 	H 	0.16923	0.70957	0.78807	0.043
Mof_C 	C 	0.07652	0.66112	0.77962	-0.072
Mof_H 	H 	0.08463	0.64057	0.77067	0.056
Mof_C 	C 	0.01292	0.64832	0.78273	0.016
Mof_C 	C 	0.00404	0.68393	0.79587	-0.065
Mof_H 	H 	0.96163	0.67547	0.79827	0.048
Mof_C 	C 	0.95673	0.59882	0.77239	0.054
Mof_C 	C 	0.96383	0.59069	0.75528	-0.139
Mof_H 	H 	0.00303	0.61937	0.74977	0.08
Mof_C 	C 	0.91403	0.54137	0.74659	0.059
Mof_H 	H 	0.92083	0.53507	0.73537	0.018
Mof_C 	C 	0.85393	0.50027	0.7537	-0.122
Mof_C 	C 	0.84323	0.50727	0.77124	0.034
Mof_H 	H 	0.80353	0.47847	0.77647	0.032
Mof_C 	C 	0.89463	0.55907	0.78018	-0.111
Mof_H 	H 	0.88803	0.56737	0.79127	0.068
Mof_C 	C 	0.79883	0.44717	0.74419	0.344
Mof_O 	O 	0.9616	0.86836	0.86153	-0.495
Mof_O 	O 	0.06913	0.94321	0.85975	-0.518
Mof_O 	O 	0.74379	0.40867	0.75182	-0.479
Mof_O 	O 	0.80786	0.44768	0.72786	-0.501
Mof_Zn	Zn	0.92895	0.91584	0.87576	1.209
Mof_C 	C 	0.77448	0.46095	0.18857	0.415
Mof_C 	C 	0.81609	0.51087	0.17589	-0.176
Mof_C 	C 	0.79808	0.5523	0.16883	0.091
Mof_H 	H 	0.7587	0.5491	0.1724	0.011
Mof_C 	C 	0.83476	0.5991	0.15665	-0.16
Mof_H 	H 	0.8187	0.6244	0.1518	0.085
Mof_C 	C 	0.89488	0.60772	0.15174	0.09
Mof_C 	C 	0.91664	0.57125	0.15968	-0.167
Mof_H 	H 	0.9588	0.5789	0.1575	0.085
Mof_C 	C 	0.8772	0.52266	0.17106	0.092
Mof_H 	H 	0.8929	0.4967	0.1757	0.01
Mof_C 	C 	0.93474	0.65849	0.13889	0.004
Mof_C 	C 	0.92696	0.71249	0.1359	-0.066
Mof_H 	H 	0.8979	0.7191	0.1425	0.056
Mof_C 	C 	0.96255	0.75681	0.12311	-0.017
Mof_H 	H 	0.9571	0.793	0.1214	0.043
Mof_C 	C 	0.00555	0.74874	0.11295	-0.067
Mof_H 	H 	0.0261	0.7774	0.104	0.055
Mof_C 	C 	0.01835	0.69794	0.11606	0.022
Mof_C 	C 	0.98274	0.65345	0.1292	-0.085
Mof_H 	H 	0.9912	0.6195	0.1316	0.056
Mof_C 	C 	0.06785	0.69125	0.10572	0.051
Mof_C 	C 	0.07598	0.70648	0.08861	-0.122
Mof_H 	H 	0.0473	0.717	0.0831	0.071
Mof_C 	C 	0.1253	0.706	0.07992	0.049
Mof_H 	H 	0.1316	0.7191	0.0687	0.023
Mof_C 	C 	0.1664	0.687	0.08703	-0.117
Mof_C 	C 	0.1594	0.6693	0.10457	0.031
Mof_H 	H 	0.1882	0.6584	0.1098	0.034
Mof_C 	C 	0.1076	0.6689	0.11351	-0.106
Mof_H 	H 	0.0993	0.654	0.1246	0.068
Mof_C 	C 	0.2195	0.685	0.07752	0.343
Mof_O 	O 	0.79831	0.42658	0.19486	-0.492
Mof_O 	O 	0.72346	0.45926	0.19308	-0.523
Mof_O 	O 	0.258	0.66846	0.08515	-0.478
Mof_O 	O 	0.21899	0.69352	0.06119	-0.5
Mof_Zn	Zn	0.75082	0.34644	0.20909	1.208
Mof_C 	C 	0.44115	0.79428	0.5219	0.414
Mof_C 	C 	0.48276	0.8442	0.50922	-0.174
Mof_C 	C 	0.46475	0.88563	0.50216	0.09
Mof_H 	H 	0.42537	0.88243	0.50573	0.013
Mof_C 	C 	0.50143	0.93243	0.48998	-0.157
Mof_H 	H 	0.48537	0.95773	0.48513	0.087
Mof_C 	C 	0.56155	0.94105	0.48507	0.088
Mof_C 	C 	0.58331	0.90458	0.49301	-0.164
Mof_H 	H 	0.62547	0.91223	0.49083	0.086
Mof_C 	C 	0.54387	0.85599	0.50439	0.091
Mof_H 	H 	0.55957	0.83003	0.50903	0.012
Mof_C 	C 	0.60141	0.99182	0.47222	0.016
Mof_C 	C 	0.59363	0.04582	0.46923	-0.085
Mof_H 	H 	0.56457	0.05243	0.47583	0.06
Mof_C 	C 	0.62922	0.09014	0.45644	-0.004
Mof_H 	H 	0.62377	0.12633	0.45473	0.039
Mof_C 	C 	0.67222	0.08207	0.44628	-0.074
Mof_H 	H 	0.69277	0.11073	0.43733	0.055
Mof_C 	C 	0.68502	0.03127	0.44939	0.004
Mof_C 	C 	0.64941	0.98678	0.46253	-0.066
Mof_H 	H 	0.65787	0.95283	0.46493	0.053
Mof_C 	C 	0.73452	0.02458	0.43905	0.059
Mof_C 	C 	0.74265	0.03981	0.42194	-0.129
Mof_H 	H 	0.71397	0.05033	0.41643	0.071
Mof_C 	C 	0.79197	0.03933	0.41325	0.05
Mof_H 	H 	0.79827	0.05243	0.40203	0.021
Mof_C 	C 	0.83307	0.02033	0.42036	-0.116
Mof_C 	C 	0.82607	0.00263	0.4379	0.019
Mof_H 	H 	0.85487	0.99173	0.44313	0.046
Mof_C 	C 	0.77427	0.00223	0.44684	-0.125
Mof_H 	H 	0.76597	0.98733	0.45793	0.081
Mof_C 	C 	0.88617	0.01833	0.41085	0.341
Mof_O 	O 	0.46498	0.75991	0.52819	-0.492
Mof_O 	O 	0.39013	0.79259	0.52641	-0.522
Mof_O 	O 	0.92467	0.00179	0.41848	-0.484
Mof_O 	O 	0.88566	0.02685	0.39452	-0.503
Mof_Zn	Zn	0.41749	0.67977	0.54243	1.208
Mof_C 	C 	0.10781	0.12762	0.85524	0.414
Mof_C 	C 	0.14942	0.17754	0.84256	-0.176
Mof_C 	C 	0.13141	0.21897	0.8355	0.091
Mof_H 	H 	0.09203	0.21577	0.83907	0.012
Mof_C 	C 	0.16809	0.26577	0.82332	-0.16
Mof_H 	H 	0.15203	0.29107	0.81847	0.085
Mof_C 	C 	0.22821	0.27439	0.81841	0.09
Mof_C 	C 	0.24997	0.23792	0.82635	-0.167
Mof_H 	H 	0.29213	0.24557	0.82417	0.085
Mof_C 	C 	0.21053	0.18933	0.83773	0.092
Mof_H 	H 	0.22623	0.16337	0.84237	0.01
Mof_C 	C 	0.26807	0.32516	0.80556	0.005
Mof_C 	C 	0.26029	0.37916	0.80257	-0.07
Mof_H 	H 	0.23123	0.38577	0.80917	0.058
Mof_C 	C 	0.29588	0.42348	0.78978	-0.006
Mof_H 	H 	0.29043	0.45967	0.78807	0.041
Mof_C 	C 	0.33888	0.41541	0.77962	-0.076
Mof_H 	H 	0.35943	0.44407	0.77067	0.056
Mof_C 	C 	0.35168	0.36461	0.78273	0.019
Mof_C 	C 	0.31607	0.32012	0.79587	-0.079
Mof_H 	H 	0.32453	0.28617	0.79827	0.055
Mof_C 	C 	0.40118	0.35792	0.77239	0.051
Mof_C 	C 	0.40931	0.37315	0.75528	-0.123
Mof_H 	H 	0.38063	0.38367	0.74977	0.07
Mof_C 	C 	0.45863	0.37267	0.74659	0.049
Mof_H 	H 	0.46493	0.38577	0.73537	0.023
Mof_C 	C 	0.49973	0.35367	0.7537	-0.117
Mof_C 	C 	0.49273	0.33597	0.77124	0.03
Mof_H 	H 	0.52153	0.32507	0.77647	0.033
Mof_C 	C 	0.44093	0.33557	0.78018	-0.107
Mof_H 	H 	0.43263	0.32067	0.79127	0.067
Mof_C 	C 	0.55283	0.35167	0.74419	0.343
Mof_O 	O 	0.13164	0.09325	0.86153	-0.494
Mof_O 	O 	0.05679	0.12593	0.85975	-0.522
Mof_O 	O 	0.59133	0.33513	0.75182	-0.479
Mof_O 	O 	0.55232	0.36019	0.72786	-0.5
Mof_Zn	Zn	0.08416	0.0131	0.87576	1.206
Mof_C 	C 	0.68647	0.46095	0.68857	0.415
Mof_C 	C 	0.69478	0.51087	0.67589	-0.176
Mof_C 	C 	0.75422	0.5523	0.66883	0.091
Mof_H 	H 	0.7904	0.5491	0.6724	0.011
Mof_C 	C 	0.76434	0.5991	0.65665	-0.16
Mof_H 	H 	0.8057	0.6244	0.6518	0.085
Mof_C 	C 	0.71284	0.60772	0.65174	0.09
Mof_C 	C 	0.65461	0.57125	0.65968	-0.167
Mof_H 	H 	0.6201	0.5789	0.6575	0.086
Mof_C 	C 	0.64546	0.52266	0.67106	0.092
Mof_H 	H 	0.6038	0.4967	0.6757	0.011
Mof_C 	C 	0.72375	0.65849	0.63889	0.005
Mof_C 	C 	0.78553	0.71249	0.6359	-0.07
Mof_H 	H 	0.8212	0.7191	0.6425	0.057
Mof_C 	C 	0.79426	0.75681	0.62311	-0.006
Mof_H 	H 	0.8359	0.793	0.6214	0.041
Mof_C 	C 	0.74319	0.74874	0.61295	-0.076
Mof_H 	H 	0.7513	0.7774	0.604	0.057
Mof_C 	C 	0.67959	0.69794	0.61606	0.019
Mof_C 	C 	0.67071	0.65345	0.6292	-0.079
Mof_H 	H 	0.6283	0.6195	0.6316	0.056
Mof_C 	C 	0.6234	0.69125	0.60572	0.051
Mof_C 	C 	0.6305	0.70648	0.58861	-0.123
Mof_H 	H 	0.6697	0.717	0.5831	0.07
Mof_C 	C 	0.5807	0.706	0.57992	0.049
Mof_H 	H 	0.5875	0.7191	0.5687	0.023
Mof_C 	C 	0.5206	0.687	0.58703	-0.117
Mof_C 	C 	0.5099	0.6693	0.60457	0.031
Mof_H 	H 	0.4702	0.6584	0.6098	0.034
Mof_C 	C 	0.5613	0.6689	0.61351	-0.106
Mof_H 	H 	0.5547	0.654	0.6246	0.067
Mof_C 	C 	0.4655	0.685	0.57752	0.343
Mof_O 	O 	0.62827	0.42658	0.69486	-0.492
Mof_O 	O 	0.7358	0.45926	0.69308	-0.523
Mof_O 	O 	0.41046	0.66846	0.58515	-0.478
Mof_O 	O 	0.47453	0.69352	0.56119	-0.5
Mof_Zn	Zn	0.59561	0.34644	0.70909	1.208
Mof_C 	C 	0.35314	0.79428	0.0219	0.414
Mof_C 	C 	0.36145	0.8442	0.00922	-0.174
Mof_C 	C 	0.42089	0.88563	0.00216	0.09
Mof_H 	H 	0.45707	0.88243	0.00573	0.013
Mof_C 	C 	0.43101	0.93243	0.98998	-0.157
Mof_H 	H 	0.47237	0.95773	0.98513	0.087
Mof_C 	C 	0.37951	0.94105	0.98507	0.089
Mof_C 	C 	0.32128	0.90458	0.99301	-0.164
Mof_H 	H 	0.28677	0.91223	0.99083	0.086
Mof_C 	C 	0.31213	0.85599	0.00439	0.091
Mof_H 	H 	0.27047	0.83003	0.00903	0.012
Mof_C 	C 	0.39042	0.99182	0.97222	0.016
Mof_C 	C 	0.4522	0.04582	0.96923	-0.085
Mof_H 	H 	0.48787	0.05243	0.97583	0.06
Mof_C 	C 	0.46093	0.09014	0.95644	-0.004
Mof_H 	H 	0.50257	0.12633	0.95473	0.039
Mof_C 	C 	0.40986	0.08207	0.94628	-0.073
Mof_H 	H 	0.41797	0.11073	0.93733	0.055
Mof_C 	C 	0.34626	0.03127	0.94939	0.004
Mof_C 	C 	0.33738	0.98678	0.96253	-0.065
Mof_H 	H 	0.29497	0.95283	0.96493	0.054
Mof_C 	C 	0.29007	0.02458	0.93905	0.059
Mof_C 	C 	0.29717	0.03981	0.92194	-0.128
Mof_H 	H 	0.33637	0.05033	0.91643	0.071
Mof_C 	C 	0.24737	0.03933	0.91325	0.05
Mof_H 	H 	0.25417	0.05243	0.90203	0.021
Mof_C 	C 	0.18727	0.02033	0.92036	-0.115
Mof_C 	C 	0.17657	0.00263	0.9379	0.018
Mof_H 	H 	0.13687	0.99173	0.94313	0.048
Mof_C 	C 	0.22797	0.00223	0.94684	-0.125
Mof_H 	H 	0.22137	0.98733	0.95793	0.082
Mof_C 	C 	0.13217	0.01833	0.91085	0.341
Mof_O 	O 	0.29494	0.75991	0.02819	-0.492
Mof_O 	O 	0.40247	0.79259	0.02641	-0.522
Mof_O 	O 	0.07713	0.00179	0.91848	-0.481
Mof_O 	O 	0.1412	0.02685	0.89452	-0.502
Mof_Zn	Zn	0.26228	0.67977	0.04243	1.208
Mof_C 	C 	0.0198	0.12762	0.35524	0.42
Mof_C 	C 	0.02811	0.17754	0.34256	-0.176
Mof_C 	C 	0.08755	0.21897	0.3355	0.095
Mof_H 	H 	0.12373	0.21577	0.33907	0.01
Mof_C 	C 	0.09767	0.26577	0.32332	-0.167
Mof_H 	H 	0.13903	0.29107	0.31847	0.087
Mof_C 	C 	0.04617	0.27439	0.31841	0.102
Mof_C 	C 	0.98794	0.23792	0.32635	-0.178
Mof_H 	H 	0.95343	0.24557	0.32417	0.088
Mof_C 	C 	0.97879	0.18933	0.33773	0.092
Mof_H 	H 	0.93713	0.16337	0.34237	0.009
Mof_C 	C 	0.05708	0.32516	0.30556	-0.004
Mof_C 	C 	0.11886	0.37916	0.30257	-0.063
Mof_H 	H 	0.15453	0.38577	0.30917	0.055
Mof_C 	C 	0.12759	0.42348	0.28978	-0.012
Mof_H 	H 	0.16923	0.45967	0.28807	0.043
Mof_C 	C 	0.07652	0.41541	0.27962	-0.072
Mof_H 	H 	0.08463	0.44407	0.27067	0.055
Mof_C 	C 	0.01292	0.36461	0.28273	0.016
Mof_C 	C 	0.00404	0.32012	0.29587	-0.065
Mof_H 	H 	0.96163	0.28617	0.29827	0.047
Mof_C 	C 	0.95673	0.35792	0.27239	0.054
Mof_C 	C 	0.96383	0.37315	0.25528	-0.139
Mof_H 	H 	0.00303	0.38367	0.24977	0.079
Mof_C 	C 	0.91403	0.37267	0.24659	0.058
Mof_H 	H 	0.92083	0.38577	0.23537	0.018
Mof_C 	C 	0.85393	0.35367	0.2537	-0.122
Mof_C 	C 	0.84323	0.33597	0.27124	0.034
Mof_H 	H 	0.80353	0.32507	0.27647	0.032
Mof_C 	C 	0.89463	0.33557	0.28018	-0.111
Mof_H 	H 	0.88803	0.32067	0.29127	0.067
Mof_C 	C 	0.79883	0.35167	0.24419	0.344
Mof_O 	O 	0.9616	0.09325	0.36153	-0.498
Mof_O 	O 	0.06913	0.12593	0.35975	-0.525
Mof_O 	O 	0.74379	0.33513	0.25182	-0.479
Mof_O 	O 	0.80786	0.36019	0.22786	-0.501
Mof_Zn	Zn	0.92895	0.0131	0.37576	1.205
Mof_C 	C 	0.77448	0.31353	0.68857	0.415
Mof_C 	C 	0.81609	0.30522	0.67589	-0.176
Mof_C 	C 	0.79808	0.24578	0.66883	0.091
Mof_H 	H 	0.7587	0.2096	0.6724	0.011
Mof_C 	C 	0.83476	0.23566	0.65665	-0.161
Mof_H 	H 	0.8187	0.1943	0.6518	0.084
Mof_C 	C 	0.89488	0.28716	0.65174	0.09
Mof_C 	C 	0.91664	0.34539	0.65968	-0.167
Mof_H 	H 	0.9588	0.3799	0.6575	0.085
Mof_C 	C 	0.8772	0.35454	0.67106	0.092
Mof_H 	H 	0.8929	0.3962	0.6757	0.011
Mof_C 	C 	0.93474	0.27625	0.63889	0.004
Mof_C 	C 	0.92696	0.21447	0.6359	-0.066
Mof_H 	H 	0.8979	0.1788	0.6425	0.056
Mof_C 	C 	0.96255	0.20574	0.62311	-0.016
Mof_H 	H 	0.9571	0.1641	0.6214	0.042
Mof_C 	C 	0.00555	0.25681	0.61295	-0.068
Mof_H 	H 	0.0261	0.2487	0.604	0.054
Mof_C 	C 	0.01835	0.32041	0.61606	0.022
Mof_C 	C 	0.98274	0.32929	0.6292	-0.084
Mof_H 	H 	0.9912	0.3717	0.6316	0.056
Mof_C 	C 	0.06785	0.3766	0.60572	0.051
Mof_C 	C 	0.07598	0.3695	0.58861	-0.122
Mof_H 	H 	0.0473	0.3303	0.5831	0.071
Mof_C 	C 	0.1253	0.4193	0.57992	0.049
Mof_H 	H 	0.1316	0.4125	0.5687	0.023
Mof_C 	C 	0.1664	0.4794	0.58703	-0.117
Mof_C 	C 	0.1594	0.4901	0.60457	0.031
Mof_H 	H 	0.1882	0.5298	0.6098	0.034
Mof_C 	C 	0.1076	0.4387	0.61351	-0.106
Mof_H 	H 	0.0993	0.4453	0.6246	0.068
Mof_C 	C 	0.2195	0.5345	0.57752	0.343
Mof_O 	O 	0.79831	0.37173	0.69486	-0.492
Mof_O 	O 	0.72346	0.2642	0.69308	-0.524
Mof_O 	O 	0.258	0.58954	0.58515	-0.478
Mof_O 	O 	0.21899	0.52547	0.56119	-0.5
Mof_Zn	Zn	0.75082	0.40439	0.70909	1.208
Mof_C 	C 	0.44115	0.64686	0.0219	0.415
Mof_C 	C 	0.48276	0.63855	0.00922	-0.176
Mof_C 	C 	0.46475	0.57911	0.00216	0.091
Mof_H 	H 	0.42537	0.54293	0.00573	0.011
Mof_C 	C 	0.50143	0.56899	0.98998	-0.16
Mof_H 	H 	0.48537	0.52763	0.98513	0.085
Mof_C 	C 	0.56155	0.62049	0.98507	0.09
Mof_C 	C 	0.58331	0.67872	0.99301	-0.166
Mof_H 	H 	0.62547	0.71323	0.99083	0.086
Mof_C 	C 	0.54387	0.68787	0.00439	0.092
Mof_H 	H 	0.55957	0.72953	0.00903	0.011
Mof_C 	C 	0.60141	0.60958	0.97222	0.006
Mof_C 	C 	0.59363	0.5478	0.96923	-0.07
Mof_H 	H 	0.56457	0.51213	0.97583	0.058
Mof_C 	C 	0.62922	0.53907	0.95644	-0.006
Mof_H 	H 	0.62377	0.49743	0.95473	0.041
Mof_C 	C 	0.67222	0.59014	0.94628	-0.077
Mof_H 	H 	0.69277	0.58203	0.93733	0.056
Mof_C 	C 	0.68502	0.65374	0.94939	0.02
Mof_C 	C 	0.64941	0.66262	0.96253	-0.08
Mof_H 	H 	0.65787	0.70503	0.96493	0.057
Mof_C 	C 	0.73452	0.70993	0.93905	0.051
Mof_C 	C 	0.74265	0.70283	0.92194	-0.122
Mof_H 	H 	0.71397	0.66363	0.91643	0.07
Mof_C 	C 	0.79197	0.75263	0.91325	0.048
Mof_H 	H 	0.79827	0.74583	0.90203	0.023
Mof_C 	C 	0.83307	0.81273	0.92036	-0.116
Mof_C 	C 	0.82607	0.82343	0.9379	0.03
Mof_H 	H 	0.85487	0.86313	0.94313	0.035
Mof_C 	C 	0.77427	0.77203	0.94684	-0.106
Mof_H 	H 	0.76597	0.77863	0.95793	0.067
Mof_C 	C 	0.88617	0.86783	0.91085	0.342
Mof_O 	O 	0.46498	0.70506	0.02819	-0.492
Mof_O 	O 	0.39013	0.59753	0.02641	-0.523
Mof_O 	O 	0.92467	0.92287	0.91848	-0.475
Mof_O 	O 	0.88566	0.8588	0.89452	-0.499
Mof_Zn	Zn	0.41749	0.73772	0.04243	1.208
Mof_C 	C 	0.10781	0.9802	0.35524	0.427
Mof_C 	C 	0.14942	0.97189	0.34256	-0.172
Mof_C 	C 	0.13141	0.91245	0.3355	0.1
Mof_H 	H 	0.09203	0.87627	0.33907	0.01
Mof_C 	C 	0.16809	0.90233	0.32332	-0.173
Mof_H 	H 	0.15203	0.86097	0.31847	0.09
Mof_C 	C 	0.22821	0.95383	0.31841	0.117
Mof_C 	C 	0.24997	0.01206	0.32635	-0.191
Mof_H 	H 	0.29213	0.04657	0.32417	0.092
Mof_C 	C 	0.21053	0.02121	0.33773	0.09
Mof_H 	H 	0.22623	0.06287	0.34237	0.01
Mof_C 	C 	0.26807	0.94292	0.30556	-0.014
Mof_C 	C 	0.26029	0.88114	0.30257	-0.055
Mof_H 	H 	0.23123	0.84547	0.30917	0.052
Mof_C 	C 	0.29588	0.87241	0.28978	-0.018
Mof_H 	H 	0.29043	0.83077	0.28807	0.045
Mof_C 	C 	0.33888	0.92348	0.27962	-0.066
Mof_H 	H 	0.35943	0.91537	0.27067	0.054
Mof_C 	C 	0.35168	0.98708	0.28273	0.012
Mof_C 	C 	0.31607	0.99596	0.29587	-0.046
Mof_H 	H 	0.32453	0.03837	0.29827	0.037
Mof_C 	C 	0.40118	0.04327	0.27239	0.059
Mof_C 	C 	0.40931	0.03617	0.25528	-0.159
Mof_H 	H 	0.38063	0.99697	0.24977	0.091
Mof_C 	C 	0.45863	0.08597	0.24659	0.071
Mof_H 	H 	0.46493	0.07917	0.23537	0.013
Mof_C 	C 	0.49973	0.14607	0.2537	-0.128
Mof_C 	C 	0.49273	0.15677	0.27124	0.039
Mof_H 	H 	0.52153	0.19647	0.27647	0.03
Mof_C 	C 	0.44093	0.10537	0.28018	-0.116
Mof_H 	H 	0.43263	0.11197	0.29127	0.068
Mof_C 	C 	0.55283	0.20117	0.24419	0.347
Mof_O 	O 	0.13164	0.0384	0.36153	-0.501
Mof_O 	O 	0.05679	0.93087	0.35975	-0.522
Mof_O 	O 	0.59133	0.25621	0.25182	-0.48
Mof_O 	O 	0.55232	0.19214	0.22786	-0.501
Mof_Zn	Zn	0.08416	0.07105	0.37576	1.208
Mof_C 	C 	0.53905	0.22552	0.68857	0.415
Mof_C 	C 	0.48913	0.18391	0.67589	-0.176
Mof_C 	C 	0.4477	0.20192	0.66883	0.091
Mof_H 	H 	0.4509	0.2413	0.6724	0.011
Mof_C 	C 	0.4009	0.16524	0.65665	-0.16
Mof_H 	H 	0.3756	0.1813	0.6518	0.085
Mof_C 	C 	0.39228	0.10512	0.65174	0.09
Mof_C 	C 	0.42875	0.08336	0.65968	-0.166
Mof_H 	H 	0.4211	0.0412	0.6575	0.084
Mof_C 	C 	0.47734	0.1228	0.67106	0.092
Mof_H 	H 	0.5033	0.1071	0.6757	0.01
Mof_C 	C 	0.34151	0.06526	0.63889	0.003
Mof_C 	C 	0.28751	0.07304	0.6359	-0.061
Mof_H 	H 	0.2809	0.1021	0.6425	0.054
Mof_C 	C 	0.24319	0.03745	0.62311	-0.029
Mof_H 	H 	0.207	0.0429	0.6214	0.046
Mof_C 	C 	0.25126	0.99445	0.61295	-0.056
Mof_H 	H 	0.2226	0.9739	0.604	0.052
Mof_C 	C 	0.30206	0.98165	0.61606	0.025
Mof_C 	C 	0.34655	0.01726	0.6292	-0.091
Mof_H 	H 	0.3805	0.0088	0.6316	0.056
Mof_C 	C 	0.30875	0.93215	0.60572	0.052
Mof_C 	C 	0.29352	0.92402	0.58861	-0.122
Mof_H 	H 	0.283	0.9527	0.5831	0.072
Mof_C 	C 	0.294	0.8747	0.57992	0.05
Mof_H 	H 	0.2809	0.8684	0.5687	0.024
Mof_C 	C 	0.313	0.8336	0.58703	-0.116
Mof_C 	C 	0.3307	0.8406	0.60457	0.031
Mof_H 	H 	0.3416	0.8118	0.6098	0.035
Mof_C 	C 	0.3311	0.8924	0.61351	-0.106
Mof_H 	H 	0.346	0.9007	0.6246	0.07
Mof_C 	C 	0.315	0.7805	0.57752	0.343
Mof_O 	O 	0.57342	0.20169	0.69486	-0.492
Mof_O 	O 	0.54074	0.27654	0.69308	-0.523
Mof_O 	O 	0.33154	0.742	0.58515	-0.478
Mof_O 	O 	0.30648	0.78101	0.56119	-0.5
Mof_Zn	Zn	0.65356	0.24918	0.70909	1.208
Mof_C 	C 	0.20572	0.55885	0.0219	0.415
Mof_C 	C 	0.1558	0.51724	0.00922	-0.175
Mof_C 	C 	0.11437	0.53525	0.00216	0.091
Mof_H 	H 	0.11757	0.57463	0.00573	0.012
Mof_C 	C 	0.06757	0.49857	0.98998	-0.159
Mof_H 	H 	0.04227	0.51463	0.98513	0.086
Mof_C 	C 	0.05895	0.43845	0.98507	0.089
Mof_C 	C 	0.09542	0.41669	0.99301	-0.166
Mof_H 	H 	0.08777	0.37453	0.99083	0.086
Mof_C 	C 	0.14401	0.45613	0.00439	0.091
Mof_H 	H 	0.16997	0.44043	0.00903	0.011
Mof_C 	C 	0.00818	0.39859	0.97222	0.01
Mof_C 	C 	0.95418	0.40637	0.96923	-0.076
Mof_H 	H 	0.94757	0.43543	0.97583	0.059
Mof_C 	C 	0.90986	0.37078	0.95644	-0.005
Mof_H 	H 	0.87367	0.37623	0.95473	0.04
Mof_C 	C 	0.91793	0.32778	0.94628	-0.075
Mof_H 	H 	0.88927	0.30723	0.93733	0.055
Mof_C 	C 	0.96873	0.31498	0.94939	0.012
Mof_C 	C 	0.01322	0.35059	0.96253	-0.074
Mof_H 	H 	0.04717	0.34213	0.96493	0.055
Mof_C 	C 	0.97542	0.26548	0.93905	0.054
Mof_C 	C 	0.96019	0.25735	0.92194	-0.125
Mof_H 	H 	0.94967	0.28603	0.91643	0.071
Mof_C 	C 	0.96067	0.20803	0.91325	0.049
Mof_H 	H 	0.94757	0.20173	0.90203	0.022
Mof_C 	C 	0.97967	0.16693	0.92036	-0.117
Mof_C 	C 	0.99737	0.17393	0.9379	0.026
Mof_H 	H 	0.00827	0.14513	0.94313	0.038
Mof_C 	C 	0.99777	0.22573	0.94684	-0.115
Mof_H 	H 	0.01267	0.23403	0.95793	0.072
Mof_C 	C 	0.98167	0.11383	0.91085	0.342
Mof_O 	O 	0.24009	0.53502	0.02819	-0.492
Mof_O 	O 	0.20741	0.60987	0.02641	-0.523
Mof_O 	O 	0.99821	0.07533	0.91848	-0.483
Mof_O 	O 	0.97315	0.11434	0.89452	-0.501
Mof_Zn	Zn	0.32023	0.58251	0.04243	1.208
Mof_C 	C 	0.87238	0.89219	0.35524	0.414
Mof_C 	C 	0.82246	0.85058	0.34256	-0.174
Mof_C 	C 	0.78103	0.86859	0.3355	0.091
Mof_H 	H 	0.78423	0.90797	0.33907	0.013
Mof_C 	C 	0.73423	0.83191	0.32332	-0.159
Mof_H 	H 	0.70893	0.84797	0.31847	0.085
Mof_C 	C 	0.72561	0.77179	0.31841	0.09
Mof_C 	C 	0.76208	0.75003	0.32635	-0.166
Mof_H 	H 	0.75443	0.70787	0.32417	0.085
Mof_C 	C 	0.81067	0.78947	0.33773	0.091
Mof_H 	H 	0.83663	0.77377	0.34237	0.011
Mof_C 	C 	0.67484	0.73193	0.30556	0.006
Mof_C 	C 	0.62084	0.73971	0.30257	-0.07
Mof_H 	H 	0.61423	0.76877	0.30917	0.058
Mof_C 	C 	0.57652	0.70412	0.28978	-0.006
Mof_H 	H 	0.54033	0.70957	0.28807	0.041
Mof_C 	C 	0.58459	0.66112	0.27962	-0.077
Mof_H 	H 	0.55593	0.64057	0.27067	0.057
Mof_C 	C 	0.63539	0.64832	0.28273	0.02
Mof_C 	C 	0.67988	0.68393	0.29587	-0.08
Mof_H 	H 	0.71383	0.67547	0.29827	0.056
Mof_C 	C 	0.64208	0.59882	0.27239	0.051
Mof_C 	C 	0.62685	0.59069	0.25528	-0.123
Mof_H 	H 	0.61633	0.61937	0.24977	0.071
Mof_C 	C 	0.62733	0.54137	0.24659	0.049
Mof_H 	H 	0.61423	0.53507	0.23537	0.023
Mof_C 	C 	0.64633	0.50027	0.2537	-0.117
Mof_C 	C 	0.66403	0.50727	0.27124	0.031
Mof_H 	H 	0.67493	0.47847	0.27647	0.034
Mof_C 	C 	0.66443	0.55907	0.28018	-0.107
Mof_H 	H 	0.67933	0.56737	0.29127	0.067
Mof_C 	C 	0.64833	0.44717	0.24419	0.343
Mof_O 	O 	0.90675	0.86836	0.36153	-0.491
Mof_O 	O 	0.87407	0.94321	0.35975	-0.518
Mof_O 	O 	0.66487	0.40867	0.25182	-0.479
Mof_O 	O 	0.63981	0.44768	0.22786	-0.5
Mof_Zn	Zn	0.9869	0.91584	0.37576	1.208
Mof_O 	O 	0.66667	0.33333	0.21723	-0.961
Mof_Zn	Zn	0.66667	0.33333	0.24189	1.206
Mof_O 	O 	0.33333	0.66667	0.55056	-0.961
Mof_Zn	Zn	0.33333	0.66667	0.57522	1.206
Mof_O 	O 	-0	8.55778e-32	0.8839	-0.962
Mof_Zn	Zn	-0	0	0.90855	1.206
Mof_O 	O 	0.66667	0.33333	0.71723	-0.961
Mof_Zn	Zn	0.66667	0.33333	0.74189	1.206
Mof_O 	O 	0.33333	0.66667	0.05056	-0.961
Mof_Zn	Zn	0.33333	0.66667	0.07522	1.206
Mof_O 	O 	-0	0	0.3839	-0.962
Mof_Zn	Zn	1.06972e-32	2.13945e-32	0.40855	1.206
_end
