data_functionalizedCrystal
_audit_creation_method	'EQeq! by Chris Wilmer'
_symmetry_space_group_name_H-M	'P1'
_symmetry_Int_Tables_number	1
_symmetry_cell_setting	triclinic
loop_
_symmetry_equiv_pos_as_xyz
  x,y,z
_cell_length_a	9.209
_cell_length_b	14.712
_cell_length_c	12.5178
_cell_angle_alpha	90
_cell_angle_beta	109.01
_cell_angle_gamma	90
loop_
_atom_site_label
_atom_site_type_symbol
_atom_site_fract_x
_atom_site_fract_y
_atom_site_fract_z
_atom_site_charge
Mof_Fe	Fe	0.9529	0.04238	0.3327	0.874
Mof_Fe	Fe	0.83163	0.20033	0.10783	0.923
Mof_Cl	Cl	0.00501	0.93755	0.2228	-0.261
Mof_Cl	Cl	0.98431	0.30327	0.2352	-0.395
Mof_O 	O 	0.805	0.113	0.2098	-0.52
Mof_H 	H 	0.7005	0.1002	0.2006	0.257
Mof_O 	O 	0.9523	0.1391	0.4533	-0.345
Mof_O 	O 	0.1577	0.1089	0.361	-0.221
Mof_O 	O 	0.1133	0.2444	0.5684	-0.271
Mof_O 	O 	0.3205	0.213	0.4755	-0.254
Mof_O 	O 	0.7129	0.8913	0.4741	-0.274
Mof_O 	O 	0.0195	0.8607	0.588	-0.127
Mof_O 	O 	0.075	0.9608	0.4776	-0.114
Mof_O 	O 	0.7666	0.984	0.3549	-0.295
Mof_C 	C 	0.0757	0.1847	0.4913	0.37
Mof_C 	C 	0.1951	0.168	0.438	0.228
Mof_C 	C 	0.8041	0.9326	0.439	0.312
Mof_C 	C 	0.9819	0.9175	0.5073	0.025
Mof_Fe	Fe	0.4529	0.54238	0.3327	1.006
Mof_Fe	Fe	0.33163	0.70033	0.10783	0.984
Mof_Cl	Cl	0.50501	0.43755	0.2228	-0.353
Mof_Cl	Cl	0.48431	0.80327	0.2352	-0.332
Mof_O 	O 	0.305	0.613	0.2098	-0.525
Mof_H 	H 	0.2005	0.6002	0.2006	0.273
Mof_O 	O 	0.4523	0.6391	0.4533	-0.258
Mof_O 	O 	0.6577	0.6089	0.361	-0.28
Mof_O 	O 	0.6133	0.7444	0.5684	-0.256
Mof_O 	O 	0.8205	0.713	0.4755	-0.281
Mof_O 	O 	0.2129	0.3913	0.4741	-0.237
Mof_O 	O 	0.5195	0.3607	0.588	-0.277
Mof_O 	O 	0.575	0.4608	0.4776	-0.259
Mof_O 	O 	0.2666	0.484	0.3549	-0.267
Mof_C 	C 	0.5757	0.6847	0.4913	0.257
Mof_C 	C 	0.6951	0.668	0.438	0.258
Mof_C 	C 	0.3041	0.4326	0.439	0.265
Mof_C 	C 	0.4819	0.4175	0.5073	0.255
Mof_Fe	Fe	0.9529	0.95762	0.8327	0.882
Mof_Fe	Fe	0.83163	0.79967	0.60783	0.958
Mof_Cl	Cl	0.00501	0.06245	0.7228	-0.249
Mof_Cl	Cl	0.98431	0.69673	0.7352	-0.383
Mof_O 	O 	0.805	0.887	0.7098	-0.523
Mof_H 	H 	0.7005	0.8998	0.7006	0.263
Mof_O 	O 	0.9523	0.8609	0.9533	-0.344
Mof_O 	O 	0.1577	0.8911	0.861	-0.217
Mof_O 	O 	0.1133	0.7556	0.0684	-0.303
Mof_O 	O 	0.3205	0.787	0.9755	-0.23
Mof_O 	O 	0.7129	0.1087	0.9741	-0.262
Mof_O 	O 	0.0195	0.1393	0.088	-0.114
Mof_O 	O 	0.075	0.0392	0.9776	-0.067
Mof_O 	O 	0.7666	0.016	0.8549	-0.301
Mof_C 	C 	0.0757	0.8153	0.9913	0.407
Mof_C 	C 	0.1951	0.832	0.938	0.217
Mof_C 	C 	0.8041	0.0674	0.939	0.356
Mof_C 	C 	0.9819	0.0825	0.0073	-0.059
Mof_Fe	Fe	0.4529	0.45762	0.8327	1.01
Mof_Fe	Fe	0.33163	0.29967	0.60783	1.013
Mof_Cl	Cl	0.50501	0.56245	0.7228	-0.339
Mof_Cl	Cl	0.48431	0.19673	0.7352	-0.322
Mof_O 	O 	0.305	0.387	0.7098	-0.527
Mof_H 	H 	0.2005	0.3998	0.7006	0.279
Mof_O 	O 	0.4523	0.3609	0.9533	-0.261
Mof_O 	O 	0.6577	0.3911	0.861	-0.273
Mof_O 	O 	0.6133	0.2556	0.0684	-0.295
Mof_O 	O 	0.8205	0.287	0.9755	-0.254
Mof_O 	O 	0.2129	0.6087	0.9741	-0.227
Mof_O 	O 	0.5195	0.6393	0.088	-0.266
Mof_O 	O 	0.575	0.5392	0.9776	-0.213
Mof_O 	O 	0.2666	0.516	0.8549	-0.272
Mof_C 	C 	0.5757	0.3153	0.9913	0.305
Mof_C 	C 	0.6951	0.332	0.938	0.244
Mof_C 	C 	0.3041	0.5674	0.939	0.305
Mof_C 	C 	0.4819	0.5825	0.0073	0.177
_end
