data_functionalizedCrystal
_audit_creation_method	'EQeq! by Chris Wilmer'
_symmetry_space_group_name_H-M	'P1'
_symmetry_Int_Tables_number	1
_symmetry_cell_setting	triclinic
loop_
_symmetry_equiv_pos_as_xyz
  x,y,z
_cell_length_a	7.2638
_cell_length_b	7.2638
_cell_length_c	8.2098
_cell_angle_alpha	90
_cell_angle_beta	90
_cell_angle_gamma	120
loop_
_atom_site_label
_atom_site_type_symbol
_atom_site_fract_x
_atom_site_fract_y
_atom_site_fract_z
_atom_site_charge
Mof_O 	O 	0.89072	0.31019	0.89399	-0.289
Mof_O 	O 	0.68981	0.58053	0.89399	-0.316
Mof_O 	O 	0.41947	0.10928	0.89399	-0.324
Mof_O 	O 	0.10928	0.68981	0.39399	-0.424
Mof_O 	O 	0.31019	0.41947	0.39399	-0.463
Mof_O 	O 	0.58053	0.89072	0.39399	-0.359
Mof_O 	O 	0.31019	0.89072	0.10601	-0.343
Mof_O 	O 	0.58053	0.68981	0.10601	-0.399
Mof_O 	O 	0.10928	0.41947	0.10601	-0.417
Mof_O 	O 	0.68981	0.10928	0.60601	-0.415
Mof_O 	O 	0.41947	0.31019	0.60601	-0.456
Mof_O 	O 	0.89072	0.58053	0.60601	-0.373
Mof_Mg	Mg	0.66667	0.33333	0.75	1.479
Mof_Mg	Mg	0.33333	0.66667	0.25	1.478
Mof_C 	C 	3.78817e-17	0.44	-0	0.281
Mof_H 	H 	-3.78817e-17	0.5681	-0	-0.087
Mof_C 	C 	0.56	0.56	-0	0.362
Mof_H 	H 	0.4319	0.4319	-0	-0.109
Mof_C 	C 	0.44	0	-0	0.238
Mof_H 	H 	0.5681	0	-0	-0.082
Mof_C 	C 	4.44381e-17	0.56	0.5	0.438
Mof_H 	H 	6.55644e-18	0.4319	0.5	-0.117
Mof_C 	C 	0.44	0.44	0.5	0.527
Mof_H 	H 	0.5681	0.5681	0.5	-0.12
Mof_C 	C 	0.56	-8.41142e-33	0.5	0.401
Mof_H 	H 	0.4319	-8.41142e-33	0.5	-0.111
_end
