data_functionalizedCrystal
_audit_creation_method	'EQeq! by Chris Wilmer'
_symmetry_space_group_name_H-M	'P1'
_symmetry_Int_Tables_number	1
_symmetry_cell_setting	triclinic
loop_
_symmetry_equiv_pos_as_xyz
  x,y,z
_cell_length_a	35.1571
_cell_length_b	35.1571
_cell_length_c	35.1571
_cell_angle_alpha	90
_cell_angle_beta	90
_cell_angle_gamma	90
loop_
_atom_site_label
_atom_site_type_symbol
_atom_site_fract_x
_atom_site_fract_y
_atom_site_fract_z
_atom_site_charge
Mof_C 	C 	0.639	0.468	0.3	-0.171
Mof_C 	C 	0.578	0.477	0.282	-0.181
Mof_C 	C 	0.684	0.501	0.44	0.024
Mof_C 	C 	0.693	0.535	0.454	-0.061
Mof_C 	C 	0.706	0.56	0.428	-0.002
Mof_C 	C 	0.704	0.552	0.389	-0.06
Mof_C 	C 	0.695	0.519	0.374	0.03
Mof_C 	C 	0.612	0.398	0.421	0.097
Mof_C 	C 	0.58	0.4	0.44	-0.078
Mof_C 	C 	0.552	0.426	0.432	-0.039
Mof_C 	C 	0.561	0.453	0.409	0.044
Mof_C 	C 	0.596	0.454	0.398	-0.016
Mof_C 	C 	0.534	0.477	0.395	-0.119
Mof_N 	N 	0.648	0.453	0.324	-0.1
Mof_N 	N 	0.555	0.469	0.299	-0.053
Mof_N 	N 	0.691	0.489	0.4	-0.163
Mof_N 	N 	0.624	0.424	0.406	-0.176
Mof_H 	H 	0.66995	0.47883	0.45904	0.02
Mof_H 	H 	0.68944	0.54095	0.48568	0.04
Mof_H 	H 	0.71887	0.58817	0.43761	0.025
Mof_H 	H 	0.7105	0.57523	0.36733	0.043
Mof_H 	H 	0.69101	0.51631	0.34193	0.025
Mof_H 	H 	0.62816	0.36994	0.41937	0.005
Mof_H 	H 	0.57438	0.37951	0.4645	0.046
Mof_H 	H 	0.52269	0.42294	0.44552	0.033
Mof_H 	H 	0.60691	0.47932	0.38093	0.032
Mof_H 	H 	0.53278	0.48326	0.36321	0.06
Mof_H 	H 	0.51262	0.49083	0.41508	0.05
Mof_C 	C 	0.139	0.968	0.8	-0.159
Mof_C 	C 	0.078	0.977	0.782	-0.169
Mof_C 	C 	0.184	0.001	0.94	0.005
Mof_C 	C 	0.193	0.035	0.954	-0.051
Mof_C 	C 	0.206	0.06	0.928	-0.008
Mof_C 	C 	0.204	0.052	0.889	-0.053
Mof_C 	C 	0.195	0.019	0.874	0.02
Mof_C 	C 	0.112	0.898	0.921	0.098
Mof_C 	C 	0.08	0.9	0.94	-0.077
Mof_C 	C 	0.052	0.926	0.932	-0.037
Mof_C 	C 	0.061	0.953	0.909	0.046
Mof_C 	C 	0.096	0.954	0.898	-0.014
Mof_C 	C 	0.034	0.977	0.895	-0.118
Mof_N 	N 	0.148	0.953	0.824	-0.102
Mof_N 	N 	0.055	0.969	0.799	-0.055
Mof_N 	N 	0.191	0.989	0.9	-0.151
Mof_N 	N 	0.124	0.924	0.906	-0.175
Mof_H 	H 	0.16995	0.97883	0.95904	0.033
Mof_H 	H 	0.18944	0.04095	0.98568	0.038
Mof_H 	H 	0.21887	0.08817	0.93761	0.027
Mof_H 	H 	0.2105	0.07523	0.86733	0.042
Mof_H 	H 	0.19101	0.01631	0.84193	0.024
Mof_H 	H 	0.12816	0.86994	0.91937	0.005
Mof_H 	H 	0.07438	0.87951	0.9645	0.048
Mof_H 	H 	0.02269	0.92294	0.94552	0.033
Mof_H 	H 	0.10691	0.97932	0.88093	0.034
Mof_H 	H 	0.03278	0.98326	0.86321	0.061
Mof_H 	H 	0.01262	0.99083	0.91508	0.052
Mof_C 	C 	0.861	0.532	0.8	-0.17
Mof_C 	C 	0.922	0.523	0.782	-0.18
Mof_C 	C 	0.816	0.499	0.94	0.025
Mof_C 	C 	0.807	0.465	0.954	-0.059
Mof_C 	C 	0.794	0.44	0.928	-0.001
Mof_C 	C 	0.796	0.448	0.889	-0.059
Mof_C 	C 	0.805	0.481	0.874	0.031
Mof_C 	C 	0.888	0.602	0.921	0.098
Mof_C 	C 	0.92	0.6	0.94	-0.076
Mof_C 	C 	0.948	0.574	0.932	-0.037
Mof_C 	C 	0.939	0.547	0.909	0.046
Mof_C 	C 	0.904	0.546	0.898	-0.014
Mof_C 	C 	0.966	0.523	0.895	-0.118
Mof_N 	N 	0.852	0.547	0.824	-0.099
Mof_N 	N 	0.945	0.531	0.799	-0.051
Mof_N 	N 	0.809	0.511	0.9	-0.161
Mof_N 	N 	0.876	0.576	0.906	-0.175
Mof_H 	H 	0.83005	0.52117	0.95904	0.024
Mof_H 	H 	0.81056	0.45905	0.98568	0.043
Mof_H 	H 	0.78113	0.41183	0.93761	0.026
Mof_H 	H 	0.7895	0.42477	0.86733	0.043
Mof_H 	H 	0.80899	0.48369	0.84193	0.025
Mof_H 	H 	0.87184	0.63006	0.91937	0.005
Mof_H 	H 	0.92562	0.62049	0.9645	0.049
Mof_H 	H 	0.97731	0.57706	0.94552	0.037
Mof_H 	H 	0.89309	0.52068	0.88093	0.032
Mof_H 	H 	0.96722	0.51674	0.86321	0.061
Mof_H 	H 	0.98738	0.50917	0.91508	0.054
Mof_C 	C 	0.361	0.032	0.3	-0.167
Mof_C 	C 	0.422	0.023	0.282	-0.178
Mof_C 	C 	0.316	0.999	0.44	0.045
Mof_C 	C 	0.307	0.965	0.454	-0.069
Mof_C 	C 	0.294	0.94	0.428	0.005
Mof_C 	C 	0.296	0.948	0.389	-0.064
Mof_C 	C 	0.305	0.981	0.374	0.043
Mof_C 	C 	0.388	0.102	0.421	0.098
Mof_C 	C 	0.42	0.1	0.44	-0.078
Mof_C 	C 	0.448	0.074	0.432	-0.038
Mof_C 	C 	0.439	0.047	0.409	0.043
Mof_C 	C 	0.404	0.046	0.398	-0.015
Mof_C 	C 	0.466	0.023	0.395	-0.119
Mof_N 	N 	0.352	0.047	0.324	-0.101
Mof_N 	N 	0.445	0.031	0.299	-0.055
Mof_N 	N 	0.309	0.011	0.4	-0.172
Mof_N 	N 	0.376	0.076	0.406	-0.175
Mof_H 	H 	0.33005	0.02117	0.45904	0.012
Mof_H 	H 	0.31056	0.95905	0.48568	0.044
Mof_H 	H 	0.28113	0.91183	0.43761	0.024
Mof_H 	H 	0.2895	0.92477	0.36733	0.045
Mof_H 	H 	0.30899	0.98369	0.34193	0.025
Mof_H 	H 	0.37184	0.13006	0.41937	0.005
Mof_H 	H 	0.42562	0.12049	0.4645	0.046
Mof_H 	H 	0.47731	0.07706	0.44552	0.032
Mof_H 	H 	0.39309	0.02068	0.38093	0.029
Mof_H 	H 	0.46722	0.01674	0.36321	0.057
Mof_H 	H 	0.48738	0.00917	0.41508	0.047
Mof_C 	C 	0.361	0.968	0.2	-0.159
Mof_C 	C 	0.422	0.977	0.218	-0.168
Mof_C 	C 	0.316	0.001	0.06	0.004
Mof_C 	C 	0.307	0.035	0.046	-0.053
Mof_C 	C 	0.294	0.06	0.072	-0.008
Mof_C 	C 	0.296	0.052	0.111	-0.053
Mof_C 	C 	0.305	0.019	0.126	0.02
Mof_C 	C 	0.388	0.898	0.079	0.097
Mof_C 	C 	0.42	0.9	0.06	-0.078
Mof_C 	C 	0.448	0.926	0.068	-0.039
Mof_C 	C 	0.439	0.953	0.091	0.046
Mof_C 	C 	0.404	0.954	0.102	-0.015
Mof_C 	C 	0.466	0.977	0.105	-0.118
Mof_N 	N 	0.352	0.953	0.176	-0.102
Mof_N 	N 	0.445	0.969	0.201	-0.054
Mof_N 	N 	0.309	0.989	0.1	-0.151
Mof_N 	N 	0.376	0.924	0.094	-0.175
Mof_H 	H 	0.33005	0.97883	0.04096	0.028
Mof_H 	H 	0.31056	0.04095	0.01432	0.033
Mof_H 	H 	0.28113	0.08817	0.06239	0.025
Mof_H 	H 	0.2895	0.07523	0.13267	0.041
Mof_H 	H 	0.30899	0.01631	0.15807	0.024
Mof_H 	H 	0.37184	0.86994	0.08063	0.005
Mof_H 	H 	0.42562	0.87951	0.0355	0.044
Mof_H 	H 	0.47731	0.92294	0.05448	0.031
Mof_H 	H 	0.39309	0.97932	0.11907	0.034
Mof_H 	H 	0.46722	0.98326	0.13679	0.062
Mof_H 	H 	0.48738	0.99083	0.08492	0.053
Mof_C 	C 	0.861	0.468	0.7	-0.17
Mof_C 	C 	0.922	0.477	0.718	-0.18
Mof_C 	C 	0.816	0.501	0.56	0.025
Mof_C 	C 	0.807	0.535	0.546	-0.06
Mof_C 	C 	0.794	0.56	0.572	-0.001
Mof_C 	C 	0.796	0.552	0.611	-0.059
Mof_C 	C 	0.805	0.519	0.626	0.031
Mof_C 	C 	0.888	0.398	0.579	0.097
Mof_C 	C 	0.92	0.4	0.56	-0.077
Mof_C 	C 	0.948	0.426	0.568	-0.038
Mof_C 	C 	0.939	0.453	0.591	0.045
Mof_C 	C 	0.904	0.454	0.602	-0.015
Mof_C 	C 	0.966	0.477	0.605	-0.118
Mof_N 	N 	0.852	0.453	0.676	-0.099
Mof_N 	N 	0.945	0.469	0.701	-0.051
Mof_N 	N 	0.809	0.489	0.6	-0.162
Mof_N 	N 	0.876	0.424	0.594	-0.175
Mof_H 	H 	0.83005	0.47883	0.54096	0.021
Mof_H 	H 	0.81056	0.54095	0.51432	0.04
Mof_H 	H 	0.78113	0.58817	0.56239	0.025
Mof_H 	H 	0.7895	0.57523	0.63267	0.043
Mof_H 	H 	0.80899	0.51631	0.65807	0.025
Mof_H 	H 	0.87184	0.36994	0.58063	0.005
Mof_H 	H 	0.92562	0.37951	0.5355	0.047
Mof_H 	H 	0.97731	0.42294	0.55448	0.035
Mof_H 	H 	0.89309	0.47932	0.61907	0.032
Mof_H 	H 	0.96722	0.48326	0.63679	0.061
Mof_H 	H 	0.98738	0.49083	0.58492	0.053
Mof_C 	C 	0.139	0.032	0.7	-0.167
Mof_C 	C 	0.078	0.023	0.718	-0.179
Mof_C 	C 	0.184	0.999	0.56	0.045
Mof_C 	C 	0.193	0.965	0.546	-0.069
Mof_C 	C 	0.206	0.94	0.572	0.005
Mof_C 	C 	0.204	0.948	0.611	-0.064
Mof_C 	C 	0.195	0.981	0.626	0.043
Mof_C 	C 	0.112	0.102	0.579	0.098
Mof_C 	C 	0.08	0.1	0.56	-0.078
Mof_C 	C 	0.052	0.074	0.568	-0.038
Mof_C 	C 	0.061	0.047	0.591	0.043
Mof_C 	C 	0.096	0.046	0.602	-0.015
Mof_C 	C 	0.034	0.023	0.605	-0.12
Mof_N 	N 	0.148	0.047	0.676	-0.101
Mof_N 	N 	0.055	0.031	0.701	-0.056
Mof_N 	N 	0.191	0.011	0.6	-0.172
Mof_N 	N 	0.124	0.076	0.594	-0.175
Mof_H 	H 	0.16995	0.02117	0.54096	0.012
Mof_H 	H 	0.18944	0.95905	0.51432	0.044
Mof_H 	H 	0.21887	0.91183	0.56239	0.024
Mof_H 	H 	0.2105	0.92477	0.63267	0.045
Mof_H 	H 	0.19101	0.98369	0.65807	0.025
Mof_H 	H 	0.12816	0.13006	0.58063	0.005
Mof_H 	H 	0.07438	0.12049	0.5355	0.046
Mof_H 	H 	0.02269	0.07706	0.55448	0.029
Mof_H 	H 	0.10691	0.02068	0.61907	0.029
Mof_H 	H 	0.03278	0.01674	0.63679	0.056
Mof_H 	H 	0.01262	0.00917	0.58492	0.044
Mof_C 	C 	0.639	0.532	0.2	-0.17
Mof_C 	C 	0.578	0.523	0.218	-0.18
Mof_C 	C 	0.684	0.499	0.06	0.024
Mof_C 	C 	0.693	0.465	0.046	-0.061
Mof_C 	C 	0.706	0.44	0.072	-0.002
Mof_C 	C 	0.704	0.448	0.111	-0.059
Mof_C 	C 	0.695	0.481	0.126	0.031
Mof_C 	C 	0.612	0.602	0.079	0.097
Mof_C 	C 	0.58	0.6	0.06	-0.078
Mof_C 	C 	0.552	0.574	0.068	-0.039
Mof_C 	C 	0.561	0.547	0.091	0.044
Mof_C 	C 	0.596	0.546	0.102	-0.015
Mof_C 	C 	0.534	0.523	0.105	-0.119
Mof_N 	N 	0.648	0.547	0.176	-0.099
Mof_N 	N 	0.555	0.531	0.201	-0.052
Mof_N 	N 	0.691	0.511	0.1	-0.162
Mof_N 	N 	0.624	0.576	0.094	-0.175
Mof_H 	H 	0.66995	0.52117	0.04096	0.019
Mof_H 	H 	0.68944	0.45905	0.01432	0.037
Mof_H 	H 	0.71887	0.41183	0.06239	0.024
Mof_H 	H 	0.7105	0.42477	0.13267	0.043
Mof_H 	H 	0.69101	0.48369	0.15807	0.025
Mof_H 	H 	0.62816	0.63006	0.08063	0.004
Mof_H 	H 	0.57438	0.62049	0.0355	0.044
Mof_H 	H 	0.52269	0.57706	0.05448	0.031
Mof_H 	H 	0.60691	0.52068	0.11907	0.032
Mof_H 	H 	0.53278	0.51674	0.13679	0.06
Mof_H 	H 	0.51262	0.50917	0.08492	0.049
Mof_C 	C 	0.3	0.639	0.468	-0.17
Mof_C 	C 	0.282	0.578	0.477	-0.18
Mof_C 	C 	0.44	0.684	0.501	0.025
Mof_C 	C 	0.454	0.693	0.535	-0.06
Mof_C 	C 	0.428	0.706	0.56	-0.001
Mof_C 	C 	0.389	0.704	0.552	-0.059
Mof_C 	C 	0.374	0.695	0.519	0.031
Mof_C 	C 	0.421	0.612	0.398	0.098
Mof_C 	C 	0.44	0.58	0.4	-0.077
Mof_C 	C 	0.432	0.552	0.426	-0.038
Mof_C 	C 	0.409	0.561	0.453	0.045
Mof_C 	C 	0.398	0.596	0.454	-0.015
Mof_C 	C 	0.395	0.534	0.477	-0.118
Mof_N 	N 	0.324	0.648	0.453	-0.099
Mof_N 	N 	0.299	0.555	0.469	-0.052
Mof_N 	N 	0.4	0.691	0.489	-0.162
Mof_N 	N 	0.406	0.624	0.424	-0.175
Mof_H 	H 	0.45904	0.66995	0.47883	0.021
Mof_H 	H 	0.48568	0.68944	0.54095	0.04
Mof_H 	H 	0.43761	0.71887	0.58817	0.025
Mof_H 	H 	0.36733	0.7105	0.57523	0.043
Mof_H 	H 	0.34193	0.69101	0.51631	0.025
Mof_H 	H 	0.41937	0.62816	0.36994	0.005
Mof_H 	H 	0.4645	0.57438	0.37951	0.046
Mof_H 	H 	0.44552	0.52269	0.42294	0.033
Mof_H 	H 	0.38093	0.60691	0.47932	0.032
Mof_H 	H 	0.36321	0.53278	0.48326	0.06
Mof_H 	H 	0.41508	0.51262	0.49083	0.05
Mof_C 	C 	0.8	0.139	0.968	-0.159
Mof_C 	C 	0.782	0.078	0.977	-0.169
Mof_C 	C 	0.94	0.184	0.001	0.005
Mof_C 	C 	0.954	0.193	0.035	-0.051
Mof_C 	C 	0.928	0.206	0.06	-0.008
Mof_C 	C 	0.889	0.204	0.052	-0.053
Mof_C 	C 	0.874	0.195	0.019	0.02
Mof_C 	C 	0.921	0.112	0.898	0.098
Mof_C 	C 	0.94	0.08	0.9	-0.077
Mof_C 	C 	0.932	0.052	0.926	-0.037
Mof_C 	C 	0.909	0.061	0.953	0.046
Mof_C 	C 	0.898	0.096	0.954	-0.014
Mof_C 	C 	0.895	0.034	0.977	-0.118
Mof_N 	N 	0.824	0.148	0.953	-0.102
Mof_N 	N 	0.799	0.055	0.969	-0.055
Mof_N 	N 	0.9	0.191	0.989	-0.151
Mof_N 	N 	0.906	0.124	0.924	-0.175
Mof_H 	H 	0.95904	0.16995	0.97883	0.033
Mof_H 	H 	0.98568	0.18944	0.04095	0.038
Mof_H 	H 	0.93761	0.21887	0.08817	0.027
Mof_H 	H 	0.86733	0.2105	0.07523	0.042
Mof_H 	H 	0.84193	0.19101	0.01631	0.024
Mof_H 	H 	0.91937	0.12816	0.86994	0.005
Mof_H 	H 	0.9645	0.07438	0.87951	0.048
Mof_H 	H 	0.94552	0.02269	0.92294	0.033
Mof_H 	H 	0.88093	0.10691	0.97932	0.034
Mof_H 	H 	0.86321	0.03278	0.98326	0.061
Mof_H 	H 	0.91508	0.01262	0.99083	0.052
Mof_C 	C 	0.8	0.861	0.532	-0.17
Mof_C 	C 	0.782	0.922	0.523	-0.18
Mof_C 	C 	0.94	0.816	0.499	0.025
Mof_C 	C 	0.954	0.807	0.465	-0.059
Mof_C 	C 	0.928	0.794	0.44	-0.001
Mof_C 	C 	0.889	0.796	0.448	-0.059
Mof_C 	C 	0.874	0.805	0.481	0.031
Mof_C 	C 	0.921	0.888	0.602	0.098
Mof_C 	C 	0.94	0.92	0.6	-0.076
Mof_C 	C 	0.932	0.948	0.574	-0.037
Mof_C 	C 	0.909	0.939	0.547	0.046
Mof_C 	C 	0.898	0.904	0.546	-0.014
Mof_C 	C 	0.895	0.966	0.523	-0.118
Mof_N 	N 	0.824	0.852	0.547	-0.099
Mof_N 	N 	0.799	0.945	0.531	-0.051
Mof_N 	N 	0.9	0.809	0.511	-0.161
Mof_N 	N 	0.906	0.876	0.576	-0.175
Mof_H 	H 	0.95904	0.83005	0.52117	0.024
Mof_H 	H 	0.98568	0.81056	0.45905	0.043
Mof_H 	H 	0.93761	0.78113	0.41183	0.026
Mof_H 	H 	0.86733	0.7895	0.42477	0.043
Mof_H 	H 	0.84193	0.80899	0.48369	0.025
Mof_H 	H 	0.91937	0.87184	0.63006	0.005
Mof_H 	H 	0.9645	0.92562	0.62049	0.049
Mof_H 	H 	0.94552	0.97731	0.57706	0.037
Mof_H 	H 	0.88093	0.89309	0.52068	0.032
Mof_H 	H 	0.86321	0.96722	0.51674	0.061
Mof_H 	H 	0.91508	0.98738	0.50917	0.054
Mof_C 	C 	0.3	0.361	0.032	-0.167
Mof_C 	C 	0.282	0.422	0.023	-0.178
Mof_C 	C 	0.44	0.316	0.999	0.045
Mof_C 	C 	0.454	0.307	0.965	-0.069
Mof_C 	C 	0.428	0.294	0.94	0.005
Mof_C 	C 	0.389	0.296	0.948	-0.064
Mof_C 	C 	0.374	0.305	0.981	0.043
Mof_C 	C 	0.421	0.388	0.102	0.098
Mof_C 	C 	0.44	0.42	0.1	-0.078
Mof_C 	C 	0.432	0.448	0.074	-0.038
Mof_C 	C 	0.409	0.439	0.047	0.043
Mof_C 	C 	0.398	0.404	0.046	-0.015
Mof_C 	C 	0.395	0.466	0.023	-0.119
Mof_N 	N 	0.324	0.352	0.047	-0.101
Mof_N 	N 	0.299	0.445	0.031	-0.055
Mof_N 	N 	0.4	0.309	0.011	-0.172
Mof_N 	N 	0.406	0.376	0.076	-0.175
Mof_H 	H 	0.45904	0.33005	0.02117	0.012
Mof_H 	H 	0.48568	0.31056	0.95905	0.044
Mof_H 	H 	0.43761	0.28113	0.91183	0.024
Mof_H 	H 	0.36733	0.2895	0.92477	0.045
Mof_H 	H 	0.34193	0.30899	0.98369	0.025
Mof_H 	H 	0.41937	0.37184	0.13006	0.005
Mof_H 	H 	0.4645	0.42562	0.12049	0.046
Mof_H 	H 	0.44552	0.47731	0.07706	0.032
Mof_H 	H 	0.38093	0.39309	0.02068	0.029
Mof_H 	H 	0.36321	0.46722	0.01674	0.057
Mof_H 	H 	0.41508	0.48738	0.00917	0.047
Mof_C 	C 	0.2	0.361	0.968	-0.159
Mof_C 	C 	0.218	0.422	0.977	-0.168
Mof_C 	C 	0.06	0.316	0.001	0.004
Mof_C 	C 	0.046	0.307	0.035	-0.053
Mof_C 	C 	0.072	0.294	0.06	-0.008
Mof_C 	C 	0.111	0.296	0.052	-0.053
Mof_C 	C 	0.126	0.305	0.019	0.02
Mof_C 	C 	0.079	0.388	0.898	0.097
Mof_C 	C 	0.06	0.42	0.9	-0.078
Mof_C 	C 	0.068	0.448	0.926	-0.039
Mof_C 	C 	0.091	0.439	0.953	0.046
Mof_C 	C 	0.102	0.404	0.954	-0.015
Mof_C 	C 	0.105	0.466	0.977	-0.118
Mof_N 	N 	0.176	0.352	0.953	-0.102
Mof_N 	N 	0.201	0.445	0.969	-0.054
Mof_N 	N 	0.1	0.309	0.989	-0.151
Mof_N 	N 	0.094	0.376	0.924	-0.175
Mof_H 	H 	0.04096	0.33005	0.97883	0.028
Mof_H 	H 	0.01432	0.31056	0.04095	0.033
Mof_H 	H 	0.06239	0.28113	0.08817	0.025
Mof_H 	H 	0.13267	0.2895	0.07523	0.041
Mof_H 	H 	0.15807	0.30899	0.01631	0.024
Mof_H 	H 	0.08063	0.37184	0.86994	0.005
Mof_H 	H 	0.0355	0.42562	0.87951	0.044
Mof_H 	H 	0.05448	0.47731	0.92294	0.031
Mof_H 	H 	0.11907	0.39309	0.97932	0.034
Mof_H 	H 	0.13679	0.46722	0.98326	0.062
Mof_H 	H 	0.08492	0.48738	0.99083	0.053
Mof_C 	C 	0.7	0.861	0.468	-0.17
Mof_C 	C 	0.718	0.922	0.477	-0.18
Mof_C 	C 	0.56	0.816	0.501	0.025
Mof_C 	C 	0.546	0.807	0.535	-0.06
Mof_C 	C 	0.572	0.794	0.56	-0.001
Mof_C 	C 	0.611	0.796	0.552	-0.059
Mof_C 	C 	0.626	0.805	0.519	0.031
Mof_C 	C 	0.579	0.888	0.398	0.097
Mof_C 	C 	0.56	0.92	0.4	-0.077
Mof_C 	C 	0.568	0.948	0.426	-0.038
Mof_C 	C 	0.591	0.939	0.453	0.045
Mof_C 	C 	0.602	0.904	0.454	-0.015
Mof_C 	C 	0.605	0.966	0.477	-0.118
Mof_N 	N 	0.676	0.852	0.453	-0.099
Mof_N 	N 	0.701	0.945	0.469	-0.051
Mof_N 	N 	0.6	0.809	0.489	-0.162
Mof_N 	N 	0.594	0.876	0.424	-0.175
Mof_H 	H 	0.54096	0.83005	0.47883	0.021
Mof_H 	H 	0.51432	0.81056	0.54095	0.04
Mof_H 	H 	0.56239	0.78113	0.58817	0.025
Mof_H 	H 	0.63267	0.7895	0.57523	0.043
Mof_H 	H 	0.65807	0.80899	0.51631	0.025
Mof_H 	H 	0.58063	0.87184	0.36994	0.005
Mof_H 	H 	0.5355	0.92562	0.37951	0.047
Mof_H 	H 	0.55448	0.97731	0.42294	0.035
Mof_H 	H 	0.61907	0.89309	0.47932	0.032
Mof_H 	H 	0.63679	0.96722	0.48326	0.061
Mof_H 	H 	0.58492	0.98738	0.49083	0.053
Mof_C 	C 	0.7	0.139	0.032	-0.167
Mof_C 	C 	0.718	0.078	0.023	-0.179
Mof_C 	C 	0.56	0.184	0.999	0.045
Mof_C 	C 	0.546	0.193	0.965	-0.069
Mof_C 	C 	0.572	0.206	0.94	0.005
Mof_C 	C 	0.611	0.204	0.948	-0.064
Mof_C 	C 	0.626	0.195	0.981	0.043
Mof_C 	C 	0.579	0.112	0.102	0.098
Mof_C 	C 	0.56	0.08	0.1	-0.078
Mof_C 	C 	0.568	0.052	0.074	-0.038
Mof_C 	C 	0.591	0.061	0.047	0.043
Mof_C 	C 	0.602	0.096	0.046	-0.015
Mof_C 	C 	0.605	0.034	0.023	-0.12
Mof_N 	N 	0.676	0.148	0.047	-0.101
Mof_N 	N 	0.701	0.055	0.031	-0.056
Mof_N 	N 	0.6	0.191	0.011	-0.172
Mof_N 	N 	0.594	0.124	0.076	-0.175
Mof_H 	H 	0.54096	0.16995	0.02117	0.012
Mof_H 	H 	0.51432	0.18944	0.95905	0.044
Mof_H 	H 	0.56239	0.21887	0.91183	0.024
Mof_H 	H 	0.63267	0.2105	0.92477	0.045
Mof_H 	H 	0.65807	0.19101	0.98369	0.025
Mof_H 	H 	0.58063	0.12816	0.13006	0.005
Mof_H 	H 	0.5355	0.07438	0.12049	0.046
Mof_H 	H 	0.55448	0.02269	0.07706	0.029
Mof_H 	H 	0.61907	0.10691	0.02068	0.029
Mof_H 	H 	0.63679	0.03278	0.01674	0.056
Mof_H 	H 	0.58492	0.01262	0.00917	0.044
Mof_C 	C 	0.2	0.639	0.532	-0.17
Mof_C 	C 	0.218	0.578	0.523	-0.18
Mof_C 	C 	0.06	0.684	0.499	0.024
Mof_C 	C 	0.046	0.693	0.465	-0.061
Mof_C 	C 	0.072	0.706	0.44	-0.002
Mof_C 	C 	0.111	0.704	0.448	-0.059
Mof_C 	C 	0.126	0.695	0.481	0.031
Mof_C 	C 	0.079	0.612	0.602	0.097
Mof_C 	C 	0.06	0.58	0.6	-0.078
Mof_C 	C 	0.068	0.552	0.574	-0.039
Mof_C 	C 	0.091	0.561	0.547	0.044
Mof_C 	C 	0.102	0.596	0.546	-0.015
Mof_C 	C 	0.105	0.534	0.523	-0.119
Mof_N 	N 	0.176	0.648	0.547	-0.099
Mof_N 	N 	0.201	0.555	0.531	-0.052
Mof_N 	N 	0.1	0.691	0.511	-0.162
Mof_N 	N 	0.094	0.624	0.576	-0.175
Mof_H 	H 	0.04096	0.66995	0.52117	0.019
Mof_H 	H 	0.01432	0.68944	0.45905	0.037
Mof_H 	H 	0.06239	0.71887	0.41183	0.024
Mof_H 	H 	0.13267	0.7105	0.42477	0.043
Mof_H 	H 	0.15807	0.69101	0.48369	0.025
Mof_H 	H 	0.08063	0.62816	0.63006	0.004
Mof_H 	H 	0.0355	0.57438	0.62049	0.044
Mof_H 	H 	0.05448	0.52269	0.57706	0.031
Mof_H 	H 	0.11907	0.60691	0.52068	0.032
Mof_H 	H 	0.13679	0.53278	0.51674	0.06
Mof_H 	H 	0.08492	0.51262	0.50917	0.049
Mof_C 	C 	0.468	0.3	0.639	-0.17
Mof_C 	C 	0.477	0.282	0.578	-0.18
Mof_C 	C 	0.501	0.44	0.684	0.025
Mof_C 	C 	0.535	0.454	0.693	-0.06
Mof_C 	C 	0.56	0.428	0.706	-0.001
Mof_C 	C 	0.552	0.389	0.704	-0.059
Mof_C 	C 	0.519	0.374	0.695	0.031
Mof_C 	C 	0.398	0.421	0.612	0.098
Mof_C 	C 	0.4	0.44	0.58	-0.077
Mof_C 	C 	0.426	0.432	0.552	-0.038
Mof_C 	C 	0.453	0.409	0.561	0.045
Mof_C 	C 	0.454	0.398	0.596	-0.015
Mof_C 	C 	0.477	0.395	0.534	-0.118
Mof_N 	N 	0.453	0.324	0.648	-0.099
Mof_N 	N 	0.469	0.299	0.555	-0.052
Mof_N 	N 	0.489	0.4	0.691	-0.162
Mof_N 	N 	0.424	0.406	0.624	-0.175
Mof_H 	H 	0.47883	0.45904	0.66995	0.021
Mof_H 	H 	0.54095	0.48568	0.68944	0.04
Mof_H 	H 	0.58817	0.43761	0.71887	0.025
Mof_H 	H 	0.57523	0.36733	0.7105	0.043
Mof_H 	H 	0.51631	0.34193	0.69101	0.025
Mof_H 	H 	0.36994	0.41937	0.62816	0.005
Mof_H 	H 	0.37951	0.4645	0.57438	0.046
Mof_H 	H 	0.42294	0.44552	0.52269	0.033
Mof_H 	H 	0.47932	0.38093	0.60691	0.032
Mof_H 	H 	0.48326	0.36321	0.53278	0.06
Mof_H 	H 	0.49083	0.41508	0.51262	0.05
Mof_C 	C 	0.968	0.8	0.139	-0.159
Mof_C 	C 	0.977	0.782	0.078	-0.169
Mof_C 	C 	0.001	0.94	0.184	0.005
Mof_C 	C 	0.035	0.954	0.193	-0.051
Mof_C 	C 	0.06	0.928	0.206	-0.008
Mof_C 	C 	0.052	0.889	0.204	-0.053
Mof_C 	C 	0.019	0.874	0.195	0.02
Mof_C 	C 	0.898	0.921	0.112	0.098
Mof_C 	C 	0.9	0.94	0.08	-0.077
Mof_C 	C 	0.926	0.932	0.052	-0.037
Mof_C 	C 	0.953	0.909	0.061	0.046
Mof_C 	C 	0.954	0.898	0.096	-0.014
Mof_C 	C 	0.977	0.895	0.034	-0.118
Mof_N 	N 	0.953	0.824	0.148	-0.102
Mof_N 	N 	0.969	0.799	0.055	-0.055
Mof_N 	N 	0.989	0.9	0.191	-0.151
Mof_N 	N 	0.924	0.906	0.124	-0.175
Mof_H 	H 	0.97883	0.95904	0.16995	0.033
Mof_H 	H 	0.04095	0.98568	0.18944	0.038
Mof_H 	H 	0.08817	0.93761	0.21887	0.027
Mof_H 	H 	0.07523	0.86733	0.2105	0.042
Mof_H 	H 	0.01631	0.84193	0.19101	0.024
Mof_H 	H 	0.86994	0.91937	0.12816	0.005
Mof_H 	H 	0.87951	0.9645	0.07438	0.048
Mof_H 	H 	0.92294	0.94552	0.02269	0.033
Mof_H 	H 	0.97932	0.88093	0.10691	0.034
Mof_H 	H 	0.98326	0.86321	0.03278	0.061
Mof_H 	H 	0.99083	0.91508	0.01262	0.052
Mof_C 	C 	0.532	0.8	0.861	-0.17
Mof_C 	C 	0.523	0.782	0.922	-0.18
Mof_C 	C 	0.499	0.94	0.816	0.025
Mof_C 	C 	0.465	0.954	0.807	-0.059
Mof_C 	C 	0.44	0.928	0.794	-0.001
Mof_C 	C 	0.448	0.889	0.796	-0.059
Mof_C 	C 	0.481	0.874	0.805	0.031
Mof_C 	C 	0.602	0.921	0.888	0.098
Mof_C 	C 	0.6	0.94	0.92	-0.076
Mof_C 	C 	0.574	0.932	0.948	-0.037
Mof_C 	C 	0.547	0.909	0.939	0.046
Mof_C 	C 	0.546	0.898	0.904	-0.014
Mof_C 	C 	0.523	0.895	0.966	-0.118
Mof_N 	N 	0.547	0.824	0.852	-0.099
Mof_N 	N 	0.531	0.799	0.945	-0.051
Mof_N 	N 	0.511	0.9	0.809	-0.161
Mof_N 	N 	0.576	0.906	0.876	-0.175
Mof_H 	H 	0.52117	0.95904	0.83005	0.024
Mof_H 	H 	0.45905	0.98568	0.81056	0.043
Mof_H 	H 	0.41183	0.93761	0.78113	0.026
Mof_H 	H 	0.42477	0.86733	0.7895	0.043
Mof_H 	H 	0.48369	0.84193	0.80899	0.025
Mof_H 	H 	0.63006	0.91937	0.87184	0.005
Mof_H 	H 	0.62049	0.9645	0.92562	0.049
Mof_H 	H 	0.57706	0.94552	0.97731	0.037
Mof_H 	H 	0.52068	0.88093	0.89309	0.032
Mof_H 	H 	0.51674	0.86321	0.96722	0.061
Mof_H 	H 	0.50917	0.91508	0.98738	0.054
Mof_C 	C 	0.032	0.3	0.361	-0.167
Mof_C 	C 	0.023	0.282	0.422	-0.178
Mof_C 	C 	0.999	0.44	0.316	0.045
Mof_C 	C 	0.965	0.454	0.307	-0.069
Mof_C 	C 	0.94	0.428	0.294	0.005
Mof_C 	C 	0.948	0.389	0.296	-0.064
Mof_C 	C 	0.981	0.374	0.305	0.043
Mof_C 	C 	0.102	0.421	0.388	0.098
Mof_C 	C 	0.1	0.44	0.42	-0.078
Mof_C 	C 	0.074	0.432	0.448	-0.038
Mof_C 	C 	0.047	0.409	0.439	0.043
Mof_C 	C 	0.046	0.398	0.404	-0.015
Mof_C 	C 	0.023	0.395	0.466	-0.119
Mof_N 	N 	0.047	0.324	0.352	-0.101
Mof_N 	N 	0.031	0.299	0.445	-0.055
Mof_N 	N 	0.011	0.4	0.309	-0.172
Mof_N 	N 	0.076	0.406	0.376	-0.175
Mof_H 	H 	0.02117	0.45904	0.33005	0.012
Mof_H 	H 	0.95905	0.48568	0.31056	0.044
Mof_H 	H 	0.91183	0.43761	0.28113	0.024
Mof_H 	H 	0.92477	0.36733	0.2895	0.045
Mof_H 	H 	0.98369	0.34193	0.30899	0.025
Mof_H 	H 	0.13006	0.41937	0.37184	0.005
Mof_H 	H 	0.12049	0.4645	0.42562	0.046
Mof_H 	H 	0.07706	0.44552	0.47731	0.032
Mof_H 	H 	0.02068	0.38093	0.39309	0.029
Mof_H 	H 	0.01674	0.36321	0.46722	0.057
Mof_H 	H 	0.00917	0.41508	0.48738	0.047
Mof_C 	C 	0.968	0.2	0.361	-0.159
Mof_C 	C 	0.977	0.218	0.422	-0.168
Mof_C 	C 	0.001	0.06	0.316	0.004
Mof_C 	C 	0.035	0.046	0.307	-0.053
Mof_C 	C 	0.06	0.072	0.294	-0.008
Mof_C 	C 	0.052	0.111	0.296	-0.053
Mof_C 	C 	0.019	0.126	0.305	0.02
Mof_C 	C 	0.898	0.079	0.388	0.097
Mof_C 	C 	0.9	0.06	0.42	-0.078
Mof_C 	C 	0.926	0.068	0.448	-0.039
Mof_C 	C 	0.953	0.091	0.439	0.046
Mof_C 	C 	0.954	0.102	0.404	-0.015
Mof_C 	C 	0.977	0.105	0.466	-0.118
Mof_N 	N 	0.953	0.176	0.352	-0.102
Mof_N 	N 	0.969	0.201	0.445	-0.054
Mof_N 	N 	0.989	0.1	0.309	-0.151
Mof_N 	N 	0.924	0.094	0.376	-0.175
Mof_H 	H 	0.97883	0.04096	0.33005	0.028
Mof_H 	H 	0.04095	0.01432	0.31056	0.033
Mof_H 	H 	0.08817	0.06239	0.28113	0.025
Mof_H 	H 	0.07523	0.13267	0.2895	0.041
Mof_H 	H 	0.01631	0.15807	0.30899	0.024
Mof_H 	H 	0.86994	0.08063	0.37184	0.005
Mof_H 	H 	0.87951	0.0355	0.42562	0.044
Mof_H 	H 	0.92294	0.05448	0.47731	0.031
Mof_H 	H 	0.97932	0.11907	0.39309	0.034
Mof_H 	H 	0.98326	0.13679	0.46722	0.062
Mof_H 	H 	0.99083	0.08492	0.48738	0.053
Mof_C 	C 	0.468	0.7	0.861	-0.17
Mof_C 	C 	0.477	0.718	0.922	-0.18
Mof_C 	C 	0.501	0.56	0.816	0.025
Mof_C 	C 	0.535	0.546	0.807	-0.06
Mof_C 	C 	0.56	0.572	0.794	-0.001
Mof_C 	C 	0.552	0.611	0.796	-0.059
Mof_C 	C 	0.519	0.626	0.805	0.031
Mof_C 	C 	0.398	0.579	0.888	0.097
Mof_C 	C 	0.4	0.56	0.92	-0.077
Mof_C 	C 	0.426	0.568	0.948	-0.038
Mof_C 	C 	0.453	0.591	0.939	0.045
Mof_C 	C 	0.454	0.602	0.904	-0.015
Mof_C 	C 	0.477	0.605	0.966	-0.118
Mof_N 	N 	0.453	0.676	0.852	-0.099
Mof_N 	N 	0.469	0.701	0.945	-0.051
Mof_N 	N 	0.489	0.6	0.809	-0.162
Mof_N 	N 	0.424	0.594	0.876	-0.175
Mof_H 	H 	0.47883	0.54096	0.83005	0.021
Mof_H 	H 	0.54095	0.51432	0.81056	0.04
Mof_H 	H 	0.58817	0.56239	0.78113	0.025
Mof_H 	H 	0.57523	0.63267	0.7895	0.043
Mof_H 	H 	0.51631	0.65807	0.80899	0.025
Mof_H 	H 	0.36994	0.58063	0.87184	0.005
Mof_H 	H 	0.37951	0.5355	0.92562	0.047
Mof_H 	H 	0.42294	0.55448	0.97731	0.035
Mof_H 	H 	0.47932	0.61907	0.89309	0.032
Mof_H 	H 	0.48326	0.63679	0.96722	0.061
Mof_H 	H 	0.49083	0.58492	0.98738	0.053
Mof_C 	C 	0.032	0.7	0.139	-0.167
Mof_C 	C 	0.023	0.718	0.078	-0.179
Mof_C 	C 	0.999	0.56	0.184	0.045
Mof_C 	C 	0.965	0.546	0.193	-0.069
Mof_C 	C 	0.94	0.572	0.206	0.005
Mof_C 	C 	0.948	0.611	0.204	-0.064
Mof_C 	C 	0.981	0.626	0.195	0.043
Mof_C 	C 	0.102	0.579	0.112	0.098
Mof_C 	C 	0.1	0.56	0.08	-0.078
Mof_C 	C 	0.074	0.568	0.052	-0.038
Mof_C 	C 	0.047	0.591	0.061	0.043
Mof_C 	C 	0.046	0.602	0.096	-0.015
Mof_C 	C 	0.023	0.605	0.034	-0.12
Mof_N 	N 	0.047	0.676	0.148	-0.101
Mof_N 	N 	0.031	0.701	0.055	-0.056
Mof_N 	N 	0.011	0.6	0.191	-0.172
Mof_N 	N 	0.076	0.594	0.124	-0.175
Mof_H 	H 	0.02117	0.54096	0.16995	0.012
Mof_H 	H 	0.95905	0.51432	0.18944	0.044
Mof_H 	H 	0.91183	0.56239	0.21887	0.024
Mof_H 	H 	0.92477	0.63267	0.2105	0.045
Mof_H 	H 	0.98369	0.65807	0.19101	0.025
Mof_H 	H 	0.13006	0.58063	0.12816	0.005
Mof_H 	H 	0.12049	0.5355	0.07438	0.046
Mof_H 	H 	0.07706	0.55448	0.02269	0.029
Mof_H 	H 	0.02068	0.61907	0.10691	0.029
Mof_H 	H 	0.01674	0.63679	0.03278	0.056
Mof_H 	H 	0.00917	0.58492	0.01262	0.044
Mof_C 	C 	0.532	0.2	0.639	-0.17
Mof_C 	C 	0.523	0.218	0.578	-0.18
Mof_C 	C 	0.499	0.06	0.684	0.024
Mof_C 	C 	0.465	0.046	0.693	-0.061
Mof_C 	C 	0.44	0.072	0.706	-0.002
Mof_C 	C 	0.448	0.111	0.704	-0.059
Mof_C 	C 	0.481	0.126	0.695	0.031
Mof_C 	C 	0.602	0.079	0.612	0.097
Mof_C 	C 	0.6	0.06	0.58	-0.078
Mof_C 	C 	0.574	0.068	0.552	-0.039
Mof_C 	C 	0.547	0.091	0.561	0.044
Mof_C 	C 	0.546	0.102	0.596	-0.015
Mof_C 	C 	0.523	0.105	0.534	-0.119
Mof_N 	N 	0.547	0.176	0.648	-0.099
Mof_N 	N 	0.531	0.201	0.555	-0.052
Mof_N 	N 	0.511	0.1	0.691	-0.162
Mof_N 	N 	0.576	0.094	0.624	-0.175
Mof_H 	H 	0.52117	0.04096	0.66995	0.019
Mof_H 	H 	0.45905	0.01432	0.68944	0.037
Mof_H 	H 	0.41183	0.06239	0.71887	0.024
Mof_H 	H 	0.42477	0.13267	0.7105	0.043
Mof_H 	H 	0.48369	0.15807	0.69101	0.025
Mof_H 	H 	0.63006	0.08063	0.62816	0.004
Mof_H 	H 	0.62049	0.0355	0.57438	0.044
Mof_H 	H 	0.57706	0.05448	0.52269	0.031
Mof_H 	H 	0.52068	0.11907	0.60691	0.032
Mof_H 	H 	0.51674	0.13679	0.53278	0.06
Mof_H 	H 	0.50917	0.08492	0.51262	0.049
Mof_C 	C 	0.218	0.889	0.95	-0.159
Mof_C 	C 	0.227	0.828	0.968	-0.168
Mof_C 	C 	0.251	0.934	0.81	0.026
Mof_C 	C 	0.285	0.943	0.796	-0.06
Mof_C 	C 	0.31	0.956	0.822	-0
Mof_C 	C 	0.302	0.954	0.861	-0.058
Mof_C 	C 	0.269	0.945	0.876	0.033
Mof_C 	C 	0.148	0.862	0.829	0.098
Mof_C 	C 	0.15	0.83	0.81	-0.078
Mof_C 	C 	0.176	0.802	0.818	-0.038
Mof_C 	C 	0.203	0.811	0.841	0.045
Mof_C 	C 	0.204	0.846	0.852	-0.015
Mof_C 	C 	0.227	0.784	0.855	-0.119
Mof_N 	N 	0.203	0.898	0.926	-0.102
Mof_N 	N 	0.219	0.805	0.951	-0.055
Mof_N 	N 	0.239	0.941	0.85	-0.161
Mof_N 	N 	0.174	0.874	0.844	-0.175
Mof_H 	H 	0.22883	0.91995	0.79096	0.022
Mof_H 	H 	0.29095	0.93944	0.76432	0.041
Mof_H 	H 	0.33817	0.96887	0.81239	0.027
Mof_H 	H 	0.32523	0.9605	0.88267	0.045
Mof_H 	H 	0.26631	0.94101	0.90807	0.026
Mof_H 	H 	0.11994	0.87816	0.83063	0.005
Mof_H 	H 	0.12951	0.82438	0.7855	0.046
Mof_H 	H 	0.17294	0.77269	0.80448	0.033
Mof_H 	H 	0.22932	0.85691	0.86907	0.032
Mof_H 	H 	0.23326	0.78278	0.88679	0.06
Mof_H 	H 	0.24083	0.76262	0.83492	0.05
Mof_C 	C 	0.718	0.389	0.45	-0.17
Mof_C 	C 	0.727	0.328	0.468	-0.18
Mof_C 	C 	0.751	0.434	0.31	0.025
Mof_C 	C 	0.785	0.443	0.296	-0.06
Mof_C 	C 	0.81	0.456	0.322	-0.001
Mof_C 	C 	0.802	0.454	0.361	-0.059
Mof_C 	C 	0.769	0.445	0.376	0.031
Mof_C 	C 	0.648	0.362	0.329	0.098
Mof_C 	C 	0.65	0.33	0.31	-0.077
Mof_C 	C 	0.676	0.302	0.318	-0.038
Mof_C 	C 	0.703	0.311	0.341	0.045
Mof_C 	C 	0.704	0.346	0.352	-0.015
Mof_C 	C 	0.727	0.284	0.355	-0.119
Mof_N 	N 	0.703	0.398	0.426	-0.099
Mof_N 	N 	0.719	0.305	0.451	-0.052
Mof_N 	N 	0.739	0.441	0.35	-0.162
Mof_N 	N 	0.674	0.374	0.344	-0.175
Mof_H 	H 	0.72883	0.41995	0.29096	0.021
Mof_H 	H 	0.79095	0.43944	0.26432	0.04
Mof_H 	H 	0.83817	0.46887	0.31239	0.025
Mof_H 	H 	0.82523	0.4605	0.38267	0.043
Mof_H 	H 	0.76631	0.44101	0.40807	0.025
Mof_H 	H 	0.61994	0.37816	0.33063	0.005
Mof_H 	H 	0.62951	0.32438	0.2855	0.046
Mof_H 	H 	0.67294	0.27269	0.30448	0.033
Mof_H 	H 	0.72932	0.35691	0.36907	0.032
Mof_H 	H 	0.73326	0.28278	0.38679	0.06
Mof_H 	H 	0.74083	0.26262	0.33492	0.05
Mof_C 	C 	0.282	0.111	0.45	-0.171
Mof_C 	C 	0.273	0.172	0.468	-0.18
Mof_C 	C 	0.249	0.066	0.31	0.024
Mof_C 	C 	0.215	0.057	0.296	-0.061
Mof_C 	C 	0.19	0.044	0.322	-0.002
Mof_C 	C 	0.198	0.046	0.361	-0.059
Mof_C 	C 	0.231	0.055	0.376	0.03
Mof_C 	C 	0.352	0.138	0.329	0.098
Mof_C 	C 	0.35	0.17	0.31	-0.077
Mof_C 	C 	0.324	0.198	0.318	-0.038
Mof_C 	C 	0.297	0.189	0.341	0.045
Mof_C 	C 	0.296	0.154	0.352	-0.014
Mof_C 	C 	0.273	0.216	0.355	-0.118
Mof_N 	N 	0.297	0.102	0.426	-0.099
Mof_N 	N 	0.281	0.195	0.451	-0.052
Mof_N 	N 	0.261	0.059	0.35	-0.162
Mof_N 	N 	0.326	0.126	0.344	-0.175
Mof_H 	H 	0.27117	0.08005	0.29096	0.021
Mof_H 	H 	0.20905	0.06056	0.26432	0.039
Mof_H 	H 	0.16183	0.03113	0.31239	0.023
Mof_H 	H 	0.17477	0.0395	0.38267	0.042
Mof_H 	H 	0.23369	0.05899	0.40807	0.024
Mof_H 	H 	0.38006	0.12184	0.33063	0.005
Mof_H 	H 	0.37049	0.17562	0.2855	0.046
Mof_H 	H 	0.32706	0.22731	0.30448	0.033
Mof_H 	H 	0.27068	0.14309	0.36907	0.032
Mof_H 	H 	0.26674	0.21722	0.38679	0.06
Mof_H 	H 	0.25917	0.23738	0.33492	0.05
Mof_C 	C 	0.782	0.611	0.95	-0.16
Mof_C 	C 	0.773	0.672	0.968	-0.168
Mof_C 	C 	0.749	0.566	0.81	0.025
Mof_C 	C 	0.715	0.557	0.796	-0.06
Mof_C 	C 	0.69	0.544	0.822	-0.001
Mof_C 	C 	0.698	0.546	0.861	-0.059
Mof_C 	C 	0.731	0.555	0.876	0.031
Mof_C 	C 	0.852	0.638	0.829	0.097
Mof_C 	C 	0.85	0.67	0.81	-0.077
Mof_C 	C 	0.824	0.698	0.818	-0.038
Mof_C 	C 	0.797	0.689	0.841	0.045
Mof_C 	C 	0.796	0.654	0.852	-0.015
Mof_C 	C 	0.773	0.716	0.855	-0.118
Mof_N 	N 	0.797	0.602	0.926	-0.102
Mof_N 	N 	0.781	0.695	0.951	-0.055
Mof_N 	N 	0.761	0.559	0.85	-0.162
Mof_N 	N 	0.826	0.626	0.844	-0.175
Mof_H 	H 	0.77117	0.58005	0.79096	0.021
Mof_H 	H 	0.70905	0.56056	0.76432	0.04
Mof_H 	H 	0.66183	0.53113	0.81239	0.025
Mof_H 	H 	0.67477	0.5395	0.88267	0.044
Mof_H 	H 	0.73369	0.55899	0.90807	0.025
Mof_H 	H 	0.88006	0.62184	0.83063	0.005
Mof_H 	H 	0.87049	0.67562	0.7855	0.046
Mof_H 	H 	0.82706	0.72731	0.80448	0.033
Mof_H 	H 	0.77068	0.64309	0.86907	0.032
Mof_H 	H 	0.76674	0.71722	0.88679	0.06
Mof_H 	H 	0.75917	0.73738	0.83492	0.05
Mof_C 	C 	0.718	0.611	0.05	-0.166
Mof_C 	C 	0.727	0.672	0.032	-0.178
Mof_C 	C 	0.751	0.566	0.19	0.025
Mof_C 	C 	0.785	0.557	0.204	-0.06
Mof_C 	C 	0.81	0.544	0.178	-0.001
Mof_C 	C 	0.802	0.546	0.139	-0.059
Mof_C 	C 	0.769	0.555	0.124	0.031
Mof_C 	C 	0.648	0.638	0.171	0.098
Mof_C 	C 	0.65	0.67	0.19	-0.077
Mof_C 	C 	0.676	0.698	0.182	-0.038
Mof_C 	C 	0.703	0.689	0.159	0.045
Mof_C 	C 	0.704	0.654	0.148	-0.015
Mof_C 	C 	0.727	0.716	0.145	-0.119
Mof_N 	N 	0.703	0.602	0.074	-0.101
Mof_N 	N 	0.719	0.695	0.049	-0.054
Mof_N 	N 	0.739	0.559	0.15	-0.162
Mof_N 	N 	0.674	0.626	0.156	-0.175
Mof_H 	H 	0.72883	0.58005	0.20904	0.021
Mof_H 	H 	0.79095	0.56056	0.23568	0.04
Mof_H 	H 	0.83817	0.53113	0.18761	0.025
Mof_H 	H 	0.82523	0.5395	0.11733	0.043
Mof_H 	H 	0.76631	0.55899	0.09193	0.025
Mof_H 	H 	0.61994	0.62184	0.16937	0.005
Mof_H 	H 	0.62951	0.67562	0.2145	0.046
Mof_H 	H 	0.67294	0.72731	0.19552	0.033
Mof_H 	H 	0.72932	0.64309	0.13093	0.032
Mof_H 	H 	0.73326	0.71722	0.11321	0.06
Mof_H 	H 	0.74083	0.73738	0.16508	0.05
Mof_C 	C 	0.218	0.111	0.55	-0.171
Mof_C 	C 	0.227	0.172	0.532	-0.18
Mof_C 	C 	0.251	0.066	0.69	0.024
Mof_C 	C 	0.285	0.057	0.704	-0.061
Mof_C 	C 	0.31	0.044	0.678	-0.002
Mof_C 	C 	0.302	0.046	0.639	-0.059
Mof_C 	C 	0.269	0.055	0.624	0.03
Mof_C 	C 	0.148	0.138	0.671	0.098
Mof_C 	C 	0.15	0.17	0.69	-0.077
Mof_C 	C 	0.176	0.198	0.682	-0.038
Mof_C 	C 	0.203	0.189	0.659	0.045
Mof_C 	C 	0.204	0.154	0.648	-0.014
Mof_C 	C 	0.227	0.216	0.645	-0.119
Mof_N 	N 	0.203	0.102	0.574	-0.099
Mof_N 	N 	0.219	0.195	0.549	-0.052
Mof_N 	N 	0.239	0.059	0.65	-0.162
Mof_N 	N 	0.174	0.126	0.656	-0.175
Mof_H 	H 	0.22883	0.08005	0.70904	0.021
Mof_H 	H 	0.29095	0.06056	0.73568	0.039
Mof_H 	H 	0.33817	0.03113	0.68761	0.023
Mof_H 	H 	0.32523	0.0395	0.61733	0.042
Mof_H 	H 	0.26631	0.05899	0.59193	0.024
Mof_H 	H 	0.11994	0.12184	0.66937	0.005
Mof_H 	H 	0.12951	0.17562	0.7145	0.046
Mof_H 	H 	0.17294	0.22731	0.69552	0.032
Mof_H 	H 	0.22932	0.14309	0.63093	0.032
Mof_H 	H 	0.23326	0.21722	0.61321	0.06
Mof_H 	H 	0.24083	0.23738	0.66508	0.05
Mof_C 	C 	0.782	0.389	0.55	-0.17
Mof_C 	C 	0.773	0.328	0.532	-0.18
Mof_C 	C 	0.749	0.434	0.69	0.025
Mof_C 	C 	0.715	0.443	0.704	-0.06
Mof_C 	C 	0.69	0.456	0.678	-0.001
Mof_C 	C 	0.698	0.454	0.639	-0.059
Mof_C 	C 	0.731	0.445	0.624	0.031
Mof_C 	C 	0.852	0.362	0.671	0.097
Mof_C 	C 	0.85	0.33	0.69	-0.077
Mof_C 	C 	0.824	0.302	0.682	-0.038
Mof_C 	C 	0.797	0.311	0.659	0.045
Mof_C 	C 	0.796	0.346	0.648	-0.015
Mof_C 	C 	0.773	0.284	0.645	-0.118
Mof_N 	N 	0.797	0.398	0.574	-0.099
Mof_N 	N 	0.781	0.305	0.549	-0.052
Mof_N 	N 	0.761	0.441	0.65	-0.162
Mof_N 	N 	0.826	0.374	0.656	-0.175
Mof_H 	H 	0.77117	0.41995	0.70904	0.021
Mof_H 	H 	0.70905	0.43944	0.73568	0.04
Mof_H 	H 	0.66183	0.46887	0.68761	0.025
Mof_H 	H 	0.67477	0.4605	0.61733	0.043
Mof_H 	H 	0.73369	0.44101	0.59193	0.025
Mof_H 	H 	0.88006	0.37816	0.66937	0.005
Mof_H 	H 	0.87049	0.32438	0.7145	0.046
Mof_H 	H 	0.82706	0.27269	0.69552	0.033
Mof_H 	H 	0.77068	0.35691	0.63093	0.032
Mof_H 	H 	0.76674	0.28278	0.61321	0.06
Mof_H 	H 	0.75917	0.26262	0.66508	0.05
Mof_C 	C 	0.282	0.889	0.05	-0.166
Mof_C 	C 	0.273	0.828	0.032	-0.178
Mof_C 	C 	0.249	0.934	0.19	0.026
Mof_C 	C 	0.215	0.943	0.204	-0.06
Mof_C 	C 	0.19	0.956	0.178	-0
Mof_C 	C 	0.198	0.954	0.139	-0.058
Mof_C 	C 	0.231	0.945	0.124	0.032
Mof_C 	C 	0.352	0.862	0.171	0.098
Mof_C 	C 	0.35	0.83	0.19	-0.077
Mof_C 	C 	0.324	0.802	0.182	-0.038
Mof_C 	C 	0.297	0.811	0.159	0.045
Mof_C 	C 	0.296	0.846	0.148	-0.015
Mof_C 	C 	0.273	0.784	0.145	-0.119
Mof_N 	N 	0.297	0.898	0.074	-0.101
Mof_N 	N 	0.281	0.805	0.049	-0.054
Mof_N 	N 	0.261	0.941	0.15	-0.161
Mof_N 	N 	0.326	0.874	0.156	-0.175
Mof_H 	H 	0.27117	0.91995	0.20904	0.022
Mof_H 	H 	0.20905	0.93944	0.23568	0.041
Mof_H 	H 	0.16183	0.96887	0.18761	0.026
Mof_H 	H 	0.17477	0.9605	0.11733	0.044
Mof_H 	H 	0.23369	0.94101	0.09193	0.025
Mof_H 	H 	0.38006	0.87816	0.16937	0.005
Mof_H 	H 	0.37049	0.82438	0.2145	0.046
Mof_H 	H 	0.32706	0.77269	0.19552	0.032
Mof_H 	H 	0.27068	0.85691	0.13093	0.032
Mof_H 	H 	0.26674	0.78278	0.11321	0.06
Mof_H 	H 	0.25917	0.76262	0.16508	0.05
Mof_C 	C 	0.389	0.55	0.782	-0.17
Mof_C 	C 	0.328	0.532	0.773	-0.18
Mof_C 	C 	0.434	0.69	0.749	0.025
Mof_C 	C 	0.443	0.704	0.715	-0.06
Mof_C 	C 	0.456	0.678	0.69	-0.001
Mof_C 	C 	0.454	0.639	0.698	-0.059
Mof_C 	C 	0.445	0.624	0.731	0.031
Mof_C 	C 	0.362	0.671	0.852	0.097
Mof_C 	C 	0.33	0.69	0.85	-0.077
Mof_C 	C 	0.302	0.682	0.824	-0.038
Mof_C 	C 	0.311	0.659	0.797	0.045
Mof_C 	C 	0.346	0.648	0.796	-0.015
Mof_C 	C 	0.284	0.645	0.773	-0.118
Mof_N 	N 	0.398	0.574	0.797	-0.099
Mof_N 	N 	0.305	0.549	0.781	-0.052
Mof_N 	N 	0.441	0.65	0.761	-0.162
Mof_N 	N 	0.374	0.656	0.826	-0.175
Mof_H 	H 	0.41995	0.70904	0.77117	0.021
Mof_H 	H 	0.43944	0.73568	0.70905	0.04
Mof_H 	H 	0.46887	0.68761	0.66183	0.025
Mof_H 	H 	0.4605	0.61733	0.67477	0.043
Mof_H 	H 	0.44101	0.59193	0.73369	0.025
Mof_H 	H 	0.37816	0.66937	0.88006	0.005
Mof_H 	H 	0.32438	0.7145	0.87049	0.046
Mof_H 	H 	0.27269	0.69552	0.82706	0.033
Mof_H 	H 	0.35691	0.63093	0.77068	0.032
Mof_H 	H 	0.28278	0.61321	0.76674	0.06
Mof_H 	H 	0.26262	0.66508	0.75917	0.05
Mof_C 	C 	0.889	0.05	0.282	-0.166
Mof_C 	C 	0.828	0.032	0.273	-0.178
Mof_C 	C 	0.934	0.19	0.249	0.026
Mof_C 	C 	0.943	0.204	0.215	-0.06
Mof_C 	C 	0.956	0.178	0.19	-0
Mof_C 	C 	0.954	0.139	0.198	-0.058
Mof_C 	C 	0.945	0.124	0.231	0.032
Mof_C 	C 	0.862	0.171	0.352	0.098
Mof_C 	C 	0.83	0.19	0.35	-0.077
Mof_C 	C 	0.802	0.182	0.324	-0.038
Mof_C 	C 	0.811	0.159	0.297	0.045
Mof_C 	C 	0.846	0.148	0.296	-0.015
Mof_C 	C 	0.784	0.145	0.273	-0.119
Mof_N 	N 	0.898	0.074	0.297	-0.101
Mof_N 	N 	0.805	0.049	0.281	-0.054
Mof_N 	N 	0.941	0.15	0.261	-0.161
Mof_N 	N 	0.874	0.156	0.326	-0.175
Mof_H 	H 	0.91995	0.20904	0.27117	0.022
Mof_H 	H 	0.93944	0.23568	0.20905	0.041
Mof_H 	H 	0.96887	0.18761	0.16183	0.026
Mof_H 	H 	0.9605	0.11733	0.17477	0.044
Mof_H 	H 	0.94101	0.09193	0.23369	0.025
Mof_H 	H 	0.87816	0.16937	0.38006	0.005
Mof_H 	H 	0.82438	0.2145	0.37049	0.046
Mof_H 	H 	0.77269	0.19552	0.32706	0.032
Mof_H 	H 	0.85691	0.13093	0.27068	0.032
Mof_H 	H 	0.78278	0.11321	0.26674	0.06
Mof_H 	H 	0.76262	0.16508	0.25917	0.05
Mof_C 	C 	0.611	0.05	0.718	-0.166
Mof_C 	C 	0.672	0.032	0.727	-0.178
Mof_C 	C 	0.566	0.19	0.751	0.025
Mof_C 	C 	0.557	0.204	0.785	-0.06
Mof_C 	C 	0.544	0.178	0.81	-0.001
Mof_C 	C 	0.546	0.139	0.802	-0.059
Mof_C 	C 	0.555	0.124	0.769	0.031
Mof_C 	C 	0.638	0.171	0.648	0.098
Mof_C 	C 	0.67	0.19	0.65	-0.077
Mof_C 	C 	0.698	0.182	0.676	-0.038
Mof_C 	C 	0.689	0.159	0.703	0.045
Mof_C 	C 	0.654	0.148	0.704	-0.015
Mof_C 	C 	0.716	0.145	0.727	-0.119
Mof_N 	N 	0.602	0.074	0.703	-0.101
Mof_N 	N 	0.695	0.049	0.719	-0.054
Mof_N 	N 	0.559	0.15	0.739	-0.162
Mof_N 	N 	0.626	0.156	0.674	-0.175
Mof_H 	H 	0.58005	0.20904	0.72883	0.021
Mof_H 	H 	0.56056	0.23568	0.79095	0.04
Mof_H 	H 	0.53113	0.18761	0.83817	0.025
Mof_H 	H 	0.5395	0.11733	0.82523	0.043
Mof_H 	H 	0.55899	0.09193	0.76631	0.025
Mof_H 	H 	0.62184	0.16937	0.61994	0.005
Mof_H 	H 	0.67562	0.2145	0.62951	0.046
Mof_H 	H 	0.72731	0.19552	0.67294	0.033
Mof_H 	H 	0.64309	0.13093	0.72932	0.032
Mof_H 	H 	0.71722	0.11321	0.73326	0.06
Mof_H 	H 	0.73738	0.16508	0.74083	0.05
Mof_C 	C 	0.111	0.55	0.218	-0.171
Mof_C 	C 	0.172	0.532	0.227	-0.18
Mof_C 	C 	0.066	0.69	0.251	0.024
Mof_C 	C 	0.057	0.704	0.285	-0.061
Mof_C 	C 	0.044	0.678	0.31	-0.002
Mof_C 	C 	0.046	0.639	0.302	-0.059
Mof_C 	C 	0.055	0.624	0.269	0.03
Mof_C 	C 	0.138	0.671	0.148	0.098
Mof_C 	C 	0.17	0.69	0.15	-0.077
Mof_C 	C 	0.198	0.682	0.176	-0.038
Mof_C 	C 	0.189	0.659	0.203	0.045
Mof_C 	C 	0.154	0.648	0.204	-0.014
Mof_C 	C 	0.216	0.645	0.227	-0.119
Mof_N 	N 	0.102	0.574	0.203	-0.099
Mof_N 	N 	0.195	0.549	0.219	-0.052
Mof_N 	N 	0.059	0.65	0.239	-0.162
Mof_N 	N 	0.126	0.656	0.174	-0.175
Mof_H 	H 	0.08005	0.70904	0.22883	0.021
Mof_H 	H 	0.06056	0.73568	0.29095	0.039
Mof_H 	H 	0.03113	0.68761	0.33817	0.023
Mof_H 	H 	0.0395	0.61733	0.32523	0.042
Mof_H 	H 	0.05899	0.59193	0.26631	0.024
Mof_H 	H 	0.12184	0.66937	0.11994	0.005
Mof_H 	H 	0.17562	0.7145	0.12951	0.046
Mof_H 	H 	0.22731	0.69552	0.17294	0.032
Mof_H 	H 	0.14309	0.63093	0.22932	0.032
Mof_H 	H 	0.21722	0.61321	0.23326	0.06
Mof_H 	H 	0.23738	0.66508	0.24083	0.05
Mof_C 	C 	0.111	0.45	0.282	-0.171
Mof_C 	C 	0.172	0.468	0.273	-0.18
Mof_C 	C 	0.066	0.31	0.249	0.024
Mof_C 	C 	0.057	0.296	0.215	-0.061
Mof_C 	C 	0.044	0.322	0.19	-0.002
Mof_C 	C 	0.046	0.361	0.198	-0.059
Mof_C 	C 	0.055	0.376	0.231	0.03
Mof_C 	C 	0.138	0.329	0.352	0.098
Mof_C 	C 	0.17	0.31	0.35	-0.077
Mof_C 	C 	0.198	0.318	0.324	-0.038
Mof_C 	C 	0.189	0.341	0.297	0.045
Mof_C 	C 	0.154	0.352	0.296	-0.014
Mof_C 	C 	0.216	0.355	0.273	-0.118
Mof_N 	N 	0.102	0.426	0.297	-0.099
Mof_N 	N 	0.195	0.451	0.281	-0.052
Mof_N 	N 	0.059	0.35	0.261	-0.162
Mof_N 	N 	0.126	0.344	0.326	-0.175
Mof_H 	H 	0.08005	0.29096	0.27117	0.021
Mof_H 	H 	0.06056	0.26432	0.20905	0.039
Mof_H 	H 	0.03113	0.31239	0.16183	0.023
Mof_H 	H 	0.0395	0.38267	0.17477	0.042
Mof_H 	H 	0.05899	0.40807	0.23369	0.024
Mof_H 	H 	0.12184	0.33063	0.38006	0.005
Mof_H 	H 	0.17562	0.2855	0.37049	0.046
Mof_H 	H 	0.22731	0.30448	0.32706	0.033
Mof_H 	H 	0.14309	0.36907	0.27068	0.032
Mof_H 	H 	0.21722	0.38679	0.26674	0.06
Mof_H 	H 	0.23738	0.33492	0.25917	0.05
Mof_C 	C 	0.611	0.95	0.782	-0.16
Mof_C 	C 	0.672	0.968	0.773	-0.168
Mof_C 	C 	0.566	0.81	0.749	0.025
Mof_C 	C 	0.557	0.796	0.715	-0.06
Mof_C 	C 	0.544	0.822	0.69	-0.001
Mof_C 	C 	0.546	0.861	0.698	-0.059
Mof_C 	C 	0.555	0.876	0.731	0.031
Mof_C 	C 	0.638	0.829	0.852	0.097
Mof_C 	C 	0.67	0.81	0.85	-0.077
Mof_C 	C 	0.698	0.818	0.824	-0.038
Mof_C 	C 	0.689	0.841	0.797	0.045
Mof_C 	C 	0.654	0.852	0.796	-0.015
Mof_C 	C 	0.716	0.855	0.773	-0.118
Mof_N 	N 	0.602	0.926	0.797	-0.102
Mof_N 	N 	0.695	0.951	0.781	-0.055
Mof_N 	N 	0.559	0.85	0.761	-0.162
Mof_N 	N 	0.626	0.844	0.826	-0.175
Mof_H 	H 	0.58005	0.79096	0.77117	0.021
Mof_H 	H 	0.56056	0.76432	0.70905	0.04
Mof_H 	H 	0.53113	0.81239	0.66183	0.025
Mof_H 	H 	0.5395	0.88267	0.67477	0.044
Mof_H 	H 	0.55899	0.90807	0.73369	0.025
Mof_H 	H 	0.62184	0.83063	0.88006	0.005
Mof_H 	H 	0.67562	0.7855	0.87049	0.046
Mof_H 	H 	0.72731	0.80448	0.82706	0.033
Mof_H 	H 	0.64309	0.86907	0.77068	0.032
Mof_H 	H 	0.71722	0.88679	0.76674	0.06
Mof_H 	H 	0.73738	0.83492	0.75917	0.05
Mof_C 	C 	0.889	0.95	0.218	-0.159
Mof_C 	C 	0.828	0.968	0.227	-0.168
Mof_C 	C 	0.934	0.81	0.251	0.026
Mof_C 	C 	0.943	0.796	0.285	-0.06
Mof_C 	C 	0.956	0.822	0.31	-0
Mof_C 	C 	0.954	0.861	0.302	-0.058
Mof_C 	C 	0.945	0.876	0.269	0.033
Mof_C 	C 	0.862	0.829	0.148	0.098
Mof_C 	C 	0.83	0.81	0.15	-0.078
Mof_C 	C 	0.802	0.818	0.176	-0.038
Mof_C 	C 	0.811	0.841	0.203	0.045
Mof_C 	C 	0.846	0.852	0.204	-0.015
Mof_C 	C 	0.784	0.855	0.227	-0.119
Mof_N 	N 	0.898	0.926	0.203	-0.102
Mof_N 	N 	0.805	0.951	0.219	-0.055
Mof_N 	N 	0.941	0.85	0.239	-0.161
Mof_N 	N 	0.874	0.844	0.174	-0.175
Mof_H 	H 	0.91995	0.79096	0.22883	0.022
Mof_H 	H 	0.93944	0.76432	0.29095	0.041
Mof_H 	H 	0.96887	0.81239	0.33817	0.027
Mof_H 	H 	0.9605	0.88267	0.32523	0.045
Mof_H 	H 	0.94101	0.90807	0.26631	0.026
Mof_H 	H 	0.87816	0.83063	0.11994	0.005
Mof_H 	H 	0.82438	0.7855	0.12951	0.046
Mof_H 	H 	0.77269	0.80448	0.17294	0.033
Mof_H 	H 	0.85691	0.86907	0.22932	0.032
Mof_H 	H 	0.78278	0.88679	0.23326	0.06
Mof_H 	H 	0.76262	0.83492	0.24083	0.05
Mof_C 	C 	0.389	0.45	0.718	-0.17
Mof_C 	C 	0.328	0.468	0.727	-0.18
Mof_C 	C 	0.434	0.31	0.751	0.025
Mof_C 	C 	0.443	0.296	0.785	-0.06
Mof_C 	C 	0.456	0.322	0.81	-0.001
Mof_C 	C 	0.454	0.361	0.802	-0.059
Mof_C 	C 	0.445	0.376	0.769	0.031
Mof_C 	C 	0.362	0.329	0.648	0.098
Mof_C 	C 	0.33	0.31	0.65	-0.077
Mof_C 	C 	0.302	0.318	0.676	-0.038
Mof_C 	C 	0.311	0.341	0.703	0.045
Mof_C 	C 	0.346	0.352	0.704	-0.015
Mof_C 	C 	0.284	0.355	0.727	-0.119
Mof_N 	N 	0.398	0.426	0.703	-0.099
Mof_N 	N 	0.305	0.451	0.719	-0.052
Mof_N 	N 	0.441	0.35	0.739	-0.162
Mof_N 	N 	0.374	0.344	0.674	-0.175
Mof_H 	H 	0.41995	0.29096	0.72883	0.021
Mof_H 	H 	0.43944	0.26432	0.79095	0.04
Mof_H 	H 	0.46887	0.31239	0.83817	0.025
Mof_H 	H 	0.4605	0.38267	0.82523	0.043
Mof_H 	H 	0.44101	0.40807	0.76631	0.025
Mof_H 	H 	0.37816	0.33063	0.61994	0.005
Mof_H 	H 	0.32438	0.2855	0.62951	0.046
Mof_H 	H 	0.27269	0.30448	0.67294	0.033
Mof_H 	H 	0.35691	0.36907	0.72932	0.032
Mof_H 	H 	0.28278	0.38679	0.73326	0.06
Mof_H 	H 	0.26262	0.33492	0.74083	0.05
Mof_C 	C 	0.05	0.718	0.611	-0.166
Mof_C 	C 	0.032	0.727	0.672	-0.178
Mof_C 	C 	0.19	0.751	0.566	0.025
Mof_C 	C 	0.204	0.785	0.557	-0.06
Mof_C 	C 	0.178	0.81	0.544	-0.001
Mof_C 	C 	0.139	0.802	0.546	-0.059
Mof_C 	C 	0.124	0.769	0.555	0.031
Mof_C 	C 	0.171	0.648	0.638	0.098
Mof_C 	C 	0.19	0.65	0.67	-0.077
Mof_C 	C 	0.182	0.676	0.698	-0.038
Mof_C 	C 	0.159	0.703	0.689	0.045
Mof_C 	C 	0.148	0.704	0.654	-0.015
Mof_C 	C 	0.145	0.727	0.716	-0.119
Mof_N 	N 	0.074	0.703	0.602	-0.101
Mof_N 	N 	0.049	0.719	0.695	-0.054
Mof_N 	N 	0.15	0.739	0.559	-0.162
Mof_N 	N 	0.156	0.674	0.626	-0.175
Mof_H 	H 	0.20904	0.72883	0.58005	0.021
Mof_H 	H 	0.23568	0.79095	0.56056	0.04
Mof_H 	H 	0.18761	0.83817	0.53113	0.025
Mof_H 	H 	0.11733	0.82523	0.5395	0.043
Mof_H 	H 	0.09193	0.76631	0.55899	0.025
Mof_H 	H 	0.16937	0.61994	0.62184	0.005
Mof_H 	H 	0.2145	0.62951	0.67562	0.046
Mof_H 	H 	0.19552	0.67294	0.72731	0.033
Mof_H 	H 	0.13093	0.72932	0.64309	0.032
Mof_H 	H 	0.11321	0.73326	0.71722	0.06
Mof_H 	H 	0.16508	0.74083	0.73738	0.05
Mof_C 	C 	0.55	0.218	0.111	-0.171
Mof_C 	C 	0.532	0.227	0.172	-0.18
Mof_C 	C 	0.69	0.251	0.066	0.024
Mof_C 	C 	0.704	0.285	0.057	-0.061
Mof_C 	C 	0.678	0.31	0.044	-0.002
Mof_C 	C 	0.639	0.302	0.046	-0.059
Mof_C 	C 	0.624	0.269	0.055	0.03
Mof_C 	C 	0.671	0.148	0.138	0.098
Mof_C 	C 	0.69	0.15	0.17	-0.077
Mof_C 	C 	0.682	0.176	0.198	-0.038
Mof_C 	C 	0.659	0.203	0.189	0.045
Mof_C 	C 	0.648	0.204	0.154	-0.014
Mof_C 	C 	0.645	0.227	0.216	-0.119
Mof_N 	N 	0.574	0.203	0.102	-0.099
Mof_N 	N 	0.549	0.219	0.195	-0.052
Mof_N 	N 	0.65	0.239	0.059	-0.162
Mof_N 	N 	0.656	0.174	0.126	-0.175
Mof_H 	H 	0.70904	0.22883	0.08005	0.021
Mof_H 	H 	0.73568	0.29095	0.06056	0.039
Mof_H 	H 	0.68761	0.33817	0.03113	0.023
Mof_H 	H 	0.61733	0.32523	0.0395	0.042
Mof_H 	H 	0.59193	0.26631	0.05899	0.024
Mof_H 	H 	0.66937	0.11994	0.12184	0.005
Mof_H 	H 	0.7145	0.12951	0.17562	0.046
Mof_H 	H 	0.69552	0.17294	0.22731	0.032
Mof_H 	H 	0.63093	0.22932	0.14309	0.032
Mof_H 	H 	0.61321	0.23326	0.21722	0.06
Mof_H 	H 	0.66508	0.24083	0.23738	0.05
Mof_C 	C 	0.55	0.782	0.389	-0.17
Mof_C 	C 	0.532	0.773	0.328	-0.18
Mof_C 	C 	0.69	0.749	0.434	0.025
Mof_C 	C 	0.704	0.715	0.443	-0.06
Mof_C 	C 	0.678	0.69	0.456	-0.001
Mof_C 	C 	0.639	0.698	0.454	-0.059
Mof_C 	C 	0.624	0.731	0.445	0.031
Mof_C 	C 	0.671	0.852	0.362	0.097
Mof_C 	C 	0.69	0.85	0.33	-0.077
Mof_C 	C 	0.682	0.824	0.302	-0.038
Mof_C 	C 	0.659	0.797	0.311	0.045
Mof_C 	C 	0.648	0.796	0.346	-0.015
Mof_C 	C 	0.645	0.773	0.284	-0.118
Mof_N 	N 	0.574	0.797	0.398	-0.099
Mof_N 	N 	0.549	0.781	0.305	-0.052
Mof_N 	N 	0.65	0.761	0.441	-0.162
Mof_N 	N 	0.656	0.826	0.374	-0.175
Mof_H 	H 	0.70904	0.77117	0.41995	0.021
Mof_H 	H 	0.73568	0.70905	0.43944	0.04
Mof_H 	H 	0.68761	0.66183	0.46887	0.025
Mof_H 	H 	0.61733	0.67477	0.4605	0.043
Mof_H 	H 	0.59193	0.73369	0.44101	0.025
Mof_H 	H 	0.66937	0.88006	0.37816	0.005
Mof_H 	H 	0.7145	0.87049	0.32438	0.046
Mof_H 	H 	0.69552	0.82706	0.27269	0.033
Mof_H 	H 	0.63093	0.77068	0.35691	0.032
Mof_H 	H 	0.61321	0.76674	0.28278	0.06
Mof_H 	H 	0.66508	0.75917	0.26262	0.05
Mof_C 	C 	0.05	0.282	0.889	-0.166
Mof_C 	C 	0.032	0.273	0.828	-0.178
Mof_C 	C 	0.19	0.249	0.934	0.026
Mof_C 	C 	0.204	0.215	0.943	-0.06
Mof_C 	C 	0.178	0.19	0.956	-0
Mof_C 	C 	0.139	0.198	0.954	-0.058
Mof_C 	C 	0.124	0.231	0.945	0.032
Mof_C 	C 	0.171	0.352	0.862	0.098
Mof_C 	C 	0.19	0.35	0.83	-0.077
Mof_C 	C 	0.182	0.324	0.802	-0.038
Mof_C 	C 	0.159	0.297	0.811	0.045
Mof_C 	C 	0.148	0.296	0.846	-0.015
Mof_C 	C 	0.145	0.273	0.784	-0.119
Mof_N 	N 	0.074	0.297	0.898	-0.101
Mof_N 	N 	0.049	0.281	0.805	-0.054
Mof_N 	N 	0.15	0.261	0.941	-0.161
Mof_N 	N 	0.156	0.326	0.874	-0.175
Mof_H 	H 	0.20904	0.27117	0.91995	0.022
Mof_H 	H 	0.23568	0.20905	0.93944	0.041
Mof_H 	H 	0.18761	0.16183	0.96887	0.026
Mof_H 	H 	0.11733	0.17477	0.9605	0.044
Mof_H 	H 	0.09193	0.23369	0.94101	0.025
Mof_H 	H 	0.16937	0.38006	0.87816	0.005
Mof_H 	H 	0.2145	0.37049	0.82438	0.046
Mof_H 	H 	0.19552	0.32706	0.77269	0.032
Mof_H 	H 	0.13093	0.27068	0.85691	0.032
Mof_H 	H 	0.11321	0.26674	0.78278	0.06
Mof_H 	H 	0.16508	0.25917	0.76262	0.05
Mof_C 	C 	0.95	0.218	0.889	-0.159
Mof_C 	C 	0.968	0.227	0.828	-0.168
Mof_C 	C 	0.81	0.251	0.934	0.026
Mof_C 	C 	0.796	0.285	0.943	-0.06
Mof_C 	C 	0.822	0.31	0.956	-0
Mof_C 	C 	0.861	0.302	0.954	-0.058
Mof_C 	C 	0.876	0.269	0.945	0.033
Mof_C 	C 	0.829	0.148	0.862	0.098
Mof_C 	C 	0.81	0.15	0.83	-0.078
Mof_C 	C 	0.818	0.176	0.802	-0.038
Mof_C 	C 	0.841	0.203	0.811	0.045
Mof_C 	C 	0.852	0.204	0.846	-0.015
Mof_C 	C 	0.855	0.227	0.784	-0.119
Mof_N 	N 	0.926	0.203	0.898	-0.102
Mof_N 	N 	0.951	0.219	0.805	-0.055
Mof_N 	N 	0.85	0.239	0.941	-0.161
Mof_N 	N 	0.844	0.174	0.874	-0.175
Mof_H 	H 	0.79096	0.22883	0.91995	0.022
Mof_H 	H 	0.76432	0.29095	0.93944	0.041
Mof_H 	H 	0.81239	0.33817	0.96887	0.027
Mof_H 	H 	0.88267	0.32523	0.9605	0.045
Mof_H 	H 	0.90807	0.26631	0.94101	0.026
Mof_H 	H 	0.83063	0.11994	0.87816	0.005
Mof_H 	H 	0.7855	0.12951	0.82438	0.046
Mof_H 	H 	0.80448	0.17294	0.77269	0.033
Mof_H 	H 	0.86907	0.22932	0.85691	0.032
Mof_H 	H 	0.88679	0.23326	0.78278	0.06
Mof_H 	H 	0.83492	0.24083	0.76262	0.05
Mof_C 	C 	0.45	0.718	0.389	-0.17
Mof_C 	C 	0.468	0.727	0.328	-0.18
Mof_C 	C 	0.31	0.751	0.434	0.025
Mof_C 	C 	0.296	0.785	0.443	-0.06
Mof_C 	C 	0.322	0.81	0.456	-0.001
Mof_C 	C 	0.361	0.802	0.454	-0.059
Mof_C 	C 	0.376	0.769	0.445	0.031
Mof_C 	C 	0.329	0.648	0.362	0.098
Mof_C 	C 	0.31	0.65	0.33	-0.077
Mof_C 	C 	0.318	0.676	0.302	-0.038
Mof_C 	C 	0.341	0.703	0.311	0.045
Mof_C 	C 	0.352	0.704	0.346	-0.015
Mof_C 	C 	0.355	0.727	0.284	-0.119
Mof_N 	N 	0.426	0.703	0.398	-0.099
Mof_N 	N 	0.451	0.719	0.305	-0.052
Mof_N 	N 	0.35	0.739	0.441	-0.162
Mof_N 	N 	0.344	0.674	0.374	-0.175
Mof_H 	H 	0.29096	0.72883	0.41995	0.021
Mof_H 	H 	0.26432	0.79095	0.43944	0.04
Mof_H 	H 	0.31239	0.83817	0.46887	0.025
Mof_H 	H 	0.38267	0.82523	0.4605	0.043
Mof_H 	H 	0.40807	0.76631	0.44101	0.025
Mof_H 	H 	0.33063	0.61994	0.37816	0.005
Mof_H 	H 	0.2855	0.62951	0.32438	0.046
Mof_H 	H 	0.30448	0.67294	0.27269	0.033
Mof_H 	H 	0.36907	0.72932	0.35691	0.032
Mof_H 	H 	0.38679	0.73326	0.28278	0.06
Mof_H 	H 	0.33492	0.74083	0.26262	0.05
Mof_C 	C 	0.45	0.282	0.111	-0.171
Mof_C 	C 	0.468	0.273	0.172	-0.18
Mof_C 	C 	0.31	0.249	0.066	0.024
Mof_C 	C 	0.296	0.215	0.057	-0.061
Mof_C 	C 	0.322	0.19	0.044	-0.002
Mof_C 	C 	0.361	0.198	0.046	-0.059
Mof_C 	C 	0.376	0.231	0.055	0.03
Mof_C 	C 	0.329	0.352	0.138	0.098
Mof_C 	C 	0.31	0.35	0.17	-0.077
Mof_C 	C 	0.318	0.324	0.198	-0.038
Mof_C 	C 	0.341	0.297	0.189	0.045
Mof_C 	C 	0.352	0.296	0.154	-0.014
Mof_C 	C 	0.355	0.273	0.216	-0.118
Mof_N 	N 	0.426	0.297	0.102	-0.099
Mof_N 	N 	0.451	0.281	0.195	-0.052
Mof_N 	N 	0.35	0.261	0.059	-0.162
Mof_N 	N 	0.344	0.326	0.126	-0.175
Mof_H 	H 	0.29096	0.27117	0.08005	0.021
Mof_H 	H 	0.26432	0.20905	0.06056	0.039
Mof_H 	H 	0.31239	0.16183	0.03113	0.023
Mof_H 	H 	0.38267	0.17477	0.0395	0.042
Mof_H 	H 	0.40807	0.23369	0.05899	0.024
Mof_H 	H 	0.33063	0.38006	0.12184	0.005
Mof_H 	H 	0.2855	0.37049	0.17562	0.046
Mof_H 	H 	0.30448	0.32706	0.22731	0.033
Mof_H 	H 	0.36907	0.27068	0.14309	0.032
Mof_H 	H 	0.38679	0.26674	0.21722	0.06
Mof_H 	H 	0.33492	0.25917	0.23738	0.05
Mof_C 	C 	0.95	0.782	0.611	-0.16
Mof_C 	C 	0.968	0.773	0.672	-0.168
Mof_C 	C 	0.81	0.749	0.566	0.025
Mof_C 	C 	0.796	0.715	0.557	-0.06
Mof_C 	C 	0.822	0.69	0.544	-0.001
Mof_C 	C 	0.861	0.698	0.546	-0.059
Mof_C 	C 	0.876	0.731	0.555	0.031
Mof_C 	C 	0.829	0.852	0.638	0.097
Mof_C 	C 	0.81	0.85	0.67	-0.077
Mof_C 	C 	0.818	0.824	0.698	-0.038
Mof_C 	C 	0.841	0.797	0.689	0.045
Mof_C 	C 	0.852	0.796	0.654	-0.015
Mof_C 	C 	0.855	0.773	0.716	-0.118
Mof_N 	N 	0.926	0.797	0.602	-0.102
Mof_N 	N 	0.951	0.781	0.695	-0.055
Mof_N 	N 	0.85	0.761	0.559	-0.162
Mof_N 	N 	0.844	0.826	0.626	-0.175
Mof_H 	H 	0.79096	0.77117	0.58005	0.021
Mof_H 	H 	0.76432	0.70905	0.56056	0.04
Mof_H 	H 	0.81239	0.66183	0.53113	0.025
Mof_H 	H 	0.88267	0.67477	0.5395	0.044
Mof_H 	H 	0.90807	0.73369	0.55899	0.025
Mof_H 	H 	0.83063	0.88006	0.62184	0.005
Mof_H 	H 	0.7855	0.87049	0.67562	0.046
Mof_H 	H 	0.80448	0.82706	0.72731	0.033
Mof_H 	H 	0.86907	0.77068	0.64309	0.032
Mof_H 	H 	0.88679	0.76674	0.71722	0.06
Mof_H 	H 	0.83492	0.75917	0.73738	0.05
Mof_C 	C 	0.361	0.532	0.7	-0.17
Mof_C 	C 	0.422	0.523	0.718	-0.18
Mof_C 	C 	0.316	0.499	0.56	0.025
Mof_C 	C 	0.307	0.465	0.546	-0.06
Mof_C 	C 	0.294	0.44	0.572	-0.001
Mof_C 	C 	0.296	0.448	0.611	-0.059
Mof_C 	C 	0.305	0.481	0.626	0.031
Mof_C 	C 	0.388	0.602	0.579	0.098
Mof_C 	C 	0.42	0.6	0.56	-0.077
Mof_C 	C 	0.448	0.574	0.568	-0.038
Mof_C 	C 	0.439	0.547	0.591	0.045
Mof_C 	C 	0.404	0.546	0.602	-0.015
Mof_C 	C 	0.466	0.523	0.605	-0.119
Mof_N 	N 	0.352	0.547	0.676	-0.099
Mof_N 	N 	0.445	0.531	0.701	-0.052
Mof_N 	N 	0.309	0.511	0.6	-0.162
Mof_N 	N 	0.376	0.576	0.594	-0.175
Mof_H 	H 	0.33005	0.52117	0.54096	0.021
Mof_H 	H 	0.31056	0.45905	0.51432	0.04
Mof_H 	H 	0.28113	0.41183	0.56239	0.025
Mof_H 	H 	0.2895	0.42477	0.63267	0.043
Mof_H 	H 	0.30899	0.48369	0.65807	0.025
Mof_H 	H 	0.37184	0.63006	0.58063	0.005
Mof_H 	H 	0.42562	0.62049	0.5355	0.046
Mof_H 	H 	0.47731	0.57706	0.55448	0.033
Mof_H 	H 	0.39309	0.52068	0.61907	0.032
Mof_H 	H 	0.46722	0.51674	0.63679	0.06
Mof_H 	H 	0.48738	0.50917	0.58492	0.05
Mof_C 	C 	0.861	0.032	0.2	-0.167
Mof_C 	C 	0.922	0.023	0.218	-0.177
Mof_C 	C 	0.816	0.999	0.06	0.044
Mof_C 	C 	0.807	0.965	0.046	-0.07
Mof_C 	C 	0.794	0.94	0.072	0.005
Mof_C 	C 	0.796	0.948	0.111	-0.065
Mof_C 	C 	0.805	0.981	0.126	0.042
Mof_C 	C 	0.888	0.102	0.079	0.097
Mof_C 	C 	0.92	0.1	0.06	-0.078
Mof_C 	C 	0.948	0.074	0.068	-0.038
Mof_C 	C 	0.939	0.047	0.091	0.044
Mof_C 	C 	0.904	0.046	0.102	-0.015
Mof_C 	C 	0.966	0.023	0.105	-0.119
Mof_N 	N 	0.852	0.047	0.176	-0.101
Mof_N 	N 	0.945	0.031	0.201	-0.054
Mof_N 	N 	0.809	0.011	0.1	-0.172
Mof_N 	N 	0.876	0.076	0.094	-0.175
Mof_H 	H 	0.83005	0.02117	0.04096	0.01
Mof_H 	H 	0.81056	0.95905	0.01432	0.042
Mof_H 	H 	0.78113	0.91183	0.06239	0.023
Mof_H 	H 	0.7895	0.92477	0.13267	0.045
Mof_H 	H 	0.80899	0.98369	0.15807	0.025
Mof_H 	H 	0.87184	0.13006	0.08063	0.005
Mof_H 	H 	0.92562	0.12049	0.0355	0.045
Mof_H 	H 	0.97731	0.07706	0.05448	0.032
Mof_H 	H 	0.89309	0.02068	0.11907	0.029
Mof_H 	H 	0.96722	0.01674	0.13679	0.059
Mof_H 	H 	0.98738	0.00917	0.08492	0.049
Mof_C 	C 	0.139	0.468	0.2	-0.17
Mof_C 	C 	0.078	0.477	0.218	-0.181
Mof_C 	C 	0.184	0.501	0.06	0.024
Mof_C 	C 	0.193	0.535	0.046	-0.061
Mof_C 	C 	0.206	0.56	0.072	-0.002
Mof_C 	C 	0.204	0.552	0.111	-0.059
Mof_C 	C 	0.195	0.519	0.126	0.031
Mof_C 	C 	0.112	0.398	0.079	0.097
Mof_C 	C 	0.08	0.4	0.06	-0.079
Mof_C 	C 	0.052	0.426	0.068	-0.039
Mof_C 	C 	0.061	0.453	0.091	0.044
Mof_C 	C 	0.096	0.454	0.102	-0.015
Mof_C 	C 	0.034	0.477	0.105	-0.119
Mof_N 	N 	0.148	0.453	0.176	-0.099
Mof_N 	N 	0.055	0.469	0.201	-0.053
Mof_N 	N 	0.191	0.489	0.1	-0.162
Mof_N 	N 	0.124	0.424	0.094	-0.175
Mof_H 	H 	0.16995	0.47883	0.04096	0.019
Mof_H 	H 	0.18944	0.54095	0.01432	0.037
Mof_H 	H 	0.21887	0.58817	0.06239	0.024
Mof_H 	H 	0.2105	0.57523	0.13267	0.043
Mof_H 	H 	0.19101	0.51631	0.15807	0.025
Mof_H 	H 	0.12816	0.36994	0.08063	0.004
Mof_H 	H 	0.07438	0.37951	0.0355	0.044
Mof_H 	H 	0.02269	0.42294	0.05448	0.028
Mof_H 	H 	0.10691	0.47932	0.11907	0.032
Mof_H 	H 	0.03278	0.48326	0.13679	0.058
Mof_H 	H 	0.01262	0.49083	0.08492	0.047
Mof_C 	C 	0.639	0.968	0.7	-0.159
Mof_C 	C 	0.578	0.977	0.718	-0.168
Mof_C 	C 	0.684	0.001	0.56	0.005
Mof_C 	C 	0.693	0.035	0.546	-0.052
Mof_C 	C 	0.706	0.06	0.572	-0.008
Mof_C 	C 	0.704	0.052	0.611	-0.053
Mof_C 	C 	0.695	0.019	0.626	0.02
Mof_C 	C 	0.612	0.898	0.579	0.097
Mof_C 	C 	0.58	0.9	0.56	-0.077
Mof_C 	C 	0.552	0.926	0.568	-0.038
Mof_C 	C 	0.561	0.953	0.591	0.046
Mof_C 	C 	0.596	0.954	0.602	-0.014
Mof_C 	C 	0.534	0.977	0.605	-0.118
Mof_N 	N 	0.648	0.953	0.676	-0.102
Mof_N 	N 	0.555	0.969	0.701	-0.054
Mof_N 	N 	0.691	0.989	0.6	-0.151
Mof_N 	N 	0.624	0.924	0.594	-0.175
Mof_H 	H 	0.66995	0.97883	0.54096	0.03
Mof_H 	H 	0.68944	0.04095	0.51432	0.036
Mof_H 	H 	0.71887	0.08817	0.56239	0.026
Mof_H 	H 	0.7105	0.07523	0.63267	0.042
Mof_H 	H 	0.69101	0.01631	0.65807	0.024
Mof_H 	H 	0.62816	0.86994	0.58063	0.005
Mof_H 	H 	0.57438	0.87951	0.5355	0.046
Mof_H 	H 	0.52269	0.92294	0.55448	0.033
Mof_H 	H 	0.60691	0.97932	0.61907	0.034
Mof_H 	H 	0.53278	0.98326	0.63679	0.062
Mof_H 	H 	0.51262	0.99083	0.58492	0.054
Mof_C 	C 	0.639	0.032	0.8	-0.167
Mof_C 	C 	0.578	0.023	0.782	-0.178
Mof_C 	C 	0.684	0.999	0.94	0.045
Mof_C 	C 	0.693	0.965	0.954	-0.068
Mof_C 	C 	0.706	0.94	0.928	0.006
Mof_C 	C 	0.704	0.948	0.889	-0.064
Mof_C 	C 	0.695	0.981	0.874	0.043
Mof_C 	C 	0.612	0.102	0.921	0.098
Mof_C 	C 	0.58	0.1	0.94	-0.077
Mof_C 	C 	0.552	0.074	0.932	-0.037
Mof_C 	C 	0.561	0.047	0.909	0.044
Mof_C 	C 	0.596	0.046	0.898	-0.014
Mof_C 	C 	0.534	0.023	0.895	-0.119
Mof_N 	N 	0.648	0.047	0.824	-0.102
Mof_N 	N 	0.555	0.031	0.799	-0.055
Mof_N 	N 	0.691	0.011	0.9	-0.172
Mof_N 	N 	0.624	0.076	0.906	-0.175
Mof_H 	H 	0.66995	0.02117	0.95904	0.014
Mof_H 	H 	0.68944	0.95905	0.98568	0.047
Mof_H 	H 	0.71887	0.91183	0.93761	0.025
Mof_H 	H 	0.7105	0.92477	0.86733	0.045
Mof_H 	H 	0.69101	0.98369	0.84193	0.025
Mof_H 	H 	0.62816	0.13006	0.91937	0.005
Mof_H 	H 	0.57438	0.12049	0.9645	0.048
Mof_H 	H 	0.52269	0.07706	0.94552	0.034
Mof_H 	H 	0.60691	0.02068	0.88093	0.029
Mof_H 	H 	0.53278	0.01674	0.86321	0.057
Mof_H 	H 	0.51262	0.00917	0.91508	0.048
Mof_C 	C 	0.139	0.532	0.3	-0.17
Mof_C 	C 	0.078	0.523	0.282	-0.181
Mof_C 	C 	0.184	0.499	0.44	0.025
Mof_C 	C 	0.193	0.465	0.454	-0.06
Mof_C 	C 	0.206	0.44	0.428	-0.001
Mof_C 	C 	0.204	0.448	0.389	-0.059
Mof_C 	C 	0.195	0.481	0.374	0.031
Mof_C 	C 	0.112	0.602	0.421	0.098
Mof_C 	C 	0.08	0.6	0.44	-0.078
Mof_C 	C 	0.052	0.574	0.432	-0.038
Mof_C 	C 	0.061	0.547	0.409	0.044
Mof_C 	C 	0.096	0.546	0.398	-0.014
Mof_C 	C 	0.034	0.523	0.395	-0.119
Mof_N 	N 	0.148	0.547	0.324	-0.099
Mof_N 	N 	0.055	0.531	0.299	-0.053
Mof_N 	N 	0.191	0.511	0.4	-0.162
Mof_N 	N 	0.124	0.576	0.406	-0.175
Mof_H 	H 	0.16995	0.52117	0.45904	0.021
Mof_H 	H 	0.18944	0.45905	0.48568	0.04
Mof_H 	H 	0.21887	0.41183	0.43761	0.025
Mof_H 	H 	0.2105	0.42477	0.36733	0.043
Mof_H 	H 	0.19101	0.48369	0.34193	0.025
Mof_H 	H 	0.12816	0.63006	0.41937	0.005
Mof_H 	H 	0.07438	0.62049	0.4645	0.046
Mof_H 	H 	0.02269	0.57706	0.44552	0.03
Mof_H 	H 	0.10691	0.52068	0.38093	0.032
Mof_H 	H 	0.03278	0.51674	0.36321	0.058
Mof_H 	H 	0.01262	0.50917	0.41508	0.048
Mof_C 	C 	0.861	0.968	0.3	-0.159
Mof_C 	C 	0.922	0.977	0.282	-0.168
Mof_C 	C 	0.816	0.001	0.44	0.005
Mof_C 	C 	0.807	0.035	0.454	-0.052
Mof_C 	C 	0.794	0.06	0.428	-0.008
Mof_C 	C 	0.796	0.052	0.389	-0.053
Mof_C 	C 	0.805	0.019	0.374	0.02
Mof_C 	C 	0.888	0.898	0.421	0.097
Mof_C 	C 	0.92	0.9	0.44	-0.076
Mof_C 	C 	0.948	0.926	0.432	-0.038
Mof_C 	C 	0.939	0.953	0.409	0.047
Mof_C 	C 	0.904	0.954	0.398	-0.014
Mof_C 	C 	0.966	0.977	0.395	-0.117
Mof_N 	N 	0.852	0.953	0.324	-0.102
Mof_N 	N 	0.945	0.969	0.299	-0.053
Mof_N 	N 	0.809	0.989	0.4	-0.151
Mof_N 	N 	0.876	0.924	0.406	-0.175
Mof_H 	H 	0.83005	0.97883	0.45904	0.03
Mof_H 	H 	0.81056	0.04095	0.48568	0.036
Mof_H 	H 	0.78113	0.08817	0.43761	0.026
Mof_H 	H 	0.7895	0.07523	0.36733	0.041
Mof_H 	H 	0.80899	0.01631	0.34193	0.024
Mof_H 	H 	0.87184	0.86994	0.41937	0.005
Mof_H 	H 	0.92562	0.87951	0.4645	0.047
Mof_H 	H 	0.97731	0.92294	0.44552	0.036
Mof_H 	H 	0.89309	0.97932	0.38093	0.034
Mof_H 	H 	0.96722	0.98326	0.36321	0.064
Mof_H 	H 	0.98738	0.99083	0.41508	0.056
Mof_C 	C 	0.361	0.468	0.8	-0.17
Mof_C 	C 	0.422	0.477	0.782	-0.18
Mof_C 	C 	0.316	0.501	0.94	0.025
Mof_C 	C 	0.307	0.535	0.954	-0.059
Mof_C 	C 	0.294	0.56	0.928	-0.001
Mof_C 	C 	0.296	0.552	0.889	-0.059
Mof_C 	C 	0.305	0.519	0.874	0.031
Mof_C 	C 	0.388	0.398	0.921	0.098
Mof_C 	C 	0.42	0.4	0.94	-0.076
Mof_C 	C 	0.448	0.426	0.932	-0.037
Mof_C 	C 	0.439	0.453	0.909	0.045
Mof_C 	C 	0.404	0.454	0.898	-0.014
Mof_C 	C 	0.466	0.477	0.895	-0.118
Mof_N 	N 	0.352	0.453	0.824	-0.099
Mof_N 	N 	0.445	0.469	0.799	-0.052
Mof_N 	N 	0.309	0.489	0.9	-0.161
Mof_N 	N 	0.376	0.424	0.906	-0.175
Mof_H 	H 	0.33005	0.47883	0.95904	0.024
Mof_H 	H 	0.31056	0.54095	0.98568	0.043
Mof_H 	H 	0.28113	0.58817	0.93761	0.026
Mof_H 	H 	0.2895	0.57523	0.86733	0.043
Mof_H 	H 	0.30899	0.51631	0.84193	0.025
Mof_H 	H 	0.37184	0.36994	0.91937	0.005
Mof_H 	H 	0.42562	0.37951	0.9645	0.048
Mof_H 	H 	0.47731	0.42294	0.94552	0.035
Mof_H 	H 	0.39309	0.47932	0.88093	0.032
Mof_H 	H 	0.46722	0.48326	0.86321	0.06
Mof_H 	H 	0.48738	0.49083	0.91508	0.051
Mof_C 	C 	0.7	0.361	0.532	-0.17
Mof_C 	C 	0.718	0.422	0.523	-0.18
Mof_C 	C 	0.56	0.316	0.499	0.025
Mof_C 	C 	0.546	0.307	0.465	-0.06
Mof_C 	C 	0.572	0.294	0.44	-0.001
Mof_C 	C 	0.611	0.296	0.448	-0.059
Mof_C 	C 	0.626	0.305	0.481	0.031
Mof_C 	C 	0.579	0.388	0.602	0.098
Mof_C 	C 	0.56	0.42	0.6	-0.077
Mof_C 	C 	0.568	0.448	0.574	-0.038
Mof_C 	C 	0.591	0.439	0.547	0.045
Mof_C 	C 	0.602	0.404	0.546	-0.015
Mof_C 	C 	0.605	0.466	0.523	-0.119
Mof_N 	N 	0.676	0.352	0.547	-0.099
Mof_N 	N 	0.701	0.445	0.531	-0.052
Mof_N 	N 	0.6	0.309	0.511	-0.162
Mof_N 	N 	0.594	0.376	0.576	-0.175
Mof_H 	H 	0.54096	0.33005	0.52117	0.021
Mof_H 	H 	0.51432	0.31056	0.45905	0.04
Mof_H 	H 	0.56239	0.28113	0.41183	0.025
Mof_H 	H 	0.63267	0.2895	0.42477	0.043
Mof_H 	H 	0.65807	0.30899	0.48369	0.025
Mof_H 	H 	0.58063	0.37184	0.63006	0.005
Mof_H 	H 	0.5355	0.42562	0.62049	0.046
Mof_H 	H 	0.55448	0.47731	0.57706	0.033
Mof_H 	H 	0.61907	0.39309	0.52068	0.032
Mof_H 	H 	0.63679	0.46722	0.51674	0.06
Mof_H 	H 	0.58492	0.48738	0.50917	0.05
Mof_C 	C 	0.2	0.861	0.032	-0.167
Mof_C 	C 	0.218	0.922	0.023	-0.177
Mof_C 	C 	0.06	0.816	0.999	0.044
Mof_C 	C 	0.046	0.807	0.965	-0.07
Mof_C 	C 	0.072	0.794	0.94	0.005
Mof_C 	C 	0.111	0.796	0.948	-0.065
Mof_C 	C 	0.126	0.805	0.981	0.042
Mof_C 	C 	0.079	0.888	0.102	0.097
Mof_C 	C 	0.06	0.92	0.1	-0.078
Mof_C 	C 	0.068	0.948	0.074	-0.038
Mof_C 	C 	0.091	0.939	0.047	0.044
Mof_C 	C 	0.102	0.904	0.046	-0.015
Mof_C 	C 	0.105	0.966	0.023	-0.119
Mof_N 	N 	0.176	0.852	0.047	-0.101
Mof_N 	N 	0.201	0.945	0.031	-0.054
Mof_N 	N 	0.1	0.809	0.011	-0.172
Mof_N 	N 	0.094	0.876	0.076	-0.175
Mof_H 	H 	0.04096	0.83005	0.02117	0.01
Mof_H 	H 	0.01432	0.81056	0.95905	0.042
Mof_H 	H 	0.06239	0.78113	0.91183	0.023
Mof_H 	H 	0.13267	0.7895	0.92477	0.045
Mof_H 	H 	0.15807	0.80899	0.98369	0.025
Mof_H 	H 	0.08063	0.87184	0.13006	0.005
Mof_H 	H 	0.0355	0.92562	0.12049	0.045
Mof_H 	H 	0.05448	0.97731	0.07706	0.032
Mof_H 	H 	0.11907	0.89309	0.02068	0.029
Mof_H 	H 	0.13679	0.96722	0.01674	0.059
Mof_H 	H 	0.08492	0.98738	0.00917	0.049
Mof_C 	C 	0.2	0.139	0.468	-0.17
Mof_C 	C 	0.218	0.078	0.477	-0.181
Mof_C 	C 	0.06	0.184	0.501	0.024
Mof_C 	C 	0.046	0.193	0.535	-0.061
Mof_C 	C 	0.072	0.206	0.56	-0.002
Mof_C 	C 	0.111	0.204	0.552	-0.059
Mof_C 	C 	0.126	0.195	0.519	0.031
Mof_C 	C 	0.079	0.112	0.398	0.097
Mof_C 	C 	0.06	0.08	0.4	-0.079
Mof_C 	C 	0.068	0.052	0.426	-0.039
Mof_C 	C 	0.091	0.061	0.453	0.044
Mof_C 	C 	0.102	0.096	0.454	-0.015
Mof_C 	C 	0.105	0.034	0.477	-0.119
Mof_N 	N 	0.176	0.148	0.453	-0.099
Mof_N 	N 	0.201	0.055	0.469	-0.053
Mof_N 	N 	0.1	0.191	0.489	-0.162
Mof_N 	N 	0.094	0.124	0.424	-0.175
Mof_H 	H 	0.04096	0.16995	0.47883	0.019
Mof_H 	H 	0.01432	0.18944	0.54095	0.037
Mof_H 	H 	0.06239	0.21887	0.58817	0.024
Mof_H 	H 	0.13267	0.2105	0.57523	0.043
Mof_H 	H 	0.15807	0.19101	0.51631	0.025
Mof_H 	H 	0.08063	0.12816	0.36994	0.004
Mof_H 	H 	0.0355	0.07438	0.37951	0.044
Mof_H 	H 	0.05448	0.02269	0.42294	0.028
Mof_H 	H 	0.11907	0.10691	0.47932	0.032
Mof_H 	H 	0.13679	0.03278	0.48326	0.058
Mof_H 	H 	0.08492	0.01262	0.49083	0.047
Mof_C 	C 	0.7	0.639	0.968	-0.159
Mof_C 	C 	0.718	0.578	0.977	-0.168
Mof_C 	C 	0.56	0.684	0.001	0.005
Mof_C 	C 	0.546	0.693	0.035	-0.052
Mof_C 	C 	0.572	0.706	0.06	-0.008
Mof_C 	C 	0.611	0.704	0.052	-0.053
Mof_C 	C 	0.626	0.695	0.019	0.02
Mof_C 	C 	0.579	0.612	0.898	0.097
Mof_C 	C 	0.56	0.58	0.9	-0.077
Mof_C 	C 	0.568	0.552	0.926	-0.038
Mof_C 	C 	0.591	0.561	0.953	0.046
Mof_C 	C 	0.602	0.596	0.954	-0.014
Mof_C 	C 	0.605	0.534	0.977	-0.118
Mof_N 	N 	0.676	0.648	0.953	-0.102
Mof_N 	N 	0.701	0.555	0.969	-0.054
Mof_N 	N 	0.6	0.691	0.989	-0.151
Mof_N 	N 	0.594	0.624	0.924	-0.175
Mof_H 	H 	0.54096	0.66995	0.97883	0.03
Mof_H 	H 	0.51432	0.68944	0.04095	0.036
Mof_H 	H 	0.56239	0.71887	0.08817	0.026
Mof_H 	H 	0.63267	0.7105	0.07523	0.042
Mof_H 	H 	0.65807	0.69101	0.01631	0.024
Mof_H 	H 	0.58063	0.62816	0.86994	0.005
Mof_H 	H 	0.5355	0.57438	0.87951	0.046
Mof_H 	H 	0.55448	0.52269	0.92294	0.033
Mof_H 	H 	0.61907	0.60691	0.97932	0.034
Mof_H 	H 	0.63679	0.53278	0.98326	0.062
Mof_H 	H 	0.58492	0.51262	0.99083	0.054
Mof_C 	C 	0.8	0.639	0.032	-0.167
Mof_C 	C 	0.782	0.578	0.023	-0.178
Mof_C 	C 	0.94	0.684	0.999	0.045
Mof_C 	C 	0.954	0.693	0.965	-0.068
Mof_C 	C 	0.928	0.706	0.94	0.006
Mof_C 	C 	0.889	0.704	0.948	-0.064
Mof_C 	C 	0.874	0.695	0.981	0.043
Mof_C 	C 	0.921	0.612	0.102	0.098
Mof_C 	C 	0.94	0.58	0.1	-0.077
Mof_C 	C 	0.932	0.552	0.074	-0.037
Mof_C 	C 	0.909	0.561	0.047	0.044
Mof_C 	C 	0.898	0.596	0.046	-0.014
Mof_C 	C 	0.895	0.534	0.023	-0.119
Mof_N 	N 	0.824	0.648	0.047	-0.102
Mof_N 	N 	0.799	0.555	0.031	-0.055
Mof_N 	N 	0.9	0.691	0.011	-0.172
Mof_N 	N 	0.906	0.624	0.076	-0.175
Mof_H 	H 	0.95904	0.66995	0.02117	0.014
Mof_H 	H 	0.98568	0.68944	0.95905	0.047
Mof_H 	H 	0.93761	0.71887	0.91183	0.025
Mof_H 	H 	0.86733	0.7105	0.92477	0.045
Mof_H 	H 	0.84193	0.69101	0.98369	0.025
Mof_H 	H 	0.91937	0.62816	0.13006	0.005
Mof_H 	H 	0.9645	0.57438	0.12049	0.048
Mof_H 	H 	0.94552	0.52269	0.07706	0.034
Mof_H 	H 	0.88093	0.60691	0.02068	0.029
Mof_H 	H 	0.86321	0.53278	0.01674	0.057
Mof_H 	H 	0.91508	0.51262	0.00917	0.048
Mof_C 	C 	0.3	0.139	0.532	-0.17
Mof_C 	C 	0.282	0.078	0.523	-0.181
Mof_C 	C 	0.44	0.184	0.499	0.025
Mof_C 	C 	0.454	0.193	0.465	-0.06
Mof_C 	C 	0.428	0.206	0.44	-0.001
Mof_C 	C 	0.389	0.204	0.448	-0.059
Mof_C 	C 	0.374	0.195	0.481	0.031
Mof_C 	C 	0.421	0.112	0.602	0.098
Mof_C 	C 	0.44	0.08	0.6	-0.078
Mof_C 	C 	0.432	0.052	0.574	-0.038
Mof_C 	C 	0.409	0.061	0.547	0.044
Mof_C 	C 	0.398	0.096	0.546	-0.014
Mof_C 	C 	0.395	0.034	0.523	-0.119
Mof_N 	N 	0.324	0.148	0.547	-0.099
Mof_N 	N 	0.299	0.055	0.531	-0.053
Mof_N 	N 	0.4	0.191	0.511	-0.162
Mof_N 	N 	0.406	0.124	0.576	-0.175
Mof_H 	H 	0.45904	0.16995	0.52117	0.021
Mof_H 	H 	0.48568	0.18944	0.45905	0.04
Mof_H 	H 	0.43761	0.21887	0.41183	0.025
Mof_H 	H 	0.36733	0.2105	0.42477	0.043
Mof_H 	H 	0.34193	0.19101	0.48369	0.025
Mof_H 	H 	0.41937	0.12816	0.63006	0.005
Mof_H 	H 	0.4645	0.07438	0.62049	0.046
Mof_H 	H 	0.44552	0.02269	0.57706	0.03
Mof_H 	H 	0.38093	0.10691	0.52068	0.032
Mof_H 	H 	0.36321	0.03278	0.51674	0.058
Mof_H 	H 	0.41508	0.01262	0.50917	0.048
Mof_C 	C 	0.3	0.861	0.968	-0.159
Mof_C 	C 	0.282	0.922	0.977	-0.168
Mof_C 	C 	0.44	0.816	0.001	0.005
Mof_C 	C 	0.454	0.807	0.035	-0.052
Mof_C 	C 	0.428	0.794	0.06	-0.008
Mof_C 	C 	0.389	0.796	0.052	-0.053
Mof_C 	C 	0.374	0.805	0.019	0.02
Mof_C 	C 	0.421	0.888	0.898	0.097
Mof_C 	C 	0.44	0.92	0.9	-0.076
Mof_C 	C 	0.432	0.948	0.926	-0.038
Mof_C 	C 	0.409	0.939	0.953	0.047
Mof_C 	C 	0.398	0.904	0.954	-0.014
Mof_C 	C 	0.395	0.966	0.977	-0.117
Mof_N 	N 	0.324	0.852	0.953	-0.102
Mof_N 	N 	0.299	0.945	0.969	-0.053
Mof_N 	N 	0.4	0.809	0.989	-0.151
Mof_N 	N 	0.406	0.876	0.924	-0.175
Mof_H 	H 	0.45904	0.83005	0.97883	0.03
Mof_H 	H 	0.48568	0.81056	0.04095	0.036
Mof_H 	H 	0.43761	0.78113	0.08817	0.026
Mof_H 	H 	0.36733	0.7895	0.07523	0.041
Mof_H 	H 	0.34193	0.80899	0.01631	0.024
Mof_H 	H 	0.41937	0.87184	0.86994	0.005
Mof_H 	H 	0.4645	0.92562	0.87951	0.047
Mof_H 	H 	0.44552	0.97731	0.92294	0.036
Mof_H 	H 	0.38093	0.89309	0.97932	0.034
Mof_H 	H 	0.36321	0.96722	0.98326	0.064
Mof_H 	H 	0.41508	0.98738	0.99083	0.056
Mof_C 	C 	0.8	0.361	0.468	-0.17
Mof_C 	C 	0.782	0.422	0.477	-0.18
Mof_C 	C 	0.94	0.316	0.501	0.025
Mof_C 	C 	0.954	0.307	0.535	-0.059
Mof_C 	C 	0.928	0.294	0.56	-0.001
Mof_C 	C 	0.889	0.296	0.552	-0.059
Mof_C 	C 	0.874	0.305	0.519	0.031
Mof_C 	C 	0.921	0.388	0.398	0.098
Mof_C 	C 	0.94	0.42	0.4	-0.076
Mof_C 	C 	0.932	0.448	0.426	-0.037
Mof_C 	C 	0.909	0.439	0.453	0.045
Mof_C 	C 	0.898	0.404	0.454	-0.014
Mof_C 	C 	0.895	0.466	0.477	-0.118
Mof_N 	N 	0.824	0.352	0.453	-0.099
Mof_N 	N 	0.799	0.445	0.469	-0.052
Mof_N 	N 	0.9	0.309	0.489	-0.161
Mof_N 	N 	0.906	0.376	0.424	-0.175
Mof_H 	H 	0.95904	0.33005	0.47883	0.024
Mof_H 	H 	0.98568	0.31056	0.54095	0.043
Mof_H 	H 	0.93761	0.28113	0.58817	0.026
Mof_H 	H 	0.86733	0.2895	0.57523	0.043
Mof_H 	H 	0.84193	0.30899	0.51631	0.025
Mof_H 	H 	0.91937	0.37184	0.36994	0.005
Mof_H 	H 	0.9645	0.42562	0.37951	0.048
Mof_H 	H 	0.94552	0.47731	0.42294	0.035
Mof_H 	H 	0.88093	0.39309	0.47932	0.032
Mof_H 	H 	0.86321	0.46722	0.48326	0.06
Mof_H 	H 	0.91508	0.48738	0.49083	0.051
Mof_C 	C 	0.532	0.7	0.361	-0.17
Mof_C 	C 	0.523	0.718	0.422	-0.18
Mof_C 	C 	0.499	0.56	0.316	0.025
Mof_C 	C 	0.465	0.546	0.307	-0.06
Mof_C 	C 	0.44	0.572	0.294	-0.001
Mof_C 	C 	0.448	0.611	0.296	-0.059
Mof_C 	C 	0.481	0.626	0.305	0.031
Mof_C 	C 	0.602	0.579	0.388	0.098
Mof_C 	C 	0.6	0.56	0.42	-0.077
Mof_C 	C 	0.574	0.568	0.448	-0.038
Mof_C 	C 	0.547	0.591	0.439	0.045
Mof_C 	C 	0.546	0.602	0.404	-0.015
Mof_C 	C 	0.523	0.605	0.466	-0.119
Mof_N 	N 	0.547	0.676	0.352	-0.099
Mof_N 	N 	0.531	0.701	0.445	-0.052
Mof_N 	N 	0.511	0.6	0.309	-0.162
Mof_N 	N 	0.576	0.594	0.376	-0.175
Mof_H 	H 	0.52117	0.54096	0.33005	0.021
Mof_H 	H 	0.45905	0.51432	0.31056	0.04
Mof_H 	H 	0.41183	0.56239	0.28113	0.025
Mof_H 	H 	0.42477	0.63267	0.2895	0.043
Mof_H 	H 	0.48369	0.65807	0.30899	0.025
Mof_H 	H 	0.63006	0.58063	0.37184	0.005
Mof_H 	H 	0.62049	0.5355	0.42562	0.046
Mof_H 	H 	0.57706	0.55448	0.47731	0.033
Mof_H 	H 	0.52068	0.61907	0.39309	0.032
Mof_H 	H 	0.51674	0.63679	0.46722	0.06
Mof_H 	H 	0.50917	0.58492	0.48738	0.05
Mof_C 	C 	0.032	0.2	0.861	-0.167
Mof_C 	C 	0.023	0.218	0.922	-0.177
Mof_C 	C 	0.999	0.06	0.816	0.044
Mof_C 	C 	0.965	0.046	0.807	-0.07
Mof_C 	C 	0.94	0.072	0.794	0.005
Mof_C 	C 	0.948	0.111	0.796	-0.065
Mof_C 	C 	0.981	0.126	0.805	0.042
Mof_C 	C 	0.102	0.079	0.888	0.097
Mof_C 	C 	0.1	0.06	0.92	-0.078
Mof_C 	C 	0.074	0.068	0.948	-0.038
Mof_C 	C 	0.047	0.091	0.939	0.044
Mof_C 	C 	0.046	0.102	0.904	-0.015
Mof_C 	C 	0.023	0.105	0.966	-0.119
Mof_N 	N 	0.047	0.176	0.852	-0.101
Mof_N 	N 	0.031	0.201	0.945	-0.054
Mof_N 	N 	0.011	0.1	0.809	-0.172
Mof_N 	N 	0.076	0.094	0.876	-0.175
Mof_H 	H 	0.02117	0.04096	0.83005	0.01
Mof_H 	H 	0.95905	0.01432	0.81056	0.042
Mof_H 	H 	0.91183	0.06239	0.78113	0.023
Mof_H 	H 	0.92477	0.13267	0.7895	0.045
Mof_H 	H 	0.98369	0.15807	0.80899	0.025
Mof_H 	H 	0.13006	0.08063	0.87184	0.005
Mof_H 	H 	0.12049	0.0355	0.92562	0.045
Mof_H 	H 	0.07706	0.05448	0.97731	0.032
Mof_H 	H 	0.02068	0.11907	0.89309	0.029
Mof_H 	H 	0.01674	0.13679	0.96722	0.059
Mof_H 	H 	0.00917	0.08492	0.98738	0.049
Mof_C 	C 	0.468	0.2	0.139	-0.17
Mof_C 	C 	0.477	0.218	0.078	-0.181
Mof_C 	C 	0.501	0.06	0.184	0.024
Mof_C 	C 	0.535	0.046	0.193	-0.061
Mof_C 	C 	0.56	0.072	0.206	-0.002
Mof_C 	C 	0.552	0.111	0.204	-0.059
Mof_C 	C 	0.519	0.126	0.195	0.031
Mof_C 	C 	0.398	0.079	0.112	0.097
Mof_C 	C 	0.4	0.06	0.08	-0.079
Mof_C 	C 	0.426	0.068	0.052	-0.039
Mof_C 	C 	0.453	0.091	0.061	0.044
Mof_C 	C 	0.454	0.102	0.096	-0.015
Mof_C 	C 	0.477	0.105	0.034	-0.119
Mof_N 	N 	0.453	0.176	0.148	-0.099
Mof_N 	N 	0.469	0.201	0.055	-0.053
Mof_N 	N 	0.489	0.1	0.191	-0.162
Mof_N 	N 	0.424	0.094	0.124	-0.175
Mof_H 	H 	0.47883	0.04096	0.16995	0.019
Mof_H 	H 	0.54095	0.01432	0.18944	0.037
Mof_H 	H 	0.58817	0.06239	0.21887	0.024
Mof_H 	H 	0.57523	0.13267	0.2105	0.043
Mof_H 	H 	0.51631	0.15807	0.19101	0.025
Mof_H 	H 	0.36994	0.08063	0.12816	0.004
Mof_H 	H 	0.37951	0.0355	0.07438	0.044
Mof_H 	H 	0.42294	0.05448	0.02269	0.028
Mof_H 	H 	0.47932	0.11907	0.10691	0.032
Mof_H 	H 	0.48326	0.13679	0.03278	0.058
Mof_H 	H 	0.49083	0.08492	0.01262	0.047
Mof_C 	C 	0.968	0.7	0.639	-0.159
Mof_C 	C 	0.977	0.718	0.578	-0.168
Mof_C 	C 	0.001	0.56	0.684	0.005
Mof_C 	C 	0.035	0.546	0.693	-0.052
Mof_C 	C 	0.06	0.572	0.706	-0.008
Mof_C 	C 	0.052	0.611	0.704	-0.053
Mof_C 	C 	0.019	0.626	0.695	0.02
Mof_C 	C 	0.898	0.579	0.612	0.097
Mof_C 	C 	0.9	0.56	0.58	-0.077
Mof_C 	C 	0.926	0.568	0.552	-0.038
Mof_C 	C 	0.953	0.591	0.561	0.046
Mof_C 	C 	0.954	0.602	0.596	-0.014
Mof_C 	C 	0.977	0.605	0.534	-0.118
Mof_N 	N 	0.953	0.676	0.648	-0.102
Mof_N 	N 	0.969	0.701	0.555	-0.054
Mof_N 	N 	0.989	0.6	0.691	-0.151
Mof_N 	N 	0.924	0.594	0.624	-0.175
Mof_H 	H 	0.97883	0.54096	0.66995	0.03
Mof_H 	H 	0.04095	0.51432	0.68944	0.036
Mof_H 	H 	0.08817	0.56239	0.71887	0.026
Mof_H 	H 	0.07523	0.63267	0.7105	0.042
Mof_H 	H 	0.01631	0.65807	0.69101	0.024
Mof_H 	H 	0.86994	0.58063	0.62816	0.005
Mof_H 	H 	0.87951	0.5355	0.57438	0.046
Mof_H 	H 	0.92294	0.55448	0.52269	0.033
Mof_H 	H 	0.97932	0.61907	0.60691	0.034
Mof_H 	H 	0.98326	0.63679	0.53278	0.062
Mof_H 	H 	0.99083	0.58492	0.51262	0.054
Mof_C 	C 	0.032	0.8	0.639	-0.167
Mof_C 	C 	0.023	0.782	0.578	-0.178
Mof_C 	C 	0.999	0.94	0.684	0.045
Mof_C 	C 	0.965	0.954	0.693	-0.068
Mof_C 	C 	0.94	0.928	0.706	0.006
Mof_C 	C 	0.948	0.889	0.704	-0.064
Mof_C 	C 	0.981	0.874	0.695	0.043
Mof_C 	C 	0.102	0.921	0.612	0.098
Mof_C 	C 	0.1	0.94	0.58	-0.077
Mof_C 	C 	0.074	0.932	0.552	-0.037
Mof_C 	C 	0.047	0.909	0.561	0.044
Mof_C 	C 	0.046	0.898	0.596	-0.014
Mof_C 	C 	0.023	0.895	0.534	-0.119
Mof_N 	N 	0.047	0.824	0.648	-0.102
Mof_N 	N 	0.031	0.799	0.555	-0.055
Mof_N 	N 	0.011	0.9	0.691	-0.172
Mof_N 	N 	0.076	0.906	0.624	-0.175
Mof_H 	H 	0.02117	0.95904	0.66995	0.014
Mof_H 	H 	0.95905	0.98568	0.68944	0.047
Mof_H 	H 	0.91183	0.93761	0.71887	0.025
Mof_H 	H 	0.92477	0.86733	0.7105	0.045
Mof_H 	H 	0.98369	0.84193	0.69101	0.025
Mof_H 	H 	0.13006	0.91937	0.62816	0.005
Mof_H 	H 	0.12049	0.9645	0.57438	0.048
Mof_H 	H 	0.07706	0.94552	0.52269	0.034
Mof_H 	H 	0.02068	0.88093	0.60691	0.029
Mof_H 	H 	0.01674	0.86321	0.53278	0.057
Mof_H 	H 	0.00917	0.91508	0.51262	0.048
Mof_C 	C 	0.532	0.3	0.139	-0.17
Mof_C 	C 	0.523	0.282	0.078	-0.181
Mof_C 	C 	0.499	0.44	0.184	0.025
Mof_C 	C 	0.465	0.454	0.193	-0.06
Mof_C 	C 	0.44	0.428	0.206	-0.001
Mof_C 	C 	0.448	0.389	0.204	-0.059
Mof_C 	C 	0.481	0.374	0.195	0.031
Mof_C 	C 	0.602	0.421	0.112	0.098
Mof_C 	C 	0.6	0.44	0.08	-0.078
Mof_C 	C 	0.574	0.432	0.052	-0.038
Mof_C 	C 	0.547	0.409	0.061	0.044
Mof_C 	C 	0.546	0.398	0.096	-0.014
Mof_C 	C 	0.523	0.395	0.034	-0.119
Mof_N 	N 	0.547	0.324	0.148	-0.099
Mof_N 	N 	0.531	0.299	0.055	-0.053
Mof_N 	N 	0.511	0.4	0.191	-0.162
Mof_N 	N 	0.576	0.406	0.124	-0.175
Mof_H 	H 	0.52117	0.45904	0.16995	0.021
Mof_H 	H 	0.45905	0.48568	0.18944	0.04
Mof_H 	H 	0.41183	0.43761	0.21887	0.025
Mof_H 	H 	0.42477	0.36733	0.2105	0.043
Mof_H 	H 	0.48369	0.34193	0.19101	0.025
Mof_H 	H 	0.63006	0.41937	0.12816	0.005
Mof_H 	H 	0.62049	0.4645	0.07438	0.046
Mof_H 	H 	0.57706	0.44552	0.02269	0.03
Mof_H 	H 	0.52068	0.38093	0.10691	0.032
Mof_H 	H 	0.51674	0.36321	0.03278	0.058
Mof_H 	H 	0.50917	0.41508	0.01262	0.048
Mof_C 	C 	0.968	0.3	0.861	-0.159
Mof_C 	C 	0.977	0.282	0.922	-0.168
Mof_C 	C 	0.001	0.44	0.816	0.005
Mof_C 	C 	0.035	0.454	0.807	-0.052
Mof_C 	C 	0.06	0.428	0.794	-0.008
Mof_C 	C 	0.052	0.389	0.796	-0.053
Mof_C 	C 	0.019	0.374	0.805	0.02
Mof_C 	C 	0.898	0.421	0.888	0.097
Mof_C 	C 	0.9	0.44	0.92	-0.076
Mof_C 	C 	0.926	0.432	0.948	-0.038
Mof_C 	C 	0.953	0.409	0.939	0.047
Mof_C 	C 	0.954	0.398	0.904	-0.014
Mof_C 	C 	0.977	0.395	0.966	-0.117
Mof_N 	N 	0.953	0.324	0.852	-0.102
Mof_N 	N 	0.969	0.299	0.945	-0.053
Mof_N 	N 	0.989	0.4	0.809	-0.151
Mof_N 	N 	0.924	0.406	0.876	-0.175
Mof_H 	H 	0.97883	0.45904	0.83005	0.03
Mof_H 	H 	0.04095	0.48568	0.81056	0.036
Mof_H 	H 	0.08817	0.43761	0.78113	0.026
Mof_H 	H 	0.07523	0.36733	0.7895	0.041
Mof_H 	H 	0.01631	0.34193	0.80899	0.024
Mof_H 	H 	0.86994	0.41937	0.87184	0.005
Mof_H 	H 	0.87951	0.4645	0.92562	0.047
Mof_H 	H 	0.92294	0.44552	0.97731	0.036
Mof_H 	H 	0.97932	0.38093	0.89309	0.034
Mof_H 	H 	0.98326	0.36321	0.96722	0.064
Mof_H 	H 	0.99083	0.41508	0.98738	0.056
Mof_C 	C 	0.468	0.8	0.361	-0.17
Mof_C 	C 	0.477	0.782	0.422	-0.18
Mof_C 	C 	0.501	0.94	0.316	0.025
Mof_C 	C 	0.535	0.954	0.307	-0.059
Mof_C 	C 	0.56	0.928	0.294	-0.001
Mof_C 	C 	0.552	0.889	0.296	-0.059
Mof_C 	C 	0.519	0.874	0.305	0.031
Mof_C 	C 	0.398	0.921	0.388	0.098
Mof_C 	C 	0.4	0.94	0.42	-0.076
Mof_C 	C 	0.426	0.932	0.448	-0.037
Mof_C 	C 	0.453	0.909	0.439	0.045
Mof_C 	C 	0.454	0.898	0.404	-0.014
Mof_C 	C 	0.477	0.895	0.466	-0.118
Mof_N 	N 	0.453	0.824	0.352	-0.099
Mof_N 	N 	0.469	0.799	0.445	-0.052
Mof_N 	N 	0.489	0.9	0.309	-0.161
Mof_N 	N 	0.424	0.906	0.376	-0.175
Mof_H 	H 	0.47883	0.95904	0.33005	0.024
Mof_H 	H 	0.54095	0.98568	0.31056	0.043
Mof_H 	H 	0.58817	0.93761	0.28113	0.026
Mof_H 	H 	0.57523	0.86733	0.2895	0.043
Mof_H 	H 	0.51631	0.84193	0.30899	0.025
Mof_H 	H 	0.36994	0.91937	0.37184	0.005
Mof_H 	H 	0.37951	0.9645	0.42562	0.048
Mof_H 	H 	0.42294	0.94552	0.47731	0.035
Mof_H 	H 	0.47932	0.88093	0.39309	0.032
Mof_H 	H 	0.48326	0.86321	0.46722	0.06
Mof_H 	H 	0.49083	0.91508	0.48738	0.051
Mof_C 	C 	0.782	0.111	0.05	-0.166
Mof_C 	C 	0.773	0.172	0.032	-0.178
Mof_C 	C 	0.749	0.066	0.19	0.024
Mof_C 	C 	0.715	0.057	0.204	-0.061
Mof_C 	C 	0.69	0.044	0.178	-0.002
Mof_C 	C 	0.698	0.046	0.139	-0.059
Mof_C 	C 	0.731	0.055	0.124	0.03
Mof_C 	C 	0.852	0.138	0.171	0.097
Mof_C 	C 	0.85	0.17	0.19	-0.077
Mof_C 	C 	0.824	0.198	0.182	-0.038
Mof_C 	C 	0.797	0.189	0.159	0.045
Mof_C 	C 	0.796	0.154	0.148	-0.015
Mof_C 	C 	0.773	0.216	0.145	-0.119
Mof_N 	N 	0.797	0.102	0.074	-0.101
Mof_N 	N 	0.781	0.195	0.049	-0.054
Mof_N 	N 	0.761	0.059	0.15	-0.162
Mof_N 	N 	0.826	0.126	0.156	-0.175
Mof_H 	H 	0.77117	0.08005	0.20904	0.021
Mof_H 	H 	0.70905	0.06056	0.23568	0.039
Mof_H 	H 	0.66183	0.03113	0.18761	0.023
Mof_H 	H 	0.67477	0.0395	0.11733	0.042
Mof_H 	H 	0.73369	0.05899	0.09193	0.024
Mof_H 	H 	0.88006	0.12184	0.16937	0.005
Mof_H 	H 	0.87049	0.17562	0.2145	0.046
Mof_H 	H 	0.82706	0.22731	0.19552	0.033
Mof_H 	H 	0.77068	0.14309	0.13093	0.032
Mof_H 	H 	0.76674	0.21722	0.11321	0.06
Mof_H 	H 	0.75917	0.23738	0.16508	0.05
Mof_C 	C 	0.282	0.611	0.55	-0.17
Mof_C 	C 	0.273	0.672	0.532	-0.18
Mof_C 	C 	0.249	0.566	0.69	0.025
Mof_C 	C 	0.215	0.557	0.704	-0.06
Mof_C 	C 	0.19	0.544	0.678	-0.001
Mof_C 	C 	0.198	0.546	0.639	-0.059
Mof_C 	C 	0.231	0.555	0.624	0.031
Mof_C 	C 	0.352	0.638	0.671	0.098
Mof_C 	C 	0.35	0.67	0.69	-0.077
Mof_C 	C 	0.324	0.698	0.682	-0.038
Mof_C 	C 	0.297	0.689	0.659	0.045
Mof_C 	C 	0.296	0.654	0.648	-0.015
Mof_C 	C 	0.273	0.716	0.645	-0.118
Mof_N 	N 	0.297	0.602	0.574	-0.099
Mof_N 	N 	0.281	0.695	0.549	-0.052
Mof_N 	N 	0.261	0.559	0.65	-0.162
Mof_N 	N 	0.326	0.626	0.656	-0.175
Mof_H 	H 	0.27117	0.58005	0.70904	0.021
Mof_H 	H 	0.20905	0.56056	0.73568	0.04
Mof_H 	H 	0.16183	0.53113	0.68761	0.025
Mof_H 	H 	0.17477	0.5395	0.61733	0.043
Mof_H 	H 	0.23369	0.55899	0.59193	0.025
Mof_H 	H 	0.38006	0.62184	0.66937	0.005
Mof_H 	H 	0.37049	0.67562	0.7145	0.046
Mof_H 	H 	0.32706	0.72731	0.69552	0.033
Mof_H 	H 	0.27068	0.64309	0.63093	0.032
Mof_H 	H 	0.26674	0.71722	0.61321	0.06
Mof_H 	H 	0.25917	0.73738	0.66508	0.05
Mof_C 	C 	0.718	0.889	0.55	-0.17
Mof_C 	C 	0.727	0.828	0.532	-0.18
Mof_C 	C 	0.751	0.934	0.69	0.026
Mof_C 	C 	0.785	0.943	0.704	-0.06
Mof_C 	C 	0.81	0.956	0.678	-0
Mof_C 	C 	0.802	0.954	0.639	-0.058
Mof_C 	C 	0.769	0.945	0.624	0.032
Mof_C 	C 	0.648	0.862	0.671	0.098
Mof_C 	C 	0.65	0.83	0.69	-0.077
Mof_C 	C 	0.676	0.802	0.682	-0.038
Mof_C 	C 	0.703	0.811	0.659	0.045
Mof_C 	C 	0.704	0.846	0.648	-0.015
Mof_C 	C 	0.727	0.784	0.645	-0.119
Mof_N 	N 	0.703	0.898	0.574	-0.099
Mof_N 	N 	0.719	0.805	0.549	-0.052
Mof_N 	N 	0.739	0.941	0.65	-0.161
Mof_N 	N 	0.674	0.874	0.656	-0.175
Mof_H 	H 	0.72883	0.91995	0.70904	0.022
Mof_H 	H 	0.79095	0.93944	0.73568	0.042
Mof_H 	H 	0.83817	0.96887	0.68761	0.027
Mof_H 	H 	0.82523	0.9605	0.61733	0.044
Mof_H 	H 	0.76631	0.94101	0.59193	0.026
Mof_H 	H 	0.61994	0.87816	0.66937	0.005
Mof_H 	H 	0.62951	0.82438	0.7145	0.046
Mof_H 	H 	0.67294	0.77269	0.69552	0.033
Mof_H 	H 	0.72932	0.85691	0.63093	0.032
Mof_H 	H 	0.73326	0.78278	0.61321	0.06
Mof_H 	H 	0.74083	0.76262	0.66508	0.05
Mof_C 	C 	0.218	0.389	0.05	-0.166
Mof_C 	C 	0.227	0.328	0.032	-0.178
Mof_C 	C 	0.251	0.434	0.19	0.025
Mof_C 	C 	0.285	0.443	0.204	-0.06
Mof_C 	C 	0.31	0.456	0.178	-0.001
Mof_C 	C 	0.302	0.454	0.139	-0.059
Mof_C 	C 	0.269	0.445	0.124	0.031
Mof_C 	C 	0.148	0.362	0.171	0.098
Mof_C 	C 	0.15	0.33	0.19	-0.077
Mof_C 	C 	0.176	0.302	0.182	-0.038
Mof_C 	C 	0.203	0.311	0.159	0.045
Mof_C 	C 	0.204	0.346	0.148	-0.015
Mof_C 	C 	0.227	0.284	0.145	-0.119
Mof_N 	N 	0.203	0.398	0.074	-0.101
Mof_N 	N 	0.219	0.305	0.049	-0.054
Mof_N 	N 	0.239	0.441	0.15	-0.162
Mof_N 	N 	0.174	0.374	0.156	-0.175
Mof_H 	H 	0.22883	0.41995	0.20904	0.021
Mof_H 	H 	0.29095	0.43944	0.23568	0.04
Mof_H 	H 	0.33817	0.46887	0.18761	0.025
Mof_H 	H 	0.32523	0.4605	0.11733	0.043
Mof_H 	H 	0.26631	0.44101	0.09193	0.025
Mof_H 	H 	0.11994	0.37816	0.16937	0.005
Mof_H 	H 	0.12951	0.32438	0.2145	0.046
Mof_H 	H 	0.17294	0.27269	0.19552	0.032
Mof_H 	H 	0.22932	0.35691	0.13093	0.032
Mof_H 	H 	0.23326	0.28278	0.11321	0.059
Mof_H 	H 	0.24083	0.26262	0.16508	0.05
Mof_C 	C 	0.282	0.389	0.95	-0.16
Mof_C 	C 	0.273	0.328	0.968	-0.168
Mof_C 	C 	0.249	0.434	0.81	0.025
Mof_C 	C 	0.215	0.443	0.796	-0.06
Mof_C 	C 	0.19	0.456	0.822	-0.001
Mof_C 	C 	0.198	0.454	0.861	-0.059
Mof_C 	C 	0.231	0.445	0.876	0.031
Mof_C 	C 	0.352	0.362	0.829	0.098
Mof_C 	C 	0.35	0.33	0.81	-0.077
Mof_C 	C 	0.324	0.302	0.818	-0.038
Mof_C 	C 	0.297	0.311	0.841	0.045
Mof_C 	C 	0.296	0.346	0.852	-0.014
Mof_C 	C 	0.273	0.284	0.855	-0.118
Mof_N 	N 	0.297	0.398	0.926	-0.102
Mof_N 	N 	0.281	0.305	0.951	-0.055
Mof_N 	N 	0.261	0.441	0.85	-0.162
Mof_N 	N 	0.326	0.374	0.844	-0.175
Mof_H 	H 	0.27117	0.41995	0.79096	0.021
Mof_H 	H 	0.20905	0.43944	0.76432	0.04
Mof_H 	H 	0.16183	0.46887	0.81239	0.025
Mof_H 	H 	0.17477	0.4605	0.88267	0.043
Mof_H 	H 	0.23369	0.44101	0.90807	0.025
Mof_H 	H 	0.38006	0.37816	0.83063	0.005
Mof_H 	H 	0.37049	0.32438	0.7855	0.046
Mof_H 	H 	0.32706	0.27269	0.80448	0.033
Mof_H 	H 	0.27068	0.35691	0.86907	0.032
Mof_H 	H 	0.26674	0.28278	0.88679	0.06
Mof_H 	H 	0.25917	0.26262	0.83492	0.05
Mof_C 	C 	0.782	0.889	0.45	-0.17
Mof_C 	C 	0.773	0.828	0.468	-0.18
Mof_C 	C 	0.749	0.934	0.31	0.026
Mof_C 	C 	0.715	0.943	0.296	-0.06
Mof_C 	C 	0.69	0.956	0.322	-0
Mof_C 	C 	0.698	0.954	0.361	-0.058
Mof_C 	C 	0.731	0.945	0.376	0.032
Mof_C 	C 	0.852	0.862	0.329	0.098
Mof_C 	C 	0.85	0.83	0.31	-0.077
Mof_C 	C 	0.824	0.802	0.318	-0.038
Mof_C 	C 	0.797	0.811	0.341	0.045
Mof_C 	C 	0.796	0.846	0.352	-0.015
Mof_C 	C 	0.773	0.784	0.355	-0.118
Mof_N 	N 	0.797	0.898	0.426	-0.099
Mof_N 	N 	0.781	0.805	0.451	-0.052
Mof_N 	N 	0.761	0.941	0.35	-0.161
Mof_N 	N 	0.826	0.874	0.344	-0.175
Mof_H 	H 	0.77117	0.91995	0.29096	0.021
Mof_H 	H 	0.70905	0.93944	0.26432	0.041
Mof_H 	H 	0.66183	0.96887	0.31239	0.027
Mof_H 	H 	0.67477	0.9605	0.38267	0.044
Mof_H 	H 	0.73369	0.94101	0.40807	0.026
Mof_H 	H 	0.88006	0.87816	0.33063	0.005
Mof_H 	H 	0.87049	0.82438	0.2855	0.046
Mof_H 	H 	0.82706	0.77269	0.30448	0.033
Mof_H 	H 	0.77068	0.85691	0.36907	0.032
Mof_H 	H 	0.76674	0.78278	0.38679	0.06
Mof_H 	H 	0.75917	0.76262	0.33492	0.05
Mof_C 	C 	0.218	0.611	0.45	-0.17
Mof_C 	C 	0.227	0.672	0.468	-0.18
Mof_C 	C 	0.251	0.566	0.31	0.025
Mof_C 	C 	0.285	0.557	0.296	-0.06
Mof_C 	C 	0.31	0.544	0.322	-0.001
Mof_C 	C 	0.302	0.546	0.361	-0.059
Mof_C 	C 	0.269	0.555	0.376	0.031
Mof_C 	C 	0.148	0.638	0.329	0.098
Mof_C 	C 	0.15	0.67	0.31	-0.077
Mof_C 	C 	0.176	0.698	0.318	-0.038
Mof_C 	C 	0.203	0.689	0.341	0.045
Mof_C 	C 	0.204	0.654	0.352	-0.015
Mof_C 	C 	0.227	0.716	0.355	-0.119
Mof_N 	N 	0.203	0.602	0.426	-0.099
Mof_N 	N 	0.219	0.695	0.451	-0.052
Mof_N 	N 	0.239	0.559	0.35	-0.162
Mof_N 	N 	0.174	0.626	0.344	-0.175
Mof_H 	H 	0.22883	0.58005	0.29096	0.021
Mof_H 	H 	0.29095	0.56056	0.26432	0.04
Mof_H 	H 	0.33817	0.53113	0.31239	0.025
Mof_H 	H 	0.32523	0.5395	0.38267	0.043
Mof_H 	H 	0.26631	0.55899	0.40807	0.025
Mof_H 	H 	0.11994	0.62184	0.33063	0.005
Mof_H 	H 	0.12951	0.67562	0.2855	0.046
Mof_H 	H 	0.17294	0.72731	0.30448	0.033
Mof_H 	H 	0.22932	0.64309	0.36907	0.032
Mof_H 	H 	0.23326	0.71722	0.38679	0.06
Mof_H 	H 	0.24083	0.73738	0.33492	0.05
Mof_C 	C 	0.718	0.111	0.95	-0.16
Mof_C 	C 	0.727	0.172	0.968	-0.168
Mof_C 	C 	0.751	0.066	0.81	0.024
Mof_C 	C 	0.785	0.057	0.796	-0.061
Mof_C 	C 	0.81	0.044	0.822	-0.002
Mof_C 	C 	0.802	0.046	0.861	-0.059
Mof_C 	C 	0.769	0.055	0.876	0.03
Mof_C 	C 	0.648	0.138	0.829	0.098
Mof_C 	C 	0.65	0.17	0.81	-0.077
Mof_C 	C 	0.676	0.198	0.818	-0.038
Mof_C 	C 	0.703	0.189	0.841	0.045
Mof_C 	C 	0.704	0.154	0.852	-0.014
Mof_C 	C 	0.727	0.216	0.855	-0.118
Mof_N 	N 	0.703	0.102	0.926	-0.102
Mof_N 	N 	0.719	0.195	0.951	-0.055
Mof_N 	N 	0.739	0.059	0.85	-0.162
Mof_N 	N 	0.674	0.126	0.844	-0.175
Mof_H 	H 	0.72883	0.08005	0.79096	0.021
Mof_H 	H 	0.79095	0.06056	0.76432	0.039
Mof_H 	H 	0.83817	0.03113	0.81239	0.024
Mof_H 	H 	0.82523	0.0395	0.88267	0.043
Mof_H 	H 	0.76631	0.05899	0.90807	0.024
Mof_H 	H 	0.61994	0.12184	0.83063	0.005
Mof_H 	H 	0.62951	0.17562	0.7855	0.046
Mof_H 	H 	0.67294	0.22731	0.80448	0.033
Mof_H 	H 	0.72932	0.14309	0.86907	0.032
Mof_H 	H 	0.73326	0.21722	0.88679	0.06
Mof_H 	H 	0.74083	0.23738	0.83492	0.05
Mof_C 	C 	0.611	0.45	0.218	-0.17
Mof_C 	C 	0.672	0.468	0.227	-0.18
Mof_C 	C 	0.566	0.31	0.251	0.025
Mof_C 	C 	0.557	0.296	0.285	-0.06
Mof_C 	C 	0.544	0.322	0.31	-0.001
Mof_C 	C 	0.546	0.361	0.302	-0.059
Mof_C 	C 	0.555	0.376	0.269	0.031
Mof_C 	C 	0.638	0.329	0.148	0.098
Mof_C 	C 	0.67	0.31	0.15	-0.077
Mof_C 	C 	0.698	0.318	0.176	-0.038
Mof_C 	C 	0.689	0.341	0.203	0.045
Mof_C 	C 	0.654	0.352	0.204	-0.015
Mof_C 	C 	0.716	0.355	0.227	-0.119
Mof_N 	N 	0.602	0.426	0.203	-0.099
Mof_N 	N 	0.695	0.451	0.219	-0.052
Mof_N 	N 	0.559	0.35	0.239	-0.162
Mof_N 	N 	0.626	0.344	0.174	-0.175
Mof_H 	H 	0.58005	0.29096	0.22883	0.021
Mof_H 	H 	0.56056	0.26432	0.29095	0.04
Mof_H 	H 	0.53113	0.31239	0.33817	0.025
Mof_H 	H 	0.5395	0.38267	0.32523	0.043
Mof_H 	H 	0.55899	0.40807	0.26631	0.025
Mof_H 	H 	0.62184	0.33063	0.11994	0.005
Mof_H 	H 	0.67562	0.2855	0.12951	0.046
Mof_H 	H 	0.72731	0.30448	0.17294	0.033
Mof_H 	H 	0.64309	0.36907	0.22932	0.032
Mof_H 	H 	0.71722	0.38679	0.23326	0.06
Mof_H 	H 	0.73738	0.33492	0.24083	0.05
Mof_C 	C 	0.111	0.95	0.718	-0.16
Mof_C 	C 	0.172	0.968	0.727	-0.168
Mof_C 	C 	0.066	0.81	0.751	0.024
Mof_C 	C 	0.057	0.796	0.785	-0.061
Mof_C 	C 	0.044	0.822	0.81	-0.002
Mof_C 	C 	0.046	0.861	0.802	-0.059
Mof_C 	C 	0.055	0.876	0.769	0.03
Mof_C 	C 	0.138	0.829	0.648	0.098
Mof_C 	C 	0.17	0.81	0.65	-0.077
Mof_C 	C 	0.198	0.818	0.676	-0.038
Mof_C 	C 	0.189	0.841	0.703	0.045
Mof_C 	C 	0.154	0.852	0.704	-0.014
Mof_C 	C 	0.216	0.855	0.727	-0.118
Mof_N 	N 	0.102	0.926	0.703	-0.102
Mof_N 	N 	0.195	0.951	0.719	-0.055
Mof_N 	N 	0.059	0.85	0.739	-0.162
Mof_N 	N 	0.126	0.844	0.674	-0.175
Mof_H 	H 	0.08005	0.79096	0.72883	0.021
Mof_H 	H 	0.06056	0.76432	0.79095	0.039
Mof_H 	H 	0.03113	0.81239	0.83817	0.024
Mof_H 	H 	0.0395	0.88267	0.82523	0.043
Mof_H 	H 	0.05899	0.90807	0.76631	0.024
Mof_H 	H 	0.12184	0.83063	0.61994	0.005
Mof_H 	H 	0.17562	0.7855	0.62951	0.046
Mof_H 	H 	0.22731	0.80448	0.67294	0.033
Mof_H 	H 	0.14309	0.86907	0.72932	0.032
Mof_H 	H 	0.21722	0.88679	0.73326	0.06
Mof_H 	H 	0.23738	0.83492	0.74083	0.05
Mof_C 	C 	0.389	0.95	0.282	-0.16
Mof_C 	C 	0.328	0.968	0.273	-0.168
Mof_C 	C 	0.434	0.81	0.249	0.025
Mof_C 	C 	0.443	0.796	0.215	-0.06
Mof_C 	C 	0.456	0.822	0.19	-0.001
Mof_C 	C 	0.454	0.861	0.198	-0.059
Mof_C 	C 	0.445	0.876	0.231	0.031
Mof_C 	C 	0.362	0.829	0.352	0.098
Mof_C 	C 	0.33	0.81	0.35	-0.077
Mof_C 	C 	0.302	0.818	0.324	-0.038
Mof_C 	C 	0.311	0.841	0.297	0.045
Mof_C 	C 	0.346	0.852	0.296	-0.014
Mof_C 	C 	0.284	0.855	0.273	-0.118
Mof_N 	N 	0.398	0.926	0.297	-0.102
Mof_N 	N 	0.305	0.951	0.281	-0.055
Mof_N 	N 	0.441	0.85	0.261	-0.162
Mof_N 	N 	0.374	0.844	0.326	-0.175
Mof_H 	H 	0.41995	0.79096	0.27117	0.021
Mof_H 	H 	0.43944	0.76432	0.20905	0.04
Mof_H 	H 	0.46887	0.81239	0.16183	0.025
Mof_H 	H 	0.4605	0.88267	0.17477	0.043
Mof_H 	H 	0.44101	0.90807	0.23369	0.025
Mof_H 	H 	0.37816	0.83063	0.38006	0.005
Mof_H 	H 	0.32438	0.7855	0.37049	0.046
Mof_H 	H 	0.27269	0.80448	0.32706	0.033
Mof_H 	H 	0.35691	0.86907	0.27068	0.032
Mof_H 	H 	0.28278	0.88679	0.26674	0.06
Mof_H 	H 	0.26262	0.83492	0.25917	0.05
Mof_C 	C 	0.889	0.45	0.782	-0.17
Mof_C 	C 	0.828	0.468	0.773	-0.18
Mof_C 	C 	0.934	0.31	0.749	0.026
Mof_C 	C 	0.943	0.296	0.715	-0.06
Mof_C 	C 	0.956	0.322	0.69	-0
Mof_C 	C 	0.954	0.361	0.698	-0.058
Mof_C 	C 	0.945	0.376	0.731	0.032
Mof_C 	C 	0.862	0.329	0.852	0.098
Mof_C 	C 	0.83	0.31	0.85	-0.077
Mof_C 	C 	0.802	0.318	0.824	-0.038
Mof_C 	C 	0.811	0.341	0.797	0.045
Mof_C 	C 	0.846	0.352	0.796	-0.015
Mof_C 	C 	0.784	0.355	0.773	-0.118
Mof_N 	N 	0.898	0.426	0.797	-0.099
Mof_N 	N 	0.805	0.451	0.781	-0.052
Mof_N 	N 	0.941	0.35	0.761	-0.161
Mof_N 	N 	0.874	0.344	0.826	-0.175
Mof_H 	H 	0.91995	0.29096	0.77117	0.021
Mof_H 	H 	0.93944	0.26432	0.70905	0.041
Mof_H 	H 	0.96887	0.31239	0.66183	0.027
Mof_H 	H 	0.9605	0.38267	0.67477	0.044
Mof_H 	H 	0.94101	0.40807	0.73369	0.026
Mof_H 	H 	0.87816	0.33063	0.88006	0.005
Mof_H 	H 	0.82438	0.2855	0.87049	0.046
Mof_H 	H 	0.77269	0.30448	0.82706	0.033
Mof_H 	H 	0.85691	0.36907	0.77068	0.032
Mof_H 	H 	0.78278	0.38679	0.76674	0.06
Mof_H 	H 	0.76262	0.33492	0.75917	0.05
Mof_C 	C 	0.889	0.55	0.718	-0.17
Mof_C 	C 	0.828	0.532	0.727	-0.18
Mof_C 	C 	0.934	0.69	0.751	0.026
Mof_C 	C 	0.943	0.704	0.785	-0.06
Mof_C 	C 	0.956	0.678	0.81	-0
Mof_C 	C 	0.954	0.639	0.802	-0.058
Mof_C 	C 	0.945	0.624	0.769	0.032
Mof_C 	C 	0.862	0.671	0.648	0.098
Mof_C 	C 	0.83	0.69	0.65	-0.077
Mof_C 	C 	0.802	0.682	0.676	-0.038
Mof_C 	C 	0.811	0.659	0.703	0.045
Mof_C 	C 	0.846	0.648	0.704	-0.015
Mof_C 	C 	0.784	0.645	0.727	-0.119
Mof_N 	N 	0.898	0.574	0.703	-0.099
Mof_N 	N 	0.805	0.549	0.719	-0.052
Mof_N 	N 	0.941	0.65	0.739	-0.161
Mof_N 	N 	0.874	0.656	0.674	-0.175
Mof_H 	H 	0.91995	0.70904	0.72883	0.022
Mof_H 	H 	0.93944	0.73568	0.79095	0.042
Mof_H 	H 	0.96887	0.68761	0.83817	0.027
Mof_H 	H 	0.9605	0.61733	0.82523	0.044
Mof_H 	H 	0.94101	0.59193	0.76631	0.026
Mof_H 	H 	0.87816	0.66937	0.61994	0.005
Mof_H 	H 	0.82438	0.7145	0.62951	0.046
Mof_H 	H 	0.77269	0.69552	0.67294	0.033
Mof_H 	H 	0.85691	0.63093	0.72932	0.032
Mof_H 	H 	0.78278	0.61321	0.73326	0.06
Mof_H 	H 	0.76262	0.66508	0.74083	0.05
Mof_C 	C 	0.389	0.05	0.218	-0.166
Mof_C 	C 	0.328	0.032	0.227	-0.178
Mof_C 	C 	0.434	0.19	0.251	0.025
Mof_C 	C 	0.443	0.204	0.285	-0.06
Mof_C 	C 	0.456	0.178	0.31	-0.001
Mof_C 	C 	0.454	0.139	0.302	-0.059
Mof_C 	C 	0.445	0.124	0.269	0.031
Mof_C 	C 	0.362	0.171	0.148	0.098
Mof_C 	C 	0.33	0.19	0.15	-0.077
Mof_C 	C 	0.302	0.182	0.176	-0.038
Mof_C 	C 	0.311	0.159	0.203	0.045
Mof_C 	C 	0.346	0.148	0.204	-0.015
Mof_C 	C 	0.284	0.145	0.227	-0.119
Mof_N 	N 	0.398	0.074	0.203	-0.101
Mof_N 	N 	0.305	0.049	0.219	-0.054
Mof_N 	N 	0.441	0.15	0.239	-0.162
Mof_N 	N 	0.374	0.156	0.174	-0.175
Mof_H 	H 	0.41995	0.20904	0.22883	0.021
Mof_H 	H 	0.43944	0.23568	0.29095	0.04
Mof_H 	H 	0.46887	0.18761	0.33817	0.025
Mof_H 	H 	0.4605	0.11733	0.32523	0.043
Mof_H 	H 	0.44101	0.09193	0.26631	0.025
Mof_H 	H 	0.37816	0.16937	0.11994	0.005
Mof_H 	H 	0.32438	0.2145	0.12951	0.046
Mof_H 	H 	0.27269	0.19552	0.17294	0.032
Mof_H 	H 	0.35691	0.13093	0.22932	0.032
Mof_H 	H 	0.28278	0.11321	0.23326	0.059
Mof_H 	H 	0.26262	0.16508	0.24083	0.05
Mof_C 	C 	0.111	0.05	0.782	-0.166
Mof_C 	C 	0.172	0.032	0.773	-0.178
Mof_C 	C 	0.066	0.19	0.749	0.024
Mof_C 	C 	0.057	0.204	0.715	-0.061
Mof_C 	C 	0.044	0.178	0.69	-0.002
Mof_C 	C 	0.046	0.139	0.698	-0.059
Mof_C 	C 	0.055	0.124	0.731	0.03
Mof_C 	C 	0.138	0.171	0.852	0.097
Mof_C 	C 	0.17	0.19	0.85	-0.077
Mof_C 	C 	0.198	0.182	0.824	-0.038
Mof_C 	C 	0.189	0.159	0.797	0.045
Mof_C 	C 	0.154	0.148	0.796	-0.015
Mof_C 	C 	0.216	0.145	0.773	-0.119
Mof_N 	N 	0.102	0.074	0.797	-0.101
Mof_N 	N 	0.195	0.049	0.781	-0.054
Mof_N 	N 	0.059	0.15	0.761	-0.162
Mof_N 	N 	0.126	0.156	0.826	-0.175
Mof_H 	H 	0.08005	0.20904	0.77117	0.021
Mof_H 	H 	0.06056	0.23568	0.70905	0.039
Mof_H 	H 	0.03113	0.18761	0.66183	0.023
Mof_H 	H 	0.0395	0.11733	0.67477	0.042
Mof_H 	H 	0.05899	0.09193	0.73369	0.024
Mof_H 	H 	0.12184	0.16937	0.88006	0.005
Mof_H 	H 	0.17562	0.2145	0.87049	0.046
Mof_H 	H 	0.22731	0.19552	0.82706	0.033
Mof_H 	H 	0.14309	0.13093	0.77068	0.032
Mof_H 	H 	0.21722	0.11321	0.76674	0.06
Mof_H 	H 	0.23738	0.16508	0.75917	0.05
Mof_C 	C 	0.611	0.55	0.282	-0.17
Mof_C 	C 	0.672	0.532	0.273	-0.18
Mof_C 	C 	0.566	0.69	0.249	0.025
Mof_C 	C 	0.557	0.704	0.215	-0.06
Mof_C 	C 	0.544	0.678	0.19	-0.001
Mof_C 	C 	0.546	0.639	0.198	-0.059
Mof_C 	C 	0.555	0.624	0.231	0.031
Mof_C 	C 	0.638	0.671	0.352	0.098
Mof_C 	C 	0.67	0.69	0.35	-0.077
Mof_C 	C 	0.698	0.682	0.324	-0.038
Mof_C 	C 	0.689	0.659	0.297	0.045
Mof_C 	C 	0.654	0.648	0.296	-0.015
Mof_C 	C 	0.716	0.645	0.273	-0.118
Mof_N 	N 	0.602	0.574	0.297	-0.099
Mof_N 	N 	0.695	0.549	0.281	-0.052
Mof_N 	N 	0.559	0.65	0.261	-0.162
Mof_N 	N 	0.626	0.656	0.326	-0.175
Mof_H 	H 	0.58005	0.70904	0.27117	0.021
Mof_H 	H 	0.56056	0.73568	0.20905	0.04
Mof_H 	H 	0.53113	0.68761	0.16183	0.025
Mof_H 	H 	0.5395	0.61733	0.17477	0.043
Mof_H 	H 	0.55899	0.59193	0.23369	0.025
Mof_H 	H 	0.62184	0.66937	0.38006	0.005
Mof_H 	H 	0.67562	0.7145	0.37049	0.046
Mof_H 	H 	0.72731	0.69552	0.32706	0.033
Mof_H 	H 	0.64309	0.63093	0.27068	0.032
Mof_H 	H 	0.71722	0.61321	0.26674	0.06
Mof_H 	H 	0.73738	0.66508	0.25917	0.05
Mof_C 	C 	0.95	0.282	0.389	-0.16
Mof_C 	C 	0.968	0.273	0.328	-0.168
Mof_C 	C 	0.81	0.249	0.434	0.025
Mof_C 	C 	0.796	0.215	0.443	-0.06
Mof_C 	C 	0.822	0.19	0.456	-0.001
Mof_C 	C 	0.861	0.198	0.454	-0.059
Mof_C 	C 	0.876	0.231	0.445	0.031
Mof_C 	C 	0.829	0.352	0.362	0.098
Mof_C 	C 	0.81	0.35	0.33	-0.077
Mof_C 	C 	0.818	0.324	0.302	-0.038
Mof_C 	C 	0.841	0.297	0.311	0.045
Mof_C 	C 	0.852	0.296	0.346	-0.014
Mof_C 	C 	0.855	0.273	0.284	-0.118
Mof_N 	N 	0.926	0.297	0.398	-0.102
Mof_N 	N 	0.951	0.281	0.305	-0.055
Mof_N 	N 	0.85	0.261	0.441	-0.162
Mof_N 	N 	0.844	0.326	0.374	-0.175
Mof_H 	H 	0.79096	0.27117	0.41995	0.021
Mof_H 	H 	0.76432	0.20905	0.43944	0.04
Mof_H 	H 	0.81239	0.16183	0.46887	0.025
Mof_H 	H 	0.88267	0.17477	0.4605	0.043
Mof_H 	H 	0.90807	0.23369	0.44101	0.025
Mof_H 	H 	0.83063	0.38006	0.37816	0.005
Mof_H 	H 	0.7855	0.37049	0.32438	0.046
Mof_H 	H 	0.80448	0.32706	0.27269	0.033
Mof_H 	H 	0.86907	0.27068	0.35691	0.032
Mof_H 	H 	0.88679	0.26674	0.28278	0.06
Mof_H 	H 	0.83492	0.25917	0.26262	0.05
Mof_C 	C 	0.45	0.782	0.889	-0.17
Mof_C 	C 	0.468	0.773	0.828	-0.18
Mof_C 	C 	0.31	0.749	0.934	0.026
Mof_C 	C 	0.296	0.715	0.943	-0.06
Mof_C 	C 	0.322	0.69	0.956	-0
Mof_C 	C 	0.361	0.698	0.954	-0.058
Mof_C 	C 	0.376	0.731	0.945	0.032
Mof_C 	C 	0.329	0.852	0.862	0.098
Mof_C 	C 	0.31	0.85	0.83	-0.077
Mof_C 	C 	0.318	0.824	0.802	-0.038
Mof_C 	C 	0.341	0.797	0.811	0.045
Mof_C 	C 	0.352	0.796	0.846	-0.015
Mof_C 	C 	0.355	0.773	0.784	-0.118
Mof_N 	N 	0.426	0.797	0.898	-0.099
Mof_N 	N 	0.451	0.781	0.805	-0.052
Mof_N 	N 	0.35	0.761	0.941	-0.161
Mof_N 	N 	0.344	0.826	0.874	-0.175
Mof_H 	H 	0.29096	0.77117	0.91995	0.021
Mof_H 	H 	0.26432	0.70905	0.93944	0.041
Mof_H 	H 	0.31239	0.66183	0.96887	0.027
Mof_H 	H 	0.38267	0.67477	0.9605	0.044
Mof_H 	H 	0.40807	0.73369	0.94101	0.026
Mof_H 	H 	0.33063	0.88006	0.87816	0.005
Mof_H 	H 	0.2855	0.87049	0.82438	0.046
Mof_H 	H 	0.30448	0.82706	0.77269	0.033
Mof_H 	H 	0.36907	0.77068	0.85691	0.032
Mof_H 	H 	0.38679	0.76674	0.78278	0.06
Mof_H 	H 	0.33492	0.75917	0.76262	0.05
Mof_C 	C 	0.45	0.218	0.611	-0.17
Mof_C 	C 	0.468	0.227	0.672	-0.18
Mof_C 	C 	0.31	0.251	0.566	0.025
Mof_C 	C 	0.296	0.285	0.557	-0.06
Mof_C 	C 	0.322	0.31	0.544	-0.001
Mof_C 	C 	0.361	0.302	0.546	-0.059
Mof_C 	C 	0.376	0.269	0.555	0.031
Mof_C 	C 	0.329	0.148	0.638	0.098
Mof_C 	C 	0.31	0.15	0.67	-0.077
Mof_C 	C 	0.318	0.176	0.698	-0.038
Mof_C 	C 	0.341	0.203	0.689	0.045
Mof_C 	C 	0.352	0.204	0.654	-0.015
Mof_C 	C 	0.355	0.227	0.716	-0.119
Mof_N 	N 	0.426	0.203	0.602	-0.099
Mof_N 	N 	0.451	0.219	0.695	-0.052
Mof_N 	N 	0.35	0.239	0.559	-0.162
Mof_N 	N 	0.344	0.174	0.626	-0.175
Mof_H 	H 	0.29096	0.22883	0.58005	0.021
Mof_H 	H 	0.26432	0.29095	0.56056	0.04
Mof_H 	H 	0.31239	0.33817	0.53113	0.025
Mof_H 	H 	0.38267	0.32523	0.5395	0.043
Mof_H 	H 	0.40807	0.26631	0.55899	0.025
Mof_H 	H 	0.33063	0.11994	0.62184	0.005
Mof_H 	H 	0.2855	0.12951	0.67562	0.046
Mof_H 	H 	0.30448	0.17294	0.72731	0.033
Mof_H 	H 	0.36907	0.22932	0.64309	0.032
Mof_H 	H 	0.38679	0.23326	0.71722	0.06
Mof_H 	H 	0.33492	0.24083	0.73738	0.05
Mof_C 	C 	0.95	0.718	0.111	-0.16
Mof_C 	C 	0.968	0.727	0.172	-0.168
Mof_C 	C 	0.81	0.751	0.066	0.024
Mof_C 	C 	0.796	0.785	0.057	-0.061
Mof_C 	C 	0.822	0.81	0.044	-0.002
Mof_C 	C 	0.861	0.802	0.046	-0.059
Mof_C 	C 	0.876	0.769	0.055	0.03
Mof_C 	C 	0.829	0.648	0.138	0.098
Mof_C 	C 	0.81	0.65	0.17	-0.077
Mof_C 	C 	0.818	0.676	0.198	-0.038
Mof_C 	C 	0.841	0.703	0.189	0.045
Mof_C 	C 	0.852	0.704	0.154	-0.014
Mof_C 	C 	0.855	0.727	0.216	-0.118
Mof_N 	N 	0.926	0.703	0.102	-0.102
Mof_N 	N 	0.951	0.719	0.195	-0.055
Mof_N 	N 	0.85	0.739	0.059	-0.162
Mof_N 	N 	0.844	0.674	0.126	-0.175
Mof_H 	H 	0.79096	0.72883	0.08005	0.021
Mof_H 	H 	0.76432	0.79095	0.06056	0.039
Mof_H 	H 	0.81239	0.83817	0.03113	0.024
Mof_H 	H 	0.88267	0.82523	0.0395	0.043
Mof_H 	H 	0.90807	0.76631	0.05899	0.024
Mof_H 	H 	0.83063	0.61994	0.12184	0.005
Mof_H 	H 	0.7855	0.62951	0.17562	0.046
Mof_H 	H 	0.80448	0.67294	0.22731	0.033
Mof_H 	H 	0.86907	0.72932	0.14309	0.032
Mof_H 	H 	0.88679	0.73326	0.21722	0.06
Mof_H 	H 	0.83492	0.74083	0.23738	0.05
Mof_C 	C 	0.05	0.782	0.111	-0.166
Mof_C 	C 	0.032	0.773	0.172	-0.178
Mof_C 	C 	0.19	0.749	0.066	0.024
Mof_C 	C 	0.204	0.715	0.057	-0.061
Mof_C 	C 	0.178	0.69	0.044	-0.002
Mof_C 	C 	0.139	0.698	0.046	-0.059
Mof_C 	C 	0.124	0.731	0.055	0.03
Mof_C 	C 	0.171	0.852	0.138	0.097
Mof_C 	C 	0.19	0.85	0.17	-0.077
Mof_C 	C 	0.182	0.824	0.198	-0.038
Mof_C 	C 	0.159	0.797	0.189	0.045
Mof_C 	C 	0.148	0.796	0.154	-0.015
Mof_C 	C 	0.145	0.773	0.216	-0.119
Mof_N 	N 	0.074	0.797	0.102	-0.101
Mof_N 	N 	0.049	0.781	0.195	-0.054
Mof_N 	N 	0.15	0.761	0.059	-0.162
Mof_N 	N 	0.156	0.826	0.126	-0.175
Mof_H 	H 	0.20904	0.77117	0.08005	0.021
Mof_H 	H 	0.23568	0.70905	0.06056	0.039
Mof_H 	H 	0.18761	0.66183	0.03113	0.023
Mof_H 	H 	0.11733	0.67477	0.0395	0.042
Mof_H 	H 	0.09193	0.73369	0.05899	0.024
Mof_H 	H 	0.16937	0.88006	0.12184	0.005
Mof_H 	H 	0.2145	0.87049	0.17562	0.046
Mof_H 	H 	0.19552	0.82706	0.22731	0.033
Mof_H 	H 	0.13093	0.77068	0.14309	0.032
Mof_H 	H 	0.11321	0.76674	0.21722	0.06
Mof_H 	H 	0.16508	0.75917	0.23738	0.05
Mof_C 	C 	0.55	0.282	0.611	-0.17
Mof_C 	C 	0.532	0.273	0.672	-0.18
Mof_C 	C 	0.69	0.249	0.566	0.025
Mof_C 	C 	0.704	0.215	0.557	-0.06
Mof_C 	C 	0.678	0.19	0.544	-0.001
Mof_C 	C 	0.639	0.198	0.546	-0.059
Mof_C 	C 	0.624	0.231	0.555	0.031
Mof_C 	C 	0.671	0.352	0.638	0.098
Mof_C 	C 	0.69	0.35	0.67	-0.077
Mof_C 	C 	0.682	0.324	0.698	-0.038
Mof_C 	C 	0.659	0.297	0.689	0.045
Mof_C 	C 	0.648	0.296	0.654	-0.015
Mof_C 	C 	0.645	0.273	0.716	-0.118
Mof_N 	N 	0.574	0.297	0.602	-0.099
Mof_N 	N 	0.549	0.281	0.695	-0.052
Mof_N 	N 	0.65	0.261	0.559	-0.162
Mof_N 	N 	0.656	0.326	0.626	-0.175
Mof_H 	H 	0.70904	0.27117	0.58005	0.021
Mof_H 	H 	0.73568	0.20905	0.56056	0.04
Mof_H 	H 	0.68761	0.16183	0.53113	0.025
Mof_H 	H 	0.61733	0.17477	0.5395	0.043
Mof_H 	H 	0.59193	0.23369	0.55899	0.025
Mof_H 	H 	0.66937	0.38006	0.62184	0.005
Mof_H 	H 	0.7145	0.37049	0.67562	0.046
Mof_H 	H 	0.69552	0.32706	0.72731	0.033
Mof_H 	H 	0.63093	0.27068	0.64309	0.032
Mof_H 	H 	0.61321	0.26674	0.71722	0.06
Mof_H 	H 	0.66508	0.25917	0.73738	0.05
Mof_C 	C 	0.55	0.718	0.889	-0.17
Mof_C 	C 	0.532	0.727	0.828	-0.18
Mof_C 	C 	0.69	0.751	0.934	0.026
Mof_C 	C 	0.704	0.785	0.943	-0.06
Mof_C 	C 	0.678	0.81	0.956	-0
Mof_C 	C 	0.639	0.802	0.954	-0.058
Mof_C 	C 	0.624	0.769	0.945	0.032
Mof_C 	C 	0.671	0.648	0.862	0.098
Mof_C 	C 	0.69	0.65	0.83	-0.077
Mof_C 	C 	0.682	0.676	0.802	-0.038
Mof_C 	C 	0.659	0.703	0.811	0.045
Mof_C 	C 	0.648	0.704	0.846	-0.015
Mof_C 	C 	0.645	0.727	0.784	-0.119
Mof_N 	N 	0.574	0.703	0.898	-0.099
Mof_N 	N 	0.549	0.719	0.805	-0.052
Mof_N 	N 	0.65	0.739	0.941	-0.161
Mof_N 	N 	0.656	0.674	0.874	-0.175
Mof_H 	H 	0.70904	0.72883	0.91995	0.022
Mof_H 	H 	0.73568	0.79095	0.93944	0.042
Mof_H 	H 	0.68761	0.83817	0.96887	0.027
Mof_H 	H 	0.61733	0.82523	0.9605	0.044
Mof_H 	H 	0.59193	0.76631	0.94101	0.026
Mof_H 	H 	0.66937	0.61994	0.87816	0.005
Mof_H 	H 	0.7145	0.62951	0.82438	0.046
Mof_H 	H 	0.69552	0.67294	0.77269	0.033
Mof_H 	H 	0.63093	0.72932	0.85691	0.032
Mof_H 	H 	0.61321	0.73326	0.78278	0.06
Mof_H 	H 	0.66508	0.74083	0.76262	0.05
Mof_C 	C 	0.05	0.218	0.389	-0.166
Mof_C 	C 	0.032	0.227	0.328	-0.178
Mof_C 	C 	0.19	0.251	0.434	0.025
Mof_C 	C 	0.204	0.285	0.443	-0.06
Mof_C 	C 	0.178	0.31	0.456	-0.001
Mof_C 	C 	0.139	0.302	0.454	-0.059
Mof_C 	C 	0.124	0.269	0.445	0.031
Mof_C 	C 	0.171	0.148	0.362	0.098
Mof_C 	C 	0.19	0.15	0.33	-0.077
Mof_C 	C 	0.182	0.176	0.302	-0.038
Mof_C 	C 	0.159	0.203	0.311	0.045
Mof_C 	C 	0.148	0.204	0.346	-0.015
Mof_C 	C 	0.145	0.227	0.284	-0.119
Mof_N 	N 	0.074	0.203	0.398	-0.101
Mof_N 	N 	0.049	0.219	0.305	-0.054
Mof_N 	N 	0.15	0.239	0.441	-0.162
Mof_N 	N 	0.156	0.174	0.374	-0.175
Mof_H 	H 	0.20904	0.22883	0.41995	0.021
Mof_H 	H 	0.23568	0.29095	0.43944	0.04
Mof_H 	H 	0.18761	0.33817	0.46887	0.025
Mof_H 	H 	0.11733	0.32523	0.4605	0.043
Mof_H 	H 	0.09193	0.26631	0.44101	0.025
Mof_H 	H 	0.16937	0.11994	0.37816	0.005
Mof_H 	H 	0.2145	0.12951	0.32438	0.046
Mof_H 	H 	0.19552	0.17294	0.27269	0.032
Mof_H 	H 	0.13093	0.22932	0.35691	0.032
Mof_H 	H 	0.11321	0.23326	0.28278	0.059
Mof_H 	H 	0.16508	0.24083	0.26262	0.05
Mof_Nb	Nb	0.625	0.5	0.25	1.318
Mof_Nb	Nb	0.875	0.5	0.75	1.318
Mof_Nb	Nb	0.375	0	0.25	1.279
Mof_Nb	Nb	0.125	0	0.75	1.279
Mof_Nb	Nb	0.25	0.625	0.5	1.318
Mof_Nb	Nb	0.75	0.875	0.5	1.318
Mof_Nb	Nb	0.25	0.375	-0	1.279
Mof_Nb	Nb	0.75	0.125	-0	1.279
Mof_Nb	Nb	0.5	0.25	0.625	1.318
Mof_Nb	Nb	0.5	0.75	0.875	1.318
Mof_Nb	Nb	-3.24128e-33	0.25	0.375	1.279
Mof_Nb	Nb	-6.93152e-34	0.75	0.125	1.279
Mof_Nb	Nb	0.25	0.875	-0	1.28
Mof_Nb	Nb	0.75	0.375	0.5	1.318
Mof_Nb	Nb	0.25	0.125	0.5	1.318
Mof_Nb	Nb	0.75	0.625	-0	1.279
Mof_Nb	Nb	0.375	0.5	0.75	1.318
Mof_Nb	Nb	0.625	0	0.75	1.279
Mof_Nb	Nb	0.125	0.5	0.25	1.318
Mof_Nb	Nb	0.875	0	0.25	1.28
Mof_Nb	Nb	-1.62458e-32	0.75	0.625	1.279
Mof_Nb	Nb	0.5	0.75	0.375	1.318
Mof_Nb	Nb	3.28072e-33	0.25	0.875	1.28
Mof_Nb	Nb	0.5	0.25	0.125	1.318
Mof_Fe	Fe	0.682	0.432	0.375	0.598
Mof_Fe	Fe	0.818	0.568	0.875	0.598
Mof_Fe	Fe	0.318	0.932	0.125	0.599
Mof_Fe	Fe	0.182	0.068	0.625	0.596
Mof_Fe	Fe	0.375	0.682	0.432	0.598
Mof_Fe	Fe	0.875	0.818	0.568	0.598
Mof_Fe	Fe	0.125	0.318	0.932	0.599
Mof_Fe	Fe	0.625	0.182	0.068	0.596
Mof_Fe	Fe	0.432	0.375	0.682	0.598
Mof_Fe	Fe	0.568	0.875	0.818	0.598
Mof_Fe	Fe	0.932	0.125	0.318	0.599
Mof_Fe	Fe	0.068	0.625	0.182	0.596
Mof_Fe	Fe	0.182	0.932	0.875	0.6
Mof_Fe	Fe	0.318	0.068	0.375	0.596
Mof_Fe	Fe	0.682	0.568	0.125	0.597
Mof_Fe	Fe	0.818	0.432	0.625	0.598
Mof_Fe	Fe	0.432	0.625	0.818	0.598
Mof_Fe	Fe	0.568	0.125	0.682	0.597
Mof_Fe	Fe	0.068	0.375	0.318	0.596
Mof_Fe	Fe	0.932	0.875	0.182	0.6
Mof_Fe	Fe	0.125	0.682	0.568	0.597
Mof_Fe	Fe	0.625	0.818	0.432	0.598
Mof_Fe	Fe	0.875	0.182	0.932	0.6
Mof_Fe	Fe	0.375	0.318	0.068	0.596
Mof_Fe	Fe	0.318	0.568	0.625	0.598
Mof_Fe	Fe	0.182	0.432	0.125	0.597
Mof_Fe	Fe	0.682	0.068	0.875	0.597
Mof_Fe	Fe	0.818	0.932	0.375	0.6
Mof_Fe	Fe	0.625	0.318	0.568	0.598
Mof_Fe	Fe	0.125	0.182	0.432	0.597
Mof_Fe	Fe	0.875	0.682	0.068	0.597
Mof_Fe	Fe	0.375	0.818	0.932	0.6
Mof_Fe	Fe	0.568	0.625	0.318	0.598
Mof_Fe	Fe	0.432	0.125	0.182	0.597
Mof_Fe	Fe	0.068	0.875	0.682	0.597
Mof_Fe	Fe	0.932	0.375	0.818	0.6
Mof_Fe	Fe	0.818	0.068	0.125	0.596
Mof_Fe	Fe	0.682	0.932	0.625	0.6
Mof_Fe	Fe	0.318	0.432	0.875	0.598
Mof_Fe	Fe	0.182	0.568	0.375	0.598
Mof_Fe	Fe	0.568	0.375	0.182	0.598
Mof_Fe	Fe	0.432	0.875	0.318	0.598
Mof_Fe	Fe	0.932	0.625	0.682	0.6
Mof_Fe	Fe	0.068	0.125	0.818	0.596
Mof_Fe	Fe	0.875	0.318	0.432	0.598
Mof_Fe	Fe	0.375	0.182	0.568	0.598
Mof_Fe	Fe	0.125	0.818	0.068	0.596
Mof_Fe	Fe	0.625	0.682	0.932	0.6
_end
