data_functionalizedCrystal
_audit_creation_method	'EQeq! by Chris Wilmer'
_symmetry_space_group_name_H-M	'P1'
_symmetry_Int_Tables_number	1
_symmetry_cell_setting	triclinic
loop_
_symmetry_equiv_pos_as_xyz
  x,y,z
_cell_length_a	11.2993
_cell_length_b	32.5574
_cell_length_c	32.5575
_cell_angle_alpha	88.2745
_cell_angle_beta	80.007
_cell_angle_gamma	80.0073
loop_
_atom_site_label
_atom_site_type_symbol
_atom_site_fract_x
_atom_site_fract_y
_atom_site_fract_z
_atom_site_charge
Mof_Nd	Nd	0.29032	0.66929	0.03175	2.134
Mof_Nd	Nd	0.70968	0.33071	0.96825	2.134
Mof_Nd	Nd	0.17409	0.02763	0.82979	2.202
Mof_Nd	Nd	0.67793	0.03175	0.83071	2.134
Mof_Nd	Nd	0.79828	0.67021	0.02763	2.202
Mof_Nd	Nd	0.50864	0.16929	0.53175	2.111
Mof_Nd	Nd	0.95961	0.53175	0.33071	2.109
Mof_Nd	Nd	0.49136	0.83071	0.46825	2.111
Mof_Nd	Nd	0.20172	0.32979	0.97237	2.202
Mof_Nd	Nd	0.04039	0.46825	0.66929	2.109
Mof_Nd	Nd	0.32207	0.96825	0.16929	2.133
Mof_Nd	Nd	0.46849	0.52763	0.32979	2.199
Mof_Nd	Nd	0.53151	0.47237	0.67021	2.199
Mof_Nd	Nd	0.82591	0.97237	0.17021	2.201
Mof_Nd	Nd	0.00388	0.17021	0.52763	2.155
Mof_Nd	Nd	0.99612	0.82979	0.47237	2.155
Mof_Cu	Cu	0.08422	0.46273	0.13039	0.875
Mof_Cu	Cu	0.54694	0.6304	0.53727	0.875
Mof_Cu	Cu	0.45306	0.3696	0.46273	0.875
Mof_Cu	Cu	0.82266	0.96273	0.63039	0.875
Mof_Cu	Cu	0.78538	0.1304	0.03727	0.875
Mof_Cu	Cu	0.91578	0.53727	0.86961	0.875
Mof_Cu	Cu	0.17734	0.03727	0.36961	0.875
Mof_Cu	Cu	0.21462	0.8696	0.96273	0.875
Mof_H 	H 	0.7634	0.5857	0.8121	0.004
Mof_H 	H 	0.7934	0.7114	0.8768	0.03
Mof_H 	H 	0.5755	0.1879	0.0857	0.007
Mof_H 	H 	0.3846	0.4534	0.7862	-0.018
Mof_H 	H 	0.8319	0.8757	0.7831	0.033
Mof_H 	H 	0.5751	0.7061	0.4781	-0.015
Mof_H 	H 	0.7522	0.4743	0.4633	0.003
Mof_H 	H 	0.006	0.3198	0.1446	0.091
Mof_H 	H 	0.101	0.1062	0.004	-0.012
Mof_H 	H 	0.7076	0.2831	0.1243	0.033
Mof_H 	H 	0.8237	0.2773	0.6423	0.094
Mof_H 	H 	0.4249	0.2939	0.5219	-0.015
Mof_H 	H 	0.4489	0.0165	0.0607	-0.022
Mof_H 	H 	0.1681	0.1243	0.2169	0.033
Mof_H 	H 	0.3158	0.8629	0.1359	-0.024
Mof_H 	H 	0.7845	0.4633	0.0257	0.005
Mof_H 	H 	0.0906	0.8619	0.8903	0.004
Mof_H 	H 	0.2478	0.5257	0.5367	0.003
Mof_H 	H 	0.6612	0.9143	0.6879	0.006
Mof_H 	H 	0.6295	0.5394	0.1426	0.091
Mof_H 	H 	0.375	0.1608	0.8664	0.021
Mof_H 	H 	0.7407	0.2061	0.9781	-0.015
Mof_H 	H 	0.5483	0.1359	0.6371	-0.024
Mof_H 	H 	0.1707	0.7811	0.0897	0.079
Mof_H 	H 	0.5203	0.9982	0.6204	-0.011
Mof_H 	H 	0.2366	0.4143	0.1879	0.004
Mof_H 	H 	0.5096	0.9393	0.5165	-0.023
Mof_H 	H 	0.2604	0.9103	0.2811	0.079
Mof_H 	H 	0.4233	0.255	0.3724	0.07
Mof_H 	H 	0.1187	0.0309	0.5267	0.085
Mof_H 	H 	0.615	0.2169	0.3757	0.041
Mof_H 	H 	0.534	0.6423	0.2227	0.093
Mof_H 	H 	0.6454	0.4733	0.5309	0.085
Mof_H 	H 	0.0812	0.0623	0.4645	-0.027
Mof_H 	H 	0.7813	0.7563	0.2087	0.017
Mof_H 	H 	0.01	0.2087	0.7437	0.017
Mof_H 	H 	0.5706	0.0068	0.4364	0.095
Mof_H 	H 	0.7567	0.7773	0.1423	0.093
Mof_H 	H 	0.162	0.7138	0.4534	-0.019
Mof_H 	H 	0.9704	0.1802	0.3554	0.074
Mof_H 	H 	0.5993	0.9593	0.3099	-0.001
Mof_H 	H 	0.4797	0.0018	0.3796	-0.011
Mof_H 	H 	0.3388	0.0857	0.3121	0.006
Mof_H 	H 	0.5255	0.6628	0.3698	0.027
Mof_H 	H 	0.4543	0.4645	0.4377	-0.023
Mof_H 	H 	0.9022	0.3392	0.6336	0.022
Mof_H 	H 	0.8146	0.6371	0.3641	-0.024
Mof_H 	H 	0.5346	0.4393	0.0165	-0.022
Mof_H 	H 	0.8494	0.1446	0.1802	0.089
Mof_H 	H 	0.4226	0.0636	0.0068	0.096
Mof_H 	H 	0.0978	0.6608	0.3664	0.022
Mof_H 	H 	0.7721	0.8574	0.0394	0.091
Mof_H 	H 	0.1689	0.6426	0.4606	0.091
Mof_H 	H 	0.5511	0.9835	0.9393	-0.022
Mof_H 	H 	0.7112	0.3938	0.496	-0.012
Mof_H 	H 	0.1506	0.8554	0.8198	0.089
Mof_H 	H 	0.3428	0.6381	0.6097	0.005
Mof_H 	H 	0.4245	0.8121	0.9143	0.007
Mof_H 	H 	0.4978	0.0711	0.6309	0.102
Mof_H 	H 	0.466	0.3577	0.7773	0.093
Mof_H 	H 	0.5774	0.9364	0.9932	0.096
Mof_H 	H 	0.3491	0.3121	0.4143	0.008
Mof_H 	H 	0.2066	0.2886	0.1232	0.03
Mof_H 	H 	0.0482	0.4103	0.7811	0.081
Mof_H 	H 	0.1854	0.3629	0.6359	-0.024
Mof_H 	H 	0.2279	0.1426	0.9606	0.091
Mof_H 	H 	0.4414	0.1901	0.9593	-0.001
Mof_H 	H 	0.2924	0.7169	0.8757	0.033
Mof_H 	H 	0.5507	0.245	0.1276	0.087
Mof_H 	H 	0.9525	0.3903	0.1381	0.002
Mof_H 	H 	0.1435	0.9645	0.9377	-0.023
Mof_H 	H 	0.9907	0.6243	0.7169	0.018
Mof_H 	H 	0.5138	0.4932	0.0636	0.096
Mof_H 	H 	0.2812	0.9781	0.2939	-0.015
Mof_H 	H 	0.9419	0.1628	0.8698	0.027
Mof_H 	H 	0.4745	0.3372	0.6302	0.027
Mof_H 	H 	0.2463	0.7437	0.2913	0.018
Mof_H 	H 	0.4517	0.8641	0.3629	-0.024
Mof_H 	H 	0.5689	0.1309	0.9289	0.102
Mof_H 	H 	0.3611	0.4982	0.1204	-0.011
Mof_H 	H 	0.1763	0.4691	0.9733	0.084
Mof_H 	H 	0.0296	0.8198	0.6446	0.074
Mof_H 	H 	0.4585	0.2811	0.5897	0.08
Mof_H 	H 	0.6998	0.4289	0.8691	0.102
Mof_H 	H 	0.6315	0.4593	0.8099	-0.002
Mof_H 	H 	0.3217	0.1276	0.255	0.086
Mof_H 	H 	0.6702	0.1232	0.2114	0.029
Mof_H 	H 	0.9094	0.1381	0.1097	0.004
Mof_H 	H 	0.1883	0.8698	0.3372	0.027
Mof_H 	H 	0.2072	0.504	0.8938	-0.012
Mof_H 	H 	0.9188	0.9377	0.5355	-0.027
Mof_H 	H 	0.4294	0.9932	0.5636	0.095
Mof_H 	H 	0.2187	0.2437	0.7913	0.017
Mof_H 	H 	0.0581	0.8372	0.1302	0.027
Mof_H 	H 	0.3298	0.8768	0.7886	0.029
Mof_H 	H 	0.7957	0.6276	0.755	0.082
Mof_H 	H 	0.8758	0.9534	0.2862	-0.019
Mof_H 	H 	0.838	0.2862	0.5466	-0.019
Mof_H 	H 	0.899	0.8577	0.2773	0.093
Mof_H 	H 	0.993	0.4364	0.4932	0.097
Mof_H 	H 	0.8292	0.7862	0.0466	-0.018
Mof_H 	H 	0.5022	0.9289	0.3691	0.102
Mof_H 	H 	0.5586	0.8099	0.0407	-0.001
Mof_H 	H 	0.7188	0.0219	0.7061	-0.015
Mof_H 	H 	0.1763	0.7227	0.3577	0.094
Mof_H 	H 	0.2043	0.3724	0.245	0.082
Mof_H 	H 	0.2888	0.6062	0.504	-0.012
Mof_H 	H 	0.1047	0.3698	0.8372	0.025
Mof_H 	H 	0.5048	0.3768	0.2886	0.048
Mof_H 	H 	0.3705	0.4606	0.8574	0.091
Mof_H 	H 	0.4642	0.6336	0.1608	0.021
Mof_H 	H 	0.4904	0.0607	0.4835	-0.023
Mof_H 	H 	0.6842	0.1371	0.8641	-0.024
Mof_H 	H 	0.8115	0.9606	0.3574	0.092
Mof_H 	H 	0.8565	0.0355	0.0623	-0.023
Mof_H 	H 	0.5358	0.3664	0.8392	0.021
Mof_H 	H 	0.8504	0.9733	0.0309	0.085
Mof_H 	H 	0.2155	0.5367	0.9743	0.005
Mof_H 	H 	0.0908	0.3099	0.5407	-0.005
Mof_H 	H 	0.8102	0.9743	0.9633	0.005
Mof_H 	H 	0.1184	0.2114	0.3768	0.014
Mof_H 	H 	0.4654	0.5607	0.9835	-0.022
Mof_H 	H 	0.4815	0.8796	0.9982	-0.011
Mof_H 	H 	0.8311	0.3574	0.5394	0.091
Mof_H 	H 	0.1496	0.0267	0.9691	0.085
Mof_H 	H 	0.7928	0.496	0.1062	-0.012
Mof_H 	H 	0.6389	0.5018	0.8796	-0.011
Mof_H 	H 	0.99	0.7913	0.2563	0.017
Mof_H 	H 	0.385	0.7831	0.6243	0.041
Mof_H 	H 	0.0475	0.6097	0.8619	0.002
Mof_H 	H 	0.0532	0.5219	0.2061	-0.017
Mof_H 	H 	0.007	0.5636	0.5068	0.097
Mof_H 	H 	0.8117	0.1302	0.6628	0.027
Mof_H 	H 	0.8713	0.6309	0.4289	0.102
Mof_H 	H 	0.105	0.996	0.6062	-0.013
Mof_H 	H 	0.4952	0.6232	0.7114	0.048
Mof_H 	H 	0.895	0.004	0.3938	-0.013
Mof_H 	H 	0.2593	0.7939	0.0219	-0.015
Mof_H 	H 	0.6572	0.3619	0.3903	0.005
Mof_H 	H 	0.4862	0.5068	0.9364	0.096
Mof_H 	H 	0.101	0.1423	0.7227	0.093
Mof_H 	H 	0.892	0.5623	0.9645	-0.023
Mof_H 	H 	0.5415	0.7189	0.4103	0.08
Mof_H 	H 	0.1287	0.3691	0.5711	0.102
Mof_H 	H 	0.6783	0.8724	0.745	0.086
Mof_H 	H 	0.1708	0.2138	0.9534	-0.018
Mof_H 	H 	0.8213	0.3641	0.8629	-0.024
Mof_H 	H 	0.3258	0.6446	0.6802	0.075
Mof_H 	H 	0.7735	0.0367	0.4743	0.001
Mof_H 	H 	0.6154	0.5466	0.2138	-0.018
Mof_H 	H 	0.9518	0.5897	0.2189	0.081
Mof_H 	H 	0.899	0.8938	0.996	-0.012
Mof_H 	H 	0.6742	0.3554	0.3198	0.075
Mof_H 	H 	0.1242	0.0466	0.7138	-0.019
Mof_H 	H 	0.1898	0.0257	0.0367	0.005
Mof_H 	H 	0.4311	0.8691	0.0711	0.102
Mof_H 	H 	0.5376	0.7087	0.2437	0.018
Mof_H 	H 	0.0093	0.3757	0.2831	0.018
Mof_H 	H 	0.2433	0.2227	0.8577	0.093
Mof_H 	H 	0.8237	0.5309	0.0267	0.084
Mof_H 	H 	0.5767	0.745	0.6276	0.07
Mof_H 	H 	0.994	0.6802	0.8554	0.091
Mof_H 	H 	0.7586	0.8664	0.3392	0.021
Mof_H 	H 	0.8813	0.9691	0.4733	0.085
Mof_H 	H 	0.7537	0.2563	0.7087	0.018
Mof_H 	H 	0.2265	0.9633	0.5257	0.001
Mof_H 	H 	0.1407	0.3796	0.4982	-0.012
Mof_H 	H 	0.2414	0.1336	0.6608	0.021
Mof_H 	H 	0.8953	0.6302	0.1628	0.025
Mof_H 	H 	0.9092	0.6901	0.4593	-0.005
Mof_H 	H 	0.8816	0.7886	0.6232	0.014
Mof_H 	H 	0.3685	0.5407	0.1901	-0.002
Mof_H 	H 	0.108	0.4377	0.0355	-0.023
Mof_H 	H 	0.4007	0.0407	0.6901	-0.001
Mof_H 	H 	0.8293	0.2189	0.9103	0.079
Mof_H 	H 	0.9468	0.4781	0.7939	-0.017
Mof_H 	H 	0.9739	0.5165	0.5607	-0.024
Mof_H 	H 	0.6509	0.6879	0.5857	0.008
Mof_H 	H 	0.5457	0.5355	0.5623	-0.023
Mof_H 	H 	0.0191	0.8903	0.6381	-0.003
Mof_H 	H 	0.3546	0.5267	0.4691	0.085
Mof_H 	H 	0.625	0.8392	0.1336	0.021
Mof_H 	H 	0.1885	0.0394	0.6426	0.092
Mof_H 	H 	0.8593	0.6204	0.5018	-0.012
Mof_H 	H 	0.7396	0.0897	0.7189	0.079
Mof_H 	H 	0.3002	0.5711	0.1309	0.102
Mof_H 	H 	0.0261	0.4835	0.4393	-0.024
Mof_H 	H 	0.5185	0.1204	0.0018	-0.011
Mof_H 	H 	0.9809	0.1097	0.3619	-0.003
Mof_H 	H 	0.4624	0.2913	0.7563	0.018
Mof_H 	H 	0.4493	0.755	0.8724	0.087
Mof_H 	H 	0.1787	0.6359	0.1371	-0.024
Mof_C 	C 	0.72146	0.58843	0.67945	0.092
Mof_C 	C 	0.41581	0.7598	0.60738	-0.025
Mof_C 	C 	0.92694	0.27308	0.07844	0.304
Mof_C 	C 	0.61581	0.90978	0.272	-0.132
Mof_C 	C 	0.90507	0.11782	0.91184	-0.117
Mof_C 	C 	0.68305	0.91461	0.58589	0.104
Mof_C 	C 	0.19726	0.65644	0.26684	0.085
Mof_C 	C 	0.90109	0.15819	0.89643	0.047
Mof_C 	C 	0.99462	0.07844	0.22692	0.303
Mof_C 	C 	0.84186	0.58452	0.79716	0.068
Mof_C 	C 	0.3339	0.89955	0.88425	0.049
Mof_C 	C 	0.48557	0.19114	0.93252	0.077
Mof_C 	C 	0.6879	0.52412	0.15648	-0.186
Mof_C 	C 	0.85635	0.47502	0.19528	0.101
Mof_C 	C 	0.7653	0.51271	0.26449	0.539
Mof_C 	C 	0.88307	0.83487	0.29399	-0.135
Mof_C 	C 	0.38419	0.09022	0.728	-0.132
Mof_C 	C 	0.96651	0.62207	0.87031	0.069
Mof_C 	C 	0.79288	0.04859	0.61205	0.058
Mof_C 	C 	0.97203	0.57929	0.19185	-0.135
Mof_C 	C 	0.11219	0.272	0.59022	-0.132
Mof_C 	C 	0.84821	0.60253	0.52445	0.107
Mof_C 	C 	0.67671	0.43252	0.80886	0.077
Mof_C 	C 	0.58419	0.2402	0.39262	-0.025
Mof_C 	C 	0.68355	0.58539	0.91411	0.104
Mof_C 	C 	0.7827	0.80548	0.35632	-0.121
Mof_C 	C 	0.43736	0.84369	0.08499	-0.163
Mof_C 	C 	0.94837	0.19528	0.02498	0.103
Mof_C 	C 	0.462	0.41665	0.61295	0.322
Mof_C 	C 	0.73106	0.58589	0.58539	0.104
Mof_C 	C 	0.48231	0.29505	0.78233	0.085
Mof_C 	C 	0.21815	0.11575	0.39955	0.048
Mof_C 	C 	0.72354	0.91548	0.70284	0.065
Mof_C 	C 	0.44868	0.30815	0.57929	-0.128
Mof_C 	C 	0.96618	0.8358	0.63344	-0.142
Mof_C 	C 	0.38871	0.39636	0.34122	-0.042
Mof_C 	C 	0.81961	0.99879	0.97539	0.063
Mof_C 	C 	0.52454	0.55885	0.95947	0.131
Mof_C 	C 	0.09415	0.02808	0.69882	0.124
Mof_C 	C 	0.58266	0.53536	0.53452	0.102
Mof_C 	C 	0.80352	0.02828	0.57128	0.067
Mof_C 	C 	0.30049	0.46428	0.54754	-0.116
Mof_C 	C 	0.11802	0.03452	0.46464	0.103
Mof_C 	C 	0.96533	0.46113	0.81621	0.09
Mof_C 	C 	0.97335	0.97502	0.69528	0.104
Mof_C 	C 	0.3748	0.42872	0.52828	0.066
Mof_C 	C 	0.20712	0.95141	0.38795	0.058
Mof_C 	C 	0.05928	0.39643	0.84181	0.051
Mof_C 	C 	0.51769	0.70495	0.21767	0.085
Mof_C 	C 	0.82294	0.29399	0.66513	-0.135
Mof_C 	C 	0.5998	0.58859	0.95161	-0.22
Mof_C 	C 	0.54555	0.22925	0.87045	0.096
Mof_C 	C 	0.61128	0.31103	0.89421	0.334
Mof_C 	C 	0.17561	0.10738	0.2402	0.036
Mof_C 	C 	0.92769	0.42007	0.24755	-0.107
Mof_C 	C 	0.52772	0.34007	0.83109	0.06
Mof_C 	C 	0.45445	0.77075	0.12955	0.096
Mof_C 	C 	0.92505	0.61295	0.08335	0.323
Mof_C 	C 	0.51443	0.80886	0.06748	0.077
Mof_C 	C 	0.57354	0.68379	0.46113	0.084
Mof_C 	C 	0.78154	0.18379	0.96113	0.084
Mof_C 	C 	0.62054	0.84356	0.23316	0.084
Mof_C 	C 	0.18039	0.00121	0.02461	0.063
Mof_C 	C 	0.44859	0.95161	0.91141	-0.22
Mof_C 	C 	0.78798	0.34352	0.52412	-0.19
Mof_C 	C 	0.8783	0.81727	0.62053	0.036
Mof_C 	C 	0.18309	0.91184	0.38218	-0.115
Mof_C 	C 	0.60507	0.28724	0.44482	0.015
Mof_C 	C 	0.42646	0.31621	0.53887	0.084
Mof_C 	C 	0.58818	0.85632	0.19452	-0.122
Mof_C 	C 	0.34776	0.74755	0.57993	-0.032
Mof_C 	C 	0.63091	0.16051	0.87567	0.118
Mof_C 	C 	0.09692	0.52828	0.07128	0.065
Mof_C 	C 	0.47546	0.44115	0.04053	0.131
Mof_C 	C 	0.6661	0.10045	0.11575	0.049
Mof_C 	C 	0.31645	0.41461	0.08589	0.104
Mof_C 	C 	0.72199	0.23551	0.51271	0.529
Mof_C 	C 	0.40091	0.32055	0.08843	0.307
Mof_C 	C 	0.16709	0.33949	0.62433	0.118
Mof_C 	C 	0.8184	0.47539	0.00121	0.062
Mof_C 	C 	0.89077	0.69114	0.43252	0.077
Mof_C 	C 	0.87865	0.11295	0.58335	0.321
Mof_C 	C 	0.45571	0.34181	0.60357	0.047
Mof_C 	C 	0.8318	0.07128	0.97172	0.065
Mof_C 	C 	0.16318	0.87031	0.87793	0.066
Mof_C 	C 	0.79998	0.42156	0.27308	0.306
Mof_C 	C 	0.45714	0.05885	0.45947	0.129
Mof_C 	C 	0.14308	0.01615	0.50169	-0.15
Mof_C 	C 	0.79752	0.10357	0.65819	0.046
Mof_C 	C 	0.50414	0.02665	0.43187	-0.189
Mof_C 	C 	0.37634	0.76292	0.8906	-0.115
Mof_C 	C 	0.62366	0.23708	0.1094	-0.115
Mof_C 	C 	0.49586	0.97335	0.56813	-0.189
Mof_C 	C 	0.51193	0.66513	0.20601	-0.135
Mof_C 	C 	0.25733	0.96113	0.31621	0.084
Mof_C 	C 	0.13902	0.64368	0.30548	-0.121
Mof_C 	C 	0.91666	0.0028	0.36488	0.104
Mof_C 	C 	0.416	0.12955	0.72925	0.096
Mof_C 	C 	0.68348	0.81103	0.39421	0.334
Mof_C 	C 	0.76655	0.61575	0.89955	0.049
Mof_C 	C 	0.92255	0.76482	0.42828	0.331
Mof_C 	C 	0.51066	0.08843	0.17945	0.307
Mof_C 	C 	0.6177	0.60045	0.61575	0.014
Mof_C 	C 	0.05163	0.80472	0.97502	0.103
Mof_C 	C 	0.07306	0.72692	0.92156	0.304
Mof_C 	C 	0.36	0.08859	0.45161	-0.22
Mof_C 	C 	0.88282	0.53452	0.96464	0.101
Mof_C 	C 	0.55141	0.04839	0.08859	-0.22
Mof_C 	C 	0.73536	0.78233	0.20495	0.085
Mof_C 	C 	0.42114	0.9846	0.87892	0.551
Mof_C 	C 	0.00538	0.92156	0.77308	0.303
Mof_C 	C 	0.72988	0.28078	0.50406	-0.228
Mof_C 	C 	0.49342	0.87567	0.33949	0.118
Mof_C 	C 	0.47014	0.26292	0.3906	-0.08
Mof_C 	C 	0.31652	0.18897	0.60579	0.334
Mof_C 	C 	0.3121	0.47588	0.84352	-0.186
Mof_C 	C 	0.48934	0.91157	0.82055	0.307
Mof_C 	C 	0.20703	0.69882	0.47192	0.122
Mof_C 	C 	0.21534	0.4846	0.37892	0.547
Mof_C 	C 	0.15254	0.96464	0.96548	0.102
Mof_C 	C 	0.09531	0.07993	0.25245	-0.1
Mof_C 	C 	0.27801	0.76449	0.48729	0.529
Mof_C 	C 	0.35881	0.16891	0.84007	0.06
Mof_C 	C 	0.72993	0.65878	0.89636	-0.111
Mof_C 	C 	0.12135	0.88705	0.41665	0.321
Mof_C 	C 	0.15197	0.54754	0.03572	-0.114
Mof_C 	C 	0.15814	0.41548	0.20284	0.068
Mof_C 	C 	0.30006	0.12108	0.4846	0.549
Mof_C 	C 	0.97681	0.60738	0.7402	0.039
Mof_C 	C 	0.41734	0.46464	0.46548	0.102
Mof_C 	C 	0.90469	0.92007	0.74755	-0.1
Mof_C 	C 	0.20002	0.57844	0.72692	0.306
Mof_C 	C 	0.15179	0.39747	0.47555	0.107
Mof_C 	C 	0.79142	0.37567	0.83949	0.118
Mof_C 	C 	0.9575	0.01271	0.76449	0.542
Mof_C 	C 	0.1315	0.02412	0.65648	-0.188
Mof_C 	C 	0.3823	0.39955	0.38425	0.014
Mof_C 	C 	0.08339	0.45947	0.44115	0.131
Mof_C 	C 	0.91661	0.54053	0.55885	0.131
Mof_C 	C 	0.84438	0.84352	0.02412	-0.186
Mof_C 	C 	0.86098	0.35632	0.69452	-0.121
Mof_C 	C 	0.16287	0.78724	0.94482	0.053
Mof_C 	C 	0.82439	0.89262	0.7598	0.036
Mof_C 	C 	0.46266	0.47335	0.06813	-0.188
Mof_C 	C 	0.55132	0.69185	0.42071	-0.128
Mof_C 	C 	0.28299	0.7402	0.89262	0.036
Mof_C 	C 	0.81691	0.08816	0.61782	-0.115
Mof_C 	C 	0.21202	0.65648	0.47588	-0.19
Mof_C 	C 	0.68139	0.08949	0.53733	0.347
Mof_C 	C 	0.5555	0.30548	0.85632	-0.122
Mof_C 	C 	0.54429	0.65819	0.39643	0.047
Mof_C 	C 	0.01472	0.21922	0.99594	-0.215
Mof_C 	C 	0.15853	0.88795	0.04859	0.059
Mof_C 	C 	0.78434	0.4972	0.13512	0.104
Mof_C 	C 	0.03349	0.37793	0.12969	0.069
Mof_C 	C 	0.95011	0.44482	0.21276	0.053
Mof_C 	C 	0.40234	0.91411	0.91461	0.105
Mof_C 	C 	0.47519	0.89747	0.97555	0.11
Mof_C 	C 	0.52559	0.772	0.09022	-0.132
Mof_C 	C 	0.10923	0.30886	0.56748	0.077
Mof_C 	C 	0.83713	0.21276	0.05518	0.053
Mof_C 	C 	0.04989	0.55518	0.78724	0.053
Mof_C 	C 	0.26694	0.1094	0.26292	-0.115
Mof_C 	C 	0.17524	0.75245	0.92007	-0.1
Mof_C 	C 	0.80274	0.34356	0.73316	0.085
Mof_C 	C 	0.31695	0.08539	0.41411	0.104
Mof_C 	C 	0.02319	0.39262	0.2598	0.039
Mof_C 	C 	0.53079	0.93187	0.97335	-0.188
Mof_C 	C 	0.87777	0.80118	0.02808	0.123
Mof_C 	C 	0.14365	0.52498	0.80472	0.101
Mof_C 	C 	0.50658	0.12433	0.66051	0.118
Mof_C 	C 	0.50549	0.10579	0.81103	0.334
Mof_C 	C 	0.48401	0.04053	0.05885	0.131
Mof_C 	C 	0.46921	0.06813	0.02665	-0.188
Mof_C 	C 	0.71794	0.79399	0.16513	-0.135
Mof_C 	C 	0.40493	0.38795	0.54859	0.058
Mof_C 	C 	0.28154	0.63512	0.5028	0.101
Mof_C 	C 	0.23394	0.49594	0.78078	-0.214
Mof_C 	C 	0.47228	0.65993	0.16891	0.06
Mof_C 	C 	0.21493	0.15878	0.39636	-0.116
Mof_C 	C 	0.71701	0.2598	0.10738	0.036
Mof_C 	C 	0.02665	0.02498	0.30472	0.104
Mof_C 	C 	0.31263	0.07172	0.76482	0.335
Mof_C 	C 	0.02797	0.42071	0.80815	-0.135
Mof_C 	C 	0.64119	0.83109	0.15993	0.06
Mof_C 	C 	0.78185	0.88425	0.60045	0.048
Mof_C 	C 	0.19179	0.58949	0.03733	0.344
Mof_C 	C 	0.59426	0.62108	0.9846	0.551
Mof_C 	C 	0.43473	0.38218	0.58816	-0.116
Mof_C 	C 	0.98934	0.99594	0.28078	-0.217
Mof_C 	C 	0.5359	0.26684	0.84356	0.085
Mof_C 	C 	0.80198	0.13344	0.1642	-0.125
Mof_C 	C 	0.795	0.02461	0.49879	0.065
Mof_C 	C 	0.38435	0.26482	0.92828	0.335
Mof_C 	C 	0.56527	0.61782	0.41184	-0.116
Mof_C 	C 	0.23523	0.95246	0.46428	-0.119
Mof_C 	C 	0.4445	0.69452	0.14368	-0.122
Mof_C 	C 	0.84746	0.03536	0.03452	0.102
Mof_C 	C 	0.77088	0.03733	0.91051	0.344
Mof_C 	C 	0.02979	0.73551	0.01271	0.54
Mof_C 	C 	0.1463	0.23316	0.65644	0.084
Mof_C 	C 	0.37946	0.15644	0.76684	0.084
Mof_C 	C 	0.93601	0.56813	0.52665	-0.195
Mof_C 	C 	0.29379	0.50121	0.52461	0.063
Mof_C 	C 	0.20858	0.62433	0.16051	0.118
Mof_C 	C 	0.75683	0.07929	0.69185	-0.128
Mof_C 	C 	0.21872	0.46267	0.58949	0.344
Mof_C 	C 	0.11718	0.46548	0.03536	0.101
Mof_C 	C 	0.54286	0.94115	0.54053	0.129
Mof_C 	C 	0.59507	0.61205	0.45141	0.058
Mof_C 	C 	0.84077	0.99831	0.01615	-0.147
Mof_C 	C 	0.69951	0.53572	0.45246	-0.116
Mof_C 	C 	0.2173	0.19452	0.64368	-0.121
Mof_C 	C 	0.69994	0.87892	0.5154	0.549
Mof_C 	C 	0.24317	0.92071	0.30815	-0.128
Mof_C 	C 	0.06399	0.43187	0.47335	-0.195
Mof_C 	C 	0.13221	0.66891	0.34007	0.06
Mof_C 	C 	0.8161	0.68273	0.87947	0.04
Mof_C 	C 	0.66863	0.30472	0.47502	0.102
Mof_C 	C 	0.45074	0.02445	0.39747	0.109
Mof_C 	C 	0.27012	0.71922	0.49594	-0.228
Mof_C 	C 	0.20248	0.89643	0.34181	0.046
Mof_C 	C 	0.38872	0.68897	0.10579	0.334
Mof_C 	C 	0.81231	0.03572	0.95246	-0.115
Mof_C 	C 	0.47441	0.228	0.90978	-0.132
Mof_C 	C 	0.40038	0.63344	0.6642	-0.092
Mof_C 	C 	0.88781	0.728	0.40978	-0.132
Mof_C 	C 	0.64	0.91141	0.54839	-0.22
Mof_C 	C 	0.1839	0.31727	0.12053	0.04
Mof_C 	C 	0.37371	0.89636	0.84122	-0.111
Mof_C 	C 	0.71895	0.41501	0.84369	-0.163
Mof_C 	C 	0.61129	0.60364	0.65878	-0.042
Mof_C 	C 	0.86604	0.65631	0.41501	-0.164
Mof_C 	C 	0.91946	0.86488	0.9972	0.105
Mof_C 	C 	0.07231	0.57993	0.75245	-0.107
Mof_C 	C 	0.1217	0.18273	0.37947	0.036
Mof_C 	C 	0.8685	0.97588	0.34352	-0.188
Mof_C 	C 	0.94031	0.79505	0.28233	0.085
Mof_C 	C 	0.41142	0.62969	0.62207	0.046
Mof_C 	C 	0.29759	0.59022	0.228	-0.132
Mof_C 	C 	0.86074	0.6094	0.76292	-0.126
Mof_C 	C 	0.95352	0.45141	0.88795	0.062
Mof_C 	C 	0.27854	0.41157	0.32055	0.092
Mof_C 	C 	0.37266	0.47555	0.10253	0.11
Mof_C 	C 	0.26894	0.41411	0.41461	0.104
Mof_C 	C 	0.7748	0.37045	0.77075	0.097
Mof_C 	C 	0.76477	0.04754	0.53572	-0.119
Mof_C 	C 	0.56264	0.15631	0.91501	-0.163
Mof_C 	C 	0.09891	0.84181	0.10357	0.047
Mof_C 	C 	0.51599	0.95947	0.94115	0.131
Mof_C 	C 	0.89231	0.94482	0.71276	0.052
Mof_C 	C 	0.08054	0.13512	0.0028	0.105
Mof_C 	C 	0.1682	0.92872	0.02828	0.065
Mof_C 	C 	0.95889	0.87793	0.62969	0.06
Mof_C 	C 	0.13926	0.3906	0.23708	-0.126
Mof_C 	C 	0.73306	0.8906	0.73708	-0.115
Mof_C 	C 	0.26464	0.21767	0.79505	0.085
Mof_C 	C 	0.83908	0.51615	0.00169	-0.146
Mof_C 	C 	0.07745	0.23518	0.57172	0.331
Mof_C 	C 	0.01066	0.00406	0.71922	-0.217
Mof_C 	C 	0.49883	0.37947	0.31727	-0.014
Mof_C 	C 	0.80112	0.84007	0.33109	0.06
Mof_C 	C 	0.30989	0.17945	0.41157	0.31
Mof_C 	C 	0.23345	0.38425	0.10045	0.049
Mof_C 	C 	0.36098	0.79716	0.91548	0.065
Mof_C 	C 	0.19648	0.97172	0.42872	0.067
Mof_C 	C 	0.28206	0.20601	0.83487	-0.135
Mof_C 	C 	0.19888	0.15993	0.66891	0.06
Mof_C 	C 	0.6252	0.57128	0.47172	0.066
Mof_C 	C 	0.50117	0.62053	0.68273	-0.014
Mof_C 	C 	0.13396	0.34369	0.58499	-0.164
Mof_C 	C 	0.35083	0.57172	0.26482	0.335
Mof_C 	C 	0.4641	0.73316	0.15644	0.085
Mof_C 	C 	0.07495	0.38705	0.91665	0.323
Mof_C 	C 	0.15923	0.00169	0.98385	-0.147
Mof_C 	C 	0.02289	0.41184	0.88218	-0.12
Mof_C 	C 	0.12223	0.19882	0.97192	0.123
Mof_C 	C 	0.4002	0.41141	0.04839	-0.22
Mof_C 	C 	0.41809	0.06748	0.69114	0.077
Mof_C 	C 	0.83682	0.12969	0.12207	0.066
Mof_C 	C 	0.47765	0.08499	0.65631	-0.163
Mof_C 	C 	0.92231	0.39421	0.68897	0.333
Mof_C 	C 	0.40574	0.37892	0.0154	0.551
Mof_C 	C 	0.69557	0.12053	0.18273	0.039
Mof_C 	C 	0.84147	0.11205	0.95141	0.059
Mof_C 	C 	0.39493	0.71276	0.55518	0.015
Mof_C 	C 	0.77736	0.28233	0.70495	0.085
Mof_C 	C 	0.64477	0.49831	0.51615	-0.147
Mof_C 	C 	0.68737	0.92828	0.23518	0.335
Mof_C 	C 	0.584	0.87045	0.27075	0.096
Mof_C 	C 	0.78507	0.84122	0.60364	-0.116
Mof_C 	C 	0.17706	0.70601	0.33487	-0.135
Mof_C 	C 	0.53734	0.52665	0.93187	-0.188
Mof_C 	C 	0.79297	0.30118	0.52808	0.122
Mof_C 	C 	0.15562	0.15648	0.97588	-0.186
Mof_C 	C 	0.81161	0.54839	0.58859	-0.234
Mof_C 	C 	0.32105	0.47192	0.80118	0.122
Mof_C 	C 	0.84803	0.45246	0.96428	-0.114
Mof_C 	C 	0.78128	0.53733	0.41051	0.344
Mof_C 	C 	0.1816	0.52461	0.99879	0.062
Mof_C 	C 	0.03467	0.53887	0.18379	0.09
Mof_C 	C 	0.22912	0.96267	0.08949	0.344
Mof_C 	C 	0.27007	0.34122	0.10364	-0.111
Mof_C 	C 	0.78466	0.5154	0.62108	0.547
Mof_C 	C 	0.05969	0.20495	0.71767	0.085
Mof_C 	C 	0.90308	0.47172	0.92872	0.065
Mof_C 	C 	0.06458	0.3358	0.13344	-0.127
Mof_C 	C 	0.21846	0.81621	0.03887	0.084
Mof_C 	C 	0.36909	0.83949	0.12433	0.118
Mof_C 	C 	0.97711	0.58816	0.11782	-0.12
Mof_C 	C 	0.35523	0.50169	0.48385	-0.147
Mof_C 	C 	0.76606	0.50406	0.21922	-0.214
Mof_C 	C 	0.19802	0.86656	0.8358	-0.125
Mof_C 	C 	0.21566	0.5028	0.86488	0.104
Mof_C 	C 	0.52986	0.73708	0.6094	-0.08
Mof_C 	C 	0.74267	0.03887	0.68379	0.084
Mof_C 	C 	0.59962	0.36656	0.3358	-0.092
Mof_C 	C 	0.8537	0.76684	0.34356	0.084
Mof_C 	C 	0.31861	0.91051	0.46267	0.347
Mof_C 	C 	0.98528	0.78078	0.00406	-0.215
Mof_C 	C 	0.62629	0.10364	0.15878	-0.111
Mof_C 	C 	0.27646	0.08452	0.29716	0.065
Mof_C 	C 	0.49451	0.89421	0.18897	0.334
Mof_C 	C 	0.85692	0.98385	0.49831	-0.15
Mof_C 	C 	0.04111	0.12207	0.37031	0.06
Mof_C 	C 	0.28105	0.58499	0.15631	-0.163
Mof_C 	C 	0.54926	0.97555	0.60253	0.109
Mof_C 	C 	0.62734	0.52445	0.89747	0.11
Mof_C 	C 	0.70241	0.40978	0.772	-0.132
Mof_C 	C 	0.52235	0.91501	0.34369	-0.163
Mof_C 	C 	0.94072	0.60357	0.15819	0.051
Mof_C 	C 	0.0084	0.91665	0.11295	0.324
Mof_C 	C 	0.205	0.97539	0.50121	0.065
Mof_C 	C 	0.2347	0.48729	0.73551	0.539
Mof_C 	C 	0.48807	0.33487	0.79399	-0.135
Mof_C 	C 	0.85475	0.72925	0.37045	0.096
Mof_C 	C 	0.58858	0.37031	0.37793	0.046
Mof_C 	C 	0.58191	0.93252	0.30886	0.077
Mof_C 	C 	0.30443	0.87947	0.81727	0.039
Mof_C 	C 	0.63902	0.20284	0.08452	0.065
Mof_C 	C 	0.71846	0.36488	0.4972	0.101
Mof_C 	C 	0.08334	0.9972	0.63512	0.104
Mof_C 	C 	0.90585	0.97192	0.30118	0.124
Mof_C 	C 	0.09493	0.88218	0.08816	-0.117
Mof_C 	C 	0.83291	0.66051	0.37567	0.118
Mof_C 	C 	0.18839	0.45161	0.41141	-0.234
Mof_C 	C 	0.11693	0.16513	0.70601	-0.135
Mof_C 	C 	0.67895	0.52808	0.19882	0.122
Mof_C 	C 	0.61565	0.73518	0.07172	0.335
Mof_C 	C 	0.10769	0.05518	0.28724	0.052
Mof_C 	C 	0.69011	0.82055	0.58843	0.31
Mof_C 	C 	0.14525	0.27075	0.62955	0.096
Mof_C 	C 	0.16388	0.80815	0.07929	-0.128
Mof_C 	C 	0.86779	0.33109	0.65993	0.06
Mof_C 	C 	0.33137	0.69528	0.52498	0.102
Mof_C 	C 	0.32329	0.56748	0.19114	0.077
Mof_C 	C 	0.03382	0.1642	0.36656	-0.142
Mof_C 	C 	0.83612	0.19185	0.92071	-0.128
Mof_C 	C 	0.07769	0.60579	0.31103	0.333
Mof_C 	C 	0.64917	0.42828	0.73518	0.335
Mof_C 	C 	0.57886	0.0154	0.12108	0.551
Mof_C 	C 	0.04648	0.54859	0.11205	0.062
Mof_C 	C 	0.16092	0.48385	0.99831	-0.146
Mof_C 	C 	0.0425	0.98729	0.23551	0.542
Mof_C 	C 	0.97021	0.26449	0.98729	0.54
Mof_C 	C 	0.22264	0.71767	0.29505	0.085
Mof_C 	C 	0.70621	0.49879	0.47539	0.063
Mof_C 	C 	0.80821	0.41051	0.96267	0.344
Mof_C 	C 	0.88198	0.96548	0.53536	0.103
Mof_C 	C 	0.57362	0.70284	0.58452	0.043
Mof_C 	C 	0.65224	0.25245	0.42007	-0.032
Mof_C 	C 	0.2252	0.62955	0.22925	0.097
Mof_C 	C 	0.9916	0.08335	0.88705	0.324
Mof_C 	C 	0.82476	0.24755	0.07993	-0.1
Mof_C 	C 	0.59766	0.08589	0.08539	0.105
Mof_C 	C 	0.18769	0.96428	0.04754	-0.115
Mof_C 	C 	0.59909	0.67945	0.91157	0.307
Mof_C 	C 	0.52481	0.10253	0.02445	0.11
Mof_C 	C 	0.538	0.58335	0.38705	0.322
Mof_C 	C 	0.93542	0.6642	0.86656	-0.127
Mof_C 	C 	0.42638	0.29716	0.41548	0.043
Mof_C 	C 	0.41182	0.14368	0.80548	-0.122
Mof_N 	N 	0.50357	0.26166	0.8062	-0.122
Mof_N 	N 	0.66037	0.34624	0.47242	-0.202
Mof_N 	N 	0.99339	0.02758	0.34624	-0.201
Mof_N 	N 	0.58784	0.1117	0.05322	-0.201
Mof_N 	N 	0.9353	0.55809	0.80971	-0.22
Mof_N 	N 	0.76523	0.3062	0.73834	-0.122
Mof_N 	N 	0.0647	0.44191	0.19029	-0.22
Mof_N 	N 	0.30977	0.1938	0.76166	-0.122
Mof_N 	N 	0.30046	0.44678	0.1117	-0.201
Mof_N 	N 	0.47877	0.14653	0.69573	-0.135
Mof_N 	N 	0.13276	0.09768	0.3858	-0.228
Mof_N 	N 	0.84128	0.07108	0.01296	-0.225
Mof_N 	N 	0.25276	0.3883	0.44678	-0.205
Mof_N 	N 	0.64106	0.94678	0.6117	-0.201
Mof_N 	N 	0.8031	0.94191	0.69029	-0.22
Mof_N 	N 	0.57468	0.57108	0.51296	-0.225
Mof_N 	N 	0.76956	0.1142	0.09768	-0.227
Mof_N 	N 	0.11624	0.40232	0.1142	-0.227
Mof_N 	N 	0.52123	0.85347	0.30427	-0.135
Mof_N 	N 	0.40697	0.35521	0.52345	-0.226
Mof_N 	N 	0.86721	0.47242	0.15376	-0.199
Mof_N 	N 	0.59303	0.64479	0.47655	-0.226
Mof_N 	N 	0.74501	0.19029	0.05809	-0.22
Mof_N 	N 	0.76218	0.02345	0.64479	-0.226
Mof_N 	N 	0.50661	0.69029	0.55809	-0.21
Mof_N 	N 	0.78563	0.14479	0.97655	-0.226
Mof_N 	N 	0.23044	0.8858	0.90232	-0.227
Mof_N 	N 	0.69023	0.8062	0.23834	-0.122
Mof_N 	N 	0.1969	0.05809	0.30971	-0.22
Mof_N 	N 	0.41216	0.8883	0.94678	-0.201
Mof_N 	N 	0.42532	0.42892	0.48704	-0.225
Mof_N 	N 	0.35894	0.05322	0.3883	-0.201
Mof_N 	N 	0.00661	0.97242	0.65376	-0.201
Mof_N 	N 	0.08764	0.48704	0.07108	-0.225
Mof_N 	N 	0.1745	0.30427	0.64653	-0.135
Mof_N 	N 	0.69954	0.55322	0.8883	-0.201
Mof_N 	N 	0.23477	0.6938	0.26166	-0.122
Mof_N 	N 	0.86724	0.90232	0.6142	-0.228
Mof_N 	N 	0.93042	0.47655	0.85521	-0.228
Mof_N 	N 	0.23782	0.97655	0.35521	-0.226
Mof_N 	N 	0.02097	0.84624	0.97242	-0.199
Mof_N 	N 	0.25499	0.80971	0.94191	-0.22
Mof_N 	N 	0.97903	0.15376	0.02758	-0.199
Mof_N 	N 	0.48144	0.3858	0.40232	-0.218
Mof_N 	N 	0.85424	0.98704	0.57108	-0.226
Mof_N 	N 	0.74724	0.6117	0.55322	-0.205
Mof_N 	N 	0.49339	0.30971	0.44191	-0.21
Mof_N 	N 	0.06958	0.52345	0.14479	-0.228
Mof_N 	N 	0.91236	0.51296	0.92892	-0.225
Mof_N 	N 	0.07143	0.23834	0.6938	-0.123
Mof_N 	N 	0.14576	0.01296	0.42892	-0.226
Mof_N 	N 	0.21437	0.85521	0.02345	-0.226
Mof_N 	N 	0.6253	0.19573	0.85347	-0.135
Mof_N 	N 	0.51856	0.6142	0.59768	-0.218
Mof_N 	N 	0.15872	0.92892	0.98704	-0.225
Mof_N 	N 	0.82103	0.35347	0.80427	-0.134
Mof_N 	N 	0.13279	0.52758	0.84624	-0.199
Mof_N 	N 	0.3747	0.80427	0.14653	-0.135
Mof_N 	N 	0.49643	0.73834	0.1938	-0.122
Mof_N 	N 	0.33963	0.65376	0.52758	-0.202
Mof_N 	N 	0.17897	0.64653	0.19573	-0.134
Mof_N 	N 	0.8255	0.69573	0.35347	-0.135
Mof_N 	N 	0.92857	0.76166	0.3062	-0.123
Mof_N 	N 	0.88376	0.59768	0.8858	-0.227
Mof_O 	O 	0.1441	0.72486	0.00914	-0.583
Mof_O 	O 	0.27083	0.21209	0.43245	-0.297
Mof_O 	O 	0.36637	0.04161	0.78365	-0.485
Mof_O 	O 	0.04757	0.28746	0.9758	-0.601
Mof_O 	O 	0.69163	0.45839	0.71635	-0.486
Mof_O 	O 	0.41763	0.0989	0.16284	-0.265
Mof_O 	O 	0.29672	0.43245	0.28791	-0.24
Mof_O 	O 	0.59202	0.71635	0.04161	-0.485
Mof_O 	O 	0.49982	0.4474	0.59596	-0.43
Mof_O 	O 	0.32156	0.71832	0.09156	-0.429
Mof_O 	O 	0.71635	0.11892	0.51578	-0.484
Mof_O 	O 	0.15002	0.21635	0.54161	-0.482
Mof_O 	O 	0.31956	0.98774	0.86774	-0.601
Mof_O 	O 	0.12524	0.50733	0.36759	-0.583
Mof_O 	O 	0.71346	0.72501	0.08547	-0.428
Mof_O 	O 	0.32496	0.48774	0.36774	-0.599
Mof_O 	O 	0.3073	0.36774	0.01226	-0.601
Mof_O 	O 	0.30837	0.54161	0.28365	-0.486
Mof_O 	O 	0.41312	0.90844	0.21832	-0.429
Mof_O 	O 	0.72917	0.78791	0.56755	-0.297
Mof_O 	O 	0.6219	0.22486	0.50914	-0.588
Mof_O 	O 	0.04318	0.0526	0.90404	-0.431
Mof_O 	O 	0.03988	0.59156	0.28168	-0.426
Mof_O 	O 	0.36856	0.21832	0.59156	-0.428
Mof_O 	O 	0.97216	0.92412	0.81196	-0.286
Mof_O 	O 	0.1873	0.13226	0.48774	-0.599
Mof_O 	O 	0.48347	0.33716	0.0989	-0.265
Mof_O 	O 	0.3781	0.77514	0.49086	-0.588
Mof_O 	O 	0.10372	0.68804	0.92412	-0.287
Mof_O 	O 	0.40798	0.28365	0.95839	-0.485
Mof_O 	O 	0.4228	0.90781	0.44159	-0.419
Mof_O 	O 	0.1394	0.84757	0.41063	-0.457
Mof_O 	O 	0.71407	0.42099	0.25347	-0.267
Mof_O 	O 	0.49283	0.63241	0.00733	-0.581
Mof_O 	O 	0.34753	0.15244	0.5905	-0.443
Mof_O 	O 	0.63144	0.78168	0.40844	-0.428
Mof_O 	O 	0.79893	0.91453	0.22501	-0.428
Mof_O 	O 	0.66497	0.5242	0.28746	-0.6
Mof_O 	O 	0.68044	0.01226	0.13226	-0.601
Mof_O 	O 	0.67844	0.28168	0.90844	-0.429
Mof_O 	O 	0.41953	0.16284	0.4011	-0.272
Mof_O 	O 	0.85105	0.38108	0.98422	-0.472
Mof_O 	O 	0.96754	0.74653	0.92099	-0.265
Mof_O 	O 	0.50003	0.9095	0.15244	-0.446
Mof_O 	O 	0.33503	0.4758	0.71254	-0.6
Mof_O 	O 	0.28593	0.57901	0.74653	-0.267
Mof_O 	O 	0.09578	0.40404	0.9474	-0.43
Mof_O 	O 	0.02394	0.77499	0.41453	-0.422
Mof_O 	O 	0.1024	0.34757	0.91063	-0.462
Mof_O 	O 	0.13561	0.44159	0.59219	-0.418
Mof_O 	O 	0.59047	0.34756	0.9095	-0.446
Mof_O 	O 	0.2722	0.59219	0.05841	-0.419
Mof_O 	O 	0.90422	0.59596	0.0526	-0.43
Mof_O 	O 	0.48292	0.93245	0.78791	-0.289
Mof_O 	O 	0.8976	0.65243	0.08937	-0.462
Mof_O 	O 	0.23213	0.48422	0.61892	-0.473
Mof_O 	O 	0.63257	0.86759	0.49267	-0.579
Mof_O 	O 	0.33061	0.94159	0.09219	-0.419
Mof_O 	O 	0.83527	0.01578	0.88108	-0.472
Mof_O 	O 	0.81083	0.21254	0.5242	-0.607
Mof_O 	O 	0.40953	0.65244	0.0905	-0.446
Mof_O 	O 	0.76787	0.51578	0.38108	-0.473
Mof_O 	O 	0.58047	0.83716	0.5989	-0.272
Mof_O 	O 	0.05278	0.90404	0.4474	-0.428
Mof_O 	O 	0.66939	0.05841	0.90781	-0.419
Mof_O 	O 	0.97606	0.22501	0.58547	-0.422
Mof_O 	O 	0.06197	0.5905	0.34756	-0.442
Mof_O 	O 	0.94722	0.09596	0.5526	-0.428
Mof_O 	O 	0.20107	0.08547	0.77499	-0.428
Mof_O 	O 	0.49984	0.00733	0.86759	-0.581
Mof_O 	O 	0.02337	0.0242	0.78746	-0.602
Mof_O 	O 	0.55003	0.58937	0.34757	-0.461
Mof_O 	O 	0.84676	0.00914	0.77514	-0.583
Mof_O 	O 	0.15324	0.99086	0.22486	-0.583
Mof_O 	O 	0.02784	0.07588	0.18804	-0.286
Mof_O 	O 	0.79176	0.42412	0.31196	-0.294
Mof_O 	O 	0.11147	0.92099	0.75347	-0.267
Mof_O 	O 	0.65247	0.84756	0.4095	-0.443
Mof_O 	O 	0.97663	0.9758	0.21254	-0.602
Mof_O 	O 	0.8606	0.15243	0.58937	-0.457
Mof_O 	O 	0.41537	0.28791	0.06755	-0.288
Mof_O 	O 	0.50018	0.5526	0.40404	-0.43
Mof_O 	O 	0.44997	0.41063	0.65243	-0.461
Mof_O 	O 	0.86439	0.55841	0.40781	-0.418
Mof_O 	O 	0.6927	0.63226	0.98774	-0.601
Mof_O 	O 	0.16473	0.98422	0.11892	-0.472
Mof_O 	O 	0.14895	0.61892	0.01578	-0.472
Mof_O 	O 	0.20824	0.57588	0.68804	-0.294
Mof_O 	O 	0.63363	0.95839	0.21635	-0.485
Mof_O 	O 	0.93803	0.4095	0.65244	-0.442
Mof_O 	O 	0.70328	0.56755	0.71209	-0.24
Mof_O 	O 	0.28365	0.88108	0.48422	-0.484
Mof_O 	O 	0.58463	0.71209	0.93245	-0.288
Mof_O 	O 	0.5772	0.09219	0.55841	-0.419
Mof_O 	O 	0.89628	0.31196	0.07588	-0.287
Mof_O 	O 	0.67504	0.51226	0.63226	-0.599
Mof_O 	O 	0.58237	0.9011	0.83716	-0.265
Mof_O 	O 	0.56153	0.41453	0.72501	-0.428
Mof_O 	O 	0.51708	0.06755	0.21209	-0.289
Mof_O 	O 	0.96012	0.40844	0.71832	-0.426
Mof_O 	O 	0.50016	0.99267	0.13241	-0.581
Mof_O 	O 	0.58688	0.09156	0.78168	-0.429
Mof_O 	O 	0.95682	0.9474	0.09596	-0.431
Mof_O 	O 	0.86896	0.50914	0.27514	-0.583
Mof_O 	O 	0.49997	0.0905	0.84756	-0.446
Mof_O 	O 	0.01303	0.08937	0.84757	-0.463
Mof_O 	O 	0.03246	0.25347	0.07901	-0.265
Mof_O 	O 	0.8127	0.86774	0.51226	-0.599
Mof_O 	O 	0.51653	0.66284	0.9011	-0.265
Mof_O 	O 	0.87476	0.49267	0.63241	-0.583
Mof_O 	O 	0.7278	0.40781	0.94159	-0.419
Mof_O 	O 	0.36743	0.13241	0.50733	-0.579
Mof_O 	O 	0.13104	0.49086	0.72486	-0.583
Mof_O 	O 	0.98697	0.91063	0.15243	-0.463
Mof_O 	O 	0.84998	0.78365	0.45839	-0.482
Mof_O 	O 	0.18917	0.78746	0.4758	-0.607
Mof_O 	O 	0.50717	0.36759	0.99267	-0.581
Mof_O 	O 	0.8559	0.27514	0.99086	-0.583
Mof_O 	O 	0.28654	0.27499	0.91453	-0.428
Mof_O 	O 	0.43847	0.58547	0.27499	-0.428
Mof_O 	O 	0.95243	0.71254	0.0242	-0.601
Mof_O 	O 	0.88853	0.07901	0.24653	-0.267
_end
