data_functionalizedCrystal
_audit_creation_method	'EQeq! by Chris Wilmer'
_symmetry_space_group_name_H-M	'P1'
_symmetry_Int_Tables_number	1
_symmetry_cell_setting	triclinic
loop_
_symmetry_equiv_pos_as_xyz
  x,y,z
_cell_length_a	14.214
_cell_length_b	21.157
_cell_length_c	24.013
_cell_angle_alpha	90
_cell_angle_beta	90
_cell_angle_gamma	90
loop_
_atom_site_label
_atom_site_type_symbol
_atom_site_fract_x
_atom_site_fract_y
_atom_site_fract_z
_atom_site_charge
Mof_Cu	Cu	0.86983	0.45425	0.03524	0.904
Mof_Cu	Cu	0.92958	0.80212	0.17785	0.929
Mof_Cu	Cu	0.36983	0.04575	0.46476	0.904
Mof_Cu	Cu	0.42958	0.69788	0.32215	0.929
Mof_H 	H 	0.8717	0.5631	0.1219	0.011
Mof_H 	H 	0.8883	0.5716	0.2185	0.094
Mof_H 	H 	0.8929	0.48	0.2709	0.019
Mof_H 	H 	0.8819	0.382	0.2279	0.083
Mof_H 	H 	0.8648	0.291	0.1763	0.091
Mof_H 	H 	0.8593	0.2264	0.0199	0.094
Mof_H 	H 	0.8733	0.2593	0.9251	0.083
Mof_H 	H 	0.8865	0.3035	0.8392	0.024
Mof_H 	H 	0.8738	0.4121	0.8295	0.1
Mof_H 	H 	0.8619	0.4713	0.9036	0.004
Mof_H 	H 	0.8187	0.1983	0.2001	0.015
Mof_H 	H 	0.9111	0.1374	0.0541	0.014
Mof_H 	H 	0.8221	0.0979	0.2331	0.113
Mof_H 	H 	0.9109	0.0371	0.0866	0.11
Mof_H 	H 	0.8887	0.9362	0.1179	0.017
Mof_H 	H 	0.8806	0.8991	0.2755	-0.002
Mof_H 	H 	0.8781	0.6605	0.0571	0.035
Mof_H 	H 	0.9046	0.6397	0.8924	0.027
Mof_H 	H 	0.8819	0.7471	0.8797	0.076
Mof_H 	H 	0.872	0.8134	0.9595	0.037
Mof_H 	H 	0.9613	0.6136	0.3154	0.038
Mof_H 	H 	0.7254	0.7108	0.2862	0.043
Mof_H 	H 	0.8837	0.5559	0.3843	0.072
Mof_H 	H 	0.7264	0.5726	0.4001	0.035
Mof_H 	H 	0.3717	0.9369	0.3781	0.01
Mof_H 	H 	0.3883	0.9284	0.2815	0.093
Mof_H 	H 	0.3929	0.02	0.2291	0.019
Mof_H 	H 	0.3819	0.118	0.2721	0.083
Mof_H 	H 	0.3648	0.209	0.3237	0.091
Mof_H 	H 	0.3593	0.2736	0.4801	0.095
Mof_H 	H 	0.3733	0.2407	0.5749	0.083
Mof_H 	H 	0.3865	0.1965	0.6608	0.024
Mof_H 	H 	0.3738	0.0879	0.6705	0.1
Mof_H 	H 	0.3619	0.0287	0.5964	0.004
Mof_H 	H 	0.3187	0.3017	0.2999	0.015
Mof_H 	H 	0.4111	0.3626	0.4459	0.014
Mof_H 	H 	0.3221	0.4021	0.2669	0.113
Mof_H 	H 	0.4109	0.4629	0.4134	0.11
Mof_H 	H 	0.3887	0.5638	0.3821	0.017
Mof_H 	H 	0.3806	0.6009	0.2245	-0.002
Mof_H 	H 	0.3781	0.8395	0.4429	0.035
Mof_H 	H 	0.4046	0.8603	0.6076	0.027
Mof_H 	H 	0.3819	0.7529	0.6203	0.076
Mof_H 	H 	0.372	0.6866	0.5405	0.037
Mof_H 	H 	0.4613	0.8864	0.1846	0.039
Mof_H 	H 	0.2254	0.7892	0.2138	0.043
Mof_H 	H 	0.3837	0.9441	0.1157	0.072
Mof_H 	H 	0.2264	0.9274	0.0999	0.035
Mof_C 	C 	0.8737	0.5266	0.1435	0.075
Mof_C 	C 	0.8836	0.5322	0.2015	-0.127
Mof_C 	C 	0.8863	0.4776	0.2325	0.057
Mof_C 	C 	0.8791	0.4189	0.207	-0.123
Mof_C 	C 	0.8678	0.4168	0.1504	0.056
Mof_C 	C 	0.8647	0.3595	0.1171	0.079
Mof_C 	C 	0.8641	0.2975	0.138	-0.157
Mof_C 	C 	0.8624	0.2458	0.1026	0.122
Mof_C 	C 	0.8614	0.2594	0.0454	-0.154
Mof_C 	C 	0.8635	0.3219	0.0262	0.085
Mof_C 	C 	0.8653	0.3427	0.9686	0.052
Mof_C 	C 	0.8726	0.303	0.921	-0.124
Mof_C 	C 	0.8785	0.3289	0.8704	0.076
Mof_C 	C 	0.8726	0.3935	0.8646	-0.164
Mof_C 	C 	0.8654	0.4277	0.9086	0.11
Mof_C 	C 	0.8614	0.1798	0.1223	-0.091
Mof_C 	C 	0.8372	0.1657	0.1765	0.066
Mof_C 	C 	0.8912	0.1298	0.0903	0.076
Mof_C 	C 	0.8395	0.1058	0.1965	-0.187
Mof_C 	C 	0.8925	0.07	0.1098	-0.195
Mof_C 	C 	0.8668	0.058	0.1636	0.183
Mof_C 	C 	0.8848	0.9406	0.1563	0.101
Mof_C 	C 	0.8795	0.9215	0.2422	0.111
Mof_C 	C 	0.9052	0.5711	0.9834	0.343
Mof_C 	C 	0.8919	0.6397	0.9768	-0.129
Mof_C 	C 	0.8813	0.6779	0.0216	0.05
Mof_C 	C 	0.8951	0.6658	0.923	0.045
Mof_C 	C 	0.8841	0.7299	0.9154	-0.102
Mof_C 	C 	0.8763	0.7698	0.9637	0.032
Mof_C 	C 	0.8751	0.744	0.0147	-0.099
Mof_C 	C 	0.8717	0.786	0.0668	0.336
Mof_C 	C 	0.9042	0.7105	0.2531	0.341
Mof_C 	C 	0.8526	0.6696	0.294	-0.106
Mof_C 	C 	0.8984	0.622	0.323	0.022
Mof_C 	C 	0.7575	0.6789	0.3048	0.033
Mof_C 	C 	0.8513	0.5862	0.3639	-0.098
Mof_C 	C 	0.7578	0.5962	0.3732	0.029
Mof_C 	C 	0.7093	0.6413	0.3429	-0.1
Mof_C 	C 	0.605	0.6525	0.3516	0.327
Mof_C 	C 	0.3737	0.9734	0.3565	0.075
Mof_C 	C 	0.3836	0.9678	0.2985	-0.127
Mof_C 	C 	0.3863	0.0224	0.2675	0.058
Mof_C 	C 	0.3791	0.0811	0.293	-0.123
Mof_C 	C 	0.3678	0.0832	0.3496	0.057
Mof_C 	C 	0.3647	0.1405	0.3829	0.079
Mof_C 	C 	0.3641	0.2025	0.362	-0.157
Mof_C 	C 	0.3624	0.2542	0.3974	0.123
Mof_C 	C 	0.3614	0.2406	0.4546	-0.155
Mof_C 	C 	0.3635	0.1781	0.4738	0.086
Mof_C 	C 	0.3653	0.1573	0.5314	0.051
Mof_C 	C 	0.3726	0.197	0.579	-0.124
Mof_C 	C 	0.3785	0.1711	0.6296	0.075
Mof_C 	C 	0.3726	0.1065	0.6354	-0.164
Mof_C 	C 	0.3654	0.0723	0.5914	0.11
Mof_C 	C 	0.3614	0.3202	0.3777	-0.092
Mof_C 	C 	0.3372	0.3343	0.3235	0.067
Mof_C 	C 	0.3912	0.3702	0.4097	0.077
Mof_C 	C 	0.3395	0.3942	0.3035	-0.187
Mof_C 	C 	0.3925	0.43	0.3902	-0.195
Mof_C 	C 	0.3668	0.442	0.3364	0.184
Mof_C 	C 	0.3848	0.5594	0.3437	0.101
Mof_C 	C 	0.3795	0.5785	0.2578	0.111
Mof_C 	C 	0.4052	0.9289	0.5166	0.343
Mof_C 	C 	0.3919	0.8603	0.5232	-0.129
Mof_C 	C 	0.3813	0.8221	0.4784	0.051
Mof_C 	C 	0.3951	0.8342	0.577	0.045
Mof_C 	C 	0.3841	0.7701	0.5846	-0.102
Mof_C 	C 	0.3763	0.7302	0.5363	0.03
Mof_C 	C 	0.3751	0.756	0.4853	-0.099
Mof_C 	C 	0.3717	0.714	0.4332	0.336
Mof_C 	C 	0.4042	0.7895	0.2469	0.34
Mof_C 	C 	0.3526	0.8304	0.206	-0.106
Mof_C 	C 	0.3984	0.878	0.177	0.022
Mof_C 	C 	0.2575	0.8211	0.1952	0.033
Mof_C 	C 	0.3513	0.9138	0.1361	-0.098
Mof_C 	C 	0.2578	0.9038	0.1268	0.029
Mof_C 	C 	0.2093	0.8587	0.1571	-0.1
Mof_C 	C 	0.105	0.8475	0.1484	0.327
Mof_N 	N 	0.8668	0.4695	0.1181	-0.211
Mof_N 	N 	0.8625	0.3683	0.0623	-0.23
Mof_N 	N 	0.8625	0.4062	0.9616	-0.217
Mof_N 	N 	0.873	0.9951	0.1843	-0.123
Mof_N 	N 	0.8673	0.9827	0.2402	-0.095
Mof_N 	N 	0.89	0.8942	0.1937	-0.219
Mof_N 	N 	0.3668	0.0305	0.3819	-0.21
Mof_N 	N 	0.3625	0.1317	0.4377	-0.23
Mof_N 	N 	0.3625	0.0938	0.5384	-0.217
Mof_N 	N 	0.373	0.5049	0.3157	-0.123
Mof_N 	N 	0.3673	0.5173	0.2598	-0.095
Mof_N 	N 	0.39	0.6058	0.3063	-0.219
Mof_O 	O 	0.8502	0.542	0.0167	-0.43
Mof_O 	O 	0.9651	0.5436	0.9526	-0.356
Mof_O 	O 	0.8905	0.7587	0.112	-0.394
Mof_O 	O 	0.8518	0.8429	0.0615	-0.273
Mof_O 	O 	0.8673	0.7624	0.2414	-0.396
Mof_O 	O 	0.9714	0.687	0.2287	-0.297
Mof_O 	O 	0.5658	0.6862	0.3141	-0.386
Mof_O 	O 	0.5649	0.6293	0.3912	-0.29
Mof_O 	O 	0.3502	0.958	0.4833	-0.429
Mof_O 	O 	0.4651	0.9564	0.5474	-0.356
Mof_O 	O 	0.3905	0.7413	0.388	-0.393
Mof_O 	O 	0.3518	0.6571	0.4385	-0.272
Mof_O 	O 	0.3673	0.7376	0.2586	-0.396
Mof_O 	O 	0.4714	0.813	0.2713	-0.297
Mof_O 	O 	0.0658	0.8138	0.1859	-0.386
Mof_O 	O 	0.0649	0.8707	0.1088	-0.29
Mof_Cu	Cu	0.63017	0.54575	0.03524	0.903
Mof_Cu	Cu	0.57042	0.19788	0.17785	0.928
Mof_Cu	Cu	0.13017	0.95425	0.46476	0.903
Mof_Cu	Cu	0.07042	0.30212	0.32215	0.928
Mof_H 	H 	0.6283	0.4369	0.1219	0.01
Mof_H 	H 	0.6117	0.4284	0.2185	0.093
Mof_H 	H 	0.6071	0.52	0.2709	0.019
Mof_H 	H 	0.6181	0.618	0.2279	0.083
Mof_H 	H 	0.6352	0.709	0.1763	0.091
Mof_H 	H 	0.6407	0.7736	0.0199	0.095
Mof_H 	H 	0.6267	0.7407	0.9251	0.083
Mof_H 	H 	0.6135	0.6965	0.8392	0.024
Mof_H 	H 	0.6262	0.5879	0.8295	0.1
Mof_H 	H 	0.6381	0.5287	0.9036	0.004
Mof_H 	H 	0.6813	0.8017	0.2001	0.015
Mof_H 	H 	0.5889	0.8626	0.0541	0.014
Mof_H 	H 	0.6779	0.9021	0.2331	0.113
Mof_H 	H 	0.5891	0.9629	0.0866	0.11
Mof_H 	H 	0.6113	0.0638	0.1179	0.017
Mof_H 	H 	0.6194	0.1009	0.2755	-0.002
Mof_H 	H 	0.6219	0.3395	0.0571	0.035
Mof_H 	H 	0.5954	0.3603	0.8924	0.027
Mof_H 	H 	0.6181	0.2529	0.8797	0.076
Mof_H 	H 	0.628	0.1866	0.9595	0.037
Mof_H 	H 	0.5387	0.3864	0.3154	0.039
Mof_H 	H 	0.7746	0.2892	0.2862	0.043
Mof_H 	H 	0.6163	0.4441	0.3843	0.072
Mof_H 	H 	0.7736	0.4274	0.4001	0.035
Mof_H 	H 	0.1283	0.0631	0.3781	0.01
Mof_H 	H 	0.1117	0.0716	0.2815	0.092
Mof_H 	H 	0.1071	0.98	0.2291	0.02
Mof_H 	H 	0.1181	0.882	0.2721	0.082
Mof_H 	H 	0.1352	0.791	0.3237	0.091
Mof_H 	H 	0.1407	0.7264	0.4801	0.095
Mof_H 	H 	0.1267	0.7593	0.5749	0.083
Mof_H 	H 	0.1135	0.8035	0.6608	0.024
Mof_H 	H 	0.1262	0.9121	0.6705	0.1
Mof_H 	H 	0.1381	0.9713	0.5964	0.004
Mof_H 	H 	0.1813	0.6983	0.2999	0.015
Mof_H 	H 	0.0889	0.6374	0.4459	0.014
Mof_H 	H 	0.1779	0.5979	0.2669	0.113
Mof_H 	H 	0.0891	0.5371	0.4134	0.11
Mof_H 	H 	0.1113	0.4362	0.3821	0.017
Mof_H 	H 	0.1194	0.3991	0.2245	-0.002
Mof_H 	H 	0.1219	0.1605	0.4429	0.035
Mof_H 	H 	0.0954	0.1397	0.6076	0.027
Mof_H 	H 	0.1181	0.2471	0.6203	0.076
Mof_H 	H 	0.128	0.3134	0.5405	0.037
Mof_H 	H 	0.0387	0.1136	0.1846	0.039
Mof_H 	H 	0.2746	0.2108	0.2138	0.043
Mof_H 	H 	0.1163	0.0559	0.1157	0.072
Mof_H 	H 	0.2736	0.0726	0.0999	0.035
Mof_C 	C 	0.6263	0.4734	0.1435	0.075
Mof_C 	C 	0.6164	0.4678	0.2015	-0.127
Mof_C 	C 	0.6137	0.5224	0.2325	0.057
Mof_C 	C 	0.6209	0.5811	0.207	-0.123
Mof_C 	C 	0.6322	0.5832	0.1504	0.056
Mof_C 	C 	0.6353	0.6405	0.1171	0.079
Mof_C 	C 	0.6359	0.7025	0.138	-0.157
Mof_C 	C 	0.6376	0.7542	0.1026	0.122
Mof_C 	C 	0.6386	0.7406	0.0454	-0.154
Mof_C 	C 	0.6365	0.6781	0.0262	0.086
Mof_C 	C 	0.6347	0.6573	0.9686	0.051
Mof_C 	C 	0.6274	0.697	0.921	-0.124
Mof_C 	C 	0.6215	0.6711	0.8704	0.075
Mof_C 	C 	0.6274	0.6065	0.8646	-0.164
Mof_C 	C 	0.6346	0.5723	0.9086	0.11
Mof_C 	C 	0.6386	0.8202	0.1223	-0.092
Mof_C 	C 	0.6628	0.8343	0.1765	0.067
Mof_C 	C 	0.6088	0.8702	0.0903	0.077
Mof_C 	C 	0.6605	0.8942	0.1965	-0.187
Mof_C 	C 	0.6075	0.93	0.1098	-0.195
Mof_C 	C 	0.6332	0.942	0.1636	0.184
Mof_C 	C 	0.6152	0.0594	0.1563	0.101
Mof_C 	C 	0.6205	0.0785	0.2422	0.111
Mof_C 	C 	0.5948	0.4289	0.9834	0.343
Mof_C 	C 	0.6081	0.3603	0.9768	-0.129
Mof_C 	C 	0.6187	0.3221	0.0216	0.05
Mof_C 	C 	0.6049	0.3342	0.923	0.045
Mof_C 	C 	0.6159	0.2701	0.9154	-0.102
Mof_C 	C 	0.6237	0.2302	0.9637	0.031
Mof_C 	C 	0.6249	0.256	0.0147	-0.099
Mof_C 	C 	0.6283	0.214	0.0668	0.336
Mof_C 	C 	0.5958	0.2895	0.2531	0.34
Mof_C 	C 	0.6474	0.3304	0.294	-0.106
Mof_C 	C 	0.6016	0.378	0.323	0.022
Mof_C 	C 	0.7425	0.3211	0.3048	0.033
Mof_C 	C 	0.6487	0.4138	0.3639	-0.098
Mof_C 	C 	0.7422	0.4038	0.3732	0.029
Mof_C 	C 	0.7907	0.3587	0.3429	-0.101
Mof_C 	C 	0.895	0.3475	0.3516	0.327
Mof_C 	C 	0.1263	0.0266	0.3565	0.075
Mof_C 	C 	0.1164	0.0322	0.2985	-0.127
Mof_C 	C 	0.1137	0.9776	0.2675	0.057
Mof_C 	C 	0.1209	0.9189	0.293	-0.123
Mof_C 	C 	0.1322	0.9168	0.3496	0.056
Mof_C 	C 	0.1353	0.8595	0.3829	0.079
Mof_C 	C 	0.1359	0.7975	0.362	-0.157
Mof_C 	C 	0.1376	0.7458	0.3974	0.123
Mof_C 	C 	0.1386	0.7594	0.4546	-0.155
Mof_C 	C 	0.1365	0.8219	0.4738	0.086
Mof_C 	C 	0.1347	0.8427	0.5314	0.051
Mof_C 	C 	0.1274	0.803	0.579	-0.124
Mof_C 	C 	0.1215	0.8289	0.6296	0.075
Mof_C 	C 	0.1274	0.8935	0.6354	-0.164
Mof_C 	C 	0.1346	0.9277	0.5914	0.11
Mof_C 	C 	0.1386	0.6798	0.3777	-0.092
Mof_C 	C 	0.1628	0.6657	0.3235	0.067
Mof_C 	C 	0.1088	0.6298	0.4097	0.077
Mof_C 	C 	0.1605	0.6058	0.3035	-0.187
Mof_C 	C 	0.1075	0.57	0.3902	-0.195
Mof_C 	C 	0.1332	0.558	0.3364	0.184
Mof_C 	C 	0.1152	0.4406	0.3437	0.101
Mof_C 	C 	0.1205	0.4215	0.2578	0.111
Mof_C 	C 	0.0948	0.0711	0.5166	0.343
Mof_C 	C 	0.1081	0.1397	0.5232	-0.129
Mof_C 	C 	0.1187	0.1779	0.4784	0.051
Mof_C 	C 	0.1049	0.1658	0.577	0.045
Mof_C 	C 	0.1159	0.2299	0.5846	-0.102
Mof_C 	C 	0.1237	0.2698	0.5363	0.03
Mof_C 	C 	0.1249	0.244	0.4853	-0.099
Mof_C 	C 	0.1283	0.286	0.4332	0.336
Mof_C 	C 	0.0958	0.2105	0.2469	0.34
Mof_C 	C 	0.1474	0.1696	0.206	-0.106
Mof_C 	C 	0.1016	0.122	0.177	0.022
Mof_C 	C 	0.2425	0.1789	0.1952	0.033
Mof_C 	C 	0.1487	0.0862	0.1361	-0.098
Mof_C 	C 	0.2422	0.0962	0.1268	0.029
Mof_C 	C 	0.2907	0.1413	0.1571	-0.1
Mof_C 	C 	0.395	0.1525	0.1484	0.327
Mof_N 	N 	0.6332	0.5305	0.1181	-0.211
Mof_N 	N 	0.6375	0.6317	0.0623	-0.23
Mof_N 	N 	0.6375	0.5938	0.9616	-0.217
Mof_N 	N 	0.627	0.0049	0.1843	-0.123
Mof_N 	N 	0.6327	0.0173	0.2402	-0.095
Mof_N 	N 	0.61	0.1058	0.1937	-0.219
Mof_N 	N 	0.1332	0.9695	0.3819	-0.211
Mof_N 	N 	0.1375	0.8683	0.4377	-0.23
Mof_N 	N 	0.1375	0.9062	0.5384	-0.217
Mof_N 	N 	0.127	0.4951	0.3157	-0.123
Mof_N 	N 	0.1327	0.4827	0.2598	-0.095
Mof_N 	N 	0.11	0.3942	0.3063	-0.219
Mof_O 	O 	0.6498	0.458	0.0167	-0.429
Mof_O 	O 	0.5349	0.4564	0.9526	-0.356
Mof_O 	O 	0.6095	0.2413	0.112	-0.393
Mof_O 	O 	0.6482	0.1571	0.0615	-0.272
Mof_O 	O 	0.6327	0.2376	0.2414	-0.396
Mof_O 	O 	0.5286	0.313	0.2287	-0.297
Mof_O 	O 	0.9342	0.3138	0.3141	-0.387
Mof_O 	O 	0.9351	0.3707	0.3912	-0.29
Mof_O 	O 	0.1498	0.042	0.4833	-0.429
Mof_O 	O 	0.0349	0.0436	0.5474	-0.356
Mof_O 	O 	0.1095	0.2587	0.388	-0.393
Mof_O 	O 	0.1482	0.3429	0.4385	-0.272
Mof_O 	O 	0.1327	0.2624	0.2586	-0.395
Mof_O 	O 	0.0286	0.187	0.2713	-0.297
Mof_O 	O 	0.4342	0.1862	0.1859	-0.386
Mof_O 	O 	0.4351	0.1293	0.1088	-0.29
Mof_Cu	Cu	0.13017	0.54575	0.96476	0.903
Mof_Cu	Cu	0.07042	0.19788	0.82215	0.928
Mof_Cu	Cu	0.63017	0.95425	0.53524	0.903
Mof_Cu	Cu	0.57042	0.30212	0.67785	0.928
Mof_H 	H 	0.1283	0.4369	0.8781	0.01
Mof_H 	H 	0.1117	0.4284	0.7815	0.093
Mof_H 	H 	0.1071	0.52	0.7291	0.019
Mof_H 	H 	0.1181	0.618	0.7721	0.083
Mof_H 	H 	0.1352	0.709	0.8237	0.091
Mof_H 	H 	0.1407	0.7736	0.9801	0.094
Mof_H 	H 	0.1267	0.7407	0.0749	0.083
Mof_H 	H 	0.1135	0.6965	0.1608	0.024
Mof_H 	H 	0.1262	0.5879	0.1705	0.1
Mof_H 	H 	0.1381	0.5287	0.0964	0.004
Mof_H 	H 	0.1813	0.8017	0.7999	0.015
Mof_H 	H 	0.0889	0.8626	0.9459	0.014
Mof_H 	H 	0.1779	0.9021	0.7669	0.113
Mof_H 	H 	0.0891	0.9629	0.9134	0.11
Mof_H 	H 	0.1113	0.0638	0.8821	0.017
Mof_H 	H 	0.1194	0.1009	0.7245	-0.002
Mof_H 	H 	0.1219	0.3395	0.9429	0.035
Mof_H 	H 	0.0954	0.3603	0.1076	0.027
Mof_H 	H 	0.1181	0.2529	0.1203	0.076
Mof_H 	H 	0.128	0.1866	0.0405	0.037
Mof_H 	H 	0.0387	0.3864	0.6846	0.038
Mof_H 	H 	0.2746	0.2892	0.7138	0.043
Mof_H 	H 	0.1163	0.4441	0.6157	0.072
Mof_H 	H 	0.2736	0.4274	0.5999	0.035
Mof_H 	H 	0.6283	0.0631	0.6219	0.01
Mof_H 	H 	0.6117	0.0716	0.7185	0.093
Mof_H 	H 	0.6071	0.98	0.7709	0.019
Mof_H 	H 	0.6181	0.882	0.7279	0.083
Mof_H 	H 	0.6352	0.791	0.6763	0.091
Mof_H 	H 	0.6407	0.7264	0.5199	0.095
Mof_H 	H 	0.6267	0.7593	0.4251	0.083
Mof_H 	H 	0.6135	0.8035	0.3392	0.024
Mof_H 	H 	0.6262	0.9121	0.3295	0.1
Mof_H 	H 	0.6381	0.9713	0.4036	0.004
Mof_H 	H 	0.6813	0.6983	0.7001	0.015
Mof_H 	H 	0.5889	0.6374	0.5541	0.014
Mof_H 	H 	0.6779	0.5979	0.7331	0.113
Mof_H 	H 	0.5891	0.5371	0.5866	0.11
Mof_H 	H 	0.6113	0.4362	0.6179	0.017
Mof_H 	H 	0.6194	0.3991	0.7755	-0.002
Mof_H 	H 	0.6219	0.1605	0.5571	0.035
Mof_H 	H 	0.5954	0.1397	0.3924	0.027
Mof_H 	H 	0.6181	0.2471	0.3797	0.076
Mof_H 	H 	0.628	0.3134	0.4595	0.037
Mof_H 	H 	0.5387	0.1136	0.8154	0.039
Mof_H 	H 	0.7746	0.2108	0.7862	0.043
Mof_H 	H 	0.6163	0.0559	0.8843	0.072
Mof_H 	H 	0.7736	0.0726	0.9001	0.035
Mof_C 	C 	0.1263	0.4734	0.8565	0.075
Mof_C 	C 	0.1164	0.4678	0.7985	-0.127
Mof_C 	C 	0.1137	0.5224	0.7675	0.057
Mof_C 	C 	0.1209	0.5811	0.793	-0.123
Mof_C 	C 	0.1322	0.5832	0.8496	0.056
Mof_C 	C 	0.1353	0.6405	0.8829	0.079
Mof_C 	C 	0.1359	0.7025	0.862	-0.157
Mof_C 	C 	0.1376	0.7542	0.8974	0.122
Mof_C 	C 	0.1386	0.7406	0.9546	-0.154
Mof_C 	C 	0.1365	0.6781	0.9738	0.085
Mof_C 	C 	0.1347	0.6573	0.0314	0.052
Mof_C 	C 	0.1274	0.697	0.079	-0.124
Mof_C 	C 	0.1215	0.6711	0.1296	0.076
Mof_C 	C 	0.1274	0.6065	0.1354	-0.164
Mof_C 	C 	0.1346	0.5723	0.0914	0.11
Mof_C 	C 	0.1386	0.8202	0.8777	-0.091
Mof_C 	C 	0.1628	0.8343	0.8235	0.066
Mof_C 	C 	0.1088	0.8702	0.9097	0.076
Mof_C 	C 	0.1605	0.8942	0.8035	-0.187
Mof_C 	C 	0.1075	0.93	0.8902	-0.195
Mof_C 	C 	0.1332	0.942	0.8364	0.183
Mof_C 	C 	0.1152	0.0594	0.8437	0.101
Mof_C 	C 	0.1205	0.0785	0.7578	0.111
Mof_C 	C 	0.0948	0.4289	0.0166	0.343
Mof_C 	C 	0.1081	0.3603	0.0232	-0.129
Mof_C 	C 	0.1187	0.3221	0.9784	0.05
Mof_C 	C 	0.1049	0.3342	0.077	0.045
Mof_C 	C 	0.1159	0.2701	0.0846	-0.102
Mof_C 	C 	0.1237	0.2302	0.0363	0.032
Mof_C 	C 	0.1249	0.256	0.9853	-0.099
Mof_C 	C 	0.1283	0.214	0.9332	0.336
Mof_C 	C 	0.0958	0.2895	0.7469	0.341
Mof_C 	C 	0.1474	0.3304	0.706	-0.106
Mof_C 	C 	0.1016	0.378	0.677	0.022
Mof_C 	C 	0.2425	0.3211	0.6952	0.033
Mof_C 	C 	0.1487	0.4138	0.6361	-0.098
Mof_C 	C 	0.2422	0.4038	0.6268	0.029
Mof_C 	C 	0.2907	0.3587	0.6571	-0.1
Mof_C 	C 	0.395	0.3475	0.6484	0.327
Mof_C 	C 	0.6263	0.0266	0.6435	0.075
Mof_C 	C 	0.6164	0.0322	0.7015	-0.127
Mof_C 	C 	0.6137	0.9776	0.7325	0.058
Mof_C 	C 	0.6209	0.9189	0.707	-0.123
Mof_C 	C 	0.6322	0.9168	0.6504	0.057
Mof_C 	C 	0.6353	0.8595	0.6171	0.079
Mof_C 	C 	0.6359	0.7975	0.638	-0.157
Mof_C 	C 	0.6376	0.7458	0.6026	0.123
Mof_C 	C 	0.6386	0.7594	0.5454	-0.155
Mof_C 	C 	0.6365	0.8219	0.5262	0.086
Mof_C 	C 	0.6347	0.8427	0.4686	0.051
Mof_C 	C 	0.6274	0.803	0.421	-0.124
Mof_C 	C 	0.6215	0.8289	0.3704	0.075
Mof_C 	C 	0.6274	0.8935	0.3646	-0.164
Mof_C 	C 	0.6346	0.9277	0.4086	0.11
Mof_C 	C 	0.6386	0.6798	0.6223	-0.092
Mof_C 	C 	0.6628	0.6657	0.6765	0.067
Mof_C 	C 	0.6088	0.6298	0.5903	0.077
Mof_C 	C 	0.6605	0.6058	0.6965	-0.187
Mof_C 	C 	0.6075	0.57	0.6098	-0.195
Mof_C 	C 	0.6332	0.558	0.6636	0.184
Mof_C 	C 	0.6152	0.4406	0.6563	0.101
Mof_C 	C 	0.6205	0.4215	0.7422	0.111
Mof_C 	C 	0.5948	0.0711	0.4834	0.343
Mof_C 	C 	0.6081	0.1397	0.4768	-0.129
Mof_C 	C 	0.6187	0.1779	0.5216	0.051
Mof_C 	C 	0.6049	0.1658	0.423	0.045
Mof_C 	C 	0.6159	0.2299	0.4154	-0.102
Mof_C 	C 	0.6237	0.2698	0.4637	0.03
Mof_C 	C 	0.6249	0.244	0.5147	-0.099
Mof_C 	C 	0.6283	0.286	0.5668	0.336
Mof_C 	C 	0.5958	0.2105	0.7531	0.34
Mof_C 	C 	0.6474	0.1696	0.794	-0.106
Mof_C 	C 	0.6016	0.122	0.823	0.022
Mof_C 	C 	0.7425	0.1789	0.8048	0.033
Mof_C 	C 	0.6487	0.0862	0.8639	-0.098
Mof_C 	C 	0.7422	0.0962	0.8732	0.029
Mof_C 	C 	0.7907	0.1413	0.8429	-0.1
Mof_C 	C 	0.895	0.1525	0.8516	0.327
Mof_N 	N 	0.1332	0.5305	0.8819	-0.211
Mof_N 	N 	0.1375	0.6317	0.9377	-0.23
Mof_N 	N 	0.1375	0.5938	0.0384	-0.217
Mof_N 	N 	0.127	0.0049	0.8157	-0.123
Mof_N 	N 	0.1327	0.0173	0.7598	-0.095
Mof_N 	N 	0.11	0.1058	0.8063	-0.219
Mof_N 	N 	0.6332	0.9695	0.6181	-0.21
Mof_N 	N 	0.6375	0.8683	0.5623	-0.23
Mof_N 	N 	0.6375	0.9062	0.4616	-0.217
Mof_N 	N 	0.627	0.4951	0.6843	-0.123
Mof_N 	N 	0.6327	0.4827	0.7402	-0.095
Mof_N 	N 	0.61	0.3942	0.6937	-0.219
Mof_O 	O 	0.1498	0.458	0.9833	-0.43
Mof_O 	O 	0.0349	0.4564	0.0474	-0.356
Mof_O 	O 	0.1095	0.2413	0.888	-0.394
Mof_O 	O 	0.1482	0.1571	0.9385	-0.273
Mof_O 	O 	0.1327	0.2376	0.7586	-0.396
Mof_O 	O 	0.0286	0.313	0.7713	-0.297
Mof_O 	O 	0.4342	0.3138	0.6859	-0.386
Mof_O 	O 	0.4351	0.3707	0.6088	-0.29
Mof_O 	O 	0.6498	0.042	0.5167	-0.429
Mof_O 	O 	0.5349	0.0436	0.4526	-0.356
Mof_O 	O 	0.6095	0.2587	0.612	-0.393
Mof_O 	O 	0.6482	0.3429	0.5615	-0.272
Mof_O 	O 	0.6327	0.2624	0.7414	-0.396
Mof_O 	O 	0.5286	0.187	0.7287	-0.297
Mof_O 	O 	0.9342	0.1862	0.8141	-0.386
Mof_O 	O 	0.9351	0.1293	0.8912	-0.29
Mof_Cu	Cu	0.36983	0.45425	0.96476	0.903
Mof_Cu	Cu	0.42958	0.80212	0.82215	0.928
Mof_Cu	Cu	0.86983	0.04575	0.53524	0.903
Mof_Cu	Cu	0.92958	0.69788	0.67785	0.928
Mof_H 	H 	0.3717	0.5631	0.8781	0.01
Mof_H 	H 	0.3883	0.5716	0.7815	0.093
Mof_H 	H 	0.3929	0.48	0.7291	0.019
Mof_H 	H 	0.3819	0.382	0.7721	0.083
Mof_H 	H 	0.3648	0.291	0.8237	0.091
Mof_H 	H 	0.3593	0.2264	0.9801	0.095
Mof_H 	H 	0.3733	0.2593	0.0749	0.083
Mof_H 	H 	0.3865	0.3035	0.1608	0.024
Mof_H 	H 	0.3738	0.4121	0.1705	0.1
Mof_H 	H 	0.3619	0.4713	0.0964	0.004
Mof_H 	H 	0.3187	0.1983	0.7999	0.015
Mof_H 	H 	0.4111	0.1374	0.9459	0.014
Mof_H 	H 	0.3221	0.0979	0.7669	0.113
Mof_H 	H 	0.4109	0.0371	0.9134	0.11
Mof_H 	H 	0.3887	0.9362	0.8821	0.017
Mof_H 	H 	0.3806	0.8991	0.7245	-0.002
Mof_H 	H 	0.3781	0.6605	0.9429	0.035
Mof_H 	H 	0.4046	0.6397	0.1076	0.027
Mof_H 	H 	0.3819	0.7471	0.1203	0.076
Mof_H 	H 	0.372	0.8134	0.0405	0.037
Mof_H 	H 	0.4613	0.6136	0.6846	0.039
Mof_H 	H 	0.2254	0.7108	0.7138	0.043
Mof_H 	H 	0.3837	0.5559	0.6157	0.072
Mof_H 	H 	0.2264	0.5726	0.5999	0.035
Mof_H 	H 	0.8717	0.9369	0.6219	0.01
Mof_H 	H 	0.8883	0.9284	0.7185	0.092
Mof_H 	H 	0.8929	0.02	0.7709	0.02
Mof_H 	H 	0.8819	0.118	0.7279	0.082
Mof_H 	H 	0.8648	0.209	0.6763	0.091
Mof_H 	H 	0.8593	0.2736	0.5199	0.095
Mof_H 	H 	0.8733	0.2407	0.4251	0.083
Mof_H 	H 	0.8865	0.1965	0.3392	0.024
Mof_H 	H 	0.8738	0.0879	0.3295	0.1
Mof_H 	H 	0.8619	0.0287	0.4036	0.004
Mof_H 	H 	0.8187	0.3017	0.7001	0.015
Mof_H 	H 	0.9111	0.3626	0.5541	0.014
Mof_H 	H 	0.8221	0.4021	0.7331	0.113
Mof_H 	H 	0.9109	0.4629	0.5866	0.11
Mof_H 	H 	0.8887	0.5638	0.6179	0.017
Mof_H 	H 	0.8806	0.6009	0.7755	-0.002
Mof_H 	H 	0.8781	0.8395	0.5571	0.035
Mof_H 	H 	0.9046	0.8603	0.3924	0.027
Mof_H 	H 	0.8819	0.7529	0.3797	0.076
Mof_H 	H 	0.872	0.6866	0.4595	0.037
Mof_H 	H 	0.9613	0.8864	0.8154	0.039
Mof_H 	H 	0.7254	0.7892	0.7862	0.043
Mof_H 	H 	0.8837	0.9441	0.8843	0.072
Mof_H 	H 	0.7264	0.9274	0.9001	0.035
Mof_C 	C 	0.3737	0.5266	0.8565	0.075
Mof_C 	C 	0.3836	0.5322	0.7985	-0.127
Mof_C 	C 	0.3863	0.4776	0.7675	0.057
Mof_C 	C 	0.3791	0.4189	0.793	-0.123
Mof_C 	C 	0.3678	0.4168	0.8496	0.056
Mof_C 	C 	0.3647	0.3595	0.8829	0.079
Mof_C 	C 	0.3641	0.2975	0.862	-0.157
Mof_C 	C 	0.3624	0.2458	0.8974	0.122
Mof_C 	C 	0.3614	0.2594	0.9546	-0.154
Mof_C 	C 	0.3635	0.3219	0.9738	0.086
Mof_C 	C 	0.3653	0.3427	0.0314	0.051
Mof_C 	C 	0.3726	0.303	0.079	-0.124
Mof_C 	C 	0.3785	0.3289	0.1296	0.075
Mof_C 	C 	0.3726	0.3935	0.1354	-0.164
Mof_C 	C 	0.3654	0.4277	0.0914	0.11
Mof_C 	C 	0.3614	0.1798	0.8777	-0.092
Mof_C 	C 	0.3372	0.1657	0.8235	0.067
Mof_C 	C 	0.3912	0.1298	0.9097	0.077
Mof_C 	C 	0.3395	0.1058	0.8035	-0.187
Mof_C 	C 	0.3925	0.07	0.8902	-0.195
Mof_C 	C 	0.3668	0.058	0.8364	0.184
Mof_C 	C 	0.3848	0.9406	0.8437	0.101
Mof_C 	C 	0.3795	0.9215	0.7578	0.111
Mof_C 	C 	0.4052	0.5711	0.0166	0.343
Mof_C 	C 	0.3919	0.6397	0.0232	-0.129
Mof_C 	C 	0.3813	0.6779	0.9784	0.05
Mof_C 	C 	0.3951	0.6658	0.077	0.045
Mof_C 	C 	0.3841	0.7299	0.0846	-0.102
Mof_C 	C 	0.3763	0.7698	0.0363	0.031
Mof_C 	C 	0.3751	0.744	0.9853	-0.099
Mof_C 	C 	0.3717	0.786	0.9332	0.336
Mof_C 	C 	0.4042	0.7105	0.7469	0.34
Mof_C 	C 	0.3526	0.6696	0.706	-0.106
Mof_C 	C 	0.3984	0.622	0.677	0.022
Mof_C 	C 	0.2575	0.6789	0.6952	0.033
Mof_C 	C 	0.3513	0.5862	0.6361	-0.098
Mof_C 	C 	0.2578	0.5962	0.6268	0.029
Mof_C 	C 	0.2093	0.6413	0.6571	-0.101
Mof_C 	C 	0.105	0.6525	0.6484	0.327
Mof_C 	C 	0.8737	0.9734	0.6435	0.075
Mof_C 	C 	0.8836	0.9678	0.7015	-0.127
Mof_C 	C 	0.8863	0.0224	0.7325	0.057
Mof_C 	C 	0.8791	0.0811	0.707	-0.123
Mof_C 	C 	0.8678	0.0832	0.6504	0.056
Mof_C 	C 	0.8647	0.1405	0.6171	0.079
Mof_C 	C 	0.8641	0.2025	0.638	-0.157
Mof_C 	C 	0.8624	0.2542	0.6026	0.123
Mof_C 	C 	0.8614	0.2406	0.5454	-0.155
Mof_C 	C 	0.8635	0.1781	0.5262	0.086
Mof_C 	C 	0.8653	0.1573	0.4686	0.051
Mof_C 	C 	0.8726	0.197	0.421	-0.124
Mof_C 	C 	0.8785	0.1711	0.3704	0.075
Mof_C 	C 	0.8726	0.1065	0.3646	-0.164
Mof_C 	C 	0.8654	0.0723	0.4086	0.11
Mof_C 	C 	0.8614	0.3202	0.6223	-0.092
Mof_C 	C 	0.8372	0.3343	0.6765	0.067
Mof_C 	C 	0.8912	0.3702	0.5903	0.077
Mof_C 	C 	0.8395	0.3942	0.6965	-0.187
Mof_C 	C 	0.8925	0.43	0.6098	-0.195
Mof_C 	C 	0.8668	0.442	0.6636	0.184
Mof_C 	C 	0.8848	0.5594	0.6563	0.101
Mof_C 	C 	0.8795	0.5785	0.7422	0.111
Mof_C 	C 	0.9052	0.9289	0.4834	0.343
Mof_C 	C 	0.8919	0.8603	0.4768	-0.129
Mof_C 	C 	0.8813	0.8221	0.5216	0.051
Mof_C 	C 	0.8951	0.8342	0.423	0.045
Mof_C 	C 	0.8841	0.7701	0.4154	-0.102
Mof_C 	C 	0.8763	0.7302	0.4637	0.03
Mof_C 	C 	0.8751	0.756	0.5147	-0.099
Mof_C 	C 	0.8717	0.714	0.5668	0.336
Mof_C 	C 	0.9042	0.7895	0.7531	0.34
Mof_C 	C 	0.8526	0.8304	0.794	-0.106
Mof_C 	C 	0.8984	0.878	0.823	0.022
Mof_C 	C 	0.7575	0.8211	0.8048	0.033
Mof_C 	C 	0.8513	0.9138	0.8639	-0.098
Mof_C 	C 	0.7578	0.9038	0.8732	0.029
Mof_C 	C 	0.7093	0.8587	0.8429	-0.1
Mof_C 	C 	0.605	0.8475	0.8516	0.327
Mof_N 	N 	0.3668	0.4695	0.8819	-0.211
Mof_N 	N 	0.3625	0.3683	0.9377	-0.23
Mof_N 	N 	0.3625	0.4062	0.0384	-0.217
Mof_N 	N 	0.373	0.9951	0.8157	-0.123
Mof_N 	N 	0.3673	0.9827	0.7598	-0.095
Mof_N 	N 	0.39	0.8942	0.8063	-0.219
Mof_N 	N 	0.8668	0.0305	0.6181	-0.211
Mof_N 	N 	0.8625	0.1317	0.5623	-0.23
Mof_N 	N 	0.8625	0.0938	0.4616	-0.217
Mof_N 	N 	0.873	0.5049	0.6843	-0.123
Mof_N 	N 	0.8673	0.5173	0.7402	-0.095
Mof_N 	N 	0.89	0.6058	0.6937	-0.219
Mof_O 	O 	0.3502	0.542	0.9833	-0.429
Mof_O 	O 	0.4651	0.5436	0.0474	-0.356
Mof_O 	O 	0.3905	0.7587	0.888	-0.393
Mof_O 	O 	0.3518	0.8429	0.9385	-0.272
Mof_O 	O 	0.3673	0.7624	0.7586	-0.396
Mof_O 	O 	0.4714	0.687	0.7713	-0.297
Mof_O 	O 	0.0658	0.6862	0.6859	-0.387
Mof_O 	O 	0.0649	0.6293	0.6088	-0.29
Mof_O 	O 	0.8502	0.958	0.5167	-0.429
Mof_O 	O 	0.9651	0.9564	0.4526	-0.356
Mof_O 	O 	0.8905	0.7413	0.612	-0.393
Mof_O 	O 	0.8518	0.6571	0.5615	-0.272
Mof_O 	O 	0.8673	0.7376	0.7414	-0.395
Mof_O 	O 	0.9714	0.813	0.7287	-0.297
Mof_O 	O 	0.5658	0.8138	0.8141	-0.386
Mof_O 	O 	0.5649	0.8707	0.8912	-0.29
_end
