data_functionalizedCrystal
_audit_creation_method	'EQeq! by Chris Wilmer'
_symmetry_space_group_name_H-M	'P1'
_symmetry_Int_Tables_number	1
_symmetry_cell_setting	triclinic
loop_
_symmetry_equiv_pos_as_xyz
  x,y,z
_cell_length_a	18.639
_cell_length_b	18.639
_cell_length_c	38.614
_cell_angle_alpha	90
_cell_angle_beta	90
_cell_angle_gamma	120
loop_
_atom_site_label
_atom_site_type_symbol
_atom_site_fract_x
_atom_site_fract_y
_atom_site_fract_z
_atom_site_charge
Mof_O 	O 	0.48144	0.37127	0.9967	-0.406
Mof_O 	O 	0.44153	0.41089	0.04401	-0.411
Mof_C 	C 	0.4521	0.3599	0.02694	0.357
Mof_C 	C 	0.2679	0.1791	0.17738	-0.021
Mof_C 	C 	0.4018	0.265	0.07756	-0.042
Mof_H 	H 	0.3919	0.3034	0.0887	0.062
Mof_C 	C 	0.4312	0.2799	0.04398	-0.076
Mof_N 	N 	0.2434	0.2117	0.1193	-0.286
Mof_H 	H 	0.2526	0.2171	0.0973	0.145
Mof_H 	H 	0.2044	0.218	0.1279	0.144
Mof_C 	C 	0.2956	0.1911	0.1425	0.065
Mof_O 	O 	0.14811	0.7046	0.33003	-0.406
Mof_O 	O 	0.1082	0.74422	0.37734	-0.411
Mof_C 	C 	0.11877	0.69323	0.36027	0.357
Mof_C 	C 	0.93457	0.51243	0.51071	-0.021
Mof_C 	C 	0.06847	0.59833	0.41089	-0.043
Mof_H 	H 	0.05857	0.63673	0.42203	0.062
Mof_C 	C 	0.09787	0.61323	0.37731	-0.076
Mof_N 	N 	0.91007	0.54503	0.45263	-0.286
Mof_H 	H 	0.91927	0.55043	0.43063	0.145
Mof_H 	H 	0.87107	0.55133	0.46123	0.144
Mof_C 	C 	0.96227	0.52443	0.47583	0.065
Mof_O 	O 	0.81477	0.03794	0.66337	-0.406
Mof_O 	O 	0.77486	0.07756	0.71068	-0.411
Mof_C 	C 	0.78543	0.02657	0.69361	0.357
Mof_C 	C 	0.60123	0.84577	0.84405	-0.021
Mof_C 	C 	0.73513	0.93167	0.74423	-0.043
Mof_H 	H 	0.72523	0.97007	0.75537	0.062
Mof_C 	C 	0.76453	0.94657	0.71065	-0.075
Mof_N 	N 	0.57673	0.87837	0.78597	-0.286
Mof_H 	H 	0.58593	0.88377	0.76397	0.145
Mof_H 	H 	0.53773	0.88467	0.79457	0.144
Mof_C 	C 	0.62893	0.85777	0.80917	0.064
Mof_O 	O 	0.62873	0.11017	0.9967	-0.407
Mof_O 	O 	0.58911	0.03064	0.04401	-0.412
Mof_C 	C 	0.6401	0.0922	0.02694	0.357
Mof_C 	C 	0.8209	0.0888	0.17738	-0.022
Mof_C 	C 	0.735	0.1368	0.07756	-0.043
Mof_H 	H 	0.6966	0.0885	0.0887	0.061
Mof_C 	C 	0.7201	0.1513	0.04398	-0.077
Mof_N 	N 	0.7883	0.0317	0.1193	-0.287
Mof_H 	H 	0.7829	0.0355	0.0973	0.144
Mof_H 	H 	0.782	0.9864	0.1279	0.142
Mof_C 	C 	0.8089	0.1045	0.1425	0.064
Mof_O 	O 	0.2954	0.4435	0.33003	-0.406
Mof_O 	O 	0.25578	0.36397	0.37734	-0.412
Mof_C 	C 	0.30677	0.42553	0.36027	0.356
Mof_C 	C 	0.48757	0.42213	0.51071	-0.022
Mof_C 	C 	0.40167	0.47013	0.41089	-0.044
Mof_H 	H 	0.36327	0.42183	0.42203	0.061
Mof_C 	C 	0.38677	0.48463	0.37731	-0.077
Mof_N 	N 	0.45497	0.36503	0.45263	-0.287
Mof_H 	H 	0.44957	0.36883	0.43063	0.144
Mof_H 	H 	0.44867	0.31973	0.46123	0.143
Mof_C 	C 	0.47557	0.43783	0.47583	0.064
Mof_O 	O 	0.96206	0.77684	0.66337	-0.406
Mof_O 	O 	0.92244	0.69731	0.71068	-0.412
Mof_C 	C 	0.97343	0.75887	0.69361	0.356
Mof_C 	C 	0.15423	0.75547	0.84405	-0.022
Mof_C 	C 	0.06833	0.80347	0.74423	-0.044
Mof_H 	H 	0.02993	0.75517	0.75537	0.061
Mof_C 	C 	0.05343	0.81797	0.71065	-0.076
Mof_N 	N 	0.12163	0.69837	0.78597	-0.287
Mof_H 	H 	0.11623	0.70217	0.76397	0.144
Mof_H 	H 	0.11533	0.65307	0.79457	0.143
Mof_C 	C 	0.14223	0.77117	0.80917	0.064
Mof_O 	O 	0.88983	0.51856	0.9967	-0.407
Mof_O 	O 	0.96936	0.55847	0.04401	-0.411
Mof_C 	C 	0.9078	0.5479	0.02694	0.357
Mof_C 	C 	0.9112	0.7321	0.17738	-0.022
Mof_C 	C 	0.8632	0.5982	0.07756	-0.043
Mof_H 	H 	0.9115	0.6081	0.0887	0.061
Mof_C 	C 	0.8487	0.5688	0.04398	-0.077
Mof_N 	N 	0.9683	0.7566	0.1193	-0.287
Mof_H 	H 	0.9645	0.7474	0.0973	0.144
Mof_H 	H 	0.0136	0.7956	0.1279	0.142
Mof_C 	C 	0.8955	0.7044	0.1425	0.064
Mof_O 	O 	0.5565	0.85189	0.33003	-0.407
Mof_O 	O 	0.63603	0.8918	0.37734	-0.412
Mof_C 	C 	0.57447	0.88123	0.36027	0.356
Mof_C 	C 	0.57787	0.06543	0.51071	-0.022
Mof_C 	C 	0.52987	0.93153	0.41089	-0.044
Mof_H 	H 	0.57817	0.94143	0.42203	0.061
Mof_C 	C 	0.51537	0.90213	0.37731	-0.077
Mof_N 	N 	0.63497	0.08993	0.45263	-0.287
Mof_H 	H 	0.63117	0.08073	0.43063	0.144
Mof_H 	H 	0.68027	0.12893	0.46123	0.143
Mof_C 	C 	0.56217	0.03773	0.47583	0.064
Mof_O 	O 	0.22316	0.18523	0.66337	-0.406
Mof_O 	O 	0.30269	0.22514	0.71068	-0.412
Mof_C 	C 	0.24113	0.21457	0.69361	0.356
Mof_C 	C 	0.24453	0.39877	0.84405	-0.022
Mof_C 	C 	0.19653	0.26487	0.74423	-0.044
Mof_H 	H 	0.24483	0.27477	0.75537	0.061
Mof_C 	C 	0.18203	0.23547	0.71065	-0.077
Mof_N 	N 	0.30163	0.42327	0.78597	-0.287
Mof_H 	H 	0.29783	0.41407	0.76397	0.144
Mof_H 	H 	0.34693	0.46227	0.79457	0.143
Mof_C 	C 	0.22883	0.37107	0.80917	0.064
Mof_O 	O 	0.37127	0.48144	0.0033	-0.407
Mof_O 	O 	0.41089	0.44153	0.95599	-0.412
Mof_C 	C 	0.3599	0.4521	0.97306	0.356
Mof_C 	C 	0.1791	0.2679	0.82262	-0.022
Mof_C 	C 	0.265	0.4018	0.92244	-0.043
Mof_H 	H 	0.3034	0.3919	0.9113	0.061
Mof_C 	C 	0.2799	0.4312	0.95602	-0.077
Mof_N 	N 	0.2117	0.2434	0.8807	-0.287
Mof_H 	H 	0.2171	0.2526	0.9027	0.144
Mof_H 	H 	0.218	0.2044	0.8721	0.143
Mof_C 	C 	0.1911	0.2956	0.8575	0.064
Mof_O 	O 	0.03794	0.81477	0.33663	-0.407
Mof_O 	O 	0.07756	0.77486	0.28932	-0.412
Mof_C 	C 	0.02657	0.78543	0.30639	0.356
Mof_C 	C 	0.84577	0.60123	0.15595	-0.022
Mof_C 	C 	0.93167	0.73513	0.25577	-0.044
Mof_H 	H 	0.97007	0.72523	0.24463	0.061
Mof_C 	C 	0.94657	0.76453	0.28935	-0.076
Mof_N 	N 	0.87837	0.57673	0.21403	-0.287
Mof_H 	H 	0.88377	0.58593	0.23603	0.144
Mof_H 	H 	0.88467	0.53773	0.20543	0.143
Mof_C 	C 	0.85777	0.62893	0.19083	0.064
Mof_O 	O 	0.7046	0.14811	0.66997	-0.407
Mof_O 	O 	0.74422	0.1082	0.62266	-0.412
Mof_C 	C 	0.69323	0.11877	0.63973	0.356
Mof_C 	C 	0.51243	0.93457	0.48929	-0.022
Mof_C 	C 	0.59833	0.06847	0.58911	-0.044
Mof_H 	H 	0.63673	0.05857	0.57797	0.061
Mof_C 	C 	0.61323	0.09787	0.62269	-0.077
Mof_N 	N 	0.54503	0.91007	0.54737	-0.287
Mof_H 	H 	0.55043	0.91927	0.56937	0.144
Mof_H 	H 	0.55133	0.87107	0.53877	0.143
Mof_C 	C 	0.52443	0.96227	0.52417	0.064
Mof_O 	O 	0.11017	0.62873	0.0033	-0.407
Mof_O 	O 	0.03064	0.58911	0.95599	-0.412
Mof_C 	C 	0.0922	0.6401	0.97306	0.357
Mof_C 	C 	0.0888	0.8209	0.82262	-0.022
Mof_C 	C 	0.1368	0.735	0.92244	-0.043
Mof_H 	H 	0.0885	0.6966	0.9113	0.061
Mof_C 	C 	0.1513	0.7201	0.95602	-0.077
Mof_N 	N 	0.0317	0.7883	0.8807	-0.287
Mof_H 	H 	0.0355	0.7829	0.9027	0.144
Mof_H 	H 	0.9864	0.782	0.8721	0.142
Mof_C 	C 	0.1045	0.8089	0.8575	0.064
Mof_O 	O 	0.77684	0.96206	0.33663	-0.406
Mof_O 	O 	0.69731	0.92244	0.28932	-0.412
Mof_C 	C 	0.75887	0.97343	0.30639	0.356
Mof_C 	C 	0.75547	0.15423	0.15595	-0.022
Mof_C 	C 	0.80347	0.06833	0.25577	-0.044
Mof_H 	H 	0.75517	0.02993	0.24463	0.061
Mof_C 	C 	0.81797	0.05343	0.28935	-0.076
Mof_N 	N 	0.69837	0.12163	0.21403	-0.287
Mof_H 	H 	0.70217	0.11623	0.23603	0.144
Mof_H 	H 	0.65307	0.11533	0.20543	0.143
Mof_C 	C 	0.77117	0.14223	0.19083	0.064
Mof_O 	O 	0.4435	0.2954	0.66997	-0.406
Mof_O 	O 	0.36397	0.25578	0.62266	-0.412
Mof_C 	C 	0.42553	0.30677	0.63973	0.356
Mof_C 	C 	0.42213	0.48757	0.48929	-0.022
Mof_C 	C 	0.47013	0.40167	0.58911	-0.044
Mof_H 	H 	0.42183	0.36327	0.57797	0.061
Mof_C 	C 	0.48463	0.38677	0.62269	-0.077
Mof_N 	N 	0.36503	0.45497	0.54737	-0.287
Mof_H 	H 	0.36883	0.44957	0.56937	0.144
Mof_H 	H 	0.31973	0.44867	0.53877	0.143
Mof_C 	C 	0.43783	0.47557	0.52417	0.064
Mof_O 	O 	0.51856	0.88983	0.0033	-0.407
Mof_O 	O 	0.55847	0.96936	0.95599	-0.411
Mof_C 	C 	0.5479	0.9078	0.97306	0.357
Mof_C 	C 	0.7321	0.9112	0.82262	-0.022
Mof_C 	C 	0.5982	0.8632	0.92244	-0.043
Mof_H 	H 	0.6081	0.9115	0.9113	0.061
Mof_C 	C 	0.5688	0.8487	0.95602	-0.077
Mof_N 	N 	0.7566	0.9683	0.8807	-0.287
Mof_H 	H 	0.7474	0.9645	0.9027	0.144
Mof_H 	H 	0.7956	0.0136	0.8721	0.142
Mof_C 	C 	0.7044	0.8955	0.8575	0.064
Mof_O 	O 	0.18523	0.22316	0.33663	-0.406
Mof_O 	O 	0.22514	0.30269	0.28932	-0.412
Mof_C 	C 	0.21457	0.24113	0.30639	0.356
Mof_C 	C 	0.39877	0.24453	0.15595	-0.022
Mof_C 	C 	0.26487	0.19653	0.25577	-0.044
Mof_H 	H 	0.27477	0.24483	0.24463	0.061
Mof_C 	C 	0.23547	0.18203	0.28935	-0.077
Mof_N 	N 	0.42327	0.30163	0.21403	-0.287
Mof_H 	H 	0.41407	0.29783	0.23603	0.144
Mof_H 	H 	0.46227	0.34693	0.20543	0.143
Mof_C 	C 	0.37107	0.22883	0.19083	0.064
Mof_O 	O 	0.85189	0.5565	0.66997	-0.407
Mof_O 	O 	0.8918	0.63603	0.62266	-0.412
Mof_C 	C 	0.88123	0.57447	0.63973	0.356
Mof_C 	C 	0.06543	0.57787	0.48929	-0.022
Mof_C 	C 	0.93153	0.52987	0.58911	-0.044
Mof_H 	H 	0.94143	0.57817	0.57797	0.061
Mof_C 	C 	0.90213	0.51537	0.62269	-0.077
Mof_N 	N 	0.08993	0.63497	0.54737	-0.287
Mof_H 	H 	0.08073	0.63117	0.56937	0.144
Mof_H 	H 	0.12893	0.68027	0.53877	0.143
Mof_C 	C 	0.03773	0.56217	0.52417	0.064
Mof_O 	O 	0.51856	0.62873	0.0033	-0.407
Mof_O 	O 	0.55847	0.58911	0.95599	-0.412
Mof_C 	C 	0.5479	0.6401	0.97306	0.356
Mof_C 	C 	0.7321	0.8209	0.82262	-0.022
Mof_C 	C 	0.5982	0.735	0.92244	-0.043
Mof_H 	H 	0.6081	0.6966	0.9113	0.061
Mof_C 	C 	0.5688	0.7201	0.95602	-0.077
Mof_N 	N 	0.7566	0.7883	0.8807	-0.287
Mof_H 	H 	0.7474	0.7829	0.9027	0.144
Mof_H 	H 	0.7956	0.782	0.8721	0.143
Mof_C 	C 	0.7044	0.8089	0.8575	0.064
Mof_O 	O 	0.18523	0.96206	0.33663	-0.407
Mof_O 	O 	0.22514	0.92244	0.28932	-0.412
Mof_C 	C 	0.21457	0.97343	0.30639	0.356
Mof_C 	C 	0.39877	0.15423	0.15595	-0.022
Mof_C 	C 	0.26487	0.06833	0.25577	-0.044
Mof_H 	H 	0.27477	0.02993	0.24463	0.061
Mof_C 	C 	0.23547	0.05343	0.28935	-0.076
Mof_N 	N 	0.42327	0.12163	0.21403	-0.287
Mof_H 	H 	0.41407	0.11623	0.23603	0.144
Mof_H 	H 	0.46227	0.11533	0.20543	0.143
Mof_C 	C 	0.37107	0.14223	0.19083	0.064
Mof_O 	O 	0.85189	0.2954	0.66997	-0.407
Mof_O 	O 	0.8918	0.25578	0.62266	-0.412
Mof_C 	C 	0.88123	0.30677	0.63973	0.356
Mof_C 	C 	0.06543	0.48757	0.48929	-0.022
Mof_C 	C 	0.93153	0.40167	0.58911	-0.044
Mof_H 	H 	0.94143	0.36327	0.57797	0.061
Mof_C 	C 	0.90213	0.38677	0.62269	-0.077
Mof_N 	N 	0.08993	0.45497	0.54737	-0.287
Mof_H 	H 	0.08073	0.44957	0.56937	0.144
Mof_H 	H 	0.12893	0.44867	0.53877	0.143
Mof_C 	C 	0.03773	0.47557	0.52417	0.064
Mof_O 	O 	0.37127	0.88983	0.0033	-0.407
Mof_O 	O 	0.41089	0.96936	0.95599	-0.412
Mof_C 	C 	0.3599	0.9078	0.97306	0.357
Mof_C 	C 	0.1791	0.9112	0.82262	-0.022
Mof_C 	C 	0.265	0.8632	0.92244	-0.043
Mof_H 	H 	0.3034	0.9115	0.9113	0.061
Mof_C 	C 	0.2799	0.8487	0.95602	-0.077
Mof_N 	N 	0.2117	0.9683	0.8807	-0.287
Mof_H 	H 	0.2171	0.9645	0.9027	0.144
Mof_H 	H 	0.218	0.0136	0.8721	0.142
Mof_C 	C 	0.1911	0.8955	0.8575	0.064
Mof_O 	O 	0.03794	0.22316	0.33663	-0.406
Mof_O 	O 	0.07756	0.30269	0.28932	-0.412
Mof_C 	C 	0.02657	0.24113	0.30639	0.356
Mof_C 	C 	0.84577	0.24453	0.15595	-0.022
Mof_C 	C 	0.93167	0.19653	0.25577	-0.044
Mof_H 	H 	0.97007	0.24483	0.24463	0.061
Mof_C 	C 	0.94657	0.18203	0.28935	-0.076
Mof_N 	N 	0.87837	0.30163	0.21403	-0.287
Mof_H 	H 	0.88377	0.29783	0.23603	0.144
Mof_H 	H 	0.88467	0.34693	0.20543	0.143
Mof_C 	C 	0.85777	0.22883	0.19083	0.064
Mof_O 	O 	0.7046	0.5565	0.66997	-0.406
Mof_O 	O 	0.74422	0.63603	0.62266	-0.412
Mof_C 	C 	0.69323	0.57447	0.63973	0.356
Mof_C 	C 	0.51243	0.57787	0.48929	-0.022
Mof_C 	C 	0.59833	0.52987	0.58911	-0.044
Mof_H 	H 	0.63673	0.57817	0.57797	0.061
Mof_C 	C 	0.61323	0.51537	0.62269	-0.077
Mof_N 	N 	0.54503	0.63497	0.54737	-0.287
Mof_H 	H 	0.55043	0.63117	0.56937	0.144
Mof_H 	H 	0.55133	0.68027	0.53877	0.143
Mof_C 	C 	0.52443	0.56217	0.52417	0.064
Mof_O 	O 	0.11017	0.48144	0.0033	-0.407
Mof_O 	O 	0.03064	0.44153	0.95599	-0.411
Mof_C 	C 	0.0922	0.4521	0.97306	0.357
Mof_C 	C 	0.0888	0.2679	0.82262	-0.022
Mof_C 	C 	0.1368	0.4018	0.92244	-0.043
Mof_H 	H 	0.0885	0.3919	0.9113	0.061
Mof_C 	C 	0.1513	0.4312	0.95602	-0.077
Mof_N 	N 	0.0317	0.2434	0.8807	-0.287
Mof_H 	H 	0.0355	0.2526	0.9027	0.144
Mof_H 	H 	0.9864	0.2044	0.8721	0.142
Mof_C 	C 	0.1045	0.2956	0.8575	0.064
Mof_O 	O 	0.77684	0.81477	0.33663	-0.406
Mof_O 	O 	0.69731	0.77486	0.28932	-0.412
Mof_C 	C 	0.75887	0.78543	0.30639	0.356
Mof_C 	C 	0.75547	0.60123	0.15595	-0.022
Mof_C 	C 	0.80347	0.73513	0.25577	-0.044
Mof_H 	H 	0.75517	0.72523	0.24463	0.061
Mof_C 	C 	0.81797	0.76453	0.28935	-0.077
Mof_N 	N 	0.69837	0.57673	0.21403	-0.287
Mof_H 	H 	0.70217	0.58593	0.23603	0.144
Mof_H 	H 	0.65307	0.53773	0.20543	0.143
Mof_C 	C 	0.77117	0.62893	0.19083	0.064
Mof_O 	O 	0.4435	0.14811	0.66997	-0.407
Mof_O 	O 	0.36397	0.1082	0.62266	-0.412
Mof_C 	C 	0.42553	0.11877	0.63973	0.356
Mof_C 	C 	0.42213	0.93457	0.48929	-0.022
Mof_C 	C 	0.47013	0.06847	0.58911	-0.044
Mof_H 	H 	0.42183	0.05857	0.57797	0.061
Mof_C 	C 	0.48463	0.09787	0.62269	-0.077
Mof_N 	N 	0.36503	0.91007	0.54737	-0.287
Mof_H 	H 	0.36883	0.91927	0.56937	0.144
Mof_H 	H 	0.31973	0.87107	0.53877	0.143
Mof_C 	C 	0.43783	0.96227	0.52417	0.064
Mof_O 	O 	0.62873	0.51856	0.9967	-0.407
Mof_O 	O 	0.58911	0.55847	0.04401	-0.412
Mof_C 	C 	0.6401	0.5479	0.02694	0.356
Mof_C 	C 	0.8209	0.7321	0.17738	-0.022
Mof_C 	C 	0.735	0.5982	0.07756	-0.043
Mof_H 	H 	0.6966	0.6081	0.0887	0.061
Mof_C 	C 	0.7201	0.5688	0.04398	-0.077
Mof_N 	N 	0.7883	0.7566	0.1193	-0.287
Mof_H 	H 	0.7829	0.7474	0.0973	0.144
Mof_H 	H 	0.782	0.7956	0.1279	0.143
Mof_C 	C 	0.8089	0.7044	0.1425	0.064
Mof_O 	O 	0.2954	0.85189	0.33003	-0.407
Mof_O 	O 	0.25578	0.8918	0.37734	-0.412
Mof_C 	C 	0.30677	0.88123	0.36027	0.356
Mof_C 	C 	0.48757	0.06543	0.51071	-0.022
Mof_C 	C 	0.40167	0.93153	0.41089	-0.044
Mof_H 	H 	0.36327	0.94143	0.42203	0.061
Mof_C 	C 	0.38677	0.90213	0.37731	-0.077
Mof_N 	N 	0.45497	0.08993	0.45263	-0.287
Mof_H 	H 	0.44957	0.08073	0.43063	0.144
Mof_H 	H 	0.44867	0.12893	0.46123	0.143
Mof_C 	C 	0.47557	0.03773	0.47583	0.064
Mof_O 	O 	0.96206	0.18523	0.66337	-0.407
Mof_O 	O 	0.92244	0.22514	0.71068	-0.412
Mof_C 	C 	0.97343	0.21457	0.69361	0.356
Mof_C 	C 	0.15423	0.39877	0.84405	-0.022
Mof_C 	C 	0.06833	0.26487	0.74423	-0.044
Mof_H 	H 	0.02993	0.27477	0.75537	0.061
Mof_C 	C 	0.05343	0.23547	0.71065	-0.076
Mof_N 	N 	0.12163	0.42327	0.78597	-0.287
Mof_H 	H 	0.11623	0.41407	0.76397	0.144
Mof_H 	H 	0.11533	0.46227	0.79457	0.143
Mof_C 	C 	0.14223	0.37107	0.80917	0.064
Mof_O 	O 	0.88983	0.37127	0.9967	-0.407
Mof_O 	O 	0.96936	0.41089	0.04401	-0.412
Mof_C 	C 	0.9078	0.3599	0.02694	0.357
Mof_C 	C 	0.9112	0.1791	0.17738	-0.022
Mof_C 	C 	0.8632	0.265	0.07756	-0.043
Mof_H 	H 	0.9115	0.3034	0.0887	0.061
Mof_C 	C 	0.8487	0.2799	0.04398	-0.077
Mof_N 	N 	0.9683	0.2117	0.1193	-0.287
Mof_H 	H 	0.9645	0.2171	0.0973	0.144
Mof_H 	H 	0.0136	0.218	0.1279	0.142
Mof_C 	C 	0.8955	0.1911	0.1425	0.064
Mof_O 	O 	0.5565	0.7046	0.33003	-0.406
Mof_O 	O 	0.63603	0.74422	0.37734	-0.412
Mof_C 	C 	0.57447	0.69323	0.36027	0.356
Mof_C 	C 	0.57787	0.51243	0.51071	-0.022
Mof_C 	C 	0.52987	0.59833	0.41089	-0.044
Mof_H 	H 	0.57817	0.63673	0.42203	0.061
Mof_C 	C 	0.51537	0.61323	0.37731	-0.077
Mof_N 	N 	0.63497	0.54503	0.45263	-0.287
Mof_H 	H 	0.63117	0.55043	0.43063	0.144
Mof_H 	H 	0.68027	0.55133	0.46123	0.143
Mof_C 	C 	0.56217	0.52443	0.47583	0.064
Mof_O 	O 	0.22316	0.03794	0.66337	-0.406
Mof_O 	O 	0.30269	0.07756	0.71068	-0.412
Mof_C 	C 	0.24113	0.02657	0.69361	0.356
Mof_C 	C 	0.24453	0.84577	0.84405	-0.022
Mof_C 	C 	0.19653	0.93167	0.74423	-0.044
Mof_H 	H 	0.24483	0.97007	0.75537	0.061
Mof_C 	C 	0.18203	0.94657	0.71065	-0.076
Mof_N 	N 	0.30163	0.87837	0.78597	-0.287
Mof_H 	H 	0.29783	0.88377	0.76397	0.144
Mof_H 	H 	0.34693	0.88467	0.79457	0.143
Mof_C 	C 	0.22883	0.85777	0.80917	0.064
Mof_O 	O 	0.48144	0.11017	0.9967	-0.407
Mof_O 	O 	0.44153	0.03064	0.04401	-0.411
Mof_C 	C 	0.4521	0.0922	0.02694	0.357
Mof_C 	C 	0.2679	0.0888	0.17738	-0.022
Mof_C 	C 	0.4018	0.1368	0.07756	-0.043
Mof_H 	H 	0.3919	0.0885	0.0887	0.061
Mof_C 	C 	0.4312	0.1513	0.04398	-0.077
Mof_N 	N 	0.2434	0.0317	0.1193	-0.287
Mof_H 	H 	0.2526	0.0355	0.0973	0.144
Mof_H 	H 	0.2044	0.9864	0.1279	0.142
Mof_C 	C 	0.2956	0.1045	0.1425	0.064
Mof_O 	O 	0.14811	0.4435	0.33003	-0.407
Mof_O 	O 	0.1082	0.36397	0.37734	-0.412
Mof_C 	C 	0.11877	0.42553	0.36027	0.356
Mof_C 	C 	0.93457	0.42213	0.51071	-0.022
Mof_C 	C 	0.06847	0.47013	0.41089	-0.044
Mof_H 	H 	0.05857	0.42183	0.42203	0.061
Mof_C 	C 	0.09787	0.48463	0.37731	-0.077
Mof_N 	N 	0.91007	0.36503	0.45263	-0.287
Mof_H 	H 	0.91927	0.36883	0.43063	0.144
Mof_H 	H 	0.87107	0.31973	0.46123	0.143
Mof_C 	C 	0.96227	0.43783	0.47583	0.064
Mof_O 	O 	0.81477	0.77684	0.66337	-0.406
Mof_O 	O 	0.77486	0.69731	0.71068	-0.412
Mof_C 	C 	0.78543	0.75887	0.69361	0.356
Mof_C 	C 	0.60123	0.75547	0.84405	-0.022
Mof_C 	C 	0.73513	0.80347	0.74423	-0.044
Mof_H 	H 	0.72523	0.75517	0.75537	0.061
Mof_C 	C 	0.76453	0.81797	0.71065	-0.077
Mof_N 	N 	0.57673	0.69837	0.78597	-0.287
Mof_H 	H 	0.58593	0.70217	0.76397	0.144
Mof_H 	H 	0.53773	0.65307	0.79457	0.143
Mof_C 	C 	0.62893	0.77117	0.80917	0.064
Mof_Cu	Cu	0.52351	0.47649	0.97186	0.904
Mof_Cu	Cu	0.19018	0.80982	0.30519	0.904
Mof_Cu	Cu	0.85684	0.14316	0.63853	0.904
Mof_Cu	Cu	0.52351	0.04702	0.97186	0.904
Mof_Cu	Cu	0.19018	0.38035	0.30519	0.904
Mof_Cu	Cu	0.85684	0.71369	0.63853	0.904
Mof_Cu	Cu	0.95298	0.47649	0.97186	0.904
Mof_Cu	Cu	0.61965	0.80982	0.30519	0.904
Mof_Cu	Cu	0.28631	0.14316	0.63853	0.904
Mof_Cu	Cu	0.47649	0.52351	0.02814	0.904
Mof_Cu	Cu	0.14316	0.85684	0.36147	0.904
Mof_Cu	Cu	0.80982	0.19018	0.69481	0.904
Mof_Cu	Cu	0.04702	0.52351	0.02814	0.904
Mof_Cu	Cu	0.71369	0.85684	0.36147	0.904
Mof_Cu	Cu	0.38035	0.19018	0.69481	0.904
Mof_Cu	Cu	0.47649	0.95298	0.02814	0.904
Mof_Cu	Cu	0.14316	0.28631	0.36147	0.904
Mof_Cu	Cu	0.80982	0.61965	0.69481	0.904
Mof_C 	C 	0.3866	0.1933	0.09515	0.032
Mof_C 	C 	0.4458	0.2229	0.02717	0.017
Mof_H 	H 	0.4655	0.23275	0.0045	0.053
Mof_C 	C 	0.359	0.1795	0.13207	-0.048
Mof_C 	C 	0.05327	0.52663	0.42848	0.032
Mof_C 	C 	0.11247	0.55623	0.3605	0.017
Mof_H 	H 	0.13217	0.56608	0.33783	0.053
Mof_C 	C 	0.02567	0.51283	0.4654	-0.048
Mof_C 	C 	0.71993	0.85997	0.76182	0.033
Mof_C 	C 	0.77913	0.88957	0.69384	0.017
Mof_H 	H 	0.79883	0.89942	0.67117	0.053
Mof_C 	C 	0.69233	0.84617	0.79874	-0.048
Mof_C 	C 	0.8067	0.1933	0.09515	0.032
Mof_C 	C 	0.7771	0.2229	0.02717	0.017
Mof_H 	H 	0.76725	0.23275	0.0045	0.053
Mof_C 	C 	0.8205	0.1795	0.13207	-0.048
Mof_C 	C 	0.47337	0.52663	0.42848	0.032
Mof_C 	C 	0.44377	0.55623	0.3605	0.017
Mof_H 	H 	0.43392	0.56608	0.33783	0.053
Mof_C 	C 	0.48717	0.51283	0.4654	-0.048
Mof_C 	C 	0.14003	0.85997	0.76182	0.033
Mof_C 	C 	0.11043	0.88957	0.69384	0.016
Mof_H 	H 	0.10058	0.89942	0.67117	0.053
Mof_C 	C 	0.15383	0.84617	0.79874	-0.048
Mof_C 	C 	0.8067	0.6134	0.09515	0.032
Mof_C 	C 	0.7771	0.5542	0.02717	0.017
Mof_H 	H 	0.76725	0.5345	0.0045	0.053
Mof_C 	C 	0.8205	0.641	0.13207	-0.048
Mof_C 	C 	0.47337	0.94673	0.42848	0.032
Mof_C 	C 	0.44377	0.88753	0.3605	0.017
Mof_H 	H 	0.43392	0.86783	0.33783	0.053
Mof_C 	C 	0.48717	0.97433	0.4654	-0.048
Mof_C 	C 	0.14003	0.28007	0.76182	0.033
Mof_C 	C 	0.11043	0.22087	0.69384	0.017
Mof_H 	H 	0.10058	0.20117	0.67117	0.053
Mof_C 	C 	0.15383	0.30767	0.79874	-0.048
Mof_C 	C 	0.1933	0.3866	0.90485	0.032
Mof_C 	C 	0.2229	0.4458	0.97283	0.017
Mof_H 	H 	0.23275	0.4655	0.9955	0.053
Mof_C 	C 	0.1795	0.359	0.86793	-0.048
Mof_C 	C 	0.85997	0.71993	0.23818	0.033
Mof_C 	C 	0.88957	0.77913	0.30616	0.017
Mof_H 	H 	0.89942	0.79883	0.32883	0.053
Mof_C 	C 	0.84617	0.69233	0.20126	-0.048
Mof_C 	C 	0.52663	0.05327	0.57152	0.032
Mof_C 	C 	0.55623	0.11247	0.6395	0.017
Mof_H 	H 	0.56608	0.13217	0.66217	0.053
Mof_C 	C 	0.51283	0.02567	0.5346	-0.048
Mof_C 	C 	0.1933	0.8067	0.90485	0.032
Mof_C 	C 	0.2229	0.7771	0.97283	0.017
Mof_H 	H 	0.23275	0.76725	0.9955	0.053
Mof_C 	C 	0.1795	0.8205	0.86793	-0.048
Mof_C 	C 	0.85997	0.14003	0.23818	0.033
Mof_C 	C 	0.88957	0.11043	0.30616	0.016
Mof_H 	H 	0.89942	0.10058	0.32883	0.053
Mof_C 	C 	0.84617	0.15383	0.20126	-0.048
Mof_C 	C 	0.52663	0.47337	0.57152	0.032
Mof_C 	C 	0.55623	0.44377	0.6395	0.017
Mof_H 	H 	0.56608	0.43392	0.66217	0.053
Mof_C 	C 	0.51283	0.48717	0.5346	-0.048
Mof_C 	C 	0.6134	0.8067	0.90485	0.032
Mof_C 	C 	0.5542	0.7771	0.97283	0.017
Mof_H 	H 	0.5345	0.76725	0.9955	0.053
Mof_C 	C 	0.641	0.8205	0.86793	-0.048
Mof_C 	C 	0.28007	0.14003	0.23818	0.033
Mof_C 	C 	0.22087	0.11043	0.30616	0.017
Mof_H 	H 	0.20117	0.10058	0.32883	0.053
Mof_C 	C 	0.30767	0.15383	0.20126	-0.048
Mof_C 	C 	0.94673	0.47337	0.57152	0.032
Mof_C 	C 	0.88753	0.44377	0.6395	0.017
Mof_H 	H 	0.86783	0.43392	0.66217	0.053
Mof_C 	C 	0.97433	0.48717	0.5346	-0.048
_end
