data_functionalizedCrystal
_audit_creation_method	'EQeq! by Chris Wilmer'
_symmetry_space_group_name_H-M	'P1'
_symmetry_Int_Tables_number	1
_symmetry_cell_setting	triclinic
loop_
_symmetry_equiv_pos_as_xyz
  x,y,z
_cell_length_a	18.598
_cell_length_b	18.598
_cell_length_c	18.598
_cell_angle_alpha	60
_cell_angle_beta	60
_cell_angle_gamma	60
loop_
_atom_site_label
_atom_site_type_symbol
_atom_site_fract_x
_atom_site_fract_y
_atom_site_fract_z
_atom_site_charge
Mof_Cu	Cu	0.57052	0.42948	-0	0.799
Mof_Cu	Cu	0.42948	0.57052	-0	0.799
Mof_Cu	Cu	-0	-2.49935e-17	0.57052	0.695
Mof_Cu	Cu	-1.24967e-17	0	0.42948	0.682
Mof_Cu	Cu	0.57052	0	-0	0.695
Mof_Cu	Cu	0.42948	0	-0	0.682
Mof_Cu	Cu	-1.24967e-17	0.57052	0.42948	0.799
Mof_Cu	Cu	-0	0.42948	0.57052	0.799
Mof_Cu	Cu	0.57052	0	0.42948	0.799
Mof_Cu	Cu	0.42948	-2.49935e-17	0.57052	0.799
Mof_Cu	Cu	2.49935e-17	0.42948	-0	0.682
Mof_Cu	Cu	-0	0.57052	-0	0.695
Mof_H 	H 	0.2712	0.4894	0.9682	0.074
Mof_H 	H 	0.4894	0.2712	0.2712	0.007
Mof_H 	H 	0.9682	0.2712	0.2712	0.05
Mof_H 	H 	0.2712	0.9682	0.4894	0.074
Mof_H 	H 	0.2712	0.9682	0.2712	0.05
Mof_H 	H 	0.4894	0.2712	0.9682	0.074
Mof_H 	H 	0.9682	0.2712	0.4894	0.074
Mof_H 	H 	0.2712	0.4894	0.2712	0.007
Mof_H 	H 	0.2712	0.2712	0.4894	0.007
Mof_H 	H 	0.4894	0.9682	0.2712	0.074
Mof_H 	H 	0.9682	0.4894	0.2712	0.074
Mof_H 	H 	0.2712	0.2712	0.9682	0.05
Mof_H 	H 	0.5106	0.7288	0.0318	0.028
Mof_H 	H 	0.7288	0.5106	0.7288	0.09
Mof_H 	H 	0.7288	0.0318	0.7288	0.054
Mof_H 	H 	0.0318	0.7288	0.5106	0.028
Mof_H 	H 	0.0318	0.7288	0.7288	0.054
Mof_H 	H 	0.7288	0.5106	0.0318	0.028
Mof_H 	H 	0.7288	0.0318	0.5106	0.028
Mof_H 	H 	0.5106	0.7288	0.7288	0.09
Mof_H 	H 	0.7288	0.7288	0.5106	0.09
Mof_H 	H 	0.0318	0.5106	0.7288	0.028
Mof_H 	H 	0.5106	0.0318	0.7288	0.028
Mof_H 	H 	0.7288	0.7288	0.0318	0.054
Mof_C 	C 	0.30058	0.43028	0.96856	0.043
Mof_C 	C 	0.43028	0.30058	0.30058	0.08
Mof_C 	C 	0.96856	0.30058	0.30058	0.045
Mof_C 	C 	0.30058	0.96856	0.43028	0.043
Mof_C 	C 	0.30058	0.96856	0.30058	0.045
Mof_C 	C 	0.43028	0.30058	0.96856	0.043
Mof_C 	C 	0.96856	0.30058	0.43028	0.043
Mof_C 	C 	0.30058	0.43028	0.30058	0.08
Mof_C 	C 	0.30058	0.30058	0.43028	0.08
Mof_C 	C 	0.43028	0.96856	0.30058	0.043
Mof_C 	C 	0.96856	0.43028	0.30058	0.043
Mof_C 	C 	0.30058	0.30058	0.96856	0.045
Mof_C 	C 	0.56972	0.69942	0.03144	0.06
Mof_C 	C 	0.69942	0.56972	0.69942	0.033
Mof_C 	C 	0.69942	0.03144	0.69942	0.055
Mof_C 	C 	0.03144	0.69942	0.56972	0.06
Mof_C 	C 	0.03144	0.69942	0.69942	0.055
Mof_C 	C 	0.69942	0.56972	0.03144	0.06
Mof_C 	C 	0.69942	0.03144	0.56972	0.06
Mof_C 	C 	0.56972	0.69942	0.69942	0.033
Mof_C 	C 	0.69942	0.69942	0.56972	0.033
Mof_C 	C 	0.03144	0.56972	0.69942	0.06
Mof_C 	C 	0.56972	0.03144	0.69942	0.06
Mof_C 	C 	0.69942	0.69942	0.03144	0.055
Mof_C 	C 	0.38687	0.38687	0.96887	-0.069
Mof_C 	C 	0.43099	0.43099	0.97599	0.354
Mof_C 	C 	0.38687	0.38687	0.25739	-0.172
Mof_C 	C 	0.43099	0.43099	0.16203	0.38
Mof_C 	C 	0.96887	0.25739	0.38687	-0.086
Mof_C 	C 	0.97599	0.16203	0.43099	0.354
Mof_C 	C 	0.25739	0.96887	0.38687	-0.086
Mof_C 	C 	0.16203	0.97599	0.43099	0.354
Mof_C 	C 	0.38687	0.96887	0.25739	-0.086
Mof_C 	C 	0.43099	0.97599	0.16203	0.354
Mof_C 	C 	0.38687	0.25739	0.96887	-0.086
Mof_C 	C 	0.43099	0.16203	0.97599	0.354
Mof_C 	C 	0.96887	0.38687	0.38687	-0.069
Mof_C 	C 	0.97599	0.43099	0.43099	0.354
Mof_C 	C 	0.25739	0.38687	0.38687	-0.172
Mof_C 	C 	0.16203	0.43099	0.43099	0.38
Mof_C 	C 	0.38687	0.25739	0.38687	-0.172
Mof_C 	C 	0.43099	0.16203	0.43099	0.38
Mof_C 	C 	0.38687	0.96887	0.38687	-0.069
Mof_C 	C 	0.43099	0.97599	0.43099	0.354
Mof_C 	C 	0.96887	0.38687	0.25739	-0.086
Mof_C 	C 	0.97599	0.43099	0.16203	0.354
Mof_C 	C 	0.25739	0.38687	0.96887	-0.086
Mof_C 	C 	0.16203	0.43099	0.97599	0.354
Mof_C 	C 	0.61313	0.61313	0.03113	-0.14
Mof_C 	C 	0.56901	0.56901	0.02401	0.376
Mof_C 	C 	0.61313	0.61313	0.74261	-0.046
Mof_C 	C 	0.56901	0.56901	0.83797	0.352
Mof_C 	C 	0.74261	0.03113	0.61313	-0.116
Mof_C 	C 	0.83797	0.02401	0.56901	0.357
Mof_C 	C 	0.03113	0.74261	0.61313	-0.116
Mof_C 	C 	0.02401	0.83797	0.56901	0.357
Mof_C 	C 	0.03113	0.61313	0.74261	-0.116
Mof_C 	C 	0.02401	0.56901	0.83797	0.357
Mof_C 	C 	0.74261	0.61313	0.03113	-0.116
Mof_C 	C 	0.83797	0.56901	0.02401	0.357
Mof_C 	C 	0.61313	0.03113	0.61313	-0.14
Mof_C 	C 	0.56901	0.02401	0.56901	0.376
Mof_C 	C 	0.61313	0.74261	0.61313	-0.046
Mof_C 	C 	0.56901	0.83797	0.56901	0.352
Mof_C 	C 	0.74261	0.61313	0.61313	-0.046
Mof_C 	C 	0.83797	0.56901	0.56901	0.352
Mof_C 	C 	0.03113	0.61313	0.61313	-0.14
Mof_C 	C 	0.02401	0.56901	0.56901	0.376
Mof_C 	C 	0.61313	0.03113	0.74261	-0.116
Mof_C 	C 	0.56901	0.02401	0.83797	0.357
Mof_C 	C 	0.61313	0.74261	0.03113	-0.116
Mof_C 	C 	0.56901	0.83797	0.02401	0.357
Mof_O 	O 	0.50759	0.38759	0.97867	-0.295
Mof_O 	O 	0.38759	0.50759	0.12615	-0.475
Mof_O 	O 	0.97867	0.12615	0.50759	-0.336
Mof_O 	O 	0.12615	0.97867	0.38759	-0.355
Mof_O 	O 	0.50759	0.97867	0.12615	-0.336
Mof_O 	O 	0.38759	0.12615	0.97867	-0.355
Mof_O 	O 	0.97867	0.50759	0.38759	-0.295
Mof_O 	O 	0.12615	0.38759	0.50759	-0.475
Mof_O 	O 	0.50759	0.12615	0.38759	-0.475
Mof_O 	O 	0.38759	0.97867	0.50759	-0.295
Mof_O 	O 	0.97867	0.38759	0.12615	-0.355
Mof_O 	O 	0.12615	0.50759	0.97867	-0.336
Mof_O 	O 	0.61241	0.49241	0.02133	-0.464
Mof_O 	O 	0.49241	0.61241	0.87385	-0.287
Mof_O 	O 	0.87385	0.02133	0.49241	-0.367
Mof_O 	O 	0.02133	0.87385	0.61241	-0.347
Mof_O 	O 	0.02133	0.49241	0.87385	-0.367
Mof_O 	O 	0.87385	0.61241	0.02133	-0.347
Mof_O 	O 	0.49241	0.02133	0.61241	-0.464
Mof_O 	O 	0.61241	0.87385	0.49241	-0.287
Mof_O 	O 	0.87385	0.49241	0.61241	-0.287
Mof_O 	O 	0.02133	0.61241	0.49241	-0.464
Mof_O 	O 	0.61241	0.02133	0.87385	-0.347
Mof_O 	O 	0.49241	0.87385	0.02133	-0.367
Mof_O 	O 	0.49241	0.61241	0.02133	-0.464
Mof_O 	O 	0.61241	0.49241	0.87385	-0.287
Mof_O 	O 	0.02133	0.87385	0.49241	-0.367
Mof_O 	O 	0.87385	0.02133	0.61241	-0.347
Mof_O 	O 	0.49241	0.02133	0.87385	-0.367
Mof_O 	O 	0.61241	0.87385	0.02133	-0.347
Mof_O 	O 	0.02133	0.49241	0.61241	-0.464
Mof_O 	O 	0.87385	0.61241	0.49241	-0.287
Mof_O 	O 	0.49241	0.87385	0.61241	-0.287
Mof_O 	O 	0.61241	0.02133	0.49241	-0.464
Mof_O 	O 	0.02133	0.61241	0.87385	-0.347
Mof_O 	O 	0.87385	0.49241	0.02133	-0.367
Mof_O 	O 	0.38759	0.50759	0.97867	-0.295
Mof_O 	O 	0.50759	0.38759	0.12615	-0.475
Mof_O 	O 	0.12615	0.97867	0.50759	-0.336
Mof_O 	O 	0.97867	0.12615	0.38759	-0.355
Mof_O 	O 	0.97867	0.50759	0.12615	-0.336
Mof_O 	O 	0.12615	0.38759	0.97867	-0.355
Mof_O 	O 	0.50759	0.97867	0.38759	-0.295
Mof_O 	O 	0.38759	0.12615	0.50759	-0.475
Mof_O 	O 	0.12615	0.50759	0.38759	-0.475
Mof_O 	O 	0.97867	0.38759	0.50759	-0.295
Mof_O 	O 	0.38759	0.97867	0.12615	-0.355
Mof_O 	O 	0.50759	0.12615	0.97867	-0.336
_end
