data_functionalizedCrystal
_audit_creation_method	'EQeq! by Chris Wilmer'
_symmetry_space_group_name_H-M	'P1'
_symmetry_Int_Tables_number	1
_symmetry_cell_setting	triclinic
loop_
_symmetry_equiv_pos_as_xyz
  x,y,z
_cell_length_a	9.9627
_cell_length_b	11.4207
_cell_length_c	14.5907
_cell_angle_alpha	91.4249
_cell_angle_beta	90
_cell_angle_gamma	90
loop_
_atom_site_label
_atom_site_type_symbol
_atom_site_fract_x
_atom_site_fract_y
_atom_site_fract_z
_atom_site_charge
Mof_Fe	Fe	0.92033	0.75546	0.13273	1.015
Mof_Fe	Fe	0.89094	0.25999	0.68775	0.97
Mof_Fe	Fe	0.42033	0.74454	0.36727	0.938
Mof_Fe	Fe	0.39094	0.24001	0.81225	0.932
Mof_Fe	Fe	0.07967	0.24454	0.86727	0.835
Mof_Fe	Fe	0.10906	0.74001	0.31225	0.907
Mof_Fe	Fe	0.57967	0.25546	0.63273	0.918
Mof_Fe	Fe	0.60906	0.75999	0.18775	0.941
Mof_Fe	Fe	-0	0.5	-0	0.773
Mof_Fe	Fe	0.5	-2.14066e-18	0.5	0.886
Mof_Fe	Fe	-0	0	-0	0.718
Mof_Fe	Fe	0.5	0.5	0.5	0.96
Mof_H 	H 	0.7567	0.8562	0.3682	-0.103
Mof_H 	H 	0.0336	0.478	0.2651	-0.137
Mof_H 	H 	0.6215	0.5555	0.0424	-0.089
Mof_H 	H 	0.1812	0.9834	0.2346	-0.152
Mof_H 	H 	0.1591	0.6997	0.9287	-0.126
Mof_H 	H 	0.7031	0.9847	0.0062	-0.098
Mof_H 	H 	0.2567	0.6438	0.1318	-0.122
Mof_H 	H 	0.5336	0.022	0.2349	-0.221
Mof_H 	H 	0.1215	0.9445	0.4576	-0.115
Mof_H 	H 	0.6812	0.5166	0.2654	-0.128
Mof_H 	H 	0.6591	0.8003	0.5713	-0.096
Mof_H 	H 	0.2031	0.5153	0.4938	-0.116
Mof_H 	H 	0.2433	0.1438	0.6318	-0.13
Mof_H 	H 	0.9664	0.522	0.7349	-0.09
Mof_H 	H 	0.3785	0.4445	0.9576	-0.125
Mof_H 	H 	0.8188	0.0166	0.7654	-0.097
Mof_H 	H 	0.8409	0.3003	0.0713	-0.063
Mof_H 	H 	0.2969	0.0153	0.9938	-0.089
Mof_H 	H 	0.7433	0.3562	0.8682	-0.106
Mof_H 	H 	0.4664	0.978	0.7651	-0.008
Mof_H 	H 	0.8785	0.0555	0.5424	-0.106
Mof_H 	H 	0.3188	0.4834	0.7346	-0.138
Mof_H 	H 	0.3409	0.1997	0.4287	-0.122
Mof_H 	H 	0.7969	0.4847	0.5062	-0.092
Mof_C 	C 	0.8262	0.82703	0.33173	0.509
Mof_C 	C 	0.0145	0.51761	0.21171	0.542
Mof_C 	C 	0.7121	0.5735	0.0488	0.396
Mof_C 	C 	0.1249	0.95463	0.18843	0.622
Mof_C 	C 	0.1045	0.74367	0.96817	0.603
Mof_C 	C 	0.7198	0.92765	0.04915	0.49
Mof_C 	C 	0.3262	0.67297	0.16827	0.512
Mof_C 	C 	0.5145	0.98239	0.28829	0.73
Mof_C 	C 	0.2121	0.9265	0.4512	0.515
Mof_C 	C 	0.6249	0.54537	0.31157	0.543
Mof_C 	C 	0.6045	0.75633	0.53183	0.518
Mof_C 	C 	0.2198	0.57235	0.45085	0.51
Mof_C 	C 	0.1738	0.17297	0.66827	0.515
Mof_C 	C 	0.9855	0.48239	0.78829	0.497
Mof_C 	C 	0.2879	0.4265	0.9512	0.613
Mof_C 	C 	0.8751	0.04537	0.81157	0.421
Mof_C 	C 	0.8955	0.25633	0.03183	0.375
Mof_C 	C 	0.2802	0.07235	0.95085	0.486
Mof_C 	C 	0.6738	0.32703	0.83173	0.509
Mof_C 	C 	0.4855	0.01761	0.71171	0.321
Mof_C 	C 	0.7879	0.0735	0.5488	0.521
Mof_C 	C 	0.3751	0.45463	0.68843	0.545
Mof_C 	C 	0.3955	0.24367	0.46817	0.531
Mof_C 	C 	0.7802	0.42765	0.54915	0.499
Mof_O 	O 	0.79947	0.80715	0.24755	-0.464
Mof_O 	O 	0.93547	0.81137	0.36987	-0.347
Mof_O 	O 	0.00567	0.62759	0.21859	-0.517
Mof_O 	O 	0.0002	0.45784	0.14134	-0.422
Mof_O 	O 	0.74206	0.65181	0.10731	-0.447
Mof_O 	O 	0.7915	0.51789	0.99869	-0.265
Mof_O 	O 	0.08166	0.85219	0.19719	-0.529
Mof_O 	O 	0.1009	0.02082	0.12562	-0.474
Mof_O 	O 	0.02757	0.68698	0.02178	-0.55
Mof_O 	O 	0.1128	0.84991	0.96411	-0.37
Mof_O 	O 	0.84235	0.89673	0.0597	-0.432
Mof_O 	O 	0.62191	0.88904	0.09044	-0.389
Mof_O 	O 	0.29947	0.69285	0.25245	-0.472
Mof_O 	O 	0.43547	0.68863	0.13013	-0.405
Mof_O 	O 	0.50567	0.87241	0.28141	-0.53
Mof_O 	O 	0.5002	0.04216	0.35866	-0.481
Mof_O 	O 	0.24206	0.84819	0.39269	-0.474
Mof_O 	O 	0.2915	0.98211	0.50131	-0.363
Mof_O 	O 	0.58166	0.64781	0.30281	-0.486
Mof_O 	O 	0.6009	0.47918	0.37438	-0.406
Mof_O 	O 	0.52757	0.81302	0.47822	-0.458
Mof_O 	O 	0.6128	0.65009	0.53589	-0.399
Mof_O 	O 	0.34235	0.60327	0.4403	-0.474
Mof_O 	O 	0.12191	0.61096	0.40956	-0.411
Mof_O 	O 	0.20053	0.19285	0.75245	-0.484
Mof_O 	O 	0.06453	0.18863	0.63013	-0.445
Mof_O 	O 	0.99433	0.37241	0.78141	-0.436
Mof_O 	O 	0.9998	0.54216	0.85866	-0.312
Mof_O 	O 	0.25794	0.34819	0.89269	-0.493
Mof_O 	O 	0.2085	0.48211	0.00131	-0.459
Mof_O 	O 	0.91834	0.14781	0.80281	-0.42
Mof_O 	O 	0.8991	0.97918	0.87438	-0.253
Mof_O 	O 	0.97243	0.31302	0.97822	-0.32
Mof_O 	O 	0.8872	0.15009	0.03589	-0.346
Mof_O 	O 	0.15765	0.10327	0.9403	-0.437
Mof_O 	O 	0.37809	0.11096	0.90956	-0.388
Mof_O 	O 	0.70053	0.30715	0.74755	-0.475
Mof_O 	O 	0.56453	0.31137	0.86987	-0.383
Mof_O 	O 	0.49433	0.12759	0.71859	-0.433
Mof_O 	O 	0.4998	0.95784	0.64134	-0.291
Mof_O 	O 	0.75794	0.15181	0.60731	-0.477
Mof_O 	O 	0.7085	0.01789	0.49869	-0.404
Mof_O 	O 	0.41834	0.35219	0.69719	-0.489
Mof_O 	O 	0.3991	0.52082	0.62562	-0.41
Mof_O 	O 	0.47243	0.18698	0.52178	-0.473
Mof_O 	O 	0.3872	0.34991	0.46411	-0.412
Mof_O 	O 	0.65765	0.39673	0.5597	-0.465
Mof_O 	O 	0.87809	0.38904	0.59044	-0.377
_end
