data_functionalizedCrystal
_audit_creation_method	'EQeq! by Chris Wilmer'
_symmetry_space_group_name_H-M	'P1'
_symmetry_Int_Tables_number	1
_symmetry_cell_setting	triclinic
loop_
_symmetry_equiv_pos_as_xyz
  x,y,z
_cell_length_a	12.975
_cell_length_b	23.05
_cell_length_c	13.155
_cell_angle_alpha	90
_cell_angle_beta	91.819
_cell_angle_gamma	90
loop_
_atom_site_label
_atom_site_type_symbol
_atom_site_fract_x
_atom_site_fract_y
_atom_site_fract_z
_atom_site_charge
Mof_N 	N 	0.9101	0.2644	0.4811	-0.231
Mof_C 	C 	0.9653	0.3041	0.5362	0.142
Mof_H 	H 	0.9319	0.324	0.5892	-0.04
Mof_C 	C 	0.0651	0.3168	0.5199	-0.242
Mof_H 	H 	0.0997	0.3452	0.5608	0.095
Mof_C 	C 	0.1178	0.2885	0.4427	0.156
Mof_C 	C 	0.0627	0.2455	0.3892	-0.232
Mof_H 	H 	0.0958	0.2235	0.3386	0.088
Mof_C 	C 	0.9608	0.2347	0.4092	0.13
Mof_H 	H 	0.925	0.2055	0.3713	-0.04
Mof_C 	C 	0.2253	0.304	0.416	-0.178
Mof_H 	H 	0.264	0.3152	0.479	0.075
Mof_H 	H 	0.259	0.2692	0.3882	0.073
Mof_N 	N 	0.2329	0.35166	0.3416	-0.085
Mof_C 	C 	0.1748	0.3402	0.2481	-0.042
Mof_H 	H 	0.1004	0.3384	0.2622	0.019
Mof_H 	H 	0.1956	0.3022	0.2203	0.019
Mof_C 	C 	0.1934	0.3875	0.1699	-0.065
Mof_H 	H 	0.2671	0.3879	0.1526	0.034
Mof_H 	H 	0.152	0.3795	0.107	0.02
Mof_N 	N 	0.1642	0.44502	0.2116	-0.139
Mof_C 	C 	0.2301	0.4553	0.3053	-0.069
Mof_H 	H 	0.2148	0.494	0.3339	0.028
Mof_H 	H 	0.3038	0.4543	0.2882	0.045
Mof_C 	C 	0.2079	0.4085	0.3828	-0.049
Mof_H 	H 	0.2496	0.4155	0.4459	0.035
Mof_H 	H 	0.1342	0.4097	0.3998	0.023
Mof_C 	C 	0.1813	0.492	0.1354	-0.111
Mof_H 	H 	0.2437	0.4832	0.0968	0.047
Mof_H 	H 	0.1923	0.5294	0.171	0.042
Mof_C 	C 	0.0893	0.49662	0.0634	0.001
Mof_C 	C 	0.0077	0.53338	0.0871	-0.11
Mof_H 	H 	0.0128	0.5565	0.1468	0.029
Mof_C 	C 	0.9199	0.53674	0.0253	-0.065
Mof_H 	H 	0.8653	0.5619	0.0432	0.028
Mof_N 	N 	0.4101	0.7644	0.4811	-0.217
Mof_C 	C 	0.4653	0.8041	0.5362	0.094
Mof_H 	H 	0.4319	0.824	0.5892	-0.029
Mof_C 	C 	0.5651	0.8168	0.5199	-0.187
Mof_H 	H 	0.5997	0.8452	0.5608	0.08
Mof_C 	C 	0.6178	0.7885	0.4427	0.124
Mof_C 	C 	0.5627	0.7455	0.3892	-0.179
Mof_H 	H 	0.5958	0.7235	0.3386	0.075
Mof_C 	C 	0.4608	0.7347	0.4092	0.085
Mof_H 	H 	0.425	0.7055	0.3713	-0.029
Mof_C 	C 	0.7253	0.804	0.416	-0.161
Mof_H 	H 	0.764	0.8152	0.479	0.072
Mof_H 	H 	0.759	0.7692	0.3882	0.07
Mof_N 	N 	0.7329	0.85166	0.3416	-0.086
Mof_C 	C 	0.6748	0.8402	0.2481	-0.042
Mof_H 	H 	0.6004	0.8384	0.2622	0.021
Mof_H 	H 	0.6956	0.8022	0.2203	0.02
Mof_C 	C 	0.6934	0.8875	0.1699	-0.065
Mof_H 	H 	0.7671	0.8879	0.1526	0.035
Mof_H 	H 	0.652	0.8795	0.107	0.02
Mof_N 	N 	0.6642	0.94502	0.2116	-0.143
Mof_C 	C 	0.7301	0.9553	0.3053	-0.07
Mof_H 	H 	0.7148	0.994	0.3339	0.03
Mof_H 	H 	0.8038	0.9543	0.2882	0.048
Mof_C 	C 	0.7079	0.9085	0.3828	-0.048
Mof_H 	H 	0.7496	0.9155	0.4459	0.037
Mof_H 	H 	0.6342	0.9097	0.3998	0.024
Mof_C 	C 	0.6813	0.992	0.1354	-0.088
Mof_H 	H 	0.7437	0.9832	0.0968	0.042
Mof_H 	H 	0.6923	0.0294	0.171	0.036
Mof_C 	C 	0.5893	0.99662	0.0634	-0.04
Mof_C 	C 	0.5077	0.03338	0.0871	-0.051
Mof_H 	H 	0.5128	0.0565	0.1468	0.014
Mof_C 	C 	0.4199	0.03674	0.0253	-0.125
Mof_H 	H 	0.3653	0.0619	0.0432	0.044
Mof_N 	N 	0.0899	0.2644	0.0189	-0.208
Mof_C 	C 	0.0347	0.3041	0.9638	0.049
Mof_H 	H 	0.0681	0.324	0.9108	-0.015
Mof_C 	C 	0.9349	0.3168	0.9801	-0.096
Mof_H 	H 	0.9003	0.3452	0.9392	0.058
Mof_C 	C 	0.8822	0.2885	0.0573	0.055
Mof_C 	C 	0.9373	0.2455	0.1108	-0.113
Mof_H 	H 	0.9042	0.2235	0.1614	0.055
Mof_C 	C 	0.0392	0.2347	0.0908	0.03
Mof_H 	H 	0.075	0.2055	0.1287	-0.016
Mof_C 	C 	0.7747	0.304	0.084	-0.122
Mof_H 	H 	0.736	0.3152	0.021	0.053
Mof_H 	H 	0.741	0.2692	0.1118	0.055
Mof_N 	N 	0.7671	0.35166	0.1584	-0.093
Mof_C 	C 	0.8252	0.3402	0.2519	-0.041
Mof_H 	H 	0.8996	0.3384	0.2378	0.027
Mof_H 	H 	0.8044	0.3022	0.2797	0.019
Mof_C 	C 	0.8066	0.3875	0.3301	-0.066
Mof_H 	H 	0.7329	0.3879	0.3474	0.035
Mof_H 	H 	0.848	0.3795	0.393	0.027
Mof_N 	N 	0.8358	0.44502	0.2884	-0.137
Mof_C 	C 	0.7699	0.4553	0.1947	-0.069
Mof_H 	H 	0.7852	0.494	0.1661	0.029
Mof_H 	H 	0.6962	0.4543	0.2118	0.045
Mof_C 	C 	0.7921	0.4085	0.1172	-0.045
Mof_H 	H 	0.7504	0.4155	0.0541	0.029
Mof_H 	H 	0.8658	0.4097	0.1002	0.023
Mof_C 	C 	0.8187	0.492	0.3646	-0.092
Mof_H 	H 	0.7563	0.4832	0.4032	0.047
Mof_H 	H 	0.8077	0.5294	0.329	0.04
Mof_C 	C 	0.9107	0.49662	0.4366	-0.026
Mof_C 	C 	0.9923	0.53338	0.4129	-0.025
Mof_H 	H 	0.9872	0.5565	0.3532	0.014
Mof_C 	C 	0.0801	0.53674	0.4747	-0.13
Mof_H 	H 	0.1347	0.5619	0.4568	0.049
Mof_N 	N 	0.5899	0.7644	0.0189	-0.222
Mof_C 	C 	0.5347	0.8041	0.9638	0.1
Mof_H 	H 	0.5681	0.824	0.9108	-0.027
Mof_C 	C 	0.4349	0.8168	0.9801	-0.154
Mof_H 	H 	0.4003	0.8452	0.9392	0.073
Mof_C 	C 	0.3822	0.7885	0.0573	0.089
Mof_C 	C 	0.4373	0.7455	0.1108	-0.166
Mof_H 	H 	0.4042	0.7235	0.1614	0.068
Mof_C 	C 	0.5392	0.7347	0.0908	0.073
Mof_H 	H 	0.575	0.7055	0.1287	-0.026
Mof_C 	C 	0.2747	0.804	0.084	-0.141
Mof_H 	H 	0.236	0.8152	0.021	0.056
Mof_H 	H 	0.241	0.7692	0.1118	0.059
Mof_N 	N 	0.2671	0.85166	0.1584	-0.092
Mof_C 	C 	0.3252	0.8402	0.2519	-0.04
Mof_H 	H 	0.3996	0.8384	0.2378	0.021
Mof_H 	H 	0.3044	0.8022	0.2797	0.018
Mof_C 	C 	0.3066	0.8875	0.3301	-0.068
Mof_H 	H 	0.2329	0.8879	0.3474	0.034
Mof_H 	H 	0.348	0.8795	0.393	0.025
Mof_N 	N 	0.3358	0.94502	0.2884	-0.14
Mof_C 	C 	0.2699	0.9553	0.1947	-0.071
Mof_H 	H 	0.2852	0.994	0.1661	0.027
Mof_H 	H 	0.1962	0.9543	0.2118	0.043
Mof_C 	C 	0.2921	0.9085	0.1172	-0.044
Mof_H 	H 	0.2504	0.9155	0.0541	0.027
Mof_H 	H 	0.3658	0.9097	0.1002	0.019
Mof_C 	C 	0.3187	0.992	0.3646	-0.113
Mof_H 	H 	0.2563	0.9832	0.4032	0.051
Mof_H 	H 	0.3077	0.0294	0.329	0.042
Mof_C 	C 	0.4107	0.99662	0.4366	0.015
Mof_C 	C 	0.4923	0.03338	0.4129	-0.097
Mof_H 	H 	0.4872	0.0565	0.3532	0.03
Mof_C 	C 	0.5801	0.03674	0.4747	-0.062
Mof_H 	H 	0.6347	0.0619	0.4568	0.03
Mof_N 	N 	0.0899	0.7356	0.5189	-0.204
Mof_C 	C 	0.0347	0.6959	0.4638	0.045
Mof_H 	H 	0.0681	0.676	0.4108	-0.018
Mof_C 	C 	0.9349	0.6832	0.4801	-0.13
Mof_H 	H 	0.9003	0.6548	0.4392	0.064
Mof_C 	C 	0.8822	0.7115	0.5573	0.089
Mof_C 	C 	0.9373	0.7545	0.6108	-0.125
Mof_H 	H 	0.9042	0.7765	0.6614	0.062
Mof_C 	C 	0.0392	0.7653	0.5908	0.039
Mof_H 	H 	0.075	0.7945	0.6287	-0.017
Mof_C 	C 	0.7747	0.696	0.584	-0.141
Mof_H 	H 	0.736	0.6848	0.521	0.065
Mof_H 	H 	0.741	0.7308	0.6118	0.064
Mof_N 	N 	0.7671	0.64834	0.6584	-0.089
Mof_C 	C 	0.8252	0.6598	0.7519	-0.04
Mof_H 	H 	0.8996	0.6616	0.7378	0.027
Mof_H 	H 	0.8044	0.6978	0.7797	0.022
Mof_C 	C 	0.8066	0.6125	0.8301	-0.07
Mof_H 	H 	0.7329	0.6121	0.8474	0.04
Mof_H 	H 	0.848	0.6205	0.893	0.034
Mof_N 	N 	0.8358	0.55498	0.7884	-0.133
Mof_C 	C 	0.7699	0.5447	0.6947	-0.069
Mof_H 	H 	0.7852	0.506	0.6661	0.031
Mof_H 	H 	0.6962	0.5457	0.7118	0.047
Mof_C 	C 	0.7921	0.5915	0.6172	-0.048
Mof_H 	H 	0.7504	0.5845	0.5541	0.036
Mof_H 	H 	0.8658	0.5903	0.6002	0.028
Mof_C 	C 	0.8187	0.508	0.8646	-0.123
Mof_H 	H 	0.7563	0.5168	0.9032	0.06
Mof_H 	H 	0.8077	0.4706	0.829	0.051
Mof_C 	C 	0.9107	0.50338	0.9366	0.034
Mof_C 	C 	0.9923	0.46662	0.9129	-0.073
Mof_H 	H 	0.9872	0.4435	0.8532	0.031
Mof_C 	C 	0.0801	0.46326	0.9747	-0.065
Mof_H 	H 	0.1347	0.4381	0.9568	0.034
Mof_N 	N 	0.5899	0.2356	0.5189	-0.218
Mof_C 	C 	0.5347	0.1959	0.4638	0.092
Mof_H 	H 	0.5681	0.176	0.4108	-0.029
Mof_C 	C 	0.4349	0.1832	0.4801	-0.186
Mof_H 	H 	0.4003	0.1548	0.4392	0.079
Mof_C 	C 	0.3822	0.2115	0.5573	0.121
Mof_C 	C 	0.4373	0.2545	0.6108	-0.178
Mof_H 	H 	0.4042	0.2765	0.6614	0.075
Mof_C 	C 	0.5392	0.2653	0.5908	0.084
Mof_H 	H 	0.575	0.2945	0.6287	-0.028
Mof_C 	C 	0.2747	0.196	0.584	-0.158
Mof_H 	H 	0.236	0.1848	0.521	0.068
Mof_H 	H 	0.241	0.2308	0.6118	0.067
Mof_N 	N 	0.2671	0.14834	0.6584	-0.089
Mof_C 	C 	0.3252	0.1598	0.7519	-0.039
Mof_H 	H 	0.3996	0.1616	0.7378	0.021
Mof_H 	H 	0.3044	0.1978	0.7797	0.02
Mof_C 	C 	0.3066	0.1125	0.8301	-0.072
Mof_H 	H 	0.2329	0.1121	0.8474	0.039
Mof_H 	H 	0.348	0.1205	0.893	0.032
Mof_N 	N 	0.3358	0.05498	0.7884	-0.136
Mof_C 	C 	0.2699	0.0447	0.6947	-0.07
Mof_H 	H 	0.2852	0.006	0.6661	0.027
Mof_H 	H 	0.1962	0.0457	0.7118	0.044
Mof_C 	C 	0.2921	0.0915	0.6172	-0.048
Mof_H 	H 	0.2504	0.0845	0.5541	0.033
Mof_H 	H 	0.3658	0.0903	0.6002	0.023
Mof_C 	C 	0.3187	0.008	0.8646	-0.145
Mof_H 	H 	0.2563	0.0168	0.9032	0.064
Mof_H 	H 	0.3077	0.9706	0.829	0.055
Mof_C 	C 	0.4107	0.00338	0.9366	0.067
Mof_C 	C 	0.4923	0.96662	0.9129	-0.138
Mof_H 	H 	0.4872	0.9435	0.8532	0.045
Mof_C 	C 	0.5801	0.96326	0.9747	0
Mof_H 	H 	0.6347	0.9381	0.9568	0.016
Mof_N 	N 	0.9101	0.7356	0.9811	-0.215
Mof_C 	C 	0.9653	0.6959	0.0362	0.129
Mof_H 	H 	0.9319	0.676	0.0892	-0.039
Mof_C 	C 	0.0651	0.6832	0.0199	-0.268
Mof_H 	H 	0.0997	0.6548	0.0608	0.099
Mof_C 	C 	0.1178	0.7115	0.9427	0.186
Mof_C 	C 	0.0627	0.7545	0.8892	-0.243
Mof_H 	H 	0.0958	0.7765	0.8386	0.094
Mof_C 	C 	0.9608	0.7653	0.9092	0.14
Mof_H 	H 	0.925	0.7945	0.8713	-0.038
Mof_C 	C 	0.2253	0.696	0.916	-0.194
Mof_H 	H 	0.264	0.6848	0.979	0.087
Mof_H 	H 	0.259	0.7308	0.8882	0.081
Mof_N 	N 	0.2329	0.64834	0.8416	-0.082
Mof_C 	C 	0.1748	0.6598	0.7481	-0.041
Mof_H 	H 	0.1004	0.6616	0.7622	0.019
Mof_H 	H 	0.1956	0.6978	0.7203	0.018
Mof_C 	C 	0.1934	0.6125	0.6699	-0.069
Mof_H 	H 	0.2671	0.6121	0.6526	0.037
Mof_H 	H 	0.152	0.6205	0.607	0.024
Mof_N 	N 	0.1642	0.55498	0.7116	-0.135
Mof_C 	C 	0.2301	0.5447	0.8053	-0.069
Mof_H 	H 	0.2148	0.506	0.8339	0.03
Mof_H 	H 	0.3038	0.5457	0.7882	0.048
Mof_C 	C 	0.2079	0.5915	0.8828	-0.052
Mof_H 	H 	0.2496	0.5845	0.9459	0.041
Mof_H 	H 	0.1342	0.5903	0.8998	0.027
Mof_C 	C 	0.1813	0.508	0.6354	-0.14
Mof_H 	H 	0.2437	0.5168	0.5968	0.06
Mof_H 	H 	0.1923	0.4706	0.671	0.052
Mof_C 	C 	0.0893	0.50338	0.5634	0.059
Mof_C 	C 	0.0077	0.46662	0.5871	-0.161
Mof_H 	H 	0.0128	0.4435	0.6468	0.046
Mof_C 	C 	0.9199	0.46326	0.5253	0.005
Mof_H 	H 	0.8653	0.4381	0.5432	0.01
Mof_N 	N 	0.4101	0.2356	0.9811	-0.203
Mof_C 	C 	0.4653	0.1959	0.0362	0.085
Mof_H 	H 	0.4319	0.176	0.0892	-0.029
Mof_C 	C 	0.5651	0.1832	0.0199	-0.217
Mof_H 	H 	0.5997	0.1548	0.0608	0.085
Mof_C 	C 	0.6178	0.2115	0.9427	0.155
Mof_C 	C 	0.5627	0.2545	0.8892	-0.19
Mof_H 	H 	0.5958	0.2765	0.8386	0.081
Mof_C 	C 	0.4608	0.2653	0.9092	0.095
Mof_H 	H 	0.425	0.2945	0.8713	-0.028
Mof_C 	C 	0.7253	0.196	0.916	-0.178
Mof_H 	H 	0.764	0.1848	0.979	0.085
Mof_H 	H 	0.759	0.2308	0.8882	0.078
Mof_N 	N 	0.7329	0.14834	0.8416	-0.083
Mof_C 	C 	0.6748	0.1598	0.7481	-0.041
Mof_H 	H 	0.6004	0.1616	0.7622	0.022
Mof_H 	H 	0.6956	0.1978	0.7203	0.019
Mof_C 	C 	0.6934	0.1125	0.6699	-0.069
Mof_H 	H 	0.7671	0.1121	0.6526	0.038
Mof_H 	H 	0.652	0.1205	0.607	0.025
Mof_N 	N 	0.6642	0.05498	0.7116	-0.139
Mof_C 	C 	0.7301	0.0447	0.8053	-0.07
Mof_H 	H 	0.7148	0.006	0.8339	0.031
Mof_H 	H 	0.8038	0.0457	0.7882	0.05
Mof_C 	C 	0.7079	0.0915	0.8828	-0.051
Mof_H 	H 	0.7496	0.0845	0.9459	0.043
Mof_H 	H 	0.6342	0.0903	0.8998	0.028
Mof_C 	C 	0.6813	0.008	0.6354	-0.12
Mof_H 	H 	0.7437	0.0168	0.5968	0.056
Mof_H 	H 	0.6923	0.9706	0.671	0.049
Mof_C 	C 	0.5893	0.00338	0.5634	0.013
Mof_C 	C 	0.5077	0.96662	0.5871	-0.093
Mof_H 	H 	0.5128	0.9435	0.6468	0.029
Mof_C 	C 	0.4199	0.96326	0.5253	-0.063
Mof_H 	H 	0.3653	0.9381	0.5432	0.029
Mof_Ag	Ag	0.75	0.25	0.5	0.507
Mof_Ag	Ag	0.25	0.25	-0	0.467
Mof_Ag	Ag	0.25	0.75	0.5	0.497
Mof_Ag	Ag	0.75	0.75	-0	0.475
Mof_Ag	Ag	-9.03462e-19	0.44523	0.25	0.525
Mof_Ag	Ag	0.5	0.94523	0.25	0.557
Mof_Ag	Ag	3.61385e-18	0.55477	0.75	0.526
Mof_Ag	Ag	0.5	0.05477	0.75	0.558
_end
