data_functionalizedCrystal
_audit_creation_method	'EQeq! by Chris Wilmer'
_symmetry_space_group_name_H-M	'P1'
_symmetry_Int_Tables_number	1
_symmetry_cell_setting	triclinic
loop_
_symmetry_equiv_pos_as_xyz
  x,y,z
_cell_length_a	14.853
_cell_length_b	32.866
_cell_length_c	34.85
_cell_angle_alpha	105.848
_cell_angle_beta	90
_cell_angle_gamma	90
loop_
_atom_site_label
_atom_site_type_symbol
_atom_site_fract_x
_atom_site_fract_y
_atom_site_fract_z
_atom_site_charge
Mof_Zn	Zn	0.73272	0.30605	0.86924	1.166
Mof_Zn	Zn	0.70601	0.67147	0.15099	1.163
Mof_Zn	Zn	0.1858	0.98118	0.08118	1.166
Mof_Zn	Zn	0.94604	0.17484	0.11958	1.157
Mof_Zn	Zn	0.45961	0.49034	0.08398	1.164
Mof_Zn	Zn	0.25978	0.3077	0.36809	1.165
Mof_Zn	Zn	0.91576	0.80109	0.87047	1.159
Mof_Zn	Zn	0.23119	0.67743	0.61952	1.165
Mof_Zn	Zn	0.99467	0.48131	0.58713	1.149
Mof_Zn	Zn	0.72407	0.98952	0.58771	1.164
Mof_Zn	Zn	0.44824	0.81983	0.36254	1.165
Mof_Zn	Zn	0.465	0.17517	0.65575	1.162
Mof_H 	H 	0.9141	0.3311	0.9	-0.025
Mof_H 	H 	0.9889	0.3787	0.953	0.077
Mof_H 	H 	0.7549	0.4386	0.985	0.093
Mof_H 	H 	0.6811	0.3798	0.9376	-0.001
Mof_H 	H 	0.2849	0.5328	0.1065	-0.029
Mof_H 	H 	0.1376	0.5313	0.092	0.108
Mof_H 	H 	0.1775	0.4231	0.0091	0.091
Mof_H 	H 	0.3351	0.4322	0.0259	-0.023
Mof_H 	H 	0.6585	0.5898	0.0908	-0.018
Mof_H 	H 	0.7335	0.5238	0.0591	0.08
Mof_H 	H 	0.9689	0.5796	0.0981	0.083
Mof_H 	H 	0.8904	0.6398	0.1312	-0.008
Mof_H 	H 	0.8137	0.7286	0.1148	-0.011
Mof_H 	H 	0.9368	0.773	0.1279	0.06
Mof_H 	H 	0.9671	0.7479	0.2345	0.042
Mof_H 	H 	0.8441	0.7014	0.2183	0.001
Mof_H 	H 	0.2946	0.9305	0.1267	0.001
Mof_H 	H 	0.265	0.8865	0.1662	0.073
Mof_H 	H 	0.9992	0.8871	0.1422	0.015
Mof_H 	H 	0.0302	0.9356	0.1068	0.014
Mof_H 	H 	0.2895	0.7668	0.3235	-0.004
Mof_H 	H 	0.1838	0.7635	0.2723	0.076
Mof_H 	H 	0.3211	0.8627	0.2482	0.082
Mof_H 	H 	0.4141	0.8617	0.2998	-0.01
Mof_H 	H 	0.313	0.9301	0.0165	-0.015
Mof_H 	H 	0.4661	0.9265	0.001	0.087
Mof_H 	H 	0.515	0.0124	0.1053	0.089
Mof_H 	H 	0.3578	0.0087	0.1186	-0.021
Mof_H 	H 	0.9613	0.8833	0.9305	-0.026
Mof_H 	H 	0.8954	0.9375	0.9759	0.089
Mof_H 	H 	0.6595	0.8735	0.9514	0.088
Mof_H 	H 	0.7317	0.8247	0.9058	-0.023
Mof_H 	H 	0.7565	0.1435	0.1157	-0.001
Mof_H 	H 	0.675	0.0809	0.0913	0.093
Mof_H 	H 	0.9155	0.0192	0.0641	0.071
Mof_H 	H 	0.983	0.0823	0.0954	-0.036
Mof_H 	H 	0.8363	0.2399	0.0957	-0.01
Mof_H 	H 	0.7189	0.2875	0.1188	0.079
Mof_H 	H 	0.7143	0.2504	0.2194	0.083
Mof_H 	H 	0.8408	0.2055	0.1953	-0.024
Mof_H 	H 	0.3767	0.4581	0.1508	-0.018
Mof_H 	H 	0.3962	0.4042	0.1801	0.09
Mof_H 	H 	0.6294	0.379	0.1212	0.086
Mof_H 	H 	0.5938	0.4228	0.086	-0.017
Mof_H 	H 	0.3925	0.2514	0.306	-0.013
Mof_H 	H 	0.4726	0.2546	0.2519	0.08
Mof_H 	H 	0.3918	0.3769	0.2706	0.083
Mof_H 	H 	0.3193	0.3711	0.3282	-0.005
Mof_H 	H 	0.7933	0.7459	0.8085	-0.014
Mof_H 	H 	0.7028	0.7516	0.7544	0.077
Mof_H 	H 	0.792	0.8702	0.7713	0.084
Mof_H 	H 	0.887	0.8603	0.8221	-0.022
Mof_H 	H 	0.3442	0.7397	0.5952	-0.018
Mof_H 	H 	0.47	0.7826	0.6174	0.085
Mof_H 	H 	0.464	0.7492	0.7206	0.081
Mof_H 	H 	0.3407	0.7065	0.696	-0.006
Mof_H 	H 	0.8328	0.9371	0.6342	-0.014
Mof_H 	H 	0.8032	0.8877	0.6676	0.078
Mof_H 	H 	0.5436	0.8887	0.6394	0.079
Mof_H 	H 	0.5717	0.9408	0.6073	-0.005
Mof_H 	H 	0.1967	0.5822	0.5886	-0.008
Mof_H 	H 	0.2749	0.5207	0.5614	0.08
Mof_H 	H 	0.5034	0.5878	0.5767	0.095
Mof_H 	H 	0.4231	0.6476	0.6041	-0.004
Mof_H 	H 	0.4492	0.3334	0.3914	-0.01
Mof_H 	H 	0.5304	0.385	0.4435	0.071
Mof_H 	H 	0.2887	0.4307	0.4893	0.097
Mof_H 	H 	0.2184	0.381	0.437	-0.013
Mof_H 	H 	0.8346	0.5334	0.6039	-0.022
Mof_H 	H 	0.6784	0.5331	0.5857	0.085
Mof_H 	H 	0.7178	0.4212	0.5064	0.086
Mof_H 	H 	0.8693	0.4264	0.523	-0.021
Mof_H 	H 	0.8488	0.9358	0.5227	-0.016
Mof_H 	H 	0.9977	0.9312	0.5078	0.081
Mof_H 	H 	0.0504	0.0248	0.6072	0.077
Mof_H 	H 	0.8982	0.0271	0.6211	-0.007
Mof_H 	H 	0.492	0.8953	0.4286	-0.024
Mof_H 	H 	0.431	0.9422	0.4826	0.101
Mof_H 	H 	0.1867	0.8865	0.4477	0.081
Mof_H 	H 	0.2605	0.8388	0.3979	0.004
Mof_H 	H 	0.2876	0.1532	0.6164	-0.009
Mof_H 	H 	0.2096	0.0906	0.5844	0.098
Mof_H 	H 	0.4464	0.0294	0.5631	0.084
Mof_H 	H 	0.5166	0.0915	0.5992	-0.017
Mof_H 	H 	0.3127	0.1961	0.7165	-0.003
Mof_H 	H 	0.187	0.2386	0.7304	0.073
Mof_H 	H 	0.2449	0.2828	0.636	0.087
Mof_H 	H 	0.374	0.2416	0.6269	-0.018
Mof_H 	H 	0.7686	0.3565	0.8174	-0.028
Mof_H 	H 	0.8555	0.3602	0.7606	0.091
Mof_H 	H 	0.9749	0.253	0.7671	0.072
Mof_H 	H 	0.8837	0.2532	0.82	-0.022
Mof_H 	H 	0.1366	0.4397	0.6228	-0.015
Mof_H 	H 	0.1566	0.3886	0.6544	0.089
Mof_H 	H 	0.8862	0.38	0.663	0.092
Mof_H 	H 	0.8736	0.4337	0.6326	-0.007
Mof_C 	C 	0.8792	0.352	0.9182	0.103
Mof_C 	C 	0.9258	0.3811	0.9498	-0.149
Mof_C 	C 	0.8781	0.412	0.9749	0.068
Mof_C 	C 	0.7884	0.4153	0.9696	-0.126
Mof_C 	C 	0.745	0.3813	0.9389	0.051
Mof_C 	C 	0.9208	0.4437	0.0071	0.044
Mof_C 	C 	0.0419	0.4726	0.0447	0.124
Mof_C 	C 	0.9105	0.5069	0.0552	0.089
Mof_C 	C 	0.2636	0.5092	0.0861	0.115
Mof_C 	C 	0.1749	0.5082	0.0788	-0.162
Mof_C 	C 	0.1393	0.4744	0.0527	0.088
Mof_C 	C 	0.1975	0.446	0.0305	-0.142
Mof_C 	C 	0.2932	0.4521	0.041	0.103
Mof_C 	C 	0.722	0.5874	0.0928	0.066
Mof_C 	C 	0.7676	0.5479	0.0728	-0.128
Mof_C 	C 	0.8552	0.5457	0.0739	0.063
Mof_C 	C 	0.9052	0.5807	0.0964	-0.126
Mof_C 	C 	0.8579	0.6162	0.1155	0.071
Mof_C 	C 	0.8451	0.7326	0.1393	0.053
Mof_C 	C 	0.9174	0.759	0.147	-0.093
Mof_C 	C 	0.9616	0.765	0.1822	-0.006
Mof_C 	C 	0.9359	0.7439	0.21	-0.076
Mof_C 	C 	0.8628	0.7169	0.2004	0.032
Mof_C 	C 	0.0437	0.7935	0.19	0.143
Mof_C 	C 	0.1193	0.8479	0.1792	0.136
Mof_C 	C 	0.174	0.8151	0.2225	0.105
Mof_C 	C 	0.2342	0.9231	0.1307	0.035
Mof_C 	C 	0.2161	0.8956	0.153	-0.075
Mof_C 	C 	0.1333	0.8808	0.1575	0.015
Mof_C 	C 	0.0591	0.8962	0.1398	-0.004
Mof_C 	C 	0.0791	0.9251	0.1188	0.017
Mof_C 	C 	0.2952	0.7861	0.3078	0.07
Mof_C 	C 	0.2309	0.7838	0.2772	-0.114
Mof_C 	C 	0.2399	0.813	0.2543	0.046
Mof_C 	C 	0.3122	0.8428	0.2631	-0.108
Mof_C 	C 	0.3672	0.8413	0.2935	0.063
Mof_C 	C 	0.3539	0.9475	0.0348	0.09
Mof_C 	C 	0.4455	0.9449	0.0255	-0.133
Mof_C 	C 	0.5052	0.969	0.0521	0.074
Mof_C 	C 	0.4756	0.9946	0.0866	-0.135
Mof_C 	C 	0.38	0.9933	0.0932	0.082
Mof_C 	C 	0.6034	0.9688	0.0416	0.104
Mof_C 	C 	0.7237	0.9451	0.0037	0.086
Mof_C 	C 	0.7345	0.0052	0.0516	0.098
Mof_C 	C 	0.8982	0.8819	0.9346	0.087
Mof_C 	C 	0.8603	0.9137	0.9625	-0.143
Mof_C 	C 	0.7687	0.9118	0.9717	0.06
Mof_C 	C 	0.7223	0.8765	0.9479	-0.144
Mof_C 	C 	0.7656	0.8481	0.9209	0.097
Mof_C 	C 	0.7877	0.1175	0.1055	0.069
Mof_C 	C 	0.7389	0.0806	0.0903	-0.12
Mof_C 	C 	0.7858	0.0432	0.0734	0.056
Mof_C 	C 	0.8806	0.0439	0.0749	-0.135
Mof_C 	C 	0.9194	0.0818	0.0927	0.082
Mof_C 	C 	0.8112	0.2422	0.1213	0.057
Mof_C 	C 	0.7405	0.2701	0.1345	-0.119
Mof_C 	C 	0.7029	0.272	0.1704	0.057
Mof_C 	C 	0.7389	0.2486	0.1938	-0.117
Mof_C 	C 	0.8142	0.2213	0.1791	0.075
Mof_C 	C 	0.6237	0.3005	0.1844	0.097
Mof_C 	C 	0.5386	0.3551	0.1773	0.104
Mof_C 	C 	0.5047	0.3211	0.224	0.105
Mof_C 	C 	0.4273	0.44	0.1432	0.091
Mof_C 	C 	0.4401	0.4093	0.1621	-0.133
Mof_C 	C 	0.5191	0.3856	0.1546	0.072
Mof_C 	C 	0.5739	0.3938	0.1267	-0.14
Mof_C 	C 	0.5547	0.4207	0.107	0.083
Mof_C 	C 	0.3905	0.2769	0.2983	0.086
Mof_C 	C 	0.4404	0.2787	0.2669	-0.127
Mof_C 	C 	0.4438	0.3162	0.2571	0.062
Mof_C 	C 	0.3934	0.3514	0.2784	-0.101
Mof_C 	C 	0.3467	0.3468	0.311	0.054
Mof_C 	C 	0.7917	0.7716	0.8011	0.076
Mof_C 	C 	0.7382	0.775	0.7687	-0.114
Mof_C 	C 	0.7374	0.8119	0.7578	0.064
Mof_C 	C 	0.7913	0.8442	0.7782	-0.114
Mof_C 	C 	0.8455	0.8389	0.8093	0.073
Mof_C 	C 	0.6811	0.8159	0.7235	0.101
Mof_C 	C 	0.5617	0.7981	0.6849	0.099
Mof_C 	C 	0.649	0.852	0.6783	0.104
Mof_C 	C 	0.3695	0.7411	0.6205	0.084
Mof_C 	C 	0.4438	0.7671	0.6339	-0.125
Mof_C 	C 	0.4795	0.7704	0.6717	0.055
Mof_C 	C 	0.4409	0.7475	0.6948	-0.11
Mof_C 	C 	0.3685	0.7222	0.6801	0.055
Mof_C 	C 	0.7727	0.9276	0.6351	0.065
Mof_C 	C 	0.7549	0.8983	0.6552	-0.113
Mof_C 	C 	0.6693	0.8836	0.6581	0.054
Mof_C 	C 	0.6032	0.8991	0.6391	-0.103
Mof_C 	C 	0.6201	0.9296	0.6191	0.048
Mof_C 	C 	0.2605	0.5835	0.5869	0.057
Mof_C 	C 	0.3063	0.5468	0.5704	-0.117
Mof_C 	C 	0.4004	0.548	0.5671	0.061
Mof_C 	C 	0.4401	0.5857	0.5794	-0.13
Mof_C 	C 	0.3914	0.6216	0.5959	0.079
Mof_C 	C 	0.4506	0.5096	0.5473	0.099
Mof_C 	C 	0.4623	0.4467	0.5008	0.087
Mof_C 	C 	0.587	0.4766	0.5358	0.094
Mof_C 	C 	0.4174	0.3534	0.4117	0.062
Mof_C 	C 	0.4665	0.3848	0.4425	-0.109
Mof_C 	C 	0.4173	0.4138	0.4696	0.051
Mof_C 	C 	0.3234	0.4118	0.4692	-0.125
Mof_C 	C 	0.2822	0.3813	0.4387	0.079
Mof_C 	C 	0.8111	0.5099	0.5841	0.061
Mof_C 	C 	0.7162	0.51	0.5731	-0.118
Mof_C 	C 	0.6828	0.4763	0.5446	0.068
Mof_C 	C 	0.7392	0.4449	0.5265	-0.133
Mof_C 	C 	0.8298	0.4478	0.5377	0.083
Mof_C 	C 	0.8901	0.9543	0.5397	0.078
Mof_C 	C 	0.9783	0.952	0.531	-0.166
Mof_C 	C 	0.0433	0.9783	0.5543	0.086
Mof_C 	C 	0.0103	0.0066	0.5892	-0.06
Mof_C 	C 	0.9193	0.0079	0.5972	0.012
Mof_C 	C 	0.14	0.9786	0.5438	0.109
Mof_C 	C 	0.2563	0.9526	0.5056	0.091
Mof_C 	C 	0.2693	0.014	0.5521	0.099
Mof_C 	C 	0.4292	0.8935	0.4332	0.108
Mof_C 	C 	0.3937	0.9217	0.4653	-0.143
Mof_C 	C 	0.2979	0.9202	0.4729	0.044
Mof_C 	C 	0.2501	0.8886	0.4452	-0.115
Mof_C 	C 	0.2934	0.8612	0.4152	0.055
Mof_C 	C 	0.3196	0.1273	0.607	0.08
Mof_C 	C 	0.2732	0.0901	0.587	-0.127
Mof_C 	C 	0.3181	0.0539	0.5718	0.067
Mof_C 	C 	0.4121	0.054	0.575	-0.128
Mof_C 	C 	0.453	0.091	0.5962	0.072
Mof_C 	C 	0.2995	0.2148	0.7007	0.058
Mof_C 	C 	0.2244	0.2396	0.7085	-0.109
Mof_C 	C 	0.2012	0.266	0.6852	0.049
Mof_C 	C 	0.2581	0.266	0.6536	-0.12
Mof_C 	C 	0.3346	0.241	0.6482	0.082
Mof_C 	C 	0.1194	0.2927	0.6931	0.114
Mof_C 	C 	0.9901	0.3108	0.7265	0.057
Mof_C 	C 	0.038	0.3468	0.684	0.144
Mof_C 	C 	0.8097	0.3344	0.8059	0.098
Mof_C 	C 	0.8634	0.3375	0.7722	-0.138
Mof_C 	C 	0.9261	0.3065	0.7578	0.076
Mof_C 	C 	0.9322	0.275	0.776	-0.159
Mof_C 	C 	0.877	0.2751	0.8071	0.099
Mof_C 	C 	0.0845	0.4267	0.63	0.078
Mof_C 	C 	0.0972	0.3969	0.6498	-0.123
Mof_C 	C 	0.0243	0.3785	0.6634	0.097
Mof_C 	C 	0.9389	0.392	0.6551	-0.158
Mof_C 	C 	0.9321	0.4231	0.6353	0.043
Mof_I 	I 	0.5863	0.3391	0.85571	-0.385
Mof_I 	I 	0.74806	0.23719	0.88806	-0.369
Mof_I 	I 	0.67458	0.64236	0.2097	-0.359
Mof_I 	I 	0.60061	0.70693	0.11302	-0.386
Mof_I 	I 	0.09412	0.95631	0.01768	-0.355
Mof_I 	I 	0.17161	0.05593	0.12678	-0.361
Mof_I 	I 	0.98281	0.18027	0.04949	-0.403
Mof_I 	I 	0.06467	0.17869	0.17026	-0.343
Mof_I 	I 	0.4784	0.56262	0.13259	-0.397
Mof_I 	I 	0.55284	0.46401	0.02081	-0.379
Mof_I 	I 	0.11262	0.34107	0.35544	-0.353
Mof_I 	I 	0.26962	0.23797	0.38498	-0.365
Mof_I 	I 	0.89054	0.73033	0.88434	-0.402
Mof_I 	I 	0.06703	0.82885	0.858	-0.349
Mof_I 	I 	0.17411	0.69164	0.55526	-0.349
Mof_I 	I 	0.12375	0.67526	0.67367	-0.349
Mof_I 	I 	0.02382	0.55405	0.63449	-0.332
Mof_I 	I 	0.10093	0.45215	0.52805	-0.347
Mof_I 	I 	0.62165	0.96424	0.52732	-0.378
Mof_I 	I 	0.69418	0.05933	0.63961	-0.39
Mof_I 	I 	0.58714	0.85678	0.34561	-0.385
Mof_I 	I 	0.45414	0.75334	0.38501	-0.36
Mof_I 	I 	0.48745	0.13946	0.71112	-0.344
Mof_I 	I 	0.58447	0.21167	0.62477	-0.383
Mof_N 	N 	0.7954	0.3518	0.9124	-0.283
Mof_N 	N 	0.0092	0.4405	0.0135	-0.11
Mof_N 	N 	0.9957	0.506	0.0664	-0.159
Mof_N 	N 	0.8675	0.4771	0.0263	-0.134
Mof_N 	N 	0.3233	0.4819	0.0688	-0.292
Mof_N 	N 	0.7694	0.6195	0.1134	-0.273
Mof_N 	N 	0.8175	0.7123	0.1653	-0.257
Mof_N 	N 	0.0472	0.8244	0.1715	-0.133
Mof_N 	N 	0.1841	0.8468	0.2059	-0.135
Mof_N 	N 	0.1054	0.7872	0.2162	-0.145
Mof_N 	N 	0.1629	0.9398	0.1139	-0.261
Mof_N 	N 	0.362	0.8134	0.3158	-0.277
Mof_N 	N 	0.3221	0.973	0.0675	-0.281
Mof_N 	N 	0.6364	0.9394	0.012	-0.138
Mof_N 	N 	0.775	0.9765	0.0235	-0.144
Mof_N 	N 	0.6466	0.0026	0.0638	-0.132
Mof_N 	N 	0.8544	0.8485	0.9123	-0.289
Mof_N 	N 	0.8764	0.1174	0.1063	-0.277
Mof_N 	N 	0.8456	0.2182	0.1437	-0.276
Mof_N 	N 	0.6084	0.3291	0.1645	-0.138
Mof_N 	N 	0.486	0.352	0.2067	-0.135
Mof_N 	N 	0.5716	0.2941	0.2134	-0.14
Mof_N 	N 	0.4811	0.446	0.1149	-0.281
Mof_N 	N 	0.3378	0.3081	0.32	-0.274
Mof_N 	N 	0.8387	0.8039	0.8208	-0.27
Mof_N 	N 	0.6104	0.7905	0.714	-0.141
Mof_N 	N 	0.5752	0.8288	0.667	-0.135
Mof_N 	N 	0.7034	0.8475	0.7085	-0.135
Mof_N 	N 	0.3353	0.7193	0.642	-0.272
Mof_N 	N 	0.7065	0.9437	0.6163	-0.27
Mof_N 	N 	0.3024	0.6224	0.6013	-0.275
Mof_N 	N 	0.4098	0.4799	0.5205	-0.139
Mof_N 	N 	0.5513	0.4444	0.5062	-0.135
Mof_N 	N 	0.5396	0.5103	0.5565	-0.131
Mof_N 	N 	0.3281	0.3531	0.4124	-0.269
Mof_N 	N 	0.865	0.4782	0.5674	-0.288
Mof_N 	N 	0.8599	0.9835	0.5732	-0.267
Mof_N 	N 	0.1709	0.9473	0.5142	-0.134
Mof_N 	N 	0.3102	0.9854	0.523	-0.14
Mof_N 	N 	0.1829	0.0124	0.564	-0.132
Mof_N 	N 	0.3857	0.8649	0.4088	-0.275
Mof_N 	N 	0.4062	0.1263	0.6127	-0.274
Mof_N 	N 	0.3553	0.2168	0.6705	-0.271
Mof_N 	N 	0.0585	0.2827	0.7175	-0.121
Mof_N 	N 	0.9747	0.3414	0.7084	-0.15
Mof_N 	N 	0.1136	0.324	0.6762	-0.133
Mof_N 	N 	0.8156	0.3037	0.8203	-0.287
Mof_N 	N 	0.002	0.4397	0.6195	-0.257
Mof_Zn	Zn	0.23272	0.69395	0.13076	1.165
Mof_Zn	Zn	0.20601	0.32853	0.84901	1.163
Mof_Zn	Zn	0.6858	0.01882	0.91882	1.165
Mof_Zn	Zn	0.44604	0.82516	0.88042	1.163
Mof_Zn	Zn	0.95961	0.50966	0.91602	1.156
Mof_Zn	Zn	0.75978	0.6923	0.63191	1.164
Mof_Zn	Zn	0.41576	0.19891	0.12953	1.165
Mof_Zn	Zn	0.73119	0.32257	0.38048	1.164
Mof_Zn	Zn	0.49467	0.51869	0.41287	1.166
Mof_Zn	Zn	0.22407	0.01048	0.41229	1.164
Mof_Zn	Zn	0.94824	0.18017	0.63746	1.158
Mof_Zn	Zn	0.965	0.82483	0.34425	1.154
Mof_H 	H 	0.4141	0.6689	0.1	-0.016
Mof_H 	H 	0.4889	0.6213	0.047	0.088
Mof_H 	H 	0.2549	0.5614	0.015	0.091
Mof_H 	H 	0.1811	0.6202	0.0624	0.003
Mof_H 	H 	0.7849	0.4672	0.8935	-0.031
Mof_H 	H 	0.6376	0.4687	0.908	0.103
Mof_H 	H 	0.6775	0.5769	0.9909	0.089
Mof_H 	H 	0.8351	0.5678	0.9741	-0.032
Mof_H 	H 	0.1585	0.4102	0.9092	-0.01
Mof_H 	H 	0.2335	0.4762	0.9409	0.082
Mof_H 	H 	0.4689	0.4204	0.9019	0.096
Mof_H 	H 	0.3904	0.3602	0.8688	-0.001
Mof_H 	H 	0.3137	0.2714	0.8852	-0.013
Mof_H 	H 	0.4368	0.227	0.8721	0.083
Mof_H 	H 	0.4671	0.2521	0.7655	0.063
Mof_H 	H 	0.3441	0.2986	0.7817	-0.002
Mof_H 	H 	0.7946	0.0695	0.8733	-0.008
Mof_H 	H 	0.765	0.1135	0.8338	0.079
Mof_H 	H 	0.4992	0.1129	0.8578	0.083
Mof_H 	H 	0.5302	0.0644	0.8932	-0.011
Mof_H 	H 	0.7895	0.2332	0.6765	-0.005
Mof_H 	H 	0.6838	0.2365	0.7277	0.07
Mof_H 	H 	0.8211	0.1373	0.7518	0.078
Mof_H 	H 	0.9141	0.1383	0.7002	-0.019
Mof_H 	H 	0.813	0.0699	0.9835	-0.04
Mof_H 	H 	0.9661	0.0735	0.999	0.128
Mof_H 	H 	0.015	0.9876	0.8947	0.192
Mof_H 	H 	0.8578	0.9913	0.8814	-0.06
Mof_H 	H 	0.4613	0.1167	0.0695	-0.012
Mof_H 	H 	0.3954	0.0625	0.0241	0.098
Mof_H 	H 	0.1595	0.1265	0.0486	0.098
Mof_H 	H 	0.2317	0.1753	0.0942	-0.02
Mof_H 	H 	0.2565	0.8565	0.8843	-0
Mof_H 	H 	0.175	0.9191	0.9087	0.097
Mof_H 	H 	0.4155	0.9808	0.9359	0.081
Mof_H 	H 	0.483	0.9177	0.9046	-0.022
Mof_H 	H 	0.3363	0.7601	0.9043	-0.007
Mof_H 	H 	0.2189	0.7125	0.8812	0.082
Mof_H 	H 	0.2143	0.7496	0.7806	0.087
Mof_H 	H 	0.3408	0.7945	0.8047	-0.016
Mof_H 	H 	0.8767	0.5419	0.8492	-0.036
Mof_H 	H 	0.8962	0.5958	0.8199	0.113
Mof_H 	H 	0.1294	0.621	0.8788	0.114
Mof_H 	H 	0.0938	0.5772	0.914	-0.039
Mof_H 	H 	0.8925	0.7486	0.694	-0.009
Mof_H 	H 	0.9726	0.7454	0.7481	0.054
Mof_H 	H 	0.8918	0.6231	0.7294	0.062
Mof_H 	H 	0.8193	0.6289	0.6718	-0.003
Mof_H 	H 	0.2933	0.2541	0.1915	-0.011
Mof_H 	H 	0.2028	0.2484	0.2456	0.081
Mof_H 	H 	0.292	0.1298	0.2287	0.087
Mof_H 	H 	0.387	0.1397	0.1779	-0.014
Mof_H 	H 	0.8442	0.2603	0.4048	-0.016
Mof_H 	H 	0.97	0.2174	0.3826	0.061
Mof_H 	H 	0.964	0.2508	0.2794	0.057
Mof_H 	H 	0.8407	0.2935	0.304	-0.003
Mof_H 	H 	0.3328	0.0629	0.3658	-0.01
Mof_H 	H 	0.3032	0.1123	0.3324	0.082
Mof_H 	H 	0.0436	0.1113	0.3606	0.088
Mof_H 	H 	0.0717	0.0592	0.3927	0.001
Mof_H 	H 	0.6967	0.4178	0.4114	-0.016
Mof_H 	H 	0.7749	0.4793	0.4386	0.092
Mof_H 	H 	0.0034	0.4122	0.4233	0.165
Mof_H 	H 	0.9231	0.3524	0.3959	-0.035
Mof_H 	H 	0.9492	0.6666	0.6086	-0.036
Mof_H 	H 	0.0304	0.615	0.5565	0.134
Mof_H 	H 	0.7887	0.5693	0.5107	0.107
Mof_H 	H 	0.7184	0.619	0.563	-0.021
Mof_H 	H 	0.3346	0.4666	0.3961	-0.014
Mof_H 	H 	0.1784	0.4669	0.4143	0.087
Mof_H 	H 	0.2178	0.5788	0.4936	0.086
Mof_H 	H 	0.3693	0.5736	0.477	-0.014
Mof_H 	H 	0.3488	0.0642	0.4773	-0.007
Mof_H 	H 	0.4977	0.0688	0.4922	0.077
Mof_H 	H 	0.5504	0.9752	0.3928	0.085
Mof_H 	H 	0.3982	0.9729	0.3789	-0.018
Mof_H 	H 	0.992	0.1047	0.5714	-0.038
Mof_H 	H 	0.931	0.0578	0.5174	0.092
Mof_H 	H 	0.6867	0.1135	0.5523	0.076
Mof_H 	H 	0.7605	0.1612	0.6021	0.003
Mof_H 	H 	0.7876	0.8468	0.3836	-0.007
Mof_H 	H 	0.7096	0.9094	0.4156	0.088
Mof_H 	H 	0.9464	0.9706	0.4369	0.054
Mof_H 	H 	0.0166	0.9085	0.4008	0.043
Mof_H 	H 	0.8127	0.8039	0.2835	-0.004
Mof_H 	H 	0.687	0.7614	0.2696	0.068
Mof_H 	H 	0.7449	0.7172	0.364	0.082
Mof_H 	H 	0.874	0.7584	0.3731	-0.027
Mof_H 	H 	0.2686	0.6435	0.1826	-0.026
Mof_H 	H 	0.3555	0.6398	0.2394	0.093
Mof_H 	H 	0.4749	0.747	0.2329	0.08
Mof_H 	H 	0.3837	0.7468	0.18	-0.017
Mof_H 	H 	0.6366	0.5603	0.3772	-0.014
Mof_H 	H 	0.6566	0.6114	0.3456	0.079
Mof_H 	H 	0.3862	0.62	0.337	0.084
Mof_H 	H 	0.3736	0.5663	0.3674	-0.008
Mof_C 	C 	0.3792	0.648	0.0818	0.101
Mof_C 	C 	0.4258	0.6189	0.0502	-0.139
Mof_C 	C 	0.3781	0.588	0.0251	0.059
Mof_C 	C 	0.2884	0.5847	0.0304	-0.118
Mof_C 	C 	0.245	0.6187	0.0611	0.05
Mof_C 	C 	0.4208	0.5563	0.9929	0.081
Mof_C 	C 	0.5419	0.5274	0.9553	0.086
Mof_C 	C 	0.4105	0.4931	0.9448	0.097
Mof_C 	C 	0.7636	0.4908	0.9139	0.117
Mof_C 	C 	0.6749	0.4918	0.9212	-0.171
Mof_C 	C 	0.6393	0.5256	0.9473	0.096
Mof_C 	C 	0.6975	0.554	0.9695	-0.151
Mof_C 	C 	0.7932	0.5479	0.959	0.105
Mof_C 	C 	0.222	0.4126	0.9072	0.068
Mof_C 	C 	0.2676	0.4521	0.9272	-0.125
Mof_C 	C 	0.3552	0.4543	0.9261	0.066
Mof_C 	C 	0.4052	0.4193	0.9036	-0.124
Mof_C 	C 	0.3579	0.3838	0.8845	0.076
Mof_C 	C 	0.3451	0.2674	0.8607	0.076
Mof_C 	C 	0.4174	0.241	0.853	-0.123
Mof_C 	C 	0.4616	0.235	0.8178	0.055
Mof_C 	C 	0.4359	0.2561	0.79	-0.103
Mof_C 	C 	0.3628	0.2831	0.7996	0.052
Mof_C 	C 	0.5437	0.2065	0.81	0.095
Mof_C 	C 	0.6193	0.1521	0.8208	0.116
Mof_C 	C 	0.674	0.1849	0.7775	0.101
Mof_C 	C 	0.7342	0.0769	0.8693	0.05
Mof_C 	C 	0.7161	0.1044	0.847	-0.104
Mof_C 	C 	0.6333	0.1192	0.8425	0.054
Mof_C 	C 	0.5591	0.1038	0.8602	-0.109
Mof_C 	C 	0.5791	0.0749	0.8812	0.063
Mof_C 	C 	0.7952	0.2139	0.6922	0.068
Mof_C 	C 	0.7309	0.2162	0.7228	-0.115
Mof_C 	C 	0.7399	0.187	0.7457	0.042
Mof_C 	C 	0.8122	0.1572	0.7369	-0.11
Mof_C 	C 	0.8672	0.1587	0.7065	0.061
Mof_C 	C 	0.8539	0.0525	0.9652	0.164
Mof_C 	C 	0.9455	0.0551	0.9745	-0.289
Mof_C 	C 	0.0052	0.031	0.9479	0.272
Mof_C 	C 	0.9756	0.0054	0.9134	-0.364
Mof_C 	C 	0.88	0.0067	0.9068	0.182
Mof_C 	C 	0.1034	0.0312	0.9584	0.057
Mof_C 	C 	0.2237	0.0549	0.9963	0.089
Mof_C 	C 	0.2345	0.9948	0.9484	0.099
Mof_C 	C 	0.3982	0.1181	0.0654	0.09
Mof_C 	C 	0.3603	0.0863	0.0375	-0.141
Mof_C 	C 	0.2687	0.0882	0.0283	0.066
Mof_C 	C 	0.2223	0.1235	0.0521	-0.145
Mof_C 	C 	0.2656	0.1519	0.0791	0.102
Mof_C 	C 	0.2877	0.8825	0.8945	0.073
Mof_C 	C 	0.2389	0.9194	0.9097	-0.12
Mof_C 	C 	0.2858	0.9568	0.9266	0.059
Mof_C 	C 	0.3806	0.9561	0.9251	-0.133
Mof_C 	C 	0.4194	0.9182	0.9073	0.085
Mof_C 	C 	0.3112	0.7578	0.8787	0.06
Mof_C 	C 	0.2405	0.7299	0.8655	-0.116
Mof_C 	C 	0.2029	0.728	0.8296	0.059
Mof_C 	C 	0.2389	0.7514	0.8062	-0.115
Mof_C 	C 	0.3142	0.7787	0.8209	0.077
Mof_C 	C 	0.1237	0.6995	0.8156	0.106
Mof_C 	C 	0.0386	0.6449	0.8227	0.119
Mof_C 	C 	0.0047	0.6789	0.776	0.185
Mof_C 	C 	0.9273	0.56	0.8568	0.129
Mof_C 	C 	0.9401	0.5907	0.8379	-0.228
Mof_C 	C 	0.0191	0.6144	0.8454	0.158
Mof_C 	C 	0.0739	0.6062	0.8733	-0.212
Mof_C 	C 	0.0547	0.5793	0.893	0.173
Mof_C 	C 	0.8905	0.7231	0.7017	0.061
Mof_C 	C 	0.9404	0.7213	0.7331	-0.09
Mof_C 	C 	0.9438	0.6838	0.7429	-0.01
Mof_C 	C 	0.8934	0.6486	0.7216	-0.069
Mof_C 	C 	0.8467	0.6532	0.689	0.032
Mof_C 	C 	0.2917	0.2284	0.1989	0.078
Mof_C 	C 	0.2382	0.225	0.2313	-0.114
Mof_C 	C 	0.2374	0.1881	0.2422	0.066
Mof_C 	C 	0.2913	0.1558	0.2218	-0.113
Mof_C 	C 	0.3455	0.1611	0.1907	0.074
Mof_C 	C 	0.1811	0.1841	0.2765	0.102
Mof_C 	C 	0.0617	0.2019	0.3151	0.144
Mof_C 	C 	0.149	0.148	0.3217	0.107
Mof_C 	C 	0.8695	0.2589	0.3795	0.063
Mof_C 	C 	0.9438	0.2329	0.3661	-0.099
Mof_C 	C 	0.9795	0.2296	0.3283	-0.008
Mof_C 	C 	0.9409	0.2525	0.3052	-0.081
Mof_C 	C 	0.8685	0.2778	0.3199	0.032
Mof_C 	C 	0.2727	0.0724	0.3649	0.069
Mof_C 	C 	0.2549	0.1017	0.3448	-0.112
Mof_C 	C 	0.1693	0.1164	0.3419	0.058
Mof_C 	C 	0.1032	0.1009	0.3609	-0.102
Mof_C 	C 	0.1201	0.0704	0.3809	0.052
Mof_C 	C 	0.7605	0.4165	0.4131	0.077
Mof_C 	C 	0.8063	0.4532	0.4296	-0.157
Mof_C 	C 	0.9004	0.452	0.4329	0.124
Mof_C 	C 	0.9401	0.4143	0.4206	-0.26
Mof_C 	C 	0.8914	0.3784	0.4041	0.137
Mof_C 	C 	0.9506	0.4904	0.4527	0.038
Mof_C 	C 	0.9623	0.5533	0.4992	0.029
Mof_C 	C 	0.087	0.5234	0.4642	0.099
Mof_C 	C 	0.9174	0.6466	0.5883	0.101
Mof_C 	C 	0.9665	0.6152	0.5575	-0.223
Mof_C 	C 	0.9173	0.5862	0.5304	0.104
Mof_C 	C 	0.8234	0.5882	0.5308	-0.161
Mof_C 	C 	0.7822	0.6187	0.5613	0.097
Mof_C 	C 	0.3111	0.4901	0.4159	0.061
Mof_C 	C 	0.2162	0.49	0.4269	-0.115
Mof_C 	C 	0.1828	0.5237	0.4554	0.068
Mof_C 	C 	0.2392	0.5551	0.4735	-0.129
Mof_C 	C 	0.3298	0.5522	0.4623	0.083
Mof_C 	C 	0.3901	0.0457	0.4603	0.061
Mof_C 	C 	0.4783	0.048	0.469	-0.11
Mof_C 	C 	0.5433	0.0217	0.4457	0.052
Mof_C 	C 	0.5103	0.9934	0.4108	-0.118
Mof_C 	C 	0.4193	0.9921	0.4028	0.068
Mof_C 	C 	0.64	0.0214	0.4562	0.112
Mof_C 	C 	0.7563	0.0474	0.4944	0.089
Mof_C 	C 	0.7693	0.986	0.4479	0.102
Mof_C 	C 	0.9292	0.1065	0.5668	0.105
Mof_C 	C 	0.8937	0.0783	0.5347	-0.145
Mof_C 	C 	0.7979	0.0798	0.5271	0.04
Mof_C 	C 	0.7501	0.1114	0.5548	-0.113
Mof_C 	C 	0.7934	0.1388	0.5848	0.051
Mof_C 	C 	0.8196	0.8727	0.393	0.064
Mof_C 	C 	0.7732	0.9099	0.413	-0.108
Mof_C 	C 	0.8181	0.9461	0.4282	0.04
Mof_C 	C 	0.9121	0.946	0.425	-0.078
Mof_C 	C 	0.953	0.909	0.4038	-0.023
Mof_C 	C 	0.7995	0.7852	0.2993	0.056
Mof_C 	C 	0.7244	0.7604	0.2915	-0.109
Mof_C 	C 	0.7012	0.734	0.3148	0.046
Mof_C 	C 	0.7581	0.734	0.3464	-0.124
Mof_C 	C 	0.8346	0.759	0.3518	0.08
Mof_C 	C 	0.6194	0.7073	0.3069	0.106
Mof_C 	C 	0.4901	0.6892	0.2735	0.095
Mof_C 	C 	0.538	0.6532	0.316	0.119
Mof_C 	C 	0.3097	0.6656	0.1941	0.098
Mof_C 	C 	0.3634	0.6625	0.2278	-0.131
Mof_C 	C 	0.4261	0.6935	0.2422	0.07
Mof_C 	C 	0.4322	0.725	0.224	-0.15
Mof_C 	C 	0.377	0.7249	0.1929	0.099
Mof_C 	C 	0.5845	0.5733	0.37	0.059
Mof_C 	C 	0.5972	0.6031	0.3502	-0.109
Mof_C 	C 	0.5243	0.6215	0.3366	0.049
Mof_C 	C 	0.4389	0.608	0.3449	-0.109
Mof_C 	C 	0.4321	0.5769	0.3647	0.068
Mof_I 	I 	0.0863	0.6609	0.14429	-0.349
Mof_I 	I 	0.24806	0.76281	0.11194	-0.355
Mof_I 	I 	0.17458	0.35764	0.7903	-0.332
Mof_I 	I 	0.10061	0.29307	0.88698	-0.346
Mof_I 	I 	0.59412	0.04369	0.98232	-0.38
Mof_I 	I 	0.67161	0.94407	0.87322	-0.379
Mof_I 	I 	0.48281	0.81973	0.95051	-0.369
Mof_I 	I 	0.56467	0.82131	0.82974	-0.382
Mof_I 	I 	0.9784	0.43738	0.86741	-0.431
Mof_I 	I 	0.05284	0.53599	0.97919	-0.337
Mof_I 	I 	0.61262	0.65893	0.64456	-0.383
Mof_I 	I 	0.76962	0.76203	0.61502	-0.383
Mof_I 	I 	0.39054	0.26967	0.11566	-0.365
Mof_I 	I 	0.56703	0.17115	0.142	-0.39
Mof_I 	I 	0.67411	0.30836	0.44474	-0.372
Mof_I 	I 	0.62375	0.32474	0.32633	-0.379
Mof_I 	I 	0.52382	0.44595	0.36551	-0.376
Mof_I 	I 	0.60093	0.54785	0.47195	-0.377
Mof_I 	I 	0.12165	0.03576	0.47268	-0.35
Mof_I 	I 	0.19418	0.94067	0.36039	-0.374
Mof_I 	I 	0.08714	0.14322	0.65439	-0.342
Mof_I 	I 	0.95414	0.24666	0.61499	-0.395
Mof_I 	I 	0.98745	0.86054	0.28888	-0.388
Mof_I 	I 	0.08447	0.78833	0.37523	-0.344
Mof_N 	N 	0.2954	0.6482	0.0876	-0.281
Mof_N 	N 	0.5092	0.5595	0.9865	-0.133
Mof_N 	N 	0.4957	0.494	0.9336	-0.131
Mof_N 	N 	0.3675	0.5229	0.9737	-0.136
Mof_N 	N 	0.8233	0.5181	0.9312	-0.297
Mof_N 	N 	0.2694	0.3805	0.8866	-0.271
Mof_N 	N 	0.3175	0.2877	0.8347	-0.263
Mof_N 	N 	0.5472	0.1756	0.8285	-0.135
Mof_N 	N 	0.6841	0.1532	0.7941	-0.134
Mof_N 	N 	0.6054	0.2128	0.7838	-0.146
Mof_N 	N 	0.6629	0.0602	0.8861	-0.273
Mof_N 	N 	0.862	0.1866	0.6842	-0.28
Mof_N 	N 	0.8221	0.027	0.9325	-0.317
Mof_N 	N 	0.1364	0.0606	0.988	-0.122
Mof_N 	N 	0.275	0.0235	0.9765	-0.14
Mof_N 	N 	0.1466	0.9974	0.9362	-0.121
Mof_N 	N 	0.3544	0.1515	0.0877	-0.286
Mof_N 	N 	0.3764	0.8826	0.8937	-0.274
Mof_N 	N 	0.3456	0.7818	0.8563	-0.272
Mof_N 	N 	0.1084	0.6709	0.8355	-0.139
Mof_N 	N 	0.986	0.648	0.7933	-0.182
Mof_N 	N 	0.0716	0.7059	0.7866	-0.146
Mof_N 	N 	0.9811	0.554	0.8851	-0.323
Mof_N 	N 	0.8378	0.6919	0.68	-0.268
Mof_N 	N 	0.3387	0.1961	0.1792	-0.267
Mof_N 	N 	0.1104	0.2095	0.286	-0.142
Mof_N 	N 	0.0752	0.1712	0.333	-0.134
Mof_N 	N 	0.2034	0.1525	0.2915	-0.134
Mof_N 	N 	0.8353	0.2807	0.358	-0.266
Mof_N 	N 	0.2065	0.0563	0.3837	-0.269
Mof_N 	N 	0.8024	0.3776	0.3987	-0.29
Mof_N 	N 	0.9098	0.5201	0.4795	-0.124
Mof_N 	N 	0.0513	0.5556	0.4938	-0.107
Mof_N 	N 	0.0396	0.4897	0.4435	-0.103
Mof_N 	N 	0.8281	0.6469	0.5876	-0.282
Mof_N 	N 	0.365	0.5218	0.4326	-0.28
Mof_N 	N 	0.3599	0.0165	0.4268	-0.271
Mof_N 	N 	0.6709	0.0527	0.4858	-0.141
Mof_N 	N 	0.8102	0.0146	0.477	-0.143
Mof_N 	N 	0.6829	0.9876	0.436	-0.137
Mof_N 	N 	0.8857	0.1351	0.5912	-0.279
Mof_N 	N 	0.9062	0.8737	0.3873	-0.261
Mof_N 	N 	0.8553	0.7832	0.3295	-0.274
Mof_N 	N 	0.5585	0.7173	0.2825	-0.147
Mof_N 	N 	0.4747	0.6586	0.2916	-0.133
Mof_N 	N 	0.6136	0.676	0.3238	-0.134
Mof_N 	N 	0.3156	0.6963	0.1797	-0.285
Mof_N 	N 	0.502	0.5603	0.3805	-0.281
_end
