data_functionalizedCrystal
_audit_creation_method	'EQeq! by Chris Wilmer'
_symmetry_space_group_name_H-M	'P1'
_symmetry_Int_Tables_number	1
_symmetry_cell_setting	triclinic
loop_
_symmetry_equiv_pos_as_xyz
  x,y,z
_cell_length_a	12.481
_cell_length_b	12.862
_cell_length_c	13.332
_cell_angle_alpha	100.001
_cell_angle_beta	105.253
_cell_angle_gamma	111.736
loop_
_atom_site_label
_atom_site_type_symbol
_atom_site_fract_x
_atom_site_fract_y
_atom_site_fract_z
_atom_site_charge
Mof_Cu	Cu	0.5	0.5	-0	0.841
Mof_Cu	Cu	-0	3.10936e-17	0.5	0.83
Mof_H 	H 	0.5523	0.0446	0.1367	0.12
Mof_H 	H 	0.5222	0.0764	0.2408	0.116
Mof_H 	H 	0.3597	0.9058	0.0445	-0.002
Mof_H 	H 	0.3273	0.9092	0.1507	0.001
Mof_H 	H 	0.3328	0.3296	0.1057	-0.01
Mof_H 	H 	0.5458	0.8814	0.1667	0.002
Mof_H 	H 	0.5152	0.9127	0.2707	-0.003
Mof_H 	H 	0.9564	0.1421	0.3287	-0.014
Mof_H 	H 	0.0207	0.6138	0.5559	0.072
Mof_H 	H 	0.1122	0.5889	0.5055	0.075
Mof_H 	H 	0.2765	0.6936	0.6969	0.059
Mof_H 	H 	0.181	0.7058	0.7491	0.069
Mof_H 	H 	0.3044	0.2689	0.8041	-0.026
Mof_H 	H 	0.7092	0.9125	0.3997	-0.027
Mof_H 	H 	0.3864	0.0968	0.0674	0.099
Mof_H 	H 	0.3435	0.0923	0.1674	0.094
Mof_H 	H 	0.0297	0.6888	0.0611	0.078
Mof_H 	H 	0.925	0.6072	0.0948	0.105
Mof_H 	H 	0.3317	0.623	0.0553	-0.051
Mof_H 	H 	0.0721	0.0571	0.9751	0.08
Mof_H 	H 	0.1669	0.1294	0.0937	0.063
Mof_H 	H 	0.1227	0.5573	0.0749	0.049
Mof_H 	H 	0.0112	0.474	0.0997	0.042
Mof_H 	H 	0.0814	0.0365	0.294	-0.035
Mof_H 	H 	0.0082	0.7599	0.3898	-0.03
Mof_H 	H 	0.1937	0.9624	0.9495	0.058
Mof_H 	H 	0.149	0.9396	0.0464	0.028
Mof_H 	H 	0.3847	0.559	0.7835	-0.02
Mof_H 	H 	0.0563	0.5037	0.6766	0.03
Mof_H 	H 	0.1534	0.4875	0.6291	0.03
Mof_H 	H 	0.0746	0.6406	0.2621	0.019
Mof_H 	H 	0.1765	0.7257	0.2286	0.033
Mof_H 	H 	0.4477	0.9554	0.8633	0.046
Mof_H 	H 	0.4778	0.9236	0.7592	0.036
Mof_H 	H 	0.6403	0.0942	0.9555	0.099
Mof_H 	H 	0.6727	0.0908	0.8493	0.093
Mof_H 	H 	0.6672	0.6704	0.8943	-0.038
Mof_H 	H 	0.4542	0.1186	0.8333	0.064
Mof_H 	H 	0.4848	0.0873	0.7293	0.055
Mof_H 	H 	0.0436	0.8579	0.6713	-0.029
Mof_H 	H 	0.9793	0.3862	0.4441	0.029
Mof_H 	H 	0.8878	0.4111	0.4945	0.026
Mof_H 	H 	0.7235	0.3064	0.3031	0.034
Mof_H 	H 	0.819	0.2942	0.2509	0.047
Mof_H 	H 	0.6956	0.7311	0.1959	-0.022
Mof_H 	H 	0.2908	0.0875	0.6003	-0.022
Mof_H 	H 	0.6136	0.9032	0.9326	0.03
Mof_H 	H 	0.6565	0.9077	0.8326	0.018
Mof_H 	H 	0.9703	0.3112	0.9389	0.066
Mof_H 	H 	0.075	0.3928	0.9052	0.035
Mof_H 	H 	0.6683	0.377	0.9447	0.003
Mof_H 	H 	0.9279	0.9429	0.0249	0.008
Mof_H 	H 	0.8331	0.8706	0.9063	0.014
Mof_H 	H 	0.8773	0.4427	0.9251	0.052
Mof_H 	H 	0.9888	0.526	0.9003	0.063
Mof_H 	H 	0.9186	0.9635	0.706	-0.009
Mof_H 	H 	0.9918	0.2401	0.6102	-0.014
Mof_H 	H 	0.8063	0.0376	0.0505	0.085
Mof_H 	H 	0.851	0.0604	0.9536	0.095
Mof_H 	H 	0.6153	0.441	0.2165	-0.024
Mof_H 	H 	0.9437	0.4963	0.3234	0.09
Mof_H 	H 	0.8466	0.5125	0.3709	0.081
Mof_H 	H 	0.9254	0.3594	0.7379	0.05
Mof_H 	H 	0.8235	0.2743	0.7714	0.046
Mof_C 	C 	0.5074	0.0112	0.1814	-0.304
Mof_C 	C 	0.3743	0.9568	0.1144	0.099
Mof_C 	C 	0.3103	0.2938	0.0317	0.041
Mof_C 	C 	0.5601	0.9463	0.2261	0.104
Mof_C 	C 	0.8801	0.0917	0.3283	0.106
Mof_C 	C 	0.0527	0.5574	0.5395	-0.196
Mof_C 	C 	0.2173	0.6544	0.7286	-0.089
Mof_C 	C 	0.2933	0.2581	0.8684	0.099
Mof_C 	C 	0.7484	0.9676	0.3686	0.107
Mof_C 	C 	0.3333	0.0454	0.0973	-0.238
Mof_C 	C 	0.0114	0.6345	0.1033	-0.184
Mof_C 	C 	0.3272	0.6174	0.9836	0.138
Mof_C 	C 	0.1589	0.0928	0.0204	-0.151
Mof_C 	C 	0.035	0.5303	0.0604	-0.106
Mof_C 	C 	0.0719	0.9626	0.299	0.103
Mof_C 	C 	0.0316	0.8138	0.3522	0.099
Mof_C 	C 	0.2017	0.9993	0.0228	-0.014
Mof_C 	C 	0.3568	0.5824	0.8374	0.086
Mof_C 	C 	0.1172	0.5403	0.6454	-0.04
Mof_C 	C 	0.0903	0.6966	0.2213	-0.002
Mof_C 	C 	0.4926	0.9888	0.8186	-0.011
Mof_C 	C 	0.6257	0.0432	0.8856	-0.213
Mof_C 	C 	0.6897	0.7062	0.9683	0.153
Mof_C 	C 	0.4399	0.0537	0.7739	-0.101
Mof_C 	C 	0.1199	0.9083	0.6717	0.104
Mof_C 	C 	0.9473	0.4426	0.4605	0.009
Mof_C 	C 	0.7827	0.3456	0.2714	-0.018
Mof_C 	C 	0.7067	0.7419	0.1316	0.098
Mof_C 	C 	0.2516	0.0324	0.6314	0.079
Mof_C 	C 	0.6667	0.9546	0.9027	0.033
Mof_C 	C 	0.9886	0.3655	0.8967	-0.061
Mof_C 	C 	0.6728	0.3826	0.0164	0.054
Mof_C 	C 	0.8411	0.9072	0.9796	0.07
Mof_C 	C 	0.965	0.4697	0.9396	-0.063
Mof_C 	C 	0.9281	0.0374	0.701	0.099
Mof_C 	C 	0.9684	0.1862	0.6478	0.104
Mof_C 	C 	0.7983	0.0007	0.9772	-0.19
Mof_C 	C 	0.6432	0.4176	0.1626	0.089
Mof_C 	C 	0.8828	0.4597	0.3546	-0.173
Mof_C 	C 	0.9097	0.3034	0.7787	-0.055
Mof_N 	N 	0.0958	0.8912	0.2331	-0.103
Mof_N 	N 	0.218	0.1598	0.8728	-0.101
Mof_N 	N 	0.2287	0.1846	0.9782	-0.062
Mof_N 	N 	0.6925	0.0015	0.293	-0.122
Mof_N 	N 	0.2608	0.6544	0.9195	-0.107
Mof_N 	N 	0.3883	0.5706	0.9371	-0.247
Mof_N 	N 	0.8687	0.0232	0.3942	-0.242
Mof_N 	N 	0.0684	0.7961	0.2699	-0.107
Mof_N 	N 	0.7767	0.082	0.2643	-0.104
Mof_N 	N 	0.3553	0.3447	0.9654	-0.227
Mof_N 	N 	0.2808	0.6315	0.8261	-0.09
Mof_N 	N 	0.0321	0.9173	0.3744	-0.248
Mof_N 	N 	0.9042	0.1088	0.7669	-0.096
Mof_N 	N 	0.782	0.8402	0.1272	-0.092
Mof_N 	N 	0.7713	0.8154	0.0218	-0.131
Mof_N 	N 	0.3075	0.9985	0.707	-0.084
Mof_N 	N 	0.7392	0.3456	0.0805	-0.1
Mof_N 	N 	0.6117	0.4294	0.0629	-0.243
Mof_N 	N 	0.1313	0.9768	0.6058	-0.244
Mof_N 	N 	0.9316	0.2039	0.7301	-0.093
Mof_N 	N 	0.2233	0.918	0.7357	-0.102
Mof_N 	N 	0.6447	0.6553	0.0346	-0.267
Mof_N 	N 	0.7192	0.3685	0.1739	-0.101
Mof_N 	N 	0.9679	0.0827	0.6256	-0.234
_end
