data_functionalizedCrystal
_audit_creation_method	'EQeq! by Chris Wilmer'
_symmetry_space_group_name_H-M	'P1'
_symmetry_Int_Tables_number	1
_symmetry_cell_setting	triclinic
loop_
_symmetry_equiv_pos_as_xyz
  x,y,z
_cell_length_a	19.7595
_cell_length_b	17.5176
_cell_length_c	22.161
_cell_angle_alpha	90
_cell_angle_beta	109.786
_cell_angle_gamma	90
loop_
_atom_site_label
_atom_site_type_symbol
_atom_site_fract_x
_atom_site_fract_y
_atom_site_fract_z
_atom_site_charge
Mof_Cu	Cu	0.86724	0.82068	0.16592	0.849
Mof_C 	C 	0.7098	0.0967	0.31732	-0.139
Mof_H 	H 	0.7296	0.0567	0.3454	0.07
Mof_C 	C 	0.6846	0.1607	0.339	0.074
Mof_H 	H 	0.6884	0.1627	0.3819	-0.024
Mof_N 	N 	0.6549	0.22034	0.3014	-0.242
Mof_C 	C 	0.6487	0.2145	0.24002	0.076
Mof_H 	H 	0.6259	0.2538	0.2125	-0.012
Mof_C 	C 	0.6743	0.1531	0.2147	-0.138
Mof_H 	H 	0.6704	0.1529	0.1717	0.072
Mof_C 	C 	0.706	0.0916	0.2542	0.052
Mof_C 	C 	0.7386	0.0269	0.23086	0.055
Mof_C 	C 	0.7766	0.0396	0.1896	-0.14
Mof_H 	H 	0.7792	0.0885	0.1742	0.069
Mof_C 	C 	0.8105	0.9799	0.1715	0.055
Mof_H 	H 	0.8369	0.9904	0.1449	-0.031
Mof_N 	N 	0.80773	0.90758	0.18988	-0.242
Mof_C 	C 	0.7687	0.8957	0.22786	0.072
Mof_H 	H 	0.7643	0.8458	0.2403	-0.017
Mof_C 	C 	0.7345	0.9526	0.25	-0.144
Mof_H 	H 	0.7092	0.9409	0.2773	0.073
Mof_C 	C 	0.4056	0.4994	0.891	-0.144
Mof_H 	H 	0.3679	0.5228	0.9001	0.073
Mof_C 	C 	0.3398	0.3931	0.0403	0.067
Mof_H 	H 	0.2948	0.4032	0.0432	-0.023
Mof_C 	C 	0.3556	0.4224	0.989	-0.136
Mof_C 	C 	0.4214	0.4079	0.98208	0.049
Mof_C 	C 	0.4407	0.4385	0.92743	0.062
Mof_C 	C 	0.4954	0.4065	0.9101	-0.143
Mof_H 	H 	0.5217	0.3658	0.9335	0.072
Mof_C 	C 	0.4491	0.3367	0.0788	0.067
Mof_H 	H 	0.482	0.3067	0.1097	-0.008
Mof_C 	C 	0.4687	0.363	0.0292	-0.132
Mof_C 	C 	0.5112	0.4344	0.8583	0.078
Mof_N 	N 	0.47711	0.49392	0.82322	-0.262
Mof_H 	H 	0.5137	0.3509	0.027	0.07
Mof_C 	C 	0.4257	0.5258	0.8413	0.084
Mof_N 	N 	0.386	0.3507	0.08621	-0.25
Mof_H 	H 	0.4021	0.5685	0.8189	-0.022
Mof_H 	H 	0.5473	0.4107	0.8471	-0.03
Mof_H 	H 	0.3218	0.4522	0.9587	0.068
Mof_Cu	Cu	0.36724	0.32068	0.16592	0.849
Mof_C 	C 	0.2098	0.5967	0.31732	-0.138
Mof_H 	H 	0.2296	0.5567	0.3454	0.07
Mof_C 	C 	0.1846	0.6607	0.339	0.073
Mof_H 	H 	0.1884	0.6627	0.3819	-0.024
Mof_N 	N 	0.1549	0.72034	0.3014	-0.242
Mof_C 	C 	0.1487	0.7145	0.24002	0.076
Mof_H 	H 	0.1259	0.7538	0.2125	-0.013
Mof_C 	C 	0.1743	0.6531	0.2147	-0.138
Mof_H 	H 	0.1704	0.6529	0.1717	0.071
Mof_C 	C 	0.206	0.5916	0.2542	0.052
Mof_C 	C 	0.2386	0.5269	0.23086	0.054
Mof_C 	C 	0.2766	0.5396	0.1896	-0.142
Mof_H 	H 	0.2792	0.5885	0.1742	0.07
Mof_C 	C 	0.3105	0.4799	0.1715	0.057
Mof_H 	H 	0.3369	0.4904	0.1449	-0.031
Mof_N 	N 	0.30773	0.40758	0.18988	-0.243
Mof_C 	C 	0.2687	0.3957	0.22786	0.071
Mof_H 	H 	0.2643	0.3458	0.2403	-0.017
Mof_C 	C 	0.2345	0.4526	0.25	-0.142
Mof_H 	H 	0.2092	0.4409	0.2773	0.073
Mof_C 	C 	0.9056	0.9994	0.891	-0.131
Mof_H 	H 	0.8679	0.0228	0.9001	0.068
Mof_C 	C 	0.8398	0.8931	0.0403	0.065
Mof_H 	H 	0.7948	0.9032	0.0432	-0.022
Mof_C 	C 	0.8556	0.9224	0.989	-0.135
Mof_C 	C 	0.9214	0.9079	0.98208	0.054
Mof_C 	C 	0.9407	0.9385	0.92743	0.051
Mof_C 	C 	0.9954	0.9065	0.9101	-0.123
Mof_H 	H 	0.0217	0.8658	0.9335	0.064
Mof_C 	C 	0.9491	0.8367	0.0788	0.066
Mof_H 	H 	0.982	0.8067	0.1097	-0.007
Mof_C 	C 	0.9687	0.863	0.0292	-0.131
Mof_C 	C 	0.0112	0.9344	0.8583	0.062
Mof_N 	N 	0.97711	0.99392	0.82322	-0.255
Mof_H 	H 	0.0137	0.8509	0.027	0.067
Mof_C 	C 	0.9257	0.0258	0.8413	0.075
Mof_N 	N 	0.886	0.8507	0.08621	-0.25
Mof_H 	H 	0.9021	0.0685	0.8189	-0.019
Mof_H 	H 	0.0473	0.9107	0.8471	-0.025
Mof_H 	H 	0.8218	0.9522	0.9587	0.068
Mof_Cu	Cu	0.13276	0.82068	0.33408	0.849
Mof_C 	C 	0.2902	0.0967	0.18268	-0.138
Mof_H 	H 	0.2704	0.0567	0.1546	0.071
Mof_C 	C 	0.3154	0.1607	0.161	0.074
Mof_H 	H 	0.3116	0.1627	0.1181	-0.024
Mof_N 	N 	0.3451	0.22034	0.1986	-0.242
Mof_C 	C 	0.3513	0.2145	0.25998	0.076
Mof_H 	H 	0.3741	0.2538	0.2875	-0.012
Mof_C 	C 	0.3257	0.1531	0.2853	-0.138
Mof_H 	H 	0.3296	0.1529	0.3283	0.072
Mof_C 	C 	0.294	0.0916	0.2458	0.052
Mof_C 	C 	0.2614	0.0269	0.26914	0.055
Mof_C 	C 	0.2234	0.0396	0.3104	-0.142
Mof_H 	H 	0.2208	0.0885	0.3258	0.069
Mof_C 	C 	0.1895	0.9799	0.3285	0.056
Mof_H 	H 	0.1631	0.9904	0.3551	-0.031
Mof_N 	N 	0.19227	0.90758	0.31012	-0.243
Mof_C 	C 	0.2313	0.8957	0.27214	0.072
Mof_H 	H 	0.2357	0.8458	0.2597	-0.017
Mof_C 	C 	0.2655	0.9526	0.25	-0.144
Mof_H 	H 	0.2908	0.9409	0.2227	0.073
Mof_C 	C 	0.5944	0.4994	0.609	-0.144
Mof_H 	H 	0.6321	0.5228	0.5999	0.074
Mof_C 	C 	0.6602	0.3931	0.4597	0.066
Mof_H 	H 	0.7052	0.4032	0.4568	-0.022
Mof_C 	C 	0.6444	0.4224	0.511	-0.135
Mof_C 	C 	0.5786	0.4079	0.51792	0.049
Mof_C 	C 	0.5593	0.4385	0.57257	0.062
Mof_C 	C 	0.5046	0.4065	0.5899	-0.143
Mof_H 	H 	0.4783	0.3658	0.5665	0.072
Mof_C 	C 	0.5509	0.3367	0.4212	0.067
Mof_H 	H 	0.518	0.3067	0.3903	-0.008
Mof_C 	C 	0.5313	0.363	0.4708	-0.132
Mof_C 	C 	0.4888	0.4344	0.6417	0.078
Mof_N 	N 	0.52289	0.49392	0.67678	-0.262
Mof_H 	H 	0.4863	0.3509	0.473	0.07
Mof_C 	C 	0.5743	0.5258	0.6587	0.084
Mof_N 	N 	0.614	0.3507	0.41379	-0.25
Mof_H 	H 	0.5979	0.5685	0.6811	-0.022
Mof_H 	H 	0.4527	0.4107	0.6529	-0.03
Mof_H 	H 	0.6782	0.4522	0.5413	0.068
Mof_Cu	Cu	0.63276	0.32068	0.33408	0.849
Mof_C 	C 	0.7902	0.5967	0.18268	-0.138
Mof_H 	H 	0.7704	0.5567	0.1546	0.071
Mof_C 	C 	0.8154	0.6607	0.161	0.074
Mof_H 	H 	0.8116	0.6627	0.1181	-0.024
Mof_N 	N 	0.8451	0.72034	0.1986	-0.242
Mof_C 	C 	0.8513	0.7145	0.25998	0.076
Mof_H 	H 	0.8741	0.7538	0.2875	-0.012
Mof_C 	C 	0.8257	0.6531	0.2853	-0.138
Mof_H 	H 	0.8296	0.6529	0.3283	0.072
Mof_C 	C 	0.794	0.5916	0.2458	0.052
Mof_C 	C 	0.7614	0.5269	0.26914	0.055
Mof_C 	C 	0.7234	0.5396	0.3104	-0.142
Mof_H 	H 	0.7208	0.5885	0.3258	0.07
Mof_C 	C 	0.6895	0.4799	0.3285	0.057
Mof_H 	H 	0.6631	0.4904	0.3551	-0.031
Mof_N 	N 	0.69227	0.40758	0.31012	-0.243
Mof_C 	C 	0.7313	0.3957	0.27214	0.072
Mof_H 	H 	0.7357	0.3458	0.2597	-0.017
Mof_C 	C 	0.7655	0.4526	0.25	-0.142
Mof_H 	H 	0.7908	0.4409	0.2227	0.073
Mof_C 	C 	0.0944	0.9994	0.609	-0.145
Mof_H 	H 	0.1321	0.0228	0.5999	0.073
Mof_C 	C 	0.1602	0.8931	0.4597	0.067
Mof_H 	H 	0.2052	0.9032	0.4568	-0.023
Mof_C 	C 	0.1444	0.9224	0.511	-0.136
Mof_C 	C 	0.0786	0.9079	0.51792	0.049
Mof_C 	C 	0.0593	0.9385	0.57257	0.065
Mof_C 	C 	0.0046	0.9065	0.5899	-0.158
Mof_H 	H 	0.9783	0.8658	0.5665	0.079
Mof_C 	C 	0.0509	0.8367	0.4212	0.07
Mof_H 	H 	0.018	0.8067	0.3903	-0.01
Mof_C 	C 	0.0313	0.863	0.4708	-0.139
Mof_C 	C 	0.9888	0.9344	0.6417	0.09
Mof_N 	N 	0.02289	0.99392	0.67678	-0.264
Mof_H 	H 	0.9863	0.8509	0.473	0.074
Mof_C 	C 	0.0743	0.0258	0.6587	0.083
Mof_N 	N 	0.114	0.8507	0.41379	-0.251
Mof_H 	H 	0.0979	0.0685	0.6811	-0.023
Mof_H 	H 	0.9527	0.9107	0.6529	-0.034
Mof_H 	H 	0.1782	0.9522	0.5413	0.068
Mof_Cl	Cl	0.5	0.66573	0.75	-0.696
Mof_Cl	Cl	4.22141e-33	0.16573	0.75	-0.698
Mof_Cu	Cu	0.5	0.53255	0.75	0.84
Mof_Cu	Cu	4.22141e-33	0.03255	0.75	0.839
Mof_Cu	Cu	0.13276	0.17932	0.83408	0.849
Mof_C 	C 	0.2902	0.9033	0.68268	-0.138
Mof_H 	H 	0.2704	0.9433	0.6546	0.071
Mof_C 	C 	0.3154	0.8393	0.661	0.074
Mof_H 	H 	0.3116	0.8373	0.6181	-0.024
Mof_N 	N 	0.3451	0.77966	0.6986	-0.242
Mof_C 	C 	0.3513	0.7855	0.75998	0.076
Mof_H 	H 	0.3741	0.7462	0.7875	-0.012
Mof_C 	C 	0.3257	0.8469	0.7853	-0.138
Mof_H 	H 	0.3296	0.8471	0.8283	0.072
Mof_C 	C 	0.294	0.9084	0.7458	0.052
Mof_C 	C 	0.2614	0.9731	0.76914	0.055
Mof_C 	C 	0.2234	0.9604	0.8104	-0.14
Mof_H 	H 	0.2208	0.9115	0.8258	0.069
Mof_C 	C 	0.1895	0.0201	0.8285	0.055
Mof_H 	H 	0.1631	0.0096	0.8551	-0.031
Mof_N 	N 	0.19227	0.09242	0.81012	-0.243
Mof_C 	C 	0.2313	0.1043	0.77214	0.072
Mof_H 	H 	0.2357	0.1542	0.7597	-0.017
Mof_C 	C 	0.2655	0.0474	0.75	-0.144
Mof_H 	H 	0.2908	0.0591	0.7227	0.073
Mof_C 	C 	0.5944	0.5006	0.109	-0.144
Mof_H 	H 	0.6321	0.4772	0.0999	0.074
Mof_C 	C 	0.6602	0.6069	0.9597	0.067
Mof_H 	H 	0.7052	0.5968	0.9568	-0.022
Mof_C 	C 	0.6444	0.5776	0.011	-0.135
Mof_C 	C 	0.5786	0.5921	0.01792	0.049
Mof_C 	C 	0.5593	0.5615	0.07257	0.062
Mof_C 	C 	0.5046	0.5935	0.0899	-0.143
Mof_H 	H 	0.4783	0.6342	0.0665	0.072
Mof_C 	C 	0.5509	0.6633	0.9212	0.067
Mof_H 	H 	0.518	0.6933	0.8903	-0.008
Mof_C 	C 	0.5313	0.637	0.9708	-0.132
Mof_C 	C 	0.4888	0.5656	0.1417	0.078
Mof_N 	N 	0.52289	0.50608	0.17678	-0.262
Mof_H 	H 	0.4863	0.6491	0.973	0.07
Mof_C 	C 	0.5743	0.4742	0.1587	0.084
Mof_N 	N 	0.614	0.6493	0.91379	-0.25
Mof_H 	H 	0.5979	0.4315	0.1811	-0.022
Mof_H 	H 	0.4527	0.5893	0.1529	-0.031
Mof_H 	H 	0.6782	0.5478	0.0413	0.068
Mof_Cu	Cu	0.63276	0.67932	0.83408	0.849
Mof_C 	C 	0.7902	0.4033	0.68268	-0.138
Mof_H 	H 	0.7704	0.4433	0.6546	0.071
Mof_C 	C 	0.8154	0.3393	0.661	0.074
Mof_H 	H 	0.8116	0.3373	0.6181	-0.024
Mof_N 	N 	0.8451	0.27966	0.6986	-0.242
Mof_C 	C 	0.8513	0.2855	0.75998	0.076
Mof_H 	H 	0.8741	0.2462	0.7875	-0.012
Mof_C 	C 	0.8257	0.3469	0.7853	-0.138
Mof_H 	H 	0.8296	0.3471	0.8283	0.072
Mof_C 	C 	0.794	0.4084	0.7458	0.052
Mof_C 	C 	0.7614	0.4731	0.76914	0.055
Mof_C 	C 	0.7234	0.4604	0.8104	-0.142
Mof_H 	H 	0.7208	0.4115	0.8258	0.07
Mof_C 	C 	0.6895	0.5201	0.8285	0.057
Mof_H 	H 	0.6631	0.5096	0.8551	-0.031
Mof_N 	N 	0.69227	0.59242	0.81012	-0.243
Mof_C 	C 	0.7313	0.6043	0.77214	0.072
Mof_H 	H 	0.7357	0.6542	0.7597	-0.017
Mof_C 	C 	0.7655	0.5474	0.75	-0.142
Mof_H 	H 	0.7908	0.5591	0.7227	0.073
Mof_C 	C 	0.0944	0.0006	0.109	-0.141
Mof_H 	H 	0.1321	0.9772	0.0999	0.071
Mof_C 	C 	0.1602	0.1069	0.9597	0.064
Mof_H 	H 	0.2052	0.0968	0.9568	-0.022
Mof_C 	C 	0.1444	0.0776	0.011	-0.134
Mof_C 	C 	0.0786	0.0921	0.01792	0.053
Mof_C 	C 	0.0593	0.0615	0.07257	0.063
Mof_C 	C 	0.0046	0.0935	0.0899	-0.156
Mof_H 	H 	0.9783	0.1342	0.0665	0.079
Mof_C 	C 	0.0509	0.1633	0.9212	0.072
Mof_H 	H 	0.018	0.1933	0.8903	-0.011
Mof_C 	C 	0.0313	0.137	0.9708	-0.144
Mof_C 	C 	0.9888	0.0656	0.1417	0.09
Mof_N 	N 	0.02289	0.00608	0.17678	-0.264
Mof_H 	H 	0.9863	0.1491	0.973	0.076
Mof_C 	C 	0.0743	0.9742	0.1587	0.08
Mof_N 	N 	0.114	0.1493	0.91379	-0.251
Mof_H 	H 	0.0979	0.9315	0.1811	-0.022
Mof_H 	H 	0.9527	0.0893	0.1529	-0.034
Mof_H 	H 	0.1782	0.0478	0.0413	0.068
Mof_Cu	Cu	0.86724	0.17932	0.66592	0.85
Mof_C 	C 	0.7098	0.9033	0.81732	-0.138
Mof_H 	H 	0.7296	0.9433	0.8454	0.071
Mof_C 	C 	0.6846	0.8393	0.839	0.074
Mof_H 	H 	0.6884	0.8373	0.8819	-0.024
Mof_N 	N 	0.6549	0.77966	0.8014	-0.242
Mof_C 	C 	0.6487	0.7855	0.74002	0.076
Mof_H 	H 	0.6259	0.7462	0.7125	-0.012
Mof_C 	C 	0.6743	0.8469	0.7147	-0.138
Mof_H 	H 	0.6704	0.8471	0.6717	0.072
Mof_C 	C 	0.706	0.9084	0.7542	0.052
Mof_C 	C 	0.7386	0.9731	0.73086	0.055
Mof_C 	C 	0.7766	0.9604	0.6896	-0.142
Mof_H 	H 	0.7792	0.9115	0.6742	0.07
Mof_C 	C 	0.8105	0.0201	0.6715	0.056
Mof_H 	H 	0.8369	0.0096	0.6449	-0.031
Mof_N 	N 	0.80773	0.09242	0.68988	-0.243
Mof_C 	C 	0.7687	0.1043	0.72786	0.072
Mof_H 	H 	0.7643	0.1542	0.7403	-0.017
Mof_C 	C 	0.7345	0.0474	0.75	-0.144
Mof_H 	H 	0.7092	0.0591	0.7773	0.073
Mof_C 	C 	0.4056	0.5006	0.391	-0.144
Mof_H 	H 	0.3679	0.4772	0.4001	0.073
Mof_C 	C 	0.3398	0.6069	0.5403	0.066
Mof_H 	H 	0.2948	0.5968	0.5432	-0.023
Mof_C 	C 	0.3556	0.5776	0.489	-0.135
Mof_C 	C 	0.4214	0.5921	0.48208	0.049
Mof_C 	C 	0.4407	0.5615	0.42743	0.061
Mof_C 	C 	0.4954	0.5935	0.4101	-0.143
Mof_H 	H 	0.5217	0.6342	0.4335	0.072
Mof_C 	C 	0.4491	0.6633	0.5788	0.067
Mof_H 	H 	0.482	0.6933	0.6097	-0.008
Mof_C 	C 	0.4687	0.637	0.5292	-0.132
Mof_C 	C 	0.5112	0.5656	0.3583	0.078
Mof_N 	N 	0.47711	0.50608	0.32322	-0.262
Mof_H 	H 	0.5137	0.6491	0.527	0.07
Mof_C 	C 	0.4257	0.4742	0.3413	0.084
Mof_N 	N 	0.386	0.6493	0.58621	-0.25
Mof_H 	H 	0.4021	0.4315	0.3189	-0.022
Mof_H 	H 	0.5473	0.5893	0.3471	-0.03
Mof_H 	H 	0.3218	0.5478	0.4587	0.068
Mof_Cu	Cu	0.36724	0.67932	0.66592	0.849
Mof_C 	C 	0.2098	0.4033	0.81732	-0.138
Mof_H 	H 	0.2296	0.4433	0.8454	0.07
Mof_C 	C 	0.1846	0.3393	0.839	0.073
Mof_H 	H 	0.1884	0.3373	0.8819	-0.024
Mof_N 	N 	0.1549	0.27966	0.8014	-0.242
Mof_C 	C 	0.1487	0.2855	0.74002	0.075
Mof_H 	H 	0.1259	0.2462	0.7125	-0.013
Mof_C 	C 	0.1743	0.3469	0.7147	-0.138
Mof_H 	H 	0.1704	0.3471	0.6717	0.071
Mof_C 	C 	0.206	0.4084	0.7542	0.052
Mof_C 	C 	0.2386	0.4731	0.73086	0.054
Mof_C 	C 	0.2766	0.4604	0.6896	-0.142
Mof_H 	H 	0.2792	0.4115	0.6742	0.07
Mof_C 	C 	0.3105	0.5201	0.6715	0.057
Mof_H 	H 	0.3369	0.5096	0.6449	-0.031
Mof_N 	N 	0.30773	0.59242	0.68988	-0.243
Mof_C 	C 	0.2687	0.6043	0.72786	0.071
Mof_H 	H 	0.2643	0.6542	0.7403	-0.017
Mof_C 	C 	0.2345	0.5474	0.75	-0.142
Mof_H 	H 	0.2092	0.5591	0.7773	0.073
Mof_C 	C 	0.9056	0.0006	0.391	-0.135
Mof_H 	H 	0.8679	0.9772	0.4001	0.07
Mof_C 	C 	0.8398	0.1069	0.5403	0.067
Mof_H 	H 	0.7948	0.0968	0.5432	-0.023
Mof_C 	C 	0.8556	0.0776	0.489	-0.136
Mof_C 	C 	0.9214	0.0921	0.48208	0.051
Mof_C 	C 	0.9407	0.0615	0.42743	0.053
Mof_C 	C 	0.9954	0.0935	0.4101	-0.124
Mof_H 	H 	0.0217	0.1342	0.4335	0.064
Mof_C 	C 	0.9491	0.1633	0.5788	0.064
Mof_H 	H 	0.982	0.1933	0.6097	-0.006
Mof_C 	C 	0.9687	0.137	0.5292	-0.126
Mof_C 	C 	0.0112	0.0656	0.3583	0.062
Mof_N 	N 	0.97711	0.00608	0.32322	-0.255
Mof_H 	H 	0.0137	0.1491	0.527	0.066
Mof_C 	C 	0.9257	0.9742	0.3413	0.078
Mof_N 	N 	0.886	0.1493	0.58621	-0.249
Mof_H 	H 	0.9021	0.9315	0.3189	-0.02
Mof_H 	H 	0.0473	0.0893	0.3471	-0.026
Mof_H 	H 	0.8218	0.0478	0.4587	0.068
Mof_Cl	Cl	0.5	0.33427	0.25	-0.696
Mof_Cl	Cl	1.40714e-33	0.83427	0.25	-0.698
Mof_Cu	Cu	0.5	0.46745	0.25	0.84
Mof_Cu	Cu	1.57506e-17	0.96745	0.25	0.839
_end
