data_functionalizedCrystal
_audit_creation_method	'EQeq! by Chris Wilmer'
_symmetry_space_group_name_H-M	'P1'
_symmetry_Int_Tables_number	1
_symmetry_cell_setting	triclinic
loop_
_symmetry_equiv_pos_as_xyz
  x,y,z
_cell_length_a	19.869
_cell_length_b	19.869
_cell_length_c	27.47
_cell_angle_alpha	90
_cell_angle_beta	90
_cell_angle_gamma	120
loop_
_atom_site_label
_atom_site_type_symbol
_atom_site_fract_x
_atom_site_fract_y
_atom_site_fract_z
_atom_site_charge
Mof_Pr	Pr	0.48494	0.52753	0.92978	1.852
Mof_C 	C 	0.1075	0.4616	0.0305	0.595
Mof_C 	C 	0.1639	0.4376	0.0454	-0.279
Mof_C 	C 	0.2292	0.4582	0.0183	0.196
Mof_H 	H 	0.2368	0.4861	0.9896	-0.053
Mof_O 	O 	0.3557	0.4873	0.9629	-0.56
Mof_C 	C 	0.2832	0.4393	0.032	-0.271
Mof_C 	C 	0.3546	0.4633	0.0053	0.522
Mof_O 	O 	0.4113	0.4608	0.0223	-0.634
Mof_C 	C 	0.2729	0.3984	0.0748	0.045
Mof_H 	H 	0.31	0.3864	0.0854	-0.041
Mof_O 	O 	0.0546	0.4503	0.0595	-0.608
Mof_C 	C 	0.2071	0.3764	0.1006	0.02
Mof_O 	O 	0.1165	0.4906	0.991	-0.603
Mof_C 	C 	0.1532	0.3972	0.0873	0.053
Mof_H 	H 	0.11	0.3838	0.1067	0.001
Mof_O 	O 	0.185	0.3314	0.1441	-0.232
Mof_C 	C 	0.2359	0.3034	0.1593	0.131
Mof_H 	H 	0.2876	0.3464	0.1658	-0.053
Mof_H 	H 	0.2394	0.2707	0.1344	-0.05
Mof_C 	C 	0.1488	0.1791	0.2059	0.354
Mof_C 	C 	0.1285	0.1453	0.1561	-0.846
Mof_H 	H 	0.1528	0.186	0.1324	0.276
Mof_H 	H 	0.0731	0.1191	0.1519	0.26
Mof_H 	H 	0.1464	0.1088	0.1519	0.253
Mof_C 	C 	0.1989	0.2559	0.2063	-0.207
Mof_Pr	Pr	0.47247	0.95741	0.92978	1.846
Mof_C 	C 	0.5384	0.6459	0.0305	0.593
Mof_C 	C 	0.5624	0.7263	0.0454	-0.279
Mof_C 	C 	0.5418	0.771	0.0183	0.196
Mof_H 	H 	0.5139	0.7507	0.9896	-0.053
Mof_O 	O 	0.5127	0.8684	0.9629	-0.56
Mof_C 	C 	0.5607	0.8439	0.032	-0.271
Mof_C 	C 	0.5367	0.8913	0.0053	0.523
Mof_O 	O 	0.5392	0.9505	0.0223	-0.632
Mof_C 	C 	0.6016	0.8745	0.0748	0.045
Mof_H 	H 	0.6136	0.9236	0.0854	-0.04
Mof_O 	O 	0.5497	0.6043	0.0595	-0.609
Mof_C 	C 	0.6236	0.8307	0.1006	0.02
Mof_O 	O 	0.5094	0.6259	0.991	-0.602
Mof_C 	C 	0.6028	0.756	0.0873	0.052
Mof_H 	H 	0.6162	0.7262	0.1067	0.001
Mof_O 	O 	0.6686	0.8536	0.1441	-0.231
Mof_C 	C 	0.6966	0.9325	0.1593	0.129
Mof_H 	H 	0.6536	0.9412	0.1658	-0.053
Mof_H 	H 	0.7293	0.9687	0.1344	-0.049
Mof_C 	C 	0.8209	0.9697	0.2059	0.349
Mof_C 	C 	0.8547	0.9832	0.1561	-0.833
Mof_H 	H 	0.814	0.9668	0.1324	0.272
Mof_H 	H 	0.8809	0.954	0.1519	0.256
Mof_H 	H 	0.8912	0.0376	0.1519	0.248
Mof_C 	C 	0.7441	0.943	0.2063	-0.204
Mof_Pr	Pr	0.04259	0.51506	0.92978	1.846
Mof_C 	C 	0.3541	0.8925	0.0305	0.596
Mof_C 	C 	0.2737	0.8361	0.0454	-0.282
Mof_C 	C 	0.229	0.7708	0.0183	0.201
Mof_H 	H 	0.2493	0.7632	0.9896	-0.056
Mof_O 	O 	0.1316	0.6443	0.9629	-0.561
Mof_C 	C 	0.1561	0.7168	0.032	-0.274
Mof_C 	C 	0.1087	0.6454	0.0053	0.525
Mof_O 	O 	0.0495	0.5887	0.0223	-0.633
Mof_C 	C 	0.1255	0.7271	0.0748	0.047
Mof_H 	H 	0.0764	0.69	0.0854	-0.041
Mof_O 	O 	0.3957	0.9454	0.0595	-0.608
Mof_C 	C 	0.1693	0.7929	0.1006	0.018
Mof_O 	O 	0.3741	0.8835	0.991	-0.604
Mof_C 	C 	0.244	0.8468	0.0873	0.055
Mof_H 	H 	0.2738	0.89	0.1067	0
Mof_O 	O 	0.1464	0.815	0.1441	-0.231
Mof_C 	C 	0.0675	0.7641	0.1593	0.129
Mof_H 	H 	0.0588	0.7124	0.1658	-0.052
Mof_H 	H 	0.0313	0.7606	0.1344	-0.049
Mof_C 	C 	0.0303	0.8512	0.2059	0.35
Mof_C 	C 	0.0168	0.8715	0.1561	-0.835
Mof_H 	H 	0.0332	0.8472	0.1324	0.273
Mof_H 	H 	0.046	0.9269	0.1519	0.258
Mof_H 	H 	0.9624	0.8536	0.1519	0.249
Mof_C 	C 	0.057	0.8011	0.2063	-0.204
Mof_Pr	Pr	0.51506	0.47247	0.42978	1.851
Mof_C 	C 	0.8925	0.5384	0.5305	0.591
Mof_C 	C 	0.8361	0.5624	0.5454	-0.277
Mof_C 	C 	0.7708	0.5418	0.5183	0.191
Mof_H 	H 	0.7632	0.5139	0.4896	-0.05
Mof_O 	O 	0.6443	0.5127	0.4629	-0.559
Mof_C 	C 	0.7168	0.5607	0.532	-0.268
Mof_C 	C 	0.6454	0.5367	0.5053	0.521
Mof_O 	O 	0.5887	0.5392	0.5223	-0.633
Mof_C 	C 	0.7271	0.6016	0.5748	0.043
Mof_H 	H 	0.69	0.6136	0.5854	-0.04
Mof_O 	O 	0.9454	0.5497	0.5595	-0.608
Mof_C 	C 	0.7929	0.6236	0.6006	0.021
Mof_O 	O 	0.8835	0.5094	0.491	-0.601
Mof_C 	C 	0.8468	0.6028	0.5873	0.05
Mof_H 	H 	0.89	0.6162	0.6067	0.001
Mof_O 	O 	0.815	0.6686	0.6441	-0.232
Mof_C 	C 	0.7641	0.6966	0.6593	0.131
Mof_H 	H 	0.7124	0.6536	0.6658	-0.053
Mof_H 	H 	0.7606	0.7293	0.6344	-0.05
Mof_C 	C 	0.8512	0.8209	0.7059	0.354
Mof_C 	C 	0.8715	0.8547	0.6561	-0.846
Mof_H 	H 	0.8472	0.814	0.6324	0.276
Mof_H 	H 	0.9269	0.8809	0.6519	0.26
Mof_H 	H 	0.8536	0.8912	0.6519	0.254
Mof_C 	C 	0.8011	0.7441	0.7063	-0.207
Mof_Pr	Pr	0.52753	0.04259	0.42978	1.85
Mof_C 	C 	0.4616	0.3541	0.5305	0.591
Mof_C 	C 	0.4376	0.2737	0.5454	-0.277
Mof_C 	C 	0.4582	0.229	0.5183	0.191
Mof_H 	H 	0.4861	0.2493	0.4896	-0.05
Mof_O 	O 	0.4873	0.1316	0.4629	-0.559
Mof_C 	C 	0.4393	0.1561	0.532	-0.268
Mof_C 	C 	0.4633	0.1087	0.5053	0.52
Mof_O 	O 	0.4608	0.0495	0.5223	-0.633
Mof_C 	C 	0.3984	0.1255	0.5748	0.043
Mof_H 	H 	0.3864	0.0764	0.5854	-0.04
Mof_O 	O 	0.4503	0.3957	0.5595	-0.608
Mof_C 	C 	0.3764	0.1693	0.6006	0.021
Mof_O 	O 	0.4906	0.3741	0.491	-0.601
Mof_C 	C 	0.3972	0.244	0.5873	0.051
Mof_H 	H 	0.3838	0.2738	0.6067	0.001
Mof_O 	O 	0.3314	0.1464	0.6441	-0.232
Mof_C 	C 	0.3034	0.0675	0.6593	0.13
Mof_H 	H 	0.3464	0.0588	0.6658	-0.053
Mof_H 	H 	0.2707	0.0313	0.6344	-0.049
Mof_C 	C 	0.1791	0.0303	0.7059	0.35
Mof_C 	C 	0.1453	0.0168	0.6561	-0.839
Mof_H 	H 	0.186	0.0332	0.6324	0.273
Mof_H 	H 	0.1191	0.046	0.6519	0.258
Mof_H 	H 	0.1088	0.9624	0.6519	0.251
Mof_C 	C 	0.2559	0.057	0.7063	-0.205
Mof_Pr	Pr	0.95741	0.48494	0.42978	1.85
Mof_C 	C 	0.6459	0.1075	0.5305	0.591
Mof_C 	C 	0.7263	0.1639	0.5454	-0.277
Mof_C 	C 	0.771	0.2292	0.5183	0.191
Mof_H 	H 	0.7507	0.2368	0.4896	-0.05
Mof_O 	O 	0.8684	0.3557	0.4629	-0.559
Mof_C 	C 	0.8439	0.2832	0.532	-0.268
Mof_C 	C 	0.8913	0.3546	0.5053	0.52
Mof_O 	O 	0.9505	0.4113	0.5223	-0.633
Mof_C 	C 	0.8745	0.2729	0.5748	0.043
Mof_H 	H 	0.9236	0.31	0.5854	-0.04
Mof_O 	O 	0.6043	0.0546	0.5595	-0.608
Mof_C 	C 	0.8307	0.2071	0.6006	0.021
Mof_O 	O 	0.6259	0.1165	0.491	-0.601
Mof_C 	C 	0.756	0.1532	0.5873	0.05
Mof_H 	H 	0.7262	0.11	0.6067	0.001
Mof_O 	O 	0.8536	0.185	0.6441	-0.232
Mof_C 	C 	0.9325	0.2359	0.6593	0.13
Mof_H 	H 	0.9412	0.2876	0.6658	-0.053
Mof_H 	H 	0.9687	0.2394	0.6344	-0.049
Mof_C 	C 	0.9697	0.1488	0.7059	0.351
Mof_C 	C 	0.9832	0.1285	0.6561	-0.839
Mof_H 	H 	0.9668	0.1528	0.6324	0.274
Mof_H 	H 	0.954	0.0731	0.6519	0.259
Mof_H 	H 	0.0376	0.1464	0.6519	0.251
Mof_C 	C 	0.943	0.1989	0.7063	-0.205
Mof_Pr	Pr	0.51506	0.47247	0.07022	1.851
Mof_C 	C 	0.8925	0.5384	0.9695	0.594
Mof_C 	C 	0.8361	0.5624	0.9546	-0.279
Mof_C 	C 	0.7708	0.5418	0.9817	0.196
Mof_H 	H 	0.7632	0.5139	0.0104	-0.053
Mof_O 	O 	0.6443	0.5127	0.0371	-0.56
Mof_C 	C 	0.7168	0.5607	0.968	-0.271
Mof_C 	C 	0.6454	0.5367	0.9947	0.522
Mof_O 	O 	0.5887	0.5392	0.9777	-0.634
Mof_C 	C 	0.7271	0.6016	0.9252	0.045
Mof_H 	H 	0.69	0.6136	0.9146	-0.041
Mof_O 	O 	0.9454	0.5497	0.9405	-0.608
Mof_C 	C 	0.7929	0.6236	0.8994	0.02
Mof_O 	O 	0.8835	0.5094	0.009	-0.603
Mof_C 	C 	0.8468	0.6028	0.9127	0.053
Mof_H 	H 	0.89	0.6162	0.8933	0.001
Mof_O 	O 	0.815	0.6686	0.8559	-0.232
Mof_C 	C 	0.7641	0.6966	0.8407	0.131
Mof_H 	H 	0.7124	0.6536	0.8342	-0.053
Mof_H 	H 	0.7606	0.7293	0.8656	-0.05
Mof_C 	C 	0.8512	0.8209	0.7941	0.354
Mof_C 	C 	0.8715	0.8547	0.8439	-0.846
Mof_H 	H 	0.8472	0.814	0.8676	0.276
Mof_H 	H 	0.9269	0.8809	0.8481	0.26
Mof_H 	H 	0.8536	0.8912	0.8481	0.253
Mof_C 	C 	0.8011	0.7441	0.7937	-0.207
Mof_Pr	Pr	0.52753	0.04259	0.07022	1.846
Mof_C 	C 	0.4616	0.3541	0.9695	0.593
Mof_C 	C 	0.4376	0.2737	0.9546	-0.279
Mof_C 	C 	0.4582	0.229	0.9817	0.196
Mof_H 	H 	0.4861	0.2493	0.0104	-0.053
Mof_O 	O 	0.4873	0.1316	0.0371	-0.56
Mof_C 	C 	0.4393	0.1561	0.968	-0.271
Mof_C 	C 	0.4633	0.1087	0.9947	0.523
Mof_O 	O 	0.4608	0.0495	0.9777	-0.632
Mof_C 	C 	0.3984	0.1255	0.9252	0.045
Mof_H 	H 	0.3864	0.0764	0.9146	-0.04
Mof_O 	O 	0.4503	0.3957	0.9405	-0.609
Mof_C 	C 	0.3764	0.1693	0.8994	0.02
Mof_O 	O 	0.4906	0.3741	0.009	-0.602
Mof_C 	C 	0.3972	0.244	0.9127	0.052
Mof_H 	H 	0.3838	0.2738	0.8933	0.001
Mof_O 	O 	0.3314	0.1464	0.8559	-0.231
Mof_C 	C 	0.3034	0.0675	0.8407	0.129
Mof_H 	H 	0.3464	0.0588	0.8342	-0.053
Mof_H 	H 	0.2707	0.0313	0.8656	-0.049
Mof_C 	C 	0.1791	0.0303	0.7941	0.349
Mof_C 	C 	0.1453	0.0168	0.8439	-0.833
Mof_H 	H 	0.186	0.0332	0.8676	0.272
Mof_H 	H 	0.1191	0.046	0.8481	0.256
Mof_H 	H 	0.1088	0.9624	0.8481	0.248
Mof_C 	C 	0.2559	0.057	0.7937	-0.204
Mof_Pr	Pr	0.95741	0.48494	0.07022	1.846
Mof_C 	C 	0.6459	0.1075	0.9695	0.596
Mof_C 	C 	0.7263	0.1639	0.9546	-0.282
Mof_C 	C 	0.771	0.2292	0.9817	0.201
Mof_H 	H 	0.7507	0.2368	0.0104	-0.056
Mof_O 	O 	0.8684	0.3557	0.0371	-0.561
Mof_C 	C 	0.8439	0.2832	0.968	-0.274
Mof_C 	C 	0.8913	0.3546	0.9947	0.525
Mof_O 	O 	0.9505	0.4113	0.9777	-0.633
Mof_C 	C 	0.8745	0.2729	0.9252	0.047
Mof_H 	H 	0.9236	0.31	0.9146	-0.041
Mof_O 	O 	0.6043	0.0546	0.9405	-0.608
Mof_C 	C 	0.8307	0.2071	0.8994	0.018
Mof_O 	O 	0.6259	0.1165	0.009	-0.604
Mof_C 	C 	0.756	0.1532	0.9127	0.055
Mof_H 	H 	0.7262	0.11	0.8933	0
Mof_O 	O 	0.8536	0.185	0.8559	-0.231
Mof_C 	C 	0.9325	0.2359	0.8407	0.129
Mof_H 	H 	0.9412	0.2876	0.8342	-0.052
Mof_H 	H 	0.9687	0.2394	0.8656	-0.049
Mof_C 	C 	0.9697	0.1488	0.7941	0.35
Mof_C 	C 	0.9832	0.1285	0.8439	-0.835
Mof_H 	H 	0.9668	0.1528	0.8676	0.273
Mof_H 	H 	0.954	0.0731	0.8481	0.258
Mof_H 	H 	0.0376	0.1464	0.8481	0.249
Mof_C 	C 	0.943	0.1989	0.7937	-0.204
Mof_Pr	Pr	0.48494	0.52753	0.57022	1.851
Mof_C 	C 	0.1075	0.4616	0.4695	0.591
Mof_C 	C 	0.1639	0.4376	0.4546	-0.277
Mof_C 	C 	0.2292	0.4582	0.4817	0.191
Mof_H 	H 	0.2368	0.4861	0.5104	-0.05
Mof_O 	O 	0.3557	0.4873	0.5371	-0.559
Mof_C 	C 	0.2832	0.4393	0.468	-0.268
Mof_C 	C 	0.3546	0.4633	0.4947	0.521
Mof_O 	O 	0.4113	0.4608	0.4777	-0.633
Mof_C 	C 	0.2729	0.3984	0.4252	0.043
Mof_H 	H 	0.31	0.3864	0.4146	-0.04
Mof_O 	O 	0.0546	0.4503	0.4405	-0.608
Mof_C 	C 	0.2071	0.3764	0.3994	0.021
Mof_O 	O 	0.1165	0.4906	0.509	-0.601
Mof_C 	C 	0.1532	0.3972	0.4127	0.05
Mof_H 	H 	0.11	0.3838	0.3933	0.001
Mof_O 	O 	0.185	0.3314	0.3559	-0.232
Mof_C 	C 	0.2359	0.3034	0.3407	0.131
Mof_H 	H 	0.2876	0.3464	0.3342	-0.053
Mof_H 	H 	0.2394	0.2707	0.3656	-0.05
Mof_C 	C 	0.1488	0.1791	0.2941	0.354
Mof_C 	C 	0.1285	0.1453	0.3439	-0.846
Mof_H 	H 	0.1528	0.186	0.3676	0.276
Mof_H 	H 	0.0731	0.1191	0.3481	0.26
Mof_H 	H 	0.1464	0.1088	0.3481	0.254
Mof_C 	C 	0.1989	0.2559	0.2937	-0.207
Mof_Pr	Pr	0.47247	0.95741	0.57022	1.85
Mof_C 	C 	0.5384	0.6459	0.4695	0.591
Mof_C 	C 	0.5624	0.7263	0.4546	-0.277
Mof_C 	C 	0.5418	0.771	0.4817	0.191
Mof_H 	H 	0.5139	0.7507	0.5104	-0.05
Mof_O 	O 	0.5127	0.8684	0.5371	-0.559
Mof_C 	C 	0.5607	0.8439	0.468	-0.268
Mof_C 	C 	0.5367	0.8913	0.4947	0.52
Mof_O 	O 	0.5392	0.9505	0.4777	-0.633
Mof_C 	C 	0.6016	0.8745	0.4252	0.043
Mof_H 	H 	0.6136	0.9236	0.4146	-0.04
Mof_O 	O 	0.5497	0.6043	0.4405	-0.608
Mof_C 	C 	0.6236	0.8307	0.3994	0.021
Mof_O 	O 	0.5094	0.6259	0.509	-0.601
Mof_C 	C 	0.6028	0.756	0.4127	0.051
Mof_H 	H 	0.6162	0.7262	0.3933	0.001
Mof_O 	O 	0.6686	0.8536	0.3559	-0.232
Mof_C 	C 	0.6966	0.9325	0.3407	0.13
Mof_H 	H 	0.6536	0.9412	0.3342	-0.053
Mof_H 	H 	0.7293	0.9687	0.3656	-0.049
Mof_C 	C 	0.8209	0.9697	0.2941	0.35
Mof_C 	C 	0.8547	0.9832	0.3439	-0.839
Mof_H 	H 	0.814	0.9668	0.3676	0.273
Mof_H 	H 	0.8809	0.954	0.3481	0.258
Mof_H 	H 	0.8912	0.0376	0.3481	0.251
Mof_C 	C 	0.7441	0.943	0.2937	-0.205
Mof_Pr	Pr	0.04259	0.51506	0.57022	1.85
Mof_C 	C 	0.3541	0.8925	0.4695	0.591
Mof_C 	C 	0.2737	0.8361	0.4546	-0.277
Mof_C 	C 	0.229	0.7708	0.4817	0.191
Mof_H 	H 	0.2493	0.7632	0.5104	-0.05
Mof_O 	O 	0.1316	0.6443	0.5371	-0.559
Mof_C 	C 	0.1561	0.7168	0.468	-0.268
Mof_C 	C 	0.1087	0.6454	0.4947	0.52
Mof_O 	O 	0.0495	0.5887	0.4777	-0.633
Mof_C 	C 	0.1255	0.7271	0.4252	0.043
Mof_H 	H 	0.0764	0.69	0.4146	-0.04
Mof_O 	O 	0.3957	0.9454	0.4405	-0.608
Mof_C 	C 	0.1693	0.7929	0.3994	0.021
Mof_O 	O 	0.3741	0.8835	0.509	-0.601
Mof_C 	C 	0.244	0.8468	0.4127	0.05
Mof_H 	H 	0.2738	0.89	0.3933	0.001
Mof_O 	O 	0.1464	0.815	0.3559	-0.232
Mof_C 	C 	0.0675	0.7641	0.3407	0.13
Mof_H 	H 	0.0588	0.7124	0.3342	-0.053
Mof_H 	H 	0.0313	0.7606	0.3656	-0.049
Mof_C 	C 	0.0303	0.8512	0.2941	0.351
Mof_C 	C 	0.0168	0.8715	0.3439	-0.839
Mof_H 	H 	0.0332	0.8472	0.3676	0.274
Mof_H 	H 	0.046	0.9269	0.3481	0.259
Mof_H 	H 	0.9624	0.8536	0.3481	0.251
Mof_C 	C 	0.057	0.8011	0.2937	-0.205
Mof_C 	C 	0.1272	0.1447	0.25	-0.301
Mof_C 	C 	0.2239	0.3025	0.25	0.064
Mof_C 	C 	0.8553	0.9825	0.25	-0.297
Mof_C 	C 	0.6975	0.9214	0.25	0.063
Mof_C 	C 	0.0175	0.8728	0.25	-0.297
Mof_C 	C 	0.0786	0.7761	0.25	0.063
Mof_C 	C 	0.8728	0.8553	0.75	-0.301
Mof_C 	C 	0.7761	0.6975	0.75	0.064
Mof_C 	C 	0.1447	0.0175	0.75	-0.297
Mof_C 	C 	0.3025	0.0786	0.75	0.063
Mof_C 	C 	0.9825	0.1272	0.75	-0.297
Mof_C 	C 	0.9214	0.2239	0.75	0.063
_end
