data_functionalizedCrystal
_audit_creation_method	'EQeq! by Chris Wilmer'
_symmetry_space_group_name_H-M	'P1'
_symmetry_Int_Tables_number	1
_symmetry_cell_setting	triclinic
loop_
_symmetry_equiv_pos_as_xyz
  x,y,z
_cell_length_a	10.947
_cell_length_b	17.908
_cell_length_c	19.308
_cell_angle_alpha	63.446
_cell_angle_beta	75.227
_cell_angle_gamma	73.788
loop_
_atom_site_label
_atom_site_type_symbol
_atom_site_fract_x
_atom_site_fract_y
_atom_site_fract_z
_atom_site_charge
Mof_Mn	Mn	0.50797	0.74245	0.25204	0.618
Mof_Mn	Mn	0.83374	0.19317	0.42058	0.641
Mof_Mn	Mn	0.24461	0.31254	0.06099	0.587
Mof_Mn	Mn	0.49203	0.25755	0.74796	0.62
Mof_Mn	Mn	0.16626	0.80683	0.57942	0.616
Mof_Mn	Mn	0.75539	0.68746	0.93901	0.642
Mof_Mn	Mn	-0	0	-0	0.534
Mof_Mn	Mn	3.53763e-17	0.5	0.5	0.596
Mof_Nb	Nb	0.10395	0.00417	0.26714	1.022
Mof_Nb	Nb	0.93804	0.5051	0.22181	1.124
Mof_Nb	Nb	0.89605	0.99583	0.73286	1.128
Mof_Nb	Nb	0.06196	0.4949	0.77819	1.049
Mof_H 	H 	0.9004	0.8332	0.0373	0.022
Mof_H 	H 	0.7406	0.7575	0.1099	0.01
Mof_H 	H 	0.5935	0.9184	0.2073	0.026
Mof_H 	H 	0.7556	0.9929	0.136	0.03
Mof_H 	H 	0.4006	0.5795	0.2948	0.015
Mof_H 	H 	0.2293	0.5123	0.3625	0.018
Mof_H 	H 	0.1063	0.6655	0.4684	0.012
Mof_H 	H 	0.2733	0.7356	0.3978	0.013
Mof_H 	H 	0.8707	0.9836	0.4912	0.024
Mof_H 	H 	0.7995	0.8813	0.4824	0.043
Mof_H 	H 	0.5104	0.0464	0.3883	0.054
Mof_H 	H 	0.58	0.1509	0.3971	0.014
Mof_H 	H 	0.1805	0.23	0.2455	0.019
Mof_H 	H 	0.2355	0.2099	0.3589	0.032
Mof_H 	H 	0.5343	0.3122	0.2427	0.036
Mof_H 	H 	0.4764	0.3345	0.1266	0.003
Mof_H 	H 	0.0996	0.1668	0.9627	0.023
Mof_H 	H 	0.2594	0.2425	0.8901	0.015
Mof_H 	H 	0.4065	0.0816	0.7927	0.02
Mof_H 	H 	0.2444	0.0071	0.864	0.017
Mof_H 	H 	0.5994	0.4205	0.7052	0.018
Mof_H 	H 	0.7707	0.4877	0.6375	0.028
Mof_H 	H 	0.8937	0.3345	0.5316	0.021
Mof_H 	H 	0.7267	0.2644	0.6022	0.011
Mof_H 	H 	0.1293	0.0164	0.5088	0.019
Mof_H 	H 	0.2005	0.1187	0.5176	0.026
Mof_H 	H 	0.4896	0.9536	0.6117	0.044
Mof_H 	H 	0.42	0.8491	0.6029	0.022
Mof_H 	H 	0.8195	0.77	0.7545	0.023
Mof_H 	H 	0.7645	0.7901	0.6411	0.039
Mof_H 	H 	0.4657	0.6878	0.7573	0.037
Mof_H 	H 	0.5236	0.6655	0.8734	0.009
Mof_C 	C 	0.0751	0.00636	0.15409	-0.13
Mof_C 	C 	0.2675	0.90448	0.24696	-0.107
Mof_C 	C 	0.2873	0.0224	0.2857	-0.134
Mof_C 	C 	0.0431	0.085	0.33558	-0.137
Mof_C 	C 	0.1426	0.13055	0.17222	-0.129
Mof_C 	C 	0.0031	0.8973	0.2986	-0.147
Mof_C 	C 	0.899	0.0723	0.25175	-0.101
Mof_C 	C 	0.1206	0.91492	0.39349	-0.103
Mof_C 	C 	0.0377	0.4324	0.14649	-0.159
Mof_C 	C 	0.7503	0.58493	0.25121	-0.13
Mof_C 	C 	0.8805	0.59599	0.10278	-0.122
Mof_C 	C 	0.9338	0.37299	0.31743	-0.118
Mof_C 	C 	0.9502	0.50401	0.33629	-0.116
Mof_C 	C 	0.7805	0.45491	0.2103	-0.145
Mof_C 	C 	0.9919	0.6283	0.19436	-0.105
Mof_C 	C 	0.1509	0.4789	0.2251	-0.16
Mof_C 	C 	0.8389	0.8513	0.0726	0.008
Mof_C 	C 	0.7418	0.80581	0.11622	0.01
Mof_C 	C 	0.6564	0.8994	0.1731	0.005
Mof_C 	C 	0.7542	0.9445	0.1299	0.008
Mof_C 	C 	0.3404	0.5986	0.3299	0.004
Mof_C 	C 	0.2378	0.5575	0.3713	0.003
Mof_C 	C 	0.1657	0.647	0.4326	0.008
Mof_C 	C 	0.2668	0.6892	0.3902	0.005
Mof_C 	C 	0.7965	0.9984	0.4693	0.04
Mof_C 	C 	0.753	0.9367	0.464	-0.007
Mof_C 	C 	0.5853	0.0322	0.4095	-0.019
Mof_C 	C 	0.6275	0.0957	0.4145	0.026
Mof_C 	C 	0.2541	0.2477	0.2433	0.019
Mof_C 	C 	0.287	0.2353	0.3118	0.001
Mof_C 	C 	0.4605	0.295	0.2442	-0.001
Mof_C 	C 	0.4256	0.3082	0.1738	0.021
Mof_C 	C 	0.9249	0.99364	0.84591	-0.106
Mof_C 	C 	0.7325	0.09552	0.75304	-0.14
Mof_C 	C 	0.7127	0.9776	0.7143	-0.133
Mof_C 	C 	0.9569	0.915	0.66442	-0.121
Mof_C 	C 	0.8574	0.86945	0.82778	-0.123
Mof_C 	C 	0.9969	0.1027	0.7014	-0.103
Mof_C 	C 	0.101	0.9277	0.74825	-0.156
Mof_C 	C 	0.8794	0.08508	0.60651	-0.127
Mof_C 	C 	0.9623	0.5676	0.85351	-0.096
Mof_C 	C 	0.2497	0.41507	0.74879	-0.117
Mof_C 	C 	0.1195	0.40401	0.89722	-0.123
Mof_C 	C 	0.0662	0.62701	0.68257	-0.134
Mof_C 	C 	0.0498	0.49599	0.66371	-0.124
Mof_C 	C 	0.2195	0.54509	0.7897	-0.142
Mof_C 	C 	0.0081	0.3717	0.80564	-0.166
Mof_C 	C 	0.8491	0.5211	0.7749	-0.106
Mof_C 	C 	0.1611	0.1487	0.9274	0.007
Mof_C 	C 	0.2582	0.19419	0.88378	0.009
Mof_C 	C 	0.3436	0.1006	0.8269	0.002
Mof_C 	C 	0.2458	0.0555	0.8701	0.006
Mof_C 	C 	0.6596	0.4014	0.6701	0.007
Mof_C 	C 	0.7622	0.4425	0.6287	0.006
Mof_C 	C 	0.8343	0.353	0.5674	0.009
Mof_C 	C 	0.7332	0.3108	0.6098	0.009
Mof_C 	C 	0.2035	0.0016	0.5307	-0.011
Mof_C 	C 	0.247	0.0633	0.536	0.006
Mof_C 	C 	0.4147	0.9678	0.5905	0.028
Mof_C 	C 	0.3725	0.9043	0.5855	0.009
Mof_C 	C 	0.7459	0.7523	0.7567	0.022
Mof_C 	C 	0.713	0.7647	0.6882	0.003
Mof_C 	C 	0.5395	0.705	0.7558	0
Mof_C 	C 	0.5744	0.6918	0.8262	0.023
Mof_N 	N 	0.0544	0.00573	0.09905	-0.154
Mof_N 	N 	0.3536	0.85314	0.23978	-0.151
Mof_N 	N 	0.3816	0.0298	0.2948	-0.076
Mof_N 	N 	0.0061	0.12348	0.37339	-0.153
Mof_N 	N 	0.1646	0.19495	0.12532	-0.148
Mof_N 	N 	0.957	0.842	0.3108	-0.044
Mof_N 	N 	0.7973	0.1103	0.2409	-0.079
Mof_N 	N 	0.1275	0.87115	0.45814	-0.152
Mof_N 	N 	0.0916	0.39458	0.10921	-0.137
Mof_N 	N 	0.6565	0.62982	0.26076	-0.149
Mof_N 	N 	0.8411	0.64224	0.04583	-0.156
Mof_N 	N 	0.9145	0.30917	0.36782	-0.145
Mof_N 	N 	0.9584	0.50146	0.39548	-0.136
Mof_N 	N 	0.6989	0.4274	0.2082	-0.08
Mof_N 	N 	0.0191	0.6897	0.1862	-0.099
Mof_N 	N 	0.2574	0.4748	0.224	-0.07
Mof_N 	N 	0.8465	0.92017	0.07974	-0.15
Mof_N 	N 	0.6505	0.82921	0.16675	-0.167
Mof_N 	N 	0.3548	0.66467	0.33899	-0.167
Mof_N 	N 	0.1514	0.58134	0.42346	-0.168
Mof_N 	N 	0.7343	0.07933	0.44356	-0.171
Mof_N 	N 	0.6476	0.9522	0.4338	-0.088
Mof_N 	N 	0.3225	0.28419	0.17321	-0.167
Mof_N 	N 	0.3903	0.2587	0.3124	-0.108
Mof_N 	N 	0.9456	0.99427	0.90095	-0.119
Mof_N 	N 	0.6464	0.14686	0.76022	-0.143
Mof_N 	N 	0.6184	0.9702	0.7052	-0.067
Mof_N 	N 	0.9939	0.87652	0.62661	-0.127
Mof_N 	N 	0.8354	0.80505	0.87468	-0.137
Mof_N 	N 	0.043	0.158	0.6892	-0.098
Mof_N 	N 	0.2027	0.8897	0.7591	-0.068
Mof_N 	N 	0.8725	0.12885	0.54186	-0.142
Mof_N 	N 	0.9084	0.60542	0.89079	-0.137
Mof_N 	N 	0.3435	0.37018	0.73924	-0.152
Mof_N 	N 	0.1589	0.35776	0.95417	-0.14
Mof_N 	N 	0.0855	0.69083	0.63218	-0.152
Mof_N 	N 	0.0416	0.49854	0.60452	-0.151
Mof_N 	N 	0.3011	0.5726	0.7918	-0.08
Mof_N 	N 	0.9809	0.3103	0.8138	-0.039
Mof_N 	N 	0.7426	0.5252	0.776	-0.073
Mof_N 	N 	0.1535	0.07983	0.92026	-0.157
Mof_N 	N 	0.3495	0.17079	0.83325	-0.167
Mof_N 	N 	0.6452	0.33533	0.66101	-0.167
Mof_N 	N 	0.8486	0.41866	0.57654	-0.157
Mof_N 	N 	0.2657	0.92067	0.55644	-0.149
Mof_N 	N 	0.3524	0.0478	0.5662	-0.116
Mof_N 	N 	0.6775	0.71581	0.82679	-0.167
Mof_N 	N 	0.6097	0.7413	0.6876	-0.106
_end
