data_functionalizedCrystal
_audit_creation_method	'EQeq! by Chris Wilmer'
_symmetry_space_group_name_H-M	'P1'
_symmetry_Int_Tables_number	1
_symmetry_cell_setting	triclinic
loop_
_symmetry_equiv_pos_as_xyz
  x,y,z
_cell_length_a	15.8769
_cell_length_b	23.5103
_cell_length_c	23.1577
_cell_angle_alpha	90
_cell_angle_beta	101.226
_cell_angle_gamma	90
loop_
_atom_site_label
_atom_site_type_symbol
_atom_site_fract_x
_atom_site_fract_y
_atom_site_fract_z
_atom_site_charge
Mof_C 	C 	0.0168	0.4163	0.4953	0.312
Mof_C 	C 	0.0745	0.3788	0.53	-0.3
Mof_H 	H 	0.1257	0.3683	0.5173	0.145
Mof_C 	C 	0.0589	0.3578	0.5805	0.217
Mof_H 	H 	0.0984	0.332	0.6028	-0.033
Mof_C 	C 	0.9843	0.3736	0.6005	-0.268
Mof_C 	C 	0.9265	0.4118	0.5674	0.197
Mof_H 	H 	0.8763	0.4228	0.5811	-0.019
Mof_C 	C 	0.9418	0.4334	0.5156	-0.281
Mof_H 	H 	0.9027	0.4595	0.4934	0.147
Mof_C 	C 	0.9729	0.3538	0.6588	0.521
Mof_C 	C 	0.1794	0.5318	0.6031	0.356
Mof_C 	C 	0.2531	0.5024	0.6059	-0.371
Mof_H 	H 	0.2934	0.5141	0.5828	0.17
Mof_C 	C 	0.2699	0.4562	0.6415	0.282
Mof_H 	H 	0.321	0.4352	0.6415	-0.059
Mof_C 	C 	0.215	0.4389	0.6777	-0.339
Mof_C 	C 	0.1391	0.4684	0.6746	0.252
Mof_H 	H 	0.0996	0.4573	0.6985	-0.043
Mof_C 	C 	0.1206	0.5145	0.6363	-0.331
Mof_H 	H 	0.0675	0.5341	0.6331	0.163
Mof_C 	C 	0.2353	0.3886	0.7161	0.592
Mof_C 	C 	0.3121	0.4658	0.4467	0.307
Mof_C 	C 	0.3947	0.4806	0.4755	-0.283
Mof_H 	H 	0.4227	0.5133	0.4642	0.14
Mof_C 	C 	0.4347	0.446	0.5214	0.187
Mof_H 	H 	0.4929	0.4533	0.5392	-0.008
Mof_C 	C 	0.3909	0.4003	0.5425	-0.281
Mof_C 	C 	0.3092	0.3866	0.5107	0.214
Mof_H 	H 	0.2802	0.3545	0.5223	-0.028
Mof_C 	C 	0.2699	0.4181	0.4637	-0.303
Mof_H 	H 	0.2145	0.4078	0.4426	0.153
Mof_C 	C 	0.4299	0.3703	0.5953	0.568
Mof_C 	C 	0.2745	0.6175	0.3548	0.33
Mof_C 	C 	0.272	0.6478	0.305	-0.303
Mof_H 	H 	0.2245	0.6437	0.2733	0.154
Mof_C 	C 	0.3383	0.6849	0.2997	0.197
Mof_H 	H 	0.3368	0.7063	0.2647	-0.033
Mof_C 	C 	0.4072	0.6899	0.3474	-0.239
Mof_C 	C 	0.4092	0.6575	0.3964	0.191
Mof_H 	H 	0.4579	0.6598	0.4274	-0.017
Mof_C 	C 	0.3432	0.6214	0.4027	-0.293
Mof_H 	H 	0.3442	0.6003	0.4378	0.147
Mof_C 	C 	0.4797	0.7296	0.3431	0.457
Mof_C 	C 	0.1427	0.6846	0.4557	0.305
Mof_C 	C 	0.0985	0.6962	0.4012	-0.282
Mof_H 	H 	0.0434	0.68	0.3878	0.14
Mof_C 	C 	0.1355	0.733	0.3638	0.187
Mof_H 	H 	0.1066	0.7402	0.3246	-0.03
Mof_C 	C 	0.2117	0.7573	0.385	-0.225
Mof_C 	C 	0.2554	0.7472	0.4422	0.166
Mof_H 	H 	0.3098	0.7642	0.4563	-0.004
Mof_C 	C 	0.2179	0.7114	0.4785	-0.271
Mof_H 	H 	0.2446	0.706	0.5186	0.145
Mof_C 	C 	0.2546	0.7952	0.3463	0.445
Mof_C 	C 	0.909	0.5616	0.3707	0.308
Mof_C 	C 	0.935	0.587	0.3233	-0.303
Mof_H 	H 	0.9756	0.5697	0.3036	0.155
Mof_C 	C 	0.898	0.6396	0.3061	0.217
Mof_H 	H 	0.918	0.6598	0.2759	-0.027
Mof_C 	C 	0.8349	0.6637	0.3301	-0.298
Mof_C 	C 	0.808	0.6362	0.3754	0.221
Mof_H 	H 	0.7657	0.6528	0.3939	-0.022
Mof_C 	C 	0.8431	0.5839	0.3937	-0.3
Mof_H 	H 	0.8211	0.5631	0.4228	0.148
Mof_C 	C 	0.7943	0.7203	0.3102	0.582
Mof_C 	C 	0.5109	0.5776	0.0776	0.287
Mof_C 	C 	0.5598	0.6243	0.0641	-0.256
Mof_H 	H 	0.5747	0.6268	0.0264	0.129
Mof_C 	C 	0.586	0.666	0.1052	0.145
Mof_H 	H 	0.6201	0.6966	0.096	-0.013
Mof_C 	C 	0.5629	0.6638	0.1599	-0.197
Mof_C 	C 	0.5156	0.6179	0.1731	0.157
Mof_H 	H 	0.4998	0.6156	0.2105	0.004
Mof_C 	C 	0.4912	0.5755	0.132	-0.27
Mof_H 	H 	0.4598	0.5439	0.1421	0.148
Mof_C 	C 	0.5834	0.7106	0.2036	0.377
Mof_C 	C 	0.198	0.6136	0.144	0.334
Mof_C 	C 	0.2205	0.6689	0.1543	-0.325
Mof_H 	H 	0.2751	0.6821	0.1491	0.154
Mof_C 	C 	0.1622	0.7067	0.1728	0.227
Mof_H 	H 	0.1776	0.7455	0.1797	-0.064
Mof_C 	C 	0.083	0.688	0.1811	-0.283
Mof_C 	C 	0.0644	0.6296	0.1727	0.207
Mof_H 	H 	0.0118	0.6155	0.1807	-0.023
Mof_C 	C 	0.1189	0.5925	0.1535	-0.307
Mof_H 	H 	0.104	0.5536	0.1468	0.163
Mof_C 	C 	0.0235	0.7265	0.201	0.479
Mof_C 	C 	0.2988	0.7192	0.0194	0.323
Mof_C 	C 	0.3717	0.7253	0.0584	-0.312
Mof_H 	H 	0.4221	0.7061	0.0528	0.151
Mof_C 	C 	0.3739	0.7603	0.108	0.196
Mof_H 	H 	0.4241	0.763	0.1379	-0.029
Mof_C 	C 	0.2986	0.7916	0.112	-0.281
Mof_C 	C 	0.2265	0.7864	0.0692	0.207
Mof_H 	H 	0.1769	0.8081	0.0717	-0.017
Mof_C 	C 	0.2251	0.7493	0.0219	-0.3
Mof_H 	H 	0.1749	0.7449	0.9924	0.155
Mof_C 	C 	0.2944	0.8234	0.1656	0.531
Mof_C 	C 	0.4142	0.4603	0.9234	0.333
Mof_C 	C 	0.4756	0.4915	0.9041	-0.321
Mof_H 	H 	0.4992	0.5245	0.9249	0.162
Mof_C 	C 	0.5026	0.4745	0.8546	0.212
Mof_H 	H 	0.5458	0.4958	0.8409	-0.019
Mof_C 	C 	0.4685	0.427	0.8238	-0.257
Mof_C 	C 	0.4079	0.394	0.8456	0.219
Mof_H 	H 	0.3871	0.3595	0.8267	-0.049
Mof_C 	C 	0.3795	0.412	0.8941	-0.317
Mof_H 	H 	0.3358	0.3914	0.9079	0.14
Mof_C 	C 	0.5038	0.4092	0.7705	0.481
Mof_C 	C 	0.1663	0.5758	0.8783	0.311
Mof_C 	C 	0.1979	0.524	0.8668	-0.296
Mof_H 	H 	0.2579	0.5172	0.8776	0.145
Mof_C 	C 	0.1444	0.4807	0.8396	0.191
Mof_H 	H 	0.1677	0.4447	0.8329	-0.033
Mof_C 	C 	0.0584	0.4903	0.8228	-0.226
Mof_C 	C 	0.0267	0.5438	0.8348	0.163
Mof_H 	H 	0.9667	0.5505	0.8237	-0.002
Mof_C 	C 	0.0783	0.5871	0.8619	-0.267
Mof_H 	H 	0.0551	0.6231	0.869	0.142
Mof_C 	C 	0.9974	0.4451	0.7967	0.422
Mof_C 	C 	0.1353	0.4703	0.0201	0.334
Mof_C 	C 	0.1827	0.4259	0.0079	-0.349
Mof_H 	H 	0.2402	0.4219	0.0285	0.171
Mof_C 	C 	0.149	0.387	0.9665	0.241
Mof_H 	H 	0.1833	0.3572	0.9557	-0.05
Mof_C 	C 	0.0618	0.3922	0.9402	-0.298
Mof_C 	C 	0.0145	0.4358	0.9552	0.229
Mof_H 	H 	0.9558	0.4386	0.9368	-0.033
Mof_C 	C 	0.0491	0.4764	0.9968	-0.313
Mof_H 	H 	0.0156	0.5063	0.0083	0.152
Mof_C 	C 	0.0266	0.3524	0.8916	0.525
Mof_C 	C 	0.2723	0.9524	0.3139	0.381
Mof_C 	C 	0.2086	0.998	0.3202	-0.069
Mof_Ho	Ho	0.38981	0.86371	0.30106	2.118
Mof_Ho	Ho	0.87176	0.3594	0.76991	2.175
Mof_Ho	Ho	0.10629	0.3076	0.78027	2.028
Mof_Ho	Ho	0.60987	0.7876	0.29972	2.227
Mof_N 	N 	0.358	0.5801	0.9658	-0.187
Mof_N 	N 	0.3303	0.5181	0.0572	-0.181
Mof_N 	N 	0.215	0.6001	0.0111	-0.188
Mof_N 	N 	0.1055	0.508	0.383	-0.171
Mof_N 	N 	0.2097	0.5675	0.4678	-0.195
Mof_N 	N 	0.0479	0.5428	0.4814	-0.185
Mof_O 	O 	0.906	0.3695	0.6772	-0.531
Mof_O 	O 	0.0303	0.3217	0.6865	-0.538
Mof_O 	O 	0.2976	0.3587	0.7108	-0.588
Mof_O 	O 	0.1885	0.3788	0.7544	-0.558
Mof_O 	O 	0.3831	0.3342	0.6144	-0.568
Mof_O 	O 	0.5054	0.383	0.6186	-0.554
Mof_O 	O 	0.0372	0.4373	0.4445	-0.285
Mof_O 	O 	0.1619	0.5816	0.5685	-0.286
Mof_O 	O 	0.2724	0.4997	0.4005	-0.284
Mof_O 	O 	0.9441	0.5069	0.3903	-0.275
Mof_O 	O 	0.1082	0.6476	0.4942	-0.269
Mof_O 	O 	0.2031	0.5834	0.3551	-0.285
Mof_O 	O 	0.7301	0.7358	0.3304	-0.57
Mof_O 	O 	0.8246	0.7475	0.2727	-0.574
Mof_O 	O 	0.223	0.7975	0.2913	-0.543
Mof_O 	O 	0.3223	0.8208	0.3709	-0.492
Mof_O 	O 	0.4611	0.7757	0.3112	-0.634
Mof_O 	O 	0.5534	0.7201	0.3661	-0.434
Mof_O 	O 	0.2224	0.8465	0.1704	-0.554
Mof_O 	O 	0.3589	0.8256	0.2071	-0.539
Mof_O 	O 	0.0483	0.7764	0.2205	-0.633
Mof_O 	O 	0.9455	0.7129	0.1969	-0.454
Mof_O 	O 	0.56	0.7036	0.2526	-0.468
Mof_O 	O 	0.6233	0.7556	0.1977	-0.441
Mof_O 	O 	0.4828	0.5352	0.0359	-0.285
Mof_O 	O 	0.298	0.6833	0.9695	-0.271
Mof_O 	O 	0.2579	0.5783	0.1251	-0.29
Mof_O 	O 	0.3849	0.471	0.9757	-0.292
Mof_O 	O 	0.2148	0.6208	0.9039	-0.279
Mof_O 	O 	0.1686	0.511	0.0648	-0.287
Mof_O 	O 	0.4774	0.3627	0.745	-0.626
Mof_O 	O 	0.5609	0.4373	0.7548	-0.482
Mof_O 	O 	0.918	0.4546	0.7879	-0.471
Mof_O 	O 	0.0266	0.3967	0.783	-0.565
Mof_O 	O 	0.9482	0.3543	0.8708	-0.496
Mof_O 	O 	0.079	0.32	0.8725	-0.554
Mof_O 	O 	0.2503	0.9123	0.2738	-0.606
Mof_O 	O 	0.3455	0.95	0.3446	-0.417
Mof_P 	P 	0.38485	0.53005	0.00882	0.384
Mof_P 	P 	0.24604	0.55293	0.0614	0.378
Mof_P 	P 	0.2733	0.6178	0.96725	0.378
Mof_P 	P 	0.19343	0.53897	0.40562	0.379
Mof_P 	P 	0.1318	0.58184	0.4997	0.375
Mof_P 	P 	0.0381	0.50268	0.42667	0.375
Mof_C 	C 	0.9832	0.9163	0.5047	0.314
Mof_C 	C 	0.9255	0.8788	0.47	-0.302
Mof_H 	H 	0.8743	0.8683	0.4827	0.146
Mof_C 	C 	0.9411	0.8578	0.4195	0.219
Mof_H 	H 	0.9016	0.832	0.3972	-0.034
Mof_C 	C 	0.0157	0.8736	0.3995	-0.27
Mof_C 	C 	0.0735	0.9118	0.4326	0.199
Mof_H 	H 	0.1237	0.9228	0.4189	-0.019
Mof_C 	C 	0.0582	0.9334	0.4844	-0.282
Mof_H 	H 	0.0973	0.9595	0.5066	0.15
Mof_C 	C 	0.0271	0.8538	0.3412	0.521
Mof_C 	C 	0.8206	0.0318	0.3969	0.383
Mof_C 	C 	0.7469	0.0024	0.3941	-0.417
Mof_H 	H 	0.7066	0.0141	0.4172	0.181
Mof_C 	C 	0.7301	0.9562	0.3585	0.327
Mof_H 	H 	0.679	0.9352	0.3585	-0.072
Mof_C 	C 	0.785	0.9389	0.3223	-0.367
Mof_C 	C 	0.8609	0.9684	0.3254	0.293
Mof_H 	H 	0.9004	0.9573	0.3015	-0.055
Mof_C 	C 	0.8794	0.0145	0.3637	-0.373
Mof_H 	H 	0.9325	0.0341	0.3669	0.173
Mof_C 	C 	0.7647	0.8886	0.2839	0.603
Mof_C 	C 	0.6879	0.9658	0.5533	0.294
Mof_C 	C 	0.6053	0.9806	0.5245	-0.251
Mof_H 	H 	0.5773	0.0133	0.5358	0.122
Mof_C 	C 	0.5653	0.946	0.4786	0.171
Mof_H 	H 	0.5071	0.9533	0.4608	-0
Mof_C 	C 	0.6091	0.9003	0.4575	-0.271
Mof_C 	C 	0.6908	0.8866	0.4893	0.205
Mof_H 	H 	0.7198	0.8545	0.4777	-0.025
Mof_C 	C 	0.7301	0.9181	0.5363	-0.291
Mof_H 	H 	0.7855	0.9078	0.5574	0.151
Mof_C 	C 	0.5701	0.8703	0.4047	0.565
Mof_C 	C 	0.7255	0.1175	0.6452	0.328
Mof_C 	C 	0.728	0.1478	0.695	-0.303
Mof_H 	H 	0.7755	0.1437	0.7267	0.154
Mof_C 	C 	0.6617	0.1849	0.7003	0.197
Mof_H 	H 	0.6632	0.2063	0.7353	-0.033
Mof_C 	C 	0.5928	0.1899	0.6526	-0.239
Mof_C 	C 	0.5908	0.1575	0.6036	0.191
Mof_H 	H 	0.5421	0.1598	0.5726	-0.017
Mof_C 	C 	0.6568	0.1214	0.5973	-0.293
Mof_H 	H 	0.6558	0.1003	0.5622	0.145
Mof_C 	C 	0.5203	0.2296	0.6569	0.457
Mof_C 	C 	0.8573	0.1846	0.5443	0.305
Mof_C 	C 	0.9015	0.1962	0.5988	-0.282
Mof_H 	H 	0.9566	0.18	0.6122	0.14
Mof_C 	C 	0.8645	0.233	0.6362	0.187
Mof_H 	H 	0.8934	0.2402	0.6754	-0.03
Mof_C 	C 	0.7883	0.2573	0.615	-0.225
Mof_C 	C 	0.7446	0.2472	0.5578	0.166
Mof_H 	H 	0.6902	0.2642	0.5437	-0.004
Mof_C 	C 	0.7821	0.2114	0.5215	-0.271
Mof_H 	H 	0.7554	0.206	0.4814	0.145
Mof_C 	C 	0.7454	0.2952	0.6537	0.445
Mof_C 	C 	0.091	0.0616	0.6293	0.307
Mof_C 	C 	0.065	0.087	0.6767	-0.303
Mof_H 	H 	0.0244	0.0697	0.6964	0.154
Mof_C 	C 	0.102	0.1396	0.6939	0.216
Mof_H 	H 	0.082	0.1598	0.7241	-0.027
Mof_C 	C 	0.1651	0.1637	0.6699	-0.298
Mof_C 	C 	0.192	0.1362	0.6246	0.22
Mof_H 	H 	0.2343	0.1528	0.6061	-0.023
Mof_C 	C 	0.1569	0.0839	0.6063	-0.3
Mof_H 	H 	0.1789	0.0631	0.5772	0.146
Mof_C 	C 	0.2057	0.2203	0.6898	0.581
Mof_C 	C 	0.4891	0.0776	0.9224	0.286
Mof_C 	C 	0.4402	0.1243	0.9359	-0.256
Mof_H 	H 	0.4253	0.1268	0.9736	0.129
Mof_C 	C 	0.414	0.166	0.8948	0.144
Mof_H 	H 	0.3799	0.1966	0.904	-0.013
Mof_C 	C 	0.4371	0.1638	0.8401	-0.197
Mof_C 	C 	0.4844	0.1179	0.8269	0.157
Mof_H 	H 	0.5002	0.1156	0.7895	0.004
Mof_C 	C 	0.5088	0.0755	0.868	-0.27
Mof_H 	H 	0.5402	0.0439	0.8579	0.147
Mof_C 	C 	0.4166	0.2106	0.7964	0.377
Mof_C 	C 	0.802	0.1136	0.856	0.334
Mof_C 	C 	0.7795	0.1689	0.8457	-0.325
Mof_H 	H 	0.7249	0.1821	0.8509	0.154
Mof_C 	C 	0.8378	0.2067	0.8272	0.227
Mof_H 	H 	0.8224	0.2455	0.8203	-0.064
Mof_C 	C 	0.917	0.188	0.8189	-0.283
Mof_C 	C 	0.9356	0.1296	0.8273	0.207
Mof_H 	H 	0.9882	0.1155	0.8193	-0.023
Mof_C 	C 	0.8811	0.0925	0.8465	-0.307
Mof_H 	H 	0.896	0.0536	0.8532	0.162
Mof_C 	C 	0.9765	0.2265	0.799	0.48
Mof_C 	C 	0.7012	0.2192	0.9806	0.323
Mof_C 	C 	0.6283	0.2253	0.9416	-0.312
Mof_H 	H 	0.5779	0.2061	0.9472	0.151
Mof_C 	C 	0.6261	0.2603	0.892	0.196
Mof_H 	H 	0.5759	0.263	0.8621	-0.028
Mof_C 	C 	0.7014	0.2916	0.888	-0.28
Mof_C 	C 	0.7735	0.2864	0.9308	0.205
Mof_H 	H 	0.8231	0.3081	0.9283	-0.016
Mof_C 	C 	0.7749	0.2493	0.9781	-0.296
Mof_H 	H 	0.8251	0.2449	0.0076	0.151
Mof_C 	C 	0.7056	0.3234	0.8344	0.53
Mof_C 	C 	0.5858	0.9603	0.0766	0.317
Mof_C 	C 	0.5244	0.9915	0.0959	-0.284
Mof_H 	H 	0.5008	0.0245	0.0751	0.142
Mof_C 	C 	0.4974	0.9745	0.1454	0.19
Mof_H 	H 	0.4542	0.9958	0.1591	-0.009
Mof_C 	C 	0.5315	0.927	0.1762	-0.244
Mof_C 	C 	0.5921	0.894	0.1544	0.207
Mof_H 	H 	0.6129	0.8595	0.1733	-0.045
Mof_C 	C 	0.6205	0.912	0.1059	-0.302
Mof_H 	H 	0.6642	0.8914	0.0921	0.136
Mof_C 	C 	0.4962	0.9092	0.2295	0.477
Mof_C 	C 	0.8337	0.0758	0.1217	0.312
Mof_C 	C 	0.8021	0.024	0.1332	-0.312
Mof_H 	H 	0.7421	0.0172	0.1224	0.146
Mof_C 	C 	0.8556	0.9807	0.1604	0.203
Mof_H 	H 	0.8323	0.9447	0.1671	-0.036
Mof_C 	C 	0.9416	0.9903	0.1772	-0.215
Mof_C 	C 	0.9733	0.0438	0.1652	0.147
Mof_H 	H 	0.0333	0.0505	0.1763	-0
Mof_C 	C 	0.9217	0.0871	0.1381	-0.264
Mof_H 	H 	0.9449	0.1231	0.131	0.14
Mof_C 	C 	0.0026	0.9451	0.2033	0.418
Mof_C 	C 	0.8647	0.9703	0.9799	0.34
Mof_C 	C 	0.8173	0.9259	0.9921	-0.346
Mof_H 	H 	0.7598	0.9219	0.9715	0.173
Mof_C 	C 	0.851	0.887	0.0335	0.238
Mof_H 	H 	0.8167	0.8572	0.0443	-0.049
Mof_C 	C 	0.9382	0.8922	0.0598	-0.294
Mof_C 	C 	0.9855	0.9358	0.0448	0.223
Mof_H 	H 	0.0442	0.9386	0.0632	-0.03
Mof_C 	C 	0.9509	0.9764	0.0032	-0.297
Mof_H 	H 	0.9844	0.0063	0.9917	0.141
Mof_C 	C 	0.9734	0.8524	0.1084	0.525
Mof_C 	C 	0.7277	0.4524	0.6861	0.381
Mof_C 	C 	0.7914	0.498	0.6798	-0.073
Mof_Ho	Ho	0.61019	0.36371	0.69894	2.117
Mof_Ho	Ho	0.12824	0.8594	0.23009	2.174
Mof_Ho	Ho	0.89371	0.8076	0.21973	2.029
Mof_Ho	Ho	0.39013	0.2876	0.70028	2.226
Mof_N 	N 	0.642	0.0801	0.0342	-0.188
Mof_N 	N 	0.6697	0.0181	0.9428	-0.183
Mof_N 	N 	0.785	0.1001	0.9889	-0.187
Mof_N 	N 	0.8945	0.008	0.617	-0.172
Mof_N 	N 	0.7903	0.0675	0.5322	-0.196
Mof_N 	N 	0.9521	0.0428	0.5186	-0.186
Mof_O 	O 	0.094	0.8695	0.3228	-0.531
Mof_O 	O 	0.9697	0.8217	0.3135	-0.538
Mof_O 	O 	0.7024	0.8587	0.2892	-0.59
Mof_O 	O 	0.8115	0.8788	0.2456	-0.56
Mof_O 	O 	0.6169	0.8342	0.3856	-0.567
Mof_O 	O 	0.4946	0.883	0.3814	-0.553
Mof_O 	O 	0.9628	0.9373	0.5555	-0.277
Mof_O 	O 	0.8381	0.0816	0.4315	-0.293
Mof_O 	O 	0.7276	0.9997	0.5995	-0.272
Mof_O 	O 	0.0559	0.0069	0.6097	-0.277
Mof_O 	O 	0.8918	0.1476	0.5058	-0.27
Mof_O 	O 	0.7969	0.0834	0.6449	-0.285
Mof_O 	O 	0.2699	0.2358	0.6696	-0.57
Mof_O 	O 	0.1754	0.2475	0.7273	-0.574
Mof_O 	O 	0.777	0.2975	0.7087	-0.543
Mof_O 	O 	0.6777	0.3208	0.6291	-0.492
Mof_O 	O 	0.5389	0.2757	0.6888	-0.634
Mof_O 	O 	0.4466	0.2201	0.6339	-0.434
Mof_O 	O 	0.7776	0.3465	0.8296	-0.554
Mof_O 	O 	0.6411	0.3256	0.7929	-0.539
Mof_O 	O 	0.9517	0.2764	0.7795	-0.632
Mof_O 	O 	0.0545	0.2129	0.8031	-0.454
Mof_O 	O 	0.44	0.2036	0.7474	-0.468
Mof_O 	O 	0.3767	0.2556	0.8023	-0.441
Mof_O 	O 	0.5172	0.0352	0.9641	-0.287
Mof_O 	O 	0.702	0.1833	0.0305	-0.273
Mof_O 	O 	0.7421	0.0783	0.8749	-0.29
Mof_O 	O 	0.6151	0.971	0.0243	-0.282
Mof_O 	O 	0.7852	0.1208	0.0961	-0.28
Mof_O 	O 	0.8314	0.011	0.9352	-0.294
Mof_O 	O 	0.5226	0.8627	0.255	-0.624
Mof_O 	O 	0.4391	0.9373	0.2452	-0.48
Mof_O 	O 	0.082	0.9546	0.2121	-0.468
Mof_O 	O 	0.9734	0.8967	0.217	-0.562
Mof_O 	O 	0.0518	0.8543	0.1292	-0.496
Mof_O 	O 	0.921	0.82	0.1275	-0.554
Mof_O 	O 	0.7497	0.4123	0.7262	-0.606
Mof_O 	O 	0.6545	0.45	0.6554	-0.419
Mof_P 	P 	0.61515	0.03005	0.99118	0.379
Mof_P 	P 	0.75396	0.05293	0.9386	0.378
Mof_P 	P 	0.7267	0.1178	0.03275	0.376
Mof_P 	P 	0.80657	0.03897	0.59438	0.371
Mof_P 	P 	0.8682	0.08184	0.5003	0.375
Mof_P 	P 	0.9619	0.00268	0.57333	0.368
_end
