data_functionalizedCrystal
_audit_creation_method	'EQeq! by Chris Wilmer'
_symmetry_space_group_name_H-M	'P1'
_symmetry_Int_Tables_number	1
_symmetry_cell_setting	triclinic
loop_
_symmetry_equiv_pos_as_xyz
  x,y,z
_cell_length_a	16.0503
_cell_length_b	16.0503
_cell_length_c	36.843
_cell_angle_alpha	90
_cell_angle_beta	90
_cell_angle_gamma	120
loop_
_atom_site_label
_atom_site_type_symbol
_atom_site_fract_x
_atom_site_fract_y
_atom_site_fract_z
_atom_site_charge
Mof_O 	O 	0.8206	0.8515	0.1114	-0.483
Mof_O 	O 	0.2037	0.162	0.1088	-0.488
Mof_N 	N 	0.3979	0.2562	0.1141	-0.22
Mof_C 	C 	0.3922	0.2509	0.1517	0.059
Mof_H 	H 	0.3417	0.1977	0.1629	-0.018
Mof_C 	C 	0.462	0.3252	0.1726	-0.121
Mof_H 	H 	0.4582	0.3216	0.1978	0.063
Mof_C 	C 	0.5375	0.4047	0.1559	0.048
Mof_C 	C 	0.5432	0.41	0.1182	-0.119
Mof_H 	H 	0.5937	0.4632	0.107	0.062
Mof_C 	C 	0.4734	0.3357	0.0973	0.047
Mof_H 	H 	0.4772	0.3393	0.0721	-0.012
Mof_N 	N 	0.7557	0.6274	0.2195	-0.22
Mof_C 	C 	0.7629	0.6344	0.1819	0.052
Mof_H 	H 	0.8152	0.6869	0.1711	-0.007
Mof_C 	C 	0.6919	0.5631	0.1604	-0.115
Mof_H 	H 	0.6967	0.5678	0.1352	0.061
Mof_C 	C 	0.6136	0.4847	0.1765	0.045
Mof_C 	C 	0.6064	0.4776	0.2141	-0.116
Mof_H 	H 	0.5541	0.4252	0.2249	0.061
Mof_C 	C 	0.6775	0.549	0.2356	0.046
Mof_H 	H 	0.6726	0.5442	0.2607	-0.012
Mof_C 	C 	0.9662	0.8644	0.1281	-1.014
Mof_H 	H 	0.952	0.8665	0.1533	0.319
Mof_H 	H 	0.0336	0.9067	0.1239	0.313
Mof_H 	H 	0.9493	0.7999	0.1216	0.314
Mof_C 	C 	0.9101	0.8953	0.1057	0.494
Mof_C 	C 	0.1124	0.1153	0.1039	0.501
Mof_C 	C 	0.0588	0.1491	0.1277	-0.993
Mof_H 	H 	0.0006	0.0945	0.1363	0.304
Mof_H 	H 	0.0433	0.1904	0.1139	0.3
Mof_H 	H 	0.0984	0.184	0.148	0.324
Mof_O 	O 	0.1485	0.9691	0.44473	-0.484
Mof_O 	O 	0.838	0.0417	0.44213	-0.49
Mof_N 	N 	0.7438	0.1417	0.44743	-0.221
Mof_C 	C 	0.7491	0.1413	0.48503	0.058
Mof_H 	H 	0.8023	0.144	0.49623	-0.019
Mof_C 	C 	0.6748	0.1368	0.50593	-0.122
Mof_H 	H 	0.6784	0.1366	0.53113	0.062
Mof_C 	C 	0.5953	0.1328	0.48923	0.047
Mof_C 	C 	0.59	0.1332	0.45153	-0.12
Mof_H 	H 	0.5368	0.1305	0.44033	0.061
Mof_C 	C 	0.6643	0.1377	0.43063	0.046
Mof_H 	H 	0.6607	0.1379	0.40543	-0.013
Mof_N 	N 	0.3726	0.1283	0.55283	-0.221
Mof_C 	C 	0.3656	0.1285	0.51523	0.051
Mof_H 	H 	0.3131	0.1283	0.50443	-0.008
Mof_C 	C 	0.4369	0.1288	0.49373	-0.116
Mof_H 	H 	0.4322	0.1289	0.46853	0.06
Mof_C 	C 	0.5153	0.1289	0.50983	0.044
Mof_C 	C 	0.5224	0.1288	0.54743	-0.117
Mof_H 	H 	0.5748	0.1289	0.55823	0.06
Mof_C 	C 	0.451	0.1285	0.56893	0.045
Mof_H 	H 	0.4558	0.1284	0.59403	-0.012
Mof_C 	C 	0.1356	0.1018	0.46143	-1.021
Mof_H 	H 	0.1335	0.0855	0.48663	0.32
Mof_H 	H 	0.0933	0.1269	0.45723	0.315
Mof_H 	H 	0.2001	0.1494	0.45493	0.314
Mof_C 	C 	0.1047	0.0148	0.43903	0.494
Mof_C 	C 	0.8847	0.9971	0.43723	0.504
Mof_C 	C 	0.8509	0.9097	0.46103	-0.997
Mof_H 	H 	0.9055	0.9061	0.46963	0.306
Mof_H 	H 	0.8096	0.8529	0.44723	0.302
Mof_H 	H 	0.816	0.9144	0.48133	0.325
Mof_O 	O 	0.0309	0.1794	0.77807	-0.484
Mof_O 	O 	0.9583	0.7963	0.77547	-0.489
Mof_N 	N 	0.8583	0.6021	0.78077	-0.221
Mof_C 	C 	0.8587	0.6078	0.81837	0.058
Mof_H 	H 	0.856	0.6583	0.82957	-0.019
Mof_C 	C 	0.8632	0.538	0.83927	-0.122
Mof_H 	H 	0.8634	0.5418	0.86447	0.062
Mof_C 	C 	0.8672	0.4625	0.82257	0.047
Mof_C 	C 	0.8668	0.4568	0.78487	-0.12
Mof_H 	H 	0.8695	0.4063	0.77367	0.061
Mof_C 	C 	0.8623	0.5266	0.76397	0.046
Mof_H 	H 	0.8621	0.5228	0.73877	-0.013
Mof_N 	N 	0.8717	0.2443	0.88617	-0.221
Mof_C 	C 	0.8715	0.2371	0.84857	0.051
Mof_H 	H 	0.8717	0.1848	0.83777	-0.008
Mof_C 	C 	0.8712	0.3081	0.82707	-0.116
Mof_H 	H 	0.8711	0.3033	0.80187	0.06
Mof_C 	C 	0.8711	0.3864	0.84317	0.044
Mof_C 	C 	0.8712	0.3936	0.88077	-0.117
Mof_H 	H 	0.8711	0.4459	0.89157	0.06
Mof_C 	C 	0.8715	0.3225	0.90227	0.045
Mof_H 	H 	0.8716	0.3274	0.92737	-0.013
Mof_C 	C 	0.8982	0.0338	0.79477	-1.013
Mof_H 	H 	0.9145	0.048	0.81997	0.317
Mof_H 	H 	0.8731	0.9664	0.79057	0.311
Mof_H 	H 	0.8506	0.0507	0.78827	0.312
Mof_C 	C 	0.9852	0.0899	0.77237	0.491
Mof_C 	C 	0.0029	0.8876	0.77057	0.503
Mof_C 	C 	0.0903	0.9412	0.79437	-0.994
Mof_H 	H 	0.0939	0.9994	0.80297	0.305
Mof_H 	H 	0.1471	0.9567	0.78057	0.301
Mof_H 	H 	0.0856	0.9016	0.81467	0.324
Mof_O 	O 	0.1794	0.1485	0.6114	-0.485
Mof_O 	O 	0.7963	0.838	0.6088	-0.489
Mof_N 	N 	0.6021	0.7438	0.6141	-0.221
Mof_C 	C 	0.6078	0.7491	0.6517	0.058
Mof_H 	H 	0.6583	0.8023	0.6629	-0.019
Mof_C 	C 	0.538	0.6748	0.6726	-0.122
Mof_H 	H 	0.5418	0.6784	0.6978	0.062
Mof_C 	C 	0.4625	0.5953	0.6559	0.047
Mof_C 	C 	0.4568	0.59	0.6182	-0.12
Mof_H 	H 	0.4063	0.5368	0.607	0.061
Mof_C 	C 	0.5266	0.6643	0.5973	0.046
Mof_H 	H 	0.5228	0.6607	0.5721	-0.013
Mof_N 	N 	0.2443	0.3726	0.7195	-0.221
Mof_C 	C 	0.2371	0.3656	0.6819	0.051
Mof_H 	H 	0.1848	0.3131	0.6711	-0.008
Mof_C 	C 	0.3081	0.4369	0.6604	-0.116
Mof_H 	H 	0.3033	0.4322	0.6352	0.06
Mof_C 	C 	0.3864	0.5153	0.6765	0.044
Mof_C 	C 	0.3936	0.5224	0.7141	-0.117
Mof_H 	H 	0.4459	0.5748	0.7249	0.06
Mof_C 	C 	0.3225	0.451	0.7356	0.045
Mof_H 	H 	0.3274	0.4558	0.7607	-0.013
Mof_C 	C 	0.0338	0.1356	0.6281	-1.016
Mof_H 	H 	0.048	0.1335	0.6533	0.318
Mof_H 	H 	0.9664	0.0933	0.6239	0.312
Mof_H 	H 	0.0507	0.2001	0.6216	0.313
Mof_C 	C 	0.0899	0.1047	0.6057	0.493
Mof_C 	C 	0.8876	0.8847	0.6039	0.501
Mof_C 	C 	0.9412	0.8509	0.6277	-0.992
Mof_H 	H 	0.9994	0.9055	0.6363	0.304
Mof_H 	H 	0.9567	0.8096	0.6139	0.3
Mof_H 	H 	0.9016	0.816	0.648	0.324
Mof_O 	O 	0.8515	0.0309	0.94473	-0.484
Mof_O 	O 	0.162	0.9583	0.94213	-0.49
Mof_N 	N 	0.2562	0.8583	0.94743	-0.221
Mof_C 	C 	0.2509	0.8587	0.98503	0.057
Mof_H 	H 	0.1977	0.856	0.99623	-0.019
Mof_C 	C 	0.3252	0.8632	0.00593	-0.121
Mof_H 	H 	0.3216	0.8634	0.03113	0.062
Mof_C 	C 	0.4047	0.8672	0.98923	0.046
Mof_C 	C 	0.41	0.8668	0.95153	-0.119
Mof_H 	H 	0.4632	0.8695	0.94033	0.061
Mof_C 	C 	0.3357	0.8623	0.93063	0.046
Mof_H 	H 	0.3393	0.8621	0.90543	-0.013
Mof_N 	N 	0.6274	0.8717	0.05283	-0.221
Mof_C 	C 	0.6344	0.8715	0.01523	0.052
Mof_H 	H 	0.6869	0.8717	0.00443	-0.008
Mof_C 	C 	0.5631	0.8712	0.99373	-0.117
Mof_H 	H 	0.5678	0.8711	0.96853	0.061
Mof_C 	C 	0.4847	0.8711	0.00983	0.045
Mof_C 	C 	0.4776	0.8712	0.04743	-0.118
Mof_H 	H 	0.4252	0.8711	0.05823	0.061
Mof_C 	C 	0.549	0.8715	0.06893	0.046
Mof_H 	H 	0.5442	0.8716	0.09403	-0.013
Mof_C 	C 	0.8644	0.8982	0.96143	-1.021
Mof_H 	H 	0.8665	0.9145	0.98663	0.32
Mof_H 	H 	0.9067	0.8731	0.95723	0.315
Mof_H 	H 	0.7999	0.8506	0.95493	0.314
Mof_C 	C 	0.8953	0.9852	0.93903	0.493
Mof_C 	C 	0.1153	0.0029	0.93723	0.504
Mof_C 	C 	0.1491	0.0903	0.96103	-0.997
Mof_H 	H 	0.0945	0.0939	0.96963	0.306
Mof_H 	H 	0.1904	0.1471	0.94723	0.302
Mof_H 	H 	0.184	0.0856	0.98133	0.325
Mof_O 	O 	0.9691	0.8206	0.27807	-0.484
Mof_O 	O 	0.0417	0.2037	0.27547	-0.489
Mof_N 	N 	0.1417	0.3979	0.28077	-0.221
Mof_C 	C 	0.1413	0.3922	0.31837	0.058
Mof_H 	H 	0.144	0.3417	0.32957	-0.019
Mof_C 	C 	0.1368	0.462	0.33927	-0.122
Mof_H 	H 	0.1366	0.4582	0.36447	0.062
Mof_C 	C 	0.1328	0.5375	0.32257	0.047
Mof_C 	C 	0.1332	0.5432	0.28487	-0.12
Mof_H 	H 	0.1305	0.5937	0.27367	0.061
Mof_C 	C 	0.1377	0.4734	0.26397	0.046
Mof_H 	H 	0.1379	0.4772	0.23877	-0.013
Mof_N 	N 	0.1283	0.7557	0.38617	-0.221
Mof_C 	C 	0.1285	0.7629	0.34857	0.051
Mof_H 	H 	0.1283	0.8152	0.33777	-0.008
Mof_C 	C 	0.1288	0.6919	0.32707	-0.116
Mof_H 	H 	0.1289	0.6967	0.30187	0.06
Mof_C 	C 	0.1289	0.6136	0.34317	0.044
Mof_C 	C 	0.1288	0.6064	0.38077	-0.117
Mof_H 	H 	0.1289	0.5541	0.39157	0.061
Mof_C 	C 	0.1285	0.6775	0.40227	0.045
Mof_H 	H 	0.1284	0.6726	0.42737	-0.012
Mof_C 	C 	0.1018	0.9662	0.29477	-1.013
Mof_H 	H 	0.0855	0.952	0.31997	0.317
Mof_H 	H 	0.1269	0.0336	0.29057	0.311
Mof_H 	H 	0.1494	0.9493	0.28827	0.312
Mof_C 	C 	0.0148	0.9101	0.27237	0.491
Mof_C 	C 	0.9971	0.1124	0.27057	0.503
Mof_C 	C 	0.9097	0.0588	0.29437	-0.994
Mof_H 	H 	0.9061	0.0006	0.30297	0.305
Mof_H 	H 	0.8529	0.0433	0.28057	0.301
Mof_H 	H 	0.9144	0.0984	0.31467	0.324
Mof_O 	O 	0.8515	0.8206	0.22193	-0.485
Mof_O 	O 	0.162	0.2037	0.22453	-0.489
Mof_N 	N 	0.2562	0.3979	0.21923	-0.221
Mof_C 	C 	0.2509	0.3922	0.18163	0.058
Mof_H 	H 	0.1977	0.3417	0.17043	-0.019
Mof_C 	C 	0.3252	0.462	0.16073	-0.122
Mof_H 	H 	0.3216	0.4582	0.13553	0.062
Mof_C 	C 	0.4047	0.5375	0.17743	0.047
Mof_C 	C 	0.41	0.5432	0.21513	-0.12
Mof_H 	H 	0.4632	0.5937	0.22633	0.061
Mof_C 	C 	0.3357	0.4734	0.23603	0.046
Mof_H 	H 	0.3393	0.4772	0.26123	-0.013
Mof_N 	N 	0.6274	0.7557	0.11383	-0.221
Mof_C 	C 	0.6344	0.7629	0.15143	0.051
Mof_H 	H 	0.6869	0.8152	0.16223	-0.008
Mof_C 	C 	0.5631	0.6919	0.17293	-0.116
Mof_H 	H 	0.5678	0.6967	0.19813	0.06
Mof_C 	C 	0.4847	0.6136	0.15683	0.044
Mof_C 	C 	0.4776	0.6064	0.11923	-0.117
Mof_H 	H 	0.4252	0.5541	0.10843	0.06
Mof_C 	C 	0.549	0.6775	0.09773	0.045
Mof_H 	H 	0.5442	0.6726	0.07263	-0.013
Mof_C 	C 	0.8644	0.9662	0.20523	-1.015
Mof_H 	H 	0.8665	0.952	0.18003	0.318
Mof_H 	H 	0.9067	0.0336	0.20943	0.312
Mof_H 	H 	0.7999	0.9493	0.21173	0.313
Mof_C 	C 	0.8953	0.9101	0.22763	0.493
Mof_C 	C 	0.1153	0.1124	0.22943	0.501
Mof_C 	C 	0.1491	0.0588	0.20563	-0.992
Mof_H 	H 	0.0945	0.0006	0.19703	0.304
Mof_H 	H 	0.1904	0.0433	0.21943	0.3
Mof_H 	H 	0.184	0.0984	0.18533	0.324
Mof_O 	O 	0.9691	0.1485	0.8886	-0.485
Mof_O 	O 	0.0417	0.838	0.8912	-0.49
Mof_N 	N 	0.1417	0.7438	0.8859	-0.221
Mof_C 	C 	0.1413	0.7491	0.8483	0.058
Mof_H 	H 	0.144	0.8023	0.8371	-0.019
Mof_C 	C 	0.1368	0.6748	0.8274	-0.122
Mof_H 	H 	0.1366	0.6784	0.8022	0.062
Mof_C 	C 	0.1328	0.5953	0.8441	0.047
Mof_C 	C 	0.1332	0.59	0.8818	-0.12
Mof_H 	H 	0.1305	0.5368	0.893	0.061
Mof_C 	C 	0.1377	0.6643	0.9027	0.046
Mof_H 	H 	0.1379	0.6607	0.9279	-0.013
Mof_N 	N 	0.1283	0.3726	0.7805	-0.221
Mof_C 	C 	0.1285	0.3656	0.8181	0.051
Mof_H 	H 	0.1283	0.3131	0.8289	-0.008
Mof_C 	C 	0.1288	0.4369	0.8396	-0.116
Mof_H 	H 	0.1289	0.4322	0.8648	0.06
Mof_C 	C 	0.1289	0.5153	0.8235	0.044
Mof_C 	C 	0.1288	0.5224	0.7859	-0.117
Mof_H 	H 	0.1289	0.5748	0.7751	0.06
Mof_C 	C 	0.1285	0.451	0.7644	0.045
Mof_H 	H 	0.1284	0.4558	0.7393	-0.012
Mof_C 	C 	0.1018	0.1356	0.8719	-1.022
Mof_H 	H 	0.0855	0.1335	0.8467	0.32
Mof_H 	H 	0.1269	0.0933	0.8761	0.315
Mof_H 	H 	0.1494	0.2001	0.8784	0.314
Mof_C 	C 	0.0148	0.1047	0.8943	0.494
Mof_C 	C 	0.9971	0.8847	0.8961	0.504
Mof_C 	C 	0.9097	0.8509	0.8723	-0.996
Mof_H 	H 	0.9061	0.9055	0.8637	0.306
Mof_H 	H 	0.8529	0.8096	0.8861	0.302
Mof_H 	H 	0.9144	0.816	0.852	0.325
Mof_O 	O 	0.1794	0.0309	0.55527	-0.484
Mof_O 	O 	0.7963	0.9583	0.55787	-0.489
Mof_N 	N 	0.6021	0.8583	0.55257	-0.221
Mof_C 	C 	0.6078	0.8587	0.51497	0.058
Mof_H 	H 	0.6583	0.856	0.50377	-0.019
Mof_C 	C 	0.538	0.8632	0.49407	-0.122
Mof_H 	H 	0.5418	0.8634	0.46887	0.062
Mof_C 	C 	0.4625	0.8672	0.51077	0.047
Mof_C 	C 	0.4568	0.8668	0.54847	-0.12
Mof_H 	H 	0.4063	0.8695	0.55967	0.061
Mof_C 	C 	0.5266	0.8623	0.56937	0.046
Mof_H 	H 	0.5228	0.8621	0.59457	-0.013
Mof_N 	N 	0.2443	0.8717	0.44717	-0.221
Mof_C 	C 	0.2371	0.8715	0.48477	0.051
Mof_H 	H 	0.1848	0.8717	0.49557	-0.008
Mof_C 	C 	0.3081	0.8712	0.50627	-0.116
Mof_H 	H 	0.3033	0.8711	0.53147	0.06
Mof_C 	C 	0.3864	0.8711	0.49017	0.044
Mof_C 	C 	0.3936	0.8712	0.45257	-0.117
Mof_H 	H 	0.4459	0.8711	0.44177	0.061
Mof_C 	C 	0.3225	0.8715	0.43107	0.045
Mof_H 	H 	0.3274	0.8716	0.40597	-0.012
Mof_C 	C 	0.0338	0.8982	0.53857	-1.014
Mof_H 	H 	0.048	0.9145	0.51337	0.318
Mof_H 	H 	0.9664	0.8731	0.54277	0.311
Mof_H 	H 	0.0507	0.8506	0.54507	0.312
Mof_C 	C 	0.0899	0.9852	0.56097	0.492
Mof_C 	C 	0.8876	0.0029	0.56277	0.503
Mof_C 	C 	0.9412	0.0903	0.53897	-0.994
Mof_H 	H 	0.9994	0.0939	0.53037	0.305
Mof_H 	H 	0.9567	0.1471	0.55277	0.301
Mof_H 	H 	0.9016	0.0856	0.51867	0.324
Mof_O 	O 	0.1485	0.1794	0.72193	-0.485
Mof_O 	O 	0.838	0.7963	0.72453	-0.489
Mof_N 	N 	0.7438	0.6021	0.71923	-0.221
Mof_C 	C 	0.7491	0.6078	0.68163	0.058
Mof_H 	H 	0.8023	0.6583	0.67043	-0.019
Mof_C 	C 	0.6748	0.538	0.66073	-0.122
Mof_H 	H 	0.6784	0.5418	0.63553	0.062
Mof_C 	C 	0.5953	0.4625	0.67743	0.047
Mof_C 	C 	0.59	0.4568	0.71513	-0.12
Mof_H 	H 	0.5368	0.4063	0.72633	0.061
Mof_C 	C 	0.6643	0.5266	0.73603	0.046
Mof_H 	H 	0.6607	0.5228	0.76123	-0.013
Mof_N 	N 	0.3726	0.2443	0.61383	-0.221
Mof_C 	C 	0.3656	0.2371	0.65143	0.051
Mof_H 	H 	0.3131	0.1848	0.66223	-0.008
Mof_C 	C 	0.4369	0.3081	0.67293	-0.116
Mof_H 	H 	0.4322	0.3033	0.69813	0.06
Mof_C 	C 	0.5153	0.3864	0.65683	0.044
Mof_C 	C 	0.5224	0.3936	0.61923	-0.117
Mof_H 	H 	0.5748	0.4459	0.60843	0.06
Mof_C 	C 	0.451	0.3225	0.59773	0.045
Mof_H 	H 	0.4558	0.3274	0.57263	-0.013
Mof_C 	C 	0.1356	0.0338	0.70523	-1.015
Mof_H 	H 	0.1335	0.048	0.68003	0.318
Mof_H 	H 	0.0933	0.9664	0.70943	0.312
Mof_H 	H 	0.2001	0.0507	0.71173	0.313
Mof_C 	C 	0.1047	0.0899	0.72763	0.493
Mof_C 	C 	0.8847	0.8876	0.72943	0.501
Mof_C 	C 	0.8509	0.9412	0.70563	-0.993
Mof_H 	H 	0.9055	0.9994	0.69703	0.304
Mof_H 	H 	0.8096	0.9567	0.71943	0.3
Mof_H 	H 	0.816	0.9016	0.68533	0.324
Mof_O 	O 	0.0309	0.8515	0.3886	-0.484
Mof_O 	O 	0.9583	0.162	0.3912	-0.49
Mof_N 	N 	0.8583	0.2562	0.3859	-0.221
Mof_C 	C 	0.8587	0.2509	0.3483	0.058
Mof_H 	H 	0.856	0.1977	0.3371	-0.019
Mof_C 	C 	0.8632	0.3252	0.3274	-0.122
Mof_H 	H 	0.8634	0.3216	0.3022	0.062
Mof_C 	C 	0.8672	0.4047	0.3441	0.047
Mof_C 	C 	0.8668	0.41	0.3818	-0.12
Mof_H 	H 	0.8695	0.4632	0.393	0.061
Mof_C 	C 	0.8623	0.3357	0.4027	0.046
Mof_H 	H 	0.8621	0.3393	0.4279	-0.013
Mof_N 	N 	0.8717	0.6274	0.2805	-0.221
Mof_C 	C 	0.8715	0.6344	0.3181	0.051
Mof_H 	H 	0.8717	0.6869	0.3289	-0.008
Mof_C 	C 	0.8712	0.5631	0.3396	-0.116
Mof_H 	H 	0.8711	0.5678	0.3648	0.06
Mof_C 	C 	0.8711	0.4847	0.3235	0.044
Mof_C 	C 	0.8712	0.4776	0.2859	-0.117
Mof_H 	H 	0.8711	0.4252	0.2751	0.06
Mof_C 	C 	0.8715	0.549	0.2644	0.045
Mof_H 	H 	0.8716	0.5442	0.2393	-0.012
Mof_C 	C 	0.8982	0.8644	0.3719	-1.021
Mof_H 	H 	0.9145	0.8665	0.3467	0.32
Mof_H 	H 	0.8731	0.9067	0.3761	0.315
Mof_H 	H 	0.8506	0.7999	0.3784	0.314
Mof_C 	C 	0.9852	0.8953	0.3943	0.494
Mof_C 	C 	0.0029	0.1153	0.3961	0.504
Mof_C 	C 	0.0903	0.1491	0.3723	-0.996
Mof_H 	H 	0.0939	0.0945	0.3637	0.306
Mof_H 	H 	0.1471	0.1904	0.3861	0.302
Mof_H 	H 	0.0856	0.184	0.352	0.325
Mof_O 	O 	0.8206	0.9691	0.05527	-0.484
Mof_O 	O 	0.2037	0.0417	0.05787	-0.489
Mof_N 	N 	0.3979	0.1417	0.05257	-0.221
Mof_C 	C 	0.3922	0.1413	0.01497	0.058
Mof_H 	H 	0.3417	0.144	0.00377	-0.019
Mof_C 	C 	0.462	0.1368	0.99407	-0.122
Mof_H 	H 	0.4582	0.1366	0.96887	0.063
Mof_C 	C 	0.5375	0.1328	0.01077	0.048
Mof_C 	C 	0.5432	0.1332	0.04847	-0.12
Mof_H 	H 	0.5937	0.1305	0.05967	0.061
Mof_C 	C 	0.4734	0.1377	0.06937	0.046
Mof_H 	H 	0.4772	0.1379	0.09457	-0.013
Mof_N 	N 	0.7557	0.1283	0.94717	-0.221
Mof_C 	C 	0.7629	0.1285	0.98477	0.051
Mof_H 	H 	0.8152	0.1283	0.99557	-0.008
Mof_C 	C 	0.6919	0.1288	0.00627	-0.115
Mof_H 	H 	0.6967	0.1289	0.03147	0.06
Mof_C 	C 	0.6136	0.1289	0.99017	0.044
Mof_C 	C 	0.6064	0.1288	0.95257	-0.117
Mof_H 	H 	0.5541	0.1289	0.94177	0.06
Mof_C 	C 	0.6775	0.1285	0.93107	0.045
Mof_H 	H 	0.6726	0.1284	0.90597	-0.012
Mof_C 	C 	0.9662	0.1018	0.03857	-1.013
Mof_H 	H 	0.952	0.0855	0.01337	0.317
Mof_H 	H 	0.0336	0.1269	0.04277	0.311
Mof_H 	H 	0.9493	0.1494	0.04507	0.312
Mof_C 	C 	0.9101	0.0148	0.06097	0.491
Mof_C 	C 	0.1124	0.9971	0.06277	0.503
Mof_C 	C 	0.0588	0.9097	0.03897	-0.994
Mof_H 	H 	0.0006	0.9061	0.03037	0.305
Mof_H 	H 	0.0433	0.8529	0.05277	0.301
Mof_H 	H 	0.0984	0.9144	0.01867	0.325
Mof_Cu	Cu	0.29777	0.14889	0.08333	0.895
Mof_Cu	Cu	0.72617	0.86309	0.08333	0.889
Mof_C 	C 	0.9548	0.9774	0.08333	-0.314
Mof_C 	C 	0.0696	0.0348	0.08333	-0.375
Mof_Cu	Cu	0.85111	0.14889	0.41667	0.895
Mof_Cu	Cu	0.13691	0.86308	0.41667	0.889
Mof_C 	C 	0.0226	0.9774	0.41667	-0.315
Mof_C 	C 	0.9652	0.0348	0.41667	-0.376
Mof_Cu	Cu	0.85111	0.70223	0.75	0.895
Mof_Cu	Cu	0.13692	0.27383	0.75	0.889
Mof_C 	C 	0.0226	0.0452	0.75	-0.314
Mof_C 	C 	0.9652	0.9304	0.75	-0.375
Mof_Cu	Cu	0.70223	0.85111	0.58333	0.895
Mof_Cu	Cu	0.27383	0.13691	0.58333	0.889
Mof_C 	C 	0.0452	0.0226	0.58333	-0.314
Mof_C 	C 	0.9304	0.9652	0.58333	-0.374
Mof_Cu	Cu	0.14889	0.85111	0.91667	0.895
Mof_Cu	Cu	0.86309	0.13692	0.91667	0.889
Mof_C 	C 	0.9774	0.0226	0.91667	-0.315
Mof_C 	C 	0.0348	0.9652	0.91667	-0.376
Mof_Cu	Cu	0.14889	0.29777	0.25	0.895
Mof_Cu	Cu	0.86309	0.72617	0.25	0.889
Mof_C 	C 	0.9774	0.9548	0.25	-0.314
Mof_C 	C 	0.0348	0.0696	0.25	-0.374
_end
