data_functionalizedCrystal
_audit_creation_method	'EQeq! by Chris Wilmer'
_symmetry_space_group_name_H-M	'P1'
_symmetry_Int_Tables_number	1
_symmetry_cell_setting	triclinic
loop_
_symmetry_equiv_pos_as_xyz
  x,y,z
_cell_length_a	15.576
_cell_length_b	16.427
_cell_length_c	12.477
_cell_angle_alpha	90
_cell_angle_beta	92.314
_cell_angle_gamma	90
loop_
_atom_site_label
_atom_site_type_symbol
_atom_site_fract_x
_atom_site_fract_y
_atom_site_fract_z
_atom_site_charge
Mof_Dy	Dy	0.11973	0.18711	0.9073	2.302
Mof_S 	S 	0.10489	0.21941	0.66356	0.803
Mof_S 	S 	0.18876	0.35127	0.0729	0.899
Mof_O 	O 	0.0568	0.0625	0.8993	-0.492
Mof_O 	O 	0.1011	0.141	0.7236	-0.586
Mof_O 	O 	0.0837	0.1451	0.0728	-0.491
Mof_O 	O 	0.0216	0.2337	0.6075	-0.564
Mof_O 	O 	0.1358	0.3111	0.9902	-0.552
Mof_O 	O 	0.1207	0.2819	0.7482	-0.43
Mof_O 	O 	0.0728	0.0423	0.1828	-0.346
Mof_O 	O 	0.1735	0.2177	0.5893	-0.257
Mof_O 	O 	0.2601	0.3937	0.0274	-0.515
Mof_C 	C 	0.065	0.0731	0.0923	0.419
Mof_O 	O 	0.1348	0.4002	0.135	-0.29
Mof_O 	O 	0.2341	0.2913	0.1394	-0.527
Mof_C 	C 	0.0416	0.0192	0.9978	-0.089
Mof_H 	H 	0.0835	0.9747	0.0009	0.074
Mof_Dy	Dy	0.61973	0.68711	0.9073	2.357
Mof_S 	S 	0.60489	0.71941	0.66356	0.799
Mof_S 	S 	0.68876	0.85127	0.0729	0.894
Mof_O 	O 	0.5568	0.5625	0.8993	-0.503
Mof_O 	O 	0.6011	0.641	0.7236	-0.586
Mof_O 	O 	0.5837	0.6451	0.0728	-0.481
Mof_O 	O 	0.5216	0.7337	0.6075	-0.523
Mof_O 	O 	0.6358	0.8111	0.9902	-0.541
Mof_O 	O 	0.6207	0.7819	0.7482	-0.419
Mof_O 	O 	0.5728	0.5423	0.1828	-0.335
Mof_O 	O 	0.6735	0.7177	0.5893	-0.247
Mof_O 	O 	0.7601	0.8937	0.0274	-0.517
Mof_C 	C 	0.565	0.5731	0.0923	0.403
Mof_O 	O 	0.6348	0.9002	0.135	-0.274
Mof_O 	O 	0.7341	0.7913	0.1394	-0.528
Mof_C 	C 	0.5416	0.5192	0.9978	-0.002
Mof_H 	H 	0.5835	0.4747	0.0009	0.056
Mof_Dy	Dy	0.88027	0.18711	0.5927	2.405
Mof_S 	S 	0.89511	0.21941	0.83644	0.79
Mof_S 	S 	0.81124	0.35127	0.4271	0.897
Mof_O 	O 	0.9432	0.0625	0.6007	-0.485
Mof_O 	O 	0.8989	0.141	0.7764	-0.564
Mof_O 	O 	0.9163	0.1451	0.4272	-0.467
Mof_O 	O 	0.9784	0.2337	0.8925	-0.477
Mof_O 	O 	0.8642	0.3111	0.5098	-0.538
Mof_O 	O 	0.8793	0.2819	0.7518	-0.407
Mof_O 	O 	0.9272	0.0423	0.3172	-0.3
Mof_O 	O 	0.8265	0.2177	0.9107	-0.241
Mof_O 	O 	0.7399	0.3937	0.4726	-0.509
Mof_C 	C 	0.935	0.0731	0.4077	0.393
Mof_O 	O 	0.8652	0.4002	0.365	-0.258
Mof_O 	O 	0.7659	0.2913	0.3606	-0.522
Mof_C 	C 	0.9584	0.0192	0.5022	0.059
Mof_H 	H 	0.9165	0.9747	0.4991	0.051
Mof_Dy	Dy	0.38027	0.68711	0.5927	2.352
Mof_S 	S 	0.39511	0.71941	0.83644	0.8
Mof_S 	S 	0.31124	0.85127	0.4271	0.897
Mof_O 	O 	0.4432	0.5625	0.6007	-0.502
Mof_O 	O 	0.3989	0.641	0.7764	-0.587
Mof_O 	O 	0.4163	0.6451	0.4272	-0.481
Mof_O 	O 	0.4784	0.7337	0.8925	-0.523
Mof_O 	O 	0.3642	0.8111	0.5098	-0.545
Mof_O 	O 	0.3793	0.7819	0.7518	-0.42
Mof_O 	O 	0.4272	0.5423	0.3172	-0.338
Mof_O 	O 	0.3265	0.7177	0.9107	-0.253
Mof_O 	O 	0.2399	0.8937	0.4726	-0.506
Mof_C 	C 	0.435	0.5731	0.4077	0.409
Mof_O 	O 	0.3652	0.9002	0.365	-0.274
Mof_O 	O 	0.2659	0.7913	0.3606	-0.52
Mof_C 	C 	0.4584	0.5192	0.5022	-0.016
Mof_H 	H 	0.4165	0.4747	0.4991	0.06
Mof_Dy	Dy	0.88027	0.81289	0.0927	2.397
Mof_S 	S 	0.89511	0.78059	0.33644	0.79
Mof_S 	S 	0.81124	0.64873	0.9271	0.903
Mof_O 	O 	0.9432	0.9375	0.1007	-0.484
Mof_O 	O 	0.8989	0.859	0.2764	-0.564
Mof_O 	O 	0.9163	0.8549	0.9272	-0.465
Mof_O 	O 	0.9784	0.7663	0.3925	-0.479
Mof_O 	O 	0.8642	0.6889	0.0098	-0.542
Mof_O 	O 	0.8793	0.7181	0.2518	-0.408
Mof_O 	O 	0.9272	0.9577	0.8172	-0.299
Mof_O 	O 	0.8265	0.7823	0.4107	-0.242
Mof_O 	O 	0.7399	0.6063	0.9726	-0.508
Mof_C 	C 	0.935	0.9269	0.9077	0.402
Mof_O 	O 	0.8652	0.5998	0.865	-0.258
Mof_O 	O 	0.7659	0.7087	0.8606	-0.522
Mof_C 	C 	0.9584	0.9808	0.0022	0.046
Mof_H 	H 	0.9165	0.0253	0.9991	0.056
Mof_Dy	Dy	0.38027	0.31289	0.0927	2.35
Mof_S 	S 	0.39511	0.28059	0.33644	0.8
Mof_S 	S 	0.31124	0.14873	0.9271	0.897
Mof_O 	O 	0.4432	0.4375	0.1007	-0.499
Mof_O 	O 	0.3989	0.359	0.2764	-0.587
Mof_O 	O 	0.4163	0.3549	0.9272	-0.481
Mof_O 	O 	0.4784	0.2663	0.3925	-0.524
Mof_O 	O 	0.3642	0.1889	0.0098	-0.545
Mof_O 	O 	0.3793	0.2181	0.2518	-0.42
Mof_O 	O 	0.4272	0.4577	0.8172	-0.339
Mof_O 	O 	0.3265	0.2823	0.4107	-0.254
Mof_O 	O 	0.2399	0.1063	0.9726	-0.507
Mof_C 	C 	0.435	0.4269	0.9077	0.415
Mof_O 	O 	0.3652	0.0998	0.865	-0.274
Mof_O 	O 	0.2659	0.2087	0.8606	-0.519
Mof_C 	C 	0.4584	0.4808	0.0022	-0.03
Mof_H 	H 	0.4165	0.5253	0.9991	0.066
Mof_Dy	Dy	0.11973	0.81289	0.4073	2.303
Mof_S 	S 	0.10489	0.78059	0.16356	0.802
Mof_S 	S 	0.18876	0.64873	0.5729	0.9
Mof_O 	O 	0.0568	0.9375	0.3993	-0.491
Mof_O 	O 	0.1011	0.859	0.2236	-0.586
Mof_O 	O 	0.0837	0.8549	0.5728	-0.491
Mof_O 	O 	0.0216	0.7663	0.1075	-0.562
Mof_O 	O 	0.1358	0.6889	0.4902	-0.553
Mof_O 	O 	0.1207	0.7181	0.2482	-0.43
Mof_O 	O 	0.0728	0.9577	0.6828	-0.345
Mof_O 	O 	0.1735	0.7823	0.0893	-0.258
Mof_O 	O 	0.2601	0.6063	0.5274	-0.514
Mof_C 	C 	0.065	0.9269	0.5923	0.418
Mof_O 	O 	0.1348	0.5998	0.635	-0.29
Mof_O 	O 	0.2341	0.7087	0.6394	-0.527
Mof_C 	C 	0.0416	0.9808	0.4978	-0.093
Mof_H 	H 	0.0835	0.0253	0.5009	0.075
Mof_Dy	Dy	0.61973	0.31289	0.4073	2.353
Mof_S 	S 	0.60489	0.28059	0.16356	0.799
Mof_S 	S 	0.68876	0.14873	0.5729	0.9
Mof_O 	O 	0.5568	0.4375	0.3993	-0.501
Mof_O 	O 	0.6011	0.359	0.2236	-0.585
Mof_O 	O 	0.5837	0.3549	0.5728	-0.48
Mof_O 	O 	0.5216	0.2663	0.1075	-0.523
Mof_O 	O 	0.6358	0.1889	0.4902	-0.546
Mof_O 	O 	0.6207	0.2181	0.2482	-0.419
Mof_O 	O 	0.5728	0.4577	0.6828	-0.336
Mof_O 	O 	0.6735	0.2823	0.0893	-0.248
Mof_O 	O 	0.7601	0.1063	0.5274	-0.517
Mof_C 	C 	0.565	0.4269	0.5923	0.41
Mof_O 	O 	0.6348	0.0998	0.635	-0.274
Mof_O 	O 	0.7341	0.2087	0.6394	-0.529
Mof_C 	C 	0.5416	0.4808	0.4978	-0.017
Mof_H 	H 	0.5835	0.5253	0.5009	0.062
Mof_Fe	Fe	2.34351e-33	0.04831	0.75	0.813
Mof_Fe	Fe	0.5	0.54831	0.75	0.901
Mof_Fe	Fe	7.81171e-34	0.95169	0.25	0.817
Mof_Fe	Fe	0.5	0.45169	0.25	0.899
_end
