data_functionalizedCrystal
_audit_creation_method	'EQeq! by Chris Wilmer'
_symmetry_space_group_name_H-M	'P1'
_symmetry_Int_Tables_number	1
_symmetry_cell_setting	triclinic
loop_
_symmetry_equiv_pos_as_xyz
  x,y,z
_cell_length_a	24.4478
_cell_length_b	24.4478
_cell_length_c	38.4726
_cell_angle_alpha	71.4743
_cell_angle_beta	71.4743
_cell_angle_gamma	89.9999
loop_
_atom_site_label
_atom_site_type_symbol
_atom_site_fract_x
_atom_site_fract_y
_atom_site_fract_z
_atom_site_charge
Mof_Ag	Ag	0.17201	0.68878	0.99658	0.519
Mof_Ag	Ag	0.33141	0.31464	0.99658	0.519
Mof_Ag	Ag	0.18878	0.83141	0.49658	0.518
Mof_Ag	Ag	0.81464	0.67201	0.49658	0.519
Mof_Ag	Ag	0.16859	0.81122	0.00342	0.518
Mof_Ag	Ag	0.32799	0.18536	0.00342	0.519
Mof_Ag	Ag	0.68536	0.66859	0.50342	0.519
Mof_Ag	Ag	0.31122	0.82799	0.50342	0.519
Mof_Ag	Ag	0.82799	0.31122	0.00342	0.519
Mof_Ag	Ag	0.66859	0.68536	0.00342	0.519
Mof_Ag	Ag	0.81122	0.16859	0.50342	0.518
Mof_Ag	Ag	0.18536	0.32799	0.50342	0.519
Mof_Ag	Ag	0.83141	0.18878	0.99658	0.518
Mof_Ag	Ag	0.67201	0.81464	0.99658	0.519
Mof_Ag	Ag	0.31464	0.33141	0.49658	0.519
Mof_Ag	Ag	0.68878	0.17201	0.49658	0.519
Mof_H 	H 	0.3056	0.7349	0.9532	0.019
Mof_H 	H 	0.3728	0.7579	0.8924	0.213
Mof_H 	H 	0.2522	0.7275	0.8506	0.095
Mof_H 	H 	0.1806	0.7077	0.9128	-0.029
Mof_H 	H 	0.6191	0.163	0.5808	-0.012
Mof_H 	H 	0.5875	0.0945	0.644	0.097
Mof_H 	H 	0.6565	0.9693	0.5998	0.194
Mof_H 	H 	0.6864	0.0389	0.5368	0.018
Mof_H 	H 	0.3773	0.9085	0.8048	0.446
Mof_H 	H 	0.3184	0.87	0.8282	0.452
Mof_H 	H 	0.3681	0.8639	0.8456	0.499
Mof_H 	H 	0.4917	0.8599	0.6966	0.388
Mof_H 	H 	0.5174	0.8009	0.704	0.382
Mof_H 	H 	0.4631	0.808	0.691	0.365
Mof_H 	H 	0.3767	0.6357	0.8152	0.383
Mof_H 	H 	0.3659	0.6476	0.854	0.39
Mof_H 	H 	0.3179	0.6552	0.835	0.37
Mof_H 	H 	0.427	0.7	0.7306	-0.112
Mof_H 	H 	0.4336	0.9264	0.7622	-0.138
Mof_H 	H 	0.4307	0.9188	0.7242	-0.138
Mof_H 	H 	0.7156	0.9665	0.687	0.538
Mof_H 	H 	0.6997	0.0247	0.6634	0.54
Mof_H 	H 	0.7105	0.9743	0.6466	0.565
Mof_H 	H 	0.4534	0.966	0.6776	0.422
Mof_H 	H 	0.5035	0.9744	0.639	0.42
Mof_H 	H 	0.4929	0.0246	0.656	0.426
Mof_H 	H 	0.4858	0.8646	0.7964	0.584
Mof_H 	H 	0.5362	0.8953	0.8022	0.595
Mof_H 	H 	0.5438	0.8375	0.7934	0.566
Mof_H 	H 	0.6878	0.9128	0.7312	-0.194
Mof_H 	H 	0.2412	0.3119	0.9532	0.018
Mof_H 	H 	0.2348	0.3497	0.8924	0.212
Mof_H 	H 	0.3972	0.4219	0.8506	0.094
Mof_H 	H 	0.4066	0.3795	0.9128	-0.03
Mof_H 	H 	0.3001	0.2562	0.5808	-0.013
Mof_H 	H 	0.2685	0.2615	0.644	0.097
Mof_H 	H 	0.2437	0.4309	0.5998	0.192
Mof_H 	H 	0.2768	0.4243	0.5368	0.017
Mof_H 	H 	0.3179	0.2867	0.8048	0.446
Mof_H 	H 	0.3534	0.3018	0.8282	0.452
Mof_H 	H 	0.2863	0.2905	0.8456	0.498
Mof_H 	H 	0.3117	0.4435	0.6966	0.387
Mof_H 	H 	0.2786	0.4951	0.704	0.381
Mof_H 	H 	0.3459	0.501	0.691	0.364
Mof_H 	H 	0.3081	0.5491	0.8152	0.382
Mof_H 	H 	0.2801	0.4984	0.854	0.39
Mof_H 	H 	0.3471	0.5098	0.835	0.369
Mof_H 	H 	0.3424	0.5694	0.7306	-0.113
Mof_H 	H 	0.3042	0.3114	0.7622	-0.139
Mof_H 	H 	0.3451	0.357	0.7242	-0.139
Mof_H 	H 	0.0974	0.3465	0.687	0.538
Mof_H 	H 	0.1369	0.3119	0.6634	0.541
Mof_H 	H 	0.1429	0.3791	0.6466	0.566
Mof_H 	H 	0.369	0.3564	0.6776	0.421
Mof_H 	H 	0.3575	0.3866	0.639	0.419
Mof_H 	H 	0.3511	0.3194	0.656	0.425
Mof_H 	H 	0.2178	0.339	0.7964	0.583
Mof_H 	H 	0.1616	0.3025	0.8022	0.595
Mof_H 	H 	0.1628	0.3691	0.7934	0.566
Mof_H 	H 	0.081	0.356	0.7312	-0.195
Mof_H 	H 	0.2349	0.7412	0.4532	0.018
Mof_H 	H 	0.2579	0.7348	0.3924	0.212
Mof_H 	H 	0.2275	0.8972	0.3506	0.094
Mof_H 	H 	0.2077	0.9066	0.4128	-0.031
Mof_H 	H 	0.663	0.8001	0.0808	-0.013
Mof_H 	H 	0.5945	0.7685	0.144	0.097
Mof_H 	H 	0.4693	0.7437	0.0998	0.192
Mof_H 	H 	0.5389	0.7768	0.0368	0.017
Mof_H 	H 	0.4085	0.8179	0.3048	0.445
Mof_H 	H 	0.37	0.8534	0.3282	0.451
Mof_H 	H 	0.3639	0.7863	0.3456	0.498
Mof_H 	H 	0.3599	0.8117	0.1966	0.387
Mof_H 	H 	0.3009	0.7786	0.204	0.381
Mof_H 	H 	0.308	0.8459	0.191	0.364
Mof_H 	H 	0.1357	0.8081	0.3152	0.381
Mof_H 	H 	0.1476	0.7801	0.354	0.389
Mof_H 	H 	0.1552	0.8471	0.335	0.369
Mof_H 	H 	0.2	0.8424	0.2306	-0.113
Mof_H 	H 	0.4264	0.8042	0.2622	-0.139
Mof_H 	H 	0.4188	0.8451	0.2242	-0.139
Mof_H 	H 	0.4665	0.5974	0.187	0.538
Mof_H 	H 	0.5247	0.6369	0.1634	0.541
Mof_H 	H 	0.4743	0.6429	0.1466	0.566
Mof_H 	H 	0.466	0.869	0.1776	0.421
Mof_H 	H 	0.4744	0.8575	0.139	0.419
Mof_H 	H 	0.5246	0.8511	0.156	0.425
Mof_H 	H 	0.3646	0.7178	0.2964	0.583
Mof_H 	H 	0.3953	0.6616	0.3022	0.595
Mof_H 	H 	0.3375	0.6628	0.2934	0.566
Mof_H 	H 	0.4128	0.581	0.2312	-0.195
Mof_H 	H 	0.8119	0.8056	0.4532	0.018
Mof_H 	H 	0.8497	0.8728	0.3924	0.213
Mof_H 	H 	0.9219	0.7522	0.3506	0.094
Mof_H 	H 	0.8795	0.6806	0.4128	-0.03
Mof_H 	H 	0.7562	0.1191	0.0808	-0.013
Mof_H 	H 	0.7615	0.0875	0.144	0.096
Mof_H 	H 	0.9309	0.1565	0.0998	0.192
Mof_H 	H 	0.9243	0.1864	0.0368	0.017
Mof_H 	H 	0.7867	0.8773	0.3048	0.445
Mof_H 	H 	0.8018	0.8184	0.3282	0.451
Mof_H 	H 	0.7905	0.8681	0.3456	0.498
Mof_H 	H 	0.9435	0.9917	0.1966	0.378
Mof_H 	H 	0.9951	0.0174	0.204	0.369
Mof_H 	H 	0.001	0.9631	0.191	0.352
Mof_H 	H 	0.0491	0.8767	0.3152	0.386
Mof_H 	H 	0.9984	0.8659	0.354	0.395
Mof_H 	H 	0.0098	0.8179	0.335	0.373
Mof_H 	H 	0.0694	0.927	0.2306	-0.111
Mof_H 	H 	0.8114	0.9336	0.2622	-0.139
Mof_H 	H 	0.857	0.9307	0.2242	-0.138
Mof_H 	H 	0.8465	0.2156	0.187	0.538
Mof_H 	H 	0.8119	0.1997	0.1634	0.541
Mof_H 	H 	0.8791	0.2105	0.1466	0.565
Mof_H 	H 	0.8564	0.9534	0.1776	0.417
Mof_H 	H 	0.8866	0.0035	0.139	0.414
Mof_H 	H 	0.8194	0.9929	0.156	0.421
Mof_H 	H 	0.839	0.9858	0.2964	0.587
Mof_H 	H 	0.8025	0.0362	0.3022	0.598
Mof_H 	H 	0.8691	0.0438	0.2934	0.569
Mof_H 	H 	0.856	0.1878	0.2312	-0.196
Mof_H 	H 	0.2588	0.7651	0.0468	0.018
Mof_H 	H 	0.2652	0.7421	0.1076	0.212
Mof_H 	H 	0.1028	0.7725	0.1494	0.094
Mof_H 	H 	0.0934	0.7923	0.0872	-0.031
Mof_H 	H 	0.1999	0.337	0.4192	-0.013
Mof_H 	H 	0.2315	0.4055	0.356	0.097
Mof_H 	H 	0.2563	0.5307	0.4002	0.192
Mof_H 	H 	0.2232	0.4611	0.4632	0.017
Mof_H 	H 	0.1821	0.5915	0.1952	0.445
Mof_H 	H 	0.1466	0.63	0.1718	0.451
Mof_H 	H 	0.2137	0.6361	0.1544	0.498
Mof_H 	H 	0.1883	0.6401	0.3034	0.387
Mof_H 	H 	0.2214	0.6991	0.296	0.381
Mof_H 	H 	0.1541	0.692	0.309	0.364
Mof_H 	H 	0.1919	0.8643	0.1848	0.381
Mof_H 	H 	0.2199	0.8524	0.146	0.389
Mof_H 	H 	0.1529	0.8448	0.165	0.369
Mof_H 	H 	0.1576	0.8	0.2694	-0.113
Mof_H 	H 	0.1958	0.5736	0.2378	-0.139
Mof_H 	H 	0.1549	0.5812	0.2758	-0.139
Mof_H 	H 	0.4026	0.5335	0.313	0.538
Mof_H 	H 	0.3631	0.4753	0.3366	0.541
Mof_H 	H 	0.3571	0.5257	0.3534	0.566
Mof_H 	H 	0.131	0.534	0.3224	0.421
Mof_H 	H 	0.1425	0.5256	0.361	0.419
Mof_H 	H 	0.1489	0.4754	0.344	0.425
Mof_H 	H 	0.2822	0.6354	0.2036	0.583
Mof_H 	H 	0.3384	0.6047	0.1978	0.595
Mof_H 	H 	0.3372	0.6625	0.2066	0.566
Mof_H 	H 	0.419	0.5872	0.2688	-0.195
Mof_H 	H 	0.1944	0.1881	0.0468	0.018
Mof_H 	H 	0.1272	0.1503	0.1076	0.213
Mof_H 	H 	0.2478	0.0781	0.1494	0.094
Mof_H 	H 	0.3194	0.1205	0.0872	-0.03
Mof_H 	H 	0.8809	0.2438	0.4192	-0.013
Mof_H 	H 	0.9125	0.2385	0.356	0.096
Mof_H 	H 	0.8435	0.0691	0.4002	0.192
Mof_H 	H 	0.8136	0.0757	0.4632	0.017
Mof_H 	H 	0.1227	0.2133	0.1952	0.445
Mof_H 	H 	0.1816	0.1982	0.1718	0.451
Mof_H 	H 	0.1319	0.2095	0.1544	0.498
Mof_H 	H 	0.0083	0.0565	0.3034	0.379
Mof_H 	H 	0.9826	0.0049	0.296	0.37
Mof_H 	H 	0.0369	0.999	0.309	0.353
Mof_H 	H 	0.1233	0.9509	0.1848	0.386
Mof_H 	H 	0.1341	0.0016	0.146	0.395
Mof_H 	H 	0.1821	0.9902	0.165	0.373
Mof_H 	H 	0.073	0.9306	0.2694	-0.111
Mof_H 	H 	0.0664	0.1886	0.2378	-0.139
Mof_H 	H 	0.0693	0.143	0.2758	-0.138
Mof_H 	H 	0.7844	0.1535	0.313	0.538
Mof_H 	H 	0.8003	0.1881	0.3366	0.541
Mof_H 	H 	0.7895	0.1209	0.3534	0.565
Mof_H 	H 	0.0466	0.1436	0.3224	0.417
Mof_H 	H 	0.9965	0.1134	0.361	0.413
Mof_H 	H 	0.0071	0.1806	0.344	0.421
Mof_H 	H 	0.0142	0.161	0.2036	0.587
Mof_H 	H 	0.9638	0.1975	0.1978	0.597
Mof_H 	H 	0.9562	0.1309	0.2066	0.569
Mof_H 	H 	0.8122	0.144	0.2688	-0.196
Mof_H 	H 	0.6881	0.7588	0.5468	0.018
Mof_H 	H 	0.6503	0.7652	0.6076	0.212
Mof_H 	H 	0.5781	0.6028	0.6494	0.094
Mof_H 	H 	0.6205	0.5934	0.5872	-0.03
Mof_H 	H 	0.7438	0.6999	0.9192	-0.013
Mof_H 	H 	0.7385	0.7315	0.856	0.097
Mof_H 	H 	0.5691	0.7563	0.9002	0.192
Mof_H 	H 	0.5757	0.7232	0.9632	0.017
Mof_H 	H 	0.7133	0.6821	0.6952	0.446
Mof_H 	H 	0.6982	0.6466	0.6718	0.452
Mof_H 	H 	0.7095	0.7137	0.6544	0.498
Mof_H 	H 	0.5565	0.6883	0.8034	0.387
Mof_H 	H 	0.5049	0.7214	0.796	0.381
Mof_H 	H 	0.499	0.6541	0.809	0.364
Mof_H 	H 	0.4509	0.6919	0.6848	0.382
Mof_H 	H 	0.5016	0.7199	0.646	0.389
Mof_H 	H 	0.4902	0.6529	0.665	0.369
Mof_H 	H 	0.4306	0.6576	0.7694	-0.113
Mof_H 	H 	0.6886	0.6958	0.7378	-0.139
Mof_H 	H 	0.643	0.6549	0.7758	-0.139
Mof_H 	H 	0.6535	0.9026	0.813	0.538
Mof_H 	H 	0.6881	0.8631	0.8366	0.541
Mof_H 	H 	0.6209	0.8571	0.8534	0.566
Mof_H 	H 	0.6436	0.631	0.8224	0.421
Mof_H 	H 	0.6134	0.6425	0.861	0.419
Mof_H 	H 	0.6806	0.6489	0.844	0.425
Mof_H 	H 	0.661	0.7822	0.7036	0.583
Mof_H 	H 	0.6975	0.8384	0.6978	0.595
Mof_H 	H 	0.6309	0.8372	0.7066	0.566
Mof_H 	H 	0.644	0.919	0.7688	-0.195
Mof_H 	H 	0.2651	0.6944	0.5468	0.018
Mof_H 	H 	0.2421	0.6272	0.6076	0.212
Mof_H 	H 	0.2725	0.7478	0.6494	0.094
Mof_H 	H 	0.2923	0.8194	0.5872	-0.03
Mof_H 	H 	0.837	0.3809	0.9192	-0.013
Mof_H 	H 	0.9055	0.4125	0.856	0.096
Mof_H 	H 	0.0307	0.3435	0.9002	0.194
Mof_H 	H 	0.9611	0.3136	0.9632	0.017
Mof_H 	H 	0.0915	0.6227	0.6952	0.445
Mof_H 	H 	0.13	0.6816	0.6718	0.451
Mof_H 	H 	0.1361	0.6319	0.6544	0.498
Mof_H 	H 	0.1401	0.5083	0.8034	0.387
Mof_H 	H 	0.1991	0.4826	0.796	0.381
Mof_H 	H 	0.192	0.5369	0.809	0.364
Mof_H 	H 	0.3643	0.6233	0.6848	0.382
Mof_H 	H 	0.3524	0.6341	0.646	0.389
Mof_H 	H 	0.3448	0.6821	0.665	0.369
Mof_H 	H 	0.3	0.573	0.7694	-0.113
Mof_H 	H 	0.0736	0.5664	0.7378	-0.139
Mof_H 	H 	0.0812	0.5693	0.7758	-0.139
Mof_H 	H 	0.0335	0.2844	0.813	0.536
Mof_H 	H 	0.9753	0.3003	0.8366	0.538
Mof_H 	H 	0.0257	0.2895	0.8534	0.564
Mof_H 	H 	0.034	0.5466	0.8224	0.421
Mof_H 	H 	0.0256	0.4965	0.861	0.419
Mof_H 	H 	0.9754	0.5071	0.844	0.425
Mof_H 	H 	0.1354	0.5142	0.7036	0.582
Mof_H 	H 	0.1047	0.4638	0.6978	0.594
Mof_H 	H 	0.1625	0.4562	0.7066	0.565
Mof_H 	H 	0.0872	0.3122	0.7688	-0.195
Mof_H 	H 	0.6944	0.2651	0.0468	0.018
Mof_H 	H 	0.6272	0.2421	0.1076	0.212
Mof_H 	H 	0.7478	0.2725	0.1494	0.094
Mof_H 	H 	0.8194	0.2923	0.0872	-0.03
Mof_H 	H 	0.3809	0.837	0.4192	-0.013
Mof_H 	H 	0.4125	0.9055	0.356	0.096
Mof_H 	H 	0.3435	0.0307	0.4002	0.193
Mof_H 	H 	0.3136	0.9611	0.4632	0.017
Mof_H 	H 	0.6227	0.0915	0.1952	0.445
Mof_H 	H 	0.6816	0.13	0.1718	0.451
Mof_H 	H 	0.6319	0.1361	0.1544	0.498
Mof_H 	H 	0.5083	0.1401	0.3034	0.387
Mof_H 	H 	0.4826	0.1991	0.296	0.381
Mof_H 	H 	0.5369	0.192	0.309	0.364
Mof_H 	H 	0.6233	0.3643	0.1848	0.382
Mof_H 	H 	0.6341	0.3524	0.146	0.389
Mof_H 	H 	0.6821	0.3448	0.165	0.369
Mof_H 	H 	0.573	0.3	0.2694	-0.113
Mof_H 	H 	0.5664	0.0736	0.2378	-0.139
Mof_H 	H 	0.5693	0.0812	0.2758	-0.139
Mof_H 	H 	0.2844	0.0335	0.313	0.537
Mof_H 	H 	0.3003	0.9753	0.3366	0.539
Mof_H 	H 	0.2895	0.0257	0.3534	0.564
Mof_H 	H 	0.5466	0.034	0.3224	0.421
Mof_H 	H 	0.4965	0.0256	0.361	0.419
Mof_H 	H 	0.5071	0.9754	0.344	0.425
Mof_H 	H 	0.5142	0.1354	0.2036	0.583
Mof_H 	H 	0.4638	0.1047	0.1978	0.594
Mof_H 	H 	0.4562	0.1625	0.2066	0.565
Mof_H 	H 	0.3122	0.0872	0.2688	-0.195
Mof_H 	H 	0.7588	0.6881	0.0468	0.018
Mof_H 	H 	0.7652	0.6503	0.1076	0.212
Mof_H 	H 	0.6028	0.5781	0.1494	0.094
Mof_H 	H 	0.5934	0.6205	0.0872	-0.03
Mof_H 	H 	0.6999	0.7438	0.4192	-0.013
Mof_H 	H 	0.7315	0.7385	0.356	0.097
Mof_H 	H 	0.7563	0.5691	0.4002	0.192
Mof_H 	H 	0.7232	0.5757	0.4632	0.017
Mof_H 	H 	0.6821	0.7133	0.1952	0.446
Mof_H 	H 	0.6466	0.6982	0.1718	0.452
Mof_H 	H 	0.7137	0.7095	0.1544	0.498
Mof_H 	H 	0.6883	0.5565	0.3034	0.387
Mof_H 	H 	0.7214	0.5049	0.296	0.381
Mof_H 	H 	0.6541	0.499	0.309	0.364
Mof_H 	H 	0.6919	0.4509	0.1848	0.382
Mof_H 	H 	0.7199	0.5016	0.146	0.39
Mof_H 	H 	0.6529	0.4902	0.165	0.369
Mof_H 	H 	0.6576	0.4306	0.2694	-0.113
Mof_H 	H 	0.6958	0.6886	0.2378	-0.139
Mof_H 	H 	0.6549	0.643	0.2758	-0.139
Mof_H 	H 	0.9026	0.6535	0.313	0.538
Mof_H 	H 	0.8631	0.6881	0.3366	0.541
Mof_H 	H 	0.8571	0.6209	0.3534	0.566
Mof_H 	H 	0.631	0.6436	0.3224	0.421
Mof_H 	H 	0.6425	0.6134	0.361	0.419
Mof_H 	H 	0.6489	0.6806	0.344	0.425
Mof_H 	H 	0.7822	0.661	0.2036	0.583
Mof_H 	H 	0.8384	0.6975	0.1978	0.595
Mof_H 	H 	0.8372	0.6309	0.2066	0.566
Mof_H 	H 	0.919	0.644	0.2688	-0.195
Mof_H 	H 	0.7651	0.2588	0.5468	0.018
Mof_H 	H 	0.7421	0.2652	0.6076	0.212
Mof_H 	H 	0.7725	0.1028	0.6494	0.094
Mof_H 	H 	0.7923	0.0934	0.5872	-0.031
Mof_H 	H 	0.337	0.1999	0.9192	-0.013
Mof_H 	H 	0.4055	0.2315	0.856	0.097
Mof_H 	H 	0.5307	0.2563	0.9002	0.192
Mof_H 	H 	0.4611	0.2232	0.9632	0.017
Mof_H 	H 	0.5915	0.1821	0.6952	0.445
Mof_H 	H 	0.63	0.1466	0.6718	0.451
Mof_H 	H 	0.6361	0.2137	0.6544	0.498
Mof_H 	H 	0.6401	0.1883	0.8034	0.387
Mof_H 	H 	0.6991	0.2214	0.796	0.381
Mof_H 	H 	0.692	0.1541	0.809	0.364
Mof_H 	H 	0.8643	0.1919	0.6848	0.381
Mof_H 	H 	0.8524	0.2199	0.646	0.389
Mof_H 	H 	0.8448	0.1529	0.665	0.369
Mof_H 	H 	0.8	0.1576	0.7694	-0.113
Mof_H 	H 	0.5736	0.1958	0.7378	-0.139
Mof_H 	H 	0.5812	0.1549	0.7758	-0.139
Mof_H 	H 	0.5335	0.4026	0.813	0.538
Mof_H 	H 	0.4753	0.3631	0.8366	0.541
Mof_H 	H 	0.5257	0.3571	0.8534	0.566
Mof_H 	H 	0.534	0.131	0.8224	0.421
Mof_H 	H 	0.5256	0.1425	0.861	0.419
Mof_H 	H 	0.4754	0.1489	0.844	0.425
Mof_H 	H 	0.6354	0.2822	0.7036	0.583
Mof_H 	H 	0.6047	0.3384	0.6978	0.595
Mof_H 	H 	0.6625	0.3372	0.7066	0.566
Mof_H 	H 	0.5872	0.419	0.7688	-0.195
Mof_H 	H 	0.1881	0.1944	0.5468	0.018
Mof_H 	H 	0.1503	0.1272	0.6076	0.213
Mof_H 	H 	0.0781	0.2478	0.6494	0.094
Mof_H 	H 	0.1205	0.3194	0.5872	-0.03
Mof_H 	H 	0.2438	0.8809	0.9192	-0.013
Mof_H 	H 	0.2385	0.9125	0.856	0.096
Mof_H 	H 	0.0691	0.8435	0.9002	0.192
Mof_H 	H 	0.0757	0.8136	0.9632	0.017
Mof_H 	H 	0.2133	0.1227	0.6952	0.445
Mof_H 	H 	0.1982	0.1816	0.6718	0.451
Mof_H 	H 	0.2095	0.1319	0.6544	0.498
Mof_H 	H 	0.0565	0.0083	0.8034	0.378
Mof_H 	H 	0.0049	0.9826	0.796	0.369
Mof_H 	H 	0.999	0.0369	0.809	0.352
Mof_H 	H 	0.9509	0.1233	0.6848	0.386
Mof_H 	H 	0.0016	0.1341	0.646	0.395
Mof_H 	H 	0.9902	0.1821	0.665	0.373
Mof_H 	H 	0.9306	0.073	0.7694	-0.111
Mof_H 	H 	0.1886	0.0664	0.7378	-0.139
Mof_H 	H 	0.143	0.0693	0.7758	-0.138
Mof_H 	H 	0.1535	0.7844	0.813	0.538
Mof_H 	H 	0.1881	0.8003	0.8366	0.541
Mof_H 	H 	0.1209	0.7895	0.8534	0.565
Mof_H 	H 	0.1436	0.0466	0.8224	0.417
Mof_H 	H 	0.1134	0.9965	0.861	0.414
Mof_H 	H 	0.1806	0.0071	0.844	0.421
Mof_H 	H 	0.161	0.0142	0.7036	0.587
Mof_H 	H 	0.1975	0.9638	0.6978	0.598
Mof_H 	H 	0.1309	0.9562	0.7066	0.569
Mof_H 	H 	0.144	0.8122	0.7688	-0.196
Mof_H 	H 	0.7412	0.2349	0.9532	0.018
Mof_H 	H 	0.7348	0.2579	0.8924	0.212
Mof_H 	H 	0.8972	0.2275	0.8506	0.094
Mof_H 	H 	0.9066	0.2077	0.9128	-0.031
Mof_H 	H 	0.8001	0.663	0.5808	-0.013
Mof_H 	H 	0.7685	0.5945	0.644	0.097
Mof_H 	H 	0.7437	0.4693	0.5998	0.192
Mof_H 	H 	0.7768	0.5389	0.5368	0.017
Mof_H 	H 	0.8179	0.4085	0.8048	0.445
Mof_H 	H 	0.8534	0.37	0.8282	0.451
Mof_H 	H 	0.7863	0.3639	0.8456	0.498
Mof_H 	H 	0.8117	0.3599	0.6966	0.387
Mof_H 	H 	0.7786	0.3009	0.704	0.381
Mof_H 	H 	0.8459	0.308	0.691	0.364
Mof_H 	H 	0.8081	0.1357	0.8152	0.381
Mof_H 	H 	0.7801	0.1476	0.854	0.389
Mof_H 	H 	0.8471	0.1552	0.835	0.369
Mof_H 	H 	0.8424	0.2	0.7306	-0.113
Mof_H 	H 	0.8042	0.4264	0.7622	-0.139
Mof_H 	H 	0.8451	0.4188	0.7242	-0.139
Mof_H 	H 	0.5974	0.4665	0.687	0.538
Mof_H 	H 	0.6369	0.5247	0.6634	0.541
Mof_H 	H 	0.6429	0.4743	0.6466	0.566
Mof_H 	H 	0.869	0.466	0.6776	0.421
Mof_H 	H 	0.8575	0.4744	0.639	0.419
Mof_H 	H 	0.8511	0.5246	0.656	0.425
Mof_H 	H 	0.7178	0.3646	0.7964	0.583
Mof_H 	H 	0.6616	0.3953	0.8022	0.595
Mof_H 	H 	0.6628	0.3375	0.7934	0.566
Mof_H 	H 	0.581	0.4128	0.7312	-0.195
Mof_H 	H 	0.8056	0.8119	0.9532	0.018
Mof_H 	H 	0.8728	0.8497	0.8924	0.213
Mof_H 	H 	0.7522	0.9219	0.8506	0.094
Mof_H 	H 	0.6806	0.8795	0.9128	-0.03
Mof_H 	H 	0.1191	0.7562	0.5808	-0.013
Mof_H 	H 	0.0875	0.7615	0.644	0.096
Mof_H 	H 	0.1565	0.9309	0.5998	0.192
Mof_H 	H 	0.1864	0.9243	0.5368	0.017
Mof_H 	H 	0.8773	0.7867	0.8048	0.445
Mof_H 	H 	0.8184	0.8018	0.8282	0.451
Mof_H 	H 	0.8681	0.7905	0.8456	0.498
Mof_H 	H 	0.9917	0.9435	0.6966	0.379
Mof_H 	H 	0.0174	0.9951	0.704	0.37
Mof_H 	H 	0.9631	0.001	0.691	0.353
Mof_H 	H 	0.8767	0.0491	0.8152	0.386
Mof_H 	H 	0.8659	0.9984	0.854	0.395
Mof_H 	H 	0.8179	0.0098	0.835	0.373
Mof_H 	H 	0.927	0.0694	0.7306	-0.111
Mof_H 	H 	0.9336	0.8114	0.7622	-0.139
Mof_H 	H 	0.9307	0.857	0.7242	-0.138
Mof_H 	H 	0.2156	0.8465	0.687	0.538
Mof_H 	H 	0.1997	0.8119	0.6634	0.541
Mof_H 	H 	0.2105	0.8791	0.6466	0.565
Mof_H 	H 	0.9534	0.8564	0.6776	0.417
Mof_H 	H 	0.0035	0.8866	0.639	0.413
Mof_H 	H 	0.9929	0.8194	0.656	0.421
Mof_H 	H 	0.9858	0.839	0.7964	0.587
Mof_H 	H 	0.0362	0.8025	0.8022	0.597
Mof_H 	H 	0.0438	0.8691	0.7934	0.569
Mof_H 	H 	0.1878	0.856	0.7312	-0.196
Mof_H 	H 	0.3119	0.2412	0.4532	0.018
Mof_H 	H 	0.3497	0.2348	0.3924	0.212
Mof_H 	H 	0.4219	0.3972	0.3506	0.094
Mof_H 	H 	0.3795	0.4066	0.4128	-0.03
Mof_H 	H 	0.2562	0.3001	0.0808	-0.013
Mof_H 	H 	0.2615	0.2685	0.144	0.097
Mof_H 	H 	0.4309	0.2437	0.0998	0.192
Mof_H 	H 	0.4243	0.2768	0.0368	0.017
Mof_H 	H 	0.2867	0.3179	0.3048	0.446
Mof_H 	H 	0.3018	0.3534	0.3282	0.452
Mof_H 	H 	0.2905	0.2863	0.3456	0.498
Mof_H 	H 	0.4435	0.3117	0.1966	0.387
Mof_H 	H 	0.4951	0.2786	0.204	0.381
Mof_H 	H 	0.501	0.3459	0.191	0.364
Mof_H 	H 	0.5491	0.3081	0.3152	0.382
Mof_H 	H 	0.4984	0.2801	0.354	0.389
Mof_H 	H 	0.5098	0.3471	0.335	0.369
Mof_H 	H 	0.5694	0.3424	0.2306	-0.113
Mof_H 	H 	0.3114	0.3042	0.2622	-0.139
Mof_H 	H 	0.357	0.3451	0.2242	-0.139
Mof_H 	H 	0.3465	0.0974	0.187	0.538
Mof_H 	H 	0.3119	0.1369	0.1634	0.541
Mof_H 	H 	0.3791	0.1429	0.1466	0.566
Mof_H 	H 	0.3564	0.369	0.1776	0.421
Mof_H 	H 	0.3866	0.3575	0.139	0.419
Mof_H 	H 	0.3194	0.3511	0.156	0.425
Mof_H 	H 	0.339	0.2178	0.2964	0.583
Mof_H 	H 	0.3025	0.1616	0.3022	0.595
Mof_H 	H 	0.3691	0.1628	0.2934	0.566
Mof_H 	H 	0.356	0.081	0.2312	-0.195
Mof_H 	H 	0.7349	0.3056	0.4532	0.018
Mof_H 	H 	0.7579	0.3728	0.3924	0.212
Mof_H 	H 	0.7275	0.2522	0.3506	0.094
Mof_H 	H 	0.7077	0.1806	0.4128	-0.03
Mof_H 	H 	0.163	0.6191	0.0808	-0.013
Mof_H 	H 	0.0945	0.5875	0.144	0.096
Mof_H 	H 	0.9693	0.6565	0.0998	0.194
Mof_H 	H 	0.0389	0.6864	0.0368	0.017
Mof_H 	H 	0.9085	0.3773	0.3048	0.445
Mof_H 	H 	0.87	0.3184	0.3282	0.451
Mof_H 	H 	0.8639	0.3681	0.3456	0.498
Mof_H 	H 	0.8599	0.4917	0.1966	0.387
Mof_H 	H 	0.8009	0.5174	0.204	0.381
Mof_H 	H 	0.808	0.4631	0.191	0.364
Mof_H 	H 	0.6357	0.3767	0.3152	0.382
Mof_H 	H 	0.6476	0.3659	0.354	0.389
Mof_H 	H 	0.6552	0.3179	0.335	0.369
Mof_H 	H 	0.7	0.427	0.2306	-0.113
Mof_H 	H 	0.9264	0.4336	0.2622	-0.139
Mof_H 	H 	0.9188	0.4307	0.2242	-0.139
Mof_H 	H 	0.9665	0.7156	0.187	0.536
Mof_H 	H 	0.0247	0.6997	0.1634	0.538
Mof_H 	H 	0.9743	0.7105	0.1466	0.564
Mof_H 	H 	0.966	0.4534	0.1776	0.421
Mof_H 	H 	0.9744	0.5035	0.139	0.419
Mof_H 	H 	0.0246	0.4929	0.156	0.425
Mof_H 	H 	0.8646	0.4858	0.2964	0.582
Mof_H 	H 	0.8953	0.5362	0.3022	0.594
Mof_H 	H 	0.8375	0.5438	0.2934	0.565
Mof_H 	H 	0.9128	0.6878	0.2312	-0.195
Mof_C 	C 	0.2938	0.7338	0.9324	0.18
Mof_C 	C 	0.3331	0.7481	0.8958	-0.323
Mof_C 	C 	0.3199	0.7494	0.8644	0.318
Mof_C 	C 	0.2633	0.7313	0.8714	-0.292
Mof_C 	C 	0.2206	0.7176	0.9088	0.124
Mof_C 	C 	0.6277	0.1237	0.5846	0.123
Mof_C 	C 	0.6078	0.0828	0.6224	-0.271
Mof_C 	C 	0.6179	0.0249	0.6282	0.286
Mof_C 	C 	0.6489	0.0079	0.5962	-0.28
Mof_C 	C 	0.6676	0.0506	0.5588	0.123
Mof_C 	C 	0.362	0.7651	0.824	-0.487
Mof_C 	C 	0.382	0.8253	0.804	0.576
Mof_C 	C 	0.4248	0.8428	0.7664	-0.518
Mof_C 	C 	0.4431	0.7993	0.749	0.507
Mof_C 	C 	0.4232	0.739	0.7696	-0.482
Mof_C 	C 	0.3832	0.7219	0.8076	0.543
Mof_C 	C 	0.3588	0.8708	0.8224	-1.371
Mof_C 	C 	0.483	0.819	0.706	-1.154
Mof_C 	C 	0.359	0.6593	0.83	-1.205
Mof_C 	C 	0.4473	0.9061	0.7442	0.451
Mof_C 	C 	0.5498	0.9067	0.7452	0.857
Mof_C 	C 	0.6077	0.9226	0.7282	-0.752
Mof_C 	C 	0.6317	0.9612	0.6886	0.794
Mof_C 	C 	0.5953	0.9793	0.6694	-0.589
Mof_C 	C 	0.5339	0.9602	0.6856	0.59
Mof_C 	C 	0.5126	0.9234	0.7252	-0.657
Mof_C 	C 	0.6952	0.9842	0.6696	-1.652
Mof_C 	C 	0.4918	0.9839	0.6622	-1.275
Mof_C 	C 	0.5268	0.8728	0.7884	-1.723
Mof_C 	C 	0.2738	0.3338	0.9324	0.18
Mof_C 	C 	0.2711	0.3561	0.8958	-0.323
Mof_C 	C 	0.3157	0.3862	0.8644	0.318
Mof_C 	C 	0.3653	0.3973	0.8714	-0.292
Mof_C 	C 	0.3706	0.3736	0.9088	0.124
Mof_C 	C 	0.2877	0.2917	0.5846	0.123
Mof_C 	C 	0.2698	0.2948	0.6224	-0.271
Mof_C 	C 	0.2539	0.3469	0.6282	0.286
Mof_C 	C 	0.2549	0.3959	0.5962	-0.278
Mof_C 	C 	0.2736	0.3906	0.5588	0.123
Mof_C 	C 	0.314	0.4109	0.824	-0.487
Mof_C 	C 	0.314	0.3707	0.804	0.577
Mof_C 	C 	0.3088	0.3908	0.7664	-0.518
Mof_C 	C 	0.3079	0.4517	0.749	0.508
Mof_C 	C 	0.3072	0.4914	0.7696	-0.482
Mof_C 	C 	0.3092	0.4705	0.8076	0.543
Mof_C 	C 	0.3188	0.3068	0.8224	-1.371
Mof_C 	C 	0.311	0.475	0.706	-1.155
Mof_C 	C 	0.311	0.5107	0.83	-1.205
Mof_C 	C 	0.3085	0.3497	0.7442	0.451
Mof_C 	C 	0.205	0.3481	0.7452	0.858
Mof_C 	C 	0.1641	0.3492	0.7282	-0.753
Mof_C 	C 	0.1797	0.3502	0.6886	0.796
Mof_C 	C 	0.2353	0.3513	0.6694	-0.59
Mof_C 	C 	0.2805	0.3542	0.6856	0.59
Mof_C 	C 	0.2622	0.3514	0.7252	-0.657
Mof_C 	C 	0.1352	0.3462	0.6696	-1.659
Mof_C 	C 	0.346	0.3539	0.6622	-1.276
Mof_C 	C 	0.1848	0.3388	0.7884	-1.724
Mof_C 	C 	0.2338	0.7738	0.4324	0.18
Mof_C 	C 	0.2481	0.7711	0.3958	-0.323
Mof_C 	C 	0.2494	0.8157	0.3644	0.318
Mof_C 	C 	0.2313	0.8653	0.3714	-0.292
Mof_C 	C 	0.2176	0.8706	0.4088	0.124
Mof_C 	C 	0.6237	0.7877	0.0846	0.123
Mof_C 	C 	0.5828	0.7698	0.1224	-0.271
Mof_C 	C 	0.5249	0.7539	0.1282	0.286
Mof_C 	C 	0.5079	0.7549	0.0962	-0.278
Mof_C 	C 	0.5506	0.7736	0.0588	0.123
Mof_C 	C 	0.2651	0.814	0.324	-0.487
Mof_C 	C 	0.3253	0.814	0.304	0.576
Mof_C 	C 	0.3428	0.8088	0.2664	-0.518
Mof_C 	C 	0.2993	0.8079	0.249	0.507
Mof_C 	C 	0.239	0.8072	0.2696	-0.481
Mof_C 	C 	0.2219	0.8092	0.3076	0.542
Mof_C 	C 	0.3708	0.8188	0.3224	-1.371
Mof_C 	C 	0.319	0.811	0.206	-1.154
Mof_C 	C 	0.1593	0.811	0.33	-1.204
Mof_C 	C 	0.4061	0.8085	0.2442	0.451
Mof_C 	C 	0.4067	0.705	0.2452	0.858
Mof_C 	C 	0.4226	0.6641	0.2282	-0.753
Mof_C 	C 	0.4612	0.6797	0.1886	0.797
Mof_C 	C 	0.4793	0.7353	0.1694	-0.59
Mof_C 	C 	0.4602	0.7805	0.1856	0.59
Mof_C 	C 	0.4234	0.7622	0.2252	-0.658
Mof_C 	C 	0.4842	0.6352	0.1696	-1.659
Mof_C 	C 	0.4839	0.846	0.1622	-1.276
Mof_C 	C 	0.3728	0.6848	0.2884	-1.725
Mof_C 	C 	0.8338	0.7938	0.4324	0.181
Mof_C 	C 	0.8561	0.8331	0.3958	-0.323
Mof_C 	C 	0.8862	0.8199	0.3644	0.318
Mof_C 	C 	0.8973	0.7633	0.3714	-0.293
Mof_C 	C 	0.8736	0.7206	0.4088	0.125
Mof_C 	C 	0.7917	0.1277	0.0846	0.123
Mof_C 	C 	0.7948	0.1078	0.1224	-0.27
Mof_C 	C 	0.8469	0.1179	0.1282	0.285
Mof_C 	C 	0.8959	0.1489	0.0962	-0.278
Mof_C 	C 	0.8906	0.1676	0.0588	0.122
Mof_C 	C 	0.9109	0.862	0.324	-0.488
Mof_C 	C 	0.8707	0.882	0.304	0.575
Mof_C 	C 	0.8908	0.9248	0.2664	-0.515
Mof_C 	C 	0.9517	0.9431	0.249	0.499
Mof_C 	C 	0.9914	0.9232	0.2696	-0.476
Mof_C 	C 	0.9705	0.8832	0.3076	0.546
Mof_C 	C 	0.8068	0.8588	0.3224	-1.37
Mof_C 	C 	0.975	0.983	0.206	-1.123
Mof_C 	C 	0.0107	0.859	0.33	-1.219
Mof_C 	C 	0.8497	0.9473	0.2442	0.451
Mof_C 	C 	0.8481	0.0498	0.2452	0.86
Mof_C 	C 	0.8492	0.1077	0.2282	-0.754
Mof_C 	C 	0.8502	0.1317	0.1886	0.796
Mof_C 	C 	0.8513	0.0953	0.1694	-0.589
Mof_C 	C 	0.8542	0.0339	0.1856	0.587
Mof_C 	C 	0.8514	0.0126	0.2252	-0.658
Mof_C 	C 	0.8462	0.1952	0.1696	-1.659
Mof_C 	C 	0.8539	0.9918	0.1622	-1.262
Mof_C 	C 	0.8388	0.0268	0.2884	-1.735
Mof_C 	C 	0.2262	0.7662	0.0676	0.18
Mof_C 	C 	0.2289	0.7519	0.1042	-0.323
Mof_C 	C 	0.1843	0.7506	0.1356	0.318
Mof_C 	C 	0.1347	0.7687	0.1286	-0.292
Mof_C 	C 	0.1294	0.7824	0.0912	0.124
Mof_C 	C 	0.2123	0.3763	0.4154	0.123
Mof_C 	C 	0.2302	0.4172	0.3776	-0.271
Mof_C 	C 	0.2461	0.4751	0.3718	0.286
Mof_C 	C 	0.2451	0.4921	0.4038	-0.278
Mof_C 	C 	0.2264	0.4494	0.4412	0.123
Mof_C 	C 	0.186	0.7349	0.176	-0.487
Mof_C 	C 	0.186	0.6747	0.196	0.576
Mof_C 	C 	0.1912	0.6572	0.2336	-0.518
Mof_C 	C 	0.1921	0.7007	0.251	0.507
Mof_C 	C 	0.1928	0.761	0.2304	-0.481
Mof_C 	C 	0.1908	0.7781	0.1924	0.542
Mof_C 	C 	0.1812	0.6292	0.1776	-1.371
Mof_C 	C 	0.189	0.681	0.294	-1.154
Mof_C 	C 	0.189	0.8407	0.17	-1.204
Mof_C 	C 	0.1915	0.5939	0.2558	0.451
Mof_C 	C 	0.295	0.5933	0.2548	0.858
Mof_C 	C 	0.3359	0.5774	0.2718	-0.753
Mof_C 	C 	0.3203	0.5388	0.3114	0.797
Mof_C 	C 	0.2647	0.5207	0.3306	-0.59
Mof_C 	C 	0.2195	0.5398	0.3144	0.59
Mof_C 	C 	0.2378	0.5766	0.2748	-0.658
Mof_C 	C 	0.3648	0.5158	0.3304	-1.659
Mof_C 	C 	0.154	0.5161	0.3378	-1.276
Mof_C 	C 	0.3152	0.6272	0.2116	-1.725
Mof_C 	C 	0.2062	0.1662	0.0676	0.181
Mof_C 	C 	0.1669	0.1439	0.1042	-0.323
Mof_C 	C 	0.1801	0.1138	0.1356	0.318
Mof_C 	C 	0.2367	0.1027	0.1286	-0.293
Mof_C 	C 	0.2794	0.1264	0.0912	0.125
Mof_C 	C 	0.8723	0.2083	0.4154	0.123
Mof_C 	C 	0.8922	0.2052	0.3776	-0.27
Mof_C 	C 	0.8821	0.1531	0.3718	0.285
Mof_C 	C 	0.8511	0.1041	0.4038	-0.278
Mof_C 	C 	0.8324	0.1094	0.4412	0.122
Mof_C 	C 	0.138	0.0891	0.176	-0.488
Mof_C 	C 	0.118	0.1293	0.196	0.575
Mof_C 	C 	0.0752	0.1092	0.2336	-0.515
Mof_C 	C 	0.0569	0.0483	0.251	0.499
Mof_C 	C 	0.0768	0.0086	0.2304	-0.476
Mof_C 	C 	0.1168	0.0295	0.1924	0.546
Mof_C 	C 	0.1412	0.1932	0.1776	-1.37
Mof_C 	C 	0.017	0.025	0.294	-1.124
Mof_C 	C 	0.141	0.9893	0.17	-1.219
Mof_C 	C 	0.0527	0.1503	0.2558	0.451
Mof_C 	C 	0.9502	0.1519	0.2548	0.86
Mof_C 	C 	0.8923	0.1508	0.2718	-0.754
Mof_C 	C 	0.8683	0.1498	0.3114	0.796
Mof_C 	C 	0.9047	0.1487	0.3306	-0.588
Mof_C 	C 	0.9661	0.1458	0.3144	0.586
Mof_C 	C 	0.9874	0.1486	0.2748	-0.658
Mof_C 	C 	0.8048	0.1538	0.3304	-1.658
Mof_C 	C 	0.0082	0.1461	0.3378	-1.261
Mof_C 	C 	0.9732	0.1612	0.2116	-1.734
Mof_C 	C 	0.6662	0.7262	0.5676	0.18
Mof_C 	C 	0.6439	0.7289	0.6042	-0.323
Mof_C 	C 	0.6138	0.6843	0.6356	0.318
Mof_C 	C 	0.6027	0.6347	0.6286	-0.292
Mof_C 	C 	0.6264	0.6294	0.5912	0.124
Mof_C 	C 	0.7083	0.7123	0.9154	0.123
Mof_C 	C 	0.7052	0.7302	0.8776	-0.271
Mof_C 	C 	0.6531	0.7461	0.8718	0.286
Mof_C 	C 	0.6041	0.7451	0.9038	-0.278
Mof_C 	C 	0.6094	0.7264	0.9412	0.123
Mof_C 	C 	0.5891	0.686	0.676	-0.487
Mof_C 	C 	0.6293	0.686	0.696	0.577
Mof_C 	C 	0.6092	0.6912	0.7336	-0.518
Mof_C 	C 	0.5483	0.6921	0.751	0.508
Mof_C 	C 	0.5086	0.6928	0.7304	-0.482
Mof_C 	C 	0.5295	0.6908	0.6924	0.543
Mof_C 	C 	0.6932	0.6812	0.6776	-1.371
Mof_C 	C 	0.525	0.689	0.794	-1.155
Mof_C 	C 	0.4893	0.689	0.67	-1.205
Mof_C 	C 	0.6503	0.6915	0.7558	0.451
Mof_C 	C 	0.6519	0.795	0.7548	0.858
Mof_C 	C 	0.6508	0.8359	0.7718	-0.753
Mof_C 	C 	0.6498	0.8203	0.8114	0.796
Mof_C 	C 	0.6487	0.7647	0.8306	-0.59
Mof_C 	C 	0.6458	0.7195	0.8144	0.59
Mof_C 	C 	0.6486	0.7378	0.7748	-0.657
Mof_C 	C 	0.6538	0.8648	0.8304	-1.659
Mof_C 	C 	0.6461	0.654	0.8378	-1.276
Mof_C 	C 	0.6612	0.8152	0.7116	-1.725
Mof_C 	C 	0.2662	0.7062	0.5676	0.18
Mof_C 	C 	0.2519	0.6669	0.6042	-0.323
Mof_C 	C 	0.2506	0.6801	0.6356	0.318
Mof_C 	C 	0.2687	0.7367	0.6286	-0.292
Mof_C 	C 	0.2824	0.7794	0.5912	0.124
Mof_C 	C 	0.8763	0.3723	0.9154	0.123
Mof_C 	C 	0.9172	0.3922	0.8776	-0.271
Mof_C 	C 	0.9751	0.3821	0.8718	0.286
Mof_C 	C 	0.9921	0.3511	0.9038	-0.28
Mof_C 	C 	0.9494	0.3324	0.9412	0.123
Mof_C 	C 	0.2349	0.638	0.676	-0.487
Mof_C 	C 	0.1747	0.618	0.696	0.576
Mof_C 	C 	0.1572	0.5752	0.7336	-0.518
Mof_C 	C 	0.2007	0.5569	0.751	0.507
Mof_C 	C 	0.261	0.5768	0.7304	-0.482
Mof_C 	C 	0.2781	0.6168	0.6924	0.543
Mof_C 	C 	0.1292	0.6412	0.6776	-1.371
Mof_C 	C 	0.181	0.517	0.794	-1.154
Mof_C 	C 	0.3407	0.641	0.67	-1.205
Mof_C 	C 	0.0939	0.5527	0.7558	0.45
Mof_C 	C 	0.0933	0.4502	0.7548	0.856
Mof_C 	C 	0.0774	0.3923	0.7718	-0.751
Mof_C 	C 	0.0388	0.3683	0.8114	0.794
Mof_C 	C 	0.0207	0.4047	0.8306	-0.588
Mof_C 	C 	0.0398	0.4661	0.8144	0.589
Mof_C 	C 	0.0766	0.4874	0.7748	-0.657
Mof_C 	C 	0.0158	0.3048	0.8304	-1.651
Mof_C 	C 	0.0161	0.5082	0.8378	-1.274
Mof_C 	C 	0.1272	0.4732	0.7116	-1.723
Mof_C 	C 	0.7062	0.2662	0.0676	0.18
Mof_C 	C 	0.6669	0.2519	0.1042	-0.323
Mof_C 	C 	0.6801	0.2506	0.1356	0.318
Mof_C 	C 	0.7367	0.2687	0.1286	-0.292
Mof_C 	C 	0.7794	0.2824	0.0912	0.124
Mof_C 	C 	0.3723	0.8763	0.4154	0.123
Mof_C 	C 	0.3922	0.9172	0.3776	-0.271
Mof_C 	C 	0.3821	0.9751	0.3718	0.286
Mof_C 	C 	0.3511	0.9921	0.4038	-0.28
Mof_C 	C 	0.3324	0.9494	0.4412	0.123
Mof_C 	C 	0.638	0.2349	0.176	-0.487
Mof_C 	C 	0.618	0.1747	0.196	0.576
Mof_C 	C 	0.5752	0.1572	0.2336	-0.518
Mof_C 	C 	0.5569	0.2007	0.251	0.507
Mof_C 	C 	0.5768	0.261	0.2304	-0.482
Mof_C 	C 	0.6168	0.2781	0.1924	0.543
Mof_C 	C 	0.6412	0.1292	0.1776	-1.371
Mof_C 	C 	0.517	0.181	0.294	-1.154
Mof_C 	C 	0.641	0.3407	0.17	-1.205
Mof_C 	C 	0.5527	0.0939	0.2558	0.451
Mof_C 	C 	0.4502	0.0933	0.2548	0.857
Mof_C 	C 	0.3923	0.0774	0.2718	-0.752
Mof_C 	C 	0.3683	0.0388	0.3114	0.794
Mof_C 	C 	0.4047	0.0207	0.3306	-0.589
Mof_C 	C 	0.4661	0.0398	0.3144	0.59
Mof_C 	C 	0.4874	0.0766	0.2748	-0.657
Mof_C 	C 	0.3048	0.0158	0.3304	-1.652
Mof_C 	C 	0.5082	0.0161	0.3378	-1.275
Mof_C 	C 	0.4732	0.1272	0.2116	-1.723
Mof_C 	C 	0.7262	0.6662	0.0676	0.18
Mof_C 	C 	0.7289	0.6439	0.1042	-0.323
Mof_C 	C 	0.6843	0.6138	0.1356	0.318
Mof_C 	C 	0.6347	0.6027	0.1286	-0.292
Mof_C 	C 	0.6294	0.6264	0.0912	0.124
Mof_C 	C 	0.7123	0.7083	0.4154	0.123
Mof_C 	C 	0.7302	0.7052	0.3776	-0.271
Mof_C 	C 	0.7461	0.6531	0.3718	0.286
Mof_C 	C 	0.7451	0.6041	0.4038	-0.278
Mof_C 	C 	0.7264	0.6094	0.4412	0.123
Mof_C 	C 	0.686	0.5891	0.176	-0.487
Mof_C 	C 	0.686	0.6293	0.196	0.577
Mof_C 	C 	0.6912	0.6092	0.2336	-0.518
Mof_C 	C 	0.6921	0.5483	0.251	0.508
Mof_C 	C 	0.6928	0.5086	0.2304	-0.482
Mof_C 	C 	0.6908	0.5295	0.1924	0.543
Mof_C 	C 	0.6812	0.6932	0.1776	-1.371
Mof_C 	C 	0.689	0.525	0.294	-1.155
Mof_C 	C 	0.689	0.4893	0.17	-1.205
Mof_C 	C 	0.6915	0.6503	0.2558	0.451
Mof_C 	C 	0.795	0.6519	0.2548	0.858
Mof_C 	C 	0.8359	0.6508	0.2718	-0.753
Mof_C 	C 	0.8203	0.6498	0.3114	0.796
Mof_C 	C 	0.7647	0.6487	0.3306	-0.59
Mof_C 	C 	0.7195	0.6458	0.3144	0.59
Mof_C 	C 	0.7378	0.6486	0.2748	-0.657
Mof_C 	C 	0.8648	0.6538	0.3304	-1.659
Mof_C 	C 	0.654	0.6461	0.3378	-1.276
Mof_C 	C 	0.8152	0.6612	0.2116	-1.724
Mof_C 	C 	0.7662	0.2262	0.5676	0.18
Mof_C 	C 	0.7519	0.2289	0.6042	-0.323
Mof_C 	C 	0.7506	0.1843	0.6356	0.318
Mof_C 	C 	0.7687	0.1347	0.6286	-0.292
Mof_C 	C 	0.7824	0.1294	0.5912	0.124
Mof_C 	C 	0.3763	0.2123	0.9154	0.123
Mof_C 	C 	0.4172	0.2302	0.8776	-0.271
Mof_C 	C 	0.4751	0.2461	0.8718	0.286
Mof_C 	C 	0.4921	0.2451	0.9038	-0.278
Mof_C 	C 	0.4494	0.2264	0.9412	0.123
Mof_C 	C 	0.7349	0.186	0.676	-0.487
Mof_C 	C 	0.6747	0.186	0.696	0.576
Mof_C 	C 	0.6572	0.1912	0.7336	-0.518
Mof_C 	C 	0.7007	0.1921	0.751	0.507
Mof_C 	C 	0.761	0.1928	0.7304	-0.481
Mof_C 	C 	0.7781	0.1908	0.6924	0.542
Mof_C 	C 	0.6292	0.1812	0.6776	-1.371
Mof_C 	C 	0.681	0.189	0.794	-1.154
Mof_C 	C 	0.8407	0.189	0.67	-1.204
Mof_C 	C 	0.5939	0.1915	0.7558	0.451
Mof_C 	C 	0.5933	0.295	0.7548	0.858
Mof_C 	C 	0.5774	0.3359	0.7718	-0.753
Mof_C 	C 	0.5388	0.3203	0.8114	0.797
Mof_C 	C 	0.5207	0.2647	0.8306	-0.59
Mof_C 	C 	0.5398	0.2195	0.8144	0.59
Mof_C 	C 	0.5766	0.2378	0.7748	-0.658
Mof_C 	C 	0.5158	0.3648	0.8304	-1.659
Mof_C 	C 	0.5161	0.154	0.8378	-1.276
Mof_C 	C 	0.6272	0.3152	0.7116	-1.725
Mof_C 	C 	0.1662	0.2062	0.5676	0.181
Mof_C 	C 	0.1439	0.1669	0.6042	-0.323
Mof_C 	C 	0.1138	0.1801	0.6356	0.318
Mof_C 	C 	0.1027	0.2367	0.6286	-0.293
Mof_C 	C 	0.1264	0.2794	0.5912	0.125
Mof_C 	C 	0.2083	0.8723	0.9154	0.123
Mof_C 	C 	0.2052	0.8922	0.8776	-0.27
Mof_C 	C 	0.1531	0.8821	0.8718	0.285
Mof_C 	C 	0.1041	0.8511	0.9038	-0.278
Mof_C 	C 	0.1094	0.8324	0.9412	0.122
Mof_C 	C 	0.0891	0.138	0.676	-0.488
Mof_C 	C 	0.1293	0.118	0.696	0.575
Mof_C 	C 	0.1092	0.0752	0.7336	-0.515
Mof_C 	C 	0.0483	0.0569	0.751	0.499
Mof_C 	C 	0.0086	0.0768	0.7304	-0.476
Mof_C 	C 	0.0295	0.1168	0.6924	0.546
Mof_C 	C 	0.1932	0.1412	0.6776	-1.37
Mof_C 	C 	0.025	0.017	0.794	-1.123
Mof_C 	C 	0.9893	0.141	0.67	-1.219
Mof_C 	C 	0.1503	0.0527	0.7558	0.451
Mof_C 	C 	0.1519	0.9502	0.7548	0.86
Mof_C 	C 	0.1508	0.8923	0.7718	-0.754
Mof_C 	C 	0.1498	0.8683	0.8114	0.796
Mof_C 	C 	0.1487	0.9047	0.8306	-0.589
Mof_C 	C 	0.1458	0.9661	0.8144	0.587
Mof_C 	C 	0.1486	0.9874	0.7748	-0.658
Mof_C 	C 	0.1538	0.8048	0.8304	-1.659
Mof_C 	C 	0.1461	0.0082	0.8378	-1.262
Mof_C 	C 	0.1612	0.9732	0.7116	-1.735
Mof_C 	C 	0.7738	0.2338	0.9324	0.18
Mof_C 	C 	0.7711	0.2481	0.8958	-0.323
Mof_C 	C 	0.8157	0.2494	0.8644	0.318
Mof_C 	C 	0.8653	0.2313	0.8714	-0.292
Mof_C 	C 	0.8706	0.2176	0.9088	0.124
Mof_C 	C 	0.7877	0.6237	0.5846	0.123
Mof_C 	C 	0.7698	0.5828	0.6224	-0.271
Mof_C 	C 	0.7539	0.5249	0.6282	0.286
Mof_C 	C 	0.7549	0.5079	0.5962	-0.278
Mof_C 	C 	0.7736	0.5506	0.5588	0.123
Mof_C 	C 	0.814	0.2651	0.824	-0.487
Mof_C 	C 	0.814	0.3253	0.804	0.576
Mof_C 	C 	0.8088	0.3428	0.7664	-0.518
Mof_C 	C 	0.8079	0.2993	0.749	0.507
Mof_C 	C 	0.8072	0.239	0.7696	-0.481
Mof_C 	C 	0.8092	0.2219	0.8076	0.542
Mof_C 	C 	0.8188	0.3708	0.8224	-1.371
Mof_C 	C 	0.811	0.319	0.706	-1.154
Mof_C 	C 	0.811	0.1593	0.83	-1.204
Mof_C 	C 	0.8085	0.4061	0.7442	0.451
Mof_C 	C 	0.705	0.4067	0.7452	0.858
Mof_C 	C 	0.6641	0.4226	0.7282	-0.753
Mof_C 	C 	0.6797	0.4612	0.6886	0.797
Mof_C 	C 	0.7353	0.4793	0.6694	-0.59
Mof_C 	C 	0.7805	0.4602	0.6856	0.59
Mof_C 	C 	0.7622	0.4234	0.7252	-0.658
Mof_C 	C 	0.6352	0.4842	0.6696	-1.659
Mof_C 	C 	0.846	0.4839	0.6622	-1.276
Mof_C 	C 	0.6848	0.3728	0.7884	-1.725
Mof_C 	C 	0.7938	0.8338	0.9324	0.181
Mof_C 	C 	0.8331	0.8561	0.8958	-0.323
Mof_C 	C 	0.8199	0.8862	0.8644	0.318
Mof_C 	C 	0.7633	0.8973	0.8714	-0.293
Mof_C 	C 	0.7206	0.8736	0.9088	0.125
Mof_C 	C 	0.1277	0.7917	0.5846	0.123
Mof_C 	C 	0.1078	0.7948	0.6224	-0.27
Mof_C 	C 	0.1179	0.8469	0.6282	0.285
Mof_C 	C 	0.1489	0.8959	0.5962	-0.278
Mof_C 	C 	0.1676	0.8906	0.5588	0.122
Mof_C 	C 	0.862	0.9109	0.824	-0.488
Mof_C 	C 	0.882	0.8707	0.804	0.575
Mof_C 	C 	0.9248	0.8908	0.7664	-0.515
Mof_C 	C 	0.9431	0.9517	0.749	0.499
Mof_C 	C 	0.9232	0.9914	0.7696	-0.476
Mof_C 	C 	0.8832	0.9705	0.8076	0.546
Mof_C 	C 	0.8588	0.8068	0.8224	-1.37
Mof_C 	C 	0.983	0.975	0.706	-1.124
Mof_C 	C 	0.859	0.0107	0.83	-1.219
Mof_C 	C 	0.9473	0.8497	0.7442	0.451
Mof_C 	C 	0.0498	0.8481	0.7452	0.86
Mof_C 	C 	0.1077	0.8492	0.7282	-0.754
Mof_C 	C 	0.1317	0.8502	0.6886	0.796
Mof_C 	C 	0.0953	0.8513	0.6694	-0.588
Mof_C 	C 	0.0339	0.8542	0.6856	0.586
Mof_C 	C 	0.0126	0.8514	0.7252	-0.658
Mof_C 	C 	0.1952	0.8462	0.6696	-1.658
Mof_C 	C 	0.9918	0.8539	0.6622	-1.261
Mof_C 	C 	0.0268	0.8388	0.7884	-1.734
Mof_C 	C 	0.3338	0.2738	0.4324	0.18
Mof_C 	C 	0.3561	0.2711	0.3958	-0.323
Mof_C 	C 	0.3862	0.3157	0.3644	0.318
Mof_C 	C 	0.3973	0.3653	0.3714	-0.292
Mof_C 	C 	0.3736	0.3706	0.4088	0.124
Mof_C 	C 	0.2917	0.2877	0.0846	0.123
Mof_C 	C 	0.2948	0.2698	0.1224	-0.271
Mof_C 	C 	0.3469	0.2539	0.1282	0.286
Mof_C 	C 	0.3959	0.2549	0.0962	-0.278
Mof_C 	C 	0.3906	0.2736	0.0588	0.123
Mof_C 	C 	0.4109	0.314	0.324	-0.487
Mof_C 	C 	0.3707	0.314	0.304	0.577
Mof_C 	C 	0.3908	0.3088	0.2664	-0.518
Mof_C 	C 	0.4517	0.3079	0.249	0.508
Mof_C 	C 	0.4914	0.3072	0.2696	-0.482
Mof_C 	C 	0.4705	0.3092	0.3076	0.543
Mof_C 	C 	0.3068	0.3188	0.3224	-1.371
Mof_C 	C 	0.475	0.311	0.206	-1.155
Mof_C 	C 	0.5107	0.311	0.33	-1.205
Mof_C 	C 	0.3497	0.3085	0.2442	0.451
Mof_C 	C 	0.3481	0.205	0.2452	0.858
Mof_C 	C 	0.3492	0.1641	0.2282	-0.753
Mof_C 	C 	0.3502	0.1797	0.1886	0.796
Mof_C 	C 	0.3513	0.2353	0.1694	-0.59
Mof_C 	C 	0.3542	0.2805	0.1856	0.59
Mof_C 	C 	0.3514	0.2622	0.2252	-0.657
Mof_C 	C 	0.3462	0.1352	0.1696	-1.659
Mof_C 	C 	0.3539	0.346	0.1622	-1.276
Mof_C 	C 	0.3388	0.1848	0.2884	-1.725
Mof_C 	C 	0.7338	0.2938	0.4324	0.18
Mof_C 	C 	0.7481	0.3331	0.3958	-0.323
Mof_C 	C 	0.7494	0.3199	0.3644	0.318
Mof_C 	C 	0.7313	0.2633	0.3714	-0.292
Mof_C 	C 	0.7176	0.2206	0.4088	0.124
Mof_C 	C 	0.1237	0.6277	0.0846	0.123
Mof_C 	C 	0.0828	0.6078	0.1224	-0.271
Mof_C 	C 	0.0249	0.6179	0.1282	0.286
Mof_C 	C 	0.0079	0.6489	0.0962	-0.28
Mof_C 	C 	0.0506	0.6676	0.0588	0.123
Mof_C 	C 	0.7651	0.362	0.324	-0.487
Mof_C 	C 	0.8253	0.382	0.304	0.576
Mof_C 	C 	0.8428	0.4248	0.2664	-0.518
Mof_C 	C 	0.7993	0.4431	0.249	0.507
Mof_C 	C 	0.739	0.4232	0.2696	-0.482
Mof_C 	C 	0.7219	0.3832	0.3076	0.543
Mof_C 	C 	0.8708	0.3588	0.3224	-1.371
Mof_C 	C 	0.819	0.483	0.206	-1.154
Mof_C 	C 	0.6593	0.359	0.33	-1.205
Mof_C 	C 	0.9061	0.4473	0.2442	0.45
Mof_C 	C 	0.9067	0.5498	0.2452	0.856
Mof_C 	C 	0.9226	0.6077	0.2282	-0.751
Mof_C 	C 	0.9612	0.6317	0.1886	0.794
Mof_C 	C 	0.9793	0.5953	0.1694	-0.588
Mof_C 	C 	0.9602	0.5339	0.1856	0.589
Mof_C 	C 	0.9234	0.5126	0.2252	-0.657
Mof_C 	C 	0.9842	0.6952	0.1696	-1.651
Mof_C 	C 	0.9839	0.4918	0.1622	-1.274
Mof_C 	C 	0.8728	0.5268	0.2884	-1.723
Mof_C 	C 	0.44485	0.69485	0.75	0.364
Mof_C 	C 	0.65	0.9	0.75	0.624
Mof_C 	C 	0.30515	0.55515	0.75	0.364
Mof_C 	C 	0.1	0.35	0.75	0.624
Mof_C 	C 	0.19485	0.80515	0.25	0.364
Mof_C 	C 	0.4	0.6	0.25	0.625
Mof_C 	C 	0.05515	0.94485	0.25	0.355
Mof_C 	C 	0.85	0.15	0.25	0.626
Mof_C 	C 	0.55515	0.30515	0.25	0.364
Mof_C 	C 	0.35	0.1	0.25	0.624
Mof_C 	C 	0.69485	0.44485	0.25	0.364
Mof_C 	C 	0.9	0.65	0.25	0.624
Mof_C 	C 	0.80515	0.19485	0.75	0.364
Mof_C 	C 	0.6	0.4	0.75	0.625
Mof_C 	C 	0.94485	0.05515	0.75	0.355
Mof_C 	C 	0.15	0.85	0.75	0.626
Mof_N 	N 	0.2375	0.7176	0.939	-0.23
Mof_N 	N 	0.6599	0.1093	0.554	-0.224
Mof_N 	N 	0.3235	0.3434	0.939	-0.23
Mof_N 	N 	0.2861	0.3367	0.554	-0.224
Mof_N 	N 	0.2176	0.8235	0.439	-0.229
Mof_N 	N 	0.6093	0.7861	0.054	-0.224
Mof_N 	N 	0.8434	0.7375	0.439	-0.23
Mof_N 	N 	0.8367	0.1599	0.054	-0.224
Mof_N 	N 	0.1765	0.7824	0.061	-0.229
Mof_N 	N 	0.2139	0.3907	0.446	-0.224
Mof_N 	N 	0.2625	0.1566	0.061	-0.23
Mof_N 	N 	0.8401	0.1633	0.446	-0.224
Mof_N 	N 	0.6566	0.6765	0.561	-0.229
Mof_N 	N 	0.6633	0.7139	0.946	-0.224
Mof_N 	N 	0.2824	0.7625	0.561	-0.229
Mof_N 	N 	0.8907	0.3401	0.946	-0.224
Mof_N 	N 	0.7625	0.2824	0.061	-0.23
Mof_N 	N 	0.3401	0.8907	0.446	-0.224
Mof_N 	N 	0.6765	0.6566	0.061	-0.23
Mof_N 	N 	0.7139	0.6633	0.446	-0.224
Mof_N 	N 	0.7824	0.1765	0.561	-0.229
Mof_N 	N 	0.3907	0.2139	0.946	-0.224
Mof_N 	N 	0.1566	0.2625	0.561	-0.23
Mof_N 	N 	0.1633	0.8401	0.946	-0.224
Mof_N 	N 	0.8235	0.2176	0.939	-0.229
Mof_N 	N 	0.7861	0.6093	0.554	-0.224
Mof_N 	N 	0.7375	0.8434	0.939	-0.23
Mof_N 	N 	0.1599	0.8367	0.554	-0.224
Mof_N 	N 	0.3434	0.3235	0.439	-0.229
Mof_N 	N 	0.3367	0.2861	0.054	-0.224
Mof_N 	N 	0.7176	0.2375	0.439	-0.229
Mof_N 	N 	0.1093	0.6599	0.054	-0.224
Mof_P 	P 	0.4503	0.8346	0.915	1.205
Mof_F 	F 	0.4715	0.7811	0.9034	-0.435
Mof_F 	F 	0.3955	0.7962	0.947	-0.385
Mof_F 	F 	0.4291	0.8881	0.9266	-0.394
Mof_F 	F 	0.505	0.8729	0.8832	-0.453
Mof_F 	F 	0.4174	0.8485	0.8854	-0.469
Mof_F 	F 	0.4831	0.8206	0.9448	-0.386
Mof_P 	P 	0.1347	0.2504	0.915	1.205
Mof_F 	F 	0.1251	0.3155	0.9034	-0.435
Mof_F 	F 	0.1575	0.2568	0.947	-0.385
Mof_F 	F 	0.1443	0.1853	0.9266	-0.394
Mof_F 	F 	0.1118	0.2439	0.8832	-0.452
Mof_F 	F 	0.1972	0.2661	0.8854	-0.469
Mof_F 	F 	0.0721	0.2346	0.9448	-0.386
Mof_P 	P 	0.3346	0.6347	0.415	1.205
Mof_F 	F 	0.2811	0.6251	0.4034	-0.435
Mof_F 	F 	0.2962	0.6575	0.447	-0.385
Mof_F 	F 	0.3881	0.6443	0.4266	-0.394
Mof_F 	F 	0.3729	0.6118	0.3832	-0.453
Mof_F 	F 	0.3485	0.6972	0.3854	-0.469
Mof_F 	F 	0.3206	0.5721	0.4448	-0.386
Mof_P 	P 	0.7504	0.9503	0.415	1.206
Mof_F 	F 	0.8155	0.9715	0.4034	-0.434
Mof_F 	F 	0.7568	0.8955	0.447	-0.385
Mof_F 	F 	0.6853	0.9291	0.4266	-0.394
Mof_F 	F 	0.7439	0.005	0.3832	-0.454
Mof_F 	F 	0.7661	0.9174	0.3854	-0.469
Mof_F 	F 	0.7346	0.9831	0.4448	-0.386
Mof_P 	P 	0.3653	0.6654	0.085	1.205
Mof_F 	F 	0.3749	0.7189	0.0966	-0.435
Mof_F 	F 	0.3425	0.7038	0.053	-0.385
Mof_F 	F 	0.3557	0.6119	0.0734	-0.394
Mof_F 	F 	0.3882	0.6271	0.1168	-0.453
Mof_F 	F 	0.3028	0.6515	0.1146	-0.469
Mof_F 	F 	0.4279	0.6794	0.0552	-0.386
Mof_P 	P 	0.0497	0.2496	0.085	1.206
Mof_F 	F 	0.0285	0.1845	0.0966	-0.434
Mof_F 	F 	0.1045	0.2432	0.053	-0.385
Mof_F 	F 	0.0709	0.3147	0.0734	-0.394
Mof_F 	F 	0.995	0.2561	0.1168	-0.454
Mof_F 	F 	0.0826	0.2339	0.1146	-0.469
Mof_F 	F 	0.0169	0.2654	0.0552	-0.386
Mof_P 	P 	0.7496	0.8653	0.585	1.205
Mof_F 	F 	0.6845	0.8749	0.5966	-0.435
Mof_F 	F 	0.7432	0.8425	0.553	-0.385
Mof_F 	F 	0.8147	0.8557	0.5734	-0.394
Mof_F 	F 	0.7561	0.8882	0.6168	-0.453
Mof_F 	F 	0.7339	0.8028	0.6146	-0.469
Mof_F 	F 	0.7654	0.9279	0.5552	-0.386
Mof_P 	P 	0.1654	0.5497	0.585	1.205
Mof_F 	F 	0.2189	0.5285	0.5966	-0.435
Mof_F 	F 	0.2038	0.6045	0.553	-0.385
Mof_F 	F 	0.1119	0.5709	0.5734	-0.394
Mof_F 	F 	0.1271	0.495	0.6168	-0.453
Mof_F 	F 	0.1515	0.5826	0.6146	-0.469
Mof_F 	F 	0.1794	0.5169	0.5552	-0.386
Mof_P 	P 	0.5497	0.1654	0.085	1.205
Mof_F 	F 	0.5285	0.2189	0.0966	-0.435
Mof_F 	F 	0.6045	0.2038	0.053	-0.385
Mof_F 	F 	0.5709	0.1119	0.0734	-0.394
Mof_F 	F 	0.495	0.1271	0.1168	-0.453
Mof_F 	F 	0.5826	0.1515	0.1146	-0.469
Mof_F 	F 	0.5169	0.1794	0.0552	-0.386
Mof_P 	P 	0.8653	0.7496	0.085	1.205
Mof_F 	F 	0.8749	0.6845	0.0966	-0.435
Mof_F 	F 	0.8425	0.7432	0.053	-0.385
Mof_F 	F 	0.8557	0.8147	0.0734	-0.394
Mof_F 	F 	0.8882	0.7561	0.1168	-0.452
Mof_F 	F 	0.8028	0.7339	0.1146	-0.469
Mof_F 	F 	0.9279	0.7654	0.0552	-0.386
Mof_P 	P 	0.6654	0.3653	0.585	1.205
Mof_F 	F 	0.7189	0.3749	0.5966	-0.435
Mof_F 	F 	0.7038	0.3425	0.553	-0.385
Mof_F 	F 	0.6119	0.3557	0.5734	-0.394
Mof_F 	F 	0.6271	0.3882	0.6168	-0.453
Mof_F 	F 	0.6515	0.3028	0.6146	-0.469
Mof_F 	F 	0.6794	0.4279	0.5552	-0.386
Mof_P 	P 	0.2496	0.0497	0.585	1.206
Mof_F 	F 	0.1845	0.0285	0.5966	-0.434
Mof_F 	F 	0.2432	0.1045	0.553	-0.385
Mof_F 	F 	0.3147	0.0709	0.5734	-0.394
Mof_F 	F 	0.2561	0.995	0.6168	-0.454
Mof_F 	F 	0.2339	0.0826	0.6146	-0.469
Mof_F 	F 	0.2654	0.0169	0.5552	-0.386
Mof_P 	P 	0.6347	0.3346	0.915	1.205
Mof_F 	F 	0.6251	0.2811	0.9034	-0.435
Mof_F 	F 	0.6575	0.2962	0.947	-0.385
Mof_F 	F 	0.6443	0.3881	0.9266	-0.394
Mof_F 	F 	0.6118	0.3729	0.8832	-0.453
Mof_F 	F 	0.6972	0.3485	0.8854	-0.469
Mof_F 	F 	0.5721	0.3206	0.9448	-0.386
Mof_P 	P 	0.9503	0.7504	0.915	1.206
Mof_F 	F 	0.9715	0.8155	0.9034	-0.434
Mof_F 	F 	0.8955	0.7568	0.947	-0.385
Mof_F 	F 	0.9291	0.6853	0.9266	-0.394
Mof_F 	F 	0.005	0.7439	0.8832	-0.454
Mof_F 	F 	0.9174	0.7661	0.8854	-0.469
Mof_F 	F 	0.9831	0.7346	0.9448	-0.386
Mof_P 	P 	0.2504	0.1347	0.415	1.205
Mof_F 	F 	0.3155	0.1251	0.4034	-0.435
Mof_F 	F 	0.2568	0.1575	0.447	-0.385
Mof_F 	F 	0.1853	0.1443	0.4266	-0.394
Mof_F 	F 	0.2439	0.1118	0.3832	-0.453
Mof_F 	F 	0.2661	0.1972	0.3854	-0.469
Mof_F 	F 	0.2346	0.0721	0.4448	-0.386
Mof_P 	P 	0.8346	0.4503	0.415	1.205
Mof_F 	F 	0.7811	0.4715	0.4034	-0.435
Mof_F 	F 	0.7962	0.3955	0.447	-0.385
Mof_F 	F 	0.8881	0.4291	0.4266	-0.394
Mof_F 	F 	0.8729	0.505	0.3832	-0.453
Mof_F 	F 	0.8485	0.4174	0.3854	-0.469
Mof_F 	F 	0.8206	0.4831	0.4448	-0.386
_end
