data_functionalizedCrystal
_audit_creation_method	'EQeq! by Chris Wilmer'
_symmetry_space_group_name_H-M	'P1'
_symmetry_Int_Tables_number	1
_symmetry_cell_setting	triclinic
loop_
_symmetry_equiv_pos_as_xyz
  x,y,z
_cell_length_a	11.5408
_cell_length_b	16.159
_cell_length_c	12.0019
_cell_angle_alpha	90
_cell_angle_beta	112.733
_cell_angle_gamma	90
loop_
_atom_site_label
_atom_site_type_symbol
_atom_site_fract_x
_atom_site_fract_y
_atom_site_fract_z
_atom_site_charge
Mof_Dy	Dy	0.19449	0.02781	0.07878	2.189
Mof_S 	S 	0.05294	0.21891	0.71243	0.11
Mof_S 	S 	0.48925	0.28359	0.25072	0.078
Mof_O 	O 	0.12931	0.07623	0.87958	-0.494
Mof_O 	O 	0.93691	0.02949	0.84311	-0.567
Mof_O 	O 	0.05675	0.36373	0.56788	-0.54
Mof_O 	O 	0.85725	0.40206	0.52329	-0.535
Mof_O 	O 	0.2747	0.10433	0.27988	-0.385
Mof_O 	O 	0.3374	0.13971	0.13568	-0.447
Mof_O 	O 	0.64768	0.43479	0.29265	-0.425
Mof_O 	O 	0.62348	0.47735	0.45693	-0.397
Mof_C 	C 	0.9567	0.1524	0.7482	-0.133
Mof_C 	C 	0.8338	0.1767	0.6987	0.001
Mof_H 	H 	0.7685	0.1483	0.7089	0.046
Mof_C 	C 	0.8178	0.24951	0.6308	0.021
Mof_H 	H 	0.7403	0.2749	0.5914	0.041
Mof_C 	C 	0.9276	0.27939	0.6282	-0.153
Mof_C 	C 	0.0116	0.08146	0.8288	0.465
Mof_C 	C 	0.9491	0.3541	0.5686	0.514
Mof_C 	C 	0.3929	0.22804	0.3034	-0.083
Mof_C 	C 	0.3829	0.2654	0.4008	-0.003
Mof_H 	H 	0.3348	0.2443	0.4412	0.053
Mof_C 	C 	0.4521	0.33871	0.4341	-0.017
Mof_H 	H 	0.4544	0.3719	0.4982	0.069
Mof_C 	C 	0.5162	0.35627	0.3621	-0.068
Mof_C 	C 	0.3312	0.15247	0.2373	0.332
Mof_C 	C 	0.6001	0.42727	0.3709	0.313
Mof_Dy	Dy	0.80551	0.52781	0.42122	2.22
Mof_S 	S 	0.94706	0.71891	0.78757	0.107
Mof_S 	S 	0.51075	0.78359	0.24928	0.079
Mof_O 	O 	0.87069	0.57623	0.62042	-0.502
Mof_O 	O 	0.06309	0.52949	0.65689	-0.58
Mof_O 	O 	0.94325	0.86373	0.93212	-0.543
Mof_O 	O 	0.14275	0.90206	0.97671	-0.534
Mof_O 	O 	0.7253	0.60433	0.22012	-0.385
Mof_O 	O 	0.6626	0.63971	0.36432	-0.447
Mof_O 	O 	0.35232	0.93479	0.20735	-0.419
Mof_O 	O 	0.37652	0.97735	0.04307	-0.389
Mof_C 	C 	0.0433	0.6524	0.7518	-0.138
Mof_C 	C 	0.1662	0.6767	0.8013	0.003
Mof_H 	H 	0.2315	0.6483	0.7911	0.045
Mof_C 	C 	0.1822	0.74951	0.8692	0.02
Mof_H 	H 	0.2597	0.7749	0.9086	0.04
Mof_C 	C 	0.0724	0.77939	0.8718	-0.152
Mof_C 	C 	0.9884	0.58146	0.6712	0.473
Mof_C 	C 	0.0509	0.8541	0.9314	0.518
Mof_C 	C 	0.6071	0.72804	0.1966	-0.082
Mof_C 	C 	0.6171	0.7654	0.0992	-0.003
Mof_H 	H 	0.6652	0.7443	0.0588	0.055
Mof_C 	C 	0.5479	0.83871	0.0659	-0.017
Mof_H 	H 	0.5456	0.8719	0.0018	0.071
Mof_C 	C 	0.4838	0.85627	0.1379	-0.067
Mof_C 	C 	0.6688	0.65247	0.2627	0.331
Mof_C 	C 	0.3999	0.92727	0.1291	0.312
Mof_Dy	Dy	0.80551	0.97219	0.92122	2.188
Mof_S 	S 	0.94706	0.78109	0.28757	0.109
Mof_S 	S 	0.51075	0.71641	0.74928	0.078
Mof_O 	O 	0.87069	0.92377	0.12042	-0.494
Mof_O 	O 	0.06309	0.97051	0.15689	-0.567
Mof_O 	O 	0.94325	0.63627	0.43212	-0.54
Mof_O 	O 	0.14275	0.59794	0.47671	-0.535
Mof_O 	O 	0.7253	0.89567	0.72012	-0.385
Mof_O 	O 	0.6626	0.86029	0.86432	-0.447
Mof_O 	O 	0.35232	0.56521	0.70735	-0.425
Mof_O 	O 	0.37652	0.52265	0.54307	-0.397
Mof_C 	C 	0.0433	0.8476	0.2518	-0.133
Mof_C 	C 	0.1662	0.8233	0.3013	0.001
Mof_H 	H 	0.2315	0.8517	0.2911	0.046
Mof_C 	C 	0.1822	0.75049	0.3692	0.021
Mof_H 	H 	0.2597	0.7251	0.4086	0.041
Mof_C 	C 	0.0724	0.72061	0.3718	-0.153
Mof_C 	C 	0.9884	0.91854	0.1712	0.465
Mof_C 	C 	0.0509	0.6459	0.4314	0.514
Mof_C 	C 	0.6071	0.77196	0.6966	-0.083
Mof_C 	C 	0.6171	0.7346	0.5992	-0.003
Mof_H 	H 	0.6652	0.7557	0.5588	0.053
Mof_C 	C 	0.5479	0.66129	0.5659	-0.017
Mof_H 	H 	0.5456	0.6281	0.5018	0.069
Mof_C 	C 	0.4838	0.64373	0.6379	-0.068
Mof_C 	C 	0.6688	0.84753	0.7627	0.332
Mof_C 	C 	0.3999	0.57273	0.6291	0.313
Mof_Dy	Dy	0.19449	0.47219	0.57878	2.22
Mof_S 	S 	0.05294	0.28109	0.21243	0.107
Mof_S 	S 	0.48925	0.21641	0.75072	0.079
Mof_O 	O 	0.12931	0.42377	0.37958	-0.502
Mof_O 	O 	0.93691	0.47051	0.34311	-0.58
Mof_O 	O 	0.05675	0.13627	0.06788	-0.543
Mof_O 	O 	0.85725	0.09794	0.02329	-0.534
Mof_O 	O 	0.2747	0.39567	0.77988	-0.385
Mof_O 	O 	0.3374	0.36029	0.63568	-0.447
Mof_O 	O 	0.64768	0.06521	0.79265	-0.419
Mof_O 	O 	0.62348	0.02265	0.95693	-0.389
Mof_C 	C 	0.9567	0.3476	0.2482	-0.138
Mof_C 	C 	0.8338	0.3233	0.1987	0.003
Mof_H 	H 	0.7685	0.3517	0.2089	0.045
Mof_C 	C 	0.8178	0.25049	0.1308	0.02
Mof_H 	H 	0.7403	0.2251	0.0914	0.04
Mof_C 	C 	0.9276	0.22061	0.1282	-0.152
Mof_C 	C 	0.0116	0.41854	0.3288	0.473
Mof_C 	C 	0.9491	0.1459	0.0686	0.518
Mof_C 	C 	0.3929	0.27196	0.8034	-0.082
Mof_C 	C 	0.3829	0.2346	0.9008	-0.003
Mof_H 	H 	0.3348	0.2557	0.9412	0.055
Mof_C 	C 	0.4521	0.16129	0.9341	-0.017
Mof_H 	H 	0.4544	0.1281	0.9982	0.071
Mof_C 	C 	0.5162	0.14373	0.8621	-0.067
Mof_C 	C 	0.3312	0.34753	0.7373	0.331
Mof_C 	C 	0.6001	0.07273	0.8709	0.312
_end
