data_functionalizedCrystal
_audit_creation_method	'EQeq! by Chris Wilmer'
_symmetry_space_group_name_H-M	'P1'
_symmetry_Int_Tables_number	1
_symmetry_cell_setting	triclinic
loop_
_symmetry_equiv_pos_as_xyz
  x,y,z
_cell_length_a	28.9603
_cell_length_b	28.9603
_cell_length_c	10.5023
_cell_angle_alpha	90
_cell_angle_beta	90
_cell_angle_gamma	90
loop_
_atom_site_label
_atom_site_type_symbol
_atom_site_fract_x
_atom_site_fract_y
_atom_site_fract_z
_atom_site_charge
Mof_Y 	Y 	0.89117	0.18331	0.21466	1.54
Mof_C 	C 	0.95807	0.28172	0.2589	0.397
Mof_C 	C 	0.00151	0.281	0.3332	-0.008
Mof_C 	C 	0.02035	0.24671	0.4038	-0.011
Mof_H 	H 	0.0079	0.2168	0.4175	0.043
Mof_C 	C 	0.06246	0.26447	0.4536	-0.067
Mof_H 	H 	0.0837	0.2486	0.5071	0.072
Mof_C 	C 	0.06647	0.3077	0.4107	0.052
Mof_C 	C 	0.10204	0.34231	0.4353	0.259
Mof_C 	C 	0.82472	0.22298	0.9838	0.398
Mof_C 	C 	0.78287	0.20273	0.9259	-0.004
Mof_C 	C 	0.7711	0.15788	0.909	-0.031
Mof_H 	H 	0.7879	0.1316	0.9373	0.057
Mof_C 	C 	0.99084	0.12195	0.2506	0.064
Mof_H 	H 	0.989	0.123	0.1603	0.028
Mof_C 	C 	0.0294	0.1005	0.3068	-0.082
Mof_H 	H 	0.0528	0.0873	0.2552	0.068
Mof_C 	C 	0.0326	0.099	0.4364	-0.028
Mof_H 	H 	0.0585	0.0847	0.4756	0.045
Mof_C 	C 	0.99768	0.11836	0.5114	-0.001
Mof_C 	C 	0.997	0.11725	0.6487	-0.043
Mof_H 	H 	0.0227	0.1046	0.6928	0.058
Mof_C 	C 	0.96133	0.13351	0.7156	-0.06
Mof_H 	H 	0.9617	0.131	0.8058	0.071
Mof_C 	C 	0.9231	0.15437	0.655	0.013
Mof_C 	C 	0.8838	0.17012	0.7199	-0.036
Mof_H 	H 	0.8825	0.1688	0.8102	0.059
Mof_C 	C 	0.8478	0.1871	0.6537	-0.077
Mof_H 	H 	0.8206	0.1969	0.6967	0.069
Mof_C 	C 	0.8507	0.19025	0.5211	0.063
Mof_H 	H 	0.8253	0.2031	0.4764	0.03
Mof_C 	C 	0.92255	0.15721	0.5194	0.031
Mof_C 	C 	0.9603	0.13882	0.4472	0.034
Mof_N 	N 	0.95735	0.1405	0.3174	-0.195
Mof_N 	N 	0.88665	0.17638	0.4546	-0.188
Mof_O 	O 	0.9489	0.31645	0.1925	-0.404
Mof_O 	O 	0.9337	0.24543	0.2676	-0.457
Mof_O 	O 	0.02925	0.319	0.3343	-0.163
Mof_O 	O 	0.10206	0.38204	0.3861	-0.321
Mof_O 	O 	0.13394	0.32948	0.5105	-0.359
Mof_O 	O 	0.8307	0.26587	0.9795	-0.401
Mof_O 	O 	0.85155	0.19385	0.0315	-0.436
Mof_Y 	Y 	0.39117	0.68331	0.71466	1.539
Mof_C 	C 	0.45807	0.78172	0.7589	0.396
Mof_C 	C 	0.50151	0.781	0.8332	-0.01
Mof_C 	C 	0.52035	0.74671	0.9038	-0.009
Mof_H 	H 	0.5079	0.7168	0.9175	0.042
Mof_C 	C 	0.56246	0.76447	0.9536	-0.073
Mof_H 	H 	0.5837	0.7486	0.0071	0.075
Mof_C 	C 	0.56647	0.8077	0.9107	0.054
Mof_C 	C 	0.60204	0.84231	0.9353	0.255
Mof_C 	C 	0.32472	0.72298	0.4838	0.397
Mof_C 	C 	0.28287	0.70273	0.4259	-0.004
Mof_C 	C 	0.2711	0.65788	0.409	-0.031
Mof_H 	H 	0.2879	0.6316	0.4373	0.057
Mof_C 	C 	0.49084	0.62195	0.7506	0.063
Mof_H 	H 	0.489	0.623	0.6603	0.029
Mof_C 	C 	0.5294	0.6005	0.8068	-0.081
Mof_H 	H 	0.5528	0.5873	0.7552	0.067
Mof_C 	C 	0.5326	0.599	0.9364	-0.03
Mof_H 	H 	0.5585	0.5847	0.9756	0.046
Mof_C 	C 	0.49768	0.61836	0.0114	0.001
Mof_C 	C 	0.497	0.61725	0.1487	-0.044
Mof_H 	H 	0.5227	0.6046	0.1928	0.059
Mof_C 	C 	0.46133	0.63351	0.2156	-0.059
Mof_H 	H 	0.4617	0.631	0.3058	0.071
Mof_C 	C 	0.4231	0.65437	0.155	0.012
Mof_C 	C 	0.3838	0.67012	0.2199	-0.035
Mof_H 	H 	0.3825	0.6688	0.3102	0.059
Mof_C 	C 	0.3478	0.6871	0.1537	-0.078
Mof_H 	H 	0.3206	0.6969	0.1967	0.07
Mof_C 	C 	0.3507	0.69025	0.0211	0.064
Mof_H 	H 	0.3253	0.7031	0.9764	0.03
Mof_C 	C 	0.42255	0.65721	0.0194	0.033
Mof_C 	C 	0.4603	0.63882	0.9472	0.032
Mof_N 	N 	0.45735	0.6405	0.8174	-0.194
Mof_N 	N 	0.38665	0.67638	0.9546	-0.189
Mof_O 	O 	0.4489	0.81645	0.6925	-0.404
Mof_O 	O 	0.4337	0.74543	0.7676	-0.457
Mof_O 	O 	0.52925	0.819	0.8343	-0.164
Mof_O 	O 	0.60206	0.88204	0.8861	-0.32
Mof_O 	O 	0.63394	0.82948	0.0105	-0.355
Mof_O 	O 	0.3307	0.76587	0.4795	-0.402
Mof_O 	O 	0.35155	0.69385	0.5315	-0.436
Mof_Y 	Y 	0.10883	0.81669	0.21466	1.539
Mof_C 	C 	0.04193	0.71828	0.2589	0.396
Mof_C 	C 	0.99849	0.719	0.3332	-0.009
Mof_C 	C 	0.97965	0.75329	0.4038	-0.012
Mof_H 	H 	0.9921	0.7832	0.4175	0.043
Mof_C 	C 	0.93754	0.73553	0.4536	-0.067
Mof_H 	H 	0.9163	0.7514	0.5071	0.072
Mof_C 	C 	0.93353	0.6923	0.4107	0.052
Mof_C 	C 	0.89796	0.65769	0.4353	0.259
Mof_C 	C 	0.17528	0.77702	0.9838	0.398
Mof_C 	C 	0.21713	0.79727	0.9259	-0.004
Mof_C 	C 	0.2289	0.84212	0.909	-0.031
Mof_H 	H 	0.2121	0.8684	0.9373	0.057
Mof_C 	C 	0.00916	0.87805	0.2506	0.064
Mof_H 	H 	0.011	0.877	0.1603	0.028
Mof_C 	C 	0.9706	0.8995	0.3068	-0.082
Mof_H 	H 	0.9472	0.9127	0.2552	0.068
Mof_C 	C 	0.9674	0.901	0.4364	-0.028
Mof_H 	H 	0.9415	0.9153	0.4756	0.045
Mof_C 	C 	0.00232	0.88164	0.5114	-0.001
Mof_C 	C 	0.003	0.88275	0.6487	-0.043
Mof_H 	H 	0.9773	0.8954	0.6928	0.058
Mof_C 	C 	0.03867	0.86649	0.7156	-0.06
Mof_H 	H 	0.0383	0.869	0.8058	0.071
Mof_C 	C 	0.0769	0.84563	0.655	0.013
Mof_C 	C 	0.1162	0.82988	0.7199	-0.036
Mof_H 	H 	0.1175	0.8312	0.8102	0.059
Mof_C 	C 	0.1522	0.8129	0.6537	-0.077
Mof_H 	H 	0.1794	0.8031	0.6967	0.069
Mof_C 	C 	0.1493	0.80975	0.5211	0.063
Mof_H 	H 	0.1747	0.7969	0.4764	0.03
Mof_C 	C 	0.07745	0.84279	0.5194	0.031
Mof_C 	C 	0.0397	0.86118	0.4472	0.034
Mof_N 	N 	0.04265	0.8595	0.3174	-0.195
Mof_N 	N 	0.11335	0.82362	0.4546	-0.188
Mof_O 	O 	0.0511	0.68355	0.1925	-0.404
Mof_O 	O 	0.0663	0.75457	0.2676	-0.457
Mof_O 	O 	0.97075	0.681	0.3343	-0.163
Mof_O 	O 	0.89794	0.61796	0.3861	-0.321
Mof_O 	O 	0.86606	0.67052	0.5105	-0.359
Mof_O 	O 	0.1693	0.73413	0.9795	-0.401
Mof_O 	O 	0.14845	0.80615	0.0315	-0.436
Mof_Y 	Y 	0.60883	0.31669	0.71466	1.539
Mof_C 	C 	0.54193	0.21828	0.7589	0.396
Mof_C 	C 	0.49849	0.219	0.8332	-0.01
Mof_C 	C 	0.47965	0.25329	0.9038	-0.009
Mof_H 	H 	0.4921	0.2832	0.9175	0.042
Mof_C 	C 	0.43754	0.23553	0.9536	-0.073
Mof_H 	H 	0.4163	0.2514	0.0071	0.075
Mof_C 	C 	0.43353	0.1923	0.9107	0.054
Mof_C 	C 	0.39796	0.15769	0.9353	0.255
Mof_C 	C 	0.67528	0.27702	0.4838	0.397
Mof_C 	C 	0.71713	0.29727	0.4259	-0.004
Mof_C 	C 	0.7289	0.34212	0.409	-0.031
Mof_H 	H 	0.7121	0.3684	0.4373	0.057
Mof_C 	C 	0.50916	0.37805	0.7506	0.063
Mof_H 	H 	0.511	0.377	0.6603	0.029
Mof_C 	C 	0.4706	0.3995	0.8068	-0.081
Mof_H 	H 	0.4472	0.4127	0.7552	0.067
Mof_C 	C 	0.4674	0.401	0.9364	-0.03
Mof_H 	H 	0.4415	0.4153	0.9756	0.046
Mof_C 	C 	0.50232	0.38164	0.0114	0.001
Mof_C 	C 	0.503	0.38275	0.1487	-0.044
Mof_H 	H 	0.4773	0.3954	0.1928	0.059
Mof_C 	C 	0.53867	0.36649	0.2156	-0.059
Mof_H 	H 	0.5383	0.369	0.3058	0.071
Mof_C 	C 	0.5769	0.34563	0.155	0.012
Mof_C 	C 	0.6162	0.32988	0.2199	-0.035
Mof_H 	H 	0.6175	0.3312	0.3102	0.059
Mof_C 	C 	0.6522	0.3129	0.1537	-0.078
Mof_H 	H 	0.6794	0.3031	0.1967	0.07
Mof_C 	C 	0.6493	0.30975	0.0211	0.064
Mof_H 	H 	0.6747	0.2969	0.9764	0.03
Mof_C 	C 	0.57745	0.34279	0.0194	0.033
Mof_C 	C 	0.5397	0.36118	0.9472	0.032
Mof_N 	N 	0.54265	0.3595	0.8174	-0.194
Mof_N 	N 	0.61335	0.32362	0.9546	-0.189
Mof_O 	O 	0.5511	0.18355	0.6925	-0.404
Mof_O 	O 	0.5663	0.25457	0.7676	-0.457
Mof_O 	O 	0.47075	0.181	0.8343	-0.164
Mof_O 	O 	0.39794	0.11796	0.8861	-0.32
Mof_O 	O 	0.36606	0.17052	0.0105	-0.355
Mof_O 	O 	0.6693	0.23413	0.4795	-0.402
Mof_O 	O 	0.64845	0.30615	0.5315	-0.436
Mof_Y 	Y 	0.18331	0.10883	0.78534	1.539
Mof_C 	C 	0.28172	0.04193	0.7411	0.396
Mof_C 	C 	0.281	0.99849	0.6668	-0.009
Mof_C 	C 	0.24671	0.97965	0.5962	-0.012
Mof_H 	H 	0.2168	0.9921	0.5825	0.043
Mof_C 	C 	0.26447	0.93754	0.5464	-0.067
Mof_H 	H 	0.2486	0.9163	0.4929	0.072
Mof_C 	C 	0.3077	0.93353	0.5893	0.052
Mof_C 	C 	0.34231	0.89796	0.5647	0.259
Mof_C 	C 	0.22298	0.17528	0.0162	0.398
Mof_C 	C 	0.20273	0.21713	0.0741	-0.004
Mof_C 	C 	0.15788	0.2289	0.091	-0.031
Mof_H 	H 	0.1316	0.2121	0.0627	0.057
Mof_C 	C 	0.12195	0.00916	0.7494	0.064
Mof_H 	H 	0.123	0.011	0.8397	0.028
Mof_C 	C 	0.1005	0.9706	0.6932	-0.082
Mof_H 	H 	0.0873	0.9472	0.7448	0.068
Mof_C 	C 	0.099	0.9674	0.5636	-0.028
Mof_H 	H 	0.0847	0.9415	0.5244	0.045
Mof_C 	C 	0.11836	0.00232	0.4886	-0.001
Mof_C 	C 	0.11725	0.003	0.3513	-0.043
Mof_H 	H 	0.1046	0.9773	0.3072	0.058
Mof_C 	C 	0.13351	0.03867	0.2844	-0.06
Mof_H 	H 	0.131	0.0383	0.1942	0.071
Mof_C 	C 	0.15437	0.0769	0.345	0.013
Mof_C 	C 	0.17012	0.1162	0.2801	-0.036
Mof_H 	H 	0.1688	0.1175	0.1898	0.059
Mof_C 	C 	0.1871	0.1522	0.3463	-0.077
Mof_H 	H 	0.1969	0.1794	0.3033	0.069
Mof_C 	C 	0.19025	0.1493	0.4789	0.063
Mof_H 	H 	0.2031	0.1747	0.5236	0.03
Mof_C 	C 	0.15721	0.07745	0.4806	0.031
Mof_C 	C 	0.13882	0.0397	0.5528	0.034
Mof_N 	N 	0.1405	0.04265	0.6826	-0.195
Mof_N 	N 	0.17638	0.11335	0.5454	-0.188
Mof_O 	O 	0.31645	0.0511	0.8075	-0.404
Mof_O 	O 	0.24543	0.0663	0.7324	-0.457
Mof_O 	O 	0.319	0.97075	0.6657	-0.163
Mof_O 	O 	0.38204	0.89794	0.6139	-0.321
Mof_O 	O 	0.32948	0.86606	0.4895	-0.359
Mof_O 	O 	0.26587	0.1693	0.0205	-0.401
Mof_O 	O 	0.19385	0.14845	0.9685	-0.436
Mof_Y 	Y 	0.68331	0.60883	0.28534	1.539
Mof_C 	C 	0.78172	0.54193	0.2411	0.396
Mof_C 	C 	0.781	0.49849	0.1668	-0.01
Mof_C 	C 	0.74671	0.47965	0.0962	-0.009
Mof_H 	H 	0.7168	0.4921	0.0825	0.042
Mof_C 	C 	0.76447	0.43754	0.0464	-0.073
Mof_H 	H 	0.7486	0.4163	0.9929	0.075
Mof_C 	C 	0.8077	0.43353	0.0893	0.054
Mof_C 	C 	0.84231	0.39796	0.0647	0.255
Mof_C 	C 	0.72298	0.67528	0.5162	0.397
Mof_C 	C 	0.70273	0.71713	0.5741	-0.004
Mof_C 	C 	0.65788	0.7289	0.591	-0.031
Mof_H 	H 	0.6316	0.7121	0.5627	0.057
Mof_C 	C 	0.62195	0.50916	0.2494	0.063
Mof_H 	H 	0.623	0.511	0.3397	0.029
Mof_C 	C 	0.6005	0.4706	0.1932	-0.081
Mof_H 	H 	0.5873	0.4472	0.2448	0.067
Mof_C 	C 	0.599	0.4674	0.0636	-0.03
Mof_H 	H 	0.5847	0.4415	0.0244	0.046
Mof_C 	C 	0.61836	0.50232	0.9886	0.001
Mof_C 	C 	0.61725	0.503	0.8513	-0.044
Mof_H 	H 	0.6046	0.4773	0.8072	0.059
Mof_C 	C 	0.63351	0.53867	0.7844	-0.059
Mof_H 	H 	0.631	0.5383	0.6942	0.071
Mof_C 	C 	0.65437	0.5769	0.845	0.012
Mof_C 	C 	0.67012	0.6162	0.7801	-0.035
Mof_H 	H 	0.6688	0.6175	0.6898	0.059
Mof_C 	C 	0.6871	0.6522	0.8463	-0.078
Mof_H 	H 	0.6969	0.6794	0.8033	0.07
Mof_C 	C 	0.69025	0.6493	0.9789	0.064
Mof_H 	H 	0.7031	0.6747	0.0236	0.03
Mof_C 	C 	0.65721	0.57745	0.9806	0.033
Mof_C 	C 	0.63882	0.5397	0.0528	0.032
Mof_N 	N 	0.6405	0.54265	0.1826	-0.194
Mof_N 	N 	0.67638	0.61335	0.0454	-0.189
Mof_O 	O 	0.81645	0.5511	0.3075	-0.404
Mof_O 	O 	0.74543	0.5663	0.2324	-0.457
Mof_O 	O 	0.819	0.47075	0.1657	-0.164
Mof_O 	O 	0.88204	0.39794	0.1139	-0.32
Mof_O 	O 	0.82948	0.36606	0.9895	-0.355
Mof_O 	O 	0.76587	0.6693	0.5205	-0.402
Mof_O 	O 	0.69385	0.64845	0.4685	-0.436
Mof_Y 	Y 	0.81669	0.89117	0.78534	1.539
Mof_C 	C 	0.71828	0.95807	0.7411	0.396
Mof_C 	C 	0.719	0.00151	0.6668	-0.009
Mof_C 	C 	0.75329	0.02035	0.5962	-0.012
Mof_H 	H 	0.7832	0.0079	0.5825	0.043
Mof_C 	C 	0.73553	0.06246	0.5464	-0.067
Mof_H 	H 	0.7514	0.0837	0.4929	0.072
Mof_C 	C 	0.6923	0.06647	0.5893	0.052
Mof_C 	C 	0.65769	0.10204	0.5647	0.259
Mof_C 	C 	0.77702	0.82472	0.0162	0.398
Mof_C 	C 	0.79727	0.78287	0.0741	-0.004
Mof_C 	C 	0.84212	0.7711	0.091	-0.031
Mof_H 	H 	0.8684	0.7879	0.0627	0.057
Mof_C 	C 	0.87805	0.99084	0.7494	0.064
Mof_H 	H 	0.877	0.989	0.8397	0.028
Mof_C 	C 	0.8995	0.0294	0.6932	-0.082
Mof_H 	H 	0.9127	0.0528	0.7448	0.068
Mof_C 	C 	0.901	0.0326	0.5636	-0.028
Mof_H 	H 	0.9153	0.0585	0.5244	0.045
Mof_C 	C 	0.88164	0.99768	0.4886	-0.001
Mof_C 	C 	0.88275	0.997	0.3513	-0.043
Mof_H 	H 	0.8954	0.0227	0.3072	0.058
Mof_C 	C 	0.86649	0.96133	0.2844	-0.06
Mof_H 	H 	0.869	0.9617	0.1942	0.071
Mof_C 	C 	0.84563	0.9231	0.345	0.013
Mof_C 	C 	0.82988	0.8838	0.2801	-0.036
Mof_H 	H 	0.8312	0.8825	0.1898	0.059
Mof_C 	C 	0.8129	0.8478	0.3463	-0.077
Mof_H 	H 	0.8031	0.8206	0.3033	0.069
Mof_C 	C 	0.80975	0.8507	0.4789	0.063
Mof_H 	H 	0.7969	0.8253	0.5236	0.03
Mof_C 	C 	0.84279	0.92255	0.4806	0.031
Mof_C 	C 	0.86118	0.9603	0.5528	0.034
Mof_N 	N 	0.8595	0.95735	0.6826	-0.195
Mof_N 	N 	0.82362	0.88665	0.5454	-0.188
Mof_O 	O 	0.68355	0.9489	0.8075	-0.404
Mof_O 	O 	0.75457	0.9337	0.7324	-0.457
Mof_O 	O 	0.681	0.02925	0.6657	-0.163
Mof_O 	O 	0.61796	0.10206	0.6139	-0.321
Mof_O 	O 	0.67052	0.13394	0.4895	-0.359
Mof_O 	O 	0.73413	0.8307	0.0205	-0.401
Mof_O 	O 	0.80615	0.85155	0.9685	-0.436
Mof_Y 	Y 	0.31669	0.39117	0.28534	1.539
Mof_C 	C 	0.21828	0.45807	0.2411	0.396
Mof_C 	C 	0.219	0.50151	0.1668	-0.01
Mof_C 	C 	0.25329	0.52035	0.0962	-0.009
Mof_H 	H 	0.2832	0.5079	0.0825	0.042
Mof_C 	C 	0.23553	0.56246	0.0464	-0.073
Mof_H 	H 	0.2514	0.5837	0.9929	0.075
Mof_C 	C 	0.1923	0.56647	0.0893	0.054
Mof_C 	C 	0.15769	0.60204	0.0647	0.255
Mof_C 	C 	0.27702	0.32472	0.5162	0.397
Mof_C 	C 	0.29727	0.28287	0.5741	-0.004
Mof_C 	C 	0.34212	0.2711	0.591	-0.031
Mof_H 	H 	0.3684	0.2879	0.5627	0.057
Mof_C 	C 	0.37805	0.49084	0.2494	0.063
Mof_H 	H 	0.377	0.489	0.3397	0.029
Mof_C 	C 	0.3995	0.5294	0.1932	-0.081
Mof_H 	H 	0.4127	0.5528	0.2448	0.067
Mof_C 	C 	0.401	0.5326	0.0636	-0.03
Mof_H 	H 	0.4153	0.5585	0.0244	0.046
Mof_C 	C 	0.38164	0.49768	0.9886	0.001
Mof_C 	C 	0.38275	0.497	0.8513	-0.044
Mof_H 	H 	0.3954	0.5227	0.8072	0.059
Mof_C 	C 	0.36649	0.46133	0.7844	-0.059
Mof_H 	H 	0.369	0.4617	0.6942	0.071
Mof_C 	C 	0.34563	0.4231	0.845	0.012
Mof_C 	C 	0.32988	0.3838	0.7801	-0.035
Mof_H 	H 	0.3312	0.3825	0.6898	0.059
Mof_C 	C 	0.3129	0.3478	0.8463	-0.078
Mof_H 	H 	0.3031	0.3206	0.8033	0.07
Mof_C 	C 	0.30975	0.3507	0.9789	0.064
Mof_H 	H 	0.2969	0.3253	0.0236	0.03
Mof_C 	C 	0.34279	0.42255	0.9806	0.033
Mof_C 	C 	0.36118	0.4603	0.0528	0.032
Mof_N 	N 	0.3595	0.45735	0.1826	-0.194
Mof_N 	N 	0.32362	0.38665	0.0454	-0.189
Mof_O 	O 	0.18355	0.4489	0.3075	-0.404
Mof_O 	O 	0.25457	0.4337	0.2324	-0.457
Mof_O 	O 	0.181	0.52925	0.1657	-0.164
Mof_O 	O 	0.11796	0.60206	0.1139	-0.32
Mof_O 	O 	0.17052	0.63394	0.9895	-0.355
Mof_O 	O 	0.23413	0.3307	0.5205	-0.402
Mof_O 	O 	0.30615	0.35155	0.4685	-0.436
Mof_Y 	Y 	0.60883	0.18331	0.53534	1.539
Mof_C 	C 	0.54193	0.28172	0.4911	0.396
Mof_C 	C 	0.49849	0.281	0.4168	-0.009
Mof_C 	C 	0.47965	0.24671	0.3462	-0.012
Mof_H 	H 	0.4921	0.2168	0.3325	0.044
Mof_C 	C 	0.43754	0.26447	0.2964	-0.067
Mof_H 	H 	0.4163	0.2486	0.2429	0.072
Mof_C 	C 	0.43353	0.3077	0.3393	0.052
Mof_C 	C 	0.39796	0.34231	0.3147	0.259
Mof_C 	C 	0.67528	0.22298	0.7662	0.397
Mof_C 	C 	0.71713	0.20273	0.8241	-0.004
Mof_C 	C 	0.7289	0.15788	0.841	-0.032
Mof_H 	H 	0.7121	0.1316	0.8127	0.057
Mof_C 	C 	0.50916	0.12195	0.4994	0.063
Mof_H 	H 	0.511	0.123	0.5897	0.029
Mof_C 	C 	0.4706	0.1005	0.4432	-0.08
Mof_H 	H 	0.4472	0.0873	0.4948	0.067
Mof_C 	C 	0.4674	0.099	0.3136	-0.03
Mof_H 	H 	0.4415	0.0847	0.2744	0.046
Mof_C 	C 	0.50232	0.11836	0.2386	0.003
Mof_C 	C 	0.503	0.11725	0.1013	-0.05
Mof_H 	H 	0.4773	0.1046	0.0572	0.061
Mof_C 	C 	0.53867	0.13351	0.0344	-0.048
Mof_H 	H 	0.5383	0.131	0.9442	0.065
Mof_C 	C 	0.5769	0.15437	0.095	0.006
Mof_C 	C 	0.6162	0.17012	0.0301	-0.027
Mof_H 	H 	0.6175	0.1688	0.9398	0.055
Mof_C 	C 	0.6522	0.1871	0.0963	-0.083
Mof_H 	H 	0.6794	0.1969	0.0533	0.072
Mof_C 	C 	0.6493	0.19025	0.2289	0.066
Mof_H 	H 	0.6747	0.2031	0.2736	0.029
Mof_C 	C 	0.57745	0.15721	0.2306	0.034
Mof_C 	C 	0.5397	0.13882	0.3028	0.031
Mof_N 	N 	0.54265	0.1405	0.4326	-0.194
Mof_N 	N 	0.61335	0.17638	0.2954	-0.19
Mof_O 	O 	0.5511	0.31645	0.5575	-0.404
Mof_O 	O 	0.5663	0.24543	0.4824	-0.457
Mof_O 	O 	0.47075	0.319	0.4157	-0.163
Mof_O 	O 	0.39794	0.38204	0.3639	-0.32
Mof_O 	O 	0.36606	0.32948	0.2395	-0.359
Mof_O 	O 	0.6693	0.26587	0.7705	-0.402
Mof_O 	O 	0.64845	0.19385	0.7185	-0.436
Mof_Y 	Y 	0.10883	0.68331	0.03534	1.533
Mof_C 	C 	0.04193	0.78172	0.9911	0.397
Mof_C 	C 	0.99849	0.781	0.9168	-0.009
Mof_C 	C 	0.97965	0.74671	0.8462	-0.011
Mof_H 	H 	0.9921	0.7168	0.8325	0.043
Mof_C 	C 	0.93754	0.76447	0.7964	-0.067
Mof_H 	H 	0.9163	0.7486	0.7429	0.072
Mof_C 	C 	0.93353	0.8077	0.8393	0.052
Mof_C 	C 	0.89796	0.84231	0.8147	0.259
Mof_C 	C 	0.17528	0.72298	0.2662	0.397
Mof_C 	C 	0.21713	0.70273	0.3241	-0.004
Mof_C 	C 	0.2289	0.65788	0.341	-0.032
Mof_H 	H 	0.2121	0.6316	0.3127	0.057
Mof_C 	C 	0.00916	0.62195	0.9994	0.071
Mof_H 	H 	0.011	0.623	0.0897	0.024
Mof_C 	C 	0.9706	0.6005	0.9432	-0.086
Mof_H 	H 	0.9472	0.5873	0.9948	0.07
Mof_C 	C 	0.9674	0.599	0.8136	-0.025
Mof_H 	H 	0.9415	0.5847	0.7744	0.045
Mof_C 	C 	0.00232	0.61836	0.7386	-0.003
Mof_C 	C 	0.003	0.61725	0.6013	-0.042
Mof_H 	H 	0.9773	0.6046	0.5572	0.058
Mof_C 	C 	0.03867	0.63351	0.5344	-0.061
Mof_H 	H 	0.0383	0.631	0.4442	0.071
Mof_C 	C 	0.0769	0.65437	0.595	0.013
Mof_C 	C 	0.1162	0.67012	0.5301	-0.036
Mof_H 	H 	0.1175	0.6688	0.4398	0.059
Mof_C 	C 	0.1522	0.6871	0.5963	-0.077
Mof_H 	H 	0.1794	0.6969	0.5533	0.069
Mof_C 	C 	0.1493	0.69025	0.7289	0.063
Mof_H 	H 	0.1747	0.7031	0.7736	0.031
Mof_C 	C 	0.07745	0.65721	0.7306	0.031
Mof_C 	C 	0.0397	0.63882	0.8028	0.034
Mof_N 	N 	0.04265	0.6405	0.9326	-0.195
Mof_N 	N 	0.11335	0.67638	0.7954	-0.188
Mof_O 	O 	0.0511	0.81645	0.0575	-0.405
Mof_O 	O 	0.0663	0.74543	0.9824	-0.455
Mof_O 	O 	0.97075	0.819	0.9157	-0.163
Mof_O 	O 	0.89794	0.88204	0.8639	-0.32
Mof_O 	O 	0.86606	0.82948	0.7395	-0.359
Mof_O 	O 	0.1693	0.76587	0.2705	-0.402
Mof_O 	O 	0.14845	0.69385	0.2185	-0.435
Mof_Y 	Y 	0.39117	0.81669	0.53534	1.539
Mof_C 	C 	0.45807	0.71828	0.4911	0.396
Mof_C 	C 	0.50151	0.719	0.4168	-0.009
Mof_C 	C 	0.52035	0.75329	0.3462	-0.012
Mof_H 	H 	0.5079	0.7832	0.3325	0.044
Mof_C 	C 	0.56246	0.73553	0.2964	-0.067
Mof_H 	H 	0.5837	0.7514	0.2429	0.072
Mof_C 	C 	0.56647	0.6923	0.3393	0.052
Mof_C 	C 	0.60204	0.65769	0.3147	0.259
Mof_C 	C 	0.32472	0.77702	0.7662	0.397
Mof_C 	C 	0.28287	0.79727	0.8241	-0.004
Mof_C 	C 	0.2711	0.84212	0.841	-0.032
Mof_H 	H 	0.2879	0.8684	0.8127	0.057
Mof_C 	C 	0.49084	0.87805	0.4994	0.063
Mof_H 	H 	0.489	0.877	0.5897	0.029
Mof_C 	C 	0.5294	0.8995	0.4432	-0.08
Mof_H 	H 	0.5528	0.9127	0.4948	0.067
Mof_C 	C 	0.5326	0.901	0.3136	-0.03
Mof_H 	H 	0.5585	0.9153	0.2744	0.046
Mof_C 	C 	0.49768	0.88164	0.2386	0.003
Mof_C 	C 	0.497	0.88275	0.1013	-0.05
Mof_H 	H 	0.5227	0.8954	0.0572	0.061
Mof_C 	C 	0.46133	0.86649	0.0344	-0.048
Mof_H 	H 	0.4617	0.869	0.9442	0.065
Mof_C 	C 	0.4231	0.84563	0.095	0.006
Mof_C 	C 	0.3838	0.82988	0.0301	-0.027
Mof_H 	H 	0.3825	0.8312	0.9398	0.055
Mof_C 	C 	0.3478	0.8129	0.0963	-0.083
Mof_H 	H 	0.3206	0.8031	0.0533	0.072
Mof_C 	C 	0.3507	0.80975	0.2289	0.066
Mof_H 	H 	0.3253	0.7969	0.2736	0.029
Mof_C 	C 	0.42255	0.84279	0.2306	0.034
Mof_C 	C 	0.4603	0.86118	0.3028	0.031
Mof_N 	N 	0.45735	0.8595	0.4326	-0.194
Mof_N 	N 	0.38665	0.82362	0.2954	-0.19
Mof_O 	O 	0.4489	0.68355	0.5575	-0.404
Mof_O 	O 	0.4337	0.75457	0.4824	-0.457
Mof_O 	O 	0.52925	0.681	0.4157	-0.163
Mof_O 	O 	0.60206	0.61796	0.3639	-0.32
Mof_O 	O 	0.63394	0.67052	0.2395	-0.359
Mof_O 	O 	0.3307	0.73413	0.7705	-0.402
Mof_O 	O 	0.35155	0.80615	0.7185	-0.436
Mof_Y 	Y 	0.89117	0.31669	0.03534	1.533
Mof_C 	C 	0.95807	0.21828	0.9911	0.397
Mof_C 	C 	0.00151	0.219	0.9168	-0.009
Mof_C 	C 	0.02035	0.25329	0.8462	-0.011
Mof_H 	H 	0.0079	0.2832	0.8325	0.043
Mof_C 	C 	0.06246	0.23553	0.7964	-0.067
Mof_H 	H 	0.0837	0.2514	0.7429	0.072
Mof_C 	C 	0.06647	0.1923	0.8393	0.052
Mof_C 	C 	0.10204	0.15769	0.8147	0.259
Mof_C 	C 	0.82472	0.27702	0.2662	0.397
Mof_C 	C 	0.78287	0.29727	0.3241	-0.004
Mof_C 	C 	0.7711	0.34212	0.341	-0.032
Mof_H 	H 	0.7879	0.3684	0.3127	0.057
Mof_C 	C 	0.99084	0.37805	0.9994	0.071
Mof_H 	H 	0.989	0.377	0.0897	0.024
Mof_C 	C 	0.0294	0.3995	0.9432	-0.086
Mof_H 	H 	0.0528	0.4127	0.9948	0.07
Mof_C 	C 	0.0326	0.401	0.8136	-0.025
Mof_H 	H 	0.0585	0.4153	0.7744	0.045
Mof_C 	C 	0.99768	0.38164	0.7386	-0.003
Mof_C 	C 	0.997	0.38275	0.6013	-0.042
Mof_H 	H 	0.0227	0.3954	0.5572	0.058
Mof_C 	C 	0.96133	0.36649	0.5344	-0.061
Mof_H 	H 	0.9617	0.369	0.4442	0.071
Mof_C 	C 	0.9231	0.34563	0.595	0.013
Mof_C 	C 	0.8838	0.32988	0.5301	-0.036
Mof_H 	H 	0.8825	0.3312	0.4398	0.059
Mof_C 	C 	0.8478	0.3129	0.5963	-0.077
Mof_H 	H 	0.8206	0.3031	0.5533	0.069
Mof_C 	C 	0.8507	0.30975	0.7289	0.063
Mof_H 	H 	0.8253	0.2969	0.7736	0.031
Mof_C 	C 	0.92255	0.34279	0.7306	0.031
Mof_C 	C 	0.9603	0.36118	0.8028	0.034
Mof_N 	N 	0.95735	0.3595	0.9326	-0.195
Mof_N 	N 	0.88665	0.32362	0.7954	-0.188
Mof_O 	O 	0.9489	0.18355	0.0575	-0.405
Mof_O 	O 	0.9337	0.25457	0.9824	-0.455
Mof_O 	O 	0.02925	0.181	0.9157	-0.163
Mof_O 	O 	0.10206	0.11796	0.8639	-0.32
Mof_O 	O 	0.13394	0.17052	0.7395	-0.359
Mof_O 	O 	0.8307	0.23413	0.2705	-0.402
Mof_O 	O 	0.85155	0.30615	0.2185	-0.435
Mof_Y 	Y 	0.31669	0.10883	0.96466	1.533
Mof_C 	C 	0.21828	0.04193	0.0089	0.397
Mof_C 	C 	0.219	0.99849	0.0832	-0.009
Mof_C 	C 	0.25329	0.97965	0.1538	-0.011
Mof_H 	H 	0.2832	0.9921	0.1675	0.043
Mof_C 	C 	0.23553	0.93754	0.2036	-0.067
Mof_H 	H 	0.2514	0.9163	0.2571	0.072
Mof_C 	C 	0.1923	0.93353	0.1607	0.052
Mof_C 	C 	0.15769	0.89796	0.1853	0.259
Mof_C 	C 	0.27702	0.17528	0.7338	0.397
Mof_C 	C 	0.29727	0.21713	0.6759	-0.004
Mof_C 	C 	0.34212	0.2289	0.659	-0.032
Mof_H 	H 	0.3684	0.2121	0.6873	0.057
Mof_C 	C 	0.37805	0.00916	0.0006	0.071
Mof_H 	H 	0.377	0.011	0.9103	0.024
Mof_C 	C 	0.3995	0.9706	0.0568	-0.086
Mof_H 	H 	0.4127	0.9472	0.0052	0.07
Mof_C 	C 	0.401	0.9674	0.1864	-0.025
Mof_H 	H 	0.4153	0.9415	0.2256	0.045
Mof_C 	C 	0.38164	0.00232	0.2614	-0.003
Mof_C 	C 	0.38275	0.003	0.3987	-0.042
Mof_H 	H 	0.3954	0.9773	0.4428	0.058
Mof_C 	C 	0.36649	0.03867	0.4656	-0.061
Mof_H 	H 	0.369	0.0383	0.5558	0.071
Mof_C 	C 	0.34563	0.0769	0.405	0.013
Mof_C 	C 	0.32988	0.1162	0.4699	-0.036
Mof_H 	H 	0.3312	0.1175	0.5602	0.059
Mof_C 	C 	0.3129	0.1522	0.4037	-0.077
Mof_H 	H 	0.3031	0.1794	0.4467	0.069
Mof_C 	C 	0.30975	0.1493	0.2711	0.063
Mof_H 	H 	0.2969	0.1747	0.2264	0.031
Mof_C 	C 	0.34279	0.07745	0.2694	0.031
Mof_C 	C 	0.36118	0.0397	0.1972	0.034
Mof_N 	N 	0.3595	0.04265	0.0674	-0.195
Mof_N 	N 	0.32362	0.11335	0.2046	-0.188
Mof_O 	O 	0.18355	0.0511	0.9425	-0.405
Mof_O 	O 	0.25457	0.0663	0.0176	-0.455
Mof_O 	O 	0.181	0.97075	0.0843	-0.163
Mof_O 	O 	0.11796	0.89794	0.1361	-0.32
Mof_O 	O 	0.17052	0.86606	0.2605	-0.359
Mof_O 	O 	0.23413	0.1693	0.7295	-0.402
Mof_O 	O 	0.30615	0.14845	0.7815	-0.435
Mof_Y 	Y 	0.81669	0.60883	0.46466	1.539
Mof_C 	C 	0.71828	0.54193	0.5089	0.396
Mof_C 	C 	0.719	0.49849	0.5832	-0.009
Mof_C 	C 	0.75329	0.47965	0.6538	-0.012
Mof_H 	H 	0.7832	0.4921	0.6675	0.044
Mof_C 	C 	0.73553	0.43754	0.7036	-0.067
Mof_H 	H 	0.7514	0.4163	0.7571	0.072
Mof_C 	C 	0.6923	0.43353	0.6607	0.052
Mof_C 	C 	0.65769	0.39796	0.6853	0.259
Mof_C 	C 	0.77702	0.67528	0.2338	0.397
Mof_C 	C 	0.79727	0.71713	0.1759	-0.004
Mof_C 	C 	0.84212	0.7289	0.159	-0.032
Mof_H 	H 	0.8684	0.7121	0.1873	0.057
Mof_C 	C 	0.87805	0.50916	0.5006	0.063
Mof_H 	H 	0.877	0.511	0.4103	0.029
Mof_C 	C 	0.8995	0.4706	0.5568	-0.08
Mof_H 	H 	0.9127	0.4472	0.5052	0.067
Mof_C 	C 	0.901	0.4674	0.6864	-0.03
Mof_H 	H 	0.9153	0.4415	0.7256	0.046
Mof_C 	C 	0.88164	0.50232	0.7614	0.003
Mof_C 	C 	0.88275	0.503	0.8987	-0.05
Mof_H 	H 	0.8954	0.4773	0.9428	0.061
Mof_C 	C 	0.86649	0.53867	0.9656	-0.048
Mof_H 	H 	0.869	0.5383	0.0558	0.065
Mof_C 	C 	0.84563	0.5769	0.905	0.006
Mof_C 	C 	0.82988	0.6162	0.9699	-0.027
Mof_H 	H 	0.8312	0.6175	0.0602	0.055
Mof_C 	C 	0.8129	0.6522	0.9037	-0.083
Mof_H 	H 	0.8031	0.6794	0.9467	0.072
Mof_C 	C 	0.80975	0.6493	0.7711	0.066
Mof_H 	H 	0.7969	0.6747	0.7264	0.029
Mof_C 	C 	0.84279	0.57745	0.7694	0.034
Mof_C 	C 	0.86118	0.5397	0.6972	0.031
Mof_N 	N 	0.8595	0.54265	0.5674	-0.194
Mof_N 	N 	0.82362	0.61335	0.7046	-0.19
Mof_O 	O 	0.68355	0.5511	0.4425	-0.404
Mof_O 	O 	0.75457	0.5663	0.5176	-0.457
Mof_O 	O 	0.681	0.47075	0.5843	-0.163
Mof_O 	O 	0.61796	0.39794	0.6361	-0.32
Mof_O 	O 	0.67052	0.36606	0.7605	-0.359
Mof_O 	O 	0.73413	0.6693	0.2295	-0.402
Mof_O 	O 	0.80615	0.64845	0.2815	-0.436
Mof_Y 	Y 	0.68331	0.89117	0.96466	1.533
Mof_C 	C 	0.78172	0.95807	0.0089	0.397
Mof_C 	C 	0.781	0.00151	0.0832	-0.009
Mof_C 	C 	0.74671	0.02035	0.1538	-0.011
Mof_H 	H 	0.7168	0.0079	0.1675	0.043
Mof_C 	C 	0.76447	0.06246	0.2036	-0.067
Mof_H 	H 	0.7486	0.0837	0.2571	0.072
Mof_C 	C 	0.8077	0.06647	0.1607	0.052
Mof_C 	C 	0.84231	0.10204	0.1853	0.259
Mof_C 	C 	0.72298	0.82472	0.7338	0.397
Mof_C 	C 	0.70273	0.78287	0.6759	-0.004
Mof_C 	C 	0.65788	0.7711	0.659	-0.032
Mof_H 	H 	0.6316	0.7879	0.6873	0.057
Mof_C 	C 	0.62195	0.99084	0.0006	0.071
Mof_H 	H 	0.623	0.989	0.9103	0.024
Mof_C 	C 	0.6005	0.0294	0.0568	-0.086
Mof_H 	H 	0.5873	0.0528	0.0052	0.07
Mof_C 	C 	0.599	0.0326	0.1864	-0.025
Mof_H 	H 	0.5847	0.0585	0.2256	0.045
Mof_C 	C 	0.61836	0.99768	0.2614	-0.003
Mof_C 	C 	0.61725	0.997	0.3987	-0.042
Mof_H 	H 	0.6046	0.0227	0.4428	0.058
Mof_C 	C 	0.63351	0.96133	0.4656	-0.061
Mof_H 	H 	0.631	0.9617	0.5558	0.071
Mof_C 	C 	0.65437	0.9231	0.405	0.013
Mof_C 	C 	0.67012	0.8838	0.4699	-0.036
Mof_H 	H 	0.6688	0.8825	0.5602	0.059
Mof_C 	C 	0.6871	0.8478	0.4037	-0.077
Mof_H 	H 	0.6969	0.8206	0.4467	0.069
Mof_C 	C 	0.69025	0.8507	0.2711	0.063
Mof_H 	H 	0.7031	0.8253	0.2264	0.031
Mof_C 	C 	0.65721	0.92255	0.2694	0.031
Mof_C 	C 	0.63882	0.9603	0.1972	0.034
Mof_N 	N 	0.6405	0.95735	0.0674	-0.195
Mof_N 	N 	0.67638	0.88665	0.2046	-0.188
Mof_O 	O 	0.81645	0.9489	0.9425	-0.405
Mof_O 	O 	0.74543	0.9337	0.0176	-0.455
Mof_O 	O 	0.819	0.02925	0.0843	-0.163
Mof_O 	O 	0.88204	0.10206	0.1361	-0.32
Mof_O 	O 	0.82948	0.13394	0.2605	-0.359
Mof_O 	O 	0.76587	0.8307	0.7295	-0.402
Mof_O 	O 	0.69385	0.85155	0.7815	-0.435
Mof_Y 	Y 	0.18331	0.39117	0.46466	1.539
Mof_C 	C 	0.28172	0.45807	0.5089	0.396
Mof_C 	C 	0.281	0.50151	0.5832	-0.009
Mof_C 	C 	0.24671	0.52035	0.6538	-0.012
Mof_H 	H 	0.2168	0.5079	0.6675	0.044
Mof_C 	C 	0.26447	0.56246	0.7036	-0.067
Mof_H 	H 	0.2486	0.5837	0.7571	0.072
Mof_C 	C 	0.3077	0.56647	0.6607	0.052
Mof_C 	C 	0.34231	0.60204	0.6853	0.259
Mof_C 	C 	0.22298	0.32472	0.2338	0.397
Mof_C 	C 	0.20273	0.28287	0.1759	-0.004
Mof_C 	C 	0.15788	0.2711	0.159	-0.032
Mof_H 	H 	0.1316	0.2879	0.1873	0.057
Mof_C 	C 	0.12195	0.49084	0.5006	0.063
Mof_H 	H 	0.123	0.489	0.4103	0.029
Mof_C 	C 	0.1005	0.5294	0.5568	-0.08
Mof_H 	H 	0.0873	0.5528	0.5052	0.067
Mof_C 	C 	0.099	0.5326	0.6864	-0.03
Mof_H 	H 	0.0847	0.5585	0.7256	0.046
Mof_C 	C 	0.11836	0.49768	0.7614	0.003
Mof_C 	C 	0.11725	0.497	0.8987	-0.05
Mof_H 	H 	0.1046	0.5227	0.9428	0.061
Mof_C 	C 	0.13351	0.46133	0.9656	-0.048
Mof_H 	H 	0.131	0.4617	0.0558	0.065
Mof_C 	C 	0.15437	0.4231	0.905	0.006
Mof_C 	C 	0.17012	0.3838	0.9699	-0.027
Mof_H 	H 	0.1688	0.3825	0.0602	0.055
Mof_C 	C 	0.1871	0.3478	0.9037	-0.083
Mof_H 	H 	0.1969	0.3206	0.9467	0.072
Mof_C 	C 	0.19025	0.3507	0.7711	0.066
Mof_H 	H 	0.2031	0.3253	0.7264	0.029
Mof_C 	C 	0.15721	0.42255	0.7694	0.034
Mof_C 	C 	0.13882	0.4603	0.6972	0.031
Mof_N 	N 	0.1405	0.45735	0.5674	-0.194
Mof_N 	N 	0.17638	0.38665	0.7046	-0.19
Mof_O 	O 	0.31645	0.4489	0.4425	-0.404
Mof_O 	O 	0.24543	0.4337	0.5176	-0.457
Mof_O 	O 	0.319	0.52925	0.5843	-0.163
Mof_O 	O 	0.38204	0.60206	0.6361	-0.32
Mof_O 	O 	0.32948	0.63394	0.7605	-0.359
Mof_O 	O 	0.26587	0.3307	0.2295	-0.402
Mof_O 	O 	0.19385	0.35155	0.2815	-0.436
Mof_O 	O 	0.75	0.23124	0.875	-0.151
Mof_O 	O 	0.25	0.73124	0.375	-0.151
Mof_O 	O 	0.25	0.76876	0.875	-0.151
Mof_O 	O 	0.75	0.26876	0.375	-0.151
Mof_O 	O 	0.23124	0.25	0.125	-0.151
Mof_O 	O 	0.76876	0.75	0.125	-0.151
Mof_O 	O 	0.26876	0.25	0.625	-0.151
Mof_O 	O 	0.73124	0.75	0.625	-0.151
_end
