data_functionalizedCrystal
_audit_creation_method	'EQeq! by Chris Wilmer'
_symmetry_space_group_name_H-M	'P1'
_symmetry_Int_Tables_number	1
_symmetry_cell_setting	triclinic
loop_
_symmetry_equiv_pos_as_xyz
  x,y,z
_cell_length_a	34.829
_cell_length_b	34.829
_cell_length_c	23.497
_cell_angle_alpha	90
_cell_angle_beta	90
_cell_angle_gamma	120
loop_
_atom_site_label
_atom_site_type_symbol
_atom_site_fract_x
_atom_site_fract_y
_atom_site_fract_z
_atom_site_charge
Mof_O 	O 	0.44717	0.47387	0.43311	-0.425
Mof_O 	O 	0.43218	0.48912	0.51995	-0.42
Mof_C 	C 	0.42236	0.4759	0.4696	0.405
Mof_C 	C 	0.37554	0.46055	0.4544	-0.191
Mof_C 	C 	0.34383	0.45691	0.491	0.137
Mof_H 	H 	0.3518	0.4649	0.5288	0
Mof_C 	C 	0.30117	0.44228	0.4758	-0.21
Mof_H 	H 	0.2812	0.441	0.5029	0.117
Mof_C 	C 	0.28686	0.42916	0.4204	0.15
Mof_C 	C 	0.31871	0.43147	0.3831	-0.202
Mof_H 	H 	0.311	0.4227	0.3455	0.101
Mof_C 	C 	0.36183	0.44668	0.401	0.123
Mof_H 	H 	0.3822	0.4473	0.3748	0.004
Mof_C 	C 	0.24016	0.4111	0.4039	-0.087
Mof_C 	C 	0.22093	0.37333	0.368	-0.038
Mof_H 	H 	0.2381	0.3612	0.3562	0.042
Mof_H 	H 	0.2308	0.5066	0.3992	0.098
Mof_O 	O 	0.11384	0.8072	0.76644	-0.425
Mof_O 	O 	0.09885	0.82245	0.85328	-0.42
Mof_C 	C 	0.08903	0.80923	0.80293	0.405
Mof_C 	C 	0.04221	0.79388	0.78773	-0.191
Mof_C 	C 	0.0105	0.79024	0.82433	0.136
Mof_H 	H 	0.01847	0.79823	0.86213	0
Mof_C 	C 	0.96784	0.77561	0.80913	-0.209
Mof_H 	H 	0.94787	0.77433	0.83623	0.117
Mof_C 	C 	0.95353	0.76249	0.75373	0.15
Mof_C 	C 	0.98538	0.7648	0.71643	-0.202
Mof_H 	H 	0.97767	0.75603	0.67883	0.1
Mof_C 	C 	0.0285	0.78001	0.73433	0.123
Mof_H 	H 	0.04887	0.78063	0.70813	0.004
Mof_C 	C 	0.90683	0.74443	0.73723	-0.087
Mof_C 	C 	0.8876	0.70666	0.70133	-0.038
Mof_H 	H 	0.90477	0.69453	0.68953	0.042
Mof_H 	H 	0.89747	0.83993	0.73253	0.098
Mof_O 	O 	0.7805	0.14054	0.09978	-0.425
Mof_O 	O 	0.76551	0.15579	0.18662	-0.42
Mof_C 	C 	0.75569	0.14257	0.13627	0.405
Mof_C 	C 	0.70887	0.12722	0.12107	-0.191
Mof_C 	C 	0.67716	0.12358	0.15767	0.137
Mof_H 	H 	0.68513	0.13157	0.19547	0
Mof_C 	C 	0.6345	0.10895	0.14247	-0.21
Mof_H 	H 	0.61453	0.10767	0.16957	0.117
Mof_C 	C 	0.62019	0.09583	0.08707	0.15
Mof_C 	C 	0.65204	0.09814	0.04977	-0.202
Mof_H 	H 	0.64433	0.08937	0.01217	0.101
Mof_C 	C 	0.69516	0.11335	0.06767	0.123
Mof_H 	H 	0.71553	0.11397	0.04147	0.004
Mof_C 	C 	0.57349	0.07777	0.07057	-0.087
Mof_C 	C 	0.55426	0.04	0.03467	-0.038
Mof_H 	H 	0.57143	0.02787	0.02287	0.042
Mof_H 	H 	0.56413	0.17327	0.06587	0.098
Mof_O 	O 	0.52613	0.9733	0.43311	-0.425
Mof_O 	O 	0.51088	0.94306	0.51995	-0.42
Mof_C 	C 	0.5241	0.94646	0.4696	0.405
Mof_C 	C 	0.53945	0.91499	0.4544	-0.191
Mof_C 	C 	0.54309	0.88692	0.491	0.137
Mof_H 	H 	0.5351	0.8869	0.5288	0
Mof_C 	C 	0.55772	0.85889	0.4758	-0.21
Mof_H 	H 	0.559	0.8402	0.5029	0.117
Mof_C 	C 	0.57084	0.8577	0.4204	0.15
Mof_C 	C 	0.56853	0.88724	0.3831	-0.202
Mof_H 	H 	0.5773	0.8883	0.3455	0.101
Mof_C 	C 	0.55332	0.91515	0.401	0.123
Mof_H 	H 	0.5527	0.9349	0.3748	0.004
Mof_C 	C 	0.5889	0.82906	0.4039	-0.087
Mof_C 	C 	0.62667	0.8476	0.368	-0.038
Mof_H 	H 	0.6388	0.8769	0.3562	0.042
Mof_H 	H 	0.4934	0.7242	0.3992	0.098
Mof_O 	O 	0.1928	0.30663	0.76644	-0.425
Mof_O 	O 	0.17755	0.27639	0.85328	-0.42
Mof_C 	C 	0.19077	0.27979	0.80293	0.405
Mof_C 	C 	0.20612	0.24832	0.78773	-0.191
Mof_C 	C 	0.20976	0.22025	0.82433	0.137
Mof_H 	H 	0.20177	0.22023	0.86213	0
Mof_C 	C 	0.22439	0.19222	0.80913	-0.21
Mof_H 	H 	0.22567	0.17353	0.83623	0.117
Mof_C 	C 	0.23751	0.19103	0.75373	0.15
Mof_C 	C 	0.2352	0.22057	0.71643	-0.202
Mof_H 	H 	0.24397	0.22163	0.67883	0.101
Mof_C 	C 	0.21999	0.24848	0.73433	0.123
Mof_H 	H 	0.21937	0.26823	0.70813	0.005
Mof_C 	C 	0.25557	0.16239	0.73723	-0.086
Mof_C 	C 	0.29334	0.18093	0.70133	-0.037
Mof_H 	H 	0.30547	0.21023	0.68953	0.043
Mof_H 	H 	0.16007	0.05753	0.73253	0.099
Mof_O 	O 	0.85946	0.63997	0.09978	-0.424
Mof_O 	O 	0.84421	0.60973	0.18662	-0.419
Mof_C 	C 	0.85743	0.61313	0.13627	0.406
Mof_C 	C 	0.87278	0.58166	0.12107	-0.19
Mof_C 	C 	0.87642	0.55359	0.15767	0.138
Mof_H 	H 	0.86843	0.55357	0.19547	0.001
Mof_C 	C 	0.89105	0.52556	0.14247	-0.209
Mof_H 	H 	0.89233	0.50687	0.16957	0.118
Mof_C 	C 	0.90417	0.52437	0.08707	0.151
Mof_C 	C 	0.90186	0.55391	0.04977	-0.201
Mof_H 	H 	0.91063	0.55497	0.01217	0.102
Mof_C 	C 	0.88665	0.58182	0.06767	0.124
Mof_H 	H 	0.88603	0.60157	0.04147	0.005
Mof_C 	C 	0.92223	0.49573	0.07057	-0.086
Mof_C 	C 	0.96	0.51427	0.03467	-0.037
Mof_H 	H 	0.97213	0.54357	0.02287	0.043
Mof_H 	H 	0.82673	0.39087	0.06587	0.099
Mof_O 	O 	0.0267	0.55283	0.43311	-0.424
Mof_O 	O 	0.05694	0.56782	0.51995	-0.419
Mof_C 	C 	0.05354	0.57764	0.4696	0.406
Mof_C 	C 	0.08501	0.62446	0.4544	-0.19
Mof_C 	C 	0.11308	0.65617	0.491	0.138
Mof_H 	H 	0.1131	0.6482	0.5288	0.001
Mof_C 	C 	0.14111	0.69883	0.4758	-0.209
Mof_H 	H 	0.1598	0.7188	0.5029	0.118
Mof_C 	C 	0.1423	0.71314	0.4204	0.151
Mof_C 	C 	0.11276	0.68129	0.3831	-0.201
Mof_H 	H 	0.1117	0.689	0.3455	0.102
Mof_C 	C 	0.08485	0.63817	0.401	0.124
Mof_H 	H 	0.0651	0.6178	0.3748	0.005
Mof_C 	C 	0.17094	0.75984	0.4039	-0.086
Mof_C 	C 	0.1524	0.77907	0.368	-0.037
Mof_H 	H 	0.1231	0.7619	0.3562	0.043
Mof_H 	H 	0.2758	0.7692	0.3992	0.099
Mof_O 	O 	0.69337	0.88616	0.76644	-0.424
Mof_O 	O 	0.72361	0.90115	0.85328	-0.419
Mof_C 	C 	0.72021	0.91097	0.80293	0.406
Mof_C 	C 	0.75168	0.95779	0.78773	-0.19
Mof_C 	C 	0.77975	0.9895	0.82433	0.137
Mof_H 	H 	0.77977	0.98153	0.86213	0.001
Mof_C 	C 	0.80778	0.03216	0.80913	-0.208
Mof_H 	H 	0.82647	0.05213	0.83623	0.117
Mof_C 	C 	0.80897	0.04647	0.75373	0.151
Mof_C 	C 	0.77943	0.01462	0.71643	-0.201
Mof_H 	H 	0.77837	0.02233	0.67883	0.101
Mof_C 	C 	0.75152	0.9715	0.73433	0.124
Mof_H 	H 	0.73177	0.95113	0.70813	0.005
Mof_C 	C 	0.83761	0.09317	0.73723	-0.086
Mof_C 	C 	0.81907	0.1124	0.70133	-0.037
Mof_H 	H 	0.78977	0.09523	0.68953	0.043
Mof_H 	H 	0.94247	0.10253	0.73253	0.1
Mof_O 	O 	0.36003	0.2195	0.09978	-0.424
Mof_O 	O 	0.39027	0.23449	0.18662	-0.419
Mof_C 	C 	0.38687	0.24431	0.13627	0.406
Mof_C 	C 	0.41834	0.29113	0.12107	-0.19
Mof_C 	C 	0.44641	0.32284	0.15767	0.138
Mof_H 	H 	0.44643	0.31487	0.19547	0.001
Mof_C 	C 	0.47444	0.3655	0.14247	-0.209
Mof_H 	H 	0.49313	0.38547	0.16957	0.118
Mof_C 	C 	0.47563	0.37981	0.08707	0.151
Mof_C 	C 	0.44609	0.34796	0.04977	-0.201
Mof_H 	H 	0.44503	0.35567	0.01217	0.102
Mof_C 	C 	0.41818	0.30484	0.06767	0.124
Mof_H 	H 	0.39843	0.28447	0.04147	0.005
Mof_C 	C 	0.50427	0.42651	0.07057	-0.086
Mof_C 	C 	0.48573	0.44574	0.03467	-0.037
Mof_H 	H 	0.45643	0.42857	0.02287	0.043
Mof_H 	H 	0.60913	0.43587	0.06587	0.099
Mof_O 	O 	0.47387	0.44717	0.56689	-0.424
Mof_O 	O 	0.48912	0.43218	0.48005	-0.419
Mof_C 	C 	0.4759	0.42236	0.5304	0.406
Mof_C 	C 	0.46055	0.37554	0.5456	-0.19
Mof_C 	C 	0.45691	0.34383	0.509	0.138
Mof_H 	H 	0.4649	0.3518	0.4712	0.001
Mof_C 	C 	0.44228	0.30117	0.5242	-0.209
Mof_H 	H 	0.441	0.2812	0.4971	0.118
Mof_C 	C 	0.42916	0.28686	0.5796	0.151
Mof_C 	C 	0.43147	0.31871	0.6169	-0.201
Mof_H 	H 	0.4227	0.311	0.6545	0.102
Mof_C 	C 	0.44668	0.36183	0.599	0.124
Mof_H 	H 	0.4473	0.3822	0.6252	0.005
Mof_C 	C 	0.4111	0.24016	0.5961	-0.086
Mof_C 	C 	0.37333	0.22093	0.632	-0.037
Mof_H 	H 	0.3612	0.2381	0.6438	0.043
Mof_H 	H 	0.5066	0.2308	0.6008	0.099
Mof_O 	O 	0.14054	0.7805	0.90022	-0.424
Mof_O 	O 	0.15579	0.76551	0.81338	-0.419
Mof_C 	C 	0.14257	0.75569	0.86373	0.406
Mof_C 	C 	0.12722	0.70887	0.87893	-0.19
Mof_C 	C 	0.12358	0.67716	0.84233	0.138
Mof_H 	H 	0.13157	0.68513	0.80453	0.001
Mof_C 	C 	0.10895	0.6345	0.85753	-0.209
Mof_H 	H 	0.10767	0.61453	0.83043	0.118
Mof_C 	C 	0.09583	0.62019	0.91293	0.151
Mof_C 	C 	0.09814	0.65204	0.95023	-0.201
Mof_H 	H 	0.08937	0.64433	0.98783	0.102
Mof_C 	C 	0.11335	0.69516	0.93233	0.124
Mof_H 	H 	0.11397	0.71553	0.95853	0.005
Mof_C 	C 	0.07777	0.57349	0.92943	-0.086
Mof_C 	C 	0.04	0.55426	0.96533	-0.037
Mof_H 	H 	0.02787	0.57143	0.97713	0.043
Mof_H 	H 	0.17327	0.56413	0.93413	0.099
Mof_O 	O 	0.8072	0.11384	0.23356	-0.424
Mof_O 	O 	0.82245	0.09885	0.14672	-0.419
Mof_C 	C 	0.80923	0.08903	0.19707	0.406
Mof_C 	C 	0.79388	0.04221	0.21227	-0.19
Mof_C 	C 	0.79024	0.0105	0.17567	0.137
Mof_H 	H 	0.79823	0.01847	0.13787	0.001
Mof_C 	C 	0.77561	0.96784	0.19087	-0.208
Mof_H 	H 	0.77433	0.94787	0.16377	0.118
Mof_C 	C 	0.76249	0.95353	0.24627	0.151
Mof_C 	C 	0.7648	0.98538	0.28357	-0.201
Mof_H 	H 	0.75603	0.97767	0.32117	0.101
Mof_C 	C 	0.78001	0.0285	0.26567	0.124
Mof_H 	H 	0.78063	0.04887	0.29187	0.005
Mof_C 	C 	0.74443	0.90683	0.26277	-0.086
Mof_C 	C 	0.70666	0.8876	0.29867	-0.037
Mof_H 	H 	0.69453	0.90477	0.31047	0.043
Mof_H 	H 	0.83993	0.89747	0.26747	0.099
Mof_O 	O 	0.9733	0.52613	0.56689	-0.424
Mof_O 	O 	0.94306	0.51088	0.48005	-0.419
Mof_C 	C 	0.94646	0.5241	0.5304	0.406
Mof_C 	C 	0.91499	0.53945	0.5456	-0.19
Mof_C 	C 	0.88692	0.54309	0.509	0.138
Mof_H 	H 	0.8869	0.5351	0.4712	0.001
Mof_C 	C 	0.85889	0.55772	0.5242	-0.209
Mof_H 	H 	0.8402	0.559	0.4971	0.118
Mof_C 	C 	0.8577	0.57084	0.5796	0.151
Mof_C 	C 	0.88724	0.56853	0.6169	-0.201
Mof_H 	H 	0.8883	0.5773	0.6545	0.102
Mof_C 	C 	0.91515	0.55332	0.599	0.124
Mof_H 	H 	0.9349	0.5527	0.6252	0.005
Mof_C 	C 	0.82906	0.5889	0.5961	-0.086
Mof_C 	C 	0.8476	0.62667	0.632	-0.037
Mof_H 	H 	0.8769	0.6388	0.6438	0.043
Mof_H 	H 	0.7242	0.4934	0.6008	0.099
Mof_O 	O 	0.63997	0.85946	0.90022	-0.424
Mof_O 	O 	0.60973	0.84421	0.81338	-0.419
Mof_C 	C 	0.61313	0.85743	0.86373	0.406
Mof_C 	C 	0.58166	0.87278	0.87893	-0.19
Mof_C 	C 	0.55359	0.87642	0.84233	0.138
Mof_H 	H 	0.55357	0.86843	0.80453	0.001
Mof_C 	C 	0.52556	0.89105	0.85753	-0.209
Mof_H 	H 	0.50687	0.89233	0.83043	0.118
Mof_C 	C 	0.52437	0.90417	0.91293	0.151
Mof_C 	C 	0.55391	0.90186	0.95023	-0.201
Mof_H 	H 	0.55497	0.91063	0.98783	0.102
Mof_C 	C 	0.58182	0.88665	0.93233	0.124
Mof_H 	H 	0.60157	0.88603	0.95853	0.005
Mof_C 	C 	0.49573	0.92223	0.92943	-0.086
Mof_C 	C 	0.51427	0.96	0.96533	-0.037
Mof_H 	H 	0.54357	0.97213	0.97713	0.043
Mof_H 	H 	0.39087	0.82673	0.93413	0.099
Mof_O 	O 	0.30663	0.1928	0.23356	-0.424
Mof_O 	O 	0.27639	0.17755	0.14672	-0.419
Mof_C 	C 	0.27979	0.19077	0.19707	0.406
Mof_C 	C 	0.24832	0.20612	0.21227	-0.19
Mof_C 	C 	0.22025	0.20976	0.17567	0.138
Mof_H 	H 	0.22023	0.20177	0.13787	0.001
Mof_C 	C 	0.19222	0.22439	0.19087	-0.209
Mof_H 	H 	0.17353	0.22567	0.16377	0.118
Mof_C 	C 	0.19103	0.23751	0.24627	0.151
Mof_C 	C 	0.22057	0.2352	0.28357	-0.201
Mof_H 	H 	0.22163	0.24397	0.32117	0.102
Mof_C 	C 	0.24848	0.21999	0.26567	0.124
Mof_H 	H 	0.26823	0.21937	0.29187	0.005
Mof_C 	C 	0.16239	0.25557	0.26277	-0.086
Mof_C 	C 	0.18093	0.29334	0.29867	-0.037
Mof_H 	H 	0.21023	0.30547	0.31047	0.043
Mof_H 	H 	0.05753	0.16007	0.26747	0.099
Mof_O 	O 	0.55283	0.0267	0.56689	-0.424
Mof_O 	O 	0.56782	0.05694	0.48005	-0.419
Mof_C 	C 	0.57764	0.05354	0.5304	0.406
Mof_C 	C 	0.62446	0.08501	0.5456	-0.19
Mof_C 	C 	0.65617	0.11308	0.509	0.138
Mof_H 	H 	0.6482	0.1131	0.4712	0.001
Mof_C 	C 	0.69883	0.14111	0.5242	-0.209
Mof_H 	H 	0.7188	0.1598	0.4971	0.118
Mof_C 	C 	0.71314	0.1423	0.5796	0.151
Mof_C 	C 	0.68129	0.11276	0.6169	-0.201
Mof_H 	H 	0.689	0.1117	0.6545	0.102
Mof_C 	C 	0.63817	0.08485	0.599	0.124
Mof_H 	H 	0.6178	0.0651	0.6252	0.005
Mof_C 	C 	0.75984	0.17094	0.5961	-0.086
Mof_C 	C 	0.77907	0.1524	0.632	-0.037
Mof_H 	H 	0.7619	0.1231	0.6438	0.043
Mof_H 	H 	0.7692	0.2758	0.6008	0.099
Mof_O 	O 	0.2195	0.36003	0.90022	-0.424
Mof_O 	O 	0.23449	0.39027	0.81338	-0.419
Mof_C 	C 	0.24431	0.38687	0.86373	0.406
Mof_C 	C 	0.29113	0.41834	0.87893	-0.19
Mof_C 	C 	0.32284	0.44641	0.84233	0.138
Mof_H 	H 	0.31487	0.44643	0.80453	0.001
Mof_C 	C 	0.3655	0.47444	0.85753	-0.209
Mof_H 	H 	0.38547	0.49313	0.83043	0.118
Mof_C 	C 	0.37981	0.47563	0.91293	0.151
Mof_C 	C 	0.34796	0.44609	0.95023	-0.201
Mof_H 	H 	0.35567	0.44503	0.98783	0.102
Mof_C 	C 	0.30484	0.41818	0.93233	0.124
Mof_H 	H 	0.28447	0.39843	0.95853	0.005
Mof_C 	C 	0.42651	0.50427	0.92943	-0.086
Mof_C 	C 	0.44574	0.48573	0.96533	-0.037
Mof_H 	H 	0.42857	0.45643	0.97713	0.043
Mof_H 	H 	0.43587	0.60913	0.93413	0.099
Mof_O 	O 	0.88616	0.69337	0.23356	-0.424
Mof_O 	O 	0.90115	0.72361	0.14672	-0.419
Mof_C 	C 	0.91097	0.72021	0.19707	0.406
Mof_C 	C 	0.95779	0.75168	0.21227	-0.19
Mof_C 	C 	0.9895	0.77975	0.17567	0.137
Mof_H 	H 	0.98153	0.77977	0.13787	0.001
Mof_C 	C 	0.03216	0.80778	0.19087	-0.208
Mof_H 	H 	0.05213	0.82647	0.16377	0.117
Mof_C 	C 	0.04647	0.80897	0.24627	0.151
Mof_C 	C 	0.01462	0.77943	0.28357	-0.201
Mof_H 	H 	0.02233	0.77837	0.32117	0.101
Mof_C 	C 	0.9715	0.75152	0.26567	0.124
Mof_H 	H 	0.95113	0.73177	0.29187	0.005
Mof_C 	C 	0.09317	0.83761	0.26277	-0.086
Mof_C 	C 	0.1124	0.81907	0.29867	-0.037
Mof_H 	H 	0.09523	0.78977	0.31047	0.043
Mof_H 	H 	0.10253	0.94247	0.26747	0.1
Mof_O 	O 	0.55283	0.52613	0.56689	-0.424
Mof_O 	O 	0.56782	0.51088	0.48005	-0.419
Mof_C 	C 	0.57764	0.5241	0.5304	0.406
Mof_C 	C 	0.62446	0.53945	0.5456	-0.19
Mof_C 	C 	0.65617	0.54309	0.509	0.138
Mof_H 	H 	0.6482	0.5351	0.4712	0.001
Mof_C 	C 	0.69883	0.55772	0.5242	-0.209
Mof_H 	H 	0.7188	0.559	0.4971	0.118
Mof_C 	C 	0.71314	0.57084	0.5796	0.151
Mof_C 	C 	0.68129	0.56853	0.6169	-0.201
Mof_H 	H 	0.689	0.5773	0.6545	0.102
Mof_C 	C 	0.63817	0.55332	0.599	0.124
Mof_H 	H 	0.6178	0.5527	0.6252	0.005
Mof_C 	C 	0.75984	0.5889	0.5961	-0.086
Mof_C 	C 	0.77907	0.62667	0.632	-0.037
Mof_H 	H 	0.7619	0.6388	0.6438	0.043
Mof_H 	H 	0.7692	0.4934	0.6008	0.099
Mof_O 	O 	0.2195	0.85946	0.90022	-0.424
Mof_O 	O 	0.23449	0.84421	0.81338	-0.419
Mof_C 	C 	0.24431	0.85743	0.86373	0.406
Mof_C 	C 	0.29113	0.87278	0.87893	-0.19
Mof_C 	C 	0.32284	0.87642	0.84233	0.138
Mof_H 	H 	0.31487	0.86843	0.80453	0.001
Mof_C 	C 	0.3655	0.89105	0.85753	-0.209
Mof_H 	H 	0.38547	0.89233	0.83043	0.118
Mof_C 	C 	0.37981	0.90417	0.91293	0.151
Mof_C 	C 	0.34796	0.90186	0.95023	-0.201
Mof_H 	H 	0.35567	0.91063	0.98783	0.102
Mof_C 	C 	0.30484	0.88665	0.93233	0.124
Mof_H 	H 	0.28447	0.88603	0.95853	0.005
Mof_C 	C 	0.42651	0.92223	0.92943	-0.086
Mof_C 	C 	0.44574	0.96	0.96533	-0.037
Mof_H 	H 	0.42857	0.97213	0.97713	0.043
Mof_H 	H 	0.43587	0.82673	0.93413	0.099
Mof_O 	O 	0.88616	0.1928	0.23356	-0.424
Mof_O 	O 	0.90115	0.17755	0.14672	-0.419
Mof_C 	C 	0.91097	0.19077	0.19707	0.406
Mof_C 	C 	0.95779	0.20612	0.21227	-0.19
Mof_C 	C 	0.9895	0.20976	0.17567	0.137
Mof_H 	H 	0.98153	0.20177	0.13787	0.001
Mof_C 	C 	0.03216	0.22439	0.19087	-0.208
Mof_H 	H 	0.05213	0.22567	0.16377	0.118
Mof_C 	C 	0.04647	0.23751	0.24627	0.151
Mof_C 	C 	0.01462	0.2352	0.28357	-0.201
Mof_H 	H 	0.02233	0.24397	0.32117	0.101
Mof_C 	C 	0.9715	0.21999	0.26567	0.124
Mof_H 	H 	0.95113	0.21937	0.29187	0.005
Mof_C 	C 	0.09317	0.25557	0.26277	-0.086
Mof_C 	C 	0.1124	0.29334	0.29867	-0.037
Mof_H 	H 	0.09523	0.30547	0.31047	0.043
Mof_H 	H 	0.10253	0.16007	0.26747	0.099
Mof_O 	O 	0.47387	0.0267	0.56689	-0.424
Mof_O 	O 	0.48912	0.05694	0.48005	-0.419
Mof_C 	C 	0.4759	0.05354	0.5304	0.406
Mof_C 	C 	0.46055	0.08501	0.5456	-0.19
Mof_C 	C 	0.45691	0.11308	0.509	0.138
Mof_H 	H 	0.4649	0.1131	0.4712	0.001
Mof_C 	C 	0.44228	0.14111	0.5242	-0.209
Mof_H 	H 	0.441	0.1598	0.4971	0.118
Mof_C 	C 	0.42916	0.1423	0.5796	0.151
Mof_C 	C 	0.43147	0.11276	0.6169	-0.201
Mof_H 	H 	0.4227	0.1117	0.6545	0.102
Mof_C 	C 	0.44668	0.08485	0.599	0.124
Mof_H 	H 	0.4473	0.0651	0.6252	0.005
Mof_C 	C 	0.4111	0.17094	0.5961	-0.086
Mof_C 	C 	0.37333	0.1524	0.632	-0.037
Mof_H 	H 	0.3612	0.1231	0.6438	0.043
Mof_H 	H 	0.5066	0.2758	0.6008	0.099
Mof_O 	O 	0.14054	0.36003	0.90022	-0.424
Mof_O 	O 	0.15579	0.39027	0.81338	-0.419
Mof_C 	C 	0.14257	0.38687	0.86373	0.406
Mof_C 	C 	0.12722	0.41834	0.87893	-0.19
Mof_C 	C 	0.12358	0.44641	0.84233	0.138
Mof_H 	H 	0.13157	0.44643	0.80453	0.001
Mof_C 	C 	0.10895	0.47444	0.85753	-0.209
Mof_H 	H 	0.10767	0.49313	0.83043	0.118
Mof_C 	C 	0.09583	0.47563	0.91293	0.151
Mof_C 	C 	0.09814	0.44609	0.95023	-0.201
Mof_H 	H 	0.08937	0.44503	0.98783	0.102
Mof_C 	C 	0.11335	0.41818	0.93233	0.124
Mof_H 	H 	0.11397	0.39843	0.95853	0.005
Mof_C 	C 	0.07777	0.50427	0.92943	-0.086
Mof_C 	C 	0.04	0.48573	0.96533	-0.037
Mof_H 	H 	0.02787	0.45643	0.97713	0.043
Mof_H 	H 	0.17327	0.60913	0.93413	0.099
Mof_O 	O 	0.8072	0.69337	0.23356	-0.424
Mof_O 	O 	0.82245	0.72361	0.14672	-0.419
Mof_C 	C 	0.80923	0.72021	0.19707	0.406
Mof_C 	C 	0.79388	0.75168	0.21227	-0.19
Mof_C 	C 	0.79024	0.77975	0.17567	0.138
Mof_H 	H 	0.79823	0.77977	0.13787	0.001
Mof_C 	C 	0.77561	0.80778	0.19087	-0.209
Mof_H 	H 	0.77433	0.82647	0.16377	0.118
Mof_C 	C 	0.76249	0.80897	0.24627	0.151
Mof_C 	C 	0.7648	0.77943	0.28357	-0.201
Mof_H 	H 	0.75603	0.77837	0.32117	0.102
Mof_C 	C 	0.78001	0.75152	0.26567	0.124
Mof_H 	H 	0.78063	0.73177	0.29187	0.005
Mof_C 	C 	0.74443	0.83761	0.26277	-0.086
Mof_C 	C 	0.70666	0.81907	0.29867	-0.037
Mof_H 	H 	0.69453	0.78977	0.31047	0.043
Mof_H 	H 	0.83993	0.94247	0.26747	0.099
Mof_O 	O 	0.9733	0.44717	0.56689	-0.424
Mof_O 	O 	0.94306	0.43218	0.48005	-0.419
Mof_C 	C 	0.94646	0.42236	0.5304	0.406
Mof_C 	C 	0.91499	0.37554	0.5456	-0.19
Mof_C 	C 	0.88692	0.34383	0.509	0.138
Mof_H 	H 	0.8869	0.3518	0.4712	0.001
Mof_C 	C 	0.85889	0.30117	0.5242	-0.209
Mof_H 	H 	0.8402	0.2812	0.4971	0.118
Mof_C 	C 	0.8577	0.28686	0.5796	0.151
Mof_C 	C 	0.88724	0.31871	0.6169	-0.201
Mof_H 	H 	0.8883	0.311	0.6545	0.102
Mof_C 	C 	0.91515	0.36183	0.599	0.124
Mof_H 	H 	0.9349	0.3822	0.6252	0.005
Mof_C 	C 	0.82906	0.24016	0.5961	-0.086
Mof_C 	C 	0.8476	0.22093	0.632	-0.037
Mof_H 	H 	0.8769	0.2381	0.6438	0.043
Mof_H 	H 	0.7242	0.2308	0.6008	0.099
Mof_O 	O 	0.63997	0.7805	0.90022	-0.424
Mof_O 	O 	0.60973	0.76551	0.81338	-0.419
Mof_C 	C 	0.61313	0.75569	0.86373	0.406
Mof_C 	C 	0.58166	0.70887	0.87893	-0.19
Mof_C 	C 	0.55359	0.67716	0.84233	0.138
Mof_H 	H 	0.55357	0.68513	0.80453	0.001
Mof_C 	C 	0.52556	0.6345	0.85753	-0.209
Mof_H 	H 	0.50687	0.61453	0.83043	0.118
Mof_C 	C 	0.52437	0.62019	0.91293	0.151
Mof_C 	C 	0.55391	0.65204	0.95023	-0.201
Mof_H 	H 	0.55497	0.64433	0.98783	0.102
Mof_C 	C 	0.58182	0.69516	0.93233	0.124
Mof_H 	H 	0.60157	0.71553	0.95853	0.005
Mof_C 	C 	0.49573	0.57349	0.92943	-0.086
Mof_C 	C 	0.51427	0.55426	0.96533	-0.037
Mof_H 	H 	0.54357	0.57143	0.97713	0.043
Mof_H 	H 	0.39087	0.56413	0.93413	0.099
Mof_O 	O 	0.30663	0.11384	0.23356	-0.424
Mof_O 	O 	0.27639	0.09885	0.14672	-0.419
Mof_C 	C 	0.27979	0.08903	0.19707	0.406
Mof_C 	C 	0.24832	0.04221	0.21227	-0.19
Mof_C 	C 	0.22025	0.0105	0.17567	0.137
Mof_H 	H 	0.22023	0.01847	0.13787	0.001
Mof_C 	C 	0.19222	0.96784	0.19087	-0.208
Mof_H 	H 	0.17353	0.94787	0.16377	0.117
Mof_C 	C 	0.19103	0.95353	0.24627	0.151
Mof_C 	C 	0.22057	0.98538	0.28357	-0.201
Mof_H 	H 	0.22163	0.97767	0.32117	0.101
Mof_C 	C 	0.24848	0.0285	0.26567	0.124
Mof_H 	H 	0.26823	0.04887	0.29187	0.005
Mof_C 	C 	0.16239	0.90683	0.26277	-0.086
Mof_C 	C 	0.18093	0.8876	0.29867	-0.037
Mof_H 	H 	0.21023	0.90477	0.31047	0.043
Mof_H 	H 	0.05753	0.89747	0.26747	0.1
Mof_O 	O 	0.52613	0.55283	0.43311	-0.424
Mof_O 	O 	0.51088	0.56782	0.51995	-0.419
Mof_C 	C 	0.5241	0.57764	0.4696	0.406
Mof_C 	C 	0.53945	0.62446	0.4544	-0.19
Mof_C 	C 	0.54309	0.65617	0.491	0.138
Mof_H 	H 	0.5351	0.6482	0.5288	0.001
Mof_C 	C 	0.55772	0.69883	0.4758	-0.209
Mof_H 	H 	0.559	0.7188	0.5029	0.118
Mof_C 	C 	0.57084	0.71314	0.4204	0.151
Mof_C 	C 	0.56853	0.68129	0.3831	-0.201
Mof_H 	H 	0.5773	0.689	0.3455	0.102
Mof_C 	C 	0.55332	0.63817	0.401	0.124
Mof_H 	H 	0.5527	0.6178	0.3748	0.005
Mof_C 	C 	0.5889	0.75984	0.4039	-0.086
Mof_C 	C 	0.62667	0.77907	0.368	-0.037
Mof_H 	H 	0.6388	0.7619	0.3562	0.043
Mof_H 	H 	0.4934	0.7692	0.3992	0.099
Mof_O 	O 	0.1928	0.88616	0.76644	-0.424
Mof_O 	O 	0.17755	0.90115	0.85328	-0.419
Mof_C 	C 	0.19077	0.91097	0.80293	0.406
Mof_C 	C 	0.20612	0.95779	0.78773	-0.19
Mof_C 	C 	0.20976	0.9895	0.82433	0.137
Mof_H 	H 	0.20177	0.98153	0.86213	0.001
Mof_C 	C 	0.22439	0.03216	0.80913	-0.208
Mof_H 	H 	0.22567	0.05213	0.83623	0.118
Mof_C 	C 	0.23751	0.04647	0.75373	0.151
Mof_C 	C 	0.2352	0.01462	0.71643	-0.201
Mof_H 	H 	0.24397	0.02233	0.67883	0.101
Mof_C 	C 	0.21999	0.9715	0.73433	0.124
Mof_H 	H 	0.21937	0.95113	0.70813	0.005
Mof_C 	C 	0.25557	0.09317	0.73723	-0.086
Mof_C 	C 	0.29334	0.1124	0.70133	-0.037
Mof_H 	H 	0.30547	0.09523	0.68953	0.043
Mof_H 	H 	0.16007	0.10253	0.73253	0.099
Mof_O 	O 	0.85946	0.2195	0.09978	-0.424
Mof_O 	O 	0.84421	0.23449	0.18662	-0.419
Mof_C 	C 	0.85743	0.24431	0.13627	0.406
Mof_C 	C 	0.87278	0.29113	0.12107	-0.19
Mof_C 	C 	0.87642	0.32284	0.15767	0.138
Mof_H 	H 	0.86843	0.31487	0.19547	0.001
Mof_C 	C 	0.89105	0.3655	0.14247	-0.209
Mof_H 	H 	0.89233	0.38547	0.16957	0.118
Mof_C 	C 	0.90417	0.37981	0.08707	0.151
Mof_C 	C 	0.90186	0.34796	0.04977	-0.201
Mof_H 	H 	0.91063	0.35567	0.01217	0.102
Mof_C 	C 	0.88665	0.30484	0.06767	0.124
Mof_H 	H 	0.88603	0.28447	0.04147	0.005
Mof_C 	C 	0.92223	0.42651	0.07057	-0.086
Mof_C 	C 	0.96	0.44574	0.03467	-0.037
Mof_H 	H 	0.97213	0.42857	0.02287	0.043
Mof_H 	H 	0.82673	0.43587	0.06587	0.099
Mof_O 	O 	0.0267	0.47387	0.43311	-0.424
Mof_O 	O 	0.05694	0.48912	0.51995	-0.419
Mof_C 	C 	0.05354	0.4759	0.4696	0.406
Mof_C 	C 	0.08501	0.46055	0.4544	-0.19
Mof_C 	C 	0.11308	0.45691	0.491	0.138
Mof_H 	H 	0.1131	0.4649	0.5288	0.001
Mof_C 	C 	0.14111	0.44228	0.4758	-0.209
Mof_H 	H 	0.1598	0.441	0.5029	0.118
Mof_C 	C 	0.1423	0.42916	0.4204	0.151
Mof_C 	C 	0.11276	0.43147	0.3831	-0.201
Mof_H 	H 	0.1117	0.4227	0.3455	0.102
Mof_C 	C 	0.08485	0.44668	0.401	0.124
Mof_H 	H 	0.0651	0.4473	0.3748	0.005
Mof_C 	C 	0.17094	0.4111	0.4039	-0.086
Mof_C 	C 	0.1524	0.37333	0.368	-0.037
Mof_H 	H 	0.1231	0.3612	0.3562	0.043
Mof_H 	H 	0.2758	0.5066	0.3992	0.099
Mof_O 	O 	0.69337	0.8072	0.76644	-0.424
Mof_O 	O 	0.72361	0.82245	0.85328	-0.419
Mof_C 	C 	0.72021	0.80923	0.80293	0.406
Mof_C 	C 	0.75168	0.79388	0.78773	-0.19
Mof_C 	C 	0.77975	0.79024	0.82433	0.138
Mof_H 	H 	0.77977	0.79823	0.86213	0.001
Mof_C 	C 	0.80778	0.77561	0.80913	-0.209
Mof_H 	H 	0.82647	0.77433	0.83623	0.118
Mof_C 	C 	0.80897	0.76249	0.75373	0.151
Mof_C 	C 	0.77943	0.7648	0.71643	-0.201
Mof_H 	H 	0.77837	0.75603	0.67883	0.102
Mof_C 	C 	0.75152	0.78001	0.73433	0.124
Mof_H 	H 	0.73177	0.78063	0.70813	0.005
Mof_C 	C 	0.83761	0.74443	0.73723	-0.086
Mof_C 	C 	0.81907	0.70666	0.70133	-0.037
Mof_H 	H 	0.78977	0.69453	0.68953	0.043
Mof_H 	H 	0.94247	0.83993	0.73253	0.099
Mof_O 	O 	0.36003	0.14054	0.09978	-0.424
Mof_O 	O 	0.39027	0.15579	0.18662	-0.419
Mof_C 	C 	0.38687	0.14257	0.13627	0.406
Mof_C 	C 	0.41834	0.12722	0.12107	-0.19
Mof_C 	C 	0.44641	0.12358	0.15767	0.138
Mof_H 	H 	0.44643	0.13157	0.19547	0.001
Mof_C 	C 	0.47444	0.10895	0.14247	-0.209
Mof_H 	H 	0.49313	0.10767	0.16957	0.118
Mof_C 	C 	0.47563	0.09583	0.08707	0.151
Mof_C 	C 	0.44609	0.09814	0.04977	-0.201
Mof_H 	H 	0.44503	0.08937	0.01217	0.102
Mof_C 	C 	0.41818	0.11335	0.06767	0.124
Mof_H 	H 	0.39843	0.11397	0.04147	0.005
Mof_C 	C 	0.50427	0.07777	0.07057	-0.086
Mof_C 	C 	0.48573	0.04	0.03467	-0.037
Mof_H 	H 	0.45643	0.02787	0.02287	0.043
Mof_H 	H 	0.60913	0.17327	0.06587	0.099
Mof_O 	O 	0.44717	0.9733	0.43311	-0.424
Mof_O 	O 	0.43218	0.94306	0.51995	-0.419
Mof_C 	C 	0.42236	0.94646	0.4696	0.406
Mof_C 	C 	0.37554	0.91499	0.4544	-0.19
Mof_C 	C 	0.34383	0.88692	0.491	0.138
Mof_H 	H 	0.3518	0.8869	0.5288	0.001
Mof_C 	C 	0.30117	0.85889	0.4758	-0.209
Mof_H 	H 	0.2812	0.8402	0.5029	0.118
Mof_C 	C 	0.28686	0.8577	0.4204	0.151
Mof_C 	C 	0.31871	0.88724	0.3831	-0.201
Mof_H 	H 	0.311	0.8883	0.3455	0.102
Mof_C 	C 	0.36183	0.91515	0.401	0.124
Mof_H 	H 	0.3822	0.9349	0.3748	0.005
Mof_C 	C 	0.24016	0.82906	0.4039	-0.086
Mof_C 	C 	0.22093	0.8476	0.368	-0.037
Mof_H 	H 	0.2381	0.8769	0.3562	0.043
Mof_H 	H 	0.2308	0.7242	0.3992	0.099
Mof_O 	O 	0.11384	0.30663	0.76644	-0.424
Mof_O 	O 	0.09885	0.27639	0.85328	-0.419
Mof_C 	C 	0.08903	0.27979	0.80293	0.406
Mof_C 	C 	0.04221	0.24832	0.78773	-0.19
Mof_C 	C 	0.0105	0.22025	0.82433	0.137
Mof_H 	H 	0.01847	0.22023	0.86213	0.001
Mof_C 	C 	0.96784	0.19222	0.80913	-0.208
Mof_H 	H 	0.94787	0.17353	0.83623	0.117
Mof_C 	C 	0.95353	0.19103	0.75373	0.151
Mof_C 	C 	0.98538	0.22057	0.71643	-0.201
Mof_H 	H 	0.97767	0.22163	0.67883	0.101
Mof_C 	C 	0.0285	0.24848	0.73433	0.124
Mof_H 	H 	0.04887	0.26823	0.70813	0.005
Mof_C 	C 	0.90683	0.16239	0.73723	-0.086
Mof_C 	C 	0.8876	0.18093	0.70133	-0.037
Mof_H 	H 	0.90477	0.21023	0.68953	0.043
Mof_H 	H 	0.89747	0.05753	0.73253	0.1
Mof_O 	O 	0.7805	0.63997	0.09978	-0.424
Mof_O 	O 	0.76551	0.60973	0.18662	-0.419
Mof_C 	C 	0.75569	0.61313	0.13627	0.406
Mof_C 	C 	0.70887	0.58166	0.12107	-0.19
Mof_C 	C 	0.67716	0.55359	0.15767	0.138
Mof_H 	H 	0.68513	0.55357	0.19547	0.001
Mof_C 	C 	0.6345	0.52556	0.14247	-0.209
Mof_H 	H 	0.61453	0.50687	0.16957	0.118
Mof_C 	C 	0.62019	0.52437	0.08707	0.151
Mof_C 	C 	0.65204	0.55391	0.04977	-0.201
Mof_H 	H 	0.64433	0.55497	0.01217	0.102
Mof_C 	C 	0.69516	0.58182	0.06767	0.124
Mof_H 	H 	0.71553	0.60157	0.04147	0.005
Mof_C 	C 	0.57349	0.49573	0.07057	-0.086
Mof_C 	C 	0.55426	0.51427	0.03467	-0.037
Mof_H 	H 	0.57143	0.54357	0.02287	0.043
Mof_H 	H 	0.56413	0.39087	0.06587	0.099
Mof_Cu	Cu	0.50885	0.49115	0.44886	0.907
Mof_Cu	Cu	0.17552	0.82448	0.78219	0.907
Mof_Cu	Cu	0.84218	0.15782	0.11553	0.907
Mof_Cu	Cu	0.50885	0.0177	0.44886	0.907
Mof_Cu	Cu	0.17552	0.35103	0.78219	0.907
Mof_Cu	Cu	0.84218	0.68437	0.11553	0.907
Mof_Cu	Cu	0.9823	0.49115	0.44886	0.907
Mof_Cu	Cu	0.64897	0.82448	0.78219	0.907
Mof_Cu	Cu	0.31563	0.15782	0.11553	0.907
Mof_Cu	Cu	0.49115	0.50885	0.55114	0.907
Mof_Cu	Cu	0.15782	0.84218	0.88447	0.907
Mof_Cu	Cu	0.82448	0.17552	0.21781	0.907
Mof_Cu	Cu	0.0177	0.50885	0.55114	0.907
Mof_Cu	Cu	0.68437	0.84218	0.88447	0.907
Mof_Cu	Cu	0.35103	0.17552	0.21781	0.907
Mof_Cu	Cu	0.49115	0.9823	0.55114	0.907
Mof_Cu	Cu	0.15782	0.31563	0.88447	0.907
Mof_Cu	Cu	0.82448	0.64897	0.21781	0.907
Mof_O 	O 	0.23326	0.46652	0.4546	-0.171
Mof_C 	C 	0.17687	0.35374	0.3499	0.004
Mof_C 	C 	0.2148	0.4296	0.4172	0.131
Mof_C 	C 	0.25285	0.5057	0.4227	-0.21
Mof_H 	H 	0.26535	0.5307	0.448	0.102
Mof_O 	O 	0.89993	0.79985	0.78793	-0.171
Mof_C 	C 	0.84354	0.68707	0.68323	0.004
Mof_C 	C 	0.88147	0.76293	0.75053	0.131
Mof_C 	C 	0.91952	0.83903	0.75603	-0.21
Mof_H 	H 	0.93202	0.86403	0.78133	0.102
Mof_O 	O 	0.56659	0.13319	0.12127	-0.171
Mof_C 	C 	0.5102	0.02041	0.01657	0.004
Mof_C 	C 	0.54813	0.09627	0.08387	0.131
Mof_C 	C 	0.58618	0.17237	0.08937	-0.21
Mof_H 	H 	0.59868	0.19737	0.11467	0.102
Mof_O 	O 	0.53348	0.76674	0.4546	-0.171
Mof_C 	C 	0.64626	0.82313	0.3499	0.004
Mof_C 	C 	0.5704	0.7852	0.4172	0.131
Mof_C 	C 	0.4943	0.74715	0.4227	-0.21
Mof_H 	H 	0.4693	0.73465	0.448	0.102
Mof_O 	O 	0.20015	0.10007	0.78793	-0.171
Mof_C 	C 	0.31293	0.15646	0.68323	0.004
Mof_C 	C 	0.23707	0.11853	0.75053	0.131
Mof_C 	C 	0.16097	0.08048	0.75603	-0.21
Mof_H 	H 	0.13597	0.06798	0.78133	0.102
Mof_O 	O 	0.86681	0.43341	0.12127	-0.171
Mof_C 	C 	0.97959	0.4898	0.01657	0.004
Mof_C 	C 	0.90373	0.45187	0.08387	0.131
Mof_C 	C 	0.82763	0.41382	0.08937	-0.21
Mof_H 	H 	0.80263	0.40132	0.11467	0.102
Mof_O 	O 	0.23326	0.76674	0.4546	-0.171
Mof_C 	C 	0.17687	0.82313	0.3499	0.004
Mof_C 	C 	0.2148	0.7852	0.4172	0.131
Mof_C 	C 	0.25285	0.74715	0.4227	-0.21
Mof_H 	H 	0.26535	0.73465	0.448	0.102
Mof_O 	O 	0.89993	0.10007	0.78793	-0.171
Mof_C 	C 	0.84354	0.15646	0.68323	0.004
Mof_C 	C 	0.88147	0.11853	0.75053	0.13
Mof_C 	C 	0.91952	0.08048	0.75603	-0.21
Mof_H 	H 	0.93202	0.06798	0.78133	0.102
Mof_O 	O 	0.56659	0.43341	0.12127	-0.171
Mof_C 	C 	0.5102	0.4898	0.01657	0.004
Mof_C 	C 	0.54813	0.45187	0.08387	0.131
Mof_C 	C 	0.58618	0.41382	0.08937	-0.21
Mof_H 	H 	0.59868	0.40132	0.11467	0.102
Mof_O 	O 	0.46652	0.23326	0.5454	-0.171
Mof_C 	C 	0.35374	0.17687	0.6501	0.004
Mof_C 	C 	0.4296	0.2148	0.5828	0.131
Mof_C 	C 	0.5057	0.25285	0.5773	-0.21
Mof_H 	H 	0.5307	0.26535	0.552	0.102
Mof_O 	O 	0.13319	0.56659	0.87873	-0.171
Mof_C 	C 	0.02041	0.5102	0.98343	0.004
Mof_C 	C 	0.09627	0.54813	0.91613	0.131
Mof_C 	C 	0.17237	0.58618	0.91063	-0.21
Mof_H 	H 	0.19737	0.59868	0.88533	0.102
Mof_O 	O 	0.79985	0.89993	0.21207	-0.171
Mof_C 	C 	0.68707	0.84354	0.31677	0.004
Mof_C 	C 	0.76293	0.88147	0.24947	0.131
Mof_C 	C 	0.83903	0.91952	0.24397	-0.21
Mof_H 	H 	0.86403	0.93202	0.21867	0.102
Mof_O 	O 	0.76674	0.53348	0.5454	-0.171
Mof_C 	C 	0.82313	0.64626	0.6501	0.004
Mof_C 	C 	0.7852	0.5704	0.5828	0.131
Mof_C 	C 	0.74715	0.4943	0.5773	-0.21
Mof_H 	H 	0.73465	0.4693	0.552	0.102
Mof_O 	O 	0.43341	0.86681	0.87873	-0.171
Mof_C 	C 	0.4898	0.97959	0.98343	0.004
Mof_C 	C 	0.45187	0.90373	0.91613	0.131
Mof_C 	C 	0.41382	0.82763	0.91063	-0.21
Mof_H 	H 	0.40132	0.80263	0.88533	0.102
Mof_O 	O 	0.10007	0.20015	0.21207	-0.171
Mof_C 	C 	0.15646	0.31293	0.31677	0.004
Mof_C 	C 	0.11853	0.23707	0.24947	0.131
Mof_C 	C 	0.08048	0.16097	0.24397	-0.21
Mof_H 	H 	0.06798	0.13597	0.21867	0.102
Mof_O 	O 	0.76674	0.23326	0.5454	-0.171
Mof_C 	C 	0.82313	0.17687	0.6501	0.004
Mof_C 	C 	0.7852	0.2148	0.5828	0.131
Mof_C 	C 	0.74715	0.25285	0.5773	-0.21
Mof_H 	H 	0.73465	0.26535	0.552	0.102
Mof_O 	O 	0.43341	0.56659	0.87873	-0.171
Mof_C 	C 	0.4898	0.5102	0.98343	0.004
Mof_C 	C 	0.45187	0.54813	0.91613	0.131
Mof_C 	C 	0.41382	0.58618	0.91063	-0.21
Mof_H 	H 	0.40132	0.59868	0.88533	0.102
Mof_O 	O 	0.10007	0.89993	0.21207	-0.171
Mof_C 	C 	0.15646	0.84354	0.31677	0.004
Mof_C 	C 	0.11853	0.88147	0.24947	0.13
Mof_C 	C 	0.08048	0.91952	0.24397	-0.21
Mof_H 	H 	0.06798	0.93202	0.21867	0.102
_end
