data_functionalizedCrystal
_audit_creation_method	'EQeq! by Chris Wilmer'
_symmetry_space_group_name_H-M	'P1'
_symmetry_Int_Tables_number	1
_symmetry_cell_setting	triclinic
loop_
_symmetry_equiv_pos_as_xyz
  x,y,z
_cell_length_a	9.733
_cell_length_b	22.323
_cell_length_c	15.631
_cell_angle_alpha	90
_cell_angle_beta	93.89
_cell_angle_gamma	90
loop_
_atom_site_label
_atom_site_type_symbol
_atom_site_fract_x
_atom_site_fract_y
_atom_site_fract_z
_atom_site_charge
Mof_Ag	Ag	0.81176	0.25249	0.07738	0.515
Mof_Ag	Ag	0.6136	0.45604	0.33182	0.545
Mof_N 	N 	0.617	0.2794	0.1132	-0.219
Mof_C 	C 	0.562	0.2523	0.1807	0.081
Mof_H 	H 	0.6127	0.2208	0.2091	-0.028
Mof_C 	C 	0.434	0.269	0.2104	-0.179
Mof_H 	H 	0.4005	0.2488	0.2582	0.075
Mof_C 	C 	0.358	0.314	0.1709	0.132
Mof_C 	C 	0.416	0.3414	0.1	-0.181
Mof_H 	H 	0.369	0.3732	0.0703	0.083
Mof_C 	C 	0.541	0.3225	0.0738	0.095
Mof_H 	H 	0.576	0.341	0.0249	-0.025
Mof_C 	C 	0.228	0.337	0.2023	-0.161
Mof_H 	H 	0.1761	0.3033	0.2257	0.063
Mof_H 	H 	0.1711	0.3545	0.1537	0.065
Mof_N 	N 	0.2546	0.3845	0.2718	-0.088
Mof_C 	C 	0.309	0.4406	0.2364	-0.041
Mof_H 	H 	0.4025	0.4333	0.2166	0.019
Mof_H 	H 	0.2489	0.4541	0.1867	0.03
Mof_C 	C 	0.3167	0.4875	0.3034	-0.085
Mof_H 	H 	0.2233	0.4957	0.3219	0.048
Mof_H 	H 	0.3533	0.525	0.28	0.026
Mof_N 	N 	0.4131	0.4662	0.3825	-0.145
Mof_C 	C 	0.357	0.4118	0.4131	-0.049
Mof_H 	H 	0.2642	0.42	0.4331	0.037
Mof_H 	H 	0.4157	0.3972	0.4628	0.022
Mof_C 	C 	0.345	0.3635	0.346	-0.056
Mof_H 	H 	0.4371	0.3537	0.3271	0.027
Mof_H 	H 	0.3055	0.3269	0.3703	0.027
Mof_C 	C 	0.416	0.5158	0.4444	-0.106
Mof_H 	H 	0.3248	0.5193	0.4682	0.05
Mof_H 	H 	0.4345	0.5537	0.4142	0.037
Mof_C 	C 	0.526	0.507	0.5177	0.015
Mof_C 	C 	0.655	0.5324	0.5062	-0.069
Mof_H 	H 	0.6714	0.553	0.4547	0.017
Mof_C 	C 	0.757	0.5268	0.5716	-0.077
Mof_H 	H 	0.8459	0.5421	0.563	0.037
Mof_C 	C 	0.735	0.4999	0.6485	0.032
Mof_C 	C 	0.608	0.4729	0.6564	-0.084
Mof_H 	H 	0.5931	0.4517	0.7076	0.021
Mof_C 	C 	0.504	0.4755	0.5935	-0.06
Mof_H 	H 	0.4179	0.4564	0.6008	0.029
Mof_C 	C 	0.845	0.5007	0.7208	-0.123
Mof_H 	H 	0.9355	0.5076	0.6969	0.059
Mof_H 	H 	0.8486	0.461	0.7491	0.045
Mof_N 	N 	0.823	0.5483	0.7874	-0.141
Mof_C 	C 	0.842	0.6087	0.7488	-0.076
Mof_H 	H 	0.9363	0.6116	0.7292	0.049
Mof_H 	H 	0.7763	0.6135	0.6981	0.028
Mof_C 	C 	0.821	0.6572	0.8098	-0.033
Mof_H 	H 	0.7245	0.6562	0.8267	0.015
Mof_H 	H 	0.8363	0.6963	0.7822	0.016
Mof_N 	N 	0.916	0.6509	0.8863	-0.089
Mof_C 	C 	0.895	0.5906	0.9225	-0.056
Mof_H 	H 	0.7999	0.5874	0.9408	0.017
Mof_H 	H 	0.9591	0.5851	0.9739	0.034
Mof_C 	C 	0.919	0.5424	0.8595	-0.041
Mof_H 	H 	0.0137	0.5454	0.8409	0.035
Mof_H 	H 	0.908	0.5028	0.8866	0.017
Mof_C 	C 	0.913	0.7003	0.9436	-0.135
Mof_H 	H 	0.9418	0.7366	0.9132	0.056
Mof_H 	H 	0.9818	0.6932	0.992	0.055
Mof_C 	C 	0.775	0.7132	0.9802	0.111
Mof_C 	C 	0.69	0.7553	0.9419	-0.163
Mof_H 	H 	0.7219	0.778	0.8957	0.068
Mof_C 	C 	0.559	0.7662	0.9682	0.056
Mof_H 	H 	0.5013	0.7954	0.94	-0.023
Mof_N 	N 	0.514	0.7333	0.0366	-0.211
Mof_C 	C 	0.597	0.6967	0.0757	0.103
Mof_H 	H 	0.568	0.6769	0.1252	-0.033
Mof_C 	C 	0.729	0.684	0.0494	-0.171
Mof_H 	H 	0.7855	0.6552	0.0795	0.081
Mof_Ag	Ag	0.31176	0.75249	0.07738	0.501
Mof_Ag	Ag	0.1136	0.95604	0.33182	0.532
Mof_N 	N 	0.117	0.7794	0.1132	-0.214
Mof_C 	C 	0.062	0.7523	0.1807	0.06
Mof_H 	H 	0.1127	0.7208	0.2091	-0.024
Mof_C 	C 	0.934	0.769	0.2104	-0.156
Mof_H 	H 	0.9005	0.7488	0.2582	0.07
Mof_C 	C 	0.858	0.814	0.1709	0.118
Mof_C 	C 	0.916	0.8414	0.1	-0.158
Mof_H 	H 	0.869	0.8732	0.0703	0.077
Mof_C 	C 	0.041	0.8225	0.0738	0.074
Mof_H 	H 	0.076	0.841	0.0249	-0.021
Mof_C 	C 	0.728	0.837	0.2023	-0.154
Mof_H 	H 	0.6761	0.8033	0.2257	0.063
Mof_H 	H 	0.6711	0.8545	0.1537	0.064
Mof_N 	N 	0.7546	0.8845	0.2718	-0.087
Mof_C 	C 	0.809	0.9406	0.2364	-0.042
Mof_H 	H 	0.9025	0.9333	0.2166	0.022
Mof_H 	H 	0.7489	0.9541	0.1867	0.032
Mof_C 	C 	0.8167	0.9875	0.3034	-0.084
Mof_H 	H 	0.7233	0.9957	0.3219	0.049
Mof_H 	H 	0.8533	0.025	0.28	0.028
Mof_N 	N 	0.9131	0.9662	0.3825	-0.142
Mof_C 	C 	0.857	0.9118	0.4131	-0.049
Mof_H 	H 	0.7642	0.92	0.4331	0.039
Mof_H 	H 	0.9157	0.8972	0.4628	0.026
Mof_C 	C 	0.845	0.8635	0.346	-0.056
Mof_H 	H 	0.9371	0.8537	0.3271	0.03
Mof_H 	H 	0.8055	0.8269	0.3703	0.029
Mof_C 	C 	0.916	0.0158	0.4444	-0.1
Mof_H 	H 	0.8248	0.0193	0.4682	0.05
Mof_H 	H 	0.9345	0.0537	0.4142	0.039
Mof_C 	C 	0.026	0.007	0.5177	0.015
Mof_C 	C 	0.155	0.0324	0.5062	-0.073
Mof_H 	H 	0.1714	0.053	0.4547	0.016
Mof_C 	C 	0.257	0.0268	0.5716	-0.072
Mof_H 	H 	0.3459	0.0421	0.563	0.034
Mof_C 	C 	0.235	0.9999	0.6485	0.025
Mof_C 	C 	0.108	0.9729	0.6564	-0.071
Mof_H 	H 	0.0931	0.9517	0.7076	0.014
Mof_C 	C 	0.004	0.9755	0.5935	-0.083
Mof_H 	H 	0.9179	0.9564	0.6008	0.043
Mof_C 	C 	0.345	0.0007	0.7208	-0.119
Mof_H 	H 	0.4355	0.0076	0.6969	0.055
Mof_H 	H 	0.3486	0.961	0.7491	0.042
Mof_N 	N 	0.323	0.0483	0.7874	-0.139
Mof_C 	C 	0.342	0.1087	0.7488	-0.076
Mof_H 	H 	0.4363	0.1116	0.7292	0.046
Mof_H 	H 	0.2763	0.1135	0.6981	0.028
Mof_C 	C 	0.321	0.1572	0.8098	-0.033
Mof_H 	H 	0.2245	0.1562	0.8267	0.014
Mof_H 	H 	0.3363	0.1963	0.7822	0.015
Mof_N 	N 	0.416	0.1509	0.8863	-0.092
Mof_C 	C 	0.395	0.0906	0.9225	-0.046
Mof_H 	H 	0.2999	0.0874	0.9408	0.014
Mof_H 	H 	0.4591	0.0851	0.9739	0.029
Mof_C 	C 	0.419	0.0424	0.8595	-0.063
Mof_H 	H 	0.5137	0.0454	0.8409	0.049
Mof_H 	H 	0.408	0.0028	0.8866	0.022
Mof_C 	C 	0.413	0.2003	0.9436	-0.13
Mof_H 	H 	0.4418	0.2366	0.9132	0.052
Mof_H 	H 	0.4818	0.1932	0.992	0.051
Mof_C 	C 	0.275	0.2132	0.9802	0.107
Mof_C 	C 	0.19	0.2553	0.9419	-0.161
Mof_H 	H 	0.2219	0.278	0.8957	0.066
Mof_C 	C 	0.059	0.2662	0.9682	0.052
Mof_H 	H 	0.0013	0.2954	0.94	-0.026
Mof_N 	N 	0.014	0.2333	0.0366	-0.214
Mof_C 	C 	0.097	0.1967	0.0757	0.101
Mof_H 	H 	0.068	0.1769	0.1252	-0.035
Mof_C 	C 	0.229	0.184	0.0494	-0.169
Mof_H 	H 	0.2855	0.1552	0.0795	0.079
Mof_Ag	Ag	0.81176	0.74751	0.57738	0.506
Mof_Ag	Ag	0.6136	0.54396	0.83182	0.541
Mof_N 	N 	0.617	0.7206	0.6132	-0.22
Mof_C 	C 	0.562	0.7477	0.6807	0.079
Mof_H 	H 	0.6127	0.7792	0.7091	-0.028
Mof_C 	C 	0.434	0.731	0.7104	-0.179
Mof_H 	H 	0.4005	0.7512	0.7582	0.074
Mof_C 	C 	0.358	0.686	0.6709	0.13
Mof_C 	C 	0.416	0.6586	0.6	-0.181
Mof_H 	H 	0.369	0.6268	0.5703	0.08
Mof_C 	C 	0.541	0.6775	0.5738	0.093
Mof_H 	H 	0.576	0.659	0.5249	-0.028
Mof_C 	C 	0.228	0.663	0.7023	-0.159
Mof_H 	H 	0.1761	0.6967	0.7257	0.062
Mof_H 	H 	0.1711	0.6455	0.6537	0.063
Mof_N 	N 	0.2546	0.6155	0.7718	-0.088
Mof_C 	C 	0.309	0.5594	0.7364	-0.04
Mof_H 	H 	0.4025	0.5667	0.7166	0.019
Mof_H 	H 	0.2489	0.5459	0.6867	0.029
Mof_C 	C 	0.3167	0.5125	0.8034	-0.084
Mof_H 	H 	0.2233	0.5043	0.8219	0.047
Mof_H 	H 	0.3533	0.475	0.78	0.025
Mof_N 	N 	0.4131	0.5338	0.8825	-0.145
Mof_C 	C 	0.357	0.5882	0.9131	-0.048
Mof_H 	H 	0.2642	0.58	0.9331	0.035
Mof_H 	H 	0.4157	0.6028	0.9628	0.019
Mof_C 	C 	0.345	0.6365	0.846	-0.056
Mof_H 	H 	0.4371	0.6463	0.8271	0.026
Mof_H 	H 	0.3055	0.6731	0.8703	0.026
Mof_C 	C 	0.416	0.4842	0.9444	-0.113
Mof_H 	H 	0.3248	0.4807	0.9682	0.049
Mof_H 	H 	0.4345	0.4463	0.9142	0.037
Mof_C 	C 	0.526	0.493	0.0177	0.017
Mof_C 	C 	0.655	0.4676	0.0062	-0.049
Mof_H 	H 	0.6714	0.447	0.9547	0.004
Mof_C 	C 	0.757	0.4732	0.0716	-0.088
Mof_H 	H 	0.8459	0.4579	0.063	0.043
Mof_C 	C 	0.735	0.5001	0.1485	0.038
Mof_C 	C 	0.608	0.5271	0.1564	-0.088
Mof_H 	H 	0.5931	0.5483	0.2076	0.022
Mof_C 	C 	0.504	0.5245	0.0935	-0.057
Mof_H 	H 	0.4179	0.5436	0.1008	0.031
Mof_C 	C 	0.845	0.4993	0.2208	-0.126
Mof_H 	H 	0.9355	0.4924	0.1969	0.06
Mof_H 	H 	0.8486	0.539	0.2491	0.046
Mof_N 	N 	0.823	0.4517	0.2874	-0.141
Mof_C 	C 	0.842	0.3913	0.2488	-0.076
Mof_H 	H 	0.9363	0.3884	0.2292	0.049
Mof_H 	H 	0.7763	0.3865	0.1981	0.028
Mof_C 	C 	0.821	0.3428	0.3098	-0.034
Mof_H 	H 	0.7245	0.3438	0.3267	0.015
Mof_H 	H 	0.8363	0.3037	0.2822	0.016
Mof_N 	N 	0.916	0.3491	0.3863	-0.087
Mof_C 	C 	0.895	0.4094	0.4225	-0.058
Mof_H 	H 	0.7999	0.4126	0.4408	0.02
Mof_H 	H 	0.9591	0.4149	0.4739	0.037
Mof_C 	C 	0.919	0.4576	0.3595	-0.042
Mof_H 	H 	0.0137	0.4546	0.3409	0.037
Mof_H 	H 	0.908	0.4972	0.3866	0.019
Mof_C 	C 	0.913	0.2997	0.4436	-0.147
Mof_H 	H 	0.9418	0.2634	0.4132	0.06
Mof_H 	H 	0.9818	0.3068	0.492	0.062
Mof_C 	C 	0.775	0.2868	0.4802	0.135
Mof_C 	C 	0.69	0.2447	0.4419	-0.178
Mof_H 	H 	0.7219	0.222	0.3957	0.074
Mof_C 	C 	0.559	0.2338	0.4682	0.074
Mof_H 	H 	0.5013	0.2046	0.44	-0.027
Mof_N 	N 	0.514	0.2667	0.5366	-0.22
Mof_C 	C 	0.597	0.3033	0.5757	0.112
Mof_H 	H 	0.568	0.3231	0.6252	-0.037
Mof_C 	C 	0.729	0.316	0.5494	-0.195
Mof_H 	H 	0.7855	0.3448	0.5795	0.087
Mof_Ag	Ag	0.31176	0.24751	0.57738	0.493
Mof_Ag	Ag	0.1136	0.04396	0.83182	0.528
Mof_N 	N 	0.117	0.2206	0.6132	-0.213
Mof_C 	C 	0.062	0.2477	0.6807	0.057
Mof_H 	H 	0.1127	0.2792	0.7091	-0.023
Mof_C 	C 	0.934	0.231	0.7104	-0.153
Mof_H 	H 	0.9005	0.2512	0.7582	0.069
Mof_C 	C 	0.858	0.186	0.6709	0.115
Mof_C 	C 	0.916	0.1586	0.6	-0.155
Mof_H 	H 	0.869	0.1268	0.5703	0.074
Mof_C 	C 	0.041	0.1775	0.5738	0.07
Mof_H 	H 	0.076	0.159	0.5249	-0.022
Mof_C 	C 	0.728	0.163	0.7023	-0.152
Mof_H 	H 	0.6761	0.1967	0.7257	0.062
Mof_H 	H 	0.6711	0.1455	0.6537	0.063
Mof_N 	N 	0.7546	0.1155	0.7718	-0.087
Mof_C 	C 	0.809	0.0594	0.7364	-0.042
Mof_H 	H 	0.9025	0.0667	0.7166	0.023
Mof_H 	H 	0.7489	0.0459	0.6867	0.031
Mof_C 	C 	0.8167	0.0125	0.8034	-0.083
Mof_H 	H 	0.7233	0.0043	0.8219	0.048
Mof_H 	H 	0.8533	0.975	0.78	0.028
Mof_N 	N 	0.9131	0.0338	0.8825	-0.142
Mof_C 	C 	0.857	0.0882	0.9131	-0.048
Mof_H 	H 	0.7642	0.08	0.9331	0.037
Mof_H 	H 	0.9157	0.1028	0.9628	0.023
Mof_C 	C 	0.845	0.1365	0.846	-0.057
Mof_H 	H 	0.9371	0.1463	0.8271	0.03
Mof_H 	H 	0.8055	0.1731	0.8703	0.028
Mof_C 	C 	0.916	0.9842	0.9444	-0.105
Mof_H 	H 	0.8248	0.9807	0.9682	0.049
Mof_H 	H 	0.9345	0.9463	0.9142	0.039
Mof_C 	C 	0.026	0.993	0.0177	0.015
Mof_C 	C 	0.155	0.9676	0.0062	-0.049
Mof_H 	H 	0.1714	0.947	0.9547	0.002
Mof_C 	C 	0.257	0.9732	0.0716	-0.085
Mof_H 	H 	0.3459	0.9579	0.063	0.041
Mof_C 	C 	0.235	0.0001	0.1485	0.033
Mof_C 	C 	0.108	0.0271	0.1564	-0.077
Mof_H 	H 	0.0931	0.0483	0.2076	0.016
Mof_C 	C 	0.004	0.0245	0.0935	-0.077
Mof_H 	H 	0.9179	0.0436	0.1008	0.043
Mof_C 	C 	0.345	0.9993	0.2208	-0.123
Mof_H 	H 	0.4355	0.9924	0.1969	0.057
Mof_H 	H 	0.3486	0.039	0.2491	0.044
Mof_N 	N 	0.323	0.9517	0.2874	-0.138
Mof_C 	C 	0.342	0.8913	0.2488	-0.076
Mof_H 	H 	0.4363	0.8884	0.2292	0.047
Mof_H 	H 	0.2763	0.8865	0.1981	0.028
Mof_C 	C 	0.321	0.8428	0.3098	-0.033
Mof_H 	H 	0.2245	0.8438	0.3267	0.014
Mof_H 	H 	0.3363	0.8037	0.2822	0.015
Mof_N 	N 	0.416	0.8491	0.3863	-0.09
Mof_C 	C 	0.395	0.9094	0.4225	-0.048
Mof_H 	H 	0.2999	0.9126	0.4408	0.017
Mof_H 	H 	0.4591	0.9149	0.4739	0.032
Mof_C 	C 	0.419	0.9576	0.3595	-0.062
Mof_H 	H 	0.5137	0.9546	0.3409	0.05
Mof_H 	H 	0.408	0.9972	0.3866	0.023
Mof_C 	C 	0.413	0.7997	0.4436	-0.143
Mof_H 	H 	0.4418	0.7634	0.4132	0.057
Mof_H 	H 	0.4818	0.8068	0.492	0.058
Mof_C 	C 	0.275	0.7868	0.4802	0.132
Mof_C 	C 	0.19	0.7447	0.4419	-0.177
Mof_H 	H 	0.2219	0.722	0.3957	0.073
Mof_C 	C 	0.059	0.7338	0.4682	0.072
Mof_H 	H 	0.0013	0.7046	0.44	-0.029
Mof_N 	N 	0.014	0.7667	0.5366	-0.224
Mof_C 	C 	0.097	0.8033	0.5757	0.111
Mof_H 	H 	0.068	0.8231	0.6252	-0.039
Mof_C 	C 	0.229	0.816	0.5494	-0.195
Mof_H 	H 	0.2855	0.8448	0.5795	0.085
_end
