data_functionalizedCrystal
_audit_creation_method	'EQeq! by Chris Wilmer'
_symmetry_space_group_name_H-M	'P1'
_symmetry_Int_Tables_number	1
_symmetry_cell_setting	triclinic
loop_
_symmetry_equiv_pos_as_xyz
  x,y,z
_cell_length_a	17.481
_cell_length_b	24.505
_cell_length_c	21.049
_cell_angle_alpha	90
_cell_angle_beta	92.995
_cell_angle_gamma	90
loop_
_atom_site_label
_atom_site_type_symbol
_atom_site_fract_x
_atom_site_fract_y
_atom_site_fract_z
_atom_site_charge
Mof_Ru	Ru	0.96438	0.53267	0.47402	0.999
Mof_Ru	Ru	0.55706	0.61762	0.27879	0.925
Mof_S 	S 	0.56192	0.75916	0.44241	0.131
Mof_F 	F 	0.1726	0.5693	0.2093	-0.555
Mof_F 	F 	0.3451	0.4673	0.3274	-0.545
Mof_F 	F 	0.1514	0.7579	0.6097	-0.638
Mof_F 	F 	0.2492	0.6358	0.7329	-0.662
Mof_F 	F 	0.1913	0.6077	0.4683	-0.476
Mof_F 	F 	0.6058	0.3337	0.3132	-0.536
Mof_F 	F 	0.5899	0.9033	0.305	-0.929
Mof_O 	O 	0.041	0.53618	0.4061	-0.353
Mof_O 	O 	0.1121	0.47204	0.4566	-0.347
Mof_O 	O 	0.0242	0.59115	0.5249	-0.334
Mof_O 	O 	0.0936	0.52644	0.5765	-0.33
Mof_O 	O 	0.386	0.61626	0.3042	-0.357
Mof_O 	O 	0.498	0.61912	0.3606	-0.373
Mof_O 	O 	0.5554	0.53312	0.27998	-0.349
Mof_O 	O 	0.5568	0.70162	0.2772	-0.31
Mof_N 	N 	0.8885	0.5941	0.4259	-0.177
Mof_N 	N 	0.6687	0.6201	0.3382	-0.184
Mof_N 	N 	0.6256	0.7145	0.428	-0.112
Mof_N 	N 	0.61	0.7993	0.491	-0.106
Mof_C 	C 	0.0998	0.5054	0.411	0.258
Mof_C 	C 	0.1563	0.5091	0.3612	0.333
Mof_C 	C 	0.1364	0.5376	0.3049	-0.486
Mof_C 	C 	0.1899	0.5414	0.2589	0.741
Mof_C 	C 	0.2611	0.5167	0.2659	-0.685
Mof_C 	C 	0.2782	0.4873	0.3211	0.772
Mof_C 	C 	0.2265	0.4834	0.3679	-0.501
Mof_C 	C 	0.076	0.5758	0.5657	0.182
Mof_C 	C 	0.1193	0.6177	0.6027	0.478
Mof_C 	C 	0.1138	0.6705	0.5863	-0.691
Mof_C 	C 	0.1577	0.7104	0.6175	0.934
Mof_C 	C 	0.2066	0.6954	0.6706	-0.815
Mof_C 	C 	0.2115	0.6397	0.6881	1.029
Mof_C 	C 	0.1659	0.6023	0.6549	-0.733
Mof_C 	C 	0.4258	0.6183	0.356	0.315
Mof_C 	C 	0.3841	0.6199	0.4171	0.136
Mof_C 	C 	0.3046	0.6136	0.4139	-0.299
Mof_C 	C 	0.2688	0.6155	0.4692	0.503
Mof_C 	C 	0.3054	0.6251	0.5278	-0.319
Mof_C 	C 	0.3856	0.6315	0.53	0.185
Mof_C 	C 	0.4237	0.6282	0.4748	-0.171
Mof_C 	C 	0.5587	0.42	0.2827	-0.468
Mof_C 	C 	0.5587	0.363	0.2818	0.75
Mof_C 	C 	0.556	0.8154	0.2832	-1.154
Mof_C 	C 	0.5566	0.872	0.2849	1.579
Mof_C 	C 	0.8361	0.6218	0.4251	0.199
Mof_C 	C 	0.7683	0.6534	0.4222	-0.103
Mof_C 	C 	0.7114	0.635	0.3768	0.189
Mof_C 	C 	0.7596	0.6997	0.4607	0.028
Mof_C 	C 	0.6894	0.7292	0.4607	0.045
Mof_C 	C 	0.68	0.7775	0.4981	0.048
Mof_H 	H 	0.0873	0.5538	0.2985	0.255
Mof_H 	H 	0.2971	0.5197	0.2338	0.325
Mof_H 	H 	0.2392	0.4628	0.4052	0.263
Mof_H 	H 	0.0788	0.6809	0.5524	0.316
Mof_H 	H 	0.2355	0.7223	0.6939	0.408
Mof_H 	H 	0.1665	0.5652	0.6681	0.333
Mof_H 	H 	0.2769	0.6082	0.3744	0.196
Mof_H 	H 	0.2776	0.6274	0.5653	0.193
Mof_H 	H 	0.413	0.638	0.5694	0.022
Mof_H 	H 	0.4779	0.6317	0.4762	0.126
Mof_H 	H 	0.5984	0.4395	0.3054	0.25
Mof_H 	H 	0.5957	0.796	0.3059	0.457
Mof_Ru	Ru	0.46438	0.03267	0.47402	0.971
Mof_Ru	Ru	0.05706	0.11762	0.27879	0.906
Mof_S 	S 	0.06192	0.25916	0.44241	0.126
Mof_F 	F 	0.6726	0.0693	0.2093	-0.554
Mof_F 	F 	0.8451	0.9673	0.3274	-0.542
Mof_F 	F 	0.6514	0.2579	0.6097	-0.637
Mof_F 	F 	0.7492	0.1358	0.7329	-0.66
Mof_F 	F 	0.6913	0.1077	0.4683	-0.475
Mof_F 	F 	0.1058	0.8337	0.3132	-0.537
Mof_F 	F 	0.0899	0.4033	0.305	-0.931
Mof_O 	O 	0.541	0.03618	0.4061	-0.345
Mof_O 	O 	0.6121	0.97204	0.4566	-0.348
Mof_O 	O 	0.5242	0.09115	0.5249	-0.326
Mof_O 	O 	0.5936	0.02644	0.5765	-0.331
Mof_O 	O 	0.886	0.11626	0.3042	-0.358
Mof_O 	O 	0.998	0.11912	0.3606	-0.364
Mof_O 	O 	0.0554	0.03312	0.27998	-0.347
Mof_O 	O 	0.0568	0.20162	0.2772	-0.307
Mof_N 	N 	0.3885	0.0941	0.4259	-0.176
Mof_N 	N 	0.1687	0.1201	0.3382	-0.183
Mof_N 	N 	0.1256	0.2145	0.428	-0.112
Mof_N 	N 	0.11	0.2993	0.491	-0.106
Mof_C 	C 	0.5998	0.0054	0.411	0.257
Mof_C 	C 	0.6563	0.0091	0.3612	0.333
Mof_C 	C 	0.6364	0.0376	0.3049	-0.487
Mof_C 	C 	0.6899	0.0414	0.2589	0.742
Mof_C 	C 	0.7611	0.0167	0.2659	-0.687
Mof_C 	C 	0.7782	0.9873	0.3211	0.774
Mof_C 	C 	0.7265	0.9834	0.3679	-0.501
Mof_C 	C 	0.576	0.0758	0.5657	0.182
Mof_C 	C 	0.6193	0.1177	0.6027	0.48
Mof_C 	C 	0.6138	0.1705	0.5863	-0.692
Mof_C 	C 	0.6577	0.2104	0.6175	0.935
Mof_C 	C 	0.7066	0.1954	0.6706	-0.815
Mof_C 	C 	0.7115	0.1397	0.6881	1.029
Mof_C 	C 	0.6659	0.1023	0.6549	-0.733
Mof_C 	C 	0.9258	0.1183	0.356	0.315
Mof_C 	C 	0.8841	0.1199	0.4171	0.138
Mof_C 	C 	0.8046	0.1136	0.4139	-0.3
Mof_C 	C 	0.7688	0.1155	0.4692	0.504
Mof_C 	C 	0.8054	0.1251	0.5278	-0.32
Mof_C 	C 	0.8856	0.1315	0.53	0.187
Mof_C 	C 	0.9237	0.1282	0.4748	-0.172
Mof_C 	C 	0.0587	0.92	0.2827	-0.469
Mof_C 	C 	0.0587	0.863	0.2818	0.753
Mof_C 	C 	0.056	0.3154	0.2832	-1.155
Mof_C 	C 	0.0566	0.372	0.2849	1.582
Mof_C 	C 	0.3361	0.1218	0.4251	0.198
Mof_C 	C 	0.2683	0.1534	0.4222	-0.103
Mof_C 	C 	0.2114	0.135	0.3768	0.188
Mof_C 	C 	0.2596	0.1997	0.4607	0.027
Mof_C 	C 	0.1894	0.2292	0.4607	0.045
Mof_C 	C 	0.18	0.2775	0.4981	0.048
Mof_H 	H 	0.5873	0.0538	0.2985	0.257
Mof_H 	H 	0.7971	0.0197	0.2338	0.326
Mof_H 	H 	0.7392	0.9628	0.4052	0.263
Mof_H 	H 	0.5788	0.1809	0.5524	0.318
Mof_H 	H 	0.7355	0.2223	0.6939	0.408
Mof_H 	H 	0.6665	0.0652	0.6681	0.334
Mof_H 	H 	0.7769	0.1082	0.3744	0.196
Mof_H 	H 	0.7776	0.1274	0.5653	0.193
Mof_H 	H 	0.913	0.138	0.5694	0.023
Mof_H 	H 	0.9779	0.1317	0.4762	0.129
Mof_H 	H 	0.0984	0.9395	0.3054	0.25
Mof_H 	H 	0.0957	0.296	0.3059	0.457
Mof_Ru	Ru	0.03562	0.53267	0.02598	0.945
Mof_Ru	Ru	0.44294	0.61762	0.22121	0.926
Mof_S 	S 	0.43808	0.75916	0.05759	0.133
Mof_F 	F 	0.8274	0.5693	0.2907	-0.553
Mof_F 	F 	0.6549	0.4673	0.1726	-0.544
Mof_F 	F 	0.8486	0.7579	0.8903	-0.636
Mof_F 	F 	0.7508	0.6358	0.7671	-0.661
Mof_F 	F 	0.8087	0.6077	0.0317	-0.474
Mof_F 	F 	0.3942	0.3337	0.1868	-0.536
Mof_F 	F 	0.4101	0.9033	0.195	-0.929
Mof_O 	O 	0.959	0.53618	0.0939	-0.337
Mof_O 	O 	0.8879	0.47204	0.0434	-0.349
Mof_O 	O 	0.9758	0.59115	0.9751	-0.319
Mof_O 	O 	0.9064	0.52644	0.9235	-0.333
Mof_O 	O 	0.614	0.61626	0.1958	-0.357
Mof_O 	O 	0.502	0.61912	0.1394	-0.373
Mof_O 	O 	0.4446	0.53312	0.22002	-0.349
Mof_O 	O 	0.4432	0.70162	0.2228	-0.31
Mof_N 	N 	0.1115	0.5941	0.0741	-0.175
Mof_N 	N 	0.3313	0.6201	0.1618	-0.184
Mof_N 	N 	0.3744	0.7145	0.072	-0.112
Mof_N 	N 	0.39	0.7993	0.009	-0.105
Mof_C 	C 	0.9002	0.5054	0.089	0.256
Mof_C 	C 	0.8437	0.5091	0.1388	0.336
Mof_C 	C 	0.8636	0.5376	0.1951	-0.488
Mof_C 	C 	0.8101	0.5414	0.2411	0.743
Mof_C 	C 	0.7389	0.5167	0.2341	-0.686
Mof_C 	C 	0.7218	0.4873	0.1789	0.773
Mof_C 	C 	0.7735	0.4834	0.1321	-0.502
Mof_C 	C 	0.924	0.5758	0.9343	0.181
Mof_C 	C 	0.8807	0.6177	0.8973	0.481
Mof_C 	C 	0.8862	0.6705	0.9137	-0.693
Mof_C 	C 	0.8423	0.7104	0.8825	0.936
Mof_C 	C 	0.7934	0.6954	0.8294	-0.815
Mof_C 	C 	0.7885	0.6397	0.8119	1.03
Mof_C 	C 	0.8341	0.6023	0.8451	-0.733
Mof_C 	C 	0.5742	0.6183	0.144	0.315
Mof_C 	C 	0.6159	0.6199	0.0829	0.136
Mof_C 	C 	0.6954	0.6136	0.0861	-0.3
Mof_C 	C 	0.7312	0.6155	0.0308	0.506
Mof_C 	C 	0.6946	0.6251	0.9722	-0.321
Mof_C 	C 	0.6144	0.6315	0.97	0.184
Mof_C 	C 	0.5763	0.6282	0.0252	-0.169
Mof_C 	C 	0.4413	0.42	0.2173	-0.468
Mof_C 	C 	0.4413	0.363	0.2182	0.75
Mof_C 	C 	0.444	0.8154	0.2168	-1.153
Mof_C 	C 	0.4434	0.872	0.2151	1.579
Mof_C 	C 	0.1639	0.6218	0.0749	0.197
Mof_C 	C 	0.2317	0.6534	0.0778	-0.103
Mof_C 	C 	0.2886	0.635	0.1232	0.189
Mof_C 	C 	0.2404	0.6997	0.0393	0.029
Mof_C 	C 	0.3106	0.7292	0.0393	0.045
Mof_C 	C 	0.32	0.7775	0.0019	0.05
Mof_H 	H 	0.9127	0.5538	0.2015	0.26
Mof_H 	H 	0.7029	0.5197	0.2662	0.326
Mof_H 	H 	0.7608	0.4628	0.0948	0.264
Mof_H 	H 	0.9212	0.6809	0.9476	0.32
Mof_H 	H 	0.7645	0.7223	0.8061	0.408
Mof_H 	H 	0.8335	0.5652	0.8319	0.334
Mof_H 	H 	0.7231	0.6082	0.1256	0.196
Mof_H 	H 	0.7224	0.6274	0.9347	0.193
Mof_H 	H 	0.587	0.638	0.9306	0.022
Mof_H 	H 	0.5221	0.6317	0.0238	0.125
Mof_H 	H 	0.4016	0.4395	0.1946	0.25
Mof_H 	H 	0.4043	0.796	0.1941	0.457
Mof_Ru	Ru	0.53562	0.03267	0.02598	0.97
Mof_Ru	Ru	0.94294	0.11762	0.22121	0.945
Mof_S 	S 	0.93808	0.25916	0.05759	0.14
Mof_F 	F 	0.3274	0.0693	0.2907	-0.554
Mof_F 	F 	0.1549	0.9673	0.1726	-0.544
Mof_F 	F 	0.3486	0.2579	0.8903	-0.637
Mof_F 	F 	0.2508	0.1358	0.7671	-0.661
Mof_F 	F 	0.3087	0.1077	0.0317	-0.475
Mof_F 	F 	0.8942	0.8337	0.1868	-0.536
Mof_F 	F 	0.9101	0.4033	0.195	-0.93
Mof_O 	O 	0.459	0.03618	0.0939	-0.345
Mof_O 	O 	0.3879	0.97204	0.0434	-0.345
Mof_O 	O 	0.4758	0.09115	0.9751	-0.325
Mof_O 	O 	0.4064	0.02644	0.9235	-0.329
Mof_O 	O 	0.114	0.11626	0.1958	-0.356
Mof_O 	O 	0.002	0.11912	0.1394	-0.38
Mof_O 	O 	0.9446	0.03312	0.22002	-0.342
Mof_O 	O 	0.9432	0.20162	0.2228	-0.303
Mof_N 	N 	0.6115	0.0941	0.0741	-0.176
Mof_N 	N 	0.8313	0.1201	0.1618	-0.185
Mof_N 	N 	0.8744	0.2145	0.072	-0.112
Mof_N 	N 	0.89	0.2993	0.009	-0.105
Mof_C 	C 	0.4002	0.0054	0.089	0.255
Mof_C 	C 	0.3437	0.0091	0.1388	0.333
Mof_C 	C 	0.3636	0.0376	0.1951	-0.487
Mof_C 	C 	0.3101	0.0414	0.2411	0.743
Mof_C 	C 	0.2389	0.0167	0.2341	-0.688
Mof_C 	C 	0.2218	0.9873	0.1789	0.774
Mof_C 	C 	0.2735	0.9834	0.1321	-0.5
Mof_C 	C 	0.424	0.0758	0.9343	0.181
Mof_C 	C 	0.3807	0.1177	0.8973	0.48
Mof_C 	C 	0.3862	0.1705	0.9137	-0.692
Mof_C 	C 	0.3423	0.2104	0.8825	0.935
Mof_C 	C 	0.2934	0.1954	0.8294	-0.815
Mof_C 	C 	0.2885	0.1397	0.8119	1.03
Mof_C 	C 	0.3341	0.1023	0.8451	-0.734
Mof_C 	C 	0.0742	0.1183	0.144	0.316
Mof_C 	C 	0.1159	0.1199	0.0829	0.135
Mof_C 	C 	0.1954	0.1136	0.0861	-0.299
Mof_C 	C 	0.2312	0.1155	0.0308	0.501
Mof_C 	C 	0.1946	0.1251	0.9722	-0.317
Mof_C 	C 	0.1144	0.1315	0.97	0.187
Mof_C 	C 	0.0763	0.1282	0.0252	-0.174
Mof_C 	C 	0.9413	0.92	0.2173	-0.46
Mof_C 	C 	0.9413	0.863	0.2182	0.76
Mof_C 	C 	0.944	0.3154	0.2168	-1.145
Mof_C 	C 	0.9434	0.372	0.2151	1.589
Mof_C 	C 	0.6639	0.1218	0.0749	0.198
Mof_C 	C 	0.7317	0.1534	0.0778	-0.103
Mof_C 	C 	0.7886	0.135	0.1232	0.19
Mof_C 	C 	0.7404	0.1997	0.0393	0.028
Mof_C 	C 	0.8106	0.2292	0.0393	0.045
Mof_C 	C 	0.82	0.2775	0.0019	0.049
Mof_H 	H 	0.4127	0.0538	0.2015	0.257
Mof_H 	H 	0.2029	0.0197	0.2662	0.326
Mof_H 	H 	0.2608	0.9628	0.0948	0.263
Mof_H 	H 	0.4212	0.1809	0.9476	0.318
Mof_H 	H 	0.2645	0.2223	0.8061	0.408
Mof_H 	H 	0.3335	0.0652	0.8319	0.334
Mof_H 	H 	0.2231	0.1082	0.1256	0.195
Mof_H 	H 	0.2224	0.1274	0.9347	0.192
Mof_H 	H 	0.087	0.138	0.9306	0.021
Mof_H 	H 	0.0221	0.1317	0.0238	0.124
Mof_H 	H 	0.9016	0.9395	0.1946	0.249
Mof_H 	H 	0.9043	0.296	0.1941	0.455
Mof_Ru	Ru	0.03562	0.46733	0.52598	0.944
Mof_Ru	Ru	0.44294	0.38238	0.72121	0.926
Mof_S 	S 	0.43808	0.24084	0.55759	0.132
Mof_F 	F 	0.8274	0.4307	0.7907	-0.553
Mof_F 	F 	0.6549	0.5327	0.6726	-0.544
Mof_F 	F 	0.8486	0.2421	0.3903	-0.636
Mof_F 	F 	0.7508	0.3642	0.2671	-0.661
Mof_F 	F 	0.8087	0.3923	0.5317	-0.475
Mof_F 	F 	0.3942	0.6663	0.6868	-0.536
Mof_F 	F 	0.4101	0.0967	0.695	-0.929
Mof_O 	O 	0.959	0.46382	0.5939	-0.338
Mof_O 	O 	0.8879	0.52796	0.5434	-0.35
Mof_O 	O 	0.9758	0.40885	0.4751	-0.318
Mof_O 	O 	0.9064	0.47356	0.4235	-0.333
Mof_O 	O 	0.614	0.38374	0.6958	-0.357
Mof_O 	O 	0.502	0.38088	0.6394	-0.373
Mof_O 	O 	0.4446	0.46688	0.72002	-0.349
Mof_O 	O 	0.4432	0.29838	0.7228	-0.31
Mof_N 	N 	0.1115	0.4059	0.5741	-0.175
Mof_N 	N 	0.3313	0.3799	0.6618	-0.184
Mof_N 	N 	0.3744	0.2855	0.572	-0.112
Mof_N 	N 	0.39	0.2007	0.509	-0.106
Mof_C 	C 	0.9002	0.4946	0.589	0.257
Mof_C 	C 	0.8437	0.4909	0.6388	0.335
Mof_C 	C 	0.8636	0.4624	0.6951	-0.488
Mof_C 	C 	0.8101	0.4586	0.7411	0.743
Mof_C 	C 	0.7389	0.4833	0.7341	-0.686
Mof_C 	C 	0.7218	0.5127	0.6789	0.773
Mof_C 	C 	0.7735	0.5166	0.6321	-0.502
Mof_C 	C 	0.924	0.4242	0.4343	0.181
Mof_C 	C 	0.8807	0.3823	0.3973	0.482
Mof_C 	C 	0.8862	0.3295	0.4137	-0.693
Mof_C 	C 	0.8423	0.2896	0.3825	0.936
Mof_C 	C 	0.7934	0.3046	0.3294	-0.815
Mof_C 	C 	0.7885	0.3603	0.3119	1.03
Mof_C 	C 	0.8341	0.3977	0.3451	-0.734
Mof_C 	C 	0.5742	0.3817	0.644	0.315
Mof_C 	C 	0.6159	0.3801	0.5829	0.136
Mof_C 	C 	0.6954	0.3864	0.5861	-0.299
Mof_C 	C 	0.7312	0.3845	0.5308	0.503
Mof_C 	C 	0.6946	0.3749	0.4722	-0.319
Mof_C 	C 	0.6144	0.3685	0.47	0.185
Mof_C 	C 	0.5763	0.3718	0.5252	-0.171
Mof_C 	C 	0.4413	0.58	0.7173	-0.468
Mof_C 	C 	0.4413	0.637	0.7182	0.75
Mof_C 	C 	0.444	0.1846	0.7168	-1.154
Mof_C 	C 	0.4434	0.128	0.7151	1.579
Mof_C 	C 	0.1639	0.3782	0.5749	0.197
Mof_C 	C 	0.2317	0.3466	0.5778	-0.103
Mof_C 	C 	0.2886	0.365	0.6232	0.189
Mof_C 	C 	0.2404	0.3003	0.5393	0.027
Mof_C 	C 	0.3106	0.2708	0.5393	0.045
Mof_C 	C 	0.32	0.2225	0.5019	0.048
Mof_H 	H 	0.9127	0.4462	0.7015	0.259
Mof_H 	H 	0.7029	0.4803	0.7662	0.326
Mof_H 	H 	0.7608	0.5372	0.5948	0.263
Mof_H 	H 	0.9212	0.3191	0.4476	0.32
Mof_H 	H 	0.7645	0.2777	0.3061	0.408
Mof_H 	H 	0.8335	0.4348	0.3319	0.334
Mof_H 	H 	0.7231	0.3918	0.6256	0.196
Mof_H 	H 	0.7224	0.3726	0.4347	0.193
Mof_H 	H 	0.587	0.362	0.4306	0.022
Mof_H 	H 	0.5221	0.3683	0.5238	0.126
Mof_H 	H 	0.4016	0.5605	0.6946	0.25
Mof_H 	H 	0.4043	0.204	0.6941	0.457
Mof_Ru	Ru	0.53562	0.96733	0.52598	0.972
Mof_Ru	Ru	0.94294	0.88238	0.72121	0.943
Mof_S 	S 	0.93808	0.74084	0.55759	0.139
Mof_F 	F 	0.3274	0.9307	0.7907	-0.554
Mof_F 	F 	0.1549	0.0327	0.6726	-0.545
Mof_F 	F 	0.3486	0.7421	0.3903	-0.637
Mof_F 	F 	0.2508	0.8642	0.2671	-0.661
Mof_F 	F 	0.3087	0.8923	0.5317	-0.475
Mof_F 	F 	0.8942	0.1663	0.6868	-0.536
Mof_F 	F 	0.9101	0.5967	0.695	-0.929
Mof_O 	O 	0.459	0.96382	0.5939	-0.345
Mof_O 	O 	0.3879	0.02796	0.5434	-0.348
Mof_O 	O 	0.4758	0.90885	0.4751	-0.326
Mof_O 	O 	0.4064	0.97356	0.4235	-0.331
Mof_O 	O 	0.114	0.88374	0.6958	-0.356
Mof_O 	O 	0.002	0.88088	0.6394	-0.38
Mof_O 	O 	0.9446	0.96688	0.72002	-0.343
Mof_O 	O 	0.9432	0.79838	0.7228	-0.304
Mof_N 	N 	0.6115	0.9059	0.5741	-0.176
Mof_N 	N 	0.8313	0.8799	0.6618	-0.185
Mof_N 	N 	0.8744	0.7855	0.572	-0.112
Mof_N 	N 	0.89	0.7007	0.509	-0.105
Mof_C 	C 	0.4002	0.9946	0.589	0.257
Mof_C 	C 	0.3437	0.9909	0.6388	0.333
Mof_C 	C 	0.3636	0.9624	0.6951	-0.487
Mof_C 	C 	0.3101	0.9586	0.7411	0.743
Mof_C 	C 	0.2389	0.9833	0.7341	-0.687
Mof_C 	C 	0.2218	0.0127	0.6789	0.774
Mof_C 	C 	0.2735	0.0166	0.6321	-0.501
Mof_C 	C 	0.424	0.9242	0.4343	0.182
Mof_C 	C 	0.3807	0.8823	0.3973	0.48
Mof_C 	C 	0.3862	0.8295	0.4137	-0.692
Mof_C 	C 	0.3423	0.7896	0.3825	0.935
Mof_C 	C 	0.2934	0.8046	0.3294	-0.815
Mof_C 	C 	0.2885	0.8603	0.3119	1.029
Mof_C 	C 	0.3341	0.8977	0.3451	-0.733
Mof_C 	C 	0.0742	0.8817	0.644	0.316
Mof_C 	C 	0.1159	0.8801	0.5829	0.135
Mof_C 	C 	0.1954	0.8864	0.5861	-0.299
Mof_C 	C 	0.2312	0.8845	0.5308	0.503
Mof_C 	C 	0.1946	0.8749	0.4722	-0.319
Mof_C 	C 	0.1144	0.8685	0.47	0.184
Mof_C 	C 	0.0763	0.8718	0.5252	-0.171
Mof_C 	C 	0.9413	0.08	0.7173	-0.461
Mof_C 	C 	0.9413	0.137	0.7182	0.759
Mof_C 	C 	0.944	0.6846	0.7168	-1.146
Mof_C 	C 	0.9434	0.628	0.7151	1.587
Mof_C 	C 	0.6639	0.8782	0.5749	0.198
Mof_C 	C 	0.7317	0.8466	0.5778	-0.103
Mof_C 	C 	0.7886	0.865	0.6232	0.19
Mof_C 	C 	0.7404	0.8003	0.5393	0.028
Mof_C 	C 	0.8106	0.7708	0.5393	0.046
Mof_C 	C 	0.82	0.7225	0.5019	0.048
Mof_H 	H 	0.4127	0.9462	0.7015	0.257
Mof_H 	H 	0.2029	0.9803	0.7662	0.326
Mof_H 	H 	0.2608	0.0372	0.5948	0.263
Mof_H 	H 	0.4212	0.8191	0.4476	0.318
Mof_H 	H 	0.2645	0.7777	0.3061	0.408
Mof_H 	H 	0.3335	0.9348	0.3319	0.334
Mof_H 	H 	0.2231	0.8918	0.6256	0.196
Mof_H 	H 	0.2224	0.8726	0.4347	0.193
Mof_H 	H 	0.087	0.862	0.4306	0.021
Mof_H 	H 	0.0221	0.8683	0.5238	0.123
Mof_H 	H 	0.9016	0.0605	0.6946	0.249
Mof_H 	H 	0.9043	0.704	0.6941	0.455
Mof_Ru	Ru	0.96438	0.46733	0.97402	0.997
Mof_Ru	Ru	0.55706	0.38238	0.77879	0.926
Mof_S 	S 	0.56192	0.24084	0.94241	0.132
Mof_F 	F 	0.1726	0.4307	0.7093	-0.554
Mof_F 	F 	0.3451	0.5327	0.8274	-0.544
Mof_F 	F 	0.1514	0.2421	0.1097	-0.637
Mof_F 	F 	0.2492	0.3642	0.2329	-0.661
Mof_F 	F 	0.1913	0.3923	0.9683	-0.475
Mof_F 	F 	0.6058	0.6663	0.8132	-0.536
Mof_F 	F 	0.5899	0.0967	0.805	-0.929
Mof_O 	O 	0.041	0.46382	0.9061	-0.352
Mof_O 	O 	0.1121	0.52796	0.9566	-0.347
Mof_O 	O 	0.0242	0.40885	0.0249	-0.333
Mof_O 	O 	0.0936	0.47356	0.0765	-0.33
Mof_O 	O 	0.386	0.38374	0.8042	-0.357
Mof_O 	O 	0.498	0.38088	0.8606	-0.373
Mof_O 	O 	0.5554	0.46688	0.77998	-0.349
Mof_O 	O 	0.5568	0.29838	0.7772	-0.31
Mof_N 	N 	0.8885	0.4059	0.9259	-0.176
Mof_N 	N 	0.6687	0.3799	0.8382	-0.184
Mof_N 	N 	0.6256	0.2855	0.928	-0.112
Mof_N 	N 	0.61	0.2007	0.991	-0.105
Mof_C 	C 	0.0998	0.4946	0.911	0.258
Mof_C 	C 	0.1563	0.4909	0.8612	0.333
Mof_C 	C 	0.1364	0.4624	0.8049	-0.487
Mof_C 	C 	0.1899	0.4586	0.7589	0.741
Mof_C 	C 	0.2611	0.4833	0.7659	-0.685
Mof_C 	C 	0.2782	0.5127	0.8211	0.772
Mof_C 	C 	0.2265	0.5166	0.8679	-0.501
Mof_C 	C 	0.076	0.4242	0.0657	0.182
Mof_C 	C 	0.1193	0.3823	0.1027	0.478
Mof_C 	C 	0.1138	0.3295	0.0863	-0.691
Mof_C 	C 	0.1577	0.2896	0.1175	0.934
Mof_C 	C 	0.2066	0.3046	0.1706	-0.815
Mof_C 	C 	0.2115	0.3603	0.1881	1.029
Mof_C 	C 	0.1659	0.3977	0.1549	-0.732
Mof_C 	C 	0.4258	0.3817	0.856	0.315
Mof_C 	C 	0.3841	0.3801	0.9171	0.136
Mof_C 	C 	0.3046	0.3864	0.9139	-0.3
Mof_C 	C 	0.2688	0.3845	0.9692	0.504
Mof_C 	C 	0.3054	0.3749	0.0278	-0.32
Mof_C 	C 	0.3856	0.3685	0.03	0.185
Mof_C 	C 	0.4237	0.3718	0.9748	-0.171
Mof_C 	C 	0.5587	0.58	0.7827	-0.468
Mof_C 	C 	0.5587	0.637	0.7818	0.75
Mof_C 	C 	0.556	0.1846	0.7832	-1.154
Mof_C 	C 	0.5566	0.128	0.7849	1.579
Mof_C 	C 	0.8361	0.3782	0.9251	0.199
Mof_C 	C 	0.7683	0.3466	0.9222	-0.103
Mof_C 	C 	0.7114	0.365	0.8768	0.189
Mof_C 	C 	0.7596	0.3003	0.9607	0.027
Mof_C 	C 	0.6894	0.2708	0.9607	0.045
Mof_C 	C 	0.68	0.2225	0.9981	0.048
Mof_H 	H 	0.0873	0.4462	0.7985	0.256
Mof_H 	H 	0.2971	0.4803	0.7338	0.325
Mof_H 	H 	0.2392	0.5372	0.9052	0.263
Mof_H 	H 	0.0788	0.3191	0.0524	0.316
Mof_H 	H 	0.2355	0.2777	0.1939	0.408
Mof_H 	H 	0.1665	0.4348	0.1681	0.333
Mof_H 	H 	0.2769	0.3918	0.8744	0.196
Mof_H 	H 	0.2776	0.3726	0.0653	0.193
Mof_H 	H 	0.413	0.362	0.0694	0.022
Mof_H 	H 	0.4779	0.3683	0.9762	0.126
Mof_H 	H 	0.5984	0.5605	0.8054	0.25
Mof_H 	H 	0.5957	0.204	0.8059	0.457
Mof_Ru	Ru	0.46438	0.96733	0.97402	0.966
Mof_Ru	Ru	0.05706	0.88238	0.77879	0.909
Mof_S 	S 	0.06192	0.74084	0.94241	0.127
Mof_F 	F 	0.6726	0.9307	0.7093	-0.554
Mof_F 	F 	0.8451	0.0327	0.8274	-0.542
Mof_F 	F 	0.6514	0.7421	0.1097	-0.637
Mof_F 	F 	0.7492	0.8642	0.2329	-0.66
Mof_F 	F 	0.6913	0.8923	0.9683	-0.476
Mof_F 	F 	0.1058	0.1663	0.8132	-0.537
Mof_F 	F 	0.0899	0.5967	0.805	-0.93
Mof_O 	O 	0.541	0.96382	0.9061	-0.345
Mof_O 	O 	0.6121	0.02796	0.9566	-0.346
Mof_O 	O 	0.5242	0.90885	0.0249	-0.323
Mof_O 	O 	0.5936	0.97356	0.0765	-0.329
Mof_O 	O 	0.886	0.88374	0.8042	-0.358
Mof_O 	O 	0.998	0.88088	0.8606	-0.365
Mof_O 	O 	0.0554	0.96688	0.77998	-0.347
Mof_O 	O 	0.0568	0.79838	0.7772	-0.307
Mof_N 	N 	0.3885	0.9059	0.9259	-0.176
Mof_N 	N 	0.1687	0.8799	0.8382	-0.183
Mof_N 	N 	0.1256	0.7855	0.928	-0.113
Mof_N 	N 	0.11	0.7007	0.991	-0.106
Mof_C 	C 	0.5998	0.9946	0.911	0.255
Mof_C 	C 	0.6563	0.9909	0.8612	0.333
Mof_C 	C 	0.6364	0.9624	0.8049	-0.487
Mof_C 	C 	0.6899	0.9586	0.7589	0.742
Mof_C 	C 	0.7611	0.9833	0.7659	-0.687
Mof_C 	C 	0.7782	0.0127	0.8211	0.774
Mof_C 	C 	0.7265	0.0166	0.8679	-0.5
Mof_C 	C 	0.576	0.9242	0.0657	0.181
Mof_C 	C 	0.6193	0.8823	0.1027	0.481
Mof_C 	C 	0.6138	0.8295	0.0863	-0.693
Mof_C 	C 	0.6577	0.7896	0.1175	0.936
Mof_C 	C 	0.7066	0.8046	0.1706	-0.815
Mof_C 	C 	0.7115	0.8603	0.1881	1.03
Mof_C 	C 	0.6659	0.8977	0.1549	-0.734
Mof_C 	C 	0.9258	0.8817	0.856	0.314
Mof_C 	C 	0.8841	0.8801	0.9171	0.139
Mof_C 	C 	0.8046	0.8864	0.9139	-0.3
Mof_C 	C 	0.7688	0.8845	0.9692	0.501
Mof_C 	C 	0.8054	0.8749	0.0278	-0.317
Mof_C 	C 	0.8856	0.8685	0.03	0.192
Mof_C 	C 	0.9237	0.8718	0.9748	-0.177
Mof_C 	C 	0.0587	0.08	0.7827	-0.469
Mof_C 	C 	0.0587	0.137	0.7818	0.752
Mof_C 	C 	0.056	0.6846	0.7832	-1.154
Mof_C 	C 	0.0566	0.628	0.7849	1.581
Mof_C 	C 	0.3361	0.8782	0.9251	0.197
Mof_C 	C 	0.2683	0.8466	0.9222	-0.102
Mof_C 	C 	0.2114	0.865	0.8768	0.188
Mof_C 	C 	0.2596	0.8003	0.9607	0.025
Mof_C 	C 	0.1894	0.7708	0.9607	0.046
Mof_C 	C 	0.18	0.7225	0.9981	0.046
Mof_H 	H 	0.5873	0.9462	0.7985	0.257
Mof_H 	H 	0.7971	0.9803	0.7338	0.326
Mof_H 	H 	0.7392	0.0372	0.9052	0.263
Mof_H 	H 	0.5788	0.8191	0.0524	0.319
Mof_H 	H 	0.7355	0.7777	0.1939	0.409
Mof_H 	H 	0.6665	0.9348	0.1681	0.334
Mof_H 	H 	0.7769	0.8918	0.8744	0.196
Mof_H 	H 	0.7776	0.8726	0.0653	0.193
Mof_H 	H 	0.913	0.862	0.0694	0.022
Mof_H 	H 	0.9779	0.8683	0.9762	0.129
Mof_H 	H 	0.0984	0.0605	0.8054	0.25
Mof_H 	H 	0.0957	0.704	0.8059	0.457
Mof_C 	C 	0.5	0.5088	0.25	0.251
Mof_C 	C 	0.5	0.4476	0.25	0.318
Mof_C 	C 	0.5	0.3334	0.25	-0.644
Mof_C 	C 	0.5	0.7247	0.25	0.074
Mof_C 	C 	0.5	0.7869	0.25	0.788
Mof_C 	C 	0.5	0.9005	0.25	-1.333
Mof_H 	H 	0.5	0.2947	0.25	0.338
Mof_H 	H 	0.5	0.9392	0.25	0.596
Mof_C 	C 	1.18764e-33	0.0088	0.25	0.241
Mof_C 	C 	1.18764e-33	0.9476	0.25	0.311
Mof_C 	C 	1.18764e-33	0.8334	0.25	-0.657
Mof_C 	C 	1.18764e-33	0.2247	0.25	0.065
Mof_C 	C 	1.18764e-33	0.2869	0.25	0.78
Mof_C 	C 	1.18764e-33	0.4005	0.25	-1.347
Mof_H 	H 	-3.1564e-18	0.7947	0.25	0.339
Mof_H 	H 	1.18764e-33	0.4392	0.25	0.597
Mof_C 	C 	0.5	0.4912	0.75	0.251
Mof_C 	C 	0.5	0.5524	0.75	0.318
Mof_C 	C 	0.5	0.6666	0.75	-0.644
Mof_C 	C 	0.5	0.2753	0.75	0.074
Mof_C 	C 	0.5	0.2131	0.75	0.788
Mof_C 	C 	0.5	0.0995	0.75	-1.333
Mof_H 	H 	0.5	0.7053	0.75	0.338
Mof_H 	H 	0.5	0.0608	0.75	0.596
Mof_C 	C 	3.56292e-33	0.9912	0.75	0.242
Mof_C 	C 	3.56292e-33	0.0524	0.75	0.312
Mof_C 	C 	3.56292e-33	0.1666	0.75	-0.655
Mof_C 	C 	-6.31279e-18	0.7753	0.75	0.066
Mof_C 	C 	3.56292e-33	0.7131	0.75	0.781
Mof_C 	C 	3.56292e-33	0.5995	0.75	-1.345
Mof_H 	H 	3.56292e-33	0.2053	0.75	0.339
Mof_H 	H 	3.56292e-33	0.5608	0.75	0.597
_end
