data_functionalizedCrystal
_audit_creation_method	'EQeq! by Chris Wilmer'
_symmetry_space_group_name_H-M	'P1'
_symmetry_Int_Tables_number	1
_symmetry_cell_setting	triclinic
loop_
_symmetry_equiv_pos_as_xyz
  x,y,z
_cell_length_a	16.0914
_cell_length_b	16.0914
_cell_length_c	28.187
_cell_angle_alpha	90
_cell_angle_beta	90
_cell_angle_gamma	90
loop_
_atom_site_label
_atom_site_type_symbol
_atom_site_fract_x
_atom_site_fract_y
_atom_site_fract_z
_atom_site_charge
Mof_C 	C 	0.3359	0.9275	0.33885	0.111
Mof_H 	H 	0.3168	0.8771	0.3509	-0.099
Mof_C 	C 	0.3947	0.9276	0.30308	-0.271
Mof_H 	H 	0.4138	0.8771	0.2912	0.087
Mof_N 	N 	0.16811	0.04134	0.45175	-0.184
Mof_N 	N 	0.21672	0.06902	0.41717	-0.246
Mof_C 	C 	0.8359	0.4275	0.83885	0.148
Mof_H 	H 	0.8168	0.3771	0.8509	-0.039
Mof_C 	C 	0.8947	0.4276	0.80308	-0.223
Mof_H 	H 	0.9138	0.3771	0.7912	0.105
Mof_N 	N 	0.66811	0.54134	0.95175	0.403
Mof_N 	N 	0.71672	0.56902	0.91717	-0.139
Mof_C 	C 	0.6641	0.0725	0.33885	0.124
Mof_H 	H 	0.6832	0.1229	0.3509	-0.102
Mof_C 	C 	0.6053	0.0724	0.30308	-0.26
Mof_H 	H 	0.5862	0.1229	0.2912	0.084
Mof_N 	N 	0.83189	0.95866	0.45175	-0.197
Mof_N 	N 	0.78328	0.93098	0.41717	-0.252
Mof_C 	C 	0.1641	0.5725	0.83885	0.158
Mof_H 	H 	0.1832	0.6229	0.8509	-0.041
Mof_C 	C 	0.1053	0.5724	0.80308	-0.231
Mof_H 	H 	0.0862	0.6229	0.7912	0.113
Mof_N 	N 	0.33189	0.45866	0.95175	0.403
Mof_N 	N 	0.28328	0.43098	0.91717	-0.138
Mof_C 	C 	0.0725	0.3359	0.33885	0.124
Mof_H 	H 	0.1229	0.3168	0.3509	-0.101
Mof_C 	C 	0.0724	0.3947	0.30308	-0.259
Mof_H 	H 	0.1229	0.4138	0.2912	0.084
Mof_N 	N 	0.95866	0.16811	0.45175	-0.196
Mof_N 	N 	0.93098	0.21672	0.41717	-0.252
Mof_C 	C 	0.5725	0.8359	0.83885	0.148
Mof_H 	H 	0.6229	0.8168	0.8509	-0.04
Mof_C 	C 	0.5724	0.8947	0.80308	-0.223
Mof_H 	H 	0.6229	0.9138	0.7912	0.105
Mof_N 	N 	0.45866	0.66811	0.95175	0.403
Mof_N 	N 	0.43098	0.71672	0.91717	-0.139
Mof_C 	C 	0.9275	0.6641	0.33885	0.113
Mof_H 	H 	0.8771	0.6832	0.3509	-0.1
Mof_C 	C 	0.9276	0.6053	0.30308	-0.272
Mof_H 	H 	0.8771	0.5862	0.2912	0.087
Mof_N 	N 	0.04134	0.83189	0.45175	-0.186
Mof_N 	N 	0.06902	0.78328	0.41717	-0.246
Mof_C 	C 	0.4275	0.1641	0.83885	0.158
Mof_H 	H 	0.3771	0.1832	0.8509	-0.04
Mof_C 	C 	0.4276	0.1053	0.80308	-0.231
Mof_H 	H 	0.3771	0.0862	0.7912	0.114
Mof_N 	N 	0.54134	0.33189	0.95175	0.403
Mof_N 	N 	0.56902	0.28328	0.91717	-0.139
Mof_C 	C 	0.6641	0.9275	0.66115	0.129
Mof_H 	H 	0.6832	0.8771	0.6491	-0.092
Mof_C 	C 	0.6053	0.9276	0.69692	-0.272
Mof_H 	H 	0.5862	0.8771	0.7088	0.105
Mof_N 	N 	0.83189	0.04134	0.54825	-0.184
Mof_N 	N 	0.78328	0.06902	0.58283	-0.243
Mof_C 	C 	0.1641	0.4275	0.16115	0.108
Mof_H 	H 	0.1832	0.3771	0.1491	-0.147
Mof_C 	C 	0.1053	0.4276	0.19692	-0.279
Mof_H 	H 	0.0862	0.3771	0.2088	0.077
Mof_N 	N 	0.33189	0.54134	0.04825	-0.669
Mof_N 	N 	0.28328	0.56902	0.08283	-0.336
Mof_C 	C 	0.3359	0.0725	0.66115	0.14
Mof_H 	H 	0.3168	0.1229	0.6491	-0.092
Mof_C 	C 	0.3947	0.0724	0.69692	-0.26
Mof_H 	H 	0.4138	0.1229	0.7088	0.103
Mof_N 	N 	0.16811	0.95866	0.54825	-0.194
Mof_N 	N 	0.21672	0.93098	0.58283	-0.249
Mof_C 	C 	0.8359	0.5725	0.16115	0.097
Mof_H 	H 	0.8168	0.6229	0.1491	-0.147
Mof_C 	C 	0.8947	0.5724	0.19692	-0.27
Mof_H 	H 	0.9138	0.6229	0.2088	0.067
Mof_N 	N 	0.66811	0.45866	0.04825	-0.67
Mof_N 	N 	0.71672	0.43098	0.08283	-0.336
Mof_C 	C 	0.9275	0.3359	0.66115	0.128
Mof_H 	H 	0.8771	0.3168	0.6491	-0.091
Mof_C 	C 	0.9276	0.3947	0.69692	-0.271
Mof_H 	H 	0.8771	0.4138	0.7088	0.105
Mof_N 	N 	0.04134	0.16811	0.54825	-0.182
Mof_N 	N 	0.06902	0.21672	0.58283	-0.243
Mof_C 	C 	0.4275	0.8359	0.16115	0.098
Mof_H 	H 	0.3771	0.8168	0.1491	-0.146
Mof_C 	C 	0.4276	0.8947	0.19692	-0.27
Mof_H 	H 	0.3771	0.9138	0.2088	0.068
Mof_N 	N 	0.54134	0.66811	0.04825	-0.67
Mof_N 	N 	0.56902	0.71672	0.08283	-0.337
Mof_C 	C 	0.0725	0.6641	0.66115	0.14
Mof_H 	H 	0.1229	0.6832	0.6491	-0.093
Mof_C 	C 	0.0724	0.6053	0.69692	-0.261
Mof_H 	H 	0.1229	0.5862	0.7088	0.103
Mof_N 	N 	0.95866	0.83189	0.54825	-0.194
Mof_N 	N 	0.93098	0.78328	0.58283	-0.249
Mof_C 	C 	0.5725	0.1641	0.16115	0.107
Mof_H 	H 	0.6229	0.1832	0.1491	-0.148
Mof_C 	C 	0.5724	0.1053	0.19692	-0.279
Mof_H 	H 	0.6229	0.0862	0.2088	0.075
Mof_N 	N 	0.45866	0.33189	0.04825	-0.669
Mof_N 	N 	0.43098	0.28328	0.08283	-0.336
Mof_C 	C 	0.6641	0.0725	0.66115	0.14
Mof_H 	H 	0.6832	0.1229	0.6491	-0.093
Mof_C 	C 	0.6053	0.0724	0.69692	-0.261
Mof_H 	H 	0.5862	0.1229	0.7088	0.103
Mof_N 	N 	0.83189	0.95866	0.54825	-0.194
Mof_N 	N 	0.78328	0.93098	0.58283	-0.249
Mof_C 	C 	0.1641	0.5725	0.16115	0.107
Mof_H 	H 	0.1832	0.6229	0.1491	-0.148
Mof_C 	C 	0.1053	0.5724	0.19692	-0.279
Mof_H 	H 	0.0862	0.6229	0.2088	0.075
Mof_N 	N 	0.33189	0.45866	0.04825	-0.669
Mof_N 	N 	0.28328	0.43098	0.08283	-0.336
Mof_C 	C 	0.3359	0.9275	0.66115	0.128
Mof_H 	H 	0.3168	0.8771	0.6491	-0.091
Mof_C 	C 	0.3947	0.9276	0.69692	-0.271
Mof_H 	H 	0.4138	0.8771	0.7088	0.105
Mof_N 	N 	0.16811	0.04134	0.54825	-0.182
Mof_N 	N 	0.21672	0.06902	0.58283	-0.243
Mof_C 	C 	0.8359	0.4275	0.16115	0.098
Mof_H 	H 	0.8168	0.3771	0.1491	-0.146
Mof_C 	C 	0.8947	0.4276	0.19692	-0.27
Mof_H 	H 	0.9138	0.3771	0.2088	0.068
Mof_N 	N 	0.66811	0.54134	0.04825	-0.67
Mof_N 	N 	0.71672	0.56902	0.08283	-0.337
Mof_C 	C 	0.9275	0.6641	0.66115	0.129
Mof_H 	H 	0.8771	0.6832	0.6491	-0.092
Mof_C 	C 	0.9276	0.6053	0.69692	-0.272
Mof_H 	H 	0.8771	0.5862	0.7088	0.105
Mof_N 	N 	0.04134	0.83189	0.54825	-0.184
Mof_N 	N 	0.06902	0.78328	0.58283	-0.243
Mof_C 	C 	0.4275	0.1641	0.16115	0.108
Mof_H 	H 	0.3771	0.1832	0.1491	-0.147
Mof_C 	C 	0.4276	0.1053	0.19692	-0.279
Mof_H 	H 	0.3771	0.0862	0.2088	0.077
Mof_N 	N 	0.54134	0.33189	0.04825	-0.669
Mof_N 	N 	0.56902	0.28328	0.08283	-0.336
Mof_C 	C 	0.0725	0.3359	0.66115	0.14
Mof_H 	H 	0.1229	0.3168	0.6491	-0.092
Mof_C 	C 	0.0724	0.3947	0.69692	-0.26
Mof_H 	H 	0.1229	0.4138	0.7088	0.103
Mof_N 	N 	0.95866	0.16811	0.54825	-0.194
Mof_N 	N 	0.93098	0.21672	0.58283	-0.249
Mof_C 	C 	0.5725	0.8359	0.16115	0.097
Mof_H 	H 	0.6229	0.8168	0.1491	-0.147
Mof_C 	C 	0.5724	0.8947	0.19692	-0.27
Mof_H 	H 	0.6229	0.9138	0.2088	0.067
Mof_N 	N 	0.45866	0.66811	0.04825	-0.67
Mof_N 	N 	0.43098	0.71672	0.08283	-0.336
Mof_C 	C 	0.3359	0.0725	0.33885	0.124
Mof_H 	H 	0.3168	0.1229	0.3509	-0.101
Mof_C 	C 	0.3947	0.0724	0.30308	-0.259
Mof_H 	H 	0.4138	0.1229	0.2912	0.084
Mof_N 	N 	0.16811	0.95866	0.45175	-0.196
Mof_N 	N 	0.21672	0.93098	0.41717	-0.252
Mof_C 	C 	0.8359	0.5725	0.83885	0.148
Mof_H 	H 	0.8168	0.6229	0.8509	-0.04
Mof_C 	C 	0.8947	0.5724	0.80308	-0.223
Mof_H 	H 	0.9138	0.6229	0.7912	0.105
Mof_N 	N 	0.66811	0.45866	0.95175	0.403
Mof_N 	N 	0.71672	0.43098	0.91717	-0.139
Mof_C 	C 	0.6641	0.9275	0.33885	0.113
Mof_H 	H 	0.6832	0.8771	0.3509	-0.1
Mof_C 	C 	0.6053	0.9276	0.30308	-0.272
Mof_H 	H 	0.5862	0.8771	0.2912	0.087
Mof_N 	N 	0.83189	0.04134	0.45175	-0.186
Mof_N 	N 	0.78328	0.06902	0.41717	-0.246
Mof_C 	C 	0.1641	0.4275	0.83885	0.158
Mof_H 	H 	0.1832	0.3771	0.8509	-0.04
Mof_C 	C 	0.1053	0.4276	0.80308	-0.231
Mof_H 	H 	0.0862	0.3771	0.7912	0.114
Mof_N 	N 	0.33189	0.54134	0.95175	0.403
Mof_N 	N 	0.28328	0.56902	0.91717	-0.139
Mof_C 	C 	0.0725	0.6641	0.33885	0.124
Mof_H 	H 	0.1229	0.6832	0.3509	-0.102
Mof_C 	C 	0.0724	0.6053	0.30308	-0.26
Mof_H 	H 	0.1229	0.5862	0.2912	0.084
Mof_N 	N 	0.95866	0.83189	0.45175	-0.197
Mof_N 	N 	0.93098	0.78328	0.41717	-0.252
Mof_C 	C 	0.5725	0.1641	0.83885	0.158
Mof_H 	H 	0.6229	0.1832	0.8509	-0.041
Mof_C 	C 	0.5724	0.1053	0.80308	-0.231
Mof_H 	H 	0.6229	0.0862	0.7912	0.113
Mof_N 	N 	0.45866	0.33189	0.95175	0.403
Mof_N 	N 	0.43098	0.28328	0.91717	-0.138
Mof_C 	C 	0.9275	0.3359	0.33885	0.112
Mof_H 	H 	0.8771	0.3168	0.3509	-0.099
Mof_C 	C 	0.9276	0.3947	0.30308	-0.271
Mof_H 	H 	0.8771	0.4138	0.2912	0.087
Mof_N 	N 	0.04134	0.16811	0.45175	-0.184
Mof_N 	N 	0.06902	0.21672	0.41717	-0.246
Mof_C 	C 	0.4275	0.8359	0.83885	0.148
Mof_H 	H 	0.3771	0.8168	0.8509	-0.039
Mof_C 	C 	0.4276	0.8947	0.80308	-0.223
Mof_H 	H 	0.3771	0.9138	0.7912	0.105
Mof_N 	N 	0.54134	0.66811	0.95175	0.403
Mof_N 	N 	0.56902	0.71672	0.91717	-0.139
Mof_Cu	Cu	0.10836	0.10836	0.5	0.825
Mof_Cu	Cu	0.60836	0.60836	-0	0.469
Mof_Cu	Cu	0.89164	0.89164	0.5	0.819
Mof_Cu	Cu	0.39164	0.39164	-0	0.47
Mof_Cu	Cu	0.89164	0.10836	0.5	0.822
Mof_Cu	Cu	0.39164	0.60836	-0	0.469
Mof_Cu	Cu	0.10836	0.89164	0.5	0.822
Mof_Cu	Cu	0.60836	0.39164	-0	0.469
Mof_Cu	Cu	0.1938	0.1938	0.4081	0.743
Mof_Cu	Cu	0.6938	0.6938	0.9081	0.906
Mof_Cu	Cu	0.8062	0.8062	0.4081	0.74
Mof_Cu	Cu	0.3062	0.3062	0.9081	0.909
Mof_Cu	Cu	0.8062	0.1938	0.4081	0.741
Mof_Cu	Cu	0.3062	0.6938	0.9081	0.907
Mof_Cu	Cu	0.1938	0.8062	0.4081	0.741
Mof_Cu	Cu	0.6938	0.3062	0.9081	0.907
Mof_Cu	Cu	0.8062	0.1938	0.5919	0.749
Mof_Cu	Cu	0.3062	0.6938	0.0919	0.611
Mof_Cu	Cu	0.1938	0.8062	0.5919	0.749
Mof_Cu	Cu	0.6938	0.3062	0.0919	0.611
Mof_Cu	Cu	0.1938	0.1938	0.5919	0.751
Mof_Cu	Cu	0.6938	0.6938	0.0919	0.609
Mof_Cu	Cu	0.8062	0.8062	0.5919	0.748
Mof_Cu	Cu	0.3062	0.3062	0.0919	0.612
Mof_C 	C 	0.2466	-6.91742e-33	0.39664	0.146
Mof_C 	C 	0.3055	0	0.35678	-0.197
Mof_C 	C 	0.4256	0	0.28459	0.193
Mof_C 	C 	0.7466	0.5	0.89664	0.28
Mof_C 	C 	0.8055	0.5	0.85678	-0.158
Mof_C 	C 	0.9256	0.5	0.78459	0.173
Mof_C 	C 	0.7534	-6.91742e-33	0.39664	0.145
Mof_C 	C 	0.6945	0	0.35678	-0.199
Mof_C 	C 	0.5744	0	0.28459	0.193
Mof_C 	C 	0.2534	0.5	0.89664	0.283
Mof_C 	C 	0.1945	0.5	0.85678	-0.163
Mof_C 	C 	0.0744	0.5	0.78459	0.191
Mof_C 	C 	2.60503e-33	0.2466	0.39664	0.146
Mof_C 	C 	2.34324e-33	0.3055	0.35678	-0.197
Mof_C 	C 	1.86912e-33	0.4256	0.28459	0.193
Mof_C 	C 	0.5	0.7466	0.89664	0.28
Mof_C 	C 	0.5	0.8055	0.85678	-0.158
Mof_C 	C 	0.5	0.9256	0.78459	0.173
Mof_C 	C 	-4.31238e-33	0.7534	0.39664	0.145
Mof_C 	C 	2.34324e-33	0.6945	0.35678	-0.199
Mof_C 	C 	1.22452e-32	0.5744	0.28459	0.193
Mof_C 	C 	0.5	0.2534	0.89664	0.283
Mof_C 	C 	0.5	0.1945	0.85678	-0.163
Mof_C 	C 	0.5	0.0744	0.78459	0.191
Mof_C 	C 	0.7534	-1.38348e-32	0.60336	0.153
Mof_C 	C 	0.6945	1.38348e-32	0.64322	-0.199
Mof_C 	C 	0.5744	0	0.71541	0.202
Mof_C 	C 	0.2534	0.5	0.10336	0.004
Mof_C 	C 	0.1945	0.5	0.14322	-0.249
Mof_C 	C 	0.0744	0.5	0.21541	0.177
Mof_C 	C 	0.2466	-1.38348e-32	0.60336	0.155
Mof_C 	C 	0.3055	1.38348e-32	0.64322	-0.197
Mof_C 	C 	0.4256	0	0.71541	0.202
Mof_C 	C 	0.7466	0.5	0.10336	0
Mof_C 	C 	0.8055	0.5	0.14322	-0.244
Mof_C 	C 	0.9256	0.5	0.21541	0.159
Mof_C 	C 	3.96272e-33	0.2466	0.60336	0.155
Mof_C 	C 	4.22451e-33	0.3055	0.64322	-0.197
Mof_C 	C 	4.69864e-33	0.4256	0.71541	0.202
Mof_C 	C 	0.5	0.7466	0.10336	0
Mof_C 	C 	0.5	0.8055	0.14322	-0.244
Mof_C 	C 	0.5	0.9256	0.21541	0.159
Mof_C 	C 	-9.87211e-33	0.7534	0.60336	0.153
Mof_C 	C 	-2.34452e-32	0.6945	0.64322	-0.199
Mof_C 	C 	4.69864e-33	0.5744	0.71541	0.202
Mof_C 	C 	0.5	0.2534	0.10336	0.004
Mof_C 	C 	0.5	0.1945	0.14322	-0.249
Mof_C 	C 	0.5	0.0744	0.21541	0.177
Mof_C 	C 	0.5	0	0.25	-0.215
Mof_C 	C 	-1.81677e-33	0.5	0.25	-0.215
Mof_C 	C 	0.5	-1.38348e-32	0.75	-0.215
Mof_C 	C 	4.92581e-33	0.5	0.75	-0.215
Mof_Cl	Cl	-3.71235e-33	-6.91742e-33	0.488	-0.321
Mof_Cl	Cl	0.5	0.5	0.988	-28.431
Mof_Cl	Cl	1.02801e-32	6.91742e-33	0.512	-0.391
Mof_Cl	Cl	0.5	0.5	0.012	27.903
_end
