data_functionalizedCrystal
_audit_creation_method	'EQeq! by Chris Wilmer'
_symmetry_space_group_name_H-M	'P1'
_symmetry_Int_Tables_number	1
_symmetry_cell_setting	triclinic
loop_
_symmetry_equiv_pos_as_xyz
  x,y,z
_cell_length_a	19.0153
_cell_length_b	17.3146
_cell_length_c	14.7729
_cell_angle_alpha	110.339
_cell_angle_beta	114.077
_cell_angle_gamma	60.3142
loop_
_atom_site_label
_atom_site_type_symbol
_atom_site_fract_x
_atom_site_fract_y
_atom_site_fract_z
_atom_site_charge
Mof_C 	C 	0.68236	0.01138	0.3899	-0.037
Mof_C 	C 	0.80678	0.82522	0.45743	0.023
Mof_C 	C 	0.74859	0.83736	0.36038	-0.052
Mof_H 	H 	0.74719	0.77727	0.30517	0.046
Mof_C 	C 	0.6908	0.92419	0.32921	-0.01
Mof_H 	H 	0.65057	0.92176	0.25234	0.046
Mof_C 	C 	0.78465	0.25586	0.31805	0.001
Mof_H 	H 	0.8096	0.18392	0.31445	0.037
Mof_C 	C 	0.84208	0.2993	0.36725	-0.058
Mof_H 	H 	0.90849	0.25758	0.39579	0.049
Mof_C 	C 	0.28476	0.25689	0.2423	-0.063
Mof_C 	C 	0.27943	0.23572	0.32217	0.01
Mof_H 	H 	0.33005	0.17646	0.35244	0.039
Mof_C 	C 	0.21603	0.292	0.37202	-0.063
Mof_H 	H 	0.21857	0.27143	0.4349	0.049
Mof_C 	C 	0.15371	0.37569	0.34756	0.037
Mof_C 	C 	0.15684	0.39678	0.26612	-0.062
Mof_H 	H 	0.11136	0.46115	0.24366	0.049
Mof_C 	C 	0.22052	0.33986	0.21597	0.006
Mof_H 	H 	0.22359	0.36519	0.16102	0.036
Mof_C 	C 	0.74075	0.99988	0.48789	-0.015
Mof_H 	H 	0.74227	0.06011	0.54275	0.041
Mof_C 	C 	0.79923	0.9121	0.51935	-0.05
Mof_H 	H 	0.8403	0.91305	0.59591	0.046
Mof_C 	C 	0.69669	0.30393	0.28016	-0.055
Mof_C 	C 	0.81631	0.3938	0.3835	0.033
Mof_C 	C 	0.72911	0.44072	0.34442	-0.06
Mof_H 	H 	0.70329	0.51344	0.35361	0.049
Mof_C 	C 	0.67236	0.39781	0.29618	0.004
Mof_H 	H 	0.60573	0.44101	0.27262	0.044
Mof_C 	C 	0.30738	0.40028	0.02639	-0.04
Mof_C 	C 	0.3164	0.37107	0.92707	-0.01
Mof_H 	H 	0.37699	0.3202	0.91727	0.045
Mof_C 	C 	0.25157	0.40238	0.83646	-0.053
Mof_H 	H 	0.26833	0.37336	0.7666	0.046
Mof_C 	C 	0.16782	0.46741	0.83235	0.025
Mof_C 	C 	0.15759	0.49775	0.93143	-0.055
Mof_H 	H 	0.09603	0.5477	0.93911	0.046
Mof_C 	C 	0.2232	0.4662	0.02315	-0.007
Mof_H 	H 	0.20622	0.4939	0.09282	0.036
Mof_C 	C 	0.98039	0.54037	0.52939	-0.008
Mof_C 	C 	0.87606	0.44314	0.44025	-0.023
Mof_C 	C 	0.92073	0.48866	0.48679	0.002
Mof_C 	C 	0.04117	0.5241	0.64474	-0.001
Mof_C 	C 	0.09677	0.49992	0.72991	-0.021
Mof_C 	C 	0.09044	0.43966	0.40795	-0.025
Mof_C 	C 	0.04101	0.49127	0.46145	0.003
Mof_C 	C 	0.87066	0.72744	0.48996	-0.02
Mof_C 	C 	0.92146	0.6468	0.51333	-0.001
Mof_O 	O 	0.39541	0.36914	0.22242	-0.353
Mof_O 	O 	0.44909	0.28181	0.0895	-0.363
Mof_C 	C 	0.38546	0.35145	0.1195	0.249
Mof_O 	O 	0.56749	0.32808	0.29675	-0.373
Mof_O 	O 	0.61694	0.19306	0.19082	-0.356
Mof_C 	C 	0.62583	0.27021	0.25224	0.268
Mof_Cu	Cu	0.49337	0.29358	0.31924	0.895
Mof_Cu	Cu	0.51247	0.1768	0.15602	0.895
Mof_O 	O 	0.59344	0.19495	0.38614	-0.348
Mof_O 	O 	0.57273	0.08846	0.24577	-0.363
Mof_O 	O 	0.4232	0.24149	0.31926	-0.374
Mof_O 	O 	0.40345	0.18471	0.14998	-0.36
Mof_C 	C 	0.61394	0.10414	0.3424	0.251
Mof_C 	C 	0.37359	0.22273	0.23259	0.273
_end
