data_functionalizedCrystal
_audit_creation_method	'EQeq! by Chris Wilmer'
_symmetry_space_group_name_H-M	'P1'
_symmetry_Int_Tables_number	1
_symmetry_cell_setting	triclinic
loop_
_symmetry_equiv_pos_as_xyz
  x,y,z
_cell_length_a	21.717
_cell_length_b	23.369
_cell_length_c	15.071
_cell_angle_alpha	90
_cell_angle_beta	90
_cell_angle_gamma	90
loop_
_atom_site_label
_atom_site_type_symbol
_atom_site_fract_x
_atom_site_fract_y
_atom_site_fract_z
_atom_site_charge
Mof_Cs	Cs	0.55817	0.52697	0.85943	2.222
Mof_Cu	Cu	0.55865	0.68578	0.91513	0.874
Mof_Si	Si	0.69306	0.62504	0.72359	1.892
Mof_Si	Si	0.56325	0.6373	0.67961	1.896
Mof_Si	Si	0.43255	0.62408	0.71886	1.897
Mof_Si	Si	0.42346	0.62932	0.92011	1.793
Mof_Si	Si	0.69322	0.62921	0.92514	1.9
Mof_O 	O 	0.693	0.692	0.7036	-1.156
Mof_O 	O 	0.5624	0.6956	0.7372	-0.956
Mof_O 	O 	0.4325	0.6914	0.7042	-1.103
Mof_O 	O 	0.623	0.5988	0.7076	-1.227
Mof_O 	O 	0.5031	0.5982	0.7039	-1.233
Mof_O 	O 	0.4117	0.6056	0.8197	-1.187
Mof_O 	O 	0.4952	0.6316	0.9441	-1.033
Mof_O 	O 	0.6204	0.63	0.938	-1.055
Mof_O 	O 	0.7136	0.6095	0.825	-1.206
Mof_O 	O 	0.7216	0.6941	0.9418	-1.258
Mof_O 	O 	0.3932	0.6942	0.9281	-1.198
Mof_C 	C 	0.7323	0.5795	0.0025	-1.359
Mof_H 	H 	0.7251	0.5919	0.0637	0.261
Mof_H 	H 	0.7767	0.5795	0.9904	0.279
Mof_H 	H 	0.7159	0.5408	0.9943	0.245
Mof_C 	C 	0.746	0.5859	0.6501	-1.364
Mof_H 	H 	0.7377	0.5964	0.5883	0.225
Mof_H 	H 	0.7399	0.5446	0.6578	0.278
Mof_H 	H 	0.7886	0.5958	0.6651	0.254
Mof_C 	C 	0.5653	0.6511	0.5592	-1.333
Mof_H 	H 	0.5718	0.615	0.5275	0.253
Mof_H 	H 	0.599	0.6775	0.5457	0.206
Mof_H 	H 	0.5261	0.6681	0.5405	0.244
Mof_C 	C 	0.3804	0.5853	0.643	-1.393
Mof_H 	H 	0.3376	0.595	0.657	0.259
Mof_H 	H 	0.3865	0.544	0.6501	0.279
Mof_H 	H 	0.3895	0.5962	0.5816	0.26
Mof_C 	C 	0.3811	0.5808	0.9959	-1.148
Mof_H 	H 	0.3371	0.5898	0.9936	0.182
Mof_H 	H 	0.3963	0.586	0.0566	0.064
Mof_H 	H 	0.3876	0.5411	0.9774	0.081
Mof_H 	H 	0.406	0.7565	0.1072	0.079
Mof_H 	H 	0.4745	0.7805	0.0941	0.087
Mof_H 	H 	0.4624	0.713	0.0964	0.098
Mof_H 	H 	0.6294	0.7775	0.0988	0.147
Mof_H 	H 	0.6993	0.7609	0.1204	0.145
Mof_H 	H 	0.6492	0.7116	0.1049	0.144
Mof_Cs	Cs	0.94183	0.47303	0.35943	2.224
Mof_Cu	Cu	0.94135	0.31422	0.41513	0.873
Mof_Si	Si	0.80694	0.37496	0.22359	1.894
Mof_Si	Si	0.93675	0.3627	0.17961	1.896
Mof_Si	Si	0.06745	0.37592	0.21886	1.889
Mof_Si	Si	0.07654	0.37068	0.42011	1.791
Mof_Si	Si	0.80678	0.37079	0.42514	1.919
Mof_O 	O 	0.807	0.308	0.2036	-1.157
Mof_O 	O 	0.9376	0.3044	0.2372	-0.956
Mof_O 	O 	0.0675	0.3086	0.2042	-1.102
Mof_O 	O 	0.877	0.4012	0.2076	-1.228
Mof_O 	O 	0.9969	0.4018	0.2039	-1.23
Mof_O 	O 	0.0883	0.3944	0.3197	-1.185
Mof_O 	O 	0.0048	0.3684	0.4441	-1.033
Mof_O 	O 	0.8796	0.37	0.438	-1.059
Mof_O 	O 	0.7864	0.3905	0.325	-1.211
Mof_O 	O 	0.7784	0.3059	0.4418	-1.263
Mof_O 	O 	0.1068	0.3058	0.4281	-1.199
Mof_C 	C 	0.7677	0.4205	0.5025	-1.397
Mof_H 	H 	0.7749	0.4081	0.5637	0.27
Mof_H 	H 	0.7233	0.4205	0.4904	0.292
Mof_H 	H 	0.7841	0.4592	0.4943	0.258
Mof_C 	C 	0.754	0.4141	0.1501	-1.367
Mof_H 	H 	0.7623	0.4036	0.0883	0.227
Mof_H 	H 	0.7601	0.4554	0.1578	0.279
Mof_H 	H 	0.7114	0.4042	0.1651	0.255
Mof_C 	C 	0.9347	0.3489	0.0592	-1.335
Mof_H 	H 	0.9282	0.385	0.0275	0.254
Mof_H 	H 	0.901	0.3225	0.0457	0.207
Mof_H 	H 	0.9739	0.3319	0.0405	0.245
Mof_C 	C 	0.1196	0.4147	0.143	-1.387
Mof_H 	H 	0.1624	0.405	0.157	0.257
Mof_H 	H 	0.1135	0.456	0.1501	0.277
Mof_H 	H 	0.1105	0.4038	0.0816	0.257
Mof_C 	C 	0.1189	0.4192	0.4959	-1.146
Mof_H 	H 	0.1629	0.4102	0.4936	0.181
Mof_H 	H 	0.1037	0.414	0.5566	0.064
Mof_H 	H 	0.1124	0.4589	0.4774	0.08
Mof_H 	H 	0.094	0.2435	0.6072	0.08
Mof_H 	H 	0.0255	0.2195	0.5941	0.087
Mof_H 	H 	0.0376	0.287	0.5964	0.098
Mof_H 	H 	0.8706	0.2225	0.5988	0.148
Mof_H 	H 	0.8007	0.2391	0.6204	0.145
Mof_H 	H 	0.8508	0.2884	0.6049	0.145
Mof_Cs	Cs	0.44183	0.02697	0.14057	2.217
Mof_Cu	Cu	0.44135	0.18578	0.08487	0.873
Mof_Si	Si	0.30694	0.12504	0.27641	1.89
Mof_Si	Si	0.43675	0.1373	0.32039	1.896
Mof_Si	Si	0.56745	0.12408	0.28114	1.898
Mof_Si	Si	0.57654	0.12932	0.07989	1.798
Mof_Si	Si	0.30678	0.12921	0.07486	1.881
Mof_O 	O 	0.307	0.192	0.2964	-1.156
Mof_O 	O 	0.4376	0.1956	0.2628	-0.956
Mof_O 	O 	0.5675	0.1914	0.2958	-1.103
Mof_O 	O 	0.377	0.0988	0.2924	-1.227
Mof_O 	O 	0.4969	0.0982	0.2961	-1.233
Mof_O 	O 	0.5883	0.1056	0.1803	-1.188
Mof_O 	O 	0.5048	0.1316	0.0559	-1.035
Mof_O 	O 	0.3796	0.13	0.062	-1.051
Mof_O 	O 	0.2864	0.1095	0.175	-1.202
Mof_O 	O 	0.2784	0.1941	0.0582	-1.255
Mof_O 	O 	0.6068	0.1942	0.0719	-1.199
Mof_C 	C 	0.2677	0.0795	0.9975	-1.32
Mof_H 	H 	0.2749	0.0919	0.9363	0.252
Mof_H 	H 	0.2233	0.0795	0.0096	0.265
Mof_H 	H 	0.2841	0.0408	0.0057	0.232
Mof_C 	C 	0.254	0.0859	0.3499	-1.364
Mof_H 	H 	0.2623	0.0964	0.4117	0.226
Mof_H 	H 	0.2601	0.0446	0.3422	0.278
Mof_H 	H 	0.2114	0.0958	0.3349	0.254
Mof_C 	C 	0.4347	0.1511	0.4408	-1.334
Mof_H 	H 	0.4282	0.115	0.4725	0.254
Mof_H 	H 	0.401	0.1775	0.4543	0.207
Mof_H 	H 	0.4739	0.1681	0.4595	0.244
Mof_C 	C 	0.6196	0.0853	0.357	-1.394
Mof_H 	H 	0.6624	0.095	0.343	0.259
Mof_H 	H 	0.6135	0.044	0.3499	0.28
Mof_H 	H 	0.6105	0.0962	0.4184	0.26
Mof_C 	C 	0.6189	0.0808	0.0041	-1.164
Mof_H 	H 	0.6629	0.0898	0.0064	0.186
Mof_H 	H 	0.6037	0.086	0.9434	0.072
Mof_H 	H 	0.6124	0.0411	0.0226	0.085
Mof_H 	H 	0.594	0.2565	0.8928	0.08
Mof_H 	H 	0.5255	0.2805	0.9059	0.086
Mof_H 	H 	0.5376	0.213	0.9036	0.098
Mof_H 	H 	0.3706	0.2775	0.9012	0.147
Mof_H 	H 	0.3007	0.2609	0.8796	0.144
Mof_H 	H 	0.3508	0.2116	0.8951	0.145
Mof_Cs	Cs	0.05817	0.97303	0.64057	2.218
Mof_Cu	Cu	0.05865	0.81422	0.58487	0.873
Mof_Si	Si	0.19306	0.87496	0.77641	1.893
Mof_Si	Si	0.06325	0.8627	0.82039	1.896
Mof_Si	Si	0.93255	0.87592	0.78114	1.892
Mof_Si	Si	0.92346	0.87068	0.57989	1.794
Mof_Si	Si	0.19322	0.87079	0.57486	1.92
Mof_O 	O 	0.193	0.808	0.7964	-1.157
Mof_O 	O 	0.0624	0.8044	0.7628	-0.956
Mof_O 	O 	0.9325	0.8086	0.7958	-1.103
Mof_O 	O 	0.123	0.9012	0.7924	-1.228
Mof_O 	O 	0.0031	0.9018	0.7961	-1.232
Mof_O 	O 	0.9117	0.8944	0.6803	-1.186
Mof_O 	O 	0.9952	0.8684	0.5559	-1.032
Mof_O 	O 	0.1204	0.87	0.562	-1.058
Mof_O 	O 	0.2136	0.8905	0.675	-1.211
Mof_O 	O 	0.2216	0.8059	0.5582	-1.263
Mof_O 	O 	0.8932	0.8058	0.5719	-1.199
Mof_C 	C 	0.2323	0.9205	0.4975	-1.398
Mof_H 	H 	0.2251	0.9081	0.4363	0.271
Mof_H 	H 	0.2767	0.9205	0.5096	0.292
Mof_H 	H 	0.2159	0.9592	0.5057	0.259
Mof_C 	C 	0.246	0.9141	0.8499	-1.366
Mof_H 	H 	0.2377	0.9036	0.9117	0.226
Mof_H 	H 	0.2399	0.9554	0.8422	0.279
Mof_H 	H 	0.2886	0.9042	0.8349	0.254
Mof_C 	C 	0.0653	0.8489	0.9408	-1.334
Mof_H 	H 	0.0718	0.885	0.9725	0.253
Mof_H 	H 	0.099	0.8225	0.9543	0.206
Mof_H 	H 	0.0261	0.8319	0.9595	0.244
Mof_C 	C 	0.8804	0.9147	0.857	-1.39
Mof_H 	H 	0.8376	0.905	0.843	0.258
Mof_H 	H 	0.8865	0.956	0.8499	0.278
Mof_H 	H 	0.8895	0.9038	0.9184	0.258
Mof_C 	C 	0.8811	0.9192	0.5041	-1.15
Mof_H 	H 	0.8371	0.9102	0.5064	0.183
Mof_H 	H 	0.8963	0.914	0.4434	0.066
Mof_H 	H 	0.8876	0.9589	0.5226	0.082
Mof_H 	H 	0.906	0.7435	0.3928	0.08
Mof_H 	H 	0.9745	0.7195	0.4059	0.087
Mof_H 	H 	0.9624	0.787	0.4036	0.098
Mof_H 	H 	0.1294	0.7225	0.4012	0.148
Mof_H 	H 	0.1993	0.7391	0.3796	0.145
Mof_H 	H 	0.1492	0.7884	0.3951	0.145
Mof_Cs	Cs	0.44183	0.47303	0.14057	2.221
Mof_Cu	Cu	0.44135	0.31422	0.08487	0.873
Mof_Si	Si	0.30694	0.37496	0.27641	1.891
Mof_Si	Si	0.43675	0.3627	0.32039	1.895
Mof_Si	Si	0.56745	0.37592	0.28114	1.897
Mof_Si	Si	0.57654	0.37068	0.07989	1.793
Mof_Si	Si	0.30678	0.37079	0.07486	1.9
Mof_O 	O 	0.307	0.308	0.2964	-1.156
Mof_O 	O 	0.4376	0.3044	0.2628	-0.956
Mof_O 	O 	0.5675	0.3086	0.2958	-1.103
Mof_O 	O 	0.377	0.4012	0.2924	-1.227
Mof_O 	O 	0.4969	0.4018	0.2961	-1.233
Mof_O 	O 	0.5883	0.3944	0.1803	-1.187
Mof_O 	O 	0.5048	0.3684	0.0559	-1.033
Mof_O 	O 	0.3796	0.37	0.062	-1.055
Mof_O 	O 	0.2864	0.3905	0.175	-1.206
Mof_O 	O 	0.2784	0.3059	0.0582	-1.258
Mof_O 	O 	0.6068	0.3058	0.0719	-1.198
Mof_C 	C 	0.2677	0.4205	0.9975	-1.359
Mof_H 	H 	0.2749	0.4081	0.9363	0.261
Mof_H 	H 	0.2233	0.4205	0.0096	0.279
Mof_H 	H 	0.2841	0.4592	0.0057	0.245
Mof_C 	C 	0.254	0.4141	0.3499	-1.364
Mof_H 	H 	0.2623	0.4036	0.4117	0.225
Mof_H 	H 	0.2601	0.4554	0.3422	0.278
Mof_H 	H 	0.2114	0.4042	0.3349	0.254
Mof_C 	C 	0.4347	0.3489	0.4408	-1.333
Mof_H 	H 	0.4282	0.385	0.4725	0.253
Mof_H 	H 	0.401	0.3225	0.4543	0.206
Mof_H 	H 	0.4739	0.3319	0.4595	0.244
Mof_C 	C 	0.6196	0.4147	0.357	-1.393
Mof_H 	H 	0.6624	0.405	0.343	0.259
Mof_H 	H 	0.6135	0.456	0.3499	0.279
Mof_H 	H 	0.6105	0.4038	0.4184	0.26
Mof_C 	C 	0.6189	0.4192	0.0041	-1.148
Mof_H 	H 	0.6629	0.4102	0.0064	0.182
Mof_H 	H 	0.6037	0.414	0.9434	0.064
Mof_H 	H 	0.6124	0.4589	0.0226	0.081
Mof_H 	H 	0.594	0.2435	0.8928	0.079
Mof_H 	H 	0.5255	0.2195	0.9059	0.087
Mof_H 	H 	0.5376	0.287	0.9036	0.098
Mof_H 	H 	0.3706	0.2225	0.9012	0.147
Mof_H 	H 	0.3007	0.2391	0.8796	0.145
Mof_H 	H 	0.3508	0.2884	0.8951	0.144
Mof_Cs	Cs	0.05817	0.52697	0.64057	2.224
Mof_Cu	Cu	0.05865	0.68578	0.58487	0.873
Mof_Si	Si	0.19306	0.62504	0.77641	1.894
Mof_Si	Si	0.06325	0.6373	0.82039	1.896
Mof_Si	Si	0.93255	0.62408	0.78114	1.889
Mof_Si	Si	0.92346	0.62932	0.57989	1.791
Mof_Si	Si	0.19322	0.62921	0.57486	1.919
Mof_O 	O 	0.193	0.692	0.7964	-1.157
Mof_O 	O 	0.0624	0.6956	0.7628	-0.956
Mof_O 	O 	0.9325	0.6914	0.7958	-1.102
Mof_O 	O 	0.123	0.5988	0.7924	-1.228
Mof_O 	O 	0.0031	0.5982	0.7961	-1.23
Mof_O 	O 	0.9117	0.6056	0.6803	-1.185
Mof_O 	O 	0.9952	0.6316	0.5559	-1.033
Mof_O 	O 	0.1204	0.63	0.562	-1.059
Mof_O 	O 	0.2136	0.6095	0.675	-1.211
Mof_O 	O 	0.2216	0.6941	0.5582	-1.263
Mof_O 	O 	0.8932	0.6942	0.5719	-1.199
Mof_C 	C 	0.2323	0.5795	0.4975	-1.397
Mof_H 	H 	0.2251	0.5919	0.4363	0.27
Mof_H 	H 	0.2767	0.5795	0.5096	0.292
Mof_H 	H 	0.2159	0.5408	0.5057	0.258
Mof_C 	C 	0.246	0.5859	0.8499	-1.367
Mof_H 	H 	0.2377	0.5964	0.9117	0.227
Mof_H 	H 	0.2399	0.5446	0.8422	0.279
Mof_H 	H 	0.2886	0.5958	0.8349	0.255
Mof_C 	C 	0.0653	0.6511	0.9408	-1.335
Mof_H 	H 	0.0718	0.615	0.9725	0.254
Mof_H 	H 	0.099	0.6775	0.9543	0.207
Mof_H 	H 	0.0261	0.6681	0.9595	0.245
Mof_C 	C 	0.8804	0.5853	0.857	-1.387
Mof_H 	H 	0.8376	0.595	0.843	0.257
Mof_H 	H 	0.8865	0.544	0.8499	0.277
Mof_H 	H 	0.8895	0.5962	0.9184	0.257
Mof_C 	C 	0.8811	0.5808	0.5041	-1.146
Mof_H 	H 	0.8371	0.5898	0.5064	0.181
Mof_H 	H 	0.8963	0.586	0.4434	0.064
Mof_H 	H 	0.8876	0.5411	0.5226	0.08
Mof_H 	H 	0.906	0.7565	0.3928	0.08
Mof_H 	H 	0.9745	0.7805	0.4059	0.087
Mof_H 	H 	0.9624	0.713	0.4036	0.098
Mof_H 	H 	0.1294	0.7775	0.4012	0.148
Mof_H 	H 	0.1993	0.7609	0.3796	0.145
Mof_H 	H 	0.1492	0.7116	0.3951	0.145
Mof_Cs	Cs	0.55817	0.97303	0.85943	2.217
Mof_Cu	Cu	0.55865	0.81422	0.91513	0.873
Mof_Si	Si	0.69306	0.87496	0.72359	1.89
Mof_Si	Si	0.56325	0.8627	0.67961	1.896
Mof_Si	Si	0.43255	0.87592	0.71886	1.898
Mof_Si	Si	0.42346	0.87068	0.92011	1.798
Mof_Si	Si	0.69322	0.87079	0.92514	1.881
Mof_O 	O 	0.693	0.808	0.7036	-1.156
Mof_O 	O 	0.5624	0.8044	0.7372	-0.956
Mof_O 	O 	0.4325	0.8086	0.7042	-1.103
Mof_O 	O 	0.623	0.9012	0.7076	-1.227
Mof_O 	O 	0.5031	0.9018	0.7039	-1.233
Mof_O 	O 	0.4117	0.8944	0.8197	-1.188
Mof_O 	O 	0.4952	0.8684	0.9441	-1.035
Mof_O 	O 	0.6204	0.87	0.938	-1.051
Mof_O 	O 	0.7136	0.8905	0.825	-1.202
Mof_O 	O 	0.7216	0.8059	0.9418	-1.255
Mof_O 	O 	0.3932	0.8058	0.9281	-1.199
Mof_C 	C 	0.7323	0.9205	0.0025	-1.32
Mof_H 	H 	0.7251	0.9081	0.0637	0.252
Mof_H 	H 	0.7767	0.9205	0.9904	0.265
Mof_H 	H 	0.7159	0.9592	0.9943	0.232
Mof_C 	C 	0.746	0.9141	0.6501	-1.364
Mof_H 	H 	0.7377	0.9036	0.5883	0.226
Mof_H 	H 	0.7399	0.9554	0.6578	0.278
Mof_H 	H 	0.7886	0.9042	0.6651	0.254
Mof_C 	C 	0.5653	0.8489	0.5592	-1.334
Mof_H 	H 	0.5718	0.885	0.5275	0.254
Mof_H 	H 	0.599	0.8225	0.5457	0.207
Mof_H 	H 	0.5261	0.8319	0.5405	0.244
Mof_C 	C 	0.3804	0.9147	0.643	-1.394
Mof_H 	H 	0.3376	0.905	0.657	0.259
Mof_H 	H 	0.3865	0.956	0.6501	0.28
Mof_H 	H 	0.3895	0.9038	0.5816	0.26
Mof_C 	C 	0.3811	0.9192	0.9959	-1.164
Mof_H 	H 	0.3371	0.9102	0.9936	0.186
Mof_H 	H 	0.3963	0.914	0.0566	0.072
Mof_H 	H 	0.3876	0.9589	0.9774	0.085
Mof_H 	H 	0.406	0.7435	0.1072	0.08
Mof_H 	H 	0.4745	0.7195	0.0941	0.086
Mof_H 	H 	0.4624	0.787	0.0964	0.098
Mof_H 	H 	0.6294	0.7225	0.0988	0.147
Mof_H 	H 	0.6993	0.7391	0.1204	0.144
Mof_H 	H 	0.6492	0.7884	0.1049	0.145
Mof_Cs	Cs	0.94183	0.02697	0.35943	2.218
Mof_Cu	Cu	0.94135	0.18578	0.41513	0.873
Mof_Si	Si	0.80694	0.12504	0.22359	1.893
Mof_Si	Si	0.93675	0.1373	0.17961	1.896
Mof_Si	Si	0.06745	0.12408	0.21886	1.892
Mof_Si	Si	0.07654	0.12932	0.42011	1.794
Mof_Si	Si	0.80678	0.12921	0.42514	1.92
Mof_O 	O 	0.807	0.192	0.2036	-1.157
Mof_O 	O 	0.9376	0.1956	0.2372	-0.956
Mof_O 	O 	0.0675	0.1914	0.2042	-1.103
Mof_O 	O 	0.877	0.0988	0.2076	-1.228
Mof_O 	O 	0.9969	0.0982	0.2039	-1.232
Mof_O 	O 	0.0883	0.1056	0.3197	-1.186
Mof_O 	O 	0.0048	0.1316	0.4441	-1.032
Mof_O 	O 	0.8796	0.13	0.438	-1.058
Mof_O 	O 	0.7864	0.1095	0.325	-1.211
Mof_O 	O 	0.7784	0.1941	0.4418	-1.263
Mof_O 	O 	0.1068	0.1942	0.4281	-1.199
Mof_C 	C 	0.7677	0.0795	0.5025	-1.398
Mof_H 	H 	0.7749	0.0919	0.5637	0.271
Mof_H 	H 	0.7233	0.0795	0.4904	0.292
Mof_H 	H 	0.7841	0.0408	0.4943	0.259
Mof_C 	C 	0.754	0.0859	0.1501	-1.366
Mof_H 	H 	0.7623	0.0964	0.0883	0.226
Mof_H 	H 	0.7601	0.0446	0.1578	0.279
Mof_H 	H 	0.7114	0.0958	0.1651	0.254
Mof_C 	C 	0.9347	0.1511	0.0592	-1.334
Mof_H 	H 	0.9282	0.115	0.0275	0.253
Mof_H 	H 	0.901	0.1775	0.0457	0.206
Mof_H 	H 	0.9739	0.1681	0.0405	0.244
Mof_C 	C 	0.1196	0.0853	0.143	-1.39
Mof_H 	H 	0.1624	0.095	0.157	0.258
Mof_H 	H 	0.1135	0.044	0.1501	0.278
Mof_H 	H 	0.1105	0.0962	0.0816	0.258
Mof_C 	C 	0.1189	0.0808	0.4959	-1.15
Mof_H 	H 	0.1629	0.0898	0.4936	0.183
Mof_H 	H 	0.1037	0.086	0.5566	0.066
Mof_H 	H 	0.1124	0.0411	0.4774	0.082
Mof_H 	H 	0.094	0.2565	0.6072	0.08
Mof_H 	H 	0.0255	0.2805	0.5941	0.087
Mof_H 	H 	0.0376	0.213	0.5964	0.098
Mof_H 	H 	0.8706	0.2775	0.5988	0.148
Mof_H 	H 	0.8007	0.2609	0.6204	0.145
Mof_H 	H 	0.8508	0.2116	0.6049	0.145
Mof_Cs	Cs	0.75085	0.75	0.54064	1.539
Mof_Cs	Cs	0.31026	0.75	0.70572	2.88
Mof_Cu	Cu	0.63265	0.75	0.73002	0.851
Mof_Cu	Cu	0.49184	0.75	0.72817	0.877
Mof_Si	Si	0.43446	0.75	0.95647	1.786
Mof_Si	Si	0.68013	0.75	0.96761	1.902
Mof_O 	O 	0.6177	0.75	0.9068	-0.946
Mof_O 	O 	0.4997	0.75	0.9024	-0.918
Mof_C 	C 	0.4456	0.75	0.0777	-1.178
Mof_C 	C 	0.6624	0.75	0.0869	-1.453
Mof_Cs	Cs	0.74915	0.25	0.04064	1.533
Mof_Cs	Cs	0.18974	0.25	0.20572	2.877
Mof_Cu	Cu	0.86735	0.25	0.23002	0.851
Mof_Cu	Cu	0.00816	0.25	0.22817	0.876
Mof_Si	Si	0.06554	0.25	0.45647	1.791
Mof_Si	Si	0.81987	0.25	0.46761	1.915
Mof_O 	O 	0.8823	0.25	0.4068	-0.949
Mof_O 	O 	0.0003	0.25	0.4024	-0.919
Mof_C 	C 	0.0544	0.25	0.5777	-1.183
Mof_C 	C 	0.8376	0.25	0.5869	-1.463
Mof_Cs	Cs	0.24915	0.25	0.45936	1.539
Mof_Cs	Cs	0.68974	0.25	0.29428	2.88
Mof_Cu	Cu	0.36735	0.25	0.26998	0.851
Mof_Cu	Cu	0.50816	0.25	0.27183	0.877
Mof_Si	Si	0.56554	0.25	0.04353	1.786
Mof_Si	Si	0.31987	0.25	0.03239	1.902
Mof_O 	O 	0.3823	0.25	0.0932	-0.946
Mof_O 	O 	0.5003	0.25	0.0976	-0.918
Mof_C 	C 	0.5544	0.25	0.9223	-1.178
Mof_C 	C 	0.3376	0.25	0.9131	-1.453
Mof_Cs	Cs	0.25085	0.75	0.95936	1.533
Mof_Cs	Cs	0.81026	0.75	0.79428	2.877
Mof_Cu	Cu	0.13265	0.75	0.76998	0.851
Mof_Cu	Cu	0.99184	0.75	0.77183	0.876
Mof_Si	Si	0.93446	0.75	0.54353	1.791
Mof_Si	Si	0.18013	0.75	0.53239	1.915
Mof_O 	O 	0.1177	0.75	0.5932	-0.949
Mof_O 	O 	0.9997	0.75	0.5976	-0.919
Mof_C 	C 	0.9456	0.75	0.4223	-1.183
Mof_C 	C 	0.1624	0.75	0.4131	-1.463
_end
