data_functionalizedCrystal
_audit_creation_method	'EQeq! by Chris Wilmer'
_symmetry_space_group_name_H-M	'P1'
_symmetry_Int_Tables_number	1
_symmetry_cell_setting	triclinic
loop_
_symmetry_equiv_pos_as_xyz
  x,y,z
_cell_length_a	12.7551
_cell_length_b	13.617
_cell_length_c	14.137
_cell_angle_alpha	66.28
_cell_angle_beta	67.14
_cell_angle_gamma	77.149
loop_
_atom_site_label
_atom_site_type_symbol
_atom_site_fract_x
_atom_site_fract_y
_atom_site_fract_z
_atom_site_charge
Mof_Ho	Ho	0.57112	0.1182	0.98874	2.197
Mof_Ho	Ho	0.56801	0.1792	0.33486	2
Mof_Ho	Ho	0.42888	0.8818	0.01126	2.196
Mof_Ho	Ho	0.43199	0.8208	0.66514	1.999
Mof_H 	H 	0.6516	0.324	0.8939	0.364
Mof_H 	H 	0.5872	0.255	0.861	0.197
Mof_H 	H 	0.5884	0.2581	0.4232	0.108
Mof_H 	H 	0.4784	0.2207	0.4724	0.124
Mof_H 	H 	0.4064	0.4706	0.1589	0.011
Mof_H 	H 	0.2221	0.633	0.9735	0.014
Mof_H 	H 	0.3256	0.3269	0.003	-0.002
Mof_H 	H 	0.1174	0.3553	0.0127	0.093
Mof_H 	H 	0.0063	0.3573	0.9178	0.011
Mof_H 	H 	0.0165	0.49	0.7514	0.081
Mof_H 	H 	0.1396	0.6247	0.68	0.025
Mof_H 	H 	0.6715	0.9217	0.7438	-0.028
Mof_H 	H 	0.7763	0.8145	0.6409	0.106
Mof_H 	H 	0.9528	0.7362	0.6508	-0.009
Mof_H 	H 	0.0243	0.7626	0.7645	0.114
Mof_H 	H 	0.805	0.8694	0.024	0.007
Mof_H 	H 	0.077	0.8705	0.0844	0.019
Mof_H 	H 	0.1079	0.8708	0.7928	0.013
Mof_H 	H 	0.1469	0.9868	0.5553	0.005
Mof_H 	H 	0.9537	0.0435	0.6092	0.085
Mof_H 	H 	0.8919	0.1794	0.6795	0.023
Mof_H 	H 	0.0196	0.262	0.6951	0.096
Mof_H 	H 	0.204	0.3806	0.5766	0.022
Mof_H 	H 	0.416	0.343	0.7282	0.019
Mof_H 	H 	0.2974	0.0841	0.7509	0.001
Mof_H 	H 	0.3484	0.676	0.1061	0.364
Mof_H 	H 	0.4128	0.745	0.139	0.197
Mof_H 	H 	0.4116	0.7419	0.5768	0.108
Mof_H 	H 	0.5216	0.7793	0.5276	0.124
Mof_H 	H 	0.5936	0.5294	0.8411	0.011
Mof_H 	H 	0.7779	0.367	0.0265	0.014
Mof_H 	H 	0.6744	0.6731	0.997	-0.002
Mof_H 	H 	0.8826	0.6447	0.9873	0.093
Mof_H 	H 	0.9937	0.6427	0.0822	0.011
Mof_H 	H 	0.9835	0.51	0.2486	0.081
Mof_H 	H 	0.8604	0.3753	0.32	0.025
Mof_H 	H 	0.3285	0.0783	0.2562	-0.028
Mof_H 	H 	0.2237	0.1855	0.3591	0.106
Mof_H 	H 	0.0472	0.2638	0.3492	-0.009
Mof_H 	H 	0.9757	0.2374	0.2355	0.114
Mof_H 	H 	0.195	0.1306	0.976	0.007
Mof_H 	H 	0.923	0.1295	0.9156	0.019
Mof_H 	H 	0.8921	0.1292	0.2072	0.013
Mof_H 	H 	0.8531	0.0132	0.4447	0.005
Mof_H 	H 	0.0463	0.9565	0.3908	0.085
Mof_H 	H 	0.1081	0.8206	0.3205	0.023
Mof_H 	H 	0.9804	0.738	0.3049	0.096
Mof_H 	H 	0.796	0.6194	0.4234	0.022
Mof_H 	H 	0.584	0.657	0.2718	0.019
Mof_H 	H 	0.7026	0.9159	0.2491	0.001
Mof_C 	C 	0.439	0.2813	0.1432	0.558
Mof_C 	C 	0.3749	0.3824	0.0909	-0.217
Mof_C 	C 	0.37	0.4738	0.112	0.125
Mof_C 	C 	0.2622	0.5691	0.0025	0.065
Mof_C 	C 	0.2632	0.4823	0.9745	-0.083
Mof_C 	C 	0.3219	0.3871	0.02	0.092
Mof_C 	C 	0.1981	0.4884	0.9044	0.118
Mof_C 	C 	0.1227	0.4098	0.9454	-0.161
Mof_C 	C 	0.0559	0.411	0.8885	0.073
Mof_C 	C 	0.0615	0.4898	0.7898	-0.132
Mof_C 	C 	0.1359	0.5703	0.7471	0.06
Mof_C 	C 	0.2047	0.5705	0.8033	-0.135
Mof_C 	C 	0.2845	0.6563	0.7497	0.336
Mof_C 	C 	0.7087	0.9784	0.8769	0.476
Mof_C 	C 	0.784	0.9052	0.8179	-0.223
Mof_C 	C 	0.7425	0.8893	0.7488	0.145
Mof_C 	C 	0.8054	0.8254	0.6865	-0.202
Mof_C 	C 	0.9103	0.7788	0.6925	0.122
Mof_C 	C 	0.9531	0.7951	0.7608	-0.208
Mof_C 	C 	0.8921	0.8592	0.8243	0.156
Mof_C 	C 	0.9459	0.8692	0.8959	-0.097
Mof_C 	C 	0.8839	0.8696	0.001	0.069
Mof_C 	C 	0.0434	0.8695	0.037	0.101
Mof_C 	C 	0.1138	0.8674	0.9349	-0.198
Mof_C 	C 	0.0629	0.8694	0.8631	0.082
Mof_C 	C 	0.2408	0.8626	0.9025	0.56
Mof_C 	C 	0.3257	0.0649	0.5358	0.49
Mof_C 	C 	0.2006	0.0939	0.5884	-0.205
Mof_C 	C 	0.1222	0.0432	0.5819	0.095
Mof_C 	C 	0.006	0.0765	0.6154	-0.143
Mof_C 	C 	0.9693	0.1576	0.657	0.076
Mof_C 	C 	0.0459	0.2073	0.666	-0.165
Mof_C 	C 	0.162	0.1772	0.6322	0.137
Mof_C 	C 	0.2395	0.2251	0.6558	-0.087
Mof_C 	C 	0.2469	0.3351	0.62	0.067
Mof_C 	C 	0.3714	0.3132	0.7094	0.124
Mof_C 	C 	0.3693	0.2028	0.7498	-0.19
Mof_C 	C 	0.3015	0.1582	0.7235	0.087
Mof_C 	C 	0.4355	0.1321	0.8233	0.497
Mof_C 	C 	0.561	0.7187	0.8568	0.558
Mof_C 	C 	0.6251	0.6176	0.9091	-0.217
Mof_C 	C 	0.63	0.5262	0.888	0.125
Mof_C 	C 	0.7378	0.4309	0.9975	0.065
Mof_C 	C 	0.7368	0.5177	0.0255	-0.083
Mof_C 	C 	0.6781	0.6129	0.98	0.092
Mof_C 	C 	0.8019	0.5116	0.0956	0.118
Mof_C 	C 	0.8773	0.5902	0.0546	-0.161
Mof_C 	C 	0.9441	0.589	0.1115	0.073
Mof_C 	C 	0.9385	0.5102	0.2102	-0.132
Mof_C 	C 	0.8641	0.4297	0.2529	0.06
Mof_C 	C 	0.7953	0.4295	0.1967	-0.135
Mof_C 	C 	0.7155	0.3437	0.2503	0.336
Mof_C 	C 	0.2913	0.0216	0.1231	0.476
Mof_C 	C 	0.216	0.0948	0.1821	-0.223
Mof_C 	C 	0.2575	0.1107	0.2512	0.145
Mof_C 	C 	0.1946	0.1746	0.3135	-0.202
Mof_C 	C 	0.0897	0.2212	0.3075	0.122
Mof_C 	C 	0.0469	0.2049	0.2392	-0.208
Mof_C 	C 	0.1079	0.1408	0.1757	0.156
Mof_C 	C 	0.0541	0.1308	0.1041	-0.097
Mof_C 	C 	0.1161	0.1304	0.999	0.069
Mof_C 	C 	0.9566	0.1305	0.963	0.101
Mof_C 	C 	0.8862	0.1326	0.0651	-0.198
Mof_C 	C 	0.9371	0.1306	0.1369	0.082
Mof_C 	C 	0.7592	0.1374	0.0975	0.56
Mof_C 	C 	0.6743	0.9351	0.4642	0.49
Mof_C 	C 	0.7994	0.9061	0.4116	-0.205
Mof_C 	C 	0.8778	0.9568	0.4181	0.095
Mof_C 	C 	0.994	0.9235	0.3846	-0.143
Mof_C 	C 	0.0307	0.8424	0.343	0.076
Mof_C 	C 	0.9541	0.7927	0.334	-0.165
Mof_C 	C 	0.838	0.8228	0.3678	0.137
Mof_C 	C 	0.7605	0.7749	0.3442	-0.087
Mof_C 	C 	0.7531	0.6649	0.38	0.067
Mof_C 	C 	0.6286	0.6868	0.2906	0.124
Mof_C 	C 	0.6307	0.7972	0.2502	-0.19
Mof_C 	C 	0.6985	0.8418	0.2765	0.087
Mof_C 	C 	0.5645	0.8679	0.1767	0.497
Mof_N 	N 	0.3155	0.567	0.0685	-0.163
Mof_N 	N 	0.9293	0.8702	0.072	-0.134
Mof_N 	N 	0.3121	0.3797	0.6443	-0.122
Mof_N 	N 	0.6845	0.433	0.9315	-0.163
Mof_N 	N 	0.0707	0.1298	0.928	-0.134
Mof_N 	N 	0.6879	0.6203	0.3557	-0.122
Mof_O 	O 	0.4743	0.2128	0.0968	-0.597
Mof_O 	O 	0.4526	0.2707	0.2294	-0.541
Mof_O 	O 	0.3791	0.6388	0.7653	-0.408
Mof_O 	O 	0.2586	0.748	0.687	-0.401
Mof_O 	O 	0.6077	0.9547	0.9383	-0.636
Mof_O 	O 	0.7429	0.0621	0.8661	-0.483
Mof_O 	O 	0.3007	0.86	0.809	-0.575
Mof_O 	O 	0.2801	0.8586	0.9722	-0.546
Mof_O 	O 	0.3885	0.1405	0.4759	-0.523
Mof_O 	O 	0.3572	0.9665	0.5504	-0.549
Mof_O 	O 	0.4298	0.0314	0.8536	-0.534
Mof_O 	O 	0.4921	0.1756	0.8492	-0.538
Mof_O 	O 	0.6302	0.2905	0.8665	-0.747
Mof_O 	O 	0.5227	0.2602	0.4707	-0.463
Mof_O 	O 	0.5257	0.7872	0.9032	-0.597
Mof_O 	O 	0.5474	0.7293	0.7706	-0.541
Mof_O 	O 	0.6209	0.3612	0.2347	-0.408
Mof_O 	O 	0.7414	0.252	0.313	-0.401
Mof_O 	O 	0.3923	0.0453	0.0617	-0.636
Mof_O 	O 	0.2571	0.9379	0.1339	-0.483
Mof_O 	O 	0.6993	0.14	0.191	-0.575
Mof_O 	O 	0.7199	0.1414	0.0278	-0.546
Mof_O 	O 	0.6115	0.8595	0.5241	-0.523
Mof_O 	O 	0.6428	0.0335	0.4496	-0.549
Mof_O 	O 	0.5702	0.9686	0.1464	-0.534
Mof_O 	O 	0.5079	0.8244	0.1508	-0.538
Mof_O 	O 	0.3698	0.7095	0.1335	-0.747
Mof_O 	O 	0.4773	0.7398	0.5293	-0.463
_end
