data_functionalizedCrystal
_audit_creation_method	'EQeq! by Chris Wilmer'
_symmetry_space_group_name_H-M	'P1'
_symmetry_Int_Tables_number	1
_symmetry_cell_setting	triclinic
loop_
_symmetry_equiv_pos_as_xyz
  x,y,z
_cell_length_a	7.9219
_cell_length_b	8.3194
_cell_length_c	17.476
_cell_angle_alpha	90
_cell_angle_beta	90
_cell_angle_gamma	109.008
loop_
_atom_site_label
_atom_site_type_symbol
_atom_site_fract_x
_atom_site_fract_y
_atom_site_fract_z
_atom_site_charge
Mof_Eu	Eu	0.75582	0.2803	0.97778	2.236
Mof_Eu	Eu	0.74418	0.7197	0.47778	2.24
Mof_Eu	Eu	0.24418	0.7197	0.02222	2.236
Mof_Eu	Eu	0.25582	0.2803	0.52222	2.24
Mof_H 	H 	0.8319	0.6254	0.7127	0.012
Mof_H 	H 	0.11	0.93	0.869	0.074
Mof_H 	H 	0.6681	0.3746	0.2127	0.013
Mof_H 	H 	0.39	0.07	0.369	0.074
Mof_H 	H 	0.1681	0.3746	0.2873	0.012
Mof_H 	H 	0.89	0.07	0.131	0.074
Mof_H 	H 	0.3319	0.6254	0.7873	0.013
Mof_H 	H 	0.61	0.93	0.631	0.074
Mof_C 	C 	0.9022	0.5944	0.877	0.431
Mof_C 	C 	0.9543	0.7226	0.8152	-0.089
Mof_C 	C 	0.9111	0.7162	0.7389	0.075
Mof_C 	C 	0.0103	0.8739	0.7087	-0.126
Mof_C 	C 	0.0192	0.9405	0.63	0.558
Mof_C 	C 	0.4292	0.4366	0.9745	0.271
Mof_C 	C 	0.5978	0.4056	0.377	0.431
Mof_C 	C 	0.5457	0.2774	0.3152	-0.09
Mof_C 	C 	0.5889	0.2838	0.2389	0.073
Mof_C 	C 	0.4897	0.1261	0.2087	-0.126
Mof_C 	C 	0.4808	0.0595	0.13	0.573
Mof_C 	C 	0.0708	0.5634	0.4745	0.271
Mof_C 	C 	0.0978	0.4056	0.123	0.431
Mof_C 	C 	0.0457	0.2774	0.1848	-0.089
Mof_C 	C 	0.0889	0.2838	0.2611	0.075
Mof_C 	C 	0.9897	0.1261	0.2913	-0.126
Mof_C 	C 	0.9808	0.0595	0.37	0.558
Mof_C 	C 	0.5708	0.5634	0.0255	0.271
Mof_C 	C 	0.4022	0.5944	0.623	0.431
Mof_C 	C 	0.4543	0.7226	0.6848	-0.09
Mof_C 	C 	0.4111	0.7162	0.7611	0.073
Mof_C 	C 	0.5103	0.8739	0.7913	-0.126
Mof_C 	C 	0.5192	0.9405	0.87	0.573
Mof_C 	C 	0.9292	0.4366	0.5255	0.271
Mof_N 	N 	0.0784	0.8776	0.8291	-0.142
Mof_N 	N 	0.1103	0.9701	0.765	-0.053
Mof_N 	N 	0.4216	0.1224	0.3291	-0.141
Mof_N 	N 	0.3897	0.0299	0.265	-0.052
Mof_N 	N 	0.9216	0.1224	0.1709	-0.142
Mof_N 	N 	0.8897	0.0299	0.235	-0.053
Mof_N 	N 	0.5784	0.8776	0.6709	-0.141
Mof_N 	N 	0.6103	0.9701	0.735	-0.052
Mof_O 	O 	0.9992	0.6173	0.9363	-0.637
Mof_O 	O 	0.765	0.4697	0.8692	-0.496
Mof_O 	O 	0.1242	0.0857	0.6183	-0.603
Mof_O 	O 	0.9229	0.8474	0.5809	-0.619
Mof_O 	O 	0.4518	0.2995	0.9564	-0.431
Mof_O 	O 	0.2954	0.48	0.9574	-0.461
Mof_O 	O 	0.5008	0.3827	0.4363	-0.638
Mof_O 	O 	0.735	0.5303	0.3692	-0.496
Mof_O 	O 	0.3758	0.9143	0.1183	-0.611
Mof_O 	O 	0.5771	0.1526	0.0809	-0.623
Mof_O 	O 	0.0482	0.7005	0.4564	-0.434
Mof_O 	O 	0.2046	0.52	0.4574	-0.464
Mof_O 	O 	0.0008	0.3827	0.0637	-0.637
Mof_O 	O 	0.235	0.5303	0.1308	-0.496
Mof_O 	O 	0.8758	0.9143	0.3817	-0.603
Mof_O 	O 	0.0771	0.1526	0.4191	-0.619
Mof_O 	O 	0.5482	0.7005	0.0436	-0.431
Mof_O 	O 	0.7046	0.52	0.0426	-0.461
Mof_O 	O 	0.4992	0.6173	0.5637	-0.638
Mof_O 	O 	0.265	0.4697	0.6308	-0.496
Mof_O 	O 	0.6242	0.0857	0.8817	-0.611
Mof_O 	O 	0.4229	0.8474	0.9191	-0.623
Mof_O 	O 	0.9518	0.2995	0.5436	-0.434
Mof_O 	O 	0.7954	0.48	0.5426	-0.464
_end
