data_functionalizedCrystal
_audit_creation_method	'EQeq! by Chris Wilmer'
_symmetry_space_group_name_H-M	'P1'
_symmetry_Int_Tables_number	1
_symmetry_cell_setting	triclinic
loop_
_symmetry_equiv_pos_as_xyz
  x,y,z
_cell_length_a	22.078
_cell_length_b	16.3817
_cell_length_c	25.6311
_cell_angle_alpha	90
_cell_angle_beta	115.334
_cell_angle_gamma	90
loop_
_atom_site_label
_atom_site_type_symbol
_atom_site_fract_x
_atom_site_fract_y
_atom_site_fract_z
_atom_site_charge
Mof_Ag	Ag	0.34412	0.54225	0.36793	0.526
Mof_Ag	Ag	0.32288	0.24792	0.86728	0.537
Mof_C 	C 	0.1241	0.243	0.50248	0.1
Mof_C 	C 	0.2351	0.4353	0.3886	0.085
Mof_H 	H 	0.2128	0.4425	0.3488	-0.009
Mof_C 	C 	0.0331	0.1873	0.411	-0.143
Mof_H 	H 	0.0548	0.208	0.3898	0.081
Mof_C 	C 	0.7198	0.8479	0.8921	0.056
Mof_H 	H 	0.6996	0.843	0.8521	-0.022
Mof_C 	C 	0.06	0.198	0.47024	0.06
Mof_C 	C 	0.5978	0.0302	0.00107	0.102
Mof_C 	C 	0.7784	0.8621	0.0096	-0.111
Mof_H 	H 	0.7995	0.8657	0.0496	0.067
Mof_C 	C 	0.444	0.1568	0.9651	0.089
Mof_H 	H 	0.4239	0.1844	0.9852	-0.014
Mof_C 	C 	0.0263	0.1642	0.5	-0.145
Mof_H 	H 	0.0437	0.1686	0.5399	0.075
Mof_C 	C 	0.298	0.4157	0.5049	-0.131
Mof_H 	H 	0.3204	0.4114	0.5448	0.084
Mof_C 	C 	0.5035	0.1167	0.9963	-0.141
Mof_H 	H 	0.5234	0.1183	0.0365	0.089
Mof_C 	C 	0.2435	0.2625	0.65138	0.059
Mof_C 	C 	0.2097	0.273	0.58766	0.101
Mof_C 	C 	0.5332	0.0739	0.96689	0.066
Mof_C 	C 	0.2054	0.3276	0.50521	0.103
Mof_C 	C 	0.967	0.1244	0.4696	0.073
Mof_H 	H 	0.9447	0.1026	0.4901	-0.02
Mof_C 	C 	0.6825	0.9481	0.00698	0.104
Mof_C 	C 	0.6788	0.0447	0.181	-0.132
Mof_H 	H 	0.6349	0.0629	0.161	0.079
Mof_C 	C 	0.7158	0.8986	0.978	0.035
Mof_C 	C 	0.6802	0.9981	0.08838	0.097
Mof_C 	C 	0.326	0.4594	0.4741	0.084
Mof_H 	H 	0.368	0.4829	0.4944	-0.012
Mof_C 	C 	0.8075	0.9949	0.2428	0.071
Mof_H 	H 	0.8516	0.9781	0.2636	-0.023
Mof_C 	C 	0.236	0.3787	0.4748	0.068
Mof_C 	C 	0.204	0.3899	0.4153	-0.133
Mof_H 	H 	0.162	0.367	0.3938	0.084
Mof_C 	C 	0.9734	0.1451	0.3841	0.071
Mof_H 	H 	0.9562	0.1372	0.3444	-0.02
Mof_C 	C 	0.7123	0.0081	0.1518	0.05
Mof_C 	C 	0.808	0.8206	0.9794	0.053
Mof_H 	H 	0.8495	0.7963	0.0003	-0.001
Mof_C 	C 	0.712	0.0535	0.2407	0.074
Mof_H 	H 	0.6891	0.0772	0.26	-0.014
Mof_C 	C 	0.3022	0.3025	0.685	-0.141
Mof_H 	H 	0.3237	0.3351	0.6684	0.083
Mof_C 	C 	0.5025	0.0732	0.9071	-0.136
Mof_H 	H 	0.521	0.0443	0.8861	0.079
Mof_C 	C 	0.4435	0.1167	0.8793	0.081
Mof_H 	H 	0.4235	0.1173	0.8392	-0.006
Mof_C 	C 	0.2457	0.2046	0.7375	0.068
Mof_H 	H 	0.2269	0.1697	0.7552	-0.016
Mof_C 	C 	0.2153	0.2106	0.6779	-0.132
Mof_H 	H 	0.1769	0.1806	0.6561	0.068
Mof_C 	C 	0.3284	0.2929	0.7444	0.084
Mof_H 	H 	0.3677	0.3206	0.7669	-0.021
Mof_C 	C 	0.686	0.8907	0.9184	-0.12
Mof_H 	H 	0.6442	0.9137	0.8964	0.073
Mof_C 	C 	0.7784	0.9832	0.1835	-0.138
Mof_H 	H 	0.8024	0.9592	0.1653	0.072
Mof_N 	N 	0.93918	0.1151	0.41217	-0.214
Mof_N 	N 	0.29562	0.4696	0.41668	-0.192
Mof_N 	N 	0.3008	0.2465	0.77124	-0.199
Mof_N 	N 	0.14809	0.2892	0.47259	-0.138
Mof_N 	N 	0.23827	0.3224	0.56291	-0.137
Mof_N 	N 	0.15301	0.232	0.55938	-0.143
Mof_N 	N 	0.41343	0.1584	0.90725	-0.188
Mof_N 	N 	0.7802	0.8132	0.92145	-0.204
Mof_N 	N 	0.776	0.0291	0.27182	-0.198
Mof_N 	N 	0.62631	0.9885	0.97299	-0.145
Mof_N 	N 	0.71121	0.9504	0.06458	-0.151
Mof_N 	N 	0.62279	0.0374	0.05894	-0.138
Mof_Ag	Ag	0.84412	0.04225	0.36793	0.525
Mof_Ag	Ag	0.82288	0.74792	0.86728	0.535
Mof_C 	C 	0.6241	0.743	0.50248	0.099
Mof_C 	C 	0.7351	0.9353	0.3886	0.084
Mof_H 	H 	0.7128	0.9425	0.3488	-0.01
Mof_C 	C 	0.5331	0.6873	0.411	-0.142
Mof_H 	H 	0.5548	0.708	0.3898	0.081
Mof_C 	C 	0.2198	0.3479	0.8921	0.059
Mof_H 	H 	0.1996	0.343	0.8521	-0.023
Mof_C 	C 	0.56	0.698	0.47024	0.06
Mof_C 	C 	0.0978	0.5302	0.00107	0.101
Mof_C 	C 	0.2784	0.3621	0.0096	-0.12
Mof_H 	H 	0.2995	0.3657	0.0496	0.07
Mof_C 	C 	0.944	0.6568	0.9651	0.087
Mof_H 	H 	0.9239	0.6844	0.9852	-0.014
Mof_C 	C 	0.5263	0.6642	0.5	-0.145
Mof_H 	H 	0.5437	0.6686	0.5399	0.075
Mof_C 	C 	0.798	0.9157	0.5049	-0.131
Mof_H 	H 	0.8204	0.9114	0.5448	0.084
Mof_C 	C 	0.0035	0.6167	0.9963	-0.137
Mof_H 	H 	0.0234	0.6183	0.0365	0.087
Mof_C 	C 	0.7435	0.7625	0.65138	0.059
Mof_C 	C 	0.7097	0.773	0.58766	0.101
Mof_C 	C 	0.0332	0.5739	0.96689	0.065
Mof_C 	C 	0.7054	0.8276	0.50521	0.103
Mof_C 	C 	0.467	0.6244	0.4696	0.073
Mof_H 	H 	0.4447	0.6026	0.4901	-0.02
Mof_C 	C 	0.1825	0.4481	0.00698	0.1
Mof_C 	C 	0.1788	0.5447	0.181	-0.132
Mof_H 	H 	0.1349	0.5629	0.161	0.08
Mof_C 	C 	0.2158	0.3986	0.978	0.042
Mof_C 	C 	0.1802	0.4981	0.08838	0.096
Mof_C 	C 	0.826	0.9594	0.4741	0.084
Mof_H 	H 	0.868	0.9829	0.4944	-0.012
Mof_C 	C 	0.3075	0.4949	0.2428	0.071
Mof_H 	H 	0.3516	0.4781	0.2636	-0.023
Mof_C 	C 	0.736	0.8787	0.4748	0.068
Mof_C 	C 	0.704	0.8899	0.4153	-0.133
Mof_H 	H 	0.662	0.867	0.3938	0.084
Mof_C 	C 	0.4734	0.6451	0.3841	0.071
Mof_H 	H 	0.4562	0.6372	0.3444	-0.02
Mof_C 	C 	0.2123	0.5081	0.1518	0.051
Mof_C 	C 	0.308	0.3206	0.9794	0.061
Mof_H 	H 	0.3495	0.2963	0.0003	-0.005
Mof_C 	C 	0.212	0.5535	0.2407	0.074
Mof_H 	H 	0.1891	0.5772	0.26	-0.014
Mof_C 	C 	0.8022	0.8025	0.685	-0.141
Mof_H 	H 	0.8237	0.8351	0.6684	0.083
Mof_C 	C 	0.0025	0.5732	0.9071	-0.134
Mof_H 	H 	0.021	0.5443	0.8861	0.079
Mof_C 	C 	0.9435	0.6167	0.8793	0.079
Mof_H 	H 	0.9235	0.6173	0.8392	-0.005
Mof_C 	C 	0.7457	0.7046	0.7375	0.068
Mof_H 	H 	0.7269	0.6697	0.7552	-0.016
Mof_C 	C 	0.7153	0.7106	0.6779	-0.132
Mof_H 	H 	0.6769	0.6806	0.6561	0.068
Mof_C 	C 	0.8284	0.7929	0.7444	0.084
Mof_H 	H 	0.8677	0.8206	0.7669	-0.021
Mof_C 	C 	0.186	0.3907	0.9184	-0.125
Mof_H 	H 	0.1442	0.4137	0.8964	0.074
Mof_C 	C 	0.2784	0.4832	0.1835	-0.139
Mof_H 	H 	0.3024	0.4592	0.1653	0.072
Mof_N 	N 	0.43918	0.6151	0.41217	-0.214
Mof_N 	N 	0.79562	0.9696	0.41668	-0.192
Mof_N 	N 	0.8008	0.7465	0.77124	-0.199
Mof_N 	N 	0.64809	0.7892	0.47259	-0.138
Mof_N 	N 	0.73827	0.8224	0.56291	-0.137
Mof_N 	N 	0.65301	0.732	0.55938	-0.143
Mof_N 	N 	0.91343	0.6584	0.90725	-0.187
Mof_N 	N 	0.2802	0.3132	0.92145	-0.205
Mof_N 	N 	0.276	0.5291	0.27182	-0.198
Mof_N 	N 	0.12631	0.4885	0.97299	-0.143
Mof_N 	N 	0.21121	0.4504	0.06458	-0.15
Mof_N 	N 	0.12279	0.5374	0.05894	-0.137
Mof_Ag	Ag	0.65588	0.54225	0.13207	0.525
Mof_Ag	Ag	0.67712	0.24792	0.63272	0.536
Mof_C 	C 	0.8759	0.243	0.99752	0.094
Mof_C 	C 	0.7649	0.4353	0.1114	0.088
Mof_H 	H 	0.7872	0.4425	0.1512	-0.011
Mof_C 	C 	0.9669	0.1873	0.089	-0.14
Mof_H 	H 	0.9452	0.208	0.1102	0.081
Mof_C 	C 	0.2802	0.8479	0.6079	0.062
Mof_H 	H 	0.3004	0.843	0.6479	-0.024
Mof_C 	C 	0.94	0.198	0.02976	0.06
Mof_C 	C 	0.4022	0.0302	0.49893	0.098
Mof_C 	C 	0.2216	0.8621	0.4904	-0.133
Mof_H 	H 	0.2005	0.8657	0.4504	0.074
Mof_C 	C 	0.556	0.1568	0.5349	0.087
Mof_H 	H 	0.5761	0.1844	0.5148	-0.012
Mof_C 	C 	0.9737	0.1642	-0	-0.135
Mof_H 	H 	0.9563	0.1686	0.9601	0.069
Mof_C 	C 	0.702	0.4157	0.9951	-0.148
Mof_H 	H 	0.6796	0.4114	0.9552	0.089
Mof_C 	C 	0.4965	0.1167	0.5037	-0.136
Mof_H 	H 	0.4766	0.1183	0.4635	0.086
Mof_C 	C 	0.7565	0.2625	0.84862	0.059
Mof_C 	C 	0.7903	0.273	0.91234	0.101
Mof_C 	C 	0.4668	0.0739	0.53311	0.067
Mof_C 	C 	0.7946	0.3276	0.99479	0.094
Mof_C 	C 	0.033	0.1244	0.0304	0.067
Mof_H 	H 	0.0553	0.1026	0.0099	-0.017
Mof_C 	C 	0.3175	0.9481	0.49302	0.095
Mof_C 	C 	0.3212	0.0447	0.319	-0.132
Mof_H 	H 	0.3651	0.0629	0.339	0.08
Mof_C 	C 	0.2842	0.8986	0.522	0.052
Mof_C 	C 	0.3198	0.9981	0.41162	0.097
Mof_C 	C 	0.674	0.4594	0.0259	0.095
Mof_H 	H 	0.632	0.4829	0.0056	-0.015
Mof_C 	C 	0.1925	0.9949	0.2572	0.071
Mof_H 	H 	0.1484	0.9781	0.2364	-0.023
Mof_C 	C 	0.764	0.3787	0.0252	0.082
Mof_C 	C 	0.796	0.3899	0.0847	-0.141
Mof_H 	H 	0.838	0.367	0.1062	0.087
Mof_C 	C 	0.0266	0.1451	0.1159	0.068
Mof_H 	H 	0.0438	0.1372	0.1556	-0.019
Mof_C 	C 	0.2877	0.0081	0.3482	0.05
Mof_C 	C 	0.192	0.8206	0.5206	0.073
Mof_H 	H 	0.1505	0.7963	0.4997	-0.011
Mof_C 	C 	0.288	0.0535	0.2593	0.074
Mof_H 	H 	0.3109	0.0772	0.24	-0.014
Mof_C 	C 	0.6978	0.3025	0.815	-0.141
Mof_H 	H 	0.6763	0.3351	0.8316	0.083
Mof_C 	C 	0.4975	0.0732	0.5929	-0.136
Mof_H 	H 	0.479	0.0443	0.6139	0.079
Mof_C 	C 	0.5565	0.1167	0.6207	0.081
Mof_H 	H 	0.5765	0.1173	0.6608	-0.006
Mof_C 	C 	0.7543	0.2046	0.7625	0.068
Mof_H 	H 	0.7731	0.1697	0.7448	-0.016
Mof_C 	C 	0.7847	0.2106	0.8221	-0.132
Mof_H 	H 	0.8231	0.1806	0.8439	0.068
Mof_C 	C 	0.6716	0.2929	0.7556	0.084
Mof_H 	H 	0.6323	0.3206	0.7331	-0.021
Mof_C 	C 	0.314	0.8907	0.5816	-0.131
Mof_H 	H 	0.3558	0.9137	0.6036	0.076
Mof_C 	C 	0.2216	0.9832	0.3165	-0.138
Mof_H 	H 	0.1976	0.9592	0.3347	0.072
Mof_N 	N 	0.06082	0.1151	0.08783	-0.213
Mof_N 	N 	0.70438	0.4696	0.08332	-0.195
Mof_N 	N 	0.6992	0.2465	0.72876	-0.199
Mof_N 	N 	0.85191	0.2892	0.02741	-0.134
Mof_N 	N 	0.76173	0.3224	0.93709	-0.136
Mof_N 	N 	0.84699	0.232	0.94062	-0.142
Mof_N 	N 	0.58657	0.1584	0.59275	-0.187
Mof_N 	N 	0.2198	0.8132	0.57855	-0.208
Mof_N 	N 	0.224	0.0291	0.22818	-0.198
Mof_N 	N 	0.37369	0.9885	0.52701	-0.14
Mof_N 	N 	0.28879	0.9504	0.43542	-0.149
Mof_N 	N 	0.37721	0.0374	0.44106	-0.137
Mof_Ag	Ag	0.15588	0.04225	0.13207	0.525
Mof_Ag	Ag	0.17712	0.74792	0.63272	0.536
Mof_C 	C 	0.3759	0.743	0.99752	0.095
Mof_C 	C 	0.2649	0.9353	0.1114	0.087
Mof_H 	H 	0.2872	0.9425	0.1512	-0.011
Mof_C 	C 	0.4669	0.6873	0.089	-0.142
Mof_H 	H 	0.4452	0.708	0.1102	0.082
Mof_C 	C 	0.7802	0.3479	0.6079	0.062
Mof_H 	H 	0.8004	0.343	0.6479	-0.024
Mof_C 	C 	0.44	0.698	0.02976	0.061
Mof_C 	C 	0.9022	0.5302	0.49893	0.098
Mof_C 	C 	0.7216	0.3621	0.4904	-0.133
Mof_H 	H 	0.7005	0.3657	0.4504	0.074
Mof_C 	C 	0.056	0.6568	0.5349	0.087
Mof_H 	H 	0.0761	0.6844	0.5148	-0.012
Mof_C 	C 	0.4737	0.6642	-0	-0.14
Mof_H 	H 	0.4563	0.6686	0.9601	0.071
Mof_C 	C 	0.202	0.9157	0.9951	-0.144
Mof_H 	H 	0.1796	0.9114	0.9552	0.088
Mof_C 	C 	0.9965	0.6167	0.5037	-0.135
Mof_H 	H 	0.9766	0.6183	0.4635	0.086
Mof_C 	C 	0.2565	0.7625	0.84862	0.059
Mof_C 	C 	0.2903	0.773	0.91234	0.101
Mof_C 	C 	0.9668	0.5739	0.53311	0.067
Mof_C 	C 	0.2946	0.8276	0.99479	0.096
Mof_C 	C 	0.533	0.6244	0.0304	0.07
Mof_H 	H 	0.5553	0.6026	0.0099	-0.018
Mof_C 	C 	0.8175	0.4481	0.49302	0.095
Mof_C 	C 	0.8212	0.5447	0.319	-0.132
Mof_H 	H 	0.8651	0.5629	0.339	0.08
Mof_C 	C 	0.7842	0.3986	0.522	0.051
Mof_C 	C 	0.8198	0.4981	0.41162	0.096
Mof_C 	C 	0.174	0.9594	0.0259	0.092
Mof_H 	H 	0.132	0.9829	0.0056	-0.014
Mof_C 	C 	0.6925	0.4949	0.2572	0.071
Mof_H 	H 	0.6484	0.4781	0.2364	-0.023
Mof_C 	C 	0.264	0.8787	0.0252	0.078
Mof_C 	C 	0.296	0.8899	0.0847	-0.139
Mof_H 	H 	0.338	0.867	0.1062	0.086
Mof_C 	C 	0.5266	0.6451	0.1159	0.071
Mof_H 	H 	0.5438	0.6372	0.1556	-0.02
Mof_C 	C 	0.7877	0.5081	0.3482	0.051
Mof_C 	C 	0.692	0.3206	0.5206	0.073
Mof_H 	H 	0.6505	0.2963	0.4997	-0.011
Mof_C 	C 	0.788	0.5535	0.2593	0.074
Mof_H 	H 	0.8109	0.5772	0.24	-0.014
Mof_C 	C 	0.1978	0.8025	0.815	-0.141
Mof_H 	H 	0.1763	0.8351	0.8316	0.083
Mof_C 	C 	0.9975	0.5732	0.5929	-0.136
Mof_H 	H 	0.979	0.5443	0.6139	0.079
Mof_C 	C 	0.0565	0.6167	0.6207	0.081
Mof_H 	H 	0.0765	0.6173	0.6608	-0.006
Mof_C 	C 	0.2543	0.7046	0.7625	0.068
Mof_H 	H 	0.2731	0.6697	0.7448	-0.016
Mof_C 	C 	0.2847	0.7106	0.8221	-0.132
Mof_H 	H 	0.3231	0.6806	0.8439	0.068
Mof_C 	C 	0.1716	0.7929	0.7556	0.084
Mof_H 	H 	0.1323	0.8206	0.7331	-0.021
Mof_C 	C 	0.814	0.3907	0.5816	-0.13
Mof_H 	H 	0.8558	0.4137	0.6036	0.076
Mof_C 	C 	0.7216	0.4832	0.3165	-0.138
Mof_H 	H 	0.6976	0.4592	0.3347	0.072
Mof_N 	N 	0.56082	0.6151	0.08783	-0.214
Mof_N 	N 	0.20438	0.9696	0.08332	-0.194
Mof_N 	N 	0.1992	0.7465	0.72876	-0.199
Mof_N 	N 	0.35191	0.7892	0.02741	-0.135
Mof_N 	N 	0.26173	0.8224	0.93709	-0.136
Mof_N 	N 	0.34699	0.732	0.94062	-0.142
Mof_N 	N 	0.08657	0.6584	0.59275	-0.187
Mof_N 	N 	0.7198	0.3132	0.57855	-0.208
Mof_N 	N 	0.724	0.5291	0.22818	-0.198
Mof_N 	N 	0.87369	0.4885	0.52701	-0.14
Mof_N 	N 	0.78879	0.4504	0.43542	-0.149
Mof_N 	N 	0.87721	0.5374	0.44106	-0.137
Mof_Ag	Ag	0.65588	0.45775	0.63207	0.525
Mof_Ag	Ag	0.67712	0.75208	0.13272	0.537
Mof_C 	C 	0.8759	0.757	0.49752	0.099
Mof_C 	C 	0.7649	0.5647	0.6114	0.084
Mof_H 	H 	0.7872	0.5575	0.6512	-0.01
Mof_C 	C 	0.9669	0.8127	0.589	-0.142
Mof_H 	H 	0.9452	0.792	0.6102	0.081
Mof_C 	C 	0.2802	0.1521	0.1079	0.065
Mof_H 	H 	0.3004	0.157	0.1479	-0.025
Mof_C 	C 	0.94	0.802	0.52976	0.06
Mof_C 	C 	0.4022	0.9698	0.99893	0.094
Mof_C 	C 	0.2216	0.1379	0.9904	-0.145
Mof_H 	H 	0.2005	0.1343	0.9504	0.078
Mof_C 	C 	0.556	0.8432	0.0349	0.084
Mof_H 	H 	0.5761	0.8156	0.0148	-0.011
Mof_C 	C 	0.9737	0.8358	0.5	-0.145
Mof_H 	H 	0.9563	0.8314	0.4601	0.075
Mof_C 	C 	0.702	0.5843	0.4951	-0.131
Mof_H 	H 	0.6796	0.5886	0.4552	0.084
Mof_C 	C 	0.4965	0.8833	0.0037	-0.13
Mof_H 	H 	0.4766	0.8817	0.9635	0.082
Mof_C 	C 	0.7565	0.7375	0.34862	0.059
Mof_C 	C 	0.7903	0.727	0.41234	0.101
Mof_C 	C 	0.4668	0.9261	0.03311	0.068
Mof_C 	C 	0.7946	0.6724	0.49479	0.103
Mof_C 	C 	0.033	0.8756	0.5304	0.072
Mof_H 	H 	0.0553	0.8974	0.5099	-0.02
Mof_C 	C 	0.3175	0.0519	0.99302	0.089
Mof_C 	C 	0.3212	0.9553	0.819	-0.132
Mof_H 	H 	0.3651	0.9371	0.839	0.079
Mof_C 	C 	0.2842	0.1014	0.022	0.06
Mof_C 	C 	0.3198	0.0019	0.91162	0.096
Mof_C 	C 	0.674	0.5406	0.5259	0.084
Mof_H 	H 	0.632	0.5171	0.5056	-0.012
Mof_C 	C 	0.1925	0.0051	0.7572	0.07
Mof_H 	H 	0.1484	0.0219	0.7364	-0.023
Mof_C 	C 	0.764	0.6213	0.5252	0.068
Mof_C 	C 	0.796	0.6101	0.5847	-0.133
Mof_H 	H 	0.838	0.633	0.6062	0.084
Mof_C 	C 	0.0266	0.8549	0.6159	0.071
Mof_H 	H 	0.0438	0.8628	0.6556	-0.02
Mof_C 	C 	0.2877	0.9919	0.8482	0.05
Mof_C 	C 	0.192	0.1794	0.0206	0.083
Mof_H 	H 	0.1505	0.2037	0.9997	-0.016
Mof_C 	C 	0.288	0.9465	0.7593	0.074
Mof_H 	H 	0.3109	0.9228	0.74	-0.014
Mof_C 	C 	0.6978	0.6975	0.315	-0.141
Mof_H 	H 	0.6763	0.6649	0.3316	0.083
Mof_C 	C 	0.4975	0.9268	0.0929	-0.136
Mof_H 	H 	0.479	0.9557	0.1139	0.08
Mof_C 	C 	0.5565	0.8833	0.1207	0.081
Mof_H 	H 	0.5765	0.8827	0.1608	-0.006
Mof_C 	C 	0.7543	0.7954	0.2625	0.068
Mof_H 	H 	0.7731	0.8303	0.2448	-0.016
Mof_C 	C 	0.7847	0.7894	0.3221	-0.132
Mof_H 	H 	0.8231	0.8194	0.3439	0.068
Mof_C 	C 	0.6716	0.7071	0.2556	0.084
Mof_H 	H 	0.6323	0.6794	0.2331	-0.021
Mof_C 	C 	0.314	0.1093	0.0816	-0.136
Mof_H 	H 	0.3558	0.0863	0.1036	0.078
Mof_C 	C 	0.2216	0.0168	0.8165	-0.138
Mof_H 	H 	0.1976	0.0408	0.8347	0.071
Mof_N 	N 	0.06082	0.8849	0.58783	-0.214
Mof_N 	N 	0.70438	0.5304	0.58332	-0.192
Mof_N 	N 	0.6992	0.7535	0.22876	-0.199
Mof_N 	N 	0.85191	0.7108	0.52741	-0.138
Mof_N 	N 	0.76173	0.6776	0.43709	-0.137
Mof_N 	N 	0.84699	0.768	0.44062	-0.143
Mof_N 	N 	0.58657	0.8416	0.09275	-0.187
Mof_N 	N 	0.2198	0.1868	0.07855	-0.21
Mof_N 	N 	0.224	0.9709	0.72818	-0.198
Mof_N 	N 	0.37369	0.0115	0.02701	-0.137
Mof_N 	N 	0.28879	0.0496	0.93542	-0.148
Mof_N 	N 	0.37721	0.9626	0.94106	-0.136
Mof_Ag	Ag	0.15588	0.95775	0.63207	0.525
Mof_Ag	Ag	0.17712	0.25208	0.13272	0.537
Mof_C 	C 	0.3759	0.257	0.49752	0.099
Mof_C 	C 	0.2649	0.0647	0.6114	0.084
Mof_H 	H 	0.2872	0.0575	0.6512	-0.01
Mof_C 	C 	0.4669	0.3127	0.589	-0.142
Mof_H 	H 	0.4452	0.292	0.6102	0.081
Mof_C 	C 	0.7802	0.6521	0.1079	0.068
Mof_H 	H 	0.8004	0.657	0.1479	-0.026
Mof_C 	C 	0.44	0.302	0.52976	0.06
Mof_C 	C 	0.9022	0.4698	0.99893	0.094
Mof_C 	C 	0.7216	0.6379	0.9904	-0.155
Mof_H 	H 	0.7005	0.6343	0.9504	0.081
Mof_C 	C 	0.056	0.3432	0.0349	0.081
Mof_H 	H 	0.0761	0.3156	0.0148	-0.01
Mof_C 	C 	0.4737	0.3358	0.5	-0.145
Mof_H 	H 	0.4563	0.3314	0.4601	0.075
Mof_C 	C 	0.202	0.0843	0.4951	-0.131
Mof_H 	H 	0.1796	0.0886	0.4552	0.084
Mof_C 	C 	0.9965	0.3833	0.0037	-0.125
Mof_H 	H 	0.9766	0.3817	0.9635	0.08
Mof_C 	C 	0.2565	0.2375	0.34862	0.059
Mof_C 	C 	0.2903	0.227	0.41234	0.101
Mof_C 	C 	0.9668	0.4261	0.03311	0.067
Mof_C 	C 	0.2946	0.1724	0.49479	0.103
Mof_C 	C 	0.533	0.3756	0.5304	0.073
Mof_H 	H 	0.5553	0.3974	0.5099	-0.02
Mof_C 	C 	0.8175	0.5519	0.99302	0.085
Mof_C 	C 	0.8212	0.4553	0.819	-0.132
Mof_H 	H 	0.8651	0.4371	0.839	0.08
Mof_C 	C 	0.7842	0.6014	0.022	0.067
Mof_C 	C 	0.8198	0.5019	0.91162	0.096
Mof_C 	C 	0.174	0.0406	0.5259	0.084
Mof_H 	H 	0.132	0.0171	0.5056	-0.012
Mof_C 	C 	0.6925	0.5051	0.7572	0.071
Mof_H 	H 	0.6484	0.5219	0.7364	-0.023
Mof_C 	C 	0.264	0.1213	0.5252	0.068
Mof_C 	C 	0.296	0.1101	0.5847	-0.133
Mof_H 	H 	0.338	0.133	0.6062	0.084
Mof_C 	C 	0.5266	0.3549	0.6159	0.071
Mof_H 	H 	0.5438	0.3628	0.6556	-0.02
Mof_C 	C 	0.7877	0.4919	0.8482	0.051
Mof_C 	C 	0.692	0.6794	0.0206	0.091
Mof_H 	H 	0.6505	0.7037	0.9997	-0.02
Mof_C 	C 	0.788	0.4465	0.7593	0.074
Mof_H 	H 	0.8109	0.4228	0.74	-0.014
Mof_C 	C 	0.1978	0.1975	0.315	-0.141
Mof_H 	H 	0.1763	0.1649	0.3316	0.083
Mof_C 	C 	0.9975	0.4268	0.0929	-0.134
Mof_H 	H 	0.979	0.4557	0.1139	0.079
Mof_C 	C 	0.0565	0.3833	0.1207	0.078
Mof_H 	H 	0.0765	0.3827	0.1608	-0.005
Mof_C 	C 	0.2543	0.2954	0.2625	0.068
Mof_H 	H 	0.2731	0.3303	0.2448	-0.016
Mof_C 	C 	0.2847	0.2894	0.3221	-0.132
Mof_H 	H 	0.3231	0.3194	0.3439	0.068
Mof_C 	C 	0.1716	0.2071	0.2556	0.084
Mof_H 	H 	0.1323	0.1794	0.2331	-0.021
Mof_C 	C 	0.814	0.6093	0.0816	-0.14
Mof_H 	H 	0.8558	0.5863	0.1036	0.08
Mof_C 	C 	0.7216	0.5168	0.8165	-0.139
Mof_H 	H 	0.6976	0.5408	0.8347	0.071
Mof_N 	N 	0.56082	0.3849	0.58783	-0.214
Mof_N 	N 	0.20438	0.0304	0.58332	-0.192
Mof_N 	N 	0.1992	0.2535	0.22876	-0.199
Mof_N 	N 	0.35191	0.2108	0.52741	-0.138
Mof_N 	N 	0.26173	0.1776	0.43709	-0.137
Mof_N 	N 	0.34699	0.268	0.44062	-0.143
Mof_N 	N 	0.08657	0.3416	0.09275	-0.186
Mof_N 	N 	0.7198	0.6868	0.07855	-0.212
Mof_N 	N 	0.724	0.4709	0.72818	-0.198
Mof_N 	N 	0.87369	0.5115	0.02701	-0.136
Mof_N 	N 	0.78879	0.5496	0.93542	-0.148
Mof_N 	N 	0.87721	0.4626	0.94106	-0.136
Mof_Ag	Ag	0.34412	0.45775	0.86793	0.524
Mof_Ag	Ag	0.32288	0.75208	0.36728	0.536
Mof_C 	C 	0.1241	0.757	0.00248	0.104
Mof_C 	C 	0.2351	0.5647	0.8886	0.08
Mof_H 	H 	0.2128	0.5575	0.8488	-0.008
Mof_C 	C 	0.0331	0.8127	0.911	-0.135
Mof_H 	H 	0.0548	0.792	0.8898	0.079
Mof_C 	C 	0.7198	0.1521	0.3921	0.062
Mof_H 	H 	0.6996	0.157	0.3521	-0.024
Mof_C 	C 	0.06	0.802	0.97024	0.051
Mof_C 	C 	0.5978	0.9698	0.50107	0.099
Mof_C 	C 	0.7784	0.1379	0.5096	-0.133
Mof_H 	H 	0.7995	0.1343	0.5496	0.074
Mof_C 	C 	0.444	0.8432	0.4651	0.087
Mof_H 	H 	0.4239	0.8156	0.4852	-0.012
Mof_C 	C 	0.0263	0.8358	-0	-0.133
Mof_H 	H 	0.0437	0.8314	0.0399	0.071
Mof_C 	C 	0.298	0.5843	0.0049	-0.121
Mof_H 	H 	0.3204	0.5886	0.0448	0.08
Mof_C 	C 	0.5035	0.8833	0.4963	-0.135
Mof_H 	H 	0.5234	0.8817	0.5365	0.086
Mof_C 	C 	0.2435	0.7375	0.15138	0.059
Mof_C 	C 	0.2097	0.727	0.08766	0.101
Mof_C 	C 	0.5332	0.9261	0.46689	0.067
Mof_C 	C 	0.2054	0.6724	0.00521	0.108
Mof_C 	C 	0.967	0.8756	0.9696	0.064
Mof_H 	H 	0.9447	0.8974	0.9901	-0.018
Mof_C 	C 	0.6825	0.0519	0.50698	0.095
Mof_C 	C 	0.6788	0.9553	0.681	-0.132
Mof_H 	H 	0.6349	0.9371	0.661	0.08
Mof_C 	C 	0.7158	0.1014	0.478	0.051
Mof_C 	C 	0.6802	0.0019	0.58838	0.096
Mof_C 	C 	0.326	0.5406	0.9741	0.077
Mof_H 	H 	0.368	0.5171	0.9944	-0.011
Mof_C 	C 	0.8075	0.0051	0.7428	0.071
Mof_H 	H 	0.8516	0.0219	0.7636	-0.023
Mof_C 	C 	0.236	0.6213	0.9748	0.059
Mof_C 	C 	0.204	0.6101	0.9153	-0.127
Mof_H 	H 	0.162	0.633	0.8938	0.082
Mof_C 	C 	0.9734	0.8549	0.8841	0.066
Mof_H 	H 	0.9562	0.8628	0.8444	-0.018
Mof_C 	C 	0.7123	0.9919	0.6518	0.051
Mof_C 	C 	0.808	0.1794	0.4794	0.073
Mof_H 	H 	0.8495	0.2037	0.5003	-0.011
Mof_C 	C 	0.712	0.9465	0.7407	0.074
Mof_H 	H 	0.6891	0.9228	0.76	-0.014
Mof_C 	C 	0.3022	0.6975	0.185	-0.141
Mof_H 	H 	0.3237	0.6649	0.1684	0.084
Mof_C 	C 	0.5025	0.9268	0.4071	-0.136
Mof_H 	H 	0.521	0.9557	0.3861	0.079
Mof_C 	C 	0.4435	0.8833	0.3793	0.081
Mof_H 	H 	0.4235	0.8827	0.3392	-0.006
Mof_C 	C 	0.2457	0.7954	0.2375	0.068
Mof_H 	H 	0.2269	0.8303	0.2552	-0.016
Mof_C 	C 	0.2153	0.7894	0.1779	-0.132
Mof_H 	H 	0.1769	0.8194	0.1561	0.068
Mof_C 	C 	0.3284	0.7071	0.2444	0.084
Mof_H 	H 	0.3677	0.6794	0.2669	-0.021
Mof_C 	C 	0.686	0.1093	0.4184	-0.131
Mof_H 	H 	0.6442	0.0863	0.3964	0.076
Mof_C 	C 	0.7784	0.0168	0.6835	-0.139
Mof_H 	H 	0.8024	0.0408	0.6653	0.072
Mof_N 	N 	0.93918	0.8849	0.91217	-0.212
Mof_N 	N 	0.29562	0.5304	0.91668	-0.191
Mof_N 	N 	0.3008	0.7535	0.27124	-0.199
Mof_N 	N 	0.14809	0.7108	0.97259	-0.141
Mof_N 	N 	0.23827	0.6776	0.06291	-0.138
Mof_N 	N 	0.15301	0.768	0.05938	-0.144
Mof_N 	N 	0.41343	0.8416	0.40725	-0.187
Mof_N 	N 	0.7802	0.1868	0.42145	-0.208
Mof_N 	N 	0.776	0.9709	0.77182	-0.198
Mof_N 	N 	0.62631	0.0115	0.47299	-0.14
Mof_N 	N 	0.71121	0.0496	0.56458	-0.149
Mof_N 	N 	0.62279	0.9626	0.55894	-0.137
Mof_Ag	Ag	0.84412	0.95775	0.86793	0.524
Mof_Ag	Ag	0.82288	0.25208	0.36728	0.536
Mof_C 	C 	0.6241	0.257	0.00248	0.106
Mof_C 	C 	0.7351	0.0647	0.8886	0.079
Mof_H 	H 	0.7128	0.0575	0.8488	-0.008
Mof_C 	C 	0.5331	0.3127	0.911	-0.135
Mof_H 	H 	0.5548	0.292	0.8898	0.079
Mof_C 	C 	0.2198	0.6521	0.3921	0.062
Mof_H 	H 	0.1996	0.657	0.3521	-0.024
Mof_C 	C 	0.56	0.302	0.97024	0.049
Mof_C 	C 	0.0978	0.4698	0.50107	0.098
Mof_C 	C 	0.2784	0.6379	0.5096	-0.133
Mof_H 	H 	0.2995	0.6343	0.5496	0.074
Mof_C 	C 	0.944	0.3432	0.4651	0.087
Mof_H 	H 	0.9239	0.3156	0.4852	-0.013
Mof_C 	C 	0.5263	0.3358	-0	-0.131
Mof_H 	H 	0.5437	0.3314	0.0399	0.07
Mof_C 	C 	0.798	0.0843	0.0049	-0.117
Mof_H 	H 	0.8204	0.0886	0.0448	0.079
Mof_C 	C 	0.0035	0.3833	0.4963	-0.136
Mof_H 	H 	0.0234	0.3817	0.5365	0.086
Mof_C 	C 	0.7435	0.2375	0.15138	0.059
Mof_C 	C 	0.7097	0.227	0.08766	0.101
Mof_C 	C 	0.0332	0.4261	0.46689	0.067
Mof_C 	C 	0.7054	0.1724	0.00521	0.11
Mof_C 	C 	0.467	0.3756	0.9696	0.063
Mof_H 	H 	0.4447	0.3974	0.9901	-0.018
Mof_C 	C 	0.1825	0.5519	0.50698	0.095
Mof_C 	C 	0.1788	0.4553	0.681	-0.132
Mof_H 	H 	0.1349	0.4371	0.661	0.08
Mof_C 	C 	0.2158	0.6014	0.478	0.051
Mof_C 	C 	0.1802	0.5019	0.58838	0.096
Mof_C 	C 	0.826	0.0406	0.9741	0.075
Mof_H 	H 	0.868	0.0171	0.9944	-0.01
Mof_C 	C 	0.3075	0.5051	0.7428	0.071
Mof_H 	H 	0.3516	0.5219	0.7636	-0.023
Mof_C 	C 	0.736	0.1213	0.9748	0.056
Mof_C 	C 	0.704	0.1101	0.9153	-0.125
Mof_H 	H 	0.662	0.133	0.8938	0.081
Mof_C 	C 	0.4734	0.3549	0.8841	0.066
Mof_H 	H 	0.4562	0.3628	0.8444	-0.018
Mof_C 	C 	0.2123	0.4919	0.6518	0.051
Mof_C 	C 	0.308	0.6794	0.4794	0.073
Mof_H 	H 	0.3495	0.7037	0.5003	-0.011
Mof_C 	C 	0.212	0.4465	0.7407	0.074
Mof_H 	H 	0.1891	0.4228	0.76	-0.014
Mof_C 	C 	0.8022	0.1975	0.185	-0.141
Mof_H 	H 	0.8237	0.1649	0.1684	0.084
Mof_C 	C 	0.0025	0.4268	0.4071	-0.137
Mof_H 	H 	0.021	0.4557	0.3861	0.079
Mof_C 	C 	0.9435	0.3833	0.3793	0.081
Mof_H 	H 	0.9235	0.3827	0.3392	-0.006
Mof_C 	C 	0.7457	0.2954	0.2375	0.068
Mof_H 	H 	0.7269	0.3303	0.2552	-0.016
Mof_C 	C 	0.7153	0.2894	0.1779	-0.132
Mof_H 	H 	0.6769	0.3194	0.1561	0.068
Mof_C 	C 	0.8284	0.2071	0.2444	0.084
Mof_H 	H 	0.8677	0.1794	0.2669	-0.021
Mof_C 	C 	0.186	0.6093	0.4184	-0.13
Mof_H 	H 	0.1442	0.5863	0.3964	0.076
Mof_C 	C 	0.2784	0.5168	0.6835	-0.139
Mof_H 	H 	0.3024	0.5408	0.6653	0.072
Mof_N 	N 	0.43918	0.3849	0.91217	-0.212
Mof_N 	N 	0.79562	0.0304	0.91668	-0.19
Mof_N 	N 	0.8008	0.2535	0.27124	-0.199
Mof_N 	N 	0.64809	0.2108	0.97259	-0.142
Mof_N 	N 	0.73827	0.1776	0.06291	-0.138
Mof_N 	N 	0.65301	0.268	0.05938	-0.144
Mof_N 	N 	0.91343	0.3416	0.40725	-0.187
Mof_N 	N 	0.2802	0.6868	0.42145	-0.208
Mof_N 	N 	0.276	0.4709	0.77182	-0.198
Mof_N 	N 	0.12631	0.5115	0.47299	-0.14
Mof_N 	N 	0.21121	0.5496	0.56458	-0.149
Mof_N 	N 	0.12279	0.4626	0.55894	-0.137
_end
