data_functionalizedCrystal
_audit_creation_method	'EQeq! by Chris Wilmer'
_symmetry_space_group_name_H-M	'P1'
_symmetry_Int_Tables_number	1
_symmetry_cell_setting	triclinic
loop_
_symmetry_equiv_pos_as_xyz
  x,y,z
_cell_length_a	29.0128
_cell_length_b	29.0129
_cell_length_c	29.0129
_cell_angle_alpha	72.1888
_cell_angle_beta	72.1889
_cell_angle_gamma	112.845
loop_
_atom_site_label
_atom_site_type_symbol
_atom_site_fract_x
_atom_site_fract_y
_atom_site_fract_z
_atom_site_charge
Mof_In	In	0.83798	0.77124	0.14398	2.695
Mof_In	In	0.36237	0.34355	0.22674	2.791
Mof_In	In	0.04022	0.3745	0.38012	2.563
Mof_In	In	0.08478	0.51804	0.64398	2.695
Mof_In	In	0.13763	0.41089	0.51882	2.791
Mof_In	In	0.74538	0.1255	0.33428	2.565
Mof_In	In	0.07029	0.84355	0.01882	2.784
Mof_In	In	0.57029	0.08911	0.27326	2.79
Mof_In	In	0.24538	0.07966	0.88012	2.563
Mof_In	In	0.95978	0.6255	0.61988	2.562
Mof_In	In	0.75462	0.92034	0.11988	2.563
Mof_In	In	0.16202	0.22876	0.85602	2.694
Mof_In	In	0.54022	0.42034	0.83428	2.564
Mof_In	In	0.92971	0.15645	0.98118	2.784
Mof_In	In	0.25462	0.8745	0.66572	2.564
Mof_In	In	0.41522	0.27124	0.06674	2.694
Mof_In	In	0.42971	0.91089	0.72674	2.79
Mof_In	In	0.33798	0.98196	0.43326	2.694
Mof_In	In	0.91522	0.48196	0.35602	2.694
Mof_In	In	0.66202	0.01804	0.56674	2.694
Mof_In	In	0.45978	0.57966	0.16572	2.564
Mof_In	In	0.63763	0.65645	0.77326	2.79
Mof_In	In	0.86237	0.58911	0.48118	2.79
Mof_In	In	0.58478	0.72876	0.93326	2.694
Mof_H 	H 	0.3584	0.8155	0.2285	0.13
Mof_H 	H 	0.071	0.8334	0.5074	0.068
Mof_H 	H 	0.4591	0.0563	0.1786	0.063
Mof_H 	H 	0.021	0.8698	0.3418	0.057
Mof_H 	H 	0.0546	0.8361	0.7097	0.073
Mof_H 	H 	0.5014	0.8578	0.076	0.045
Mof_H 	H 	0.6212	0.6884	0.5174	0.049
Mof_H 	H 	0.3536	0.3131	0.7295	0.053
Mof_H 	H 	0.8405	0.9084	0.5341	0.045
Mof_H 	H 	0.3413	0.5249	0.4312	0.06
Mof_H 	H 	0.2942	0.8116	0.0672	0.048
Mof_H 	H 	0.3677	0.9362	0.9675	0.036
Mof_H 	H 	0.7134	0.0301	0.7269	0.055
Mof_H 	H 	0.544	0.3155	0.5429	0.13
Mof_H 	H 	0.773	0.5032	0.1412	0.039
Mof_H 	H 	0.8635	0.8563	0.7774	0.046
Mof_H 	H 	0.6151	0.9584	0.9641	0.037
Mof_H 	H 	0.479	0.6372	0.6512	0.057
Mof_H 	H 	0.5818	0.2043	0.7911	0.029
Mof_H 	H 	0.9141	0.4088	0.0031	0.125
Mof_H 	H 	0.2401	0.0862	0.4305	0.053
Mof_H 	H 	0.1327	0.0335	0.6404	0.032
Mof_H 	H 	0.4262	0.4984	0.5854	0.126
Mof_H 	H 	0.2599	0.3294	0.6539	0.053
Mof_H 	H 	0.8536	0.0831	0.4595	0.053
Mof_H 	H 	0.7942	0.3614	0.0174	0.049
Mof_H 	H 	0.018	0.4304	0.0702	0.124
Mof_H 	H 	0.0775	0.9208	0.4641	0.038
Mof_H 	H 	0.5546	0.7643	0.2815	0.071
Mof_H 	H 	0.5046	0.2957	0.6225	0.029
Mof_H 	H 	0.5439	0.9751	0.1836	0.061
Mof_H 	H 	0.2884	0.6302	0.8488	0.057
Mof_H 	H 	0.5838	0.7097	0.4793	0.127
Mof_H 	H 	0.2651	0.4437	0.5972	0.061
Mof_H 	H 	0.4425	0.8746	0.9659	0.044
Mof_H 	H 	0.227	0.4968	0.8588	0.039
Mof_H 	H 	0.4954	0.7043	0.3775	0.029
Mof_H 	H 	0.7401	0.6706	0.3461	0.053
Mof_H 	H 	0.1365	0.1437	0.2226	0.046
Mof_H 	H 	0.4769	0.3712	0.2949	0.048
Mof_H 	H 	0.1459	0.0539	0.381	0.038
Mof_H 	H 	0.7654	0.8011	0.8285	0.063
Mof_H 	H 	0.4349	0.0269	0.119	0.036
Mof_H 	H 	0.9349	0.5539	0.092	0.042
Mof_H 	H 	0.1151	0.5792	0.8433	0.039
Mof_H 	H 	0.9954	0.8729	0.7089	0.026
Mof_H 	H 	0.2513	0.7367	0.9288	0.039
Mof_H 	H 	0.6913	0.8331	0.3046	0.075
Mof_H 	H 	0.3345	0.3199	0.4288	0.038
Mof_H 	H 	0.0662	0.9226	0.576	0.046
Mof_H 	H 	0.5068	0.9338	0.136	0.037
Mof_H 	H 	0.0838	0.5116	0.9146	0.126
Mof_H 	H 	0.4454	0.2357	0.7185	0.071
Mof_H 	H 	0.1913	0.9959	0.6418	0.076
Mof_H 	H 	0.9986	0.4226	0.1436	0.05
Mof_H 	H 	0.5662	0.6422	0.3564	0.046
Mof_H 	H 	0.4037	0.4362	0.4315	0.037
Mof_H 	H 	0.0575	0.5916	0.0679	0.045
Mof_H 	H 	0.6638	0.0171	0.0859	0.073
Mof_H 	H 	0.979	0.1302	0.6582	0.057
Mof_H 	H 	0.6661	0.2718	0.2051	0.048
Mof_H 	H 	0.9591	0.6377	0.0972	0.057
Mof_H 	H 	0.3087	0.1669	0.6954	0.075
Mof_H 	H 	0.4355	0.6223	0.6022	0.126
Mof_H 	H 	0.2346	0.1989	0.1715	0.063
Mof_H 	H 	0.2654	0.5939	0.5357	0.063
Mof_H 	H 	0.811	0.4369	0.9793	0.127
Mof_H 	H 	0.4986	0.1422	0.924	0.045
Mof_H 	H 	0.456	0.6845	0.4571	0.13
Mof_H 	H 	0.9119	0.9088	0.5053	0.124
Mof_H 	H 	0.6464	0.6869	0.2705	0.053
Mof_H 	H 	0.4994	0.4118	0.5702	0.126
Mof_H 	H 	0.4119	0.4172	0.4969	0.124
Mof_H 	H 	0.9574	0.4169	0.2295	0.052
Mof_H 	H 	0.8362	0.2503	0.1467	0.073
Mof_H 	H 	0.6416	0.1845	0.7715	0.13
Mof_H 	H 	0.8408	0.3334	0.2376	0.068
Mof_H 	H 	0.5859	0.0828	0.0053	0.126
Mof_H 	H 	0.8584	0.5869	0.9571	0.13
Mof_H 	H 	0.103	0.2497	0.4141	0.073
Mof_H 	H 	0.0409	0.3623	0.9028	0.057
Mof_H 	H 	0.5738	0.5016	0.4146	0.126
Mof_H 	H 	0.956	0.9131	0.7285	0.13
Mof_H 	H 	0.9302	0.8572	0.636	0.038
Mof_H 	H 	0.982	0.5696	0.9298	0.124
Mof_H 	H 	0.0046	0.1271	0.2911	0.026
Mof_H 	H 	0.2245	0.5377	0.8978	0.126
Mof_H 	H 	0.1595	0.0916	0.4659	0.045
Mof_H 	H 	0.8623	0.5041	0.8046	0.075
Mof_H 	H 	0.8788	0.8614	0.4328	0.049
Mof_H 	H 	0.3635	0.6409	0.4928	0.046
Mof_H 	H 	0.1587	0.2275	0.3164	0.06
Mof_H 	H 	0.189	0.5631	0.0207	0.127
Mof_H 	H 	0.1296	0.3011	0.9643	0.064
Mof_H 	H 	0.1337	0.3563	0.0072	0.044
Mof_H 	H 	0.8556	0.9968	0.7302	0.04
Mof_H 	H 	0.7487	0.2633	0.0712	0.039
Mof_H 	H 	0.8704	0.6989	0.0357	0.064
Mof_H 	H 	0.2134	0.4403	0.8167	0.056
Mof_H 	H 	0.5426	0.8131	0.0405	0.054
Mof_H 	H 	0.0881	0.0912	0.4947	0.124
Mof_H 	H 	0.929	0.1666	0.4926	0.068
Mof_H 	H 	0.5963	0.5638	0.5685	0.037
Mof_H 	H 	0.1739	0.5335	0.0992	0.034
Mof_H 	H 	0.5006	0.5882	0.4298	0.126
Mof_H 	H 	0.4542	0.7357	0.2097	0.071
Mof_H 	H 	0.2349	0.1377	0.3214	0.061
Mof_H 	H 	0.9225	0.0792	0.5359	0.038
Mof_H 	H 	0.2116	0.8628	0.1582	0.057
Mof_H 	H 	0.7884	0.1372	0.8418	0.057
Mof_H 	H 	0.4162	0.2903	0.5207	0.127
Mof_H 	H 	0.7116	0.3698	0.1512	0.057
Mof_H 	H 	0.518	0.0882	0.9124	0.126
Mof_H 	H 	0.6337	0.1409	0.7226	0.046
Mof_H 	H 	0.9338	0.0774	0.424	0.046
Mof_H 	H 	0.4932	0.0662	0.864	0.037
Mof_H 	H 	0.0651	0.4461	0.908	0.042
Mof_H 	H 	0.2487	0.8199	0.0146	0.038
Mof_H 	H 	0.0458	0.3361	0.2185	0.071
Mof_H 	H 	0.4182	0.7957	0.2089	0.029
Mof_H 	H 	0.743	0.4699	0.3167	0.056
Mof_H 	H 	0.9833	0.4138	0.8461	0.052
Mof_H 	H 	0.9425	0.4084	0.9321	0.045
Mof_H 	H 	0.5575	0.1254	0.0341	0.044
Mof_H 	H 	0.1377	0.4959	0.1954	0.075
Mof_H 	H 	0.9994	0.0696	0.4124	0.126
Mof_H 	H 	0.1323	0.6648	0.9315	0.037
Mof_H 	H 	0.7651	0.8623	0.6786	0.061
Mof_H 	H 	0.0014	0.5774	0.8564	0.05
Mof_H 	H 	0.5698	0.4338	0.573	0.038
Mof_H 	H 	0.1464	0.9169	0.5405	0.053
Mof_H 	H 	0.7513	0.1801	0.9854	0.038
Mof_H 	H 	0.0738	0.9884	0.4278	0.126
Mof_H 	H 	0.9454	0.1639	0.2903	0.073
Mof_H 	H 	0.4833	0.8294	0.9305	0.054
Mof_H 	H 	0.397	0.4829	0.3533	0.073
Mof_H 	H 	0.8087	0.0041	0.3582	0.076
Mof_H 	H 	0.9182	0.6271	0.8775	0.029
Mof_H 	H 	0.7058	0.1884	0.9328	0.048
Mof_H 	H 	0.4574	0.1869	0.9595	0.054
Mof_H 	H 	0.7755	0.4623	0.1022	0.126
Mof_H 	H 	0.3261	0.7269	0.1404	0.034
Mof_H 	H 	0.8541	0.9461	0.619	0.038
Mof_H 	H 	0.521	0.3628	0.3488	0.057
Mof_H 	H 	0.3673	0.2269	0.5992	0.034
Mof_H 	H 	0.0006	0.9304	0.5876	0.126
Mof_H 	H 	0.0167	0.5862	0.1539	0.052
Mof_H 	H 	0.6739	0.2731	0.8596	0.034
Mof_H 	H 	0.0818	0.3729	0.1225	0.029
Mof_H 	H 	0.571	0.5784	0.2624	0.068
Mof_H 	H 	0.0231	0.2282	0.6057	0.048
Mof_H 	H 	0.8673	0.9665	0.3596	0.032
Mof_H 	H 	0.1661	0.8712	0.1057	0.048
Mof_H 	H 	0.6296	0.0939	0.6715	0.063
Mof_H 	H 	0.1444	0.0032	0.2698	0.04
Mof_H 	H 	0.6327	0.7731	0.4008	0.034
Mof_H 	H 	0.8663	0.6437	0.9928	0.044
Mof_H 	H 	0.3405	0.3746	0.5679	0.045
Mof_H 	H 	0.8677	0.3352	0.0685	0.037
Mof_H 	H 	0.4225	0.4584	0.6567	0.039
Mof_H 	H 	0.0439	0.7275	0.9312	0.054
Mof_H 	H 	0.3704	0.9061	0.3285	0.063
Mof_H 	H 	0.9769	0.7718	0.3943	0.048
Mof_H 	H 	0.0859	0.5912	0.9969	0.125
Mof_H 	H 	0.1212	0.1386	0.5672	0.049
Mof_H 	H 	0.757	0.9403	0.7731	0.056
Mof_H 	H 	0.6587	0.4751	0.5688	0.06
Mof_H 	H 	0.9355	0.0377	0.6868	0.125
Mof_H 	H 	0.9262	0.0116	0.5722	0.126
Mof_H 	H 	0.9932	0.3572	0.073	0.047
Mof_H 	H 	0.8413	0.7725	0.6836	0.06
Mof_H 	H 	0.0645	0.9623	0.3132	0.125
Mof_H 	H 	0.8339	0.1288	0.8943	0.048
Mof_H 	H 	0.3362	0.9829	0.9141	0.073
Mof_H 	H 	0.1416	0.4131	0.0429	0.13
Mof_H 	H 	0.5838	0.9984	0.9278	0.128
Mof_H 	H 	0.3788	0.3116	0.4826	0.049
Mof_H 	H 	0.9037	0.8352	0.5325	0.037
Mof_H 	H 	0.9542	0.6639	0.7815	0.071
Mof_H 	H 	0.9162	0.4884	0.0854	0.126
Mof_H 	H 	0.3849	0.0416	0.0359	0.037
Mof_H 	H 	0.257	0.5301	0.6833	0.056
Mof_H 	H 	0.9561	0.2725	0.0688	0.054
Mof_H 	H 	0.6377	0.3331	0.8582	0.075
Mof_H 	H 	0.6459	0.5269	0.408	0.038
Mof_H 	H 	0.4162	0.0016	0.0722	0.128
Mof_H 	H 	0.8261	0.4665	0.9008	0.034
Mof_H 	H 	0.5231	0.6288	0.7051	0.048
Mof_H 	H 	0.0426	0.5831	0.7705	0.052
Mof_H 	H 	0.603	0.5171	0.6467	0.073
Mof_H 	H 	0.0698	0.1428	0.364	0.038
Mof_H 	H 	0.897	0.7503	0.5859	0.073
Mof_H 	H 	0.4141	0.9172	0.9947	0.126
Mof_H 	H 	0.1592	0.6666	0.7624	0.068
Mof_H 	H 	0.6323	0.0638	0.0325	0.036
Mof_H 	H 	0.6365	0.3591	0.5072	0.046
Mof_H 	H 	0.5645	0.3777	0.3978	0.126
Mof_H 	H 	0.4302	0.5662	0.427	0.038
Mof_H 	H 	0.7245	0.1223	0.8132	0.125
Mof_H 	H 	0.482	0.9118	0.0876	0.126
Mof_H 	H 	0.5651	0.9731	0.881	0.036
Mof_H 	H 	0.3556	0.5858	0.6412	0.04
Mof_H 	H 	0.6592	0.9216	0.0074	0.069
Mof_H 	H 	0.6655	0.6801	0.5712	0.038
Mof_H 	H 	0.2058	0.6386	0.9826	0.049
Mof_H 	H 	0.7866	0.5597	0.1833	0.056
Mof_H 	H 	0.3408	0.0784	0.9926	0.069
Mof_H 	H 	0.044	0.0869	0.2715	0.13
Mof_H 	H 	0.3541	0.4731	0.592	0.038
Mof_H 	H 	0.3663	0.8591	0.2774	0.046
Mof_H 	H 	0.3623	0.6669	0.1418	0.075
Mof_H 	H 	0.4338	0.3578	0.6436	0.046
Mof_H 	H 	0.243	0.0597	0.2269	0.056
Mof_H 	H 	0.8849	0.4208	0.1567	0.039
Mof_H 	H 	0.7349	0.5563	0.4028	0.061
Mof_H 	H 	0.1638	0.7497	0.8533	0.073
Mof_H 	H 	0.9162	0.9369	0.3741	0.128
Mof_H 	H 	0.5167	0.1706	0.0695	0.054
Mof_H 	H 	0.8345	0.7633	0.4854	0.038
Mof_H 	H 	0.0963	0.1648	0.4675	0.037
Mof_H 	H 	0.5458	0.2643	0.7903	0.071
Mof_H 	H 	0.4561	0.0249	0.8164	0.061
Mof_H 	H 	0.5409	0.9437	0.8214	0.063
Mof_H 	H 	0.2866	0.9699	0.2731	0.055
Mof_H 	H 	0.6595	0.6254	0.4321	0.045
Mof_H 	H 	0.5881	0.5828	0.5031	0.124
Mof_H 	H 	0.2755	0.8777	0.1868	0.125
Mof_H 	H 	0.6444	0.4142	0.3588	0.04
Mof_H 	H 	0.0068	0.6428	0.927	0.047
Mof_H 	H 	0.727	0.0858	0.7698	0.04
Mof_H 	H 	0.7599	0.9138	0.5695	0.053
Mof_H 	H 	0.689	0.2097	0.8741	0.127
Mof_H 	H 	0.7346	0.4061	0.4643	0.063
Mof_H 	H 	0.1655	0.2367	0.5146	0.038
Mof_H 	H 	0.3339	0.7282	0.7949	0.048
Mof_H 	H 	0.311	0.7903	0.1259	0.127
Mof_H 	H 	0.0838	0.0631	0.6259	0.128
Mof_H 	H 	0.429	0.4216	0.7376	0.068
Mof_H 	H 	0.273	0.9142	0.2302	0.04
Mof_H 	H 	0.5775	0.5416	0.3433	0.039
Mof_C 	C 	0.2428	0.6249	0.9207	-0.006
Mof_C 	C 	0.2987	0.4672	0.5623	-0.029
Mof_C 	C 	0.5894	0.0375	0.9701	0.173
Mof_C 	C 	0.0584	0.9568	0.6746	-0.062
Mof_C 	C 	0.7411	0.2851	0.0876	0.031
Mof_C 	C 	0.0582	0.3808	0.4756	0.349
Mof_C 	C 	0.8964	0.8582	0.6434	-0.037
Mof_C 	C 	0.4283	0.7341	0.1958	-0.062
Mof_C 	C 	0.9474	0.989	0.461	0.163
Mof_C 	C 	0.7788	0.9233	0.7763	-0.021
Mof_C 	C 	0.8564	0.0338	0.0244	0.357
Mof_C 	C 	0.8737	0.529	0.8193	-0.052
Mof_C 	C 	0.5372	0.5502	0.2968	-0.036
Mof_C 	C 	0.4106	0.9625	0.0299	0.173
Mof_C 	C 	0.0166	0.2173	0.4527	-0.023
Mof_C 	C 	0.3387	0.7978	0.1765	0.182
Mof_C 	C 	0.0128	0.5529	0.1519	0.003
Mof_C 	C 	0.9826	0.5006	0.2002	-0.088
Mof_C 	C 	0.1355	0.6648	0.8979	-0.025
Mof_C 	C 	0.0034	0.4572	0.3658	0.366
Mof_C 	C 	0.1167	0.9935	0.6546	-0.005
Mof_C 	C 	0.0627	0.1648	0.4707	-0.025
Mof_C 	C 	0.6509	0.1189	0.7228	-0.039
Mof_C 	C 	0.2992	0.3172	0.7002	-0.087
Mof_C 	C 	0.035	0.8979	0.6953	-0.003
Mof_C 	C 	0.4864	0.3347	0.4545	0.167
Mof_C 	C 	0.7808	0.146	0.8712	-0.07
Mof_C 	C 	0.4628	0.4498	0.7032	-0.036
Mof_C 	C 	0.8509	0.6585	0.0574	-0.017
Mof_C 	C 	0.3483	0.193	0.6807	-0.051
Mof_C 	C 	0.3818	0.9862	0.0046	-0.052
Mof_C 	C 	0.8736	0.6931	0.4713	0.488
Mof_C 	C 	0.4299	0.2341	0.6942	-0.062
Mof_C 	C 	0.4978	0.8521	0.0465	-0.049
Mof_C 	C 	0.2411	0.8287	0.044	0.03
Mof_C 	C 	0.1922	0.859	0.0978	0.033
Mof_C 	C 	0.2952	0.3353	0.6519	0.003
Mof_C 	C 	0.4373	0.4666	0.3979	-0.025
Mof_C 	C 	0.7108	0.1653	0.8483	0.167
Mof_C 	C 	0.8491	0.6263	0.032	-0.034
Mof_C 	C 	0.7493	0.7163	0.2464	0.356
Mof_C 	C 	0.3432	0.3621	0.6007	-0.056
Mof_C 	C 	0.6491	0.6744	0.3033	-0.001
Mof_C 	C 	0.1613	0.4848	0.0409	0.182
Mof_C 	C 	0.83	0.2827	0.2007	-0.023
Mof_C 	C 	0.67	0.9693	0.0473	-0.023
Mof_C 	C 	0.337	0.5852	0.6194	-0.038
Mof_C 	C 	0.6778	0.1146	0.754	-0.023
Mof_C 	C 	0.1509	0.3737	0.968	-0.034
Mof_C 	C 	0.6436	0.1192	0.3226	0.35
Mof_C 	C 	0.7212	0.4449	0.3555	-0.021
Mof_C 	C 	0.9628	0.166	0.487	-0.035
Mof_C 	C 	0.8407	0.0432	0.0755	0.236
Mof_C 	C 	0.9489	0.3995	0.3916	0.138
Mof_C 	C 	0.0456	0.1249	0.6179	-0.006
Mof_C 	C 	0.823	0.8692	0.1342	0.367
Mof_C 	C 	0.4384	0.6581	0.1753	0.253
Mof_C 	C 	0.9828	0.848	0.3712	-0.07
Mof_C 	C 	0.0437	0.1917	0.892	0.183
Mof_C 	C 	0.9767	0.724	0.5791	0.34
Mof_C 	C 	0.1052	0.0079	0.5243	-0.028
Mof_C 	C 	0.1182	0.6136	0.8956	-0.046
Mof_C 	C 	0.2053	0.1905	0.3128	-0.054
Mof_C 	C 	0.5627	0.5334	0.6021	-0.025
Mof_C 	C 	0.9743	0.0152	0.3235	0.185
Mof_C 	C 	0.4333	0.492	0.3505	-0.038
Mof_C 	C 	0.7319	0.1762	0.9249	-0.072
Mof_C 	C 	0.9543	0.5894	0.0593	-0.044
Mof_C 	C 	0.6263	0.307	0.8447	-0.052
Mof_C 	C 	0.653	0.9498	0.013	-0.039
Mof_C 	C 	0.0989	0.2421	0.5548	-0.115
Mof_C 	C 	0.1263	0.471	0.1807	-0.052
Mof_C 	C 	0.6128	0.668	0.8814	0.236
Mof_C 	C 	0.5457	0.9864	0.8649	-0.026
Mof_C 	C 	0.3513	0.4864	0.5593	-0.031
Mof_C 	C 	0.7954	0.5436	0.1194	-0.036
Mof_C 	C 	0.4705	0.0328	0.1685	-0.032
Mof_C 	C 	0.3948	0.3705	0.5973	-0.028
Mof_C 	C 	0.5033	0.0181	0.1872	-0.05
Mof_C 	C 	0.4709	0.9485	0.787	0.339
Mof_C 	C 	0.2048	0.0529	0.4599	0.003
Mof_C 	C 	0.3078	0.71	0.8332	0.033
Mof_C 	C 	0.3004	0.9449	0.2763	-0.021
Mof_C 	C 	0.9678	0.4921	0.9027	-0.025
Mof_C 	C 	0.1481	0.4935	0.1232	-0.009
Mof_C 	C 	0.4984	0.9602	0.1434	-0.033
Mof_C 	C 	0.9068	0.6021	0.8629	-0.008
Mof_C 	C 	0.5616	0.3419	0.8247	0.253
Mof_C 	C 	0.5189	0.9833	0.173	-0.023
Mof_C 	C 	0.1128	0.4942	0.5552	0.236
Mof_C 	C 	0.5494	0.9942	0.6186	0.236
Mof_C 	C 	0.5295	0.9672	0.8315	-0.032
Mof_C 	C 	0.8686	0.9318	0.746	-0.023
Mof_C 	C 	0.9	0.9093	0.6247	-0.044
Mof_C 	C 	0.1746	0.3657	0.8863	-0.034
Mof_C 	C 	0.8818	0.3864	0.1044	-0.046
Mof_C 	C 	0.3175	0.8503	0.2128	0.169
Mof_C 	C 	0.4588	0.4717	0.6551	-0.029
Mof_C 	C 	0.2645	0.2421	0.287	0.34
Mof_C 	C 	0.5092	0.5138	0.6044	-0.046
Mof_C 	C 	0.3833	0.2287	0.6232	-0.009
Mof_C 	C 	0.4563	0.0643	0.352	0.181
Mof_C 	C 	0.2969	0.7421	0.8568	-0.115
Mof_C 	C 	0.9163	0.5643	0.392	0.181
Mof_C 	C 	0.3872	0.332	0.1186	0.236
Mof_C 	C 	0.3509	0.9083	0.3076	-0.014
Mof_C 	C 	0.252	0.5609	0.6137	-0.035
Mof_C 	C 	0.1187	0.4162	0.4245	0.238
Mof_C 	C 	0.5526	0.5916	0.4584	0.164
Mof_C 	C 	0.9924	0.9405	0.4701	0.171
Mof_C 	C 	0.847	0.334	0.2032	-0.036
Mof_C 	C 	0.4068	0.7697	0.1953	-0.008
Mof_C 	C 	0.9011	0.7579	0.4452	-0.115
Mof_C 	C 	0.9513	0.5365	0.0078	0.174
Mof_C 	C 	0.55	0.0916	0.961	0.165
Mof_C 	C 	0.9384	0.6137	0.7197	0.253
Mof_C 	C 	0.9418	0.6192	0.5244	0.349
Mof_C 	C 	0.6	0.4753	0.4907	-0.044
Mof_C 	C 	0.9116	0.5872	0.7842	0.013
Mof_C 	C 	0.2947	0.4819	0.5148	-0.054
Mof_C 	C 	0.034	0.4093	0.9907	-0.03
Mof_C 	C 	0.1491	0.3415	0.9426	-0.017
Mof_C 	C 	0.9299	0.1241	0.3042	-0.065
Mof_C 	C 	0.5223	0.8256	0.0253	-0.004
Mof_C 	C 	0.1825	0.4697	0.9672	0.171
Mof_C 	C 	0.9588	0.1139	0.5129	-0.028
Mof_C 	C 	0.6011	0.6762	0.5557	-0.073
Mof_C 	C 	0.4116	0.6958	0.1756	0.013
Mof_C 	C 	0.6187	0.5432	0.7975	0.238
Mof_C 	C 	0.3128	0.1754	0.1522	0.313
Mof_C 	C 	0.3519	0.7287	0.1546	-0.009
Mof_C 	C 	0.6014	0.6479	0.3543	-0.052
Mof_C 	C 	0.3645	0.9666	0.9707	-0.02
Mof_C 	C 	0.1568	0.0561	0.4811	-0.056
Mof_C 	C 	0.4966	0.6308	0.0462	0.366
Mof_C 	C 	0.2031	0.8463	0.0548	-0.114
Mof_C 	C 	0.5584	0.733	0.3984	-0.058
Mof_C 	C 	0.8387	0.5152	0.9591	0.182
Mof_C 	C 	0.4627	0.2163	0.033	0.355
Mof_C 	C 	0.0884	0.4128	0.2158	0.013
Mof_C 	C 	0.8128	0.465	0.3626	0.313
Mof_C 	C 	0.8222	0.5682	0.0632	-0.025
Mof_C 	C 	0.8254	0.6343	0.1137	-0.034
Mof_C 	C 	0.8732	0.3861	0.1551	-0.029
Mof_C 	C 	0.1969	0.776	0.7473	0.341
Mof_C 	C 	0.5837	0.6917	0.852	0.181
Mof_C 	C 	0.6583	0.3811	0.468	-0.039
Mof_C 	C 	0.2319	0.6568	0.9443	-0.073
Mof_C 	C 	0.3356	0.8069	0.8195	0.488
Mof_C 	C 	0.4489	0.3405	0.9506	0.137
Mof_C 	C 	0.0494	0.168	0.9448	0.237
Mof_C 	C 	0.5884	0.3042	0.8244	0.013
Mof_C 	C 	0.465	0.2697	0.6371	-0.008
Mof_C 	C 	0.347	0.0502	0.987	-0.039
Mof_C 	C 	0.4811	0.0167	0.827	-0.023
Mof_C 	C 	0.45	0.9084	0.039	0.165
Mof_C 	C 	0.7947	0.8095	0.6872	-0.054
Mof_C 	C 	0.6355	0.0334	0.0293	-0.02
Mof_C 	C 	0.8519	0.5065	0.8768	-0.009
Mof_C 	C 	0.9811	0.3081	0.0356	0.002
Mof_C 	C 	0.5128	0.1647	0.0401	0
Mof_C 	C 	0.1644	0.8449	0.0287	0.484
Mof_C 	C 	0.0295	0.361	0.9377	-0.014
Mof_C 	C 	0.6167	0.7713	0.3768	-0.009
Mof_C 	C 	0.5717	0.2659	0.8042	-0.062
Mof_C 	C 	0.0033	0.6905	0.0148	-0.069
Mof_C 	C 	0.6052	0.6295	0.4027	-0.028
Mof_C 	C 	0.0257	0.9848	0.6765	0.185
Mof_C 	C 	0.2892	0.8347	0.1517	0.167
Mof_C 	C 	0.663	0.4148	0.3806	-0.038
Mof_C 	C 	0.466	0.9753	0.1247	-0.048
Mof_C 	C 	0.5989	0.6537	0.6432	-0.115
Mof_C 	C 	0.9369	0.9697	0.7128	0.169
Mof_C 	C 	0.0372	0.5561	0.1007	-0.058
Mof_C 	C 	0.0291	0.7421	0.0224	0.342
Mof_C 	C 	0.0136	0.0591	0.6517	0.167
Mof_C 	C 	0.3417	0.6189	0.532	-0.039
Mof_C 	C 	0.8356	0.1551	0.9713	0.484
Mof_C 	C 	0.9557	0.9635	0.5852	0.176
Mof_C 	C 	0.7013	0.5328	0.4377	-0.029
Mof_C 	C 	0.2355	0.4485	0.5224	0.34
Mof_C 	C 	0.3989	0.3238	0.4443	-0.073
Mof_C 	C 	0.8989	0.8432	0.4249	-0.073
Mof_C 	C 	0.9568	0.79	0.4022	0.033
Mof_C 	C 	0.6575	0.008	0.0587	-0.038
Mof_C 	C 	0.2108	0.5591	0.9545	0.168
Mof_C 	C 	0.6517	0.807	0.3193	-0.051
Mof_C 	C 	0.9373	0.8352	0.5293	-0.025
Mof_C 	C 	0.7645	0.5515	0.4776	0.34
Mof_C 	C 	0.9978	0.5443	0.8543	-0.06
Mof_C 	C 	0.6563	0.4833	0.5356	-0.019
Mof_C 	C 	0.3031	0.0558	0.9209	0.341
Mof_C 	C 	0.3736	0.3449	0.3195	0.488
Mof_C 	C 	0.2013	0.139	0.3315	-0.028
Mof_C 	C 	0.4568	0.359	0.3332	0.034
Mof_C 	C 	0.7507	0.0043	0.533	0.357
Mof_C 	C 	0.1517	0.971	0.6553	-0.054
Mof_C 	C 	0.6286	0.8042	0.2842	0.013
Mof_C 	C 	0.4474	0.4084	0.5416	0.164
Mof_C 	C 	0.2589	0.7149	0.9124	0.031
Mof_C 	C 	0.965	0.1021	0.3047	-0.003
Mof_C 	C 	0.0172	0.152	0.6288	-0.07
Mof_C 	C 	0.3686	0.767	0.1746	-0.058
Mof_C 	C 	0.6491	0.0917	0.6924	-0.014
Mof_C 	C 	0.8334	0.1137	0.3247	0.252
Mof_C 	C 	0.2808	0.652	0.8652	-0.07
Mof_C 	C 	0.0631	0.0303	0.2872	0.169
Mof_C 	C 	0.5631	0.3503	0.4672	0.169
Mof_C 	C 	0.3491	0.8811	0.2772	-0.039
Mof_C 	C 	0.2192	0.854	0.1288	-0.07
Mof_C 	C 	0.7053	0.5181	0.4852	-0.054
Mof_C 	C 	0.3407	0.9162	0.7025	0.238
Mof_C 	C 	0.2954	0.9148	0.2482	-0.038
Mof_C 	C 	0.1575	0.7162	0.8505	-0.038
Mof_C 	C 	0.7841	0.8415	0.8076	-0.014
Mof_C 	C 	0.0667	0.2162	0.4413	-0.038
Mof_C 	C 	0.6036	0.4602	0.5382	-0.037
Mof_C 	C 	0.4418	0.4662	0.1774	0.349
Mof_C 	C 	0.5257	0.7022	0.4591	0.182
Mof_C 	C 	0.3437	0.5167	0.4644	-0.019
Mof_C 	C 	0.7911	0.8405	0.1084	0.137
Mof_C 	C 	0.3737	0.693	0.1553	-0.052
Mof_C 	C 	0.8813	0.5838	0.5755	0.238
Mof_C 	C 	0.5034	0.3692	0.9538	0.366
Mof_C 	C 	0.0092	0.1136	0.5046	-0.047
Mof_C 	C 	0.1563	0.1919	0.327	-0.019
Mof_C 	C 	0.7987	0.861	0.6685	-0.028
Mof_C 	C 	0.748	0.4391	0.3863	-0.035
Mof_C 	C 	0.6724	0.035	0.6522	0.312
Mof_C 	C 	0.8645	0.3352	0.1021	-0.025
Mof_C 	C 	0.7048	0.6647	0.3481	0.003
Mof_C 	C 	0.7428	0.1635	0.8821	-0.006
Mof_C 	C 	0.2212	0.0767	0.2237	-0.021
Mof_C 	C 	0.4011	0.3463	0.3568	-0.115
Mof_C 	C 	0.248	0.1343	0.1911	-0.035
Mof_C 	C 	0.5233	0.4442	0.7527	0.341
Mof_C 	C 	0.3964	0.5398	0.4618	-0.037
Mof_C 	C 	0.6872	0.8246	0.8478	0.313
Mof_C 	C 	0.4743	0.2978	0.5409	0.182
Mof_C 	C 	0.1491	0.9524	0.5253	-0
Mof_C 	C 	0.8425	0.2838	0.1495	-0.038
Mof_C 	C 	0.3986	0.3521	0.6457	-0.052
Mof_C 	C 	0.0616	0.3863	0.2803	0.253
Mof_C 	C 	0.5443	0.4591	0.4922	0.178
Mof_C 	C 	0.8727	0.7851	0.456	0.031
Mof_C 	C 	0.1286	0.9128	0.6756	0.016
Mof_C 	C 	0.4506	0.0058	0.3814	0.236
Mof_C 	C 	0.2089	0.1595	0.8916	0.137
Mof_C 	C 	0.0233	0.276	0.4209	0.34
Mof_C 	C 	0.8004	0.5767	0.1445	-0.023
Mof_C 	C 	0.95	0.489	0.9584	0.161
Mof_C 	C 	0.177	0.1308	0.8658	0.367
Mof_C 	C 	0.4628	0.8621	0.9811	-0.052
Mof_C 	C 	0.1036	0.1418	0.3566	-0.037
Mof_C 	C 	0.4872	0.8353	0.9599	0
Mof_C 	C 	0.3254	0.9391	0.3089	-0.035
Mof_C 	C 	0.3222	0.8854	0.246	-0.023
Mof_C 	C 	0.7589	0.1713	0.956	0.03
Mof_C 	C 	0.9872	0.4471	0.8481	0.003
Mof_C 	C 	0.8417	0.8737	0.7772	-0.039
Mof_C 	C 	0.1314	0.4568	0.1016	-0.059
Mof_C 	C 	0.3813	0.4568	0.2025	0.238
Mof_C 	C 	0.6273	0.6713	0.5876	0.031
Mof_C 	C 	0.7008	0.6828	0.2998	-0.087
Mof_C 	C 	0.0487	0.4635	0.9922	0.174
Mof_C 	C 	0.6314	0.233	0.8254	-0.058
Mof_C 	C 	0.0932	0.3979	0.1371	-0.008
Mof_C 	C 	0.0443	0.0365	0.4148	0.176
Mof_C 	C 	0.7192	0.348	0.1348	-0.07
Mof_C 	C 	0.4967	0.9819	0.8128	-0.05
Mof_C 	C 	0.5372	0.1379	0.0189	-0.052
Mof_C 	C 	0.17	0.7173	0.7993	-0.023
Mof_C 	C 	0.752	0.8657	0.8089	-0.035
Mof_C 	C 	0.33	0.0307	0.9527	-0.023
Mof_C 	C 	0.8432	0.9439	0.5189	-0.056
Mof_C 	C 	0.6746	0.0609	0.6911	-0.035
Mof_C 	C 	0.1268	0.6139	0.8449	-0.029
Mof_C 	C 	0.4544	0.3365	0.4207	-0.005
Mof_C 	C 	0.0189	0.6919	0.9644	0.002
Mof_C 	C 	0.9544	0.8751	0.3821	-0.006
Mof_C 	C 	0.966	0.5907	0.0093	-0.03
Mof_C 	C 	0.5701	0.7659	0.3058	-0.062
Mof_C 	C 	0.5016	0.0398	0.8566	-0.033
Mof_C 	C 	0.3732	0.0283	0.0129	-0.024
Mof_C 	C 	0.6487	0.5136	0.4407	-0.031
Mof_C 	C 	0.5373	0.7837	0.967	0.355
Mof_C 	C 	0.2572	0.8365	0.1179	-0.006
Mof_C 	C 	0.3727	0.3287	0.4124	0.031
Mof_C 	C 	0.8513	0.9106	0.6351	-0.031
Mof_C 	C 	0.1273	0.2149	0.544	0.031
Mof_C 	C 	0.0373	0.5043	0.7464	0.357
Mof_C 	C 	0.8833	0.0065	0.3454	-0.005
Mof_C 	C 	0.0717	0.3759	0.1942	-0.062
Mof_C 	C 	0.2159	0.1585	0.1924	-0.014
Mof_C 	C 	0.8509	0.0476	0.4747	-0
Mof_C 	C 	0.4163	0.3083	0.148	0.181
Mof_C 	C 	0.6593	0.0838	0.2975	0.238
Mof_C 	C 	0.1583	0.1263	0.2228	-0.039
Mof_C 	C 	0.6644	0.1931	0.1805	0.488
Mof_C 	C 	0.6264	0.6551	0.6805	0.488
Mof_C 	C 	0.0432	0.21	0.5978	0.033
Mof_C 	C 	0.0412	0.8861	0.4871	-0.028
Mof_C 	C 	0.0322	0.5079	0.0973	-0.025
Mof_C 	C 	0.0016	0.3582	0.0382	-0.059
Mof_C 	C 	0.2493	0.9957	0.467	0.357
Mof_C 	C 	0.8872	0.5058	0.4448	0.236
Mof_C 	C 	0.163	0.0436	0.2518	-0.038
Mof_C 	C 	0.8078	0.141	0.9022	0.033
Mof_C 	C 	0.5322	0.1295	0.9757	-0.031
Mof_C 	C 	0.0894	0.5595	0.9481	0.172
Mof_C 	C 	0.6268	0.9717	0.9871	-0.024
Mof_C 	C 	0.4416	0.267	0.6016	-0.058
Mof_C 	C 	0.1314	0.0682	0.254	-0.023
Mof_C 	C 	0.6825	0.1497	0.7872	0.169
Mof_C 	C 	0.6922	0.29	0.1668	0.033
Mof_C 	C 	0.7159	0.4083	0.4426	-0.014
Mof_C 	C 	0.5412	0.5283	0.3449	-0.029
Mof_C 	C 	0.9966	0.5428	0.6342	0.366
Mof_C 	C 	0.4557	0.5409	0.5078	0.178
Mof_C 	C 	0.4369	0.6497	0.5328	0.169
Mof_C 	C 	0.1778	0.4318	0.9368	-0.025
Mof_C 	C 	0.9705	0.639	0.0623	-0.014
Mof_C 	C 	0.3714	0.1958	0.7158	0.013
Mof_C 	C 	0.9864	0.9409	0.3483	0.167
Mof_C 	C 	0.5667	0.508	0.6495	-0.038
Mof_C 	C 	0.7031	0.2579	0.1432	-0.115
Mof_C 	C 	0.8031	0.224	0.2527	0.341
Mof_C 	C 	0.8483	0.029	0.3447	-0.054
Mof_C 	C 	0.4908	0.4862	0.3956	-0.046
Mof_C 	C 	0.323	0.9572	0.5462	0.367
Mof_C 	C 	0.3276	0.965	0.3478	0.312
Mof_C 	C 	0.0701	0.8759	0.6958	-0.065
Mof_C 	C 	0.3509	0.3256	0.6967	-0.001
Mof_C 	C 	0.1487	0.0894	0.3649	-0.031
Mof_C 	C 	0.5456	0.6635	0.5793	-0.005
Mof_C 	C 	0.5172	0.646	0.6348	-0.07
Mof_C 	C 	0.9416	0.0432	0.3254	-0.062
Mof_C 	C 	0.5136	0.6653	0.5455	0.167
Mof_C 	C 	0.4513	0.9591	0.0852	0.179
Mof_C 	C 	0.7892	0.4409	0.0455	0.168
Mof_C 	C 	0.1	0.0907	0.3753	-0.044
Mof_C 	C 	0.5432	0.641	0.6668	0.034
Mof_C 	C 	0.4543	0.0136	0.1351	-0.026
Mof_C 	C 	0.3564	0.8808	0.6774	0.35
Mof_C 	C 	0.534	0.0247	0.8753	-0.048
Mof_C 	C 	0.7572	0.3751	0.0793	-0.006
Mof_C 	C 	0.2841	0.5917	0.5574	-0.014
Mof_C 	C 	0.4828	0.354	0.3652	-0.07
Mof_C 	C 	0.535	0.7303	0.3629	-0.008
Mof_C 	C 	0.9627	0.4957	0.2536	0.357
Mof_C 	C 	0.2911	0.8995	0.5494	0.137
Mof_C 	C 	0.8714	0.0872	0.3244	0.016
Mof_C 	C 	0.5174	0.8172	0.982	-0.084
Mof_C 	C 	0.9333	0.7838	0.5587	-0.038
Mof_C 	C 	0.2788	0.5551	0.6445	-0.021
Mof_C 	C 	0.0837	0.4357	0.608	0.181
Mof_C 	C 	0.5582	0.5338	0.8226	0.349
Mof_C 	C 	0.0511	0.6005	0.6084	0.138
Mof_C 	C 	0.5166	0.4693	0.7007	-0.023
Mof_C 	C 	0.4678	0.8705	0.0243	-0.031
Mof_C 	C 	0.0526	0.011	0.539	0.163
Mof_C 	C 	0.2046	0.4564	0.8806	-0.036
Mof_C 	C 	0.8276	0.6754	0.1374	0.312
Mof_C 	C 	0.9709	0.2579	0.9776	0.342
Mof_C 	C 	0.1014	0.9557	0.5465	-0.052
Mof_C 	C 	0.8686	0.5432	0.8984	-0.059
Mof_C 	C 	0.0022	0.4557	0.1457	-0.06
Mof_C 	C 	0.2681	0.8238	0.0751	-0.072
Mof_C 	C 	0.6666	0.8419	0.2197	0.253
Mof_C 	C 	0.6182	0.0138	0.9954	-0.052
Mof_C 	C 	0.5076	0.5375	0.5519	0.172
Mof_C 	C 	0.4777	0.1744	0.9747	-0.004
Mof_C 	C 	0.837	0.9564	0.7482	-0.038
Mof_C 	C 	0.4834	0.5307	0.2993	-0.023
Mof_C 	C 	0.5437	0.9357	0.648	0.181
Mof_C 	C 	0.3425	0.992	0.9413	-0.038
Mof_C 	C 	0.05	0.511	0.0416	0.161
Mof_C 	C 	0.1436	0.9662	0.9756	0.357
Mof_C 	C 	0.5291	0.0515	0.213	0.339
Mof_C 	C 	0.3334	0.1581	0.7803	0.253
Mof_C 	C 	0.5022	0.1479	0.9535	-0.049
Mof_C 	C 	0.9283	0.6241	0.8058	-0.062
Mof_C 	C 	0.2008	0.0006	0.482	-0.088
Mof_C 	C 	0.7992	0.9994	0.518	-0.088
Mof_C 	C 	0.9628	0.4439	0.8993	-0.058
Mof_C 	C 	0.6314	0.3854	0.4368	-0.023
Mof_C 	C 	0.7355	0.7579	0.713	0.34
Mof_C 	C 	0.0457	0.4106	0.9407	-0.044
Mof_C 	C 	0.9106	0.4405	0.0519	0.172
Mof_C 	C 	0.2507	0.2837	0.7536	0.356
Mof_C 	C 	0.6481	0.2713	0.8454	-0.009
Mof_C 	C 	0.9834	0.7827	0.5473	-0.023
Mof_C 	C 	0.5932	0.2303	0.8047	-0.008
Mof_C 	C 	0.5511	0.6595	0.0494	0.137
Mof_C 	C 	0.4767	0.5558	0.2473	0.341
Mof_C 	C 	0.1011	0.1568	0.5751	-0.073
Mof_C 	C 	0.1593	0.9568	0.9245	0.236
Mof_C 	C 	0.7952	0.9471	0.5401	0.003
Mof_C 	C 	0.5487	0.0409	0.9148	0.179
Mof_C 	C 	0.9506	0.832	0.0552	0.237
Mof_C 	C 	0.3686	0.6146	0.5632	-0.023
Mof_C 	C 	0.9984	0.6418	0.9618	-0.059
Mof_C 	C 	0.9908	0.8864	0.4954	-0.047
Mof_C 	C 	0.1264	0.3069	0.5287	0.488
Mof_C 	C 	0.1996	0.4233	0.8555	-0.023
Mof_C 	C 	0.4924	0.4625	0.4481	0.172
Mof_C 	C 	0.6969	0.9442	0.0791	0.341
Mof_C 	C 	0.7969	0.1537	0.9452	-0.114
Mof_C 	C 	0.677	0.0428	0.4538	0.367
Mof_C 	C 	0.7089	0.1005	0.4506	0.137
Mof_C 	C 	0.7681	0.3432	0.0557	-0.073
Mof_C 	C 	0.4	0.5247	0.5093	-0.044
Mof_C 	C 	0.8948	0.9921	0.4757	-0.028
Mof_C 	C 	0.7046	0.0852	0.7518	-0.038
Mof_C 	C 	0.4826	0.1828	0.018	-0.084
Mof_C 	C 	0.1724	0.3246	0.8626	0.312
Mof_C 	C 	0.9563	0.8083	0.108	0.183
Mof_C 	C 	0.8986	0.0443	0.4535	-0.052
Mof_C 	C 	0.1666	0.8863	0.6753	0.252
Mof_C 	C 	0.153	0.666	0.7968	-0.036
Mof_C 	C 	0.9777	0.4524	0.1967	0.004
Mof_C 	C 	0.8437	0.8081	0.673	-0.019
Mof_C 	C 	0.0076	0.0595	0.5299	0.171
Mof_C 	C 	0.8175	0.5303	0.0328	0.171
Mof_C 	C 	0.0223	0.5476	0.8033	0.004
Mof_C 	C 	0.1872	0.535	0.6374	0.313
Mof_C 	C 	0.0372	0.834	0.513	-0.035
Mof_C 	C 	0.9967	0.3095	0.9852	-0.069
Mof_C 	C 	0.0174	0.4994	0.7998	-0.088
Mof_C 	C 	0.6996	0.0551	0.7237	-0.021
Mof_C 	C 	0.6568	0.6379	0.3993	-0.056
Mof_C 	C 	0.6613	0.2022	0.8235	0.182
Mof_N 	N 	0.042	0.9886	0.4362	-0.245
Mof_N 	N 	0.6875	0.1947	0.852	-0.247
Mof_N 	N 	0.458	0.5218	0.5534	-0.246
Mof_N 	N 	0.4976	0.4245	0.5395	-0.244
Mof_N 	N 	0.659	0.1795	0.7909	-0.247
Mof_N 	N 	0.9452	0.941	0.4824	-0.244
Mof_N 	N 	0.0418	0.9757	0.3157	-0.243
Mof_N 	N 	0.9704	0.9499	0.7091	-0.248
Mof_N 	N 	0.0296	0.0501	0.2909	-0.248
Mof_N 	N 	0.536	0.0755	0.9269	-0.245
Mof_N 	N 	0.1875	0.5395	0.0072	-0.248
Mof_N 	N 	0.4582	0.6425	0.5661	-0.242
Mof_N 	N 	0.036	0.4629	0.0395	-0.244
Mof_N 	N 	0.0548	0.059	0.5176	-0.244
Mof_N 	N 	0.3125	0.8053	0.148	-0.247
Mof_N 	N 	0.964	0.5371	0.9605	-0.244
Mof_N 	N 	0.5752	0.0218	0.9362	-0.248
Mof_N 	N 	0.4533	0.3053	0.5072	-0.247
Mof_N 	N 	0.0467	0.0395	0.648	-0.248
Mof_N 	N 	0.464	0.9245	0.0731	-0.245
Mof_N 	N 	0.9582	0.0243	0.6843	-0.243
Mof_N 	N 	0.542	0.4782	0.4466	-0.246
Mof_N 	N 	0.7914	0.4757	0.0661	-0.243
Mof_N 	N 	0.9976	0.0371	0.4269	-0.243
Mof_N 	N 	0.0766	0.559	0.9958	-0.243
Mof_N 	N 	0.7086	0.1425	0.8157	-0.242
Mof_N 	N 	0.4704	0.6795	0.4795	-0.247
Mof_N 	N 	0.0024	0.9629	0.5731	-0.243
Mof_N 	N 	0.9248	0.4886	0.0534	-0.245
Mof_N 	N 	0.8125	0.4605	0.9928	-0.248
Mof_N 	N 	0.4234	0.9276	0.0176	-0.246
Mof_N 	N 	0.341	0.8205	0.2091	-0.247
Mof_N 	N 	0.4452	0.4276	0.4958	-0.244
Mof_N 	N 	0.9234	0.441	0.0042	-0.243
Mof_N 	N 	0.841	0.5501	0.9795	-0.248
Mof_N 	N 	0.5467	0.6947	0.4928	-0.247
Mof_N 	N 	0.5024	0.5755	0.4605	-0.244
Mof_N 	N 	0.2914	0.8575	0.1843	-0.242
Mof_N 	N 	0.5766	0.0724	0.9824	-0.246
Mof_N 	N 	0.0752	0.5114	0.9466	-0.245
Mof_N 	N 	0.2086	0.5243	0.9339	-0.243
Mof_N 	N 	0.4248	0.9782	0.0638	-0.248
Mof_N 	N 	0.5548	0.5724	0.5042	-0.244
Mof_N 	N 	0.9533	0.9605	0.352	-0.248
Mof_N 	N 	0.5418	0.3575	0.4339	-0.242
Mof_N 	N 	0.159	0.4499	0.0205	-0.248
Mof_N 	N 	0.958	0.0114	0.5638	-0.245
Mof_N 	N 	0.5296	0.3205	0.5205	-0.247
Mof_O 	O 	0.682	0.0382	0.4144	-0.52
Mof_O 	O 	0.0521	0.379	0.5191	-0.524
Mof_O 	O 	0.3389	0.41	0.2189	-0.507
Mof_O 	O 	0.708	0.964	0.1076	-0.548
Mof_O 	O 	0.818	0.9036	0.1438	-0.52
Mof_O 	O 	0.6005	0.6957	0.0086	-0.382
Mof_O 	O 	0.3938	0.3422	0.2764	-0.794
Mof_O 	O 	0.8305	0.4406	0.3905	-0.674
Mof_O 	O 	0.8382	0.5096	0.314	-0.294
Mof_O 	O 	0.404	0.6164	0.1756	-0.504
Mof_O 	O 	0.3604	0.3519	0.1509	-0.543
Mof_O 	O 	0.5484	0.6418	0.0976	-0.456
Mof_O 	O 	0.0212	0.3639	0.4629	-0.556
Mof_O 	O 	0.6898	0.7559	0.7291	-0.51
Mof_O 	O 	0.9793	0.6625	0.6912	-0.357
Mof_O 	O 	0.9967	0.499	0.3489	-0.595
Mof_O 	O 	0.5042	0.1114	0.3126	-0.41
Mof_O 	O 	0.3814	0.8298	0.7764	-0.794
Mof_O 	O 	0.6611	0.59	0.7811	-0.507
Mof_O 	O 	0.8814	0.1578	0.9484	-0.793
Mof_O 	O 	0.208	0.9204	0.6756	-0.504
Mof_O 	O 	0.257	0.2755	0.7953	-0.537
Mof_O 	O 	0.6676	0.6531	0.6597	-0.362
Mof_O 	O 	0.1062	0.3298	0.5516	-0.794
Mof_O 	O 	0.6521	0.001	0.5023	-0.596
Mof_O 	O 	0.292	0.1164	0.7876	-0.504
Mof_O 	O 	0.5212	0.4841	0.8427	-0.556
Mof_O 	O 	0.5716	0.464	0.744	-0.548
Mof_O 	O 	0.9384	0.5676	0.344	-0.506
Mof_O 	O 	0.6186	0.1702	0.2236	-0.794
Mof_O 	O 	0.9802	0.2764	0.4334	-0.478
Mof_O 	O 	0.2902	0.0864	0.9334	-0.479
Mof_O 	O 	0.0294	0.4605	0.7439	-0.464
Mof_O 	O 	0.208	0.8156	0.756	-0.547
Mof_O 	O 	0.3981	0.879	0.6731	-0.524
Mof_O 	O 	0.7044	0.9605	0.5689	-0.465
Mof_O 	O 	0.6732	0.1361	0.3427	-0.556
Mof_O 	O 	0.792	0.0796	0.3244	-0.504
Mof_O 	O 	0.4292	0.2245	0.0185	-0.536
Mof_O 	O 	0.576	0.6832	0.8126	-0.41
Mof_O 	O 	0.3128	0.8273	0.8403	-0.362
Mof_O 	O 	0.9788	0.6361	0.5371	-0.556
Mof_O 	O 	0.5028	0.0113	0.3491	-0.543
Mof_O 	O 	0.1676	0.3273	0.4855	-0.362
Mof_O 	O 	0.6689	0.0594	0.6101	-0.674
Mof_O 	O 	0.9958	0.1832	0.8928	-0.411
Mof_O 	O 	0.5521	0.5712	0.8269	-0.524
Mof_O 	O 	0.6958	0.074	0.3032	-0.464
Mof_O 	O 	0.2043	0.1957	0.9048	-0.382
Mof_O 	O 	0.8128	0.1531	0.0145	-0.359
Mof_O 	O 	0.3537	0.1705	0.8088	-0.357
Mof_O 	O 	0.0042	0.8168	0.1072	-0.411
Mof_O 	O 	0.0028	0.8519	0.0085	-0.544
Mof_O 	O 	0.9075	0.8281	0.0556	-0.49
Mof_O 	O 	0.076	0.3886	0.6072	-0.41
Mof_O 	O 	0.0198	0.7236	0.5666	-0.478
Mof_O 	O 	0.8102	0.5811	0.4339	-0.51
Mof_O 	O 	0.2044	0.2733	0.7561	-0.465
Mof_O 	O 	0.8324	0.6727	0.5145	-0.362
Mof_O 	O 	0.6618	0.8478	0.8286	-0.294
Mof_O 	O 	0.4284	0.536	0.256	-0.548
Mof_O 	O 	0.1521	0.1544	0.8489	-0.596
Mof_O 	O 	0.924	0.6114	0.3928	-0.41
Mof_O 	O 	0.9706	0.5395	0.2561	-0.464
Mof_O 	O 	0.3311	0.9406	0.3899	-0.674
Mof_O 	O 	0.015	0.7441	0.0661	-0.511
Mof_O 	O 	0.5474	0.4036	0.9144	-0.519
Mof_O 	O 	0.9479	0.621	0.4809	-0.524
Mof_O 	O 	0.6019	0.121	0.3269	-0.524
Mof_O 	O 	0.2956	0.0395	0.4311	-0.465
Mof_O 	O 	0.4526	0.5964	0.0856	-0.519
Mof_O 	O 	0.2652	0.2878	0.2732	-0.532
Mof_O 	O 	0.757	0.0523	0.5185	-0.537
Mof_O 	O 	0.5294	0.7733	0.9311	-0.464
Mof_O 	O 	0.6163	0.6719	0.9206	-0.489
Mof_O 	O 	0.7606	0.8582	0.0934	-0.456
Mof_O 	O 	0.0484	0.646	0.5934	-0.456
Mof_O 	O 	0.4958	0.8886	0.6874	-0.41
Mof_O 	O 	0.1463	0.8375	0.6832	-0.356
Mof_O 	O 	0.5925	0.0369	0.5794	-0.49
Mof_O 	O 	0.8236	0.6522	0.186	-0.294
Mof_O 	O 	0.4972	0.9887	0.6509	-0.543
Mof_O 	O 	0.3305	0.221	0.1101	-0.674
Mof_O 	O 	0.7043	0.1091	0.4914	-0.382
Mof_O 	O 	0.1689	0.279	0.8905	-0.674
Mof_O 	O 	0.4116	0.0676	0.3708	-0.506
Mof_O 	O 	0.0925	0.1719	0.9444	-0.49
Mof_O 	O 	0.8938	0.6702	0.4484	-0.794
Mof_O 	O 	0.1898	0.4189	0.5661	-0.51
Mof_O 	O 	0.3772	0.499	0.1968	-0.464
Mof_O 	O 	0.596	0.3836	0.8244	-0.504
Mof_O 	O 	0.7348	0.7122	0.7268	-0.532
Mof_O 	O 	0.8389	0.5578	0.5711	-0.507
Mof_O 	O 	0.985	0.2559	0.9339	-0.511
Mof_O 	O 	0.5884	0.9324	0.6292	-0.506
Mof_O 	O 	0.3102	0.2441	0.2709	-0.51
Mof_O 	O 	0.1764	0.3478	0.814	-0.294
Mof_O 	O 	0.4075	0.9631	0.4206	-0.49
Mof_O 	O 	0.7902	0.2236	0.2962	-0.479
Mof_O 	O 	0.8604	0.5113	0.4915	-0.543
Mof_O 	O 	0.7956	0.7267	0.2439	-0.465
Mof_O 	O 	0.8711	0.09	0.0711	-0.504
Mof_O 	O 	0.1611	0.4422	0.4289	-0.507
Mof_O 	O 	0.743	0.7245	0.2047	-0.537
Mof_O 	O 	0.7957	0.8043	0.0952	-0.382
Mof_O 	O 	0.3268	0.8639	0.6573	-0.556
Mof_O 	O 	0.1186	0.8422	0.0516	-0.793
Mof_O 	O 	0.1163	0.5369	0.5556	-0.489
Mof_O 	O 	0.7394	0.146	0.4024	-0.456
Mof_O 	O 	0.6695	0.779	0.8899	-0.674
Mof_O 	O 	0.292	0.036	0.8924	-0.548
Mof_O 	O 	0.4793	0.6705	0.1832	-0.357
Mof_O 	O 	0.0716	0.3156	0.3924	-0.547
Mof_O 	O 	0.318	0.9618	0.5856	-0.52
Mof_O 	O 	0.2098	0.7764	0.7038	-0.479
Mof_O 	O 	0.561	0.0384	0.2268	-0.531
Mof_O 	O 	0.708	0.8836	0.2124	-0.504
Mof_O 	O 	0.8837	0.4631	0.4444	-0.489
Mof_O 	O 	0.6764	0.9904	0.6714	-0.294
Mof_O 	O 	0.9292	0.4477	0.2953	-0.537
Mof_O 	O 	0.1019	0.9288	0.0191	-0.528
Mof_O 	O 	0.904	0.5796	0.7124	-0.504
Mof_O 	O 	0.1872	0.8469	0.9855	-0.359
Mof_O 	O 	0.3324	0.3469	0.3403	-0.362
Mof_O 	O 	0.3837	0.3281	0.0794	-0.489
Mof_O 	O 	0.3382	0.1522	0.1714	-0.294
Mof_O 	O 	0.439	0.9616	0.7732	-0.531
Mof_O 	O 	0.9526	0.5382	0.6438	-0.519
Mof_O 	O 	0.096	0.4204	0.2876	-0.504
Mof_O 	O 	0.1732	0.0159	0.9629	-0.559
Mof_O 	O 	0.8981	0.0712	0.9809	-0.528
Mof_O 	O 	0.515	0.0811	0.2291	-0.51
Mof_O 	O 	0.0708	0.5523	0.7047	-0.537
Mof_O 	O 	0.1005	0.6091	0.5952	-0.382
Mof_O 	O 	0.3479	0.999	0.4977	-0.596
Mof_O 	O 	0.5708	0.7755	0.9815	-0.536
Mof_O 	O 	0.0033	0.501	0.6511	-0.595
Mof_O 	O 	0.4802	0.4136	0.7962	-0.479
Mof_O 	O 	0.8537	0.1625	0.3168	-0.356
Mof_O 	O 	0.8772	0.574	0.6218	-0.464
Mof_O 	O 	0.6062	0.6578	0.7236	-0.794
Mof_O 	O 	0.0474	0.4618	0.3562	-0.519
Mof_O 	O 	0.8311	0.721	0.1095	-0.674
Mof_O 	O 	0.1396	0.4887	0.5085	-0.543
Mof_O 	O 	0.3042	0.926	0.6968	-0.464
Mof_O 	O 	0.4516	0.3582	0.9024	-0.456
Mof_O 	O 	0.485	0.9189	0.7709	-0.51
Mof_O 	O 	0.6396	0.6481	0.8491	-0.543
Mof_O 	O 	0.5616	0.7176	0.8708	-0.506
Mof_O 	O 	0.4706	0.2267	0.0689	-0.464
Mof_O 	O 	0.8995	0.3909	0.4048	-0.382
Mof_O 	O 	0.6289	0.0578	0.2811	-0.507
Mof_O 	O 	0.8042	0.001	0.1218	-0.463
Mof_O 	O 	0.424	0.3168	0.1874	-0.41
Mof_O 	O 	0.9972	0.1481	0.9915	-0.544
Mof_O 	O 	0.6228	0.501	0.8032	-0.464
Mof_O 	O 	0.1958	0.999	0.8782	-0.463
Mof_O 	O 	0.8268	0.9841	0.0371	-0.559
Mof_O 	O 	0.6463	0.8295	0.1912	-0.357
Mof_O 	O 	0.2394	0.1418	0.9066	-0.456
Mof_O 	O 	0.939	0.2122	0.0226	-0.529
Mof_O 	O 	0.2348	0.4616	0.4774	-0.532
Mof_O 	O 	0.3995	0.3043	0.9914	-0.382
Mof_O 	O 	0.5033	0.6544	0.9977	-0.595
Mof_O 	O 	0.3711	0.9422	0.7189	-0.507
Mof_O 	O 	0.5198	0.5864	0.2038	-0.479
Mof_O 	O 	0.1228	0.426	0.3782	-0.464
Mof_O 	O 	0.3236	0.0096	0.3286	-0.294
Mof_O 	O 	0.0616	0.4324	0.656	-0.506
Mof_O 	O 	0.061	0.7878	0.9774	-0.529
Mof_O 	O 	0.0884	0.2176	0.844	-0.506
Mof_O 	O 	0.4479	0.4288	0.1731	-0.524
Mof_O 	O 	0.9284	0.6844	0.6076	-0.547
Mof_O 	O 	0.2606	0.854	0.5976	-0.456
Mof_O 	O 	0.243	0.9477	0.4815	-0.537
Mof_O 	O 	0.0207	0.3375	0.3088	-0.357
Mof_O 	O 	0.182	0.0964	0.8562	-0.52
Mof_O 	O 	0.1618	0.4904	0.686	-0.294
Mof_O 	O 	0.5207	0.3295	0.8168	-0.357
Mof_O 	O 	0.9516	0.354	0.4066	-0.456
Mof_O 	O 	0.6872	0.1727	0.1597	-0.362
Mof_O 	O 	0.7652	0.5384	0.5226	-0.532
Mof_O 	O 	0.2957	0.8909	0.5086	-0.382
Mof_O 	O 	0.1289	0.91	0.9289	-0.504
Mof_O 	O 	0.792	0.1844	0.244	-0.547
Mof_O 	O 	0.4788	0.5159	0.1573	-0.556
Mof_O 	O 	0.1695	0.5594	0.6095	-0.674
Mof_O 	O 	0.4967	0.3456	0.0023	-0.595
Mof_O 	O 	0.8479	0.8456	0.1511	-0.596
Mof_O 	O 	0.7098	0.9136	0.0666	-0.479
Mof_O 	O 	0.9116	0.7824	0.156	-0.506
Mof_O 	O 	0.4384	0.2824	0.1292	-0.506
_end
