data_functionalizedCrystal
_audit_creation_method	'EQeq! by Chris Wilmer'
_symmetry_space_group_name_H-M	'P1'
_symmetry_Int_Tables_number	1
_symmetry_cell_setting	triclinic
loop_
_symmetry_equiv_pos_as_xyz
  x,y,z
_cell_length_a	18.5565
_cell_length_b	18.5565
_cell_length_c	38.6189
_cell_angle_alpha	90
_cell_angle_beta	90
_cell_angle_gamma	120
loop_
_atom_site_label
_atom_site_type_symbol
_atom_site_fract_x
_atom_site_fract_y
_atom_site_fract_z
_atom_site_charge
Mof_C 	C 	0.57431	0.6938	0.36021	0.315
Mof_C 	C 	0.51571	0.6138	0.37723	0.049
Mof_N 	N 	0.5032	0.3423	0.515	-0.083
Mof_N 	N 	0.4902	0.3784	0.4447	-0.112
Mof_O 	O 	0.55563	0.70431	0.33008	-0.394
Mof_O 	O 	0.63666	0.74507	0.37744	-0.397
Mof_C 	C 	0.5296	0.5987	0.41118	-0.252
Mof_H 	H 	0.5781	0.6369	0.4225	0.128
Mof_C 	C 	0.5091	0.5609	0.4858	0.603
Mof_H 	H 	0.5103	0.6115	0.4795	0.452
Mof_C 	C 	0.521	0.5479	0.5205	0.421
Mof_H 	H 	0.5267	0.588	0.5377	0.376
Mof_C 	C 	0.5019	0.4152	0.5055	-1.071
Mof_C 	C 	0.4924	0.4322	0.471	-0.392
Mof_C 	C 	0.485	0.2832	0.4892	0.033
Mof_H 	H 	0.4701	0.2273	0.4953	0.016
Mof_C 	C 	0.4892	0.3069	0.4544	0.061
Mof_H 	H 	0.4915	0.2718	0.4367	0.026
Mof_C 	C 	0.24098	0.02713	0.69354	0.315
Mof_C 	C 	0.18238	0.94713	0.71056	0.05
Mof_N 	N 	0.16987	0.67563	0.84833	-0.083
Mof_N 	N 	0.15687	0.71173	0.77803	-0.112
Mof_O 	O 	0.2223	0.03764	0.66341	-0.394
Mof_O 	O 	0.30333	0.0784	0.71077	-0.397
Mof_C 	C 	0.19627	0.93203	0.74451	-0.252
Mof_H 	H 	0.24477	0.97023	0.75583	0.128
Mof_C 	C 	0.17577	0.89423	0.81913	0.603
Mof_H 	H 	0.17697	0.94483	0.81283	0.452
Mof_C 	C 	0.18767	0.88123	0.85383	0.421
Mof_H 	H 	0.19337	0.92133	0.87103	0.376
Mof_C 	C 	0.16857	0.74853	0.83883	-1.072
Mof_C 	C 	0.15907	0.76553	0.80433	-0.393
Mof_C 	C 	0.15167	0.61653	0.82253	0.032
Mof_H 	H 	0.13677	0.56063	0.82863	0.015
Mof_C 	C 	0.15587	0.64023	0.78773	0.06
Mof_H 	H 	0.15817	0.60513	0.77003	0.025
Mof_C 	C 	0.90764	0.36047	0.02688	0.314
Mof_C 	C 	0.84904	0.28047	0.0439	0.048
Mof_N 	N 	0.83653	0.00897	0.18167	-0.083
Mof_N 	N 	0.82353	0.04507	0.11137	-0.113
Mof_O 	O 	0.88896	0.37098	0.99675	-0.395
Mof_O 	O 	0.96999	0.41174	0.04411	-0.398
Mof_C 	C 	0.86293	0.26537	0.07785	-0.253
Mof_H 	H 	0.91143	0.30357	0.08917	0.127
Mof_C 	C 	0.84243	0.22757	0.15247	0.602
Mof_H 	H 	0.84363	0.27817	0.14617	0.451
Mof_C 	C 	0.85433	0.21457	0.18717	0.42
Mof_H 	H 	0.86003	0.25467	0.20437	0.375
Mof_C 	C 	0.83523	0.08187	0.17217	-1.072
Mof_C 	C 	0.82573	0.09887	0.13767	-0.393
Mof_C 	C 	0.81833	0.94987	0.15587	0.032
Mof_H 	H 	0.80343	0.89397	0.16197	0.015
Mof_C 	C 	0.82253	0.97357	0.12107	0.059
Mof_H 	H 	0.82483	0.93847	0.10337	0.025
Mof_C 	C 	0.3062	0.88051	0.36021	0.314
Mof_C 	C 	0.3862	0.90191	0.37723	0.048
Mof_N 	N 	0.6577	0.1609	0.515	-0.084
Mof_N 	N 	0.6216	0.1118	0.4447	-0.113
Mof_O 	O 	0.29569	0.85132	0.33008	-0.395
Mof_O 	O 	0.25493	0.89159	0.37744	-0.398
Mof_C 	C 	0.4013	0.9309	0.41118	-0.253
Mof_H 	H 	0.3631	0.9412	0.4225	0.127
Mof_C 	C 	0.4391	0.9482	0.4858	0.602
Mof_H 	H 	0.3885	0.8988	0.4795	0.452
Mof_C 	C 	0.4521	0.9731	0.5205	0.421
Mof_H 	H 	0.412	0.9387	0.5377	0.375
Mof_C 	C 	0.5848	0.0867	0.5055	-1.073
Mof_C 	C 	0.5678	0.0602	0.471	-0.394
Mof_C 	C 	0.7168	0.2018	0.4892	0.032
Mof_H 	H 	0.7727	0.2428	0.4953	0.015
Mof_C 	C 	0.6931	0.1823	0.4544	0.06
Mof_H 	H 	0.7282	0.2197	0.4367	0.025
Mof_C 	C 	0.97287	0.21384	0.69354	0.314
Mof_C 	C 	0.05287	0.23524	0.71056	0.048
Mof_N 	N 	0.32437	0.49423	0.84833	-0.084
Mof_N 	N 	0.28827	0.44513	0.77803	-0.113
Mof_O 	O 	0.96236	0.18465	0.66341	-0.395
Mof_O 	O 	0.9216	0.22492	0.71077	-0.398
Mof_C 	C 	0.06797	0.26423	0.74451	-0.253
Mof_H 	H 	0.02977	0.27453	0.75583	0.127
Mof_C 	C 	0.10577	0.28153	0.81913	0.602
Mof_H 	H 	0.05517	0.23213	0.81283	0.451
Mof_C 	C 	0.11877	0.30643	0.85383	0.42
Mof_H 	H 	0.07867	0.27203	0.87103	0.375
Mof_C 	C 	0.25147	0.42003	0.83883	-1.072
Mof_C 	C 	0.23447	0.39353	0.80433	-0.393
Mof_C 	C 	0.38347	0.53513	0.82253	0.032
Mof_H 	H 	0.43937	0.57613	0.82863	0.015
Mof_C 	C 	0.35977	0.51563	0.78773	0.06
Mof_H 	H 	0.39487	0.55303	0.77003	0.025
Mof_C 	C 	0.63953	0.54718	0.02688	0.314
Mof_C 	C 	0.71953	0.56858	0.0439	0.048
Mof_N 	N 	0.99103	0.82757	0.18167	-0.083
Mof_N 	N 	0.95493	0.77847	0.11137	-0.113
Mof_O 	O 	0.62902	0.51799	0.99675	-0.395
Mof_O 	O 	0.58826	0.55826	0.04411	-0.398
Mof_C 	C 	0.73463	0.59757	0.07785	-0.253
Mof_H 	H 	0.69643	0.60787	0.08917	0.127
Mof_C 	C 	0.77243	0.61487	0.15247	0.602
Mof_H 	H 	0.72183	0.56547	0.14617	0.451
Mof_C 	C 	0.78543	0.63977	0.18717	0.42
Mof_H 	H 	0.74533	0.60537	0.20437	0.375
Mof_C 	C 	0.91813	0.75337	0.17217	-1.072
Mof_C 	C 	0.90113	0.72687	0.13767	-0.393
Mof_C 	C 	0.05013	0.86847	0.15587	0.031
Mof_H 	H 	0.10603	0.90947	0.16197	0.015
Mof_C 	C 	0.02643	0.84897	0.12107	0.059
Mof_H 	H 	0.06153	0.88637	0.10337	0.025
Mof_C 	C 	0.11949	0.42569	0.36021	0.314
Mof_C 	C 	0.09809	0.48429	0.37723	0.048
Mof_N 	N 	0.8391	0.4968	0.515	-0.084
Mof_N 	N 	0.8882	0.5098	0.4447	-0.113
Mof_O 	O 	0.14868	0.44437	0.33008	-0.395
Mof_O 	O 	0.10841	0.36334	0.37744	-0.398
Mof_C 	C 	0.0691	0.4704	0.41118	-0.253
Mof_H 	H 	0.0588	0.4219	0.4225	0.127
Mof_C 	C 	0.0518	0.4909	0.4858	0.602
Mof_H 	H 	0.1012	0.4897	0.4795	0.452
Mof_C 	C 	0.0269	0.479	0.5205	0.421
Mof_H 	H 	0.0613	0.4733	0.5377	0.375
Mof_C 	C 	0.9133	0.4981	0.5055	-1.073
Mof_C 	C 	0.9398	0.5076	0.471	-0.394
Mof_C 	C 	0.7982	0.515	0.4892	0.032
Mof_H 	H 	0.7572	0.5299	0.4953	0.015
Mof_C 	C 	0.8177	0.5108	0.4544	0.06
Mof_H 	H 	0.7803	0.5085	0.4367	0.025
Mof_C 	C 	0.78616	0.75902	0.69354	0.314
Mof_C 	C 	0.76476	0.81762	0.71056	0.048
Mof_N 	N 	0.50577	0.83013	0.84833	-0.084
Mof_N 	N 	0.55487	0.84313	0.77803	-0.113
Mof_O 	O 	0.81535	0.7777	0.66341	-0.395
Mof_O 	O 	0.77508	0.69667	0.71077	-0.398
Mof_C 	C 	0.73577	0.80373	0.74451	-0.253
Mof_H 	H 	0.72547	0.75523	0.75583	0.127
Mof_C 	C 	0.71847	0.82423	0.81913	0.602
Mof_H 	H 	0.76787	0.82303	0.81283	0.451
Mof_C 	C 	0.69357	0.81233	0.85383	0.42
Mof_H 	H 	0.72797	0.80663	0.87103	0.375
Mof_C 	C 	0.57997	0.83143	0.83883	-1.072
Mof_C 	C 	0.60647	0.84093	0.80433	-0.393
Mof_C 	C 	0.46487	0.84833	0.82253	0.032
Mof_H 	H 	0.42387	0.86323	0.82863	0.015
Mof_C 	C 	0.48437	0.84413	0.78773	0.06
Mof_H 	H 	0.44697	0.84183	0.77003	0.025
Mof_C 	C 	0.45282	0.09236	0.02688	0.314
Mof_C 	C 	0.43142	0.15096	0.0439	0.048
Mof_N 	N 	0.17243	0.16347	0.18167	-0.084
Mof_N 	N 	0.22153	0.17647	0.11137	-0.113
Mof_O 	O 	0.48201	0.11104	0.99675	-0.395
Mof_O 	O 	0.44174	0.03001	0.04411	-0.398
Mof_C 	C 	0.40243	0.13707	0.07785	-0.253
Mof_H 	H 	0.39213	0.08857	0.08917	0.127
Mof_C 	C 	0.38513	0.15757	0.15247	0.602
Mof_H 	H 	0.43453	0.15637	0.14617	0.451
Mof_C 	C 	0.36023	0.14567	0.18717	0.42
Mof_H 	H 	0.39463	0.13997	0.20437	0.375
Mof_C 	C 	0.24663	0.16477	0.17217	-1.072
Mof_C 	C 	0.27313	0.17427	0.13767	-0.393
Mof_C 	C 	0.13153	0.18167	0.15587	0.032
Mof_H 	H 	0.09053	0.19657	0.16197	0.015
Mof_C 	C 	0.15103	0.17747	0.12107	0.06
Mof_H 	H 	0.11363	0.17517	0.10337	0.025
Mof_C 	C 	0.6938	0.57431	0.63979	0.314
Mof_C 	C 	0.6138	0.51571	0.62277	0.048
Mof_N 	N 	0.3423	0.5032	0.485	-0.084
Mof_N 	N 	0.3784	0.4902	0.5553	-0.113
Mof_O 	O 	0.70431	0.55563	0.66992	-0.395
Mof_O 	O 	0.74507	0.63666	0.62256	-0.398
Mof_C 	C 	0.5987	0.5296	0.58882	-0.253
Mof_H 	H 	0.6369	0.5781	0.5775	0.127
Mof_C 	C 	0.5609	0.5091	0.5142	0.602
Mof_H 	H 	0.6115	0.5103	0.5205	0.451
Mof_C 	C 	0.5479	0.521	0.4795	0.42
Mof_H 	H 	0.588	0.5267	0.4623	0.375
Mof_C 	C 	0.4152	0.5019	0.4945	-1.072
Mof_C 	C 	0.4322	0.4924	0.529	-0.393
Mof_C 	C 	0.2832	0.485	0.5108	0.032
Mof_H 	H 	0.2273	0.4701	0.5047	0.015
Mof_C 	C 	0.3069	0.4892	0.5456	0.06
Mof_H 	H 	0.2718	0.4915	0.5633	0.025
Mof_C 	C 	0.36047	0.90764	0.97312	0.314
Mof_C 	C 	0.28047	0.84904	0.9561	0.048
Mof_N 	N 	0.00897	0.83653	0.81833	-0.083
Mof_N 	N 	0.04507	0.82353	0.88863	-0.113
Mof_O 	O 	0.37098	0.88896	0.00325	-0.395
Mof_O 	O 	0.41174	0.96999	0.95589	-0.398
Mof_C 	C 	0.26537	0.86293	0.92215	-0.253
Mof_H 	H 	0.30357	0.91143	0.91083	0.127
Mof_C 	C 	0.22757	0.84243	0.84753	0.602
Mof_H 	H 	0.27817	0.84363	0.85383	0.451
Mof_C 	C 	0.21457	0.85433	0.81283	0.42
Mof_H 	H 	0.25467	0.86003	0.79563	0.375
Mof_C 	C 	0.08187	0.83523	0.82783	-1.072
Mof_C 	C 	0.09887	0.82573	0.86233	-0.393
Mof_C 	C 	0.94987	0.81833	0.84413	0.032
Mof_H 	H 	0.89397	0.80343	0.83803	0.015
Mof_C 	C 	0.97357	0.82253	0.87893	0.059
Mof_H 	H 	0.93847	0.82483	0.89663	0.025
Mof_C 	C 	0.02713	0.24098	0.30646	0.314
Mof_C 	C 	0.94713	0.18238	0.28944	0.049
Mof_N 	N 	0.67563	0.16987	0.15167	-0.084
Mof_N 	N 	0.71173	0.15687	0.22197	-0.113
Mof_O 	O 	0.03764	0.2223	0.33659	-0.395
Mof_O 	O 	0.0784	0.30333	0.28923	-0.398
Mof_C 	C 	0.93203	0.19627	0.25549	-0.253
Mof_H 	H 	0.97023	0.24477	0.24417	0.127
Mof_C 	C 	0.89423	0.17577	0.18087	0.602
Mof_H 	H 	0.94483	0.17697	0.18717	0.451
Mof_C 	C 	0.88123	0.18767	0.14617	0.42
Mof_H 	H 	0.92133	0.19337	0.12897	0.375
Mof_C 	C 	0.74853	0.16857	0.16117	-1.072
Mof_C 	C 	0.76553	0.15907	0.19567	-0.393
Mof_C 	C 	0.61653	0.15167	0.17747	0.032
Mof_H 	H 	0.56063	0.13677	0.17137	0.015
Mof_C 	C 	0.64023	0.15587	0.21227	0.06
Mof_H 	H 	0.60513	0.15817	0.22997	0.025
Mof_C 	C 	0.88051	0.3062	0.63979	0.314
Mof_C 	C 	0.90191	0.3862	0.62277	0.048
Mof_N 	N 	0.1609	0.6577	0.485	-0.084
Mof_N 	N 	0.1118	0.6216	0.5553	-0.113
Mof_O 	O 	0.85132	0.29569	0.66992	-0.395
Mof_O 	O 	0.89159	0.25493	0.62256	-0.398
Mof_C 	C 	0.9309	0.4013	0.58882	-0.253
Mof_H 	H 	0.9412	0.3631	0.5775	0.127
Mof_C 	C 	0.9482	0.4391	0.5142	0.602
Mof_H 	H 	0.8988	0.3885	0.5205	0.452
Mof_C 	C 	0.9731	0.4521	0.4795	0.421
Mof_H 	H 	0.9387	0.412	0.4623	0.375
Mof_C 	C 	0.0867	0.5848	0.4945	-1.073
Mof_C 	C 	0.0602	0.5678	0.529	-0.394
Mof_C 	C 	0.2018	0.7168	0.5108	0.032
Mof_H 	H 	0.2428	0.7727	0.5047	0.015
Mof_C 	C 	0.1823	0.6931	0.5456	0.06
Mof_H 	H 	0.2197	0.7282	0.5633	0.025
Mof_C 	C 	0.54718	0.63953	0.97312	0.314
Mof_C 	C 	0.56858	0.71953	0.9561	0.048
Mof_N 	N 	0.82757	0.99103	0.81833	-0.083
Mof_N 	N 	0.77847	0.95493	0.88863	-0.113
Mof_O 	O 	0.51799	0.62902	0.00325	-0.395
Mof_O 	O 	0.55826	0.58826	0.95589	-0.398
Mof_C 	C 	0.59757	0.73463	0.92215	-0.253
Mof_H 	H 	0.60787	0.69643	0.91083	0.127
Mof_C 	C 	0.61487	0.77243	0.84753	0.602
Mof_H 	H 	0.56547	0.72183	0.85383	0.451
Mof_C 	C 	0.63977	0.78543	0.81283	0.42
Mof_H 	H 	0.60537	0.74533	0.79563	0.375
Mof_C 	C 	0.75337	0.91813	0.82783	-1.072
Mof_C 	C 	0.72687	0.90113	0.86233	-0.393
Mof_C 	C 	0.86847	0.05013	0.84413	0.031
Mof_H 	H 	0.90947	0.10603	0.83803	0.015
Mof_C 	C 	0.84897	0.02643	0.87893	0.059
Mof_H 	H 	0.88637	0.06153	0.89663	0.025
Mof_C 	C 	0.21384	0.97287	0.30646	0.314
Mof_C 	C 	0.23524	0.05287	0.28944	0.048
Mof_N 	N 	0.49423	0.32437	0.15167	-0.084
Mof_N 	N 	0.44513	0.28827	0.22197	-0.113
Mof_O 	O 	0.18465	0.96236	0.33659	-0.395
Mof_O 	O 	0.22492	0.9216	0.28923	-0.398
Mof_C 	C 	0.26423	0.06797	0.25549	-0.253
Mof_H 	H 	0.27453	0.02977	0.24417	0.127
Mof_C 	C 	0.28153	0.10577	0.18087	0.602
Mof_H 	H 	0.23213	0.05517	0.18717	0.451
Mof_C 	C 	0.30643	0.11877	0.14617	0.42
Mof_H 	H 	0.27203	0.07867	0.12897	0.375
Mof_C 	C 	0.42003	0.25147	0.16117	-1.072
Mof_C 	C 	0.39353	0.23447	0.19567	-0.393
Mof_C 	C 	0.53513	0.38347	0.17747	0.032
Mof_H 	H 	0.57613	0.43937	0.17137	0.015
Mof_C 	C 	0.51563	0.35977	0.21227	0.06
Mof_H 	H 	0.55303	0.39487	0.22997	0.025
Mof_C 	C 	0.42569	0.11949	0.63979	0.314
Mof_C 	C 	0.48429	0.09809	0.62277	0.048
Mof_N 	N 	0.4968	0.8391	0.485	-0.084
Mof_N 	N 	0.5098	0.8882	0.5553	-0.113
Mof_O 	O 	0.44437	0.14868	0.66992	-0.395
Mof_O 	O 	0.36334	0.10841	0.62256	-0.398
Mof_C 	C 	0.4704	0.0691	0.58882	-0.253
Mof_H 	H 	0.4219	0.0588	0.5775	0.127
Mof_C 	C 	0.4909	0.0518	0.5142	0.602
Mof_H 	H 	0.4897	0.1012	0.5205	0.452
Mof_C 	C 	0.479	0.0269	0.4795	0.421
Mof_H 	H 	0.4733	0.0613	0.4623	0.375
Mof_C 	C 	0.4981	0.9133	0.4945	-1.073
Mof_C 	C 	0.5076	0.9398	0.529	-0.394
Mof_C 	C 	0.515	0.7982	0.5108	0.032
Mof_H 	H 	0.5299	0.7572	0.5047	0.015
Mof_C 	C 	0.5108	0.8177	0.5456	0.06
Mof_H 	H 	0.5085	0.7803	0.5633	0.025
Mof_C 	C 	0.09236	0.45282	0.97312	0.314
Mof_C 	C 	0.15096	0.43142	0.9561	0.048
Mof_N 	N 	0.16347	0.17243	0.81833	-0.084
Mof_N 	N 	0.17647	0.22153	0.88863	-0.113
Mof_O 	O 	0.11104	0.48201	0.00325	-0.395
Mof_O 	O 	0.03001	0.44174	0.95589	-0.398
Mof_C 	C 	0.13707	0.40243	0.92215	-0.253
Mof_H 	H 	0.08857	0.39213	0.91083	0.127
Mof_C 	C 	0.15757	0.38513	0.84753	0.602
Mof_H 	H 	0.15637	0.43453	0.85383	0.451
Mof_C 	C 	0.14567	0.36023	0.81283	0.42
Mof_H 	H 	0.13997	0.39463	0.79563	0.375
Mof_C 	C 	0.16477	0.24663	0.82783	-1.072
Mof_C 	C 	0.17427	0.27313	0.86233	-0.393
Mof_C 	C 	0.18167	0.13153	0.84413	0.032
Mof_H 	H 	0.19657	0.09053	0.83803	0.015
Mof_C 	C 	0.17747	0.15103	0.87893	0.06
Mof_H 	H 	0.17517	0.11363	0.89663	0.025
Mof_C 	C 	0.75902	0.78616	0.30646	0.314
Mof_C 	C 	0.81762	0.76476	0.28944	0.048
Mof_N 	N 	0.83013	0.50577	0.15167	-0.084
Mof_N 	N 	0.84313	0.55487	0.22197	-0.113
Mof_O 	O 	0.7777	0.81535	0.33659	-0.395
Mof_O 	O 	0.69667	0.77508	0.28923	-0.398
Mof_C 	C 	0.80373	0.73577	0.25549	-0.253
Mof_H 	H 	0.75523	0.72547	0.24417	0.127
Mof_C 	C 	0.82423	0.71847	0.18087	0.602
Mof_H 	H 	0.82303	0.76787	0.18717	0.451
Mof_C 	C 	0.81233	0.69357	0.14617	0.42
Mof_H 	H 	0.80663	0.72797	0.12897	0.375
Mof_C 	C 	0.83143	0.57997	0.16117	-1.072
Mof_C 	C 	0.84093	0.60647	0.19567	-0.393
Mof_C 	C 	0.84833	0.46487	0.17747	0.032
Mof_H 	H 	0.86323	0.42387	0.17137	0.015
Mof_C 	C 	0.84413	0.48437	0.21227	0.06
Mof_H 	H 	0.84183	0.44697	0.22997	0.025
Mof_C 	C 	0.42569	0.3062	0.63979	0.314
Mof_C 	C 	0.48429	0.3862	0.62277	0.048
Mof_N 	N 	0.4968	0.6577	0.485	-0.084
Mof_N 	N 	0.5098	0.6216	0.5553	-0.113
Mof_O 	O 	0.44437	0.29569	0.66992	-0.395
Mof_O 	O 	0.36334	0.25493	0.62256	-0.398
Mof_C 	C 	0.4704	0.4013	0.58882	-0.253
Mof_H 	H 	0.4219	0.3631	0.5775	0.127
Mof_C 	C 	0.4909	0.4391	0.5142	0.602
Mof_H 	H 	0.4897	0.3885	0.5205	0.451
Mof_C 	C 	0.479	0.4521	0.4795	0.42
Mof_H 	H 	0.4733	0.412	0.4623	0.375
Mof_C 	C 	0.4981	0.5848	0.4945	-1.072
Mof_C 	C 	0.5076	0.5678	0.529	-0.393
Mof_C 	C 	0.515	0.7168	0.5108	0.032
Mof_H 	H 	0.5299	0.7727	0.5047	0.015
Mof_C 	C 	0.5108	0.6931	0.5456	0.06
Mof_H 	H 	0.5085	0.7282	0.5633	0.025
Mof_C 	C 	0.09236	0.63953	0.97312	0.314
Mof_C 	C 	0.15096	0.71953	0.9561	0.048
Mof_N 	N 	0.16347	0.99103	0.81833	-0.083
Mof_N 	N 	0.17647	0.95493	0.88863	-0.113
Mof_O 	O 	0.11104	0.62902	0.00325	-0.395
Mof_O 	O 	0.03001	0.58826	0.95589	-0.398
Mof_C 	C 	0.13707	0.73463	0.92215	-0.253
Mof_H 	H 	0.08857	0.69643	0.91083	0.127
Mof_C 	C 	0.15757	0.77243	0.84753	0.602
Mof_H 	H 	0.15637	0.72183	0.85383	0.451
Mof_C 	C 	0.14567	0.78543	0.81283	0.42
Mof_H 	H 	0.13997	0.74533	0.79563	0.375
Mof_C 	C 	0.16477	0.91813	0.82783	-1.072
Mof_C 	C 	0.17427	0.90113	0.86233	-0.393
Mof_C 	C 	0.18167	0.05013	0.84413	0.032
Mof_H 	H 	0.19657	0.10603	0.83803	0.015
Mof_C 	C 	0.17747	0.02643	0.87893	0.059
Mof_H 	H 	0.17517	0.06153	0.89663	0.025
Mof_C 	C 	0.75902	0.97287	0.30646	0.314
Mof_C 	C 	0.81762	0.05287	0.28944	0.049
Mof_N 	N 	0.83013	0.32437	0.15167	-0.084
Mof_N 	N 	0.84313	0.28827	0.22197	-0.113
Mof_O 	O 	0.7777	0.96236	0.33659	-0.395
Mof_O 	O 	0.69667	0.9216	0.28923	-0.398
Mof_C 	C 	0.80373	0.06797	0.25549	-0.253
Mof_H 	H 	0.75523	0.02977	0.24417	0.127
Mof_C 	C 	0.82423	0.10577	0.18087	0.602
Mof_H 	H 	0.82303	0.05517	0.18717	0.451
Mof_C 	C 	0.81233	0.11877	0.14617	0.42
Mof_H 	H 	0.80663	0.07867	0.12897	0.375
Mof_C 	C 	0.83143	0.25147	0.16117	-1.072
Mof_C 	C 	0.84093	0.23447	0.19567	-0.393
Mof_C 	C 	0.84833	0.38347	0.17747	0.032
Mof_H 	H 	0.86323	0.43937	0.17137	0.015
Mof_C 	C 	0.84413	0.35977	0.21227	0.06
Mof_H 	H 	0.84183	0.39487	0.22997	0.025
Mof_C 	C 	0.6938	0.11949	0.63979	0.314
Mof_C 	C 	0.6138	0.09809	0.62277	0.048
Mof_N 	N 	0.3423	0.8391	0.485	-0.084
Mof_N 	N 	0.3784	0.8882	0.5553	-0.113
Mof_O 	O 	0.70431	0.14868	0.66992	-0.395
Mof_O 	O 	0.74507	0.10841	0.62256	-0.398
Mof_C 	C 	0.5987	0.0691	0.58882	-0.253
Mof_H 	H 	0.6369	0.0588	0.5775	0.127
Mof_C 	C 	0.5609	0.0518	0.5142	0.602
Mof_H 	H 	0.6115	0.1012	0.5205	0.452
Mof_C 	C 	0.5479	0.0269	0.4795	0.421
Mof_H 	H 	0.588	0.0613	0.4623	0.375
Mof_C 	C 	0.4152	0.9133	0.4945	-1.073
Mof_C 	C 	0.4322	0.9398	0.529	-0.394
Mof_C 	C 	0.2832	0.7982	0.5108	0.032
Mof_H 	H 	0.2273	0.7572	0.5047	0.015
Mof_C 	C 	0.3069	0.8177	0.5456	0.06
Mof_H 	H 	0.2718	0.7803	0.5633	0.025
Mof_C 	C 	0.36047	0.45282	0.97312	0.314
Mof_C 	C 	0.28047	0.43142	0.9561	0.048
Mof_N 	N 	0.00897	0.17243	0.81833	-0.083
Mof_N 	N 	0.04507	0.22153	0.88863	-0.113
Mof_O 	O 	0.37098	0.48201	0.00325	-0.395
Mof_O 	O 	0.41174	0.44174	0.95589	-0.398
Mof_C 	C 	0.26537	0.40243	0.92215	-0.253
Mof_H 	H 	0.30357	0.39213	0.91083	0.127
Mof_C 	C 	0.22757	0.38513	0.84753	0.602
Mof_H 	H 	0.27817	0.43453	0.85383	0.451
Mof_C 	C 	0.21457	0.36023	0.81283	0.42
Mof_H 	H 	0.25467	0.39463	0.79563	0.375
Mof_C 	C 	0.08187	0.24663	0.82783	-1.072
Mof_C 	C 	0.09887	0.27313	0.86233	-0.393
Mof_C 	C 	0.94987	0.13153	0.84413	0.031
Mof_H 	H 	0.89397	0.09053	0.83803	0.015
Mof_C 	C 	0.97357	0.15103	0.87893	0.059
Mof_H 	H 	0.93847	0.11363	0.89663	0.025
Mof_C 	C 	0.02713	0.78616	0.30646	0.314
Mof_C 	C 	0.94713	0.76476	0.28944	0.048
Mof_N 	N 	0.67563	0.50577	0.15167	-0.084
Mof_N 	N 	0.71173	0.55487	0.22197	-0.113
Mof_O 	O 	0.03764	0.81535	0.33659	-0.395
Mof_O 	O 	0.0784	0.77508	0.28923	-0.398
Mof_C 	C 	0.93203	0.73577	0.25549	-0.253
Mof_H 	H 	0.97023	0.72547	0.24417	0.127
Mof_C 	C 	0.89423	0.71847	0.18087	0.602
Mof_H 	H 	0.94483	0.76787	0.18717	0.451
Mof_C 	C 	0.88123	0.69357	0.14617	0.42
Mof_H 	H 	0.92133	0.72797	0.12897	0.375
Mof_C 	C 	0.74853	0.57997	0.16117	-1.072
Mof_C 	C 	0.76553	0.60647	0.19567	-0.393
Mof_C 	C 	0.61653	0.46487	0.17747	0.032
Mof_H 	H 	0.56063	0.42387	0.17137	0.015
Mof_C 	C 	0.64023	0.48437	0.21227	0.06
Mof_H 	H 	0.60513	0.44697	0.22997	0.025
Mof_C 	C 	0.88051	0.57431	0.63979	0.314
Mof_C 	C 	0.90191	0.51571	0.62277	0.048
Mof_N 	N 	0.1609	0.5032	0.485	-0.084
Mof_N 	N 	0.1118	0.4902	0.5553	-0.113
Mof_O 	O 	0.85132	0.55563	0.66992	-0.395
Mof_O 	O 	0.89159	0.63666	0.62256	-0.398
Mof_C 	C 	0.9309	0.5296	0.58882	-0.253
Mof_H 	H 	0.9412	0.5781	0.5775	0.127
Mof_C 	C 	0.9482	0.5091	0.5142	0.602
Mof_H 	H 	0.8988	0.5103	0.5205	0.452
Mof_C 	C 	0.9731	0.521	0.4795	0.421
Mof_H 	H 	0.9387	0.5267	0.4623	0.375
Mof_C 	C 	0.0867	0.5019	0.4945	-1.073
Mof_C 	C 	0.0602	0.4924	0.529	-0.394
Mof_C 	C 	0.2018	0.485	0.5108	0.032
Mof_H 	H 	0.2428	0.4701	0.5047	0.015
Mof_C 	C 	0.1823	0.4892	0.5456	0.06
Mof_H 	H 	0.2197	0.4915	0.5633	0.025
Mof_C 	C 	0.54718	0.90764	0.97312	0.314
Mof_C 	C 	0.56858	0.84904	0.9561	0.048
Mof_N 	N 	0.82757	0.83653	0.81833	-0.084
Mof_N 	N 	0.77847	0.82353	0.88863	-0.113
Mof_O 	O 	0.51799	0.88896	0.00325	-0.395
Mof_O 	O 	0.55826	0.96999	0.95589	-0.398
Mof_C 	C 	0.59757	0.86293	0.92215	-0.253
Mof_H 	H 	0.60787	0.91143	0.91083	0.127
Mof_C 	C 	0.61487	0.84243	0.84753	0.602
Mof_H 	H 	0.56547	0.84363	0.85383	0.451
Mof_C 	C 	0.63977	0.85433	0.81283	0.42
Mof_H 	H 	0.60537	0.86003	0.79563	0.375
Mof_C 	C 	0.75337	0.83523	0.82783	-1.072
Mof_C 	C 	0.72687	0.82573	0.86233	-0.393
Mof_C 	C 	0.86847	0.81833	0.84413	0.032
Mof_H 	H 	0.90947	0.80343	0.83803	0.015
Mof_C 	C 	0.84897	0.82253	0.87893	0.06
Mof_H 	H 	0.88637	0.82483	0.89663	0.025
Mof_C 	C 	0.21384	0.24098	0.30646	0.314
Mof_C 	C 	0.23524	0.18238	0.28944	0.048
Mof_N 	N 	0.49423	0.16987	0.15167	-0.084
Mof_N 	N 	0.44513	0.15687	0.22197	-0.113
Mof_O 	O 	0.18465	0.2223	0.33659	-0.395
Mof_O 	O 	0.22492	0.30333	0.28923	-0.398
Mof_C 	C 	0.26423	0.19627	0.25549	-0.253
Mof_H 	H 	0.27453	0.24477	0.24417	0.127
Mof_C 	C 	0.28153	0.17577	0.18087	0.602
Mof_H 	H 	0.23213	0.17697	0.18717	0.451
Mof_C 	C 	0.30643	0.18767	0.14617	0.42
Mof_H 	H 	0.27203	0.19337	0.12897	0.375
Mof_C 	C 	0.42003	0.16857	0.16117	-1.072
Mof_C 	C 	0.39353	0.15907	0.19567	-0.393
Mof_C 	C 	0.53513	0.15167	0.17747	0.032
Mof_H 	H 	0.57613	0.13677	0.17137	0.015
Mof_C 	C 	0.51563	0.15587	0.21227	0.06
Mof_H 	H 	0.55303	0.15817	0.22997	0.025
Mof_C 	C 	0.3062	0.42569	0.36021	0.314
Mof_C 	C 	0.3862	0.48429	0.37723	0.048
Mof_N 	N 	0.6577	0.4968	0.515	-0.084
Mof_N 	N 	0.6216	0.5098	0.4447	-0.113
Mof_O 	O 	0.29569	0.44437	0.33008	-0.395
Mof_O 	O 	0.25493	0.36334	0.37744	-0.398
Mof_C 	C 	0.4013	0.4704	0.41118	-0.253
Mof_H 	H 	0.3631	0.4219	0.4225	0.127
Mof_C 	C 	0.4391	0.4909	0.4858	0.602
Mof_H 	H 	0.3885	0.4897	0.4795	0.451
Mof_C 	C 	0.4521	0.479	0.5205	0.42
Mof_H 	H 	0.412	0.4733	0.5377	0.375
Mof_C 	C 	0.5848	0.4981	0.5055	-1.072
Mof_C 	C 	0.5678	0.5076	0.471	-0.393
Mof_C 	C 	0.7168	0.515	0.4892	0.032
Mof_H 	H 	0.7727	0.5299	0.4953	0.015
Mof_C 	C 	0.6931	0.5108	0.4544	0.06
Mof_H 	H 	0.7282	0.5085	0.4367	0.025
Mof_C 	C 	0.97287	0.75902	0.69354	0.314
Mof_C 	C 	0.05287	0.81762	0.71056	0.049
Mof_N 	N 	0.32437	0.83013	0.84833	-0.084
Mof_N 	N 	0.28827	0.84313	0.77803	-0.113
Mof_O 	O 	0.96236	0.7777	0.66341	-0.395
Mof_O 	O 	0.9216	0.69667	0.71077	-0.398
Mof_C 	C 	0.06797	0.80373	0.74451	-0.253
Mof_H 	H 	0.02977	0.75523	0.75583	0.127
Mof_C 	C 	0.10577	0.82423	0.81913	0.602
Mof_H 	H 	0.05517	0.82303	0.81283	0.451
Mof_C 	C 	0.11877	0.81233	0.85383	0.42
Mof_H 	H 	0.07867	0.80663	0.87103	0.375
Mof_C 	C 	0.25147	0.83143	0.83883	-1.072
Mof_C 	C 	0.23447	0.84093	0.80433	-0.393
Mof_C 	C 	0.38347	0.84833	0.82253	0.032
Mof_H 	H 	0.43937	0.86323	0.82863	0.015
Mof_C 	C 	0.35977	0.84413	0.78773	0.06
Mof_H 	H 	0.39487	0.84183	0.77003	0.025
Mof_C 	C 	0.63953	0.09236	0.02688	0.314
Mof_C 	C 	0.71953	0.15096	0.0439	0.048
Mof_N 	N 	0.99103	0.16347	0.18167	-0.083
Mof_N 	N 	0.95493	0.17647	0.11137	-0.113
Mof_O 	O 	0.62902	0.11104	0.99675	-0.395
Mof_O 	O 	0.58826	0.03001	0.04411	-0.398
Mof_C 	C 	0.73463	0.13707	0.07785	-0.253
Mof_H 	H 	0.69643	0.08857	0.08917	0.127
Mof_C 	C 	0.77243	0.15757	0.15247	0.602
Mof_H 	H 	0.72183	0.15637	0.14617	0.451
Mof_C 	C 	0.78543	0.14567	0.18717	0.42
Mof_H 	H 	0.74533	0.13997	0.20437	0.375
Mof_C 	C 	0.91813	0.16477	0.17217	-1.072
Mof_C 	C 	0.90113	0.17427	0.13767	-0.393
Mof_C 	C 	0.05013	0.18167	0.15587	0.032
Mof_H 	H 	0.10603	0.19657	0.16197	0.015
Mof_C 	C 	0.02643	0.17747	0.12107	0.059
Mof_H 	H 	0.06153	0.17517	0.10337	0.025
Mof_C 	C 	0.11949	0.6938	0.36021	0.314
Mof_C 	C 	0.09809	0.6138	0.37723	0.048
Mof_N 	N 	0.8391	0.3423	0.515	-0.084
Mof_N 	N 	0.8882	0.3784	0.4447	-0.113
Mof_O 	O 	0.14868	0.70431	0.33008	-0.395
Mof_O 	O 	0.10841	0.74507	0.37744	-0.398
Mof_C 	C 	0.0691	0.5987	0.41118	-0.253
Mof_H 	H 	0.0588	0.6369	0.4225	0.127
Mof_C 	C 	0.0518	0.5609	0.4858	0.602
Mof_H 	H 	0.1012	0.6115	0.4795	0.452
Mof_C 	C 	0.0269	0.5479	0.5205	0.421
Mof_H 	H 	0.0613	0.588	0.5377	0.375
Mof_C 	C 	0.9133	0.4152	0.5055	-1.073
Mof_C 	C 	0.9398	0.4322	0.471	-0.394
Mof_C 	C 	0.7982	0.2832	0.4892	0.032
Mof_H 	H 	0.7572	0.2273	0.4953	0.015
Mof_C 	C 	0.8177	0.3069	0.4544	0.06
Mof_H 	H 	0.7803	0.2718	0.4367	0.025
Mof_C 	C 	0.78616	0.02713	0.69354	0.314
Mof_C 	C 	0.76476	0.94713	0.71056	0.048
Mof_N 	N 	0.50577	0.67563	0.84833	-0.084
Mof_N 	N 	0.55487	0.71173	0.77803	-0.113
Mof_O 	O 	0.81535	0.03764	0.66341	-0.395
Mof_O 	O 	0.77508	0.0784	0.71077	-0.398
Mof_C 	C 	0.73577	0.93203	0.74451	-0.253
Mof_H 	H 	0.72547	0.97023	0.75583	0.127
Mof_C 	C 	0.71847	0.89423	0.81913	0.602
Mof_H 	H 	0.76787	0.94483	0.81283	0.451
Mof_C 	C 	0.69357	0.88123	0.85383	0.42
Mof_H 	H 	0.72797	0.92133	0.87103	0.375
Mof_C 	C 	0.57997	0.74853	0.83883	-1.072
Mof_C 	C 	0.60647	0.76553	0.80433	-0.393
Mof_C 	C 	0.46487	0.61653	0.82253	0.032
Mof_H 	H 	0.42387	0.56063	0.82863	0.015
Mof_C 	C 	0.48437	0.64023	0.78773	0.06
Mof_H 	H 	0.44697	0.60513	0.77003	0.025
Mof_C 	C 	0.45282	0.36047	0.02688	0.314
Mof_C 	C 	0.43142	0.28047	0.0439	0.048
Mof_N 	N 	0.17243	0.00897	0.18167	-0.083
Mof_N 	N 	0.22153	0.04507	0.11137	-0.113
Mof_O 	O 	0.48201	0.37098	0.99675	-0.395
Mof_O 	O 	0.44174	0.41174	0.04411	-0.398
Mof_C 	C 	0.40243	0.26537	0.07785	-0.253
Mof_H 	H 	0.39213	0.30357	0.08917	0.127
Mof_C 	C 	0.38513	0.22757	0.15247	0.602
Mof_H 	H 	0.43453	0.27817	0.14617	0.451
Mof_C 	C 	0.36023	0.21457	0.18717	0.42
Mof_H 	H 	0.39463	0.25467	0.20437	0.375
Mof_C 	C 	0.24663	0.08187	0.17217	-1.072
Mof_C 	C 	0.27313	0.09887	0.13767	-0.393
Mof_C 	C 	0.13153	0.94987	0.15587	0.031
Mof_H 	H 	0.09053	0.89397	0.16197	0.015
Mof_C 	C 	0.15103	0.97357	0.12107	0.059
Mof_H 	H 	0.11363	0.93847	0.10337	0.025
Mof_C 	C 	0.57431	0.88051	0.36021	0.314
Mof_C 	C 	0.51571	0.90191	0.37723	0.048
Mof_N 	N 	0.5032	0.1609	0.515	-0.084
Mof_N 	N 	0.4902	0.1118	0.4447	-0.113
Mof_O 	O 	0.55563	0.85132	0.33008	-0.395
Mof_O 	O 	0.63666	0.89159	0.37744	-0.398
Mof_C 	C 	0.5296	0.9309	0.41118	-0.253
Mof_H 	H 	0.5781	0.9412	0.4225	0.127
Mof_C 	C 	0.5091	0.9482	0.4858	0.602
Mof_H 	H 	0.5103	0.8988	0.4795	0.452
Mof_C 	C 	0.521	0.9731	0.5205	0.421
Mof_H 	H 	0.5267	0.9387	0.5377	0.375
Mof_C 	C 	0.5019	0.0867	0.5055	-1.073
Mof_C 	C 	0.4924	0.0602	0.471	-0.394
Mof_C 	C 	0.485	0.2018	0.4892	0.032
Mof_H 	H 	0.4701	0.2428	0.4953	0.015
Mof_C 	C 	0.4892	0.1823	0.4544	0.06
Mof_H 	H 	0.4915	0.2197	0.4367	0.025
Mof_C 	C 	0.24098	0.21384	0.69354	0.314
Mof_C 	C 	0.18238	0.23524	0.71056	0.048
Mof_N 	N 	0.16987	0.49423	0.84833	-0.084
Mof_N 	N 	0.15687	0.44513	0.77803	-0.113
Mof_O 	O 	0.2223	0.18465	0.66341	-0.395
Mof_O 	O 	0.30333	0.22492	0.71077	-0.398
Mof_C 	C 	0.19627	0.26423	0.74451	-0.253
Mof_H 	H 	0.24477	0.27453	0.75583	0.127
Mof_C 	C 	0.17577	0.28153	0.81913	0.602
Mof_H 	H 	0.17697	0.23213	0.81283	0.451
Mof_C 	C 	0.18767	0.30643	0.85383	0.42
Mof_H 	H 	0.19337	0.27203	0.87103	0.375
Mof_C 	C 	0.16857	0.42003	0.83883	-1.072
Mof_C 	C 	0.15907	0.39353	0.80433	-0.393
Mof_C 	C 	0.15167	0.53513	0.82253	0.032
Mof_H 	H 	0.13677	0.57613	0.82863	0.015
Mof_C 	C 	0.15587	0.51563	0.78773	0.06
Mof_H 	H 	0.15817	0.55303	0.77003	0.025
Mof_C 	C 	0.90764	0.54718	0.02688	0.314
Mof_C 	C 	0.84904	0.56858	0.0439	0.048
Mof_N 	N 	0.83653	0.82757	0.18167	-0.084
Mof_N 	N 	0.82353	0.77847	0.11137	-0.113
Mof_O 	O 	0.88896	0.51799	0.99675	-0.395
Mof_O 	O 	0.96999	0.55826	0.04411	-0.398
Mof_C 	C 	0.86293	0.59757	0.07785	-0.253
Mof_H 	H 	0.91143	0.60787	0.08917	0.127
Mof_C 	C 	0.84243	0.61487	0.15247	0.602
Mof_H 	H 	0.84363	0.56547	0.14617	0.451
Mof_C 	C 	0.85433	0.63977	0.18717	0.42
Mof_H 	H 	0.86003	0.60537	0.20437	0.375
Mof_C 	C 	0.83523	0.75337	0.17217	-1.072
Mof_C 	C 	0.82573	0.72687	0.13767	-0.393
Mof_C 	C 	0.81833	0.86847	0.15587	0.032
Mof_H 	H 	0.80343	0.90947	0.16197	0.015
Mof_C 	C 	0.82253	0.84897	0.12107	0.06
Mof_H 	H 	0.82483	0.88637	0.10337	0.025
Mof_C 	C 	0.44409	0.55591	0.36071	-0.092
Mof_H 	H 	0.4346	0.5654	0.3379	0.093
Mof_C 	C 	0.4723	0.5277	0.42826	0.372
Mof_C 	C 	0.4962	0.5038	0.4608	-0.981
Mof_C 	C 	0.5227	0.4773	0.5307	0.179
Mof_C 	C 	0.11076	0.88924	0.69404	-0.092
Mof_H 	H 	0.10127	0.89873	0.67123	0.093
Mof_C 	C 	0.13897	0.86103	0.76159	0.373
Mof_C 	C 	0.16287	0.83713	0.79413	-0.981
Mof_C 	C 	0.18937	0.81063	0.86403	0.179
Mof_C 	C 	0.77742	0.22258	0.02738	-0.092
Mof_H 	H 	0.76793	0.23207	0.00457	0.093
Mof_C 	C 	0.80563	0.19437	0.09493	0.372
Mof_C 	C 	0.82953	0.17047	0.12747	-0.981
Mof_C 	C 	0.85603	0.14397	0.19737	0.179
Mof_C 	C 	0.44409	0.88818	0.36071	-0.092
Mof_H 	H 	0.4346	0.8692	0.3379	0.093
Mof_C 	C 	0.4723	0.9446	0.42826	0.373
Mof_C 	C 	0.4962	0.9924	0.4608	-0.982
Mof_C 	C 	0.5227	0.0454	0.5307	0.179
Mof_C 	C 	0.11076	0.22151	0.69404	-0.092
Mof_H 	H 	0.10127	0.20253	0.67123	0.093
Mof_C 	C 	0.13897	0.27793	0.76159	0.373
Mof_C 	C 	0.16287	0.32573	0.79413	-0.981
Mof_C 	C 	0.18937	0.37873	0.86403	0.179
Mof_C 	C 	0.77742	0.55485	0.02738	-0.092
Mof_H 	H 	0.76793	0.53587	0.00457	0.093
Mof_C 	C 	0.80563	0.61127	0.09493	0.372
Mof_C 	C 	0.82953	0.65907	0.12747	-0.981
Mof_C 	C 	0.85603	0.71207	0.19737	0.179
Mof_C 	C 	0.11182	0.55591	0.36071	-0.092
Mof_H 	H 	0.1308	0.5654	0.3379	0.093
Mof_C 	C 	0.0554	0.5277	0.42826	0.373
Mof_C 	C 	0.0076	0.5038	0.4608	-0.982
Mof_C 	C 	0.9546	0.4773	0.5307	0.179
Mof_C 	C 	0.77849	0.88924	0.69404	-0.092
Mof_H 	H 	0.79747	0.89873	0.67123	0.093
Mof_C 	C 	0.72207	0.86103	0.76159	0.373
Mof_C 	C 	0.67427	0.83713	0.79413	-0.981
Mof_C 	C 	0.62127	0.81063	0.86403	0.179
Mof_C 	C 	0.44515	0.22258	0.02738	-0.092
Mof_H 	H 	0.46413	0.23207	0.00457	0.093
Mof_C 	C 	0.38873	0.19437	0.09493	0.372
Mof_C 	C 	0.34093	0.17047	0.12747	-0.981
Mof_C 	C 	0.28793	0.14397	0.19737	0.179
Mof_C 	C 	0.55591	0.44409	0.63929	-0.092
Mof_H 	H 	0.5654	0.4346	0.6621	0.093
Mof_C 	C 	0.5277	0.4723	0.57174	0.372
Mof_C 	C 	0.5038	0.4962	0.5392	-0.981
Mof_C 	C 	0.4773	0.5227	0.4693	0.179
Mof_C 	C 	0.22258	0.77742	0.97262	-0.092
Mof_H 	H 	0.23207	0.76793	0.99543	0.093
Mof_C 	C 	0.19437	0.80563	0.90507	0.372
Mof_C 	C 	0.17047	0.82953	0.87253	-0.981
Mof_C 	C 	0.14397	0.85603	0.80263	0.179
Mof_C 	C 	0.88924	0.11076	0.30596	-0.092
Mof_H 	H 	0.89873	0.10127	0.32877	0.093
Mof_C 	C 	0.86103	0.13897	0.23841	0.373
Mof_C 	C 	0.83713	0.16287	0.20587	-0.981
Mof_C 	C 	0.81063	0.18937	0.13597	0.179
Mof_C 	C 	0.88818	0.44409	0.63929	-0.092
Mof_H 	H 	0.8692	0.4346	0.6621	0.093
Mof_C 	C 	0.9446	0.4723	0.57174	0.373
Mof_C 	C 	0.9924	0.4962	0.5392	-0.982
Mof_C 	C 	0.0454	0.5227	0.4693	0.179
Mof_C 	C 	0.55485	0.77742	0.97262	-0.092
Mof_H 	H 	0.53587	0.76793	0.99543	0.093
Mof_C 	C 	0.61127	0.80563	0.90507	0.372
Mof_C 	C 	0.65907	0.82953	0.87253	-0.981
Mof_C 	C 	0.71207	0.85603	0.80263	0.179
Mof_C 	C 	0.22151	0.11076	0.30596	-0.092
Mof_H 	H 	0.20253	0.10127	0.32877	0.093
Mof_C 	C 	0.27793	0.13897	0.23841	0.373
Mof_C 	C 	0.32573	0.16287	0.20587	-0.981
Mof_C 	C 	0.37873	0.18937	0.13597	0.179
Mof_C 	C 	0.55591	0.11182	0.63929	-0.092
Mof_H 	H 	0.5654	0.1308	0.6621	0.093
Mof_C 	C 	0.5277	0.0554	0.57174	0.373
Mof_C 	C 	0.5038	0.0076	0.5392	-0.982
Mof_C 	C 	0.4773	0.9546	0.4693	0.179
Mof_C 	C 	0.22258	0.44515	0.97262	-0.092
Mof_H 	H 	0.23207	0.46413	0.99543	0.093
Mof_C 	C 	0.19437	0.38873	0.90507	0.372
Mof_C 	C 	0.17047	0.34093	0.87253	-0.981
Mof_C 	C 	0.14397	0.28793	0.80263	0.179
Mof_C 	C 	0.88924	0.77849	0.30596	-0.092
Mof_H 	H 	0.89873	0.79747	0.32877	0.093
Mof_C 	C 	0.86103	0.72207	0.23841	0.373
Mof_C 	C 	0.83713	0.67427	0.20587	-0.981
Mof_C 	C 	0.81063	0.62127	0.13597	0.179
Mof_Cu	Cu	0.71442	0.85721	0.36145	0.905
Mof_Cu	Cu	0.38109	0.19054	0.69479	0.905
Mof_Cu	Cu	0.04775	0.52388	0.02812	0.905
Mof_Cu	Cu	0.14279	0.85721	0.36145	0.905
Mof_Cu	Cu	0.80946	0.19054	0.69479	0.905
Mof_Cu	Cu	0.47612	0.52388	0.02812	0.905
Mof_Cu	Cu	0.14279	0.28558	0.36145	0.905
Mof_Cu	Cu	0.80946	0.61891	0.69479	0.905
Mof_Cu	Cu	0.47612	0.95225	0.02812	0.905
Mof_Cu	Cu	0.85721	0.71442	0.63855	0.905
Mof_Cu	Cu	0.52388	0.04775	0.97188	0.905
Mof_Cu	Cu	0.19054	0.38109	0.30521	0.905
Mof_Cu	Cu	0.85721	0.14279	0.63855	0.905
Mof_Cu	Cu	0.52388	0.47612	0.97188	0.905
Mof_Cu	Cu	0.19054	0.80946	0.30521	0.905
Mof_Cu	Cu	0.28558	0.14279	0.63855	0.905
Mof_Cu	Cu	0.95225	0.47612	0.97188	0.905
Mof_Cu	Cu	0.61891	0.80946	0.30521	0.905
_end
