data_functionalizedCrystal
_audit_creation_method	'EQeq! by Chris Wilmer'
_symmetry_space_group_name_H-M	'P1'
_symmetry_Int_Tables_number	1
_symmetry_cell_setting	triclinic
loop_
_symmetry_equiv_pos_as_xyz
  x,y,z
_cell_length_a	27.7056
_cell_length_b	23.395
_cell_length_c	21.0709
_cell_angle_alpha	90
_cell_angle_beta	113.911
_cell_angle_gamma	90
loop_
_atom_site_label
_atom_site_type_symbol
_atom_site_fract_x
_atom_site_fract_y
_atom_site_fract_z
_atom_site_charge
Mof_C 	C 	0.58963	0.2731	0.09724	0.321
Mof_C 	C 	0.5483	0.31047	0.84637	0.5
Mof_C 	C 	0.36007	0.28862	0.67741	0.31
Mof_C 	C 	0.26918	0.30038	0.58906	-0.019
Mof_H 	H 	0.2534	0.2748	0.616	0.059
Mof_C 	C 	0.82786	0.41941	0.977	0.345
Mof_C 	C 	0.862	0.28282	0.17485	0.304
Mof_C 	C 	0.75416	0.36707	0.99251	-0.019
Mof_H 	H 	0.7308	0.3847	0.9522	0.066
Mof_C 	C 	0.64012	0.32227	0.93855	0.038
Mof_H 	H 	0.6511	0.3321	0.9037	0.041
Mof_C 	C 	0.58713	0.31003	0.92108	-0.163
Mof_C 	C 	0.32181	0.31487	0.61151	-0.06
Mof_C 	C 	0.31557	0.41708	0.47	0.328
Mof_C 	C 	0.84313	0.35143	0.07556	0.007
Mof_H 	H 	0.8791	0.3592	0.0921	0.054
Mof_C 	C 	0.73443	0.33033	0.02821	0.018
Mof_C 	C 	0.659	0.30682	0.05859	-0.004
Mof_H 	H 	0.6823	0.308	0.1051	0.056
Mof_C 	C 	0.60654	0.29188	0.04153	-0.097
Mof_C 	C 	0.23051	0.32442	0.52878	0.017
Mof_C 	C 	0.17405	0.31036	0.5081	-0.01
Mof_C 	C 	0.08877	0.2589	0.5975	0.322
Mof_C 	C 	0.0687	0.27804	0.47255	0.051
Mof_H 	H 	0.0341	0.266	0.4606	0.029
Mof_C 	C 	0.13741	0.31108	0.4386	0.016
Mof_H 	H 	0.1483	0.322	0.404	0.047
Mof_C 	C 	0.67749	0.32009	0.00766	-0.028
Mof_C 	C 	0.80842	0.37813	0.01581	-0.076
Mof_C 	C 	0.10444	0.27863	0.54176	-0.084
Mof_C 	C 	0.77197	0.30315	0.08717	-0.045
Mof_H 	H 	0.7602	0.2771	0.111	0.072
Mof_C 	C 	0.57068	0.29294	0.97266	0.072
Mof_H 	H 	0.5358	0.2823	0.9609	0.027
Mof_C 	C 	0.08537	0.29585	0.42081	-0.15
Mof_C 	C 	0.15602	0.2957	0.55843	-0.013
Mof_H 	H 	0.1793	0.2975	0.6049	0.058
Mof_C 	C 	0.33807	0.35304	0.573	0.007
Mof_H 	H 	0.3735	0.363	0.588	0.048
Mof_C 	C 	0.30094	0.37583	0.51235	-0.064
Mof_C 	C 	0.24755	0.36148	0.49027	-0.038
Mof_H 	H 	0.223	0.3769	0.4492	0.072
Mof_C 	C 	0.04661	0.29517	0.3454	0.504
Mof_C 	C 	0.9067	0.6135	0.8498	0.885
Mof_H 	H 	0.9431	0.6105	0.8747	-0.275
Mof_C 	C 	0.8838	0.1069	0.3309	0.758
Mof_H 	H 	0.918	0.1011	0.3638	-0.271
Mof_O 	O 	0.50101	0.29831	0.83191	-0.543
Mof_O 	O 	0.55112	0.23942	0.08306	-0.395
Mof_O 	O 	0.84466	0.24418	0.20041	-0.37
Mof_O 	O 	0.05404	0.2215	0.58593	-0.401
Mof_O 	O 	0.34667	0.24696	0.70362	-0.368
Mof_O 	O 	0.89412	0.65567	0.81052	-0.605
Mof_O 	O 	0.91048	0.2975	0.20226	-0.394
Mof_O 	O 	0.06272	0.30956	0.30015	-0.516
Mof_O 	O 	0.56537	0.32327	0.80164	-0.524
Mof_O 	O 	0.11211	0.28055	0.65775	-0.4
Mof_O 	O 	0.61503	0.29024	0.15925	-0.392
Mof_O 	O 	0.87597	0.43361	0.00276	-0.445
Mof_O 	O 	0.79734	0.43941	0.92086	-0.406
Mof_O 	O 	0.40709	0.30838	0.70617	-0.401
Mof_O 	O 	0.00061	0.27966	0.33227	-0.561
Mof_O 	O 	0.87769	0.1497	0.29465	-0.574
Mof_O 	O 	0.36311	0.43222	0.48725	-0.428
Mof_O 	O 	0.8521	0.07125	0.33014	-0.598
Mof_O 	O 	0.88387	0.57701	0.86259	-0.673
Mof_C 	C 	0.82474	0.31332	0.11081	-0.052
Mof_O 	O 	0.28115	0.43805	0.41688	-0.391
Mof_Tm	Tm	0.43408	0.23553	0.79378	1.87
Mof_Tm	Tm	0.93025	0.22295	0.28999	1.872
Mof_C 	C 	0.08963	0.7731	0.09724	0.321
Mof_C 	C 	0.0483	0.81047	0.84637	0.503
Mof_C 	C 	0.86007	0.78862	0.67741	0.307
Mof_C 	C 	0.76918	0.80038	0.58906	-0.023
Mof_H 	H 	0.7534	0.7748	0.616	0.06
Mof_C 	C 	0.32786	0.91941	0.977	0.333
Mof_C 	C 	0.362	0.78282	0.17485	0.303
Mof_C 	C 	0.25416	0.86707	0.99251	-0.023
Mof_H 	H 	0.2308	0.8847	0.9522	0.077
Mof_C 	C 	0.14012	0.82227	0.93855	0.041
Mof_H 	H 	0.1511	0.8321	0.9037	0.043
Mof_C 	C 	0.08713	0.81003	0.92108	-0.161
Mof_C 	C 	0.82181	0.81487	0.61151	-0.05
Mof_C 	C 	0.81557	0.91708	0.47	0.313
Mof_C 	C 	0.34313	0.85143	0.07556	0.001
Mof_H 	H 	0.3791	0.8592	0.0921	0.06
Mof_C 	C 	0.23443	0.83033	0.02821	0.026
Mof_C 	C 	0.159	0.80682	0.05859	-0.001
Mof_H 	H 	0.1823	0.808	0.1051	0.059
Mof_C 	C 	0.10654	0.79188	0.04153	-0.095
Mof_C 	C 	0.73051	0.82442	0.52878	0.026
Mof_C 	C 	0.67405	0.81036	0.5081	-0.006
Mof_C 	C 	0.58877	0.7589	0.5975	0.322
Mof_C 	C 	0.5687	0.77804	0.47255	0.051
Mof_H 	H 	0.5341	0.766	0.4606	0.034
Mof_C 	C 	0.63741	0.81108	0.4386	0.017
Mof_H 	H 	0.6483	0.822	0.404	0.051
Mof_C 	C 	0.17749	0.82009	0.00766	-0.027
Mof_C 	C 	0.30842	0.87813	0.01581	-0.06
Mof_C 	C 	0.60444	0.77863	0.54176	-0.077
Mof_C 	C 	0.27197	0.80315	0.08717	-0.047
Mof_H 	H 	0.2602	0.7771	0.111	0.074
Mof_C 	C 	0.07068	0.79294	0.97266	0.076
Mof_H 	H 	0.0358	0.7823	0.9609	0.025
Mof_C 	C 	0.58537	0.79585	0.42081	-0.142
Mof_C 	C 	0.65602	0.7957	0.55843	-0.013
Mof_H 	H 	0.6793	0.7975	0.6049	0.062
Mof_C 	C 	0.83807	0.85304	0.573	-0.001
Mof_H 	H 	0.8735	0.863	0.588	0.059
Mof_C 	C 	0.80094	0.87583	0.51235	-0.043
Mof_C 	C 	0.74755	0.86148	0.49027	-0.044
Mof_H 	H 	0.723	0.8769	0.4492	0.085
Mof_C 	C 	0.54661	0.79517	0.3454	0.505
Mof_C 	C 	0.4067	0.1135	0.8498	0.864
Mof_H 	H 	0.4431	0.1105	0.8747	-0.272
Mof_C 	C 	0.3838	0.6069	0.3309	0.775
Mof_H 	H 	0.418	0.6011	0.3638	-0.272
Mof_O 	O 	0.00101	0.79831	0.83191	-0.545
Mof_O 	O 	0.05112	0.73942	0.08306	-0.398
Mof_O 	O 	0.34466	0.74418	0.20041	-0.368
Mof_O 	O 	0.55404	0.7215	0.58593	-0.397
Mof_O 	O 	0.84667	0.74696	0.70362	-0.366
Mof_O 	O 	0.39412	0.15567	0.81052	-0.6
Mof_O 	O 	0.41048	0.7975	0.20226	-0.39
Mof_O 	O 	0.56272	0.80956	0.30015	-0.508
Mof_O 	O 	0.06537	0.82327	0.80164	-0.519
Mof_O 	O 	0.61211	0.78055	0.65775	-0.394
Mof_O 	O 	0.11503	0.79024	0.15925	-0.387
Mof_O 	O 	0.37597	0.93361	0.00276	-0.39
Mof_O 	O 	0.29734	0.93941	0.92086	-0.347
Mof_O 	O 	0.90709	0.80838	0.70617	-0.392
Mof_O 	O 	0.50061	0.77966	0.33227	-0.551
Mof_O 	O 	0.37769	0.6497	0.29465	-0.576
Mof_O 	O 	0.86311	0.93222	0.48725	-0.372
Mof_O 	O 	0.3521	0.57125	0.33014	-0.613
Mof_O 	O 	0.38387	0.07701	0.86259	-0.654
Mof_C 	C 	0.32474	0.81332	0.11081	-0.044
Mof_O 	O 	0.78115	0.93805	0.41688	-0.329
Mof_Tm	Tm	0.93408	0.73553	0.79378	1.886
Mof_Tm	Tm	0.43025	0.72295	0.28999	1.87
Mof_C 	C 	0.41037	0.2731	0.90276	0.309
Mof_C 	C 	0.4517	0.31047	0.15363	0.49
Mof_C 	C 	0.63993	0.28862	0.32259	0.309
Mof_C 	C 	0.73082	0.30038	0.41094	-0.019
Mof_H 	H 	0.7466	0.2748	0.384	0.058
Mof_C 	C 	0.17214	0.41941	0.023	0.287
Mof_C 	C 	0.138	0.28282	0.82515	0.294
Mof_C 	C 	0.24584	0.36707	0.00749	-0.098
Mof_H 	H 	0.2692	0.3847	0.0478	0.088
Mof_C 	C 	0.35988	0.32227	0.06145	0.003
Mof_H 	H 	0.3489	0.3321	0.0963	0.048
Mof_C 	C 	0.41287	0.31003	0.07892	-0.142
Mof_C 	C 	0.67819	0.31487	0.38849	-0.062
Mof_C 	C 	0.68443	0.41708	0.53	0.327
Mof_C 	C 	0.15687	0.35143	0.92444	-0.035
Mof_H 	H 	0.1209	0.3592	0.9079	0.066
Mof_C 	C 	0.26557	0.33033	0.97179	0.06
Mof_C 	C 	0.341	0.30682	0.94141	-0.021
Mof_H 	H 	0.3177	0.308	0.8949	0.062
Mof_C 	C 	0.39346	0.29188	0.95847	-0.06
Mof_C 	C 	0.76949	0.32442	0.47122	0.016
Mof_C 	C 	0.82595	0.31036	0.4919	-0.008
Mof_C 	C 	0.91123	0.2589	0.4025	0.322
Mof_C 	C 	0.9313	0.27804	0.52745	0.048
Mof_H 	H 	0.9659	0.266	0.5394	0.035
Mof_C 	C 	0.86259	0.31108	0.5614	0.014
Mof_H 	H 	0.8517	0.322	0.596	0.048
Mof_C 	C 	0.32251	0.32009	0.99234	-0.008
Mof_C 	C 	0.19158	0.37813	0.98419	-0.004
Mof_C 	C 	0.89556	0.27863	0.45824	-0.08
Mof_C 	C 	0.22803	0.30315	0.91283	-0.072
Mof_H 	H 	0.2398	0.2771	0.889	0.081
Mof_C 	C 	0.42932	0.29294	0.02734	0.029
Mof_H 	H 	0.4642	0.2823	0.0391	0.037
Mof_C 	C 	0.91463	0.29585	0.57919	-0.145
Mof_C 	C 	0.84398	0.2957	0.44157	-0.015
Mof_H 	H 	0.8207	0.2975	0.3951	0.059
Mof_C 	C 	0.66193	0.35304	0.427	0.008
Mof_H 	H 	0.6265	0.363	0.412	0.048
Mof_C 	C 	0.69906	0.37583	0.48765	-0.065
Mof_C 	C 	0.75245	0.36148	0.50973	-0.037
Mof_H 	H 	0.777	0.3769	0.5508	0.072
Mof_C 	C 	0.95339	0.29517	0.6546	0.501
Mof_C 	C 	0.0933	0.6135	0.1502	0.882
Mof_H 	H 	0.0569	0.6105	0.1253	-0.278
Mof_C 	C 	0.1162	0.1069	0.6691	0.757
Mof_H 	H 	0.082	0.1011	0.6362	-0.273
Mof_O 	O 	0.49899	0.29831	0.16809	-0.541
Mof_O 	O 	0.44888	0.23942	0.91694	-0.387
Mof_O 	O 	0.15534	0.24418	0.79959	-0.365
Mof_O 	O 	0.94596	0.2215	0.41407	-0.396
Mof_O 	O 	0.65333	0.24696	0.29638	-0.367
Mof_O 	O 	0.10588	0.65567	0.18948	-0.603
Mof_O 	O 	0.08952	0.2975	0.79774	-0.395
Mof_O 	O 	0.93728	0.30956	0.69985	-0.514
Mof_O 	O 	0.43463	0.32327	0.19836	-0.523
Mof_O 	O 	0.88789	0.28055	0.34225	-0.399
Mof_O 	O 	0.38497	0.29024	0.84075	-0.389
Mof_O 	O 	0.12403	0.43361	0.99724	-0.417
Mof_O 	O 	0.20266	0.43941	0.07914	-0.393
Mof_O 	O 	0.59291	0.30838	0.29383	-0.401
Mof_O 	O 	0.99939	0.27966	0.66773	-0.548
Mof_O 	O 	0.12231	0.1497	0.70535	-0.572
Mof_O 	O 	0.63689	0.43222	0.51275	-0.428
Mof_O 	O 	0.1479	0.07125	0.66986	-0.597
Mof_O 	O 	0.11613	0.57701	0.13741	-0.673
Mof_C 	C 	0.17526	0.31332	0.88919	-0.024
Mof_O 	O 	0.71885	0.43805	0.58312	-0.391
Mof_Tm	Tm	0.56592	0.23553	0.20622	1.868
Mof_Tm	Tm	0.06975	0.22295	0.71001	1.853
Mof_C 	C 	0.91037	0.7731	0.90276	0.311
Mof_C 	C 	0.9517	0.81047	0.15363	0.492
Mof_C 	C 	0.13993	0.78862	0.32259	0.308
Mof_C 	C 	0.23082	0.80038	0.41094	-0.022
Mof_H 	H 	0.2466	0.7748	0.384	0.06
Mof_C 	C 	0.67214	0.91941	0.023	0.28
Mof_C 	C 	0.638	0.78282	0.82515	0.293
Mof_C 	C 	0.74584	0.86707	0.00749	-0.097
Mof_H 	H 	0.7692	0.8847	0.0478	0.099
Mof_C 	C 	0.85988	0.82227	0.06145	0.009
Mof_H 	H 	0.8489	0.8321	0.0963	0.052
Mof_C 	C 	0.91287	0.81003	0.07892	-0.136
Mof_C 	C 	0.17819	0.81487	0.38849	-0.052
Mof_C 	C 	0.18443	0.91708	0.53	0.314
Mof_C 	C 	0.65687	0.85143	0.92444	-0.039
Mof_H 	H 	0.6209	0.8592	0.9079	0.076
Mof_C 	C 	0.76557	0.83033	0.97179	0.065
Mof_C 	C 	0.841	0.80682	0.94141	-0.018
Mof_H 	H 	0.8177	0.808	0.8949	0.066
Mof_C 	C 	0.89346	0.79188	0.95847	-0.059
Mof_C 	C 	0.26949	0.82442	0.47122	0.025
Mof_C 	C 	0.32595	0.81036	0.4919	-0.006
Mof_C 	C 	0.41123	0.7589	0.4025	0.322
Mof_C 	C 	0.4313	0.77804	0.52745	0.051
Mof_H 	H 	0.4659	0.766	0.5394	0.034
Mof_C 	C 	0.36259	0.81108	0.5614	0.017
Mof_H 	H 	0.3517	0.822	0.596	0.052
Mof_C 	C 	0.82251	0.82009	0.99234	-0.008
Mof_C 	C 	0.69158	0.87813	0.98419	0.009
Mof_C 	C 	0.39556	0.77863	0.45824	-0.077
Mof_C 	C 	0.72803	0.80315	0.91283	-0.074
Mof_H 	H 	0.7398	0.7771	0.889	0.083
Mof_C 	C 	0.92932	0.79294	0.02734	0.033
Mof_H 	H 	0.9642	0.7823	0.0391	0.041
Mof_C 	C 	0.41463	0.79585	0.57919	-0.142
Mof_C 	C 	0.34398	0.7957	0.44157	-0.013
Mof_H 	H 	0.3207	0.7975	0.3951	0.062
Mof_C 	C 	0.16193	0.85304	0.427	0.001
Mof_H 	H 	0.1265	0.863	0.412	0.057
Mof_C 	C 	0.19906	0.87583	0.48765	-0.045
Mof_C 	C 	0.25245	0.86148	0.50973	-0.043
Mof_H 	H 	0.277	0.8769	0.5508	0.084
Mof_C 	C 	0.45339	0.79517	0.6546	0.505
Mof_C 	C 	0.5933	0.1135	0.1502	0.861
Mof_H 	H 	0.5569	0.1105	0.1253	-0.273
Mof_C 	C 	0.6162	0.6069	0.6691	0.775
Mof_H 	H 	0.582	0.6011	0.6362	-0.272
Mof_O 	O 	0.99899	0.79831	0.16809	-0.53
Mof_O 	O 	0.94888	0.73942	0.91694	-0.385
Mof_O 	O 	0.65534	0.74418	0.79959	-0.365
Mof_O 	O 	0.44596	0.7215	0.41407	-0.397
Mof_O 	O 	0.15333	0.74696	0.29638	-0.365
Mof_O 	O 	0.60588	0.15567	0.18948	-0.6
Mof_O 	O 	0.58952	0.7975	0.79774	-0.388
Mof_O 	O 	0.43728	0.80956	0.69985	-0.509
Mof_O 	O 	0.93463	0.82327	0.19836	-0.515
Mof_O 	O 	0.38789	0.78055	0.34225	-0.394
Mof_O 	O 	0.88497	0.79024	0.84075	-0.383
Mof_O 	O 	0.62403	0.93361	0.99724	-0.361
Mof_O 	O 	0.70266	0.93941	0.07914	-0.334
Mof_O 	O 	0.09291	0.80838	0.29383	-0.396
Mof_O 	O 	0.49939	0.77966	0.66773	-0.551
Mof_O 	O 	0.62231	0.6497	0.70535	-0.575
Mof_O 	O 	0.13689	0.93222	0.51275	-0.374
Mof_O 	O 	0.6479	0.57125	0.66986	-0.613
Mof_O 	O 	0.61613	0.07701	0.13741	-0.653
Mof_C 	C 	0.67526	0.81332	0.88919	-0.016
Mof_O 	O 	0.21885	0.93805	0.58312	-0.329
Mof_Tm	Tm	0.06592	0.73553	0.20622	1.864
Mof_Tm	Tm	0.56975	0.72295	0.71001	1.871
Mof_C 	C 	0.41037	0.7269	0.90276	0.309
Mof_C 	C 	0.4517	0.68953	0.15363	0.491
Mof_C 	C 	0.63993	0.71138	0.32259	0.308
Mof_C 	C 	0.73082	0.69962	0.41094	-0.02
Mof_H 	H 	0.7466	0.7252	0.384	0.058
Mof_C 	C 	0.17214	0.58059	0.023	0.288
Mof_C 	C 	0.138	0.71718	0.82515	0.293
Mof_C 	C 	0.24584	0.63293	0.00749	-0.097
Mof_H 	H 	0.2692	0.6153	0.0478	0.088
Mof_C 	C 	0.35988	0.67773	0.06145	0.004
Mof_H 	H 	0.3489	0.6679	0.0963	0.047
Mof_C 	C 	0.41287	0.68997	0.07892	-0.142
Mof_C 	C 	0.67819	0.68513	0.38849	-0.061
Mof_C 	C 	0.68443	0.58292	0.53	0.327
Mof_C 	C 	0.15687	0.64857	0.92444	-0.035
Mof_H 	H 	0.1209	0.6408	0.9079	0.066
Mof_C 	C 	0.26557	0.66967	0.97179	0.059
Mof_C 	C 	0.341	0.69318	0.94141	-0.021
Mof_H 	H 	0.3177	0.692	0.8949	0.062
Mof_C 	C 	0.39346	0.70812	0.95847	-0.061
Mof_C 	C 	0.76949	0.67558	0.47122	0.016
Mof_C 	C 	0.82595	0.68964	0.4919	-0.008
Mof_C 	C 	0.91123	0.7411	0.4025	0.32
Mof_C 	C 	0.9313	0.72196	0.52745	0.048
Mof_H 	H 	0.9659	0.734	0.5394	0.036
Mof_C 	C 	0.86259	0.68892	0.5614	0.013
Mof_H 	H 	0.8517	0.678	0.596	0.048
Mof_C 	C 	0.32251	0.67991	0.99234	-0.01
Mof_C 	C 	0.19158	0.62187	0.98419	-0.005
Mof_C 	C 	0.89556	0.72137	0.45824	-0.078
Mof_C 	C 	0.22803	0.69685	0.91283	-0.073
Mof_H 	H 	0.2398	0.7229	0.889	0.082
Mof_C 	C 	0.42932	0.70706	0.02734	0.03
Mof_H 	H 	0.4642	0.7177	0.0391	0.037
Mof_C 	C 	0.91463	0.70415	0.57919	-0.145
Mof_C 	C 	0.84398	0.7043	0.44157	-0.016
Mof_H 	H 	0.8207	0.7025	0.3951	0.06
Mof_C 	C 	0.66193	0.64696	0.427	0.007
Mof_H 	H 	0.6265	0.637	0.412	0.047
Mof_C 	C 	0.69906	0.62417	0.48765	-0.065
Mof_C 	C 	0.75245	0.63852	0.50973	-0.037
Mof_H 	H 	0.777	0.6231	0.5508	0.072
Mof_C 	C 	0.95339	0.70483	0.6546	0.503
Mof_C 	C 	0.0933	0.3865	0.1502	0.881
Mof_H 	H 	0.0569	0.3895	0.1253	-0.278
Mof_C 	C 	0.1162	0.8931	0.6691	0.736
Mof_H 	H 	0.082	0.8989	0.6362	-0.242
Mof_O 	O 	0.49899	0.70169	0.16809	-0.542
Mof_O 	O 	0.44888	0.76058	0.91694	-0.385
Mof_O 	O 	0.15534	0.75582	0.79959	-0.364
Mof_O 	O 	0.94596	0.7785	0.41407	-0.391
Mof_O 	O 	0.65333	0.75304	0.29638	-0.365
Mof_O 	O 	0.10588	0.34433	0.18948	-0.602
Mof_O 	O 	0.08952	0.7025	0.79774	-0.397
Mof_O 	O 	0.93728	0.69044	0.69985	-0.515
Mof_O 	O 	0.43463	0.67673	0.19836	-0.524
Mof_O 	O 	0.88789	0.71945	0.34225	-0.4
Mof_O 	O 	0.38497	0.70976	0.84075	-0.39
Mof_O 	O 	0.12403	0.56639	0.99724	-0.417
Mof_O 	O 	0.20266	0.56059	0.07914	-0.393
Mof_O 	O 	0.59291	0.69162	0.29383	-0.402
Mof_O 	O 	0.99939	0.72034	0.66773	-0.549
Mof_O 	O 	0.12231	0.8503	0.70535	-0.554
Mof_O 	O 	0.63689	0.56778	0.51275	-0.428
Mof_O 	O 	0.1479	0.92875	0.66986	-0.537
Mof_O 	O 	0.11613	0.42299	0.13741	-0.672
Mof_C 	C 	0.17526	0.68668	0.88919	-0.024
Mof_O 	O 	0.71885	0.56195	0.58312	-0.391
Mof_Tm	Tm	0.56592	0.76447	0.20622	1.876
Mof_Tm	Tm	0.06975	0.77705	0.71001	1.864
Mof_C 	C 	0.91037	0.2269	0.90276	0.309
Mof_C 	C 	0.9517	0.18953	0.15363	0.489
Mof_C 	C 	0.13993	0.21138	0.32259	0.309
Mof_C 	C 	0.23082	0.19962	0.41094	-0.019
Mof_H 	H 	0.2466	0.2252	0.384	0.056
Mof_C 	C 	0.67214	0.08059	0.023	0.288
Mof_C 	C 	0.638	0.21718	0.82515	0.294
Mof_C 	C 	0.74584	0.13293	0.00749	-0.092
Mof_H 	H 	0.7692	0.1153	0.0478	0.078
Mof_C 	C 	0.85988	0.17773	0.06145	0.004
Mof_H 	H 	0.8489	0.1679	0.0963	0.045
Mof_C 	C 	0.91287	0.18997	0.07892	-0.147
Mof_C 	C 	0.17819	0.18513	0.38849	-0.069
Mof_C 	C 	0.18443	0.08292	0.53	0.325
Mof_C 	C 	0.65687	0.14857	0.92444	-0.032
Mof_H 	H 	0.6209	0.1408	0.9079	0.06
Mof_C 	C 	0.76557	0.16967	0.97179	0.051
Mof_C 	C 	0.841	0.19318	0.94141	-0.022
Mof_H 	H 	0.8177	0.192	0.8949	0.058
Mof_C 	C 	0.89346	0.20812	0.95847	-0.067
Mof_C 	C 	0.26949	0.17558	0.47122	0.01
Mof_C 	C 	0.32595	0.18964	0.4919	-0.013
Mof_C 	C 	0.41123	0.2411	0.4025	0.321
Mof_C 	C 	0.4313	0.22196	0.52745	0.049
Mof_H 	H 	0.4659	0.234	0.5394	0.03
Mof_C 	C 	0.36259	0.18892	0.5614	0.013
Mof_H 	H 	0.3517	0.178	0.596	0.045
Mof_C 	C 	0.82251	0.17991	0.99234	-0.014
Mof_C 	C 	0.69158	0.12187	0.98419	-0.018
Mof_C 	C 	0.39556	0.22137	0.45824	-0.086
Mof_C 	C 	0.72803	0.19685	0.91283	-0.07
Mof_H 	H 	0.7398	0.2229	0.889	0.079
Mof_C 	C 	0.92932	0.20706	0.02734	0.031
Mof_H 	H 	0.9642	0.2177	0.0391	0.037
Mof_C 	C 	0.41463	0.20415	0.57919	-0.152
Mof_C 	C 	0.34398	0.2043	0.44157	-0.016
Mof_H 	H 	0.3207	0.2025	0.3951	0.055
Mof_C 	C 	0.16193	0.14696	0.427	0.01
Mof_H 	H 	0.1265	0.137	0.412	0.039
Mof_C 	C 	0.19906	0.12417	0.48765	-0.075
Mof_C 	C 	0.25245	0.13852	0.50973	-0.036
Mof_H 	H 	0.277	0.1231	0.5508	0.065
Mof_C 	C 	0.45339	0.20483	0.6546	0.501
Mof_C 	C 	0.5933	0.8865	0.1502	0.838
Mof_H 	H 	0.5569	0.8895	0.1253	-0.244
Mof_C 	C 	0.6162	0.3931	0.6691	0.774
Mof_H 	H 	0.582	0.3989	0.6362	-0.271
Mof_O 	O 	0.99899	0.20169	0.16809	-0.539
Mof_O 	O 	0.94888	0.26058	0.91694	-0.386
Mof_O 	O 	0.65534	0.25582	0.79959	-0.368
Mof_O 	O 	0.44596	0.2785	0.41407	-0.398
Mof_O 	O 	0.15333	0.25304	0.29638	-0.368
Mof_O 	O 	0.60588	0.84433	0.18948	-0.581
Mof_O 	O 	0.58952	0.2025	0.79774	-0.4
Mof_O 	O 	0.43728	0.19044	0.69985	-0.52
Mof_O 	O 	0.93463	0.17673	0.19836	-0.528
Mof_O 	O 	0.38789	0.21945	0.34225	-0.406
Mof_O 	O 	0.88497	0.20976	0.84075	-0.396
Mof_O 	O 	0.62403	0.06639	0.99724	-0.417
Mof_O 	O 	0.70266	0.06059	0.07914	-0.396
Mof_O 	O 	0.09291	0.19162	0.29383	-0.41
Mof_O 	O 	0.49939	0.22034	0.66773	-0.558
Mof_O 	O 	0.62231	0.3503	0.70535	-0.575
Mof_O 	O 	0.13689	0.06778	0.51275	-0.431
Mof_O 	O 	0.6479	0.42875	0.66986	-0.613
Mof_O 	O 	0.61613	0.92299	0.13741	-0.595
Mof_C 	C 	0.67526	0.18668	0.88919	-0.031
Mof_O 	O 	0.21885	0.06195	0.58312	-0.391
Mof_Tm	Tm	0.06592	0.26447	0.20622	1.859
Mof_Tm	Tm	0.56975	0.27705	0.71001	1.867
Mof_C 	C 	0.58963	0.7269	0.09724	0.319
Mof_C 	C 	0.5483	0.68953	0.84637	0.5
Mof_C 	C 	0.36007	0.71138	0.67741	0.307
Mof_C 	C 	0.26918	0.69962	0.58906	-0.02
Mof_H 	H 	0.2534	0.7252	0.616	0.059
Mof_C 	C 	0.82786	0.58059	0.977	0.343
Mof_C 	C 	0.862	0.71718	0.17485	0.302
Mof_C 	C 	0.75416	0.63293	0.99251	-0.022
Mof_H 	H 	0.7308	0.6153	0.9522	0.066
Mof_C 	C 	0.64012	0.67773	0.93855	0.036
Mof_H 	H 	0.6511	0.6679	0.9037	0.039
Mof_C 	C 	0.58713	0.68997	0.92108	-0.163
Mof_C 	C 	0.32181	0.68513	0.61151	-0.061
Mof_C 	C 	0.31557	0.58292	0.47	0.327
Mof_C 	C 	0.84313	0.64857	0.07556	0.005
Mof_H 	H 	0.8791	0.6408	0.0921	0.052
Mof_C 	C 	0.73443	0.66967	0.02821	0.019
Mof_C 	C 	0.659	0.69318	0.05859	-0.005
Mof_H 	H 	0.6823	0.692	0.1051	0.057
Mof_C 	C 	0.60654	0.70812	0.04153	-0.095
Mof_C 	C 	0.23051	0.67558	0.52878	0.016
Mof_C 	C 	0.17405	0.68964	0.5081	-0.01
Mof_C 	C 	0.08877	0.7411	0.5975	0.321
Mof_C 	C 	0.0687	0.72196	0.47255	0.051
Mof_H 	H 	0.0341	0.734	0.4606	0.03
Mof_C 	C 	0.13741	0.68892	0.4386	0.016
Mof_H 	H 	0.1483	0.678	0.404	0.047
Mof_C 	C 	0.67749	0.67991	0.00766	-0.028
Mof_C 	C 	0.80842	0.62187	0.01581	-0.075
Mof_C 	C 	0.10444	0.72137	0.54176	-0.082
Mof_C 	C 	0.77197	0.69685	0.08717	-0.046
Mof_H 	H 	0.7602	0.7229	0.111	0.073
Mof_C 	C 	0.57068	0.70706	0.97266	0.071
Mof_H 	H 	0.5358	0.7177	0.9609	0.027
Mof_C 	C 	0.08537	0.70415	0.42081	-0.15
Mof_C 	C 	0.15602	0.7043	0.55843	-0.014
Mof_H 	H 	0.1793	0.7025	0.6049	0.059
Mof_C 	C 	0.33807	0.64696	0.573	0.007
Mof_H 	H 	0.3735	0.637	0.588	0.048
Mof_C 	C 	0.30094	0.62417	0.51235	-0.064
Mof_C 	C 	0.24755	0.63852	0.49027	-0.038
Mof_H 	H 	0.223	0.6231	0.4492	0.072
Mof_C 	C 	0.04661	0.70483	0.3454	0.505
Mof_C 	C 	0.9067	0.3865	0.8498	0.884
Mof_H 	H 	0.9431	0.3895	0.8747	-0.274
Mof_C 	C 	0.8838	0.8931	0.3309	0.736
Mof_H 	H 	0.918	0.8989	0.3638	-0.24
Mof_O 	O 	0.50101	0.70169	0.83191	-0.543
Mof_O 	O 	0.55112	0.76058	0.08306	-0.392
Mof_O 	O 	0.84466	0.75582	0.20041	-0.368
Mof_O 	O 	0.05404	0.7785	0.58593	-0.397
Mof_O 	O 	0.34667	0.75304	0.70362	-0.365
Mof_O 	O 	0.89412	0.34433	0.81052	-0.604
Mof_O 	O 	0.91048	0.7025	0.20226	-0.396
Mof_O 	O 	0.06272	0.69044	0.30015	-0.517
Mof_O 	O 	0.56537	0.67673	0.80164	-0.526
Mof_O 	O 	0.11211	0.71945	0.65775	-0.4
Mof_O 	O 	0.61503	0.70976	0.15925	-0.393
Mof_O 	O 	0.87597	0.56639	0.00276	-0.445
Mof_O 	O 	0.79734	0.56059	0.92086	-0.406
Mof_O 	O 	0.40709	0.69162	0.70617	-0.402
Mof_O 	O 	0.00061	0.72034	0.33227	-0.562
Mof_O 	O 	0.87769	0.8503	0.29465	-0.556
Mof_O 	O 	0.36311	0.56778	0.48725	-0.428
Mof_O 	O 	0.8521	0.92875	0.33014	-0.536
Mof_O 	O 	0.88387	0.42299	0.86259	-0.673
Mof_C 	C 	0.82474	0.68668	0.11081	-0.051
Mof_O 	O 	0.28115	0.56195	0.41688	-0.391
Mof_Tm	Tm	0.43408	0.76447	0.79378	1.878
Mof_Tm	Tm	0.93025	0.77705	0.28999	1.884
Mof_C 	C 	0.08963	0.2269	0.09724	0.32
Mof_C 	C 	0.0483	0.18953	0.84637	0.5
Mof_C 	C 	0.86007	0.21138	0.67741	0.308
Mof_C 	C 	0.76918	0.19962	0.58906	-0.019
Mof_H 	H 	0.7534	0.2252	0.616	0.056
Mof_C 	C 	0.32786	0.08059	0.977	0.348
Mof_C 	C 	0.362	0.21718	0.17485	0.305
Mof_C 	C 	0.25416	0.13293	0.99251	-0.01
Mof_H 	H 	0.2308	0.1153	0.9522	0.055
Mof_C 	C 	0.14012	0.17773	0.93855	0.039
Mof_H 	H 	0.1511	0.1679	0.9037	0.035
Mof_C 	C 	0.08713	0.18997	0.92108	-0.173
Mof_C 	C 	0.82181	0.18513	0.61151	-0.067
Mof_C 	C 	0.81557	0.08292	0.47	0.325
Mof_C 	C 	0.34313	0.14857	0.07556	0.013
Mof_H 	H 	0.3791	0.1408	0.0921	0.044
Mof_C 	C 	0.23443	0.16967	0.02821	0.008
Mof_C 	C 	0.159	0.19318	0.05859	-0.003
Mof_H 	H 	0.1823	0.192	0.1051	0.051
Mof_C 	C 	0.10654	0.20812	0.04153	-0.106
Mof_C 	C 	0.73051	0.17558	0.52878	0.011
Mof_C 	C 	0.67405	0.18964	0.5081	-0.013
Mof_C 	C 	0.58877	0.2411	0.5975	0.321
Mof_C 	C 	0.5687	0.22196	0.47255	0.049
Mof_H 	H 	0.5341	0.234	0.4606	0.03
Mof_C 	C 	0.63741	0.18892	0.4386	0.013
Mof_H 	H 	0.6483	0.178	0.404	0.045
Mof_C 	C 	0.17749	0.17991	0.00766	-0.034
Mof_C 	C 	0.30842	0.12187	0.01581	-0.095
Mof_C 	C 	0.60444	0.22137	0.54176	-0.086
Mof_C 	C 	0.27197	0.19685	0.08717	-0.04
Mof_H 	H 	0.2602	0.2229	0.111	0.069
Mof_C 	C 	0.07068	0.20706	0.97266	0.077
Mof_H 	H 	0.0358	0.2177	0.9609	0.021
Mof_C 	C 	0.58537	0.20415	0.42081	-0.152
Mof_C 	C 	0.65602	0.2043	0.55843	-0.016
Mof_H 	H 	0.6793	0.2025	0.6049	0.055
Mof_C 	C 	0.83807	0.14696	0.573	0.008
Mof_H 	H 	0.8735	0.137	0.588	0.042
Mof_C 	C 	0.80094	0.12417	0.51235	-0.074
Mof_C 	C 	0.74755	0.13852	0.49027	-0.037
Mof_H 	H 	0.723	0.1231	0.4492	0.065
Mof_C 	C 	0.54661	0.20483	0.3454	0.501
Mof_C 	C 	0.4067	0.8865	0.8498	0.841
Mof_H 	H 	0.4431	0.8895	0.8747	-0.244
Mof_C 	C 	0.3838	0.3931	0.3309	0.774
Mof_H 	H 	0.418	0.3989	0.3638	-0.272
Mof_O 	O 	0.00101	0.20169	0.83191	-0.554
Mof_O 	O 	0.05112	0.26058	0.08306	-0.399
Mof_O 	O 	0.34466	0.25582	0.20041	-0.371
Mof_O 	O 	0.55404	0.2785	0.58593	-0.398
Mof_O 	O 	0.84667	0.25304	0.70362	-0.369
Mof_O 	O 	0.39412	0.84433	0.81052	-0.581
Mof_O 	O 	0.41048	0.2025	0.20226	-0.403
Mof_O 	O 	0.56272	0.19044	0.30015	-0.52
Mof_O 	O 	0.06537	0.17673	0.80164	-0.531
Mof_O 	O 	0.61211	0.21945	0.65775	-0.406
Mof_O 	O 	0.11503	0.20976	0.15925	-0.399
Mof_O 	O 	0.37597	0.06639	0.00276	-0.449
Mof_O 	O 	0.29734	0.06059	0.92086	-0.41
Mof_O 	O 	0.90709	0.19162	0.70617	-0.406
Mof_O 	O 	0.50061	0.22034	0.33227	-0.558
Mof_O 	O 	0.37769	0.3503	0.29465	-0.575
Mof_O 	O 	0.86311	0.06778	0.48725	-0.429
Mof_O 	O 	0.3521	0.42875	0.33014	-0.613
Mof_O 	O 	0.38387	0.92299	0.86259	-0.597
Mof_C 	C 	0.32474	0.18668	0.11081	-0.062
Mof_O 	O 	0.78115	0.06195	0.41688	-0.391
Mof_Tm	Tm	0.93408	0.26447	0.79378	1.882
Mof_Tm	Tm	0.43025	0.27705	0.28999	1.866
Mof_C 	C 	-0	0.5	-0	0.845
Mof_C 	C 	0.5	0	-0	0.823
Mof_C 	C 	0.7606	0.5	0.7646	0.904
Mof_H 	H 	0.738	0.5	0.7875	-0.245
Mof_O 	O 	0.95677	0.5	0.9709	-0.716
Mof_O 	O 	0.80591	0.5	0.8022	-0.632
Mof_O 	O 	0.73833	0.5	0.7028	-0.592
Mof_Tm	Tm	0.86618	0.5	0.91385	2.275
Mof_Tm	Tm	0.66118	0.5	0.60708	1.959
Mof_C 	C 	0.2606	8.08736e-33	0.7646	0.882
Mof_H 	H 	0.238	8.08736e-33	0.7875	-0.256
Mof_O 	O 	0.45677	1.61747e-32	0.9709	-0.727
Mof_O 	O 	0.30591	8.08736e-33	0.8022	-0.639
Mof_O 	O 	0.23833	0	0.7028	-0.598
Mof_Tm	Tm	0.36618	0	0.91385	2.096
Mof_Tm	Tm	0.16118	0	0.60708	1.763
Mof_C 	C 	0.2394	0.5	0.2354	0.902
Mof_H 	H 	0.262	0.5	0.2125	-0.246
Mof_O 	O 	0.04323	0.5	0.0291	-0.733
Mof_O 	O 	0.19409	0.5	0.1978	-0.63
Mof_O 	O 	0.26167	0.5	0.2972	-0.591
Mof_Tm	Tm	0.13382	0.5	0.08615	2.249
Mof_Tm	Tm	0.33882	0.5	0.39292	1.958
Mof_C 	C 	0.7394	0	0.2354	0.88
Mof_H 	H 	0.762	2.02184e-33	0.2125	-0.257
Mof_O 	O 	0.54323	5.0546e-34	0.0291	-0.736
Mof_O 	O 	0.69409	0	0.1978	-0.637
Mof_O 	O 	0.76167	0	0.2972	-0.598
Mof_Tm	Tm	0.63382	1.01092e-33	0.08615	2.07
Mof_Tm	Tm	0.83882	0	0.39292	1.765
_end
