data_functionalizedCrystal
_audit_creation_method	'EQeq! by Chris Wilmer'
_symmetry_space_group_name_H-M	'P1'
_symmetry_Int_Tables_number	1
_symmetry_cell_setting	triclinic
loop_
_symmetry_equiv_pos_as_xyz
  x,y,z
_cell_length_a	15.291
_cell_length_b	15.656
_cell_length_c	50.912
_cell_angle_alpha	90
_cell_angle_beta	90
_cell_angle_gamma	90
loop_
_atom_site_label
_atom_site_type_symbol
_atom_site_fract_x
_atom_site_fract_y
_atom_site_fract_z
_atom_site_charge
Mof_Fe	Fe	0.1003	0.24749	0.45982	0.661
Mof_Fe	Fe	0.41137	0.3535	0.29388	0.657
Mof_Fe	Fe	0.8997	0.25251	0.95982	0.662
Mof_Fe	Fe	0.58863	0.1465	0.79388	0.657
Mof_Fe	Fe	0.6003	0.75251	0.04018	0.661
Mof_Fe	Fe	0.91137	0.6465	0.20612	0.66
Mof_Fe	Fe	0.3997	0.74749	0.54018	0.661
Mof_Fe	Fe	0.08863	0.8535	0.70612	0.658
Mof_Ni	Ni	0.29726	0.45398	0.50633	1.062
Mof_Ni	Ni	0.28288	0.22309	0.37545	1.058
Mof_Ni	Ni	0.61288	0.52182	0.23517	1.06
Mof_Ni	Ni	0.70274	0.04602	0.00633	1.062
Mof_Ni	Ni	0.71712	0.27691	0.87545	1.058
Mof_Ni	Ni	0.38712	0.97818	0.73517	1.059
Mof_Ni	Ni	0.79726	0.54602	0.99367	1.062
Mof_Ni	Ni	0.78288	0.77691	0.12455	1.058
Mof_Ni	Ni	0.11288	0.47818	0.26483	1.059
Mof_Ni	Ni	0.20274	0.95398	0.49367	1.061
Mof_Ni	Ni	0.21712	0.72309	0.62455	1.057
Mof_Ni	Ni	0.88712	0.02182	0.76483	1.058
Mof_H 	H 	0.6421	0.4097	0.2699	0.092
Mof_H 	H 	0.392	0.352	0.5315	0.151
Mof_H 	H 	0.372	0.421	0.5498	0.106
Mof_H 	H 	0.265	0.283	0.5383	0.016
Mof_H 	H 	0.323	0.295	0.5647	0.019
Mof_H 	H 	0.247	0.426	0.5755	0.054
Mof_H 	H 	0.194	0.341	0.5764	0.086
Mof_H 	H 	0.131	0.361	0.5342	0.032
Mof_H 	H 	0.102	0.427	0.5536	0.03
Mof_H 	H 	0.191	0.514	0.5374	0.159
Mof_H 	H 	0.064	0.539	0.5203	0.041
Mof_H 	H 	0.086	0.458	0.5011	0.04
Mof_H 	H 	0.179	0.622	0.5004	0.04
Mof_H 	H 	0.111	0.588	0.4786	0.057
Mof_H 	H 	0.205	0.485	0.4687	0.115
Mof_H 	H 	0.297	0.636	0.4712	0.029
Mof_H 	H 	0.239	0.605	0.4466	0.034
Mof_H 	H 	0.369	0.578	0.4311	0.06
Mof_H 	H 	0.329	0.486	0.4365	0.058
Mof_H 	H 	0.48	0.497	0.4503	0.02
Mof_H 	H 	0.437	0.562	0.476	0.015
Mof_H 	H 	0.454	0.422	0.4888	0.097
Mof_H 	H 	0.397	0.395	0.4691	0.102
Mof_H 	H 	0.353	0.361	0.3674	0.145
Mof_H 	H 	0.362	0.349	0.3949	0.105
Mof_H 	H 	0.287	0.48	0.3854	0.002
Mof_H 	H 	0.236	0.408	0.4018	0
Mof_H 	H 	0.157	0.464	0.3662	0.122
Mof_H 	H 	0.21	0.415	0.3461	0.112
Mof_H 	H 	0.102	0.331	0.3819	0.011
Mof_H 	H 	0.075	0.346	0.3518	0.005
Mof_H 	H 	0.174	0.264	0.3412	0.117
Mof_H 	H 	0.084	0.185	0.3802	0.03
Mof_H 	H 	0.045	0.197	0.3509	0.033
Mof_H 	H 	0.115	0.057	0.3566	0.058
Mof_H 	H 	0.173	0.103	0.3355	0.044
Mof_H 	H 	0.214	0.08	0.3884	0.093
Mof_H 	H 	0.244	0.971	0.3694	0.009
Mof_H 	H 	0.304	0.036	0.3474	0.009
Mof_H 	H 	0.384	0.965	0.3826	0.102
Mof_H 	H 	0.335	0.025	0.4025	0.1
Mof_H 	H 	0.442	0.094	0.3604	0.003
Mof_H 	H 	0.486	0.079	0.393	0.017
Mof_H 	H 	0.387	0.17	0.4087	0.108
Mof_H 	H 	0.434	0.218	0.3916	0.098
Mof_H 	H 	0.507	0.636	0.2205	0.13
Mof_H 	H 	0.565	0.621	0.1993	0.128
Mof_H 	H 	0.42	0.526	0.2112	0.008
Mof_H 	H 	0.43	0.599	0.1866	0.011
Mof_H 	H 	0.445	0.466	0.1686	0.093
Mof_H 	H 	0.547	0.502	0.1704	0.104
Mof_H 	H 	0.474	0.392	0.2057	0.017
Mof_H 	H 	0.536	0.353	0.181	0.011
Mof_H 	H 	0.646	0.423	0.1981	0.132
Mof_H 	H 	0.648	0.295	0.2096	0.032
Mof_H 	H 	0.581	0.32	0.2348	0.032
Mof_H 	H 	0.751	0.379	0.2297	0.058
Mof_H 	H 	0.726	0.309	0.2513	0.062
Mof_H 	H 	0.808	0.48	0.2611	0.011
Mof_H 	H 	0.785	0.405	0.2872	0.013
Mof_H 	H 	0.678	0.526	0.2981	0.145
Mof_H 	H 	0.78	0.544	0.3047	0.11
Mof_H 	H 	0.71	0.67	0.2955	0.007
Mof_H 	H 	0.771	0.636	0.2638	0.014
Mof_H 	H 	0.588	0.621	0.2774	0.083
Mof_H 	H 	0.616	0.665	0.2532	0.089
Mof_H 	H 	0.3579	0.0903	0.7699	0.092
Mof_H 	H 	0.608	0.148	0.0315	0.151
Mof_H 	H 	0.628	0.079	0.0498	0.106
Mof_H 	H 	0.735	0.217	0.0383	0.016
Mof_H 	H 	0.677	0.205	0.0647	0.019
Mof_H 	H 	0.753	0.074	0.0755	0.054
Mof_H 	H 	0.806	0.159	0.0764	0.086
Mof_H 	H 	0.869	0.139	0.0342	0.031
Mof_H 	H 	0.898	0.073	0.0536	0.029
Mof_H 	H 	0.809	0.986	0.0374	0.161
Mof_H 	H 	0.936	0.961	0.0203	0.041
Mof_H 	H 	0.914	0.042	0.0011	0.038
Mof_H 	H 	0.821	0.878	0.0004	0.041
Mof_H 	H 	0.889	0.912	0.9786	0.058
Mof_H 	H 	0.795	0.015	0.9687	0.114
Mof_H 	H 	0.703	0.864	0.9712	0.029
Mof_H 	H 	0.761	0.895	0.9466	0.034
Mof_H 	H 	0.631	0.922	0.9311	0.059
Mof_H 	H 	0.671	0.014	0.9365	0.057
Mof_H 	H 	0.52	0.003	0.9503	0.02
Mof_H 	H 	0.563	0.938	0.976	0.015
Mof_H 	H 	0.546	0.078	0.9888	0.097
Mof_H 	H 	0.603	0.105	0.9691	0.102
Mof_H 	H 	0.647	0.139	0.8674	0.145
Mof_H 	H 	0.638	0.151	0.8949	0.105
Mof_H 	H 	0.713	0.02	0.8854	0.002
Mof_H 	H 	0.764	0.092	0.9018	-0
Mof_H 	H 	0.843	0.036	0.8662	0.122
Mof_H 	H 	0.79	0.085	0.8461	0.112
Mof_H 	H 	0.898	0.169	0.8819	0.011
Mof_H 	H 	0.925	0.154	0.8518	0.004
Mof_H 	H 	0.826	0.236	0.8412	0.117
Mof_H 	H 	0.916	0.315	0.8802	0.03
Mof_H 	H 	0.955	0.303	0.8509	0.033
Mof_H 	H 	0.885	0.443	0.8566	0.057
Mof_H 	H 	0.827	0.397	0.8355	0.044
Mof_H 	H 	0.786	0.42	0.8884	0.092
Mof_H 	H 	0.756	0.529	0.8694	0.01
Mof_H 	H 	0.696	0.464	0.8474	0.009
Mof_H 	H 	0.616	0.535	0.8826	0.102
Mof_H 	H 	0.665	0.475	0.9025	0.1
Mof_H 	H 	0.558	0.406	0.8604	0.003
Mof_H 	H 	0.514	0.421	0.893	0.017
Mof_H 	H 	0.613	0.33	0.9087	0.108
Mof_H 	H 	0.566	0.282	0.8916	0.098
Mof_H 	H 	0.493	0.864	0.7205	0.13
Mof_H 	H 	0.435	0.879	0.6993	0.128
Mof_H 	H 	0.58	0.974	0.7112	0.008
Mof_H 	H 	0.57	0.901	0.6866	0.011
Mof_H 	H 	0.555	0.034	0.6686	0.093
Mof_H 	H 	0.453	0.998	0.6704	0.103
Mof_H 	H 	0.526	0.108	0.7057	0.017
Mof_H 	H 	0.464	0.147	0.681	0.011
Mof_H 	H 	0.354	0.077	0.6981	0.132
Mof_H 	H 	0.352	0.205	0.7096	0.032
Mof_H 	H 	0.419	0.18	0.7348	0.032
Mof_H 	H 	0.249	0.121	0.7297	0.059
Mof_H 	H 	0.274	0.191	0.7513	0.062
Mof_H 	H 	0.192	0.02	0.7611	0.011
Mof_H 	H 	0.215	0.095	0.7872	0.013
Mof_H 	H 	0.322	0.974	0.7981	0.146
Mof_H 	H 	0.22	0.956	0.8047	0.11
Mof_H 	H 	0.29	0.83	0.7955	0.006
Mof_H 	H 	0.229	0.864	0.7638	0.014
Mof_H 	H 	0.412	0.879	0.7774	0.083
Mof_H 	H 	0.384	0.835	0.7532	0.089
Mof_H 	H 	0.1421	0.5903	0.2301	0.091
Mof_H 	H 	0.892	0.648	0.9685	0.151
Mof_H 	H 	0.872	0.579	0.9502	0.106
Mof_H 	H 	0.765	0.717	0.9617	0.016
Mof_H 	H 	0.823	0.705	0.9353	0.019
Mof_H 	H 	0.747	0.574	0.9245	0.054
Mof_H 	H 	0.694	0.659	0.9236	0.085
Mof_H 	H 	0.631	0.639	0.9658	0.031
Mof_H 	H 	0.602	0.573	0.9464	0.03
Mof_H 	H 	0.691	0.486	0.9626	0.159
Mof_H 	H 	0.564	0.461	0.9797	0.041
Mof_H 	H 	0.586	0.542	0.9989	0.04
Mof_H 	H 	0.679	0.378	0.9996	0.04
Mof_H 	H 	0.611	0.412	0.0214	0.057
Mof_H 	H 	0.705	0.515	0.0313	0.115
Mof_H 	H 	0.797	0.364	0.0288	0.029
Mof_H 	H 	0.739	0.395	0.0534	0.034
Mof_H 	H 	0.869	0.422	0.0689	0.06
Mof_H 	H 	0.829	0.514	0.0635	0.058
Mof_H 	H 	0.98	0.503	0.0497	0.021
Mof_H 	H 	0.937	0.438	0.024	0.015
Mof_H 	H 	0.954	0.578	0.0112	0.097
Mof_H 	H 	0.897	0.605	0.0309	0.102
Mof_H 	H 	0.853	0.639	0.1326	0.145
Mof_H 	H 	0.862	0.651	0.1051	0.106
Mof_H 	H 	0.787	0.52	0.1146	0.002
Mof_H 	H 	0.736	0.592	0.0982	0
Mof_H 	H 	0.657	0.536	0.1338	0.122
Mof_H 	H 	0.71	0.585	0.1539	0.112
Mof_H 	H 	0.602	0.669	0.1181	0.012
Mof_H 	H 	0.575	0.654	0.1482	0.006
Mof_H 	H 	0.674	0.736	0.1588	0.117
Mof_H 	H 	0.584	0.815	0.1198	0.03
Mof_H 	H 	0.545	0.803	0.1491	0.034
Mof_H 	H 	0.615	0.943	0.1434	0.058
Mof_H 	H 	0.673	0.897	0.1645	0.044
Mof_H 	H 	0.714	0.92	0.1116	0.093
Mof_H 	H 	0.744	0.029	0.1306	0.01
Mof_H 	H 	0.804	0.964	0.1526	0.009
Mof_H 	H 	0.884	0.035	0.1174	0.1
Mof_H 	H 	0.835	0.975	0.0975	0.099
Mof_H 	H 	0.942	0.906	0.1396	0.005
Mof_H 	H 	0.986	0.921	0.107	0.019
Mof_H 	H 	0.887	0.83	0.0913	0.109
Mof_H 	H 	0.934	0.782	0.1084	0.098
Mof_H 	H 	0.007	0.364	0.2795	0.129
Mof_H 	H 	0.065	0.379	0.3007	0.128
Mof_H 	H 	0.92	0.474	0.2888	0.01
Mof_H 	H 	0.93	0.401	0.3134	0.013
Mof_H 	H 	0.945	0.534	0.3314	0.088
Mof_H 	H 	0.047	0.498	0.3296	0.095
Mof_H 	H 	0.974	0.608	0.2943	0.023
Mof_H 	H 	0.036	0.647	0.319	0.014
Mof_H 	H 	0.146	0.577	0.3019	0.132
Mof_H 	H 	0.148	0.705	0.2904	0.032
Mof_H 	H 	0.081	0.68	0.2652	0.031
Mof_H 	H 	0.251	0.621	0.2703	0.058
Mof_H 	H 	0.226	0.691	0.2487	0.061
Mof_H 	H 	0.308	0.52	0.2389	0.011
Mof_H 	H 	0.285	0.595	0.2128	0.013
Mof_H 	H 	0.178	0.474	0.2019	0.145
Mof_H 	H 	0.28	0.456	0.1953	0.11
Mof_H 	H 	0.21	0.33	0.2045	0.006
Mof_H 	H 	0.271	0.364	0.2362	0.014
Mof_H 	H 	0.088	0.379	0.2226	0.083
Mof_H 	H 	0.116	0.335	0.2468	0.089
Mof_H 	H 	0.8579	0.9097	0.7301	0.092
Mof_H 	H 	0.108	0.852	0.4685	0.151
Mof_H 	H 	0.128	0.921	0.4502	0.106
Mof_H 	H 	0.235	0.783	0.4617	0.016
Mof_H 	H 	0.177	0.795	0.4353	0.018
Mof_H 	H 	0.253	0.926	0.4245	0.054
Mof_H 	H 	0.306	0.841	0.4236	0.085
Mof_H 	H 	0.369	0.861	0.4658	0.031
Mof_H 	H 	0.398	0.927	0.4464	0.03
Mof_H 	H 	0.309	0.014	0.4626	0.16
Mof_H 	H 	0.436	0.039	0.4797	0.041
Mof_H 	H 	0.414	0.958	0.4989	0.04
Mof_H 	H 	0.321	0.122	0.4996	0.041
Mof_H 	H 	0.389	0.088	0.5214	0.057
Mof_H 	H 	0.295	0.985	0.5313	0.114
Mof_H 	H 	0.203	0.136	0.5288	0.029
Mof_H 	H 	0.261	0.105	0.5534	0.034
Mof_H 	H 	0.131	0.078	0.5689	0.06
Mof_H 	H 	0.171	0.986	0.5635	0.057
Mof_H 	H 	0.02	0.997	0.5497	0.018
Mof_H 	H 	0.063	0.062	0.524	0.015
Mof_H 	H 	0.046	0.922	0.5112	0.096
Mof_H 	H 	0.103	0.895	0.5309	0.102
Mof_H 	H 	0.147	0.861	0.6326	0.145
Mof_H 	H 	0.138	0.849	0.6051	0.105
Mof_H 	H 	0.213	0.98	0.6146	0.002
Mof_H 	H 	0.264	0.908	0.5982	0
Mof_H 	H 	0.343	0.964	0.6338	0.122
Mof_H 	H 	0.29	0.915	0.6539	0.112
Mof_H 	H 	0.398	0.831	0.6181	0.012
Mof_H 	H 	0.425	0.846	0.6482	0.006
Mof_H 	H 	0.326	0.764	0.6588	0.117
Mof_H 	H 	0.416	0.685	0.6198	0.03
Mof_H 	H 	0.455	0.697	0.6491	0.034
Mof_H 	H 	0.385	0.557	0.6434	0.058
Mof_H 	H 	0.327	0.603	0.6645	0.044
Mof_H 	H 	0.286	0.58	0.6116	0.093
Mof_H 	H 	0.256	0.471	0.6306	0.01
Mof_H 	H 	0.196	0.536	0.6526	0.009
Mof_H 	H 	0.116	0.465	0.6174	0.103
Mof_H 	H 	0.165	0.525	0.5975	0.1
Mof_H 	H 	0.058	0.594	0.6396	0.003
Mof_H 	H 	0.014	0.579	0.607	0.017
Mof_H 	H 	0.113	0.67	0.5913	0.108
Mof_H 	H 	0.066	0.718	0.6084	0.098
Mof_H 	H 	0.993	0.136	0.7795	0.129
Mof_H 	H 	0.935	0.121	0.8007	0.128
Mof_H 	H 	0.08	0.026	0.7888	0.009
Mof_H 	H 	0.07	0.099	0.8134	0.012
Mof_H 	H 	0.055	0.966	0.8314	0.091
Mof_H 	H 	0.953	0.002	0.8296	0.099
Mof_H 	H 	0.026	0.892	0.7943	0.019
Mof_H 	H 	0.964	0.853	0.819	0.012
Mof_H 	H 	0.854	0.923	0.8019	0.132
Mof_H 	H 	0.852	0.795	0.7904	0.032
Mof_H 	H 	0.919	0.82	0.7652	0.032
Mof_H 	H 	0.749	0.879	0.7703	0.058
Mof_H 	H 	0.774	0.809	0.7487	0.061
Mof_H 	H 	0.692	0.98	0.7389	0.011
Mof_H 	H 	0.715	0.905	0.7128	0.013
Mof_H 	H 	0.822	0.026	0.7019	0.145
Mof_H 	H 	0.72	0.044	0.6953	0.11
Mof_H 	H 	0.79	0.17	0.7045	0.006
Mof_H 	H 	0.729	0.136	0.7362	0.014
Mof_H 	H 	0.912	0.121	0.7226	0.082
Mof_H 	H 	0.884	0.165	0.7468	0.089
Mof_C 	C 	0.2948	0.3249	0.55149	-0
Mof_C 	C 	0.2207	0.3747	0.56452	-0.191
Mof_C 	C 	0.1514	0.4074	0.54598	-0.013
Mof_C 	C 	0.1146	0.5072	0.51064	-0.06
Mof_C 	C 	0.1542	0.5679	0.49113	-0.083
Mof_C 	C 	0.2763	0.5842	0.46011	-0.026
Mof_C 	C 	0.351	0.5401	0.44605	-0.145
Mof_C 	C 	0.4275	0.5139	0.46378	-0.012
Mof_C 	C 	0.192	0.3028	0.47953	-0.096
Mof_C 	C 	0.0721	0.3611	0.44738	-0.12
Mof_C 	C 	0.1791	0.2358	0.43031	-0.095
Mof_C 	C 	0.0084	0.1955	0.43847	-0.117
Mof_C 	C 	0.1335	0.1342	0.47161	-0.097
Mof_C 	C 	0.0272	0.2525	0.49124	-0.115
Mof_C 	C 	0.2571	0.4172	0.38429	0.069
Mof_C 	C 	0.1872	0.4143	0.36329	-0.313
Mof_C 	C 	0.1249	0.3401	0.365	0.042
Mof_C 	C 	0.1036	0.1851	0.36142	-0.044
Mof_C 	C 	0.152	0.1045	0.35497	-0.092
Mof_C 	C 	0.283	0.0251	0.36677	0.018
Mof_C 	C 	0.36	0.0198	0.38588	-0.268
Mof_C 	C 	0.4279	0.0893	0.38208	0.04
Mof_C 	C 	0.3667	0.2721	0.31999	-0.104
Mof_C 	C 	0.4015	0.2744	0.2648	-0.119
Mof_C 	C 	0.5301	0.3103	0.29778	-0.119
Mof_C 	C 	0.4613	0.4345	0.26914	-0.091
Mof_C 	C 	0.4269	0.4358	0.32223	-0.122
Mof_C 	C 	0.2947	0.4007	0.28755	-0.094
Mof_C 	C 	0.4639	0.5535	0.1962	0.035
Mof_C 	C 	0.498	0.4836	0.17872	-0.262
Mof_C 	C 	0.5264	0.4044	0.19269	0.026
Mof_C 	C 	0.6324	0.3408	0.22266	-0.044
Mof_C 	C 	0.7066	0.3607	0.24051	-0.112
Mof_C 	C 	0.7558	0.4605	0.27451	0.053
Mof_C 	C 	0.7295	0.5333	0.29212	-0.322
Mof_C 	C 	0.7128	0.6195	0.27873	0.04
Mof_C 	C 	0.7052	0.1751	0.05149	0
Mof_C 	C 	0.7793	0.1253	0.06452	-0.192
Mof_C 	C 	0.8486	0.0926	0.04598	-0.012
Mof_C 	C 	0.8854	0.9928	0.01064	-0.055
Mof_C 	C 	0.8458	0.9321	0.99113	-0.086
Mof_C 	C 	0.7237	0.9158	0.96011	-0.027
Mof_C 	C 	0.649	0.9599	0.94605	-0.144
Mof_C 	C 	0.5725	0.9861	0.96378	-0.012
Mof_C 	C 	0.808	0.1972	0.97953	-0.096
Mof_C 	C 	0.9279	0.1389	0.94738	-0.121
Mof_C 	C 	0.8209	0.2642	0.93031	-0.095
Mof_C 	C 	0.9916	0.3045	0.93847	-0.12
Mof_C 	C 	0.8665	0.3658	0.97161	-0.098
Mof_C 	C 	0.9728	0.2475	0.99124	-0.118
Mof_C 	C 	0.7429	0.0828	0.88429	0.069
Mof_C 	C 	0.8128	0.0857	0.86329	-0.313
Mof_C 	C 	0.8751	0.1599	0.865	0.042
Mof_C 	C 	0.8964	0.3149	0.86142	-0.044
Mof_C 	C 	0.848	0.3955	0.85497	-0.092
Mof_C 	C 	0.717	0.4749	0.86677	0.016
Mof_C 	C 	0.64	0.4802	0.88588	-0.268
Mof_C 	C 	0.5721	0.4107	0.88208	0.04
Mof_C 	C 	0.6333	0.2279	0.81999	-0.104
Mof_C 	C 	0.5985	0.2256	0.7648	-0.119
Mof_C 	C 	0.4699	0.1897	0.79778	-0.119
Mof_C 	C 	0.5387	0.0655	0.76914	-0.091
Mof_C 	C 	0.5731	0.0642	0.82223	-0.122
Mof_C 	C 	0.7053	0.0993	0.78755	-0.094
Mof_C 	C 	0.5361	0.9465	0.6962	0.035
Mof_C 	C 	0.502	0.0164	0.67872	-0.261
Mof_C 	C 	0.4736	0.0956	0.69269	0.026
Mof_C 	C 	0.3676	0.1592	0.72266	-0.044
Mof_C 	C 	0.2934	0.1393	0.74051	-0.112
Mof_C 	C 	0.2442	0.0395	0.77451	0.055
Mof_C 	C 	0.2705	0.9667	0.79212	-0.324
Mof_C 	C 	0.2872	0.8805	0.77873	0.04
Mof_C 	C 	0.7948	0.6751	0.94851	-0
Mof_C 	C 	0.7207	0.6253	0.93548	-0.191
Mof_C 	C 	0.6514	0.5926	0.95402	-0.013
Mof_C 	C 	0.6146	0.4928	0.98936	-0.06
Mof_C 	C 	0.6542	0.4321	0.00887	-0.083
Mof_C 	C 	0.7763	0.4158	0.03989	-0.026
Mof_C 	C 	0.851	0.4599	0.05395	-0.145
Mof_C 	C 	0.9275	0.4861	0.03622	-0.012
Mof_C 	C 	0.692	0.6972	0.02047	-0.096
Mof_C 	C 	0.5721	0.6389	0.05262	-0.12
Mof_C 	C 	0.6791	0.7642	0.06969	-0.095
Mof_C 	C 	0.5084	0.8045	0.06153	-0.117
Mof_C 	C 	0.6335	0.8658	0.02839	-0.098
Mof_C 	C 	0.5272	0.7475	0.00876	-0.117
Mof_C 	C 	0.7571	0.5828	0.11571	0.069
Mof_C 	C 	0.6872	0.5857	0.13671	-0.313
Mof_C 	C 	0.6249	0.6599	0.135	0.041
Mof_C 	C 	0.6036	0.8149	0.13858	-0.044
Mof_C 	C 	0.652	0.8955	0.14503	-0.092
Mof_C 	C 	0.783	0.9749	0.13323	0.016
Mof_C 	C 	0.86	0.9802	0.11412	-0.263
Mof_C 	C 	0.9279	0.9107	0.11792	0.039
Mof_C 	C 	0.8667	0.7279	0.18001	-0.103
Mof_C 	C 	0.9015	0.7256	0.2352	-0.118
Mof_C 	C 	0.0301	0.6897	0.20222	-0.123
Mof_C 	C 	0.9613	0.5655	0.23086	-0.09
Mof_C 	C 	0.9269	0.5642	0.17777	-0.122
Mof_C 	C 	0.7947	0.5993	0.21245	-0.095
Mof_C 	C 	0.9639	0.4465	0.3038	0.03
Mof_C 	C 	0.998	0.5164	0.32128	-0.241
Mof_C 	C 	0.0264	0.5956	0.30731	0.011
Mof_C 	C 	0.1324	0.6592	0.27734	-0.045
Mof_C 	C 	0.2066	0.6393	0.25949	-0.112
Mof_C 	C 	0.2558	0.5395	0.22549	0.053
Mof_C 	C 	0.2295	0.4667	0.20788	-0.321
Mof_C 	C 	0.2128	0.3805	0.22127	0.04
Mof_C 	C 	0.2052	0.8249	0.44851	-0
Mof_C 	C 	0.2793	0.8747	0.43548	-0.191
Mof_C 	C 	0.3486	0.9074	0.45402	-0.013
Mof_C 	C 	0.3854	0.0072	0.48936	-0.058
Mof_C 	C 	0.3458	0.0679	0.50887	-0.084
Mof_C 	C 	0.2237	0.0842	0.53989	-0.027
Mof_C 	C 	0.149	0.0401	0.55395	-0.144
Mof_C 	C 	0.0725	0.0139	0.53622	-0.008
Mof_C 	C 	0.308	0.8028	0.52047	-0.096
Mof_C 	C 	0.4279	0.8611	0.55262	-0.12
Mof_C 	C 	0.3209	0.7358	0.56969	-0.095
Mof_C 	C 	0.4916	0.6955	0.56153	-0.117
Mof_C 	C 	0.3665	0.6342	0.52839	-0.098
Mof_C 	C 	0.4728	0.7525	0.50876	-0.117
Mof_C 	C 	0.2429	0.9172	0.61571	0.069
Mof_C 	C 	0.3128	0.9143	0.63671	-0.313
Mof_C 	C 	0.3751	0.8401	0.635	0.041
Mof_C 	C 	0.3964	0.6851	0.63858	-0.044
Mof_C 	C 	0.348	0.6045	0.64503	-0.092
Mof_C 	C 	0.217	0.5251	0.63323	0.017
Mof_C 	C 	0.14	0.5198	0.61412	-0.268
Mof_C 	C 	0.0721	0.5893	0.61792	0.041
Mof_C 	C 	0.1333	0.7721	0.68001	-0.104
Mof_C 	C 	0.0985	0.7744	0.7352	-0.119
Mof_C 	C 	0.9699	0.8103	0.70222	-0.121
Mof_C 	C 	0.0387	0.9345	0.73086	-0.09
Mof_C 	C 	0.0731	0.9358	0.67777	-0.122
Mof_C 	C 	0.2053	0.9007	0.71245	-0.094
Mof_C 	C 	0.0361	0.0535	0.8038	0.038
Mof_C 	C 	0.002	0.9836	0.82128	-0.254
Mof_C 	C 	0.9736	0.9044	0.80731	0.021
Mof_C 	C 	0.8676	0.8408	0.77734	-0.044
Mof_C 	C 	0.7934	0.8607	0.75949	-0.112
Mof_C 	C 	0.7442	0.9605	0.72549	0.055
Mof_C 	C 	0.7705	0.0333	0.70788	-0.323
Mof_C 	C 	0.7872	0.1195	0.72127	0.04
Mof_N 	N 	0.3539	0.3836	0.53697	-0.377
Mof_N 	N 	0.1834	0.4757	0.52881	-0.317
Mof_N 	N 	0.2272	0.5249	0.47726	-0.264
Mof_N 	N 	0.4044	0.4401	0.48073	-0.328
Mof_N 	N 	0.2421	0.3434	0.49062	-0.204
Mof_N 	N 	0.0609	0.4303	0.43964	-0.09
Mof_N 	N 	0.224	0.23	0.41221	-0.207
Mof_N 	N 	0.9585	0.1626	0.42542	-0.107
Mof_N 	N 	0.1519	0.0672	0.47917	-0.211
Mof_N 	N 	0.9897	0.2512	0.51083	-0.101
Mof_N 	N 	0.3245	0.3506	0.38055	-0.374
Mof_N 	N 	0.164	0.2575	0.35746	-0.282
Mof_N 	N 	0.2286	0.0991	0.37244	-0.258
Mof_N 	N 	0.3977	0.1731	0.3918	-0.347
Mof_N 	N 	0.3418	0.2303	0.33697	-0.199
Mof_N 	N 	0.4028	0.2289	0.24706	-0.093
Mof_N 	N 	0.6013	0.2856	0.29862	-0.101
Mof_N 	N 	0.4998	0.4775	0.2549	-0.2
Mof_N 	N 	0.4363	0.4846	0.33913	-0.091
Mof_N 	N 	0.2278	0.4312	0.28304	-0.207
Mof_N 	N 	0.5337	0.5971	0.21134	-0.38
Mof_N 	N 	0.6072	0.4185	0.20842	-0.3
Mof_N 	N 	0.6828	0.4322	0.25824	-0.251
Mof_N 	N 	0.6304	0.6195	0.26304	-0.32
Mof_N 	N 	0.6461	0.1164	0.03697	-0.377
Mof_N 	N 	0.8166	0.0243	0.02881	-0.32
Mof_N 	N 	0.7728	0.9751	0.97726	-0.262
Mof_N 	N 	0.5956	0.0599	0.98073	-0.328
Mof_N 	N 	0.7579	0.1566	0.99062	-0.204
Mof_N 	N 	0.9391	0.0697	0.93964	-0.091
Mof_N 	N 	0.776	0.27	0.91221	-0.207
Mof_N 	N 	0.0415	0.3374	0.92542	-0.104
Mof_N 	N 	0.8481	0.4328	0.97917	-0.211
Mof_N 	N 	0.0103	0.2488	0.01083	-0.099
Mof_N 	N 	0.6755	0.1494	0.88055	-0.374
Mof_N 	N 	0.836	0.2425	0.85746	-0.282
Mof_N 	N 	0.7714	0.4009	0.87244	-0.257
Mof_N 	N 	0.6023	0.3269	0.8918	-0.347
Mof_N 	N 	0.6582	0.2697	0.83697	-0.199
Mof_N 	N 	0.5972	0.2711	0.74706	-0.093
Mof_N 	N 	0.3987	0.2144	0.79862	-0.101
Mof_N 	N 	0.5002	0.0225	0.7549	-0.2
Mof_N 	N 	0.5637	0.0154	0.83913	-0.091
Mof_N 	N 	0.7722	0.0688	0.78304	-0.207
Mof_N 	N 	0.4663	0.9029	0.71134	-0.38
Mof_N 	N 	0.3928	0.0815	0.70842	-0.3
Mof_N 	N 	0.3172	0.0678	0.75824	-0.251
Mof_N 	N 	0.3696	0.8805	0.76304	-0.32
Mof_N 	N 	0.8539	0.6164	0.96303	-0.377
Mof_N 	N 	0.6834	0.5243	0.97119	-0.317
Mof_N 	N 	0.7272	0.4751	0.02274	-0.263
Mof_N 	N 	0.9044	0.5599	0.01927	-0.328
Mof_N 	N 	0.7421	0.6566	0.00938	-0.204
Mof_N 	N 	0.5609	0.5697	0.06036	-0.09
Mof_N 	N 	0.724	0.77	0.08779	-0.207
Mof_N 	N 	0.4585	0.8374	0.07458	-0.106
Mof_N 	N 	0.6519	0.9328	0.02083	-0.211
Mof_N 	N 	0.4897	0.7488	0.98917	-0.1
Mof_N 	N 	0.8245	0.6494	0.11945	-0.374
Mof_N 	N 	0.664	0.7425	0.14254	-0.282
Mof_N 	N 	0.7286	0.9009	0.12756	-0.257
Mof_N 	N 	0.8977	0.8269	0.1082	-0.347
Mof_N 	N 	0.8418	0.7697	0.16303	-0.199
Mof_N 	N 	0.9028	0.7711	0.25294	-0.092
Mof_N 	N 	0.1013	0.7144	0.20138	-0.1
Mof_N 	N 	0.9998	0.5225	0.2451	-0.198
Mof_N 	N 	0.9363	0.5154	0.16087	-0.09
Mof_N 	N 	0.7278	0.5688	0.21696	-0.207
Mof_N 	N 	0.0337	0.4029	0.28866	-0.38
Mof_N 	N 	0.1072	0.5815	0.29158	-0.299
Mof_N 	N 	0.1828	0.5678	0.24176	-0.251
Mof_N 	N 	0.1304	0.3805	0.23696	-0.32
Mof_N 	N 	0.1461	0.8836	0.46303	-0.377
Mof_N 	N 	0.3166	0.9757	0.47119	-0.318
Mof_N 	N 	0.2728	0.0249	0.52274	-0.262
Mof_N 	N 	0.0956	0.9401	0.51927	-0.329
Mof_N 	N 	0.2579	0.8434	0.50938	-0.204
Mof_N 	N 	0.4391	0.9303	0.56036	-0.09
Mof_N 	N 	0.276	0.73	0.58779	-0.207
Mof_N 	N 	0.5415	0.6626	0.57458	-0.106
Mof_N 	N 	0.3481	0.5672	0.52083	-0.211
Mof_N 	N 	0.5103	0.7512	0.48917	-0.1
Mof_N 	N 	0.1755	0.8506	0.61945	-0.374
Mof_N 	N 	0.336	0.7575	0.64254	-0.282
Mof_N 	N 	0.2714	0.5991	0.62756	-0.257
Mof_N 	N 	0.1023	0.6731	0.6082	-0.347
Mof_N 	N 	0.1582	0.7303	0.66303	-0.199
Mof_N 	N 	0.0972	0.7289	0.75294	-0.093
Mof_N 	N 	0.8987	0.7856	0.70138	-0.101
Mof_N 	N 	0.0002	0.9775	0.7451	-0.199
Mof_N 	N 	0.0637	0.9846	0.66087	-0.091
Mof_N 	N 	0.2722	0.9312	0.71696	-0.207
Mof_N 	N 	0.9663	0.0971	0.78866	-0.382
Mof_N 	N 	0.8928	0.9185	0.79158	-0.299
Mof_N 	N 	0.8172	0.9322	0.74176	-0.251
Mof_N 	N 	0.8696	0.1195	0.73696	-0.32
Mof_Fe	Fe	0.8997	0.75251	0.54018	0.66
Mof_Fe	Fe	0.58863	0.6465	0.70612	0.656
Mof_Fe	Fe	0.1003	0.74749	0.04018	0.661
Mof_Fe	Fe	0.41137	0.8535	0.20612	0.656
Mof_Fe	Fe	0.3997	0.24749	0.95982	0.66
Mof_Fe	Fe	0.08863	0.3535	0.79388	0.659
Mof_Fe	Fe	0.6003	0.25251	0.45982	0.66
Mof_Fe	Fe	0.91137	0.1465	0.29388	0.657
Mof_Ni	Ni	0.70274	0.54602	0.49367	1.061
Mof_Ni	Ni	0.71712	0.77691	0.62455	1.057
Mof_Ni	Ni	0.38712	0.47818	0.76483	1.059
Mof_Ni	Ni	0.29726	0.95398	0.99367	1.061
Mof_Ni	Ni	0.28288	0.72309	0.12455	1.057
Mof_Ni	Ni	0.61288	0.02182	0.26483	1.058
Mof_Ni	Ni	0.20274	0.45398	0.00633	1.061
Mof_Ni	Ni	0.21712	0.22309	0.87545	1.057
Mof_Ni	Ni	0.88712	0.52182	0.73517	1.058
Mof_Ni	Ni	0.79726	0.04602	0.50633	1.06
Mof_Ni	Ni	0.78288	0.27691	0.37545	1.057
Mof_Ni	Ni	0.11288	0.97818	0.23517	1.058
Mof_H 	H 	0.3579	0.5903	0.7301	0.092
Mof_H 	H 	0.608	0.648	0.4685	0.151
Mof_H 	H 	0.628	0.579	0.4502	0.106
Mof_H 	H 	0.735	0.717	0.4617	0.016
Mof_H 	H 	0.677	0.705	0.4353	0.019
Mof_H 	H 	0.753	0.574	0.4245	0.054
Mof_H 	H 	0.806	0.659	0.4236	0.086
Mof_H 	H 	0.869	0.639	0.4658	0.032
Mof_H 	H 	0.898	0.573	0.4464	0.03
Mof_H 	H 	0.809	0.486	0.4626	0.159
Mof_H 	H 	0.936	0.461	0.4797	0.041
Mof_H 	H 	0.914	0.542	0.4989	0.04
Mof_H 	H 	0.821	0.378	0.4996	0.04
Mof_H 	H 	0.889	0.412	0.5214	0.057
Mof_H 	H 	0.795	0.515	0.5313	0.115
Mof_H 	H 	0.703	0.364	0.5288	0.029
Mof_H 	H 	0.761	0.395	0.5534	0.034
Mof_H 	H 	0.631	0.422	0.5689	0.06
Mof_H 	H 	0.671	0.514	0.5635	0.058
Mof_H 	H 	0.52	0.503	0.5497	0.02
Mof_H 	H 	0.563	0.438	0.524	0.015
Mof_H 	H 	0.546	0.578	0.5112	0.097
Mof_H 	H 	0.603	0.605	0.5309	0.102
Mof_H 	H 	0.647	0.639	0.6326	0.145
Mof_H 	H 	0.638	0.651	0.6051	0.105
Mof_H 	H 	0.713	0.52	0.6146	0.002
Mof_H 	H 	0.764	0.592	0.5982	0
Mof_H 	H 	0.843	0.536	0.6338	0.122
Mof_H 	H 	0.79	0.585	0.6539	0.112
Mof_H 	H 	0.898	0.669	0.6181	0.011
Mof_H 	H 	0.925	0.654	0.6482	0.005
Mof_H 	H 	0.826	0.736	0.6588	0.117
Mof_H 	H 	0.916	0.815	0.6198	0.03
Mof_H 	H 	0.955	0.803	0.6491	0.033
Mof_H 	H 	0.885	0.943	0.6434	0.058
Mof_H 	H 	0.827	0.897	0.6645	0.044
Mof_H 	H 	0.786	0.92	0.6116	0.093
Mof_H 	H 	0.756	0.029	0.6306	0.009
Mof_H 	H 	0.696	0.964	0.6526	0.009
Mof_H 	H 	0.616	0.035	0.6174	0.102
Mof_H 	H 	0.665	0.975	0.5975	0.1
Mof_H 	H 	0.558	0.906	0.6396	0.003
Mof_H 	H 	0.514	0.921	0.607	0.017
Mof_H 	H 	0.613	0.83	0.5913	0.108
Mof_H 	H 	0.566	0.782	0.6084	0.098
Mof_H 	H 	0.493	0.364	0.7795	0.13
Mof_H 	H 	0.435	0.379	0.8007	0.128
Mof_H 	H 	0.58	0.474	0.7888	0.008
Mof_H 	H 	0.57	0.401	0.8134	0.011
Mof_H 	H 	0.555	0.534	0.8314	0.093
Mof_H 	H 	0.453	0.498	0.8296	0.104
Mof_H 	H 	0.526	0.608	0.7943	0.017
Mof_H 	H 	0.464	0.647	0.819	0.011
Mof_H 	H 	0.354	0.577	0.8019	0.132
Mof_H 	H 	0.352	0.705	0.7904	0.032
Mof_H 	H 	0.419	0.68	0.7652	0.032
Mof_H 	H 	0.249	0.621	0.7703	0.058
Mof_H 	H 	0.274	0.691	0.7487	0.062
Mof_H 	H 	0.192	0.52	0.7389	0.011
Mof_H 	H 	0.215	0.595	0.7128	0.013
Mof_H 	H 	0.322	0.474	0.7019	0.145
Mof_H 	H 	0.22	0.456	0.6953	0.11
Mof_H 	H 	0.29	0.33	0.7045	0.007
Mof_H 	H 	0.229	0.364	0.7362	0.014
Mof_H 	H 	0.412	0.379	0.7226	0.083
Mof_H 	H 	0.384	0.335	0.7468	0.089
Mof_H 	H 	0.6421	0.9097	0.2301	0.092
Mof_H 	H 	0.392	0.852	0.9685	0.151
Mof_H 	H 	0.372	0.921	0.9502	0.106
Mof_H 	H 	0.265	0.783	0.9617	0.016
Mof_H 	H 	0.323	0.795	0.9353	0.019
Mof_H 	H 	0.247	0.926	0.9245	0.054
Mof_H 	H 	0.194	0.841	0.9236	0.086
Mof_H 	H 	0.131	0.861	0.9658	0.031
Mof_H 	H 	0.102	0.927	0.9464	0.029
Mof_H 	H 	0.191	0.014	0.9626	0.161
Mof_H 	H 	0.064	0.039	0.9797	0.041
Mof_H 	H 	0.086	0.958	0.9989	0.038
Mof_H 	H 	0.179	0.122	0.9996	0.041
Mof_H 	H 	0.111	0.088	0.0214	0.058
Mof_H 	H 	0.205	0.985	0.0313	0.114
Mof_H 	H 	0.297	0.136	0.0288	0.029
Mof_H 	H 	0.239	0.105	0.0534	0.034
Mof_H 	H 	0.369	0.078	0.0689	0.059
Mof_H 	H 	0.329	0.986	0.0635	0.057
Mof_H 	H 	0.48	0.997	0.0497	0.02
Mof_H 	H 	0.437	0.062	0.024	0.015
Mof_H 	H 	0.454	0.922	0.0112	0.097
Mof_H 	H 	0.397	0.895	0.0309	0.102
Mof_H 	H 	0.353	0.861	0.1326	0.145
Mof_H 	H 	0.362	0.849	0.1051	0.105
Mof_H 	H 	0.287	0.98	0.1146	0.002
Mof_H 	H 	0.236	0.908	0.0982	-0
Mof_H 	H 	0.157	0.964	0.1338	0.122
Mof_H 	H 	0.21	0.915	0.1539	0.112
Mof_H 	H 	0.102	0.831	0.1181	0.011
Mof_H 	H 	0.075	0.846	0.1482	0.004
Mof_H 	H 	0.174	0.764	0.1588	0.117
Mof_H 	H 	0.084	0.685	0.1198	0.03
Mof_H 	H 	0.045	0.697	0.1491	0.033
Mof_H 	H 	0.115	0.557	0.1434	0.057
Mof_H 	H 	0.173	0.603	0.1645	0.044
Mof_H 	H 	0.214	0.58	0.1116	0.092
Mof_H 	H 	0.244	0.471	0.1306	0.01
Mof_H 	H 	0.304	0.536	0.1526	0.009
Mof_H 	H 	0.384	0.465	0.1174	0.102
Mof_H 	H 	0.335	0.525	0.0975	0.1
Mof_H 	H 	0.442	0.594	0.1396	0.003
Mof_H 	H 	0.486	0.579	0.107	0.017
Mof_H 	H 	0.387	0.67	0.0913	0.108
Mof_H 	H 	0.434	0.718	0.1084	0.098
Mof_H 	H 	0.507	0.136	0.2795	0.13
Mof_H 	H 	0.565	0.121	0.3007	0.128
Mof_H 	H 	0.42	0.026	0.2888	0.008
Mof_H 	H 	0.43	0.099	0.3134	0.011
Mof_H 	H 	0.445	0.966	0.3314	0.093
Mof_H 	H 	0.547	0.002	0.3296	0.103
Mof_H 	H 	0.474	0.892	0.2943	0.017
Mof_H 	H 	0.536	0.853	0.319	0.011
Mof_H 	H 	0.646	0.923	0.3019	0.132
Mof_H 	H 	0.648	0.795	0.2904	0.032
Mof_H 	H 	0.581	0.82	0.2652	0.032
Mof_H 	H 	0.751	0.879	0.2703	0.059
Mof_H 	H 	0.726	0.809	0.2487	0.062
Mof_H 	H 	0.808	0.98	0.2389	0.011
Mof_H 	H 	0.785	0.905	0.2128	0.013
Mof_H 	H 	0.678	0.026	0.2019	0.146
Mof_H 	H 	0.78	0.044	0.1953	0.11
Mof_H 	H 	0.71	0.17	0.2045	0.006
Mof_H 	H 	0.771	0.136	0.2362	0.014
Mof_H 	H 	0.588	0.121	0.2226	0.083
Mof_H 	H 	0.616	0.165	0.2468	0.089
Mof_H 	H 	0.8579	0.4097	0.7699	0.091
Mof_H 	H 	0.108	0.352	0.0315	0.151
Mof_H 	H 	0.128	0.421	0.0498	0.106
Mof_H 	H 	0.235	0.283	0.0383	0.016
Mof_H 	H 	0.177	0.295	0.0647	0.019
Mof_H 	H 	0.253	0.426	0.0755	0.054
Mof_H 	H 	0.306	0.341	0.0764	0.085
Mof_H 	H 	0.369	0.361	0.0342	0.031
Mof_H 	H 	0.398	0.427	0.0536	0.03
Mof_H 	H 	0.309	0.514	0.0374	0.159
Mof_H 	H 	0.436	0.539	0.0203	0.041
Mof_H 	H 	0.414	0.458	0.0011	0.04
Mof_H 	H 	0.321	0.622	0.0004	0.04
Mof_H 	H 	0.389	0.588	0.9786	0.057
Mof_H 	H 	0.295	0.485	0.9687	0.115
Mof_H 	H 	0.203	0.636	0.9712	0.029
Mof_H 	H 	0.261	0.605	0.9466	0.034
Mof_H 	H 	0.131	0.578	0.9311	0.06
Mof_H 	H 	0.171	0.486	0.9365	0.058
Mof_H 	H 	0.02	0.497	0.9503	0.021
Mof_H 	H 	0.063	0.562	0.976	0.015
Mof_H 	H 	0.046	0.422	0.9888	0.097
Mof_H 	H 	0.103	0.395	0.9691	0.102
Mof_H 	H 	0.147	0.361	0.8674	0.145
Mof_H 	H 	0.138	0.349	0.8949	0.106
Mof_H 	H 	0.213	0.48	0.8854	0.002
Mof_H 	H 	0.264	0.408	0.9018	0
Mof_H 	H 	0.343	0.464	0.8662	0.122
Mof_H 	H 	0.29	0.415	0.8461	0.112
Mof_H 	H 	0.398	0.331	0.8819	0.012
Mof_H 	H 	0.425	0.346	0.8518	0.006
Mof_H 	H 	0.326	0.264	0.8412	0.117
Mof_H 	H 	0.416	0.185	0.8802	0.03
Mof_H 	H 	0.455	0.197	0.8509	0.034
Mof_H 	H 	0.385	0.057	0.8566	0.058
Mof_H 	H 	0.327	0.103	0.8355	0.044
Mof_H 	H 	0.286	0.08	0.8884	0.093
Mof_H 	H 	0.256	0.971	0.8694	0.01
Mof_H 	H 	0.196	0.036	0.8474	0.009
Mof_H 	H 	0.116	0.965	0.8826	0.1
Mof_H 	H 	0.165	0.025	0.9025	0.099
Mof_H 	H 	0.058	0.094	0.8604	0.005
Mof_H 	H 	0.014	0.079	0.893	0.019
Mof_H 	H 	0.113	0.17	0.9087	0.109
Mof_H 	H 	0.066	0.218	0.8916	0.098
Mof_H 	H 	0.993	0.636	0.7205	0.129
Mof_H 	H 	0.935	0.621	0.6993	0.128
Mof_H 	H 	0.08	0.526	0.7112	0.01
Mof_H 	H 	0.07	0.599	0.6866	0.013
Mof_H 	H 	0.055	0.466	0.6686	0.088
Mof_H 	H 	0.953	0.502	0.6704	0.095
Mof_H 	H 	0.026	0.392	0.7057	0.023
Mof_H 	H 	0.964	0.353	0.681	0.014
Mof_H 	H 	0.854	0.423	0.6981	0.132
Mof_H 	H 	0.852	0.295	0.7096	0.032
Mof_H 	H 	0.919	0.32	0.7348	0.031
Mof_H 	H 	0.749	0.379	0.7297	0.058
Mof_H 	H 	0.774	0.309	0.7513	0.061
Mof_H 	H 	0.692	0.48	0.7611	0.011
Mof_H 	H 	0.715	0.405	0.7872	0.013
Mof_H 	H 	0.822	0.526	0.7981	0.145
Mof_H 	H 	0.72	0.544	0.8047	0.11
Mof_H 	H 	0.79	0.67	0.7955	0.006
Mof_H 	H 	0.729	0.636	0.7638	0.014
Mof_H 	H 	0.912	0.621	0.7774	0.083
Mof_H 	H 	0.884	0.665	0.7532	0.089
Mof_H 	H 	0.1421	0.0903	0.2699	0.092
Mof_H 	H 	0.892	0.148	0.5315	0.151
Mof_H 	H 	0.872	0.079	0.5498	0.106
Mof_H 	H 	0.765	0.217	0.5383	0.016
Mof_H 	H 	0.823	0.205	0.5647	0.018
Mof_H 	H 	0.747	0.074	0.5755	0.054
Mof_H 	H 	0.694	0.159	0.5764	0.085
Mof_H 	H 	0.631	0.139	0.5342	0.031
Mof_H 	H 	0.602	0.073	0.5536	0.03
Mof_H 	H 	0.691	0.986	0.5374	0.16
Mof_H 	H 	0.564	0.961	0.5203	0.041
Mof_H 	H 	0.586	0.042	0.5011	0.04
Mof_H 	H 	0.679	0.878	0.5004	0.041
Mof_H 	H 	0.611	0.912	0.4786	0.057
Mof_H 	H 	0.705	0.015	0.4687	0.114
Mof_H 	H 	0.797	0.864	0.4712	0.029
Mof_H 	H 	0.739	0.895	0.4466	0.034
Mof_H 	H 	0.869	0.922	0.4311	0.06
Mof_H 	H 	0.829	0.014	0.4365	0.057
Mof_H 	H 	0.98	0.003	0.4503	0.018
Mof_H 	H 	0.937	0.938	0.476	0.015
Mof_H 	H 	0.954	0.078	0.4888	0.096
Mof_H 	H 	0.897	0.105	0.4691	0.102
Mof_H 	H 	0.853	0.139	0.3674	0.145
Mof_H 	H 	0.862	0.151	0.3949	0.105
Mof_H 	H 	0.787	0.02	0.3854	0.002
Mof_H 	H 	0.736	0.092	0.4018	0
Mof_H 	H 	0.657	0.036	0.3662	0.122
Mof_H 	H 	0.71	0.085	0.3461	0.112
Mof_H 	H 	0.602	0.169	0.3819	0.012
Mof_H 	H 	0.575	0.154	0.3518	0.006
Mof_H 	H 	0.674	0.236	0.3412	0.117
Mof_H 	H 	0.584	0.315	0.3802	0.03
Mof_H 	H 	0.545	0.303	0.3509	0.034
Mof_H 	H 	0.615	0.443	0.3566	0.058
Mof_H 	H 	0.673	0.397	0.3355	0.044
Mof_H 	H 	0.714	0.42	0.3884	0.093
Mof_H 	H 	0.744	0.529	0.3694	0.01
Mof_H 	H 	0.804	0.464	0.3474	0.009
Mof_H 	H 	0.884	0.535	0.3826	0.103
Mof_H 	H 	0.835	0.475	0.4025	0.1
Mof_H 	H 	0.942	0.406	0.3604	0.003
Mof_H 	H 	0.986	0.421	0.393	0.017
Mof_H 	H 	0.887	0.33	0.4087	0.108
Mof_H 	H 	0.934	0.282	0.3916	0.098
Mof_H 	H 	0.007	0.864	0.2205	0.129
Mof_H 	H 	0.065	0.879	0.1993	0.128
Mof_H 	H 	0.92	0.974	0.2112	0.009
Mof_H 	H 	0.93	0.901	0.1866	0.012
Mof_H 	H 	0.945	0.034	0.1686	0.091
Mof_H 	H 	0.047	0.998	0.1704	0.099
Mof_H 	H 	0.974	0.108	0.2057	0.019
Mof_H 	H 	0.036	0.147	0.181	0.012
Mof_H 	H 	0.146	0.077	0.1981	0.132
Mof_H 	H 	0.148	0.205	0.2096	0.032
Mof_H 	H 	0.081	0.18	0.2348	0.032
Mof_H 	H 	0.251	0.121	0.2297	0.058
Mof_H 	H 	0.226	0.191	0.2513	0.061
Mof_H 	H 	0.308	0.02	0.2611	0.011
Mof_H 	H 	0.285	0.095	0.2872	0.013
Mof_H 	H 	0.178	0.974	0.2981	0.145
Mof_H 	H 	0.28	0.956	0.3047	0.11
Mof_H 	H 	0.21	0.83	0.2955	0.006
Mof_H 	H 	0.271	0.864	0.2638	0.014
Mof_H 	H 	0.088	0.879	0.2774	0.082
Mof_H 	H 	0.116	0.835	0.2532	0.089
Mof_C 	C 	0.7052	0.6751	0.44851	-0
Mof_C 	C 	0.7793	0.6253	0.43548	-0.191
Mof_C 	C 	0.8486	0.5926	0.45402	-0.013
Mof_C 	C 	0.8854	0.4928	0.48936	-0.06
Mof_C 	C 	0.8458	0.4321	0.50887	-0.083
Mof_C 	C 	0.7237	0.4158	0.53989	-0.026
Mof_C 	C 	0.649	0.4599	0.55395	-0.145
Mof_C 	C 	0.5725	0.4861	0.53622	-0.012
Mof_C 	C 	0.808	0.6972	0.52047	-0.096
Mof_C 	C 	0.9279	0.6389	0.55262	-0.12
Mof_C 	C 	0.8209	0.7642	0.56969	-0.095
Mof_C 	C 	0.9916	0.8045	0.56153	-0.117
Mof_C 	C 	0.8665	0.8658	0.52839	-0.097
Mof_C 	C 	0.9728	0.7475	0.50876	-0.115
Mof_C 	C 	0.7429	0.5828	0.61571	0.069
Mof_C 	C 	0.8128	0.5857	0.63671	-0.313
Mof_C 	C 	0.8751	0.6599	0.635	0.042
Mof_C 	C 	0.8964	0.8149	0.63858	-0.044
Mof_C 	C 	0.848	0.8955	0.64503	-0.092
Mof_C 	C 	0.717	0.9749	0.63323	0.018
Mof_C 	C 	0.64	0.9802	0.61412	-0.268
Mof_C 	C 	0.5721	0.9107	0.61792	0.04
Mof_C 	C 	0.6333	0.7279	0.68001	-0.104
Mof_C 	C 	0.5985	0.7256	0.7352	-0.119
Mof_C 	C 	0.4699	0.6897	0.70222	-0.119
Mof_C 	C 	0.5387	0.5655	0.73086	-0.091
Mof_C 	C 	0.5731	0.5642	0.67777	-0.122
Mof_C 	C 	0.7053	0.5993	0.71245	-0.094
Mof_C 	C 	0.5361	0.4465	0.8038	0.035
Mof_C 	C 	0.502	0.5164	0.82128	-0.262
Mof_C 	C 	0.4736	0.5956	0.80731	0.026
Mof_C 	C 	0.3676	0.6592	0.77734	-0.044
Mof_C 	C 	0.2934	0.6393	0.75949	-0.112
Mof_C 	C 	0.2442	0.5395	0.72549	0.053
Mof_C 	C 	0.2705	0.4667	0.70788	-0.322
Mof_C 	C 	0.2872	0.3805	0.72127	0.04
Mof_C 	C 	0.2948	0.8249	0.94851	0
Mof_C 	C 	0.2207	0.8747	0.93548	-0.192
Mof_C 	C 	0.1514	0.9074	0.95402	-0.012
Mof_C 	C 	0.1146	0.0072	0.98936	-0.055
Mof_C 	C 	0.1542	0.0679	0.00887	-0.086
Mof_C 	C 	0.2763	0.0842	0.03989	-0.027
Mof_C 	C 	0.351	0.0401	0.05395	-0.144
Mof_C 	C 	0.4275	0.0139	0.03622	-0.012
Mof_C 	C 	0.192	0.8028	0.02047	-0.096
Mof_C 	C 	0.0721	0.8611	0.05262	-0.121
Mof_C 	C 	0.1791	0.7358	0.06969	-0.095
Mof_C 	C 	0.0084	0.6955	0.06153	-0.12
Mof_C 	C 	0.1335	0.6342	0.02839	-0.098
Mof_C 	C 	0.0272	0.7525	0.00876	-0.118
Mof_C 	C 	0.2571	0.9172	0.11571	0.069
Mof_C 	C 	0.1872	0.9143	0.13671	-0.313
Mof_C 	C 	0.1249	0.8401	0.135	0.042
Mof_C 	C 	0.1036	0.6851	0.13858	-0.044
Mof_C 	C 	0.152	0.6045	0.14503	-0.092
Mof_C 	C 	0.283	0.5251	0.13323	0.016
Mof_C 	C 	0.36	0.5198	0.11412	-0.268
Mof_C 	C 	0.4279	0.5893	0.11792	0.04
Mof_C 	C 	0.3667	0.7721	0.18001	-0.104
Mof_C 	C 	0.4015	0.7744	0.2352	-0.119
Mof_C 	C 	0.5301	0.8103	0.20222	-0.119
Mof_C 	C 	0.4613	0.9345	0.23086	-0.091
Mof_C 	C 	0.4269	0.9358	0.17777	-0.122
Mof_C 	C 	0.2947	0.9007	0.21245	-0.094
Mof_C 	C 	0.4639	0.0535	0.3038	0.035
Mof_C 	C 	0.498	0.9836	0.32128	-0.261
Mof_C 	C 	0.5264	0.9044	0.30731	0.026
Mof_C 	C 	0.6324	0.8408	0.27734	-0.044
Mof_C 	C 	0.7066	0.8607	0.25949	-0.112
Mof_C 	C 	0.7558	0.9605	0.22549	0.055
Mof_C 	C 	0.7295	0.0333	0.20788	-0.324
Mof_C 	C 	0.7128	0.1195	0.22127	0.04
Mof_C 	C 	0.2052	0.3249	0.05149	-0
Mof_C 	C 	0.2793	0.3747	0.06452	-0.191
Mof_C 	C 	0.3486	0.4074	0.04598	-0.013
Mof_C 	C 	0.3854	0.5072	0.01064	-0.06
Mof_C 	C 	0.3458	0.5679	0.99113	-0.083
Mof_C 	C 	0.2237	0.5842	0.96011	-0.026
Mof_C 	C 	0.149	0.5401	0.94605	-0.145
Mof_C 	C 	0.0725	0.5139	0.96378	-0.012
Mof_C 	C 	0.308	0.3028	0.97953	-0.096
Mof_C 	C 	0.4279	0.3611	0.94738	-0.12
Mof_C 	C 	0.3209	0.2358	0.93031	-0.095
Mof_C 	C 	0.4916	0.1955	0.93847	-0.117
Mof_C 	C 	0.3665	0.1342	0.97161	-0.098
Mof_C 	C 	0.4728	0.2525	0.99124	-0.117
Mof_C 	C 	0.2429	0.4172	0.88429	0.069
Mof_C 	C 	0.3128	0.4143	0.86329	-0.313
Mof_C 	C 	0.3751	0.3401	0.865	0.041
Mof_C 	C 	0.3964	0.1851	0.86142	-0.044
Mof_C 	C 	0.348	0.1045	0.85497	-0.092
Mof_C 	C 	0.217	0.0251	0.86677	0.016
Mof_C 	C 	0.14	0.0198	0.88588	-0.263
Mof_C 	C 	0.0721	0.0893	0.88208	0.039
Mof_C 	C 	0.1333	0.2721	0.81999	-0.103
Mof_C 	C 	0.0985	0.2744	0.7648	-0.118
Mof_C 	C 	0.9699	0.3103	0.79778	-0.123
Mof_C 	C 	0.0387	0.4345	0.76914	-0.09
Mof_C 	C 	0.0731	0.4358	0.82223	-0.122
Mof_C 	C 	0.2053	0.4007	0.78755	-0.095
Mof_C 	C 	0.0361	0.5535	0.6962	0.03
Mof_C 	C 	0.002	0.4836	0.67872	-0.241
Mof_C 	C 	0.9736	0.4044	0.69269	0.011
Mof_C 	C 	0.8676	0.3408	0.72266	-0.045
Mof_C 	C 	0.7934	0.3607	0.74051	-0.112
Mof_C 	C 	0.7442	0.4605	0.77451	0.053
Mof_C 	C 	0.7705	0.5333	0.79212	-0.321
Mof_C 	C 	0.7872	0.6195	0.77873	0.04
Mof_C 	C 	0.7948	0.1751	0.55149	-0
Mof_C 	C 	0.7207	0.1253	0.56452	-0.191
Mof_C 	C 	0.6514	0.0926	0.54598	-0.013
Mof_C 	C 	0.6146	0.9928	0.51064	-0.058
Mof_C 	C 	0.6542	0.9321	0.49113	-0.084
Mof_C 	C 	0.7763	0.9158	0.46011	-0.027
Mof_C 	C 	0.851	0.9599	0.44605	-0.144
Mof_C 	C 	0.9275	0.9861	0.46378	-0.008
Mof_C 	C 	0.692	0.1972	0.47953	-0.096
Mof_C 	C 	0.5721	0.1389	0.44738	-0.12
Mof_C 	C 	0.6791	0.2642	0.43031	-0.095
Mof_C 	C 	0.5084	0.3045	0.43847	-0.117
Mof_C 	C 	0.6335	0.3658	0.47161	-0.098
Mof_C 	C 	0.5272	0.2475	0.49124	-0.117
Mof_C 	C 	0.7571	0.0828	0.38429	0.069
Mof_C 	C 	0.6872	0.0857	0.36329	-0.313
Mof_C 	C 	0.6249	0.1599	0.365	0.041
Mof_C 	C 	0.6036	0.3149	0.36142	-0.044
Mof_C 	C 	0.652	0.3955	0.35497	-0.092
Mof_C 	C 	0.783	0.4749	0.36677	0.017
Mof_C 	C 	0.86	0.4802	0.38588	-0.268
Mof_C 	C 	0.9279	0.4107	0.38208	0.041
Mof_C 	C 	0.8667	0.2279	0.31999	-0.104
Mof_C 	C 	0.9015	0.2256	0.2648	-0.119
Mof_C 	C 	0.0301	0.1897	0.29778	-0.121
Mof_C 	C 	0.9613	0.0655	0.26914	-0.09
Mof_C 	C 	0.9269	0.0642	0.32223	-0.122
Mof_C 	C 	0.7947	0.0993	0.28755	-0.094
Mof_C 	C 	0.9639	0.9465	0.1962	0.038
Mof_C 	C 	0.998	0.0164	0.17872	-0.254
Mof_C 	C 	0.0264	0.0956	0.19269	0.021
Mof_C 	C 	0.1324	0.1592	0.22266	-0.044
Mof_C 	C 	0.2066	0.1393	0.24051	-0.112
Mof_C 	C 	0.2558	0.0395	0.27451	0.055
Mof_C 	C 	0.2295	0.9667	0.29212	-0.323
Mof_C 	C 	0.2128	0.8805	0.27873	0.04
Mof_N 	N 	0.6461	0.6164	0.46303	-0.377
Mof_N 	N 	0.8166	0.5243	0.47119	-0.317
Mof_N 	N 	0.7728	0.4751	0.52274	-0.264
Mof_N 	N 	0.5956	0.5599	0.51927	-0.328
Mof_N 	N 	0.7579	0.6566	0.50938	-0.204
Mof_N 	N 	0.9391	0.5697	0.56036	-0.09
Mof_N 	N 	0.776	0.77	0.58779	-0.207
Mof_N 	N 	0.0415	0.8374	0.57458	-0.107
Mof_N 	N 	0.8481	0.9328	0.52083	-0.211
Mof_N 	N 	0.0103	0.7488	0.48917	-0.101
Mof_N 	N 	0.6755	0.6494	0.61945	-0.374
Mof_N 	N 	0.836	0.7425	0.64254	-0.282
Mof_N 	N 	0.7714	0.9009	0.62756	-0.258
Mof_N 	N 	0.6023	0.8269	0.6082	-0.347
Mof_N 	N 	0.6582	0.7697	0.66303	-0.199
Mof_N 	N 	0.5972	0.7711	0.75294	-0.093
Mof_N 	N 	0.3987	0.7144	0.70138	-0.101
Mof_N 	N 	0.5002	0.5225	0.7451	-0.2
Mof_N 	N 	0.5637	0.5154	0.66087	-0.091
Mof_N 	N 	0.7722	0.5688	0.71696	-0.207
Mof_N 	N 	0.4663	0.4029	0.78866	-0.38
Mof_N 	N 	0.3928	0.5815	0.79158	-0.3
Mof_N 	N 	0.3172	0.5678	0.74176	-0.251
Mof_N 	N 	0.3696	0.3805	0.73696	-0.32
Mof_N 	N 	0.3539	0.8836	0.96303	-0.377
Mof_N 	N 	0.1834	0.9757	0.97119	-0.32
Mof_N 	N 	0.2272	0.0249	0.02274	-0.262
Mof_N 	N 	0.4044	0.9401	0.01927	-0.328
Mof_N 	N 	0.2421	0.8434	0.00938	-0.204
Mof_N 	N 	0.0609	0.9303	0.06036	-0.091
Mof_N 	N 	0.224	0.73	0.08779	-0.207
Mof_N 	N 	0.9585	0.6626	0.07458	-0.104
Mof_N 	N 	0.1519	0.5672	0.02083	-0.211
Mof_N 	N 	0.9897	0.7512	0.98917	-0.099
Mof_N 	N 	0.3245	0.8506	0.11945	-0.374
Mof_N 	N 	0.164	0.7575	0.14254	-0.282
Mof_N 	N 	0.2286	0.5991	0.12756	-0.257
Mof_N 	N 	0.3977	0.6731	0.1082	-0.347
Mof_N 	N 	0.3418	0.7303	0.16303	-0.199
Mof_N 	N 	0.4028	0.7289	0.25294	-0.093
Mof_N 	N 	0.6013	0.7856	0.20138	-0.101
Mof_N 	N 	0.4998	0.9775	0.2451	-0.2
Mof_N 	N 	0.4363	0.9846	0.16087	-0.091
Mof_N 	N 	0.2278	0.9312	0.21696	-0.207
Mof_N 	N 	0.5337	0.0971	0.28866	-0.38
Mof_N 	N 	0.6072	0.9185	0.29158	-0.3
Mof_N 	N 	0.6828	0.9322	0.24176	-0.251
Mof_N 	N 	0.6304	0.1195	0.23696	-0.32
Mof_N 	N 	0.1461	0.3836	0.03697	-0.377
Mof_N 	N 	0.3166	0.4757	0.02881	-0.317
Mof_N 	N 	0.2728	0.5249	0.97726	-0.263
Mof_N 	N 	0.0956	0.4401	0.98073	-0.328
Mof_N 	N 	0.2579	0.3434	0.99062	-0.204
Mof_N 	N 	0.4391	0.4303	0.93964	-0.09
Mof_N 	N 	0.276	0.23	0.91221	-0.207
Mof_N 	N 	0.5415	0.1626	0.92542	-0.106
Mof_N 	N 	0.3481	0.0672	0.97917	-0.211
Mof_N 	N 	0.5103	0.2512	0.01083	-0.1
Mof_N 	N 	0.1755	0.3506	0.88055	-0.374
Mof_N 	N 	0.336	0.2575	0.85746	-0.282
Mof_N 	N 	0.2714	0.0991	0.87244	-0.257
Mof_N 	N 	0.1023	0.1731	0.8918	-0.347
Mof_N 	N 	0.1582	0.2303	0.83697	-0.199
Mof_N 	N 	0.0972	0.2289	0.74706	-0.092
Mof_N 	N 	0.8987	0.2856	0.79862	-0.1
Mof_N 	N 	0.0002	0.4775	0.7549	-0.198
Mof_N 	N 	0.0637	0.4846	0.83913	-0.09
Mof_N 	N 	0.2722	0.4312	0.78304	-0.207
Mof_N 	N 	0.9663	0.5971	0.71134	-0.38
Mof_N 	N 	0.8928	0.4185	0.70842	-0.299
Mof_N 	N 	0.8172	0.4322	0.75824	-0.251
Mof_N 	N 	0.8696	0.6195	0.76304	-0.32
Mof_N 	N 	0.8539	0.1164	0.53697	-0.377
Mof_N 	N 	0.6834	0.0243	0.52881	-0.318
Mof_N 	N 	0.7272	0.9751	0.47726	-0.262
Mof_N 	N 	0.9044	0.0599	0.48073	-0.329
Mof_N 	N 	0.7421	0.1566	0.49062	-0.204
Mof_N 	N 	0.5609	0.0697	0.43964	-0.09
Mof_N 	N 	0.724	0.27	0.41221	-0.207
Mof_N 	N 	0.4585	0.3374	0.42542	-0.106
Mof_N 	N 	0.6519	0.4328	0.47917	-0.211
Mof_N 	N 	0.4897	0.2488	0.51083	-0.1
Mof_N 	N 	0.8245	0.1494	0.38055	-0.374
Mof_N 	N 	0.664	0.2425	0.35746	-0.282
Mof_N 	N 	0.7286	0.4009	0.37244	-0.257
Mof_N 	N 	0.8977	0.3269	0.3918	-0.347
Mof_N 	N 	0.8418	0.2697	0.33697	-0.199
Mof_N 	N 	0.9028	0.2711	0.24706	-0.093
Mof_N 	N 	0.1013	0.2144	0.29862	-0.101
Mof_N 	N 	0.9998	0.0225	0.2549	-0.199
Mof_N 	N 	0.9363	0.0154	0.33913	-0.091
Mof_N 	N 	0.7278	0.0688	0.28304	-0.207
Mof_N 	N 	0.0337	0.9029	0.21134	-0.382
Mof_N 	N 	0.1072	0.0815	0.20842	-0.299
Mof_N 	N 	0.1828	0.0678	0.25824	-0.251
Mof_N 	N 	0.1304	0.8805	0.26304	-0.32
_end
