data_functionalizedCrystal
_audit_creation_method	'EQeq! by Chris Wilmer'
_symmetry_space_group_name_H-M	'P1'
_symmetry_Int_Tables_number	1
_symmetry_cell_setting	triclinic
loop_
_symmetry_equiv_pos_as_xyz
  x,y,z
_cell_length_a	7.5943
_cell_length_b	7.8172
_cell_length_c	18.318
_cell_angle_alpha	90
_cell_angle_beta	99.111
_cell_angle_gamma	90
loop_
_atom_site_label
_atom_site_type_symbol
_atom_site_fract_x
_atom_site_fract_y
_atom_site_fract_z
_atom_site_charge
Mof_Fe	Fe	0.36475	0.2156	0.38359	0.871
Mof_Fe	Fe	0.7123	0.95835	0.43997	0.866
Mof_Fe	Fe	0.62826	0.08735	0.11549	0.876
Mof_Fe	Fe	0.2792	0.3494	0.05819	0.884
Mof_P 	P 	0.4497	0.7285	0.05537	0.576
Mof_P 	P 	0.5586	0.5752	0.44558	0.587
Mof_O 	O 	0.4313	0.4615	0.3938	-0.349
Mof_O 	O 	0.1883	0.0073	0.3649	-0.283
Mof_O 	O 	0.5769	0.0964	0.3403	-0.372
Mof_O 	O 	0.4965	0.5899	0.5207	-0.438
Mof_O 	O 	0.3014	0.2595	0.2614	-0.27
Mof_O 	O 	0.1386	0.2909	0.4456	-0.318
Mof_O 	O 	0.5762	0.7463	0.4109	-0.342
Mof_O 	O 	0.9421	0.896	0.3957	-0.279
Mof_O 	O 	0.879	0.1778	0.4674	-0.303
Mof_O 	O 	0.5819	0.835	0.1075	-0.35
Mof_O 	O 	0.8039	0.2874	0.1339	-0.3
Mof_O 	O 	0.4095	0.201	0.1572	-0.362
Mof_O 	O 	0.5152	0.7071	0.9813	-0.434
Mof_O 	O 	0.6898	0.042	0.2367	-0.272
Mof_O 	O 	0.8558	0.0157	0.0497	-0.312
Mof_O 	O 	0.4148	0.5572	0.0892	-0.342
Mof_O 	O 	0.0523	0.4052	0.1088	-0.272
Mof_O 	O 	0.1102	0.1378	0.0266	-0.305
Mof_O 	O 	0.2629	0.8231	0.0431	-0.443
Mof_H 	H 	0.2736	0.9174	0.0248	0.273
Mof_O 	O 	0.7514	0.4952	0.4561	-0.447
Mof_H 	H 	0.7496	0.4004	0.4751	0.287
Mof_C 	C 	0.9405	0.2905	0.1031	0.255
Mof_C 	C 	0.9718	0.1318	0.0554	0.266
Mof_C 	C 	0.0232	0.1769	0.4416	0.266
Mof_C 	C 	0.0527	0.0147	0.396	0.249
Mof_C 	C 	0.4134	0.198	0.2274	0.261
Mof_C 	C 	0.5778	0.1019	0.2721	0.279
Mof_Fe	Fe	0.63525	0.7156	0.61641	0.869
Mof_Fe	Fe	0.2877	0.45835	0.56003	0.882
Mof_Fe	Fe	0.37174	0.58735	0.88451	0.867
Mof_Fe	Fe	0.7208	0.8494	0.94181	0.872
Mof_P 	P 	0.5503	0.2285	0.94463	0.578
Mof_P 	P 	0.4414	0.0752	0.55442	0.602
Mof_O 	O 	0.5687	0.9615	0.6062	-0.356
Mof_O 	O 	0.8117	0.5073	0.6351	-0.282
Mof_O 	O 	0.4231	0.5964	0.6597	-0.377
Mof_O 	O 	0.5035	0.0899	0.4793	-0.433
Mof_O 	O 	0.6986	0.7595	0.7386	-0.271
Mof_O 	O 	0.8614	0.7909	0.5544	-0.32
Mof_O 	O 	0.4238	0.2463	0.5891	-0.34
Mof_O 	O 	0.0579	0.396	0.6043	-0.268
Mof_O 	O 	0.121	0.6778	0.5326	-0.312
Mof_O 	O 	0.4181	0.335	0.8925	-0.341
Mof_O 	O 	0.1961	0.7874	0.8661	-0.301
Mof_O 	O 	0.5905	0.701	0.8428	-0.363
Mof_O 	O 	0.4848	0.2071	0.0187	-0.433
Mof_O 	O 	0.3102	0.542	0.7633	-0.276
Mof_O 	O 	0.1442	0.5157	0.9503	-0.317
Mof_O 	O 	0.5852	0.0572	0.9108	-0.332
Mof_O 	O 	0.9477	0.9052	0.8912	-0.274
Mof_O 	O 	0.8898	0.6378	0.9734	-0.307
Mof_O 	O 	0.7371	0.3231	0.9569	-0.439
Mof_H 	H 	0.7264	0.4174	0.9752	0.277
Mof_O 	O 	0.2486	0.9952	0.5439	-0.459
Mof_H 	H 	0.2504	0.9004	0.5249	0.288
Mof_C 	C 	0.0595	0.7905	0.8969	0.254
Mof_C 	C 	0.0282	0.6318	0.9446	0.264
Mof_C 	C 	0.9768	0.6769	0.5584	0.271
Mof_C 	C 	0.9473	0.5147	0.604	0.236
Mof_C 	C 	0.5866	0.698	0.7726	0.259
Mof_C 	C 	0.4222	0.6019	0.7279	0.279
_end
