data_functionalizedCrystal
_audit_creation_method	'EQeq! by Chris Wilmer'
_symmetry_space_group_name_H-M	'P1'
_symmetry_Int_Tables_number	1
_symmetry_cell_setting	triclinic
loop_
_symmetry_equiv_pos_as_xyz
  x,y,z
_cell_length_a	16.135
_cell_length_b	26.792
_cell_length_c	18.63
_cell_angle_alpha	90
_cell_angle_beta	110.57
_cell_angle_gamma	90
loop_
_atom_site_label
_atom_site_type_symbol
_atom_site_fract_x
_atom_site_fract_y
_atom_site_fract_z
_atom_site_charge
Mof_Ca	Ca	0.95226	0.43205	0.97084	1.452
Mof_Ca	Ca	0.27871	0.93699	0.44478	1.371
Mof_O 	O 	0.06307	0.49387	0.95642	-0.943
Mof_H 	H 	0.1141	0.4817	0.9762	0.386
Mof_H 	H 	0.0545	0.4973	0.9095	0.348
Mof_O 	O 	0.85245	0.36484	0.9087	-0.443
Mof_O 	O 	0.78752	0.41468	0.96482	-0.519
Mof_O 	O 	0.02382	0.38481	0.89772	-0.449
Mof_O 	O 	0.93898	0.32073	0.8368	-0.502
Mof_H 	H 	0.9108	0.3334	0.862	0.3
Mof_O 	O 	0.24076	0.01694	0.48378	-0.447
Mof_O 	O 	0.38053	0.99525	0.54573	-0.483
Mof_O 	O 	0.3759	0.99385	0.38663	-0.503
Mof_O 	O 	0.23427	0.97678	0.32494	-0.442
Mof_O 	O 	0.97041	0.11738	0.58757	-0.392
Mof_O 	O 	0.0843	0.07399	0.58407	-0.401
Mof_O 	O 	0.50263	0.41519	0.99554	-0.469
Mof_O 	O 	0.62665	0.37679	0.06676	-0.474
Mof_C 	C 	0.4521	0.2724	0.7895	0.022
Mof_C 	C 	0.3774	0.29126	0.8017	-0.088
Mof_H 	H 	0.3836	0.3197	0.8336	0.059
Mof_C 	C 	0.2942	0.26948	0.7684	0.027
Mof_C 	C 	0.2866	0.22717	0.7232	-0.094
Mof_H 	H 	0.2303	0.2121	0.6998	0.064
Mof_C 	C 	0.3604	0.20651	0.7116	0.029
Mof_C 	C 	0.4424	0.22993	0.7443	-0.091
Mof_H 	H 	0.4926	0.2166	0.7357	0.059
Mof_C 	C 	0.5389	0.2991	0.8236	0.066
Mof_C 	C 	0.6184	0.27674	0.827	-0.133
Mof_H 	H 	0.6182	0.2438	0.8082	0.073
Mof_C 	C 	0.6977	0.30259	0.8577	0.077
Mof_H 	H 	0.7511	0.2874	0.8583	0.017
Mof_C 	C 	0.7001	0.34999	0.8873	-0.184
Mof_C 	C 	0.621	0.37187	0.884	0.09
Mof_H 	H 	0.6213	0.4045	0.9039	-0.03
Mof_C 	C 	0.5423	0.34685	0.8524	-0.143
Mof_H 	H 	0.4888	0.3628	0.8503	0.075
Mof_C 	C 	0.7848	0.37835	0.9227	0.406
Mof_C 	C 	0.2174	0.29015	0.7853	0.054
Mof_C 	C 	0.2156	0.34047	0.8045	-0.12
Mof_H 	H 	0.2608	0.3622	0.8015	0.073
Mof_C 	C 	0.149	0.35922	0.8279	0.059
Mof_H 	H 	0.1499	0.3932	0.8429	0.016
Mof_C 	C 	0.0805	0.32774	0.8291	-0.149
Mof_C 	C 	0.0791	0.27795	0.8056	0.064
Mof_H 	H 	0.0312	0.2568	0.8042	0.031
Mof_C 	C 	0.1473	0.25958	0.7845	-0.122
Mof_H 	H 	0.1463	0.2257	0.7692	0.076
Mof_C 	C 	0.0123	0.34747	0.8579	0.433
Mof_C 	C 	0.3504	0.16058	0.6647	0.051
Mof_C 	C 	0.2726	0.15167	0.602	-0.114
Mof_H 	H 	0.2267	0.1759	0.5882	0.071
Mof_C 	C 	0.2618	0.10813	0.5602	0.055
Mof_H 	H 	0.2087	0.1026	0.5179	0.019
Mof_C 	C 	0.3283	0.07221	0.5796	-0.147
Mof_C 	C 	0.4068	0.081	0.6414	0.055
Mof_H 	H 	0.4532	0.0571	0.6541	-0.003
Mof_C 	C 	0.4172	0.12438	0.6839	-0.12
Mof_H 	H 	0.4701	0.1297	0.7265	0.067
Mof_C 	C 	0.3156	0.02585	0.5335	0.339
Mof_C 	C 	0.2953	0.1261	0.0765	0.062
Mof_C 	C 	0.2414	0.11279	0.0028	-0.188
Mof_H 	H 	0.2045	0.0842	0.9953	0.106
Mof_C 	C 	0.2408	0.14091	0.9393	0.085
Mof_C 	C 	0.2934	0.18259	0.9509	-0.1
Mof_H 	H 	0.2941	0.2013	0.9078	0.071
Mof_C 	C 	0.3461	0.19827	0.0247	0.028
Mof_C 	C 	0.3473	0.1694	0.0869	-0.115
Mof_H 	H 	0.3838	0.1791	0.1372	0.072
Mof_C 	C 	0.2978	0.09477	0.1424	0.037
Mof_C 	C 	0.3764	0.08721	0.2047	-0.127
Mof_H 	H 	0.4291	0.1032	0.205	0.069
Mof_C 	C 	0.3792	0.0573	0.2655	0.071
Mof_H 	H 	0.4332	0.0535	0.3075	-0.007
Mof_C 	C 	0.3036	0.03261	0.2658	-0.181
Mof_C 	C 	0.2237	0.04046	0.2039	0.063
Mof_H 	H 	0.1711	0.0245	0.2038	0.009
Mof_C 	C 	0.221	0.07063	0.1444	-0.121
Mof_H 	H 	0.1664	0.0755	0.1034	0.061
Mof_C 	C 	0.3041	0.99879	0.3298	0.425
Mof_C 	C 	0.1889	0.12608	0.8594	0.02
Mof_C 	C 	0.0975	0.13069	0.8306	-0.1
Mof_H 	H 	0.0668	0.1398	0.8637	0.066
Mof_C 	C 	0.0506	0.12196	0.7531	0.032
Mof_H 	H 	0.9881	0.1255	0.7334	0.012
Mof_C 	C 	0.095	0.10815	0.7046	-0.114
Mof_C 	C 	0.1852	0.10246	0.7336	0.02
Mof_H 	H 	0.2155	0.0913	0.7011	0.031
Mof_C 	C 	0.2324	0.11287	0.8101	-0.094
Mof_H 	H 	0.2952	0.1109	0.8288	0.063
Mof_C 	C 	0.0465	0.09917	0.6205	0.313
Mof_C 	C 	0.3979	0.24495	0.032	0.032
Mof_C 	C 	0.3571	0.2863	0.9886	-0.101
Mof_H 	H 	0.2963	0.2845	0.9573	0.074
Mof_C 	C 	0.4034	0.32957	0.9904	0.088
Mof_H 	H 	0.3742	0.3577	0.9614	0.01
Mof_C 	C 	0.4936	0.33233	0.035	-0.179
Mof_C 	C 	0.5342	0.29118	0.0794	0.067
Mof_H 	H 	0.5951	0.2929	0.1105	0.013
Mof_C 	C 	0.4875	0.24818	0.0788	-0.121
Mof_H 	H 	0.5158	0.2207	0.11	0.069
Mof_C 	C 	0.5446	0.3782	0.0324	0.415
Mof_Ca	Ca	0.04774	0.93205	0.52916	1.447
Mof_Ca	Ca	0.72129	0.43699	0.05522	1.33
Mof_O 	O 	0.93693	0.99387	0.54358	-0.947
Mof_H 	H 	0.8859	0.9817	0.5238	0.384
Mof_H 	H 	0.9455	0.9973	0.5905	0.354
Mof_O 	O 	0.14755	0.86484	0.5913	-0.444
Mof_O 	O 	0.21248	0.91468	0.53518	-0.528
Mof_O 	O 	0.97618	0.88481	0.60228	-0.451
Mof_O 	O 	0.06102	0.82073	0.6632	-0.494
Mof_H 	H 	0.0892	0.8334	0.638	0.299
Mof_O 	O 	0.75924	0.51694	0.01622	-0.462
Mof_O 	O 	0.61947	0.49525	0.95427	-0.504
Mof_O 	O 	0.6241	0.49385	0.11337	-0.51
Mof_O 	O 	0.76573	0.47678	0.17506	-0.442
Mof_O 	O 	0.02959	0.61738	0.91243	-0.373
Mof_O 	O 	0.9157	0.57399	0.91593	-0.388
Mof_O 	O 	0.49737	0.91519	0.50446	-0.488
Mof_O 	O 	0.37335	0.87679	0.43324	-0.479
Mof_C 	C 	0.5479	0.7724	0.7105	0.02
Mof_C 	C 	0.6226	0.79126	0.6983	-0.088
Mof_H 	H 	0.6164	0.8197	0.6664	0.058
Mof_C 	C 	0.7058	0.76948	0.7316	0.027
Mof_C 	C 	0.7134	0.72717	0.7768	-0.092
Mof_H 	H 	0.7697	0.7121	0.8002	0.064
Mof_C 	C 	0.6396	0.70651	0.7884	0.027
Mof_C 	C 	0.5576	0.72993	0.7557	-0.089
Mof_H 	H 	0.5074	0.7166	0.7643	0.059
Mof_C 	C 	0.4611	0.7991	0.6764	0.066
Mof_C 	C 	0.3816	0.77674	0.673	-0.135
Mof_H 	H 	0.3818	0.7438	0.6918	0.073
Mof_C 	C 	0.3023	0.80259	0.6423	0.079
Mof_H 	H 	0.2489	0.7874	0.6417	0.016
Mof_C 	C 	0.2999	0.84999	0.6127	-0.187
Mof_C 	C 	0.379	0.87187	0.616	0.092
Mof_H 	H 	0.3787	0.9045	0.5961	-0.033
Mof_C 	C 	0.4577	0.84685	0.6476	-0.146
Mof_H 	H 	0.5112	0.8628	0.6497	0.076
Mof_C 	C 	0.2152	0.87835	0.5773	0.408
Mof_C 	C 	0.7826	0.79015	0.7147	0.053
Mof_C 	C 	0.7844	0.84047	0.6955	-0.119
Mof_H 	H 	0.7392	0.8622	0.6985	0.072
Mof_C 	C 	0.851	0.85922	0.6721	0.057
Mof_H 	H 	0.8501	0.8932	0.6571	0.017
Mof_C 	C 	0.9195	0.82774	0.6709	-0.147
Mof_C 	C 	0.9209	0.77795	0.6944	0.062
Mof_H 	H 	0.9688	0.7568	0.6958	0.03
Mof_C 	C 	0.8527	0.75958	0.7155	-0.121
Mof_H 	H 	0.8537	0.7257	0.7308	0.075
Mof_C 	C 	0.9877	0.84747	0.6421	0.425
Mof_C 	C 	0.6496	0.66058	0.8353	0.057
Mof_C 	C 	0.7274	0.65167	0.898	-0.119
Mof_H 	H 	0.7733	0.6759	0.9118	0.076
Mof_C 	C 	0.7382	0.60813	0.9398	0.068
Mof_H 	H 	0.7913	0.6026	0.9821	0.022
Mof_C 	C 	0.6717	0.57221	0.9204	-0.16
Mof_C 	C 	0.5932	0.581	0.8586	0.068
Mof_H 	H 	0.5468	0.5571	0.8459	-0.001
Mof_C 	C 	0.5828	0.62438	0.8161	-0.126
Mof_H 	H 	0.5299	0.6297	0.7735	0.07
Mof_C 	C 	0.6844	0.52585	0.9665	0.392
Mof_C 	C 	0.7047	0.6261	0.4235	0.033
Mof_C 	C 	0.7586	0.61279	0.4972	-0.101
Mof_H 	H 	0.7955	0.5842	0.5047	0.063
Mof_C 	C 	0.7592	0.64091	0.5607	0.039
Mof_C 	C 	0.7066	0.68259	0.5491	-0.102
Mof_H 	H 	0.7059	0.7013	0.5922	0.069
Mof_C 	C 	0.6539	0.69827	0.4753	0.032
Mof_C 	C 	0.6527	0.6694	0.4131	-0.097
Mof_H 	H 	0.6162	0.6791	0.3628	0.067
Mof_C 	C 	0.7022	0.59477	0.3576	0.051
Mof_C 	C 	0.6236	0.58721	0.2953	-0.126
Mof_H 	H 	0.5709	0.6032	0.295	0.072
Mof_C 	C 	0.6208	0.5573	0.2345	0.064
Mof_H 	H 	0.5668	0.5535	0.1925	0
Mof_C 	C 	0.6964	0.53261	0.2342	-0.154
Mof_C 	C 	0.7763	0.54046	0.2961	0.056
Mof_H 	H 	0.8289	0.5245	0.2962	0.019
Mof_C 	C 	0.779	0.57063	0.3556	-0.119
Mof_H 	H 	0.8336	0.5755	0.3966	0.068
Mof_C 	C 	0.6959	0.49879	0.1702	0.401
Mof_C 	C 	0.8111	0.62608	0.6406	0.032
Mof_C 	C 	0.9025	0.63069	0.6694	-0.099
Mof_H 	H 	0.9332	0.6398	0.6363	0.063
Mof_C 	C 	0.9494	0.62196	0.7469	0.016
Mof_H 	H 	0.0119	0.6255	0.7666	0.024
Mof_C 	C 	0.905	0.60815	0.7954	-0.104
Mof_C 	C 	0.8148	0.60246	0.7664	0.019
Mof_H 	H 	0.7845	0.5913	0.7989	0.033
Mof_C 	C 	0.7676	0.61287	0.6899	-0.098
Mof_H 	H 	0.7048	0.6109	0.6712	0.064
Mof_C 	C 	0.9535	0.59917	0.8795	0.3
Mof_C 	C 	0.6021	0.74495	0.468	0.059
Mof_C 	C 	0.6429	0.7863	0.5114	-0.128
Mof_H 	H 	0.7037	0.7845	0.5427	0.078
Mof_C 	C 	0.5966	0.82957	0.5096	0.072
Mof_H 	H 	0.6258	0.8577	0.5386	0.011
Mof_C 	C 	0.5064	0.83233	0.465	-0.165
Mof_C 	C 	0.4658	0.79118	0.4206	0.07
Mof_H 	H 	0.4049	0.7929	0.3895	0.014
Mof_C 	C 	0.5125	0.74818	0.4212	-0.128
Mof_H 	H 	0.4842	0.7207	0.39	0.073
Mof_C 	C 	0.4554	0.8782	0.4676	0.438
Mof_Ca	Ca	0.04774	0.56795	0.02916	1.394
Mof_Ca	Ca	0.72129	0.06301	0.55522	1.342
Mof_O 	O 	0.93693	0.50613	0.04358	-0.963
Mof_H 	H 	0.8859	0.5183	0.0238	0.38
Mof_H 	H 	0.9455	0.5027	0.0905	0.351
Mof_O 	O 	0.14755	0.63516	0.0913	-0.446
Mof_O 	O 	0.21248	0.58532	0.03518	-0.542
Mof_O 	O 	0.97618	0.61519	0.10228	-0.451
Mof_O 	O 	0.06102	0.67927	0.1632	-0.499
Mof_H 	H 	0.0892	0.6666	0.138	0.299
Mof_O 	O 	0.75924	0.98306	0.51622	-0.438
Mof_O 	O 	0.61947	0.00475	0.45427	-0.531
Mof_O 	O 	0.6241	0.00615	0.61337	-0.51
Mof_O 	O 	0.76573	0.02322	0.67506	-0.444
Mof_O 	O 	0.02959	0.88262	0.41243	-0.39
Mof_O 	O 	0.9157	0.92601	0.41593	-0.397
Mof_O 	O 	0.49737	0.58481	0.00446	-0.517
Mof_O 	O 	0.37335	0.62321	0.93324	-0.482
Mof_C 	C 	0.5479	0.7276	0.2105	0.017
Mof_C 	C 	0.6226	0.70874	0.1983	-0.087
Mof_H 	H 	0.6164	0.6803	0.1664	0.057
Mof_C 	C 	0.7058	0.73052	0.2316	0.025
Mof_C 	C 	0.7134	0.77283	0.2768	-0.092
Mof_H 	H 	0.7697	0.7879	0.3002	0.062
Mof_C 	C 	0.6396	0.79349	0.2884	0.025
Mof_C 	C 	0.5576	0.77007	0.2557	-0.089
Mof_H 	H 	0.5074	0.7834	0.2643	0.058
Mof_C 	C 	0.4611	0.7009	0.1764	0.067
Mof_C 	C 	0.3816	0.72326	0.173	-0.14
Mof_H 	H 	0.3818	0.7562	0.1918	0.074
Mof_C 	C 	0.3023	0.69741	0.1423	0.08
Mof_H 	H 	0.2489	0.7126	0.1417	0.013
Mof_C 	C 	0.2999	0.65001	0.1127	-0.195
Mof_C 	C 	0.379	0.62813	0.116	0.093
Mof_H 	H 	0.3787	0.5955	0.0961	-0.039
Mof_C 	C 	0.4577	0.65315	0.1476	-0.151
Mof_H 	H 	0.5112	0.6372	0.1497	0.076
Mof_C 	C 	0.2152	0.62165	0.0773	0.41
Mof_C 	C 	0.7826	0.70985	0.2147	0.054
Mof_C 	C 	0.7844	0.65953	0.1955	-0.121
Mof_H 	H 	0.7392	0.6378	0.1985	0.072
Mof_C 	C 	0.851	0.64078	0.1721	0.057
Mof_H 	H 	0.8501	0.6068	0.1571	0.014
Mof_C 	C 	0.9195	0.67226	0.1709	-0.151
Mof_C 	C 	0.9209	0.72205	0.1944	0.062
Mof_H 	H 	0.9688	0.7432	0.1958	0.029
Mof_C 	C 	0.8527	0.74042	0.2155	-0.123
Mof_H 	H 	0.8537	0.7743	0.2308	0.075
Mof_C 	C 	0.9877	0.65253	0.1421	0.426
Mof_C 	C 	0.6496	0.83942	0.3353	0.057
Mof_C 	C 	0.7274	0.84833	0.398	-0.122
Mof_H 	H 	0.7733	0.8241	0.4118	0.074
Mof_C 	C 	0.7382	0.89187	0.4398	0.067
Mof_H 	H 	0.7913	0.8974	0.4821	0.015
Mof_C 	C 	0.6717	0.92779	0.4204	-0.163
Mof_C 	C 	0.5932	0.919	0.3586	0.069
Mof_H 	H 	0.5468	0.9429	0.3459	0.003
Mof_C 	C 	0.5828	0.87562	0.3161	-0.127
Mof_H 	H 	0.5299	0.8703	0.2735	0.071
Mof_C 	C 	0.6844	0.97415	0.4665	0.396
Mof_C 	C 	0.7047	0.8739	0.9235	0.008
Mof_C 	C 	0.7586	0.88721	0.9972	-0.024
Mof_H 	H 	0.7955	0.9158	0.0047	0.027
Mof_C 	C 	0.7592	0.85909	0.0607	-0.004
Mof_C 	C 	0.7066	0.81741	0.0491	-0.103
Mof_H 	H 	0.7059	0.7987	0.0922	0.067
Mof_C 	C 	0.6539	0.80173	0.9753	0.035
Mof_C 	C 	0.6527	0.8306	0.9131	-0.081
Mof_H 	H 	0.6162	0.8209	0.8628	0.062
Mof_C 	C 	0.7022	0.90523	0.8576	0.061
Mof_C 	C 	0.6236	0.91279	0.7953	-0.122
Mof_H 	H 	0.5709	0.8968	0.795	0.073
Mof_C 	C 	0.6208	0.9427	0.7345	0.053
Mof_H 	H 	0.5668	0.9465	0.6925	0.01
Mof_C 	C 	0.6964	0.96739	0.7342	-0.123
Mof_C 	C 	0.7763	0.95954	0.7961	0.047
Mof_H 	H 	0.8289	0.9755	0.7962	0.031
Mof_C 	C 	0.779	0.92937	0.8556	-0.114
Mof_H 	H 	0.8336	0.9245	0.8966	0.074
Mof_C 	C 	0.6959	0.00121	0.6702	0.373
Mof_C 	C 	0.8111	0.87392	0.1406	0.056
Mof_C 	C 	0.9025	0.86931	0.1694	-0.118
Mof_H 	H 	0.9332	0.8602	0.1363	0.069
Mof_C 	C 	0.9494	0.87804	0.2469	0.038
Mof_H 	H 	0.0119	0.8745	0.2666	0.014
Mof_C 	C 	0.905	0.89185	0.2954	-0.117
Mof_C 	C 	0.8148	0.89754	0.2664	0.034
Mof_H 	H 	0.7845	0.9087	0.2989	0.03
Mof_C 	C 	0.7676	0.88713	0.1899	-0.115
Mof_H 	H 	0.7048	0.8891	0.1712	0.07
Mof_C 	C 	0.9535	0.90083	0.3795	0.313
Mof_C 	C 	0.6021	0.75505	0.968	0.084
Mof_C 	C 	0.6429	0.7137	0.0114	-0.154
Mof_H 	H 	0.7037	0.7155	0.0427	0.082
Mof_C 	C 	0.5966	0.67043	0.0096	0.058
Mof_H 	H 	0.6258	0.6423	0.0386	0.011
Mof_C 	C 	0.5064	0.66767	0.965	-0.153
Mof_C 	C 	0.4658	0.70882	0.9206	0.075
Mof_H 	H 	0.4049	0.7071	0.8895	0.015
Mof_C 	C 	0.5125	0.75182	0.9212	-0.134
Mof_H 	H 	0.4842	0.7793	0.89	0.078
Mof_C 	C 	0.4554	0.6218	0.9676	0.462
Mof_Ca	Ca	0.95226	0.06795	0.47084	1.404
Mof_Ca	Ca	0.27871	0.56301	0.94478	1.387
Mof_O 	O 	0.06307	0.00613	0.45642	-0.963
Mof_H 	H 	0.1141	0.0183	0.4762	0.381
Mof_H 	H 	0.0545	0.0027	0.4095	0.344
Mof_O 	O 	0.85245	0.13516	0.4087	-0.445
Mof_O 	O 	0.78752	0.08532	0.46482	-0.533
Mof_O 	O 	0.02382	0.11519	0.39772	-0.45
Mof_O 	O 	0.93898	0.17927	0.3368	-0.502
Mof_H 	H 	0.9108	0.1666	0.362	0.299
Mof_O 	O 	0.24076	0.48306	0.98378	-0.42
Mof_O 	O 	0.38053	0.50475	0.04573	-0.51
Mof_O 	O 	0.3759	0.50615	0.88663	-0.504
Mof_O 	O 	0.23427	0.52322	0.82494	-0.445
Mof_O 	O 	0.97041	0.38262	0.08757	-0.399
Mof_O 	O 	0.0843	0.42601	0.08407	-0.408
Mof_O 	O 	0.50263	0.08481	0.49554	-0.496
Mof_O 	O 	0.62665	0.12321	0.56676	-0.477
Mof_C 	C 	0.4521	0.2276	0.2895	0.019
Mof_C 	C 	0.3774	0.20874	0.3017	-0.088
Mof_H 	H 	0.3836	0.1803	0.3336	0.058
Mof_C 	C 	0.2942	0.23052	0.2684	0.025
Mof_C 	C 	0.2866	0.27283	0.2232	-0.093
Mof_H 	H 	0.2303	0.2879	0.1998	0.062
Mof_C 	C 	0.3604	0.29349	0.2116	0.028
Mof_C 	C 	0.4424	0.27007	0.2443	-0.09
Mof_H 	H 	0.4926	0.2834	0.2357	0.058
Mof_C 	C 	0.5389	0.2009	0.3236	0.066
Mof_C 	C 	0.6184	0.22326	0.327	-0.137
Mof_H 	H 	0.6182	0.2562	0.3082	0.073
Mof_C 	C 	0.6977	0.19741	0.3577	0.078
Mof_H 	H 	0.7511	0.2126	0.3583	0.014
Mof_C 	C 	0.7001	0.15001	0.3873	-0.19
Mof_C 	C 	0.621	0.12813	0.384	0.091
Mof_H 	H 	0.6213	0.0955	0.4039	-0.035
Mof_C 	C 	0.5423	0.15315	0.3524	-0.147
Mof_H 	H 	0.4888	0.1372	0.3503	0.075
Mof_C 	C 	0.7848	0.12165	0.4227	0.408
Mof_C 	C 	0.2174	0.20985	0.2853	0.054
Mof_C 	C 	0.2156	0.15953	0.3045	-0.122
Mof_H 	H 	0.2608	0.1378	0.3015	0.072
Mof_C 	C 	0.149	0.14078	0.3279	0.058
Mof_H 	H 	0.1499	0.1068	0.3429	0.012
Mof_C 	C 	0.0805	0.17226	0.3291	-0.151
Mof_C 	C 	0.0791	0.22205	0.3056	0.063
Mof_H 	H 	0.0312	0.2432	0.3042	0.029
Mof_C 	C 	0.1473	0.24042	0.2845	-0.124
Mof_H 	H 	0.1463	0.2743	0.2692	0.075
Mof_C 	C 	0.0123	0.15253	0.3579	0.428
Mof_C 	C 	0.3504	0.33942	0.1647	0.05
Mof_C 	C 	0.2726	0.34833	0.102	-0.117
Mof_H 	H 	0.2267	0.3241	0.0882	0.068
Mof_C 	C 	0.2618	0.39187	0.0602	0.053
Mof_H 	H 	0.2087	0.3974	0.0179	0.011
Mof_C 	C 	0.3283	0.42779	0.0796	-0.149
Mof_C 	C 	0.4068	0.419	0.1414	0.055
Mof_H 	H 	0.4532	0.4429	0.1541	0.002
Mof_C 	C 	0.4172	0.37562	0.1839	-0.12
Mof_H 	H 	0.4701	0.3703	0.2265	0.068
Mof_C 	C 	0.3156	0.47415	0.0335	0.339
Mof_C 	C 	0.2953	0.3739	0.5765	0.032
Mof_C 	C 	0.2414	0.38721	0.5028	-0.099
Mof_H 	H 	0.2045	0.4158	0.4953	0.063
Mof_C 	C 	0.2408	0.35909	0.4393	0.037
Mof_C 	C 	0.2934	0.31741	0.4509	-0.1
Mof_H 	H 	0.2941	0.2987	0.4078	0.069
Mof_C 	C 	0.3461	0.30173	0.5247	0.031
Mof_C 	C 	0.3473	0.3306	0.5869	-0.096
Mof_H 	H 	0.3838	0.3209	0.6372	0.066
Mof_C 	C 	0.2978	0.40523	0.6424	0.051
Mof_C 	C 	0.3764	0.41279	0.7047	-0.125
Mof_H 	H 	0.4291	0.3968	0.705	0.071
Mof_C 	C 	0.3792	0.4427	0.7655	0.063
Mof_H 	H 	0.4332	0.4465	0.8075	0.002
Mof_C 	C 	0.3036	0.46739	0.7658	-0.152
Mof_C 	C 	0.2237	0.45954	0.7039	0.055
Mof_H 	H 	0.1711	0.4755	0.7038	0.02
Mof_C 	C 	0.221	0.42937	0.6444	-0.119
Mof_H 	H 	0.1664	0.4245	0.6034	0.069
Mof_C 	C 	0.3041	0.50121	0.8298	0.4
Mof_C 	C 	0.1889	0.37392	0.3594	0.039
Mof_C 	C 	0.0975	0.36931	0.3306	-0.108
Mof_H 	H 	0.0668	0.3602	0.3637	0.067
Mof_C 	C 	0.0506	0.37804	0.2531	0.031
Mof_H 	H 	0.9881	0.3745	0.2334	0.015
Mof_C 	C 	0.095	0.39185	0.2046	-0.115
Mof_C 	C 	0.1852	0.39754	0.2336	0.026
Mof_H 	H 	0.2155	0.4087	0.2011	0.031
Mof_C 	C 	0.2324	0.38713	0.3101	-0.105
Mof_H 	H 	0.2952	0.3891	0.3288	0.067
Mof_C 	C 	0.0465	0.40083	0.1205	0.312
Mof_C 	C 	0.3979	0.25505	0.532	0.06
Mof_C 	C 	0.3571	0.2137	0.4886	-0.13
Mof_H 	H 	0.2963	0.2155	0.4573	0.079
Mof_C 	C 	0.4034	0.17043	0.4904	0.074
Mof_H 	H 	0.3742	0.1423	0.4614	0.009
Mof_C 	C 	0.4936	0.16767	0.535	-0.166
Mof_C 	C 	0.5342	0.20882	0.5794	0.072
Mof_H 	H 	0.5951	0.2071	0.6105	0.014
Mof_C 	C 	0.4875	0.25182	0.5788	-0.129
Mof_H 	H 	0.5158	0.2793	0.61	0.074
Mof_C 	C 	0.5446	0.1218	0.5324	0.439
Mof_Ca	Ca	0.5	3.34792e-33	0.5	1.482
Mof_Ca	Ca	0.5	0.5	-0	1.486
_end
