data_functionalizedCrystal
_audit_creation_method	'EQeq! by Chris Wilmer'
_symmetry_space_group_name_H-M	'P1'
_symmetry_Int_Tables_number	1
_symmetry_cell_setting	triclinic
loop_
_symmetry_equiv_pos_as_xyz
  x,y,z
_cell_length_a	13.092
_cell_length_b	14.49
_cell_length_c	12.64
_cell_angle_alpha	90
_cell_angle_beta	116.85
_cell_angle_gamma	90
loop_
_atom_site_label
_atom_site_type_symbol
_atom_site_fract_x
_atom_site_fract_y
_atom_site_fract_z
_atom_site_charge
Mof_Mn	Mn	0.27135	0.44289	0.24477	0.948
Mof_O 	O 	0.9715	0.0569	0.3283	-0.334
Mof_O 	O 	0.8184	0.001	0.1717	-0.395
Mof_O 	O 	0.1928	0.3047	0.2548	-0.328
Mof_O 	O 	0.1164	0.3817	0.0869	-0.425
Mof_O 	O 	0.1442	0.5735	0.0055	-0.402
Mof_O 	O 	0.3079	0.5609	0.1722	-0.388
Mof_O 	O 	0.5839	0.8351	0.2554	-0.288
Mof_O 	O 	0.574	0.9109	0.0993	-0.318
Mof_C 	C 	0.9358	0.1059	0.135	-0.035
Mof_C 	C 	0.014	0.1776	0.1779	-0.035
Mof_H 	H 	0.0554	0.1865	0.2592	0.052
Mof_C 	C 	0.0314	0.2367	0.0998	-0.164
Mof_C 	C 	0.9718	0.223	0.978	0.114
Mof_H 	H 	0.9826	0.2624	0.9257	0.027
Mof_C 	C 	0.8952	0.1486	0.9356	-0.087
Mof_H 	H 	0.8556	0.1376	0.8545	0.069
Mof_C 	C 	0.8783	0.0917	0.0136	-0.008
Mof_H 	H 	0.8272	0.0426	0.9841	0.058
Mof_C 	C 	0.9088	0.049	0.2192	0.351
Mof_C 	C 	0.118	0.3126	0.1504	0.345
Mof_C 	C 	0.2934	0.6747	0.0303	-0.155
Mof_C 	C 	0.3919	0.7229	0.1076	0.068
Mof_H 	H 	0.429	0.707	0.1875	0.039
Mof_C 	C 	0.4345	0.7945	0.0653	-0.113
Mof_C 	C 	0.3799	0.8161	0.944	0.074
Mof_H 	H 	0.4089	0.8629	0.915	0.045
Mof_C 	C 	0.2834	0.7682	0.8675	-0.131
Mof_H 	H 	0.248	0.7821	0.787	0.083
Mof_C 	C 	0.2395	0.6989	0.9116	0.088
Mof_H 	H 	0.1728	0.6685	0.8605	0.009
Mof_C 	C 	0.2437	0.5977	0.0719	0.397
Mof_C 	C 	0.5377	0.8491	0.1469	0.315
Mof_Mn	Mn	0.72865	0.94289	0.25523	1.006
Mof_O 	O 	0.0285	0.5569	0.1717	-0.393
Mof_O 	O 	0.1816	0.501	0.3283	-0.384
Mof_O 	O 	0.8072	0.8047	0.2452	-0.31
Mof_O 	O 	0.8836	0.8817	0.4131	-0.363
Mof_O 	O 	0.8558	0.0735	0.4945	-0.363
Mof_O 	O 	0.6921	0.0609	0.3278	-0.404
Mof_O 	O 	0.4161	0.3351	0.2446	-0.295
Mof_O 	O 	0.426	0.4109	0.4007	-0.321
Mof_C 	C 	0.0642	0.6059	0.365	-0.176
Mof_C 	C 	0.986	0.6776	0.3221	0.105
Mof_H 	H 	0.9446	0.6865	0.2408	0.04
Mof_C 	C 	0.9686	0.7367	0.4002	-0.044
Mof_C 	C 	0.0282	0.723	0.522	-0.041
Mof_H 	H 	0.0174	0.7624	0.5743	0.047
Mof_C 	C 	0.1048	0.6486	0.5644	-0.086
Mof_H 	H 	0.1444	0.6376	0.6455	0.062
Mof_C 	C 	0.1217	0.5917	0.4864	0.047
Mof_H 	H 	0.1728	0.5426	0.5159	0.035
Mof_C 	C 	0.0912	0.549	0.2808	0.389
Mof_C 	C 	0.882	0.8126	0.3496	0.324
Mof_C 	C 	0.7066	0.1747	0.4697	-0.109
Mof_C 	C 	0.6081	0.2229	0.3924	0.033
Mof_H 	H 	0.571	0.207	0.3125	0.045
Mof_C 	C 	0.5655	0.2945	0.4347	-0.078
Mof_C 	C 	0.6201	0.3161	0.556	0.021
Mof_H 	H 	0.5911	0.3629	0.585	0.051
Mof_C 	C 	0.7166	0.2682	0.6325	-0.084
Mof_H 	H 	0.752	0.2821	0.713	0.068
Mof_C 	C 	0.7605	0.1989	0.5884	0.031
Mof_H 	H 	0.8272	0.1685	0.6395	0.042
Mof_C 	C 	0.7563	0.0977	0.4281	0.376
Mof_C 	C 	0.4623	0.3491	0.3531	0.304
Mof_Mn	Mn	0.72865	0.55711	0.75523	0.954
Mof_O 	O 	0.0285	0.9431	0.6717	-0.361
Mof_O 	O 	0.1816	0.999	0.8283	-0.345
Mof_O 	O 	0.8072	0.6953	0.7452	-0.308
Mof_O 	O 	0.8836	0.6183	0.9131	-0.375
Mof_O 	O 	0.8558	0.4265	0.9945	-0.348
Mof_O 	O 	0.6921	0.4391	0.8278	-0.377
Mof_O 	O 	0.4161	0.1649	0.7446	-0.292
Mof_O 	O 	0.426	0.0891	0.9007	-0.326
Mof_C 	C 	0.0642	0.8941	0.865	-0.184
Mof_C 	C 	0.986	0.8224	0.8221	0.111
Mof_H 	H 	0.9446	0.8135	0.7408	0.041
Mof_C 	C 	0.9686	0.7633	0.9002	-0.041
Mof_C 	C 	0.0282	0.777	0.022	-0.032
Mof_H 	H 	0.0174	0.7376	0.0743	0.04
Mof_C 	C 	0.1048	0.8514	0.0644	-0.13
Mof_H 	H 	0.1444	0.8624	0.1455	0.083
Mof_C 	C 	0.1217	0.9083	0.9864	0.117
Mof_H 	H 	0.1728	0.9574	0.0159	0.011
Mof_C 	C 	0.0912	0.951	0.7808	0.389
Mof_C 	C 	0.882	0.6874	0.8496	0.328
Mof_C 	C 	0.7066	0.3253	0.9697	-0.073
Mof_C 	C 	0.6081	0.2771	0.8924	0.01
Mof_H 	H 	0.571	0.293	0.8125	0.056
Mof_C 	C 	0.5655	0.2055	0.9347	-0.051
Mof_C 	C 	0.6201	0.1839	0.056	-0.015
Mof_H 	H 	0.5911	0.1371	0.085	0.055
Mof_C 	C 	0.7166	0.2318	0.1325	-0.051
Mof_H 	H 	0.752	0.2179	0.213	0.056
Mof_C 	C 	0.7605	0.3011	0.0884	-0.009
Mof_H 	H 	0.8272	0.3315	0.1395	0.057
Mof_C 	C 	0.7563	0.4023	0.9281	0.365
Mof_C 	C 	0.4623	0.1509	0.8531	0.297
Mof_Mn	Mn	0.27135	0.05711	0.74477	0.884
Mof_O 	O 	0.9715	0.4431	0.8283	-0.327
Mof_O 	O 	0.8184	0.499	0.6717	-0.368
Mof_O 	O 	0.1928	0.1953	0.7548	-0.325
Mof_O 	O 	0.1164	0.1183	0.5869	-0.423
Mof_O 	O 	0.1442	0.9265	0.5055	-0.36
Mof_O 	O 	0.3079	0.9391	0.6722	-0.351
Mof_O 	O 	0.5839	0.6649	0.7554	-0.284
Mof_O 	O 	0.574	0.5891	0.5993	-0.319
Mof_C 	C 	0.9358	0.3941	0.635	-0.044
Mof_C 	C 	0.014	0.3224	0.6779	-0.024
Mof_H 	H 	0.0554	0.3135	0.7592	0.052
Mof_C 	C 	0.0314	0.2633	0.5998	-0.158
Mof_C 	C 	0.9718	0.277	0.478	0.117
Mof_H 	H 	0.9826	0.2376	0.4257	0.026
Mof_C 	C 	0.8952	0.3514	0.4356	-0.111
Mof_H 	H 	0.8556	0.3624	0.3545	0.083
Mof_C 	C 	0.8783	0.4083	0.5136	0.035
Mof_H 	H 	0.8272	0.4574	0.4841	0.048
Mof_C 	C 	0.9088	0.451	0.7192	0.356
Mof_C 	C 	0.118	0.1874	0.6504	0.344
Mof_C 	C 	0.2934	0.8253	0.5303	-0.102
Mof_C 	C 	0.3919	0.7771	0.6076	0.032
Mof_H 	H 	0.429	0.793	0.6875	0.055
Mof_C 	C 	0.4345	0.7055	0.5653	-0.071
Mof_C 	C 	0.3799	0.6839	0.444	0.021
Mof_H 	H 	0.4089	0.6371	0.415	0.053
Mof_C 	C 	0.2834	0.7318	0.3675	-0.082
Mof_H 	H 	0.248	0.7179	0.287	0.065
Mof_C 	C 	0.2395	0.8011	0.4116	0.031
Mof_H 	H 	0.1728	0.8315	0.3605	0.031
Mof_C 	C 	0.2437	0.9023	0.5719	0.372
Mof_C 	C 	0.5377	0.6509	0.6469	0.303
Mof_Mn	Mn	-5.89985e-33	0.5	-0	0.901
Mof_Mn	Mn	2.65705e-17	0	0.5	0.837
_end
