data_functionalizedCrystal
_audit_creation_method	'EQeq! by Chris Wilmer'
_symmetry_space_group_name_H-M	'P1'
_symmetry_Int_Tables_number	1
_symmetry_cell_setting	triclinic
loop_
_symmetry_equiv_pos_as_xyz
  x,y,z
_cell_length_a	6.329
_cell_length_b	8.743
_cell_length_c	13
_cell_angle_alpha	105.61
_cell_angle_beta	90.55
_cell_angle_gamma	105.1
loop_
_atom_site_label
_atom_site_type_symbol
_atom_site_fract_x
_atom_site_fract_y
_atom_site_fract_z
_atom_site_charge
Mof_Ce	Ce	0.93974	0.96987	0.74275	2.8
Mof_Ce	Ce	0.69037	0.33301	0.92472	3.237
Mof_Ce	Ce	0.06026	0.03013	0.25725	2.801
Mof_Ce	Ce	0.30963	0.66699	0.07528	3.238
Mof_C 	C 	0.7674	0.6039	0.7809	0.275
Mof_C 	C 	0.9557	0.6943	0.8705	0.333
Mof_C 	C 	0.554	0.9488	0.9545	0.34
Mof_C 	C 	0.9063	0.9195	0.4784	0.268
Mof_C 	C 	0.2146	0.292	0.869	0.814
Mof_C 	C 	0.2326	0.3961	0.2191	0.275
Mof_C 	C 	0.0443	0.3057	0.1295	0.333
Mof_C 	C 	0.446	0.0512	0.0455	0.34
Mof_C 	C 	0.0937	0.0805	0.5216	0.268
Mof_C 	C 	0.7854	0.708	0.131	0.814
Mof_O 	O 	0.7351	0.6817	0.7163	-0.558
Mof_O 	O 	0.6642	0.4588	0.776	-0.538
Mof_O 	O 	0.0551	0.8384	0.8739	-0.595
Mof_O 	O 	0.9927	0.6135	0.9325	-0.764
Mof_O 	O 	0.5194	0.7985	0.9445	-0.608
Mof_O 	O 	0.671	0.0283	0.897	-0.741
Mof_O 	O 	0.8143	0.8521	0.5458	-0.519
Mof_O 	O 	0.8582	0.8718	0.3791	-0.501
Mof_O 	O 	0.3381	0.4307	0.9239	-0.918
Mof_O 	O 	0.013	0.269	0.8399	-0.945
Mof_O 	O 	0.2969	0.1693	0.8398	-0.864
Mof_O 	O 	0.6393	0.1029	0.7064	-0.517
Mof_O 	O 	0.2649	0.3183	0.2837	-0.558
Mof_O 	O 	0.3358	0.5412	0.224	-0.538
Mof_O 	O 	0.9449	0.1616	0.1261	-0.595
Mof_O 	O 	0.0073	0.3865	0.0675	-0.764
Mof_O 	O 	0.4806	0.2015	0.0555	-0.608
Mof_O 	O 	0.329	0.9717	0.103	-0.741
Mof_O 	O 	0.1857	0.1479	0.4542	-0.519
Mof_O 	O 	0.1418	0.1282	0.6209	-0.501
Mof_O 	O 	0.6619	0.5693	0.0761	-0.918
Mof_O 	O 	0.987	0.731	0.1601	-0.945
Mof_O 	O 	0.7031	0.8307	0.1602	-0.864
Mof_O 	O 	0.3607	0.8971	0.2936	-0.517
_end
