data_functionalizedCrystal
_audit_creation_method	'EQeq! by Chris Wilmer'
_symmetry_space_group_name_H-M	'P1'
_symmetry_Int_Tables_number	1
_symmetry_cell_setting	triclinic
loop_
_symmetry_equiv_pos_as_xyz
  x,y,z
_cell_length_a	7.7373
_cell_length_b	16.1203
_cell_length_c	15.2135
_cell_angle_alpha	90
_cell_angle_beta	90
_cell_angle_gamma	90
loop_
_atom_site_label
_atom_site_type_symbol
_atom_site_fract_x
_atom_site_fract_y
_atom_site_fract_z
_atom_site_charge
Mof_Mn	Mn	0.4821	0.12634	0.54802	0.651
Mof_Mn	Mn	0.5179	0.87366	0.04802	0.598
Mof_Mn	Mn	0.0179	0.62634	0.54802	0.65
Mof_Mn	Mn	0.9821	0.37366	0.04802	0.6
Mof_Hg	Hg	0.54699	0.43373	0.35315	0.131
Mof_Hg	Hg	0.45301	0.56627	0.85315	0.152
Mof_Hg	Hg	0.95301	0.93373	0.35315	0.131
Mof_Hg	Hg	0.04699	0.06627	0.85315	0.149
Mof_C 	C 	0.6409	0.2469	0.3866	0.092
Mof_C 	C 	0.8267	0.0028	0.5385	0.092
Mof_C 	C 	0.3248	0.0076	0.3876	0.095
Mof_C 	C 	0.3082	0.0086	0.7072	0.093
Mof_C 	C 	0.3591	0.7531	0.8866	0.101
Mof_C 	C 	0.1733	0.9972	0.0385	0.081
Mof_C 	C 	0.6752	0.9924	0.8876	0.106
Mof_C 	C 	0.6918	0.9914	0.2072	0.092
Mof_C 	C 	0.8591	0.7469	0.3866	0.092
Mof_C 	C 	0.6733	0.5028	0.5385	0.093
Mof_C 	C 	0.1752	0.5076	0.3876	0.094
Mof_C 	C 	0.1918	0.5086	0.7072	0.093
Mof_C 	C 	0.1409	0.2531	0.8866	0.101
Mof_C 	C 	0.3267	0.4972	0.0385	0.083
Mof_C 	C 	0.8248	0.4924	0.8876	0.106
Mof_C 	C 	0.8082	0.4914	0.2072	0.093
Mof_S 	S 	0.7018	0.3043	0.3024	-0.098
Mof_S 	S 	0.9759	0.934	0.5202	-0.09
Mof_S 	S 	0.2607	0.9544	0.3005	-0.092
Mof_S 	S 	0.241	0.9519	0.79	-0.066
Mof_S 	S 	0.2982	0.6957	0.8024	-0.087
Mof_S 	S 	0.0241	0.066	0.0202	-0.131
Mof_S 	S 	0.7393	0.0456	0.8005	-0.079
Mof_S 	S 	0.759	0.0481	0.29	-0.079
Mof_S 	S 	0.7982	0.8043	0.3024	-0.098
Mof_S 	S 	0.5241	0.434	0.5202	-0.091
Mof_S 	S 	0.2393	0.4544	0.3005	-0.09
Mof_S 	S 	0.259	0.4519	0.79	-0.066
Mof_S 	S 	0.2018	0.1957	0.8024	-0.086
Mof_S 	S 	0.4759	0.566	0.0202	-0.135
Mof_S 	S 	0.7607	0.5456	0.8005	-0.078
Mof_S 	S 	0.741	0.5481	0.29	-0.08
Mof_N 	N 	0.6004	0.2064	0.4445	-0.203
Mof_N 	N 	0.72	0.0501	0.5523	-0.197
Mof_N 	N 	0.3737	0.0464	0.4448	-0.2
Mof_N 	N 	0.3532	0.0493	0.6515	-0.201
Mof_N 	N 	0.3996	0.7936	0.9445	-0.179
Mof_N 	N 	0.28	0.9499	0.0523	-0.204
Mof_N 	N 	0.6263	0.9536	0.9448	-0.175
Mof_N 	N 	0.6468	0.9507	0.1515	-0.203
Mof_N 	N 	0.8996	0.7064	0.4445	-0.202
Mof_N 	N 	0.78	0.5501	0.5523	-0.197
Mof_N 	N 	0.1263	0.5464	0.4448	-0.2
Mof_N 	N 	0.1468	0.5493	0.6515	-0.201
Mof_N 	N 	0.1004	0.2936	0.9445	-0.18
Mof_N 	N 	0.22	0.4499	0.0523	-0.204
Mof_N 	N 	0.8737	0.4536	0.9448	-0.174
Mof_N 	N 	0.8532	0.4507	0.1515	-0.203
_end
