data_functionalizedCrystal
_audit_creation_method	'EQeq! by Chris Wilmer'
_symmetry_space_group_name_H-M	'P1'
_symmetry_Int_Tables_number	1
_symmetry_cell_setting	triclinic
loop_
_symmetry_equiv_pos_as_xyz
  x,y,z
_cell_length_a	8.58
_cell_length_b	13.176
_cell_length_c	15.3321
_cell_angle_alpha	115.448
_cell_angle_beta	95.2203
_cell_angle_gamma	90
loop_
_atom_site_label
_atom_site_type_symbol
_atom_site_fract_x
_atom_site_fract_y
_atom_site_fract_z
_atom_site_charge
Mof_Cu	Cu	0.03753	0.00605	0.42132	0.914
Mof_Cu	Cu	0.96247	0.99395	0.57868	0.914
Mof_Cu	Cu	0.46247	0.58473	0.57868	0.916
Mof_Cu	Cu	0.53753	0.41527	0.42132	0.916
Mof_H 	H 	0.7922	0.3351	0.593	0.179
Mof_H 	H 	0.7078	0.7421	0.407	0.179
Mof_H 	H 	0.588	0.8619	0.9008	0.057
Mof_H 	H 	0.6125	0.2137	0.6282	-0.039
Mof_H 	H 	0.8875	0.5855	0.3718	-0.039
Mof_H 	H 	0.0946	0.6412	0.3112	0.168
Mof_H 	H 	0.2922	0.2579	0.593	0.179
Mof_H 	H 	0.0139	0.3766	0.5246	-0.019
Mof_H 	H 	0.4054	0.33	0.6888	0.169
Mof_H 	H 	0.9054	0.3588	0.6888	0.168
Mof_H 	H 	0.9861	0.6234	0.4754	-0.019
Mof_H 	H 	0.3158	0.8764	0.1118	0.084
Mof_H 	H 	0.6842	0.1236	0.8882	0.084
Mof_H 	H 	0.2078	0.6649	0.407	0.179
Mof_H 	H 	0.9868	0.4254	0.3856	0.185
Mof_H 	H 	0.412	0.1381	0.0992	0.057
Mof_H 	H 	0.278	0.2142	0.2476	0.096
Mof_H 	H 	0.222	0.9666	0.7524	0.097
Mof_H 	H 	0.1722	0.8601	0.2264	0.011
Mof_H 	H 	0.722	0.7858	0.7524	0.096
Mof_H 	H 	0.3875	0.7863	0.3718	-0.039
Mof_H 	H 	0.6372	0.171	0.36	0.018
Mof_H 	H 	0.778	0.0334	0.2476	0.097
Mof_H 	H 	0.5946	0.67	0.3112	0.169
Mof_H 	H 	0.4382	0.1405	0.7004	0.172
Mof_H 	H 	0.1842	0.7646	0.8882	0.084
Mof_H 	H 	0.088	0.0389	0.9008	0.051
Mof_H 	H 	0.8158	0.2354	0.1118	0.084
Mof_H 	H 	0.3628	0.829	0.64	0.018
Mof_H 	H 	0.1372	0.189	0.36	0.018
Mof_H 	H 	0.5618	0.8595	0.2996	0.172
Mof_H 	H 	0.6722	0.3663	0.2264	0.011
Mof_H 	H 	0.5132	0.0398	0.6144	0.185
Mof_H 	H 	0.3278	0.6337	0.7736	0.011
Mof_H 	H 	0.1125	0.4145	0.6282	-0.039
Mof_H 	H 	0.8628	0.811	0.64	0.018
Mof_H 	H 	0.4868	0.9602	0.3856	0.185
Mof_H 	H 	0.5139	0.148	0.5246	-0.019
Mof_H 	H 	0.8278	0.1399	0.7736	0.011
Mof_H 	H 	0.0132	0.5746	0.6144	0.185
Mof_H 	H 	0.9382	0.5599	0.7004	0.171
Mof_H 	H 	0.912	0.9611	0.0992	0.051
Mof_H 	H 	0.0618	0.4401	0.2996	0.171
Mof_H 	H 	0.4861	0.852	0.4754	-0.019
Mof_C 	C 	0.3061	0.70231	0.76942	0.074
Mof_C 	C 	0.5984	0.71318	0.38248	-0.46
Mof_C 	C 	0.4415	0.10272	0.62914	-0.468
Mof_C 	C 	0.7422	0.85936	0.75792	-0.149
Mof_C 	C 	0.0984	0.6693	0.38248	-0.457
Mof_C 	C 	0.0585	0.47358	0.37086	-0.466
Mof_C 	C 	0.6731	0.18371	0.30862	0.085
Mof_C 	C 	0.5995	0.93505	0.9039	-0.03
Mof_C 	C 	0.8061	0.06711	0.76942	0.078
Mof_C 	C 	0.9415	0.52642	0.62914	-0.466
Mof_C 	C 	0.2217	0.47517	0.41934	0.453
Mof_C 	C 	0.2203	0.77982	0.83804	-0.141
Mof_C 	C 	0.2797	0.94178	0.16196	-0.14
Mof_C 	C 	0.9016	0.3307	0.61752	-0.457
Mof_C 	C 	0.4437	0.36676	0.5748	0.454
Mof_C 	C 	0.1876	0.88051	0.83242	0.103
Mof_C 	C 	0.5059	0.18652	0.59542	0.248
Mof_C 	C 	0.5585	0.89728	0.37086	-0.468
Mof_C 	C 	0.0995	0.96885	0.9039	-0.021
Mof_C 	C 	0.9941	0.5911	0.40458	0.245
Mof_C 	C 	0.1939	0.93289	0.23058	0.078
Mof_C 	C 	0.4005	0.06495	0.0961	-0.03
Mof_C 	C 	0.6876	0.95191	0.83242	0.103
Mof_C 	C 	0.4016	0.28682	0.61752	-0.46
Mof_C 	C 	0.3269	0.81629	0.69138	0.085
Mof_C 	C 	0.0563	0.79196	0.4252	0.453
Mof_C 	C 	0.3124	0.04809	0.16758	0.103
Mof_C 	C 	0.9005	0.03115	0.0961	-0.021
Mof_C 	C 	0.2422	0.89856	0.75792	-0.148
Mof_C 	C 	0.2578	0.14064	0.24208	-0.149
Mof_C 	C 	0.7203	0.05822	0.83804	-0.14
Mof_C 	C 	0.7217	0.94417	0.41934	0.453
Mof_C 	C 	0.5563	0.63324	0.4252	0.454
Mof_C 	C 	0.7797	0.22018	0.16196	-0.141
Mof_C 	C 	0.7783	0.52483	0.58066	0.453
Mof_C 	C 	0.8124	0.11949	0.16758	0.103
Mof_C 	C 	0.7578	0.10144	0.24208	-0.148
Mof_C 	C 	0.9437	0.20804	0.5748	0.453
Mof_C 	C 	0.2783	0.05583	0.58066	0.453
Mof_C 	C 	0.4941	0.81348	0.40458	0.248
Mof_C 	C 	0.6939	0.29769	0.23058	0.074
Mof_C 	C 	0.0059	0.4089	0.59542	0.245
Mof_C 	C 	0.1731	0.12491	0.30862	0.085
Mof_C 	C 	0.8269	0.87509	0.69138	0.085
Mof_N 	N 	0.3602	0.71925	0.69692	-0.19
Mof_N 	N 	0.0389	0.95226	0.96972	-0.076
Mof_N 	N 	0.6398	0.28075	0.30308	-0.19
Mof_N 	N 	0.4611	0.98254	0.03028	-0.074
Mof_N 	N 	0.8602	0.97767	0.69692	-0.192
Mof_N 	N 	0.9611	0.04774	0.03028	-0.076
Mof_N 	N 	0.1398	0.02233	0.30308	-0.192
Mof_N 	N 	0.5389	0.01746	0.96972	-0.074
Mof_O 	O 	0.5737	0.53036	0.37442	-0.436
Mof_O 	O 	0.012	0.83401	0.50908	-0.428
Mof_O 	O 	0.747	0.45313	0.4946	-0.437
Mof_O 	O 	0.0737	0.84406	0.37442	-0.433
Mof_O 	O 	0.753	0.95853	0.5054	-0.438
Mof_O 	O 	0.816	0.96406	0.36918	-0.435
Mof_O 	O 	0.512	0.67507	0.50908	-0.431
Mof_O 	O 	0.988	0.16599	0.49092	-0.428
Mof_O 	O 	0.184	0.03594	0.63082	-0.435
Mof_O 	O 	0.9263	0.15594	0.62558	-0.433
Mof_O 	O 	0.247	0.04147	0.4946	-0.438
Mof_O 	O 	0.488	0.32493	0.49092	-0.431
Mof_O 	O 	0.253	0.54687	0.5054	-0.437
Mof_O 	O 	0.316	0.40512	0.36918	-0.433
Mof_O 	O 	0.684	0.59488	0.63082	-0.433
Mof_O 	O 	0.4263	0.46964	0.62558	-0.436
_end
