data_functionalizedCrystal
_audit_creation_method	'EQeq! by Chris Wilmer'
_symmetry_space_group_name_H-M	'P1'
_symmetry_Int_Tables_number	1
_symmetry_cell_setting	triclinic
loop_
_symmetry_equiv_pos_as_xyz
  x,y,z
_cell_length_a	17.0192
_cell_length_b	57.8205
_cell_length_c	32.3846
_cell_angle_alpha	90
_cell_angle_beta	90
_cell_angle_gamma	90
loop_
_atom_site_label
_atom_site_type_symbol
_atom_site_fract_x
_atom_site_fract_y
_atom_site_fract_z
_atom_site_charge
Mof_Gd	Gd	0.7683	0.13576	0.73058	1.539
Mof_O 	O 	0.0042	0.13001	0.70492	-0.564
Mof_O 	O 	0.8921	0.1486	0.71427	-0.512
Mof_O 	O 	0.1964	0.13789	0.33364	-0.441
Mof_O 	O 	0.2322	0.17022	0.30871	-0.456
Mof_O 	O 	0.1147	0.09485	0.71863	-0.609
Mof_O 	O 	0.21	0.11795	0.7054	-0.579
Mof_O 	O 	0.3242	0.107	0.3091	-0.529
Mof_O 	O 	0.4316	0.08646	0.30702	-0.557
Mof_C 	C 	0.0106	0.23761	0.51359	-0.141
Mof_C 	C 	0.9979	0.22406	0.54978	0.069
Mof_H 	H 	0.9761	0.2308	0.5732	0.015
Mof_C 	C 	0.0177	0.20094	0.55021	-0.071
Mof_C 	C 	0.0516	0.19083	0.51682	-0.01
Mof_H 	H 	0.0667	0.1754	0.5179	0.028
Mof_C 	C 	0.0639	0.204	0.4797	-0.085
Mof_C 	C 	0.044	0.22737	0.47997	0.025
Mof_H 	H 	0.0537	0.2362	0.4566	0.007
Mof_C 	C 	0.0012	0.18696	0.58821	0.038
Mof_C 	C 	0.9337	0.1901	0.6117	-0.086
Mof_H 	H 	0.8977	0.2014	0.604	0.067
Mof_C 	C 	0.9189	0.17666	0.6465	0.047
Mof_H 	H 	0.8727	0.1788	0.6615	0.025
Mof_C 	C 	0.9719	0.16047	0.65872	-0.129
Mof_C 	C 	0.0397	0.15695	0.6366	0.015
Mof_H 	H 	0.0757	0.1459	0.6453	0.026
Mof_C 	C 	0.0544	0.16981	0.60154	-0.114
Mof_H 	H 	0.1	0.1671	0.5865	0.065
Mof_C 	C 	0.9555	0.14459	0.6962	0.534
Mof_C 	C 	0.1003	0.1925	0.44284	0.186
Mof_C 	C 	0.0951	0.16965	0.4363	-0.251
Mof_H 	H 	0.0684	0.1606	0.4554	0.109
Mof_C 	C 	0.129	0.15892	0.4012	0.175
Mof_H 	H 	0.1241	0.143	0.3976	-0.026
Mof_C 	C 	0.1664	0.17097	0.37415	-0.254
Mof_C 	C 	0.1685	0.19347	0.3797	0.193
Mof_H 	H 	0.1931	0.2025	0.3598	-0.033
Mof_C 	C 	0.1364	0.20412	0.4132	-0.274
Mof_H 	H 	0.14	0.2201	0.4153	0.118
Mof_C 	C 	0.2028	0.15949	0.3363	0.414
Mof_C 	C 	0.2512	0.01308	0.51348	0.026
Mof_C 	C 	0.2328	0.02595	0.54822	-0.082
Mof_H 	H 	0.2188	0.0183	0.5724	0.052
Mof_C 	C 	0.2348	0.05007	0.54796	-0.014
Mof_C 	C 	0.2575	0.06115	0.51162	-0.073
Mof_H 	H 	0.2597	0.0772	0.5109	0.052
Mof_C 	C 	0.2767	0.0487	0.47652	0.007
Mof_C 	C 	0.2753	0.02488	0.47794	-0.091
Mof_H 	H 	0.2907	0.0165	0.4548	0.058
Mof_C 	C 	0.2157	0.06349	0.58579	0.143
Mof_C 	C 	0.2605	0.08271	0.5961	-0.237
Mof_H 	H 	0.3019	0.087	0.579	0.107
Mof_C 	C 	0.2453	0.09538	0.6304	0.18
Mof_H 	H 	0.2751	0.1084	0.6365	-0.039
Mof_C 	C 	0.1843	0.08857	0.6566	-0.297
Mof_C 	C 	0.1411	0.07047	0.6465	0.208
Mof_H 	H 	0.099	0.0664	0.6634	-0.053
Mof_C 	C 	0.1566	0.05733	0.61165	-0.251
Mof_H 	H 	0.1265	0.0443	0.606	0.107
Mof_C 	C 	0.1699	0.1019	0.6971	0.607
Mof_C 	C 	0.3018	0.06061	0.43739	0.091
Mof_C 	C 	0.3639	0.05189	0.41456	-0.172
Mof_H 	H 	0.3902	0.0387	0.4235	0.086
Mof_C 	C 	0.3868	0.06284	0.37834	0.109
Mof_H 	H 	0.4295	0.0573	0.3634	-0.006
Mof_C 	C 	0.3461	0.0821	0.36435	-0.215
Mof_C 	C 	0.2849	0.09049	0.38698	0.109
Mof_H 	H 	0.2574	0.1034	0.3777	0.004
Mof_C 	C 	0.2628	0.07987	0.42429	-0.173
Mof_H 	H 	0.2219	0.0859	0.4399	0.086
Mof_C 	C 	0.3698	0.09269	0.3228	0.548
Mof_Gd	Gd	0.2683	0.63576	0.73058	1.527
Mof_O 	O 	0.5042	0.63001	0.70492	-0.541
Mof_O 	O 	0.3921	0.6486	0.71427	-0.511
Mof_O 	O 	0.6964	0.63789	0.33364	-0.434
Mof_O 	O 	0.7322	0.67022	0.30871	-0.45
Mof_O 	O 	0.6147	0.59485	0.71863	-0.615
Mof_O 	O 	0.71	0.61795	0.7054	-0.579
Mof_O 	O 	0.8242	0.607	0.3091	-0.525
Mof_O 	O 	0.9316	0.58646	0.30702	-0.533
Mof_C 	C 	0.5106	0.73761	0.51359	0.031
Mof_C 	C 	0.4979	0.72406	0.54978	-0.097
Mof_H 	H 	0.4761	0.7308	0.5732	0.062
Mof_C 	C 	0.5177	0.70094	0.55021	0.022
Mof_C 	C 	0.5516	0.69083	0.51682	-0.082
Mof_H 	H 	0.5667	0.6754	0.5179	0.055
Mof_C 	C 	0.5639	0.704	0.4797	-0.004
Mof_C 	C 	0.544	0.72737	0.47997	-0.087
Mof_H 	H 	0.5537	0.7362	0.4566	0.056
Mof_C 	C 	0.5012	0.68696	0.58821	0.072
Mof_C 	C 	0.4337	0.6901	0.6117	-0.152
Mof_H 	H 	0.3977	0.7014	0.604	0.082
Mof_C 	C 	0.4189	0.67666	0.6465	0.097
Mof_H 	H 	0.3727	0.6788	0.6615	0.007
Mof_C 	C 	0.4719	0.66047	0.65872	-0.192
Mof_C 	C 	0.5397	0.65695	0.6366	0.094
Mof_H 	H 	0.5757	0.6459	0.6453	0.004
Mof_C 	C 	0.5544	0.66981	0.60154	-0.153
Mof_H 	H 	0.6	0.6671	0.5865	0.081
Mof_C 	C 	0.4555	0.64459	0.6962	0.515
Mof_C 	C 	0.6003	0.6925	0.44284	0.129
Mof_C 	C 	0.5951	0.66965	0.4363	-0.2
Mof_H 	H 	0.5684	0.6606	0.4554	0.095
Mof_C 	C 	0.629	0.65892	0.4012	0.134
Mof_H 	H 	0.6241	0.643	0.3976	-0.008
Mof_C 	C 	0.6664	0.67097	0.37415	-0.215
Mof_C 	C 	0.6685	0.69347	0.3797	0.148
Mof_H 	H 	0.6931	0.7025	0.3598	-0.014
Mof_C 	C 	0.6364	0.70412	0.4132	-0.217
Mof_H 	H 	0.64	0.7201	0.4153	0.102
Mof_C 	C 	0.7028	0.65949	0.3363	0.401
Mof_C 	C 	0.7512	0.51308	0.51348	0.029
Mof_C 	C 	0.7328	0.52595	0.54822	-0.081
Mof_H 	H 	0.7188	0.5183	0.5724	0.054
Mof_C 	C 	0.7348	0.55007	0.54796	-0.011
Mof_C 	C 	0.7575	0.56115	0.51162	-0.073
Mof_H 	H 	0.7597	0.5772	0.5109	0.055
Mof_C 	C 	0.7767	0.5487	0.47652	0.011
Mof_C 	C 	0.7753	0.52488	0.47794	-0.091
Mof_H 	H 	0.7907	0.5165	0.4548	0.061
Mof_C 	C 	0.7157	0.56349	0.58579	0.146
Mof_C 	C 	0.7605	0.58271	0.5961	-0.237
Mof_H 	H 	0.8019	0.587	0.579	0.111
Mof_C 	C 	0.7453	0.59538	0.6304	0.183
Mof_H 	H 	0.7751	0.6084	0.6365	-0.035
Mof_C 	C 	0.6843	0.58857	0.6566	-0.297
Mof_C 	C 	0.6411	0.57047	0.6465	0.211
Mof_H 	H 	0.599	0.5664	0.6634	-0.048
Mof_C 	C 	0.6566	0.55733	0.61165	-0.25
Mof_H 	H 	0.6265	0.5443	0.606	0.113
Mof_C 	C 	0.6699	0.6019	0.6971	0.612
Mof_C 	C 	0.8018	0.56061	0.43739	0.091
Mof_C 	C 	0.8639	0.55189	0.41456	-0.167
Mof_H 	H 	0.8902	0.5387	0.4235	0.09
Mof_C 	C 	0.8868	0.56284	0.37834	0.107
Mof_H 	H 	0.9295	0.5573	0.3634	0.002
Mof_C 	C 	0.8461	0.5821	0.36435	-0.206
Mof_C 	C 	0.7849	0.59049	0.38698	0.108
Mof_H 	H 	0.7574	0.6034	0.3777	0.007
Mof_C 	C 	0.7628	0.57987	0.42429	-0.168
Mof_H 	H 	0.7219	0.5859	0.4399	0.088
Mof_C 	C 	0.8698	0.59269	0.3228	0.542
Mof_Gd	Gd	0.7317	0.86424	0.73058	1.544
Mof_O 	O 	0.4958	0.86999	0.70492	-0.542
Mof_O 	O 	0.6079	0.8514	0.71427	-0.512
Mof_O 	O 	0.3036	0.86211	0.33364	-0.434
Mof_O 	O 	0.2678	0.82978	0.30871	-0.451
Mof_O 	O 	0.3853	0.90515	0.71863	-0.616
Mof_O 	O 	0.29	0.88205	0.7054	-0.582
Mof_O 	O 	0.1758	0.893	0.3091	-0.529
Mof_O 	O 	0.0684	0.91354	0.30702	-0.558
Mof_C 	C 	0.4894	0.76239	0.51359	0.031
Mof_C 	C 	0.5021	0.77594	0.54978	-0.098
Mof_H 	H 	0.5239	0.7692	0.5732	0.063
Mof_C 	C 	0.4823	0.79906	0.55021	0.021
Mof_C 	C 	0.4484	0.80917	0.51682	-0.082
Mof_H 	H 	0.4333	0.8246	0.5179	0.054
Mof_C 	C 	0.4361	0.796	0.4797	-0.006
Mof_C 	C 	0.456	0.77263	0.47997	-0.086
Mof_H 	H 	0.4463	0.7638	0.4566	0.055
Mof_C 	C 	0.4988	0.81304	0.58821	0.071
Mof_C 	C 	0.5663	0.8099	0.6117	-0.153
Mof_H 	H 	0.6023	0.7986	0.604	0.083
Mof_C 	C 	0.5811	0.82334	0.6465	0.097
Mof_H 	H 	0.6273	0.8212	0.6615	0.006
Mof_C 	C 	0.5281	0.83953	0.65872	-0.193
Mof_C 	C 	0.4603	0.84305	0.6366	0.093
Mof_H 	H 	0.4243	0.8541	0.6453	0.003
Mof_C 	C 	0.4456	0.83019	0.60154	-0.153
Mof_H 	H 	0.4	0.8329	0.5865	0.078
Mof_C 	C 	0.5445	0.85541	0.6962	0.516
Mof_C 	C 	0.3997	0.8075	0.44284	0.13
Mof_C 	C 	0.4049	0.83035	0.4363	-0.202
Mof_H 	H 	0.4316	0.8394	0.4554	0.096
Mof_C 	C 	0.371	0.84108	0.4012	0.135
Mof_H 	H 	0.3759	0.857	0.3976	-0.009
Mof_C 	C 	0.3336	0.82903	0.37415	-0.217
Mof_C 	C 	0.3315	0.80653	0.3797	0.149
Mof_H 	H 	0.3069	0.7975	0.3598	-0.017
Mof_C 	C 	0.3636	0.79588	0.4132	-0.22
Mof_H 	H 	0.36	0.7799	0.4153	0.1
Mof_C 	C 	0.2972	0.84051	0.3363	0.401
Mof_C 	C 	0.2488	0.98692	0.51348	0.025
Mof_C 	C 	0.2672	0.97405	0.54822	-0.081
Mof_H 	H 	0.2812	0.9817	0.5724	0.052
Mof_C 	C 	0.2652	0.94993	0.54796	-0.015
Mof_C 	C 	0.2425	0.93885	0.51162	-0.073
Mof_H 	H 	0.2403	0.9228	0.5109	0.05
Mof_C 	C 	0.2233	0.9513	0.47652	0.006
Mof_C 	C 	0.2247	0.97512	0.47794	-0.091
Mof_H 	H 	0.2093	0.9835	0.4548	0.057
Mof_C 	C 	0.2843	0.93651	0.58579	0.144
Mof_C 	C 	0.2395	0.91729	0.5961	-0.239
Mof_H 	H 	0.1981	0.913	0.579	0.104
Mof_C 	C 	0.2547	0.90462	0.6304	0.181
Mof_H 	H 	0.2249	0.8916	0.6365	-0.042
Mof_C 	C 	0.3157	0.91143	0.6566	-0.3
Mof_C 	C 	0.3589	0.92953	0.6465	0.211
Mof_H 	H 	0.401	0.9336	0.6634	-0.049
Mof_C 	C 	0.3434	0.94267	0.61165	-0.252
Mof_H 	H 	0.3735	0.9557	0.606	0.113
Mof_C 	C 	0.3301	0.8981	0.6971	0.612
Mof_C 	C 	0.1982	0.93939	0.43739	0.092
Mof_C 	C 	0.1361	0.94811	0.41456	-0.175
Mof_H 	H 	0.1098	0.9613	0.4235	0.082
Mof_C 	C 	0.1132	0.93716	0.37834	0.109
Mof_H 	H 	0.0705	0.9427	0.3634	-0.013
Mof_C 	C 	0.1539	0.9179	0.36435	-0.217
Mof_C 	C 	0.2151	0.90951	0.38698	0.111
Mof_H 	H 	0.2426	0.8966	0.3777	0.004
Mof_C 	C 	0.2372	0.92013	0.42429	-0.175
Mof_H 	H 	0.2781	0.9141	0.4399	0.089
Mof_C 	C 	0.1302	0.90731	0.3228	0.545
Mof_Gd	Gd	0.2317	0.36424	0.73058	1.53
Mof_O 	O 	0.9958	0.36999	0.70492	-0.497
Mof_O 	O 	0.1079	0.3514	0.71427	-0.506
Mof_O 	O 	0.8036	0.36211	0.33364	-0.429
Mof_O 	O 	0.7678	0.32978	0.30871	-0.445
Mof_O 	O 	0.8853	0.40515	0.71863	-0.595
Mof_O 	O 	0.79	0.38205	0.7054	-0.576
Mof_O 	O 	0.6758	0.393	0.3091	-0.53
Mof_O 	O 	0.5684	0.41354	0.30702	-0.557
Mof_C 	C 	0.9894	0.26239	0.51359	0.204
Mof_C 	C 	0.0021	0.27594	0.54978	-0.264
Mof_H 	H 	0.0239	0.2692	0.5732	0.11
Mof_C 	C 	0.9823	0.29906	0.55021	0.115
Mof_C 	C 	0.9484	0.30917	0.51682	-0.155
Mof_H 	H 	0.9333	0.3246	0.5179	0.082
Mof_C 	C 	0.9361	0.296	0.4797	0.076
Mof_C 	C 	0.956	0.27263	0.47997	-0.199
Mof_H 	H 	0.9463	0.2638	0.4566	0.104
Mof_C 	C 	0.9988	0.31304	0.58821	0.103
Mof_C 	C 	0.0663	0.3099	0.6117	-0.216
Mof_H 	H 	0.1023	0.2986	0.604	0.098
Mof_C 	C 	0.0811	0.32334	0.6465	0.143
Mof_H 	H 	0.1273	0.3212	0.6615	-0.011
Mof_C 	C 	0.0281	0.33953	0.65872	-0.251
Mof_C 	C 	0.9603	0.34305	0.6366	0.168
Mof_H 	H 	0.9243	0.3541	0.6453	-0.018
Mof_C 	C 	0.9456	0.33019	0.60154	-0.189
Mof_H 	H 	0.9	0.3329	0.5865	0.092
Mof_C 	C 	0.0445	0.35541	0.6962	0.489
Mof_C 	C 	0.8997	0.3075	0.44284	0.073
Mof_C 	C 	0.9049	0.33035	0.4363	-0.151
Mof_H 	H 	0.9316	0.3394	0.4554	0.082
Mof_C 	C 	0.871	0.34108	0.4012	0.094
Mof_H 	H 	0.8759	0.357	0.3976	0.008
Mof_C 	C 	0.8336	0.32903	0.37415	-0.177
Mof_C 	C 	0.8315	0.30653	0.3797	0.103
Mof_H 	H 	0.8069	0.2975	0.3598	0.002
Mof_C 	C 	0.8636	0.29588	0.4132	-0.163
Mof_H 	H 	0.86	0.2799	0.4153	0.084
Mof_C 	C 	0.7972	0.34051	0.3363	0.388
Mof_C 	C 	0.7488	0.48692	0.51348	0.029
Mof_C 	C 	0.7672	0.47405	0.54822	-0.082
Mof_H 	H 	0.7812	0.4817	0.5724	0.056
Mof_C 	C 	0.7652	0.44993	0.54796	-0.009
Mof_C 	C 	0.7425	0.43885	0.51162	-0.073
Mof_H 	H 	0.7403	0.4228	0.5109	0.054
Mof_C 	C 	0.7233	0.4513	0.47652	0.01
Mof_C 	C 	0.7247	0.47512	0.47794	-0.091
Mof_H 	H 	0.7093	0.4835	0.4548	0.06
Mof_C 	C 	0.7843	0.43651	0.58579	0.142
Mof_C 	C 	0.7395	0.41729	0.5961	-0.232
Mof_H 	H 	0.6981	0.413	0.579	0.106
Mof_C 	C 	0.7547	0.40462	0.6304	0.176
Mof_H 	H 	0.7249	0.3916	0.6365	-0.036
Mof_C 	C 	0.8157	0.41143	0.6566	-0.288
Mof_C 	C 	0.8589	0.42953	0.6465	0.204
Mof_H 	H 	0.901	0.4336	0.6634	-0.038
Mof_C 	C 	0.8434	0.44267	0.61165	-0.243
Mof_H 	H 	0.8735	0.4557	0.606	0.116
Mof_C 	C 	0.8301	0.3981	0.6971	0.604
Mof_C 	C 	0.6982	0.43939	0.43739	0.093
Mof_C 	C 	0.6361	0.44811	0.41456	-0.173
Mof_H 	H 	0.6098	0.4613	0.4235	0.086
Mof_C 	C 	0.6132	0.43716	0.37834	0.111
Mof_H 	H 	0.5705	0.4427	0.3634	-0.006
Mof_C 	C 	0.6539	0.4179	0.36435	-0.215
Mof_C 	C 	0.7151	0.40951	0.38698	0.113
Mof_H 	H 	0.7426	0.3966	0.3777	0.005
Mof_C 	C 	0.7372	0.42013	0.42429	-0.173
Mof_H 	H 	0.7781	0.4141	0.4399	0.091
Mof_C 	C 	0.6302	0.40731	0.3228	0.549
Mof_Gd	Gd	0.2317	0.13576	0.76942	1.53
Mof_O 	O 	0.9958	0.13001	0.79508	-0.497
Mof_O 	O 	0.1079	0.1486	0.78573	-0.506
Mof_O 	O 	0.8036	0.13789	0.16636	-0.429
Mof_O 	O 	0.7678	0.17022	0.19129	-0.445
Mof_O 	O 	0.8853	0.09485	0.78137	-0.595
Mof_O 	O 	0.79	0.11795	0.7946	-0.576
Mof_O 	O 	0.6758	0.107	0.1909	-0.53
Mof_O 	O 	0.5684	0.08646	0.19298	-0.557
Mof_C 	C 	0.9894	0.23761	0.98641	0.203
Mof_C 	C 	0.0021	0.22406	0.95022	-0.264
Mof_H 	H 	0.0239	0.2308	0.9268	0.109
Mof_C 	C 	0.9823	0.20094	0.94979	0.114
Mof_C 	C 	0.9484	0.19083	0.98318	-0.155
Mof_H 	H 	0.9333	0.1754	0.9821	0.082
Mof_C 	C 	0.9361	0.204	0.0203	0.076
Mof_C 	C 	0.956	0.22737	0.02003	-0.198
Mof_H 	H 	0.9463	0.2362	0.0434	0.103
Mof_C 	C 	0.9988	0.18696	0.91179	0.103
Mof_C 	C 	0.0663	0.1901	0.8883	-0.216
Mof_H 	H 	0.1023	0.2014	0.896	0.098
Mof_C 	C 	0.0811	0.17666	0.8535	0.143
Mof_H 	H 	0.1273	0.1788	0.8385	-0.011
Mof_C 	C 	0.0281	0.16047	0.84128	-0.251
Mof_C 	C 	0.9603	0.15695	0.8634	0.168
Mof_H 	H 	0.9243	0.1459	0.8547	-0.018
Mof_C 	C 	0.9456	0.16981	0.89846	-0.189
Mof_H 	H 	0.9	0.1671	0.9135	0.092
Mof_C 	C 	0.0445	0.14459	0.8038	0.489
Mof_C 	C 	0.8997	0.1925	0.05716	0.073
Mof_C 	C 	0.9049	0.16965	0.0637	-0.151
Mof_H 	H 	0.9316	0.1606	0.0446	0.082
Mof_C 	C 	0.871	0.15892	0.0988	0.094
Mof_H 	H 	0.8759	0.143	0.1024	0.008
Mof_C 	C 	0.8336	0.17097	0.12585	-0.177
Mof_C 	C 	0.8315	0.19347	0.1203	0.103
Mof_H 	H 	0.8069	0.2025	0.1402	0.002
Mof_C 	C 	0.8636	0.20412	0.0868	-0.163
Mof_H 	H 	0.86	0.2201	0.0847	0.084
Mof_C 	C 	0.7972	0.15949	0.1637	0.388
Mof_C 	C 	0.7488	0.01308	0.98652	0.029
Mof_C 	C 	0.7672	0.02595	0.95178	-0.082
Mof_H 	H 	0.7812	0.0183	0.9276	0.056
Mof_C 	C 	0.7652	0.05007	0.95204	-0.009
Mof_C 	C 	0.7425	0.06115	0.98838	-0.073
Mof_H 	H 	0.7403	0.0772	0.9891	0.054
Mof_C 	C 	0.7233	0.0487	0.02348	0.01
Mof_C 	C 	0.7247	0.02488	0.02206	-0.091
Mof_H 	H 	0.7093	0.0165	0.0452	0.06
Mof_C 	C 	0.7843	0.06349	0.91421	0.142
Mof_C 	C 	0.7395	0.08271	0.9039	-0.232
Mof_H 	H 	0.6981	0.087	0.921	0.106
Mof_C 	C 	0.7547	0.09538	0.8696	0.176
Mof_H 	H 	0.7249	0.1084	0.8635	-0.036
Mof_C 	C 	0.8157	0.08857	0.8434	-0.288
Mof_C 	C 	0.8589	0.07047	0.8535	0.204
Mof_H 	H 	0.901	0.0664	0.8366	-0.038
Mof_C 	C 	0.8434	0.05733	0.88835	-0.243
Mof_H 	H 	0.8735	0.0443	0.894	0.116
Mof_C 	C 	0.8301	0.1019	0.8029	0.604
Mof_C 	C 	0.6982	0.06061	0.06261	0.093
Mof_C 	C 	0.6361	0.05189	0.08544	-0.173
Mof_H 	H 	0.6098	0.0387	0.0765	0.086
Mof_C 	C 	0.6132	0.06284	0.12166	0.111
Mof_H 	H 	0.5705	0.0573	0.1366	-0.006
Mof_C 	C 	0.6539	0.0821	0.13565	-0.215
Mof_C 	C 	0.7151	0.09049	0.11302	0.113
Mof_H 	H 	0.7426	0.1034	0.1223	0.005
Mof_C 	C 	0.7372	0.07987	0.07571	-0.173
Mof_H 	H 	0.7781	0.0859	0.0601	0.091
Mof_C 	C 	0.6302	0.09269	0.1772	0.549
Mof_Gd	Gd	0.7317	0.63576	0.76942	1.544
Mof_O 	O 	0.4958	0.63001	0.79508	-0.542
Mof_O 	O 	0.6079	0.6486	0.78573	-0.512
Mof_O 	O 	0.3036	0.63789	0.16636	-0.434
Mof_O 	O 	0.2678	0.67022	0.19129	-0.451
Mof_O 	O 	0.3853	0.59485	0.78137	-0.616
Mof_O 	O 	0.29	0.61795	0.7946	-0.582
Mof_O 	O 	0.1758	0.607	0.1909	-0.529
Mof_O 	O 	0.0684	0.58646	0.19298	-0.558
Mof_C 	C 	0.4894	0.73761	0.98641	0.031
Mof_C 	C 	0.5021	0.72406	0.95022	-0.098
Mof_H 	H 	0.5239	0.7308	0.9268	0.063
Mof_C 	C 	0.4823	0.70094	0.94979	0.021
Mof_C 	C 	0.4484	0.69083	0.98318	-0.083
Mof_H 	H 	0.4333	0.6754	0.9821	0.054
Mof_C 	C 	0.4361	0.704	0.0203	-0.006
Mof_C 	C 	0.456	0.72737	0.02003	-0.087
Mof_H 	H 	0.4463	0.7362	0.0434	0.055
Mof_C 	C 	0.4988	0.68696	0.91179	0.071
Mof_C 	C 	0.5663	0.6901	0.8883	-0.153
Mof_H 	H 	0.6023	0.7014	0.896	0.083
Mof_C 	C 	0.5811	0.67666	0.8535	0.097
Mof_H 	H 	0.6273	0.6788	0.8385	0.006
Mof_C 	C 	0.5281	0.66047	0.84128	-0.193
Mof_C 	C 	0.4603	0.65695	0.8634	0.093
Mof_H 	H 	0.4243	0.6459	0.8547	0.003
Mof_C 	C 	0.4456	0.66981	0.89846	-0.153
Mof_H 	H 	0.4	0.6671	0.9135	0.078
Mof_C 	C 	0.5445	0.64459	0.8038	0.516
Mof_C 	C 	0.3997	0.6925	0.05716	0.13
Mof_C 	C 	0.4049	0.66965	0.0637	-0.202
Mof_H 	H 	0.4316	0.6606	0.0446	0.096
Mof_C 	C 	0.371	0.65892	0.0988	0.135
Mof_H 	H 	0.3759	0.643	0.1024	-0.009
Mof_C 	C 	0.3336	0.67097	0.12585	-0.217
Mof_C 	C 	0.3315	0.69347	0.1203	0.149
Mof_H 	H 	0.3069	0.7025	0.1402	-0.017
Mof_C 	C 	0.3636	0.70412	0.0868	-0.22
Mof_H 	H 	0.36	0.7201	0.0847	0.1
Mof_C 	C 	0.2972	0.65949	0.1637	0.401
Mof_C 	C 	0.2488	0.51308	0.98652	0.025
Mof_C 	C 	0.2672	0.52595	0.95178	-0.081
Mof_H 	H 	0.2812	0.5183	0.9276	0.052
Mof_C 	C 	0.2652	0.55007	0.95204	-0.015
Mof_C 	C 	0.2425	0.56115	0.98838	-0.073
Mof_H 	H 	0.2403	0.5772	0.9891	0.05
Mof_C 	C 	0.2233	0.5487	0.02348	0.006
Mof_C 	C 	0.2247	0.52488	0.02206	-0.091
Mof_H 	H 	0.2093	0.5165	0.0452	0.057
Mof_C 	C 	0.2843	0.56349	0.91421	0.144
Mof_C 	C 	0.2395	0.58271	0.9039	-0.239
Mof_H 	H 	0.1981	0.587	0.921	0.104
Mof_C 	C 	0.2547	0.59538	0.8696	0.181
Mof_H 	H 	0.2249	0.6084	0.8635	-0.042
Mof_C 	C 	0.3157	0.58857	0.8434	-0.3
Mof_C 	C 	0.3589	0.57047	0.8535	0.211
Mof_H 	H 	0.401	0.5664	0.8366	-0.049
Mof_C 	C 	0.3434	0.55733	0.88835	-0.252
Mof_H 	H 	0.3735	0.5443	0.894	0.113
Mof_C 	C 	0.3301	0.6019	0.8029	0.612
Mof_C 	C 	0.1982	0.56061	0.06261	0.092
Mof_C 	C 	0.1361	0.55189	0.08544	-0.175
Mof_H 	H 	0.1098	0.5387	0.0765	0.082
Mof_C 	C 	0.1132	0.56284	0.12166	0.109
Mof_H 	H 	0.0705	0.5573	0.1366	-0.013
Mof_C 	C 	0.1539	0.5821	0.13565	-0.217
Mof_C 	C 	0.2151	0.59049	0.11302	0.11
Mof_H 	H 	0.2426	0.6034	0.1223	0.004
Mof_C 	C 	0.2372	0.57987	0.07571	-0.175
Mof_H 	H 	0.2781	0.5859	0.0601	0.089
Mof_C 	C 	0.1302	0.59269	0.1772	0.545
Mof_Gd	Gd	0.2683	0.86424	0.76942	1.527
Mof_O 	O 	0.5042	0.86999	0.79508	-0.541
Mof_O 	O 	0.3921	0.8514	0.78573	-0.511
Mof_O 	O 	0.6964	0.86211	0.16636	-0.434
Mof_O 	O 	0.7322	0.82978	0.19129	-0.45
Mof_O 	O 	0.6147	0.90515	0.78137	-0.615
Mof_O 	O 	0.71	0.88205	0.7946	-0.579
Mof_O 	O 	0.8242	0.893	0.1909	-0.525
Mof_O 	O 	0.9316	0.91354	0.19298	-0.533
Mof_C 	C 	0.5106	0.76239	0.98641	0.031
Mof_C 	C 	0.4979	0.77594	0.95022	-0.097
Mof_H 	H 	0.4761	0.7692	0.9268	0.062
Mof_C 	C 	0.5177	0.79906	0.94979	0.022
Mof_C 	C 	0.5516	0.80917	0.98318	-0.082
Mof_H 	H 	0.5667	0.8246	0.9821	0.055
Mof_C 	C 	0.5639	0.796	0.0203	-0.004
Mof_C 	C 	0.544	0.77263	0.02003	-0.087
Mof_H 	H 	0.5537	0.7638	0.0434	0.056
Mof_C 	C 	0.5012	0.81304	0.91179	0.072
Mof_C 	C 	0.4337	0.8099	0.8883	-0.152
Mof_H 	H 	0.3977	0.7986	0.896	0.082
Mof_C 	C 	0.4189	0.82334	0.8535	0.097
Mof_H 	H 	0.3727	0.8212	0.8385	0.007
Mof_C 	C 	0.4719	0.83953	0.84128	-0.192
Mof_C 	C 	0.5397	0.84305	0.8634	0.094
Mof_H 	H 	0.5757	0.8541	0.8547	0.004
Mof_C 	C 	0.5544	0.83019	0.89846	-0.153
Mof_H 	H 	0.6	0.8329	0.9135	0.081
Mof_C 	C 	0.4555	0.85541	0.8038	0.515
Mof_C 	C 	0.6003	0.8075	0.05716	0.129
Mof_C 	C 	0.5951	0.83035	0.0637	-0.2
Mof_H 	H 	0.5684	0.8394	0.0446	0.095
Mof_C 	C 	0.629	0.84108	0.0988	0.134
Mof_H 	H 	0.6241	0.857	0.1024	-0.008
Mof_C 	C 	0.6664	0.82903	0.12585	-0.215
Mof_C 	C 	0.6685	0.80653	0.1203	0.148
Mof_H 	H 	0.6931	0.7975	0.1402	-0.014
Mof_C 	C 	0.6364	0.79588	0.0868	-0.217
Mof_H 	H 	0.64	0.7799	0.0847	0.102
Mof_C 	C 	0.7028	0.84051	0.1637	0.401
Mof_C 	C 	0.7512	0.98692	0.98652	0.029
Mof_C 	C 	0.7328	0.97405	0.95178	-0.081
Mof_H 	H 	0.7188	0.9817	0.9276	0.054
Mof_C 	C 	0.7348	0.94993	0.95204	-0.011
Mof_C 	C 	0.7575	0.93885	0.98838	-0.073
Mof_H 	H 	0.7597	0.9228	0.9891	0.055
Mof_C 	C 	0.7767	0.9513	0.02348	0.011
Mof_C 	C 	0.7753	0.97512	0.02206	-0.091
Mof_H 	H 	0.7907	0.9835	0.0452	0.061
Mof_C 	C 	0.7157	0.93651	0.91421	0.146
Mof_C 	C 	0.7605	0.91729	0.9039	-0.237
Mof_H 	H 	0.8019	0.913	0.921	0.111
Mof_C 	C 	0.7453	0.90462	0.8696	0.183
Mof_H 	H 	0.7751	0.8916	0.8635	-0.035
Mof_C 	C 	0.6843	0.91143	0.8434	-0.297
Mof_C 	C 	0.6411	0.92953	0.8535	0.211
Mof_H 	H 	0.599	0.9336	0.8366	-0.048
Mof_C 	C 	0.6566	0.94267	0.88835	-0.25
Mof_H 	H 	0.6265	0.9557	0.894	0.113
Mof_C 	C 	0.6699	0.8981	0.8029	0.612
Mof_C 	C 	0.8018	0.93939	0.06261	0.091
Mof_C 	C 	0.8639	0.94811	0.08544	-0.167
Mof_H 	H 	0.8902	0.9613	0.0765	0.09
Mof_C 	C 	0.8868	0.93716	0.12166	0.107
Mof_H 	H 	0.9295	0.9427	0.1366	0.002
Mof_C 	C 	0.8461	0.9179	0.13565	-0.206
Mof_C 	C 	0.7849	0.90951	0.11302	0.108
Mof_H 	H 	0.7574	0.8966	0.1223	0.007
Mof_C 	C 	0.7628	0.92013	0.07571	-0.168
Mof_H 	H 	0.7219	0.9141	0.0601	0.088
Mof_C 	C 	0.8698	0.90731	0.1772	0.542
Mof_Gd	Gd	0.7683	0.36424	0.76942	1.54
Mof_O 	O 	0.0042	0.36999	0.79508	-0.563
Mof_O 	O 	0.8921	0.3514	0.78573	-0.511
Mof_O 	O 	0.1964	0.36211	0.16636	-0.44
Mof_O 	O 	0.2322	0.32978	0.19129	-0.456
Mof_O 	O 	0.1147	0.40515	0.78137	-0.609
Mof_O 	O 	0.21	0.38205	0.7946	-0.579
Mof_O 	O 	0.3242	0.393	0.1909	-0.529
Mof_O 	O 	0.4316	0.41354	0.19298	-0.557
Mof_C 	C 	0.0106	0.26239	0.98641	-0.141
Mof_C 	C 	0.9979	0.27594	0.95022	0.068
Mof_H 	H 	0.9761	0.2692	0.9268	0.016
Mof_C 	C 	0.0177	0.29906	0.94979	-0.071
Mof_C 	C 	0.0516	0.30917	0.98318	-0.01
Mof_H 	H 	0.0667	0.3246	0.9821	0.028
Mof_C 	C 	0.0639	0.296	0.0203	-0.085
Mof_C 	C 	0.044	0.27263	0.02003	0.025
Mof_H 	H 	0.0537	0.2638	0.0434	0.007
Mof_C 	C 	0.0012	0.31304	0.91179	0.038
Mof_C 	C 	0.9337	0.3099	0.8883	-0.086
Mof_H 	H 	0.8977	0.2986	0.896	0.067
Mof_C 	C 	0.9189	0.32334	0.8535	0.047
Mof_H 	H 	0.8727	0.3212	0.8385	0.025
Mof_C 	C 	0.9719	0.33953	0.84128	-0.129
Mof_C 	C 	0.0397	0.34305	0.8634	0.015
Mof_H 	H 	0.0757	0.3541	0.8547	0.025
Mof_C 	C 	0.0544	0.33019	0.89846	-0.114
Mof_H 	H 	0.1	0.3329	0.9135	0.065
Mof_C 	C 	0.9555	0.35541	0.8038	0.534
Mof_C 	C 	0.1003	0.3075	0.05716	0.185
Mof_C 	C 	0.0951	0.33035	0.0637	-0.25
Mof_H 	H 	0.0684	0.3394	0.0446	0.109
Mof_C 	C 	0.129	0.34108	0.0988	0.175
Mof_H 	H 	0.1241	0.357	0.1024	-0.026
Mof_C 	C 	0.1664	0.32903	0.12585	-0.254
Mof_C 	C 	0.1685	0.30653	0.1203	0.193
Mof_H 	H 	0.1931	0.2975	0.1402	-0.033
Mof_C 	C 	0.1364	0.29588	0.0868	-0.273
Mof_H 	H 	0.14	0.2799	0.0847	0.118
Mof_C 	C 	0.2028	0.34051	0.1637	0.414
Mof_C 	C 	0.2512	0.48692	0.98652	0.026
Mof_C 	C 	0.2328	0.47405	0.95178	-0.082
Mof_H 	H 	0.2188	0.4817	0.9276	0.052
Mof_C 	C 	0.2348	0.44993	0.95204	-0.014
Mof_C 	C 	0.2575	0.43885	0.98838	-0.073
Mof_H 	H 	0.2597	0.4228	0.9891	0.052
Mof_C 	C 	0.2767	0.4513	0.02348	0.007
Mof_C 	C 	0.2753	0.47512	0.02206	-0.091
Mof_H 	H 	0.2907	0.4835	0.0452	0.058
Mof_C 	C 	0.2157	0.43651	0.91421	0.143
Mof_C 	C 	0.2605	0.41729	0.9039	-0.237
Mof_H 	H 	0.3019	0.413	0.921	0.107
Mof_C 	C 	0.2453	0.40462	0.8696	0.18
Mof_H 	H 	0.2751	0.3916	0.8635	-0.039
Mof_C 	C 	0.1843	0.41143	0.8434	-0.297
Mof_C 	C 	0.1411	0.42953	0.8535	0.208
Mof_H 	H 	0.099	0.4336	0.8366	-0.053
Mof_C 	C 	0.1566	0.44267	0.88835	-0.251
Mof_H 	H 	0.1265	0.4557	0.894	0.107
Mof_C 	C 	0.1699	0.3981	0.8029	0.607
Mof_C 	C 	0.3018	0.43939	0.06261	0.091
Mof_C 	C 	0.3639	0.44811	0.08544	-0.172
Mof_H 	H 	0.3902	0.4613	0.0765	0.086
Mof_C 	C 	0.3868	0.43716	0.12166	0.109
Mof_H 	H 	0.4295	0.4427	0.1366	-0.006
Mof_C 	C 	0.3461	0.4179	0.13565	-0.215
Mof_C 	C 	0.2849	0.40951	0.11302	0.109
Mof_H 	H 	0.2574	0.3966	0.1223	0.004
Mof_C 	C 	0.2628	0.42013	0.07571	-0.173
Mof_H 	H 	0.2219	0.4141	0.0601	0.086
Mof_C 	C 	0.3698	0.40731	0.1772	0.548
Mof_Gd	Gd	0.2317	0.86424	0.26942	1.53
Mof_O 	O 	0.9958	0.86999	0.29508	-0.497
Mof_O 	O 	0.1079	0.8514	0.28573	-0.506
Mof_O 	O 	0.8036	0.86211	0.66636	-0.429
Mof_O 	O 	0.7678	0.82978	0.69129	-0.445
Mof_O 	O 	0.8853	0.90515	0.28137	-0.595
Mof_O 	O 	0.79	0.88205	0.2946	-0.576
Mof_O 	O 	0.6758	0.893	0.6909	-0.53
Mof_O 	O 	0.5684	0.91354	0.69298	-0.557
Mof_C 	C 	0.9894	0.76239	0.48641	0.204
Mof_C 	C 	0.0021	0.77594	0.45022	-0.264
Mof_H 	H 	0.0239	0.7692	0.4268	0.11
Mof_C 	C 	0.9823	0.79906	0.44979	0.115
Mof_C 	C 	0.9484	0.80917	0.48318	-0.155
Mof_H 	H 	0.9333	0.8246	0.4821	0.082
Mof_C 	C 	0.9361	0.796	0.5203	0.076
Mof_C 	C 	0.956	0.77263	0.52003	-0.199
Mof_H 	H 	0.9463	0.7638	0.5434	0.104
Mof_C 	C 	0.9988	0.81304	0.41179	0.103
Mof_C 	C 	0.0663	0.8099	0.3883	-0.216
Mof_H 	H 	0.1023	0.7986	0.396	0.098
Mof_C 	C 	0.0811	0.82334	0.3535	0.143
Mof_H 	H 	0.1273	0.8212	0.3385	-0.011
Mof_C 	C 	0.0281	0.83953	0.34128	-0.251
Mof_C 	C 	0.9603	0.84305	0.3634	0.168
Mof_H 	H 	0.9243	0.8541	0.3547	-0.018
Mof_C 	C 	0.9456	0.83019	0.39846	-0.189
Mof_H 	H 	0.9	0.8329	0.4135	0.092
Mof_C 	C 	0.0445	0.85541	0.3038	0.489
Mof_C 	C 	0.8997	0.8075	0.55716	0.073
Mof_C 	C 	0.9049	0.83035	0.5637	-0.151
Mof_H 	H 	0.9316	0.8394	0.5446	0.082
Mof_C 	C 	0.871	0.84108	0.5988	0.094
Mof_H 	H 	0.8759	0.857	0.6024	0.008
Mof_C 	C 	0.8336	0.82903	0.62585	-0.177
Mof_C 	C 	0.8315	0.80653	0.6203	0.103
Mof_H 	H 	0.8069	0.7975	0.6402	0.002
Mof_C 	C 	0.8636	0.79588	0.5868	-0.163
Mof_H 	H 	0.86	0.7799	0.5847	0.084
Mof_C 	C 	0.7972	0.84051	0.6637	0.388
Mof_C 	C 	0.7488	0.98692	0.48652	0.029
Mof_C 	C 	0.7672	0.97405	0.45178	-0.082
Mof_H 	H 	0.7812	0.9817	0.4276	0.056
Mof_C 	C 	0.7652	0.94993	0.45204	-0.009
Mof_C 	C 	0.7425	0.93885	0.48838	-0.073
Mof_H 	H 	0.7403	0.9228	0.4891	0.054
Mof_C 	C 	0.7233	0.9513	0.52348	0.01
Mof_C 	C 	0.7247	0.97512	0.52206	-0.091
Mof_H 	H 	0.7093	0.9835	0.5452	0.06
Mof_C 	C 	0.7843	0.93651	0.41421	0.142
Mof_C 	C 	0.7395	0.91729	0.4039	-0.232
Mof_H 	H 	0.6981	0.913	0.421	0.106
Mof_C 	C 	0.7547	0.90462	0.3696	0.176
Mof_H 	H 	0.7249	0.8916	0.3635	-0.036
Mof_C 	C 	0.8157	0.91143	0.3434	-0.288
Mof_C 	C 	0.8589	0.92953	0.3535	0.204
Mof_H 	H 	0.901	0.9336	0.3366	-0.038
Mof_C 	C 	0.8434	0.94267	0.38835	-0.243
Mof_H 	H 	0.8735	0.9557	0.394	0.116
Mof_C 	C 	0.8301	0.8981	0.3029	0.604
Mof_C 	C 	0.6982	0.93939	0.56261	0.093
Mof_C 	C 	0.6361	0.94811	0.58544	-0.173
Mof_H 	H 	0.6098	0.9613	0.5765	0.086
Mof_C 	C 	0.6132	0.93716	0.62166	0.111
Mof_H 	H 	0.5705	0.9427	0.6366	-0.006
Mof_C 	C 	0.6539	0.9179	0.63565	-0.215
Mof_C 	C 	0.7151	0.90951	0.61302	0.113
Mof_H 	H 	0.7426	0.8966	0.6223	0.005
Mof_C 	C 	0.7372	0.92013	0.57571	-0.173
Mof_H 	H 	0.7781	0.9141	0.5601	0.091
Mof_C 	C 	0.6302	0.90731	0.6772	0.549
Mof_Gd	Gd	0.7317	0.36424	0.26942	1.544
Mof_O 	O 	0.4958	0.36999	0.29508	-0.542
Mof_O 	O 	0.6079	0.3514	0.28573	-0.512
Mof_O 	O 	0.3036	0.36211	0.66636	-0.434
Mof_O 	O 	0.2678	0.32978	0.69129	-0.451
Mof_O 	O 	0.3853	0.40515	0.28137	-0.616
Mof_O 	O 	0.29	0.38205	0.2946	-0.582
Mof_O 	O 	0.1758	0.393	0.6909	-0.529
Mof_O 	O 	0.0684	0.41354	0.69298	-0.558
Mof_C 	C 	0.4894	0.26239	0.48641	0.031
Mof_C 	C 	0.5021	0.27594	0.45022	-0.098
Mof_H 	H 	0.5239	0.2692	0.4268	0.063
Mof_C 	C 	0.4823	0.29906	0.44979	0.021
Mof_C 	C 	0.4484	0.30917	0.48318	-0.082
Mof_H 	H 	0.4333	0.3246	0.4821	0.054
Mof_C 	C 	0.4361	0.296	0.5203	-0.006
Mof_C 	C 	0.456	0.27263	0.52003	-0.086
Mof_H 	H 	0.4463	0.2638	0.5434	0.055
Mof_C 	C 	0.4988	0.31304	0.41179	0.071
Mof_C 	C 	0.5663	0.3099	0.3883	-0.153
Mof_H 	H 	0.6023	0.2986	0.396	0.083
Mof_C 	C 	0.5811	0.32334	0.3535	0.097
Mof_H 	H 	0.6273	0.3212	0.3385	0.006
Mof_C 	C 	0.5281	0.33953	0.34128	-0.193
Mof_C 	C 	0.4603	0.34305	0.3634	0.093
Mof_H 	H 	0.4243	0.3541	0.3547	0.003
Mof_C 	C 	0.4456	0.33019	0.39846	-0.153
Mof_H 	H 	0.4	0.3329	0.4135	0.078
Mof_C 	C 	0.5445	0.35541	0.3038	0.516
Mof_C 	C 	0.3997	0.3075	0.55716	0.13
Mof_C 	C 	0.4049	0.33035	0.5637	-0.202
Mof_H 	H 	0.4316	0.3394	0.5446	0.096
Mof_C 	C 	0.371	0.34108	0.5988	0.135
Mof_H 	H 	0.3759	0.357	0.6024	-0.009
Mof_C 	C 	0.3336	0.32903	0.62585	-0.217
Mof_C 	C 	0.3315	0.30653	0.6203	0.149
Mof_H 	H 	0.3069	0.2975	0.6402	-0.017
Mof_C 	C 	0.3636	0.29588	0.5868	-0.22
Mof_H 	H 	0.36	0.2799	0.5847	0.1
Mof_C 	C 	0.2972	0.34051	0.6637	0.401
Mof_C 	C 	0.2488	0.48692	0.48652	0.025
Mof_C 	C 	0.2672	0.47405	0.45178	-0.081
Mof_H 	H 	0.2812	0.4817	0.4276	0.052
Mof_C 	C 	0.2652	0.44993	0.45204	-0.015
Mof_C 	C 	0.2425	0.43885	0.48838	-0.073
Mof_H 	H 	0.2403	0.4228	0.4891	0.05
Mof_C 	C 	0.2233	0.4513	0.52348	0.006
Mof_C 	C 	0.2247	0.47512	0.52206	-0.091
Mof_H 	H 	0.2093	0.4835	0.5452	0.057
Mof_C 	C 	0.2843	0.43651	0.41421	0.144
Mof_C 	C 	0.2395	0.41729	0.4039	-0.239
Mof_H 	H 	0.1981	0.413	0.421	0.104
Mof_C 	C 	0.2547	0.40462	0.3696	0.181
Mof_H 	H 	0.2249	0.3916	0.3635	-0.042
Mof_C 	C 	0.3157	0.41143	0.3434	-0.3
Mof_C 	C 	0.3589	0.42953	0.3535	0.211
Mof_H 	H 	0.401	0.4336	0.3366	-0.049
Mof_C 	C 	0.3434	0.44267	0.38835	-0.252
Mof_H 	H 	0.3735	0.4557	0.394	0.113
Mof_C 	C 	0.3301	0.3981	0.3029	0.612
Mof_C 	C 	0.1982	0.43939	0.56261	0.092
Mof_C 	C 	0.1361	0.44811	0.58544	-0.175
Mof_H 	H 	0.1098	0.4613	0.5765	0.082
Mof_C 	C 	0.1132	0.43716	0.62166	0.109
Mof_H 	H 	0.0705	0.4427	0.6366	-0.013
Mof_C 	C 	0.1539	0.4179	0.63565	-0.217
Mof_C 	C 	0.2151	0.40951	0.61302	0.111
Mof_H 	H 	0.2426	0.3966	0.6223	0.004
Mof_C 	C 	0.2372	0.42013	0.57571	-0.175
Mof_H 	H 	0.2781	0.4141	0.5601	0.089
Mof_C 	C 	0.1302	0.40731	0.6772	0.545
Mof_Gd	Gd	0.2683	0.13576	0.26942	1.527
Mof_O 	O 	0.5042	0.13001	0.29508	-0.541
Mof_O 	O 	0.3921	0.1486	0.28573	-0.511
Mof_O 	O 	0.6964	0.13789	0.66636	-0.434
Mof_O 	O 	0.7322	0.17022	0.69129	-0.45
Mof_O 	O 	0.6147	0.09485	0.28137	-0.615
Mof_O 	O 	0.71	0.11795	0.2946	-0.579
Mof_O 	O 	0.8242	0.107	0.6909	-0.525
Mof_O 	O 	0.9316	0.08646	0.69298	-0.533
Mof_C 	C 	0.5106	0.23761	0.48641	0.031
Mof_C 	C 	0.4979	0.22406	0.45022	-0.097
Mof_H 	H 	0.4761	0.2308	0.4268	0.062
Mof_C 	C 	0.5177	0.20094	0.44979	0.022
Mof_C 	C 	0.5516	0.19083	0.48318	-0.082
Mof_H 	H 	0.5667	0.1754	0.4821	0.055
Mof_C 	C 	0.5639	0.204	0.5203	-0.004
Mof_C 	C 	0.544	0.22737	0.52003	-0.087
Mof_H 	H 	0.5537	0.2362	0.5434	0.056
Mof_C 	C 	0.5012	0.18696	0.41179	0.072
Mof_C 	C 	0.4337	0.1901	0.3883	-0.152
Mof_H 	H 	0.3977	0.2014	0.396	0.082
Mof_C 	C 	0.4189	0.17666	0.3535	0.097
Mof_H 	H 	0.3727	0.1788	0.3385	0.007
Mof_C 	C 	0.4719	0.16047	0.34128	-0.192
Mof_C 	C 	0.5397	0.15695	0.3634	0.094
Mof_H 	H 	0.5757	0.1459	0.3547	0.004
Mof_C 	C 	0.5544	0.16981	0.39846	-0.153
Mof_H 	H 	0.6	0.1671	0.4135	0.081
Mof_C 	C 	0.4555	0.14459	0.3038	0.515
Mof_C 	C 	0.6003	0.1925	0.55716	0.129
Mof_C 	C 	0.5951	0.16965	0.5637	-0.2
Mof_H 	H 	0.5684	0.1606	0.5446	0.095
Mof_C 	C 	0.629	0.15892	0.5988	0.134
Mof_H 	H 	0.6241	0.143	0.6024	-0.008
Mof_C 	C 	0.6664	0.17097	0.62585	-0.215
Mof_C 	C 	0.6685	0.19347	0.6203	0.148
Mof_H 	H 	0.6931	0.2025	0.6402	-0.014
Mof_C 	C 	0.6364	0.20412	0.5868	-0.217
Mof_H 	H 	0.64	0.2201	0.5847	0.102
Mof_C 	C 	0.7028	0.15949	0.6637	0.401
Mof_C 	C 	0.7512	0.01308	0.48652	0.029
Mof_C 	C 	0.7328	0.02595	0.45178	-0.081
Mof_H 	H 	0.7188	0.0183	0.4276	0.054
Mof_C 	C 	0.7348	0.05007	0.45204	-0.011
Mof_C 	C 	0.7575	0.06115	0.48838	-0.073
Mof_H 	H 	0.7597	0.0772	0.4891	0.055
Mof_C 	C 	0.7767	0.0487	0.52348	0.011
Mof_C 	C 	0.7753	0.02488	0.52206	-0.091
Mof_H 	H 	0.7907	0.0165	0.5452	0.061
Mof_C 	C 	0.7157	0.06349	0.41421	0.146
Mof_C 	C 	0.7605	0.08271	0.4039	-0.237
Mof_H 	H 	0.8019	0.087	0.421	0.111
Mof_C 	C 	0.7453	0.09538	0.3696	0.183
Mof_H 	H 	0.7751	0.1084	0.3635	-0.035
Mof_C 	C 	0.6843	0.08857	0.3434	-0.297
Mof_C 	C 	0.6411	0.07047	0.3535	0.211
Mof_H 	H 	0.599	0.0664	0.3366	-0.048
Mof_C 	C 	0.6566	0.05733	0.38835	-0.25
Mof_H 	H 	0.6265	0.0443	0.394	0.113
Mof_C 	C 	0.6699	0.1019	0.3029	0.612
Mof_C 	C 	0.8018	0.06061	0.56261	0.091
Mof_C 	C 	0.8639	0.05189	0.58544	-0.167
Mof_H 	H 	0.8902	0.0387	0.5765	0.09
Mof_C 	C 	0.8868	0.06284	0.62166	0.107
Mof_H 	H 	0.9295	0.0573	0.6366	0.002
Mof_C 	C 	0.8461	0.0821	0.63565	-0.206
Mof_C 	C 	0.7849	0.09049	0.61302	0.108
Mof_H 	H 	0.7574	0.1034	0.6223	0.007
Mof_C 	C 	0.7628	0.07987	0.57571	-0.168
Mof_H 	H 	0.7219	0.0859	0.5601	0.088
Mof_C 	C 	0.8698	0.09269	0.6772	0.542
Mof_Gd	Gd	0.7683	0.63576	0.26942	1.54
Mof_O 	O 	0.0042	0.63001	0.29508	-0.563
Mof_O 	O 	0.8921	0.6486	0.28573	-0.511
Mof_O 	O 	0.1964	0.63789	0.66636	-0.44
Mof_O 	O 	0.2322	0.67022	0.69129	-0.456
Mof_O 	O 	0.1147	0.59485	0.28137	-0.609
Mof_O 	O 	0.21	0.61795	0.2946	-0.579
Mof_O 	O 	0.3242	0.607	0.6909	-0.529
Mof_O 	O 	0.4316	0.58646	0.69298	-0.557
Mof_C 	C 	0.0106	0.73761	0.48641	-0.141
Mof_C 	C 	0.9979	0.72406	0.45022	0.069
Mof_H 	H 	0.9761	0.7308	0.4268	0.015
Mof_C 	C 	0.0177	0.70094	0.44979	-0.071
Mof_C 	C 	0.0516	0.69083	0.48318	-0.01
Mof_H 	H 	0.0667	0.6754	0.4821	0.028
Mof_C 	C 	0.0639	0.704	0.5203	-0.085
Mof_C 	C 	0.044	0.72737	0.52003	0.025
Mof_H 	H 	0.0537	0.7362	0.5434	0.007
Mof_C 	C 	0.0012	0.68696	0.41179	0.038
Mof_C 	C 	0.9337	0.6901	0.3883	-0.086
Mof_H 	H 	0.8977	0.7014	0.396	0.067
Mof_C 	C 	0.9189	0.67666	0.3535	0.047
Mof_H 	H 	0.8727	0.6788	0.3385	0.025
Mof_C 	C 	0.9719	0.66047	0.34128	-0.129
Mof_C 	C 	0.0397	0.65695	0.3634	0.015
Mof_H 	H 	0.0757	0.6459	0.3547	0.026
Mof_C 	C 	0.0544	0.66981	0.39846	-0.114
Mof_H 	H 	0.1	0.6671	0.4135	0.065
Mof_C 	C 	0.9555	0.64459	0.3038	0.534
Mof_C 	C 	0.1003	0.6925	0.55716	0.186
Mof_C 	C 	0.0951	0.66965	0.5637	-0.251
Mof_H 	H 	0.0684	0.6606	0.5446	0.109
Mof_C 	C 	0.129	0.65892	0.5988	0.175
Mof_H 	H 	0.1241	0.643	0.6024	-0.026
Mof_C 	C 	0.1664	0.67097	0.62585	-0.254
Mof_C 	C 	0.1685	0.69347	0.6203	0.193
Mof_H 	H 	0.1931	0.7025	0.6402	-0.033
Mof_C 	C 	0.1364	0.70412	0.5868	-0.274
Mof_H 	H 	0.14	0.7201	0.5847	0.118
Mof_C 	C 	0.2028	0.65949	0.6637	0.414
Mof_C 	C 	0.2512	0.51308	0.48652	0.026
Mof_C 	C 	0.2328	0.52595	0.45178	-0.082
Mof_H 	H 	0.2188	0.5183	0.4276	0.052
Mof_C 	C 	0.2348	0.55007	0.45204	-0.014
Mof_C 	C 	0.2575	0.56115	0.48838	-0.073
Mof_H 	H 	0.2597	0.5772	0.4891	0.052
Mof_C 	C 	0.2767	0.5487	0.52348	0.007
Mof_C 	C 	0.2753	0.52488	0.52206	-0.091
Mof_H 	H 	0.2907	0.5165	0.5452	0.058
Mof_C 	C 	0.2157	0.56349	0.41421	0.143
Mof_C 	C 	0.2605	0.58271	0.4039	-0.237
Mof_H 	H 	0.3019	0.587	0.421	0.107
Mof_C 	C 	0.2453	0.59538	0.3696	0.18
Mof_H 	H 	0.2751	0.6084	0.3635	-0.039
Mof_C 	C 	0.1843	0.58857	0.3434	-0.297
Mof_C 	C 	0.1411	0.57047	0.3535	0.208
Mof_H 	H 	0.099	0.5664	0.3366	-0.053
Mof_C 	C 	0.1566	0.55733	0.38835	-0.251
Mof_H 	H 	0.1265	0.5443	0.394	0.107
Mof_C 	C 	0.1699	0.6019	0.3029	0.607
Mof_C 	C 	0.3018	0.56061	0.56261	0.091
Mof_C 	C 	0.3639	0.55189	0.58544	-0.172
Mof_H 	H 	0.3902	0.5387	0.5765	0.086
Mof_C 	C 	0.3868	0.56284	0.62166	0.109
Mof_H 	H 	0.4295	0.5573	0.6366	-0.006
Mof_C 	C 	0.3461	0.5821	0.63565	-0.215
Mof_C 	C 	0.2849	0.59049	0.61302	0.109
Mof_H 	H 	0.2574	0.6034	0.6223	0.004
Mof_C 	C 	0.2628	0.57987	0.57571	-0.173
Mof_H 	H 	0.2219	0.5859	0.5601	0.086
Mof_C 	C 	0.3698	0.59269	0.6772	0.548
Mof_Gd	Gd	0.7683	0.86424	0.23058	1.54
Mof_O 	O 	0.0042	0.86999	0.20492	-0.563
Mof_O 	O 	0.8921	0.8514	0.21427	-0.511
Mof_O 	O 	0.1964	0.86211	0.83364	-0.44
Mof_O 	O 	0.2322	0.82978	0.80871	-0.456
Mof_O 	O 	0.1147	0.90515	0.21863	-0.609
Mof_O 	O 	0.21	0.88205	0.2054	-0.579
Mof_O 	O 	0.3242	0.893	0.8091	-0.529
Mof_O 	O 	0.4316	0.91354	0.80702	-0.557
Mof_C 	C 	0.0106	0.76239	0.01359	-0.141
Mof_C 	C 	0.9979	0.77594	0.04978	0.068
Mof_H 	H 	0.9761	0.7692	0.0732	0.016
Mof_C 	C 	0.0177	0.79906	0.05021	-0.071
Mof_C 	C 	0.0516	0.80917	0.01682	-0.01
Mof_H 	H 	0.0667	0.8246	0.0179	0.028
Mof_C 	C 	0.0639	0.796	0.9797	-0.085
Mof_C 	C 	0.044	0.77263	0.97997	0.025
Mof_H 	H 	0.0537	0.7638	0.9566	0.007
Mof_C 	C 	0.0012	0.81304	0.08821	0.038
Mof_C 	C 	0.9337	0.8099	0.1117	-0.086
Mof_H 	H 	0.8977	0.7986	0.104	0.067
Mof_C 	C 	0.9189	0.82334	0.1465	0.047
Mof_H 	H 	0.8727	0.8212	0.1615	0.025
Mof_C 	C 	0.9719	0.83953	0.15872	-0.129
Mof_C 	C 	0.0397	0.84305	0.1366	0.015
Mof_H 	H 	0.0757	0.8541	0.1453	0.025
Mof_C 	C 	0.0544	0.83019	0.10154	-0.114
Mof_H 	H 	0.1	0.8329	0.0865	0.065
Mof_C 	C 	0.9555	0.85541	0.1962	0.534
Mof_C 	C 	0.1003	0.8075	0.94284	0.185
Mof_C 	C 	0.0951	0.83035	0.9363	-0.25
Mof_H 	H 	0.0684	0.8394	0.9554	0.109
Mof_C 	C 	0.129	0.84108	0.9012	0.175
Mof_H 	H 	0.1241	0.857	0.8976	-0.026
Mof_C 	C 	0.1664	0.82903	0.87415	-0.254
Mof_C 	C 	0.1685	0.80653	0.8797	0.193
Mof_H 	H 	0.1931	0.7975	0.8598	-0.033
Mof_C 	C 	0.1364	0.79588	0.9132	-0.273
Mof_H 	H 	0.14	0.7799	0.9153	0.118
Mof_C 	C 	0.2028	0.84051	0.8363	0.414
Mof_C 	C 	0.2512	0.98692	0.01348	0.026
Mof_C 	C 	0.2328	0.97405	0.04822	-0.082
Mof_H 	H 	0.2188	0.9817	0.0724	0.052
Mof_C 	C 	0.2348	0.94993	0.04796	-0.014
Mof_C 	C 	0.2575	0.93885	0.01162	-0.073
Mof_H 	H 	0.2597	0.9228	0.0109	0.052
Mof_C 	C 	0.2767	0.9513	0.97652	0.007
Mof_C 	C 	0.2753	0.97512	0.97794	-0.091
Mof_H 	H 	0.2907	0.9835	0.9548	0.058
Mof_C 	C 	0.2157	0.93651	0.08579	0.143
Mof_C 	C 	0.2605	0.91729	0.0961	-0.237
Mof_H 	H 	0.3019	0.913	0.079	0.107
Mof_C 	C 	0.2453	0.90462	0.1304	0.18
Mof_H 	H 	0.2751	0.8916	0.1365	-0.039
Mof_C 	C 	0.1843	0.91143	0.1566	-0.297
Mof_C 	C 	0.1411	0.92953	0.1465	0.208
Mof_H 	H 	0.099	0.9336	0.1634	-0.053
Mof_C 	C 	0.1566	0.94267	0.11165	-0.251
Mof_H 	H 	0.1265	0.9557	0.106	0.107
Mof_C 	C 	0.1699	0.8981	0.1971	0.607
Mof_C 	C 	0.3018	0.93939	0.93739	0.091
Mof_C 	C 	0.3639	0.94811	0.91456	-0.172
Mof_H 	H 	0.3902	0.9613	0.9235	0.086
Mof_C 	C 	0.3868	0.93716	0.87834	0.109
Mof_H 	H 	0.4295	0.9427	0.8634	-0.006
Mof_C 	C 	0.3461	0.9179	0.86435	-0.215
Mof_C 	C 	0.2849	0.90951	0.88698	0.109
Mof_H 	H 	0.2574	0.8966	0.8777	0.004
Mof_C 	C 	0.2628	0.92013	0.92429	-0.173
Mof_H 	H 	0.2219	0.9141	0.9399	0.086
Mof_C 	C 	0.3698	0.90731	0.8228	0.548
Mof_Gd	Gd	0.2683	0.36424	0.23058	1.527
Mof_O 	O 	0.5042	0.36999	0.20492	-0.541
Mof_O 	O 	0.3921	0.3514	0.21427	-0.511
Mof_O 	O 	0.6964	0.36211	0.83364	-0.434
Mof_O 	O 	0.7322	0.32978	0.80871	-0.45
Mof_O 	O 	0.6147	0.40515	0.21863	-0.615
Mof_O 	O 	0.71	0.38205	0.2054	-0.579
Mof_O 	O 	0.8242	0.393	0.8091	-0.525
Mof_O 	O 	0.9316	0.41354	0.80702	-0.533
Mof_C 	C 	0.5106	0.26239	0.01359	0.031
Mof_C 	C 	0.4979	0.27594	0.04978	-0.097
Mof_H 	H 	0.4761	0.2692	0.0732	0.062
Mof_C 	C 	0.5177	0.29906	0.05021	0.022
Mof_C 	C 	0.5516	0.30917	0.01682	-0.082
Mof_H 	H 	0.5667	0.3246	0.0179	0.055
Mof_C 	C 	0.5639	0.296	0.9797	-0.004
Mof_C 	C 	0.544	0.27263	0.97997	-0.087
Mof_H 	H 	0.5537	0.2638	0.9566	0.056
Mof_C 	C 	0.5012	0.31304	0.08821	0.072
Mof_C 	C 	0.4337	0.3099	0.1117	-0.152
Mof_H 	H 	0.3977	0.2986	0.104	0.082
Mof_C 	C 	0.4189	0.32334	0.1465	0.097
Mof_H 	H 	0.3727	0.3212	0.1615	0.007
Mof_C 	C 	0.4719	0.33953	0.15872	-0.192
Mof_C 	C 	0.5397	0.34305	0.1366	0.094
Mof_H 	H 	0.5757	0.3541	0.1453	0.004
Mof_C 	C 	0.5544	0.33019	0.10154	-0.153
Mof_H 	H 	0.6	0.3329	0.0865	0.081
Mof_C 	C 	0.4555	0.35541	0.1962	0.515
Mof_C 	C 	0.6003	0.3075	0.94284	0.129
Mof_C 	C 	0.5951	0.33035	0.9363	-0.2
Mof_H 	H 	0.5684	0.3394	0.9554	0.095
Mof_C 	C 	0.629	0.34108	0.9012	0.134
Mof_H 	H 	0.6241	0.357	0.8976	-0.008
Mof_C 	C 	0.6664	0.32903	0.87415	-0.215
Mof_C 	C 	0.6685	0.30653	0.8797	0.148
Mof_H 	H 	0.6931	0.2975	0.8598	-0.014
Mof_C 	C 	0.6364	0.29588	0.9132	-0.217
Mof_H 	H 	0.64	0.2799	0.9153	0.102
Mof_C 	C 	0.7028	0.34051	0.8363	0.401
Mof_C 	C 	0.7512	0.48692	0.01348	0.029
Mof_C 	C 	0.7328	0.47405	0.04822	-0.081
Mof_H 	H 	0.7188	0.4817	0.0724	0.054
Mof_C 	C 	0.7348	0.44993	0.04796	-0.011
Mof_C 	C 	0.7575	0.43885	0.01162	-0.073
Mof_H 	H 	0.7597	0.4228	0.0109	0.055
Mof_C 	C 	0.7767	0.4513	0.97652	0.011
Mof_C 	C 	0.7753	0.47512	0.97794	-0.091
Mof_H 	H 	0.7907	0.4835	0.9548	0.061
Mof_C 	C 	0.7157	0.43651	0.08579	0.146
Mof_C 	C 	0.7605	0.41729	0.0961	-0.237
Mof_H 	H 	0.8019	0.413	0.079	0.111
Mof_C 	C 	0.7453	0.40462	0.1304	0.183
Mof_H 	H 	0.7751	0.3916	0.1365	-0.035
Mof_C 	C 	0.6843	0.41143	0.1566	-0.297
Mof_C 	C 	0.6411	0.42953	0.1465	0.211
Mof_H 	H 	0.599	0.4336	0.1634	-0.048
Mof_C 	C 	0.6566	0.44267	0.11165	-0.25
Mof_H 	H 	0.6265	0.4557	0.106	0.113
Mof_C 	C 	0.6699	0.3981	0.1971	0.612
Mof_C 	C 	0.8018	0.43939	0.93739	0.091
Mof_C 	C 	0.8639	0.44811	0.91456	-0.167
Mof_H 	H 	0.8902	0.4613	0.9235	0.09
Mof_C 	C 	0.8868	0.43716	0.87834	0.107
Mof_H 	H 	0.9295	0.4427	0.8634	0.002
Mof_C 	C 	0.8461	0.4179	0.86435	-0.206
Mof_C 	C 	0.7849	0.40951	0.88698	0.108
Mof_H 	H 	0.7574	0.3966	0.8777	0.007
Mof_C 	C 	0.7628	0.42013	0.92429	-0.168
Mof_H 	H 	0.7219	0.4141	0.9399	0.088
Mof_C 	C 	0.8698	0.40731	0.8228	0.542
Mof_Gd	Gd	0.7317	0.13576	0.23058	1.544
Mof_O 	O 	0.4958	0.13001	0.20492	-0.542
Mof_O 	O 	0.6079	0.1486	0.21427	-0.512
Mof_O 	O 	0.3036	0.13789	0.83364	-0.434
Mof_O 	O 	0.2678	0.17022	0.80871	-0.451
Mof_O 	O 	0.3853	0.09485	0.21863	-0.616
Mof_O 	O 	0.29	0.11795	0.2054	-0.582
Mof_O 	O 	0.1758	0.107	0.8091	-0.529
Mof_O 	O 	0.0684	0.08646	0.80702	-0.558
Mof_C 	C 	0.4894	0.23761	0.01359	0.031
Mof_C 	C 	0.5021	0.22406	0.04978	-0.098
Mof_H 	H 	0.5239	0.2308	0.0732	0.063
Mof_C 	C 	0.4823	0.20094	0.05021	0.021
Mof_C 	C 	0.4484	0.19083	0.01682	-0.083
Mof_H 	H 	0.4333	0.1754	0.0179	0.054
Mof_C 	C 	0.4361	0.204	0.9797	-0.006
Mof_C 	C 	0.456	0.22737	0.97997	-0.087
Mof_H 	H 	0.4463	0.2362	0.9566	0.055
Mof_C 	C 	0.4988	0.18696	0.08821	0.071
Mof_C 	C 	0.5663	0.1901	0.1117	-0.153
Mof_H 	H 	0.6023	0.2014	0.104	0.083
Mof_C 	C 	0.5811	0.17666	0.1465	0.097
Mof_H 	H 	0.6273	0.1788	0.1615	0.006
Mof_C 	C 	0.5281	0.16047	0.15872	-0.193
Mof_C 	C 	0.4603	0.15695	0.1366	0.093
Mof_H 	H 	0.4243	0.1459	0.1453	0.003
Mof_C 	C 	0.4456	0.16981	0.10154	-0.153
Mof_H 	H 	0.4	0.1671	0.0865	0.078
Mof_C 	C 	0.5445	0.14459	0.1962	0.516
Mof_C 	C 	0.3997	0.1925	0.94284	0.13
Mof_C 	C 	0.4049	0.16965	0.9363	-0.202
Mof_H 	H 	0.4316	0.1606	0.9554	0.096
Mof_C 	C 	0.371	0.15892	0.9012	0.135
Mof_H 	H 	0.3759	0.143	0.8976	-0.009
Mof_C 	C 	0.3336	0.17097	0.87415	-0.217
Mof_C 	C 	0.3315	0.19347	0.8797	0.149
Mof_H 	H 	0.3069	0.2025	0.8598	-0.017
Mof_C 	C 	0.3636	0.20412	0.9132	-0.22
Mof_H 	H 	0.36	0.2201	0.9153	0.1
Mof_C 	C 	0.2972	0.15949	0.8363	0.401
Mof_C 	C 	0.2488	0.01308	0.01348	0.025
Mof_C 	C 	0.2672	0.02595	0.04822	-0.081
Mof_H 	H 	0.2812	0.0183	0.0724	0.052
Mof_C 	C 	0.2652	0.05007	0.04796	-0.015
Mof_C 	C 	0.2425	0.06115	0.01162	-0.073
Mof_H 	H 	0.2403	0.0772	0.0109	0.05
Mof_C 	C 	0.2233	0.0487	0.97652	0.006
Mof_C 	C 	0.2247	0.02488	0.97794	-0.091
Mof_H 	H 	0.2093	0.0165	0.9548	0.057
Mof_C 	C 	0.2843	0.06349	0.08579	0.144
Mof_C 	C 	0.2395	0.08271	0.0961	-0.239
Mof_H 	H 	0.1981	0.087	0.079	0.104
Mof_C 	C 	0.2547	0.09538	0.1304	0.181
Mof_H 	H 	0.2249	0.1084	0.1365	-0.042
Mof_C 	C 	0.3157	0.08857	0.1566	-0.3
Mof_C 	C 	0.3589	0.07047	0.1465	0.211
Mof_H 	H 	0.401	0.0664	0.1634	-0.049
Mof_C 	C 	0.3434	0.05733	0.11165	-0.252
Mof_H 	H 	0.3735	0.0443	0.106	0.113
Mof_C 	C 	0.3301	0.1019	0.1971	0.612
Mof_C 	C 	0.1982	0.06061	0.93739	0.092
Mof_C 	C 	0.1361	0.05189	0.91456	-0.175
Mof_H 	H 	0.1098	0.0387	0.9235	0.082
Mof_C 	C 	0.1132	0.06284	0.87834	0.109
Mof_H 	H 	0.0705	0.0573	0.8634	-0.013
Mof_C 	C 	0.1539	0.0821	0.86435	-0.217
Mof_C 	C 	0.2151	0.09049	0.88698	0.11
Mof_H 	H 	0.2426	0.1034	0.8777	0.004
Mof_C 	C 	0.2372	0.07987	0.92429	-0.175
Mof_H 	H 	0.2781	0.0859	0.9399	0.089
Mof_C 	C 	0.1302	0.09269	0.8228	0.545
Mof_Gd	Gd	0.2317	0.63576	0.23058	1.53
Mof_O 	O 	0.9958	0.63001	0.20492	-0.497
Mof_O 	O 	0.1079	0.6486	0.21427	-0.506
Mof_O 	O 	0.8036	0.63789	0.83364	-0.429
Mof_O 	O 	0.7678	0.67022	0.80871	-0.445
Mof_O 	O 	0.8853	0.59485	0.21863	-0.595
Mof_O 	O 	0.79	0.61795	0.2054	-0.576
Mof_O 	O 	0.6758	0.607	0.8091	-0.53
Mof_O 	O 	0.5684	0.58646	0.80702	-0.557
Mof_C 	C 	0.9894	0.73761	0.01359	0.203
Mof_C 	C 	0.0021	0.72406	0.04978	-0.264
Mof_H 	H 	0.0239	0.7308	0.0732	0.109
Mof_C 	C 	0.9823	0.70094	0.05021	0.114
Mof_C 	C 	0.9484	0.69083	0.01682	-0.155
Mof_H 	H 	0.9333	0.6754	0.0179	0.082
Mof_C 	C 	0.9361	0.704	0.9797	0.076
Mof_C 	C 	0.956	0.72737	0.97997	-0.198
Mof_H 	H 	0.9463	0.7362	0.9566	0.103
Mof_C 	C 	0.9988	0.68696	0.08821	0.103
Mof_C 	C 	0.0663	0.6901	0.1117	-0.216
Mof_H 	H 	0.1023	0.7014	0.104	0.098
Mof_C 	C 	0.0811	0.67666	0.1465	0.143
Mof_H 	H 	0.1273	0.6788	0.1615	-0.011
Mof_C 	C 	0.0281	0.66047	0.15872	-0.251
Mof_C 	C 	0.9603	0.65695	0.1366	0.168
Mof_H 	H 	0.9243	0.6459	0.1453	-0.018
Mof_C 	C 	0.9456	0.66981	0.10154	-0.189
Mof_H 	H 	0.9	0.6671	0.0865	0.092
Mof_C 	C 	0.0445	0.64459	0.1962	0.489
Mof_C 	C 	0.8997	0.6925	0.94284	0.073
Mof_C 	C 	0.9049	0.66965	0.9363	-0.151
Mof_H 	H 	0.9316	0.6606	0.9554	0.082
Mof_C 	C 	0.871	0.65892	0.9012	0.094
Mof_H 	H 	0.8759	0.643	0.8976	0.008
Mof_C 	C 	0.8336	0.67097	0.87415	-0.177
Mof_C 	C 	0.8315	0.69347	0.8797	0.103
Mof_H 	H 	0.8069	0.7025	0.8598	0.002
Mof_C 	C 	0.8636	0.70412	0.9132	-0.163
Mof_H 	H 	0.86	0.7201	0.9153	0.084
Mof_C 	C 	0.7972	0.65949	0.8363	0.388
Mof_C 	C 	0.7488	0.51308	0.01348	0.029
Mof_C 	C 	0.7672	0.52595	0.04822	-0.082
Mof_H 	H 	0.7812	0.5183	0.0724	0.056
Mof_C 	C 	0.7652	0.55007	0.04796	-0.009
Mof_C 	C 	0.7425	0.56115	0.01162	-0.073
Mof_H 	H 	0.7403	0.5772	0.0109	0.054
Mof_C 	C 	0.7233	0.5487	0.97652	0.01
Mof_C 	C 	0.7247	0.52488	0.97794	-0.091
Mof_H 	H 	0.7093	0.5165	0.9548	0.06
Mof_C 	C 	0.7843	0.56349	0.08579	0.142
Mof_C 	C 	0.7395	0.58271	0.0961	-0.232
Mof_H 	H 	0.6981	0.587	0.079	0.106
Mof_C 	C 	0.7547	0.59538	0.1304	0.176
Mof_H 	H 	0.7249	0.6084	0.1365	-0.036
Mof_C 	C 	0.8157	0.58857	0.1566	-0.288
Mof_C 	C 	0.8589	0.57047	0.1465	0.204
Mof_H 	H 	0.901	0.5664	0.1634	-0.038
Mof_C 	C 	0.8434	0.55733	0.11165	-0.243
Mof_H 	H 	0.8735	0.5443	0.106	0.116
Mof_C 	C 	0.8301	0.6019	0.1971	0.604
Mof_C 	C 	0.6982	0.56061	0.93739	0.093
Mof_C 	C 	0.6361	0.55189	0.91456	-0.173
Mof_H 	H 	0.6098	0.5387	0.9235	0.086
Mof_C 	C 	0.6132	0.56284	0.87834	0.111
Mof_H 	H 	0.5705	0.5573	0.8634	-0.006
Mof_C 	C 	0.6539	0.5821	0.86435	-0.215
Mof_C 	C 	0.7151	0.59049	0.88698	0.113
Mof_H 	H 	0.7426	0.6034	0.8777	0.005
Mof_C 	C 	0.7372	0.57987	0.92429	-0.173
Mof_H 	H 	0.7781	0.5859	0.9399	0.091
Mof_C 	C 	0.6302	0.59269	0.8228	0.549
Mof_Gd	Gd	-7.32307e-33	0.09952	0.75	1.957
Mof_Gd	Gd	0.5	0.59952	0.75	2.034
Mof_Gd	Gd	0.5	0.90048	0.75	2.034
Mof_Gd	Gd	5.35085e-33	0.40048	0.75	1.957
Mof_Gd	Gd	8.12057e-33	0.90048	0.25	1.957
Mof_Gd	Gd	0.5	0.40048	0.25	2.034
Mof_Gd	Gd	0.5	0.09952	0.25	2.034
Mof_Gd	Gd	-1.72273e-32	0.59952	0.25	1.957
_end
