data_functionalizedCrystal
_audit_creation_method	'EQeq! by Chris Wilmer'
_symmetry_space_group_name_H-M	'P1'
_symmetry_Int_Tables_number	1
_symmetry_cell_setting	triclinic
loop_
_symmetry_equiv_pos_as_xyz
  x,y,z
_cell_length_a	11.842
_cell_length_b	11.759
_cell_length_c	27.432
_cell_angle_alpha	90
_cell_angle_beta	102.48
_cell_angle_gamma	90
loop_
_atom_site_label
_atom_site_type_symbol
_atom_site_fract_x
_atom_site_fract_y
_atom_site_fract_z
_atom_site_charge
Mof_Co	Co	0.69498	0.36498	0.98166	1.114
Mof_O 	O 	0.867	0.3819	0.97517	-0.521
Mof_O 	O 	0.659	0.3899	0.90296	-0.561
Mof_O 	O 	0.4671	0.3836	0.88092	-0.318
Mof_O 	O 	0.2049	0.6798	0.5921	-0.423
Mof_O 	O 	0.2925	0.6891	0.52705	-0.451
Mof_O 	O 	0.8602	0.5126	0.87711	-0.449
Mof_O 	O 	0.9298	0.6226	0.9431	-0.38
Mof_O 	O 	0.8917	0.9145	0.54267	-0.418
Mof_O 	O 	0.9974	0.8089	0.60398	-0.363
Mof_O 	O 	0.2881	0.4606	0.61085	-0.197
Mof_O 	O 	0.8105	0.7401	0.6371	-0.191
Mof_N 	N 	0.7928	0.3097	0.81751	-0.206
Mof_N 	N 	0.721	0.1663	0.56029	-0.26
Mof_C 	C 	0.5627	0.406	0.87164	0.398
Mof_C 	C 	0.5701	0.4542	0.82262	-0.233
Mof_H 	H 	0.635	0.4964	0.8201	0.111
Mof_C 	C 	0.4871	0.4392	0.78225	-0.02
Mof_H 	H 	0.4221	0.3991	0.7864	0.052
Mof_C 	C 	0.4872	0.4796	0.73145	0.128
Mof_C 	C 	0.3951	0.4498	0.69273	-0.247
Mof_H 	H 	0.3384	0.4007	0.6991	0.128
Mof_C 	C 	0.3865	0.4916	0.64508	0.251
Mof_C 	C 	0.4721	0.562	0.63424	-0.244
Mof_H 	H 	0.4679	0.5885	0.602	0.121
Mof_C 	C 	0.5641	0.5916	0.67282	0.13
Mof_H 	H 	0.6217	0.6391	0.6661	-0.001
Mof_C 	C 	0.5719	0.5523	0.72073	-0.194
Mof_H 	H 	0.6338	0.5742	0.746	0.097
Mof_C 	C 	0.2737	0.5094	0.56209	-0.196
Mof_H 	H 	0.2077	0.4739	0.5403	0.1
Mof_H 	H 	0.3416	0.4922	0.549	0.097
Mof_C 	C 	0.2557	0.6367	0.56076	0.39
Mof_C 	C 	0.8916	0.6059	0.89682	0.409
Mof_C 	C 	0.8859	0.7039	0.86167	-0.191
Mof_H 	H 	0.8968	0.7775	0.8742	0.125
Mof_C 	C 	0.8658	0.687	0.81318	-0.039
Mof_H 	H 	0.8518	0.6117	0.8034	0.06
Mof_C 	C 	0.8617	0.7681	0.77181	0.168
Mof_C 	C 	0.8418	0.7249	0.72362	-0.268
Mof_H 	H 	0.8338	0.6467	0.7189	0.138
Mof_C 	C 	0.8334	0.795	0.68236	0.293
Mof_C 	C 	0.8476	0.9109	0.68903	-0.29
Mof_H 	H 	0.8422	0.9589	0.6617	0.153
Mof_C 	C 	0.87	0.9545	0.73689	0.213
Mof_H 	H 	0.8808	0.0325	0.7414	-0.035
Mof_C 	C 	0.8768	0.8854	0.77861	-0.244
Mof_H 	H 	0.8911	0.9167	0.8105	0.137
Mof_C 	C 	0.7928	0.8066	0.59267	-0.179
Mof_H 	H 	0.7457	0.872	0.5966	0.094
Mof_H 	H 	0.75	0.7616	0.5652	0.098
Mof_C 	C 	0.9053	0.8484	0.57921	0.4
Mof_C 	C 	0.7114	0.2369	0.79541	0.083
Mof_H 	H 	0.6665	0.2014	0.8149	0.01
Mof_C 	C 	0.69	0.2112	0.74503	-0.125
Mof_H 	H 	0.6313	0.1606	0.7315	0.074
Mof_C 	C 	0.7559	0.2606	0.71472	0.051
Mof_C 	C 	0.8387	0.3382	0.7376	-0.121
Mof_H 	H 	0.884	0.3758	0.7189	0.088
Mof_C 	C 	0.854	0.36	0.78789	0.081
Mof_H 	H 	0.9102	0.4126	0.8021	0.027
Mof_C 	C 	0.7415	0.2297	0.66115	0.077
Mof_C 	C 	0.6607	0.1531	0.6375	-0.161
Mof_H 	H 	0.6103	0.1197	0.655	0.087
Mof_C 	C 	0.653	0.1251	0.58826	0.096
Mof_H 	H 	0.596	0.0736	0.5737	-0.05
Mof_C 	C 	0.8005	0.2388	0.58307	0.099
Mof_H 	H 	0.8504	0.2699	0.5648	0.01
Mof_C 	C 	0.8137	0.2708	0.63212	-0.149
Mof_H 	H 	0.8724	0.3212	0.646	0.099
Mof_Co	Co	0.83099	0.35131	0.89698	1.188
Mof_Co	Co	0.30502	0.86498	0.51834	1.107
Mof_O 	O 	0.133	0.8819	0.52483	-0.571
Mof_O 	O 	0.341	0.8899	0.59704	-0.558
Mof_O 	O 	0.5329	0.8836	0.61908	-0.315
Mof_O 	O 	0.7951	0.1798	0.9079	-0.406
Mof_O 	O 	0.7075	0.1891	0.97295	-0.448
Mof_O 	O 	0.1398	0.0126	0.62289	-0.482
Mof_O 	O 	0.0702	0.1226	0.5569	-0.442
Mof_O 	O 	0.1083	0.4145	0.95733	-0.454
Mof_O 	O 	0.0026	0.3089	0.89602	-0.446
Mof_O 	O 	0.7119	0.9606	0.88915	-0.171
Mof_O 	O 	0.1895	0.2401	0.8629	-0.193
Mof_N 	N 	0.2072	0.8097	0.68249	-0.214
Mof_N 	N 	0.279	0.6663	0.93971	-0.255
Mof_C 	C 	0.4373	0.906	0.62836	0.396
Mof_C 	C 	0.4299	0.9542	0.67738	-0.221
Mof_H 	H 	0.365	0.9964	0.6799	0.112
Mof_C 	C 	0.5129	0.9392	0.71775	-0.036
Mof_H 	H 	0.5779	0.8991	0.7136	0.057
Mof_C 	C 	0.5128	0.9796	0.76855	0.165
Mof_C 	C 	0.6049	0.9498	0.80727	-0.268
Mof_H 	H 	0.6616	0.9007	0.8009	0.136
Mof_C 	C 	0.6135	0.9916	0.85492	0.278
Mof_C 	C 	0.5279	0.062	0.86576	-0.283
Mof_H 	H 	0.5321	0.0885	0.898	0.133
Mof_C 	C 	0.4359	0.0916	0.82718	0.165
Mof_H 	H 	0.3783	0.1391	0.8339	-0.015
Mof_C 	C 	0.4281	0.0523	0.77927	-0.239
Mof_H 	H 	0.3662	0.0742	0.754	0.11
Mof_C 	C 	0.7263	0.0094	0.93791	-0.286
Mof_H 	H 	0.7923	0.9739	0.9597	0.157
Mof_H 	H 	0.6584	0.9922	0.951	0.138
Mof_C 	C 	0.7443	0.1367	0.93924	0.42
Mof_C 	C 	0.1084	0.1059	0.60318	0.408
Mof_C 	C 	0.1141	0.2039	0.63833	-0.224
Mof_H 	H 	0.1032	0.2775	0.6258	0.112
Mof_C 	C 	0.1342	0.187	0.68682	-0.033
Mof_H 	H 	0.1482	0.1117	0.6966	0.044
Mof_C 	C 	0.1383	0.2681	0.72819	0.122
Mof_C 	C 	0.1582	0.2249	0.77638	-0.252
Mof_H 	H 	0.1662	0.1467	0.7811	0.118
Mof_C 	C 	0.1666	0.295	0.81764	0.257
Mof_C 	C 	0.1524	0.4109	0.81097	-0.262
Mof_H 	H 	0.1578	0.4589	0.8383	0.123
Mof_C 	C 	0.13	0.4545	0.76311	0.133
Mof_H 	H 	0.1192	0.5325	0.7586	-0.023
Mof_C 	C 	0.1232	0.3854	0.72139	-0.215
Mof_H 	H 	0.1089	0.4167	0.6895	0.099
Mof_C 	C 	0.2072	0.3066	0.90733	-0.195
Mof_H 	H 	0.2543	0.372	0.9034	0.097
Mof_H 	H 	0.25	0.2616	0.9348	0.101
Mof_C 	C 	0.0947	0.3484	0.92079	0.407
Mof_C 	C 	0.2886	0.7369	0.70459	0.078
Mof_H 	H 	0.3335	0.7014	0.6851	0.011
Mof_C 	C 	0.31	0.7112	0.75497	-0.126
Mof_H 	H 	0.3687	0.6606	0.7685	0.077
Mof_C 	C 	0.2441	0.7606	0.78528	0.046
Mof_C 	C 	0.1613	0.8382	0.7624	-0.128
Mof_H 	H 	0.116	0.8758	0.7811	0.064
Mof_C 	C 	0.146	0.86	0.71211	0.071
Mof_H 	H 	0.0898	0.9126	0.6979	-0.003
Mof_C 	C 	0.2585	0.7297	0.83885	0.071
Mof_C 	C 	0.3393	0.6531	0.8625	-0.157
Mof_H 	H 	0.3897	0.6197	0.845	0.09
Mof_C 	C 	0.347	0.6251	0.91174	0.095
Mof_H 	H 	0.404	0.5736	0.9263	-0.041
Mof_C 	C 	0.1995	0.7388	0.91693	0.091
Mof_H 	H 	0.1496	0.7699	0.9352	-0.007
Mof_C 	C 	0.1863	0.7708	0.86788	-0.151
Mof_H 	H 	0.1276	0.8212	0.854	0.072
Mof_Co	Co	0.16901	0.85131	0.60302	1.169
Mof_Co	Co	0.30502	0.63502	0.01834	1.099
Mof_O 	O 	0.133	0.6181	0.02483	-0.584
Mof_O 	O 	0.341	0.6101	0.09704	-0.563
Mof_O 	O 	0.5329	0.6164	0.11908	-0.321
Mof_O 	O 	0.7951	0.3202	0.4079	-0.398
Mof_O 	O 	0.7075	0.3109	0.47295	-0.446
Mof_O 	O 	0.1398	0.4874	0.12289	-0.475
Mof_O 	O 	0.0702	0.3774	0.0569	-0.448
Mof_O 	O 	0.1083	0.0855	0.45733	-0.469
Mof_O 	O 	0.0026	0.1911	0.39602	-0.449
Mof_O 	O 	0.7119	0.5394	0.38915	-0.186
Mof_O 	O 	0.1895	0.2599	0.3629	-0.189
Mof_N 	N 	0.2072	0.6903	0.18249	-0.215
Mof_N 	N 	0.279	0.8337	0.43971	-0.26
Mof_C 	C 	0.4373	0.594	0.12836	0.399
Mof_C 	C 	0.4299	0.5458	0.17738	-0.236
Mof_H 	H 	0.365	0.5036	0.1799	0.113
Mof_C 	C 	0.5129	0.5608	0.21775	-0.017
Mof_H 	H 	0.5779	0.6009	0.2136	0.05
Mof_C 	C 	0.5128	0.5204	0.26855	0.125
Mof_C 	C 	0.6049	0.5502	0.30727	-0.241
Mof_H 	H 	0.6616	0.5993	0.3009	0.126
Mof_C 	C 	0.6135	0.5084	0.35492	0.247
Mof_C 	C 	0.5279	0.438	0.36576	-0.24
Mof_H 	H 	0.5321	0.4115	0.398	0.119
Mof_C 	C 	0.4359	0.4084	0.32718	0.126
Mof_H 	H 	0.3783	0.3609	0.3339	-0
Mof_C 	C 	0.4281	0.4477	0.27927	-0.191
Mof_H 	H 	0.3662	0.4258	0.254	0.096
Mof_C 	C 	0.7263	0.4906	0.43791	-0.204
Mof_H 	H 	0.7923	0.5261	0.4597	0.12
Mof_H 	H 	0.6584	0.5078	0.451	0.101
Mof_C 	C 	0.7443	0.3633	0.43924	0.397
Mof_C 	C 	0.1084	0.3941	0.10318	0.411
Mof_C 	C 	0.1141	0.2961	0.13833	-0.229
Mof_H 	H 	0.1032	0.2225	0.1258	0.112
Mof_C 	C 	0.1342	0.313	0.18682	-0.022
Mof_H 	H 	0.1482	0.3883	0.1966	0.044
Mof_C 	C 	0.1383	0.2319	0.22819	0.104
Mof_C 	C 	0.1582	0.2751	0.27638	-0.235
Mof_H 	H 	0.1662	0.3533	0.2811	0.113
Mof_C 	C 	0.1666	0.205	0.31764	0.239
Mof_C 	C 	0.1524	0.0891	0.31097	-0.229
Mof_H 	H 	0.1578	0.0411	0.3383	0.107
Mof_C 	C 	0.13	0.0455	0.26311	0.078
Mof_H 	H 	0.1192	0.9675	0.2586	0.006
Mof_C 	C 	0.1232	0.1146	0.22139	-0.182
Mof_H 	H 	0.1089	0.0833	0.1895	0.084
Mof_C 	C 	0.2072	0.1934	0.40733	-0.195
Mof_H 	H 	0.2543	0.128	0.4034	0.094
Mof_H 	H 	0.25	0.2384	0.4348	0.096
Mof_C 	C 	0.0947	0.1516	0.42079	0.408
Mof_C 	C 	0.2886	0.7631	0.20459	0.079
Mof_H 	H 	0.3335	0.7986	0.1851	0.013
Mof_C 	C 	0.31	0.7888	0.25497	-0.126
Mof_H 	H 	0.3687	0.8394	0.2685	0.08
Mof_C 	C 	0.2441	0.7394	0.28528	0.046
Mof_C 	C 	0.1613	0.6618	0.2624	-0.129
Mof_H 	H 	0.116	0.6242	0.2811	0.062
Mof_C 	C 	0.146	0.64	0.21211	0.07
Mof_H 	H 	0.0898	0.5874	0.1979	-0.006
Mof_C 	C 	0.2585	0.7703	0.33885	0.071
Mof_C 	C 	0.3393	0.8469	0.3625	-0.157
Mof_H 	H 	0.3897	0.8803	0.345	0.093
Mof_C 	C 	0.347	0.8749	0.41174	0.096
Mof_H 	H 	0.404	0.9264	0.4263	-0.041
Mof_C 	C 	0.1995	0.7612	0.41693	0.091
Mof_H 	H 	0.1496	0.7301	0.4352	-0.014
Mof_C 	C 	0.1863	0.7292	0.36788	-0.153
Mof_H 	H 	0.1276	0.6788	0.354	0.07
Mof_Co	Co	0.16901	0.64869	0.10302	1.166
Mof_Co	Co	0.69498	0.13502	0.48166	1.104
Mof_O 	O 	0.867	0.1181	0.47517	-0.537
Mof_O 	O 	0.659	0.1101	0.40296	-0.566
Mof_O 	O 	0.4671	0.1164	0.38092	-0.324
Mof_O 	O 	0.2049	0.8202	0.0921	-0.415
Mof_O 	O 	0.2925	0.8109	0.02705	-0.449
Mof_O 	O 	0.8602	0.9874	0.37711	-0.439
Mof_O 	O 	0.9298	0.8774	0.4431	-0.385
Mof_O 	O 	0.8917	0.5855	0.04267	-0.431
Mof_O 	O 	0.9974	0.6911	0.10398	-0.365
Mof_O 	O 	0.2881	0.0394	0.11085	-0.212
Mof_O 	O 	0.8105	0.7599	0.1371	-0.186
Mof_N 	N 	0.7928	0.1903	0.31751	-0.206
Mof_N 	N 	0.721	0.3337	0.06029	-0.265
Mof_C 	C 	0.5627	0.094	0.37164	0.402
Mof_C 	C 	0.5701	0.0458	0.32262	-0.25
Mof_H 	H 	0.635	0.0036	0.3201	0.111
Mof_C 	C 	0.4871	0.0608	0.28225	0.002
Mof_H 	H 	0.4221	0.1009	0.2864	0.044
Mof_C 	C 	0.4872	0.0204	0.23145	0.081
Mof_C 	C 	0.3951	0.0502	0.19273	-0.214
Mof_H 	H 	0.3384	0.0993	0.1991	0.116
Mof_C 	C 	0.3865	0.0084	0.14508	0.214
Mof_C 	C 	0.4721	0.938	0.13424	-0.193
Mof_H 	H 	0.4679	0.9115	0.102	0.105
Mof_C 	C 	0.5641	0.9084	0.17282	0.085
Mof_H 	H 	0.6217	0.8609	0.1661	0.015
Mof_C 	C 	0.5719	0.9477	0.22073	-0.136
Mof_H 	H 	0.6338	0.9258	0.246	0.081
Mof_C 	C 	0.2737	0.9906	0.06209	-0.113
Mof_H 	H 	0.2077	0.0261	0.0403	0.062
Mof_H 	H 	0.3416	0.0078	0.049	0.059
Mof_C 	C 	0.2557	0.8633	0.06076	0.368
Mof_C 	C 	0.8916	0.8941	0.39682	0.411
Mof_C 	C 	0.8859	0.7961	0.36167	-0.195
Mof_H 	H 	0.8968	0.7225	0.3742	0.126
Mof_C 	C 	0.8658	0.813	0.31318	-0.029
Mof_H 	H 	0.8518	0.8883	0.3034	0.061
Mof_C 	C 	0.8617	0.7319	0.27181	0.15
Mof_C 	C 	0.8418	0.7751	0.22362	-0.251
Mof_H 	H 	0.8338	0.8533	0.2189	0.135
Mof_C 	C 	0.8334	0.705	0.18236	0.275
Mof_C 	C 	0.8476	0.5891	0.18903	-0.256
Mof_H 	H 	0.8422	0.5411	0.1617	0.137
Mof_C 	C 	0.87	0.5455	0.23689	0.158
Mof_H 	H 	0.8808	0.4675	0.2414	-0.005
Mof_C 	C 	0.8768	0.6146	0.27861	-0.21
Mof_H 	H 	0.8911	0.5833	0.3105	0.122
Mof_C 	C 	0.7928	0.6934	0.09267	-0.179
Mof_H 	H 	0.7457	0.628	0.0966	0.091
Mof_H 	H 	0.75	0.7384	0.0652	0.094
Mof_C 	C 	0.9053	0.6516	0.07921	0.4
Mof_C 	C 	0.7114	0.2631	0.29541	0.084
Mof_H 	H 	0.6665	0.2986	0.3149	0.011
Mof_C 	C 	0.69	0.2888	0.24503	-0.126
Mof_H 	H 	0.6313	0.3394	0.2315	0.077
Mof_C 	C 	0.7559	0.2394	0.21472	0.051
Mof_C 	C 	0.8387	0.1618	0.2376	-0.122
Mof_H 	H 	0.884	0.1242	0.2189	0.086
Mof_C 	C 	0.854	0.14	0.28789	0.081
Mof_H 	H 	0.9102	0.0874	0.3021	0.023
Mof_C 	C 	0.7415	0.2703	0.16115	0.078
Mof_C 	C 	0.6607	0.3469	0.1375	-0.162
Mof_H 	H 	0.6103	0.3803	0.155	0.09
Mof_C 	C 	0.653	0.3749	0.08826	0.098
Mof_H 	H 	0.596	0.4264	0.0737	-0.05
Mof_C 	C 	0.8005	0.2612	0.08307	0.1
Mof_H 	H 	0.8504	0.2301	0.0648	0.003
Mof_C 	C 	0.8137	0.2292	0.13212	-0.151
Mof_H 	H 	0.8724	0.1788	0.146	0.097
Mof_Co	Co	0.83099	0.14869	0.39698	1.185
Mof_Co	Co	-3.38417e-33	0.5	-0	1.142
Mof_Co	Co	3.04819e-17	1.35367e-32	0.5	1.146
_end
