data_functionalizedCrystal
_audit_creation_method	'EQeq! by Chris Wilmer'
_symmetry_space_group_name_H-M	'P1'
_symmetry_Int_Tables_number	1
_symmetry_cell_setting	triclinic
loop_
_symmetry_equiv_pos_as_xyz
  x,y,z
_cell_length_a	18.6086
_cell_length_b	20.2422
_cell_length_c	20.8135
_cell_angle_alpha	70.421
_cell_angle_beta	68.955
_cell_angle_gamma	68.031
loop_
_atom_site_label
_atom_site_type_symbol
_atom_site_fract_x
_atom_site_fract_y
_atom_site_fract_z
_atom_site_charge
Mof_Zn	Zn	0.36447	0.21225	0.52309	1.205
Mof_Zn	Zn	0.38468	0.35848	0.52669	1.215
Mof_Zn	Zn	0.21932	0.35233	0.52529	1.204
Mof_Zn	Zn	0.36429	0.34106	0.3827	1.173
Mof_Zn	Zn	0.80098	0.79175	0.09395	1.209
Mof_Zn	Zn	0.80413	0.92156	0.95983	1.207
Mof_Zn	Zn	0.94887	0.77754	0.95973	1.213
Mof_Zn	Zn	0.77454	0.77668	0.95546	1.179
Mof_H 	H 	0.2333	0.0689	0.6687	0.057
Mof_H 	H 	0.4841	0.5399	0.4246	0.04
Mof_H 	H 	0.9414	0.0559	0.8159	0.059
Mof_H 	H 	0.6365	0.6747	0.2409	0.058
Mof_H 	H 	0.5394	0.4541	0.2592	0.047
Mof_H 	H 	0.5491	0.6259	0.3554	0.071
Mof_H 	H 	0.8874	0.6159	0.8322	0.023
Mof_H 	H 	0.9384	0.6785	0.2418	0.061
Mof_H 	H 	0.0799	0.4716	0.6843	0.061
Mof_H 	H 	0.6031	0.9475	0.362	0.076
Mof_H 	H 	0.5242	0.0301	0.4305	0.036
Mof_H 	H 	0.0388	0.5314	0.4334	0.04
Mof_H 	H 	0.1336	0.8837	0.8332	0.039
Mof_H 	H 	0.959	0.6178	0.3633	0.071
Mof_H 	H 	0.6783	0.0904	0.0706	0.038
Mof_H 	H 	0.608	0.1718	0.139	0.052
Mof_H 	H 	0.6771	0.923	0.2418	0.065
Mof_H 	H 	0.217	0.9498	0.7512	0.068
Mof_H 	H 	0.5292	0.197	0.2605	0.037
Mof_H 	H 	0.1241	0.6394	0.0723	0.036
Mof_H 	H 	0.0955	0.6422	0.8173	0.057
Mof_H 	H 	0.2056	0.5658	0.1408	0.057
Mof_H 	H 	0.2261	0.5027	0.2631	0.038
Mof_H 	H 	0.2226	0.5759	0.7434	0.065
Mof_H 	H 	0.9526	0.5329	0.7627	0.07
Mof_H 	H 	0.2885	0.4981	0.669	0.043
Mof_H 	H 	0.9595	0.1726	0.7333	0.069
Mof_H 	H 	0.6995	0.5827	0.0767	0.029
Mof_H 	H 	0.5596	0.9583	0.7376	0.068
Mof_H 	H 	0.0393	0.2425	0.6549	0.034
Mof_H 	H 	0.5087	0.0765	0.6577	0.06
Mof_H 	H 	0.6235	0.5049	0.1433	0.059
Mof_H 	H 	0.5686	0.2534	0.6396	0.037
Mof_H 	H 	0.71	0.0666	0.7863	0.051
Mof_H 	H 	0.6509	0.889	0.8062	0.013
Mof_H 	H 	0.6572	0.1831	0.7075	0.061
Mof_C 	C 	0.4604	0.4326	0.3947	0.405
Mof_C 	C 	0.9401	0.6893	0.8807	0.401
Mof_C 	C 	0.9751	0.9191	0.8856	0.381
Mof_C 	C 	0.2003	0.2076	0.6026	0.38
Mof_C 	C 	0.1781	0.0903	0.6829	-0.029
Mof_C 	C 	0.5092	0.5401	0.377	0.024
Mof_C 	C 	0.506	0.4877	0.3478	-0.099
Mof_C 	C 	0.9968	0.0351	0.8028	-0.035
Mof_C 	C 	0.6345	0.6403	0.2216	-0.032
Mof_C 	C 	0.5429	0.4878	0.2783	-0.028
Mof_C 	C 	0.9849	0.6369	0.832	-0.104
Mof_C 	C 	0.1295	0.0468	0.7338	0.023
Mof_C 	C 	0.5893	0.5903	0.2642	0.028
Mof_C 	C 	0.1469	0.163	0.6537	-0.098
Mof_C 	C 	0.5487	0.5908	0.3361	-0.098
Mof_C 	C 	0.0456	0.0789	0.7524	0.03
Mof_C 	C 	0.9431	0.6043	0.8146	0.035
Mof_C 	C 	0.0289	0.9632	0.8327	-0.089
Mof_C 	C 	0.0415	0.6091	0.2677	0.027
Mof_C 	C 	0.9921	0.6555	0.2223	-0.035
Mof_C 	C 	0.1083	0.4927	0.6964	-0.038
Mof_C 	C 	0.5889	0.9972	0.3409	-0.112
Mof_C 	C 	0.5414	0.0469	0.3817	0.034
Mof_C 	C 	0.5182	0.122	0.352	-0.111
Mof_C 	C 	0.6161	0.0214	0.2671	0.039
Mof_C 	C 	0.1401	0.5088	0.3547	-0.097
Mof_C 	C 	0.0668	0.5393	0.7432	0.037
Mof_C 	C 	0.06	0.5429	0.3846	0.022
Mof_C 	C 	0.4641	0.1749	0.3975	0.387
Mof_C 	C 	0.1116	0.9325	0.8128	0.021
Mof_C 	C 	0.0116	0.5936	0.3425	-0.098
Mof_C 	C 	0.6635	0.0738	0.1195	0.004
Mof_C 	C 	0.6753	0.6386	0.1523	-0.1
Mof_C 	C 	0.6205	0.122	0.16	-0.083
Mof_C 	C 	0.2326	0.4283	0.6177	0.394
Mof_C 	C 	0.022	0.6672	0.1503	-0.093
Mof_C 	C 	0.7237	0.6906	0.1079	0.384
Mof_C 	C 	0.193	0.4535	0.4002	0.365
Mof_C 	C 	0.6624	0.9731	0.2223	-0.051
Mof_C 	C 	0.6864	0.9985	0.1501	-0.079
Mof_C 	C 	0.1619	0.972	0.7642	-0.091
Mof_C 	C 	0.1901	0.4776	0.668	-0.091
Mof_C 	C 	0.5933	0.0978	0.236	0.003
Mof_C 	C 	0.7345	0.9447	0.1036	0.371
Mof_C 	C 	0.5441	0.147	0.2804	-0.021
Mof_C 	C 	0.9675	0.7134	0.1032	0.392
Mof_C 	C 	0.1038	0.6316	0.1212	0.02
Mof_C 	C 	0.0675	0.6205	0.8053	-0.023
Mof_C 	C 	0.1522	0.5878	0.1618	-0.095
Mof_C 	C 	0.1097	0.5724	0.7609	0.02
Mof_C 	C 	0.1235	0.5735	0.2379	0.017
Mof_C 	C 	0.5862	0.538	0.235	0.019
Mof_C 	C 	0.1721	0.5245	0.2825	-0.033
Mof_C 	C 	0.1933	0.5552	0.7318	-0.087
Mof_C 	C 	0.9816	0.5555	0.7724	-0.11
Mof_C 	C 	0.2329	0.5089	0.687	0.02
Mof_C 	C 	0.0149	0.1515	0.7214	-0.102
Mof_C 	C 	0.6714	0.5851	0.1234	0.016
Mof_C 	C 	0.5917	0.9796	0.7448	-0.11
Mof_C 	C 	0.5893	0.0533	0.7127	0.036
Mof_C 	C 	0.4697	0.2152	0.5992	0.393
Mof_C 	C 	0.0625	0.1935	0.674	0.027
Mof_C 	C 	0.5278	0.1715	0.643	-0.093
Mof_C 	C 	0.7382	0.9291	0.8569	0.39
Mof_C 	C 	0.5374	0.098	0.6691	-0.039
Mof_C 	C 	0.6874	0.9731	0.8048	-0.108
Mof_C 	C 	0.6269	0.5378	0.1635	-0.095
Mof_C 	C 	0.5737	0.2037	0.6577	0.015
Mof_C 	C 	0.6814	0.0445	0.7753	-0.018
Mof_C 	C 	0.6334	0.0869	0.7284	0.014
Mof_C 	C 	0.6443	0.939	0.7882	0.023
Mof_C 	C 	0.6262	0.1615	0.6991	-0.087
Mof_O 	O 	0.33436	0.31732	0.4898	-0.96
Mof_O 	O 	0.83428	0.81613	0.99137	-0.959
Mof_O 	O 	0.0062	0.8514	0.90356	-0.485
Mof_O 	O 	0.1564	0.4247	0.4628	-0.49
Mof_O 	O 	0.4303	0.14789	0.45914	-0.502
Mof_O 	O 	0.1914	0.4044	0.5999	-0.499
Mof_O 	O 	0.2742	0.17412	0.58436	-0.507
Mof_O 	O 	0.9027	0.9527	0.9071	-0.498
Mof_O 	O 	0.3078	0.4141	0.5973	-0.495
Mof_O 	O 	0.4391	0.4284	0.45977	-0.495
Mof_O 	O 	0.9858	0.7112	0.898	-0.488
Mof_O 	O 	0.7321	0.729	0.1403	-0.503
Mof_O 	O 	0.4629	0.28324	0.57665	-0.494
Mof_O 	O 	0.753	0.9713	0.03757	-0.503
Mof_O 	O 	0.0001	0.7219	0.03732	-0.492
Mof_O 	O 	0.744	0.9681	0.8912	-0.507
Mof_O 	O 	0.4466	0.3959	0.36567	-0.496
Mof_O 	O 	0.8956	0.741	0.13166	-0.5
Mof_O 	O 	0.7499	0.8777	0.13396	-0.503
Mof_O 	O 	0.4322	0.1826	0.5886	-0.503
Mof_O 	O 	0.1675	0.2743	0.57922	-0.507
Mof_O 	O 	0.867	0.7068	0.89888	-0.501
Mof_O 	O 	0.2664	0.4397	0.37587	-0.505
Mof_O 	O 	0.4555	0.2418	0.3705	-0.513
Mof_O 	O 	0.7566	0.6903	0.0452	-0.508
Mof_O 	O 	0.76241	0.8633	0.86618	-0.525
Mof_Zn	Zn	0.63553	0.78775	0.47691	1.206
Mof_Zn	Zn	0.61532	0.64152	0.47331	1.216
Mof_Zn	Zn	0.78068	0.64767	0.47471	1.205
Mof_Zn	Zn	0.63571	0.65894	0.6173	1.174
Mof_Zn	Zn	0.19902	0.20825	0.90605	1.209
Mof_Zn	Zn	0.19587	0.07844	0.04017	1.207
Mof_Zn	Zn	0.05113	0.22246	0.04027	1.213
Mof_Zn	Zn	0.22546	0.22332	0.04454	1.179
Mof_H 	H 	0.7667	0.9311	0.3313	0.057
Mof_H 	H 	0.5159	0.4601	0.5754	0.04
Mof_H 	H 	0.0586	0.9441	0.1841	0.059
Mof_H 	H 	0.3635	0.3253	0.7591	0.058
Mof_H 	H 	0.4606	0.5459	0.7408	0.047
Mof_H 	H 	0.4509	0.3741	0.6446	0.071
Mof_H 	H 	0.1126	0.3841	0.1678	0.023
Mof_H 	H 	0.0616	0.3215	0.7582	0.061
Mof_H 	H 	0.9201	0.5284	0.3157	0.061
Mof_H 	H 	0.3969	0.0525	0.638	0.076
Mof_H 	H 	0.4758	0.9699	0.5695	0.036
Mof_H 	H 	0.9612	0.4686	0.5666	0.04
Mof_H 	H 	0.8664	0.1163	0.1668	0.039
Mof_H 	H 	0.041	0.3822	0.6367	0.071
Mof_H 	H 	0.3217	0.9096	0.9294	0.038
Mof_H 	H 	0.392	0.8282	0.861	0.052
Mof_H 	H 	0.3229	0.077	0.7582	0.065
Mof_H 	H 	0.783	0.0502	0.2488	0.068
Mof_H 	H 	0.4708	0.803	0.7395	0.037
Mof_H 	H 	0.8759	0.3606	0.9277	0.036
Mof_H 	H 	0.9045	0.3578	0.1827	0.057
Mof_H 	H 	0.7944	0.4342	0.8592	0.057
Mof_H 	H 	0.7739	0.4973	0.7369	0.038
Mof_H 	H 	0.7774	0.4241	0.2566	0.065
Mof_H 	H 	0.0474	0.4671	0.2373	0.07
Mof_H 	H 	0.7115	0.5019	0.331	0.043
Mof_H 	H 	0.0405	0.8274	0.2667	0.069
Mof_H 	H 	0.3005	0.4173	0.9233	0.029
Mof_H 	H 	0.4404	0.0417	0.2624	0.068
Mof_H 	H 	0.9607	0.7575	0.3451	0.034
Mof_H 	H 	0.4913	0.9235	0.3423	0.06
Mof_H 	H 	0.3765	0.4951	0.8567	0.059
Mof_H 	H 	0.4314	0.7466	0.3604	0.037
Mof_H 	H 	0.29	0.9334	0.2137	0.051
Mof_H 	H 	0.3491	0.111	0.1938	0.013
Mof_H 	H 	0.3428	0.8169	0.2925	0.061
Mof_C 	C 	0.5396	0.5674	0.6053	0.405
Mof_C 	C 	0.0599	0.3107	0.1193	0.401
Mof_C 	C 	0.0249	0.0809	0.1144	0.381
Mof_C 	C 	0.7997	0.7924	0.3974	0.38
Mof_C 	C 	0.8219	0.9097	0.3171	-0.029
Mof_C 	C 	0.4908	0.4599	0.623	0.024
Mof_C 	C 	0.494	0.5123	0.6522	-0.099
Mof_C 	C 	0.0032	0.9649	0.1972	-0.035
Mof_C 	C 	0.3655	0.3597	0.7784	-0.032
Mof_C 	C 	0.4571	0.5122	0.7217	-0.028
Mof_C 	C 	0.0151	0.3631	0.168	-0.104
Mof_C 	C 	0.8705	0.9532	0.2662	0.023
Mof_C 	C 	0.4107	0.4097	0.7358	0.028
Mof_C 	C 	0.8531	0.837	0.3463	-0.098
Mof_C 	C 	0.4513	0.4092	0.6639	-0.098
Mof_C 	C 	0.9544	0.9211	0.2476	0.03
Mof_C 	C 	0.0569	0.3957	0.1854	0.035
Mof_C 	C 	0.9711	0.0368	0.1673	-0.089
Mof_C 	C 	0.9585	0.3909	0.7323	0.027
Mof_C 	C 	0.0079	0.3445	0.7777	-0.035
Mof_C 	C 	0.8917	0.5073	0.3036	-0.038
Mof_C 	C 	0.4111	0.0028	0.6591	-0.112
Mof_C 	C 	0.4586	0.9531	0.6183	0.034
Mof_C 	C 	0.4818	0.878	0.648	-0.111
Mof_C 	C 	0.3839	0.9786	0.7329	0.039
Mof_C 	C 	0.8599	0.4912	0.6453	-0.097
Mof_C 	C 	0.9332	0.4607	0.2568	0.037
Mof_C 	C 	0.94	0.4571	0.6154	0.022
Mof_C 	C 	0.5359	0.8251	0.6025	0.387
Mof_C 	C 	0.8884	0.0675	0.1872	0.021
Mof_C 	C 	0.9884	0.4064	0.6575	-0.098
Mof_C 	C 	0.3365	0.9262	0.8805	0.004
Mof_C 	C 	0.3247	0.3614	0.8477	-0.1
Mof_C 	C 	0.3795	0.878	0.84	-0.083
Mof_C 	C 	0.7674	0.5717	0.3823	0.394
Mof_C 	C 	0.978	0.3328	0.8497	-0.093
Mof_C 	C 	0.2763	0.3094	0.8921	0.384
Mof_C 	C 	0.807	0.5465	0.5998	0.365
Mof_C 	C 	0.3376	0.0269	0.7777	-0.051
Mof_C 	C 	0.3136	0.0015	0.8499	-0.079
Mof_C 	C 	0.8381	0.028	0.2358	-0.091
Mof_C 	C 	0.8099	0.5224	0.332	-0.091
Mof_C 	C 	0.4067	0.9022	0.764	0.003
Mof_C 	C 	0.2655	0.0553	0.8964	0.371
Mof_C 	C 	0.4559	0.853	0.7196	-0.021
Mof_C 	C 	0.0325	0.2866	0.8968	0.392
Mof_C 	C 	0.8962	0.3684	0.8788	0.02
Mof_C 	C 	0.9325	0.3795	0.1947	-0.023
Mof_C 	C 	0.8478	0.4122	0.8382	-0.095
Mof_C 	C 	0.8903	0.4276	0.2391	0.02
Mof_C 	C 	0.8765	0.4265	0.7621	0.017
Mof_C 	C 	0.4138	0.462	0.765	0.019
Mof_C 	C 	0.8279	0.4755	0.7175	-0.033
Mof_C 	C 	0.8067	0.4448	0.2682	-0.087
Mof_C 	C 	0.0184	0.4445	0.2276	-0.11
Mof_C 	C 	0.7671	0.4911	0.313	0.02
Mof_C 	C 	0.9851	0.8485	0.2786	-0.102
Mof_C 	C 	0.3286	0.4149	0.8766	0.016
Mof_C 	C 	0.4083	0.0204	0.2552	-0.11
Mof_C 	C 	0.4107	0.9467	0.2873	0.036
Mof_C 	C 	0.5303	0.7848	0.4008	0.393
Mof_C 	C 	0.9375	0.8065	0.326	0.027
Mof_C 	C 	0.4722	0.8285	0.357	-0.093
Mof_C 	C 	0.2618	0.0709	0.1431	0.39
Mof_C 	C 	0.4626	0.902	0.3309	-0.039
Mof_C 	C 	0.3126	0.0269	0.1952	-0.108
Mof_C 	C 	0.3731	0.4622	0.8365	-0.095
Mof_C 	C 	0.4263	0.7963	0.3423	0.015
Mof_C 	C 	0.3186	0.9555	0.2247	-0.018
Mof_C 	C 	0.3666	0.9131	0.2716	0.014
Mof_C 	C 	0.3557	0.061	0.2118	0.023
Mof_C 	C 	0.3738	0.8385	0.3009	-0.087
Mof_O 	O 	0.66564	0.68268	0.5102	-0.96
Mof_O 	O 	0.16572	0.18387	0.00863	-0.959
Mof_O 	O 	0.9938	0.1486	0.09644	-0.485
Mof_O 	O 	0.8436	0.5753	0.5372	-0.49
Mof_O 	O 	0.5697	0.85211	0.54086	-0.502
Mof_O 	O 	0.8086	0.5956	0.4001	-0.499
Mof_O 	O 	0.7258	0.82588	0.41564	-0.507
Mof_O 	O 	0.0973	0.0473	0.0929	-0.498
Mof_O 	O 	0.6922	0.5859	0.4027	-0.495
Mof_O 	O 	0.5609	0.5716	0.54023	-0.495
Mof_O 	O 	0.0142	0.2888	0.102	-0.488
Mof_O 	O 	0.2679	0.271	0.8597	-0.503
Mof_O 	O 	0.5371	0.71676	0.42335	-0.494
Mof_O 	O 	0.247	0.0287	0.96243	-0.503
Mof_O 	O 	0.9999	0.2781	0.96268	-0.492
Mof_O 	O 	0.256	0.0319	0.1088	-0.507
Mof_O 	O 	0.5534	0.6041	0.63433	-0.496
Mof_O 	O 	0.1044	0.259	0.86834	-0.5
Mof_O 	O 	0.2501	0.1223	0.86604	-0.503
Mof_O 	O 	0.5678	0.8174	0.4114	-0.503
Mof_O 	O 	0.8325	0.7257	0.42078	-0.507
Mof_O 	O 	0.133	0.2932	0.10112	-0.501
Mof_O 	O 	0.7336	0.5603	0.62413	-0.505
Mof_O 	O 	0.5445	0.7582	0.6295	-0.513
Mof_O 	O 	0.2434	0.3097	0.9548	-0.508
Mof_O 	O 	0.23759	0.1367	0.13382	-0.525
_end
