data_functionalizedCrystal
_audit_creation_method	'EQeq! by Chris Wilmer'
_symmetry_space_group_name_H-M	'P1'
_symmetry_Int_Tables_number	1
_symmetry_cell_setting	triclinic
loop_
_symmetry_equiv_pos_as_xyz
  x,y,z
_cell_length_a	8.1266
_cell_length_b	10.4815
_cell_length_c	11.3167
_cell_angle_alpha	62.4127
_cell_angle_beta	84.187
_cell_angle_gamma	77.367
loop_
_atom_site_label
_atom_site_type_symbol
_atom_site_fract_x
_atom_site_fract_y
_atom_site_fract_z
_atom_site_charge
Mof_Ni	Ni	0.48977	0.68815	0.50778	1.042
Mof_Ni	Ni	0.98977	0.19593	0.49222	1.025
Mof_H 	H 	0.6	0.5731	0.7898	-0.022
Mof_H 	H 	0.415	0.3813	0.6274	-0.038
Mof_H 	H 	0.606	0.3744	0.9992	0.069
Mof_H 	H 	0.4008	0.1789	0.8274	0.082
Mof_H 	H 	0.528	0.2208	0.1904	0.032
Mof_H 	H 	0.418	0.9861	0.0098	0.055
Mof_H 	H 	0.555	0.9945	0.395	0.017
Mof_H 	H 	0.425	0.776	0.218	0.006
Mof_H 	H 	0.709	0.3813	0.5594	-0.114
Mof_H 	H 	0.1	0.3629	0.2102	-0.014
Mof_H 	H 	0.915	0.0087	0.3726	-0.047
Mof_H 	H 	0.106	0.3736	0.0008	0.058
Mof_H 	H 	0.9008	0.0063	0.1726	0.061
Mof_H 	H 	0.028	0.4112	0.8096	0.051
Mof_H 	H 	0.918	0.9959	0.9902	0.086
Mof_H 	H 	0.055	0.3895	0.605	-0.02
Mof_H 	H 	0.925	0.994	0.782	0.008
Mof_H 	H 	0.209	0.9407	0.4406	-0.089
Mof_C 	C 	0.5474	0.49285	0.8033	0.079
Mof_C 	C 	0.4433	0.38129	0.70542	0.097
Mof_C 	C 	0.5439	0.37388	0.92824	-0.134
Mof_C 	C 	0.4382	0.25805	0.8245	-0.167
Mof_C 	C 	0.4895	0.25258	0.94084	0.087
Mof_C 	C 	0.4837	0.12307	0.07306	-0.025
Mof_C 	C 	0.5173	0.12527	0.19066	-0.047
Mof_C 	C 	0.4456	0.99354	0.08652	-0.048
Mof_C 	C 	0.5172	0.00139	0.31062	-0.033
Mof_C 	C 	0.4455	0.87555	0.2105	0.045
Mof_C 	C 	0.7276	0.4546	0.4576	0.375
Mof_C 	C 	0.0474	0.29615	0.1967	0.095
Mof_C 	C 	0.9433	0.08671	0.29458	0.068
Mof_C 	C 	0.0439	0.30212	0.07176	-0.074
Mof_C 	C 	0.9382	0.08255	0.1755	-0.138
Mof_C 	C 	0.9895	0.19342	0.05916	0.013
Mof_C 	C 	0.9837	0.19613	0.92694	0.011
Mof_C 	C 	0.0173	0.31593	0.80934	-0.065
Mof_C 	C 	0.9456	0.08006	0.91348	-0.141
Mof_C 	C 	0.0172	0.31201	0.68938	0.079
Mof_C 	C 	0.9455	0.08605	0.7895	0.033
Mof_C 	C 	0.2276	0.9122	0.5424	0.37
Mof_N 	N 	0.4957	0.49877	0.69206	-0.253
Mof_N 	N 	0.4819	0.8754	0.323	-0.212
Mof_N 	N 	0.9957	0.19083	0.30794	-0.272
Mof_N 	N 	0.9819	0.1984	0.677	-0.261
Mof_O 	O 	0.6381	0.58053	0.40718	-0.443
Mof_O 	O 	0.8432	0.40619	0.39864	-0.451
Mof_O 	O 	0.1381	0.98771	0.59282	-0.405
Mof_O 	O 	0.3432	0.80483	0.60136	-0.431
_end
