data_functionalizedCrystal
_audit_creation_method	'EQeq! by Chris Wilmer'
_symmetry_space_group_name_H-M	'P1'
_symmetry_Int_Tables_number	1
_symmetry_cell_setting	triclinic
loop_
_symmetry_equiv_pos_as_xyz
  x,y,z
_cell_length_a	9.9445
_cell_length_b	18.5391
_cell_length_c	20.2889
_cell_angle_alpha	88.904
_cell_angle_beta	83.648
_cell_angle_gamma	86.713
loop_
_atom_site_label
_atom_site_type_symbol
_atom_site_fract_x
_atom_site_fract_y
_atom_site_fract_z
_atom_site_charge
Mof_Ba	Ba	0.0427	0.2419	0.57638	1.144
Mof_Cd	Cd	0.61289	0.45305	0.03887	0.5
Mof_Cd	Cd	0.89934	0.95876	0.45562	0.474
Mof_C 	C 	0.0156	0.1149	0.4157	0.343
Mof_C 	C 	0.0353	0.1679	0.3588	-0.157
Mof_C 	C 	0.1141	0.2272	0.3631	0.061
Mof_H 	H 	0.1563	0.2343	0.402	-0.046
Mof_C 	C 	0.1304	0.2756	0.3105	-0.154
Mof_H 	H 	0.1846	0.3157	0.3136	0.055
Mof_C 	C 	0.0685	0.2664	0.2531	0.072
Mof_C 	C 	0.993	0.2062	0.2488	-0.137
Mof_H 	H 	0.9536	0.1983	0.2092	0.082
Mof_C 	C 	0.9743	0.1576	0.3012	0.06
Mof_H 	H 	0.9202	0.1175	0.298	0.021
Mof_C 	C 	0.0804	0.3188	0.1974	-0.032
Mof_C 	C 	0.2066	0.3462	0.175	-0.026
Mof_H 	H 	0.2837	0.3322	0.197	0.046
Mof_C 	C 	0.2199	0.3936	0.1209	-0.071
Mof_C 	C 	0.1084	0.4162	0.0893	-0.008
Mof_H 	H 	0.1166	0.4491	0.0529	0.06
Mof_C 	C 	0.9829	0.3892	0.1124	-0.06
Mof_C 	C 	0.9711	0.3415	0.1646	-0.024
Mof_H 	H 	0.885	0.3234	0.1786	0.049
Mof_C 	C 	0.8584	0.415	0.0793	0.292
Mof_C 	C 	0.3575	0.4161	0.093	0.303
Mof_C 	C 	0.5283	0.3978	0.9043	0.322
Mof_C 	C 	0.5347	0.3407	0.8516	-0.111
Mof_C 	C 	0.4536	0.3485	0.8027	0.029
Mof_H 	H 	0.392	0.3896	0.8022	0.021
Mof_C 	C 	0.4582	0.297	0.7523	-0.128
Mof_H 	H 	0.4015	0.3039	0.7177	0.034
Mof_C 	C 	0.5458	0.2361	0.7533	0.071
Mof_C 	C 	0.6227	0.2269	0.8051	-0.135
Mof_H 	H 	0.6802	0.1845	0.8076	0.09
Mof_C 	C 	0.6179	0.2784	0.8538	0.038
Mof_H 	H 	0.6724	0.271	0.8893	0.04
Mof_C 	C 	0.5526	0.1833	0.6996	-0.078
Mof_C 	C 	0.4354	0.1635	0.6749	0.026
Mof_H 	H 	0.3502	0.1856	0.6916	-0.003
Mof_C 	C 	0.442	0.1108	0.6253	-0.155
Mof_C 	C 	0.5656	0.0795	0.5993	0.061
Mof_H 	H 	0.5698	0.044	0.5659	0.031
Mof_C 	C 	0.6842	0.1006	0.6226	-0.147
Mof_C 	C 	0.6773	0.1512	0.6729	0.021
Mof_H 	H 	0.7583	0.1641	0.6894	-0.008
Mof_C 	C 	0.8191	0.0706	0.5901	0.371
Mof_C 	C 	0.3155	0.0873	0.5984	0.399
Mof_O 	O 	0.9297	0.0677	0.4104	-0.296
Mof_O 	O 	0.0812	0.123	0.4631	-0.381
Mof_O 	O 	0.763	0.3718	0.0825	-0.257
Mof_O 	O 	0.8539	0.4741	0.0516	-0.276
Mof_O 	O 	0.3648	0.4512	0.0389	-0.285
Mof_O 	O 	0.4589	0.396	0.1202	-0.267
Mof_O 	O 	0.6112	0.3876	0.9478	-0.285
Mof_O 	O 	0.4416	0.4478	0.8997	-0.288
Mof_O 	O 	0.9232	0.0944	0.6062	-0.388
Mof_O 	O 	0.8173	0.0225	0.5502	-0.312
Mof_O 	O 	0.3206	0.0334	0.5671	-0.327
Mof_O 	O 	0.2107	0.1256	0.6099	-0.432
Mof_Ba	Ba	0.9573	0.7581	0.42362	1.145
Mof_Cd	Cd	0.38711	0.54695	0.96113	0.501
Mof_Cd	Cd	0.10066	0.04124	0.54438	0.475
Mof_C 	C 	0.9844	0.8851	0.5843	0.344
Mof_C 	C 	0.9647	0.8321	0.6412	-0.156
Mof_C 	C 	0.8859	0.7728	0.6369	0.062
Mof_H 	H 	0.8437	0.7657	0.598	-0.046
Mof_C 	C 	0.8696	0.7244	0.6895	-0.154
Mof_H 	H 	0.8154	0.6843	0.6864	0.055
Mof_C 	C 	0.9315	0.7336	0.7469	0.072
Mof_C 	C 	0.007	0.7938	0.7512	-0.137
Mof_H 	H 	0.0464	0.8017	0.7908	0.082
Mof_C 	C 	0.0257	0.8424	0.6988	0.06
Mof_H 	H 	0.0798	0.8825	0.702	0.021
Mof_C 	C 	0.9196	0.6812	0.8026	-0.032
Mof_C 	C 	0.7934	0.6538	0.825	-0.026
Mof_H 	H 	0.7163	0.6678	0.803	0.046
Mof_C 	C 	0.7801	0.6064	0.8791	-0.071
Mof_C 	C 	0.8916	0.5838	0.9107	-0.008
Mof_H 	H 	0.8834	0.5509	0.9471	0.06
Mof_C 	C 	0.0171	0.6108	0.8876	-0.06
Mof_C 	C 	0.0289	0.6585	0.8354	-0.024
Mof_H 	H 	0.115	0.6766	0.8214	0.049
Mof_C 	C 	0.1416	0.585	0.9207	0.292
Mof_C 	C 	0.6425	0.5839	0.907	0.303
Mof_C 	C 	0.4717	0.6022	0.0957	0.322
Mof_C 	C 	0.4653	0.6593	0.1484	-0.111
Mof_C 	C 	0.5464	0.6515	0.1973	0.029
Mof_H 	H 	0.608	0.6104	0.1978	0.021
Mof_C 	C 	0.5418	0.703	0.2477	-0.128
Mof_H 	H 	0.5985	0.6961	0.2823	0.034
Mof_C 	C 	0.4542	0.7639	0.2467	0.071
Mof_C 	C 	0.3773	0.7731	0.1949	-0.135
Mof_H 	H 	0.3198	0.8155	0.1924	0.09
Mof_C 	C 	0.3821	0.7216	0.1462	0.038
Mof_H 	H 	0.3276	0.729	0.1107	0.04
Mof_C 	C 	0.4474	0.8167	0.3004	-0.078
Mof_C 	C 	0.5646	0.8365	0.3251	0.026
Mof_H 	H 	0.6498	0.8144	0.3084	-0.003
Mof_C 	C 	0.558	0.8892	0.3747	-0.155
Mof_C 	C 	0.4344	0.9205	0.4007	0.061
Mof_H 	H 	0.4302	0.956	0.4341	0.031
Mof_C 	C 	0.3158	0.8994	0.3774	-0.147
Mof_C 	C 	0.3227	0.8488	0.3271	0.021
Mof_H 	H 	0.2417	0.8359	0.3106	-0.008
Mof_C 	C 	0.1809	0.9294	0.4099	0.371
Mof_C 	C 	0.6845	0.9127	0.4016	0.399
Mof_O 	O 	0.0703	0.9323	0.5896	-0.296
Mof_O 	O 	0.9188	0.877	0.5369	-0.381
Mof_O 	O 	0.237	0.6282	0.9175	-0.257
Mof_O 	O 	0.1461	0.5259	0.9484	-0.276
Mof_O 	O 	0.6352	0.5488	0.9611	-0.285
Mof_O 	O 	0.5411	0.604	0.8798	-0.267
Mof_O 	O 	0.3888	0.6124	0.0522	-0.285
Mof_O 	O 	0.5584	0.5522	0.1003	-0.288
Mof_O 	O 	0.0768	0.9056	0.3938	-0.388
Mof_O 	O 	0.1827	0.9775	0.4498	-0.312
Mof_O 	O 	0.6794	0.9666	0.4329	-0.327
Mof_O 	O 	0.7893	0.8744	0.3901	-0.432
Mof_Cd	Cd	0.41284	0.97102	0.01904	0.355
Mof_C 	C 	0.0417	0.6046	0.0955	-0.294
Mof_H 	H 	0.0074	0.56	0.0804	0.139
Mof_H 	H 	0.136	0.6086	0.0765	0.136
Mof_H 	H 	0.037	0.6037	0.1441	0.104
Mof_C 	C 	0.8325	0.6596	0.0606	0.08
Mof_H 	H 	0.7972	0.613	0.0628	0.033
Mof_C 	C 	0.7548	0.7192	0.0439	-0.164
Mof_H 	H 	0.6652	0.7129	0.0338	0.101
Mof_C 	C 	0.8015	0.788	0.041	0.137
Mof_C 	C 	0.9341	0.7933	0.0554	-0.187
Mof_H 	H 	0.9721	0.8392	0.0552	0.125
Mof_C 	C 	0.0071	0.7343	0.0695	0.103
Mof_H 	H 	0.0988	0.7386	0.0771	0.018
Mof_C 	C 	0.6704	0.8988	0.0832	0.111
Mof_C 	C 	0.7056	0.8842	0.1493	-0.072
Mof_H 	H 	0.7594	0.8442	0.1636	0.056
Mof_C 	C 	0.6471	0.9386	0.1863	-0.077
Mof_H 	H 	0.6519	0.9442	0.2324	0.066
Mof_C 	C 	0.575	0.9875	0.1442	0.107
Mof_C 	C 	0.7111	0.8528	0.0266	-0.122
Mof_C 	C 	0.6795	0.8621	0.9617	0.115
Mof_C 	C 	0.7263	0.8164	0.9069	-0.08
Mof_H 	H 	0.7875	0.7752	0.9081	0.071
Mof_C 	C 	0.6686	0.8418	0.8536	-0.069
Mof_H 	H 	0.6789	0.8211	0.8107	0.061
Mof_C 	C 	0.5873	0.9071	0.8741	0.11
Mof_C 	C 	0.4945	0.0498	0.1643	-0.117
Mof_C 	C 	0.4955	0.0692	0.2349	0.12
Mof_C 	C 	0.3752	0.0749	0.2795	-0.148
Mof_H 	H 	0.2899	0.0673	0.2647	0.09
Mof_C 	C 	0.3839	0.0915	0.3449	0.072
Mof_H 	H 	0.3032	0.0967	0.3745	0.024
Mof_C 	C 	0.5029	0.1171	0.4374	-0.253
Mof_H 	H 	0.455	0.0805	0.4648	0.121
Mof_H 	H 	0.458	0.1648	0.4466	0.076
Mof_H 	H 	0.5969	0.117	0.4477	0.107
Mof_C 	C 	0.617	0.0965	0.3259	0.078
Mof_H 	H 	0.7008	0.1042	0.3423	0.017
Mof_C 	C 	0.6148	0.0815	0.261	-0.158
Mof_H 	H 	0.6975	0.0795	0.2325	0.089
Mof_Cl	Cl	0.22	0.8991	0.0672	-0.361
Mof_N 	N 	0.5923	0.9156	0.9404	-0.175
Mof_N 	N 	0.597	0.9615	0.0802	-0.177
Mof_N 	N 	0.9569	0.6684	0.0735	-0.109
Mof_N 	N 	0.5013	0.1005	0.3672	-0.104
Mof_Cd	Cd	0.58716	0.02898	0.98096	0.355
Mof_C 	C 	0.9583	0.3954	0.9045	-0.294
Mof_H 	H 	0.9926	0.44	0.9196	0.139
Mof_H 	H 	0.864	0.3914	0.9235	0.136
Mof_H 	H 	0.963	0.3963	0.8559	0.104
Mof_C 	C 	0.1675	0.3404	0.9394	0.08
Mof_H 	H 	0.2028	0.387	0.9372	0.033
Mof_C 	C 	0.2452	0.2808	0.9561	-0.164
Mof_H 	H 	0.3348	0.2871	0.9662	0.101
Mof_C 	C 	0.1985	0.212	0.959	0.137
Mof_C 	C 	0.0659	0.2067	0.9446	-0.187
Mof_H 	H 	0.0279	0.1608	0.9448	0.125
Mof_C 	C 	0.9929	0.2657	0.9305	0.103
Mof_H 	H 	0.9012	0.2614	0.9229	0.018
Mof_C 	C 	0.3296	0.1012	0.9168	0.111
Mof_C 	C 	0.2944	0.1158	0.8507	-0.072
Mof_H 	H 	0.2406	0.1558	0.8364	0.056
Mof_C 	C 	0.3529	0.0614	0.8137	-0.077
Mof_H 	H 	0.3481	0.0558	0.7676	0.066
Mof_C 	C 	0.425	0.0125	0.8558	0.107
Mof_C 	C 	0.2889	0.1472	0.9734	-0.122
Mof_C 	C 	0.3205	0.1379	0.0383	0.115
Mof_C 	C 	0.2737	0.1836	0.0931	-0.08
Mof_H 	H 	0.2125	0.2248	0.0919	0.071
Mof_C 	C 	0.3314	0.1582	0.1464	-0.069
Mof_H 	H 	0.3211	0.1789	0.1893	0.061
Mof_C 	C 	0.4127	0.0929	0.1259	0.11
Mof_C 	C 	0.5055	0.9502	0.8357	-0.117
Mof_C 	C 	0.5045	0.9308	0.7651	0.12
Mof_C 	C 	0.6248	0.9251	0.7205	-0.148
Mof_H 	H 	0.7101	0.9327	0.7353	0.09
Mof_C 	C 	0.6161	0.9085	0.6551	0.072
Mof_H 	H 	0.6968	0.9033	0.6255	0.024
Mof_C 	C 	0.4971	0.8829	0.5626	-0.253
Mof_H 	H 	0.545	0.9195	0.5352	0.121
Mof_H 	H 	0.542	0.8352	0.5534	0.076
Mof_H 	H 	0.4031	0.883	0.5523	0.107
Mof_C 	C 	0.383	0.9035	0.6741	0.078
Mof_H 	H 	0.2992	0.8958	0.6577	0.017
Mof_C 	C 	0.3852	0.9185	0.739	-0.158
Mof_H 	H 	0.3025	0.9205	0.7675	0.089
Mof_Cl	Cl	0.78	0.1009	0.9328	-0.361
Mof_N 	N 	0.4077	0.0844	0.0596	-0.175
Mof_N 	N 	0.403	0.0385	0.9198	-0.177
Mof_N 	N 	0.0431	0.3316	0.9265	-0.109
Mof_N 	N 	0.4987	0.8995	0.6328	-0.104
_end
