data_functionalizedCrystal
_audit_creation_method	'EQeq! by Chris Wilmer'
_symmetry_space_group_name_H-M	'P1'
_symmetry_Int_Tables_number	1
_symmetry_cell_setting	triclinic
loop_
_symmetry_equiv_pos_as_xyz
  x,y,z
_cell_length_a	12.2315
_cell_length_b	12.4428
_cell_length_c	17.7483
_cell_angle_alpha	90
_cell_angle_beta	90
_cell_angle_gamma	112.51
loop_
_atom_site_label
_atom_site_type_symbol
_atom_site_fract_x
_atom_site_fract_y
_atom_site_fract_z
_atom_site_charge
Mof_Ni	Ni	0.15437	0.06103	0.29552	1.005
Mof_Ni	Ni	0.34563	0.93897	0.79552	1.008
Mof_Ni	Ni	0.84563	0.93897	0.70448	1.013
Mof_Ni	Ni	0.65437	0.06103	0.20448	1.008
Mof_Ni	Ni	-3.64548e-18	0.5	0.5	1.046
Mof_Ni	Ni	0.5	0.5	-0	1.036
Mof_H 	H 	0.7472	0.3761	0.3213	0.045
Mof_H 	H 	0.4691	0.4106	0.2157	0.051
Mof_H 	H 	0.6502	0.6421	0.376	0.062
Mof_H 	H 	0.4336	0.5888	0.2331	0.046
Mof_H 	H 	0.5103	0.6847	0.2933	0.038
Mof_H 	H 	0.3512	0.7314	0.2706	0.067
Mof_H 	H 	0.0689	0.7141	0.3963	0.002
Mof_H 	H 	0.2115	0.4838	0.4276	0.052
Mof_H 	H 	0.7528	0.6239	0.8213	0.048
Mof_H 	H 	0.0309	0.5894	0.7157	0.018
Mof_H 	H 	0.8498	0.3579	0.876	0.081
Mof_H 	H 	0.0664	0.4112	0.7331	0.069
Mof_H 	H 	0.9897	0.3153	0.7933	0.096
Mof_H 	H 	0.1488	0.2686	0.7706	0.06
Mof_H 	H 	0.4311	0.2859	0.8963	0.018
Mof_H 	H 	0.2885	0.5162	0.9276	0.066
Mof_H 	H 	0.2528	0.6239	0.6787	0.041
Mof_H 	H 	0.5309	0.5894	0.7843	0.055
Mof_H 	H 	0.3498	0.3579	0.624	0.059
Mof_H 	H 	0.5664	0.4112	0.7669	0.045
Mof_H 	H 	0.4897	0.3153	0.7067	0.038
Mof_H 	H 	0.6488	0.2686	0.7294	0.07
Mof_H 	H 	0.9311	0.2859	0.6037	0.022
Mof_H 	H 	0.7885	0.5162	0.5724	0.056
Mof_H 	H 	0.2472	0.3761	0.1787	0.038
Mof_H 	H 	0.9691	0.4106	0.2843	0.088
Mof_H 	H 	0.1502	0.6421	0.124	0.042
Mof_H 	H 	0.9336	0.5888	0.2669	0.023
Mof_H 	H 	0.0103	0.6847	0.2067	-0.017
Mof_H 	H 	0.8512	0.7314	0.2294	0.077
Mof_H 	H 	0.5689	0.7141	0.1037	0.007
Mof_H 	H 	0.7115	0.4838	0.0724	0.043
Mof_C 	C 	0.8081	0.5535	0.4171	0.329
Mof_C 	C 	0.7136	0.5156	0.3582	-0.075
Mof_C 	C 	0.6962	0.4168	0.3146	0.019
Mof_C 	C 	0.6059	0.377	0.2618	-0.084
Mof_C 	C 	0.5317	0.4374	0.2514	-0.033
Mof_C 	C 	0.5498	0.5372	0.2934	0.03
Mof_C 	C 	0.6395	0.5748	0.3469	-0.03
Mof_C 	C 	0.5873	0.2688	0.2183	0.326
Mof_C 	C 	0.4677	0.6003	0.2845	-0.012
Mof_C 	C 	0.2958	0.6017	0.3481	0.142
Mof_C 	C 	0.2948	0.6963	0.3091	-0.09
Mof_C 	C 	0.2081	0.7395	0.3278	-0.078
Mof_C 	C 	0.1267	0.6837	0.3831	0.043
Mof_C 	C 	0.2102	0.5502	0.4018	-0.053
Mof_C 	C 	0.2071	0.8463	0.2893	0.32
Mof_C 	C 	0.6919	0.4465	0.9171	0.324
Mof_C 	C 	0.7864	0.4844	0.8582	-0.058
Mof_C 	C 	0.8038	0.5832	0.8146	0.017
Mof_C 	C 	0.8941	0.623	0.7618	-0.086
Mof_C 	C 	0.9683	0.5626	0.7514	0.004
Mof_C 	C 	0.9502	0.4628	0.7934	0.081
Mof_C 	C 	0.8605	0.4252	0.8469	-0.054
Mof_C 	C 	0.9127	0.7312	0.7183	0.331
Mof_C 	C 	0.0323	0.3997	0.7845	-0.128
Mof_C 	C 	0.2042	0.3983	0.8481	0.134
Mof_C 	C 	0.2052	0.3037	0.8091	-0.085
Mof_C 	C 	0.2919	0.2605	0.8278	-0.075
Mof_C 	C 	0.3733	0.3163	0.8831	0.048
Mof_C 	C 	0.2898	0.4498	0.9018	-0.045
Mof_C 	C 	0.2929	0.1537	0.7893	0.319
Mof_C 	C 	0.1919	0.4465	0.5829	0.33
Mof_C 	C 	0.2864	0.4844	0.6418	-0.081
Mof_C 	C 	0.3038	0.5832	0.6854	0.02
Mof_C 	C 	0.3941	0.623	0.7382	-0.083
Mof_C 	C 	0.4683	0.5626	0.7486	-0.033
Mof_C 	C 	0.4502	0.4628	0.7066	0.029
Mof_C 	C 	0.3605	0.4252	0.6531	-0.028
Mof_C 	C 	0.4127	0.7312	0.7817	0.325
Mof_C 	C 	0.5323	0.3997	0.7155	-0.012
Mof_C 	C 	0.7042	0.3983	0.6519	0.144
Mof_C 	C 	0.7052	0.3037	0.6909	-0.095
Mof_C 	C 	0.7919	0.2605	0.6722	-0.069
Mof_C 	C 	0.8733	0.3163	0.6169	0.044
Mof_C 	C 	0.7898	0.4498	0.5982	-0.052
Mof_C 	C 	0.7929	0.1537	0.7107	0.315
Mof_C 	C 	0.3081	0.5535	0.0829	0.333
Mof_C 	C 	0.2136	0.5156	0.1418	-0.096
Mof_C 	C 	0.1962	0.4168	0.1854	0.019
Mof_C 	C 	0.1059	0.377	0.2382	-0.08
Mof_C 	C 	0.0317	0.4374	0.2486	-0.071
Mof_C 	C 	0.0498	0.5372	0.2066	-0.018
Mof_C 	C 	0.1395	0.5748	0.1531	-0.007
Mof_C 	C 	0.0873	0.2688	0.2817	0.32
Mof_C 	C 	0.9677	0.6003	0.2155	0.097
Mof_C 	C 	0.7958	0.6017	0.1519	0.152
Mof_C 	C 	0.7948	0.6963	0.1909	-0.099
Mof_C 	C 	0.7081	0.7395	0.1722	-0.072
Mof_C 	C 	0.6267	0.6837	0.1169	0.04
Mof_C 	C 	0.7102	0.5502	0.0982	-0.059
Mof_C 	C 	0.7071	0.8463	0.2107	0.317
Mof_N 	N 	0.1257	0.5887	0.41917	-0.217
Mof_N 	N 	0.3743	0.4113	0.91917	-0.201
Mof_N 	N 	0.8743	0.4113	0.58083	-0.204
Mof_N 	N 	0.6257	0.5887	0.08083	-0.218
Mof_O 	O 	0.871	0.4944	0.42386	-0.41
Mof_O 	O 	0.8177	0.6407	0.45718	-0.277
Mof_O 	O 	0.5016	0.2316	0.17201	-0.324
Mof_O 	O 	0.6609	0.2222	0.22983	-0.457
Mof_O 	O 	0.3766	0.5512	0.33958	-0.206
Mof_O 	O 	0.1494	0.8984	0.32061	-0.466
Mof_O 	O 	0.2656	0.8757	0.22859	-0.321
Mof_O 	O 	0.629	0.5056	0.92386	-0.399
Mof_O 	O 	0.6823	0.3593	0.95718	-0.256
Mof_O 	O 	0.9984	0.7684	0.67201	-0.298
Mof_O 	O 	0.8391	0.7778	0.72983	-0.452
Mof_O 	O 	0.1234	0.4488	0.83958	-0.186
Mof_O 	O 	0.3506	0.1016	0.82061	-0.45
Mof_O 	O 	0.2344	0.1243	0.72859	-0.318
Mof_O 	O 	0.129	0.5056	0.57614	-0.432
Mof_O 	O 	0.1823	0.3593	0.54282	-0.292
Mof_O 	O 	0.4984	0.7684	0.82799	-0.303
Mof_O 	O 	0.3391	0.7778	0.77017	-0.457
Mof_O 	O 	0.6234	0.4488	0.66042	-0.206
Mof_O 	O 	0.8506	0.1016	0.67939	-0.446
Mof_O 	O 	0.7344	0.1243	0.77141	-0.303
Mof_O 	O 	0.371	0.4944	0.07614	-0.439
Mof_O 	O 	0.3177	0.6407	0.04282	-0.31
Mof_O 	O 	0.0016	0.2316	0.32799	-0.329
Mof_O 	O 	0.1609	0.2222	0.27017	-0.462
Mof_O 	O 	0.8766	0.5512	0.16042	-0.225
Mof_O 	O 	0.6494	0.8984	0.17939	-0.461
Mof_O 	O 	0.7656	0.8757	0.27141	-0.308
_end
