data_functionalizedCrystal
_audit_creation_method	'EQeq! by Chris Wilmer'
_symmetry_space_group_name_H-M	'P1'
_symmetry_Int_Tables_number	1
_symmetry_cell_setting	triclinic
loop_
_symmetry_equiv_pos_as_xyz
  x,y,z
_cell_length_a	15.5555
_cell_length_b	16.5429
_cell_length_c	12.3964
_cell_angle_alpha	90
_cell_angle_beta	91.906
_cell_angle_gamma	90
loop_
_atom_site_label
_atom_site_type_symbol
_atom_site_fract_x
_atom_site_fract_y
_atom_site_fract_z
_atom_site_charge
Mof_Er	Er	0.11801	0.18608	0.90641	2.112
Mof_S 	S 	0.10482	0.21854	0.66307	0.786
Mof_S 	S 	0.18953	0.35092	0.0709	0.88
Mof_O 	O 	0.0565	0.0627	0.8993	-0.475
Mof_O 	O 	0.1007	0.1403	0.7243	-0.564
Mof_O 	O 	0.0827	0.1464	0.0735	-0.448
Mof_O 	O 	0.022	0.2328	0.6067	-0.539
Mof_O 	O 	0.1376	0.3051	0.9934	-0.531
Mof_O 	O 	0.1192	0.2805	0.7487	-0.409
Mof_O 	O 	0.0745	0.0429	0.1834	-0.329
Mof_O 	O 	0.174	0.218	0.5885	-0.251
Mof_O 	O 	0.2626	0.3884	0.0189	-0.485
Mof_C 	C 	0.066	0.0735	0.0912	0.384
Mof_O 	O 	0.1348	0.406	0.1228	-0.284
Mof_O 	O 	0.2357	0.2963	0.1454	-0.484
Mof_C 	C 	0.0438	0.0185	0.9962	-0.075
Mof_H 	H 	0.0856	0.9742	0.9982	0.073
Mof_Er	Er	0.61801	0.68608	0.90641	2.164
Mof_S 	S 	0.60482	0.71854	0.66307	0.782
Mof_S 	S 	0.68953	0.85092	0.0709	0.876
Mof_O 	O 	0.5565	0.5627	0.8993	-0.485
Mof_O 	O 	0.6007	0.6403	0.7243	-0.563
Mof_O 	O 	0.5827	0.6464	0.0735	-0.438
Mof_O 	O 	0.522	0.7328	0.6067	-0.498
Mof_O 	O 	0.6376	0.8051	0.9934	-0.521
Mof_O 	O 	0.6192	0.7805	0.7487	-0.398
Mof_O 	O 	0.5745	0.5429	0.1834	-0.32
Mof_O 	O 	0.674	0.718	0.5885	-0.241
Mof_O 	O 	0.7626	0.8884	0.0189	-0.487
Mof_C 	C 	0.566	0.5735	0.0912	0.373
Mof_O 	O 	0.6348	0.906	0.1228	-0.269
Mof_O 	O 	0.7357	0.7963	0.1454	-0.485
Mof_C 	C 	0.5438	0.5185	0.9962	0.001
Mof_H 	H 	0.5856	0.4742	0.9982	0.059
Mof_Er	Er	0.88199	0.18608	0.59359	2.211
Mof_S 	S 	0.89518	0.21854	0.83693	0.773
Mof_S 	S 	0.81047	0.35092	0.4291	0.878
Mof_O 	O 	0.9435	0.0627	0.6007	-0.466
Mof_O 	O 	0.8993	0.1403	0.7757	-0.541
Mof_O 	O 	0.9173	0.1464	0.4265	-0.423
Mof_O 	O 	0.978	0.2328	0.8933	-0.452
Mof_O 	O 	0.8624	0.3051	0.5066	-0.516
Mof_O 	O 	0.8808	0.2805	0.7513	-0.386
Mof_O 	O 	0.9255	0.0429	0.3166	-0.285
Mof_O 	O 	0.826	0.218	0.9115	-0.235
Mof_O 	O 	0.7374	0.3884	0.4811	-0.479
Mof_C 	C 	0.934	0.0735	0.4088	0.363
Mof_O 	O 	0.8652	0.406	0.3772	-0.252
Mof_O 	O 	0.7643	0.2963	0.3546	-0.478
Mof_C 	C 	0.9562	0.0185	0.5038	0.066
Mof_H 	H 	0.9144	0.9742	0.5018	0.05
Mof_Er	Er	0.38199	0.68608	0.59359	2.16
Mof_S 	S 	0.39518	0.71854	0.83693	0.783
Mof_S 	S 	0.31047	0.85092	0.4291	0.877
Mof_O 	O 	0.4435	0.5627	0.6007	-0.485
Mof_O 	O 	0.3993	0.6403	0.7757	-0.565
Mof_O 	O 	0.4173	0.6464	0.4265	-0.437
Mof_O 	O 	0.478	0.7328	0.8933	-0.498
Mof_O 	O 	0.3624	0.8051	0.5066	-0.523
Mof_O 	O 	0.3808	0.7805	0.7513	-0.399
Mof_O 	O 	0.4255	0.5429	0.3166	-0.322
Mof_O 	O 	0.326	0.718	0.9115	-0.247
Mof_O 	O 	0.2374	0.8884	0.4811	-0.477
Mof_C 	C 	0.434	0.5735	0.4088	0.375
Mof_O 	O 	0.3652	0.906	0.3772	-0.268
Mof_O 	O 	0.2643	0.7963	0.3546	-0.477
Mof_C 	C 	0.4562	0.5185	0.5038	-0.003
Mof_H 	H 	0.4144	0.4742	0.5018	0.057
Mof_Er	Er	0.88199	0.81392	0.09359	2.204
Mof_S 	S 	0.89518	0.78146	0.33693	0.773
Mof_S 	S 	0.81047	0.64908	0.9291	0.883
Mof_O 	O 	0.9435	0.9373	0.1007	-0.466
Mof_O 	O 	0.8993	0.8597	0.2757	-0.541
Mof_O 	O 	0.9173	0.8536	0.9265	-0.421
Mof_O 	O 	0.978	0.7672	0.3933	-0.453
Mof_O 	O 	0.8624	0.6949	0.0066	-0.521
Mof_O 	O 	0.8808	0.7195	0.2513	-0.386
Mof_O 	O 	0.9255	0.9571	0.8166	-0.284
Mof_O 	O 	0.826	0.782	0.4115	-0.236
Mof_O 	O 	0.7374	0.6116	0.9811	-0.479
Mof_C 	C 	0.934	0.9265	0.9088	0.369
Mof_O 	O 	0.8652	0.594	0.8772	-0.252
Mof_O 	O 	0.7643	0.7037	0.8546	-0.479
Mof_C 	C 	0.9562	0.9815	0.0038	0.057
Mof_H 	H 	0.9144	0.0258	0.0018	0.052
Mof_Er	Er	0.38199	0.31392	0.09359	2.159
Mof_S 	S 	0.39518	0.28146	0.33693	0.783
Mof_S 	S 	0.31047	0.14908	0.9291	0.878
Mof_O 	O 	0.4435	0.4373	0.1007	-0.484
Mof_O 	O 	0.3993	0.3597	0.2757	-0.565
Mof_O 	O 	0.4173	0.3536	0.9265	-0.437
Mof_O 	O 	0.478	0.2672	0.3933	-0.498
Mof_O 	O 	0.3624	0.1949	0.0066	-0.523
Mof_O 	O 	0.3808	0.2195	0.2513	-0.399
Mof_O 	O 	0.4255	0.4571	0.8166	-0.323
Mof_O 	O 	0.326	0.282	0.4115	-0.248
Mof_O 	O 	0.2374	0.1116	0.9811	-0.477
Mof_C 	C 	0.434	0.4265	0.9088	0.378
Mof_O 	O 	0.3652	0.094	0.8772	-0.268
Mof_O 	O 	0.2643	0.2037	0.8546	-0.477
Mof_C 	C 	0.4562	0.4815	0.0038	-0.008
Mof_H 	H 	0.4144	0.5258	0.0018	0.058
Mof_Er	Er	0.11801	0.81392	0.40641	2.113
Mof_S 	S 	0.10482	0.78146	0.16307	0.785
Mof_S 	S 	0.18953	0.64908	0.5709	0.88
Mof_O 	O 	0.0565	0.9373	0.3993	-0.475
Mof_O 	O 	0.1007	0.8597	0.2243	-0.564
Mof_O 	O 	0.0827	0.8536	0.5735	-0.448
Mof_O 	O 	0.022	0.7672	0.1067	-0.537
Mof_O 	O 	0.1376	0.6949	0.4934	-0.531
Mof_O 	O 	0.1192	0.7195	0.2487	-0.409
Mof_O 	O 	0.0745	0.9571	0.6834	-0.329
Mof_O 	O 	0.174	0.782	0.0885	-0.251
Mof_O 	O 	0.2626	0.6116	0.5189	-0.484
Mof_C 	C 	0.066	0.9265	0.5912	0.382
Mof_O 	O 	0.1348	0.594	0.6228	-0.284
Mof_O 	O 	0.2357	0.7037	0.6454	-0.484
Mof_C 	C 	0.0438	0.9815	0.4962	-0.073
Mof_H 	H 	0.0856	0.0258	0.4982	0.071
Mof_Er	Er	0.61801	0.31392	0.40641	2.161
Mof_S 	S 	0.60482	0.28146	0.16307	0.782
Mof_S 	S 	0.68953	0.14908	0.5709	0.881
Mof_O 	O 	0.5565	0.4373	0.3993	-0.484
Mof_O 	O 	0.6007	0.3597	0.2243	-0.563
Mof_O 	O 	0.5827	0.3536	0.5735	-0.437
Mof_O 	O 	0.522	0.2672	0.1067	-0.498
Mof_O 	O 	0.6376	0.1949	0.4934	-0.524
Mof_O 	O 	0.6192	0.2195	0.2487	-0.398
Mof_O 	O 	0.5745	0.4571	0.6834	-0.32
Mof_O 	O 	0.674	0.282	0.0885	-0.242
Mof_O 	O 	0.7626	0.1116	0.5189	-0.486
Mof_C 	C 	0.566	0.4265	0.5912	0.376
Mof_O 	O 	0.6348	0.094	0.6228	-0.269
Mof_O 	O 	0.7357	0.2037	0.6454	-0.486
Mof_C 	C 	0.5438	0.4815	0.4962	-0.004
Mof_H 	H 	0.5856	0.5258	0.4982	0.059
Mof_Fe	Fe	2.3155e-33	0.04728	0.75	0.813
Mof_Fe	Fe	0.5	0.54728	0.75	0.901
Mof_Fe	Fe	7.71832e-34	0.95272	0.25	0.817
Mof_Fe	Fe	0.5	0.45272	0.25	0.9
_end
