data_functionalizedCrystal
_audit_creation_method	'EQeq! by Chris Wilmer'
_symmetry_space_group_name_H-M	'P1'
_symmetry_Int_Tables_number	1
_symmetry_cell_setting	triclinic
loop_
_symmetry_equiv_pos_as_xyz
  x,y,z
_cell_length_a	16.5607
_cell_length_b	16.5607
_cell_length_c	16.5607
_cell_angle_alpha	68.7034
_cell_angle_beta	68.7034
_cell_angle_gamma	68.7034
loop_
_atom_site_label
_atom_site_type_symbol
_atom_site_fract_x
_atom_site_fract_y
_atom_site_fract_z
_atom_site_charge
Mof_Cu	Cu	0.50599	0.0756	0.50599	0.909
Mof_Cu	Cu	0.50599	0.50599	0.0756	0.909
Mof_Cu	Cu	0.0756	0.50599	0.50599	0.909
Mof_Cu	Cu	0.49401	0.9244	0.49401	0.909
Mof_Cu	Cu	0.9244	0.49401	0.49401	0.909
Mof_Cu	Cu	0.49401	0.49401	0.9244	0.909
Mof_H 	H 	0.8876	0.4247	0.0734	0.007
Mof_H 	H 	0.9998	0.2128	0.5181	0.065
Mof_H 	H 	0.4819	0.7872	0.0002	0.065
Mof_H 	H 	0.2302	0.2302	0.5304	0.057
Mof_H 	H 	0.2128	0.5181	0.9998	0.065
Mof_H 	H 	0.5181	0.2128	0.9998	0.065
Mof_H 	H 	0.9998	0.5181	0.2128	0.064
Mof_H 	H 	0.1124	0.5753	0.9266	0.006
Mof_H 	H 	0.7698	0.4696	0.7698	0.056
Mof_H 	H 	0.4247	0.8876	0.0734	0.006
Mof_H 	H 	0.5753	0.9266	0.1124	0.006
Mof_H 	H 	0.4696	0.7698	0.7698	0.056
Mof_H 	H 	0.1124	0.9266	0.5753	0.006
Mof_H 	H 	0.2128	0.9998	0.5181	0.064
Mof_H 	H 	0.5753	0.1124	0.9266	0.006
Mof_H 	H 	0.0734	0.8876	0.4247	0.006
Mof_H 	H 	0.4247	0.0734	0.8876	0.006
Mof_H 	H 	0.2302	0.5304	0.2302	0.056
Mof_H 	H 	0.4819	0.0002	0.7872	0.064
Mof_H 	H 	0.7698	0.7698	0.4696	0.056
Mof_H 	H 	0.8876	0.0734	0.4247	0.006
Mof_H 	H 	0.0002	0.7872	0.4819	0.064
Mof_H 	H 	0.0002	0.4819	0.7872	0.064
Mof_H 	H 	0.5181	0.9998	0.2128	0.064
Mof_H 	H 	0.0734	0.4247	0.8876	0.006
Mof_H 	H 	0.9266	0.5753	0.1124	0.006
Mof_H 	H 	0.9266	0.1124	0.5753	0.006
Mof_H 	H 	0.7872	0.0002	0.4819	0.064
Mof_H 	H 	0.5304	0.2302	0.2302	0.056
Mof_H 	H 	0.7872	0.4819	0.0002	0.064
Mof_C 	C 	0.0982	0.5157	0.0982	0.013
Mof_C 	C 	0.8027	0.8027	0.4737	0.021
Mof_C 	C 	0.66542	0.48132	0.93242	0.355
Mof_C 	C 	0.76313	0.89103	0.47663	-0.074
Mof_C 	C 	0.5439	0.0686	0.9553	0.114
Mof_C 	C 	0.5157	0.0982	0.0982	0.013
Mof_C 	C 	0.48132	0.93242	0.66542	0.355
Mof_C 	C 	0.51868	0.06758	0.33458	0.355
Mof_C 	C 	0.51884	0.18644	0.05974	-0.026
Mof_C 	C 	0.94026	0.48116	0.81356	-0.026
Mof_C 	C 	0.23687	0.10897	0.52337	-0.074
Mof_C 	C 	0.33458	0.51868	0.06758	0.355
Mof_C 	C 	0.0982	0.0982	0.5157	0.013
Mof_C 	C 	0.47663	0.89103	0.76313	-0.074
Mof_C 	C 	0.0476	0.5074	0.0476	0.026
Mof_C 	C 	0.76313	0.47663	0.89103	-0.074
Mof_C 	C 	0.81356	0.94026	0.48116	-0.026
Mof_C 	C 	0.52337	0.10897	0.23687	-0.074
Mof_C 	C 	0.18644	0.51884	0.05974	-0.026
Mof_C 	C 	0.47663	0.76313	0.89103	-0.074
Mof_C 	C 	0.9524	0.9524	0.4926	0.026
Mof_C 	C 	0.51884	0.05974	0.18644	-0.026
Mof_C 	C 	0.48116	0.81356	0.94026	-0.026
Mof_C 	C 	0.52337	0.23687	0.10897	-0.074
Mof_C 	C 	0.0447	0.4561	0.9314	0.114
Mof_C 	C 	0.9314	0.4561	0.0447	0.114
Mof_C 	C 	0.93242	0.66542	0.48132	0.355
Mof_C 	C 	0.06758	0.51868	0.33458	0.355
Mof_C 	C 	0.81356	0.48116	0.94026	-0.026
Mof_C 	C 	0.10897	0.52337	0.23687	-0.074
Mof_C 	C 	0.0686	0.9553	0.5439	0.114
Mof_C 	C 	0.93242	0.48132	0.66542	0.355
Mof_C 	C 	0.5439	0.9553	0.0686	0.114
Mof_C 	C 	0.89103	0.47663	0.76313	-0.074
Mof_C 	C 	0.0476	0.0476	0.5074	0.026
Mof_C 	C 	0.9553	0.5439	0.0686	0.114
Mof_C 	C 	0.94026	0.81356	0.48116	-0.026
Mof_C 	C 	0.0686	0.5439	0.9553	0.114
Mof_C 	C 	0.05974	0.18644	0.51884	-0.026
Mof_C 	C 	0.0447	0.9314	0.4561	0.114
Mof_C 	C 	0.9553	0.0686	0.5439	0.114
Mof_C 	C 	0.4561	0.0447	0.9314	0.114
Mof_C 	C 	0.05974	0.51884	0.18644	-0.026
Mof_C 	C 	0.66542	0.93242	0.48132	0.355
Mof_C 	C 	0.5074	0.0476	0.0476	0.026
Mof_C 	C 	0.4926	0.9524	0.9524	0.026
Mof_C 	C 	0.9314	0.0447	0.4561	0.114
Mof_C 	C 	0.9018	0.9018	0.4843	0.013
Mof_C 	C 	0.8027	0.4737	0.8027	0.021
Mof_C 	C 	0.4843	0.9018	0.9018	0.013
Mof_C 	C 	0.9018	0.4843	0.9018	0.013
Mof_C 	C 	0.10897	0.23687	0.52337	-0.074
Mof_C 	C 	0.4561	0.9314	0.0447	0.114
Mof_C 	C 	0.5263	0.1973	0.1973	0.021
Mof_C 	C 	0.33458	0.06758	0.51868	0.355
Mof_C 	C 	0.4737	0.8027	0.8027	0.021
Mof_C 	C 	0.9524	0.4926	0.9524	0.026
Mof_C 	C 	0.48116	0.94026	0.81356	-0.026
Mof_C 	C 	0.89103	0.76313	0.47663	-0.074
Mof_C 	C 	0.1973	0.1973	0.5263	0.021
Mof_C 	C 	0.48132	0.66542	0.93242	0.355
Mof_C 	C 	0.18644	0.05974	0.51884	-0.026
Mof_C 	C 	0.06758	0.33458	0.51868	0.355
Mof_C 	C 	0.1973	0.5263	0.1973	0.021
Mof_C 	C 	0.23687	0.52337	0.10897	-0.074
Mof_C 	C 	0.51868	0.33458	0.06758	0.355
Mof_N 	N 	0.4679	0.0925	0.9774	-0.144
Mof_N 	N 	0.9774	0.4679	0.0925	-0.144
Mof_N 	N 	0.0925	0.4679	0.9774	-0.144
Mof_N 	N 	0.9075	0.0226	0.5321	-0.144
Mof_N 	N 	0.5321	0.0226	0.9075	-0.144
Mof_N 	N 	0.9774	0.0925	0.4679	-0.144
Mof_N 	N 	0.0226	0.9075	0.5321	-0.144
Mof_N 	N 	0.0226	0.5321	0.9075	-0.144
Mof_N 	N 	0.4679	0.9774	0.0925	-0.144
Mof_N 	N 	0.9075	0.5321	0.0226	-0.144
Mof_N 	N 	0.0925	0.9774	0.4679	-0.144
Mof_N 	N 	0.5321	0.9075	0.0226	-0.144
Mof_O 	O 	0.98778	0.51278	0.36658	-0.405
Mof_O 	O 	0.37653	0.11583	0.52163	-0.403
Mof_O 	O 	0.48722	0.01222	0.63342	-0.405
Mof_O 	O 	0.51278	0.36658	0.98778	-0.405
Mof_O 	O 	0.63342	0.01222	0.48722	-0.405
Mof_O 	O 	0.47837	0.62347	0.88417	-0.403
Mof_O 	O 	0.48722	0.63342	0.01222	-0.405
Mof_O 	O 	0.98778	0.36658	0.51278	-0.405
Mof_O 	O 	0.01222	0.48722	0.63342	-0.405
Mof_O 	O 	0.36658	0.98778	0.51278	-0.405
Mof_O 	O 	0.52163	0.11583	0.37653	-0.403
Mof_O 	O 	0.51278	0.98778	0.36658	-0.405
Mof_O 	O 	0.37653	0.52163	0.11583	-0.403
Mof_O 	O 	0.52163	0.37653	0.11583	-0.403
Mof_O 	O 	0.62347	0.47837	0.88417	-0.403
Mof_O 	O 	0.62347	0.88417	0.47837	-0.403
Mof_O 	O 	0.88417	0.47837	0.62347	-0.403
Mof_O 	O 	0.11583	0.52163	0.37653	-0.403
Mof_O 	O 	0.63342	0.48722	0.01222	-0.405
Mof_O 	O 	0.01222	0.63342	0.48722	-0.405
Mof_O 	O 	0.88417	0.62347	0.47837	-0.403
Mof_O 	O 	0.36658	0.51278	0.98778	-0.405
Mof_O 	O 	0.11583	0.37653	0.52163	-0.403
Mof_O 	O 	0.47837	0.88417	0.62347	-0.403
_end
