data_functionalizedCrystal
_audit_creation_method	'EQeq! by Chris Wilmer'
_symmetry_space_group_name_H-M	'P1'
_symmetry_Int_Tables_number	1
_symmetry_cell_setting	triclinic
loop_
_symmetry_equiv_pos_as_xyz
  x,y,z
_cell_length_a	16.4374
_cell_length_b	18.1041
_cell_length_c	18.1041
_cell_angle_alpha	90
_cell_angle_beta	90
_cell_angle_gamma	90
loop_
_atom_site_label
_atom_site_type_symbol
_atom_site_fract_x
_atom_site_fract_y
_atom_site_fract_z
_atom_site_charge
Mof_Nd	Nd	3.23495e-33	0.78336	0.78336	2.489
Mof_Nd	Nd	0.25	0.71664	0.28336	2.606
Mof_Nd	Nd	0.5	0.21664	0.21664	2.607
Mof_Nd	Nd	0.75	0.28336	0.71664	2.609
Mof_H 	H 	0.1706	0.0366	0.5133	0.125
Mof_H 	H 	0.0274	0.8214	0.1369	0.049
Mof_H 	H 	0.6153	0.1377	0.6428	0.141
Mof_H 	H 	0.8897	0.6637	0.5839	0.099
Mof_H 	H 	0.0038	0.1943	0.9482	0.056
Mof_H 	H 	0.6359	0.3487	0.8838	0.171
Mof_H 	H 	0.6391	0.5838	0.1358	0.109
Mof_H 	H 	0.3891	0.6358	0.9162	0.109
Mof_H 	H 	0.3653	0.1428	0.3623	0.142
Mof_H 	H 	0.4386	0.5993	0.0287	-0.03
Mof_H 	H 	0.4726	0.8631	0.1786	0.049
Mof_H 	H 	0.0675	0.7085	0.4673	0.041
Mof_H 	H 	0.8198	0.0955	0.9545	0.086
Mof_H 	H 	0.5635	0.9826	0.9292	0.058
Mof_H 	H 	0.8847	0.3572	0.8623	0.148
Mof_H 	H 	0.6507	0.3885	0.4859	0.06
Mof_H 	H 	0.5274	0.1786	0.8631	0.048
Mof_H 	H 	0.6141	0.1513	0.3838	0.169
Mof_H 	H 	0.4084	0.115	0.8865	0.09
Mof_H 	H 	0.2128	0.3889	0.2147	0.011
Mof_H 	H 	0.0481	0.1451	0.0072	0.052
Mof_H 	H 	0.1141	0.8487	0.6162	0.166
Mof_H 	H 	0.7774	0.6369	0.6786	0.052
Mof_H 	H 	0.4519	0.9928	0.8549	0.042
Mof_H 	H 	0.8287	0.5196	0.9093	-0.041
Mof_H 	H 	0.1153	0.8623	0.3572	0.135
Mof_H 	H 	0.8609	0.8642	0.4162	0.091
Mof_H 	H 	0.2872	0.7853	0.6111	0.013
Mof_H 	H 	0.6584	0.6135	0.615	0.087
Mof_H 	H 	0.7538	0.4482	0.3057	0.055
Mof_H 	H 	0.9206	0.0133	0.4634	0.133
Mof_H 	H 	0.5526	0.9552	0.0755	0.109
Mof_H 	H 	0.3198	0.9045	0.0455	0.078
Mof_H 	H 	0.7128	0.6111	0.7853	0.013
Mof_H 	H 	0.2165	0.09	0.2848	0.018
Mof_H 	H 	0.1397	0.9161	0.1637	0.072
Mof_H 	H 	0.5794	0.5366	0.9867	0.127
Mof_H 	H 	0.6713	0.0907	0.4804	-0.042
Mof_H 	H 	0.2462	0.3057	0.4482	0.053
Mof_H 	H 	0.1103	0.5839	0.6637	0.08
Mof_H 	H 	0.7226	0.3214	0.3631	0.049
Mof_H 	H 	0.8558	0.1008	0.3981	-0.014
Mof_H 	H 	0.1608	0.4678	0.653	0.053
Mof_H 	H 	0.1974	0.4552	0.4245	0.104
Mof_H 	H 	0.0916	0.1135	0.885	0.098
Mof_H 	H 	0.3942	0.3992	0.8981	-0.018
Mof_H 	H 	0.8114	0.9007	0.5287	-0.012
Mof_H 	H 	0.1391	0.4162	0.8642	0.124
Mof_H 	H 	0.0794	0.4634	0.0133	0.12
Mof_H 	H 	0.8294	0.5133	0.0366	0.124
Mof_H 	H 	0.4108	0.847	0.9678	0.049
Mof_H 	H 	0.9628	0.7147	0.1111	0.026
Mof_H 	H 	0.0614	0.9713	0.4007	-0.041
Mof_H 	H 	0.7981	0.5072	0.3549	0.046
Mof_H 	H 	0.7165	0.91	0.7152	0.02
Mof_H 	H 	0.1507	0.6115	0.5141	0.061
Mof_H 	H 	0.8493	0.5141	0.6115	0.058
Mof_H 	H 	0.1347	0.6377	0.8572	0.153
Mof_H 	H 	0.6103	0.4161	0.3363	0.089
Mof_H 	H 	0.1825	0.7915	0.9673	0.02
Mof_H 	H 	0.9519	0.0072	0.1451	0.023
Mof_H 	H 	0.2774	0.3631	0.3214	0.049
Mof_H 	H 	0.5916	0.8865	0.115	0.09
Mof_H 	H 	0.0526	0.0448	0.9245	0.113
Mof_H 	H 	0.8392	0.653	0.4678	0.049
Mof_H 	H 	0.6825	0.2085	0.0327	0.022
Mof_H 	H 	0.3392	0.347	0.5322	0.05
Mof_H 	H 	0.3294	0.4867	0.9634	0.127
Mof_H 	H 	0.6802	0.0455	0.9045	0.074
Mof_H 	H 	0.5614	0.0287	0.5993	-0.029
Mof_H 	H 	0.2538	0.5518	0.6943	0.051
Mof_H 	H 	0.1109	0.0838	0.3642	0.103
Mof_H 	H 	0.5372	0.8889	0.2853	0.014
Mof_H 	H 	0.3897	0.3363	0.4161	0.09
Mof_H 	H 	0.6865	0.5174	0.4292	0.054
Mof_H 	H 	0.6442	0.6019	0.8992	-0.018
Mof_H 	H 	0.2981	0.4928	0.6451	0.04
Mof_H 	H 	0.8416	0.385	0.3865	0.097
Mof_H 	H 	0.9726	0.1369	0.8214	0.046
Mof_H 	H 	0.1058	0.1019	0.6008	-0.023
Mof_H 	H 	0.0892	0.0322	0.153	0.073
Mof_H 	H 	0.6706	0.9634	0.4867	0.123
Mof_H 	H 	0.0698	0.5455	0.5955	0.06
Mof_H 	H 	0.0335	0.41	0.7848	-0.011
Mof_H 	H 	0.9365	0.0708	0.0174	0.04
Mof_H 	H 	0.3847	0.6428	0.1377	0.142
Mof_H 	H 	0.8603	0.1637	0.9161	0.101
Mof_H 	H 	0.9302	0.5955	0.5455	0.094
Mof_H 	H 	0.4962	0.0518	0.8057	0.052
Mof_H 	H 	0.8175	0.9673	0.7915	0.029
Mof_H 	H 	0.5038	0.8057	0.0518	0.055
Mof_H 	H 	0.8859	0.6162	0.8487	0.173
Mof_H 	H 	0.3859	0.3838	0.1513	0.172
Mof_H 	H 	0.4325	0.5327	0.2915	0.022
Mof_H 	H 	0.5698	0.4545	0.4045	0.076
Mof_H 	H 	0.4474	0.0755	0.9552	0.109
Mof_H 	H 	0.6886	0.4713	0.0993	-0.03
Mof_H 	H 	0.4206	0.9867	0.5366	0.127
Mof_H 	H 	0.3603	0.8363	0.0839	0.09
Mof_H 	H 	0.5892	0.9678	0.847	0.056
Mof_H 	H 	0.6058	0.8981	0.3992	-0.015
Mof_H 	H 	0.6347	0.3623	0.1428	0.142
Mof_H 	H 	0.9007	0.0141	0.8885	0.071
Mof_H 	H 	0.6397	0.0839	0.8363	0.087
Mof_H 	H 	0.2835	0.7152	0.91	0.019
Mof_H 	H 	0.4628	0.2853	0.8889	0.013
Mof_H 	H 	0.3609	0.1358	0.5838	0.108
Mof_H 	H 	0.0787	0.5907	0.0196	-0.055
Mof_H 	H 	0.3135	0.4292	0.5174	0.052
Mof_H 	H 	0.9325	0.4673	0.7085	0.004
Mof_H 	H 	0.3175	0.0327	0.2085	0.02
Mof_H 	H 	0.8891	0.3642	0.0838	0.115
Mof_H 	H 	0.3493	0.4859	0.3885	0.059
Mof_H 	H 	0.4365	0.9292	0.9826	0.051
Mof_H 	H 	0.7835	0.2848	0.09	0.02
Mof_H 	H 	0.1442	0.3981	0.1008	-0.022
Mof_H 	H 	0.8135	0.5708	0.4826	0.05
Mof_H 	H 	0.4302	0.4045	0.4545	0.077
Mof_H 	H 	0.6608	0.5322	0.347	0.052
Mof_H 	H 	0.5993	0.1115	0.9859	0.061
Mof_H 	H 	0.2226	0.6786	0.6369	0.047
Mof_H 	H 	0.5335	0.59	0.2152	0.019
Mof_H 	H 	0.5481	0.8549	0.9928	0.044
Mof_H 	H 	0.9665	0.7848	0.41	0.052
Mof_H 	H 	0.1886	0.5287	0.9007	-0.044
Mof_H 	H 	0.6109	0.9162	0.6358	0.107
Mof_H 	H 	0.3026	0.5755	0.5448	0.111
Mof_H 	H 	0.8942	0.6008	0.1019	-0.009
Mof_H 	H 	0.9474	0.9245	0.0448	0.114
Mof_H 	H 	0.4213	0.9804	0.4093	-0.046
Mof_H 	H 	0.3416	0.615	0.6135	0.092
Mof_H 	H 	0.8641	0.1162	0.6513	0.174
Mof_H 	H 	0.5675	0.2915	0.5327	0.022
Mof_H 	H 	0.5787	0.4093	0.9804	-0.046
Mof_H 	H 	0.3287	0.4804	0.0907	-0.046
Mof_H 	H 	0.3558	0.8992	0.6019	-0.018
Mof_H 	H 	0.6974	0.5448	0.5755	0.106
Mof_H 	H 	0.7872	0.2147	0.3889	0.015
Mof_H 	H 	0.0635	0.0174	0.0708	0.073
Mof_H 	H 	0.9108	0.153	0.0322	0.036
Mof_H 	H 	0.4665	0.2152	0.59	0.019
Mof_H 	H 	0.9213	0.0196	0.5907	-0.037
Mof_H 	H 	0.9084	0.885	0.1135	0.088
Mof_H 	H 	0.4007	0.9859	0.1115	0.06
Mof_H 	H 	0.3114	0.0993	0.4713	-0.031
Mof_H 	H 	0.7462	0.6943	0.5518	0.058
Mof_H 	H 	0.8653	0.8572	0.6377	0.13
Mof_H 	H 	0.0993	0.8885	0.0141	0.057
Mof_H 	H 	0.1865	0.4826	0.5708	0.055
Mof_H 	H 	0.1713	0.9093	0.5196	-0.046
Mof_H 	H 	0.8026	0.4245	0.4552	0.113
Mof_H 	H 	0.1584	0.3865	0.385	0.082
Mof_H 	H 	0.2019	0.3549	0.5072	0.041
Mof_H 	H 	0.9962	0.9482	0.1943	0.045
Mof_H 	H 	0.7019	0.6451	0.4928	0.047
Mof_H 	H 	0.3641	0.8838	0.3487	0.172
Mof_H 	H 	0.0372	0.1111	0.7147	0.002
Mof_H 	H 	0.1359	0.6513	0.1162	0.168
Mof_H 	H 	0.9386	0.4007	0.9713	-0.02
Mof_H 	H 	0.1802	0.9545	0.0955	0.063
Mof_C 	C 	0.3524	0.4348	0.371	0.02
Mof_C 	C 	0.8535	0.557	0.9364	0.219
Mof_C 	C 	0.4908	0.033	0.8557	-0.051
Mof_C 	C 	0.8706	0.1144	0.9348	-0.163
Mof_C 	C 	0.1035	0.5636	0.057	0.226
Mof_C 	C 	0.1476	0.629	0.5652	0.005
Mof_C 	C 	0.7716	0.5877	0.6566	0.044
Mof_C 	C 	0.5381	0.9395	0.2767	0.105
Mof_C 	C 	0.4268	0.3268	0.0638	0.383
Mof_C 	C 	0.9268	0.6732	0.9362	0.374
Mof_C 	C 	0.0495	0.7205	0.5145	0.007
Mof_C 	C 	0.9908	0.967	0.1443	0.028
Mof_C 	C 	0.8951	0.3679	0.973	0.171
Mof_C 	C 	0.3549	0.1321	0.473	0.167
Mof_C 	C 	0.2087	0.4065	0.4047	-0.167
Mof_C 	C 	0.6382	0.4	0.8847	-0.363
Mof_C 	C 	0.5141	0.4792	0.2275	-0.166
Mof_C 	C 	0.7119	0.5605	0.7767	0.108
Mof_C 	C 	0.8544	0.5526	0.0126	-0.258
Mof_C 	C 	0.0732	0.9362	0.6732	0.374
Mof_C 	C 	0.6376	0.0928	0.6576	-0.307
Mof_C 	C 	0.1087	0.0508	0.6049	0.15
Mof_C 	C 	0.7359	0.0208	0.7275	-0.164
Mof_C 	C 	0.8587	0.1049	0.4492	0.154
Mof_C 	C 	0.9619	0.7233	0.0605	0.103
Mof_C 	C 	0.6345	0.9593	0.6536	-0.213
Mof_C 	C 	0.6451	0.473	0.1321	0.168
Mof_C 	C 	0.9474	0.7998	0.456	0.034
Mof_C 	C 	0.2716	0.4123	0.3434	0.049
Mof_C 	C 	0.8655	0.3464	0.0407	-0.216
Mof_C 	C 	0.5495	0.2795	0.4855	0.093
Mof_C 	C 	0.4619	0.2767	0.9395	0.108
Mof_C 	C 	0.3845	0.1536	0.5407	-0.218
Mof_C 	C 	0.2284	0.6566	0.5877	0.059
Mof_C 	C 	0.1124	0.5928	0.8424	-0.346
Mof_C 	C 	0.5697	0.0053	0.881	-0.085
Mof_C 	C 	0.7005	0.2205	0.9855	0.093
Mof_C 	C 	0.7913	0.4047	0.4065	-0.176
Mof_C 	C 	0.8882	0.6153	0.9	-0.346
Mof_C 	C 	0.8549	0.8679	0.527	0.12
Mof_C 	C 	0.4587	0.0953	0.9065	-0.176
Mof_C 	C 	0.2408	0.3557	0.467	-0.06
Mof_C 	C 	0.2641	0.7275	0.0208	-0.166
Mof_C 	C 	0.0697	0.9947	0.119	-0.171
Mof_C 	C 	0.6044	0.5126	0.9474	-0.272
Mof_C 	C 	0.0526	0.456	0.7998	0.15
Mof_C 	C 	0.8913	0.6049	0.0508	0.144
Mof_C 	C 	0.8232	0.1732	0.5638	0.384
Mof_C 	C 	0.6049	0.027	0.6321	0.162
Mof_C 	C 	0.0413	0.0935	0.9047	-0.211
Mof_C 	C 	0.7046	0.0916	0.7061	0.343
Mof_C 	C 	0.3544	0.4474	0.9874	-0.274
Mof_C 	C 	0.8235	0.1669	0.4841	-0.186
Mof_C 	C 	0.6413	0.5508	0.8951	0.153
Mof_C 	C 	0.3655	0.6536	0.9593	-0.218
Mof_C 	C 	0.2005	0.7795	0.0145	0.092
Mof_C 	C 	0.1456	0.0126	0.5526	-0.274
Mof_C 	C 	0.8794	0.6144	0.5652	-0.156
Mof_C 	C 	0.6035	0.4364	0.943	0.228
Mof_C 	C 	0.5454	0.4084	0.2061	0.344
Mof_C 	C 	0.1044	0.4874	0.0526	-0.277
Mof_C 	C 	0.9859	0.7725	0.5208	-0.073
Mof_C 	C 	0.0092	0.1443	0.967	-0.113
Mof_C 	C 	0.3913	0.3951	0.9492	0.154
Mof_C 	C 	0.7592	0.467	0.3557	-0.056
Mof_C 	C 	0.6476	0.371	0.4348	0.017
Mof_C 	C 	0.1206	0.5652	0.6144	-0.119
Mof_C 	C 	0.7641	0.2725	0.9792	-0.165
Mof_C 	C 	0.1345	0.0407	0.3464	-0.22
Mof_C 	C 	0.1803	0.5053	0.619	-0.086
Mof_C 	C 	0.9546	0.7939	0.5916	0.301
Mof_C 	C 	0.4546	0.2061	0.4084	0.344
Mof_C 	C 	0.3882	0.3847	0.1	-0.364
Mof_C 	C 	0.8026	0.2998	0.044	0.098
Mof_C 	C 	0.1768	0.5638	0.1732	0.382
Mof_C 	C 	0.8524	0.5652	0.629	0.032
Mof_C 	C 	0.6206	0.4348	0.3856	-0.134
Mof_C 	C 	0.7881	0.2233	0.4395	0.109
Mof_C 	C 	0.8976	0.0652	0.871	0.011
Mof_C 	C 	0.4265	0.3331	0.9841	-0.19
Mof_C 	C 	0.9303	0.119	0.9947	0.001
Mof_C 	C 	0.9587	0.9047	0.0935	-0.149
Mof_C 	C 	0.3235	0.8331	0.5159	-0.189
Mof_C 	C 	0.6465	0.0636	0.443	0.216
Mof_C 	C 	0.0216	0.8434	0.0877	-0.005
Mof_C 	C 	0.7087	0.5935	0.5953	-0.162
Mof_C 	C 	0.8876	0.8424	0.5928	-0.261
Mof_C 	C 	0.5732	0.0638	0.3268	0.376
Mof_C 	C 	0.6124	0.4072	0.1576	-0.309
Mof_C 	C 	0.8624	0.3424	0.9072	-0.307
Mof_C 	C 	0.1155	0.4593	0.8464	-0.269
Mof_C 	C 	0.0141	0.5208	0.7725	-0.247
Mof_C 	C 	0.3587	0.8951	0.5508	0.153
Mof_C 	C 	0.2359	0.9792	0.2725	-0.166
Mof_C 	C 	0.0454	0.5916	0.7939	0.373
Mof_C 	C 	0.4303	0.881	0.0053	-0.066
Mof_C 	C 	0.3026	0.7002	0.956	0.096
Mof_C 	C 	0.7954	0.2939	0.9084	0.345
Mof_C 	C 	0.2046	0.9084	0.2939	0.344
Mof_C 	C 	0.8845	0.8464	0.4593	-0.157
Mof_C 	C 	0.7408	0.6443	0.533	-0.071
Mof_C 	C 	0.6155	0.5407	0.1536	-0.218
Mof_C 	C 	0.3232	0.8268	0.4362	0.383
Mof_C 	C 	0.2954	0.7061	0.0916	0.344
Mof_C 	C 	0.5092	0.8557	0.033	-0.061
Mof_C 	C 	0.1413	0.4492	0.1049	0.151
Mof_C 	C 	0.8956	0.0526	0.4874	-0.268
Mof_C 	C 	0.3618	0.8847	0.4	-0.363
Mof_C 	C 	0.5216	0.1566	0.9123	0.055
Mof_C 	C 	0.1451	0.527	0.8679	0.206
Mof_C 	C 	0.5526	0.544	0.2002	0.097
Mof_C 	C 	0.6087	0.9492	0.3951	0.144
Mof_C 	C 	0.3965	0.943	0.4364	0.228
Mof_C 	C 	0.2913	0.5953	0.5935	-0.18
Mof_C 	C 	0.3624	0.6576	0.0928	-0.309
Mof_C 	C 	0.7995	0.0145	0.7795	0.089
Mof_C 	C 	0.4505	0.4855	0.2795	0.093
Mof_C 	C 	0.3197	0.381	0.4947	-0.07
Mof_C 	C 	0.6456	0.9874	0.4474	-0.26
Mof_C 	C 	0.1118	0.9	0.6153	-0.364
Mof_C 	C 	0.9784	0.0877	0.8434	0.117
Mof_C 	C 	0.6765	0.5159	0.8331	-0.189
Mof_C 	C 	0.8618	0.1153	0.6	-0.359
Mof_C 	C 	0.1765	0.4841	0.1669	-0.192
Mof_C 	C 	0.4474	0.2002	0.544	0.096
Mof_C 	C 	0.2592	0.533	0.6443	-0.047
Mof_C 	C 	0.8965	0.057	0.5636	0.229
Mof_C 	C 	0.6768	0.4362	0.8268	0.383
Mof_C 	C 	0.3976	0.9348	0.129	0.02
Mof_C 	C 	0.6294	0.0652	0.8856	-0.128
Mof_C 	C 	0.3794	0.3856	0.4348	-0.138
Mof_C 	C 	0.0381	0.0605	0.7233	0.107
Mof_C 	C 	0.7284	0.3434	0.4123	0.055
Mof_C 	C 	0.1376	0.9072	0.3424	-0.312
Mof_C 	C 	0.5413	0.9065	0.0953	-0.171
Mof_C 	C 	0.1049	0.973	0.3679	0.165
Mof_C 	C 	0.6024	0.129	0.9348	0.015
Mof_C 	C 	0.3706	0.8856	0.0652	-0.14
Mof_C 	C 	0.2119	0.4395	0.2233	0.106
Mof_C 	C 	0.6118	0.1	0.3847	-0.355
Mof_C 	C 	0.5735	0.9841	0.3331	-0.182
Mof_C 	C 	0.2881	0.7767	0.5605	0.108
Mof_C 	C 	0.1465	0.9364	0.557	0.223
Mof_C 	C 	0.3876	0.1576	0.4072	-0.31
Mof_C 	C 	0.1974	0.044	0.2998	0.094
Mof_C 	C 	0.4784	0.9123	0.1566	0.051
Mof_C 	C 	0.1294	0.9348	0.1144	-0.092
Mof_C 	C 	0.4859	0.2275	0.4792	-0.166
Mof_C 	C 	0.1024	0.871	0.0652	0.015
Mof_C 	C 	0.8197	0.619	0.5053	-0.056
Mof_C 	C 	0.0735	0.0159	0.6669	-0.194
Mof_C 	C 	0.6803	0.4947	0.381	-0.074
Mof_C 	C 	0.9505	0.5145	0.7205	0.174
Mof_C 	C 	0.6974	0.956	0.7002	0.096
Mof_C 	C 	0.3535	0.443	0.0636	0.229
Mof_C 	C 	0.2995	0.9855	0.2205	0.095
Mof_C 	C 	0.3951	0.6321	0.027	0.168
Mof_C 	C 	0.3956	0.9474	0.5126	-0.273
Mof_C 	C 	0.1382	0.6	0.1153	-0.368
Mof_C 	C 	0.9265	0.6669	0.0159	-0.171
Mof_N 	N 	0.7571	0.2855	0.4619	-0.114
Mof_N 	N 	0.7429	0.5381	0.7145	-0.113
Mof_N 	N 	0.8346	0.0701	0.8118	-0.111
Mof_N 	N 	0.6823	0.2353	0.2222	0.063
Mof_N 	N 	0.0071	0.0381	0.7855	-0.139
Mof_N 	N 	0.5677	0.2647	0.7222	0.063
Mof_N 	N 	0.1654	0.8118	0.0701	-0.116
Mof_N 	N 	0.8177	0.7778	0.7647	0.061
Mof_N 	N 	0.0846	0.6882	0.5701	-0.106
Mof_N 	N 	0.3346	0.9299	0.1882	-0.115
Mof_N 	N 	0.4154	0.4299	0.3118	-0.115
Mof_N 	N 	0.0677	0.7353	0.2778	0.045
Mof_N 	N 	0.3177	0.2222	0.2353	0.063
Mof_N 	N 	0.5071	0.9619	0.2145	-0.113
Mof_N 	N 	0.9929	0.7855	0.0381	-0.084
Mof_N 	N 	0.9154	0.5701	0.6882	-0.122
Mof_N 	N 	0.9323	0.2778	0.7353	0.081
Mof_N 	N 	0.4929	0.2145	0.9619	-0.115
Mof_N 	N 	0.2571	0.7145	0.5381	-0.115
Mof_N 	N 	0.5846	0.3118	0.4299	-0.115
Mof_N 	N 	0.6654	0.1882	0.9299	-0.114
Mof_N 	N 	0.4323	0.7222	0.2647	0.063
Mof_N 	N 	0.1823	0.7647	0.7778	0.063
Mof_N 	N 	0.2429	0.4619	0.2855	-0.115
Mof_Cl	Cl	0.5	0.10581	0.10581	-0.529
Mof_Cl	Cl	-1.50497e-32	0.89419	0.89419	-0.55
Mof_Cl	Cl	0.25	0.60581	0.39419	-0.531
Mof_Cl	Cl	0.75	0.39419	0.60581	-0.526
Mof_O 	O 	0.641	0.241	0.2789	-0.302
Mof_O 	O 	0.7637	0.2677	0.84849	-0.495
Mof_O 	O 	0.743	0.7748	0.7352	-0.131
Mof_O 	O 	0.4863	0.2323	0.34849	-0.495
Mof_O 	O 	0.4591	0.2712	0.0969	-0.485
Mof_O 	O 	0.2091	0.5969	0.2288	-0.486
Mof_O 	O 	0.243	0.2252	0.2648	-0.136
Mof_O 	O 	0.7363	0.15151	0.7323	-0.495
Mof_O 	O 	0.359	0.2789	0.241	-0.302
Mof_O 	O 	0.3552	0.1627	0.2214	-0.33
Mof_O 	O 	0.257	0.7352	0.7748	-0.132
Mof_O 	O 	0.9591	0.7288	0.9031	-0.449
Mof_O 	O 	0.859	0.7211	0.759	-0.285
Mof_O 	O 	0.3948	0.6627	0.2786	-0.329
Mof_O 	O 	0.8948	0.3373	0.7214	-0.321
Mof_O 	O 	0.2637	0.7323	0.15151	-0.495
Mof_O 	O 	0.0409	0.9031	0.7288	-0.483
Mof_O 	O 	0.391	0.7789	0.259	-0.302
Mof_O 	O 	0.141	0.759	0.7211	-0.298
Mof_O 	O 	0.0137	0.65151	0.7677	-0.512
Mof_O 	O 	0.8552	0.8373	0.7786	-0.308
Mof_O 	O 	0.1052	0.7214	0.3373	-0.338
Mof_O 	O 	0.5137	0.34849	0.2323	-0.495
Mof_O 	O 	0.5409	0.0969	0.2712	-0.483
Mof_O 	O 	0.9863	0.7677	0.65151	-0.445
Mof_O 	O 	0.109	0.741	0.2211	-0.308
Mof_O 	O 	0.493	0.2352	0.7252	-0.132
Mof_O 	O 	0.507	0.7252	0.2352	-0.132
Mof_O 	O 	0.007	0.2748	0.7648	-0.161
Mof_O 	O 	0.757	0.2648	0.2252	-0.128
Mof_O 	O 	0.1448	0.7786	0.8373	-0.324
Mof_O 	O 	0.891	0.2211	0.741	-0.296
Mof_O 	O 	0.609	0.259	0.7789	-0.302
Mof_O 	O 	0.6052	0.2786	0.6627	-0.33
Mof_O 	O 	0.2363	0.84849	0.2677	-0.495
Mof_O 	O 	0.6448	0.2214	0.1627	-0.329
Mof_O 	O 	0.2909	0.7712	0.4031	-0.485
Mof_O 	O 	0.993	0.7648	0.2748	-0.101
Mof_O 	O 	0.7909	0.2288	0.5969	-0.483
Mof_O 	O 	0.7091	0.4031	0.7712	-0.485
_end
