data_functionalizedCrystal
_audit_creation_method	'EQeq! by Chris Wilmer'
_symmetry_space_group_name_H-M	'P1'
_symmetry_Int_Tables_number	1
_symmetry_cell_setting	triclinic
loop_
_symmetry_equiv_pos_as_xyz
  x,y,z
_cell_length_a	9.8289
_cell_length_b	10.6123
_cell_length_c	10.6123
_cell_angle_alpha	120
_cell_angle_beta	90
_cell_angle_gamma	90
loop_
_atom_site_label
_atom_site_type_symbol
_atom_site_fract_x
_atom_site_fract_y
_atom_site_fract_z
_atom_site_charge
Mof_Sr	Sr	0.16665	0.90139	0.02178	0.734
Mof_Sr	Sr	0.83332	0.12039	0.09861	1.207
Mof_Sr	Sr	0.49998	0.97822	0.87961	1.245
Mof_H 	H 	0.8967	0.133	0.7844	-0.048
Mof_H 	H 	0.8279	0.1481	0.5844	0.16
Mof_H 	H 	0.1933	0.0074	0.4022	0.21
Mof_H 	H 	0.2623	0.9925	0.6018	-0.357
Mof_H 	H 	0.56337	0.6514	0.867	-0.053
Mof_H 	H 	0.49457	0.4363	0.8519	0.139
Mof_H 	H 	0.85997	0.3948	0.9926	0.171
Mof_H 	H 	0.92897	0.6093	0.0075	-0.348
Mof_H 	H 	0.23003	0.2156	0.3486	0.03
Mof_H 	H 	0.16123	0.4156	0.5637	0.054
Mof_H 	H 	0.52663	0.5978	0.6052	-0
Mof_H 	H 	0.59563	0.3982	0.3907	-0.012
Mof_C 	C 	0.1283	0.0491	0.8442	0.489
Mof_C 	C 	0.0862	0.0619	0.7141	-0.349
Mof_C 	C 	0.9568	0.1078	0.7077	0.227
Mof_C 	C 	0.9156	0.1168	0.5875	-0.349
Mof_C 	C 	0.0033	0.0798	0.472	0.279
Mof_C 	C 	0.9543	0.0885	0.3423	0.133
Mof_C 	C 	0.1333	0.033	0.479	-0.467
Mof_C 	C 	0.1748	0.024	0.5985	0.632
Mof_C 	C 	0.79497	0.7951	0.9509	0.491
Mof_C 	C 	0.75287	0.6522	0.9381	-0.399
Mof_C 	C 	0.62347	0.5999	0.8922	0.241
Mof_C 	C 	0.58227	0.4707	0.8832	-0.254
Mof_C 	C 	0.66997	0.3922	0.9202	0.143
Mof_C 	C 	0.62097	0.2538	0.9115	0.265
Mof_C 	C 	0.79997	0.446	0.967	-0.4
Mof_C 	C 	0.84147	0.5745	0.976	0.581
Mof_C 	C 	0.46163	0.1558	0.2049	0.374
Mof_C 	C 	0.41953	0.2859	0.3478	-0.129
Mof_C 	C 	0.29013	0.2923	0.4001	-0.008
Mof_C 	C 	0.24893	0.4125	0.5293	-0.044
Mof_C 	C 	0.33663	0.528	0.6078	-0.087
Mof_C 	C 	0.28763	0.6577	0.7462	0.328
Mof_C 	C 	0.46663	0.521	0.554	-0.043
Mof_C 	C 	0.50813	0.4015	0.4255	-0.007
Mof_O 	O 	0.0415	0.0747	0.9418	-0.354
Mof_O 	O 	0.2461	0.0071	0.8476	-0.344
Mof_O 	O 	0.8319	0.1146	0.3359	-0.339
Mof_O 	O 	0.0396	0.0741	0.247	-0.339
Mof_O 	O 	0.70817	0.8671	0.9253	-0.545
Mof_O 	O 	0.91277	0.8405	0.9929	-0.458
Mof_O 	O 	0.49857	0.2213	0.8854	-0.307
Mof_O 	O 	0.70627	0.1729	0.9259	-0.372
Mof_O 	O 	0.37483	0.0582	0.1329	-0.448
Mof_O 	O 	0.57943	0.1524	0.1595	-0.503
Mof_O 	O 	0.16523	0.6641	0.7787	-0.329
Mof_O 	O 	0.37293	0.753	0.8271	-0.441
_end
