data_functionalizedCrystal
_audit_creation_method	'EQeq! by Chris Wilmer'
_symmetry_space_group_name_H-M	'P1'
_symmetry_Int_Tables_number	1
_symmetry_cell_setting	triclinic
loop_
_symmetry_equiv_pos_as_xyz
  x,y,z
_cell_length_a	18.1887
_cell_length_b	11.3416
_cell_length_c	18.6835
_cell_angle_alpha	90
_cell_angle_beta	108.663
_cell_angle_gamma	90
loop_
_atom_site_label
_atom_site_type_symbol
_atom_site_fract_x
_atom_site_fract_y
_atom_site_fract_z
_atom_site_charge
Mof_Y 	Y 	0.50124	0.06707	0.39611	1.641
Mof_O 	O 	0.9114	0.4257	0.7785	-0.476
Mof_O 	O 	0.422	0.0674	0.5267	-0.47
Mof_O 	O 	0.5791	0.0851	0.6123	-0.444
Mof_O 	O 	0.9146	0.4702	0.6653	-0.502
Mof_O 	O 	0.5748	0.1659	0.4996	-0.476
Mof_O 	O 	0.4058	0.1716	0.4215	-0.465
Mof_C 	C 	0.698	0.2479	0.6892	0.157
Mof_C 	C 	0.3166	0.2017	0.4898	-0.139
Mof_C 	C 	0.7063	0.2976	0.564	0.035
Mof_H 	H 	0.685	0.2949	0.5117	0.021
Mof_C 	C 	0.7738	0.3589	0.596	-0.059
Mof_H 	H 	0.7979	0.3981	0.5658	0.045
Mof_C 	C 	0.8063	0.3617	0.6755	-0.077
Mof_C 	C 	0.2884	0.1608	0.5448	-0.071
Mof_H 	H 	0.315	0.1002	0.5759	0.069
Mof_C 	C 	0.6678	0.2373	0.6097	-0.178
Mof_C 	C 	0.2223	0.2051	0.5565	0.134
Mof_C 	C 	0.3853	0.1437	0.4784	0.428
Mof_C 	C 	0.6023	0.1586	0.571	0.45
Mof_C 	C 	0.7686	0.316	0.7196	-0.108
Mof_H 	H 	0.7882	0.3283	0.7714	0.066
Mof_C 	C 	0.8854	0.425	0.7092	0.458
Mof_N 	N 	0.6655	0.202	0.7384	-0.291
Mof_H 	H 	0.6858	0.133	0.7531	0.14
Mof_H 	H 	0.6736	0.2464	0.7778	0.134
Mof_N 	N 	0.197	0.165	0.613	-0.274
Mof_H 	H 	0.2354	0.1446	0.654	0.115
Mof_H 	H 	0.1671	0.2156	0.6292	0.144
Mof_Y 	Y 	0.00124	0.56707	0.39611	1.645
Mof_O 	O 	0.4114	0.9257	0.7785	-0.478
Mof_O 	O 	0.922	0.5674	0.5267	-0.471
Mof_O 	O 	0.0791	0.5851	0.6123	-0.446
Mof_O 	O 	0.4146	0.9702	0.6653	-0.503
Mof_O 	O 	0.0748	0.6659	0.4996	-0.478
Mof_O 	O 	0.9058	0.6716	0.4215	-0.465
Mof_C 	C 	0.198	0.7479	0.6892	0.157
Mof_C 	C 	0.8166	0.7017	0.4898	-0.139
Mof_C 	C 	0.2063	0.7976	0.564	0.035
Mof_H 	H 	0.185	0.7949	0.5117	0.021
Mof_C 	C 	0.2738	0.8589	0.596	-0.059
Mof_H 	H 	0.2979	0.8981	0.5658	0.045
Mof_C 	C 	0.3063	0.8617	0.6755	-0.077
Mof_C 	C 	0.7884	0.6608	0.5448	-0.071
Mof_H 	H 	0.815	0.6002	0.5759	0.069
Mof_C 	C 	0.1678	0.7373	0.6097	-0.178
Mof_C 	C 	0.7223	0.7051	0.5565	0.134
Mof_C 	C 	0.8853	0.6437	0.4784	0.428
Mof_C 	C 	0.1023	0.6586	0.571	0.45
Mof_C 	C 	0.2686	0.816	0.7196	-0.108
Mof_H 	H 	0.2882	0.8283	0.7714	0.066
Mof_C 	C 	0.3854	0.925	0.7092	0.457
Mof_N 	N 	0.1655	0.702	0.7384	-0.291
Mof_H 	H 	0.1858	0.633	0.7531	0.14
Mof_H 	H 	0.1736	0.7464	0.7778	0.134
Mof_N 	N 	0.697	0.665	0.613	-0.274
Mof_H 	H 	0.7354	0.6446	0.654	0.115
Mof_H 	H 	0.6671	0.7156	0.6292	0.144
Mof_Y 	Y 	0.49876	0.06707	0.10389	1.636
Mof_O 	O 	0.0886	0.4257	0.7215	-0.478
Mof_O 	O 	0.578	0.0674	0.9733	-0.467
Mof_O 	O 	0.4209	0.0851	0.8877	-0.444
Mof_O 	O 	0.0854	0.4702	0.8347	-0.503
Mof_O 	O 	0.4252	0.1659	0.0004	-0.48
Mof_O 	O 	0.5942	0.1716	0.0785	-0.464
Mof_C 	C 	0.302	0.2479	0.8108	0.157
Mof_C 	C 	0.6834	0.2017	0.0102	-0.144
Mof_C 	C 	0.2937	0.2976	0.936	0.036
Mof_H 	H 	0.315	0.2949	0.9883	0.021
Mof_C 	C 	0.2262	0.3589	0.904	-0.059
Mof_H 	H 	0.2021	0.3981	0.9342	0.045
Mof_C 	C 	0.1937	0.3617	0.8245	-0.077
Mof_C 	C 	0.7116	0.1608	0.9552	-0.066
Mof_H 	H 	0.685	0.1002	0.9241	0.068
Mof_C 	C 	0.3322	0.2373	0.8903	-0.178
Mof_C 	C 	0.7777	0.2051	0.9435	0.132
Mof_C 	C 	0.6147	0.1437	0.0216	0.425
Mof_C 	C 	0.3977	0.1586	0.929	0.452
Mof_C 	C 	0.2314	0.316	0.7804	-0.108
Mof_H 	H 	0.2118	0.3283	0.7286	0.066
Mof_C 	C 	0.1146	0.425	0.7908	0.458
Mof_N 	N 	0.3345	0.202	0.7616	-0.292
Mof_H 	H 	0.3142	0.133	0.7469	0.14
Mof_H 	H 	0.3264	0.2464	0.7222	0.134
Mof_N 	N 	0.803	0.165	0.887	-0.273
Mof_H 	H 	0.7646	0.1446	0.846	0.115
Mof_H 	H 	0.8329	0.2156	0.8708	0.144
Mof_Y 	Y 	0.99876	0.56707	0.10389	1.642
Mof_O 	O 	0.5886	0.9257	0.7215	-0.478
Mof_O 	O 	0.078	0.5674	0.9733	-0.473
Mof_O 	O 	0.9209	0.5851	0.8877	-0.445
Mof_O 	O 	0.5854	0.9702	0.8347	-0.504
Mof_O 	O 	0.9252	0.6659	0.0004	-0.478
Mof_O 	O 	0.0942	0.6716	0.0785	-0.465
Mof_C 	C 	0.802	0.7479	0.8108	0.157
Mof_C 	C 	0.1834	0.7017	0.0102	-0.135
Mof_C 	C 	0.7937	0.7976	0.936	0.035
Mof_H 	H 	0.815	0.7949	0.9883	0.02
Mof_C 	C 	0.7262	0.8589	0.904	-0.059
Mof_H 	H 	0.7021	0.8981	0.9342	0.045
Mof_C 	C 	0.6937	0.8617	0.8245	-0.078
Mof_C 	C 	0.2116	0.6608	0.9552	-0.077
Mof_H 	H 	0.185	0.6002	0.9241	0.07
Mof_C 	C 	0.8322	0.7373	0.8903	-0.178
Mof_C 	C 	0.2777	0.7051	0.9435	0.137
Mof_C 	C 	0.1147	0.6437	0.0216	0.429
Mof_C 	C 	0.8977	0.6586	0.929	0.45
Mof_C 	C 	0.7314	0.816	0.7804	-0.108
Mof_H 	H 	0.7118	0.8283	0.7286	0.066
Mof_C 	C 	0.6146	0.925	0.7908	0.457
Mof_N 	N 	0.8345	0.702	0.7616	-0.291
Mof_H 	H 	0.8142	0.633	0.7469	0.14
Mof_H 	H 	0.8264	0.7464	0.7222	0.134
Mof_N 	N 	0.303	0.665	0.887	-0.274
Mof_H 	H 	0.2646	0.6446	0.846	0.115
Mof_H 	H 	0.3329	0.7156	0.8708	0.144
Mof_Y 	Y 	0.49876	0.93293	0.60389	1.64
Mof_O 	O 	0.0886	0.5743	0.2215	-0.477
Mof_O 	O 	0.578	0.9326	0.4733	-0.471
Mof_O 	O 	0.4209	0.9149	0.3877	-0.445
Mof_O 	O 	0.0854	0.5298	0.3347	-0.503
Mof_O 	O 	0.4252	0.8341	0.5004	-0.477
Mof_O 	O 	0.5942	0.8284	0.5785	-0.465
Mof_C 	C 	0.302	0.7521	0.3108	0.157
Mof_C 	C 	0.6834	0.7983	0.5102	-0.139
Mof_C 	C 	0.2937	0.7024	0.436	0.035
Mof_H 	H 	0.315	0.7051	0.4883	0.021
Mof_C 	C 	0.2262	0.6411	0.404	-0.059
Mof_H 	H 	0.2021	0.6019	0.4342	0.045
Mof_C 	C 	0.1937	0.6383	0.3245	-0.077
Mof_C 	C 	0.7116	0.8392	0.4552	-0.071
Mof_H 	H 	0.685	0.8998	0.4241	0.069
Mof_C 	C 	0.3322	0.7627	0.3903	-0.178
Mof_C 	C 	0.7777	0.7949	0.4435	0.134
Mof_C 	C 	0.6147	0.8563	0.5216	0.428
Mof_C 	C 	0.3977	0.8414	0.429	0.45
Mof_C 	C 	0.2314	0.684	0.2804	-0.108
Mof_H 	H 	0.2118	0.6717	0.2286	0.066
Mof_C 	C 	0.1146	0.575	0.2908	0.458
Mof_N 	N 	0.3345	0.798	0.2616	-0.291
Mof_H 	H 	0.3142	0.867	0.2469	0.14
Mof_H 	H 	0.3264	0.7536	0.2222	0.134
Mof_N 	N 	0.803	0.835	0.387	-0.274
Mof_H 	H 	0.7646	0.8554	0.346	0.115
Mof_H 	H 	0.8329	0.7844	0.3708	0.144
Mof_Y 	Y 	0.99876	0.43293	0.60389	1.645
Mof_O 	O 	0.5886	0.0743	0.2215	-0.478
Mof_O 	O 	0.078	0.4326	0.4733	-0.471
Mof_O 	O 	0.9209	0.4149	0.3877	-0.446
Mof_O 	O 	0.5854	0.0298	0.3347	-0.503
Mof_O 	O 	0.9252	0.3341	0.5004	-0.478
Mof_O 	O 	0.0942	0.3284	0.5785	-0.465
Mof_C 	C 	0.802	0.2521	0.3108	0.157
Mof_C 	C 	0.1834	0.2983	0.5102	-0.139
Mof_C 	C 	0.7937	0.2024	0.436	0.035
Mof_H 	H 	0.815	0.2051	0.4883	0.021
Mof_C 	C 	0.7262	0.1411	0.404	-0.059
Mof_H 	H 	0.7021	0.1019	0.4342	0.045
Mof_C 	C 	0.6937	0.1383	0.3245	-0.077
Mof_C 	C 	0.2116	0.3392	0.4552	-0.071
Mof_H 	H 	0.185	0.3998	0.4241	0.069
Mof_C 	C 	0.8322	0.2627	0.3903	-0.178
Mof_C 	C 	0.2777	0.2949	0.4435	0.134
Mof_C 	C 	0.1147	0.3563	0.5216	0.428
Mof_C 	C 	0.8977	0.3414	0.429	0.45
Mof_C 	C 	0.7314	0.184	0.2804	-0.108
Mof_H 	H 	0.7118	0.1717	0.2286	0.066
Mof_C 	C 	0.6146	0.075	0.2908	0.457
Mof_N 	N 	0.8345	0.298	0.2616	-0.291
Mof_H 	H 	0.8142	0.367	0.2469	0.14
Mof_H 	H 	0.8264	0.2536	0.2222	0.134
Mof_N 	N 	0.303	0.335	0.387	-0.274
Mof_H 	H 	0.2646	0.3554	0.346	0.115
Mof_H 	H 	0.3329	0.2844	0.3708	0.144
Mof_Y 	Y 	0.50124	0.93293	0.89611	1.636
Mof_O 	O 	0.9114	0.5743	0.2785	-0.478
Mof_O 	O 	0.422	0.9326	0.0267	-0.467
Mof_O 	O 	0.5791	0.9149	0.1123	-0.444
Mof_O 	O 	0.9146	0.5298	0.1653	-0.503
Mof_O 	O 	0.5748	0.8341	0.9996	-0.48
Mof_O 	O 	0.4058	0.8284	0.9215	-0.464
Mof_C 	C 	0.698	0.7521	0.1892	0.157
Mof_C 	C 	0.3166	0.7983	0.9898	-0.144
Mof_C 	C 	0.7063	0.7024	0.064	0.036
Mof_H 	H 	0.685	0.7051	0.0117	0.021
Mof_C 	C 	0.7738	0.6411	0.096	-0.059
Mof_H 	H 	0.7979	0.6019	0.0658	0.045
Mof_C 	C 	0.8063	0.6383	0.1755	-0.077
Mof_C 	C 	0.2884	0.8392	0.0448	-0.066
Mof_H 	H 	0.315	0.8998	0.0759	0.068
Mof_C 	C 	0.6678	0.7627	0.1097	-0.178
Mof_C 	C 	0.2223	0.7949	0.0565	0.132
Mof_C 	C 	0.3853	0.8563	0.9784	0.425
Mof_C 	C 	0.6023	0.8414	0.071	0.452
Mof_C 	C 	0.7686	0.684	0.2196	-0.108
Mof_H 	H 	0.7882	0.6717	0.2714	0.066
Mof_C 	C 	0.8854	0.575	0.2092	0.458
Mof_N 	N 	0.6655	0.798	0.2384	-0.292
Mof_H 	H 	0.6858	0.867	0.2531	0.14
Mof_H 	H 	0.6736	0.7536	0.2778	0.134
Mof_N 	N 	0.197	0.835	0.113	-0.273
Mof_H 	H 	0.2354	0.8554	0.154	0.115
Mof_H 	H 	0.1671	0.7844	0.1292	0.144
Mof_Y 	Y 	0.00124	0.43293	0.89611	1.642
Mof_O 	O 	0.4114	0.0743	0.2785	-0.478
Mof_O 	O 	0.922	0.4326	0.0267	-0.473
Mof_O 	O 	0.0791	0.4149	0.1123	-0.445
Mof_O 	O 	0.4146	0.0298	0.1653	-0.504
Mof_O 	O 	0.0748	0.3341	0.9996	-0.478
Mof_O 	O 	0.9058	0.3284	0.9215	-0.465
Mof_C 	C 	0.198	0.2521	0.1892	0.157
Mof_C 	C 	0.8166	0.2983	0.9898	-0.135
Mof_C 	C 	0.2063	0.2024	0.064	0.035
Mof_H 	H 	0.185	0.2051	0.0117	0.02
Mof_C 	C 	0.2738	0.1411	0.096	-0.059
Mof_H 	H 	0.2979	0.1019	0.0658	0.045
Mof_C 	C 	0.3063	0.1383	0.1755	-0.078
Mof_C 	C 	0.7884	0.3392	0.0448	-0.077
Mof_H 	H 	0.815	0.3998	0.0759	0.07
Mof_C 	C 	0.1678	0.2627	0.1097	-0.178
Mof_C 	C 	0.7223	0.2949	0.0565	0.137
Mof_C 	C 	0.8853	0.3563	0.9784	0.429
Mof_C 	C 	0.1023	0.3414	0.071	0.45
Mof_C 	C 	0.2686	0.184	0.2196	-0.108
Mof_H 	H 	0.2882	0.1717	0.2714	0.066
Mof_C 	C 	0.3854	0.075	0.2092	0.457
Mof_N 	N 	0.1655	0.298	0.2384	-0.291
Mof_H 	H 	0.1858	0.367	0.2531	0.14
Mof_H 	H 	0.1736	0.2536	0.2778	0.134
Mof_N 	N 	0.697	0.335	0.113	-0.274
Mof_H 	H 	0.7354	0.3554	0.154	0.115
Mof_H 	H 	0.6671	0.2844	0.1292	0.144
_end
