data_functionalizedCrystal
_audit_creation_method	'EQeq! by Chris Wilmer'
_symmetry_space_group_name_H-M	'P1'
_symmetry_Int_Tables_number	1
_symmetry_cell_setting	triclinic
loop_
_symmetry_equiv_pos_as_xyz
  x,y,z
_cell_length_a	16.2527
_cell_length_b	12.3588
_cell_length_c	17.4471
_cell_angle_alpha	90
_cell_angle_beta	114.657
_cell_angle_gamma	90
loop_
_atom_site_label
_atom_site_type_symbol
_atom_site_fract_x
_atom_site_fract_y
_atom_site_fract_z
_atom_site_charge
Mof_Cu	Cu	0.38111	0.39912	0.12487	0.791
Mof_Cu	Cu	0.46858	0.33072	0.04226	0.792
Mof_Cu	Cu	0.9241	0.3838	0.0714	0.433
Mof_N 	N 	0.0289	0.3746	0.0495	-0.298
Mof_N 	N 	0.2741	0.3636	0.0218	-0.292
Mof_N 	N 	0.3545	0.3073	0.9469	-0.29
Mof_N 	N 	0.3699	0.189	0.7265	-0.244
Mof_N 	N 	0.5042	0.6928	0.3801	-0.262
Mof_N 	N 	0.4901	0.4877	0.1825	-0.289
Mof_N 	N 	0.5696	0.4225	0.1082	-0.297
Mof_N 	N 	0.8135	0.3916	0.0806	-0.294
Mof_C 	C 	0.0974	0.4408	0.0909	0.095
Mof_H 	H 	0.0908	0.4908	0.1278	-0.062
Mof_C 	C 	0.178	0.4392	0.082	-0.257
Mof_H 	H 	0.2248	0.4859	0.1137	0.053
Mof_C 	C 	0.1891	0.3668	0.0248	0.151
Mof_C 	C 	0.1172	0.3029	0.9812	-0.236
Mof_H 	H 	0.1204	0.2542	0.942	0.091
Mof_C 	C 	0.0381	0.3088	0.9941	0.093
Mof_H 	H 	0.9897	0.2644	0.9622	-0.063
Mof_C 	C 	0.2769	0.3241	0.9518	0.071
Mof_H 	H 	0.2231	0.3081	0.9057	-0.009
Mof_C 	C 	0.4374	0.1809	0.803	0.102
Mof_H 	H 	0.4905	0.1473	0.8077	-0.03
Mof_C 	C 	0.4336	0.2193	0.8758	-0.209
Mof_H 	H 	0.4836	0.2126	0.9273	0.048
Mof_C 	C 	0.3544	0.2683	0.8717	0.142
Mof_C 	C 	0.2854	0.2828	0.7909	-0.198
Mof_H 	H 	0.2329	0.3201	0.7836	0.085
Mof_C 	C 	0.2959	0.2414	0.7221	0.097
Mof_H 	H 	0.2485	0.2505	0.6692	-0.024
Mof_C 	C 	0.4297	0.6836	0.3083	0.094
Mof_H 	H 	0.3796	0.7249	0.3024	-0.032
Mof_C 	C 	0.4225	0.6171	0.2428	-0.214
Mof_H 	H 	0.3688	0.6143	0.1941	0.06
Mof_C 	C 	0.4966	0.5535	0.2501	0.142
Mof_C 	C 	0.5735	0.5592	0.326	-0.192
Mof_H 	H 	0.6239	0.5169	0.3346	0.084
Mof_C 	C 	0.5739	0.6281	0.388	0.071
Mof_H 	H 	0.6255	0.6302	0.4385	-0.032
Mof_C 	C 	0.564	0.4821	0.1689	0.048
Mof_H 	H 	0.6144	0.5219	0.2036	0.008
Mof_C 	C 	0.7318	0.3707	0.0171	0.089
Mof_H 	H 	0.7295	0.3472	0.9656	-0.064
Mof_C 	C 	0.6516	0.3832	0.0259	-0.25
Mof_H 	H 	0.5968	0.3688	0.9804	0.051
Mof_C 	C 	0.6525	0.4169	0.1017	0.147
Mof_C 	C 	0.7366	0.4347	0.1677	-0.217
Mof_H 	H 	0.7406	0.4543	0.2206	0.091
Mof_C 	C 	0.8137	0.4232	0.1547	0.103
Mof_H 	H 	0.8691	0.438	0.1993	-0.058
Mof_Cu	Cu	0.9114	0.3675	0.0467	0.389
Mof_Cu	Cu	0.61889	0.89912	0.37513	0.79
Mof_Cu	Cu	0.53142	0.83072	0.45774	0.791
Mof_Cu	Cu	0.0759	0.8838	0.4286	0.431
Mof_N 	N 	0.9711	0.8746	0.4505	-0.303
Mof_N 	N 	0.7259	0.8636	0.4782	-0.294
Mof_N 	N 	0.6455	0.8073	0.5531	-0.291
Mof_N 	N 	0.6301	0.689	0.7735	-0.245
Mof_N 	N 	0.4958	0.1928	0.1199	-0.263
Mof_N 	N 	0.5099	0.9877	0.3175	-0.289
Mof_N 	N 	0.4304	0.9225	0.3918	-0.298
Mof_N 	N 	0.1865	0.8916	0.4194	-0.294
Mof_C 	C 	0.9026	0.9408	0.4091	0.096
Mof_H 	H 	0.9092	0.9908	0.3722	-0.062
Mof_C 	C 	0.822	0.9392	0.418	-0.258
Mof_H 	H 	0.7752	0.9859	0.3863	0.054
Mof_C 	C 	0.8109	0.8668	0.4752	0.151
Mof_C 	C 	0.8828	0.8029	0.5188	-0.24
Mof_H 	H 	0.8796	0.7542	0.558	0.093
Mof_C 	C 	0.9619	0.8088	0.5059	0.104
Mof_H 	H 	0.0103	0.7644	0.5378	-0.07
Mof_C 	C 	0.7231	0.8241	0.5482	0.071
Mof_H 	H 	0.7769	0.8081	0.5943	-0.009
Mof_C 	C 	0.5626	0.6809	0.697	0.102
Mof_H 	H 	0.5095	0.6473	0.6923	-0.03
Mof_C 	C 	0.5664	0.7193	0.6242	-0.209
Mof_H 	H 	0.5164	0.7126	0.5727	0.048
Mof_C 	C 	0.6456	0.7683	0.6283	0.142
Mof_C 	C 	0.7146	0.7828	0.7091	-0.198
Mof_H 	H 	0.7671	0.8201	0.7164	0.085
Mof_C 	C 	0.7041	0.7414	0.7779	0.097
Mof_H 	H 	0.7515	0.7505	0.8308	-0.024
Mof_C 	C 	0.5703	0.1836	0.1917	0.094
Mof_H 	H 	0.6204	0.2249	0.1976	-0.032
Mof_C 	C 	0.5775	0.1171	0.2572	-0.213
Mof_H 	H 	0.6312	0.1143	0.3059	0.059
Mof_C 	C 	0.5034	0.0535	0.2499	0.141
Mof_C 	C 	0.4265	0.0592	0.174	-0.191
Mof_H 	H 	0.3761	0.0169	0.1654	0.084
Mof_C 	C 	0.4261	0.1281	0.112	0.07
Mof_H 	H 	0.3745	0.1302	0.0615	-0.032
Mof_C 	C 	0.436	0.9821	0.3311	0.048
Mof_H 	H 	0.3856	0.0219	0.2964	0.008
Mof_C 	C 	0.2682	0.8707	0.4829	0.092
Mof_H 	H 	0.2705	0.8472	0.5344	-0.066
Mof_C 	C 	0.3484	0.8832	0.4741	-0.25
Mof_H 	H 	0.4032	0.8688	0.5196	0.05
Mof_C 	C 	0.3475	0.9169	0.3983	0.147
Mof_C 	C 	0.2634	0.9347	0.3323	-0.217
Mof_H 	H 	0.2594	0.9543	0.2794	0.091
Mof_C 	C 	0.1863	0.9232	0.3453	0.103
Mof_H 	H 	0.1309	0.938	0.3007	-0.058
Mof_Cu	Cu	0.0886	0.8675	0.4533	0.391
Mof_Cu	Cu	0.61889	0.60088	0.87513	0.79
Mof_Cu	Cu	0.53142	0.66928	0.95774	0.791
Mof_Cu	Cu	0.0759	0.6162	0.9286	0.432
Mof_N 	N 	0.9711	0.6254	0.9505	-0.299
Mof_N 	N 	0.7259	0.6364	0.9782	-0.293
Mof_N 	N 	0.6455	0.6927	0.0531	-0.291
Mof_N 	N 	0.6301	0.811	0.2735	-0.245
Mof_N 	N 	0.4958	0.3072	0.6199	-0.263
Mof_N 	N 	0.5099	0.5123	0.8175	-0.29
Mof_N 	N 	0.4304	0.5775	0.8918	-0.298
Mof_N 	N 	0.1865	0.6084	0.9194	-0.294
Mof_C 	C 	0.9026	0.5592	0.9091	0.095
Mof_H 	H 	0.9092	0.5092	0.8722	-0.062
Mof_C 	C 	0.822	0.5608	0.918	-0.257
Mof_H 	H 	0.7752	0.5141	0.8863	0.053
Mof_C 	C 	0.8109	0.6332	0.9752	0.151
Mof_C 	C 	0.8828	0.6971	0.0188	-0.236
Mof_H 	H 	0.8796	0.7458	0.058	0.091
Mof_C 	C 	0.9619	0.6912	0.0059	0.093
Mof_H 	H 	0.0103	0.7356	0.0378	-0.063
Mof_C 	C 	0.7231	0.6759	0.0482	0.071
Mof_H 	H 	0.7769	0.6919	0.0943	-0.009
Mof_C 	C 	0.5626	0.8191	0.197	0.102
Mof_H 	H 	0.5095	0.8527	0.1923	-0.03
Mof_C 	C 	0.5664	0.7807	0.1242	-0.209
Mof_H 	H 	0.5164	0.7874	0.0727	0.048
Mof_C 	C 	0.6456	0.7317	0.1283	0.142
Mof_C 	C 	0.7146	0.7172	0.2091	-0.198
Mof_H 	H 	0.7671	0.6799	0.2164	0.085
Mof_C 	C 	0.7041	0.7586	0.2779	0.097
Mof_H 	H 	0.7515	0.7495	0.3308	-0.024
Mof_C 	C 	0.5703	0.3164	0.6917	0.094
Mof_H 	H 	0.6204	0.2751	0.6976	-0.032
Mof_C 	C 	0.5775	0.3829	0.7572	-0.214
Mof_H 	H 	0.6312	0.3857	0.8059	0.06
Mof_C 	C 	0.5034	0.4465	0.7499	0.142
Mof_C 	C 	0.4265	0.4408	0.674	-0.192
Mof_H 	H 	0.3761	0.4831	0.6654	0.084
Mof_C 	C 	0.4261	0.3719	0.612	0.071
Mof_H 	H 	0.3745	0.3698	0.5615	-0.032
Mof_C 	C 	0.436	0.5179	0.8311	0.048
Mof_H 	H 	0.3856	0.4781	0.7964	0.008
Mof_C 	C 	0.2682	0.6293	0.9829	0.089
Mof_H 	H 	0.2705	0.6528	0.0344	-0.064
Mof_C 	C 	0.3484	0.6168	0.9741	-0.25
Mof_H 	H 	0.4032	0.6312	0.0196	0.051
Mof_C 	C 	0.3475	0.5831	0.8983	0.147
Mof_C 	C 	0.2634	0.5653	0.8323	-0.217
Mof_H 	H 	0.2594	0.5457	0.7794	0.091
Mof_C 	C 	0.1863	0.5768	0.8453	0.103
Mof_H 	H 	0.1309	0.562	0.8007	-0.058
Mof_Cu	Cu	0.0886	0.6325	0.9533	0.389
Mof_Cu	Cu	0.38111	0.10088	0.62487	0.79
Mof_Cu	Cu	0.46858	0.16928	0.54226	0.791
Mof_Cu	Cu	0.9241	0.1162	0.5714	0.431
Mof_N 	N 	0.0289	0.1254	0.5495	-0.303
Mof_N 	N 	0.2741	0.1364	0.5218	-0.294
Mof_N 	N 	0.3545	0.1927	0.4469	-0.291
Mof_N 	N 	0.3699	0.311	0.2265	-0.245
Mof_N 	N 	0.5042	0.8072	0.8801	-0.263
Mof_N 	N 	0.4901	0.0123	0.6825	-0.289
Mof_N 	N 	0.5696	0.0775	0.6082	-0.298
Mof_N 	N 	0.8135	0.1084	0.5806	-0.294
Mof_C 	C 	0.0974	0.0592	0.5909	0.096
Mof_H 	H 	0.0908	0.0092	0.6278	-0.062
Mof_C 	C 	0.178	0.0608	0.582	-0.258
Mof_H 	H 	0.2248	0.0141	0.6137	0.054
Mof_C 	C 	0.1891	0.1332	0.5248	0.151
Mof_C 	C 	0.1172	0.1971	0.4812	-0.24
Mof_H 	H 	0.1204	0.2458	0.442	0.093
Mof_C 	C 	0.0381	0.1912	0.4941	0.104
Mof_H 	H 	0.9897	0.2356	0.4622	-0.07
Mof_C 	C 	0.2769	0.1759	0.4518	0.071
Mof_H 	H 	0.2231	0.1919	0.4057	-0.009
Mof_C 	C 	0.4374	0.3191	0.303	0.102
Mof_H 	H 	0.4905	0.3527	0.3077	-0.03
Mof_C 	C 	0.4336	0.2807	0.3758	-0.209
Mof_H 	H 	0.4836	0.2874	0.4273	0.048
Mof_C 	C 	0.3544	0.2317	0.3717	0.142
Mof_C 	C 	0.2854	0.2172	0.2909	-0.198
Mof_H 	H 	0.2329	0.1799	0.2836	0.085
Mof_C 	C 	0.2959	0.2586	0.2221	0.097
Mof_H 	H 	0.2485	0.2495	0.1692	-0.024
Mof_C 	C 	0.4297	0.8164	0.8083	0.094
Mof_H 	H 	0.3796	0.7751	0.8024	-0.032
Mof_C 	C 	0.4225	0.8829	0.7428	-0.213
Mof_H 	H 	0.3688	0.8857	0.6941	0.059
Mof_C 	C 	0.4966	0.9465	0.7501	0.141
Mof_C 	C 	0.5735	0.9408	0.826	-0.191
Mof_H 	H 	0.6239	0.9831	0.8346	0.084
Mof_C 	C 	0.5739	0.8719	0.888	0.07
Mof_H 	H 	0.6255	0.8698	0.9385	-0.032
Mof_C 	C 	0.564	0.0179	0.6689	0.048
Mof_H 	H 	0.6144	0.9781	0.7036	0.008
Mof_C 	C 	0.7318	0.1293	0.5171	0.092
Mof_H 	H 	0.7295	0.1528	0.4656	-0.066
Mof_C 	C 	0.6516	0.1168	0.5259	-0.25
Mof_H 	H 	0.5968	0.1312	0.4804	0.05
Mof_C 	C 	0.6525	0.0831	0.6017	0.147
Mof_C 	C 	0.7366	0.0653	0.6677	-0.217
Mof_H 	H 	0.7406	0.0457	0.7206	0.091
Mof_C 	C 	0.8137	0.0768	0.6547	0.103
Mof_H 	H 	0.8691	0.062	0.6993	-0.058
Mof_Cu	Cu	0.9114	0.1325	0.5467	0.391
_end
