data_functionalizedCrystal
_audit_creation_method	'EQeq! by Chris Wilmer'
_symmetry_space_group_name_H-M	'P1'
_symmetry_Int_Tables_number	1
_symmetry_cell_setting	triclinic
loop_
_symmetry_equiv_pos_as_xyz
  x,y,z
_cell_length_a	36.873
_cell_length_b	9.3152
_cell_length_c	10.9288
_cell_angle_alpha	90
_cell_angle_beta	93.643
_cell_angle_gamma	90
loop_
_atom_site_label
_atom_site_type_symbol
_atom_site_fract_x
_atom_site_fract_y
_atom_site_fract_z
_atom_site_charge
Mof_Cd	Cd	0.20749	0.80608	0.39579	0.379
Mof_N 	N 	0.2194	0.9818	0.25	-0.2
Mof_N 	N 	0.2262	0.0821	0.0704	-0.163
Mof_N 	N 	0.2504	0.1528	0.1571	-0.154
Mof_N 	N 	0.1841	0.8947	0.0758	-0.346
Mof_H 	H 	0.1796	0.8989	0.9977	0.168
Mof_H 	H 	0.173	0.8329	0.1185	0.176
Mof_N 	N 	0.2614	0.1239	0.3731	-0.334
Mof_H 	H 	0.2768	0.1931	0.3781	0.157
Mof_H 	H 	0.2564	0.0773	0.4379	0.154
Mof_O 	O 	0.1577	0.7469	0.2824	-0.312
Mof_O 	O 	0.1373	0.9226	0.3942	-0.29
Mof_O 	O 	0.0691	0.9946	0.3716	-0.426
Mof_H 	H 	0.0903	0.9947	0.3995	0.281
Mof_C 	C 	0.1322	0.827	0.3103	0.329
Mof_C 	C 	0.0325	0.881	0.2106	-0.072
Mof_C 	C 	0.0654	0.9	0.2726	0.22
Mof_C 	C 	0.0956	0.815	0.2453	-0.17
Mof_C 	C 	0.0919	0.717	0.152	0.02
Mof_H 	H 	0.111	0.6564	0.1369	0.035
Mof_C 	C 	0.0589	0.709	0.0781	-0.023
Mof_C 	C 	0.0289	0.793	0.1074	0.069
Mof_C 	C 	0.9966	0.787	0.0286	-0.112
Mof_H 	H 	0.9767	0.8436	0.0439	0.094
Mof_C 	C 	0.9953	0.696	0.9306	0.012
Mof_H 	H 	0.9743	0.6952	0.8786	0.032
Mof_C 	C 	0.0232	0.605	0.9039	-0.062
Mof_H 	H 	0.0205	0.5395	0.8396	0.055
Mof_C 	C 	0.0557	0.614	0.9766	-0.028
Mof_H 	H 	0.0754	0.5567	0.9584	0.045
Mof_H 	H 	0.0083	0.0352	0.3178	0.089
Mof_C 	C 	0.2087	0.9861	0.1318	0.214
Mof_C 	C 	0.2447	0.0882	0.2626	0.199
Mof_Cd	Cd	0.70749	0.30608	0.39579	0.38
Mof_N 	N 	0.7194	0.4818	0.25	-0.2
Mof_N 	N 	0.7262	0.5821	0.0704	-0.161
Mof_N 	N 	0.7504	0.6528	0.1571	-0.153
Mof_N 	N 	0.6841	0.3947	0.0758	-0.346
Mof_H 	H 	0.6796	0.3989	0.9977	0.17
Mof_H 	H 	0.673	0.3329	0.1185	0.177
Mof_N 	N 	0.7614	0.6239	0.3731	-0.333
Mof_H 	H 	0.7768	0.6931	0.3781	0.158
Mof_H 	H 	0.7564	0.5773	0.4379	0.155
Mof_O 	O 	0.6577	0.2469	0.2824	-0.311
Mof_O 	O 	0.6373	0.4226	0.3942	-0.29
Mof_O 	O 	0.5691	0.4946	0.3716	-0.426
Mof_H 	H 	0.5903	0.4947	0.3995	0.281
Mof_C 	C 	0.6322	0.327	0.3103	0.33
Mof_C 	C 	0.5325	0.381	0.2106	-0.071
Mof_C 	C 	0.5654	0.4	0.2726	0.22
Mof_C 	C 	0.5956	0.315	0.2453	-0.17
Mof_C 	C 	0.5919	0.217	0.152	0.021
Mof_H 	H 	0.611	0.1564	0.1369	0.035
Mof_C 	C 	0.5589	0.209	0.0781	-0.026
Mof_C 	C 	0.5289	0.293	0.1074	0.069
Mof_C 	C 	0.4966	0.287	0.0286	-0.114
Mof_H 	H 	0.4767	0.3436	0.0439	0.095
Mof_C 	C 	0.4953	0.196	0.9306	0.018
Mof_H 	H 	0.4743	0.1952	0.8786	0.03
Mof_C 	C 	0.5232	0.105	0.9039	-0.067
Mof_H 	H 	0.5205	0.0395	0.8396	0.057
Mof_C 	C 	0.5557	0.114	0.9766	-0.024
Mof_H 	H 	0.5754	0.0567	0.9584	0.044
Mof_H 	H 	0.5083	0.5352	0.3178	0.091
Mof_C 	C 	0.7087	0.4861	0.1318	0.214
Mof_C 	C 	0.7447	0.5882	0.2626	0.199
Mof_Cd	Cd	0.79251	0.80608	0.10421	0.38
Mof_N 	N 	0.7806	0.9818	0.25	-0.199
Mof_N 	N 	0.7738	0.0821	0.4296	-0.161
Mof_N 	N 	0.7496	0.1528	0.3429	-0.153
Mof_N 	N 	0.8159	0.8947	0.4242	-0.345
Mof_H 	H 	0.8204	0.8989	0.5023	0.17
Mof_H 	H 	0.827	0.8329	0.3815	0.177
Mof_N 	N 	0.7386	0.1239	0.1269	-0.333
Mof_H 	H 	0.7232	0.1931	0.1219	0.158
Mof_H 	H 	0.7436	0.0773	0.0621	0.155
Mof_O 	O 	0.8423	0.7469	0.2176	-0.311
Mof_O 	O 	0.8627	0.9226	0.1058	-0.29
Mof_O 	O 	0.9309	0.9946	0.1284	-0.426
Mof_H 	H 	0.9097	0.9947	0.1005	0.281
Mof_C 	C 	0.8678	0.827	0.1897	0.33
Mof_C 	C 	0.9675	0.881	0.2894	-0.073
Mof_C 	C 	0.9346	0.9	0.2274	0.221
Mof_C 	C 	0.9044	0.815	0.2547	-0.17
Mof_C 	C 	0.9081	0.717	0.348	0.021
Mof_H 	H 	0.889	0.6564	0.3631	0.035
Mof_C 	C 	0.9411	0.709	0.4219	-0.025
Mof_C 	C 	0.9711	0.793	0.3926	0.068
Mof_C 	C 	0.0034	0.787	0.4714	-0.112
Mof_H 	H 	0.0233	0.8436	0.4561	0.095
Mof_C 	C 	0.0047	0.696	0.5694	0.019
Mof_H 	H 	0.0257	0.6952	0.6214	0.03
Mof_C 	C 	0.9768	0.605	0.5961	-0.069
Mof_H 	H 	0.9795	0.5395	0.6604	0.057
Mof_C 	C 	0.9443	0.614	0.5234	-0.024
Mof_H 	H 	0.9246	0.5567	0.5416	0.044
Mof_H 	H 	0.9917	0.0352	0.1822	0.087
Mof_C 	C 	0.7913	0.9861	0.3682	0.214
Mof_C 	C 	0.7553	0.0882	0.2374	0.199
Mof_Cd	Cd	0.29251	0.30608	0.10421	0.38
Mof_N 	N 	0.2806	0.4818	0.25	-0.2
Mof_N 	N 	0.2738	0.5821	0.4296	-0.161
Mof_N 	N 	0.2496	0.6528	0.3429	-0.153
Mof_N 	N 	0.3159	0.3947	0.4242	-0.345
Mof_H 	H 	0.3204	0.3989	0.5023	0.17
Mof_H 	H 	0.327	0.3329	0.3815	0.177
Mof_N 	N 	0.2386	0.6239	0.1269	-0.333
Mof_H 	H 	0.2232	0.6931	0.1219	0.158
Mof_H 	H 	0.2436	0.5773	0.0621	0.155
Mof_O 	O 	0.3423	0.2469	0.2176	-0.311
Mof_O 	O 	0.3627	0.4226	0.1058	-0.29
Mof_O 	O 	0.4309	0.4946	0.1284	-0.426
Mof_H 	H 	0.4097	0.4947	0.1005	0.281
Mof_C 	C 	0.3678	0.327	0.1897	0.329
Mof_C 	C 	0.4675	0.381	0.2894	-0.07
Mof_C 	C 	0.4346	0.4	0.2274	0.22
Mof_C 	C 	0.4044	0.315	0.2547	-0.169
Mof_C 	C 	0.4081	0.217	0.348	0.02
Mof_H 	H 	0.389	0.1564	0.3631	0.035
Mof_C 	C 	0.4411	0.209	0.4219	-0.024
Mof_C 	C 	0.4711	0.293	0.3926	0.068
Mof_C 	C 	0.5034	0.287	0.4714	-0.112
Mof_H 	H 	0.5233	0.3436	0.4561	0.094
Mof_C 	C 	0.5047	0.196	0.5694	0.016
Mof_H 	H 	0.5257	0.1952	0.6214	0.031
Mof_C 	C 	0.4768	0.105	0.5961	-0.065
Mof_H 	H 	0.4795	0.0395	0.6604	0.056
Mof_C 	C 	0.4443	0.114	0.5234	-0.026
Mof_H 	H 	0.4246	0.0567	0.5416	0.045
Mof_H 	H 	0.4917	0.5352	0.1822	0.091
Mof_C 	C 	0.2913	0.4861	0.3682	0.214
Mof_C 	C 	0.2553	0.5882	0.2374	0.199
Mof_Cd	Cd	0.79251	0.19392	0.60421	0.38
Mof_N 	N 	0.7806	0.0182	0.75	-0.199
Mof_N 	N 	0.7738	0.9179	0.9296	-0.162
Mof_N 	N 	0.7496	0.8472	0.8429	-0.153
Mof_N 	N 	0.8159	0.1053	0.9242	-0.345
Mof_H 	H 	0.8204	0.1011	0.0023	0.169
Mof_H 	H 	0.827	0.1671	0.8815	0.177
Mof_N 	N 	0.7386	0.8761	0.6269	-0.333
Mof_H 	H 	0.7232	0.8069	0.6219	0.158
Mof_H 	H 	0.7436	0.9227	0.5621	0.155
Mof_O 	O 	0.8423	0.2531	0.7176	-0.311
Mof_O 	O 	0.8627	0.0774	0.6058	-0.29
Mof_O 	O 	0.9309	0.0054	0.6284	-0.426
Mof_H 	H 	0.9097	0.0053	0.6005	0.281
Mof_C 	C 	0.8678	0.173	0.6897	0.33
Mof_C 	C 	0.9675	0.119	0.7894	-0.073
Mof_C 	C 	0.9346	0.1	0.7274	0.221
Mof_C 	C 	0.9044	0.185	0.7547	-0.17
Mof_C 	C 	0.9081	0.283	0.848	0.02
Mof_H 	H 	0.889	0.3436	0.8631	0.035
Mof_C 	C 	0.9411	0.291	0.9219	-0.024
Mof_C 	C 	0.9711	0.207	0.8926	0.067
Mof_C 	C 	0.0034	0.213	0.9714	-0.11
Mof_H 	H 	0.0233	0.1564	0.9561	0.094
Mof_C 	C 	0.0047	0.304	0.0694	0.017
Mof_H 	H 	0.0257	0.3048	0.1214	0.03
Mof_C 	C 	0.9768	0.395	0.0961	-0.067
Mof_H 	H 	0.9795	0.4605	0.1604	0.056
Mof_C 	C 	0.9443	0.386	0.0234	-0.026
Mof_H 	H 	0.9246	0.4433	0.0416	0.045
Mof_H 	H 	0.9917	0.9648	0.6822	0.087
Mof_C 	C 	0.7913	0.0139	0.8682	0.214
Mof_C 	C 	0.7553	0.9118	0.7374	0.199
Mof_Cd	Cd	0.29251	0.69392	0.60421	0.38
Mof_N 	N 	0.2806	0.5182	0.75	-0.2
Mof_N 	N 	0.2738	0.4179	0.9296	-0.161
Mof_N 	N 	0.2496	0.3472	0.8429	-0.153
Mof_N 	N 	0.3159	0.6053	0.9242	-0.346
Mof_H 	H 	0.3204	0.6011	0.0023	0.17
Mof_H 	H 	0.327	0.6671	0.8815	0.177
Mof_N 	N 	0.2386	0.3761	0.6269	-0.333
Mof_H 	H 	0.2232	0.3069	0.6219	0.158
Mof_H 	H 	0.2436	0.4227	0.5621	0.155
Mof_O 	O 	0.3423	0.7531	0.7176	-0.311
Mof_O 	O 	0.3627	0.5774	0.6058	-0.29
Mof_O 	O 	0.4309	0.5054	0.6284	-0.426
Mof_H 	H 	0.4097	0.5053	0.6005	0.281
Mof_C 	C 	0.3678	0.673	0.6897	0.33
Mof_C 	C 	0.4675	0.619	0.7894	-0.071
Mof_C 	C 	0.4346	0.6	0.7274	0.22
Mof_C 	C 	0.4044	0.685	0.7547	-0.17
Mof_C 	C 	0.4081	0.783	0.848	0.021
Mof_H 	H 	0.389	0.8436	0.8631	0.035
Mof_C 	C 	0.4411	0.791	0.9219	-0.025
Mof_C 	C 	0.4711	0.707	0.8926	0.069
Mof_C 	C 	0.5034	0.713	0.9714	-0.114
Mof_H 	H 	0.5233	0.6564	0.9561	0.095
Mof_C 	C 	0.5047	0.804	0.0694	0.018
Mof_H 	H 	0.5257	0.8048	0.1214	0.03
Mof_C 	C 	0.4768	0.895	0.0961	-0.067
Mof_H 	H 	0.4795	0.9605	0.1604	0.057
Mof_C 	C 	0.4443	0.886	0.0234	-0.024
Mof_H 	H 	0.4246	0.9433	0.0416	0.044
Mof_H 	H 	0.4917	0.4648	0.6822	0.091
Mof_C 	C 	0.2913	0.5139	0.8682	0.214
Mof_C 	C 	0.2553	0.4118	0.7374	0.199
Mof_Cd	Cd	0.20749	0.19392	0.89579	0.38
Mof_N 	N 	0.2194	0.0182	0.75	-0.199
Mof_N 	N 	0.2262	0.9179	0.5704	-0.161
Mof_N 	N 	0.2504	0.8472	0.6571	-0.153
Mof_N 	N 	0.1841	0.1053	0.5758	-0.345
Mof_H 	H 	0.1796	0.1011	0.4977	0.17
Mof_H 	H 	0.173	0.1671	0.6185	0.177
Mof_N 	N 	0.2614	0.8761	0.8731	-0.333
Mof_H 	H 	0.2768	0.8069	0.8781	0.158
Mof_H 	H 	0.2564	0.9227	0.9379	0.155
Mof_O 	O 	0.1577	0.2531	0.7824	-0.311
Mof_O 	O 	0.1373	0.0774	0.8942	-0.29
Mof_O 	O 	0.0691	0.0054	0.8716	-0.426
Mof_H 	H 	0.0903	0.0053	0.8995	0.281
Mof_C 	C 	0.1322	0.173	0.8103	0.33
Mof_C 	C 	0.0325	0.119	0.7106	-0.073
Mof_C 	C 	0.0654	0.1	0.7726	0.221
Mof_C 	C 	0.0956	0.185	0.7453	-0.17
Mof_C 	C 	0.0919	0.283	0.652	0.02
Mof_H 	H 	0.111	0.3436	0.6369	0.035
Mof_C 	C 	0.0589	0.291	0.5781	-0.024
Mof_C 	C 	0.0289	0.207	0.6074	0.07
Mof_C 	C 	0.9966	0.213	0.5286	-0.114
Mof_H 	H 	0.9767	0.1564	0.5439	0.095
Mof_C 	C 	0.9953	0.304	0.4306	0.015
Mof_H 	H 	0.9743	0.3048	0.3786	0.031
Mof_C 	C 	0.0232	0.395	0.4039	-0.064
Mof_H 	H 	0.0205	0.4605	0.3396	0.056
Mof_C 	C 	0.0557	0.386	0.4766	-0.026
Mof_H 	H 	0.0754	0.4433	0.4584	0.045
Mof_H 	H 	0.0083	0.9648	0.8178	0.088
Mof_C 	C 	0.2087	0.0139	0.6318	0.214
Mof_C 	C 	0.2447	0.9118	0.7626	0.199
Mof_Cd	Cd	0.70749	0.69392	0.89579	0.38
Mof_N 	N 	0.7194	0.5182	0.75	-0.2
Mof_N 	N 	0.7262	0.4179	0.5704	-0.161
Mof_N 	N 	0.7504	0.3472	0.6571	-0.153
Mof_N 	N 	0.6841	0.6053	0.5758	-0.345
Mof_H 	H 	0.6796	0.6011	0.4977	0.17
Mof_H 	H 	0.673	0.6671	0.6185	0.177
Mof_N 	N 	0.7614	0.3761	0.8731	-0.333
Mof_H 	H 	0.7768	0.3069	0.8781	0.158
Mof_H 	H 	0.7564	0.4227	0.9379	0.155
Mof_O 	O 	0.6577	0.7531	0.7824	-0.311
Mof_O 	O 	0.6373	0.5774	0.8942	-0.29
Mof_O 	O 	0.5691	0.5054	0.8716	-0.426
Mof_H 	H 	0.5903	0.5053	0.8995	0.281
Mof_C 	C 	0.6322	0.673	0.8103	0.329
Mof_C 	C 	0.5325	0.619	0.7106	-0.07
Mof_C 	C 	0.5654	0.6	0.7726	0.22
Mof_C 	C 	0.5956	0.685	0.7453	-0.169
Mof_C 	C 	0.5919	0.783	0.652	0.02
Mof_H 	H 	0.611	0.8436	0.6369	0.035
Mof_C 	C 	0.5589	0.791	0.5781	-0.024
Mof_C 	C 	0.5289	0.707	0.6074	0.068
Mof_C 	C 	0.4966	0.713	0.5286	-0.112
Mof_H 	H 	0.4767	0.6564	0.5439	0.094
Mof_C 	C 	0.4953	0.804	0.4306	0.016
Mof_H 	H 	0.4743	0.8048	0.3786	0.031
Mof_C 	C 	0.5232	0.895	0.4039	-0.065
Mof_H 	H 	0.5205	0.9605	0.3396	0.056
Mof_C 	C 	0.5557	0.886	0.4766	-0.026
Mof_H 	H 	0.5754	0.9433	0.4584	0.045
Mof_H 	H 	0.5083	0.4648	0.8178	0.091
Mof_C 	C 	0.7087	0.5139	0.6318	0.214
Mof_C 	C 	0.7447	0.4118	0.7626	0.199
Mof_C 	C 	9.48343e-19	0.974	0.25	-0.096
Mof_C 	C 	0.5	0.474	0.25	-0.102
Mof_C 	C 	1.89669e-18	0.026	0.75	-0.096
Mof_C 	C 	0.5	0.526	0.75	-0.102
_end
