data_functionalizedCrystal
_audit_creation_method	'EQeq! by Chris Wilmer'
_symmetry_space_group_name_H-M	'P1'
_symmetry_Int_Tables_number	1
_symmetry_cell_setting	triclinic
loop_
_symmetry_equiv_pos_as_xyz
  x,y,z
_cell_length_a	16.1376
_cell_length_b	16.1376
_cell_length_c	30.9377
_cell_angle_alpha	100.763
_cell_angle_beta	100.763
_cell_angle_gamma	95.917
loop_
_atom_site_label
_atom_site_type_symbol
_atom_site_fract_x
_atom_site_fract_y
_atom_site_fract_z
_atom_site_charge
Mof_Dy	Dy	0.13857	0.68859	0.69944	2.008
Mof_Dy	Dy	0.5158	0.13336	0.08726	1.778
Mof_Dy	Dy	0.31141	0.86143	0.80056	2.008
Mof_Dy	Dy	0.86664	0.4842	0.41274	1.779
Mof_Dy	Dy	0.86143	0.31141	0.30056	2.007
Mof_Dy	Dy	0.4842	0.86664	0.91274	1.778
Mof_Dy	Dy	0.68859	0.13857	0.19944	2.007
Mof_Dy	Dy	0.13336	0.5158	0.58726	1.778
Mof_Cu	Cu	0.02559	0.64059	0.07157	0.874
Mof_Cu	Cu	0.35941	0.97441	0.42843	0.874
Mof_Cu	Cu	0.97441	0.35941	0.92843	0.874
Mof_Cu	Cu	0.64059	0.02559	0.57157	0.874
Mof_Cu	Cu	0.72357	0.27643	0.75	0.867
Mof_Cu	Cu	0.27643	0.72357	0.25	0.867
Mof_H 	H 	0.1774	0.4302	0.985	0.055
Mof_H 	H 	0.1256	0.5188	0.9302	0.06
Mof_H 	H 	0.9906	0.8072	0.9472	0.061
Mof_H 	H 	0.9067	0.8747	-0	0.056
Mof_H 	H 	0.797	0.7786	0.1384	0.057
Mof_H 	H 	0.8489	0.6871	0.1898	0.061
Mof_H 	H 	0.135	0.549	0.2161	0.049
Mof_H 	H 	0.2285	0.4937	0.1657	0.055
Mof_H 	H 	0.9842	0.5806	0.8836	0.108
Mof_H 	H 	0.0186	0.599	0.816	-0.006
Mof_H 	H 	0.2051	0.7909	0.8844	-0.023
Mof_H 	H 	0.1687	0.7737	0.9514	0.107
Mof_H 	H 	0.9188	0.9514	0.1113	0.092
Mof_H 	H 	0.8184	0.0462	0.1232	-0.016
Mof_H 	H 	0.6307	0.8713	0.0424	-0.008
Mof_H 	H 	0.7249	0.7741	0.0325	0.102
Mof_H 	H 	0.8638	0.5228	0.1896	0.096
Mof_H 	H 	0.8362	0.4896	0.2554	-0.007
Mof_H 	H 	0.0485	0.6445	0.327	0.005
Mof_H 	H 	0.0793	0.6757	0.2604	0.08
Mof_H 	H 	0.3165	0.4987	0.051	0.082
Mof_H 	H 	0.413	0.3988	0.0549	0.025
Mof_H 	H 	0.2527	0.2517	0.1046	0.023
Mof_H 	H 	0.1565	0.3485	0.0995	0.081
Mof_H 	H 	0.9098	0.0988	0.8374	0.054
Mof_H 	H 	0.8188	0.154	0.8884	0.057
Mof_H 	H 	0.5842	0.3554	0.8837	0.063
Mof_H 	H 	0.5247	0.4425	0.8307	0.06
Mof_H 	H 	0.0313	0.1477	0.7924	0.109
Mof_H 	H 	0.1256	0.0524	0.7938	-0.025
Mof_H 	H 	0.5894	0.141	0.875	0.102
Mof_H 	H 	0.564	0.1266	0.9457	-0.005
Mof_H 	H 	0.7421	0.3211	0.0057	-0.007
Mof_H 	H 	0.7731	0.3349	0.9382	0.1
Mof_H 	H 	0.597	0.5808	0.7923	0.106
Mof_H 	H 	0.5013	0.6787	0.7928	-0.013
Mof_H 	H 	0.5698	0.8226	0.515	0.056
Mof_H 	H 	0.4812	0.8744	0.5698	0.059
Mof_H 	H 	0.1928	0.0094	0.5528	0.061
Mof_H 	H 	0.1253	0.0933	0.5	0.057
Mof_H 	H 	0.2214	0.203	0.3616	0.057
Mof_H 	H 	0.3129	0.1511	0.3102	0.061
Mof_H 	H 	0.451	0.865	0.2839	0.049
Mof_H 	H 	0.5063	0.7715	0.3343	0.055
Mof_H 	H 	0.4194	0.0158	0.6164	0.109
Mof_H 	H 	0.401	0.9814	0.684	-0.007
Mof_H 	H 	0.2091	0.7949	0.6156	-0.023
Mof_H 	H 	0.2263	0.8313	0.5486	0.106
Mof_H 	H 	0.0486	0.0812	0.3887	0.091
Mof_H 	H 	0.9538	0.1816	0.3768	-0.016
Mof_H 	H 	0.1287	0.3693	0.4576	-0.007
Mof_H 	H 	0.2259	0.2751	0.4675	0.103
Mof_H 	H 	0.4772	0.1362	0.3104	0.096
Mof_H 	H 	0.5104	0.1638	0.2446	-0.007
Mof_H 	H 	0.3555	0.9515	0.173	0.005
Mof_H 	H 	0.3243	0.9207	0.2396	0.08
Mof_H 	H 	0.5013	0.6835	0.449	0.082
Mof_H 	H 	0.6012	0.587	0.4451	0.026
Mof_H 	H 	0.7483	0.7473	0.3954	0.023
Mof_H 	H 	0.6515	0.8435	0.4005	0.081
Mof_H 	H 	0.9012	0.0902	0.6626	0.054
Mof_H 	H 	0.846	0.1812	0.6116	0.057
Mof_H 	H 	0.6446	0.4158	0.6163	0.063
Mof_H 	H 	0.5575	0.4753	0.6693	0.06
Mof_H 	H 	0.8523	0.9687	0.7076	0.109
Mof_H 	H 	0.9476	0.8744	0.7062	-0.025
Mof_H 	H 	0.859	0.4106	0.625	0.102
Mof_H 	H 	0.8734	0.436	0.5543	-0.005
Mof_H 	H 	0.6789	0.2579	0.4943	-0.007
Mof_H 	H 	0.6651	0.2269	0.5618	0.1
Mof_H 	H 	0.4192	0.403	0.7077	0.106
Mof_H 	H 	0.3213	0.4987	0.7072	-0.013
Mof_H 	H 	0.8226	0.5698	0.015	0.056
Mof_H 	H 	0.8744	0.4812	0.0698	0.059
Mof_H 	H 	0.0094	0.1928	0.0528	0.063
Mof_H 	H 	0.0933	0.1253	-0	0.052
Mof_H 	H 	0.203	0.2214	0.8616	0.057
Mof_H 	H 	0.1511	0.3129	0.8102	0.061
Mof_H 	H 	0.865	0.451	0.7839	0.049
Mof_H 	H 	0.7715	0.5063	0.8343	0.055
Mof_H 	H 	0.0158	0.4194	0.1164	0.108
Mof_H 	H 	0.9814	0.401	0.184	-0.006
Mof_H 	H 	0.7949	0.2091	0.1156	-0.023
Mof_H 	H 	0.8313	0.2263	0.0486	0.106
Mof_H 	H 	0.0812	0.0486	0.8887	0.092
Mof_H 	H 	0.1816	0.9538	0.8768	-0.016
Mof_H 	H 	0.3693	0.1287	0.9576	-0.007
Mof_H 	H 	0.2751	0.2259	0.9675	0.103
Mof_H 	H 	0.1362	0.4772	0.8104	0.096
Mof_H 	H 	0.1638	0.5104	0.7446	-0.007
Mof_H 	H 	0.9515	0.3555	0.673	0.005
Mof_H 	H 	0.9207	0.3243	0.7396	0.08
Mof_H 	H 	0.6835	0.5013	0.949	0.082
Mof_H 	H 	0.587	0.6012	0.9451	0.026
Mof_H 	H 	0.7473	0.7483	0.8954	0.023
Mof_H 	H 	0.8435	0.6515	0.9005	0.081
Mof_H 	H 	0.0902	0.9012	0.1626	0.054
Mof_H 	H 	0.1812	0.846	0.1116	0.057
Mof_H 	H 	0.4158	0.6446	0.1163	0.063
Mof_H 	H 	0.4753	0.5575	0.1693	0.06
Mof_H 	H 	0.9687	0.8523	0.2076	0.109
Mof_H 	H 	0.8744	0.9476	0.2062	-0.024
Mof_H 	H 	0.4106	0.859	0.125	0.102
Mof_H 	H 	0.436	0.8734	0.0543	-0.005
Mof_H 	H 	0.2579	0.6789	0.9943	-0.005
Mof_H 	H 	0.2269	0.6651	0.0618	0.099
Mof_H 	H 	0.403	0.4192	0.2077	0.106
Mof_H 	H 	0.4987	0.3213	0.2072	-0.013
Mof_H 	H 	0.4302	0.1774	0.485	0.056
Mof_H 	H 	0.5188	0.1256	0.4302	0.059
Mof_H 	H 	0.8072	0.9906	0.4472	0.061
Mof_H 	H 	0.8747	0.9067	0.5	0.057
Mof_H 	H 	0.7786	0.797	0.6384	0.057
Mof_H 	H 	0.6871	0.8489	0.6898	0.061
Mof_H 	H 	0.549	0.135	0.7161	0.049
Mof_H 	H 	0.4937	0.2285	0.6657	0.055
Mof_H 	H 	0.5806	0.9842	0.3836	0.109
Mof_H 	H 	0.599	0.0186	0.316	-0.007
Mof_H 	H 	0.7909	0.2051	0.3844	-0.023
Mof_H 	H 	0.7737	0.1687	0.4514	0.106
Mof_H 	H 	0.9514	0.9188	0.6113	0.091
Mof_H 	H 	0.0462	0.8184	0.6232	-0.016
Mof_H 	H 	0.8713	0.6307	0.5424	-0.007
Mof_H 	H 	0.7741	0.7249	0.5325	0.103
Mof_H 	H 	0.5228	0.8638	0.6896	0.096
Mof_H 	H 	0.4896	0.8362	0.7554	-0.007
Mof_H 	H 	0.6445	0.0485	0.827	0.005
Mof_H 	H 	0.6757	0.0793	0.7604	0.08
Mof_H 	H 	0.4987	0.3165	0.551	0.082
Mof_H 	H 	0.3988	0.413	0.5549	0.026
Mof_H 	H 	0.2517	0.2527	0.6046	0.023
Mof_H 	H 	0.3485	0.1565	0.5995	0.081
Mof_H 	H 	0.0988	0.9098	0.3374	0.054
Mof_H 	H 	0.154	0.8188	0.3884	0.057
Mof_H 	H 	0.3554	0.5842	0.3837	0.063
Mof_H 	H 	0.4425	0.5247	0.3307	0.06
Mof_H 	H 	0.1477	0.0313	0.2924	0.109
Mof_H 	H 	0.0524	0.1256	0.2938	-0.024
Mof_H 	H 	0.141	0.5894	0.375	0.102
Mof_H 	H 	0.1266	0.564	0.4457	-0.005
Mof_H 	H 	0.3211	0.7421	0.5057	-0.007
Mof_H 	H 	0.3349	0.7731	0.4382	0.1
Mof_H 	H 	0.5808	0.597	0.2923	0.106
Mof_H 	H 	0.6787	0.5013	0.2928	-0.013
Mof_C 	C 	0.1307	0.5169	0.0328	0.09
Mof_C 	C 	0.1498	0.479	0.9908	-0.093
Mof_C 	C 	0.1206	0.5268	0.9608	-0.109
Mof_C 	C 	0.0808	0.5918	0.9843	0.108
Mof_C 	C 	0.0538	0.661	0.967	-0.158
Mof_C 	C 	0.0138	0.7204	0.9914	0.111
Mof_C 	C 	0.9813	0.7901	0.9739	-0.087
Mof_C 	C 	0.935	0.8264	0.0023	-0.074
Mof_C 	C 	0.9373	0.7773	0.0371	0.098
Mof_C 	C 	0.89	0.7868	0.0705	-0.145
Mof_C 	C 	0.8948	0.7388	0.1034	0.106
Mof_C 	C 	0.8423	0.7457	0.1367	-0.08
Mof_C 	C 	0.871	0.6966	0.1645	-0.088
Mof_C 	C 	0.9404	0.6604	0.15	0.104
Mof_C 	C 	0.9955	0.6175	0.1749	-0.147
Mof_C 	C 	0.0666	0.5886	0.1598	0.104
Mof_C 	C 	0.1293	0.5513	0.1853	-0.109
Mof_C 	C 	0.1795	0.5199	0.1578	-0.079
Mof_C 	C 	0.144	0.5342	0.1142	0.09
Mof_C 	C 	0.1641	0.4979	0.074	-0.13
Mof_C 	C 	0.073	0.6732	0.9235	0.172
Mof_C 	C 	0.0294	0.6232	0.8838	-0.225
Mof_C 	C 	0.0502	0.6338	0.8436	0.141
Mof_C 	C 	0.1174	0.6956	0.8434	-0.239
Mof_C 	C 	0.1603	0.7475	0.8841	0.154
Mof_C 	C 	0.1391	0.7375	0.9238	-0.215
Mof_C 	C 	0.142	0.7048	0.8003	0.505
Mof_C 	C 	0.8303	0.8515	0.0713	0.142
Mof_C 	C 	0.8599	0.9343	0.0981	-0.185
Mof_C 	C 	0.7998	0.991	0.1047	0.107
Mof_C 	C 	0.7129	0.9665	0.0843	-0.218
Mof_C 	C 	0.6888	0.8874	0.0574	0.121
Mof_C 	C 	0.745	0.8292	0.0509	-0.201
Mof_C 	C 	0.6504	0.0248	0.0926	0.434
Mof_C 	C 	0.976	0.6016	0.2183	0.14
Mof_C 	C 	0.9026	0.5466	0.2174	-0.189
Mof_C 	C 	0.8867	0.5267	0.2566	0.124
Mof_C 	C 	0.9414	0.5588	0.2974	-0.198
Mof_C 	C 	0.0123	0.6177	0.2989	0.096
Mof_C 	C 	0.0297	0.6373	0.2592	-0.181
Mof_C 	C 	0.9285	0.5315	0.3384	0.412
Mof_C 	C 	0.2272	0.4344	0.0758	0.11
Mof_C 	C 	0.3032	0.4488	0.062	-0.144
Mof_C 	C 	0.3607	0.3891	0.0642	0.047
Mof_C 	C 	0.3413	0.3169	0.0797	-0.111
Mof_C 	C 	0.2656	0.3014	0.0934	0.051
Mof_C 	C 	0.2093	0.3597	0.0908	-0.145
Mof_C 	C 	0.4026	0.253	0.0819	0.301
Mof_C 	C 	0.841	0.1622	0.7899	0.096
Mof_C 	C 	0.8666	0.1334	0.8312	-0.075
Mof_C 	C 	0.8181	0.1643	0.8591	-0.1
Mof_C 	C 	0.7644	0.216	0.8369	0.103
Mof_C 	C 	0.7022	0.255	0.8554	-0.164
Mof_C 	C 	0.6543	0.3085	0.8343	0.114
Mof_C 	C 	0.597	0.3566	0.855	-0.087
Mof_C 	C 	0.5647	0.4041	0.8263	-0.079
Mof_C 	C 	0.602	0.3856	0.7882	0.102
Mof_C 	C 	0.0135	0.0913	0.7751	-0.227
Mof_C 	C 	0.0701	0.0345	0.7755	0.166
Mof_C 	C 	0.6868	0.2408	0.8993	0.168
Mof_C 	C 	0.6222	0.1782	0.9016	-0.203
Mof_C 	C 	0.6063	0.1711	0.9446	0.14
Mof_C 	C 	0.6476	0.2242	0.9845	-0.247
Mof_C 	C 	0.7097	0.2831	0.9793	0.153
Mof_C 	C 	0.7288	0.2916	0.9386	-0.23
Mof_C 	C 	0.6285	0.2161	0.0262	0.463
Mof_C 	C 	0.5406	0.564	0.7749	-0.22
Mof_C 	C 	0.4838	0.6226	0.7753	0.143
Mof_C 	C 	0.4831	0.8693	0.4672	0.093
Mof_C 	C 	0.521	0.8502	0.5092	-0.096
Mof_C 	C 	0.4732	0.8794	0.5392	-0.107
Mof_C 	C 	0.4082	0.9192	0.5157	0.105
Mof_C 	C 	0.339	0.9462	0.533	-0.157
Mof_C 	C 	0.2796	0.9862	0.5086	0.109
Mof_C 	C 	0.2099	0.0187	0.5261	-0.086
Mof_C 	C 	0.1736	0.065	0.4977	-0.075
Mof_C 	C 	0.2227	0.0627	0.4629	0.098
Mof_C 	C 	0.2132	0.11	0.4295	-0.145
Mof_C 	C 	0.2612	0.1052	0.3966	0.106
Mof_C 	C 	0.2543	0.1577	0.3633	-0.08
Mof_C 	C 	0.3034	0.129	0.3355	-0.088
Mof_C 	C 	0.3396	0.0596	0.35	0.104
Mof_C 	C 	0.3825	0.0045	0.3251	-0.148
Mof_C 	C 	0.4114	0.9334	0.3402	0.105
Mof_C 	C 	0.4487	0.8707	0.3147	-0.109
Mof_C 	C 	0.4801	0.8205	0.3422	-0.079
Mof_C 	C 	0.4658	0.856	0.3858	0.09
Mof_C 	C 	0.5021	0.8359	0.426	-0.131
Mof_C 	C 	0.3268	0.927	0.5765	0.172
Mof_C 	C 	0.3768	0.9706	0.6162	-0.227
Mof_C 	C 	0.3662	0.9498	0.6564	0.142
Mof_C 	C 	0.3044	0.8826	0.6566	-0.239
Mof_C 	C 	0.2525	0.8397	0.6159	0.154
Mof_C 	C 	0.2625	0.8609	0.5762	-0.215
Mof_C 	C 	0.2952	0.858	0.6997	0.505
Mof_C 	C 	0.1485	0.1697	0.4287	0.142
Mof_C 	C 	0.0657	0.1401	0.4019	-0.185
Mof_C 	C 	0.009	0.2002	0.3953	0.106
Mof_C 	C 	0.0335	0.2871	0.4157	-0.218
Mof_C 	C 	0.1126	0.3112	0.4426	0.121
Mof_C 	C 	0.1708	0.255	0.4491	-0.201
Mof_C 	C 	0.9752	0.3496	0.4074	0.434
Mof_C 	C 	0.3984	0.024	0.2817	0.14
Mof_C 	C 	0.4534	0.0974	0.2826	-0.189
Mof_C 	C 	0.4733	0.1133	0.2434	0.124
Mof_C 	C 	0.4412	0.0586	0.2026	-0.198
Mof_C 	C 	0.3823	0.9877	0.2011	0.096
Mof_C 	C 	0.3627	0.9703	0.2408	-0.181
Mof_C 	C 	0.4685	0.0715	0.1616	0.412
Mof_C 	C 	0.5656	0.7728	0.4242	0.11
Mof_C 	C 	0.5512	0.6968	0.438	-0.144
Mof_C 	C 	0.6109	0.6393	0.4358	0.047
Mof_C 	C 	0.6831	0.6587	0.4203	-0.111
Mof_C 	C 	0.6986	0.7344	0.4066	0.051
Mof_C 	C 	0.6403	0.7907	0.4092	-0.145
Mof_C 	C 	0.747	0.5974	0.4181	0.301
Mof_C 	C 	0.8378	0.159	0.7101	0.096
Mof_C 	C 	0.8666	0.1334	0.6688	-0.076
Mof_C 	C 	0.8357	0.1819	0.6409	-0.1
Mof_C 	C 	0.784	0.2356	0.6631	0.103
Mof_C 	C 	0.745	0.2978	0.6446	-0.164
Mof_C 	C 	0.6915	0.3457	0.6657	0.114
Mof_C 	C 	0.6434	0.403	0.645	-0.087
Mof_C 	C 	0.5959	0.4353	0.6737	-0.079
Mof_C 	C 	0.6144	0.398	0.7118	0.102
Mof_C 	C 	0.9087	0.9865	0.7249	-0.227
Mof_C 	C 	0.9655	0.9299	0.7245	0.165
Mof_C 	C 	0.7592	0.3132	0.6007	0.168
Mof_C 	C 	0.8218	0.3778	0.5984	-0.203
Mof_C 	C 	0.8289	0.3937	0.5554	0.14
Mof_C 	C 	0.7758	0.3524	0.5155	-0.247
Mof_C 	C 	0.7169	0.2903	0.5207	0.152
Mof_C 	C 	0.7084	0.2712	0.5614	-0.23
Mof_C 	C 	0.7839	0.3715	0.4738	0.464
Mof_C 	C 	0.436	0.4594	0.7251	-0.22
Mof_C 	C 	0.3774	0.5162	0.7247	0.143
Mof_C 	C 	0.8693	0.4831	0.9672	0.093
Mof_C 	C 	0.8502	0.521	0.0092	-0.097
Mof_C 	C 	0.8794	0.4732	0.0392	-0.106
Mof_C 	C 	0.9192	0.4082	0.0157	0.105
Mof_C 	C 	0.9462	0.339	0.033	-0.157
Mof_C 	C 	0.9862	0.2796	0.0086	0.111
Mof_C 	C 	0.0187	0.2099	0.0261	-0.093
Mof_C 	C 	0.065	0.1736	0.9977	-0.066
Mof_C 	C 	0.0627	0.2227	0.9629	0.096
Mof_C 	C 	0.11	0.2132	0.9295	-0.144
Mof_C 	C 	0.1052	0.2612	0.8966	0.106
Mof_C 	C 	0.1577	0.2543	0.8633	-0.08
Mof_C 	C 	0.129	0.3034	0.8355	-0.088
Mof_C 	C 	0.0596	0.3396	0.85	0.104
Mof_C 	C 	0.0045	0.3825	0.8251	-0.147
Mof_C 	C 	0.9334	0.4114	0.8402	0.104
Mof_C 	C 	0.8707	0.4487	0.8147	-0.108
Mof_C 	C 	0.8205	0.4801	0.8422	-0.079
Mof_C 	C 	0.856	0.4658	0.8858	0.09
Mof_C 	C 	0.8359	0.5021	0.926	-0.131
Mof_C 	C 	0.927	0.3268	0.0765	0.171
Mof_C 	C 	0.9706	0.3768	0.1162	-0.225
Mof_C 	C 	0.9498	0.3662	0.1564	0.141
Mof_C 	C 	0.8826	0.3044	0.1566	-0.238
Mof_C 	C 	0.8397	0.2525	0.1159	0.154
Mof_C 	C 	0.8609	0.2625	0.0762	-0.215
Mof_C 	C 	0.858	0.2952	0.1997	0.505
Mof_C 	C 	0.1697	0.1485	0.9287	0.141
Mof_C 	C 	0.1401	0.0657	0.9019	-0.185
Mof_C 	C 	0.2002	0.009	0.8953	0.106
Mof_C 	C 	0.2871	0.0335	0.9157	-0.218
Mof_C 	C 	0.3112	0.1126	0.9426	0.121
Mof_C 	C 	0.255	0.1708	0.9491	-0.201
Mof_C 	C 	0.3496	0.9752	0.9074	0.434
Mof_C 	C 	0.024	0.3984	0.7817	0.14
Mof_C 	C 	0.0974	0.4534	0.7826	-0.189
Mof_C 	C 	0.1133	0.4733	0.7434	0.124
Mof_C 	C 	0.0586	0.4412	0.7026	-0.198
Mof_C 	C 	0.9877	0.3823	0.7011	0.096
Mof_C 	C 	0.9703	0.3627	0.7408	-0.181
Mof_C 	C 	0.0715	0.4685	0.6616	0.412
Mof_C 	C 	0.7728	0.5656	0.9242	0.111
Mof_C 	C 	0.6968	0.5512	0.938	-0.144
Mof_C 	C 	0.6393	0.6109	0.9358	0.047
Mof_C 	C 	0.6587	0.6831	0.9203	-0.111
Mof_C 	C 	0.7344	0.6986	0.9066	0.052
Mof_C 	C 	0.7907	0.6403	0.9092	-0.145
Mof_C 	C 	0.5974	0.747	0.9181	0.301
Mof_C 	C 	0.159	0.8378	0.2101	0.096
Mof_C 	C 	0.1334	0.8666	0.1688	-0.076
Mof_C 	C 	0.1819	0.8357	0.1409	-0.1
Mof_C 	C 	0.2356	0.784	0.1631	0.102
Mof_C 	C 	0.2978	0.745	0.1446	-0.164
Mof_C 	C 	0.3457	0.6915	0.1657	0.114
Mof_C 	C 	0.403	0.6434	0.145	-0.087
Mof_C 	C 	0.4353	0.5959	0.1737	-0.079
Mof_C 	C 	0.398	0.6144	0.2118	0.102
Mof_C 	C 	0.9865	0.9087	0.2249	-0.227
Mof_C 	C 	0.9299	0.9655	0.2245	0.165
Mof_C 	C 	0.3132	0.7592	0.1007	0.167
Mof_C 	C 	0.3778	0.8218	0.0984	-0.203
Mof_C 	C 	0.3937	0.8289	0.0554	0.14
Mof_C 	C 	0.3524	0.7758	0.0155	-0.248
Mof_C 	C 	0.2903	0.7169	0.0207	0.149
Mof_C 	C 	0.2712	0.7084	0.0614	-0.228
Mof_C 	C 	0.3715	0.7839	0.9738	0.465
Mof_C 	C 	0.4594	0.436	0.2251	-0.22
Mof_C 	C 	0.5162	0.3774	0.2247	0.143
Mof_C 	C 	0.5169	0.1307	0.5328	0.093
Mof_C 	C 	0.479	0.1498	0.4908	-0.096
Mof_C 	C 	0.5268	0.1206	0.4608	-0.107
Mof_C 	C 	0.5918	0.0808	0.4843	0.105
Mof_C 	C 	0.661	0.0538	0.467	-0.157
Mof_C 	C 	0.7204	0.0138	0.4914	0.109
Mof_C 	C 	0.7901	0.9813	0.4739	-0.086
Mof_C 	C 	0.8264	0.935	0.5023	-0.075
Mof_C 	C 	0.7773	0.9373	0.5371	0.098
Mof_C 	C 	0.7868	0.89	0.5705	-0.145
Mof_C 	C 	0.7388	0.8948	0.6034	0.106
Mof_C 	C 	0.7457	0.8423	0.6367	-0.08
Mof_C 	C 	0.6966	0.871	0.6645	-0.088
Mof_C 	C 	0.6604	0.9404	0.65	0.104
Mof_C 	C 	0.6175	0.9955	0.6749	-0.148
Mof_C 	C 	0.5886	0.0666	0.6598	0.105
Mof_C 	C 	0.5513	0.1293	0.6853	-0.109
Mof_C 	C 	0.5199	0.1795	0.6578	-0.079
Mof_C 	C 	0.5342	0.144	0.6142	0.09
Mof_C 	C 	0.4979	0.1641	0.574	-0.131
Mof_C 	C 	0.6732	0.073	0.4235	0.172
Mof_C 	C 	0.6232	0.0294	0.3838	-0.227
Mof_C 	C 	0.6338	0.0502	0.3436	0.142
Mof_C 	C 	0.6956	0.1174	0.3434	-0.239
Mof_C 	C 	0.7475	0.1603	0.3841	0.154
Mof_C 	C 	0.7375	0.1391	0.4238	-0.215
Mof_C 	C 	0.7048	0.142	0.3003	0.505
Mof_C 	C 	0.8515	0.8303	0.5713	0.142
Mof_C 	C 	0.9343	0.8599	0.5981	-0.185
Mof_C 	C 	0.991	0.7998	0.6047	0.106
Mof_C 	C 	0.9665	0.7129	0.5843	-0.218
Mof_C 	C 	0.8874	0.6888	0.5574	0.121
Mof_C 	C 	0.8292	0.745	0.5509	-0.201
Mof_C 	C 	0.0248	0.6504	0.5926	0.434
Mof_C 	C 	0.6016	0.976	0.7183	0.14
Mof_C 	C 	0.5466	0.9026	0.7174	-0.189
Mof_C 	C 	0.5267	0.8867	0.7566	0.124
Mof_C 	C 	0.5588	0.9414	0.7974	-0.198
Mof_C 	C 	0.6177	0.0123	0.7989	0.096
Mof_C 	C 	0.6373	0.0297	0.7592	-0.181
Mof_C 	C 	0.5315	0.9285	0.8384	0.412
Mof_C 	C 	0.4344	0.2272	0.5758	0.11
Mof_C 	C 	0.4488	0.3032	0.562	-0.144
Mof_C 	C 	0.3891	0.3607	0.5642	0.047
Mof_C 	C 	0.3169	0.3413	0.5797	-0.111
Mof_C 	C 	0.3014	0.2656	0.5934	0.051
Mof_C 	C 	0.3597	0.2093	0.5908	-0.145
Mof_C 	C 	0.253	0.4026	0.5819	0.301
Mof_C 	C 	0.1622	0.841	0.2899	0.096
Mof_C 	C 	0.1334	0.8666	0.3312	-0.075
Mof_C 	C 	0.1643	0.8181	0.3591	-0.1
Mof_C 	C 	0.216	0.7644	0.3369	0.103
Mof_C 	C 	0.255	0.7022	0.3554	-0.164
Mof_C 	C 	0.3085	0.6543	0.3343	0.114
Mof_C 	C 	0.3566	0.597	0.355	-0.087
Mof_C 	C 	0.4041	0.5647	0.3263	-0.079
Mof_C 	C 	0.3856	0.602	0.2882	0.102
Mof_C 	C 	0.0913	0.0135	0.2751	-0.227
Mof_C 	C 	0.0345	0.0701	0.2755	0.165
Mof_C 	C 	0.2408	0.6868	0.3993	0.168
Mof_C 	C 	0.1782	0.6222	0.4016	-0.203
Mof_C 	C 	0.1711	0.6063	0.4446	0.14
Mof_C 	C 	0.2242	0.6476	0.4845	-0.247
Mof_C 	C 	0.2831	0.7097	0.4793	0.152
Mof_C 	C 	0.2916	0.7288	0.4386	-0.23
Mof_C 	C 	0.2161	0.6285	0.5262	0.464
Mof_C 	C 	0.564	0.5406	0.2749	-0.22
Mof_C 	C 	0.6226	0.4838	0.2753	0.143
Mof_C 	C 	0.8673	0.1327	0.75	-0.145
Mof_C 	C 	0.5792	0.4208	0.75	-0.153
Mof_C 	C 	0.9303	0.0697	0.75	0.164
Mof_C 	C 	0.0501	0.9499	0.75	-0.277
Mof_C 	C 	0.1089	0.8911	0.75	0.524
Mof_C 	C 	0.5176	0.4824	0.75	0.172
Mof_C 	C 	0.4008	0.5992	0.75	-0.242
Mof_C 	C 	0.3383	0.6617	0.75	0.527
Mof_C 	C 	0.1327	0.8673	0.25	-0.145
Mof_C 	C 	0.4208	0.5792	0.25	-0.153
Mof_C 	C 	0.0697	0.9303	0.25	0.164
Mof_C 	C 	0.9499	0.0501	0.25	-0.277
Mof_C 	C 	0.8911	0.1089	0.25	0.524
Mof_C 	C 	0.4824	0.5176	0.25	0.172
Mof_C 	C 	0.5992	0.4008	0.25	-0.242
Mof_C 	C 	0.6617	0.3383	0.25	0.527
Mof_N 	N 	0.083	0.5826	0.02807	-0.254
Mof_N 	N 	0.9888	0.7134	0.0305	-0.25
Mof_N 	N 	0.9522	0.6844	0.11071	-0.251
Mof_N 	N 	0.0785	0.5835	0.11724	-0.251
Mof_N 	N 	0.7789	0.2151	0.79428	-0.249
Mof_N 	N 	0.6566	0.3252	0.79299	-0.25
Mof_N 	N 	0.4174	0.917	0.47193	-0.253
Mof_N 	N 	0.2866	0.0112	0.4695	-0.249
Mof_N 	N 	0.3156	0.0478	0.38929	-0.252
Mof_N 	N 	0.4165	0.9215	0.38276	-0.251
Mof_N 	N 	0.7849	0.2211	0.70572	-0.249
Mof_N 	N 	0.6748	0.3434	0.70701	-0.25
Mof_N 	N 	0.917	0.4174	0.97193	-0.253
Mof_N 	N 	0.0112	0.2866	0.9695	-0.248
Mof_N 	N 	0.0478	0.3156	0.88929	-0.251
Mof_N 	N 	0.9215	0.4165	0.88276	-0.251
Mof_N 	N 	0.2211	0.7849	0.20572	-0.249
Mof_N 	N 	0.3434	0.6748	0.20701	-0.25
Mof_N 	N 	0.5826	0.083	0.52807	-0.253
Mof_N 	N 	0.7134	0.9888	0.5305	-0.249
Mof_N 	N 	0.6844	0.9522	0.61071	-0.252
Mof_N 	N 	0.5835	0.0785	0.61724	-0.251
Mof_N 	N 	0.2151	0.7789	0.29428	-0.249
Mof_N 	N 	0.3252	0.6566	0.29299	-0.25
Mof_O 	O 	0.09912	0.65828	0.76423	-0.533
Mof_O 	O 	0.2055	0.7595	0.80117	-0.599
Mof_O 	O 	0.57481	0.00379	0.07239	-0.485
Mof_O 	O 	0.67537	0.09523	0.12082	-0.598
Mof_O 	O 	0.87708	0.46052	0.33337	-0.622
Mof_O 	O 	0.96366	0.57154	0.37664	-0.426
Mof_O 	O 	0.404	0.2066	0.1102	-0.425
Mof_O 	O 	0.4533	0.2471	0.0544	-0.401
Mof_O 	O 	0.08663	0.81537	0.72602	-0.533
Mof_O 	O 	0.6538	0.2792	0.0595	-0.323
Mof_O 	O 	0.5866	0.1524	0.0313	-0.515
Mof_O 	O 	0.36287	0.73553	0.77276	-0.542
Mof_O 	O 	0.34172	0.90088	0.73577	-0.534
Mof_O 	O 	0.2405	0.7945	0.69883	-0.599
Mof_O 	O 	0.99621	0.42519	0.42761	-0.485
Mof_O 	O 	0.90477	0.32463	0.37918	-0.598
Mof_O 	O 	0.53948	0.12292	0.16663	-0.621
Mof_O 	O 	0.42846	0.03634	0.12336	-0.427
Mof_O 	O 	0.7934	0.596	0.3898	-0.425
Mof_O 	O 	0.7529	0.5467	0.4456	-0.4
Mof_O 	O 	0.18463	0.91337	0.77398	-0.534
Mof_O 	O 	0.7208	0.3462	0.4405	-0.323
Mof_O 	O 	0.8476	0.4134	0.4687	-0.515
Mof_O 	O 	0.26447	0.63713	0.72724	-0.542
Mof_O 	O 	0.90088	0.34172	0.23577	-0.533
Mof_O 	O 	0.7945	0.2405	0.19883	-0.599
Mof_O 	O 	0.42519	0.99621	0.92761	-0.484
Mof_O 	O 	0.32463	0.90477	0.87918	-0.598
Mof_O 	O 	0.12292	0.53948	0.66663	-0.622
Mof_O 	O 	0.03634	0.42846	0.62336	-0.426
Mof_O 	O 	0.596	0.7934	0.8898	-0.425
Mof_O 	O 	0.5467	0.7529	0.9456	-0.4
Mof_O 	O 	0.91337	0.18463	0.27398	-0.533
Mof_O 	O 	0.3462	0.7208	0.9405	-0.323
Mof_O 	O 	0.4134	0.8476	0.9687	-0.515
Mof_O 	O 	0.63713	0.26447	0.22724	-0.542
Mof_O 	O 	0.65828	0.09912	0.26423	-0.534
Mof_O 	O 	0.7595	0.2055	0.30117	-0.599
Mof_O 	O 	0.00379	0.57481	0.57239	-0.485
Mof_O 	O 	0.09523	0.67537	0.62082	-0.598
Mof_O 	O 	0.46052	0.87708	0.83337	-0.622
Mof_O 	O 	0.57154	0.96366	0.87664	-0.426
Mof_O 	O 	0.2066	0.404	0.6102	-0.425
Mof_O 	O 	0.2471	0.4533	0.5544	-0.4
Mof_O 	O 	0.81537	0.08663	0.22602	-0.534
Mof_O 	O 	0.2792	0.6538	0.5595	-0.323
Mof_O 	O 	0.1524	0.5866	0.5313	-0.515
Mof_O 	O 	0.73553	0.36287	0.27276	-0.542
_end
