data_functionalizedCrystal
_audit_creation_method	'EQeq! by Chris Wilmer'
_symmetry_space_group_name_H-M	'P1'
_symmetry_Int_Tables_number	1
_symmetry_cell_setting	triclinic
loop_
_symmetry_equiv_pos_as_xyz
  x,y,z
_cell_length_a	11.355
_cell_length_b	11.355
_cell_length_c	8.0625
_cell_angle_alpha	90
_cell_angle_beta	90
_cell_angle_gamma	120
loop_
_atom_site_label
_atom_site_type_symbol
_atom_site_fract_x
_atom_site_fract_y
_atom_site_fract_z
_atom_site_charge
Mof_N 	N 	0.1258	0.1721	0.154	-0.158
Mof_N 	N 	0.306	0.357	0.244	-0.102
Mof_C 	C 	0.075	0.215	0.285	-0.069
Mof_C 	C 	0.196	0.34	0.333	0.049
Mof_N 	N 	0.8279	0.9537	0.154	-0.082
Mof_N 	N 	0.643	0.949	0.244	-0.028
Mof_C 	C 	0.785	0.86	0.285	0.017
Mof_C 	C 	0.66	0.856	0.333	0.048
Mof_N 	N 	0.0463	0.8742	0.154	-0.191
Mof_N 	N 	0.051	0.694	0.244	-0.118
Mof_C 	C 	0.14	0.925	0.285	0.084
Mof_C 	C 	0.144	0.804	0.333	0.03
Mof_N 	N 	0.8279	0.8742	0.846	-0.135
Mof_N 	N 	0.643	0.694	0.756	-0.107
Mof_C 	C 	0.785	0.925	0.715	0.094
Mof_C 	C 	0.66	0.804	0.667	0.046
Mof_N 	N 	0.0463	0.1721	0.846	-0.184
Mof_N 	N 	0.051	0.357	0.756	-0.126
Mof_C 	C 	0.14	0.215	0.715	0.011
Mof_C 	C 	0.144	0.34	0.667	0.046
Mof_N 	N 	0.1258	0.9537	0.846	-0.068
Mof_N 	N 	0.306	0.949	0.756	-0.037
Mof_C 	C 	0.075	0.86	0.715	-0.04
Mof_C 	C 	0.196	0.856	0.667	0.075
Mof_N 	N 	0.8742	0.8279	0.846	-0.135
Mof_N 	N 	0.694	0.643	0.756	-0.107
Mof_C 	C 	0.925	0.785	0.715	0.094
Mof_C 	C 	0.804	0.66	0.667	0.046
Mof_N 	N 	0.1721	0.0463	0.846	-0.184
Mof_N 	N 	0.357	0.051	0.756	-0.126
Mof_C 	C 	0.215	0.14	0.715	0.011
Mof_C 	C 	0.34	0.144	0.667	0.046
Mof_N 	N 	0.9537	0.1258	0.846	-0.068
Mof_N 	N 	0.949	0.306	0.756	-0.037
Mof_C 	C 	0.86	0.075	0.715	-0.04
Mof_C 	C 	0.856	0.196	0.667	0.075
Mof_N 	N 	0.1721	0.1258	0.154	-0.159
Mof_N 	N 	0.357	0.306	0.244	-0.103
Mof_C 	C 	0.215	0.075	0.285	-0.07
Mof_C 	C 	0.34	0.196	0.333	0.049
Mof_N 	N 	0.9537	0.8279	0.154	-0.082
Mof_N 	N 	0.949	0.643	0.244	-0.028
Mof_C 	C 	0.86	0.785	0.285	0.017
Mof_C 	C 	0.856	0.66	0.333	0.048
Mof_N 	N 	0.8742	0.0463	0.154	-0.191
Mof_N 	N 	0.694	0.051	0.244	-0.118
Mof_C 	C 	0.925	0.14	0.285	0.084
Mof_C 	C 	0.804	0.144	0.333	0.03
Mof_Co	Co	-0	0	-0	1.057
Mof_C 	C 	0.2587	0.2587	0.135	0.141
Mof_C 	C 	0.4587	0.4587	0.246	0.029
Mof_C 	C 	0.492	0.492	0.431	0.004
Mof_C 	C 	0.7413	-3.50498e-33	0.135	0.054
Mof_C 	C 	0.5413	0	0.246	-0.015
Mof_C 	C 	0.508	0	0.431	-0.011
Mof_C 	C 	-1.17389e-17	0.7413	0.135	0.054
Mof_C 	C 	1.01792e-17	0.5413	0.246	-0.015
Mof_C 	C 	-3.74775e-17	0.508	0.431	-0.011
Mof_C 	C 	0.7413	0.7413	0.865	0.216
Mof_C 	C 	0.5413	0.5413	0.754	0.091
Mof_C 	C 	0.508	0.508	0.569	-0.009
Mof_C 	C 	3.7093e-18	0.2587	0.865	0.134
Mof_C 	C 	-2.42376e-18	0.4587	0.754	0.047
Mof_C 	C 	7.6803e-17	0.492	0.569	-0.027
Mof_C 	C 	0.2587	0	0.865	0.134
Mof_C 	C 	0.4587	0	0.754	0.047
Mof_C 	C 	0.492	0	0.569	-0.027
_end
