data_functionalizedCrystal
_audit_creation_method	'EQeq! by Chris Wilmer'
_symmetry_space_group_name_H-M	'P1'
_symmetry_Int_Tables_number	1
_symmetry_cell_setting	triclinic
loop_
_symmetry_equiv_pos_as_xyz
  x,y,z
_cell_length_a	13.2235
_cell_length_b	13.2235
_cell_length_c	13.2235
_cell_angle_alpha	90
_cell_angle_beta	90
_cell_angle_gamma	90
loop_
_atom_site_label
_atom_site_type_symbol
_atom_site_fract_x
_atom_site_fract_y
_atom_site_fract_z
_atom_site_charge
Mof_N 	N 	0.63712	0.93657	0.95544	-0.008
Mof_N 	N 	0.71552	0.98061	0.96162	0.104
Mof_N 	N 	0.79247	0.0208	0.9657	-0.197
Mof_N 	N 	0.86288	0.06343	0.45544	-0.083
Mof_N 	N 	0.78448	0.01939	0.46162	-0.149
Mof_N 	N 	0.70753	0.9792	0.4657	-0.138
Mof_N 	N 	0.36288	0.43657	0.54456	-0.168
Mof_N 	N 	0.28448	0.48061	0.53838	-0.051
Mof_N 	N 	0.20753	0.5208	0.5343	-0.303
Mof_N 	N 	0.13712	0.56343	0.04456	-0.193
Mof_N 	N 	0.21552	0.51939	0.03838	-0.07
Mof_N 	N 	0.29247	0.4792	0.0343	-0.33
Mof_N 	N 	0.95544	0.63712	0.93657	-0.008
Mof_N 	N 	0.96162	0.71552	0.98061	0.104
Mof_N 	N 	0.9657	0.79247	0.0208	-0.197
Mof_N 	N 	0.45544	0.86288	0.06343	-0.083
Mof_N 	N 	0.46162	0.78448	0.01939	-0.149
Mof_N 	N 	0.4657	0.70753	0.9792	-0.138
Mof_N 	N 	0.54456	0.36288	0.43657	-0.168
Mof_N 	N 	0.53838	0.28448	0.48061	-0.051
Mof_N 	N 	0.5343	0.20753	0.5208	-0.303
Mof_N 	N 	0.04456	0.13712	0.56343	-0.193
Mof_N 	N 	0.03838	0.21552	0.51939	-0.07
Mof_N 	N 	0.0343	0.29247	0.4792	-0.33
Mof_N 	N 	0.93657	0.95544	0.63712	-0.008
Mof_N 	N 	0.98061	0.96162	0.71552	0.104
Mof_N 	N 	0.0208	0.9657	0.79247	-0.197
Mof_N 	N 	0.06343	0.45544	0.86288	-0.083
Mof_N 	N 	0.01939	0.46162	0.78448	-0.149
Mof_N 	N 	0.9792	0.4657	0.70753	-0.138
Mof_N 	N 	0.43657	0.54456	0.36288	-0.168
Mof_N 	N 	0.48061	0.53838	0.28448	-0.051
Mof_N 	N 	0.5208	0.5343	0.20753	-0.303
Mof_N 	N 	0.56343	0.04456	0.13712	-0.193
Mof_N 	N 	0.51939	0.03838	0.21552	-0.07
Mof_N 	N 	0.4792	0.0343	0.29247	-0.33
Mof_N 	N 	0.36288	0.06343	0.04456	-0.179
Mof_N 	N 	0.28448	0.01939	0.03838	-0.183
Mof_N 	N 	0.20753	0.9792	0.0343	-0.103
Mof_N 	N 	0.13712	0.93657	0.54456	-0.116
Mof_N 	N 	0.21552	0.98061	0.53838	0.073
Mof_N 	N 	0.29247	0.0208	0.5343	-0.403
Mof_N 	N 	0.63712	0.56343	0.45544	-0.154
Mof_N 	N 	0.71552	0.51939	0.46162	-0.042
Mof_N 	N 	0.79247	0.4792	0.4657	-0.25
Mof_N 	N 	0.86288	0.43657	0.95544	-0.003
Mof_N 	N 	0.78448	0.48061	0.96162	-0.009
Mof_N 	N 	0.70753	0.5208	0.9657	-0.211
Mof_N 	N 	0.04456	0.36288	0.06343	-0.179
Mof_N 	N 	0.03838	0.28448	0.01939	-0.183
Mof_N 	N 	0.0343	0.20753	0.9792	-0.103
Mof_N 	N 	0.54456	0.13712	0.93657	-0.116
Mof_N 	N 	0.53838	0.21552	0.98061	0.073
Mof_N 	N 	0.5343	0.29247	0.0208	-0.403
Mof_N 	N 	0.45544	0.63712	0.56343	-0.154
Mof_N 	N 	0.46162	0.71552	0.51939	-0.042
Mof_N 	N 	0.4657	0.79247	0.4792	-0.25
Mof_N 	N 	0.95544	0.86288	0.43657	-0.003
Mof_N 	N 	0.96162	0.78448	0.48061	-0.009
Mof_N 	N 	0.9657	0.70753	0.5208	-0.211
Mof_N 	N 	0.06343	0.04456	0.36288	-0.179
Mof_N 	N 	0.01939	0.03838	0.28448	-0.183
Mof_N 	N 	0.9792	0.0343	0.20753	-0.103
Mof_N 	N 	0.93657	0.54456	0.13712	-0.116
Mof_N 	N 	0.98061	0.53838	0.21552	0.073
Mof_N 	N 	0.0208	0.5343	0.29247	-0.403
Mof_N 	N 	0.56343	0.45544	0.63712	-0.154
Mof_N 	N 	0.51939	0.46162	0.71552	-0.042
Mof_N 	N 	0.4792	0.4657	0.79247	-0.25
Mof_N 	N 	0.43657	0.95544	0.86288	-0.003
Mof_N 	N 	0.48061	0.96162	0.78448	-0.009
Mof_N 	N 	0.5208	0.9657	0.70753	-0.211
Mof_Fe	Fe	0.5	0	-0	0.248
Mof_Fe	Fe	7.3333e-33	5.4586e-33	0.5	0.248
Mof_Fe	Fe	0.5	0.5	0.5	0.695
Mof_Fe	Fe	5.4586e-33	0.5	-0	0.248
Mof_K 	K 	-0	0	-0	1.063
Mof_K 	K 	0.5	5.4586e-33	0.5	2.332
Mof_K 	K 	1.27919e-32	0.5	0.5	2.332
Mof_K 	K 	0.5	0.5	-0	2.332
_end
