data_functionalizedCrystal
_audit_creation_method	'EQeq! by Chris Wilmer'
_symmetry_space_group_name_H-M	'P1'
_symmetry_Int_Tables_number	1
_symmetry_cell_setting	triclinic
loop_
_symmetry_equiv_pos_as_xyz
  x,y,z
_cell_length_a	6.7545
_cell_length_b	15.0511
_cell_length_c	15.0511
_cell_angle_alpha	62.1969
_cell_angle_beta	81.3969
_cell_angle_gamma	98.6031
loop_
_atom_site_label
_atom_site_type_symbol
_atom_site_fract_x
_atom_site_fract_y
_atom_site_fract_z
_atom_site_charge
Mof_Ni	Ni	0.8128	0.6951	0.586	1.112
Mof_Ni	Ni	0.3988	0.2811	0.414	1.106
Mof_Ni	Ni	0.1177	0.7189	0.6951	1.096
Mof_Ni	Ni	0.1177	0.3049	0.2811	1.097
Mof_Ni	Ni	0.8128	0.414	0.3049	1.113
Mof_Ni	Ni	0.3988	0.586	0.7189	1.106
Mof_H 	H 	0.117	0.5655	0.4345	-0.045
Mof_H 	H 	0.741	0.4905	0.5095	0.156
Mof_H 	H 	0.2505	0	0.4905	0.152
Mof_H 	H 	0.5515	0.4345	-0	-0.034
Mof_H 	H 	0.5515	0	0.5655	-0.039
Mof_H 	H 	0.2505	0.5095	-0	0.15
Mof_C 	C 	0.67545	-4.38781e-17	0.55965	0.232
Mof_C 	C 	0.8183	0.0907	0.4828	-0.273
Mof_C 	C 	0.67545	0.44035	-0	0.216
Mof_C 	C 	0.09585	0.50755	-0	-0.403
Mof_C 	C 	0.7474	0.5414	0.8132	0.386
Mof_C 	C 	0.0447	0.5363	0.9062	0.347
Mof_C 	C 	0.206	0.6454	0.5414	0.392
Mof_C 	C 	0.9509	0.4425	0.0938	0.404
Mof_C 	C 	0.5883	0.49245	0.50755	-0.384
Mof_C 	C 	0.5606	0.8132	0.6454	0.395
Mof_C 	C 	0.0447	0.0938	0.4637	0.354
Mof_C 	C 	0.7276	0.9093	0.5735	-0.311
Mof_C 	C 	0.7474	0.1868	0.4586	0.387
Mof_C 	C 	0.8183	0.5172	0.9093	-0.271
Mof_C 	C 	0.9509	0.9062	0.5575	0.399
Mof_C 	C 	0.09585	0	0.49245	-0.401
Mof_C 	C 	0.3011	0.5735	0.5172	-0.306
Mof_C 	C 	0.7276	0.4265	0.0907	-0.298
Mof_C 	C 	0.5606	0.3546	0.1868	0.393
Mof_C 	C 	0.2351	0.55965	0.44035	0.228
Mof_C 	C 	0.206	0.4586	0.3546	0.392
Mof_C 	C 	0.5084	0.4637	0.4425	0.38
Mof_C 	C 	0.5084	0.5575	0.5363	0.38
Mof_C 	C 	0.3011	0.4828	0.4265	-0.306
Mof_O 	O 	0.0342	0.6644	0.5088	-0.446
Mof_O 	O 	0.5946	0.3472	0.2724	-0.576
Mof_O 	O 	0.164	0.1819	0.3979	-0.544
Mof_O 	O 	0.543	0.1732	0.4912	-0.428
Mof_O 	O 	0.5946	0.7276	0.6528	-0.577
Mof_O 	O 	0.5619	0.3979	0.4202	-0.542
Mof_O 	O 	0.867	0.6196	0.7276	-0.561
Mof_O 	O 	0.3698	0.3356	0.1732	-0.433
Mof_O 	O 	0.2474	0.6528	0.6196	-0.583
Mof_O 	O 	0.543	0.5088	0.8268	-0.429
Mof_O 	O 	0.867	0.2724	0.3804	-0.561
Mof_O 	O 	0.9821	0.8181	0.5798	-0.535
Mof_O 	O 	0.3698	0.8268	0.6644	-0.438
Mof_O 	O 	0.2474	0.3804	0.3472	-0.582
Mof_O 	O 	0.5619	0.5798	0.6021	-0.542
Mof_O 	O 	0.9821	0.4202	0.1819	-0.535
Mof_O 	O 	0.0342	0.4912	0.3356	-0.446
Mof_O 	O 	0.164	0.6021	0.8181	-0.544
_end
