data_functionalizedCrystal
_audit_creation_method	'EQeq! by Chris Wilmer'
_symmetry_space_group_name_H-M	'P1'
_symmetry_Int_Tables_number	1
_symmetry_cell_setting	triclinic
loop_
_symmetry_equiv_pos_as_xyz
  x,y,z
_cell_length_a	14.5575
_cell_length_b	24.6744
_cell_length_c	22.4021
_cell_angle_alpha	90
_cell_angle_beta	90
_cell_angle_gamma	90
loop_
_atom_site_label
_atom_site_type_symbol
_atom_site_fract_x
_atom_site_fract_y
_atom_site_fract_z
_atom_site_charge
Mof_Zn	Zn	0.95917	0.34383	0.38678	1.236
Mof_Zn	Zn	0.99643	0.34402	0.22902	1.246
Mof_Zn	Zn	0.03922	0.33972	0.06482	1.23
Mof_Zn	Zn	0.54083	0.84383	0.38678	1.237
Mof_Zn	Zn	0.50357	0.84402	0.22902	1.246
Mof_Zn	Zn	0.46078	0.83972	0.06482	1.23
Mof_H 	H 	0.0371	0.3846	0.563	0.034
Mof_H 	H 	0.0733	0.394	0.663	0.063
Mof_H 	H 	0.9277	0.2588	0.7012	0.064
Mof_H 	H 	0.8898	0.2497	0.5999	0.038
Mof_H 	H 	0.0456	0.4165	0.7545	0.064
Mof_H 	H 	0.0748	0.429	0.8552	0.035
Mof_H 	H 	0.0377	0.2691	0.8836	0.042
Mof_H 	H 	0.0166	0.2559	0.7811	0.066
Mof_H 	H 	0.0965	0.4937	0.4102	0.028
Mof_H 	H 	0.1815	0.5732	0.4105	0.068
Mof_H 	H 	0.1999	0.5662	0.2299	0.063
Mof_H 	H 	0.1081	0.489	0.2304	0.025
Mof_H 	H 	0.3216	0.6118	0.4007	0.063
Mof_H 	H 	0.4131	0.689	0.4024	0.031
Mof_H 	H 	0.3035	0.7384	0.2457	0.031
Mof_H 	H 	0.2111	0.6606	0.2429	0.065
Mof_H 	H 	0.6671	0.3838	0.3593	0.033
Mof_H 	H 	0.5191	0.3917	0.3215	0.061
Mof_H 	H 	0.6024	0.3247	0.1651	0.061
Mof_H 	H 	0.7503	0.3169	0.2041	0.036
Mof_H 	H 	0.3846	0.3584	0.2944	0.067
Mof_H 	H 	0.2346	0.3604	0.258	0.034
Mof_H 	H 	0.336	0.3668	0.0899	0.009
Mof_H 	H 	0.4848	0.3705	0.1274	0.062
Mof_H 	H 	0.8559	0.2075	0.2225	0.027
Mof_H 	H 	0.7646	0.1295	0.2178	0.064
Mof_H 	H 	0.8598	0.0987	0.052	0.059
Mof_H 	H 	0.9455	0.1774	0.0542	0.019
Mof_H 	H 	0.756	0.0361	0.22	0.063
Mof_H 	H 	0.6735	0.9554	0.2149	0.032
Mof_H 	H 	0.6281	0.9818	0.0386	0.016
Mof_H 	H 	0.716	0.0601	0.0428	0.057
Mof_H 	H 	0.4629	0.8846	0.563	0.033
Mof_H 	H 	0.4267	0.894	0.663	0.064
Mof_H 	H 	0.5723	0.7588	0.7012	0.065
Mof_H 	H 	0.6102	0.7497	0.5999	0.037
Mof_H 	H 	0.4544	0.9165	0.7545	0.064
Mof_H 	H 	0.4252	0.929	0.8552	0.036
Mof_H 	H 	0.4623	0.7691	0.8836	0.042
Mof_H 	H 	0.4834	0.7559	0.7811	0.066
Mof_H 	H 	0.4035	0.9937	0.4102	0.029
Mof_H 	H 	0.3185	0.0732	0.4105	0.067
Mof_H 	H 	0.3001	0.0662	0.2299	0.062
Mof_H 	H 	0.3919	0.989	0.2304	0.027
Mof_H 	H 	0.1784	0.1118	0.4007	0.063
Mof_H 	H 	0.0869	0.189	0.4024	0.03
Mof_H 	H 	0.1965	0.2384	0.2457	0.031
Mof_H 	H 	0.2889	0.1606	0.2429	0.065
Mof_H 	H 	0.8329	0.8838	0.3593	0.032
Mof_H 	H 	0.9809	0.8917	0.3215	0.062
Mof_H 	H 	0.8976	0.8247	0.1651	0.062
Mof_H 	H 	0.7497	0.8169	0.2041	0.036
Mof_H 	H 	0.1154	0.8584	0.2944	0.066
Mof_H 	H 	0.2654	0.8604	0.258	0.034
Mof_H 	H 	0.164	0.8668	0.0899	0.01
Mof_H 	H 	0.0152	0.8705	0.1274	0.061
Mof_H 	H 	0.6441	0.7075	0.2225	0.027
Mof_H 	H 	0.7354	0.6295	0.2178	0.064
Mof_H 	H 	0.6402	0.5987	0.052	0.059
Mof_H 	H 	0.5545	0.6774	0.0542	0.018
Mof_H 	H 	0.744	0.5361	0.22	0.063
Mof_H 	H 	0.8265	0.4554	0.2149	0.032
Mof_H 	H 	0.8719	0.4818	0.0386	0.016
Mof_H 	H 	0.784	0.5601	0.0428	0.056
Mof_C 	C 	0.9383	0.30991	0.50601	0.343
Mof_C 	C 	0.9593	0.31715	0.5719	-0.095
Mof_C 	C 	0.014	0.35918	0.59108	0.023
Mof_C 	C 	0.0356	0.36466	0.65058	-0.095
Mof_C 	C 	0.0033	0.32808	0.69306	0.031
Mof_C 	C 	0.9494	0.28476	0.67326	-0.091
Mof_C 	C 	0.9268	0.27912	0.61291	0.019
Mof_C 	C 	0.0247	0.33477	0.75762	0.037
Mof_C 	C 	0.0437	0.38629	0.78072	-0.096
Mof_C 	C 	0.0598	0.39393	0.84067	0.025
Mof_C 	C 	0.0543	0.35082	0.87989	-0.096
Mof_C 	C 	0.039	0.29933	0.85728	0.023
Mof_C 	C 	0.0254	0.2915	0.79617	-0.096
Mof_C 	C 	0.0633	0.36093	0.94589	0.332
Mof_C 	C 	0.0374	0.43235	0.32007	0.392
Mof_C 	C 	0.094	0.48381	0.32001	-0.123
Mof_C 	C 	0.1165	0.50895	0.37349	0.045
Mof_C 	C 	0.1677	0.55584	0.3737	-0.105
Mof_C 	C 	0.1997	0.57819	0.32001	0.044
Mof_C 	C 	0.1779	0.55213	0.26669	-0.106
Mof_C 	C 	0.1242	0.50581	0.26712	0.043
Mof_C 	C 	0.2575	0.62802	0.32095	0.038
Mof_C 	C 	0.3179	0.63725	0.36898	-0.099
Mof_C 	C 	0.3721	0.68333	0.37004	0.036
Mof_C 	C 	0.3672	0.7213	0.32462	-0.114
Mof_C 	C 	0.3071	0.71263	0.27703	0.037
Mof_C 	C 	0.2521	0.66616	0.27527	-0.099
Mof_C 	C 	0.4247	0.77161	0.32733	0.376
Mof_C 	C 	0.8182	0.34144	0.3093	0.358
Mof_C 	C 	0.7228	0.34848	0.28512	-0.112
Mof_C 	C 	0.6538	0.37154	0.32007	0.031
Mof_C 	C 	0.5661	0.3765	0.29734	-0.097
Mof_C 	C 	0.54524	0.35957	0.23958	0.03
Mof_C 	C 	0.6151	0.33676	0.20457	-0.096
Mof_C 	C 	0.7029	0.33194	0.22803	0.032
Mof_C 	C 	0.4498	0.36356	0.21546	0.046
Mof_C 	C 	0.3748	0.36072	0.25259	-0.11
Mof_C 	C 	0.2852	0.36117	0.23128	0.044
Mof_C 	C 	0.2712	0.36278	0.16962	-0.137
Mof_C 	C 	0.3456	0.36572	0.13179	0.053
Mof_C 	C 	0.4343	0.3671	0.15402	-0.117
Mof_C 	C 	0.1758	0.36036	0.14545	0.392
Mof_C 	C 	0.9651	0.25135	0.14053	0.411
Mof_C 	C 	0.9098	0.20022	0.13865	-0.131
Mof_C 	C 	0.8559	0.18573	0.18756	0.045
Mof_C 	C 	0.8022	0.13912	0.18476	-0.107
Mof_C 	C 	0.8028	0.10639	0.13415	0.044
Mof_C 	C 	0.8579	0.12113	0.08639	-0.112
Mof_C 	C 	0.9096	0.16751	0.08787	0.049
Mof_C 	C 	0.7475	0.05621	0.13187	0.033
Mof_C 	C 	0.7316	0.02461	0.18279	-0.103
Mof_C 	C 	0.6811	0.97701	0.18023	0.038
Mof_C 	C 	0.6411	0.961	0.12561	-0.129
Mof_C 	C 	0.6549	0.99241	0.07547	0.041
Mof_C 	C 	0.7072	0.03917	0.07792	-0.11
Mof_C 	C 	0.58512	0.90993	0.12347	0.393
Mof_C 	C 	0.5617	0.80991	0.50601	0.345
Mof_C 	C 	0.5407	0.81715	0.5719	-0.099
Mof_C 	C 	0.486	0.85918	0.59108	0.028
Mof_C 	C 	0.4644	0.86466	0.65058	-0.099
Mof_C 	C 	0.4967	0.82808	0.69306	0.035
Mof_C 	C 	0.5506	0.78476	0.67326	-0.095
Mof_C 	C 	0.5732	0.77912	0.61291	0.022
Mof_C 	C 	0.4753	0.83477	0.75762	0.035
Mof_C 	C 	0.4563	0.88629	0.78072	-0.095
Mof_C 	C 	0.4402	0.89393	0.84067	0.024
Mof_C 	C 	0.4457	0.85082	0.87989	-0.095
Mof_C 	C 	0.461	0.79933	0.85728	0.023
Mof_C 	C 	0.4746	0.7915	0.79617	-0.095
Mof_C 	C 	0.4367	0.86093	0.94589	0.332
Mof_C 	C 	0.4626	0.93235	0.32007	0.391
Mof_C 	C 	0.406	0.98381	0.32001	-0.12
Mof_C 	C 	0.3835	0.00895	0.37349	0.042
Mof_C 	C 	0.3323	0.05584	0.3737	-0.103
Mof_C 	C 	0.3003	0.07819	0.32001	0.043
Mof_C 	C 	0.3221	0.05213	0.26669	-0.104
Mof_C 	C 	0.3758	0.00581	0.26712	0.04
Mof_C 	C 	0.2425	0.12802	0.32095	0.039
Mof_C 	C 	0.1821	0.13725	0.36898	-0.1
Mof_C 	C 	0.1279	0.18333	0.37004	0.037
Mof_C 	C 	0.1328	0.2213	0.32462	-0.114
Mof_C 	C 	0.1929	0.21263	0.27703	0.037
Mof_C 	C 	0.2479	0.16616	0.27527	-0.1
Mof_C 	C 	0.0753	0.27161	0.32733	0.376
Mof_C 	C 	0.6818	0.84144	0.3093	0.359
Mof_C 	C 	0.7772	0.84848	0.28512	-0.113
Mof_C 	C 	0.8462	0.87154	0.32007	0.032
Mof_C 	C 	0.9339	0.8765	0.29734	-0.099
Mof_C 	C 	0.95476	0.85957	0.23958	0.033
Mof_C 	C 	0.8849	0.83676	0.20457	-0.097
Mof_C 	C 	0.7971	0.83194	0.22803	0.033
Mof_C 	C 	0.0502	0.86356	0.21546	0.043
Mof_C 	C 	0.1252	0.86072	0.25259	-0.108
Mof_C 	C 	0.2148	0.86117	0.23128	0.043
Mof_C 	C 	0.2288	0.86278	0.16962	-0.136
Mof_C 	C 	0.1544	0.86572	0.13179	0.051
Mof_C 	C 	0.0657	0.8671	0.15402	-0.115
Mof_C 	C 	0.3242	0.86036	0.14545	0.392
Mof_C 	C 	0.5349	0.75135	0.14053	0.412
Mof_C 	C 	0.5902	0.70022	0.13865	-0.132
Mof_C 	C 	0.6441	0.68573	0.18756	0.045
Mof_C 	C 	0.6978	0.63912	0.18476	-0.108
Mof_C 	C 	0.6972	0.60639	0.13415	0.044
Mof_C 	C 	0.6421	0.62113	0.08639	-0.113
Mof_C 	C 	0.5904	0.66751	0.08787	0.05
Mof_C 	C 	0.7525	0.55621	0.13187	0.032
Mof_C 	C 	0.7684	0.52461	0.18279	-0.101
Mof_C 	C 	0.8189	0.47701	0.18023	0.035
Mof_C 	C 	0.8589	0.461	0.12561	-0.127
Mof_C 	C 	0.8451	0.49241	0.07547	0.038
Mof_C 	C 	0.7928	0.53917	0.07792	-0.107
Mof_C 	C 	0.91488	0.40993	0.12347	0.393
Mof_O 	O 	0.96585	0.34868	0.47327	-0.446
Mof_O 	O 	0.89868	0.26853	0.4889	-0.304
Mof_O 	O 	0.0911	0.40511	0.96399	-0.298
Mof_O 	O 	0.04154	0.32165	0.9797	-0.409
Mof_O 	O 	0.03112	0.4085	0.37015	-0.473
Mof_O 	O 	0.0019	0.41798	0.27216	-0.451
Mof_O 	O 	0.48304	0.77405	0.36975	-0.464
Mof_O 	O 	0.41125	0.80779	0.28961	-0.443
Mof_O 	O 	0.8318	0.3562	0.36341	-0.458
Mof_O 	O 	0.87748	0.31941	0.27743	-0.454
Mof_O 	O 	0.1105	0.37083	0.17997	-0.463
Mof_O 	O 	0.16651	0.34851	0.09107	-0.484
Mof_O 	O 	0.99007	0.26881	0.19009	-0.448
Mof_O 	O 	0.98094	0.2723	0.0901	-0.485
Mof_O 	O 	0.59235	0.87745	0.16575	-0.45
Mof_O 	O 	0.53688	0.90372	0.07702	-0.483
Mof_O 	O 	0.53415	0.84868	0.47327	-0.447
Mof_O 	O 	0.60132	0.76853	0.4889	-0.305
Mof_O 	O 	0.4089	0.90511	0.96399	-0.298
Mof_O 	O 	0.45846	0.82165	0.9797	-0.408
Mof_O 	O 	0.46888	0.9085	0.37015	-0.472
Mof_O 	O 	0.4981	0.91798	0.27216	-0.451
Mof_O 	O 	0.01696	0.27405	0.36975	-0.465
Mof_O 	O 	0.08875	0.30779	0.28961	-0.444
Mof_O 	O 	0.6682	0.8562	0.36341	-0.458
Mof_O 	O 	0.62252	0.81941	0.27743	-0.454
Mof_O 	O 	0.3895	0.87083	0.17997	-0.463
Mof_O 	O 	0.33349	0.84851	0.09107	-0.484
Mof_O 	O 	0.50993	0.76881	0.19009	-0.448
Mof_O 	O 	0.51906	0.7723	0.0901	-0.485
Mof_O 	O 	0.90765	0.37745	0.16575	-0.449
Mof_O 	O 	0.96312	0.40372	0.07702	-0.483
Mof_Zn	Zn	0.04083	0.65617	0.88678	1.236
Mof_Zn	Zn	0.00357	0.65598	0.72902	1.245
Mof_Zn	Zn	0.96078	0.66028	0.56482	1.239
Mof_Zn	Zn	0.45917	0.15617	0.88678	1.237
Mof_Zn	Zn	0.49643	0.15598	0.72902	1.245
Mof_Zn	Zn	0.53922	0.16028	0.56482	1.238
Mof_H 	H 	0.9629	0.6154	0.063	0.033
Mof_H 	H 	0.9267	0.606	0.163	0.059
Mof_H 	H 	0.0723	0.7412	0.2012	0.06
Mof_H 	H 	0.1102	0.7503	0.0999	0.037
Mof_H 	H 	0.9544	0.5835	0.2545	0.067
Mof_H 	H 	0.9252	0.571	0.3552	0.031
Mof_H 	H 	0.9623	0.7309	0.3836	0.035
Mof_H 	H 	0.9834	0.7441	0.2811	0.068
Mof_H 	H 	0.9035	0.5063	0.9102	0.037
Mof_H 	H 	0.8185	0.4268	0.9105	0.076
Mof_H 	H 	0.8001	0.4338	0.7299	0.064
Mof_H 	H 	0.8919	0.511	0.7304	0.026
Mof_H 	H 	0.6784	0.3882	0.9007	0.069
Mof_H 	H 	0.5869	0.311	0.9024	0.036
Mof_H 	H 	0.6965	0.2616	0.7457	0.032
Mof_H 	H 	0.7889	0.3394	0.7429	0.066
Mof_H 	H 	0.3329	0.6162	0.8593	0.039
Mof_H 	H 	0.4809	0.6083	0.8215	0.065
Mof_H 	H 	0.3976	0.6753	0.6651	0.064
Mof_H 	H 	0.2497	0.6831	0.7041	0.037
Mof_H 	H 	0.6154	0.6416	0.7944	0.07
Mof_H 	H 	0.7654	0.6396	0.758	0.036
Mof_H 	H 	0.664	0.6332	0.5899	0.022
Mof_H 	H 	0.5152	0.6295	0.6274	0.067
Mof_H 	H 	0.1441	0.7925	0.7225	0.028
Mof_H 	H 	0.2354	0.8705	0.7178	0.064
Mof_H 	H 	0.1402	0.9013	0.552	0.067
Mof_H 	H 	0.0545	0.8226	0.5542	0.027
Mof_H 	H 	0.244	0.9639	0.72	0.063
Mof_H 	H 	0.3265	0.0446	0.7149	0.034
Mof_H 	H 	0.3719	0.0182	0.5386	0.029
Mof_H 	H 	0.284	0.9399	0.5428	0.064
Mof_H 	H 	0.5371	0.1154	0.063	0.034
Mof_H 	H 	0.5733	0.106	0.163	0.057
Mof_H 	H 	0.4277	0.2412	0.2012	0.058
Mof_H 	H 	0.3898	0.2503	0.0999	0.038
Mof_H 	H 	0.5456	0.0835	0.2545	0.067
Mof_H 	H 	0.5748	0.071	0.3552	0.03
Mof_H 	H 	0.5377	0.2309	0.3836	0.035
Mof_H 	H 	0.5166	0.2441	0.2811	0.068
Mof_H 	H 	0.5965	0.0063	0.9102	0.036
Mof_H 	H 	0.6815	0.9268	0.9105	0.076
Mof_H 	H 	0.6999	0.9338	0.7299	0.064
Mof_H 	H 	0.6081	0.011	0.7304	0.025
Mof_H 	H 	0.8216	0.8882	0.9007	0.069
Mof_H 	H 	0.9131	0.811	0.9024	0.036
Mof_H 	H 	0.8035	0.7616	0.7457	0.033
Mof_H 	H 	0.7111	0.8394	0.7429	0.066
Mof_H 	H 	0.1671	0.1162	0.8593	0.039
Mof_H 	H 	0.0191	0.1083	0.8215	0.064
Mof_H 	H 	0.1024	0.1753	0.6651	0.064
Mof_H 	H 	0.2503	0.1831	0.7041	0.038
Mof_H 	H 	0.8846	0.1416	0.7944	0.07
Mof_H 	H 	0.7346	0.1396	0.758	0.035
Mof_H 	H 	0.836	0.1332	0.5899	0.022
Mof_H 	H 	0.9848	0.1295	0.6274	0.068
Mof_H 	H 	0.3559	0.2925	0.7225	0.028
Mof_H 	H 	0.2646	0.3705	0.7178	0.064
Mof_H 	H 	0.3598	0.4013	0.552	0.067
Mof_H 	H 	0.4455	0.3226	0.5542	0.028
Mof_H 	H 	0.256	0.4639	0.72	0.063
Mof_H 	H 	0.1735	0.5446	0.7149	0.033
Mof_H 	H 	0.1281	0.5182	0.5386	0.028
Mof_H 	H 	0.216	0.4399	0.5428	0.065
Mof_C 	C 	0.0617	0.69009	0.00601	0.225
Mof_C 	C 	0.0407	0.68285	0.0719	-0.066
Mof_C 	C 	0.986	0.64082	0.09108	0.003
Mof_C 	C 	0.9644	0.63534	0.15058	-0.084
Mof_C 	C 	0.9967	0.67192	0.19306	0.024
Mof_C 	C 	0.0506	0.71524	0.17326	-0.083
Mof_C 	C 	0.0732	0.72088	0.11291	-0.004
Mof_C 	C 	0.9753	0.66523	0.25762	0.044
Mof_C 	C 	0.9563	0.61371	0.28072	-0.103
Mof_C 	C 	0.9402	0.60607	0.34067	0.032
Mof_C 	C 	0.9457	0.64918	0.37989	-0.106
Mof_C 	C 	0.961	0.70067	0.35728	0.031
Mof_C 	C 	0.9746	0.7085	0.29617	-0.103
Mof_C 	C 	0.9367	0.63907	0.44589	0.339
Mof_C 	C 	0.9626	0.56765	0.82007	0.392
Mof_C 	C 	0.906	0.51619	0.82001	-0.12
Mof_C 	C 	0.8835	0.49105	0.87349	0.046
Mof_C 	C 	0.8323	0.44416	0.8737	-0.103
Mof_C 	C 	0.8003	0.42181	0.82001	0.046
Mof_C 	C 	0.8221	0.44787	0.76669	-0.105
Mof_C 	C 	0.8758	0.49419	0.76712	0.043
Mof_C 	C 	0.7425	0.37198	0.82095	0.04
Mof_C 	C 	0.6821	0.36275	0.86898	-0.098
Mof_C 	C 	0.6279	0.31667	0.87004	0.039
Mof_C 	C 	0.6328	0.2787	0.82462	-0.112
Mof_C 	C 	0.6929	0.28737	0.77703	0.038
Mof_C 	C 	0.7479	0.33384	0.77527	-0.098
Mof_C 	C 	0.5753	0.22839	0.82733	0.377
Mof_C 	C 	0.1818	0.65856	0.8093	0.357
Mof_C 	C 	0.2772	0.65152	0.78512	-0.111
Mof_C 	C 	0.3462	0.62846	0.82007	0.031
Mof_C 	C 	0.4339	0.6235	0.79734	-0.096
Mof_C 	C 	0.45476	0.64043	0.73958	0.032
Mof_C 	C 	0.3849	0.66324	0.70457	-0.096
Mof_C 	C 	0.2971	0.66806	0.72803	0.032
Mof_C 	C 	0.5502	0.63644	0.71546	0.045
Mof_C 	C 	0.6252	0.63928	0.75259	-0.107
Mof_C 	C 	0.7148	0.63883	0.73128	0.042
Mof_C 	C 	0.7288	0.63722	0.66962	-0.131
Mof_C 	C 	0.6544	0.63428	0.63179	0.049
Mof_C 	C 	0.5657	0.6329	0.65402	-0.112
Mof_C 	C 	0.8242	0.63964	0.64545	0.388
Mof_C 	C 	0.0349	0.74865	0.64053	0.41
Mof_C 	C 	0.0902	0.79978	0.63865	-0.127
Mof_C 	C 	0.1441	0.81427	0.68756	0.045
Mof_C 	C 	0.1978	0.86088	0.68476	-0.106
Mof_C 	C 	0.1972	0.89361	0.63415	0.046
Mof_C 	C 	0.1421	0.87887	0.58639	-0.11
Mof_C 	C 	0.0904	0.83249	0.58787	0.051
Mof_C 	C 	0.2525	0.94379	0.63187	0.032
Mof_C 	C 	0.2684	0.97539	0.68279	-0.099
Mof_C 	C 	0.3189	0.02299	0.68023	0.033
Mof_C 	C 	0.3589	0.039	0.62561	-0.122
Mof_C 	C 	0.3451	0.00759	0.57547	0.037
Mof_C 	C 	0.2928	0.96083	0.57792	-0.103
Mof_C 	C 	0.41488	0.09007	0.62347	0.39
Mof_C 	C 	0.4383	0.19009	0.00601	0.222
Mof_C 	C 	0.4593	0.18285	0.0719	-0.062
Mof_C 	C 	0.514	0.14082	0.09108	-0.003
Mof_C 	C 	0.5356	0.13534	0.15058	-0.08
Mof_C 	C 	0.5033	0.17192	0.19306	0.019
Mof_C 	C 	0.4494	0.21524	0.17326	-0.078
Mof_C 	C 	0.4268	0.22088	0.11291	-0.008
Mof_C 	C 	0.5247	0.16523	0.25762	0.045
Mof_C 	C 	0.5437	0.11371	0.28072	-0.104
Mof_C 	C 	0.5598	0.10607	0.34067	0.033
Mof_C 	C 	0.5543	0.14918	0.37989	-0.107
Mof_C 	C 	0.539	0.20067	0.35728	0.031
Mof_C 	C 	0.5254	0.2085	0.29617	-0.105
Mof_C 	C 	0.5633	0.13907	0.44589	0.339
Mof_C 	C 	0.5374	0.06765	0.82007	0.393
Mof_C 	C 	0.594	0.01619	0.82001	-0.122
Mof_C 	C 	0.6165	0.99105	0.87349	0.048
Mof_C 	C 	0.6677	0.94416	0.8737	-0.104
Mof_C 	C 	0.6997	0.92181	0.82001	0.047
Mof_C 	C 	0.6779	0.94787	0.76669	-0.107
Mof_C 	C 	0.6242	0.99419	0.76712	0.045
Mof_C 	C 	0.7575	0.87198	0.82095	0.04
Mof_C 	C 	0.8179	0.86275	0.86898	-0.097
Mof_C 	C 	0.8721	0.81667	0.87004	0.038
Mof_C 	C 	0.8672	0.7787	0.82462	-0.111
Mof_C 	C 	0.8071	0.78737	0.77703	0.038
Mof_C 	C 	0.7521	0.83384	0.77527	-0.098
Mof_C 	C 	0.9247	0.72839	0.82733	0.377
Mof_C 	C 	0.3182	0.15856	0.8093	0.357
Mof_C 	C 	0.2228	0.15152	0.78512	-0.11
Mof_C 	C 	0.1538	0.12846	0.82007	0.03
Mof_C 	C 	0.0661	0.1235	0.79734	-0.095
Mof_C 	C 	0.04524	0.14043	0.73958	0.029
Mof_C 	C 	0.1151	0.16324	0.70457	-0.094
Mof_C 	C 	0.2029	0.16806	0.72803	0.031
Mof_C 	C 	0.9498	0.13644	0.71546	0.048
Mof_C 	C 	0.8748	0.13928	0.75259	-0.109
Mof_C 	C 	0.7852	0.13883	0.73128	0.043
Mof_C 	C 	0.7712	0.13722	0.66962	-0.132
Mof_C 	C 	0.8456	0.13428	0.63179	0.05
Mof_C 	C 	0.9343	0.1329	0.65402	-0.114
Mof_C 	C 	0.6758	0.13964	0.64545	0.388
Mof_C 	C 	0.4651	0.24865	0.64053	0.41
Mof_C 	C 	0.4098	0.29978	0.63865	-0.127
Mof_C 	C 	0.3559	0.31427	0.68756	0.045
Mof_C 	C 	0.3022	0.36088	0.68476	-0.106
Mof_C 	C 	0.3028	0.39361	0.63415	0.046
Mof_C 	C 	0.3579	0.37887	0.58639	-0.11
Mof_C 	C 	0.4096	0.33249	0.58787	0.05
Mof_C 	C 	0.2475	0.44379	0.63187	0.033
Mof_C 	C 	0.2316	0.47539	0.68279	-0.099
Mof_C 	C 	0.1811	0.52299	0.68023	0.034
Mof_C 	C 	0.1411	0.539	0.62561	-0.122
Mof_C 	C 	0.1549	0.50759	0.57547	0.038
Mof_C 	C 	0.2072	0.46083	0.57792	-0.104
Mof_C 	C 	0.08512	0.59007	0.62347	0.39
Mof_O 	O 	0.03415	0.65132	0.97327	-0.381
Mof_O 	O 	0.10132	0.73147	0.9889	-0.238
Mof_O 	O 	0.9089	0.59489	0.46399	-0.32
Mof_O 	O 	0.95846	0.67835	0.4797	-0.433
Mof_O 	O 	0.96888	0.5915	0.87015	-0.466
Mof_O 	O 	0.9981	0.58202	0.77216	-0.449
Mof_O 	O 	0.51696	0.22595	0.86975	-0.461
Mof_O 	O 	0.58875	0.19221	0.78961	-0.442
Mof_O 	O 	0.1682	0.6438	0.86341	-0.452
Mof_O 	O 	0.12252	0.68059	0.77743	-0.454
Mof_O 	O 	0.8895	0.62917	0.67997	-0.461
Mof_O 	O 	0.83349	0.65149	0.59107	-0.469
Mof_O 	O 	0.00993	0.73119	0.69009	-0.448
Mof_O 	O 	0.01906	0.7277	0.5901	-0.474
Mof_O 	O 	0.40765	0.12255	0.66575	-0.447
Mof_O 	O 	0.46312	0.09628	0.57702	-0.471
Mof_O 	O 	0.46585	0.15132	0.97327	-0.378
Mof_O 	O 	0.39868	0.23147	0.9889	-0.236
Mof_O 	O 	0.5911	0.09489	0.46399	-0.32
Mof_O 	O 	0.54154	0.17835	0.4797	-0.433
Mof_O 	O 	0.53112	0.0915	0.87015	-0.467
Mof_O 	O 	0.5019	0.08202	0.77216	-0.451
Mof_O 	O 	0.98304	0.72595	0.86975	-0.46
Mof_O 	O 	0.91125	0.69221	0.78961	-0.442
Mof_O 	O 	0.3318	0.1438	0.86341	-0.452
Mof_O 	O 	0.37748	0.18059	0.77743	-0.453
Mof_O 	O 	0.6105	0.12917	0.67997	-0.461
Mof_O 	O 	0.66651	0.15149	0.59107	-0.47
Mof_O 	O 	0.49007	0.23119	0.69009	-0.447
Mof_O 	O 	0.48094	0.2277	0.5901	-0.474
Mof_O 	O 	0.09235	0.62255	0.66575	-0.448
Mof_O 	O 	0.03688	0.59628	0.57702	-0.472
Mof_H 	H 	0.8946	0.2154	0.4264	0.127
Mof_H 	H 	0.9073	0.1684	0.3858	0.1
Mof_H 	H 	0.8253	0.2324	0.3386	0.114
Mof_H 	H 	0.751	0.2302	0.3912	0.119
Mof_H 	H 	0.7639	0.1793	0.3477	0.112
Mof_H 	H 	0.8816	0.1378	0.479	0.108
Mof_H 	H 	0.7995	0.1196	0.4359	0.111
Mof_H 	H 	0.7863	0.1702	0.4798	0.124
Mof_C 	C 	0.7956	0.20903	0.3682	-0.272
Mof_C 	C 	0.8302	0.15066	0.4545	-0.266
Mof_N 	N 	0.8647	0.18696	0.4082	-0.157
Mof_H 	H 	0.1158	0.4549	0.0242	0.111
Mof_H 	H 	0.2041	0.4846	0.0309	0.092
Mof_H 	H 	0.1442	0.4693	0.1231	0.107
Mof_H 	H 	0.0528	0.5005	0.1032	0.11
Mof_H 	H 	0.1473	0.533	0.1102	0.102
Mof_H 	H 	0.1246	0.5211	0.9533	0.067
Mof_H 	H 	0.1351	0.565	0.0055	0.027
Mof_H 	H 	0.0406	0.5327	0.9976	0.082
Mof_C 	C 	0.1196	0.49849	0.0982	-0.262
Mof_C 	C 	0.1076	0.5302	0.9945	-0.073
Mof_N 	N 	0.1414	0.48757	0.03507	-0.193
Mof_H 	H 	0.1054	0.7846	0.9264	0.126
Mof_H 	H 	0.0927	0.8316	0.8858	0.101
Mof_H 	H 	0.1747	0.7676	0.8386	0.116
Mof_H 	H 	0.249	0.7698	0.8912	0.123
Mof_H 	H 	0.2361	0.8207	0.8477	0.114
Mof_H 	H 	0.1184	0.8622	0.979	0.126
Mof_H 	H 	0.2005	0.8804	0.9359	0.124
Mof_H 	H 	0.2137	0.8298	0.9798	0.142
Mof_C 	C 	0.2044	0.79097	0.8682	-0.278
Mof_C 	C 	0.1698	0.84934	0.9545	-0.289
Mof_N 	N 	0.1353	0.81304	0.9082	-0.152
Mof_H 	H 	0.8842	0.5451	0.5242	0.123
Mof_H 	H 	0.7959	0.5154	0.5309	0.098
Mof_H 	H 	0.8558	0.5307	0.6231	0.113
Mof_H 	H 	0.9472	0.4995	0.6032	0.12
Mof_H 	H 	0.8527	0.467	0.6102	0.11
Mof_H 	H 	0.8754	0.4789	0.4533	0.117
Mof_H 	H 	0.8649	0.435	0.5055	0.118
Mof_H 	H 	0.9594	0.4673	0.4976	0.124
Mof_C 	C 	0.8804	0.50151	0.5982	-0.277
Mof_C 	C 	0.8924	0.4698	0.4945	-0.277
Mof_N 	N 	0.8586	0.51243	0.53507	-0.155
Mof_H 	H 	0.6054	0.7154	0.4264	0.127
Mof_H 	H 	0.5927	0.6684	0.3858	0.1
Mof_H 	H 	0.6747	0.7324	0.3386	0.114
Mof_H 	H 	0.749	0.7302	0.3912	0.119
Mof_H 	H 	0.7361	0.6793	0.3477	0.112
Mof_H 	H 	0.6184	0.6378	0.479	0.107
Mof_H 	H 	0.7005	0.6196	0.4359	0.111
Mof_H 	H 	0.7137	0.6702	0.4798	0.124
Mof_C 	C 	0.7044	0.70903	0.3682	-0.273
Mof_C 	C 	0.6698	0.65066	0.4545	-0.266
Mof_N 	N 	0.6353	0.68696	0.4082	-0.156
Mof_H 	H 	0.3842	0.9549	0.0242	0.111
Mof_H 	H 	0.2959	0.9846	0.0309	0.092
Mof_H 	H 	0.3558	0.9693	0.1231	0.106
Mof_H 	H 	0.4472	0.0005	0.1032	0.109
Mof_H 	H 	0.3527	0.033	0.1102	0.101
Mof_H 	H 	0.3754	0.0211	0.9533	0.067
Mof_H 	H 	0.3649	0.065	0.0055	0.027
Mof_H 	H 	0.4594	0.0327	0.9976	0.082
Mof_C 	C 	0.3804	0.99849	0.0982	-0.258
Mof_C 	C 	0.3924	0.0302	0.9945	-0.073
Mof_N 	N 	0.3586	0.98757	0.03507	-0.193
Mof_H 	H 	0.3946	0.2846	0.9264	0.127
Mof_H 	H 	0.4073	0.3316	0.8858	0.101
Mof_H 	H 	0.3253	0.2676	0.8386	0.116
Mof_H 	H 	0.251	0.2698	0.8912	0.123
Mof_H 	H 	0.2639	0.3207	0.8477	0.114
Mof_H 	H 	0.3816	0.3622	0.979	0.127
Mof_H 	H 	0.2995	0.3804	0.9359	0.124
Mof_H 	H 	0.2863	0.3298	0.9798	0.142
Mof_C 	C 	0.2956	0.29097	0.8682	-0.278
Mof_C 	C 	0.3302	0.34934	0.9545	-0.29
Mof_N 	N 	0.3647	0.31304	0.9082	-0.152
Mof_H 	H 	0.6158	0.0451	0.5242	0.122
Mof_H 	H 	0.7041	0.0154	0.5309	0.098
Mof_H 	H 	0.6442	0.0307	0.6231	0.114
Mof_H 	H 	0.5528	0.9995	0.6032	0.12
Mof_H 	H 	0.6473	0.967	0.6102	0.111
Mof_H 	H 	0.6246	0.9789	0.4533	0.116
Mof_H 	H 	0.6351	0.935	0.5055	0.118
Mof_H 	H 	0.5406	0.9673	0.4976	0.123
Mof_C 	C 	0.6196	0.00151	0.5982	-0.279
Mof_C 	C 	0.6076	0.9698	0.4945	-0.276
Mof_N 	N 	0.6414	0.01243	0.53507	-0.155
_end
