data_functionalizedCrystal
_audit_creation_method	'EQeq! by Chris Wilmer'
_symmetry_space_group_name_H-M	'P1'
_symmetry_Int_Tables_number	1
_symmetry_cell_setting	triclinic
loop_
_symmetry_equiv_pos_as_xyz
  x,y,z
_cell_length_a	22.0935
_cell_length_b	16.2897
_cell_length_c	25.6306
_cell_angle_alpha	90
_cell_angle_beta	115.277
_cell_angle_gamma	90
loop_
_atom_site_label
_atom_site_type_symbol
_atom_site_fract_x
_atom_site_fract_y
_atom_site_fract_z
_atom_site_charge
Mof_Ag	Ag	0.34389	0.54296	0.36775	0.524
Mof_Ag	Ag	0.82289	0.74813	0.86721	0.536
Mof_N 	N 	0.7384	0.8224	0.56321	-0.136
Mof_N 	N 	0.2799	0.3131	0.92128	-0.208
Mof_N 	N 	0.1226	0.5371	0.05882	-0.135
Mof_N 	N 	0.4392	0.6158	0.41221	-0.213
Mof_N 	N 	0.9132	0.6578	0.90741	-0.186
Mof_C 	C 	0.6237	0.7428	0.5024	0.1
Mof_N 	N 	0.1263	0.4889	0.97322	-0.138
Mof_N 	N 	0.6481	0.7898	0.47281	-0.137
Mof_C 	C 	0.7351	0.9351	0.3881	0.08
Mof_H 	H 	0.7131	0.9422	0.3484	-0.007
Mof_N 	N 	0.7958	0.9696	0.41668	-0.191
Mof_N 	N 	0.2115	0.4501	0.06477	-0.149
Mof_N 	N 	0.8004	0.7467	0.7713	-0.199
Mof_C 	C 	0.278	0.3623	0.0092	-0.137
Mof_H 	H 	0.2989	0.366	0.0492	0.075
Mof_C 	C 	0.7984	0.9158	0.505	-0.131
Mof_H 	H 	0.8208	0.9113	0.5449	0.084
Mof_C 	C 	0.2195	0.3483	0.8919	0.063
Mof_H 	H 	0.1995	0.3441	0.8519	-0.024
Mof_C 	C 	0.5598	0.6978	0.4702	0.059
Mof_N 	N 	0.2758	0.5292	0.2718	-0.199
Mof_C 	C 	0.0976	0.5304	0.0011	0.098
Mof_N 	N 	0.653	0.732	0.55932	-0.143
Mof_C 	C 	0.9436	0.657	0.9651	0.085
Mof_H 	H 	0.9236	0.6853	0.9852	-0.012
Mof_C 	C 	0.5329	0.688	0.411	-0.141
Mof_H 	H 	0.5545	0.7095	0.3898	0.081
Mof_C 	C 	0.0031	0.6162	0.9964	-0.133
Mof_H 	H 	0.0225	0.6171	0.0365	0.085
Mof_C 	C 	0.7434	0.7628	0.6517	0.059
Mof_C 	C 	0.1804	0.4978	0.0883	0.096
Mof_C 	C 	0.1789	0.5438	0.1816	-0.138
Mof_H 	H 	0.1348	0.5612	0.1618	0.081
Mof_C 	C 	0.526	0.6649	0.5002	-0.143
Mof_H 	H 	0.5433	0.6697	0.5401	0.074
Mof_C 	C 	0.2155	0.3987	0.9777	0.056
Mof_C 	C 	0.8262	0.9591	0.4741	0.085
Mof_H 	H 	0.8683	0.9822	0.4943	-0.012
Mof_C 	C 	0.7095	0.7733	0.5876	0.102
Mof_C 	C 	0.0331	0.5739	0.967	0.067
Mof_C 	C 	0.3078	0.3204	0.9792	0.076
Mof_H 	H 	0.3493	0.296	0.0002	-0.012
Mof_C 	C 	0.7362	0.8791	0.4749	0.067
Mof_C 	C 	0.9433	0.6166	0.8794	0.081
Mof_H 	H 	0.9235	0.6176	0.8393	-0.006
Mof_C 	C 	0.7056	0.8278	0.5052	0.103
Mof_C 	C 	0.3078	0.4951	0.2429	0.069
Mof_H 	H 	0.352	0.4786	0.2637	-0.023
Mof_C 	C 	0.1828	0.4485	0.0069	0.091
Mof_C 	C 	0.1856	0.3905	0.9184	-0.134
Mof_H 	H 	0.1436	0.4129	0.8966	0.078
Mof_C 	C 	0.7039	0.8896	0.4152	-0.13
Mof_H 	H 	0.6621	0.8662	0.3939	0.083
Mof_C 	C 	0.4731	0.6456	0.384	0.071
Mof_H 	H 	0.4558	0.6375	0.3443	-0.02
Mof_C 	C 	0.4665	0.625	0.4697	0.071
Mof_H 	H 	0.4439	0.6032	0.4899	-0.019
Mof_C 	C 	0.8285	0.7933	0.7448	0.083
Mof_H 	H 	0.8678	0.821	0.7675	-0.021
Mof_C 	C 	0.2122	0.5079	0.152	0.053
Mof_C 	C 	0.0023	0.5729	0.9073	-0.136
Mof_H 	H 	0.0206	0.5436	0.8864	0.08
Mof_C 	C 	0.8022	0.8028	0.6852	-0.14
Mof_H 	H 	0.8238	0.8352	0.6685	0.083
Mof_C 	C 	0.2122	0.5532	0.2406	0.081
Mof_H 	H 	0.1894	0.5775	0.2599	-0.016
Mof_C 	C 	0.7152	0.7106	0.6782	-0.134
Mof_H 	H 	0.6771	0.6802	0.6564	0.069
Mof_C 	C 	0.2783	0.4833	0.1834	-0.139
Mof_H 	H 	0.3022	0.4595	0.165	0.072
Mof_C 	C 	0.7449	0.705	0.7374	0.069
Mof_H 	H 	0.7256	0.6705	0.755	-0.016
Mof_Ag	Ag	0.84389	0.04296	0.36775	0.523
Mof_Ag	Ag	0.32289	0.24813	0.86722	0.536
Mof_N 	N 	0.2384	0.3224	0.56321	-0.137
Mof_N 	N 	0.7799	0.8131	0.92128	-0.207
Mof_N 	N 	0.6226	0.0371	0.05882	-0.137
Mof_N 	N 	0.9392	0.1158	0.41221	-0.214
Mof_N 	N 	0.4132	0.1578	0.90741	-0.188
Mof_C 	C 	0.1237	0.2428	0.5024	0.099
Mof_N 	N 	0.6263	0.9889	0.97322	-0.141
Mof_N 	N 	0.1481	0.2898	0.47281	-0.138
Mof_C 	C 	0.2351	0.4351	0.3881	0.079
Mof_H 	H 	0.2131	0.4422	0.3484	-0.008
Mof_N 	N 	0.2958	0.4696	0.41668	-0.191
Mof_N 	N 	0.7115	0.9501	0.06477	-0.149
Mof_N 	N 	0.3004	0.2467	0.7713	-0.199
Mof_C 	C 	0.778	0.8623	0.0092	-0.129
Mof_H 	H 	0.7989	0.866	0.0492	0.073
Mof_C 	C 	0.2984	0.4158	0.505	-0.132
Mof_H 	H 	0.3208	0.4113	0.5449	0.084
Mof_C 	C 	0.7195	0.8483	0.8919	0.061
Mof_H 	H 	0.6995	0.8441	0.8519	-0.023
Mof_C 	C 	0.0598	0.1978	0.4702	0.059
Mof_N 	N 	0.7758	0.0292	0.2718	-0.199
Mof_C 	C 	0.5976	0.0304	0.0011	0.099
Mof_N 	N 	0.153	0.232	0.55932	-0.143
Mof_C 	C 	0.4436	0.157	0.9651	0.087
Mof_H 	H 	0.4236	0.1853	0.9852	-0.012
Mof_C 	C 	0.0329	0.188	0.411	-0.141
Mof_H 	H 	0.0545	0.2095	0.3898	0.081
Mof_C 	C 	0.5031	0.1162	0.9964	-0.136
Mof_H 	H 	0.5225	0.1171	0.0365	0.086
Mof_C 	C 	0.2434	0.2628	0.6517	0.059
Mof_C 	C 	0.6804	0.9978	0.0883	0.097
Mof_C 	C 	0.6789	0.0438	0.1816	-0.137
Mof_H 	H 	0.6348	0.0612	0.1618	0.081
Mof_C 	C 	0.026	0.1649	0.5002	-0.143
Mof_H 	H 	0.0433	0.1697	0.5401	0.074
Mof_C 	C 	0.7155	0.8987	0.9777	0.05
Mof_C 	C 	0.3262	0.4591	0.4741	0.085
Mof_H 	H 	0.3683	0.4822	0.4943	-0.012
Mof_C 	C 	0.2095	0.2733	0.5876	0.102
Mof_C 	C 	0.5331	0.0739	0.967	0.068
Mof_C 	C 	0.8078	0.8204	0.9792	0.069
Mof_H 	H 	0.8493	0.796	0.0002	-0.009
Mof_C 	C 	0.2362	0.3791	0.4749	0.067
Mof_C 	C 	0.4433	0.1166	0.8794	0.083
Mof_H 	H 	0.4235	0.1176	0.8393	-0.007
Mof_C 	C 	0.2056	0.3278	0.5052	0.103
Mof_C 	C 	0.8078	0.9951	0.2429	0.069
Mof_H 	H 	0.852	0.9786	0.2637	-0.022
Mof_C 	C 	0.6828	0.9485	0.0069	0.095
Mof_C 	C 	0.6856	0.8905	0.9184	-0.13
Mof_H 	H 	0.6436	0.9129	0.8966	0.076
Mof_C 	C 	0.2039	0.3896	0.4152	-0.13
Mof_H 	H 	0.1621	0.3662	0.3939	0.083
Mof_C 	C 	0.9731	0.1456	0.384	0.071
Mof_H 	H 	0.9558	0.1375	0.3443	-0.02
Mof_C 	C 	0.9665	0.125	0.4697	0.071
Mof_H 	H 	0.9439	0.1032	0.4899	-0.019
Mof_C 	C 	0.3285	0.2933	0.7448	0.083
Mof_H 	H 	0.3678	0.321	0.7675	-0.021
Mof_C 	C 	0.7122	0.0079	0.152	0.052
Mof_C 	C 	0.5023	0.0729	0.9073	-0.138
Mof_H 	H 	0.5206	0.0436	0.8864	0.08
Mof_C 	C 	0.3022	0.3028	0.6852	-0.14
Mof_H 	H 	0.3238	0.3352	0.6685	0.083
Mof_C 	C 	0.7122	0.0532	0.2406	0.081
Mof_H 	H 	0.6894	0.0775	0.2599	-0.016
Mof_C 	C 	0.2152	0.2106	0.6782	-0.134
Mof_H 	H 	0.1771	0.1802	0.6564	0.069
Mof_C 	C 	0.7783	0.9833	0.1834	-0.138
Mof_H 	H 	0.8022	0.9595	0.165	0.072
Mof_C 	C 	0.2449	0.205	0.7374	0.07
Mof_H 	H 	0.2256	0.1705	0.755	-0.016
Mof_Ag	Ag	0.65611	0.54296	0.13225	0.523
Mof_Ag	Ag	0.17711	0.74813	0.63278	0.536
Mof_N 	N 	0.2616	0.8224	0.93679	-0.137
Mof_N 	N 	0.7201	0.3131	0.57872	-0.208
Mof_N 	N 	0.8774	0.5371	0.44118	-0.137
Mof_N 	N 	0.5608	0.6158	0.08779	-0.214
Mof_N 	N 	0.0868	0.6578	0.59259	-0.188
Mof_C 	C 	0.3763	0.7428	0.9976	0.098
Mof_N 	N 	0.8737	0.4889	0.52678	-0.14
Mof_N 	N 	0.3519	0.7898	0.02719	-0.138
Mof_C 	C 	0.2649	0.9351	0.1119	0.079
Mof_H 	H 	0.2869	0.9422	0.1516	-0.008
Mof_N 	N 	0.2042	0.9696	0.08332	-0.191
Mof_N 	N 	0.7885	0.4501	0.43523	-0.149
Mof_N 	N 	0.1996	0.7467	0.7287	-0.199
Mof_C 	C 	0.722	0.3623	0.4908	-0.134
Mof_H 	H 	0.7011	0.366	0.4508	0.074
Mof_C 	C 	0.2016	0.9158	0.995	-0.131
Mof_H 	H 	0.1792	0.9113	0.9551	0.084
Mof_C 	C 	0.7805	0.3483	0.6081	0.062
Mof_H 	H 	0.8005	0.3441	0.6481	-0.024
Mof_C 	C 	0.4402	0.6978	0.0298	0.06
Mof_N 	N 	0.7242	0.5292	0.2282	-0.199
Mof_C 	C 	0.9024	0.5304	0.4989	0.099
Mof_N 	N 	0.347	0.732	0.94068	-0.143
Mof_C 	C 	0.0564	0.657	0.5349	0.087
Mof_H 	H 	0.0764	0.6853	0.5148	-0.013
Mof_C 	C 	0.4671	0.688	0.089	-0.141
Mof_H 	H 	0.4455	0.7095	0.1102	0.081
Mof_C 	C 	0.9969	0.6162	0.5036	-0.136
Mof_H 	H 	0.9775	0.6171	0.4635	0.087
Mof_C 	C 	0.2566	0.7628	0.8483	0.059
Mof_C 	C 	0.8196	0.4978	0.4117	0.096
Mof_C 	C 	0.8211	0.5438	0.3184	-0.138
Mof_H 	H 	0.8652	0.5612	0.3382	0.081
Mof_C 	C 	0.474	0.6649	0.9998	-0.144
Mof_H 	H 	0.4567	0.6697	0.9599	0.075
Mof_C 	C 	0.7845	0.3987	0.5223	0.053
Mof_C 	C 	0.1738	0.9591	0.0259	0.085
Mof_H 	H 	0.1317	0.9822	0.0057	-0.012
Mof_C 	C 	0.2905	0.7733	0.9124	0.102
Mof_C 	C 	0.9669	0.5739	0.533	0.068
Mof_C 	C 	0.6922	0.3204	0.5208	0.073
Mof_H 	H 	0.6507	0.296	0.4998	-0.011
Mof_C 	C 	0.2638	0.8791	0.0251	0.066
Mof_C 	C 	0.0567	0.6166	0.6206	0.083
Mof_H 	H 	0.0765	0.6176	0.6607	-0.007
Mof_C 	C 	0.2944	0.8278	0.9948	0.103
Mof_C 	C 	0.6922	0.4951	0.2571	0.069
Mof_H 	H 	0.648	0.4786	0.2363	-0.023
Mof_C 	C 	0.8172	0.4485	0.4931	0.093
Mof_C 	C 	0.8144	0.3905	0.5816	-0.132
Mof_H 	H 	0.8564	0.4129	0.6034	0.077
Mof_C 	C 	0.2961	0.8896	0.0848	-0.129
Mof_H 	H 	0.3379	0.8662	0.1061	0.083
Mof_C 	C 	0.5269	0.6456	0.116	0.071
Mof_H 	H 	0.5442	0.6375	0.1557	-0.02
Mof_C 	C 	0.5335	0.625	0.0303	0.071
Mof_H 	H 	0.5561	0.6032	0.0101	-0.019
Mof_C 	C 	0.1715	0.7933	0.7552	0.083
Mof_H 	H 	0.1322	0.821	0.7325	-0.021
Mof_C 	C 	0.7878	0.5079	0.348	0.053
Mof_C 	C 	0.9977	0.5729	0.5927	-0.139
Mof_H 	H 	0.9794	0.5436	0.6136	0.08
Mof_C 	C 	0.1978	0.8028	0.8148	-0.14
Mof_H 	H 	0.1762	0.8352	0.8315	0.083
Mof_C 	C 	0.7878	0.5532	0.2594	0.081
Mof_H 	H 	0.8106	0.5775	0.2401	-0.016
Mof_C 	C 	0.2848	0.7106	0.8218	-0.134
Mof_H 	H 	0.3229	0.6802	0.8436	0.068
Mof_C 	C 	0.7217	0.4833	0.3166	-0.139
Mof_H 	H 	0.6978	0.4595	0.335	0.072
Mof_C 	C 	0.2551	0.705	0.7626	0.069
Mof_H 	H 	0.2744	0.6705	0.745	-0.016
Mof_Ag	Ag	0.15611	0.04296	0.13225	0.523
Mof_Ag	Ag	0.67711	0.24813	0.63278	0.536
Mof_N 	N 	0.7616	0.3224	0.93679	-0.137
Mof_N 	N 	0.2201	0.8131	0.57872	-0.208
Mof_N 	N 	0.3774	0.0371	0.44118	-0.137
Mof_N 	N 	0.0608	0.1158	0.08779	-0.214
Mof_N 	N 	0.5868	0.1578	0.59259	-0.188
Mof_C 	C 	0.8763	0.2428	0.9976	0.097
Mof_N 	N 	0.3737	0.9889	0.52678	-0.14
Mof_N 	N 	0.8519	0.2898	0.02719	-0.137
Mof_C 	C 	0.7649	0.4351	0.1119	0.08
Mof_H 	H 	0.7869	0.4422	0.1516	-0.008
Mof_N 	N 	0.7042	0.4696	0.08332	-0.192
Mof_N 	N 	0.2885	0.9501	0.43523	-0.149
Mof_N 	N 	0.6996	0.2467	0.7287	-0.199
Mof_C 	C 	0.222	0.8623	0.4908	-0.134
Mof_H 	H 	0.2011	0.866	0.4508	0.074
Mof_C 	C 	0.7016	0.4158	0.995	-0.133
Mof_H 	H 	0.6792	0.4113	0.9551	0.084
Mof_C 	C 	0.2805	0.8483	0.6081	0.062
Mof_H 	H 	0.3005	0.8441	0.6481	-0.024
Mof_C 	C 	0.9402	0.1978	0.0298	0.06
Mof_N 	N 	0.2242	0.0292	0.2282	-0.199
Mof_C 	C 	0.4024	0.0304	0.4989	0.099
Mof_N 	N 	0.847	0.232	0.94068	-0.143
Mof_C 	C 	0.5564	0.157	0.5349	0.087
Mof_H 	H 	0.5764	0.1853	0.5148	-0.013
Mof_C 	C 	0.9671	0.188	0.089	-0.14
Mof_H 	H 	0.9455	0.2095	0.1102	0.081
Mof_C 	C 	0.4969	0.1162	0.5036	-0.136
Mof_H 	H 	0.4775	0.1171	0.4635	0.086
Mof_C 	C 	0.7566	0.2628	0.8483	0.059
Mof_C 	C 	0.3196	0.9978	0.4117	0.096
Mof_C 	C 	0.3211	0.0438	0.3184	-0.138
Mof_H 	H 	0.3652	0.0612	0.3382	0.081
Mof_C 	C 	0.974	0.1649	0.9998	-0.144
Mof_H 	H 	0.9567	0.1697	0.9599	0.075
Mof_C 	C 	0.2845	0.8987	0.5223	0.053
Mof_C 	C 	0.6738	0.4591	0.0259	0.086
Mof_H 	H 	0.6317	0.4822	0.0057	-0.013
Mof_C 	C 	0.7905	0.2733	0.9124	0.102
Mof_C 	C 	0.4669	0.0739	0.533	0.067
Mof_C 	C 	0.1922	0.8204	0.5208	0.073
Mof_H 	H 	0.1507	0.796	0.4998	-0.011
Mof_C 	C 	0.7638	0.3791	0.0251	0.068
Mof_C 	C 	0.5567	0.1166	0.6206	0.083
Mof_H 	H 	0.5765	0.1176	0.6607	-0.007
Mof_C 	C 	0.7944	0.3278	0.9948	0.101
Mof_C 	C 	0.1922	0.9951	0.2571	0.069
Mof_H 	H 	0.148	0.9786	0.2363	-0.023
Mof_C 	C 	0.3172	0.9485	0.4931	0.093
Mof_C 	C 	0.3144	0.8905	0.5816	-0.132
Mof_H 	H 	0.3564	0.9129	0.6034	0.077
Mof_C 	C 	0.7961	0.3896	0.0848	-0.13
Mof_H 	H 	0.8379	0.3662	0.1061	0.083
Mof_C 	C 	0.0269	0.1456	0.116	0.07
Mof_H 	H 	0.0442	0.1375	0.1557	-0.02
Mof_C 	C 	0.0335	0.125	0.0303	0.071
Mof_H 	H 	0.0561	0.1032	0.0101	-0.02
Mof_C 	C 	0.6715	0.2933	0.7552	0.083
Mof_H 	H 	0.6322	0.321	0.7325	-0.021
Mof_C 	C 	0.2878	0.0079	0.348	0.053
Mof_C 	C 	0.4977	0.0729	0.5927	-0.138
Mof_H 	H 	0.4794	0.0436	0.6136	0.08
Mof_C 	C 	0.6978	0.3028	0.8148	-0.14
Mof_H 	H 	0.6762	0.3352	0.8315	0.083
Mof_C 	C 	0.2878	0.0532	0.2594	0.081
Mof_H 	H 	0.3106	0.0775	0.2401	-0.016
Mof_C 	C 	0.7848	0.2106	0.8218	-0.134
Mof_H 	H 	0.8229	0.1802	0.8436	0.068
Mof_C 	C 	0.2217	0.9833	0.3166	-0.138
Mof_H 	H 	0.1978	0.9595	0.335	0.072
Mof_C 	C 	0.7551	0.205	0.7626	0.069
Mof_H 	H 	0.7744	0.1705	0.745	-0.016
Mof_Ag	Ag	0.65611	0.45704	0.63225	0.523
Mof_Ag	Ag	0.17711	0.25187	0.13278	0.535
Mof_N 	N 	0.2616	0.1776	0.43679	-0.137
Mof_N 	N 	0.7201	0.6869	0.07872	-0.209
Mof_N 	N 	0.8774	0.4629	0.94118	-0.136
Mof_N 	N 	0.5608	0.3842	0.58779	-0.214
Mof_N 	N 	0.0868	0.3422	0.09259	-0.187
Mof_C 	C 	0.3763	0.2572	0.4976	0.099
Mof_N 	N 	0.8737	0.5111	0.02678	-0.139
Mof_N 	N 	0.3519	0.2102	0.52719	-0.138
Mof_C 	C 	0.2649	0.0649	0.6119	0.079
Mof_H 	H 	0.2869	0.0578	0.6516	-0.008
Mof_N 	N 	0.2042	0.0304	0.58332	-0.191
Mof_N 	N 	0.7885	0.5499	0.93523	-0.149
Mof_N 	N 	0.1996	0.2533	0.2287	-0.199
Mof_C 	C 	0.722	0.6377	0.9908	-0.137
Mof_H 	H 	0.7011	0.634	0.9508	0.075
Mof_C 	C 	0.2016	0.0842	0.495	-0.131
Mof_H 	H 	0.1792	0.0887	0.4551	0.084
Mof_C 	C 	0.7805	0.6517	0.1081	0.063
Mof_H 	H 	0.8005	0.6559	0.1481	-0.024
Mof_C 	C 	0.4402	0.3022	0.5298	0.059
Mof_N 	N 	0.7242	0.4708	0.7282	-0.199
Mof_C 	C 	0.9024	0.4696	0.9989	0.098
Mof_N 	N 	0.347	0.268	0.44068	-0.143
Mof_C 	C 	0.0564	0.343	0.0349	0.085
Mof_H 	H 	0.0764	0.3147	0.0148	-0.012
Mof_C 	C 	0.4671	0.312	0.589	-0.141
Mof_H 	H 	0.4455	0.2905	0.6102	0.081
Mof_C 	C 	0.9969	0.3838	0.0036	-0.133
Mof_H 	H 	0.9775	0.3829	0.9635	0.085
Mof_C 	C 	0.2566	0.2372	0.3483	0.059
Mof_C 	C 	0.8196	0.5022	0.9117	0.096
Mof_C 	C 	0.8211	0.4562	0.8184	-0.138
Mof_H 	H 	0.8652	0.4388	0.8382	0.081
Mof_C 	C 	0.474	0.3351	0.4998	-0.143
Mof_H 	H 	0.4567	0.3303	0.4599	0.074
Mof_C 	C 	0.7845	0.6013	0.0223	0.056
Mof_C 	C 	0.1738	0.0409	0.5259	0.085
Mof_H 	H 	0.1317	0.0178	0.5057	-0.012
Mof_C 	C 	0.2905	0.2267	0.4124	0.102
Mof_C 	C 	0.9669	0.4261	0.033	0.067
Mof_C 	C 	0.6922	0.6796	0.0208	0.076
Mof_H 	H 	0.6507	0.704	0.9998	-0.012
Mof_C 	C 	0.2638	0.1209	0.5251	0.067
Mof_C 	C 	0.0567	0.3834	0.1206	0.081
Mof_H 	H 	0.0765	0.3824	0.1607	-0.006
Mof_C 	C 	0.2944	0.1722	0.4948	0.103
Mof_C 	C 	0.6922	0.5049	0.7571	0.069
Mof_H 	H 	0.648	0.5214	0.7363	-0.023
Mof_C 	C 	0.8172	0.5515	0.9931	0.091
Mof_C 	C 	0.8144	0.6095	0.0816	-0.134
Mof_H 	H 	0.8564	0.5871	0.1034	0.078
Mof_C 	C 	0.2961	0.1104	0.5848	-0.13
Mof_H 	H 	0.3379	0.1338	0.6061	0.083
Mof_C 	C 	0.5269	0.3544	0.616	0.071
Mof_H 	H 	0.5442	0.3625	0.6557	-0.02
Mof_C 	C 	0.5335	0.375	0.5303	0.071
Mof_H 	H 	0.5561	0.3968	0.5101	-0.019
Mof_C 	C 	0.1715	0.2067	0.2552	0.083
Mof_H 	H 	0.1322	0.179	0.2325	-0.021
Mof_C 	C 	0.7878	0.4921	0.848	0.053
Mof_C 	C 	0.9977	0.4271	0.0927	-0.136
Mof_H 	H 	0.9794	0.4564	0.1136	0.08
Mof_C 	C 	0.1978	0.1972	0.3148	-0.14
Mof_H 	H 	0.1762	0.1648	0.3315	0.083
Mof_C 	C 	0.7878	0.4468	0.7594	0.081
Mof_H 	H 	0.8106	0.4225	0.7401	-0.016
Mof_C 	C 	0.2848	0.2894	0.3218	-0.134
Mof_H 	H 	0.3229	0.3198	0.3436	0.069
Mof_C 	C 	0.7217	0.5167	0.8166	-0.139
Mof_H 	H 	0.6978	0.5405	0.835	0.072
Mof_C 	C 	0.2551	0.295	0.2626	0.069
Mof_H 	H 	0.2744	0.3295	0.245	-0.016
Mof_Ag	Ag	0.15611	0.95704	0.63225	0.523
Mof_Ag	Ag	0.67711	0.75187	0.13278	0.536
Mof_N 	N 	0.7616	0.6776	0.43679	-0.137
Mof_N 	N 	0.2201	0.1869	0.07872	-0.207
Mof_N 	N 	0.3774	0.9629	0.94118	-0.137
Mof_N 	N 	0.0608	0.8842	0.58779	-0.214
Mof_N 	N 	0.5868	0.8422	0.09259	-0.188
Mof_C 	C 	0.8763	0.7572	0.4976	0.099
Mof_N 	N 	0.3737	0.0111	0.02678	-0.141
Mof_N 	N 	0.8519	0.7102	0.52719	-0.138
Mof_C 	C 	0.7649	0.5649	0.6119	0.079
Mof_H 	H 	0.7869	0.5578	0.6516	-0.008
Mof_N 	N 	0.7042	0.5304	0.58332	-0.191
Mof_N 	N 	0.2885	0.0499	0.93523	-0.149
Mof_N 	N 	0.6996	0.7533	0.2287	-0.199
Mof_C 	C 	0.222	0.1377	0.9908	-0.129
Mof_H 	H 	0.2011	0.134	0.9508	0.073
Mof_C 	C 	0.7016	0.5842	0.495	-0.132
Mof_H 	H 	0.6792	0.5887	0.4551	0.084
Mof_C 	C 	0.2805	0.1517	0.1081	0.061
Mof_H 	H 	0.3005	0.1559	0.1481	-0.023
Mof_C 	C 	0.9402	0.8022	0.5298	0.059
Mof_N 	N 	0.2242	0.9708	0.7282	-0.199
Mof_C 	C 	0.4024	0.9696	0.9989	0.099
Mof_N 	N 	0.847	0.768	0.44068	-0.143
Mof_C 	C 	0.5564	0.843	0.0349	0.087
Mof_H 	H 	0.5764	0.8147	0.0148	-0.012
Mof_C 	C 	0.9671	0.812	0.589	-0.141
Mof_H 	H 	0.9455	0.7905	0.6102	0.081
Mof_C 	C 	0.4969	0.8838	0.0036	-0.136
Mof_H 	H 	0.4775	0.8829	0.9635	0.086
Mof_C 	C 	0.7566	0.7372	0.3483	0.059
Mof_C 	C 	0.3196	0.0022	0.9117	0.097
Mof_C 	C 	0.3211	0.9562	0.8184	-0.137
Mof_H 	H 	0.3652	0.9388	0.8382	0.081
Mof_C 	C 	0.974	0.8351	0.4998	-0.143
Mof_H 	H 	0.9567	0.8303	0.4599	0.074
Mof_C 	C 	0.2845	0.1013	0.0223	0.05
Mof_C 	C 	0.6738	0.5409	0.5259	0.085
Mof_H 	H 	0.6317	0.5178	0.5057	-0.012
Mof_C 	C 	0.7905	0.7267	0.4124	0.102
Mof_C 	C 	0.4669	0.9261	0.033	0.068
Mof_C 	C 	0.1922	0.1796	0.0208	0.069
Mof_H 	H 	0.1507	0.204	0.9998	-0.009
Mof_C 	C 	0.7638	0.6209	0.5251	0.067
Mof_C 	C 	0.5567	0.8834	0.1206	0.083
Mof_H 	H 	0.5765	0.8824	0.1607	-0.007
Mof_C 	C 	0.7944	0.6722	0.4948	0.103
Mof_C 	C 	0.1922	0.0049	0.7571	0.069
Mof_H 	H 	0.148	0.0214	0.7363	-0.022
Mof_C 	C 	0.3172	0.0515	0.9931	0.095
Mof_C 	C 	0.3144	0.1095	0.0816	-0.13
Mof_H 	H 	0.3564	0.0871	0.1034	0.076
Mof_C 	C 	0.7961	0.6104	0.5848	-0.13
Mof_H 	H 	0.8379	0.6338	0.6061	0.083
Mof_C 	C 	0.0269	0.8544	0.616	0.071
Mof_H 	H 	0.0442	0.8625	0.6557	-0.02
Mof_C 	C 	0.0335	0.875	0.5303	0.071
Mof_H 	H 	0.0561	0.8968	0.5101	-0.019
Mof_C 	C 	0.6715	0.7067	0.2552	0.083
Mof_H 	H 	0.6322	0.679	0.2325	-0.021
Mof_C 	C 	0.2878	0.9921	0.848	0.052
Mof_C 	C 	0.4977	0.9271	0.0927	-0.138
Mof_H 	H 	0.4794	0.9564	0.1136	0.08
Mof_C 	C 	0.6978	0.6972	0.3148	-0.14
Mof_H 	H 	0.6762	0.6648	0.3315	0.083
Mof_C 	C 	0.2878	0.9468	0.7594	0.081
Mof_H 	H 	0.3106	0.9225	0.7401	-0.016
Mof_C 	C 	0.7848	0.7894	0.3218	-0.134
Mof_H 	H 	0.8229	0.8198	0.3436	0.069
Mof_C 	C 	0.2217	0.0167	0.8166	-0.138
Mof_H 	H 	0.1978	0.0405	0.835	0.072
Mof_C 	C 	0.7551	0.795	0.2626	0.07
Mof_H 	H 	0.7744	0.8295	0.245	-0.016
Mof_Ag	Ag	0.34389	0.45704	0.86775	0.523
Mof_Ag	Ag	0.82289	0.25187	0.36722	0.536
Mof_N 	N 	0.7384	0.1776	0.06321	-0.137
Mof_N 	N 	0.2799	0.6869	0.42128	-0.208
Mof_N 	N 	0.1226	0.4629	0.55882	-0.137
Mof_N 	N 	0.4392	0.3842	0.91221	-0.214
Mof_N 	N 	0.9132	0.3422	0.40741	-0.188
Mof_C 	C 	0.6237	0.2572	0.0024	0.098
Mof_N 	N 	0.1263	0.5111	0.47322	-0.14
Mof_N 	N 	0.6481	0.2102	0.97281	-0.138
Mof_C 	C 	0.7351	0.0649	0.8881	0.079
Mof_H 	H 	0.7131	0.0578	0.8484	-0.008
Mof_N 	N 	0.7958	0.0304	0.91668	-0.191
Mof_N 	N 	0.2115	0.5499	0.56477	-0.149
Mof_N 	N 	0.8004	0.2533	0.2713	-0.199
Mof_C 	C 	0.278	0.6377	0.5092	-0.134
Mof_H 	H 	0.2989	0.634	0.5492	0.074
Mof_C 	C 	0.7984	0.0842	0.005	-0.131
Mof_H 	H 	0.8208	0.0887	0.0449	0.084
Mof_C 	C 	0.2195	0.6517	0.3919	0.062
Mof_H 	H 	0.1995	0.6559	0.3519	-0.024
Mof_C 	C 	0.5598	0.3022	0.9702	0.06
Mof_N 	N 	0.2758	0.4708	0.7718	-0.199
Mof_C 	C 	0.0976	0.4696	0.5011	0.099
Mof_N 	N 	0.653	0.268	0.05932	-0.143
Mof_C 	C 	0.9436	0.343	0.4651	0.087
Mof_H 	H 	0.9236	0.3147	0.4852	-0.013
Mof_C 	C 	0.5329	0.312	0.911	-0.141
Mof_H 	H 	0.5545	0.2905	0.8898	0.081
Mof_C 	C 	0.0031	0.3838	0.4964	-0.136
Mof_H 	H 	0.0225	0.3829	0.5365	0.087
Mof_C 	C 	0.7434	0.2372	0.1517	0.059
Mof_C 	C 	0.1804	0.5022	0.5883	0.096
Mof_C 	C 	0.1789	0.4562	0.6816	-0.138
Mof_H 	H 	0.1348	0.4388	0.6618	0.081
Mof_C 	C 	0.526	0.3351	0.0002	-0.144
Mof_H 	H 	0.5433	0.3303	0.0401	0.075
Mof_C 	C 	0.2155	0.6013	0.4777	0.053
Mof_C 	C 	0.8262	0.0409	0.9741	0.085
Mof_H 	H 	0.8683	0.0178	0.9943	-0.012
Mof_C 	C 	0.7095	0.2267	0.0876	0.102
Mof_C 	C 	0.0331	0.4261	0.467	0.068
Mof_C 	C 	0.3078	0.6796	0.4792	0.073
Mof_H 	H 	0.3493	0.704	0.5002	-0.011
Mof_C 	C 	0.7362	0.1209	0.9749	0.066
Mof_C 	C 	0.9433	0.3834	0.3794	0.083
Mof_H 	H 	0.9235	0.3824	0.3393	-0.007
Mof_C 	C 	0.7056	0.1722	0.0052	0.103
Mof_C 	C 	0.3078	0.5049	0.7429	0.069
Mof_H 	H 	0.352	0.5214	0.7637	-0.023
Mof_C 	C 	0.1828	0.5515	0.5069	0.093
Mof_C 	C 	0.1856	0.6095	0.4184	-0.132
Mof_H 	H 	0.1436	0.5871	0.3966	0.077
Mof_C 	C 	0.7039	0.1104	0.9152	-0.129
Mof_H 	H 	0.6621	0.1338	0.8939	0.083
Mof_C 	C 	0.4731	0.3544	0.884	0.071
Mof_H 	H 	0.4558	0.3625	0.8443	-0.02
Mof_C 	C 	0.4665	0.375	0.9697	0.071
Mof_H 	H 	0.4439	0.3968	0.9899	-0.019
Mof_C 	C 	0.8285	0.2067	0.2448	0.083
Mof_H 	H 	0.8678	0.179	0.2675	-0.021
Mof_C 	C 	0.2122	0.4921	0.652	0.053
Mof_C 	C 	0.0023	0.4271	0.4073	-0.139
Mof_H 	H 	0.0206	0.4564	0.3864	0.08
Mof_C 	C 	0.8022	0.1972	0.1852	-0.14
Mof_H 	H 	0.8238	0.1648	0.1685	0.083
Mof_C 	C 	0.2122	0.4468	0.7406	0.081
Mof_H 	H 	0.1894	0.4225	0.7599	-0.016
Mof_C 	C 	0.7152	0.2894	0.1782	-0.134
Mof_H 	H 	0.6771	0.3198	0.1564	0.068
Mof_C 	C 	0.2783	0.5167	0.6834	-0.139
Mof_H 	H 	0.3022	0.5405	0.665	0.072
Mof_C 	C 	0.7449	0.295	0.2374	0.069
Mof_H 	H 	0.7256	0.3295	0.255	-0.016
Mof_Ag	Ag	0.84389	0.95704	0.86775	0.523
Mof_Ag	Ag	0.32289	0.75187	0.36722	0.536
Mof_N 	N 	0.2384	0.6776	0.06321	-0.137
Mof_N 	N 	0.7799	0.1869	0.42128	-0.208
Mof_N 	N 	0.6226	0.9629	0.55882	-0.137
Mof_N 	N 	0.9392	0.8842	0.91221	-0.214
Mof_N 	N 	0.4132	0.8422	0.40741	-0.188
Mof_C 	C 	0.1237	0.7572	0.0024	0.097
Mof_N 	N 	0.6263	0.0111	0.47322	-0.14
Mof_N 	N 	0.1481	0.7102	0.97281	-0.137
Mof_C 	C 	0.2351	0.5649	0.8881	0.08
Mof_H 	H 	0.2131	0.5578	0.8484	-0.008
Mof_N 	N 	0.2958	0.5304	0.91668	-0.192
Mof_N 	N 	0.7115	0.0499	0.56477	-0.149
Mof_N 	N 	0.3004	0.7533	0.2713	-0.199
Mof_C 	C 	0.778	0.1377	0.5092	-0.134
Mof_H 	H 	0.7989	0.134	0.5492	0.074
Mof_C 	C 	0.2984	0.5842	0.005	-0.133
Mof_H 	H 	0.3208	0.5887	0.0449	0.084
Mof_C 	C 	0.7195	0.1517	0.3919	0.062
Mof_H 	H 	0.6995	0.1559	0.3519	-0.024
Mof_C 	C 	0.0598	0.8022	0.9702	0.06
Mof_N 	N 	0.7758	0.9708	0.7718	-0.199
Mof_C 	C 	0.5976	0.9696	0.5011	0.099
Mof_N 	N 	0.153	0.768	0.05932	-0.143
Mof_C 	C 	0.4436	0.843	0.4651	0.087
Mof_H 	H 	0.4236	0.8147	0.4852	-0.013
Mof_C 	C 	0.0329	0.812	0.911	-0.14
Mof_H 	H 	0.0545	0.7905	0.8898	0.081
Mof_C 	C 	0.5031	0.8838	0.4964	-0.136
Mof_H 	H 	0.5225	0.8829	0.5365	0.086
Mof_C 	C 	0.2434	0.7372	0.1517	0.059
Mof_C 	C 	0.6804	0.0022	0.5883	0.096
Mof_C 	C 	0.6789	0.9562	0.6816	-0.138
Mof_H 	H 	0.6348	0.9388	0.6618	0.081
Mof_C 	C 	0.026	0.8351	0.0002	-0.144
Mof_H 	H 	0.0433	0.8303	0.0401	0.075
Mof_C 	C 	0.7155	0.1013	0.4777	0.053
Mof_C 	C 	0.3262	0.5409	0.9741	0.086
Mof_H 	H 	0.3683	0.5178	0.9943	-0.013
Mof_C 	C 	0.2095	0.7267	0.0876	0.102
Mof_C 	C 	0.5331	0.9261	0.467	0.067
Mof_C 	C 	0.8078	0.1796	0.4792	0.073
Mof_H 	H 	0.8493	0.204	0.5002	-0.011
Mof_C 	C 	0.2362	0.6209	0.9749	0.068
Mof_C 	C 	0.4433	0.8834	0.3794	0.083
Mof_H 	H 	0.4235	0.8824	0.3393	-0.007
Mof_C 	C 	0.2056	0.6722	0.0052	0.101
Mof_C 	C 	0.8078	0.0049	0.7429	0.069
Mof_H 	H 	0.852	0.0214	0.7637	-0.023
Mof_C 	C 	0.6828	0.0515	0.5069	0.093
Mof_C 	C 	0.6856	0.1095	0.4184	-0.132
Mof_H 	H 	0.6436	0.0871	0.3966	0.077
Mof_C 	C 	0.2039	0.6104	0.9152	-0.13
Mof_H 	H 	0.1621	0.6338	0.8939	0.083
Mof_C 	C 	0.9731	0.8544	0.884	0.07
Mof_H 	H 	0.9558	0.8625	0.8443	-0.02
Mof_C 	C 	0.9665	0.875	0.9697	0.071
Mof_H 	H 	0.9439	0.8968	0.9899	-0.02
Mof_C 	C 	0.3285	0.7067	0.2448	0.083
Mof_H 	H 	0.3678	0.679	0.2675	-0.021
Mof_C 	C 	0.7122	0.9921	0.652	0.053
Mof_C 	C 	0.5023	0.9271	0.4073	-0.138
Mof_H 	H 	0.5206	0.9564	0.3864	0.08
Mof_C 	C 	0.3022	0.6972	0.1852	-0.14
Mof_H 	H 	0.3238	0.6648	0.1685	0.083
Mof_C 	C 	0.7122	0.9468	0.7406	0.081
Mof_H 	H 	0.6894	0.9225	0.7599	-0.016
Mof_C 	C 	0.2152	0.7894	0.1782	-0.134
Mof_H 	H 	0.1771	0.8198	0.1564	0.068
Mof_C 	C 	0.7783	0.0167	0.6834	-0.138
Mof_H 	H 	0.8022	0.0405	0.665	0.072
Mof_C 	C 	0.2449	0.795	0.2374	0.069
Mof_H 	H 	0.2256	0.8295	0.255	-0.016
_end
