data_functionalizedCrystal
_audit_creation_method	'EQeq! by Chris Wilmer'
_symmetry_space_group_name_H-M	'P1'
_symmetry_Int_Tables_number	1
_symmetry_cell_setting	triclinic
loop_
_symmetry_equiv_pos_as_xyz
  x,y,z
_cell_length_a	20.171
_cell_length_b	20.171
_cell_length_c	26.197
_cell_angle_alpha	90
_cell_angle_beta	90
_cell_angle_gamma	120
loop_
_atom_site_label
_atom_site_type_symbol
_atom_site_fract_x
_atom_site_fract_y
_atom_site_fract_z
_atom_site_charge
Mof_O 	O 	0.05838	0.10985	0.61408	-0.483
Mof_O 	O 	0.99365	0.08378	0.5416	-0.369
Mof_O 	O 	0.32279	0.49983	0.69112	-0.497
Mof_O 	O 	0.35089	0.59946	0.64177	-0.559
Mof_O 	O 	0.27247	0.57639	0.55713	-0.579
Mof_C 	C 	0.08139	0.21373	0.56153	-0.132
Mof_C 	C 	0.1324	0.26478	0.59568	0.052
Mof_H 	H 	0.1425	0.2464	0.6264	0.019
Mof_C 	C 	0.17036	0.34399	0.58637	-0.144
Mof_C 	C 	0.22188	0.39765	0.62097	0.142
Mof_H 	H 	0.2328	0.38	0.6517	-0.009
Mof_C 	C 	0.25726	0.47476	0.61215	-0.332
Mof_C 	C 	0.24191	0.50222	0.56535	0.433
Mof_C 	C 	0.19146	0.45082	0.5308	-0.364
Mof_H 	H 	0.1805	0.4691	0.5004	0.155
Mof_C 	C 	0.1556	0.37145	0.53956	0.196
Mof_C 	C 	0.1021	0.316	0.50457	-0.202
Mof_H 	H 	0.0917	0.3329	0.4733	0.082
Mof_C 	C 	0.06615	0.24017	0.51484	0.077
Mof_H 	H 	0.0308	0.2045	0.491	-0.008
Mof_C 	C 	0.0416	0.13058	0.5725	0.27
Mof_C 	C 	0.31223	0.52811	0.65036	0.494
Mof_C 	C 	0.96343	0.92049	0.72036	0.056
Mof_H 	H 	0.9918	0.8956	0.7076	0.058
Mof_H 	H 	0.9102	0.8913	0.7075	0.03
Mof_O 	O 	0.89015	0.94853	0.61408	-0.405
Mof_O 	O 	0.91622	0.90987	0.5416	-0.405
Mof_O 	O 	0.50017	0.82296	0.69112	-0.482
Mof_O 	O 	0.40054	0.75143	0.64177	-0.554
Mof_O 	O 	0.42361	0.69608	0.55713	-0.574
Mof_C 	C 	0.78627	0.86766	0.56153	-0.134
Mof_C 	C 	0.73522	0.86762	0.59568	0.071
Mof_H 	H 	0.7536	0.8961	0.6264	0.038
Mof_C 	C 	0.65601	0.82637	0.58637	-0.134
Mof_C 	C 	0.60235	0.82423	0.62097	0.147
Mof_H 	H 	0.62	0.8528	0.6517	0.006
Mof_C 	C 	0.52524	0.7825	0.61215	-0.323
Mof_C 	C 	0.49778	0.73969	0.56535	0.439
Mof_C 	C 	0.54918	0.74064	0.5308	-0.36
Mof_H 	H 	0.5309	0.7114	0.5004	0.166
Mof_C 	C 	0.62855	0.78415	0.53956	0.21
Mof_C 	C 	0.684	0.7861	0.50457	-0.198
Mof_H 	H 	0.6671	0.7588	0.4733	0.103
Mof_C 	C 	0.75983	0.82598	0.51484	0.102
Mof_H 	H 	0.7955	0.8263	0.491	0.019
Mof_C 	C 	0.86942	0.91102	0.5725	0.372
Mof_C 	C 	0.47189	0.78412	0.65036	0.495
Mof_C 	C 	0.07951	0.04294	0.72036	-0.072
Mof_H 	H 	0.1044	0.0962	0.7076	0.029
Mof_H 	H 	0.1087	0.0189	0.7075	0.004
Mof_O 	O 	0.05147	0.94162	0.61408	-0.498
Mof_O 	O 	0.09013	0.00635	0.5416	-0.58
Mof_O 	O 	0.17704	0.67721	0.69112	-0.504
Mof_O 	O 	0.24857	0.64911	0.64177	-0.564
Mof_O 	O 	0.30392	0.72753	0.55713	-0.577
Mof_C 	C 	0.13234	0.91861	0.56153	-0.203
Mof_C 	C 	0.13238	0.8676	0.59568	0.11
Mof_H 	H 	0.1039	0.8575	0.6264	0.001
Mof_C 	C 	0.17363	0.82964	0.58637	-0.173
Mof_C 	C 	0.17577	0.77812	0.62097	0.165
Mof_H 	H 	0.1472	0.7672	0.6517	-0.017
Mof_C 	C 	0.2175	0.74274	0.61215	-0.343
Mof_C 	C 	0.26031	0.75809	0.56535	0.447
Mof_C 	C 	0.25936	0.80854	0.5308	-0.379
Mof_H 	H 	0.2886	0.8195	0.5004	0.175
Mof_C 	C 	0.21585	0.8444	0.53956	0.231
Mof_C 	C 	0.2139	0.8979	0.50457	-0.23
Mof_H 	H 	0.2412	0.9083	0.4733	0.12
Mof_C 	C 	0.17402	0.93385	0.51484	0.141
Mof_H 	H 	0.1737	0.9692	0.491	0.029
Mof_C 	C 	0.08898	0.9584	0.5725	0.507
Mof_C 	C 	0.21588	0.68777	0.65036	0.499
Mof_C 	C 	0.95706	0.03657	0.72036	-0.003
Mof_H 	H 	0.9038	0.0082	0.7076	0.007
Mof_H 	H 	0.9811	0.0898	0.7075	0.052
Mof_O 	O 	0.94162	0.89015	0.11408	-0.44
Mof_O 	O 	0.00635	0.91622	0.0416	-0.525
Mof_O 	O 	0.67721	0.50017	0.19112	-0.492
Mof_O 	O 	0.64911	0.40054	0.14177	-0.559
Mof_O 	O 	0.72753	0.42361	0.05713	-0.576
Mof_C 	C 	0.91861	0.78627	0.06153	-0.174
Mof_C 	C 	0.8676	0.73522	0.09568	0.1
Mof_H 	H 	0.8575	0.7536	0.1264	0.02
Mof_C 	C 	0.82964	0.65601	0.08637	-0.158
Mof_C 	C 	0.77812	0.60235	0.12097	0.161
Mof_H 	H 	0.7672	0.62	0.1517	-0.005
Mof_C 	C 	0.74274	0.52524	0.11215	-0.335
Mof_C 	C 	0.75809	0.49778	0.06535	0.447
Mof_C 	C 	0.80854	0.54918	0.0308	-0.375
Mof_H 	H 	0.8195	0.5309	0.0004	0.173
Mof_C 	C 	0.8444	0.62855	0.03956	0.232
Mof_C 	C 	0.8979	0.684	0.00457	-0.235
Mof_H 	H 	0.9083	0.6671	0.9733	0.134
Mof_C 	C 	0.93385	0.75983	0.01484	0.119
Mof_H 	H 	0.9692	0.7955	0.991	0.046
Mof_C 	C 	0.9584	0.86942	0.0725	0.481
Mof_C 	C 	0.68777	0.47189	0.15036	0.498
Mof_C 	C 	0.03657	0.07951	0.22036	-0.072
Mof_H 	H 	0.0082	0.1044	0.2076	0.003
Mof_H 	H 	0.0898	0.1087	0.2075	0.026
Mof_O 	O 	0.10985	0.05147	0.11408	-0.522
Mof_O 	O 	0.08378	0.09013	0.0416	-0.506
Mof_O 	O 	0.49983	0.17704	0.19112	-0.508
Mof_O 	O 	0.59946	0.24857	0.14177	-0.565
Mof_O 	O 	0.57639	0.30392	0.05713	-0.581
Mof_C 	C 	0.21373	0.13234	0.06153	-0.176
Mof_C 	C 	0.26478	0.13238	0.09568	0.084
Mof_H 	H 	0.2464	0.1039	0.1264	-0
Mof_C 	C 	0.34399	0.17363	0.08637	-0.17
Mof_C 	C 	0.39765	0.17577	0.12097	0.157
Mof_H 	H 	0.38	0.1472	0.1517	-0.021
Mof_C 	C 	0.47476	0.2175	0.11215	-0.344
Mof_C 	C 	0.50222	0.26031	0.06535	0.441
Mof_C 	C 	0.45082	0.25936	0.0308	-0.38
Mof_H 	H 	0.4691	0.2886	0.0004	0.162
Mof_C 	C 	0.37145	0.21585	0.03956	0.219
Mof_C 	C 	0.316	0.2139	0.00457	-0.241
Mof_H 	H 	0.3329	0.2412	0.9733	0.116
Mof_C 	C 	0.24017	0.17402	0.01484	0.094
Mof_H 	H 	0.2045	0.1737	0.991	0.023
Mof_C 	C 	0.13058	0.08898	0.0725	0.392
Mof_C 	C 	0.52811	0.21588	0.15036	0.497
Mof_C 	C 	0.92049	0.95706	0.22036	0.057
Mof_H 	H 	0.8956	0.9038	0.2076	0.032
Mof_H 	H 	0.8913	0.9811	0.2075	0.051
Mof_O 	O 	0.94853	0.05838	0.11408	-0.422
Mof_O 	O 	0.90987	0.99365	0.0416	-0.339
Mof_O 	O 	0.82296	0.32279	0.19112	-0.485
Mof_O 	O 	0.75143	0.35089	0.14177	-0.554
Mof_O 	O 	0.69608	0.27247	0.05713	-0.578
Mof_C 	C 	0.86766	0.08139	0.06153	-0.109
Mof_C 	C 	0.86762	0.1324	0.09568	0.047
Mof_H 	H 	0.8961	0.1425	0.1264	0.039
Mof_C 	C 	0.82637	0.17036	0.08637	-0.13
Mof_C 	C 	0.82423	0.22188	0.12097	0.139
Mof_H 	H 	0.8528	0.2328	0.1517	0.004
Mof_C 	C 	0.7825	0.25726	0.11215	-0.324
Mof_C 	C 	0.73969	0.24191	0.06535	0.433
Mof_C 	C 	0.74064	0.19146	0.0308	-0.361
Mof_H 	H 	0.7114	0.1805	0.0004	0.154
Mof_C 	C 	0.78415	0.1556	0.03956	0.199
Mof_C 	C 	0.7861	0.1021	0.00457	-0.209
Mof_H 	H 	0.7588	0.0917	0.9733	0.1
Mof_C 	C 	0.82598	0.06615	0.01484	0.059
Mof_H 	H 	0.8263	0.0308	0.991	0.014
Mof_C 	C 	0.91102	0.0416	0.0725	0.27
Mof_C 	C 	0.78412	0.31223	0.15036	0.493
Mof_C 	C 	0.04294	0.96343	0.22036	-0.004
Mof_H 	H 	0.0962	0.9918	0.2076	0.058
Mof_H 	H 	0.0189	0.9102	0.2075	0.006
Mof_O 	O 	0.94162	0.89015	0.38592	-0.44
Mof_O 	O 	0.00635	0.91622	0.4584	-0.521
Mof_O 	O 	0.67721	0.50017	0.30888	-0.492
Mof_O 	O 	0.64911	0.40054	0.35823	-0.559
Mof_O 	O 	0.72753	0.42361	0.44287	-0.574
Mof_C 	C 	0.91861	0.78627	0.43847	-0.177
Mof_C 	C 	0.8676	0.73522	0.40432	0.101
Mof_H 	H 	0.8575	0.7536	0.3736	0.02
Mof_C 	C 	0.82964	0.65601	0.41363	-0.156
Mof_C 	C 	0.77812	0.60235	0.37903	0.16
Mof_H 	H 	0.7672	0.62	0.3483	-0.005
Mof_C 	C 	0.74274	0.52524	0.38785	-0.333
Mof_C 	C 	0.75809	0.49778	0.43465	0.446
Mof_C 	C 	0.80854	0.54918	0.4692	-0.371
Mof_H 	H 	0.8195	0.5309	0.4996	0.175
Mof_C 	C 	0.8444	0.62855	0.46044	0.228
Mof_C 	C 	0.8979	0.684	0.49543	-0.217
Mof_H 	H 	0.9083	0.6671	0.5267	0.12
Mof_C 	C 	0.93385	0.75983	0.48516	0.134
Mof_H 	H 	0.9692	0.7955	0.509	0.033
Mof_C 	C 	0.9584	0.86942	0.4275	0.484
Mof_C 	C 	0.68777	0.47189	0.34964	0.498
Mof_C 	C 	0.03657	0.07951	0.27964	-0.072
Mof_H 	H 	0.0082	0.1044	0.2924	0.003
Mof_H 	H 	0.0898	0.1087	0.2925	0.026
Mof_O 	O 	0.10985	0.05147	0.38592	-0.522
Mof_O 	O 	0.08378	0.09013	0.4584	-0.502
Mof_O 	O 	0.49983	0.17704	0.30888	-0.507
Mof_O 	O 	0.59946	0.24857	0.35823	-0.565
Mof_O 	O 	0.57639	0.30392	0.44287	-0.579
Mof_C 	C 	0.21373	0.13234	0.43847	-0.181
Mof_C 	C 	0.26478	0.13238	0.40432	0.085
Mof_H 	H 	0.2464	0.1039	0.3736	-0
Mof_C 	C 	0.34399	0.17363	0.41363	-0.168
Mof_C 	C 	0.39765	0.17577	0.37903	0.156
Mof_H 	H 	0.38	0.1472	0.3483	-0.021
Mof_C 	C 	0.47476	0.2175	0.38785	-0.343
Mof_C 	C 	0.50222	0.26031	0.43465	0.441
Mof_C 	C 	0.45082	0.25936	0.4692	-0.376
Mof_H 	H 	0.4691	0.2886	0.4996	0.165
Mof_C 	C 	0.37145	0.21585	0.46044	0.215
Mof_C 	C 	0.316	0.2139	0.49543	-0.223
Mof_H 	H 	0.3329	0.2412	0.5267	0.101
Mof_C 	C 	0.24017	0.17402	0.48516	0.112
Mof_H 	H 	0.2045	0.1737	0.509	0.007
Mof_C 	C 	0.13058	0.08898	0.4275	0.395
Mof_C 	C 	0.52811	0.21588	0.34964	0.497
Mof_C 	C 	0.92049	0.95706	0.27964	0.057
Mof_H 	H 	0.8956	0.9038	0.2924	0.033
Mof_H 	H 	0.8913	0.9811	0.2925	0.051
Mof_O 	O 	0.94853	0.05838	0.38592	-0.422
Mof_O 	O 	0.90987	0.99365	0.4584	-0.334
Mof_O 	O 	0.82296	0.32279	0.30888	-0.484
Mof_O 	O 	0.75143	0.35089	0.35823	-0.554
Mof_O 	O 	0.69608	0.27247	0.44287	-0.576
Mof_C 	C 	0.86766	0.08139	0.43847	-0.112
Mof_C 	C 	0.86762	0.1324	0.40432	0.048
Mof_H 	H 	0.8961	0.1425	0.3736	0.039
Mof_C 	C 	0.82637	0.17036	0.41363	-0.128
Mof_C 	C 	0.82423	0.22188	0.37903	0.139
Mof_H 	H 	0.8528	0.2328	0.3483	0.004
Mof_C 	C 	0.7825	0.25726	0.38785	-0.323
Mof_C 	C 	0.73969	0.24191	0.43465	0.433
Mof_C 	C 	0.74064	0.19146	0.4692	-0.357
Mof_H 	H 	0.7114	0.1805	0.4996	0.156
Mof_C 	C 	0.78415	0.1556	0.46044	0.195
Mof_C 	C 	0.7861	0.1021	0.49543	-0.191
Mof_H 	H 	0.7588	0.0917	0.5267	0.085
Mof_C 	C 	0.82598	0.06615	0.48516	0.076
Mof_H 	H 	0.8263	0.0308	0.509	-0
Mof_C 	C 	0.91102	0.0416	0.4275	0.272
Mof_C 	C 	0.78412	0.31223	0.34964	0.493
Mof_C 	C 	0.04294	0.96343	0.27964	-0.004
Mof_H 	H 	0.0962	0.9918	0.2924	0.058
Mof_H 	H 	0.0189	0.9102	0.2925	0.006
Mof_O 	O 	0.05838	0.10985	0.88592	-0.482
Mof_O 	O 	0.99365	0.08378	0.9584	-0.364
Mof_O 	O 	0.32279	0.49983	0.80888	-0.497
Mof_O 	O 	0.35089	0.59946	0.85823	-0.559
Mof_O 	O 	0.27247	0.57639	0.94287	-0.577
Mof_C 	C 	0.08139	0.21373	0.93847	-0.136
Mof_C 	C 	0.1324	0.26478	0.90432	0.054
Mof_H 	H 	0.1425	0.2464	0.8736	0.019
Mof_C 	C 	0.17036	0.34399	0.91363	-0.143
Mof_C 	C 	0.22188	0.39765	0.87903	0.142
Mof_H 	H 	0.2328	0.38	0.8483	-0.009
Mof_C 	C 	0.25726	0.47476	0.88785	-0.331
Mof_C 	C 	0.24191	0.50222	0.93465	0.433
Mof_C 	C 	0.19146	0.45082	0.9692	-0.359
Mof_H 	H 	0.1805	0.4691	0.9996	0.158
Mof_C 	C 	0.1556	0.37145	0.96044	0.192
Mof_C 	C 	0.1021	0.316	0.99543	-0.184
Mof_H 	H 	0.0917	0.3329	0.0267	0.067
Mof_C 	C 	0.06615	0.24017	0.98516	0.096
Mof_H 	H 	0.0308	0.2045	0.009	-0.023
Mof_C 	C 	0.0416	0.13058	0.9275	0.274
Mof_C 	C 	0.31223	0.52811	0.84964	0.494
Mof_C 	C 	0.96343	0.92049	0.77964	0.055
Mof_H 	H 	0.9918	0.8956	0.7924	0.058
Mof_H 	H 	0.9102	0.8913	0.7925	0.03
Mof_O 	O 	0.89015	0.94853	0.88592	-0.405
Mof_O 	O 	0.91622	0.90987	0.9584	-0.401
Mof_O 	O 	0.50017	0.82296	0.80888	-0.481
Mof_O 	O 	0.40054	0.75143	0.85823	-0.554
Mof_O 	O 	0.42361	0.69608	0.94287	-0.572
Mof_C 	C 	0.78627	0.86766	0.93847	-0.137
Mof_C 	C 	0.73522	0.86762	0.90432	0.072
Mof_H 	H 	0.7536	0.8961	0.8736	0.038
Mof_C 	C 	0.65601	0.82637	0.91363	-0.132
Mof_C 	C 	0.60235	0.82423	0.87903	0.147
Mof_H 	H 	0.62	0.8528	0.8483	0.006
Mof_C 	C 	0.52524	0.7825	0.88785	-0.322
Mof_C 	C 	0.49778	0.73969	0.93465	0.439
Mof_C 	C 	0.54918	0.74064	0.9692	-0.356
Mof_H 	H 	0.5309	0.7114	0.9996	0.168
Mof_C 	C 	0.62855	0.78415	0.96044	0.206
Mof_C 	C 	0.684	0.7861	0.99543	-0.181
Mof_H 	H 	0.6671	0.7588	0.0267	0.088
Mof_C 	C 	0.75983	0.82598	0.98516	0.117
Mof_H 	H 	0.7955	0.8263	0.009	0.005
Mof_C 	C 	0.86942	0.91102	0.9275	0.374
Mof_C 	C 	0.47189	0.78412	0.84964	0.495
Mof_C 	C 	0.07951	0.04294	0.77964	-0.073
Mof_H 	H 	0.1044	0.0962	0.7924	0.029
Mof_H 	H 	0.1087	0.0189	0.7925	0.005
Mof_O 	O 	0.05147	0.94162	0.88592	-0.497
Mof_O 	O 	0.09013	0.00635	0.9584	-0.573
Mof_O 	O 	0.17704	0.67721	0.80888	-0.503
Mof_O 	O 	0.24857	0.64911	0.85823	-0.564
Mof_O 	O 	0.30392	0.72753	0.94287	-0.575
Mof_C 	C 	0.13234	0.91861	0.93847	-0.205
Mof_C 	C 	0.13238	0.8676	0.90432	0.111
Mof_H 	H 	0.1039	0.8575	0.8736	0.001
Mof_C 	C 	0.17363	0.82964	0.91363	-0.171
Mof_C 	C 	0.17577	0.77812	0.87903	0.165
Mof_H 	H 	0.1472	0.7672	0.8483	-0.017
Mof_C 	C 	0.2175	0.74274	0.88785	-0.342
Mof_C 	C 	0.26031	0.75809	0.93465	0.447
Mof_C 	C 	0.25936	0.80854	0.9692	-0.375
Mof_H 	H 	0.2886	0.8195	0.9996	0.177
Mof_C 	C 	0.21585	0.8444	0.96044	0.227
Mof_C 	C 	0.2139	0.8979	0.99543	-0.213
Mof_H 	H 	0.2412	0.9083	0.0267	0.105
Mof_C 	C 	0.17402	0.93385	0.98516	0.156
Mof_H 	H 	0.1737	0.9692	0.009	0.015
Mof_C 	C 	0.08898	0.9584	0.9275	0.507
Mof_C 	C 	0.21588	0.68777	0.84964	0.499
Mof_C 	C 	0.95706	0.03657	0.77964	-0.004
Mof_H 	H 	0.9038	0.0082	0.7924	0.007
Mof_H 	H 	0.9811	0.0898	0.7925	0.052
Mof_Zn	Zn	-3.28167e-32	-2.18778e-32	0.62405	1.172
Mof_N 	N 	-0	0	0.70179	-0.305
Mof_Zn	Zn	-2.73472e-33	0	0.12405	1.171
Mof_N 	N 	-5.46945e-33	0	0.20179	-0.306
Mof_Zn	Zn	-5.46945e-33	-1.09389e-32	0.37595	1.171
Mof_N 	N 	-2.73472e-33	-5.46945e-33	0.29821	-0.306
Mof_Zn	Zn	-1.09389e-32	-2.18778e-32	0.87595	1.172
Mof_N 	N 	1.09389e-32	2.18778e-32	0.79821	-0.305
Mof_Zn	Zn	-1.09389e-32	1.09389e-32	0.5	1.183
Mof_Zn	Zn	-0	0	-0	1.179
Mof_Zn	Zn	0.37811	0.56537	0.75	1.213
Mof_O 	O 	0.39786	0.66881	0.75	-0.567
Mof_Zn	Zn	0.43463	0.81274	0.75	1.218
Mof_O 	O 	0.33119	0.72905	0.75	-0.563
Mof_Zn	Zn	0.18726	0.62189	0.75	1.209
Mof_O 	O 	0.27095	0.60214	0.75	-0.572
Mof_Zn	Zn	0.62189	0.43463	0.25	1.213
Mof_O 	O 	0.60214	0.33119	0.25	-0.568
Mof_Zn	Zn	0.56537	0.18726	0.25	1.208
Mof_O 	O 	0.66881	0.27095	0.25	-0.572
Mof_Zn	Zn	0.81274	0.37811	0.25	1.217
Mof_O 	O 	0.72905	0.39786	0.25	-0.563
Mof_Ti	Ti	0.33333	0.66667	0.59294	1.942
Mof_Ti	Ti	0.66667	0.33333	0.09294	1.941
Mof_Ti	Ti	0.66667	0.33333	0.40706	1.942
Mof_Ti	Ti	0.33333	0.66667	0.90706	1.942
Mof_C 	C 	0.33333	0.66667	0.75	0.549
Mof_C 	C 	0.66667	0.33333	0.25	0.55
_end
