data_functionalizedCrystal
_audit_creation_method	'EQeq! by Chris Wilmer'
_symmetry_space_group_name_H-M	'P1'
_symmetry_Int_Tables_number	1
_symmetry_cell_setting	triclinic
loop_
_symmetry_equiv_pos_as_xyz
  x,y,z
_cell_length_a	12.3081
_cell_length_b	12.3081
_cell_length_c	27.375
_cell_angle_alpha	90
_cell_angle_beta	90
_cell_angle_gamma	120
loop_
_atom_site_label
_atom_site_type_symbol
_atom_site_fract_x
_atom_site_fract_y
_atom_site_fract_z
_atom_site_charge
Mof_Fe	Fe	0.48641	0.24321	0.75	0.955
Mof_Fe	Fe	0.51359	0.7568	0.25	0.961
Mof_Fe	Fe	0.2432	0.4864	0.25	0.955
Mof_Fe	Fe	0.7568	0.5136	0.75	0.962
Mof_Fe	Fe	0.2432	0.75679	0.25	0.959
Mof_Fe	Fe	0.7568	0.24321	0.75	0.959
Mof_H 	H 	0.3164	0.9314	0.1059	0.047
Mof_H 	H 	0.2822	0.9747	0.4564	0.1
Mof_H 	H 	0.3075	0.0253	0.5436	0.084
Mof_H 	H 	0.0663	0.7104	0.1265	0.043
Mof_H 	H 	0.7104	0.0663	0.8735	0.039
Mof_H 	H 	0.615	0.9314	0.3941	0.046
Mof_H 	H 	0.3559	0.0663	0.6265	0.038
Mof_H 	H 	0.615	0.6836	0.1059	0.045
Mof_H 	H 	0.0686	0.385	0.1059	0.043
Mof_H 	H 	0.2896	0.9337	0.3735	0.038
Mof_H 	H 	0.3559	0.2896	0.8735	0.035
Mof_H 	H 	0.9337	0.2896	0.6265	0.038
Mof_H 	H 	0.7178	0.0253	0.9564	0.092
Mof_H 	H 	0.6441	0.7104	0.3735	0.04
Mof_H 	H 	0.3075	0.2822	0.9564	0.098
Mof_H 	H 	0.9314	0.3164	0.8941	0.046
Mof_H 	H 	0.0663	0.3559	0.3735	0.038
Mof_H 	H 	0.9314	0.615	0.6059	0.046
Mof_H 	H 	0.385	0.3164	0.6059	0.038
Mof_H 	H 	0.9747	0.6925	0.9564	0.108
Mof_H 	H 	0.7104	0.6441	0.6265	0.041
Mof_H 	H 	0.7178	0.6925	0.5436	0.096
Mof_H 	H 	0.6836	0.615	0.8941	0.045
Mof_H 	H 	0.9337	0.6441	0.8735	0.04
Mof_H 	H 	0.2822	0.3075	0.0436	0.082
Mof_H 	H 	0.9747	0.2822	0.5436	0.099
Mof_H 	H 	0.6925	0.9747	0.0436	0.094
Mof_H 	H 	0.0253	0.7178	0.0436	0.078
Mof_H 	H 	0.6441	0.9337	0.1265	0.043
Mof_H 	H 	0.2896	0.3559	0.1265	0.039
Mof_H 	H 	0.6836	0.0686	0.6059	0.042
Mof_H 	H 	0.6925	0.7178	0.4564	0.096
Mof_H 	H 	0.385	0.0686	0.8941	0.043
Mof_H 	H 	0.0253	0.3075	0.4564	0.085
Mof_H 	H 	0.0686	0.6836	0.3941	0.042
Mof_H 	H 	0.3164	0.385	0.3941	0.038
Mof_C 	C 	0.5502	0.1119	0.82351	0.399
Mof_C 	C 	0.9408	0.5872	0.89492	0.056
Mof_C 	C 	0.8881	0.4498	0.67649	0.403
Mof_C 	C 	0.9408	0.3536	0.60508	0.052
Mof_C 	C 	0.4128	0.3536	0.89492	0.052
Mof_C 	C 	0.4524	0.3929	0.59387	0.051
Mof_C 	C 	0.6071	0.0595	0.59387	0.039
Mof_C 	C 	0.3536	0.4128	0.10508	0.037
Mof_C 	C 	0.3536	0.9408	0.39492	0.052
Mof_C 	C 	0.3502	0.9676	0.44369	-0.104
Mof_C 	C 	0.4383	0.5502	0.32351	0.402
Mof_C 	C 	0.5872	0.9408	0.10508	0.043
Mof_C 	C 	0.0324	0.6498	0.05631	-0.074
Mof_C 	C 	0.4638	0.0163	0.52651	0.03
Mof_C 	C 	0.5471	0.0765	0.87624	-0.113
Mof_C 	C 	0.5502	0.4383	0.67649	0.402
Mof_C 	C 	0.4128	0.0592	0.60508	0.037
Mof_C 	C 	0.4475	0.9837	0.47349	0.073
Mof_C 	C 	0.9715	0.4269	0.95498	-0.05
Mof_C 	C 	0.3929	0.4524	0.40613	0.051
Mof_C 	C 	0.0163	0.5525	0.02651	0.009
Mof_C 	C 	0.4498	0.8881	0.32351	0.403
Mof_C 	C 	0.5872	0.6464	0.39492	0.049
Mof_C 	C 	0.5731	0.0285	0.54502	-0.061
Mof_C 	C 	0.9405	0.5476	0.59387	0.046
Mof_C 	C 	0.5362	0.9837	0.02651	0.049
Mof_C 	C 	0.0765	0.5471	0.12376	-0.108
Mof_C 	C 	0.5446	0.5731	0.04502	-0.06
Mof_C 	C 	0.6464	0.0592	0.89492	0.042
Mof_C 	C 	0.4529	0.5294	0.12376	-0.111
Mof_C 	C 	0.5525	0.0163	0.97349	0.048
Mof_C 	C 	0.8881	0.4383	0.82351	0.402
Mof_C 	C 	0.5294	0.0765	0.62376	-0.113
Mof_C 	C 	0.5471	0.4706	0.62376	-0.119
Mof_C 	C 	0.0285	0.4554	0.04502	-0.051
Mof_C 	C 	0.9715	0.5446	0.54502	-0.061
Mof_C 	C 	0.6498	0.0324	0.94369	-0.093
Mof_C 	C 	0.0324	0.3826	0.44369	-0.087
Mof_C 	C 	0.3502	0.3826	0.05631	-0.084
Mof_C 	C 	0.6498	0.6174	0.55631	-0.098
Mof_C 	C 	0.5476	0.9405	0.40613	0.046
Mof_C 	C 	0.5446	0.9715	0.45498	-0.059
Mof_C 	C 	0.4554	0.4269	0.54502	-0.075
Mof_C 	C 	0.5731	0.5446	0.95498	-0.06
Mof_C 	C 	0.4269	0.9715	0.04502	-0.048
Mof_C 	C 	0.3826	0.0324	0.55631	-0.085
Mof_C 	C 	0.0592	0.4128	0.39492	0.039
Mof_C 	C 	0.4524	0.0595	0.90613	0.036
Mof_C 	C 	0.0595	0.4524	0.09387	0.031
Mof_C 	C 	0.4529	0.9235	0.37624	-0.115
Mof_C 	C 	0.9235	0.4529	0.62376	-0.115
Mof_C 	C 	0.6071	0.5476	0.90613	0.046
Mof_C 	C 	0.4706	0.5471	0.37624	-0.119
Mof_C 	C 	0.9405	0.3929	0.90613	0.043
Mof_C 	C 	0.6174	0.9676	0.05631	-0.091
Mof_C 	C 	0.9235	0.4706	0.87624	-0.115
Mof_C 	C 	0.1119	0.5502	0.17649	0.397
Mof_C 	C 	0.5617	0.1119	0.67649	0.399
Mof_C 	C 	0.4383	0.8881	0.17649	0.4
Mof_C 	C 	0.4475	0.4638	0.02651	0.03
Mof_C 	C 	0.9676	0.6174	0.94369	-0.11
Mof_C 	C 	0.4706	0.9235	0.12376	-0.109
Mof_C 	C 	0.5362	0.5525	0.47349	0.056
Mof_C 	C 	0.4498	0.5617	0.17649	0.4
Mof_C 	C 	0.0285	0.5731	0.45498	-0.063
Mof_C 	C 	0.5617	0.4498	0.82351	0.402
Mof_C 	C 	0.4554	0.0285	0.95498	-0.051
Mof_C 	C 	0.5525	0.5362	0.52651	0.056
Mof_C 	C 	0.9837	0.4475	0.52651	0.07
Mof_C 	C 	0.9676	0.3502	0.55631	-0.103
Mof_C 	C 	0.0595	0.6071	0.40613	0.041
Mof_C 	C 	0.3929	0.9405	0.09387	0.036
Mof_C 	C 	0.4269	0.4554	0.45498	-0.075
Mof_C 	C 	0.9837	0.5362	0.97349	0.088
Mof_C 	C 	0.0765	0.5294	0.37624	-0.114
Mof_C 	C 	0.1119	0.5617	0.32351	0.399
Mof_C 	C 	0.6174	0.6498	0.44369	-0.098
Mof_C 	C 	0.0592	0.6464	0.10508	0.029
Mof_C 	C 	0.5294	0.4529	0.87624	-0.117
Mof_C 	C 	0.4638	0.4475	0.97349	0.072
Mof_C 	C 	0.0163	0.4638	0.47349	0.033
Mof_C 	C 	0.5476	0.6071	0.09387	0.039
Mof_C 	C 	0.6464	0.5872	0.60508	0.049
Mof_C 	C 	0.3826	0.3502	0.94369	-0.105
Mof_S 	S 	0.34079	0.34079	0.5	0.317
Mof_S 	S 	3.16551e-17	0.34079	-0	0.249
Mof_S 	S 	5.37409e-17	0.65921	0.5	0.284
Mof_S 	S 	0.34079	0	-0	0.245
Mof_S 	S 	0.65921	0	0.5	0.279
Mof_S 	S 	0.65921	0.65921	-0	0.281
Mof_O 	O 	0.5241	0.8542	0.31129	-0.391
Mof_O 	O 	0.8852	0.2243	0.01129	-0.201
Mof_O 	O 	0.2243	0.3391	0.51129	-0.219
Mof_O 	O 	0.4759	0.1458	0.81129	-0.395
Mof_O 	O 	0.7757	0.6609	0.01129	-0.208
Mof_O 	O 	0.4757	0.3633	0.79692	-0.382
Mof_O 	O 	0.6367	0.1124	0.79692	-0.382
Mof_O 	O 	0.2243	0.8852	0.98871	-0.18
Mof_O 	O 	0.6609	0.8852	0.51129	-0.195
Mof_O 	O 	0.3391	0.1148	0.01129	-0.211
Mof_O 	O 	0.4757	0.1124	0.70308	-0.383
Mof_O 	O 	0.1148	0.7757	0.51129	-0.207
Mof_O 	O 	0.33333	0.66666	0.25	-0.525
Mof_O 	O 	0.1458	0.4759	0.18871	-0.395
Mof_O 	O 	0.1124	0.6367	0.20308	-0.382
Mof_O 	O 	0.7757	0.1148	0.48871	-0.207
Mof_O 	O 	0.3633	0.8876	0.29692	-0.379
Mof_O 	O 	0.1148	0.3391	0.98871	-0.192
Mof_O 	O 	0.5243	0.6367	0.29692	-0.38
Mof_O 	O 	0.6609	0.7757	0.98871	-0.189
Mof_O 	O 	0.5243	0.8876	0.20308	-0.378
Mof_O 	O 	0.3301	0.4759	0.31129	-0.395
Mof_O 	O 	0.6699	0.1458	0.68871	-0.394
Mof_O 	O 	0.6367	0.5243	0.70308	-0.38
Mof_O 	O 	0.8876	0.5243	0.79692	-0.378
Mof_O 	O 	0.3633	0.4757	0.20308	-0.382
Mof_O 	O 	0.4759	0.3301	0.68871	-0.395
Mof_O 	O 	0.66667	0.33334	0.75	-0.525
Mof_O 	O 	0.3301	0.8542	0.18871	-0.392
Mof_O 	O 	0.8876	0.3633	0.70308	-0.379
Mof_O 	O 	0.8542	0.5241	0.68871	-0.391
Mof_O 	O 	0.1124	0.4757	0.29692	-0.383
Mof_O 	O 	0.6699	0.5241	0.81129	-0.392
Mof_O 	O 	0.8852	0.6609	0.48871	-0.197
Mof_O 	O 	0.3391	0.2243	0.48871	-0.219
Mof_O 	O 	0.8542	0.3301	0.81129	-0.392
Mof_O 	O 	0.1458	0.6699	0.31129	-0.394
Mof_O 	O 	0.5241	0.6699	0.18871	-0.392
_end
