data_functionalizedCrystal
_audit_creation_method	'EQeq! by Chris Wilmer'
_symmetry_space_group_name_H-M	'P1'
_symmetry_Int_Tables_number	1
_symmetry_cell_setting	triclinic
loop_
_symmetry_equiv_pos_as_xyz
  x,y,z
_cell_length_a	11.2582
_cell_length_b	11.8812
_cell_length_c	16.2122
_cell_angle_alpha	90
_cell_angle_beta	129.572
_cell_angle_gamma	90
loop_
_atom_site_label
_atom_site_type_symbol
_atom_site_fract_x
_atom_site_fract_y
_atom_site_fract_z
_atom_site_charge
Mof_C 	C 	0.1417	0.89378	0.76829	-0.085
Mof_C 	C 	0.0831	0.80567	0.69634	0.064
Mof_H 	H 	0.9789	0.7852	0.6553	0.057
Mof_C 	C 	0.17952	0.74726	0.68498	-0.105
Mof_C 	C 	0.1179	0.65034	0.60947	0.405
Mof_C 	C 	0.33302	0.77904	0.74508	0.052
Mof_H 	H 	0.398	0.74	0.7373	0.059
Mof_C 	C 	0.3909	0.86837	0.81667	-0.076
Mof_C 	C 	0.2957	0.9253	0.82933	0.039
Mof_H 	H 	0.3349	0.9847	0.8787	0.059
Mof_C 	C 	0.5558	0.90342	0.87993	0.314
Mof_O 	O 	0.06653	0.9282	0.88699	-0.412
Mof_O 	O 	0.86577	0.93933	0.69636	-0.223
Mof_O 	O 	0.06	0.08601	0.79104	-0.263
Mof_O 	O 	0.21448	0.57927	0.62625	-0.446
Mof_O 	O 	0.97489	0.64654	0.53464	-0.461
Mof_O 	O 	0.64042	0.8529	0.86767	-0.344
Mof_O 	O 	0.60626	0.98427	0.94421	-0.376
Mof_S 	S 	0.02221	0.96954	0.78479	0.502
Mof_Zn	Zn	0.1772	0.02597	0.01796	1.234
Mof_C 	C 	0.8583	0.39378	0.73171	-0.077
Mof_C 	C 	0.9169	0.30567	0.80366	0.039
Mof_H 	H 	0.0211	0.2852	0.8447	0.069
Mof_C 	C 	0.82048	0.24726	0.81502	-0.092
Mof_C 	C 	0.8821	0.15034	0.89053	0.386
Mof_C 	C 	0.66698	0.27904	0.75492	0.042
Mof_H 	H 	0.602	0.24	0.7627	0.063
Mof_C 	C 	0.6091	0.36837	0.68333	-0.069
Mof_C 	C 	0.7043	0.4253	0.67067	0.032
Mof_H 	H 	0.6651	0.4847	0.6213	0.063
Mof_C 	C 	0.4442	0.40342	0.62007	0.311
Mof_O 	O 	0.93347	0.4282	0.61301	-0.412
Mof_O 	O 	0.13423	0.43933	0.80364	-0.219
Mof_O 	O 	0.94	0.58601	0.70896	-0.272
Mof_O 	O 	0.78552	0.07927	0.87375	-0.44
Mof_O 	O 	0.02511	0.14654	0.96536	-0.445
Mof_O 	O 	0.35958	0.3529	0.63233	-0.339
Mof_O 	O 	0.39374	0.48427	0.55579	-0.372
Mof_S 	S 	0.97779	0.46954	0.71521	0.502
Mof_Zn	Zn	0.8228	0.52597	0.48204	1.238
Mof_C 	C 	0.8583	0.10622	0.23171	-0.086
Mof_C 	C 	0.9169	0.19433	0.30366	0.063
Mof_H 	H 	0.0211	0.2148	0.3447	0.056
Mof_C 	C 	0.82048	0.25274	0.31502	-0.106
Mof_C 	C 	0.8821	0.34966	0.39053	0.405
Mof_C 	C 	0.66698	0.22096	0.25492	0.052
Mof_H 	H 	0.602	0.26	0.2627	0.059
Mof_C 	C 	0.6091	0.13163	0.18333	-0.076
Mof_C 	C 	0.7043	0.0747	0.17067	0.039
Mof_H 	H 	0.6651	0.0153	0.1213	0.059
Mof_C 	C 	0.4442	0.09658	0.12007	0.314
Mof_O 	O 	0.93347	0.0718	0.11301	-0.412
Mof_O 	O 	0.13423	0.06067	0.30364	-0.223
Mof_O 	O 	0.94	0.91399	0.20896	-0.263
Mof_O 	O 	0.78552	0.42073	0.37375	-0.446
Mof_O 	O 	0.02511	0.35346	0.46536	-0.461
Mof_O 	O 	0.35958	0.1471	0.13233	-0.344
Mof_O 	O 	0.39374	0.01573	0.05579	-0.376
Mof_S 	S 	0.97779	0.03046	0.21521	0.502
Mof_Zn	Zn	0.8228	0.97403	0.98204	1.234
Mof_C 	C 	0.1417	0.60622	0.26829	-0.077
Mof_C 	C 	0.0831	0.69433	0.19634	0.039
Mof_H 	H 	0.9789	0.7148	0.1553	0.069
Mof_C 	C 	0.17952	0.75274	0.18498	-0.092
Mof_C 	C 	0.1179	0.84966	0.10947	0.386
Mof_C 	C 	0.33302	0.72096	0.24508	0.042
Mof_H 	H 	0.398	0.76	0.2373	0.063
Mof_C 	C 	0.3909	0.63163	0.31667	-0.069
Mof_C 	C 	0.2957	0.5747	0.32933	0.032
Mof_H 	H 	0.3349	0.5153	0.3787	0.063
Mof_C 	C 	0.5558	0.59658	0.37993	0.311
Mof_O 	O 	0.06653	0.5718	0.38699	-0.412
Mof_O 	O 	0.86577	0.56067	0.19636	-0.219
Mof_O 	O 	0.06	0.41399	0.29104	-0.272
Mof_O 	O 	0.21448	0.92073	0.12625	-0.44
Mof_O 	O 	0.97489	0.85346	0.03464	-0.445
Mof_O 	O 	0.64042	0.6471	0.36767	-0.339
Mof_O 	O 	0.60626	0.51573	0.44421	-0.372
Mof_S 	S 	0.02221	0.53046	0.28479	0.502
Mof_Zn	Zn	0.1772	0.47403	0.51796	1.238
_end
