data_functionalizedCrystal
_audit_creation_method	'EQeq! by Chris Wilmer'
_symmetry_space_group_name_H-M	'P1'
_symmetry_Int_Tables_number	1
_symmetry_cell_setting	triclinic
loop_
_symmetry_equiv_pos_as_xyz
  x,y,z
_cell_length_a	16.3351
_cell_length_b	9.275
_cell_length_c	17.2416
_cell_angle_alpha	90
_cell_angle_beta	117.987
_cell_angle_gamma	90
loop_
_atom_site_label
_atom_site_type_symbol
_atom_site_fract_x
_atom_site_fract_y
_atom_site_fract_z
_atom_site_charge
Mof_Zn	Zn	0.135	0.1223	0.02328	1.231
Mof_P 	P 	0.14325	0.37332	0.90085	0.459
Mof_P 	P 	0.02012	0.91852	0.63382	0.347
Mof_O 	O 	0.14208	0.31937	0.9841	-0.458
Mof_O 	O 	0.235	0.43628	0.91834	-0.432
Mof_O 	O 	0.1089	0.25988	0.8299	-0.49
Mof_O 	O 	0.0655	0.02466	0.7092	-0.45
Mof_O 	O 	0.0891	0.8597	0.60697	-0.45
Mof_O 	O 	0.93101	0.97642	0.56141	-0.421
Mof_H 	H 	0.0862	0.48639	0.87413	-0.053
Mof_H 	H 	0.99178	0.81108	0.66301	0.037
Mof_Zn	Zn	0.635	0.6223	0.02328	1.238
Mof_P 	P 	0.64325	0.87332	0.90085	0.462
Mof_P 	P 	0.52012	0.41852	0.63382	0.476
Mof_O 	O 	0.64208	0.81937	0.9841	-0.448
Mof_O 	O 	0.735	0.93628	0.91834	-0.426
Mof_O 	O 	0.6089	0.75988	0.8299	-0.471
Mof_O 	O 	0.5655	0.52466	0.7092	-0.44
Mof_O 	O 	0.5891	0.3597	0.60697	-0.444
Mof_O 	O 	0.43101	0.47642	0.56141	-0.491
Mof_H 	H 	0.5862	0.98639	0.87413	-0.034
Mof_H 	H 	0.49178	0.31108	0.66301	-0.036
Mof_Zn	Zn	0.865	0.1223	0.47672	1.239
Mof_P 	P 	0.85675	0.37332	0.59915	0.463
Mof_P 	P 	0.97988	0.91852	0.86618	0.598
Mof_O 	O 	0.85792	0.31937	0.5159	-0.428
Mof_O 	O 	0.765	0.43628	0.58166	-0.421
Mof_O 	O 	0.8911	0.25988	0.6701	-0.442
Mof_O 	O 	0.9345	0.02466	0.7908	-0.424
Mof_O 	O 	0.9109	0.8597	0.89303	-0.444
Mof_O 	O 	0.06899	0.97642	0.93859	-0.554
Mof_H 	H 	0.9138	0.48639	0.62587	-0.013
Mof_H 	H 	0.00822	0.81108	0.83699	-0.104
Mof_Zn	Zn	0.365	0.6223	0.47672	1.235
Mof_P 	P 	0.35675	0.87332	0.59915	0.462
Mof_P 	P 	0.47988	0.41852	0.86618	0.476
Mof_O 	O 	0.35792	0.81937	0.5159	-0.445
Mof_O 	O 	0.265	0.93628	0.58166	-0.429
Mof_O 	O 	0.3911	0.75988	0.6701	-0.473
Mof_O 	O 	0.4345	0.52466	0.7908	-0.445
Mof_O 	O 	0.4109	0.3597	0.89303	-0.449
Mof_O 	O 	0.56899	0.47642	0.93859	-0.492
Mof_H 	H 	0.4138	0.98639	0.62587	-0.035
Mof_H 	H 	0.50822	0.31108	0.83699	-0.036
Mof_Zn	Zn	0.865	0.8777	0.97672	1.236
Mof_P 	P 	0.85675	0.62668	0.09915	0.464
Mof_P 	P 	0.97988	0.08148	0.36618	0.607
Mof_O 	O 	0.85792	0.68063	0.0159	-0.422
Mof_O 	O 	0.765	0.56372	0.08166	-0.418
Mof_O 	O 	0.8911	0.74012	0.1701	-0.438
Mof_O 	O 	0.9345	0.97534	0.2908	-0.421
Mof_O 	O 	0.9109	0.1403	0.39303	-0.441
Mof_O 	O 	0.06899	0.02358	0.43859	-0.558
Mof_H 	H 	0.9138	0.51361	0.12587	-0.011
Mof_H 	H 	0.00822	0.18892	0.33699	-0.109
Mof_Zn	Zn	0.365	0.3777	0.97672	1.234
Mof_P 	P 	0.35675	0.12668	0.09915	0.462
Mof_P 	P 	0.47988	0.58148	0.36618	0.476
Mof_O 	O 	0.35792	0.18063	0.0159	-0.442
Mof_O 	O 	0.265	0.06372	0.08166	-0.429
Mof_O 	O 	0.3911	0.24012	0.1701	-0.473
Mof_O 	O 	0.4345	0.47534	0.2908	-0.444
Mof_O 	O 	0.4109	0.6403	0.39303	-0.448
Mof_O 	O 	0.56899	0.52358	0.43859	-0.488
Mof_H 	H 	0.4138	0.01361	0.12587	-0.034
Mof_H 	H 	0.50822	0.68892	0.33699	-0.035
Mof_Zn	Zn	0.135	0.8777	0.52328	1.231
Mof_P 	P 	0.14325	0.62668	0.40085	0.46
Mof_P 	P 	0.02012	0.08148	0.13382	0.34
Mof_O 	O 	0.14208	0.68063	0.4841	-0.458
Mof_O 	O 	0.235	0.56372	0.41834	-0.431
Mof_O 	O 	0.1089	0.74012	0.3299	-0.491
Mof_O 	O 	0.0655	0.97534	0.2092	-0.45
Mof_O 	O 	0.0891	0.1403	0.10697	-0.449
Mof_O 	O 	0.93101	0.02358	0.06141	-0.414
Mof_H 	H 	0.0862	0.51361	0.37413	-0.054
Mof_H 	H 	0.99178	0.18892	0.16301	0.041
Mof_Zn	Zn	0.635	0.3777	0.52328	1.236
Mof_P 	P 	0.64325	0.12668	0.40085	0.462
Mof_P 	P 	0.52012	0.58148	0.13382	0.476
Mof_O 	O 	0.64208	0.18063	0.4841	-0.443
Mof_O 	O 	0.735	0.06372	0.41834	-0.423
Mof_O 	O 	0.6089	0.24012	0.3299	-0.47
Mof_O 	O 	0.5655	0.47534	0.2092	-0.439
Mof_O 	O 	0.5891	0.6403	0.10697	-0.442
Mof_O 	O 	0.43101	0.52358	0.06141	-0.489
Mof_H 	H 	0.5862	0.01361	0.37413	-0.034
Mof_H 	H 	0.49178	0.68892	0.16301	-0.035
Mof_Zn	Zn	-4.92844e-17	0.15385	0.75	1.203
Mof_Zn	Zn	0.5	0.65385	0.75	1.229
Mof_Zn	Zn	1.45365e-33	0.84615	0.25	1.201
Mof_Zn	Zn	0.5	0.34615	0.25	1.23
_end
