data_functionalizedCrystal
_audit_creation_method	'EQeq! by Chris Wilmer'
_symmetry_space_group_name_H-M	'P1'
_symmetry_Int_Tables_number	1
_symmetry_cell_setting	triclinic
loop_
_symmetry_equiv_pos_as_xyz
  x,y,z
_cell_length_a	24.98
_cell_length_b	19.327
_cell_length_c	21.407
_cell_angle_alpha	90
_cell_angle_beta	96.019
_cell_angle_gamma	90
loop_
_atom_site_label
_atom_site_type_symbol
_atom_site_fract_x
_atom_site_fract_y
_atom_site_fract_z
_atom_site_charge
Mof_Ag	Ag	0.98943	0.20635	0.27645	0.454
Mof_Ag	Ag	0.05897	0.51842	0.23451	0.494
Mof_Ag	Ag	0.73334	0.32836	0.9253	0.478
Mof_Ag	Ag	0.59344	0.21858	0.87476	0.495
Mof_Ag	Ag	0.53719	0.28686	0.71546	0.451
Mof_Ag	Ag	0.55325	0.48102	0.73053	0.489
Mof_Ag	Ag	0.49125	0.56715	0.56602	0.451
Mof_Ag	Ag	0.19452	0.71268	0.44801	0.485
Mof_Ag	Ag	0.92169	0.29205	0.12249	0.417
Mof_C 	C 	0.514	0.6336	0.7638	0.029
Mof_C 	C 	0.5328	0.6259	0.8296	0.137
Mof_C 	C 	0.5587	0.6803	0.8621	-0.364
Mof_H 	H 	0.5627	0.7219	0.8412	0.114
Mof_C 	C 	0.5786	0.6747	0.9244	0.426
Mof_C 	C 	0.5711	0.6133	0.9544	-0.399
Mof_H 	H 	0.5854	0.6082	0.996	0.15
Mof_C 	C 	0.5431	0.559	0.9253	0.227
Mof_H 	H 	0.537	0.5189	0.9475	-0.067
Mof_C 	C 	0.5241	0.5649	0.8623	-0.253
Mof_H 	H 	0.5056	0.5283	0.8418	0.076
Mof_C 	C 	0.6091	0.7341	0.9576	-0.904
Mof_H 	H 	0.6201	0.7213	0.0003	0.268
Mof_H 	H 	0.5862	0.774	0.9569	0.274
Mof_H 	H 	0.6402	0.7445	0.9366	0.267
Mof_C 	C 	0.5299	0.3435	0.567	0.047
Mof_C 	C 	0.5391	0.2769	0.5378	0.121
Mof_C 	C 	0.5766	0.2319	0.5675	-0.227
Mof_H 	H 	0.5946	0.2433	0.6063	0.083
Mof_C 	C 	0.5875	0.1683	0.5382	0.208
Mof_H 	H 	0.6137	0.1388	0.5571	-0.066
Mof_C 	C 	0.5601	0.1505	0.4835	-0.378
Mof_H 	H 	0.5673	0.1082	0.4655	0.149
Mof_C 	C 	0.5214	0.1932	0.4531	0.348
Mof_C 	C 	0.5115	0.2571	0.4805	-0.326
Mof_H 	H 	0.4861	0.2869	0.4602	0.096
Mof_C 	C 	0.4862	0.1691	0.395	-0.804
Mof_H 	H 	0.4984	0.1247	0.3823	0.241
Mof_H 	H 	0.4884	0.2018	0.3617	0.226
Mof_H 	H 	0.4496	0.1656	0.4044	0.237
Mof_C 	C 	0.6413	0.4255	0.8472	0.044
Mof_C 	C 	0.665	0.4904	0.8732	0.14
Mof_C 	C 	0.6643	0.5489	0.8347	-0.325
Mof_H 	H 	0.6475	0.5471	0.7938	0.115
Mof_C 	C 	0.689	0.6107	0.8579	0.399
Mof_C 	C 	0.7118	0.6102	0.9198	-0.402
Mof_H 	H 	0.728	0.6504	0.9365	0.136
Mof_C 	C 	0.7116	0.553	0.9572	0.243
Mof_H 	H 	0.7272	0.5551	0.9986	-0.078
Mof_C 	C 	0.6887	0.4931	0.9346	-0.269
Mof_H 	H 	0.6889	0.4541	0.9601	0.09
Mof_C 	C 	0.6872	0.6714	0.8143	-0.877
Mof_H 	H 	0.7047	0.7102	0.8357	0.251
Mof_H 	H 	0.6504	0.683	0.8009	0.265
Mof_H 	H 	0.7054	0.6599	0.7784	0.253
Mof_C 	C 	0.8492	0.4037	0.9648	0.041
Mof_C 	C 	0.8443	0.4608	0.9202	0.197
Mof_C 	C 	0.8597	0.5306	0.9381	-0.436
Mof_H 	H 	0.8741	0.5388	0.9793	0.191
Mof_C 	C 	0.8542	0.5842	0.8982	0.521
Mof_C 	C 	0.8341	0.5695	0.836	-0.444
Mof_H 	H 	0.8292	0.6052	0.8068	0.146
Mof_C 	C 	0.8213	0.5008	0.8174	0.249
Mof_H 	H 	0.8109	0.4906	0.7754	-0.081
Mof_C 	C 	0.8243	0.4503	0.8609	-0.315
Mof_H 	H 	0.8118	0.4064	0.8491	0.104
Mof_C 	C 	0.8677	0.6575	0.9163	-1.034
Mof_H 	H 	0.8814	0.6593	0.9599	0.323
Mof_H 	H 	0.8359	0.6855	0.9096	0.303
Mof_H 	H 	0.8944	0.6747	0.8912	0.333
Mof_C 	C 	0.0329	0.3614	0.2577	0.013
Mof_C 	C 	0.05	0.3695	0.3254	0.213
Mof_C 	C 	0.0342	0.426	0.3579	-0.356
Mof_H 	H 	0.0111	0.4589	0.3381	0.11
Mof_C 	C 	0.0537	0.4329	0.4213	0.36
Mof_H 	H 	0.0439	0.4711	0.444	-0.114
Mof_C 	C 	0.0868	0.3844	0.4498	-0.566
Mof_H 	H 	0.0987	0.3896	0.4922	0.204
Mof_C 	C 	0.1024	0.3303	0.4197	0.552
Mof_C 	C 	0.0822	0.3206	0.3565	-0.458
Mof_H 	H 	0.0908	0.2805	0.3357	0.149
Mof_C 	C 	0.1393	0.2782	0.4548	-1.031
Mof_H 	H 	0.1485	0.2938	0.4971	0.304
Mof_H 	H 	0.1715	0.2735	0.4343	0.293
Mof_H 	H 	0.1214	0.2343	0.4552	0.308
Mof_C 	C 	0.1368	0.5929	0.3504	0.005
Mof_C 	C 	0.1672	0.5348	0.3803	0.291
Mof_C 	C 	0.1911	0.5392	0.4404	-0.432
Mof_H 	H 	0.1856	0.5781	0.4644	0.141
Mof_C 	C 	0.2228	0.4871	0.4655	0.432
Mof_H 	H 	0.2393	0.4906	0.5064	-0.149
Mof_C 	C 	0.2305	0.4287	0.4301	-0.647
Mof_H 	H 	0.2523	0.3932	0.4476	0.222
Mof_C 	C 	0.2069	0.4223	0.3701	0.694
Mof_C 	C 	0.1751	0.4744	0.346	-0.56
Mof_H 	H 	0.1579	0.4701	0.3055	0.199
Mof_C 	C 	0.2177	0.362	0.3315	-1.26
Mof_H 	H 	0.1981	0.3666	0.2907	0.375
Mof_H 	H 	0.2064	0.3207	0.3512	0.366
Mof_H 	H 	0.2555	0.3595	0.3273	0.369
Mof_C 	C 	0.6821	0.1524	0.0428	0.082
Mof_C 	C 	0.6973	0.1284	0.1101	0.071
Mof_C 	C 	0.7262	0.1679	0.1562	-0.218
Mof_H 	H 	0.739	0.2114	0.1463	0.071
Mof_C 	C 	0.7361	0.1426	0.2171	0.22
Mof_C 	C 	0.7171	0.0776	0.2318	-0.245
Mof_H 	H 	0.7238	0.0606	0.2725	0.108
Mof_C 	C 	0.6882	0.038	0.1857	0.109
Mof_H 	H 	0.6755	0.9946	0.1955	-0.044
Mof_C 	C 	0.6783	0.0634	0.1248	-0.169
Mof_H 	H 	0.659	0.037	0.0939	0.069
Mof_C 	C 	0.7749	0.193	0.2631	-0.588
Mof_H 	H 	0.7806	0.1729	0.3042	0.167
Mof_H 	H 	0.7581	0.2375	0.2656	0.168
Mof_H 	H 	0.8089	0.1984	0.2464	0.188
Mof_N 	N 	0.49	0.6892	0.7382	-0.162
Mof_N 	N 	0.4789	0.6752	0.6764	-0.142
Mof_N 	N 	0.4968	0.6142	0.665	-0.131
Mof_N 	N 	0.5188	0.5854	0.7192	-0.165
Mof_N 	N 	0.5202	0.4032	0.5352	-0.161
Mof_N 	N 	0.5174	0.4513	0.581	-0.126
Mof_N 	N 	0.5257	0.4223	0.6354	-0.126
Mof_N 	N 	0.5338	0.3535	0.6294	-0.158
Mof_N 	N 	0.6016	0.4177	0.8008	-0.158
Mof_N 	N 	0.594	0.3489	0.7938	-0.125
Mof_N 	N 	0.6277	0.3153	0.8337	-0.129
Mof_N 	N 	0.6589	0.362	0.8681	-0.155
Mof_N 	N 	0.8195	0.3487	0.9599	-0.157
Mof_N 	N 	0.8383	0.3083	0.0078	-0.131
Mof_N 	N 	0.8783	0.3408	0.04	-0.14
Mof_N 	N 	0.8869	0.3995	0.0144	-0.125
Mof_N 	N 	0.0342	0.4109	0.2164	-0.158
Mof_N 	N 	0.0149	0.383	0.1614	-0.116
Mof_N 	N 	0.0035	0.3181	0.1702	-0.134
Mof_N 	N 	0.0147	0.3022	0.2324	-0.162
Mof_N 	N 	0.1428	0.6566	0.3738	-0.15
Mof_N 	N 	0.1093	0.6971	0.3359	-0.135
Mof_N 	N 	0.0854	0.6582	0.2908	-0.123
Mof_N 	N 	0.102	0.5941	0.2993	-0.149
Mof_N 	N 	0.6404	0.1485	0.0003	-0.118
Mof_N 	N 	0.6488	0.1964	0.9586	-0.124
Mof_N 	N 	0.6935	0.2263	0.9749	-0.114
Mof_N 	N 	0.7165	0.1992	0.0284	-0.165
Mof_Ag	Ag	0.02115	0.93605	0.43958	1.353
Mof_C 	C 	0.9852	0.1583	0.4254	0.051
Mof_C 	C 	0.9723	0.228	0.4487	0.121
Mof_C 	C 	0.9956	0.2502	0.5079	-0.315
Mof_H 	H 	0.0198	0.2223	0.5323	0.113
Mof_C 	C 	0.9813	0.3156	0.5293	0.314
Mof_C 	C 	0.9433	0.3538	0.4922	-0.343
Mof_H 	H 	0.933	0.3967	0.5066	0.132
Mof_C 	C 	0.9201	0.3304	0.4344	0.185
Mof_H 	H 	0.8951	0.3573	0.4101	-0.067
Mof_C 	C 	0.9345	0.2679	0.4139	-0.239
Mof_H 	H 	0.9186	0.2514	0.3756	0.08
Mof_C 	C 	0.0112	0.3428	0.5912	-0.731
Mof_H 	H 	0.9977	0.3878	0.6003	0.222
Mof_H 	H 	0.0056	0.3116	0.6248	0.206
Mof_H 	H 	0.049	0.3459	0.5869	0.215
Mof_N 	N 	0.0004	0.1038	0.4608	-0.145
Mof_N 	N 	0.0053	0.0514	0.4185	-0.123
Mof_N 	N 	0.9953	0.075	0.3625	-0.114
Mof_N 	N 	0.9831	0.1434	0.3641	-0.159
Mof_Ag	Ag	0.06928	0.9793	0.44327	-0.466
Mof_Ag	Ag	0.97042	0.9128	0.43647	-0.599
Mof_Ag	Ag	0.01057	0.70635	0.22355	0.455
Mof_Ag	Ag	0.94103	0.01842	0.26549	0.488
Mof_Ag	Ag	0.26666	0.82836	0.5747	0.477
Mof_Ag	Ag	0.40656	0.71858	0.62524	0.495
Mof_Ag	Ag	0.46281	0.78686	0.78454	0.452
Mof_Ag	Ag	0.44675	0.98102	0.76947	0.489
Mof_Ag	Ag	0.50875	0.06715	0.93398	0.451
Mof_Ag	Ag	0.80548	0.21268	0.05199	0.484
Mof_Ag	Ag	0.07831	0.79205	0.37751	0.417
Mof_C 	C 	0.486	0.1336	0.7362	0.029
Mof_C 	C 	0.4672	0.1259	0.6704	0.137
Mof_C 	C 	0.4413	0.1803	0.6379	-0.365
Mof_H 	H 	0.4373	0.2219	0.6588	0.114
Mof_C 	C 	0.4214	0.1747	0.5756	0.428
Mof_C 	C 	0.4289	0.1133	0.5456	-0.401
Mof_H 	H 	0.4146	0.1082	0.504	0.15
Mof_C 	C 	0.4569	0.059	0.5747	0.229
Mof_H 	H 	0.463	0.0189	0.5525	-0.067
Mof_C 	C 	0.4759	0.0649	0.6377	-0.254
Mof_H 	H 	0.4944	0.0283	0.6582	0.077
Mof_C 	C 	0.3909	0.2341	0.5424	-0.908
Mof_H 	H 	0.3799	0.2213	0.4997	0.269
Mof_H 	H 	0.4138	0.274	0.5431	0.275
Mof_H 	H 	0.3598	0.2445	0.5634	0.268
Mof_C 	C 	0.4701	0.8435	0.933	0.048
Mof_C 	C 	0.4609	0.7769	0.9622	0.121
Mof_C 	C 	0.4234	0.7319	0.9325	-0.227
Mof_H 	H 	0.4054	0.7433	0.8937	0.083
Mof_C 	C 	0.4125	0.6683	0.9618	0.207
Mof_H 	H 	0.3863	0.6388	0.9429	-0.066
Mof_C 	C 	0.4399	0.6505	0.0165	-0.377
Mof_H 	H 	0.4327	0.6082	0.0345	0.149
Mof_C 	C 	0.4786	0.6932	0.0469	0.348
Mof_C 	C 	0.4885	0.7571	0.0195	-0.325
Mof_H 	H 	0.5139	0.7869	0.0398	0.096
Mof_C 	C 	0.5138	0.6691	0.105	-0.803
Mof_H 	H 	0.5016	0.6247	0.1177	0.24
Mof_H 	H 	0.5116	0.7018	0.1383	0.226
Mof_H 	H 	0.5504	0.6656	0.0956	0.237
Mof_C 	C 	0.3587	0.9255	0.6528	0.043
Mof_C 	C 	0.335	0.9904	0.6268	0.14
Mof_C 	C 	0.3357	0.0489	0.6653	-0.324
Mof_H 	H 	0.3525	0.0471	0.7062	0.115
Mof_C 	C 	0.311	0.1107	0.6421	0.4
Mof_C 	C 	0.2882	0.1102	0.5802	-0.403
Mof_H 	H 	0.272	0.1504	0.5635	0.137
Mof_C 	C 	0.2884	0.053	0.5428	0.247
Mof_H 	H 	0.2728	0.0551	0.5014	-0.079
Mof_C 	C 	0.3113	0.9931	0.5654	-0.273
Mof_H 	H 	0.3111	0.9541	0.5399	0.091
Mof_C 	C 	0.3128	0.1714	0.6857	-0.877
Mof_H 	H 	0.2953	0.2102	0.6643	0.25
Mof_H 	H 	0.3496	0.183	0.6991	0.265
Mof_H 	H 	0.2946	0.1599	0.7216	0.254
Mof_C 	C 	0.1508	0.9037	0.5352	0.037
Mof_C 	C 	0.1557	0.9608	0.5798	0.202
Mof_C 	C 	0.1403	0.0306	0.5619	-0.439
Mof_H 	H 	0.1259	0.0388	0.5207	0.193
Mof_C 	C 	0.1458	0.0842	0.6018	0.528
Mof_C 	C 	0.1659	0.0695	0.664	-0.455
Mof_H 	H 	0.1708	0.1052	0.6932	0.15
Mof_C 	C 	0.1787	0.0008	0.6826	0.269
Mof_H 	H 	0.1891	0.9906	0.7246	-0.09
Mof_C 	C 	0.1757	0.9503	0.6391	-0.331
Mof_H 	H 	0.1882	0.9064	0.6509	0.11
Mof_C 	C 	0.1323	0.1575	0.5837	-1.041
Mof_H 	H 	0.1186	0.1593	0.5401	0.325
Mof_H 	H 	0.1641	0.1855	0.5904	0.304
Mof_H 	H 	0.1056	0.1747	0.6088	0.335
Mof_C 	C 	0.9671	0.8614	0.2423	0.013
Mof_C 	C 	0.95	0.8695	0.1746	0.212
Mof_C 	C 	0.9658	0.926	0.1421	-0.354
Mof_H 	H 	0.9889	0.9589	0.1619	0.111
Mof_C 	C 	0.9463	0.9329	0.0787	0.359
Mof_H 	H 	0.9561	0.9711	0.056	-0.112
Mof_C 	C 	0.9132	0.8844	0.0502	-0.563
Mof_H 	H 	0.9013	0.8896	0.0078	0.204
Mof_C 	C 	0.8976	0.8303	0.0803	0.549
Mof_C 	C 	0.9178	0.8206	0.1435	-0.456
Mof_H 	H 	0.9092	0.7805	0.1643	0.148
Mof_C 	C 	0.8607	0.7782	0.0452	-1.027
Mof_H 	H 	0.8515	0.7938	0.0029	0.302
Mof_H 	H 	0.8285	0.7735	0.0657	0.291
Mof_H 	H 	0.8786	0.7343	0.0448	0.306
Mof_C 	C 	0.8632	0.0929	0.1496	0.006
Mof_C 	C 	0.8328	0.0348	0.1197	0.285
Mof_C 	C 	0.8089	0.0392	0.0596	-0.429
Mof_H 	H 	0.8144	0.0781	0.0356	0.139
Mof_C 	C 	0.7772	0.9871	0.0345	0.427
Mof_H 	H 	0.7607	0.9906	0.9936	-0.145
Mof_C 	C 	0.7695	0.9287	0.0699	-0.641
Mof_H 	H 	0.7477	0.8932	0.0524	0.22
Mof_C 	C 	0.7931	0.9223	0.1299	0.687
Mof_C 	C 	0.8249	0.9744	0.154	-0.551
Mof_H 	H 	0.8421	0.9701	0.1945	0.198
Mof_C 	C 	0.7823	0.862	0.1685	-1.25
Mof_H 	H 	0.8019	0.8666	0.2093	0.372
Mof_H 	H 	0.7936	0.8207	0.1488	0.363
Mof_H 	H 	0.7445	0.8595	0.1727	0.366
Mof_C 	C 	0.3179	0.6524	0.4572	0.081
Mof_C 	C 	0.3027	0.6284	0.3899	0.073
Mof_C 	C 	0.2738	0.6679	0.3438	-0.22
Mof_H 	H 	0.261	0.7114	0.3537	0.072
Mof_C 	C 	0.2639	0.6426	0.2829	0.222
Mof_C 	C 	0.2829	0.5776	0.2682	-0.249
Mof_H 	H 	0.2762	0.5606	0.2275	0.11
Mof_C 	C 	0.3118	0.538	0.3143	0.115
Mof_H 	H 	0.3245	0.4946	0.3045	-0.047
Mof_C 	C 	0.3217	0.5634	0.3752	-0.172
Mof_H 	H 	0.341	0.537	0.4061	0.071
Mof_C 	C 	0.2251	0.693	0.2369	-0.591
Mof_H 	H 	0.2194	0.6729	0.1958	0.168
Mof_H 	H 	0.2419	0.7375	0.2344	0.168
Mof_H 	H 	0.1911	0.6984	0.2536	0.189
Mof_N 	N 	0.51	0.1892	0.7618	-0.162
Mof_N 	N 	0.5211	0.1752	0.8236	-0.142
Mof_N 	N 	0.5032	0.1142	0.835	-0.131
Mof_N 	N 	0.4812	0.0854	0.7808	-0.165
Mof_N 	N 	0.4798	0.9032	0.9648	-0.161
Mof_N 	N 	0.4826	0.9513	0.919	-0.126
Mof_N 	N 	0.4743	0.9223	0.8646	-0.126
Mof_N 	N 	0.4662	0.8535	0.8706	-0.158
Mof_N 	N 	0.3984	0.9177	0.6992	-0.158
Mof_N 	N 	0.406	0.8489	0.7062	-0.125
Mof_N 	N 	0.3723	0.8153	0.6663	-0.129
Mof_N 	N 	0.3411	0.862	0.6319	-0.155
Mof_N 	N 	0.1805	0.8487	0.5401	-0.157
Mof_N 	N 	0.1617	0.8083	0.4922	-0.13
Mof_N 	N 	0.1217	0.8408	0.46	-0.139
Mof_N 	N 	0.1131	0.8995	0.4856	-0.124
Mof_N 	N 	0.9658	0.9109	0.2836	-0.157
Mof_N 	N 	0.9851	0.883	0.3386	-0.116
Mof_N 	N 	0.9965	0.8181	0.3298	-0.135
Mof_N 	N 	0.9853	0.8022	0.2676	-0.163
Mof_N 	N 	0.8572	0.1566	0.1262	-0.15
Mof_N 	N 	0.8907	0.1971	0.1641	-0.135
Mof_N 	N 	0.9146	0.1582	0.2092	-0.123
Mof_N 	N 	0.898	0.0941	0.2007	-0.149
Mof_N 	N 	0.3596	0.6485	0.4997	-0.117
Mof_N 	N 	0.3512	0.6964	0.5414	-0.125
Mof_N 	N 	0.3065	0.7263	0.5251	-0.115
Mof_N 	N 	0.2835	0.6992	0.4716	-0.165
Mof_Ag	Ag	0.97885	0.43605	0.06042	1.349
Mof_C 	C 	0.0148	0.6583	0.0746	0.058
Mof_C 	C 	0.0277	0.728	0.0513	0.113
Mof_C 	C 	0.0044	0.7502	0.9921	-0.305
Mof_H 	H 	0.9802	0.7223	0.9677	0.111
Mof_C 	C 	0.0187	0.8156	0.9707	0.289
Mof_C 	C 	0.0567	0.8538	0.0078	-0.318
Mof_H 	H 	0.067	0.8967	0.9934	0.121
Mof_C 	C 	0.0799	0.8304	0.0656	0.167
Mof_H 	H 	0.1049	0.8573	0.0899	-0.06
Mof_C 	C 	0.0655	0.7679	0.0861	-0.226
Mof_H 	H 	0.0814	0.7514	0.1244	0.076
Mof_C 	C 	0.9888	0.8428	0.9088	-0.685
Mof_H 	H 	0.0023	0.8878	0.8997	0.206
Mof_H 	H 	0.9944	0.8116	0.8752	0.194
Mof_H 	H 	0.951	0.8459	0.9131	0.203
Mof_N 	N 	0.9996	0.6038	0.0392	-0.149
Mof_N 	N 	0.9947	0.5514	0.0815	-0.127
Mof_N 	N 	0.0047	0.575	0.1375	-0.112
Mof_N 	N 	0.0169	0.6434	0.1359	-0.16
Mof_Ag	Ag	0.93072	0.4793	0.05673	-0.46
Mof_Ag	Ag	0.02958	0.4128	0.06353	-0.596
Mof_Ag	Ag	0.01057	0.79365	0.72355	0.453
Mof_Ag	Ag	0.94103	0.48158	0.76549	0.493
Mof_Ag	Ag	0.26666	0.67164	0.0747	0.478
Mof_Ag	Ag	0.40656	0.78142	0.12524	0.495
Mof_Ag	Ag	0.46281	0.71314	0.28454	0.451
Mof_Ag	Ag	0.44675	0.51898	0.26947	0.489
Mof_Ag	Ag	0.50875	0.43285	0.43398	0.451
Mof_Ag	Ag	0.80548	0.28732	0.55199	0.485
Mof_Ag	Ag	0.07831	0.70795	0.87751	0.417
Mof_C 	C 	0.486	0.3664	0.2362	0.029
Mof_C 	C 	0.4672	0.3741	0.1704	0.137
Mof_C 	C 	0.4413	0.3197	0.1379	-0.364
Mof_H 	H 	0.4373	0.2781	0.1588	0.114
Mof_C 	C 	0.4214	0.3253	0.0756	0.426
Mof_C 	C 	0.4289	0.3867	0.0456	-0.399
Mof_H 	H 	0.4146	0.3918	0.004	0.15
Mof_C 	C 	0.4569	0.441	0.0747	0.227
Mof_H 	H 	0.463	0.4811	0.0525	-0.067
Mof_C 	C 	0.4759	0.4351	0.1377	-0.253
Mof_H 	H 	0.4944	0.4717	0.1582	0.076
Mof_C 	C 	0.3909	0.2659	0.0424	-0.904
Mof_H 	H 	0.3799	0.2787	0.9997	0.268
Mof_H 	H 	0.4138	0.226	0.0431	0.274
Mof_H 	H 	0.3598	0.2555	0.0634	0.267
Mof_C 	C 	0.4701	0.6565	0.433	0.047
Mof_C 	C 	0.4609	0.7231	0.4622	0.121
Mof_C 	C 	0.4234	0.7681	0.4325	-0.227
Mof_H 	H 	0.4054	0.7567	0.3937	0.083
Mof_C 	C 	0.4125	0.8317	0.4618	0.208
Mof_H 	H 	0.3863	0.8612	0.4429	-0.066
Mof_C 	C 	0.4399	0.8495	0.5165	-0.378
Mof_H 	H 	0.4327	0.8918	0.5345	0.149
Mof_C 	C 	0.4786	0.8068	0.5469	0.348
Mof_C 	C 	0.4885	0.7429	0.5195	-0.326
Mof_H 	H 	0.5139	0.7131	0.5398	0.096
Mof_C 	C 	0.5138	0.8309	0.605	-0.804
Mof_H 	H 	0.5016	0.8753	0.6177	0.241
Mof_H 	H 	0.5116	0.7982	0.6383	0.226
Mof_H 	H 	0.5504	0.8344	0.5956	0.237
Mof_C 	C 	0.3587	0.5745	0.1528	0.044
Mof_C 	C 	0.335	0.5096	0.1268	0.14
Mof_C 	C 	0.3357	0.4511	0.1653	-0.325
Mof_H 	H 	0.3525	0.4529	0.2062	0.115
Mof_C 	C 	0.311	0.3893	0.1421	0.399
Mof_C 	C 	0.2882	0.3898	0.0802	-0.402
Mof_H 	H 	0.272	0.3496	0.0635	0.136
Mof_C 	C 	0.2884	0.447	0.0428	0.243
Mof_H 	H 	0.2728	0.4449	0.0014	-0.078
Mof_C 	C 	0.3113	0.5069	0.0654	-0.269
Mof_H 	H 	0.3111	0.5459	0.0399	0.09
Mof_C 	C 	0.3128	0.3286	0.1857	-0.877
Mof_H 	H 	0.2953	0.2898	0.1643	0.251
Mof_H 	H 	0.3496	0.317	0.1991	0.265
Mof_H 	H 	0.2946	0.3401	0.2216	0.253
Mof_C 	C 	0.1508	0.5963	0.0352	0.041
Mof_C 	C 	0.1557	0.5392	0.0798	0.197
Mof_C 	C 	0.1403	0.4694	0.0619	-0.436
Mof_H 	H 	0.1259	0.4612	0.0207	0.191
Mof_C 	C 	0.1458	0.4158	0.1018	0.521
Mof_C 	C 	0.1659	0.4305	0.164	-0.444
Mof_H 	H 	0.1708	0.3948	0.1932	0.146
Mof_C 	C 	0.1787	0.4992	0.1826	0.249
Mof_H 	H 	0.1891	0.5094	0.2246	-0.081
Mof_C 	C 	0.1757	0.5497	0.1391	-0.315
Mof_H 	H 	0.1882	0.5936	0.1509	0.104
Mof_C 	C 	0.1323	0.3425	0.0837	-1.034
Mof_H 	H 	0.1186	0.3407	0.0401	0.323
Mof_H 	H 	0.1641	0.3145	0.0904	0.303
Mof_H 	H 	0.1056	0.3253	0.1088	0.333
Mof_C 	C 	0.9671	0.6386	0.7423	0.013
Mof_C 	C 	0.95	0.6305	0.6746	0.213
Mof_C 	C 	0.9658	0.574	0.6421	-0.356
Mof_H 	H 	0.9889	0.5411	0.6619	0.11
Mof_C 	C 	0.9463	0.5671	0.5787	0.36
Mof_H 	H 	0.9561	0.5289	0.556	-0.114
Mof_C 	C 	0.9132	0.6156	0.5502	-0.566
Mof_H 	H 	0.9013	0.6104	0.5078	0.204
Mof_C 	C 	0.8976	0.6697	0.5803	0.552
Mof_C 	C 	0.9178	0.6794	0.6435	-0.458
Mof_H 	H 	0.9092	0.7195	0.6643	0.149
Mof_C 	C 	0.8607	0.7218	0.5452	-1.031
Mof_H 	H 	0.8515	0.7062	0.5029	0.304
Mof_H 	H 	0.8285	0.7265	0.5657	0.293
Mof_H 	H 	0.8786	0.7657	0.5448	0.308
Mof_C 	C 	0.8632	0.4071	0.6496	0.005
Mof_C 	C 	0.8328	0.4652	0.6197	0.291
Mof_C 	C 	0.8089	0.4608	0.5596	-0.432
Mof_H 	H 	0.8144	0.4219	0.5356	0.141
Mof_C 	C 	0.7772	0.5129	0.5345	0.432
Mof_H 	H 	0.7607	0.5094	0.4936	-0.149
Mof_C 	C 	0.7695	0.5713	0.5699	-0.647
Mof_H 	H 	0.7477	0.6068	0.5524	0.222
Mof_C 	C 	0.7931	0.5777	0.6299	0.694
Mof_C 	C 	0.8249	0.5256	0.654	-0.56
Mof_H 	H 	0.8421	0.5299	0.6945	0.199
Mof_C 	C 	0.7823	0.638	0.6685	-1.26
Mof_H 	H 	0.8019	0.6334	0.7093	0.375
Mof_H 	H 	0.7936	0.6793	0.6488	0.366
Mof_H 	H 	0.7445	0.6405	0.6727	0.369
Mof_C 	C 	0.3179	0.8476	0.9572	0.082
Mof_C 	C 	0.3027	0.8716	0.8899	0.071
Mof_C 	C 	0.2738	0.8321	0.8438	-0.218
Mof_H 	H 	0.261	0.7886	0.8537	0.071
Mof_C 	C 	0.2639	0.8574	0.7829	0.22
Mof_C 	C 	0.2829	0.9224	0.7682	-0.245
Mof_H 	H 	0.2762	0.9394	0.7275	0.108
Mof_C 	C 	0.3118	0.962	0.8143	0.109
Mof_H 	H 	0.3245	0.0054	0.8045	-0.044
Mof_C 	C 	0.3217	0.9366	0.8752	-0.169
Mof_H 	H 	0.341	0.963	0.9061	0.069
Mof_C 	C 	0.2251	0.807	0.7369	-0.588
Mof_H 	H 	0.2194	0.8271	0.6958	0.167
Mof_H 	H 	0.2419	0.7625	0.7344	0.168
Mof_H 	H 	0.1911	0.8016	0.7536	0.188
Mof_N 	N 	0.51	0.3108	0.2618	-0.162
Mof_N 	N 	0.5211	0.3248	0.3236	-0.142
Mof_N 	N 	0.5032	0.3858	0.335	-0.131
Mof_N 	N 	0.4812	0.4146	0.2808	-0.165
Mof_N 	N 	0.4798	0.5968	0.4648	-0.161
Mof_N 	N 	0.4826	0.5487	0.419	-0.126
Mof_N 	N 	0.4743	0.5777	0.3646	-0.126
Mof_N 	N 	0.4662	0.6465	0.3706	-0.158
Mof_N 	N 	0.3984	0.5823	0.1992	-0.158
Mof_N 	N 	0.406	0.6511	0.2062	-0.125
Mof_N 	N 	0.3723	0.6847	0.1663	-0.129
Mof_N 	N 	0.3411	0.638	0.1319	-0.155
Mof_N 	N 	0.1805	0.6513	0.0401	-0.157
Mof_N 	N 	0.1617	0.6917	0.9922	-0.131
Mof_N 	N 	0.1217	0.6592	0.96	-0.14
Mof_N 	N 	0.1131	0.6005	0.9856	-0.125
Mof_N 	N 	0.9658	0.5891	0.7836	-0.158
Mof_N 	N 	0.9851	0.617	0.8386	-0.116
Mof_N 	N 	0.9965	0.6819	0.8298	-0.134
Mof_N 	N 	0.9853	0.6978	0.7676	-0.162
Mof_N 	N 	0.8572	0.3434	0.6262	-0.15
Mof_N 	N 	0.8907	0.3029	0.6641	-0.135
Mof_N 	N 	0.9146	0.3418	0.7092	-0.123
Mof_N 	N 	0.898	0.4059	0.7007	-0.149
Mof_N 	N 	0.3596	0.8515	0.9997	-0.118
Mof_N 	N 	0.3512	0.8036	0.0414	-0.124
Mof_N 	N 	0.3065	0.7737	0.0251	-0.114
Mof_N 	N 	0.2835	0.8008	0.9716	-0.165
Mof_Ag	Ag	0.97885	0.06395	0.56042	1.353
Mof_C 	C 	0.0148	0.8417	0.5746	0.051
Mof_C 	C 	0.0277	0.772	0.5513	0.121
Mof_C 	C 	0.0044	0.7498	0.4921	-0.315
Mof_H 	H 	0.9802	0.7777	0.4677	0.113
Mof_C 	C 	0.0187	0.6844	0.4707	0.314
Mof_C 	C 	0.0567	0.6462	0.5078	-0.343
Mof_H 	H 	0.067	0.6033	0.4934	0.132
Mof_C 	C 	0.0799	0.6696	0.5656	0.185
Mof_H 	H 	0.1049	0.6427	0.5899	-0.067
Mof_C 	C 	0.0655	0.7321	0.5861	-0.239
Mof_H 	H 	0.0814	0.7486	0.6244	0.08
Mof_C 	C 	0.9888	0.6572	0.4088	-0.731
Mof_H 	H 	0.0023	0.6122	0.3997	0.222
Mof_H 	H 	0.9944	0.6884	0.3752	0.206
Mof_H 	H 	0.951	0.6541	0.4131	0.215
Mof_N 	N 	0.9996	0.8962	0.5392	-0.145
Mof_N 	N 	0.9947	0.9486	0.5815	-0.123
Mof_N 	N 	0.0047	0.925	0.6375	-0.114
Mof_N 	N 	0.0169	0.8566	0.6359	-0.159
Mof_Ag	Ag	0.93072	0.0207	0.55673	-0.466
Mof_Ag	Ag	0.02958	0.0872	0.56353	-0.599
Mof_Ag	Ag	0.98943	0.29365	0.77645	0.455
Mof_Ag	Ag	0.05897	0.98158	0.73451	0.488
Mof_Ag	Ag	0.73334	0.17164	0.4253	0.477
Mof_Ag	Ag	0.59344	0.28142	0.37476	0.495
Mof_Ag	Ag	0.53719	0.21314	0.21546	0.452
Mof_Ag	Ag	0.55325	0.01898	0.23053	0.489
Mof_Ag	Ag	0.49125	0.93285	0.06602	0.451
Mof_Ag	Ag	0.19452	0.78732	0.94801	0.484
Mof_Ag	Ag	0.92169	0.20795	0.62249	0.417
Mof_C 	C 	0.514	0.8664	0.2638	0.029
Mof_C 	C 	0.5328	0.8741	0.3296	0.137
Mof_C 	C 	0.5587	0.8197	0.3621	-0.365
Mof_H 	H 	0.5627	0.7781	0.3412	0.114
Mof_C 	C 	0.5786	0.8253	0.4244	0.428
Mof_C 	C 	0.5711	0.8867	0.4544	-0.401
Mof_H 	H 	0.5854	0.8918	0.496	0.15
Mof_C 	C 	0.5431	0.941	0.4253	0.229
Mof_H 	H 	0.537	0.9811	0.4475	-0.067
Mof_C 	C 	0.5241	0.9351	0.3623	-0.254
Mof_H 	H 	0.5056	0.9717	0.3418	0.077
Mof_C 	C 	0.6091	0.7659	0.4576	-0.908
Mof_H 	H 	0.6201	0.7787	0.5003	0.269
Mof_H 	H 	0.5862	0.726	0.4569	0.275
Mof_H 	H 	0.6402	0.7555	0.4366	0.268
Mof_C 	C 	0.5299	0.1565	0.067	0.048
Mof_C 	C 	0.5391	0.2231	0.0378	0.121
Mof_C 	C 	0.5766	0.2681	0.0675	-0.227
Mof_H 	H 	0.5946	0.2567	0.1063	0.083
Mof_C 	C 	0.5875	0.3317	0.0382	0.207
Mof_H 	H 	0.6137	0.3612	0.0571	-0.066
Mof_C 	C 	0.5601	0.3495	0.9835	-0.377
Mof_H 	H 	0.5673	0.3918	0.9655	0.149
Mof_C 	C 	0.5214	0.3068	0.9531	0.348
Mof_C 	C 	0.5115	0.2429	0.9805	-0.325
Mof_H 	H 	0.4861	0.2131	0.9602	0.096
Mof_C 	C 	0.4862	0.3309	0.895	-0.803
Mof_H 	H 	0.4984	0.3753	0.8823	0.24
Mof_H 	H 	0.4884	0.2982	0.8617	0.226
Mof_H 	H 	0.4496	0.3344	0.9044	0.237
Mof_C 	C 	0.6413	0.0745	0.3472	0.043
Mof_C 	C 	0.665	0.0096	0.3732	0.14
Mof_C 	C 	0.6643	0.9511	0.3347	-0.324
Mof_H 	H 	0.6475	0.9529	0.2938	0.115
Mof_C 	C 	0.689	0.8893	0.3579	0.4
Mof_C 	C 	0.7118	0.8898	0.4198	-0.403
Mof_H 	H 	0.728	0.8496	0.4365	0.137
Mof_C 	C 	0.7116	0.947	0.4572	0.247
Mof_H 	H 	0.7272	0.9449	0.4986	-0.079
Mof_C 	C 	0.6887	0.0069	0.4346	-0.273
Mof_H 	H 	0.6889	0.0459	0.4601	0.091
Mof_C 	C 	0.6872	0.8286	0.3143	-0.877
Mof_H 	H 	0.7047	0.7898	0.3357	0.25
Mof_H 	H 	0.6504	0.817	0.3009	0.265
Mof_H 	H 	0.7054	0.8401	0.2784	0.254
Mof_C 	C 	0.8492	0.0963	0.4648	0.037
Mof_C 	C 	0.8443	0.0392	0.4202	0.202
Mof_C 	C 	0.8597	0.9694	0.4381	-0.439
Mof_H 	H 	0.8741	0.9612	0.4793	0.193
Mof_C 	C 	0.8542	0.9158	0.3982	0.528
Mof_C 	C 	0.8341	0.9305	0.336	-0.455
Mof_H 	H 	0.8292	0.8948	0.3068	0.15
Mof_C 	C 	0.8213	0.9992	0.3174	0.269
Mof_H 	H 	0.8109	0.0094	0.2754	-0.09
Mof_C 	C 	0.8243	0.0497	0.3609	-0.331
Mof_H 	H 	0.8118	0.0936	0.3491	0.11
Mof_C 	C 	0.8677	0.8425	0.4163	-1.041
Mof_H 	H 	0.8814	0.8407	0.4599	0.325
Mof_H 	H 	0.8359	0.8145	0.4096	0.304
Mof_H 	H 	0.8944	0.8253	0.3912	0.335
Mof_C 	C 	0.0329	0.1386	0.7577	0.013
Mof_C 	C 	0.05	0.1305	0.8254	0.212
Mof_C 	C 	0.0342	0.074	0.8579	-0.354
Mof_H 	H 	0.0111	0.0411	0.8381	0.111
Mof_C 	C 	0.0537	0.0671	0.9213	0.359
Mof_H 	H 	0.0439	0.0289	0.944	-0.112
Mof_C 	C 	0.0868	0.1156	0.9498	-0.563
Mof_H 	H 	0.0987	0.1104	0.9922	0.204
Mof_C 	C 	0.1024	0.1697	0.9197	0.549
Mof_C 	C 	0.0822	0.1794	0.8565	-0.456
Mof_H 	H 	0.0908	0.2195	0.8357	0.148
Mof_C 	C 	0.1393	0.2218	0.9548	-1.027
Mof_H 	H 	0.1485	0.2062	0.9971	0.302
Mof_H 	H 	0.1715	0.2265	0.9343	0.291
Mof_H 	H 	0.1214	0.2657	0.9552	0.306
Mof_C 	C 	0.1368	0.9071	0.8504	0.006
Mof_C 	C 	0.1672	0.9652	0.8803	0.285
Mof_C 	C 	0.1911	0.9608	0.9404	-0.429
Mof_H 	H 	0.1856	0.9219	0.9644	0.139
Mof_C 	C 	0.2228	0.0129	0.9655	0.427
Mof_H 	H 	0.2393	0.0094	0.0064	-0.145
Mof_C 	C 	0.2305	0.0713	0.9301	-0.641
Mof_H 	H 	0.2523	0.1068	0.9476	0.22
Mof_C 	C 	0.2069	0.0777	0.8701	0.687
Mof_C 	C 	0.1751	0.0256	0.846	-0.551
Mof_H 	H 	0.1579	0.0299	0.8055	0.198
Mof_C 	C 	0.2177	0.138	0.8315	-1.25
Mof_H 	H 	0.1981	0.1334	0.7907	0.372
Mof_H 	H 	0.2064	0.1793	0.8512	0.363
Mof_H 	H 	0.2555	0.1405	0.8273	0.366
Mof_C 	C 	0.6821	0.3476	0.5428	0.081
Mof_C 	C 	0.6973	0.3716	0.6101	0.073
Mof_C 	C 	0.7262	0.3321	0.6562	-0.22
Mof_H 	H 	0.739	0.2886	0.6463	0.072
Mof_C 	C 	0.7361	0.3574	0.7171	0.222
Mof_C 	C 	0.7171	0.4224	0.7318	-0.249
Mof_H 	H 	0.7238	0.4394	0.7725	0.11
Mof_C 	C 	0.6882	0.462	0.6857	0.115
Mof_H 	H 	0.6755	0.5054	0.6955	-0.047
Mof_C 	C 	0.6783	0.4366	0.6248	-0.172
Mof_H 	H 	0.659	0.463	0.5939	0.071
Mof_C 	C 	0.7749	0.307	0.7631	-0.591
Mof_H 	H 	0.7806	0.3271	0.8042	0.168
Mof_H 	H 	0.7581	0.2625	0.7656	0.168
Mof_H 	H 	0.8089	0.3016	0.7464	0.189
Mof_N 	N 	0.49	0.8108	0.2382	-0.162
Mof_N 	N 	0.4789	0.8248	0.1764	-0.142
Mof_N 	N 	0.4968	0.8858	0.165	-0.131
Mof_N 	N 	0.5188	0.9146	0.2192	-0.165
Mof_N 	N 	0.5202	0.0968	0.0352	-0.161
Mof_N 	N 	0.5174	0.0487	0.081	-0.126
Mof_N 	N 	0.5257	0.0777	0.1354	-0.126
Mof_N 	N 	0.5338	0.1465	0.1294	-0.158
Mof_N 	N 	0.6016	0.0823	0.3008	-0.158
Mof_N 	N 	0.594	0.1511	0.2938	-0.125
Mof_N 	N 	0.6277	0.1847	0.3337	-0.129
Mof_N 	N 	0.6589	0.138	0.3681	-0.155
Mof_N 	N 	0.8195	0.1513	0.4599	-0.157
Mof_N 	N 	0.8383	0.1917	0.5078	-0.13
Mof_N 	N 	0.8783	0.1592	0.54	-0.139
Mof_N 	N 	0.8869	0.1005	0.5144	-0.124
Mof_N 	N 	0.0342	0.0891	0.7164	-0.157
Mof_N 	N 	0.0149	0.117	0.6614	-0.116
Mof_N 	N 	0.0035	0.1819	0.6702	-0.135
Mof_N 	N 	0.0147	0.1978	0.7324	-0.163
Mof_N 	N 	0.1428	0.8434	0.8738	-0.15
Mof_N 	N 	0.1093	0.8029	0.8359	-0.135
Mof_N 	N 	0.0854	0.8418	0.7908	-0.123
Mof_N 	N 	0.102	0.9059	0.7993	-0.149
Mof_N 	N 	0.6404	0.3515	0.5003	-0.117
Mof_N 	N 	0.6488	0.3036	0.4586	-0.125
Mof_N 	N 	0.6935	0.2737	0.4749	-0.115
Mof_N 	N 	0.7165	0.3008	0.5284	-0.165
Mof_Ag	Ag	0.02115	0.56395	0.93958	1.349
Mof_C 	C 	0.9852	0.3417	0.9254	0.058
Mof_C 	C 	0.9723	0.272	0.9487	0.113
Mof_C 	C 	0.9956	0.2498	0.0079	-0.305
Mof_H 	H 	0.0198	0.2777	0.0323	0.111
Mof_C 	C 	0.9813	0.1844	0.0293	0.289
Mof_C 	C 	0.9433	0.1462	0.9922	-0.318
Mof_H 	H 	0.933	0.1033	0.0066	0.121
Mof_C 	C 	0.9201	0.1696	0.9344	0.167
Mof_H 	H 	0.8951	0.1427	0.9101	-0.06
Mof_C 	C 	0.9345	0.2321	0.9139	-0.226
Mof_H 	H 	0.9186	0.2486	0.8756	0.076
Mof_C 	C 	0.0112	0.1572	0.0912	-0.685
Mof_H 	H 	0.9977	0.1122	0.1003	0.206
Mof_H 	H 	0.0056	0.1884	0.1248	0.194
Mof_H 	H 	0.049	0.1541	0.0869	0.203
Mof_N 	N 	0.0004	0.3962	0.9608	-0.149
Mof_N 	N 	0.0053	0.4486	0.9185	-0.127
Mof_N 	N 	0.9953	0.425	0.8625	-0.112
Mof_N 	N 	0.9831	0.3566	0.8641	-0.16
Mof_Ag	Ag	0.06928	0.5207	0.94327	-0.46
Mof_Ag	Ag	0.97042	0.5872	0.93647	-0.596
_end
