data_functionalizedCrystal
_audit_creation_method	'EQeq! by Chris Wilmer'
_symmetry_space_group_name_H-M	'P1'
_symmetry_Int_Tables_number	1
_symmetry_cell_setting	triclinic
loop_
_symmetry_equiv_pos_as_xyz
  x,y,z
_cell_length_a	5.8751
_cell_length_b	15.067
_cell_length_c	16.416
_cell_angle_alpha	90
_cell_angle_beta	90
_cell_angle_gamma	90
loop_
_atom_site_label
_atom_site_type_symbol
_atom_site_fract_x
_atom_site_fract_y
_atom_site_fract_z
_atom_site_charge
Mof_Cd	Cd	0.387	0.58859	0.96366	0.473
Mof_Cd	Cd	0.113	0.41141	0.46366	0.471
Mof_Cd	Cd	0.613	0.08859	0.53634	0.472
Mof_Cd	Cd	0.887	0.91141	0.03634	0.469
Mof_H 	H 	0.4708	0.3871	0.2461	0.118
Mof_H 	H 	0.652	0.3706	0.3692	0.021
Mof_H 	H 	0.1771	0.5051	0.2922	0.007
Mof_H 	H 	0.0119	0.5266	0.1674	0.136
Mof_H 	H 	0.7867	0.5546	0.0486	0.127
Mof_H 	H 	0.4353	0.47	0.1237	0.115
Mof_H 	H 	0.6373	0.4249	0.0776	0.12
Mof_H 	H 	0.7423	0.6387	0.1627	0.105
Mof_H 	H 	0.3819	0.7083	0.1827	-0.01
Mof_H 	H 	0.3685	0.6054	0.1965	-0.006
Mof_H 	H 	0.19	0.69	0.071	0.3
Mof_H 	H 	0.0292	0.6129	0.7461	0.117
Mof_H 	H 	0.848	0.6294	0.8692	0.022
Mof_H 	H 	0.3229	0.4949	0.7922	0.006
Mof_H 	H 	0.4881	0.4734	0.6674	0.137
Mof_H 	H 	0.7133	0.4454	0.5486	0.127
Mof_H 	H 	0.0647	0.53	0.6237	0.112
Mof_H 	H 	0.8627	0.5751	0.5776	0.119
Mof_H 	H 	0.7577	0.3613	0.6627	0.104
Mof_H 	H 	0.1181	0.2917	0.6827	-0.01
Mof_H 	H 	0.1315	0.3946	0.6965	-0.005
Mof_H 	H 	0.31	0.31	0.571	0.299
Mof_H 	H 	0.5292	0.8871	0.2539	0.118
Mof_H 	H 	0.348	0.8706	0.1308	0.021
Mof_H 	H 	0.8229	0.0051	0.2078	0.009
Mof_H 	H 	0.9881	0.0266	0.3326	0.136
Mof_H 	H 	0.2133	0.0546	0.4514	0.127
Mof_H 	H 	0.5647	0.97	0.3763	0.115
Mof_H 	H 	0.3627	0.9249	0.4224	0.12
Mof_H 	H 	0.2577	0.1387	0.3373	0.105
Mof_H 	H 	0.6181	0.2083	0.3173	-0.01
Mof_H 	H 	0.6315	0.1054	0.3035	-0.006
Mof_H 	H 	0.81	0.19	0.429	0.3
Mof_H 	H 	0.9708	0.1129	0.7539	0.119
Mof_H 	H 	0.152	0.1294	0.6308	0.02
Mof_H 	H 	0.6771	0.9949	0.7078	0.006
Mof_H 	H 	0.5119	0.9734	0.8326	0.139
Mof_H 	H 	0.2867	0.9454	0.9514	0.127
Mof_H 	H 	0.9353	0.03	0.8763	0.114
Mof_H 	H 	0.1373	0.0751	0.9224	0.12
Mof_H 	H 	0.2423	0.8613	0.8373	0.104
Mof_H 	H 	0.8819	0.7917	0.8173	-0.01
Mof_H 	H 	0.8685	0.8946	0.8035	-0.005
Mof_H 	H 	0.69	0.81	0.929	0.3
Mof_C 	C 	0.6135	0.4123	0.2543	-0.208
Mof_C 	C 	0.719	0.4601	0.1927	0.189
Mof_C 	C 	0.7238	0.4027	0.3282	0.127
Mof_C 	C 	0.0327	0.4819	0.2829	0.129
Mof_C 	C 	0.9352	0.495	0.2076	-0.218
Mof_C 	C 	0.5977	0.4736	0.1136	-0.206
Mof_C 	C 	0.629	0.6405	0.1189	-0.173
Mof_C 	C 	0.3925	0.6511	0.1558	0.188
Mof_C 	C 	0.6787	0.7196	0.0632	0.345
Mof_C 	C 	0.8865	0.5877	0.7543	-0.206
Mof_C 	C 	0.781	0.5399	0.6927	0.188
Mof_C 	C 	0.7762	0.5973	0.8282	0.126
Mof_C 	C 	0.4673	0.5181	0.7829	0.133
Mof_C 	C 	0.5648	0.505	0.7076	-0.221
Mof_C 	C 	0.9023	0.5264	0.6136	-0.202
Mof_C 	C 	0.871	0.3595	0.6189	-0.17
Mof_C 	C 	0.1075	0.3489	0.6558	0.185
Mof_C 	C 	0.8213	0.2804	0.5632	0.345
Mof_C 	C 	0.3865	0.9123	0.2457	-0.208
Mof_C 	C 	0.281	0.9601	0.3073	0.188
Mof_C 	C 	0.2762	0.9027	0.1718	0.127
Mof_C 	C 	0.9673	0.9819	0.2171	0.127
Mof_C 	C 	0.0648	0.995	0.2924	-0.217
Mof_C 	C 	0.4023	0.9736	0.3864	-0.206
Mof_C 	C 	0.371	0.1405	0.3811	-0.173
Mof_C 	C 	0.6075	0.1511	0.3442	0.188
Mof_C 	C 	0.3213	0.2196	0.4368	0.346
Mof_C 	C 	0.1135	0.0877	0.7457	-0.211
Mof_C 	C 	0.219	0.0399	0.8073	0.192
Mof_C 	C 	0.2238	0.0973	0.6718	0.128
Mof_C 	C 	0.5327	0.0181	0.7171	0.133
Mof_C 	C 	0.4352	0.005	0.7924	-0.225
Mof_C 	C 	0.0977	0.0264	0.8864	-0.207
Mof_C 	C 	0.129	0.8595	0.8811	-0.171
Mof_C 	C 	0.8925	0.8489	0.8442	0.186
Mof_C 	C 	0.1787	0.7804	0.9368	0.346
Mof_N 	N 	0.9311	0.4376	0.3433	-0.158
Mof_N 	N 	0.6443	0.5579	0.0702	-0.128
Mof_N 	N 	0.5689	0.5624	0.8433	-0.16
Mof_N 	N 	0.8557	0.4421	0.5702	-0.128
Mof_N 	N 	0.0689	0.9376	0.1567	-0.157
Mof_N 	N 	0.3557	0.0579	0.4298	-0.128
Mof_N 	N 	0.4311	0.0624	0.6567	-0.16
Mof_N 	N 	0.1443	0.9421	0.9298	-0.127
Mof_Cl	Cl	0.0991	0.46916	0.96741	-0.353
Mof_Cl	Cl	0.4009	0.53084	0.46741	-0.353
Mof_Cl	Cl	0.9009	0.96916	0.53259	-0.352
Mof_Cl	Cl	0.5991	0.03084	0.03259	-0.352
Mof_O 	O 	0.6636	0.7074	0.98762	-0.301
Mof_O 	O 	0.2195	0.6448	0.0946	-0.447
Mof_O 	O 	0.7181	0.7917	0.09764	-0.291
Mof_O 	O 	0.8364	0.2926	0.48762	-0.3
Mof_O 	O 	0.2805	0.3552	0.5946	-0.446
Mof_O 	O 	0.7819	0.2083	0.59764	-0.29
Mof_O 	O 	0.3364	0.2074	0.51238	-0.302
Mof_O 	O 	0.7805	0.1448	0.4054	-0.447
Mof_O 	O 	0.2819	0.2917	0.40236	-0.291
Mof_O 	O 	0.1636	0.7926	0.01238	-0.301
Mof_O 	O 	0.7195	0.8552	0.9054	-0.446
Mof_O 	O 	0.2181	0.7083	0.90236	-0.291
_end
