data_functionalizedCrystal
_audit_creation_method	'EQeq! by Chris Wilmer'
_symmetry_space_group_name_H-M	'P1'
_symmetry_Int_Tables_number	1
_symmetry_cell_setting	triclinic
loop_
_symmetry_equiv_pos_as_xyz
  x,y,z
_cell_length_a	18.094
_cell_length_b	18.445
_cell_length_c	20.183
_cell_angle_alpha	90
_cell_angle_beta	90
_cell_angle_gamma	90
loop_
_atom_site_label
_atom_site_type_symbol
_atom_site_fract_x
_atom_site_fract_y
_atom_site_fract_z
_atom_site_charge
Mof_Ag	Ag	0.83987	0.37616	0.84512	0.56
Mof_Si	Si	0.95793	0.5164	0.14705	1.345
Mof_Si	Si	0.12919	0.49597	0.63461	0.974
Mof_N 	N 	0.8699	0.4204	0.9463	-0.139
Mof_N 	N 	0.7612	0.5874	0.2861	-0.149
Mof_N 	N 	0.9386	0.4066	0.7685	-0.148
Mof_N 	N 	0.1427	0.7507	0.6418	-0.154
Mof_C 	C 	0.9363	0.4142	0.9644	-0.087
Mof_H 	H 	0.9695	0.3889	0.9363	0.019
Mof_C 	C 	0.9637	0.443	0.0245	0.152
Mof_H 	H 	0.0145	0.4379	0.0355	-0.072
Mof_C 	C 	0.9171	0.478	0.0665	-0.497
Mof_C 	C 	0.8488	0.4802	0.0465	0.234
Mof_H 	H 	0.8139	0.5038	0.0743	-0.075
Mof_C 	C 	0.8241	0.4518	0.9897	-0.138
Mof_H 	H 	0.7728	0.4539	0.98	0.041
Mof_C 	C 	0.8747	0.5411	0.2021	-0.431
Mof_C 	C 	0.8333	0.6029	0.1878	0.128
Mof_H 	H 	0.8422	0.6303	0.1487	-0.046
Mof_C 	C 	0.7791	0.6231	0.232	-0.056
Mof_H 	H 	0.7525	0.6662	0.2227	0.027
Mof_C 	C 	0.8006	0.5287	0.3002	-0.077
Mof_H 	H 	0.7909	0.5034	0.3403	0.024
Mof_C 	C 	0.8546	0.5038	0.2589	0.145
Mof_H 	H 	0.8791	0.4598	0.2694	-0.061
Mof_C 	C 	0.018	0.4482	0.185	-1.052
Mof_H 	H 	0.9954	0.431	0.2268	0.3
Mof_H 	H 	0.0226	0.4062	0.1548	0.297
Mof_C 	C 	0.0898	0.4769	0.1986	0.635
Mof_H 	H 	0.1205	0.4392	0.2189	-0.184
Mof_H 	H 	0.0855	0.518	0.229	-0.184
Mof_H 	H 	0.1127	0.493	0.1572	-0.196
Mof_C 	C 	0.0173	0.5937	0.1257	-1.323
Mof_H 	H 	0.9905	0.6265	0.096	0.376
Mof_H 	H 	0.0621	0.5761	0.1036	0.388
Mof_H 	H 	0.031	0.6198	0.1662	0.382
Mof_C 	C 	0.007	0.4012	0.7878	-0.045
Mof_H 	H 	0.0176	0.3784	0.829	0.018
Mof_C 	C 	0.0664	0.4283	0.7489	0.083
Mof_H 	H 	0.1158	0.4235	0.7644	-0.035
Mof_C 	C 	0.0533	0.461	0.6895	-0.341
Mof_C 	C 	0.9796	0.4642	0.6719	0.086
Mof_H 	H 	0.9663	0.4872	0.6316	-0.025
Mof_C 	C 	0.9261	0.4359	0.7097	-0.053
Mof_H 	H 	0.8768	0.4368	0.6936	0.031
Mof_C 	C 	0.1285	0.5981	0.6374	-0.331
Mof_C 	C 	0.101	0.6376	0.6874	0.095
Mof_H 	H 	0.0768	0.6134	0.7229	-0.022
Mof_C 	C 	0.1067	0.7127	0.6891	-0.051
Mof_H 	H 	0.0845	0.7382	0.7248	0.024
Mof_C 	C 	0.1721	0.7131	0.5923	-0.043
Mof_H 	H 	0.197	0.7385	0.558	0.009
Mof_C 	C 	0.1679	0.6385	0.5889	0.052
Mof_H 	H 	0.1917	0.6137	0.5536	-0.023
Mof_C 	C 	0.2186	0.4621	0.6658	-0.627
Mof_H 	H 	0.2532	0.5026	0.6743	0.186
Mof_H 	H 	0.212	0.434	0.7072	0.182
Mof_C 	C 	0.1254	0.4634	0.5484	-0.597
Mof_H 	H 	0.0843	0.4288	0.5411	0.178
Mof_H 	H 	0.1221	0.5037	0.5162	0.18
Mof_C 	C 	0.1962	0.4284	0.547	0.026
Mof_H 	H 	0.2273	0.4561	0.5156	-0.001
Mof_H 	H 	0.1886	0.3799	0.5272	0.006
Mof_C 	C 	0.2448	0.4168	0.6132	0.096
Mof_H 	H 	0.2419	0.3654	0.6271	-0.024
Mof_H 	H 	0.2971	0.4283	0.6038	-0.025
Mof_Ag	Ag	0.66013	0.62384	0.34512	0.561
Mof_Si	Si	0.54207	0.4836	0.64705	1.346
Mof_Si	Si	0.37081	0.50403	0.13461	0.976
Mof_N 	N 	0.6301	0.5796	0.4463	-0.139
Mof_N 	N 	0.7388	0.4126	0.7861	-0.148
Mof_N 	N 	0.5614	0.5934	0.2685	-0.146
Mof_N 	N 	0.3573	0.2493	0.1418	-0.153
Mof_C 	C 	0.5637	0.5858	0.4644	-0.083
Mof_H 	H 	0.5305	0.6111	0.4363	0.019
Mof_C 	C 	0.5363	0.557	0.5245	0.149
Mof_H 	H 	0.4855	0.5621	0.5355	-0.07
Mof_C 	C 	0.5829	0.522	0.5665	-0.495
Mof_C 	C 	0.6512	0.5198	0.5465	0.232
Mof_H 	H 	0.6861	0.4962	0.5743	-0.074
Mof_C 	C 	0.6759	0.5482	0.4897	-0.137
Mof_H 	H 	0.7272	0.5461	0.48	0.041
Mof_C 	C 	0.6253	0.4589	0.7021	-0.431
Mof_C 	C 	0.6667	0.3971	0.6878	0.128
Mof_H 	H 	0.6578	0.3697	0.6487	-0.046
Mof_C 	C 	0.7209	0.3769	0.732	-0.056
Mof_H 	H 	0.7475	0.3338	0.7227	0.027
Mof_C 	C 	0.6994	0.4713	0.8002	-0.077
Mof_H 	H 	0.7091	0.4966	0.8403	0.024
Mof_C 	C 	0.6454	0.4962	0.7589	0.145
Mof_H 	H 	0.6209	0.5402	0.7694	-0.061
Mof_C 	C 	0.482	0.5518	0.685	-1.05
Mof_H 	H 	0.5046	0.569	0.7268	0.299
Mof_H 	H 	0.4774	0.5938	0.6548	0.297
Mof_C 	C 	0.4102	0.5231	0.6986	0.633
Mof_H 	H 	0.3795	0.5608	0.7189	-0.183
Mof_H 	H 	0.4145	0.482	0.729	-0.184
Mof_H 	H 	0.3873	0.507	0.6572	-0.195
Mof_C 	C 	0.4827	0.4063	0.6257	-1.326
Mof_H 	H 	0.5095	0.3735	0.596	0.378
Mof_H 	H 	0.4379	0.4239	0.6036	0.389
Mof_H 	H 	0.469	0.3802	0.6662	0.382
Mof_C 	C 	0.493	0.5988	0.2878	-0.047
Mof_H 	H 	0.4824	0.6216	0.329	0.018
Mof_C 	C 	0.4336	0.5717	0.2489	0.085
Mof_H 	H 	0.3842	0.5765	0.2644	-0.035
Mof_C 	C 	0.4467	0.539	0.1895	-0.343
Mof_C 	C 	0.5204	0.5358	0.1719	0.089
Mof_H 	H 	0.5337	0.5128	0.1316	-0.025
Mof_C 	C 	0.5739	0.5641	0.2097	-0.054
Mof_H 	H 	0.6232	0.5632	0.1936	0.032
Mof_C 	C 	0.3715	0.4019	0.1374	-0.332
Mof_C 	C 	0.399	0.3624	0.1874	0.095
Mof_H 	H 	0.4232	0.3866	0.2229	-0.022
Mof_C 	C 	0.3933	0.2873	0.1891	-0.052
Mof_H 	H 	0.4155	0.2618	0.2248	0.023
Mof_C 	C 	0.3279	0.2869	0.0923	-0.043
Mof_H 	H 	0.303	0.2615	0.058	0.009
Mof_C 	C 	0.3321	0.3615	0.0889	0.052
Mof_H 	H 	0.3083	0.3863	0.0536	-0.023
Mof_C 	C 	0.2814	0.5379	0.1658	-0.627
Mof_H 	H 	0.2468	0.4974	0.1743	0.186
Mof_H 	H 	0.288	0.566	0.2072	0.182
Mof_C 	C 	0.3746	0.5366	0.0484	-0.597
Mof_H 	H 	0.4157	0.5712	0.0411	0.177
Mof_H 	H 	0.3779	0.4963	0.0162	0.179
Mof_C 	C 	0.3038	0.5716	0.047	0.027
Mof_H 	H 	0.2727	0.5439	0.0156	-0.002
Mof_H 	H 	0.3114	0.6201	0.0272	0.006
Mof_C 	C 	0.2552	0.5832	0.1132	0.096
Mof_H 	H 	0.2581	0.6346	0.1271	-0.024
Mof_H 	H 	0.2029	0.5717	0.1038	-0.025
Mof_Ag	Ag	0.16013	0.87616	0.65488	0.562
Mof_Si	Si	0.04207	0.0164	0.35295	1.327
Mof_Si	Si	0.87081	0.99597	0.86539	0.979
Mof_N 	N 	0.1301	0.9204	0.5537	-0.137
Mof_N 	N 	0.2388	0.0874	0.2139	-0.15
Mof_N 	N 	0.0614	0.9066	0.7315	-0.139
Mof_N 	N 	0.8573	0.2507	0.8582	-0.154
Mof_C 	C 	0.0637	0.9142	0.5356	-0.088
Mof_H 	H 	0.0305	0.8889	0.5637	0.023
Mof_C 	C 	0.0363	0.943	0.4755	0.161
Mof_H 	H 	0.9855	0.9379	0.4645	-0.078
Mof_C 	C 	0.0829	0.978	0.4335	-0.493
Mof_C 	C 	0.1512	0.9802	0.4535	0.239
Mof_H 	H 	0.1861	0.0038	0.4257	-0.078
Mof_C 	C 	0.1759	0.9518	0.5103	-0.14
Mof_H 	H 	0.2272	0.9539	0.52	0.043
Mof_C 	C 	0.1253	0.0411	0.2979	-0.422
Mof_C 	C 	0.1667	0.1029	0.3122	0.122
Mof_H 	H 	0.1578	0.1303	0.3513	-0.044
Mof_C 	C 	0.2209	0.1231	0.268	-0.053
Mof_H 	H 	0.2475	0.1662	0.2773	0.026
Mof_C 	C 	0.1994	0.0287	0.1998	-0.07
Mof_H 	H 	0.2091	0.0034	0.1597	0.021
Mof_C 	C 	0.1454	0.0038	0.2411	0.131
Mof_H 	H 	0.1209	0.9598	0.2306	-0.053
Mof_C 	C 	0.982	0.9482	0.315	-1.044
Mof_H 	H 	0.0046	0.931	0.2732	0.302
Mof_H 	H 	0.9774	0.9062	0.3452	0.295
Mof_C 	C 	0.9102	0.9769	0.3014	0.613
Mof_H 	H 	0.8795	0.9392	0.2811	-0.178
Mof_H 	H 	0.9145	0.018	0.271	-0.175
Mof_H 	H 	0.8873	0.993	0.3428	-0.19
Mof_C 	C 	0.9827	0.0937	0.3743	-1.3
Mof_H 	H 	0.0095	0.1265	0.404	0.368
Mof_H 	H 	0.9379	0.0761	0.3964	0.383
Mof_H 	H 	0.969	0.1198	0.3338	0.376
Mof_C 	C 	0.993	0.9012	0.7122	-0.06
Mof_H 	H 	0.9824	0.8784	0.671	0.02
Mof_C 	C 	0.9336	0.9283	0.7511	0.094
Mof_H 	H 	0.8842	0.9235	0.7356	-0.039
Mof_C 	C 	0.9467	0.961	0.8105	-0.358
Mof_C 	C 	0.0204	0.9642	0.8281	0.107
Mof_H 	H 	0.0337	0.9872	0.8684	-0.028
Mof_C 	C 	0.0739	0.9359	0.7903	-0.061
Mof_H 	H 	0.1232	0.9368	0.8064	0.035
Mof_C 	C 	0.8715	0.0981	0.8626	-0.329
Mof_C 	C 	0.899	0.1376	0.8126	0.094
Mof_H 	H 	0.9232	0.1134	0.7771	-0.021
Mof_C 	C 	0.8933	0.2127	0.8109	-0.051
Mof_H 	H 	0.9155	0.2382	0.7752	0.023
Mof_C 	C 	0.8279	0.2131	0.9077	-0.042
Mof_H 	H 	0.803	0.2385	0.942	0.009
Mof_C 	C 	0.8321	0.1385	0.9111	0.052
Mof_H 	H 	0.8083	0.1137	0.9464	-0.022
Mof_C 	C 	0.7814	0.9621	0.8342	-0.635
Mof_H 	H 	0.7468	0.0026	0.8257	0.191
Mof_H 	H 	0.788	0.934	0.7928	0.184
Mof_C 	C 	0.8746	0.9634	0.9516	-0.61
Mof_H 	H 	0.9157	0.9288	0.9589	0.18
Mof_H 	H 	0.8779	0.0037	0.9838	0.187
Mof_C 	C 	0.8038	0.9284	0.953	0.032
Mof_H 	H 	0.7727	0.9561	0.9844	-0.004
Mof_H 	H 	0.8114	0.8799	0.9728	0.004
Mof_C 	C 	0.7552	0.9168	0.8868	0.098
Mof_H 	H 	0.7581	0.8654	0.8729	-0.025
Mof_H 	H 	0.7029	0.9283	0.8962	-0.026
Mof_Ag	Ag	0.33987	0.12384	0.15488	0.56
Mof_Si	Si	0.45793	0.9836	0.85295	1.35
Mof_Si	Si	0.62919	0.00403	0.36539	0.976
Mof_N 	N 	0.3699	0.0796	0.0537	-0.137
Mof_N 	N 	0.2612	0.9126	0.7139	-0.148
Mof_N 	N 	0.4386	0.0934	0.2315	-0.146
Mof_N 	N 	0.6427	0.7493	0.3582	-0.153
Mof_C 	C 	0.4363	0.0858	0.0356	-0.087
Mof_H 	H 	0.4695	0.1111	0.0637	0.02
Mof_C 	C 	0.4637	0.057	0.9755	0.153
Mof_H 	H 	0.5145	0.0621	0.9645	-0.071
Mof_C 	C 	0.4171	0.022	0.9335	-0.498
Mof_C 	C 	0.3488	0.0198	0.9535	0.236
Mof_H 	H 	0.3139	0.9962	0.9257	-0.074
Mof_C 	C 	0.3241	0.0482	0.0103	-0.141
Mof_H 	H 	0.2728	0.0461	0.02	0.042
Mof_C 	C 	0.3747	0.9589	0.7979	-0.433
Mof_C 	C 	0.3333	0.8971	0.8122	0.129
Mof_H 	H 	0.3422	0.8697	0.8513	-0.047
Mof_C 	C 	0.2791	0.8769	0.768	-0.057
Mof_H 	H 	0.2525	0.8338	0.7773	0.027
Mof_C 	C 	0.3006	0.9713	0.6998	-0.078
Mof_H 	H 	0.2909	0.9966	0.6597	0.026
Mof_C 	C 	0.3546	0.9962	0.7411	0.149
Mof_H 	H 	0.3791	0.0402	0.7306	-0.064
Mof_C 	C 	0.518	0.0518	0.815	-1.056
Mof_H 	H 	0.4954	0.069	0.7732	0.301
Mof_H 	H 	0.5226	0.0938	0.8452	0.299
Mof_C 	C 	0.5898	0.0231	0.8014	0.643
Mof_H 	H 	0.6205	0.0608	0.7811	-0.186
Mof_H 	H 	0.5855	0.982	0.771	-0.188
Mof_H 	H 	0.6127	0.007	0.8428	-0.197
Mof_C 	C 	0.5173	0.9063	0.8743	-1.329
Mof_H 	H 	0.4905	0.8735	0.904	0.379
Mof_H 	H 	0.5621	0.9239	0.8964	0.39
Mof_H 	H 	0.531	0.8802	0.8338	0.383
Mof_C 	C 	0.507	0.0988	0.2122	-0.047
Mof_H 	H 	0.5176	0.1216	0.171	0.018
Mof_C 	C 	0.5664	0.0717	0.2511	0.084
Mof_H 	H 	0.6158	0.0765	0.2356	-0.035
Mof_C 	C 	0.5533	0.039	0.3105	-0.343
Mof_C 	C 	0.4796	0.0358	0.3281	0.089
Mof_H 	H 	0.4663	0.0128	0.3684	-0.025
Mof_C 	C 	0.4261	0.0641	0.2903	-0.054
Mof_H 	H 	0.3768	0.0632	0.3064	0.032
Mof_C 	C 	0.6285	0.9019	0.3626	-0.332
Mof_C 	C 	0.601	0.8624	0.3126	0.095
Mof_H 	H 	0.5768	0.8866	0.2771	-0.022
Mof_C 	C 	0.6067	0.7873	0.3109	-0.052
Mof_H 	H 	0.5845	0.7618	0.2752	0.023
Mof_C 	C 	0.6721	0.7869	0.4077	-0.044
Mof_H 	H 	0.697	0.7615	0.442	0.009
Mof_C 	C 	0.6679	0.8615	0.4111	0.053
Mof_H 	H 	0.6917	0.8863	0.4464	-0.024
Mof_C 	C 	0.7186	0.0379	0.3342	-0.62
Mof_H 	H 	0.7532	0.9974	0.3257	0.182
Mof_H 	H 	0.712	0.066	0.2928	0.18
Mof_C 	C 	0.6254	0.0366	0.4516	-0.594
Mof_H 	H 	0.5843	0.0712	0.4589	0.177
Mof_H 	H 	0.6221	0.9963	0.4838	0.178
Mof_C 	C 	0.6962	0.0716	0.453	0.026
Mof_H 	H 	0.7273	0.0439	0.4844	-0
Mof_H 	H 	0.6886	0.1201	0.4728	0.006
Mof_C 	C 	0.7448	0.0832	0.3868	0.093
Mof_H 	H 	0.7419	0.1346	0.3729	-0.023
Mof_H 	H 	0.7971	0.0717	0.3962	-0.023
Mof_Ag	Ag	0.83315	0.86723	0.14911	0.588
Mof_Si	Si	0.4486	0.8281	0.13283	1.022
Mof_Si	Si	0.9621	0.6764	0.42688	1.337
Mof_N 	N 	0.7072	0.8588	0.1372	-0.157
Mof_N 	N 	0.3823	0.7097	0.9354	-0.143
Mof_N 	N 	0.8688	0.7987	0.2388	-0.131
Mof_N 	N 	0.102	0.4715	0.3603	-0.149
Mof_C 	C 	0.6753	0.7944	0.1406	-0.039
Mof_H 	H 	0.7062	0.753	0.1447	0.019
Mof_C 	C 	0.5981	0.7834	0.1386	0.084
Mof_H 	H 	0.5787	0.7356	0.14	-0.028
Mof_C 	C 	0.5506	0.8418	0.1347	-0.354
Mof_C 	C 	0.5848	0.9082	0.1286	0.092
Mof_H 	H 	0.5554	0.9504	0.1228	-0.034
Mof_C 	C 	0.6612	0.915	0.1309	-0.048
Mof_H 	H 	0.6819	0.9623	0.1278	0.017
Mof_C 	C 	0.4272	0.7826	0.0519	-0.378
Mof_C 	C 	0.3543	0.7763	0.0356	0.087
Mof_H 	H 	0.3175	0.7959	0.064	-0.035
Mof_C 	C 	0.3332	0.74	0.9754	-0.05
Mof_H 	H 	0.2823	0.7376	0.964	0.025
Mof_C 	C 	0.452	0.7156	0.9547	-0.08
Mof_H 	H 	0.4892	0.6946	0.9275	0.028
Mof_C 	C 	0.4733	0.7494	0.0104	0.123
Mof_H 	H 	0.5245	0.7497	0.0209	-0.038
Mof_C 	C 	0.3971	0.9092	0.1575	-0.6
Mof_H 	H 	0.4303	0.9499	0.1694	0.178
Mof_H 	H 	0.3619	0.9251	0.1229	0.171
Mof_C 	C 	0.4203	0.77	0.202	-0.668
Mof_H 	H 	0.3904	0.729	0.1854	0.194
Mof_H 	H 	0.4644	0.7502	0.2246	0.2
Mof_C 	C 	0.3777	0.8124	0.2476	0.143
Mof_H 	H 	0.4065	0.822	0.2884	-0.026
Mof_H 	H 	0.3318	0.7864	0.2599	-0.033
Mof_C 	C 	0.3601	0.8793	0.2146	0.006
Mof_H 	H 	0.3628	0.9173	0.2492	0.018
Mof_H 	H 	0.3074	0.8755	0.202	0.01
Mof_C 	C 	0.9311	0.7626	0.2378	-0.09
Mof_H 	H 	0.9598	0.7636	0.1984	0.025
Mof_C 	C 	0.9573	0.7231	0.2911	0.161
Mof_H 	H 	0.0018	0.6963	0.2864	-0.065
Mof_C 	C 	0.9206	0.7216	0.3506	-0.491
Mof_C 	C 	0.8601	0.7635	0.351	0.21
Mof_H 	H 	0.834	0.7693	0.3915	-0.085
Mof_C 	C 	0.8353	0.7968	0.2981	-0.12
Mof_H 	H 	0.7896	0.8218	0.3021	0.052
Mof_C 	C 	0.0201	0.5963	0.3983	-0.437
Mof_C 	C 	0.9883	0.5285	0.3929	0.125
Mof_H 	H 	0.9371	0.5221	0.4015	-0.054
Mof_C 	C 	0.0326	0.469	0.3746	-0.056
Mof_H 	H 	0.0093	0.4229	0.3725	0.016
Mof_C 	C 	0.1338	0.5391	0.366	-0.083
Mof_H 	H 	0.1853	0.5438	0.3579	0.03
Mof_C 	C 	0.0944	0.5998	0.3828	0.148
Mof_H 	H 	0.1187	0.6454	0.3839	-0.06
Mof_C 	C 	0.0245	0.739	0.4698	-1.306
Mof_H 	H 	0.0637	0.7545	0.4394	0.367
Mof_H 	H 	0.0466	0.7145	0.5081	0.385
Mof_H 	H 	0.9967	0.7815	0.4849	0.367
Mof_C 	C 	0.8936	0.648	0.4883	-1.007
Mof_H 	H 	0.8549	0.6858	0.4908	0.278
Mof_H 	H 	0.8696	0.6031	0.472	0.278
Mof_C 	C 	0.9204	0.6347	0.554	0.573
Mof_H 	H 	0.8791	0.6207	0.5827	-0.157
Mof_H 	H 	0.9436	0.6788	0.5714	-0.168
Mof_H 	H 	0.9569	0.5954	0.5529	-0.167
Mof_Ag	Ag	0.66685	0.13277	0.64911	0.59
Mof_Si	Si	0.0514	0.1719	0.63283	1.016
Mof_Si	Si	0.5379	0.3236	0.92688	1.36
Mof_N 	N 	0.7928	0.1412	0.6372	-0.158
Mof_N 	N 	0.1177	0.2903	0.4354	-0.144
Mof_N 	N 	0.6312	0.2013	0.7388	-0.129
Mof_N 	N 	0.398	0.5285	0.8603	-0.147
Mof_C 	C 	0.8247	0.2056	0.6406	-0.038
Mof_H 	H 	0.7938	0.247	0.6447	0.019
Mof_C 	C 	0.9019	0.2166	0.6386	0.082
Mof_H 	H 	0.9213	0.2644	0.64	-0.027
Mof_C 	C 	0.9494	0.1582	0.6347	-0.35
Mof_C 	C 	0.9152	0.0918	0.6286	0.091
Mof_H 	H 	0.9446	0.0496	0.6228	-0.032
Mof_C 	C 	0.8388	0.085	0.6309	-0.047
Mof_H 	H 	0.8181	0.0377	0.6278	0.018
Mof_C 	C 	0.0728	0.2174	0.5519	-0.376
Mof_C 	C 	0.1457	0.2237	0.5356	0.087
Mof_H 	H 	0.1825	0.2041	0.564	-0.035
Mof_C 	C 	0.1668	0.26	0.4754	-0.051
Mof_H 	H 	0.2177	0.2624	0.464	0.025
Mof_C 	C 	0.048	0.2844	0.4547	-0.078
Mof_H 	H 	0.0108	0.3054	0.4275	0.028
Mof_C 	C 	0.0267	0.2506	0.5104	0.12
Mof_H 	H 	0.9755	0.2503	0.5209	-0.036
Mof_C 	C 	0.1029	0.0908	0.6575	-0.598
Mof_H 	H 	0.0697	0.0501	0.6694	0.176
Mof_H 	H 	0.1381	0.0749	0.6229	0.169
Mof_C 	C 	0.0797	0.23	0.702	-0.665
Mof_H 	H 	0.1096	0.271	0.6854	0.193
Mof_H 	H 	0.0356	0.2498	0.7246	0.198
Mof_C 	C 	0.1223	0.1876	0.7476	0.141
Mof_H 	H 	0.0935	0.178	0.7884	-0.026
Mof_H 	H 	0.1682	0.2136	0.7599	-0.033
Mof_C 	C 	0.1399	0.1207	0.7146	0.006
Mof_H 	H 	0.1372	0.0827	0.7492	0.017
Mof_H 	H 	0.1926	0.1245	0.702	0.009
Mof_C 	C 	0.5689	0.2374	0.7378	-0.095
Mof_H 	H 	0.5402	0.2364	0.6984	0.028
Mof_C 	C 	0.5427	0.2769	0.7911	0.173
Mof_H 	H 	0.4982	0.3037	0.7864	-0.071
Mof_C 	C 	0.5794	0.2784	0.8506	-0.502
Mof_C 	C 	0.6399	0.2365	0.851	0.217
Mof_H 	H 	0.666	0.2307	0.8915	-0.088
Mof_C 	C 	0.6647	0.2032	0.7981	-0.124
Mof_H 	H 	0.7104	0.1782	0.8021	0.053
Mof_C 	C 	0.4799	0.4037	0.8983	-0.448
Mof_C 	C 	0.5117	0.4715	0.8929	0.134
Mof_H 	H 	0.5629	0.4779	0.9015	-0.057
Mof_C 	C 	0.4674	0.531	0.8746	-0.061
Mof_H 	H 	0.4907	0.5771	0.8725	0.018
Mof_C 	C 	0.3662	0.4609	0.866	-0.086
Mof_H 	H 	0.3147	0.4562	0.8579	0.031
Mof_C 	C 	0.4056	0.4002	0.8828	0.155
Mof_H 	H 	0.3813	0.3546	0.8839	-0.063
Mof_C 	C 	0.4755	0.261	0.9698	-1.332
Mof_H 	H 	0.4363	0.2455	0.9394	0.373
Mof_H 	H 	0.4534	0.2855	0.0081	0.391
Mof_H 	H 	0.5033	0.2185	0.9849	0.378
Mof_C 	C 	0.6064	0.352	0.9883	-1.019
Mof_H 	H 	0.6451	0.3142	0.9908	0.282
Mof_H 	H 	0.6304	0.3969	0.972	0.282
Mof_C 	C 	0.5796	0.3653	0.054	0.584
Mof_H 	H 	0.6209	0.3793	0.0827	-0.16
Mof_H 	H 	0.5564	0.3212	0.0714	-0.17
Mof_H 	H 	0.5431	0.4046	0.0529	-0.17
Mof_Ag	Ag	0.16685	0.36723	0.35089	0.59
Mof_Si	Si	0.5514	0.3281	0.36717	1.023
Mof_Si	Si	0.0379	0.1764	0.07312	1.331
Mof_N 	N 	0.2928	0.3588	0.3628	-0.157
Mof_N 	N 	0.6177	0.2097	0.5646	-0.143
Mof_N 	N 	0.1312	0.2987	0.2612	-0.131
Mof_N 	N 	0.898	0.9715	0.1397	-0.152
Mof_C 	C 	0.3247	0.2944	0.3594	-0.04
Mof_H 	H 	0.2938	0.253	0.3553	0.019
Mof_C 	C 	0.4019	0.2834	0.3614	0.084
Mof_H 	H 	0.4213	0.2356	0.36	-0.028
Mof_C 	C 	0.4494	0.3418	0.3653	-0.355
Mof_C 	C 	0.4152	0.4082	0.3714	0.093
Mof_H 	H 	0.4446	0.4504	0.3772	-0.034
Mof_C 	C 	0.3388	0.415	0.3691	-0.048
Mof_H 	H 	0.3181	0.4623	0.3722	0.018
Mof_C 	C 	0.5728	0.2826	0.4481	-0.38
Mof_C 	C 	0.6457	0.2763	0.4644	0.089
Mof_H 	H 	0.6825	0.2959	0.436	-0.036
Mof_C 	C 	0.6668	0.24	0.5246	-0.052
Mof_H 	H 	0.7177	0.2376	0.536	0.025
Mof_C 	C 	0.548	0.2156	0.5453	-0.082
Mof_H 	H 	0.5108	0.1946	0.5725	0.029
Mof_C 	C 	0.5267	0.2494	0.4896	0.126
Mof_H 	H 	0.4755	0.2497	0.4791	-0.039
Mof_C 	C 	0.6029	0.4092	0.3425	-0.6
Mof_H 	H 	0.5697	0.4499	0.3306	0.178
Mof_H 	H 	0.6381	0.4251	0.3771	0.171
Mof_C 	C 	0.5797	0.27	0.298	-0.668
Mof_H 	H 	0.6096	0.229	0.3146	0.194
Mof_H 	H 	0.5356	0.2502	0.2754	0.2
Mof_C 	C 	0.6223	0.3124	0.2524	0.142
Mof_H 	H 	0.5935	0.322	0.2116	-0.026
Mof_H 	H 	0.6682	0.2864	0.2401	-0.033
Mof_C 	C 	0.6399	0.3793	0.2854	0.006
Mof_H 	H 	0.6372	0.4173	0.2508	0.017
Mof_H 	H 	0.6926	0.3755	0.298	0.009
Mof_C 	C 	0.0689	0.2626	0.2622	-0.088
Mof_H 	H 	0.0402	0.2636	0.3016	0.025
Mof_C 	C 	0.0427	0.2231	0.2089	0.159
Mof_H 	H 	0.9982	0.1963	0.2136	-0.063
Mof_C 	C 	0.0794	0.2216	0.1494	-0.489
Mof_C 	C 	0.1399	0.2635	0.149	0.208
Mof_H 	H 	0.166	0.2693	0.1085	-0.084
Mof_C 	C 	0.1647	0.2968	0.2019	-0.118
Mof_H 	H 	0.2104	0.3218	0.1979	0.052
Mof_C 	C 	0.9799	0.0963	0.1017	-0.428
Mof_C 	C 	0.0117	0.0285	0.1071	0.116
Mof_H 	H 	0.0629	0.0221	0.0985	-0.052
Mof_C 	C 	0.9674	0.969	0.1254	-0.055
Mof_H 	H 	0.9907	0.9229	0.1275	0.015
Mof_C 	C 	0.8662	0.0391	0.134	-0.076
Mof_H 	H 	0.8147	0.0438	0.1421	0.028
Mof_C 	C 	0.9056	0.0998	0.1172	0.142
Mof_H 	H 	0.8813	0.1454	0.1161	-0.058
Mof_C 	C 	0.9755	0.239	0.0302	-1.304
Mof_H 	H 	0.9363	0.2545	0.0606	0.366
Mof_H 	H 	0.9534	0.2145	0.9919	0.384
Mof_H 	H 	0.0033	0.2815	0.0151	0.368
Mof_C 	C 	0.1064	0.148	0.0117	-1.009
Mof_H 	H 	0.1451	0.1858	0.0092	0.278
Mof_H 	H 	0.1304	0.1031	0.028	0.278
Mof_C 	C 	0.0796	0.1347	0.946	0.578
Mof_H 	H 	0.1209	0.1207	0.9173	-0.158
Mof_H 	H 	0.0564	0.1788	0.9286	-0.168
Mof_H 	H 	0.0431	0.0954	0.9471	-0.168
Mof_Ag	Ag	0.33315	0.63277	0.85089	0.59
Mof_Si	Si	0.9486	0.6719	0.86717	1.008
Mof_Si	Si	0.4621	0.8236	0.57312	1.362
Mof_N 	N 	0.2072	0.6412	0.8628	-0.158
Mof_N 	N 	0.8823	0.7903	0.0646	-0.146
Mof_N 	N 	0.3688	0.7013	0.7612	-0.129
Mof_N 	N 	0.602	0.0285	0.6397	-0.146
Mof_C 	C 	0.1753	0.7056	0.8594	-0.037
Mof_H 	H 	0.2062	0.747	0.8553	0.018
Mof_C 	C 	0.0981	0.7166	0.8614	0.08
Mof_H 	H 	0.0787	0.7644	0.86	-0.025
Mof_C 	C 	0.0506	0.6582	0.8653	-0.346
Mof_C 	C 	0.0848	0.5918	0.8714	0.088
Mof_H 	H 	0.0554	0.5496	0.8772	-0.031
Mof_C 	C 	0.1612	0.585	0.8691	-0.046
Mof_H 	H 	0.1819	0.5377	0.8722	0.017
Mof_C 	C 	0.9272	0.7174	0.9481	-0.368
Mof_C 	C 	0.8543	0.7237	0.9644	0.082
Mof_H 	H 	0.8175	0.7041	0.936	-0.033
Mof_C 	C 	0.8332	0.76	0.0246	-0.048
Mof_H 	H 	0.7823	0.7624	0.036	0.024
Mof_C 	C 	0.952	0.7844	0.0453	-0.07
Mof_H 	H 	0.9892	0.8054	0.0725	0.024
Mof_C 	C 	0.9733	0.7506	0.9896	0.104
Mof_H 	H 	0.0245	0.7503	0.9791	-0.028
Mof_C 	C 	0.8971	0.5908	0.8425	-0.594
Mof_H 	H 	0.9303	0.5501	0.8306	0.176
Mof_H 	H 	0.8619	0.5749	0.8771	0.169
Mof_C 	C 	0.9203	0.73	0.798	-0.661
Mof_H 	H 	0.8904	0.771	0.8146	0.192
Mof_H 	H 	0.9644	0.7498	0.7754	0.196
Mof_C 	C 	0.8777	0.6876	0.7524	0.14
Mof_H 	H 	0.9065	0.678	0.7116	-0.026
Mof_H 	H 	0.8318	0.7136	0.7401	-0.032
Mof_C 	C 	0.8601	0.6207	0.7854	0.005
Mof_H 	H 	0.8628	0.5827	0.7508	0.018
Mof_H 	H 	0.8074	0.6245	0.798	0.009
Mof_C 	C 	0.4311	0.7374	0.7622	-0.096
Mof_H 	H 	0.4598	0.7364	0.8016	0.028
Mof_C 	C 	0.4573	0.7769	0.7089	0.173
Mof_H 	H 	0.5018	0.8037	0.7136	-0.071
Mof_C 	C 	0.4206	0.7784	0.6494	-0.503
Mof_C 	C 	0.3601	0.7365	0.649	0.218
Mof_H 	H 	0.334	0.7307	0.6085	-0.088
Mof_C 	C 	0.3353	0.7032	0.7019	-0.124
Mof_H 	H 	0.2896	0.6782	0.6979	0.053
Mof_C 	C 	0.5201	0.9037	0.6017	-0.45
Mof_C 	C 	0.4883	0.9715	0.6071	0.134
Mof_H 	H 	0.4371	0.9779	0.5985	-0.057
Mof_C 	C 	0.5326	0.031	0.6254	-0.061
Mof_H 	H 	0.5093	0.0771	0.6275	0.018
Mof_C 	C 	0.6338	0.9609	0.634	-0.088
Mof_H 	H 	0.6853	0.9562	0.6421	0.03
Mof_C 	C 	0.5944	0.9002	0.6172	0.156
Mof_H 	H 	0.6187	0.8546	0.6161	-0.063
Mof_C 	C 	0.5245	0.761	0.5302	-1.337
Mof_H 	H 	0.5637	0.7455	0.5606	0.375
Mof_H 	H 	0.5466	0.7855	0.4919	0.393
Mof_H 	H 	0.4967	0.7185	0.5151	0.379
Mof_C 	C 	0.3936	0.852	0.5117	-1.023
Mof_H 	H 	0.3549	0.8142	0.5092	0.283
Mof_H 	H 	0.3696	0.8969	0.528	0.283
Mof_C 	C 	0.4204	0.8653	0.446	0.588
Mof_H 	H 	0.3791	0.8793	0.4173	-0.161
Mof_H 	H 	0.4436	0.8212	0.4286	-0.171
Mof_H 	H 	0.4569	0.9046	0.4471	-0.171
_end
