data_functionalizedCrystal
_audit_creation_method	'EQeq! by Chris Wilmer'
_symmetry_space_group_name_H-M	'P1'
_symmetry_Int_Tables_number	1
_symmetry_cell_setting	triclinic
loop_
_symmetry_equiv_pos_as_xyz
  x,y,z
_cell_length_a	8.186
_cell_length_b	20.16
_cell_length_c	8.9521
_cell_angle_alpha	90
_cell_angle_beta	91.04
_cell_angle_gamma	90
loop_
_atom_site_label
_atom_site_type_symbol
_atom_site_fract_x
_atom_site_fract_y
_atom_site_fract_z
_atom_site_charge
Mof_N 	N 	0.6498	0.07245	0.8896	-0.208
Mof_N 	N 	0.8197	0.07666	0.9013	-0.086
Mof_N 	N 	0.7235	0.16316	0.7835	-0.099
Mof_N 	N 	0.6974	0.22612	0.7234	-0.035
Mof_N 	N 	0.8263	0.25718	0.7247	-0.024
Mof_N 	N 	0.7978	0.32031	0.667	-0.112
Mof_N 	N 	0.8604	0.41846	0.5911	-0.213
Mof_N 	N 	0.6928	0.41152	0.5754	-0.094
Mof_N 	N 	0.3399	0.99677	0.8044	-0.184
Mof_N 	N 	0.4165	0.99665	0.6664	-0.087
Mof_N 	N 	0.1528	0.99861	0.6308	-0.095
Mof_N 	N 	0.9967	8e-05	0.5694	-0.05
Mof_C 	C 	0.5961	0.12419	0.8193	0.115
Mof_H 	H 	0.4869	0.1332	0.797	0.001
Mof_C 	C 	0.8603	0.13204	0.8383	0.11
Mof_H 	H 	0.9663	0.1482	0.8315	0.045
Mof_C 	C 	0.9191	0.36429	0.6476	0.206
Mof_H 	H 	0.0286	0.3569	0.6713	-0.055
Mof_C 	C 	0.6582	0.35184	0.6218	0.105
Mof_H 	H 	0.5539	0.3336	0.6237	0.027
Mof_C 	C 	0.1824	0.99799	0.7806	0.118
Mof_H 	H 	0.1034	0.9984	0.854	0.03
Mof_C 	C 	0.3023	0.99785	0.565	0.112
Mof_H 	H 	0.3192	0.9981	0.4626	0.043
Mof_N 	N 	0.8502	0.57245	0.6104	-0.215
Mof_N 	N 	0.6803	0.57666	0.5987	-0.094
Mof_N 	N 	0.7765	0.66316	0.7165	-0.111
Mof_N 	N 	0.8026	0.72612	0.7766	-0.022
Mof_N 	N 	0.6737	0.75718	0.7753	-0.031
Mof_N 	N 	0.7022	0.82031	0.833	-0.096
Mof_N 	N 	0.6396	0.91846	0.9089	-0.183
Mof_N 	N 	0.8072	0.91152	0.9246	-0.064
Mof_N 	N 	0.1601	0.49677	0.6956	-0.214
Mof_N 	N 	0.0835	0.49665	0.8336	-0.131
Mof_N 	N 	0.3472	0.49861	0.8692	-0.111
Mof_N 	N 	0.5033	0.50008	0.9306	-0.009
Mof_C 	C 	0.9039	0.62419	0.6807	0.205
Mof_H 	H 	0.0131	0.6332	0.703	-0.055
Mof_C 	C 	0.6397	0.63204	0.6617	0.107
Mof_H 	H 	0.5337	0.6482	0.6685	0.027
Mof_C 	C 	0.5809	0.86429	0.8524	0.121
Mof_H 	H 	0.4714	0.8569	0.8287	0.011
Mof_C 	C 	0.8418	0.85184	0.8782	0.114
Mof_H 	H 	0.9461	0.8336	0.8763	0.051
Mof_C 	C 	0.3176	0.49799	0.7194	0.113
Mof_H 	H 	0.3966	0.4984	0.646	0.014
Mof_C 	C 	0.1977	0.49785	0.935	0.198
Mof_H 	H 	0.1808	0.4981	0.0374	-0.043
Mof_N 	N 	0.3502	0.92755	0.1104	-0.204
Mof_N 	N 	0.1803	0.92334	0.0987	-0.104
Mof_N 	N 	0.2765	0.83684	0.2165	-0.103
Mof_N 	N 	0.3026	0.77388	0.2766	-0.04
Mof_N 	N 	0.1737	0.74282	0.2753	-0.051
Mof_N 	N 	0.2022	0.67969	0.333	-0.09
Mof_N 	N 	0.1396	0.58154	0.4089	-0.2
Mof_N 	N 	0.3072	0.58848	0.4246	-0.096
Mof_N 	N 	0.6601	0.00323	0.1956	-0.226
Mof_N 	N 	0.5835	0.00335	0.3336	-0.121
Mof_N 	N 	0.8472	0.00139	0.3692	-0.107
Mof_N 	N 	0.0033	0.99992	0.4306	-0.022
Mof_C 	C 	0.4039	0.87581	0.1807	0.103
Mof_H 	H 	0.5131	0.8668	0.203	0.01
Mof_C 	C 	0.1397	0.86796	0.1617	0.096
Mof_H 	H 	0.0337	0.8518	0.1685	0.007
Mof_C 	C 	0.0809	0.63571	0.3524	0.014
Mof_H 	H 	0.9714	0.6431	0.3287	0.065
Mof_C 	C 	0.3418	0.64816	0.3782	0.097
Mof_H 	H 	0.4461	0.6664	0.3763	0.026
Mof_C 	C 	0.8176	0.00201	0.2194	0.103
Mof_H 	H 	0.8966	0.0016	0.146	-0
Mof_C 	C 	0.6977	0.00215	0.435	0.099
Mof_H 	H 	0.6808	0.0019	0.5374	0.013
Mof_N 	N 	0.1498	0.42755	0.3896	-0.202
Mof_N 	N 	0.3197	0.42334	0.4013	-0.096
Mof_N 	N 	0.2235	0.33684	0.2835	-0.091
Mof_N 	N 	0.1974	0.27388	0.2234	-0.053
Mof_N 	N 	0.3263	0.24282	0.2247	-0.043
Mof_N 	N 	0.2978	0.17969	0.167	-0.106
Mof_N 	N 	0.3604	0.08154	0.0911	-0.226
Mof_N 	N 	0.1928	0.08848	0.0754	-0.126
Mof_N 	N 	0.8399	0.50323	0.3044	-0.199
Mof_N 	N 	0.9165	0.50335	0.1664	-0.077
Mof_N 	N 	0.6528	0.50139	0.1308	-0.09
Mof_N 	N 	0.4967	0.49992	0.0694	-0.064
Mof_C 	C 	0.0961	0.37581	0.3193	0.014
Mof_H 	H 	0.9869	0.3668	0.297	0.064
Mof_C 	C 	0.3603	0.36796	0.3383	0.099
Mof_H 	H 	0.4663	0.3518	0.3315	0.024
Mof_C 	C 	0.4191	0.13571	0.1476	0.098
Mof_H 	H 	0.5286	0.1431	0.1713	0.001
Mof_C 	C 	0.1582	0.14816	0.1218	0.087
Mof_H 	H 	0.0539	0.1664	0.1237	0.001
Mof_C 	C 	0.6824	0.50201	0.2806	0.108
Mof_H 	H 	0.6034	0.5016	0.354	0.016
Mof_C 	C 	0.8023	0.50215	0.065	0.011
Mof_H 	H 	0.8192	0.5019	0.9626	0.1
Mof_Zn	Zn	0.5	0	-0	1.155
Mof_Zn	Zn	-2.40516e-18	0.5	0.5	1.174
_end
