data_functionalizedCrystal
_audit_creation_method	'EQeq! by Chris Wilmer'
_symmetry_space_group_name_H-M	'P1'
_symmetry_Int_Tables_number	1
_symmetry_cell_setting	triclinic
loop_
_symmetry_equiv_pos_as_xyz
  x,y,z
_cell_length_a	16.1402
_cell_length_b	16.3639
_cell_length_c	16.3639
_cell_angle_alpha	75.9239
_cell_angle_beta	60.4512
_cell_angle_gamma	60.4512
loop_
_atom_site_label
_atom_site_type_symbol
_atom_site_fract_x
_atom_site_fract_y
_atom_site_fract_z
_atom_site_charge
Mof_Gd	Gd	0.29276	0.46991	0.62207	1.509
Mof_Gd	Gd	0.35184	0.0215	0.6148	1.632
Mof_Gd	Gd	0.88474	0.03009	0.87793	1.466
Mof_Gd	Gd	0.48814	0.4785	0.8852	1.634
Mof_Gd	Gd	0.91483	0.37793	0.96991	1.483
Mof_Gd	Gd	0.96664	0.3852	0.5215	1.628
Mof_Gd	Gd	0.76267	0.12207	0.53009	1.506
Mof_Gd	Gd	0.37334	0.1148	0.9785	1.619
Mof_Gd	Gd	0.70724	0.53009	0.37793	1.508
Mof_Gd	Gd	0.64816	0.9785	0.3852	1.631
Mof_Gd	Gd	0.11526	0.96991	0.12207	1.465
Mof_Gd	Gd	0.51186	0.5215	0.1148	1.633
Mof_Gd	Gd	0.08517	0.62207	0.03009	1.482
Mof_Gd	Gd	0.03336	0.6148	0.4785	1.627
Mof_Gd	Gd	0.23733	0.87793	0.46991	1.505
Mof_Gd	Gd	0.62666	0.8852	0.0215	1.618
Mof_H 	H 	0.41	0.228	0.604	-0.056
Mof_H 	H 	0.445	0.26	0.742	-0.032
Mof_H 	H 	0.742	0.272	0.896	-0.056
Mof_H 	H 	0.947	0.24	0.758	-0.033
Mof_H 	H 	0.014	0.396	0.728	-0.05
Mof_H 	H 	0.187	0.258	0.76	-0.032
Mof_H 	H 	0.638	0.104	0.772	-0.057
Mof_H 	H 	0.705	0.242	0.74	-0.032
Mof_H 	H 	0.59	0.772	0.396	-0.056
Mof_H 	H 	0.555	0.74	0.258	-0.032
Mof_H 	H 	0.258	0.728	0.104	-0.056
Mof_H 	H 	0.053	0.76	0.242	-0.033
Mof_H 	H 	0.986	0.604	0.272	-0.05
Mof_H 	H 	0.813	0.742	0.24	-0.032
Mof_H 	H 	0.362	0.896	0.228	-0.057
Mof_H 	H 	0.295	0.758	0.26	-0.032
Mof_C 	C 	0.1505	0.4306	0.547	0.338
Mof_C 	C 	0.2278	0.3375	0.5583	-0.046
Mof_C 	C 	0.2497	0.2452	0.5492	-0.07
Mof_C 	C 	0.1965	0.2046	0.531	0.4
Mof_C 	C 	0.3605	0.2409	0.5879	0.155
Mof_C 	C 	0.1107	0.4501	0.8241	0.37
Mof_C 	C 	0.2034	0.3712	0.831	-0.076
Mof_C 	C 	0.2154	0.2993	0.8977	-0.057
Mof_C 	C 	0.1431	0.2783	0.9877	0.358
Mof_C 	C 	0.3696	0.2787	0.7857	0.132
Mof_C 	C 	0.6281	0.0694	0.953	0.316
Mof_C 	C 	0.6236	0.1625	0.9417	-0.042
Mof_C 	C 	0.5441	0.2548	0.9508	-0.073
Mof_C 	C 	0.4321	0.2954	0.969	0.4
Mof_C 	C 	0.6893	0.2591	0.9121	0.153
Mof_C 	C 	0.8849	0.0499	0.6759	0.352
Mof_C 	C 	0.9056	0.1288	0.669	-0.072
Mof_C 	C 	0.9124	0.2007	0.6023	-0.063
Mof_C 	C 	0.9091	0.2217	0.5123	0.368
Mof_C 	C 	0.934	0.2213	0.7143	0.13
Mof_C 	C 	0.6975	0.453	0.9306	0.333
Mof_C 	C 	0.7861	0.4417	0.8375	-0.045
Mof_C 	C 	0.7989	0.4508	0.7452	-0.071
Mof_C 	C 	0.7275	0.469	0.7046	0.4
Mof_C 	C 	0.9484	0.4121	0.7409	0.145
Mof_C 	C 	0.9348	0.1759	0.9501	0.343
Mof_C 	C 	0.0344	0.169	0.8712	-0.06
Mof_C 	C 	0.1131	0.1023	0.7993	-0.062
Mof_C 	C 	0.1308	0.0123	0.7783	0.363
Mof_C 	C 	0.1553	0.2143	0.7787	0.131
Mof_C 	C 	0.5811	0.047	0.5694	0.338
Mof_C 	C 	0.5653	0.0583	0.6625	-0.047
Mof_C 	C 	0.4949	0.0492	0.7548	-0.072
Mof_C 	C 	0.4011	0.031	0.7954	0.4
Mof_C 	C 	0.6014	0.0879	0.7591	0.153
Mof_C 	C 	0.5608	0.3241	0.5499	0.371
Mof_C 	C 	0.5746	0.331	0.6288	-0.077
Mof_C 	C 	0.5147	0.3977	0.7007	-0.061
Mof_C 	C 	0.4214	0.4877	0.7217	0.367
Mof_C 	C 	0.6483	0.2857	0.7213	0.131
Mof_C 	C 	0.8495	0.5694	0.453	0.338
Mof_C 	C 	0.7722	0.6625	0.4417	-0.046
Mof_C 	C 	0.7503	0.7548	0.4508	-0.07
Mof_C 	C 	0.8035	0.7954	0.469	0.4
Mof_C 	C 	0.6395	0.7591	0.4121	0.155
Mof_C 	C 	0.8893	0.5499	0.1759	0.37
Mof_C 	C 	0.7966	0.6288	0.169	-0.076
Mof_C 	C 	0.7846	0.7007	0.1023	-0.057
Mof_C 	C 	0.8569	0.7217	0.0123	0.358
Mof_C 	C 	0.6304	0.7213	0.2143	0.132
Mof_C 	C 	0.3719	0.9306	0.047	0.316
Mof_C 	C 	0.3764	0.8375	0.0583	-0.042
Mof_C 	C 	0.4559	0.7452	0.0492	-0.073
Mof_C 	C 	0.5679	0.7046	0.031	0.4
Mof_C 	C 	0.3107	0.7409	0.0879	0.153
Mof_C 	C 	0.1151	0.9501	0.3241	0.352
Mof_C 	C 	0.0944	0.8712	0.331	-0.072
Mof_C 	C 	0.0876	0.7993	0.3977	-0.063
Mof_C 	C 	0.0909	0.7783	0.4877	0.368
Mof_C 	C 	0.066	0.7787	0.2857	0.13
Mof_C 	C 	0.3025	0.547	0.0694	0.333
Mof_C 	C 	0.2139	0.5583	0.1625	-0.045
Mof_C 	C 	0.2011	0.5492	0.2548	-0.071
Mof_C 	C 	0.2725	0.531	0.2954	0.4
Mof_C 	C 	0.0516	0.5879	0.2591	0.145
Mof_C 	C 	0.0652	0.8241	0.0499	0.343
Mof_C 	C 	0.9656	0.831	0.1288	-0.06
Mof_C 	C 	0.8869	0.8977	0.2007	-0.062
Mof_C 	C 	0.8692	0.9877	0.2217	0.363
Mof_C 	C 	0.8447	0.7857	0.2213	0.131
Mof_C 	C 	0.4189	0.953	0.4306	0.338
Mof_C 	C 	0.4347	0.9417	0.3375	-0.047
Mof_C 	C 	0.5051	0.9508	0.2452	-0.072
Mof_C 	C 	0.5989	0.969	0.2046	0.4
Mof_C 	C 	0.3986	0.9121	0.2409	0.153
Mof_C 	C 	0.4392	0.6759	0.4501	0.371
Mof_C 	C 	0.4254	0.669	0.3712	-0.077
Mof_C 	C 	0.4853	0.6023	0.2993	-0.061
Mof_C 	C 	0.5786	0.5123	0.2783	0.367
Mof_C 	C 	0.3517	0.7143	0.2787	0.131
Mof_N 	N 	0.299	0.3321	0.5855	-0.235
Mof_N 	N 	0.3339	0.1841	0.5685	-0.229
Mof_N 	N 	0.3027	0.3576	0.76	-0.206
Mof_N 	N 	0.323	0.2412	0.8662	-0.211
Mof_N 	N 	0.7166	0.1679	0.9145	-0.235
Mof_N 	N 	0.5865	0.3159	0.9315	-0.229
Mof_N 	N 	0.9203	0.1424	0.74	-0.207
Mof_N 	N 	0.9304	0.2588	0.6338	-0.211
Mof_N 	N 	0.8845	0.4145	0.8321	-0.233
Mof_N 	N 	0.9024	0.4315	0.6841	-0.228
Mof_N 	N 	0.0627	0.24	0.8576	-0.206
Mof_N 	N 	0.1892	0.1338	0.7412	-0.21
Mof_N 	N 	0.6311	0.0855	0.6679	-0.235
Mof_N 	N 	0.518	0.0685	0.8159	-0.229
Mof_N 	N 	0.6603	0.26	0.6424	-0.206
Mof_N 	N 	0.5642	0.3662	0.7588	-0.211
Mof_N 	N 	0.701	0.6679	0.4145	-0.235
Mof_N 	N 	0.6661	0.8159	0.4315	-0.229
Mof_N 	N 	0.6973	0.6424	0.24	-0.206
Mof_N 	N 	0.677	0.7588	0.1338	-0.211
Mof_N 	N 	0.2834	0.8321	0.0855	-0.235
Mof_N 	N 	0.4135	0.6841	0.0685	-0.229
Mof_N 	N 	0.0797	0.8576	0.26	-0.207
Mof_N 	N 	0.0696	0.7412	0.3662	-0.211
Mof_N 	N 	0.1155	0.5855	0.1679	-0.233
Mof_N 	N 	0.0976	0.5685	0.3159	-0.228
Mof_N 	N 	0.9373	0.76	0.1424	-0.206
Mof_N 	N 	0.8108	0.8662	0.2588	-0.21
Mof_N 	N 	0.3689	0.9145	0.3321	-0.235
Mof_N 	N 	0.482	0.9315	0.1841	-0.229
Mof_N 	N 	0.3397	0.74	0.3576	-0.206
Mof_N 	N 	0.4358	0.6338	0.2412	-0.211
Mof_O 	O 	0.1499	0.5004	0.571	-0.46
Mof_O 	O 	0.0879	0.4452	0.5136	-0.531
Mof_O 	O 	0.1278	0.2536	0.5032	-0.47
Mof_O 	O 	0.2288	0.1168	0.5442	-0.428
Mof_O 	O 	0.0201	0.4549	0.8733	-0.452
Mof_O 	O 	0.1288	0.5136	0.7638	-0.428
Mof_O 	O 	0.0435	0.3233	0.0215	-0.448
Mof_O 	O 	0.1868	0.2106	0.0348	-0.425
Mof_O 	O 	0.7213	0.9996	0.929	-0.435
Mof_O 	O 	0.5467	0.0548	0.9864	-0.528
Mof_O 	O 	0.3846	0.2464	0.9968	-0.472
Mof_O 	O 	0.3898	0.3832	0.9558	-0.429
Mof_O 	O 	0.8483	0.0451	0.6267	-0.455
Mof_O 	O 	0.9062	0.9864	0.7362	-0.408
Mof_O 	O 	0.8883	0.1767	0.4785	-0.457
Mof_O 	O 	0.9322	0.2894	0.4652	-0.435
Mof_O 	O 	0.7209	0.429	0.0004	-0.453
Mof_O 	O 	0.6015	0.4864	0.9452	-0.53
Mof_O 	O 	0.631	0.4968	0.7536	-0.472
Mof_O 	O 	0.773	0.4558	0.6168	-0.43
Mof_O 	O 	0.8934	0.1267	0.9549	-0.452
Mof_O 	O 	0.8926	0.2362	0.0136	-0.409
Mof_O 	O 	0.065	0.9785	0.8233	-0.444
Mof_O 	O 	0.2216	0.9652	0.7106	-0.432
Mof_O 	O 	0.6503	0.071	0.4996	-0.461
Mof_O 	O 	0.5331	0.0136	0.5548	-0.532
Mof_O 	O 	0.3814	0.0032	0.7464	-0.474
Mof_O 	O 	0.3456	0.0442	0.8832	-0.43
Mof_O 	O 	0.475	0.3733	0.5451	-0.457
Mof_O 	O 	0.6424	0.2638	0.4864	-0.429
Mof_O 	O 	0.3668	0.5215	0.6767	-0.456
Mof_O 	O 	0.3974	0.5348	0.7894	-0.435
Mof_O 	O 	0.8501	0.4996	0.429	-0.46
Mof_O 	O 	0.9121	0.5548	0.4864	-0.531
Mof_O 	O 	0.8722	0.7464	0.4968	-0.47
Mof_O 	O 	0.7712	0.8832	0.4558	-0.428
Mof_O 	O 	0.9799	0.5451	0.1267	-0.452
Mof_O 	O 	0.8712	0.4864	0.2362	-0.428
Mof_O 	O 	0.9565	0.6767	0.9785	-0.448
Mof_O 	O 	0.8132	0.7894	0.9652	-0.425
Mof_O 	O 	0.2787	0.0004	0.071	-0.435
Mof_O 	O 	0.4533	0.9452	0.0136	-0.528
Mof_O 	O 	0.6154	0.7536	0.0032	-0.472
Mof_O 	O 	0.6102	0.6168	0.0442	-0.429
Mof_O 	O 	0.1517	0.9549	0.3733	-0.455
Mof_O 	O 	0.0938	0.0136	0.2638	-0.408
Mof_O 	O 	0.1117	0.8233	0.5215	-0.457
Mof_O 	O 	0.0678	0.7106	0.5348	-0.435
Mof_O 	O 	0.2791	0.571	0.9996	-0.453
Mof_O 	O 	0.3985	0.5136	0.0548	-0.53
Mof_O 	O 	0.369	0.5032	0.2464	-0.472
Mof_O 	O 	0.227	0.5442	0.3832	-0.43
Mof_O 	O 	0.1066	0.8733	0.0451	-0.452
Mof_O 	O 	0.1074	0.7638	0.9864	-0.409
Mof_O 	O 	0.935	0.0215	0.1767	-0.444
Mof_O 	O 	0.7784	0.0348	0.2894	-0.432
Mof_O 	O 	0.3497	0.929	0.5004	-0.461
Mof_O 	O 	0.4669	0.9864	0.4452	-0.532
Mof_O 	O 	0.6186	0.9968	0.2536	-0.474
Mof_O 	O 	0.6544	0.9558	0.1168	-0.43
Mof_O 	O 	0.525	0.6267	0.4549	-0.457
Mof_O 	O 	0.3576	0.7362	0.5136	-0.429
Mof_O 	O 	0.6332	0.4785	0.3233	-0.456
Mof_O 	O 	0.6026	0.4652	0.2106	-0.435
_end
