data_functionalizedCrystal
_audit_creation_method	'EQeq! by Chris Wilmer'
_symmetry_space_group_name_H-M	'P1'
_symmetry_Int_Tables_number	1
_symmetry_cell_setting	triclinic
loop_
_symmetry_equiv_pos_as_xyz
  x,y,z
_cell_length_a	12.02
_cell_length_b	21.79
_cell_length_c	21.79
_cell_angle_alpha	120
_cell_angle_beta	90
_cell_angle_gamma	90
loop_
_atom_site_label
_atom_site_type_symbol
_atom_site_fract_x
_atom_site_fract_y
_atom_site_fract_z
_atom_site_charge
Mof_Ag	Ag	0.25	0.26242	0.73758	0.497
Mof_Ag	Ag	0.25	0.47516	0.73758	0.498
Mof_Ag	Ag	0.25	0.26242	0.52484	0.495
Mof_Ag	Ag	0.75	0.73758	0.26242	0.499
Mof_Ag	Ag	0.75	0.52484	0.26242	0.498
Mof_Ag	Ag	0.75	0.73758	0.47516	0.5
Mof_Ag	Ag	0.41002	0.33333	0.66666	0.465
Mof_Ag	Ag	0.91002	0.66667	0.33334	0.482
Mof_Ag	Ag	0.58998	0.66667	0.33334	0.462
Mof_Ag	Ag	0.08998	0.33333	0.66666	0.445
Mof_Ag	Ag	0.5	0.50058	-0	0.59
Mof_Ag	Ag	0.5	0.49942	0.49942	0.618
Mof_Ag	Ag	0.5	0	0.50058	0.59
Mof_Ag	Ag	-0	0.49942	-0	0.559
Mof_Ag	Ag	-5.10741e-33	0.50058	0.50058	0.588
Mof_Ag	Ag	-0	4.60035e-17	0.49942	0.56
Mof_H 	H 	0.0763	0.068	0.4161	0.046
Mof_H 	H 	0.0107	0.0777	0.3212	-0.017
Mof_H 	H 	0.905	0.1751	0.3413	0.063
Mof_H 	H 	0.8648	0.2628	0.4564	0.054
Mof_H 	H 	0.9303	0.2532	0.5513	0.054
Mof_H 	H 	0.2092	0.9917	0.5551	0.07
Mof_H 	H 	0.262	0.9181	0.5985	0.035
Mof_H 	H 	0.2518	0.9584	0.719	0.043
Mof_H 	H 	0.1887	0.0722	0.7962	0.035
Mof_H 	H 	0.1359	0.1458	0.7528	0.03
Mof_H 	H 	0.0763	0.3481	0.932	0.052
Mof_H 	H 	0.0107	0.2435	0.9223	-0.008
Mof_H 	H 	0.905	0.1662	0.8249	0.062
Mof_H 	H 	0.8648	0.1936	0.7372	0.055
Mof_H 	H 	0.9303	0.2981	0.7468	0.054
Mof_H 	H 	0.2092	0.5634	0.0083	-0.016
Mof_H 	H 	0.262	0.6804	0.0819	0.079
Mof_H 	H 	0.2518	0.7606	0.0416	0.025
Mof_H 	H 	0.1887	0.724	0.9278	0.045
Mof_H 	H 	0.1359	0.607	0.8542	0.015
Mof_H 	H 	0.0763	0.5839	0.6519	0.045
Mof_H 	H 	0.0107	0.6788	0.7565	-0.007
Mof_H 	H 	0.905	0.6587	0.8338	0.063
Mof_H 	H 	0.8648	0.5436	0.8064	0.057
Mof_H 	H 	0.9303	0.4487	0.7019	0.053
Mof_H 	H 	0.2092	0.4449	0.4366	0.025
Mof_H 	H 	0.262	0.4015	0.3196	0.056
Mof_H 	H 	0.2518	0.281	0.2394	0.032
Mof_H 	H 	0.1887	0.2038	0.276	0.037
Mof_H 	H 	0.1359	0.2472	0.393	0.022
Mof_H 	H 	0.5763	0.932	0.5839	0.024
Mof_H 	H 	0.5107	0.9223	0.6788	0.048
Mof_H 	H 	0.405	0.8249	0.6587	0.035
Mof_H 	H 	0.3648	0.7372	0.5436	0.069
Mof_H 	H 	0.4303	0.7468	0.4487	0.043
Mof_H 	H 	0.7092	0.0083	0.4449	-0.013
Mof_H 	H 	0.762	0.0819	0.4015	0.079
Mof_H 	H 	0.7518	0.0416	0.281	0.026
Mof_H 	H 	0.6887	0.9278	0.2038	0.045
Mof_H 	H 	0.6359	0.8542	0.2472	0.018
Mof_H 	H 	0.5763	0.6519	0.068	0.017
Mof_H 	H 	0.5107	0.7565	0.0777	0.041
Mof_H 	H 	0.405	0.8338	0.1751	0.034
Mof_H 	H 	0.3648	0.8064	0.2628	0.071
Mof_H 	H 	0.4303	0.7019	0.2532	0.042
Mof_H 	H 	0.7092	0.4366	0.9917	0.07
Mof_H 	H 	0.762	0.3196	0.9181	0.036
Mof_H 	H 	0.7518	0.2394	0.9584	0.043
Mof_H 	H 	0.6887	0.276	0.0722	0.035
Mof_H 	H 	0.6359	0.393	0.1458	0.033
Mof_H 	H 	0.5763	0.4161	0.3481	0.019
Mof_H 	H 	0.5107	0.3212	0.2435	0.043
Mof_H 	H 	0.405	0.3413	0.1662	0.032
Mof_H 	H 	0.3648	0.4564	0.1936	0.069
Mof_H 	H 	0.4303	0.5513	0.2981	0.042
Mof_H 	H 	0.7092	0.5551	0.5634	0.025
Mof_H 	H 	0.762	0.5985	0.6804	0.058
Mof_H 	H 	0.7518	0.719	0.7606	0.036
Mof_H 	H 	0.6887	0.7962	0.724	0.044
Mof_H 	H 	0.6359	0.7528	0.607	0.025
Mof_H 	H 	0.9237	0.6519	0.5839	-0.003
Mof_H 	H 	0.9893	0.7565	0.6788	0.098
Mof_H 	H 	0.095	0.8338	0.6587	0.009
Mof_H 	H 	0.1352	0.8064	0.5436	0.084
Mof_H 	H 	0.0697	0.7019	0.4487	0.032
Mof_H 	H 	0.7908	0.4366	0.4449	0.027
Mof_H 	H 	0.738	0.3196	0.4015	0.057
Mof_H 	H 	0.7482	0.2394	0.281	0.033
Mof_H 	H 	0.8113	0.276	0.2038	0.04
Mof_H 	H 	0.8641	0.393	0.2472	0.029
Mof_H 	H 	0.9237	0.4161	0.068	-0.007
Mof_H 	H 	0.9893	0.3212	0.0777	0.095
Mof_H 	H 	0.095	0.3413	0.1751	0.005
Mof_H 	H 	0.1352	0.4564	0.2628	0.084
Mof_H 	H 	0.0697	0.5513	0.2532	0.032
Mof_H 	H 	0.7908	0.5551	0.9917	0.072
Mof_H 	H 	0.738	0.5985	0.9181	0.036
Mof_H 	H 	0.7482	0.719	0.9584	0.045
Mof_H 	H 	0.8113	0.7962	0.0722	0.038
Mof_H 	H 	0.8641	0.7528	0.1458	0.037
Mof_H 	H 	0.9237	0.932	0.3481	0.002
Mof_H 	H 	0.9893	0.9223	0.2435	0.098
Mof_H 	H 	0.095	0.8249	0.1662	0.008
Mof_H 	H 	0.1352	0.7372	0.1936	0.082
Mof_H 	H 	0.0697	0.7468	0.2981	0.033
Mof_H 	H 	0.7908	0.0083	0.5634	-0.01
Mof_H 	H 	0.738	0.0819	0.6804	0.078
Mof_H 	H 	0.7482	0.0416	0.7606	0.027
Mof_H 	H 	0.8113	0.9278	0.724	0.048
Mof_H 	H 	0.8641	0.8542	0.607	0.022
Mof_H 	H 	0.4237	0.3481	0.4161	0.019
Mof_H 	H 	0.4893	0.2435	0.3212	0.043
Mof_H 	H 	0.595	0.1662	0.3413	0.033
Mof_H 	H 	0.6352	0.1936	0.4564	0.069
Mof_H 	H 	0.5697	0.2981	0.5513	0.042
Mof_H 	H 	0.2908	0.5634	0.5551	0.024
Mof_H 	H 	0.238	0.6804	0.5985	0.057
Mof_H 	H 	0.2482	0.7606	0.719	0.034
Mof_H 	H 	0.3113	0.724	0.7962	0.043
Mof_H 	H 	0.3641	0.607	0.7528	0.025
Mof_H 	H 	0.4237	0.5839	0.932	0.025
Mof_H 	H 	0.4893	0.6788	0.9223	0.048
Mof_H 	H 	0.595	0.6587	0.8249	0.036
Mof_H 	H 	0.6352	0.5436	0.7372	0.069
Mof_H 	H 	0.5697	0.4487	0.7468	0.043
Mof_H 	H 	0.2908	0.4449	0.0083	-0.017
Mof_H 	H 	0.238	0.4015	0.0819	0.079
Mof_H 	H 	0.2482	0.281	0.0416	0.023
Mof_H 	H 	0.3113	0.2038	0.9278	0.044
Mof_H 	H 	0.3641	0.2472	0.8542	0.018
Mof_H 	H 	0.4237	0.068	0.6519	0.017
Mof_H 	H 	0.4893	0.0777	0.7565	0.041
Mof_H 	H 	0.595	0.1751	0.8338	0.035
Mof_H 	H 	0.6352	0.2628	0.8064	0.071
Mof_H 	H 	0.5697	0.2532	0.7019	0.042
Mof_H 	H 	0.2908	0.9917	0.4366	0.069
Mof_H 	H 	0.238	0.9181	0.3196	0.035
Mof_H 	H 	0.2482	0.9584	0.2394	0.041
Mof_H 	H 	0.3113	0.0722	0.276	0.034
Mof_H 	H 	0.3641	0.1458	0.393	0.033
Mof_C 	C 	0.438	0.4492	0.8412	0.114
Mof_C 	C 	0.1287	0.1194	0.6214	0.084
Mof_C 	C 	0.0098	0.1596	0.4931	-0.039
Mof_C 	C 	0.0339	0.1071	0.4242	-0.121
Mof_C 	C 	0.9946	0.1129	0.3673	0.06
Mof_C 	C 	0.9313	0.1712	0.3793	-0.1
Mof_C 	C 	0.9072	0.2238	0.4483	-0.014
Mof_C 	C 	0.9464	0.218	0.5052	-0.033
Mof_C 	C 	0.1673	0.076	0.6497	-0.013
Mof_C 	C 	0.2051	0.0078	0.6034	-0.131
Mof_C 	C 	0.2367	0.9637	0.6294	0.008
Mof_C 	C 	0.2306	0.9879	0.7016	-0.046
Mof_C 	C 	0.1928	0.056	0.7479	-0.052
Mof_C 	C 	0.1612	0.1001	0.7219	-0.06
Mof_C 	C 	0.438	0.392	0.5508	0.114
Mof_C 	C 	0.1287	0.502	0.8806	0.113
Mof_C 	C 	0.0098	0.3335	0.8404	-0.038
Mof_C 	C 	0.0339	0.3171	0.8929	-0.116
Mof_C 	C 	0.9946	0.2544	0.8871	0.056
Mof_C 	C 	0.9313	0.2081	0.8288	-0.096
Mof_C 	C 	0.9072	0.2245	0.7762	-0.015
Mof_C 	C 	0.9464	0.2872	0.782	-0.033
Mof_C 	C 	0.1673	0.5737	0.924	-0.086
Mof_C 	C 	0.2051	0.5956	0.9922	0.052
Mof_C 	C 	0.2367	0.6657	0.0363	-0.127
Mof_C 	C 	0.2306	0.7137	0.0121	-0.017
Mof_C 	C 	0.1928	0.6919	0.944	-0.061
Mof_C 	C 	0.1612	0.6218	0.8999	-0.013
Mof_C 	C 	0.438	0.1588	0.608	0.114
Mof_C 	C 	0.1287	0.3786	0.498	0.098
Mof_C 	C 	0.0098	0.5069	0.6665	-0.042
Mof_C 	C 	0.0339	0.5758	0.6829	-0.113
Mof_C 	C 	0.9946	0.6327	0.7456	0.051
Mof_C 	C 	0.9313	0.6207	0.7919	-0.093
Mof_C 	C 	0.9072	0.5517	0.7755	-0.019
Mof_C 	C 	0.9464	0.4948	0.7128	-0.029
Mof_C 	C 	0.1673	0.3503	0.4263	-0.051
Mof_C 	C 	0.2051	0.3966	0.4044	-0.04
Mof_C 	C 	0.2367	0.3706	0.3343	-0.06
Mof_C 	C 	0.2306	0.2984	0.2863	-0.032
Mof_C 	C 	0.1928	0.2521	0.3081	-0.057
Mof_C 	C 	0.1612	0.2781	0.3782	-0.037
Mof_C 	C 	0.938	0.5508	0.1588	0.126
Mof_C 	C 	0.6287	0.8806	0.3786	0.115
Mof_C 	C 	0.5098	0.8404	0.5069	-0.059
Mof_C 	C 	0.5339	0.8929	0.5758	-0.034
Mof_C 	C 	0.4946	0.8871	0.6327	-0.061
Mof_C 	C 	0.4313	0.8288	0.6207	-0.027
Mof_C 	C 	0.4072	0.7762	0.5517	-0.062
Mof_C 	C 	0.4464	0.782	0.4948	-0.017
Mof_C 	C 	0.6673	0.924	0.3503	-0.083
Mof_C 	C 	0.7051	0.9922	0.3966	0.049
Mof_C 	C 	0.7367	0.0363	0.3706	-0.121
Mof_C 	C 	0.7306	0.0121	0.2984	-0.017
Mof_C 	C 	0.6928	0.944	0.2521	-0.058
Mof_C 	C 	0.6612	0.8999	0.2781	-0.013
Mof_C 	C 	0.938	0.608	0.4492	0.126
Mof_C 	C 	0.6287	0.498	0.1194	0.087
Mof_C 	C 	0.5098	0.6665	0.1596	-0.062
Mof_C 	C 	0.5339	0.6829	0.1071	-0.034
Mof_C 	C 	0.4946	0.7456	0.1129	-0.063
Mof_C 	C 	0.4313	0.7919	0.1712	-0.027
Mof_C 	C 	0.4072	0.7755	0.2238	-0.064
Mof_C 	C 	0.4464	0.7128	0.218	-0.016
Mof_C 	C 	0.6673	0.4263	0.076	-0.013
Mof_C 	C 	0.7051	0.4044	0.0078	-0.128
Mof_C 	C 	0.7367	0.3343	0.9637	0.009
Mof_C 	C 	0.7306	0.2863	0.9879	-0.044
Mof_C 	C 	0.6928	0.3081	0.056	-0.05
Mof_C 	C 	0.6612	0.3782	0.1001	-0.059
Mof_C 	C 	0.938	0.8412	0.392	0.125
Mof_C 	C 	0.6287	0.6214	0.502	0.101
Mof_C 	C 	0.5098	0.4931	0.3335	-0.062
Mof_C 	C 	0.5339	0.4242	0.3171	-0.033
Mof_C 	C 	0.4946	0.3673	0.2544	-0.063
Mof_C 	C 	0.4313	0.3793	0.2081	-0.027
Mof_C 	C 	0.4072	0.4483	0.2245	-0.064
Mof_C 	C 	0.4464	0.5052	0.2872	-0.016
Mof_C 	C 	0.6673	0.6497	0.5737	-0.051
Mof_C 	C 	0.7051	0.6034	0.5956	-0.037
Mof_C 	C 	0.7367	0.6294	0.6657	-0.059
Mof_C 	C 	0.7306	0.7016	0.7137	-0.029
Mof_C 	C 	0.6928	0.7479	0.6919	-0.056
Mof_C 	C 	0.6612	0.7219	0.6218	-0.033
Mof_C 	C 	0.562	0.608	0.1588	0.113
Mof_C 	C 	0.8713	0.498	0.3786	0.103
Mof_C 	C 	0.9902	0.6665	0.5069	-0.078
Mof_C 	C 	0.9661	0.6829	0.5758	0.044
Mof_C 	C 	0.0054	0.7456	0.6327	-0.174
Mof_C 	C 	0.0687	0.7919	0.6207	0.038
Mof_C 	C 	0.0928	0.7755	0.5517	-0.107
Mof_C 	C 	0.0536	0.7128	0.4948	-0.003
Mof_C 	C 	0.8327	0.4263	0.3503	-0.047
Mof_C 	C 	0.7949	0.4044	0.3966	-0.039
Mof_C 	C 	0.7633	0.3343	0.3706	-0.057
Mof_C 	C 	0.7694	0.2863	0.2984	-0.031
Mof_C 	C 	0.8072	0.3081	0.2521	-0.053
Mof_C 	C 	0.8388	0.3782	0.2781	-0.036
Mof_C 	C 	0.562	0.8412	0.4492	0.114
Mof_C 	C 	0.8713	0.6214	0.1194	0.089
Mof_C 	C 	0.9902	0.4931	0.1596	-0.079
Mof_C 	C 	0.9661	0.4242	0.1071	0.047
Mof_C 	C 	0.0054	0.3673	0.1129	-0.18
Mof_C 	C 	0.0687	0.3793	0.1712	0.04
Mof_C 	C 	0.0928	0.4483	0.2238	-0.109
Mof_C 	C 	0.0536	0.5052	0.218	-0.002
Mof_C 	C 	0.8327	0.6497	0.076	-0.01
Mof_C 	C 	0.7949	0.6034	0.0078	-0.128
Mof_C 	C 	0.7633	0.6294	0.9637	0.01
Mof_C 	C 	0.7694	0.7016	0.9879	-0.045
Mof_C 	C 	0.8072	0.7479	0.056	-0.048
Mof_C 	C 	0.8388	0.7219	0.1001	-0.059
Mof_C 	C 	0.562	0.5508	0.392	0.114
Mof_C 	C 	0.8713	0.8806	0.502	0.117
Mof_C 	C 	0.9902	0.8404	0.3335	-0.074
Mof_C 	C 	0.9661	0.8929	0.3171	0.042
Mof_C 	C 	0.0054	0.8871	0.2544	-0.17
Mof_C 	C 	0.0687	0.8288	0.2081	0.036
Mof_C 	C 	0.0928	0.7762	0.2245	-0.104
Mof_C 	C 	0.0536	0.782	0.2872	-0.005
Mof_C 	C 	0.8327	0.924	0.5737	-0.079
Mof_C 	C 	0.7949	0.9922	0.5956	0.046
Mof_C 	C 	0.7633	0.0363	0.6657	-0.118
Mof_C 	C 	0.7694	0.0121	0.7137	-0.018
Mof_C 	C 	0.8072	0.944	0.6919	-0.056
Mof_C 	C 	0.8388	0.8999	0.6218	-0.014
Mof_C 	C 	0.062	0.392	0.8412	0.101
Mof_C 	C 	0.3713	0.502	0.6214	0.101
Mof_C 	C 	0.4902	0.3335	0.4931	-0.062
Mof_C 	C 	0.4661	0.3171	0.4242	-0.034
Mof_C 	C 	0.5054	0.2544	0.3673	-0.063
Mof_C 	C 	0.5687	0.2081	0.3793	-0.027
Mof_C 	C 	0.5928	0.2245	0.4483	-0.063
Mof_C 	C 	0.5536	0.2872	0.5052	-0.016
Mof_C 	C 	0.3327	0.5737	0.6497	-0.051
Mof_C 	C 	0.2949	0.5956	0.6034	-0.039
Mof_C 	C 	0.2633	0.6657	0.6294	-0.061
Mof_C 	C 	0.2694	0.7137	0.7016	-0.03
Mof_C 	C 	0.3072	0.6919	0.7479	-0.057
Mof_C 	C 	0.3388	0.6218	0.7219	-0.034
Mof_C 	C 	0.062	0.1588	0.5508	0.1
Mof_C 	C 	0.3713	0.3786	0.8806	0.116
Mof_C 	C 	0.4902	0.5069	0.8404	-0.058
Mof_C 	C 	0.4661	0.5758	0.8929	-0.034
Mof_C 	C 	0.5054	0.6327	0.8871	-0.061
Mof_C 	C 	0.5687	0.6207	0.8288	-0.028
Mof_C 	C 	0.5928	0.5517	0.7762	-0.061
Mof_C 	C 	0.5536	0.4948	0.782	-0.017
Mof_C 	C 	0.3327	0.3503	0.924	-0.085
Mof_C 	C 	0.2949	0.3966	0.9922	0.052
Mof_C 	C 	0.2633	0.3706	0.0363	-0.127
Mof_C 	C 	0.2694	0.2984	0.0121	-0.017
Mof_C 	C 	0.3072	0.2521	0.944	-0.059
Mof_C 	C 	0.3388	0.2781	0.8999	-0.013
Mof_C 	C 	0.062	0.4492	0.608	0.102
Mof_C 	C 	0.3713	0.1194	0.498	0.087
Mof_C 	C 	0.4902	0.1596	0.6665	-0.061
Mof_C 	C 	0.4661	0.1071	0.6829	-0.035
Mof_C 	C 	0.5054	0.1129	0.7456	-0.062
Mof_C 	C 	0.5687	0.1712	0.7919	-0.028
Mof_C 	C 	0.5928	0.2238	0.7755	-0.063
Mof_C 	C 	0.5536	0.218	0.7128	-0.016
Mof_C 	C 	0.3327	0.076	0.4263	-0.013
Mof_C 	C 	0.2949	0.0078	0.4044	-0.13
Mof_C 	C 	0.2633	0.9637	0.3343	0.007
Mof_C 	C 	0.2694	0.9879	0.2863	-0.045
Mof_C 	C 	0.3072	0.056	0.3081	-0.051
Mof_C 	C 	0.3388	0.1001	0.3782	-0.06
Mof_N 	N 	0.1439	0.4637	0.8074	-0.185
Mof_N 	N 	0.3983	0.3928	0.7843	-0.187
Mof_N 	N 	0.4206	0.4435	0.9028	-0.21
Mof_N 	N 	0.1439	0.3437	0.5363	-0.182
Mof_N 	N 	0.3983	0.3915	0.6072	-0.187
Mof_N 	N 	0.4206	0.4593	0.5565	-0.216
Mof_N 	N 	0.1439	0.1926	0.6563	-0.18
Mof_N 	N 	0.3983	0.2157	0.6085	-0.186
Mof_N 	N 	0.4206	0.0972	0.5407	-0.212
Mof_N 	N 	0.6439	0.5363	0.1926	-0.18
Mof_N 	N 	0.8983	0.6072	0.2157	-0.187
Mof_N 	N 	0.9206	0.5565	0.0972	-0.206
Mof_N 	N 	0.6439	0.6563	0.4637	-0.182
Mof_N 	N 	0.8983	0.6085	0.3928	-0.187
Mof_N 	N 	0.9206	0.5407	0.4435	-0.21
Mof_N 	N 	0.6439	0.8074	0.3437	-0.184
Mof_N 	N 	0.8983	0.7843	0.3915	-0.187
Mof_N 	N 	0.9206	0.9028	0.4593	-0.205
Mof_N 	N 	0.8561	0.6563	0.1926	-0.179
Mof_N 	N 	0.6017	0.6085	0.2157	-0.187
Mof_N 	N 	0.5794	0.5407	0.0972	-0.212
Mof_N 	N 	0.8561	0.8074	0.4637	-0.183
Mof_N 	N 	0.6017	0.7843	0.3928	-0.187
Mof_N 	N 	0.5794	0.9028	0.4435	-0.211
Mof_N 	N 	0.8561	0.5363	0.3437	-0.181
Mof_N 	N 	0.6017	0.6072	0.3915	-0.187
Mof_N 	N 	0.5794	0.5565	0.4593	-0.216
Mof_N 	N 	0.3561	0.3437	0.8074	-0.183
Mof_N 	N 	0.1017	0.3915	0.7843	-0.186
Mof_N 	N 	0.0794	0.4593	0.9028	-0.207
Mof_N 	N 	0.3561	0.1926	0.5363	-0.179
Mof_N 	N 	0.1017	0.2157	0.6072	-0.185
Mof_N 	N 	0.0794	0.0972	0.5565	-0.209
Mof_N 	N 	0.3561	0.4637	0.6563	-0.181
Mof_N 	N 	0.1017	0.3928	0.6085	-0.186
Mof_N 	N 	0.0794	0.4435	0.5407	-0.212
Mof_N 	N 	0.75	0.41495	0.58505	0.066
Mof_O 	O 	0.824	0.3649	0.5633	-0.139
Mof_O 	O 	0.676	0.4367	0.6351	-0.144
Mof_O 	O 	0.75	0.4435	0.5565	-0.173
Mof_N 	N 	0.75	0.1701	0.58505	0.066
Mof_O 	O 	0.824	0.1984	0.6351	-0.139
Mof_O 	O 	0.676	0.1984	0.5633	-0.144
Mof_O 	O 	0.75	0.113	0.5565	-0.171
Mof_N 	N 	0.75	0.41495	0.8299	0.066
Mof_O 	O 	0.824	0.4367	0.8016	-0.138
Mof_O 	O 	0.676	0.3649	0.8016	-0.143
Mof_O 	O 	0.75	0.4435	0.887	-0.171
Mof_N 	N 	0.25	0.58505	0.41495	0.067
Mof_O 	O 	0.324	0.6351	0.4367	-0.144
Mof_O 	O 	0.176	0.5633	0.3649	-0.148
Mof_O 	O 	0.25	0.5565	0.4435	-0.178
Mof_N 	N 	0.25	0.8299	0.41495	0.067
Mof_O 	O 	0.324	0.8016	0.3649	-0.143
Mof_O 	O 	0.176	0.8016	0.4367	-0.147
Mof_O 	O 	0.25	0.887	0.4435	-0.175
Mof_N 	N 	0.25	0.58505	0.1701	0.066
Mof_O 	O 	0.324	0.5633	0.1984	-0.144
Mof_O 	O 	0.176	0.6351	0.1984	-0.148
Mof_O 	O 	0.25	0.5565	0.113	-0.176
_end
