data_functionalizedCrystal
_audit_creation_method	'EQeq! by Chris Wilmer'
_symmetry_space_group_name_H-M	'P1'
_symmetry_Int_Tables_number	1
_symmetry_cell_setting	triclinic
loop_
_symmetry_equiv_pos_as_xyz
  x,y,z
_cell_length_a	25.976
_cell_length_b	25.976
_cell_length_c	25.976
_cell_angle_alpha	90
_cell_angle_beta	90
_cell_angle_gamma	90
loop_
_atom_site_label
_atom_site_type_symbol
_atom_site_fract_x
_atom_site_fract_y
_atom_site_fract_z
_atom_site_charge
Mof_O 	O 	0.3488	0.6116	0.799	-0.358
Mof_N 	N 	0.3689	0.543	0.8717	-0.247
Mof_C 	C 	0.3484	0.5266	0.826	-0.073
Mof_C 	C 	0.3344	0.5675	0.7902	0.347
Mof_O 	O 	0.3077	0.5552	0.7526	-0.411
Mof_O 	O 	0.3488	0.1116	0.299	-0.368
Mof_N 	N 	0.3689	0.043	0.3717	-0.237
Mof_C 	C 	0.3484	0.0266	0.326	-0.135
Mof_C 	C 	0.3344	0.0675	0.2902	0.365
Mof_O 	O 	0.3077	0.0552	0.2526	-0.431
Mof_O 	O 	0.8488	0.6116	0.299	-0.356
Mof_N 	N 	0.8689	0.543	0.3717	-0.247
Mof_C 	C 	0.8484	0.5266	0.326	-0.071
Mof_C 	C 	0.8344	0.5675	0.2902	0.348
Mof_O 	O 	0.8077	0.5552	0.2526	-0.411
Mof_O 	O 	0.8488	0.1116	0.799	-0.363
Mof_N 	N 	0.8689	0.043	0.8717	-0.232
Mof_C 	C 	0.8484	0.0266	0.826	-0.13
Mof_C 	C 	0.8344	0.0675	0.7902	0.366
Mof_O 	O 	0.8077	0.0552	0.7526	-0.425
Mof_O 	O 	0.6512	0.3884	0.799	-0.357
Mof_N 	N 	0.6311	0.457	0.8717	-0.245
Mof_C 	C 	0.6516	0.4734	0.826	-0.071
Mof_C 	C 	0.6656	0.4325	0.7902	0.348
Mof_O 	O 	0.6923	0.4448	0.7526	-0.41
Mof_O 	O 	0.6512	0.8884	0.299	-0.349
Mof_N 	N 	0.6311	0.957	0.3717	-0.229
Mof_C 	C 	0.6516	0.9734	0.326	-0.008
Mof_C 	C 	0.6656	0.9325	0.2902	0.328
Mof_O 	O 	0.6923	0.9448	0.2526	-0.388
Mof_O 	O 	0.1512	0.3884	0.299	-0.36
Mof_N 	N 	0.1311	0.457	0.3717	-0.249
Mof_C 	C 	0.1516	0.4734	0.326	-0.074
Mof_C 	C 	0.1656	0.4325	0.2902	0.347
Mof_O 	O 	0.1923	0.4448	0.2526	-0.415
Mof_O 	O 	0.1512	0.8884	0.799	-0.35
Mof_N 	N 	0.1311	0.957	0.8717	-0.228
Mof_C 	C 	0.1516	0.9734	0.826	-0.009
Mof_C 	C 	0.1656	0.9325	0.7902	0.327
Mof_O 	O 	0.1923	0.9448	0.7526	-0.388
Mof_O 	O 	0.6512	0.6116	0.201	-0.357
Mof_N 	N 	0.6311	0.543	0.1283	-0.249
Mof_C 	C 	0.6516	0.5266	0.174	-0.073
Mof_C 	C 	0.6656	0.5675	0.2098	0.347
Mof_O 	O 	0.6923	0.5552	0.2474	-0.41
Mof_O 	O 	0.6512	0.1116	0.701	-0.364
Mof_N 	N 	0.6311	0.043	0.6283	-0.236
Mof_C 	C 	0.6516	0.0266	0.674	-0.132
Mof_C 	C 	0.6656	0.0675	0.7098	0.366
Mof_O 	O 	0.6923	0.0552	0.7474	-0.425
Mof_O 	O 	0.1512	0.6116	0.701	-0.358
Mof_N 	N 	0.1311	0.543	0.6283	-0.249
Mof_C 	C 	0.1516	0.5266	0.674	-0.073
Mof_C 	C 	0.1656	0.5675	0.7098	0.347
Mof_O 	O 	0.1923	0.5552	0.7474	-0.41
Mof_O 	O 	0.1512	0.1116	0.201	-0.367
Mof_N 	N 	0.1311	0.043	0.1283	-0.238
Mof_C 	C 	0.1516	0.0266	0.174	-0.134
Mof_C 	C 	0.1656	0.0675	0.2098	0.365
Mof_O 	O 	0.1923	0.0552	0.2474	-0.43
Mof_O 	O 	0.3488	0.3884	0.201	-0.358
Mof_N 	N 	0.3689	0.457	0.1283	-0.249
Mof_C 	C 	0.3484	0.4734	0.174	-0.073
Mof_C 	C 	0.3344	0.4325	0.2098	0.347
Mof_O 	O 	0.3077	0.4448	0.2474	-0.411
Mof_O 	O 	0.3488	0.8884	0.701	-0.347
Mof_N 	N 	0.3689	0.957	0.6283	-0.229
Mof_C 	C 	0.3484	0.9734	0.674	-0.008
Mof_C 	C 	0.3344	0.9325	0.7098	0.327
Mof_O 	O 	0.3077	0.9448	0.7474	-0.384
Mof_O 	O 	0.8488	0.3884	0.701	-0.353
Mof_N 	N 	0.8689	0.457	0.6283	-0.246
Mof_C 	C 	0.8484	0.4734	0.674	-0.069
Mof_C 	C 	0.8344	0.4325	0.7098	0.349
Mof_O 	O 	0.8077	0.4448	0.7474	-0.405
Mof_O 	O 	0.8488	0.8884	0.201	-0.345
Mof_N 	N 	0.8689	0.957	0.1283	-0.228
Mof_C 	C 	0.8484	0.9734	0.174	-0.007
Mof_C 	C 	0.8344	0.9325	0.2098	0.328
Mof_O 	O 	0.8077	0.9448	0.2474	-0.384
Mof_O 	O 	0.799	0.3488	0.6116	-0.357
Mof_N 	N 	0.8717	0.3689	0.543	-0.246
Mof_C 	C 	0.826	0.3484	0.5266	-0.072
Mof_C 	C 	0.7902	0.3344	0.5675	0.348
Mof_O 	O 	0.7526	0.3077	0.5552	-0.41
Mof_O 	O 	0.799	0.8488	0.1116	-0.362
Mof_N 	N 	0.8717	0.8689	0.043	-0.231
Mof_C 	C 	0.826	0.8484	0.0266	-0.129
Mof_C 	C 	0.7902	0.8344	0.0675	0.367
Mof_O 	O 	0.7526	0.8077	0.0552	-0.425
Mof_O 	O 	0.299	0.3488	0.1116	-0.367
Mof_N 	N 	0.3717	0.3689	0.043	-0.236
Mof_C 	C 	0.326	0.3484	0.0266	-0.134
Mof_C 	C 	0.2902	0.3344	0.0675	0.366
Mof_O 	O 	0.2526	0.3077	0.0552	-0.43
Mof_O 	O 	0.299	0.8488	0.6116	-0.355
Mof_N 	N 	0.3717	0.8689	0.543	-0.246
Mof_C 	C 	0.326	0.8484	0.5266	-0.07
Mof_C 	C 	0.2902	0.8344	0.5675	0.349
Mof_O 	O 	0.2526	0.8077	0.5552	-0.41
Mof_O 	O 	0.799	0.6512	0.3884	-0.357
Mof_N 	N 	0.8717	0.6311	0.457	-0.245
Mof_C 	C 	0.826	0.6516	0.4734	-0.071
Mof_C 	C 	0.7902	0.6656	0.4325	0.348
Mof_O 	O 	0.7526	0.6923	0.4448	-0.41
Mof_O 	O 	0.799	0.1512	0.8884	-0.35
Mof_N 	N 	0.8717	0.1311	0.957	-0.228
Mof_C 	C 	0.826	0.1516	0.9734	-0.009
Mof_C 	C 	0.7902	0.1656	0.9325	0.327
Mof_O 	O 	0.7526	0.1923	0.9448	-0.388
Mof_O 	O 	0.299	0.6512	0.8884	-0.349
Mof_N 	N 	0.3717	0.6311	0.957	-0.229
Mof_C 	C 	0.326	0.6516	0.9734	-0.008
Mof_C 	C 	0.2902	0.6656	0.9325	0.328
Mof_O 	O 	0.2526	0.6923	0.9448	-0.388
Mof_O 	O 	0.299	0.1512	0.3884	-0.36
Mof_N 	N 	0.3717	0.1311	0.457	-0.249
Mof_C 	C 	0.326	0.1516	0.4734	-0.074
Mof_C 	C 	0.2902	0.1656	0.4325	0.347
Mof_O 	O 	0.2526	0.1923	0.4448	-0.415
Mof_O 	O 	0.201	0.6512	0.6116	-0.357
Mof_N 	N 	0.1283	0.6311	0.543	-0.249
Mof_C 	C 	0.174	0.6516	0.5266	-0.073
Mof_C 	C 	0.2098	0.6656	0.5675	0.347
Mof_O 	O 	0.2474	0.6923	0.5552	-0.41
Mof_O 	O 	0.201	0.1512	0.1116	-0.367
Mof_N 	N 	0.1283	0.1311	0.043	-0.238
Mof_C 	C 	0.174	0.1516	0.0266	-0.134
Mof_C 	C 	0.2098	0.1656	0.0675	0.365
Mof_O 	O 	0.2474	0.1923	0.0552	-0.43
Mof_O 	O 	0.701	0.6512	0.1116	-0.364
Mof_N 	N 	0.6283	0.6311	0.043	-0.236
Mof_C 	C 	0.674	0.6516	0.0266	-0.132
Mof_C 	C 	0.7098	0.6656	0.0675	0.366
Mof_O 	O 	0.7474	0.6923	0.0552	-0.425
Mof_O 	O 	0.701	0.1512	0.6116	-0.358
Mof_N 	N 	0.6283	0.1311	0.543	-0.249
Mof_C 	C 	0.674	0.1516	0.5266	-0.073
Mof_C 	C 	0.7098	0.1656	0.5675	0.347
Mof_O 	O 	0.7474	0.1923	0.5552	-0.41
Mof_O 	O 	0.201	0.3488	0.3884	-0.358
Mof_N 	N 	0.1283	0.3689	0.457	-0.249
Mof_C 	C 	0.174	0.3484	0.4734	-0.073
Mof_C 	C 	0.2098	0.3344	0.4325	0.347
Mof_O 	O 	0.2474	0.3077	0.4448	-0.411
Mof_O 	O 	0.201	0.8488	0.8884	-0.345
Mof_N 	N 	0.1283	0.8689	0.957	-0.228
Mof_C 	C 	0.174	0.8484	0.9734	-0.007
Mof_C 	C 	0.2098	0.8344	0.9325	0.328
Mof_O 	O 	0.2474	0.8077	0.9448	-0.384
Mof_O 	O 	0.701	0.3488	0.8884	-0.347
Mof_N 	N 	0.6283	0.3689	0.957	-0.229
Mof_C 	C 	0.674	0.3484	0.9734	-0.008
Mof_C 	C 	0.7098	0.3344	0.9325	0.327
Mof_O 	O 	0.7474	0.3077	0.9448	-0.384
Mof_O 	O 	0.701	0.8488	0.3884	-0.353
Mof_N 	N 	0.6283	0.8689	0.457	-0.246
Mof_C 	C 	0.674	0.8484	0.4734	-0.069
Mof_C 	C 	0.7098	0.8344	0.4325	0.349
Mof_O 	O 	0.7474	0.8077	0.4448	-0.405
Mof_O 	O 	0.6116	0.799	0.3488	-0.357
Mof_N 	N 	0.543	0.8717	0.3689	-0.246
Mof_C 	C 	0.5266	0.826	0.3484	-0.072
Mof_C 	C 	0.5675	0.7902	0.3344	0.348
Mof_O 	O 	0.5552	0.7526	0.3077	-0.41
Mof_O 	O 	0.6116	0.299	0.8488	-0.355
Mof_N 	N 	0.543	0.3717	0.8689	-0.246
Mof_C 	C 	0.5266	0.326	0.8484	-0.07
Mof_C 	C 	0.5675	0.2902	0.8344	0.349
Mof_O 	O 	0.5552	0.2526	0.8077	-0.41
Mof_O 	O 	0.1116	0.799	0.8488	-0.362
Mof_N 	N 	0.043	0.8717	0.8689	-0.231
Mof_C 	C 	0.0266	0.826	0.8484	-0.129
Mof_C 	C 	0.0675	0.7902	0.8344	0.367
Mof_O 	O 	0.0552	0.7526	0.8077	-0.425
Mof_O 	O 	0.1116	0.299	0.3488	-0.367
Mof_N 	N 	0.043	0.3717	0.3689	-0.236
Mof_C 	C 	0.0266	0.326	0.3484	-0.134
Mof_C 	C 	0.0675	0.2902	0.3344	0.366
Mof_O 	O 	0.0552	0.2526	0.3077	-0.43
Mof_O 	O 	0.3884	0.799	0.6512	-0.357
Mof_N 	N 	0.457	0.8717	0.6311	-0.245
Mof_C 	C 	0.4734	0.826	0.6516	-0.071
Mof_C 	C 	0.4325	0.7902	0.6656	0.348
Mof_O 	O 	0.4448	0.7526	0.6923	-0.41
Mof_O 	O 	0.3884	0.299	0.1512	-0.36
Mof_N 	N 	0.457	0.3717	0.1311	-0.249
Mof_C 	C 	0.4734	0.326	0.1516	-0.074
Mof_C 	C 	0.4325	0.2902	0.1656	0.347
Mof_O 	O 	0.4448	0.2526	0.1923	-0.415
Mof_O 	O 	0.8884	0.799	0.1512	-0.35
Mof_N 	N 	0.957	0.8717	0.1311	-0.228
Mof_C 	C 	0.9734	0.826	0.1516	-0.009
Mof_C 	C 	0.9325	0.7902	0.1656	0.327
Mof_O 	O 	0.9448	0.7526	0.1923	-0.388
Mof_O 	O 	0.8884	0.299	0.6512	-0.349
Mof_N 	N 	0.957	0.3717	0.6311	-0.229
Mof_C 	C 	0.9734	0.326	0.6516	-0.008
Mof_C 	C 	0.9325	0.2902	0.6656	0.328
Mof_O 	O 	0.9448	0.2526	0.6923	-0.388
Mof_O 	O 	0.6116	0.201	0.6512	-0.357
Mof_N 	N 	0.543	0.1283	0.6311	-0.249
Mof_C 	C 	0.5266	0.174	0.6516	-0.073
Mof_C 	C 	0.5675	0.2098	0.6656	0.347
Mof_O 	O 	0.5552	0.2474	0.6923	-0.41
Mof_O 	O 	0.6116	0.701	0.1512	-0.358
Mof_N 	N 	0.543	0.6283	0.1311	-0.249
Mof_C 	C 	0.5266	0.674	0.1516	-0.073
Mof_C 	C 	0.5675	0.7098	0.1656	0.347
Mof_O 	O 	0.5552	0.7474	0.1923	-0.41
Mof_O 	O 	0.1116	0.201	0.1512	-0.367
Mof_N 	N 	0.043	0.1283	0.1311	-0.238
Mof_C 	C 	0.0266	0.174	0.1516	-0.134
Mof_C 	C 	0.0675	0.2098	0.1656	0.365
Mof_O 	O 	0.0552	0.2474	0.1923	-0.43
Mof_O 	O 	0.1116	0.701	0.6512	-0.364
Mof_N 	N 	0.043	0.6283	0.6311	-0.236
Mof_C 	C 	0.0266	0.674	0.6516	-0.132
Mof_C 	C 	0.0675	0.7098	0.6656	0.366
Mof_O 	O 	0.0552	0.7474	0.6923	-0.425
Mof_O 	O 	0.3884	0.201	0.3488	-0.358
Mof_N 	N 	0.457	0.1283	0.3689	-0.249
Mof_C 	C 	0.4734	0.174	0.3484	-0.073
Mof_C 	C 	0.4325	0.2098	0.3344	0.347
Mof_O 	O 	0.4448	0.2474	0.3077	-0.411
Mof_O 	O 	0.3884	0.701	0.8488	-0.353
Mof_N 	N 	0.457	0.6283	0.8689	-0.246
Mof_C 	C 	0.4734	0.674	0.8484	-0.069
Mof_C 	C 	0.4325	0.7098	0.8344	0.349
Mof_O 	O 	0.4448	0.7474	0.8077	-0.405
Mof_O 	O 	0.8884	0.201	0.8488	-0.345
Mof_N 	N 	0.957	0.1283	0.8689	-0.228
Mof_C 	C 	0.9734	0.174	0.8484	-0.007
Mof_C 	C 	0.9325	0.2098	0.8344	0.328
Mof_O 	O 	0.9448	0.2474	0.8077	-0.384
Mof_O 	O 	0.8884	0.701	0.3488	-0.347
Mof_N 	N 	0.957	0.6283	0.3689	-0.229
Mof_C 	C 	0.9734	0.674	0.3484	-0.008
Mof_C 	C 	0.9325	0.7098	0.3344	0.327
Mof_O 	O 	0.9448	0.7474	0.3077	-0.384
Mof_O 	O 	0.6512	0.3884	0.201	-0.357
Mof_N 	N 	0.6311	0.457	0.1283	-0.249
Mof_C 	C 	0.6516	0.4734	0.174	-0.073
Mof_C 	C 	0.6656	0.4325	0.2098	0.347
Mof_O 	O 	0.6923	0.4448	0.2474	-0.41
Mof_O 	O 	0.6512	0.8884	0.701	-0.347
Mof_N 	N 	0.6311	0.957	0.6283	-0.229
Mof_C 	C 	0.6516	0.9734	0.674	-0.007
Mof_C 	C 	0.6656	0.9325	0.7098	0.327
Mof_O 	O 	0.6923	0.9448	0.7474	-0.384
Mof_O 	O 	0.1512	0.3884	0.701	-0.358
Mof_N 	N 	0.1311	0.457	0.6283	-0.249
Mof_C 	C 	0.1516	0.4734	0.674	-0.073
Mof_C 	C 	0.1656	0.4325	0.7098	0.347
Mof_O 	O 	0.1923	0.4448	0.7474	-0.41
Mof_O 	O 	0.1512	0.8884	0.201	-0.351
Mof_N 	N 	0.1311	0.957	0.1283	-0.231
Mof_C 	C 	0.1516	0.9734	0.174	-0.011
Mof_C 	C 	0.1656	0.9325	0.2098	0.326
Mof_O 	O 	0.1923	0.9448	0.2474	-0.389
Mof_O 	O 	0.3488	0.6116	0.201	-0.358
Mof_N 	N 	0.3689	0.543	0.1283	-0.25
Mof_C 	C 	0.3484	0.5266	0.174	-0.073
Mof_C 	C 	0.3344	0.5675	0.2098	0.347
Mof_O 	O 	0.3077	0.5552	0.2474	-0.411
Mof_O 	O 	0.3488	0.1116	0.701	-0.364
Mof_N 	N 	0.3689	0.043	0.6283	-0.236
Mof_C 	C 	0.3484	0.0266	0.674	-0.133
Mof_C 	C 	0.3344	0.0675	0.7098	0.366
Mof_O 	O 	0.3077	0.0552	0.7474	-0.426
Mof_O 	O 	0.8488	0.6116	0.701	-0.353
Mof_N 	N 	0.8689	0.543	0.6283	-0.246
Mof_C 	C 	0.8484	0.5266	0.674	-0.069
Mof_C 	C 	0.8344	0.5675	0.7098	0.348
Mof_O 	O 	0.8077	0.5552	0.7474	-0.405
Mof_O 	O 	0.8488	0.1116	0.201	-0.362
Mof_N 	N 	0.8689	0.043	0.1283	-0.235
Mof_C 	C 	0.8484	0.0266	0.174	-0.131
Mof_C 	C 	0.8344	0.0675	0.2098	0.367
Mof_O 	O 	0.8077	0.0552	0.2474	-0.425
Mof_O 	O 	0.3488	0.3884	0.799	-0.358
Mof_N 	N 	0.3689	0.457	0.8717	-0.246
Mof_C 	C 	0.3484	0.4734	0.826	-0.072
Mof_C 	C 	0.3344	0.4325	0.7902	0.348
Mof_O 	O 	0.3077	0.4448	0.7526	-0.41
Mof_O 	O 	0.3488	0.8884	0.299	-0.35
Mof_N 	N 	0.3689	0.957	0.3717	-0.229
Mof_C 	C 	0.3484	0.9734	0.326	-0.009
Mof_C 	C 	0.3344	0.9325	0.2902	0.327
Mof_O 	O 	0.3077	0.9448	0.2526	-0.388
Mof_O 	O 	0.8488	0.3884	0.299	-0.355
Mof_N 	N 	0.8689	0.457	0.3717	-0.246
Mof_C 	C 	0.8484	0.4734	0.326	-0.07
Mof_C 	C 	0.8344	0.4325	0.2902	0.349
Mof_O 	O 	0.8077	0.4448	0.2526	-0.41
Mof_O 	O 	0.8488	0.8884	0.799	-0.345
Mof_N 	N 	0.8689	0.957	0.8717	-0.225
Mof_C 	C 	0.8484	0.9734	0.826	-0.005
Mof_C 	C 	0.8344	0.9325	0.7902	0.329
Mof_O 	O 	0.8077	0.9448	0.7526	-0.383
Mof_O 	O 	0.6512	0.6116	0.799	-0.357
Mof_N 	N 	0.6311	0.543	0.8717	-0.245
Mof_C 	C 	0.6516	0.5266	0.826	-0.071
Mof_C 	C 	0.6656	0.5675	0.7902	0.348
Mof_O 	O 	0.6923	0.5552	0.7526	-0.41
Mof_O 	O 	0.6512	0.1116	0.299	-0.366
Mof_N 	N 	0.6311	0.043	0.3717	-0.236
Mof_C 	C 	0.6516	0.0266	0.326	-0.133
Mof_C 	C 	0.6656	0.0675	0.2902	0.366
Mof_O 	O 	0.6923	0.0552	0.2526	-0.43
Mof_O 	O 	0.1512	0.6116	0.299	-0.36
Mof_N 	N 	0.1311	0.543	0.3717	-0.249
Mof_C 	C 	0.1516	0.5266	0.326	-0.074
Mof_C 	C 	0.1656	0.5675	0.2902	0.347
Mof_O 	O 	0.1923	0.5552	0.2526	-0.414
Mof_O 	O 	0.1512	0.1116	0.799	-0.367
Mof_N 	N 	0.1311	0.043	0.8717	-0.234
Mof_C 	C 	0.1516	0.0266	0.826	-0.133
Mof_C 	C 	0.1656	0.0675	0.7902	0.366
Mof_O 	O 	0.1923	0.0552	0.7526	-0.43
Mof_O 	O 	0.201	0.6512	0.3884	-0.357
Mof_N 	N 	0.1283	0.6311	0.457	-0.249
Mof_C 	C 	0.174	0.6516	0.4734	-0.073
Mof_C 	C 	0.2098	0.6656	0.4325	0.347
Mof_O 	O 	0.2474	0.6923	0.4448	-0.41
Mof_O 	O 	0.201	0.1512	0.8884	-0.351
Mof_N 	N 	0.1283	0.1311	0.957	-0.231
Mof_C 	C 	0.174	0.1516	0.9734	-0.011
Mof_C 	C 	0.2098	0.1656	0.9325	0.326
Mof_O 	O 	0.2474	0.1923	0.9448	-0.389
Mof_O 	O 	0.701	0.6512	0.8884	-0.347
Mof_N 	N 	0.6283	0.6311	0.957	-0.229
Mof_C 	C 	0.674	0.6516	0.9734	-0.007
Mof_C 	C 	0.7098	0.6656	0.9325	0.327
Mof_O 	O 	0.7474	0.6923	0.9448	-0.384
Mof_O 	O 	0.701	0.1512	0.3884	-0.358
Mof_N 	N 	0.6283	0.1311	0.457	-0.249
Mof_C 	C 	0.674	0.1516	0.4734	-0.073
Mof_C 	C 	0.7098	0.1656	0.4325	0.347
Mof_O 	O 	0.7474	0.1923	0.4448	-0.41
Mof_O 	O 	0.201	0.3488	0.6116	-0.358
Mof_N 	N 	0.1283	0.3689	0.543	-0.25
Mof_C 	C 	0.174	0.3484	0.5266	-0.073
Mof_C 	C 	0.2098	0.3344	0.5675	0.347
Mof_O 	O 	0.2474	0.3077	0.5552	-0.411
Mof_O 	O 	0.201	0.8488	0.1116	-0.362
Mof_N 	N 	0.1283	0.8689	0.043	-0.235
Mof_C 	C 	0.174	0.8484	0.0266	-0.131
Mof_C 	C 	0.2098	0.8344	0.0675	0.367
Mof_O 	O 	0.2474	0.8077	0.0552	-0.425
Mof_O 	O 	0.701	0.3488	0.1116	-0.364
Mof_N 	N 	0.6283	0.3689	0.043	-0.236
Mof_C 	C 	0.674	0.3484	0.0266	-0.133
Mof_C 	C 	0.7098	0.3344	0.0675	0.366
Mof_O 	O 	0.7474	0.3077	0.0552	-0.426
Mof_O 	O 	0.701	0.8488	0.6116	-0.353
Mof_N 	N 	0.6283	0.8689	0.543	-0.246
Mof_C 	C 	0.674	0.8484	0.5266	-0.069
Mof_C 	C 	0.7098	0.8344	0.5675	0.348
Mof_O 	O 	0.7474	0.8077	0.5552	-0.405
Mof_O 	O 	0.799	0.3488	0.3884	-0.358
Mof_N 	N 	0.8717	0.3689	0.457	-0.246
Mof_C 	C 	0.826	0.3484	0.4734	-0.072
Mof_C 	C 	0.7902	0.3344	0.4325	0.348
Mof_O 	O 	0.7526	0.3077	0.4448	-0.41
Mof_O 	O 	0.799	0.8488	0.8884	-0.345
Mof_N 	N 	0.8717	0.8689	0.957	-0.225
Mof_C 	C 	0.826	0.8484	0.9734	-0.005
Mof_C 	C 	0.7902	0.8344	0.9325	0.329
Mof_O 	O 	0.7526	0.8077	0.9448	-0.383
Mof_O 	O 	0.299	0.3488	0.8884	-0.35
Mof_N 	N 	0.3717	0.3689	0.957	-0.229
Mof_C 	C 	0.326	0.3484	0.9734	-0.009
Mof_C 	C 	0.2902	0.3344	0.9325	0.327
Mof_O 	O 	0.2526	0.3077	0.9448	-0.388
Mof_O 	O 	0.299	0.8488	0.3884	-0.355
Mof_N 	N 	0.3717	0.8689	0.457	-0.246
Mof_C 	C 	0.326	0.8484	0.4734	-0.07
Mof_C 	C 	0.2902	0.8344	0.4325	0.349
Mof_O 	O 	0.2526	0.8077	0.4448	-0.41
Mof_O 	O 	0.799	0.6512	0.6116	-0.357
Mof_N 	N 	0.8717	0.6311	0.543	-0.245
Mof_C 	C 	0.826	0.6516	0.5266	-0.071
Mof_C 	C 	0.7902	0.6656	0.5675	0.348
Mof_O 	O 	0.7526	0.6923	0.5552	-0.41
Mof_O 	O 	0.799	0.1512	0.1116	-0.367
Mof_N 	N 	0.8717	0.1311	0.043	-0.234
Mof_C 	C 	0.826	0.1516	0.0266	-0.133
Mof_C 	C 	0.7902	0.1656	0.0675	0.366
Mof_O 	O 	0.7526	0.1923	0.0552	-0.43
Mof_O 	O 	0.299	0.6512	0.1116	-0.366
Mof_N 	N 	0.3717	0.6311	0.043	-0.236
Mof_C 	C 	0.326	0.6516	0.0266	-0.133
Mof_C 	C 	0.2902	0.6656	0.0675	0.366
Mof_O 	O 	0.2526	0.6923	0.0552	-0.43
Mof_O 	O 	0.299	0.1512	0.6116	-0.36
Mof_N 	N 	0.3717	0.1311	0.543	-0.249
Mof_C 	C 	0.326	0.1516	0.5266	-0.074
Mof_C 	C 	0.2902	0.1656	0.5675	0.347
Mof_O 	O 	0.2526	0.1923	0.5552	-0.414
Mof_O 	O 	0.3884	0.201	0.6512	-0.357
Mof_N 	N 	0.457	0.1283	0.6311	-0.249
Mof_C 	C 	0.4734	0.174	0.6516	-0.073
Mof_C 	C 	0.4325	0.2098	0.6656	0.347
Mof_O 	O 	0.4448	0.2474	0.6923	-0.41
Mof_O 	O 	0.3884	0.701	0.1512	-0.358
Mof_N 	N 	0.457	0.6283	0.1311	-0.249
Mof_C 	C 	0.4734	0.674	0.1516	-0.073
Mof_C 	C 	0.4325	0.7098	0.1656	0.347
Mof_O 	O 	0.4448	0.7474	0.1923	-0.41
Mof_O 	O 	0.8884	0.201	0.1512	-0.351
Mof_N 	N 	0.957	0.1283	0.1311	-0.231
Mof_C 	C 	0.9734	0.174	0.1516	-0.011
Mof_C 	C 	0.9325	0.2098	0.1656	0.326
Mof_O 	O 	0.9448	0.2474	0.1923	-0.389
Mof_O 	O 	0.8884	0.701	0.6512	-0.347
Mof_N 	N 	0.957	0.6283	0.6311	-0.229
Mof_C 	C 	0.9734	0.674	0.6516	-0.007
Mof_C 	C 	0.9325	0.7098	0.6656	0.327
Mof_O 	O 	0.9448	0.7474	0.6923	-0.384
Mof_O 	O 	0.6116	0.201	0.3488	-0.358
Mof_N 	N 	0.543	0.1283	0.3689	-0.25
Mof_C 	C 	0.5266	0.174	0.3484	-0.073
Mof_C 	C 	0.5675	0.2098	0.3344	0.347
Mof_O 	O 	0.5552	0.2474	0.3077	-0.411
Mof_O 	O 	0.6116	0.701	0.8488	-0.353
Mof_N 	N 	0.543	0.6283	0.8689	-0.246
Mof_C 	C 	0.5266	0.674	0.8484	-0.069
Mof_C 	C 	0.5675	0.7098	0.8344	0.348
Mof_O 	O 	0.5552	0.7474	0.8077	-0.405
Mof_O 	O 	0.1116	0.201	0.8488	-0.362
Mof_N 	N 	0.043	0.1283	0.8689	-0.235
Mof_C 	C 	0.0266	0.174	0.8484	-0.131
Mof_C 	C 	0.0675	0.2098	0.8344	0.367
Mof_O 	O 	0.0552	0.2474	0.8077	-0.425
Mof_O 	O 	0.1116	0.701	0.3488	-0.364
Mof_N 	N 	0.043	0.6283	0.3689	-0.236
Mof_C 	C 	0.0266	0.674	0.3484	-0.133
Mof_C 	C 	0.0675	0.7098	0.3344	0.366
Mof_O 	O 	0.0552	0.7474	0.3077	-0.426
Mof_O 	O 	0.3884	0.799	0.3488	-0.358
Mof_N 	N 	0.457	0.8717	0.3689	-0.246
Mof_C 	C 	0.4734	0.826	0.3484	-0.072
Mof_C 	C 	0.4325	0.7902	0.3344	0.348
Mof_O 	O 	0.4448	0.7526	0.3077	-0.41
Mof_O 	O 	0.3884	0.299	0.8488	-0.355
Mof_N 	N 	0.457	0.3717	0.8689	-0.246
Mof_C 	C 	0.4734	0.326	0.8484	-0.07
Mof_C 	C 	0.4325	0.2902	0.8344	0.349
Mof_O 	O 	0.4448	0.2526	0.8077	-0.41
Mof_O 	O 	0.8884	0.799	0.8488	-0.345
Mof_N 	N 	0.957	0.8717	0.8689	-0.225
Mof_C 	C 	0.9734	0.826	0.8484	-0.005
Mof_C 	C 	0.9325	0.7902	0.8344	0.329
Mof_O 	O 	0.9448	0.7526	0.8077	-0.383
Mof_O 	O 	0.8884	0.299	0.3488	-0.35
Mof_N 	N 	0.957	0.3717	0.3689	-0.229
Mof_C 	C 	0.9734	0.326	0.3484	-0.009
Mof_C 	C 	0.9325	0.2902	0.3344	0.327
Mof_O 	O 	0.9448	0.2526	0.3077	-0.388
Mof_O 	O 	0.6116	0.799	0.6512	-0.357
Mof_N 	N 	0.543	0.8717	0.6311	-0.245
Mof_C 	C 	0.5266	0.826	0.6516	-0.071
Mof_C 	C 	0.5675	0.7902	0.6656	0.348
Mof_O 	O 	0.5552	0.7526	0.6923	-0.41
Mof_O 	O 	0.6116	0.299	0.1512	-0.36
Mof_N 	N 	0.543	0.3717	0.1311	-0.249
Mof_C 	C 	0.5266	0.326	0.1516	-0.074
Mof_C 	C 	0.5675	0.2902	0.1656	0.347
Mof_O 	O 	0.5552	0.2526	0.1923	-0.414
Mof_O 	O 	0.1116	0.799	0.1512	-0.367
Mof_N 	N 	0.043	0.8717	0.1311	-0.234
Mof_C 	C 	0.0266	0.826	0.1516	-0.133
Mof_C 	C 	0.0675	0.7902	0.1656	0.366
Mof_O 	O 	0.0552	0.7526	0.1923	-0.43
Mof_O 	O 	0.1116	0.299	0.6512	-0.366
Mof_N 	N 	0.043	0.3717	0.6311	-0.236
Mof_C 	C 	0.0266	0.326	0.6516	-0.133
Mof_C 	C 	0.0675	0.2902	0.6656	0.366
Mof_O 	O 	0.0552	0.2526	0.6923	-0.43
Mof_Zn	Zn	0.37885	0.62115	0.87885	1.205
Mof_Zn	Zn	0.62115	0.37885	0.87885	1.205
Mof_Zn	Zn	0.62115	0.62115	0.12115	1.204
Mof_Zn	Zn	0.37885	0.37885	0.12115	1.204
Mof_Zn	Zn	0.87885	0.37885	0.62115	1.205
Mof_Zn	Zn	0.87885	0.87885	0.12115	1.206
Mof_Zn	Zn	0.87885	0.62115	0.37885	1.205
Mof_Zn	Zn	0.87885	0.12115	0.87885	1.206
Mof_Zn	Zn	0.12115	0.62115	0.62115	1.204
Mof_Zn	Zn	0.12115	0.12115	0.12115	1.203
Mof_Zn	Zn	0.12115	0.37885	0.37885	1.204
Mof_Zn	Zn	0.12115	0.87885	0.87885	1.206
Mof_Zn	Zn	0.62115	0.87885	0.37885	1.205
Mof_Zn	Zn	0.37885	0.87885	0.62115	1.205
Mof_Zn	Zn	0.62115	0.12115	0.62115	1.204
Mof_Zn	Zn	0.37885	0.12115	0.37885	1.204
Mof_Zn	Zn	0.62115	0.37885	0.12115	1.204
Mof_Zn	Zn	0.37885	0.62115	0.12115	1.204
Mof_Zn	Zn	0.37885	0.37885	0.87885	1.205
Mof_Zn	Zn	0.62115	0.62115	0.87885	1.205
Mof_Zn	Zn	0.12115	0.62115	0.37885	1.204
Mof_Zn	Zn	0.12115	0.12115	0.87885	1.204
Mof_Zn	Zn	0.12115	0.37885	0.62115	1.204
Mof_Zn	Zn	0.12115	0.87885	0.12115	1.204
Mof_Zn	Zn	0.87885	0.37885	0.37885	1.205
Mof_Zn	Zn	0.87885	0.87885	0.87885	1.207
Mof_Zn	Zn	0.87885	0.62115	0.62115	1.205
Mof_Zn	Zn	0.87885	0.12115	0.12115	1.204
Mof_Zn	Zn	0.37885	0.12115	0.62115	1.204
Mof_Zn	Zn	0.62115	0.12115	0.37885	1.204
Mof_Zn	Zn	0.37885	0.87885	0.37885	1.205
Mof_Zn	Zn	0.62115	0.87885	0.62115	1.205
Mof_Zn	Zn	0.25	0.5	0.75	1.208
Mof_Zn	Zn	0.25	0	0.25	1.194
Mof_Zn	Zn	0.75	0.5	0.75	1.209
Mof_Zn	Zn	0.75	0	0.25	1.194
Mof_Zn	Zn	0.75	0.5	0.25	1.208
Mof_Zn	Zn	0.75	5.76094e-33	0.75	1.195
Mof_Zn	Zn	0.25	0.5	0.25	1.207
Mof_Zn	Zn	0.25	5.76094e-33	0.75	1.194
Mof_Zn	Zn	0.75	0.25	0.5	1.208
Mof_Zn	Zn	0.75	0.75	-0	1.195
Mof_Zn	Zn	0.75	0.75	0.5	1.209
Mof_Zn	Zn	0.75	0.25	-0	1.194
Mof_Zn	Zn	0.25	0.75	0.5	1.208
Mof_Zn	Zn	0.25	0.25	-0	1.194
Mof_Zn	Zn	0.25	0.25	0.5	1.207
Mof_Zn	Zn	0.25	0.75	-0	1.194
Mof_Zn	Zn	0.5	0.75	0.25	1.208
Mof_Zn	Zn	2.81205e-33	0.75	0.75	1.195
Mof_Zn	Zn	0.5	0.75	0.75	1.209
Mof_Zn	Zn	3.81782e-33	0.75	0.25	1.194
Mof_Zn	Zn	0.5	0.25	0.75	1.208
Mof_Zn	Zn	9.3735e-34	0.25	0.25	1.194
Mof_Zn	Zn	0.5	0.25	0.25	1.207
Mof_Zn	Zn	2.81205e-33	0.25	0.75	1.194
Mof_C 	C 	0.379	0.5	0.8977	0.117
Mof_H 	H 	0.3922	0.5	0.9319	-0.029
Mof_C 	C 	0.379	5.76094e-33	0.3977	0.064
Mof_H 	H 	0.3922	0	0.4319	-0.038
Mof_C 	C 	0.879	0.5	0.3977	0.12
Mof_H 	H 	0.8922	0.5	0.4319	-0.036
Mof_C 	C 	0.879	1.15219e-32	0.8977	0.071
Mof_H 	H 	0.8922	0	0.9319	-0.021
Mof_C 	C 	0.621	0.5	0.8977	0.118
Mof_H 	H 	0.6078	0.5	0.9319	-0.029
Mof_C 	C 	0.621	5.76094e-33	0.3977	0.065
Mof_H 	H 	0.6078	0	0.4319	-0.038
Mof_C 	C 	0.121	0.5	0.3977	0.114
Mof_H 	H 	0.1078	0.5	0.4319	-0.043
Mof_C 	C 	0.121	1.15219e-32	0.8977	0.065
Mof_H 	H 	0.1078	0	0.9319	-0.028
Mof_C 	C 	0.621	0.5	0.1023	0.115
Mof_H 	H 	0.6078	0.5	0.0681	-0.047
Mof_C 	C 	0.621	0	0.6023	0.065
Mof_H 	H 	0.6078	0	0.5681	-0.038
Mof_C 	C 	0.121	0.5	0.6023	0.114
Mof_H 	H 	0.1078	0.5	0.5681	-0.043
Mof_C 	C 	0.121	0	0.1023	0.063
Mof_H 	H 	0.1078	0	0.0681	-0.046
Mof_C 	C 	0.379	0.5	0.1023	0.114
Mof_H 	H 	0.3922	0.5	0.0681	-0.047
Mof_C 	C 	0.379	0	0.6023	0.064
Mof_H 	H 	0.3922	0	0.5681	-0.038
Mof_C 	C 	0.879	0.5	0.6023	0.121
Mof_H 	H 	0.8922	0.5	0.5681	-0.036
Mof_C 	C 	0.879	0	0.1023	0.069
Mof_H 	H 	0.8922	0	0.0681	-0.039
Mof_C 	C 	0.8977	0.379	0.5	0.117
Mof_H 	H 	0.9319	0.3922	0.5	-0.029
Mof_C 	C 	0.8977	0.879	-0	0.071
Mof_H 	H 	0.9319	0.8922	-0	-0.021
Mof_C 	C 	0.3977	0.379	-0	0.064
Mof_H 	H 	0.4319	0.3922	-0	-0.038
Mof_C 	C 	0.3977	0.879	0.5	0.12
Mof_H 	H 	0.4319	0.8922	0.5	-0.036
Mof_C 	C 	0.8977	0.621	0.5	0.118
Mof_H 	H 	0.9319	0.6078	0.5	-0.029
Mof_C 	C 	0.8977	0.121	-0	0.065
Mof_H 	H 	0.9319	0.1078	-0	-0.028
Mof_C 	C 	0.3977	0.621	-0	0.065
Mof_H 	H 	0.4319	0.6078	-0	-0.038
Mof_C 	C 	0.3977	0.121	0.5	0.114
Mof_H 	H 	0.4319	0.1078	0.5	-0.043
Mof_C 	C 	0.1023	0.621	0.5	0.115
Mof_H 	H 	0.0681	0.6078	0.5	-0.047
Mof_C 	C 	0.1023	0.121	-0	0.063
Mof_H 	H 	0.0681	0.1078	-0	-0.046
Mof_C 	C 	0.6023	0.621	-0	0.065
Mof_H 	H 	0.5681	0.6078	-0	-0.038
Mof_C 	C 	0.6023	0.121	0.5	0.114
Mof_H 	H 	0.5681	0.1078	0.5	-0.043
Mof_C 	C 	0.1023	0.379	0.5	0.114
Mof_H 	H 	0.0681	0.3922	0.5	-0.047
Mof_C 	C 	0.1023	0.879	-0	0.069
Mof_H 	H 	0.0681	0.8922	-0	-0.039
Mof_C 	C 	0.6023	0.379	-0	0.064
Mof_H 	H 	0.5681	0.3922	-0	-0.038
Mof_C 	C 	0.6023	0.879	0.5	0.121
Mof_H 	H 	0.5681	0.8922	0.5	-0.036
Mof_C 	C 	0.5	0.8977	0.379	0.117
Mof_H 	H 	0.5	0.9319	0.3922	-0.029
Mof_C 	C 	0.5	0.3977	0.879	0.12
Mof_H 	H 	0.5	0.4319	0.8922	-0.036
Mof_C 	C 	-8.22616e-33	0.8977	0.879	0.071
Mof_H 	H 	-1.96986e-32	0.9319	0.8922	-0.021
Mof_C 	C 	1.42102e-33	0.3977	0.379	0.064
Mof_H 	H 	1.47051e-33	0.4319	0.3922	-0.038
Mof_C 	C 	0.5	0.8977	0.621	0.118
Mof_H 	H 	0.5	0.9319	0.6078	-0.029
Mof_C 	C 	0.5	0.3977	0.121	0.114
Mof_H 	H 	0.5	0.4319	0.1078	-0.043
Mof_C 	C 	4.77438e-33	0.8977	0.121	0.065
Mof_H 	H 	-8.23723e-33	0.9319	0.1078	-0.028
Mof_C 	C 	-3.43257e-33	0.3977	0.621	0.065
Mof_H 	H 	-3.48206e-33	0.4319	0.6078	-0.038
Mof_C 	C 	0.5	0.1023	0.621	0.115
Mof_H 	H 	0.5	0.0681	0.6078	-0.047
Mof_C 	C 	0.5	0.6023	0.121	0.114
Mof_H 	H 	0.5	0.5681	0.1078	-0.043
Mof_C 	C 	-9.86558e-34	0.1023	0.121	0.063
Mof_H 	H 	4.04185e-34	0.0681	0.1078	-0.046
Mof_C 	C 	-9.19351e-33	0.6023	0.621	0.065
Mof_H 	H 	-1.50039e-32	0.5681	0.6078	-0.038
Mof_C 	C 	0.5	0.1023	0.379	0.114
Mof_H 	H 	0.5	0.0681	0.3922	-0.047
Mof_C 	C 	0.5	0.6023	0.879	0.121
Mof_H 	H 	0.5	0.5681	0.8922	-0.036
Mof_C 	C 	-8.22616e-33	0.1023	0.879	0.069
Mof_H 	H 	3.34521e-33	0.0681	0.8922	-0.039
Mof_C 	C 	-4.33992e-33	0.6023	0.379	0.064
Mof_H 	H 	-4.29043e-33	0.5681	0.3922	-0.038
_end
