data_functionalizedCrystal
_audit_creation_method	'EQeq! by Chris Wilmer'
_symmetry_space_group_name_H-M	'P1'
_symmetry_Int_Tables_number	1
_symmetry_cell_setting	triclinic
loop_
_symmetry_equiv_pos_as_xyz
  x,y,z
_cell_length_a	29.3162
_cell_length_b	29.3162
_cell_length_c	29.3162
_cell_angle_alpha	109.471
_cell_angle_beta	109.471
_cell_angle_gamma	109.471
loop_
_atom_site_label
_atom_site_type_symbol
_atom_site_fract_x
_atom_site_fract_y
_atom_site_fract_z
_atom_site_charge
Mof_Ni	Ni	0.56127	0.14088	0.71807	1.052
Mof_Ni	Ni	0.92281	0.8432	0.78193	1.052
Mof_Ni	Ni	0.57719	0.35912	0.92039	1.052
Mof_Ni	Ni	0.93873	0.6568	0.57961	1.052
Mof_Ni	Ni	0.42039	0.57719	0.85912	1.052
Mof_Ni	Ni	0.07961	0.93873	0.1568	1.051
Mof_Ni	Ni	0.21807	0.56127	0.64088	1.053
Mof_Ni	Ni	0.28193	0.92281	0.3432	1.053
Mof_Ni	Ni	0.8432	0.28193	0.42281	1.053
Mof_Ni	Ni	0.14088	0.21807	0.06127	1.053
Mof_Ni	Ni	0.6568	0.07961	0.43873	1.053
Mof_Ni	Ni	0.35912	0.42039	0.07719	1.053
Mof_Ni	Ni	0.35912	0.93873	0.78193	1.053
Mof_Ni	Ni	0.6568	0.57719	0.71807	1.053
Mof_Ni	Ni	0.14088	0.92281	0.57961	1.053
Mof_Ni	Ni	0.8432	0.56127	0.92039	1.053
Mof_Ni	Ni	0.92281	0.07961	0.64088	1.053
Mof_Ni	Ni	0.56127	0.42039	0.3432	1.053
Mof_Ni	Ni	0.93873	0.28193	0.85912	1.053
Mof_Ni	Ni	0.57719	0.21807	0.1568	1.053
Mof_Ni	Ni	0.21807	0.6568	0.07719	1.053
Mof_Ni	Ni	0.28193	0.35912	0.43873	1.053
Mof_Ni	Ni	0.42039	0.8432	0.06127	1.053
Mof_Ni	Ni	0.07961	0.14088	0.42281	1.054
Mof_Ni	Ni	0.43873	0.85912	0.28193	1.053
Mof_Ni	Ni	0.07719	0.1568	0.21807	1.053
Mof_Ni	Ni	0.42281	0.64088	0.07961	1.053
Mof_Ni	Ni	0.06127	0.3432	0.42039	1.053
Mof_Ni	Ni	0.57961	0.42281	0.14088	1.053
Mof_Ni	Ni	0.92039	0.06127	0.8432	1.052
Mof_Ni	Ni	0.78193	0.43873	0.35912	1.053
Mof_Ni	Ni	0.71807	0.07719	0.6568	1.053
Mof_Ni	Ni	0.1568	0.71807	0.57719	1.053
Mof_Ni	Ni	0.85912	0.78193	0.93873	1.053
Mof_Ni	Ni	0.3432	0.92039	0.56127	1.053
Mof_Ni	Ni	0.64088	0.57961	0.92281	1.053
Mof_Ni	Ni	0.64088	0.06127	0.21807	1.053
Mof_Ni	Ni	0.3432	0.42281	0.28193	1.053
Mof_Ni	Ni	0.85912	0.07719	0.42039	1.053
Mof_Ni	Ni	0.1568	0.43873	0.07961	1.053
Mof_Ni	Ni	0.07719	0.92039	0.35912	1.053
Mof_Ni	Ni	0.43873	0.57961	0.6568	1.053
Mof_Ni	Ni	0.06127	0.71807	0.14088	1.053
Mof_Ni	Ni	0.42281	0.78193	0.8432	1.053
Mof_Ni	Ni	0.78193	0.3432	0.92281	1.053
Mof_Ni	Ni	0.71807	0.64088	0.56127	1.053
Mof_Ni	Ni	0.57961	0.1568	0.93873	1.053
Mof_Ni	Ni	0.92039	0.85912	0.57719	1.054
Mof_H 	H 	0.6689	0.2246	0.8495	-0.04
Mof_H 	H 	0.4441	0.0304	0.6773	-0.019
Mof_H 	H 	0.3996	0.014	0.5258	0.036
Mof_H 	H 	0.7393	0.3144	0.7935	0.022
Mof_H 	H 	0.4676	0.1112	0.553	0.061
Mof_H 	H 	0.6393	0.2342	0.6697	0.048
Mof_H 	H 	0.8751	0.8194	0.6505	-0.04
Mof_H 	H 	0.8531	0.7668	0.8227	-0.019
Mof_H 	H 	0.9882	0.8738	0.9742	0.035
Mof_H 	H 	0.0209	0.9458	0.7065	0.021
Mof_H 	H 	0.0582	0.9146	0.947	0.061
Mof_H 	H 	0.0645	0.9696	0.8303	0.048
Mof_H 	H 	0.6249	0.2754	0.9443	-0.041
Mof_H 	H 	0.6469	0.4696	0.9137	-0.019
Mof_H 	H 	0.5118	0.486	0.8856	0.035
Mof_H 	H 	0.4791	0.1856	0.9249	0.022
Mof_H 	H 	0.4418	0.3888	0.8564	0.061
Mof_H 	H 	0.4355	0.2658	0.9051	0.048
Mof_H 	H 	0.8311	0.6806	0.5557	-0.04
Mof_H 	H 	0.0559	0.7332	0.5863	-0.019
Mof_H 	H 	0.1004	0.6262	0.6144	0.035
Mof_H 	H 	0.7607	0.5542	0.5751	0.022
Mof_H 	H 	0.0324	0.5854	0.6436	0.061
Mof_H 	H 	0.8607	0.5304	0.5949	0.048
Mof_H 	H 	0.4443	0.6249	0.7754	-0.04
Mof_H 	H 	0.4137	0.6469	0.9696	-0.019
Mof_H 	H 	0.3856	0.5118	0.986	0.035
Mof_H 	H 	0.4249	0.4791	0.6856	0.022
Mof_H 	H 	0.3564	0.4418	0.8888	0.061
Mof_H 	H 	0.4051	0.4355	0.7658	0.048
Mof_H 	H 	0.0557	0.8311	0.1806	-0.041
Mof_H 	H 	0.0863	0.0559	0.2332	-0.018
Mof_H 	H 	0.1144	0.1004	0.1262	0.035
Mof_H 	H 	0.0751	0.7607	0.0542	0.022
Mof_H 	H 	0.1436	0.0324	0.0854	0.06
Mof_H 	H 	0.0949	0.8607	0.0304	0.047
Mof_H 	H 	0.3495	0.6689	0.7246	-0.04
Mof_H 	H 	0.1773	0.4441	0.5304	-0.019
Mof_H 	H 	0.0258	0.3996	0.514	0.036
Mof_H 	H 	0.2935	0.7393	0.8144	0.022
Mof_H 	H 	0.053	0.4676	0.6112	0.061
Mof_H 	H 	0.1697	0.6393	0.7342	0.048
Mof_H 	H 	0.1505	0.8751	0.3194	-0.04
Mof_H 	H 	0.3227	0.8531	0.2668	-0.019
Mof_H 	H 	0.4742	0.9882	0.3738	0.035
Mof_H 	H 	0.2065	0.0209	0.4458	0.024
Mof_H 	H 	0.447	0.0582	0.4146	0.061
Mof_H 	H 	0.3303	0.0645	0.4696	0.048
Mof_H 	H 	0.8194	0.1505	0.3751	-0.04
Mof_H 	H 	0.7668	0.3227	0.3531	-0.019
Mof_H 	H 	0.8738	0.4742	0.4882	0.035
Mof_H 	H 	0.9458	0.2065	0.5209	0.022
Mof_H 	H 	0.9146	0.447	0.5582	0.061
Mof_H 	H 	0.9696	0.3303	0.5645	0.048
Mof_H 	H 	0.2246	0.3495	0.1689	-0.04
Mof_H 	H 	0.0304	0.1773	0.9441	-0.018
Mof_H 	H 	0.014	0.0258	0.8996	0.036
Mof_H 	H 	0.3144	0.2935	0.2393	0.022
Mof_H 	H 	0.1112	0.053	0.9676	0.061
Mof_H 	H 	0.2342	0.1697	0.1393	0.048
Mof_H 	H 	0.6806	0.0557	0.3311	-0.04
Mof_H 	H 	0.7332	0.0863	0.5559	-0.019
Mof_H 	H 	0.6262	0.1144	0.6004	0.035
Mof_H 	H 	0.5542	0.0751	0.2607	0.022
Mof_H 	H 	0.5854	0.1436	0.5324	0.061
Mof_H 	H 	0.5304	0.0949	0.3607	0.048
Mof_H 	H 	0.2754	0.4443	0.1249	-0.04
Mof_H 	H 	0.4696	0.4137	0.1469	-0.019
Mof_H 	H 	0.486	0.3856	0.0118	0.035
Mof_H 	H 	0.1856	0.4249	0.9791	0.024
Mof_H 	H 	0.3888	0.3564	0.9418	0.061
Mof_H 	H 	0.2658	0.4051	0.9355	0.048
Mof_H 	H 	0.2754	0.8311	0.6505	-0.04
Mof_H 	H 	0.4696	0.0559	0.8227	-0.019
Mof_H 	H 	0.486	0.1004	0.9742	0.035
Mof_H 	H 	0.1856	0.7607	0.7065	0.022
Mof_H 	H 	0.3888	0.0324	0.947	0.061
Mof_H 	H 	0.2658	0.8607	0.8303	0.048
Mof_H 	H 	0.6806	0.6249	0.8495	-0.04
Mof_H 	H 	0.7332	0.6469	0.6773	-0.019
Mof_H 	H 	0.6262	0.5118	0.5258	0.035
Mof_H 	H 	0.5542	0.4791	0.7935	0.022
Mof_H 	H 	0.5854	0.4418	0.553	0.061
Mof_H 	H 	0.5304	0.4355	0.6697	0.048
Mof_H 	H 	0.2246	0.8751	0.5557	-0.04
Mof_H 	H 	0.0304	0.8531	0.5863	-0.019
Mof_H 	H 	0.014	0.9882	0.6144	0.035
Mof_H 	H 	0.3144	0.0209	0.5751	0.023
Mof_H 	H 	0.1112	0.0582	0.6436	0.061
Mof_H 	H 	0.2342	0.0645	0.5949	0.048
Mof_H 	H 	0.8194	0.6689	0.9443	-0.041
Mof_H 	H 	0.7668	0.4441	0.9137	-0.019
Mof_H 	H 	0.8738	0.3996	0.8856	0.035
Mof_H 	H 	0.9458	0.7393	0.9249	0.022
Mof_H 	H 	0.9146	0.4676	0.8564	0.061
Mof_H 	H 	0.9696	0.6393	0.9051	0.048
Mof_H 	H 	0.8751	0.0557	0.7246	-0.041
Mof_H 	H 	0.8531	0.0863	0.5304	-0.019
Mof_H 	H 	0.9882	0.1144	0.514	0.035
Mof_H 	H 	0.0209	0.0751	0.8144	0.026
Mof_H 	H 	0.0582	0.1436	0.6112	0.06
Mof_H 	H 	0.0645	0.0949	0.7342	0.047
Mof_H 	H 	0.6689	0.4443	0.3194	-0.04
Mof_H 	H 	0.4441	0.4137	0.2668	-0.019
Mof_H 	H 	0.3996	0.3856	0.3738	0.035
Mof_H 	H 	0.7393	0.4249	0.4458	0.022
Mof_H 	H 	0.4676	0.3564	0.4146	0.061
Mof_H 	H 	0.6393	0.4051	0.4696	0.048
Mof_H 	H 	0.8311	0.1505	0.7754	-0.04
Mof_H 	H 	0.0559	0.3227	0.9696	-0.018
Mof_H 	H 	0.1004	0.4742	0.986	0.036
Mof_H 	H 	0.7607	0.2065	0.6856	0.022
Mof_H 	H 	0.0324	0.447	0.8888	0.061
Mof_H 	H 	0.8607	0.3303	0.7658	0.048
Mof_H 	H 	0.6249	0.3495	0.1806	-0.04
Mof_H 	H 	0.6469	0.1773	0.2332	-0.019
Mof_H 	H 	0.5118	0.0258	0.1262	0.036
Mof_H 	H 	0.4791	0.2935	0.0542	0.022
Mof_H 	H 	0.4418	0.053	0.0854	0.061
Mof_H 	H 	0.4355	0.1697	0.0304	0.048
Mof_H 	H 	0.3495	0.6806	0.1249	-0.04
Mof_H 	H 	0.1773	0.7332	0.1469	-0.019
Mof_H 	H 	0.0258	0.6262	0.0118	0.034
Mof_H 	H 	0.2935	0.5542	0.9791	0.023
Mof_H 	H 	0.053	0.5854	0.9418	0.061
Mof_H 	H 	0.1697	0.5304	0.9355	0.048
Mof_H 	H 	0.1505	0.2754	0.3311	-0.04
Mof_H 	H 	0.3227	0.4696	0.5559	-0.019
Mof_H 	H 	0.4742	0.486	0.6004	0.035
Mof_H 	H 	0.2065	0.1856	0.2607	0.022
Mof_H 	H 	0.447	0.3888	0.5324	0.061
Mof_H 	H 	0.3303	0.2658	0.3607	0.048
Mof_H 	H 	0.4443	0.8194	0.1689	-0.04
Mof_H 	H 	0.4137	0.7668	0.9441	-0.019
Mof_H 	H 	0.3856	0.8738	0.8996	0.035
Mof_H 	H 	0.4249	0.9458	0.2393	0.022
Mof_H 	H 	0.3564	0.9146	0.9676	0.061
Mof_H 	H 	0.4051	0.9696	0.1393	0.048
Mof_H 	H 	0.0557	0.2246	0.3751	-0.04
Mof_H 	H 	0.0863	0.0304	0.3531	-0.018
Mof_H 	H 	0.1144	0.014	0.4882	0.036
Mof_H 	H 	0.0751	0.3144	0.5209	0.022
Mof_H 	H 	0.1436	0.1112	0.5582	0.061
Mof_H 	H 	0.0949	0.2342	0.5645	0.048
Mof_H 	H 	0.3311	0.7754	0.1505	-0.04
Mof_H 	H 	0.5559	0.9696	0.3227	-0.019
Mof_H 	H 	0.6004	0.986	0.4742	0.036
Mof_H 	H 	0.2607	0.6856	0.2065	0.022
Mof_H 	H 	0.5324	0.8888	0.447	0.061
Mof_H 	H 	0.3607	0.7658	0.3303	0.048
Mof_H 	H 	0.1249	0.1806	0.3495	-0.04
Mof_H 	H 	0.1469	0.2332	0.1773	-0.019
Mof_H 	H 	0.0118	0.1262	0.0258	0.035
Mof_H 	H 	0.9791	0.0542	0.2935	0.021
Mof_H 	H 	0.9418	0.0854	0.053	0.061
Mof_H 	H 	0.9355	0.0304	0.1697	0.048
Mof_H 	H 	0.3751	0.7246	0.0557	-0.041
Mof_H 	H 	0.3531	0.5304	0.0863	-0.019
Mof_H 	H 	0.4882	0.514	0.1144	0.035
Mof_H 	H 	0.5209	0.8144	0.0751	0.022
Mof_H 	H 	0.5582	0.6112	0.1436	0.061
Mof_H 	H 	0.5645	0.7342	0.0949	0.048
Mof_H 	H 	0.1689	0.3194	0.4443	-0.04
Mof_H 	H 	0.9441	0.2668	0.4137	-0.019
Mof_H 	H 	0.8996	0.3738	0.3856	0.035
Mof_H 	H 	0.2393	0.4458	0.4249	0.022
Mof_H 	H 	0.9676	0.4146	0.3564	0.061
Mof_H 	H 	0.1393	0.4696	0.4051	0.048
Mof_H 	H 	0.5557	0.3751	0.2246	-0.04
Mof_H 	H 	0.5863	0.3531	0.0304	-0.019
Mof_H 	H 	0.6144	0.4882	0.014	0.035
Mof_H 	H 	0.5751	0.5209	0.3144	0.022
Mof_H 	H 	0.6436	0.5582	0.1112	0.061
Mof_H 	H 	0.5949	0.5645	0.2342	0.048
Mof_H 	H 	0.9443	0.1689	0.8194	-0.041
Mof_H 	H 	0.9137	0.9441	0.7668	-0.018
Mof_H 	H 	0.8856	0.8996	0.8738	0.035
Mof_H 	H 	0.9249	0.2393	0.9458	0.022
Mof_H 	H 	0.8564	0.9676	0.9146	0.06
Mof_H 	H 	0.9051	0.1393	0.9696	0.047
Mof_H 	H 	0.6505	0.3311	0.2754	-0.04
Mof_H 	H 	0.8227	0.5559	0.4696	-0.019
Mof_H 	H 	0.9742	0.6004	0.486	0.036
Mof_H 	H 	0.7065	0.2607	0.1856	0.022
Mof_H 	H 	0.947	0.5324	0.3888	0.061
Mof_H 	H 	0.8303	0.3607	0.2658	0.048
Mof_H 	H 	0.8495	0.1249	0.6806	-0.04
Mof_H 	H 	0.6773	0.1469	0.7332	-0.019
Mof_H 	H 	0.5258	0.0118	0.6262	0.035
Mof_H 	H 	0.7935	0.9791	0.5542	0.024
Mof_H 	H 	0.553	0.9418	0.5854	0.061
Mof_H 	H 	0.6697	0.9355	0.5304	0.048
Mof_H 	H 	0.1806	0.8495	0.6249	-0.04
Mof_H 	H 	0.2332	0.6773	0.6469	-0.019
Mof_H 	H 	0.1262	0.5258	0.5118	0.035
Mof_H 	H 	0.0542	0.7935	0.4791	0.022
Mof_H 	H 	0.0854	0.553	0.4418	0.061
Mof_H 	H 	0.0304	0.6697	0.4355	0.048
Mof_H 	H 	0.7754	0.6505	0.8311	-0.04
Mof_H 	H 	0.9696	0.8227	0.0559	-0.018
Mof_H 	H 	0.986	0.9742	0.1004	0.036
Mof_H 	H 	0.6856	0.7065	0.7607	0.022
Mof_H 	H 	0.8888	0.947	0.0324	0.061
Mof_H 	H 	0.7658	0.8303	0.8607	0.048
Mof_H 	H 	0.3194	0.9443	0.6689	-0.04
Mof_H 	H 	0.2668	0.9137	0.4441	-0.019
Mof_H 	H 	0.3738	0.8856	0.3996	0.035
Mof_H 	H 	0.4458	0.9249	0.7393	0.022
Mof_H 	H 	0.4146	0.8564	0.4676	0.061
Mof_H 	H 	0.4696	0.9051	0.6393	0.048
Mof_H 	H 	0.7246	0.5557	0.8751	-0.04
Mof_H 	H 	0.5304	0.5863	0.8531	-0.019
Mof_H 	H 	0.514	0.6144	0.9882	0.035
Mof_H 	H 	0.8144	0.5751	0.0209	0.024
Mof_H 	H 	0.6112	0.6436	0.0582	0.061
Mof_H 	H 	0.7342	0.5949	0.0645	0.048
Mof_H 	H 	0.7246	0.1689	0.3495	-0.04
Mof_H 	H 	0.5304	0.9441	0.1773	-0.019
Mof_H 	H 	0.514	0.8996	0.0258	0.035
Mof_H 	H 	0.8144	0.2393	0.2935	0.022
Mof_H 	H 	0.6112	0.9676	0.053	0.061
Mof_H 	H 	0.7342	0.1393	0.1697	0.048
Mof_H 	H 	0.3194	0.3751	0.1505	-0.04
Mof_H 	H 	0.2668	0.3531	0.3227	-0.019
Mof_H 	H 	0.3738	0.4882	0.4742	0.035
Mof_H 	H 	0.4458	0.5209	0.2065	0.022
Mof_H 	H 	0.4146	0.5582	0.447	0.061
Mof_H 	H 	0.4696	0.5645	0.3303	0.048
Mof_H 	H 	0.7754	0.1249	0.4443	-0.04
Mof_H 	H 	0.9696	0.1469	0.4137	-0.019
Mof_H 	H 	0.986	0.0118	0.3856	0.035
Mof_H 	H 	0.6856	0.9791	0.4249	0.023
Mof_H 	H 	0.8888	0.9418	0.3564	0.061
Mof_H 	H 	0.7658	0.9355	0.4051	0.048
Mof_H 	H 	0.1806	0.3311	0.0557	-0.041
Mof_H 	H 	0.2332	0.5559	0.0863	-0.019
Mof_H 	H 	0.1262	0.6004	0.1144	0.035
Mof_H 	H 	0.0542	0.2607	0.0751	0.022
Mof_H 	H 	0.0854	0.5324	0.1436	0.061
Mof_H 	H 	0.0304	0.3607	0.0949	0.048
Mof_H 	H 	0.1249	0.9443	0.2754	-0.041
Mof_H 	H 	0.1469	0.9137	0.4696	-0.019
Mof_H 	H 	0.0118	0.8856	0.486	0.035
Mof_H 	H 	0.9791	0.9249	0.1856	0.026
Mof_H 	H 	0.9418	0.8564	0.3888	0.06
Mof_H 	H 	0.9355	0.9051	0.2658	0.047
Mof_H 	H 	0.3311	0.5557	0.6806	-0.04
Mof_H 	H 	0.5559	0.5863	0.7332	-0.019
Mof_H 	H 	0.6004	0.6144	0.6262	0.035
Mof_H 	H 	0.2607	0.5751	0.5542	0.022
Mof_H 	H 	0.5324	0.6436	0.5854	0.061
Mof_H 	H 	0.3607	0.5949	0.5304	0.048
Mof_H 	H 	0.1689	0.8495	0.2246	-0.04
Mof_H 	H 	0.9441	0.6773	0.0304	-0.018
Mof_H 	H 	0.8996	0.5258	0.014	0.036
Mof_H 	H 	0.2393	0.7935	0.3144	0.022
Mof_H 	H 	0.9676	0.553	0.1112	0.061
Mof_H 	H 	0.1393	0.6697	0.2342	0.048
Mof_H 	H 	0.3751	0.6505	0.8194	-0.04
Mof_H 	H 	0.3531	0.8227	0.7668	-0.019
Mof_H 	H 	0.4882	0.9742	0.8738	0.036
Mof_H 	H 	0.5209	0.7065	0.9458	0.022
Mof_H 	H 	0.5582	0.947	0.9146	0.061
Mof_H 	H 	0.5645	0.8303	0.9696	0.048
Mof_H 	H 	0.6505	0.3194	0.8751	-0.04
Mof_H 	H 	0.8227	0.2668	0.8531	-0.019
Mof_H 	H 	0.9742	0.3738	0.9882	0.034
Mof_H 	H 	0.7065	0.4458	0.0209	0.023
Mof_H 	H 	0.947	0.4146	0.0582	0.061
Mof_H 	H 	0.8303	0.4696	0.0645	0.048
Mof_H 	H 	0.8495	0.7246	0.6689	-0.04
Mof_H 	H 	0.6773	0.5304	0.4441	-0.019
Mof_H 	H 	0.5258	0.514	0.3996	0.035
Mof_H 	H 	0.7935	0.8144	0.7393	0.022
Mof_H 	H 	0.553	0.6112	0.4676	0.061
Mof_H 	H 	0.6697	0.7342	0.6393	0.048
Mof_H 	H 	0.5557	0.1806	0.8311	-0.04
Mof_H 	H 	0.5863	0.2332	0.0559	-0.019
Mof_H 	H 	0.6144	0.1262	0.1004	0.035
Mof_H 	H 	0.5751	0.0542	0.7607	0.022
Mof_H 	H 	0.6436	0.0854	0.0324	0.061
Mof_H 	H 	0.5949	0.0304	0.8607	0.048
Mof_H 	H 	0.9443	0.7754	0.6249	-0.04
Mof_H 	H 	0.9137	0.9696	0.6469	-0.018
Mof_H 	H 	0.8856	0.986	0.5118	0.036
Mof_H 	H 	0.9249	0.6856	0.4791	0.022
Mof_H 	H 	0.8564	0.8888	0.4418	0.061
Mof_H 	H 	0.9051	0.7658	0.4355	0.048
Mof_C 	C 	0.6749	0.2373	0.825	0.085
Mof_C 	C 	0.4441	0.0374	0.6479	0.08
Mof_C 	C 	0.66	0.242	0.7492	0.03
Mof_C 	C 	0.4188	0.028	0.565	-0.022
Mof_C 	C 	0.7135	0.2862	0.7955	-0.015
Mof_C 	C 	0.4682	0.0795	0.6037	0.044
Mof_C 	C 	0.492	0.1173	0.5881	-0.065
Mof_C 	C 	0.628	0.222	0.692	-0.04
Mof_C 	C 	0.9123	0.8499	0.675	0.085
Mof_C 	C 	0.8895	0.7962	0.8521	0.08
Mof_C 	C 	0.9928	0.9108	0.7508	0.029
Mof_C 	C 	0.963	0.8538	0.935	-0.022
Mof_C 	C 	0.9907	0.918	0.7045	-0.014
Mof_C 	C 	0.9758	0.8645	0.8963	0.043
Mof_C 	C 	0.0292	0.9039	0.9119	-0.064
Mof_C 	C 	0.03	0.936	0.808	-0.04
Mof_C 	C 	0.5877	0.2627	0.9376	0.085
Mof_C 	C 	0.6105	0.4626	0.9067	0.08
Mof_C 	C 	0.5072	0.258	0.918	0.03
Mof_C 	C 	0.537	0.472	0.8908	-0.022
Mof_C 	C 	0.5093	0.2138	0.9273	-0.016
Mof_C 	C 	0.5242	0.4205	0.8887	0.044
Mof_C 	C 	0.4708	0.3827	0.8747	-0.065
Mof_C 	C 	0.47	0.278	0.906	-0.04
Mof_C 	C 	0.8251	0.6501	0.5624	0.085
Mof_C 	C 	0.0559	0.7038	0.5933	0.08
Mof_C 	C 	0.84	0.5892	0.582	0.03
Mof_C 	C 	0.0812	0.6462	0.6092	-0.022
Mof_C 	C 	0.7865	0.582	0.5727	-0.015
Mof_C 	C 	0.0318	0.6355	0.6113	0.044
Mof_C 	C 	0.008	0.5961	0.6253	-0.065
Mof_C 	C 	0.872	0.564	0.594	-0.04
Mof_C 	C 	0.4376	0.5877	0.7627	0.085
Mof_C 	C 	0.4067	0.6105	0.9626	0.08
Mof_C 	C 	0.418	0.5072	0.758	0.03
Mof_C 	C 	0.3908	0.537	0.972	-0.022
Mof_C 	C 	0.4273	0.5093	0.7138	-0.015
Mof_C 	C 	0.3887	0.5242	0.9205	0.044
Mof_C 	C 	0.3747	0.4708	0.8827	-0.065
Mof_C 	C 	0.406	0.47	0.778	-0.04
Mof_C 	C 	0.0624	0.8251	0.1501	0.085
Mof_C 	C 	0.0933	0.0559	0.2038	0.08
Mof_C 	C 	0.082	0.84	0.0892	0.029
Mof_C 	C 	0.1092	0.0812	0.1462	-0.022
Mof_C 	C 	0.0727	0.7865	0.082	-0.016
Mof_C 	C 	0.1113	0.0318	0.1355	0.044
Mof_C 	C 	0.1253	0.008	0.0961	-0.063
Mof_C 	C 	0.094	0.872	0.064	-0.04
Mof_C 	C 	0.325	0.6749	0.7373	0.085
Mof_C 	C 	0.1479	0.4441	0.5374	0.08
Mof_C 	C 	0.2492	0.66	0.742	0.03
Mof_C 	C 	0.065	0.4188	0.528	-0.022
Mof_C 	C 	0.2955	0.7135	0.7862	-0.015
Mof_C 	C 	0.1037	0.4682	0.5795	0.045
Mof_C 	C 	0.0881	0.492	0.6173	-0.065
Mof_C 	C 	0.192	0.628	0.722	-0.04
Mof_C 	C 	0.175	0.9123	0.3499	0.085
Mof_C 	C 	0.3521	0.8895	0.2962	0.08
Mof_C 	C 	0.2508	0.9928	0.4108	0.029
Mof_C 	C 	0.435	0.963	0.3538	-0.022
Mof_C 	C 	0.2045	0.9907	0.418	-0.017
Mof_C 	C 	0.3963	0.9758	0.3645	0.044
Mof_C 	C 	0.4119	0.0292	0.4039	-0.064
Mof_C 	C 	0.308	0.03	0.436	-0.039
Mof_C 	C 	0.8499	0.175	0.4123	0.085
Mof_C 	C 	0.7962	0.3521	0.3895	0.08
Mof_C 	C 	0.9108	0.2508	0.4928	0.03
Mof_C 	C 	0.8538	0.435	0.463	-0.022
Mof_C 	C 	0.918	0.2045	0.4907	-0.015
Mof_C 	C 	0.8645	0.3963	0.4758	0.044
Mof_C 	C 	0.9039	0.4119	0.5292	-0.065
Mof_C 	C 	0.936	0.308	0.53	-0.04
Mof_C 	C 	0.2373	0.325	0.1749	0.085
Mof_C 	C 	0.0374	0.1479	0.9441	0.081
Mof_C 	C 	0.242	0.2492	0.16	0.03
Mof_C 	C 	0.028	0.065	0.9188	-0.022
Mof_C 	C 	0.2862	0.2955	0.2135	-0.015
Mof_C 	C 	0.0795	0.1037	0.9682	0.045
Mof_C 	C 	0.1173	0.0881	0.992	-0.063
Mof_C 	C 	0.222	0.192	0.128	-0.04
Mof_C 	C 	0.6501	0.0624	0.3251	0.085
Mof_C 	C 	0.7038	0.0933	0.5559	0.08
Mof_C 	C 	0.5892	0.082	0.34	0.03
Mof_C 	C 	0.6462	0.1092	0.5812	-0.022
Mof_C 	C 	0.582	0.0727	0.2865	-0.015
Mof_C 	C 	0.6355	0.1113	0.5318	0.044
Mof_C 	C 	0.5961	0.1253	0.508	-0.065
Mof_C 	C 	0.564	0.094	0.372	-0.04
Mof_C 	C 	0.2627	0.4376	0.0877	0.085
Mof_C 	C 	0.4626	0.4067	0.1105	0.08
Mof_C 	C 	0.258	0.418	0.0072	0.029
Mof_C 	C 	0.472	0.3908	0.037	-0.022
Mof_C 	C 	0.2138	0.4273	0.0093	-0.018
Mof_C 	C 	0.4205	0.3887	0.0242	0.044
Mof_C 	C 	0.3827	0.3747	0.9708	-0.064
Mof_C 	C 	0.278	0.406	0.97	-0.039
Mof_C 	C 	0.2627	0.8251	0.675	0.085
Mof_C 	C 	0.4626	0.0559	0.8521	0.08
Mof_C 	C 	0.258	0.84	0.7508	0.03
Mof_C 	C 	0.472	0.0812	0.935	-0.022
Mof_C 	C 	0.2138	0.7865	0.7045	-0.015
Mof_C 	C 	0.4205	0.0318	0.8963	0.044
Mof_C 	C 	0.3827	0.008	0.9119	-0.065
Mof_C 	C 	0.278	0.872	0.808	-0.04
Mof_C 	C 	0.6501	0.5877	0.825	0.085
Mof_C 	C 	0.7038	0.6105	0.6479	0.08
Mof_C 	C 	0.5892	0.5072	0.7492	0.03
Mof_C 	C 	0.6462	0.537	0.565	-0.022
Mof_C 	C 	0.582	0.5093	0.7955	-0.015
Mof_C 	C 	0.6355	0.5242	0.6037	0.044
Mof_C 	C 	0.5961	0.4708	0.5881	-0.065
Mof_C 	C 	0.564	0.47	0.692	-0.04
Mof_C 	C 	0.2373	0.9123	0.5624	0.085
Mof_C 	C 	0.0374	0.8895	0.5933	0.08
Mof_C 	C 	0.242	0.9928	0.582	0.029
Mof_C 	C 	0.028	0.963	0.6092	-0.022
Mof_C 	C 	0.2862	0.9907	0.5727	-0.016
Mof_C 	C 	0.0795	0.9758	0.6113	0.042
Mof_C 	C 	0.1173	0.0292	0.6253	-0.063
Mof_C 	C 	0.222	0.03	0.594	-0.039
Mof_C 	C 	0.8499	0.6749	0.9376	0.085
Mof_C 	C 	0.7962	0.4441	0.9067	0.08
Mof_C 	C 	0.9108	0.66	0.918	0.03
Mof_C 	C 	0.8538	0.4188	0.8908	-0.022
Mof_C 	C 	0.918	0.7135	0.9273	-0.016
Mof_C 	C 	0.8645	0.4682	0.8887	0.044
Mof_C 	C 	0.9039	0.492	0.8747	-0.065
Mof_C 	C 	0.936	0.628	0.906	-0.04
Mof_C 	C 	0.9123	0.0624	0.7373	0.085
Mof_C 	C 	0.8895	0.0933	0.5374	0.08
Mof_C 	C 	0.9928	0.082	0.742	0.028
Mof_C 	C 	0.963	0.1092	0.528	-0.021
Mof_C 	C 	0.9907	0.0727	0.7862	-0.021
Mof_C 	C 	0.9758	0.1113	0.5795	0.041
Mof_C 	C 	0.0292	0.1253	0.6173	-0.062
Mof_C 	C 	0.03	0.094	0.722	-0.037
Mof_C 	C 	0.6749	0.4376	0.3499	0.085
Mof_C 	C 	0.4441	0.4067	0.2962	0.08
Mof_C 	C 	0.66	0.418	0.4108	0.03
Mof_C 	C 	0.4188	0.3908	0.3538	-0.022
Mof_C 	C 	0.7135	0.4273	0.418	-0.015
Mof_C 	C 	0.4682	0.3887	0.3645	0.044
Mof_C 	C 	0.492	0.3747	0.4039	-0.065
Mof_C 	C 	0.628	0.406	0.436	-0.04
Mof_C 	C 	0.8251	0.175	0.7627	0.085
Mof_C 	C 	0.0559	0.3521	0.9626	0.081
Mof_C 	C 	0.84	0.2508	0.758	0.03
Mof_C 	C 	0.0812	0.435	0.972	-0.022
Mof_C 	C 	0.7865	0.2045	0.7138	-0.015
Mof_C 	C 	0.0318	0.3963	0.9205	0.044
Mof_C 	C 	0.008	0.4119	0.8827	-0.062
Mof_C 	C 	0.872	0.308	0.778	-0.04
Mof_C 	C 	0.5877	0.325	0.1501	0.085
Mof_C 	C 	0.6105	0.1479	0.2038	0.08
Mof_C 	C 	0.5072	0.2492	0.0892	0.03
Mof_C 	C 	0.537	0.065	0.1462	-0.022
Mof_C 	C 	0.5093	0.2955	0.082	-0.015
Mof_C 	C 	0.5242	0.1037	0.1355	0.044
Mof_C 	C 	0.4708	0.0881	0.0961	-0.065
Mof_C 	C 	0.47	0.192	0.064	-0.04
Mof_C 	C 	0.325	0.6501	0.0877	0.085
Mof_C 	C 	0.1479	0.7038	0.1105	0.08
Mof_C 	C 	0.2492	0.5892	0.0072	0.028
Mof_C 	C 	0.065	0.6462	0.037	-0.021
Mof_C 	C 	0.2955	0.582	0.0093	-0.017
Mof_C 	C 	0.1037	0.6355	0.0242	0.041
Mof_C 	C 	0.0881	0.5961	0.9708	-0.062
Mof_C 	C 	0.192	0.564	0.97	-0.038
Mof_C 	C 	0.175	0.2627	0.3251	0.085
Mof_C 	C 	0.3521	0.4626	0.5559	0.08
Mof_C 	C 	0.2508	0.258	0.34	0.03
Mof_C 	C 	0.435	0.472	0.5812	-0.022
Mof_C 	C 	0.2045	0.2138	0.2865	-0.015
Mof_C 	C 	0.3963	0.4205	0.5318	0.044
Mof_C 	C 	0.4119	0.3827	0.508	-0.065
Mof_C 	C 	0.308	0.278	0.372	-0.04
Mof_C 	C 	0.4376	0.8499	0.1749	0.085
Mof_C 	C 	0.4067	0.7962	0.9441	0.08
Mof_C 	C 	0.418	0.9108	0.16	0.03
Mof_C 	C 	0.3908	0.8538	0.9188	-0.022
Mof_C 	C 	0.4273	0.918	0.2135	-0.015
Mof_C 	C 	0.3887	0.8645	0.9682	0.044
Mof_C 	C 	0.3747	0.9039	0.992	-0.064
Mof_C 	C 	0.406	0.936	0.128	-0.04
Mof_C 	C 	0.0624	0.2373	0.4123	0.085
Mof_C 	C 	0.0933	0.0374	0.3895	0.08
Mof_C 	C 	0.082	0.242	0.4928	0.03
Mof_C 	C 	0.1092	0.028	0.463	-0.022
Mof_C 	C 	0.0727	0.2862	0.4907	-0.015
Mof_C 	C 	0.1113	0.0795	0.4758	0.045
Mof_C 	C 	0.1253	0.1173	0.5292	-0.065
Mof_C 	C 	0.094	0.222	0.53	-0.04
Mof_C 	C 	0.3251	0.7627	0.175	0.085
Mof_C 	C 	0.5559	0.9626	0.3521	0.08
Mof_C 	C 	0.34	0.758	0.2508	0.03
Mof_C 	C 	0.5812	0.972	0.435	-0.022
Mof_C 	C 	0.2865	0.7138	0.2045	-0.015
Mof_C 	C 	0.5318	0.9205	0.3963	0.044
Mof_C 	C 	0.508	0.8827	0.4119	-0.065
Mof_C 	C 	0.372	0.778	0.308	-0.04
Mof_C 	C 	0.0877	0.1501	0.325	0.085
Mof_C 	C 	0.1105	0.2038	0.1479	0.08
Mof_C 	C 	0.0072	0.0892	0.2492	0.029
Mof_C 	C 	0.037	0.1462	0.065	-0.022
Mof_C 	C 	0.0093	0.082	0.2955	-0.014
Mof_C 	C 	0.0242	0.1355	0.1037	0.043
Mof_C 	C 	0.9708	0.0961	0.0881	-0.064
Mof_C 	C 	0.97	0.064	0.192	-0.04
Mof_C 	C 	0.4123	0.7373	0.0624	0.085
Mof_C 	C 	0.3895	0.5374	0.0933	0.08
Mof_C 	C 	0.4928	0.742	0.082	0.03
Mof_C 	C 	0.463	0.528	0.1092	-0.022
Mof_C 	C 	0.4907	0.7862	0.0727	-0.016
Mof_C 	C 	0.4758	0.5795	0.1113	0.044
Mof_C 	C 	0.5292	0.6173	0.1253	-0.065
Mof_C 	C 	0.53	0.722	0.094	-0.04
Mof_C 	C 	0.1749	0.3499	0.4376	0.085
Mof_C 	C 	0.9441	0.2962	0.4067	0.08
Mof_C 	C 	0.16	0.4108	0.418	0.03
Mof_C 	C 	0.9188	0.3538	0.3908	-0.022
Mof_C 	C 	0.2135	0.418	0.4273	-0.015
Mof_C 	C 	0.9682	0.3645	0.3887	0.044
Mof_C 	C 	0.992	0.4039	0.3747	-0.065
Mof_C 	C 	0.128	0.436	0.406	-0.04
Mof_C 	C 	0.5624	0.4123	0.2373	0.085
Mof_C 	C 	0.5933	0.3895	0.0374	0.08
Mof_C 	C 	0.582	0.4928	0.242	0.03
Mof_C 	C 	0.6092	0.463	0.028	-0.022
Mof_C 	C 	0.5727	0.4907	0.2862	-0.015
Mof_C 	C 	0.6113	0.4758	0.0795	0.044
Mof_C 	C 	0.6253	0.5292	0.1173	-0.065
Mof_C 	C 	0.594	0.53	0.222	-0.04
Mof_C 	C 	0.9376	0.1749	0.8499	0.085
Mof_C 	C 	0.9067	0.9441	0.7962	0.08
Mof_C 	C 	0.918	0.16	0.9108	0.029
Mof_C 	C 	0.8908	0.9188	0.8538	-0.022
Mof_C 	C 	0.9273	0.2135	0.918	-0.016
Mof_C 	C 	0.8887	0.9682	0.8645	0.044
Mof_C 	C 	0.8747	0.992	0.9039	-0.063
Mof_C 	C 	0.906	0.128	0.936	-0.04
Mof_C 	C 	0.675	0.3251	0.2627	0.085
Mof_C 	C 	0.8521	0.5559	0.4626	0.08
Mof_C 	C 	0.7508	0.34	0.258	0.03
Mof_C 	C 	0.935	0.5812	0.472	-0.022
Mof_C 	C 	0.7045	0.2865	0.2138	-0.015
Mof_C 	C 	0.8963	0.5318	0.4205	0.045
Mof_C 	C 	0.9119	0.508	0.3827	-0.065
Mof_C 	C 	0.808	0.372	0.278	-0.04
Mof_C 	C 	0.825	0.0877	0.6501	0.085
Mof_C 	C 	0.6479	0.1105	0.7038	0.08
Mof_C 	C 	0.7492	0.0072	0.5892	0.029
Mof_C 	C 	0.565	0.037	0.6462	-0.022
Mof_C 	C 	0.7955	0.0093	0.582	-0.017
Mof_C 	C 	0.6037	0.0242	0.6355	0.044
Mof_C 	C 	0.5881	0.9708	0.5961	-0.064
Mof_C 	C 	0.692	0.97	0.564	-0.039
Mof_C 	C 	0.1501	0.825	0.5877	0.085
Mof_C 	C 	0.2038	0.6479	0.6105	0.08
Mof_C 	C 	0.0892	0.7492	0.5072	0.03
Mof_C 	C 	0.1462	0.565	0.537	-0.022
Mof_C 	C 	0.082	0.7955	0.5093	-0.015
Mof_C 	C 	0.1355	0.6037	0.5242	0.044
Mof_C 	C 	0.0961	0.5881	0.4708	-0.065
Mof_C 	C 	0.064	0.692	0.47	-0.04
Mof_C 	C 	0.7627	0.675	0.8251	0.085
Mof_C 	C 	0.9626	0.8521	0.0559	0.081
Mof_C 	C 	0.758	0.7508	0.84	0.03
Mof_C 	C 	0.972	0.935	0.0812	-0.022
Mof_C 	C 	0.7138	0.7045	0.7865	-0.015
Mof_C 	C 	0.9205	0.8963	0.0318	0.045
Mof_C 	C 	0.8827	0.9119	0.008	-0.063
Mof_C 	C 	0.778	0.808	0.872	-0.04
Mof_C 	C 	0.3499	0.9376	0.6749	0.085
Mof_C 	C 	0.2962	0.9067	0.4441	0.08
Mof_C 	C 	0.4108	0.918	0.66	0.03
Mof_C 	C 	0.3538	0.8908	0.4188	-0.022
Mof_C 	C 	0.418	0.9273	0.7135	-0.015
Mof_C 	C 	0.3645	0.8887	0.4682	0.044
Mof_C 	C 	0.4039	0.8747	0.492	-0.065
Mof_C 	C 	0.436	0.906	0.628	-0.04
Mof_C 	C 	0.7373	0.5624	0.9123	0.085
Mof_C 	C 	0.5374	0.5933	0.8895	0.08
Mof_C 	C 	0.742	0.582	0.9928	0.029
Mof_C 	C 	0.528	0.6092	0.963	-0.022
Mof_C 	C 	0.7862	0.5727	0.9907	-0.018
Mof_C 	C 	0.5795	0.6113	0.9758	0.044
Mof_C 	C 	0.6173	0.6253	0.0292	-0.064
Mof_C 	C 	0.722	0.594	0.03	-0.039
Mof_C 	C 	0.7373	0.1749	0.325	0.085
Mof_C 	C 	0.5374	0.9441	0.1479	0.08
Mof_C 	C 	0.742	0.16	0.2492	0.03
Mof_C 	C 	0.528	0.9188	0.065	-0.022
Mof_C 	C 	0.7862	0.2135	0.2955	-0.015
Mof_C 	C 	0.5795	0.9682	0.1037	0.044
Mof_C 	C 	0.6173	0.992	0.0881	-0.065
Mof_C 	C 	0.722	0.128	0.192	-0.04
Mof_C 	C 	0.3499	0.4123	0.175	0.085
Mof_C 	C 	0.2962	0.3895	0.3521	0.08
Mof_C 	C 	0.4108	0.4928	0.2508	0.03
Mof_C 	C 	0.3538	0.463	0.435	-0.022
Mof_C 	C 	0.418	0.4907	0.2045	-0.015
Mof_C 	C 	0.3645	0.4758	0.3963	0.044
Mof_C 	C 	0.4039	0.5292	0.4119	-0.065
Mof_C 	C 	0.436	0.53	0.308	-0.04
Mof_C 	C 	0.7627	0.0877	0.4376	0.085
Mof_C 	C 	0.9626	0.1105	0.4067	0.08
Mof_C 	C 	0.758	0.0072	0.418	0.029
Mof_C 	C 	0.972	0.037	0.3908	-0.022
Mof_C 	C 	0.7138	0.0093	0.4273	-0.016
Mof_C 	C 	0.9205	0.0242	0.3887	0.042
Mof_C 	C 	0.8827	0.9708	0.3747	-0.063
Mof_C 	C 	0.778	0.97	0.406	-0.039
Mof_C 	C 	0.1501	0.3251	0.0624	0.085
Mof_C 	C 	0.2038	0.5559	0.0933	0.08
Mof_C 	C 	0.0892	0.34	0.082	0.03
Mof_C 	C 	0.1462	0.5812	0.1092	-0.022
Mof_C 	C 	0.082	0.2865	0.0727	-0.016
Mof_C 	C 	0.1355	0.5318	0.1113	0.044
Mof_C 	C 	0.0961	0.508	0.1253	-0.065
Mof_C 	C 	0.064	0.372	0.094	-0.04
Mof_C 	C 	0.0877	0.9376	0.2627	0.085
Mof_C 	C 	0.1105	0.9067	0.4626	0.08
Mof_C 	C 	0.0072	0.918	0.258	0.028
Mof_C 	C 	0.037	0.8908	0.472	-0.021
Mof_C 	C 	0.0093	0.9273	0.2138	-0.021
Mof_C 	C 	0.0242	0.8887	0.4205	0.041
Mof_C 	C 	0.9708	0.8747	0.3827	-0.062
Mof_C 	C 	0.97	0.906	0.278	-0.037
Mof_C 	C 	0.3251	0.5624	0.6501	0.085
Mof_C 	C 	0.5559	0.5933	0.7038	0.08
Mof_C 	C 	0.34	0.582	0.5892	0.03
Mof_C 	C 	0.5812	0.6092	0.6462	-0.022
Mof_C 	C 	0.2865	0.5727	0.582	-0.015
Mof_C 	C 	0.5318	0.6113	0.6355	0.044
Mof_C 	C 	0.508	0.6253	0.5961	-0.065
Mof_C 	C 	0.372	0.594	0.564	-0.04
Mof_C 	C 	0.1749	0.825	0.2373	0.085
Mof_C 	C 	0.9441	0.6479	0.0374	0.081
Mof_C 	C 	0.16	0.7492	0.242	0.03
Mof_C 	C 	0.9188	0.565	0.028	-0.022
Mof_C 	C 	0.2135	0.7955	0.2862	-0.015
Mof_C 	C 	0.9682	0.6037	0.0795	0.044
Mof_C 	C 	0.992	0.5881	0.1173	-0.062
Mof_C 	C 	0.128	0.692	0.222	-0.04
Mof_C 	C 	0.4123	0.675	0.8499	0.085
Mof_C 	C 	0.3895	0.8521	0.7962	0.08
Mof_C 	C 	0.4928	0.7508	0.9108	0.03
Mof_C 	C 	0.463	0.935	0.8538	-0.022
Mof_C 	C 	0.4907	0.7045	0.918	-0.015
Mof_C 	C 	0.4758	0.8963	0.8645	0.044
Mof_C 	C 	0.5292	0.9119	0.9039	-0.065
Mof_C 	C 	0.53	0.808	0.936	-0.04
Mof_C 	C 	0.675	0.3499	0.9123	0.085
Mof_C 	C 	0.8521	0.2962	0.8895	0.08
Mof_C 	C 	0.7508	0.4108	0.9928	0.028
Mof_C 	C 	0.935	0.3538	0.963	-0.021
Mof_C 	C 	0.7045	0.418	0.9907	-0.017
Mof_C 	C 	0.8963	0.3645	0.9758	0.041
Mof_C 	C 	0.9119	0.4039	0.0292	-0.062
Mof_C 	C 	0.808	0.436	0.03	-0.038
Mof_C 	C 	0.825	0.7373	0.6749	0.085
Mof_C 	C 	0.6479	0.5374	0.4441	0.08
Mof_C 	C 	0.7492	0.742	0.66	0.03
Mof_C 	C 	0.565	0.528	0.4188	-0.022
Mof_C 	C 	0.7955	0.7862	0.7135	-0.015
Mof_C 	C 	0.6037	0.5795	0.4682	0.044
Mof_C 	C 	0.5881	0.6173	0.492	-0.065
Mof_C 	C 	0.692	0.722	0.628	-0.04
Mof_C 	C 	0.5624	0.1501	0.8251	0.085
Mof_C 	C 	0.5933	0.2038	0.0559	0.08
Mof_C 	C 	0.582	0.0892	0.84	0.03
Mof_C 	C 	0.6092	0.1462	0.0812	-0.022
Mof_C 	C 	0.5727	0.082	0.7865	-0.015
Mof_C 	C 	0.6113	0.1355	0.0318	0.044
Mof_C 	C 	0.6253	0.0961	0.008	-0.064
Mof_C 	C 	0.594	0.064	0.872	-0.04
Mof_C 	C 	0.9376	0.7627	0.5877	0.085
Mof_C 	C 	0.9067	0.9626	0.6105	0.08
Mof_C 	C 	0.918	0.758	0.5072	0.03
Mof_C 	C 	0.8908	0.972	0.537	-0.022
Mof_C 	C 	0.9273	0.7138	0.5093	-0.015
Mof_C 	C 	0.8887	0.9205	0.5242	0.045
Mof_C 	C 	0.8747	0.8827	0.4708	-0.065
Mof_C 	C 	0.906	0.778	0.47	-0.04
Mof_N 	N 	0.6361	0.2108	0.7711	-0.252
Mof_N 	N 	0.7234	0.2833	0.8431	-0.25
Mof_N 	N 	0.40188	0.0003	0.59178	-0.229
Mof_N 	N 	0.4837	0.0829	0.6562	-0.257
Mof_N 	N 	0.575	0.1807	0.6735	-0.189
Mof_N 	N 	0.5451	0.1616	0.6155	-0.08
Mof_N 	N 	0.9397	0.865	0.7289	-0.252
Mof_N 	N 	0.9402	0.8803	0.6569	-0.25
Mof_N 	N 	0.90852	0.8101	0.90822	-0.229
Mof_N 	N 	0.9267	0.8275	0.8438	-0.257
Mof_N 	N 	0.0072	0.9015	0.8265	-0.189
Mof_N 	N 	0.0461	0.9296	0.8845	-0.08
Mof_N 	N 	0.5603	0.2892	0.9253	-0.252
Mof_N 	N 	0.5598	0.2167	0.9401	-0.25
Mof_N 	N 	0.59148	0.4997	0.90158	-0.229
Mof_N 	N 	0.5733	0.4171	0.9008	-0.257
Mof_N 	N 	0.4928	0.3193	0.8943	-0.189
Mof_N 	N 	0.4539	0.3384	0.8835	-0.08
Mof_N 	N 	0.8639	0.635	0.5747	-0.252
Mof_N 	N 	0.7766	0.6197	0.5599	-0.25
Mof_N 	N 	0.09812	0.6899	0.59842	-0.229
Mof_N 	N 	0.0163	0.6725	0.5992	-0.257
Mof_N 	N 	0.925	0.5985	0.6057	-0.189
Mof_N 	N 	0.9549	0.5704	0.6165	-0.08
Mof_N 	N 	0.4253	0.5603	0.7892	-0.252
Mof_N 	N 	0.4401	0.5598	0.7167	-0.25
Mof_N 	N 	0.40158	0.59148	0.9997	-0.229
Mof_N 	N 	0.4008	0.5733	0.9171	-0.257
Mof_N 	N 	0.3943	0.4928	0.8193	-0.189
Mof_N 	N 	0.3835	0.4539	0.8384	-0.08
Mof_N 	N 	0.0747	0.8639	0.135	-0.252
Mof_N 	N 	0.0599	0.7766	0.1197	-0.25
Mof_N 	N 	0.09842	0.09812	0.1899	-0.229
Mof_N 	N 	0.0992	0.0163	0.1725	-0.257
Mof_N 	N 	0.1057	0.925	0.0985	-0.19
Mof_N 	N 	0.1165	0.9549	0.0704	-0.082
Mof_N 	N 	0.2711	0.6361	0.7108	-0.252
Mof_N 	N 	0.3431	0.7234	0.7833	-0.25
Mof_N 	N 	0.09178	0.40188	0.5003	-0.229
Mof_N 	N 	0.1562	0.4837	0.5829	-0.257
Mof_N 	N 	0.1735	0.575	0.6807	-0.189
Mof_N 	N 	0.1155	0.5451	0.6616	-0.08
Mof_N 	N 	0.2289	0.9397	0.365	-0.252
Mof_N 	N 	0.1569	0.9402	0.3803	-0.25
Mof_N 	N 	0.40822	0.90852	0.3101	-0.229
Mof_N 	N 	0.3438	0.9267	0.3275	-0.257
Mof_N 	N 	0.3265	0.0072	0.4015	-0.189
Mof_N 	N 	0.3845	0.0461	0.4296	-0.08
Mof_N 	N 	0.865	0.2289	0.4397	-0.252
Mof_N 	N 	0.8803	0.1569	0.4402	-0.25
Mof_N 	N 	0.8101	0.40822	0.40852	-0.229
Mof_N 	N 	0.8275	0.3438	0.4267	-0.257
Mof_N 	N 	0.9015	0.3265	0.5072	-0.189
Mof_N 	N 	0.9296	0.3845	0.5461	-0.08
Mof_N 	N 	0.2108	0.2711	0.1361	-0.252
Mof_N 	N 	0.2833	0.3431	0.2234	-0.25
Mof_N 	N 	0.0003	0.09178	0.90188	-0.228
Mof_N 	N 	0.0829	0.1562	0.9837	-0.257
Mof_N 	N 	0.1807	0.1735	0.075	-0.19
Mof_N 	N 	0.1616	0.1155	0.0451	-0.081
Mof_N 	N 	0.635	0.0747	0.3639	-0.252
Mof_N 	N 	0.6197	0.0599	0.2766	-0.25
Mof_N 	N 	0.6899	0.09842	0.59812	-0.229
Mof_N 	N 	0.6725	0.0992	0.5163	-0.257
Mof_N 	N 	0.5985	0.1057	0.425	-0.189
Mof_N 	N 	0.5704	0.1165	0.4549	-0.08
Mof_N 	N 	0.2892	0.4253	0.0603	-0.252
Mof_N 	N 	0.2167	0.4401	0.0598	-0.25
Mof_N 	N 	0.4997	0.40158	0.09148	-0.229
Mof_N 	N 	0.4171	0.4008	0.0733	-0.257
Mof_N 	N 	0.3193	0.3943	0.9928	-0.189
Mof_N 	N 	0.3384	0.3835	0.9539	-0.08
Mof_N 	N 	0.2892	0.8639	0.7289	-0.252
Mof_N 	N 	0.2167	0.7766	0.6569	-0.25
Mof_N 	N 	0.4997	0.09812	0.90822	-0.229
Mof_N 	N 	0.4171	0.0163	0.8438	-0.257
Mof_N 	N 	0.3193	0.925	0.8265	-0.189
Mof_N 	N 	0.3384	0.9549	0.8845	-0.08
Mof_N 	N 	0.635	0.5603	0.7711	-0.252
Mof_N 	N 	0.6197	0.5598	0.8431	-0.25
Mof_N 	N 	0.6899	0.59148	0.59178	-0.229
Mof_N 	N 	0.6725	0.5733	0.6562	-0.257
Mof_N 	N 	0.5985	0.4928	0.6735	-0.189
Mof_N 	N 	0.5704	0.4539	0.6155	-0.08
Mof_N 	N 	0.2108	0.9397	0.5747	-0.252
Mof_N 	N 	0.2833	0.9402	0.5599	-0.25
Mof_N 	N 	0.0003	0.90852	0.59842	-0.229
Mof_N 	N 	0.0829	0.9267	0.5992	-0.257
Mof_N 	N 	0.1807	0.0072	0.6057	-0.189
Mof_N 	N 	0.1616	0.0461	0.6165	-0.08
Mof_N 	N 	0.865	0.6361	0.9253	-0.252
Mof_N 	N 	0.8803	0.7234	0.9401	-0.25
Mof_N 	N 	0.8101	0.40188	0.90158	-0.229
Mof_N 	N 	0.8275	0.4837	0.9008	-0.257
Mof_N 	N 	0.9015	0.575	0.8943	-0.19
Mof_N 	N 	0.9296	0.5451	0.8835	-0.08
Mof_N 	N 	0.9397	0.0747	0.7108	-0.252
Mof_N 	N 	0.9402	0.0599	0.7833	-0.25
Mof_N 	N 	0.90852	0.09842	0.5003	-0.229
Mof_N 	N 	0.9267	0.0992	0.5829	-0.257
Mof_N 	N 	0.0072	0.1057	0.6807	-0.189
Mof_N 	N 	0.0461	0.1165	0.6616	-0.08
Mof_N 	N 	0.6361	0.4253	0.365	-0.252
Mof_N 	N 	0.7234	0.4401	0.3803	-0.25
Mof_N 	N 	0.40188	0.40158	0.3101	-0.229
Mof_N 	N 	0.4837	0.4008	0.3275	-0.257
Mof_N 	N 	0.575	0.3943	0.4015	-0.189
Mof_N 	N 	0.5451	0.3835	0.4296	-0.08
Mof_N 	N 	0.8639	0.2289	0.7892	-0.252
Mof_N 	N 	0.7766	0.1569	0.7167	-0.25
Mof_N 	N 	0.09812	0.40822	0.9997	-0.228
Mof_N 	N 	0.0163	0.3438	0.9171	-0.256
Mof_N 	N 	0.925	0.3265	0.8193	-0.19
Mof_N 	N 	0.9549	0.3845	0.8384	-0.082
Mof_N 	N 	0.5603	0.2711	0.135	-0.252
Mof_N 	N 	0.5598	0.3431	0.1197	-0.25
Mof_N 	N 	0.59148	0.09178	0.1899	-0.229
Mof_N 	N 	0.5733	0.1562	0.1725	-0.257
Mof_N 	N 	0.4928	0.1735	0.0985	-0.189
Mof_N 	N 	0.4539	0.1155	0.0704	-0.08
Mof_N 	N 	0.2711	0.635	0.0603	-0.252
Mof_N 	N 	0.3431	0.6197	0.0598	-0.25
Mof_N 	N 	0.09178	0.6899	0.09148	-0.229
Mof_N 	N 	0.1562	0.6725	0.0733	-0.257
Mof_N 	N 	0.1735	0.5985	0.9928	-0.189
Mof_N 	N 	0.1155	0.5704	0.9539	-0.08
Mof_N 	N 	0.2289	0.2892	0.3639	-0.252
Mof_N 	N 	0.1569	0.2167	0.2766	-0.25
Mof_N 	N 	0.40822	0.4997	0.59812	-0.229
Mof_N 	N 	0.3438	0.4171	0.5163	-0.257
Mof_N 	N 	0.3265	0.3193	0.425	-0.189
Mof_N 	N 	0.3845	0.3384	0.4549	-0.08
Mof_N 	N 	0.4253	0.865	0.1361	-0.252
Mof_N 	N 	0.4401	0.8803	0.2234	-0.25
Mof_N 	N 	0.40158	0.8101	0.90188	-0.229
Mof_N 	N 	0.4008	0.8275	0.9837	-0.257
Mof_N 	N 	0.3943	0.9015	0.075	-0.19
Mof_N 	N 	0.3835	0.9296	0.0451	-0.081
Mof_N 	N 	0.0747	0.2108	0.4397	-0.252
Mof_N 	N 	0.0599	0.2833	0.4402	-0.25
Mof_N 	N 	0.09842	0.0003	0.40852	-0.228
Mof_N 	N 	0.0992	0.0829	0.4267	-0.257
Mof_N 	N 	0.1057	0.1807	0.5072	-0.189
Mof_N 	N 	0.1165	0.1616	0.5461	-0.08
Mof_N 	N 	0.3639	0.7892	0.2289	-0.252
Mof_N 	N 	0.2766	0.7167	0.1569	-0.25
Mof_N 	N 	0.59812	0.9997	0.40822	-0.229
Mof_N 	N 	0.5163	0.9171	0.3438	-0.257
Mof_N 	N 	0.425	0.8193	0.3265	-0.189
Mof_N 	N 	0.4549	0.8384	0.3845	-0.08
Mof_N 	N 	0.0603	0.135	0.2711	-0.252
Mof_N 	N 	0.0598	0.1197	0.3431	-0.25
Mof_N 	N 	0.09148	0.1899	0.09178	-0.229
Mof_N 	N 	0.0733	0.1725	0.1562	-0.257
Mof_N 	N 	0.9928	0.0985	0.1735	-0.189
Mof_N 	N 	0.9539	0.0704	0.1155	-0.08
Mof_N 	N 	0.4397	0.7108	0.0747	-0.252
Mof_N 	N 	0.4402	0.7833	0.0599	-0.25
Mof_N 	N 	0.40852	0.5003	0.09842	-0.229
Mof_N 	N 	0.4267	0.5829	0.0992	-0.257
Mof_N 	N 	0.5072	0.6807	0.1057	-0.189
Mof_N 	N 	0.5461	0.6616	0.1165	-0.08
Mof_N 	N 	0.1361	0.365	0.4253	-0.252
Mof_N 	N 	0.2234	0.3803	0.4401	-0.25
Mof_N 	N 	0.90188	0.3101	0.40158	-0.229
Mof_N 	N 	0.9837	0.3275	0.4008	-0.257
Mof_N 	N 	0.075	0.4015	0.3943	-0.189
Mof_N 	N 	0.0451	0.4296	0.3835	-0.08
Mof_N 	N 	0.5747	0.4397	0.2108	-0.252
Mof_N 	N 	0.5599	0.4402	0.2833	-0.25
Mof_N 	N 	0.59842	0.40852	0.0003	-0.229
Mof_N 	N 	0.5992	0.4267	0.0829	-0.257
Mof_N 	N 	0.6057	0.5072	0.1807	-0.189
Mof_N 	N 	0.6165	0.5461	0.1616	-0.08
Mof_N 	N 	0.9253	0.1361	0.865	-0.252
Mof_N 	N 	0.9401	0.2234	0.8803	-0.25
Mof_N 	N 	0.90158	0.90188	0.8101	-0.229
Mof_N 	N 	0.9008	0.9837	0.8275	-0.257
Mof_N 	N 	0.8943	0.075	0.9015	-0.19
Mof_N 	N 	0.8835	0.0451	0.9296	-0.082
Mof_N 	N 	0.7289	0.3639	0.2892	-0.252
Mof_N 	N 	0.6569	0.2766	0.2167	-0.25
Mof_N 	N 	0.90822	0.59812	0.4997	-0.229
Mof_N 	N 	0.8438	0.5163	0.4171	-0.257
Mof_N 	N 	0.8265	0.425	0.3193	-0.189
Mof_N 	N 	0.8845	0.4549	0.3384	-0.08
Mof_N 	N 	0.7711	0.0603	0.635	-0.252
Mof_N 	N 	0.8431	0.0598	0.6197	-0.25
Mof_N 	N 	0.59178	0.09148	0.6899	-0.229
Mof_N 	N 	0.6562	0.0733	0.6725	-0.257
Mof_N 	N 	0.6735	0.9928	0.5985	-0.189
Mof_N 	N 	0.6155	0.9539	0.5704	-0.08
Mof_N 	N 	0.135	0.7711	0.5603	-0.252
Mof_N 	N 	0.1197	0.8431	0.5598	-0.25
Mof_N 	N 	0.1899	0.59178	0.59148	-0.229
Mof_N 	N 	0.1725	0.6562	0.5733	-0.257
Mof_N 	N 	0.0985	0.6735	0.4928	-0.189
Mof_N 	N 	0.0704	0.6155	0.4539	-0.08
Mof_N 	N 	0.7892	0.7289	0.8639	-0.252
Mof_N 	N 	0.7167	0.6569	0.7766	-0.25
Mof_N 	N 	0.9997	0.90822	0.09812	-0.228
Mof_N 	N 	0.9171	0.8438	0.0163	-0.257
Mof_N 	N 	0.8193	0.8265	0.925	-0.19
Mof_N 	N 	0.8384	0.8845	0.9549	-0.081
Mof_N 	N 	0.365	0.9253	0.6361	-0.252
Mof_N 	N 	0.3803	0.9401	0.7234	-0.25
Mof_N 	N 	0.3101	0.90158	0.40188	-0.229
Mof_N 	N 	0.3275	0.9008	0.4837	-0.257
Mof_N 	N 	0.4015	0.8943	0.575	-0.189
Mof_N 	N 	0.4296	0.8835	0.5451	-0.08
Mof_N 	N 	0.7108	0.5747	0.9397	-0.252
Mof_N 	N 	0.7833	0.5599	0.9402	-0.25
Mof_N 	N 	0.5003	0.59842	0.90852	-0.229
Mof_N 	N 	0.5829	0.5992	0.9267	-0.257
Mof_N 	N 	0.6807	0.6057	0.0072	-0.189
Mof_N 	N 	0.6616	0.6165	0.0461	-0.08
Mof_N 	N 	0.7108	0.1361	0.2711	-0.252
Mof_N 	N 	0.7833	0.2234	0.3431	-0.25
Mof_N 	N 	0.5003	0.90188	0.09178	-0.229
Mof_N 	N 	0.5829	0.9837	0.1562	-0.257
Mof_N 	N 	0.6807	0.075	0.1735	-0.189
Mof_N 	N 	0.6616	0.0451	0.1155	-0.08
Mof_N 	N 	0.365	0.4397	0.2289	-0.252
Mof_N 	N 	0.3803	0.4402	0.1569	-0.25
Mof_N 	N 	0.3101	0.40852	0.40822	-0.229
Mof_N 	N 	0.3275	0.4267	0.3438	-0.257
Mof_N 	N 	0.4015	0.5072	0.3265	-0.189
Mof_N 	N 	0.4296	0.5461	0.3845	-0.08
Mof_N 	N 	0.7892	0.0603	0.4253	-0.252
Mof_N 	N 	0.7167	0.0598	0.4401	-0.25
Mof_N 	N 	0.9997	0.09148	0.40158	-0.229
Mof_N 	N 	0.9171	0.0733	0.4008	-0.257
Mof_N 	N 	0.8193	0.9928	0.3943	-0.189
Mof_N 	N 	0.8384	0.9539	0.3835	-0.08
Mof_N 	N 	0.135	0.3639	0.0747	-0.252
Mof_N 	N 	0.1197	0.2766	0.0599	-0.25
Mof_N 	N 	0.1899	0.59812	0.09842	-0.229
Mof_N 	N 	0.1725	0.5163	0.0992	-0.257
Mof_N 	N 	0.0985	0.425	0.1057	-0.19
Mof_N 	N 	0.0704	0.4549	0.1165	-0.08
Mof_N 	N 	0.0603	0.9253	0.2892	-0.252
Mof_N 	N 	0.0598	0.9401	0.2167	-0.25
Mof_N 	N 	0.09148	0.90158	0.4997	-0.229
Mof_N 	N 	0.0733	0.9008	0.4171	-0.257
Mof_N 	N 	0.9928	0.8943	0.3193	-0.189
Mof_N 	N 	0.9539	0.8835	0.3384	-0.08
Mof_N 	N 	0.3639	0.5747	0.635	-0.252
Mof_N 	N 	0.2766	0.5599	0.6197	-0.25
Mof_N 	N 	0.59812	0.59842	0.6899	-0.229
Mof_N 	N 	0.5163	0.5992	0.6725	-0.257
Mof_N 	N 	0.425	0.6057	0.5985	-0.189
Mof_N 	N 	0.4549	0.6165	0.5704	-0.08
Mof_N 	N 	0.1361	0.7711	0.2108	-0.252
Mof_N 	N 	0.2234	0.8431	0.2833	-0.25
Mof_N 	N 	0.90188	0.59178	0.0003	-0.228
Mof_N 	N 	0.9837	0.6562	0.0829	-0.256
Mof_N 	N 	0.075	0.6735	0.1807	-0.19
Mof_N 	N 	0.0451	0.6155	0.1616	-0.082
Mof_N 	N 	0.4397	0.7289	0.865	-0.252
Mof_N 	N 	0.4402	0.6569	0.8803	-0.25
Mof_N 	N 	0.40852	0.90822	0.8101	-0.229
Mof_N 	N 	0.4267	0.8438	0.8275	-0.257
Mof_N 	N 	0.5072	0.8265	0.9015	-0.189
Mof_N 	N 	0.5461	0.8845	0.9296	-0.08
Mof_N 	N 	0.7289	0.365	0.9397	-0.252
Mof_N 	N 	0.6569	0.3803	0.9402	-0.25
Mof_N 	N 	0.90822	0.3101	0.90852	-0.229
Mof_N 	N 	0.8438	0.3275	0.9267	-0.257
Mof_N 	N 	0.8265	0.4015	0.0072	-0.189
Mof_N 	N 	0.8845	0.4296	0.0461	-0.08
Mof_N 	N 	0.7711	0.7108	0.6361	-0.252
Mof_N 	N 	0.8431	0.7833	0.7234	-0.25
Mof_N 	N 	0.59178	0.5003	0.40188	-0.229
Mof_N 	N 	0.6562	0.5829	0.4837	-0.257
Mof_N 	N 	0.6735	0.6807	0.575	-0.189
Mof_N 	N 	0.6155	0.6616	0.5451	-0.08
Mof_N 	N 	0.5747	0.135	0.8639	-0.252
Mof_N 	N 	0.5599	0.1197	0.7766	-0.25
Mof_N 	N 	0.59842	0.1899	0.09812	-0.229
Mof_N 	N 	0.5992	0.1725	0.0163	-0.257
Mof_N 	N 	0.6057	0.0985	0.925	-0.19
Mof_N 	N 	0.6165	0.0704	0.9549	-0.081
Mof_N 	N 	0.9253	0.7892	0.5603	-0.252
Mof_N 	N 	0.9401	0.7167	0.5598	-0.25
Mof_N 	N 	0.90158	0.9997	0.59148	-0.228
Mof_N 	N 	0.9008	0.9171	0.5733	-0.257
Mof_N 	N 	0.8943	0.8193	0.4928	-0.189
Mof_N 	N 	0.8835	0.8384	0.4539	-0.08
_end
