data_functionalizedCrystal
_audit_creation_method	'EQeq! by Chris Wilmer'
_symmetry_space_group_name_H-M	'P1'
_symmetry_Int_Tables_number	1
_symmetry_cell_setting	triclinic
loop_
_symmetry_equiv_pos_as_xyz
  x,y,z
_cell_length_a	9.987
_cell_length_b	13.172
_cell_length_c	14.29
_cell_angle_alpha	90
_cell_angle_beta	90
_cell_angle_gamma	90
loop_
_atom_site_label
_atom_site_type_symbol
_atom_site_fract_x
_atom_site_fract_y
_atom_site_fract_z
_atom_site_charge
Mof_Tb	Tb	0.00089	0.84388	0.69639	2.166
Mof_O 	O 	0.2291	0.9719	0.689	-0.348
Mof_O 	O 	0.0673	0.9933	0.7925	-0.42
Mof_O 	O 	0.3453	0.2886	0.0848	-0.576
Mof_O 	O 	0.1554	0.2035	0.0777	-0.55
Mof_O 	O 	0.8471	0.8041	0.8157	-0.53
Mof_O 	O 	0.6592	0.7149	0.805	-0.552
Mof_O 	O 	0.5299	0.4936	0.0858	-0.393
Mof_O 	O 	0.6823	0.4808	0.1963	-0.393
Mof_C 	C 	0.2649	0.0924	0.8114	-0.151
Mof_C 	C 	0.2267	0.1247	0.901	0.113
Mof_H 	H 	0.1477	0.101	0.9276	0.016
Mof_C 	C 	0.307	0.192	0.9495	-0.222
Mof_C 	C 	0.4233	0.2269	0.9099	0.133
Mof_H 	H 	0.4779	0.2712	0.9433	-0.001
Mof_C 	C 	0.4596	0.1972	0.8217	-0.175
Mof_H 	H 	0.5378	0.2223	0.795	0.096
Mof_C 	C 	0.3805	0.1303	0.7721	0.087
Mof_H 	H 	0.4052	0.1107	0.712	0.013
Mof_C 	C 	0.1818	0.0148	0.7606	0.346
Mof_C 	C 	0.2664	0.2295	0.047	0.563
Mof_C 	C 	0.7717	0.7187	0.9505	-0.184
Mof_C 	C 	0.6956	0.6394	0.9899	0.103
Mof_H 	H 	0.6341	0.6046	0.953	0.015
Mof_C 	C 	0.7115	0.6127	0.0825	-0.135
Mof_C 	C 	0.7972	0.6676	0.1382	0.05
Mof_H 	H 	0.8059	0.6503	0.201	0.026
Mof_C 	C 	0.8713	0.7485	0.103	-0.116
Mof_H 	H 	0.9291	0.7849	0.1414	0.078
Mof_C 	C 	0.8571	0.7735	0.0096	0.042
Mof_H 	H 	0.9053	0.8279	0.9854	0.046
Mof_C 	C 	0.7572	0.7477	0.8521	0.517
Mof_C 	C 	0.6369	0.5235	0.125	0.329
Mof_Tb	Tb	0.99911	0.15612	0.19639	2.158
Mof_O 	O 	0.7709	0.0281	0.189	-0.35
Mof_O 	O 	0.9327	0.0067	0.2925	-0.42
Mof_O 	O 	0.6547	0.7114	0.5848	-0.576
Mof_O 	O 	0.8446	0.7965	0.5777	-0.551
Mof_O 	O 	0.1529	0.1959	0.3157	-0.534
Mof_O 	O 	0.3408	0.2851	0.305	-0.555
Mof_O 	O 	0.4701	0.5064	0.5858	-0.39
Mof_O 	O 	0.3177	0.5192	0.6963	-0.393
Mof_C 	C 	0.7351	0.9076	0.3114	-0.153
Mof_C 	C 	0.7733	0.8753	0.401	0.116
Mof_H 	H 	0.8523	0.899	0.4276	0.016
Mof_C 	C 	0.693	0.808	0.4495	-0.226
Mof_C 	C 	0.5767	0.7731	0.4099	0.136
Mof_H 	H 	0.5221	0.7288	0.4433	-0.004
Mof_C 	C 	0.5404	0.8028	0.3217	-0.179
Mof_H 	H 	0.4622	0.7777	0.295	0.097
Mof_C 	C 	0.6195	0.8697	0.2721	0.089
Mof_H 	H 	0.5948	0.8893	0.212	0.012
Mof_C 	C 	0.8182	0.9852	0.2606	0.348
Mof_C 	C 	0.7336	0.7705	0.547	0.567
Mof_C 	C 	0.2283	0.2813	0.4505	-0.223
Mof_C 	C 	0.3044	0.3606	0.4899	0.109
Mof_H 	H 	0.3659	0.3954	0.453	0.011
Mof_C 	C 	0.2885	0.3873	0.5825	-0.138
Mof_C 	C 	0.2028	0.3324	0.6382	0.074
Mof_H 	H 	0.1941	0.3497	0.701	0.018
Mof_C 	C 	0.1287	0.2515	0.603	-0.158
Mof_H 	H 	0.0709	0.2151	0.6414	0.095
Mof_C 	C 	0.1429	0.2265	0.5096	0.116
Mof_H 	H 	0.0947	0.1721	0.4854	0.011
Mof_C 	C 	0.2428	0.2523	0.3521	0.529
Mof_C 	C 	0.3631	0.4765	0.625	0.332
Mof_Tb	Tb	0.50089	0.65612	0.69639	2.185
Mof_O 	O 	0.7291	0.5281	0.689	-0.341
Mof_O 	O 	0.5673	0.5067	0.7925	-0.412
Mof_O 	O 	0.8453	0.2114	0.0848	-0.575
Mof_O 	O 	0.6554	0.2965	0.0777	-0.555
Mof_O 	O 	0.3471	0.6959	0.8157	-0.538
Mof_O 	O 	0.1592	0.7851	0.805	-0.553
Mof_O 	O 	0.0299	0.0064	0.0858	-0.373
Mof_O 	O 	0.1823	0.0192	0.1963	-0.378
Mof_C 	C 	0.7649	0.4076	0.8114	-0.141
Mof_C 	C 	0.7267	0.3753	0.901	0.103
Mof_H 	H 	0.6477	0.399	0.9276	0.02
Mof_C 	C 	0.807	0.308	0.9495	-0.208
Mof_C 	C 	0.9233	0.2731	0.9099	0.122
Mof_H 	H 	0.9779	0.2288	0.9433	0.003
Mof_C 	C 	0.9596	0.3028	0.8217	-0.163
Mof_H 	H 	0.0378	0.2777	0.795	0.092
Mof_C 	C 	0.8805	0.3697	0.7721	0.077
Mof_H 	H 	0.9052	0.3893	0.712	0.017
Mof_C 	C 	0.6818	0.4852	0.7606	0.334
Mof_C 	C 	0.7664	0.2705	0.047	0.553
Mof_C 	C 	0.2717	0.7813	0.9505	-0.203
Mof_C 	C 	0.1956	0.8606	0.9899	0.102
Mof_H 	H 	0.1341	0.8954	0.953	0.012
Mof_C 	C 	0.2115	0.8873	0.0825	-0.13
Mof_C 	C 	0.2972	0.8324	0.1382	0.056
Mof_H 	H 	0.3059	0.8497	0.201	0.023
Mof_C 	C 	0.3713	0.7515	0.103	-0.134
Mof_H 	H 	0.4291	0.7151	0.1414	0.084
Mof_C 	C 	0.3571	0.7265	0.0096	0.077
Mof_H 	H 	0.4053	0.6721	0.9854	0.027
Mof_C 	C 	0.2572	0.7523	0.8521	0.523
Mof_C 	C 	0.1369	0.9765	0.125	0.306
Mof_Tb	Tb	0.49911	0.34388	0.19639	2.184
Mof_O 	O 	0.2709	0.4719	0.189	-0.342
Mof_O 	O 	0.4327	0.4933	0.2925	-0.412
Mof_O 	O 	0.1547	0.7886	0.5848	-0.575
Mof_O 	O 	0.3446	0.7035	0.5777	-0.556
Mof_O 	O 	0.6529	0.3041	0.3157	-0.54
Mof_O 	O 	0.8408	0.2149	0.305	-0.554
Mof_O 	O 	0.9701	0.9936	0.5858	-0.375
Mof_O 	O 	0.8177	0.9808	0.6963	-0.379
Mof_C 	C 	0.2351	0.5924	0.3114	-0.15
Mof_C 	C 	0.2733	0.6247	0.401	0.114
Mof_H 	H 	0.3523	0.601	0.4276	0.015
Mof_C 	C 	0.193	0.692	0.4495	-0.227
Mof_C 	C 	0.0767	0.7269	0.4099	0.137
Mof_H 	H 	0.0221	0.7712	0.4433	-0.005
Mof_C 	C 	0.0404	0.6972	0.3217	-0.179
Mof_H 	H 	0.9622	0.7223	0.295	0.099
Mof_C 	C 	0.1195	0.6303	0.2721	0.088
Mof_H 	H 	0.0948	0.6107	0.212	0.014
Mof_C 	C 	0.3182	0.5148	0.2606	0.337
Mof_C 	C 	0.2336	0.7295	0.547	0.568
Mof_C 	C 	0.7283	0.2187	0.4505	-0.222
Mof_C 	C 	0.8044	0.1394	0.4899	0.104
Mof_H 	H 	0.8659	0.1046	0.453	0.011
Mof_C 	C 	0.7885	0.1127	0.5825	-0.131
Mof_C 	C 	0.7028	0.1676	0.6382	0.068
Mof_H 	H 	0.6941	0.1503	0.701	0.019
Mof_C 	C 	0.6287	0.2485	0.603	-0.154
Mof_H 	H 	0.5709	0.2849	0.6414	0.092
Mof_C 	C 	0.6429	0.2735	0.5096	0.113
Mof_H 	H 	0.5947	0.3279	0.4854	0.01
Mof_C 	C 	0.7428	0.2477	0.3521	0.529
Mof_C 	C 	0.8631	0.0235	0.625	0.31
_end
