data_functionalizedCrystal
_audit_creation_method	'EQeq! by Chris Wilmer'
_symmetry_space_group_name_H-M	'P1'
_symmetry_Int_Tables_number	1
_symmetry_cell_setting	triclinic
loop_
_symmetry_equiv_pos_as_xyz
  x,y,z
_cell_length_a	13.1941
_cell_length_b	14.9897
_cell_length_c	27.8746
_cell_angle_alpha	90
_cell_angle_beta	90
_cell_angle_gamma	90
loop_
_atom_site_label
_atom_site_type_symbol
_atom_site_fract_x
_atom_site_fract_y
_atom_site_fract_z
_atom_site_charge
Mof_Na	Na	0.49374	0.67064	0.31167	3.319
Mof_Na	Na	0.00737	0.66425	0.32647	3.228
Mof_C 	C 	0.5395	0.9403	0.43666	0.114
Mof_H 	H 	0.5588	0.9967	0.451	0.001
Mof_H 	H 	0.4938	0.9105	0.4587	0.001
Mof_C 	C 	0.4826	0.9592	0.39012	-0.07
Mof_C 	C 	0.4489	0.8721	0.36642	0.272
Mof_H 	H 	0.4013	0.8423	0.3876	-0.098
Mof_H 	H 	0.4132	0.8864	0.337	-0.103
Mof_C 	C 	0.5479	0.0143	0.3558	0.142
Mof_H 	H 	0.5088	0.0264	0.3271	-0.03
Mof_H 	H 	0.5628	0.0712	0.3709	-0.01
Mof_C 	C 	0.3876	0.0116	0.4013	-0.399
Mof_H 	H 	0.4054	0.0653	0.4182	0.138
Mof_H 	H 	0.3435	0.9762	0.421	0.131
Mof_H 	H 	0.3536	0.0267	0.372	0.137
Mof_C 	C 	0.6339	0.5744	0.39616	0.311
Mof_H 	H 	0.6346	0.5255	0.3734	-0.126
Mof_H 	H 	0.5734	0.5684	0.4157	-0.118
Mof_C 	C 	0.7261	0.5672	0.4281	-0.15
Mof_C 	C 	0.8241	0.5692	0.40007	0.319
Mof_H 	H 	0.88	0.5625	0.4224	-0.105
Mof_H 	H 	0.8253	0.5182	0.3787	-0.118
Mof_C 	C 	0.7228	0.6416	0.46695	0.169
Mof_H 	H 	0.662	0.6336	0.4861	-0.031
Mof_H 	H 	0.7805	0.6341	0.4881	-0.034
Mof_C 	C 	0.7217	0.4757	0.4542	-0.324
Mof_H 	H 	0.6573	0.4693	0.4698	0.113
Mof_H 	H 	0.7749	0.4726	0.4776	0.113
Mof_H 	H 	0.7302	0.4286	0.4312	0.12
Mof_C 	C 	0.9502	0.012	0.35784	0.067
Mof_C 	C 	0.004	0.9566	0.39579	0.02
Mof_C 	C 	0.0422	0.8679	0.37619	0.059
Mof_C 	C 	0.9373	0.948	0.4418	0.076
Mof_C 	C 	0.0991	0.0097	0.4109	-0.489
Mof_H 	H 	0.1351	0.9773	0.4352	0.157
Mof_H 	H 	0.079	0.0668	0.4233	0.163
Mof_H 	H 	0.1423	0.0181	0.3836	0.159
Mof_C 	C 	0.764	0.864	0.21626	0.197
Mof_H 	H 	0.8231	0.8892	0.2007	-0.047
Mof_H 	H 	0.7045	0.8881	0.2004	-0.044
Mof_C 	C 	0.7653	0.7632	0.2089	-0.158
Mof_C 	C 	0.8583	0.7217	0.23228	0.31
Mof_H 	H 	0.8579	0.658	0.226	-0.118
Mof_H 	H 	0.9185	0.7464	0.2174	-0.12
Mof_C 	C 	0.6674	0.7228	0.22742	0.312
Mof_H 	H 	0.6111	0.7517	0.2113	-0.101
Mof_H 	H 	0.666	0.6602	0.2186	-0.109
Mof_C 	C 	0.7705	0.7425	0.15514	-0.297
Mof_H 	H 	0.8261	0.7745	0.141	0.104
Mof_H 	H 	0.7084	0.7603	0.14	0.106
Mof_H 	H 	0.7805	0.6796	0.1506	0.102
Mof_O 	O 	0.0712	0.6074	0.39854	-0.418
Mof_H 	H 	0.094	0.6415	0.3782	-0.246
Mof_C 	C 	0.1357	0.5306	0.4024	0.201
Mof_H 	H 	0.1301	0.4959	0.3731	-0.092
Mof_H 	H 	0.112	0.4937	0.4287	-0.026
Mof_C 	C 	0.2463	0.5536	0.41071	-0.202
Mof_C 	C 	0.3092	0.4689	0.4093	-0.21
Mof_H 	H 	0.2873	0.4294	0.4344	0.092
Mof_H 	H 	0.3794	0.4835	0.414	0.072
Mof_H 	H 	0.3007	0.4402	0.3788	0.074
Mof_C 	C 	0.2798	0.6166	0.37186	0.568
Mof_H 	H 	0.2659	0.5894	0.341	-0.214
Mof_H 	H 	0.2398	0.6707	0.374	-0.184
Mof_O 	O 	0.3833	0.6396	0.37373	-1.088
Mof_H 	H 	0.3993	0.6505	0.4015	0.441
Mof_C 	C 	0.2583	0.5958	0.46046	0.224
Mof_H 	H 	0.2323	0.5551	0.4846	-0.017
Mof_H 	H 	0.3297	0.6055	0.4669	-0.052
Mof_O 	O 	0.4156	0.6817	0.23805	-0.982
Mof_H 	H 	0.383	0.6355	0.2411	0.335
Mof_C 	C 	0.3601	0.7431	0.20905	0.526
Mof_H 	H 	0.3731	0.73	0.1755	-0.118
Mof_H 	H 	0.3843	0.803	0.2154	-0.149
Mof_C 	C 	0.2467	0.7401	0.21779	-0.372
Mof_C 	C 	0.206	0.6484	0.20738	0.373
Mof_H 	H 	0.1328	0.649	0.2103	-0.115
Mof_H 	H 	0.2228	0.632	0.1747	-0.084
Mof_O 	O 	0.1218	0.7532	0.2835	-1.006
Mof_H 	H 	0.0892	0.7958	0.2733	0.376
Mof_C 	C 	0.2267	0.7638	0.27084	0.617
Mof_H 	H 	0.2678	0.7258	0.2912	-0.25
Mof_H 	H 	0.2469	0.8252	0.2766	-0.184
Mof_O 	O 	0.2069	0.6768	0.46371	-0.406
Mof_H 	H 	0.234	0.7082	0.4841	0.251
Mof_O 	O 	0.2464	0.5843	0.23908	-0.533
Mof_H 	H 	0.2684	0.542	0.2237	0.271
Mof_C 	C 	0.1967	0.8082	0.1838	-0.072
Mof_H 	H 	0.2202	0.8671	0.1915	0.045
Mof_H 	H 	0.1244	0.8057	0.1874	0.032
Mof_H 	H 	0.2143	0.7943	0.1512	0.05
Mof_N 	N 	0.7455	0.5524	0.29384	-0.23
Mof_N 	N 	0.747	0.5242	0.25434	-0.059
Mof_N 	N 	0.7481	0.4944	0.21608	-0.103
Mof_N 	N 	0.9985	0.5281	0.2843	-0.412
Mof_N 	N 	0.0067	0.3972	0.23951	-0.218
Mof_N 	N 	0.0026	0.4641	0.26236	-0.003
Mof_N 	N 	0.4647	0.3888	0.24011	-0.236
Mof_N 	N 	0.4695	0.4544	0.26452	-0.01
Mof_N 	N 	0.4825	0.5159	0.2881	-0.384
Mof_N 	N 	0.9931	0.7767	0.54703	-0.189
Mof_N 	N 	0.976	0.7527	0.50755	-0.036
Mof_N 	N 	0.9596	0.7275	0.46808	-0.163
Mof_O 	O 	0.2619	0.3159	0.14584	-0.641
Mof_O 	O 	0.6285	0.8866	0.43124	-0.45
Mof_O 	O 	0.53	0.8109	0.35528	-0.806
Mof_O 	O 	0.6415	0.9734	0.34206	-0.481
Mof_O 	O 	0.6289	0.6579	0.37013	-0.834
Mof_O 	O 	0.8407	0.6476	0.37249	-0.756
Mof_O 	O 	0.7237	0.7304	0.44885	-0.458
Mof_O 	O 	0.8586	0.9689	0.3407	-0.45
Mof_O 	O 	0.96	0.8119	0.35846	-0.748
Mof_O 	O 	0.8437	0.8993	0.43278	-0.442
Mof_O 	O 	0.7631	0.8925	0.26536	-0.471
Mof_O 	O 	0.8646	0.7355	0.28358	-0.805
Mof_O 	O 	0.6513	0.7295	0.2786	-0.82
Mof_Mn	Mn	0.36068	0.35716	0.19358	0.95
Mof_Mn	Mn	0.12565	0.35683	0.1924	1.022
Mof_Mn	Mn	0.74682	0.67626	0.32195	0.889
Mof_Mn	Mn	0.85877	0.76663	0.4123	0.821
Mof_Mn	Mn	0.61772	0.76826	0.40577	1.055
Mof_Mn	Mn	0.7436	0.94881	0.39095	1.029
Mof_N 	N 	0.7435	0.07	0.4215	-0.179
Mof_N 	N 	0.7197	0.1307	0.4235	-0.009
Mof_N 	N 	0.6855	0.2104	0.4194	-0.084
Mof_N 	N 	0.7359	0.0987	0.4476	0.02
Mof_N 	N 	0.7157	0.1304	0.4882	-0.093
Mof_Na	Na	0.00626	0.32936	0.81167	3.321
Mof_Na	Na	0.49263	0.33575	0.82647	3.225
Mof_C 	C 	0.9605	0.0597	0.93666	0.111
Mof_H 	H 	0.9412	0.0033	0.951	-0
Mof_H 	H 	0.0062	0.0895	0.9587	0.001
Mof_C 	C 	0.0174	0.0408	0.89012	-0.066
Mof_C 	C 	0.0511	0.1279	0.86642	0.27
Mof_H 	H 	0.0987	0.1577	0.8876	-0.098
Mof_H 	H 	0.0868	0.1136	0.837	-0.102
Mof_C 	C 	0.9521	0.9857	0.8558	0.143
Mof_H 	H 	0.9912	0.9736	0.8271	-0.029
Mof_H 	H 	0.9372	0.9288	0.8709	-0.009
Mof_C 	C 	0.1124	0.9884	0.9013	-0.41
Mof_H 	H 	0.0946	0.9347	0.9182	0.141
Mof_H 	H 	0.1565	0.0238	0.921	0.135
Mof_H 	H 	0.1464	0.9733	0.872	0.139
Mof_C 	C 	0.8661	0.4256	0.89616	0.311
Mof_H 	H 	0.8654	0.4745	0.8734	-0.126
Mof_H 	H 	0.9266	0.4316	0.9157	-0.117
Mof_C 	C 	0.7739	0.4328	0.9281	-0.15
Mof_C 	C 	0.6759	0.4308	0.90007	0.319
Mof_H 	H 	0.62	0.4375	0.9224	-0.106
Mof_H 	H 	0.6747	0.4818	0.8787	-0.118
Mof_C 	C 	0.7772	0.3584	0.96695	0.168
Mof_H 	H 	0.838	0.3664	0.9861	-0.03
Mof_H 	H 	0.7195	0.3659	0.9881	-0.033
Mof_C 	C 	0.7783	0.5243	0.9542	-0.325
Mof_H 	H 	0.8427	0.5307	0.9698	0.114
Mof_H 	H 	0.7251	0.5274	0.9776	0.113
Mof_H 	H 	0.7698	0.5714	0.9312	0.12
Mof_C 	C 	0.5498	0.988	0.85784	0.068
Mof_C 	C 	0.496	0.0434	0.89579	0.024
Mof_C 	C 	0.4578	0.1321	0.87619	0.059
Mof_C 	C 	0.5627	0.052	0.9418	0.072
Mof_C 	C 	0.4009	0.9903	0.9109	-0.5
Mof_H 	H 	0.3649	0.0227	0.9352	0.161
Mof_H 	H 	0.421	0.9332	0.9233	0.165
Mof_H 	H 	0.3577	0.9819	0.8836	0.162
Mof_C 	C 	0.736	0.136	0.71626	0.198
Mof_H 	H 	0.6769	0.1108	0.7007	-0.048
Mof_H 	H 	0.7955	0.1119	0.7004	-0.044
Mof_C 	C 	0.7347	0.2368	0.7089	-0.158
Mof_C 	C 	0.6417	0.2783	0.73228	0.31
Mof_H 	H 	0.6421	0.342	0.726	-0.118
Mof_H 	H 	0.5815	0.2536	0.7174	-0.12
Mof_C 	C 	0.8326	0.2772	0.72742	0.312
Mof_H 	H 	0.8889	0.2483	0.7113	-0.101
Mof_H 	H 	0.834	0.3398	0.7186	-0.109
Mof_C 	C 	0.7295	0.2575	0.65514	-0.297
Mof_H 	H 	0.6739	0.2255	0.641	0.104
Mof_H 	H 	0.7916	0.2397	0.64	0.106
Mof_H 	H 	0.7195	0.3204	0.6506	0.102
Mof_O 	O 	0.4288	0.3926	0.89854	-0.418
Mof_H 	H 	0.406	0.3585	0.8782	-0.245
Mof_C 	C 	0.3643	0.4694	0.9024	0.202
Mof_H 	H 	0.3699	0.5041	0.8731	-0.092
Mof_H 	H 	0.388	0.5063	0.9287	-0.027
Mof_C 	C 	0.2537	0.4464	0.91071	-0.203
Mof_C 	C 	0.1908	0.5311	0.9093	-0.209
Mof_H 	H 	0.2127	0.5706	0.9344	0.091
Mof_H 	H 	0.1206	0.5165	0.914	0.071
Mof_H 	H 	0.1993	0.5598	0.8788	0.074
Mof_C 	C 	0.2202	0.3834	0.87186	0.569
Mof_H 	H 	0.2341	0.4106	0.841	-0.214
Mof_H 	H 	0.2602	0.3293	0.874	-0.184
Mof_O 	O 	0.1167	0.3604	0.87373	-1.088
Mof_H 	H 	0.1007	0.3495	0.9015	0.442
Mof_C 	C 	0.2417	0.4042	0.96046	0.224
Mof_H 	H 	0.2677	0.4449	0.9846	-0.018
Mof_H 	H 	0.1703	0.3945	0.9669	-0.053
Mof_O 	O 	0.0844	0.3183	0.73805	-0.982
Mof_H 	H 	0.117	0.3645	0.7411	0.335
Mof_C 	C 	0.1399	0.2569	0.70905	0.525
Mof_H 	H 	0.1269	0.27	0.6755	-0.117
Mof_H 	H 	0.1157	0.197	0.7154	-0.149
Mof_C 	C 	0.2533	0.2599	0.71779	-0.371
Mof_C 	C 	0.294	0.3516	0.70738	0.373
Mof_H 	H 	0.3672	0.351	0.7103	-0.115
Mof_H 	H 	0.2772	0.368	0.6747	-0.084
Mof_O 	O 	0.3782	0.2468	0.7835	-1.006
Mof_H 	H 	0.4108	0.2042	0.7733	0.376
Mof_C 	C 	0.2733	0.2362	0.77084	0.616
Mof_H 	H 	0.2322	0.2742	0.7912	-0.25
Mof_H 	H 	0.2531	0.1748	0.7766	-0.184
Mof_O 	O 	0.2931	0.3232	0.96371	-0.406
Mof_H 	H 	0.266	0.2918	0.9841	0.251
Mof_O 	O 	0.2536	0.4157	0.73908	-0.533
Mof_H 	H 	0.2316	0.458	0.7237	0.271
Mof_C 	C 	0.3033	0.1918	0.6838	-0.073
Mof_H 	H 	0.2798	0.1329	0.6915	0.046
Mof_H 	H 	0.3756	0.1943	0.6874	0.032
Mof_H 	H 	0.2857	0.2057	0.6512	0.05
Mof_N 	N 	0.7545	0.4476	0.79384	-0.23
Mof_N 	N 	0.753	0.4758	0.75434	-0.058
Mof_N 	N 	0.7519	0.5056	0.71608	-0.103
Mof_N 	N 	0.5015	0.4719	0.7843	-0.412
Mof_N 	N 	0.4933	0.6028	0.73951	-0.219
Mof_N 	N 	0.4974	0.5359	0.76236	-0.003
Mof_N 	N 	0.0353	0.6112	0.74011	-0.236
Mof_N 	N 	0.0305	0.5456	0.76452	-0.009
Mof_N 	N 	0.0175	0.4841	0.7881	-0.384
Mof_N 	N 	0.5069	0.2233	0.04703	-0.19
Mof_N 	N 	0.524	0.2473	0.00755	-0.037
Mof_N 	N 	0.5404	0.2725	0.96808	-0.164
Mof_O 	O 	0.2381	0.6841	0.64584	-0.641
Mof_O 	O 	0.8715	0.1134	0.93124	-0.45
Mof_O 	O 	0.97	0.1891	0.85528	-0.806
Mof_O 	O 	0.8585	0.0266	0.84206	-0.482
Mof_O 	O 	0.8711	0.3421	0.87013	-0.834
Mof_O 	O 	0.6593	0.3524	0.87249	-0.756
Mof_O 	O 	0.7763	0.2696	0.94885	-0.457
Mof_O 	O 	0.6414	0.0311	0.8407	-0.451
Mof_O 	O 	0.54	0.1881	0.85846	-0.749
Mof_O 	O 	0.6563	0.1007	0.93278	-0.441
Mof_O 	O 	0.7369	0.1075	0.76536	-0.471
Mof_O 	O 	0.6354	0.2645	0.78358	-0.805
Mof_O 	O 	0.8487	0.2705	0.7786	-0.82
Mof_Mn	Mn	0.13932	0.64284	0.69358	0.95
Mof_Mn	Mn	0.37435	0.64317	0.6924	1.022
Mof_Mn	Mn	0.75318	0.32374	0.82195	0.889
Mof_Mn	Mn	0.64123	0.23337	0.9123	0.82
Mof_Mn	Mn	0.88228	0.23174	0.90577	1.055
Mof_Mn	Mn	0.7564	0.05119	0.89095	1.028
Mof_N 	N 	0.7565	0.93	0.9215	-0.178
Mof_N 	N 	0.7803	0.8693	0.9235	-0.009
Mof_N 	N 	0.8145	0.7896	0.9194	-0.084
Mof_N 	N 	0.7641	0.9013	0.9476	0.02
Mof_N 	N 	0.7843	0.8696	0.9882	-0.092
Mof_Na	Na	0.50626	0.17064	0.18833	3.317
Mof_Na	Na	0.99263	0.16425	0.17353	3.222
Mof_C 	C 	0.4605	0.4403	0.06334	0.112
Mof_H 	H 	0.4412	0.4967	0.049	0
Mof_H 	H 	0.5062	0.4105	0.0413	-0
Mof_C 	C 	0.5174	0.4592	0.10988	-0.069
Mof_C 	C 	0.5511	0.3721	0.13358	0.271
Mof_H 	H 	0.5987	0.3423	0.1124	-0.098
Mof_H 	H 	0.5868	0.3864	0.163	-0.103
Mof_C 	C 	0.4521	0.5143	0.1442	0.143
Mof_H 	H 	0.4912	0.5264	0.1729	-0.03
Mof_H 	H 	0.4372	0.5712	0.1291	-0.01
Mof_C 	C 	0.6124	0.5116	0.0987	-0.401
Mof_H 	H 	0.5946	0.5653	0.0818	0.138
Mof_H 	H 	0.6565	0.4762	0.079	0.132
Mof_H 	H 	0.6464	0.5267	0.128	0.137
Mof_C 	C 	0.3661	0.0744	0.10384	0.311
Mof_H 	H 	0.3654	0.0255	0.1266	-0.127
Mof_H 	H 	0.4266	0.0684	0.0843	-0.118
Mof_C 	C 	0.2739	0.0672	0.0719	-0.15
Mof_C 	C 	0.1759	0.0692	0.09993	0.318
Mof_H 	H 	0.12	0.0625	0.0776	-0.105
Mof_H 	H 	0.1747	0.0182	0.1213	-0.118
Mof_C 	C 	0.2772	0.1416	0.03305	0.168
Mof_H 	H 	0.338	0.1336	0.0139	-0.03
Mof_H 	H 	0.2195	0.1341	0.0119	-0.033
Mof_C 	C 	0.2783	0.9757	0.0458	-0.326
Mof_H 	H 	0.3427	0.9693	0.0302	0.113
Mof_H 	H 	0.2251	0.9726	0.0224	0.113
Mof_H 	H 	0.2698	0.9286	0.0688	0.12
Mof_C 	C 	0.0498	0.512	0.14216	0.069
Mof_C 	C 	0.996	0.4566	0.10421	0.023
Mof_C 	C 	0.9578	0.3679	0.12381	0.058
Mof_C 	C 	0.0627	0.448	0.0582	0.074
Mof_C 	C 	0.9009	0.5097	0.0891	-0.498
Mof_H 	H 	0.8649	0.4773	0.0648	0.161
Mof_H 	H 	0.921	0.5668	0.0767	0.165
Mof_H 	H 	0.8577	0.5181	0.1164	0.162
Mof_C 	C 	0.236	0.364	0.28374	0.197
Mof_H 	H 	0.1769	0.3892	0.2993	-0.047
Mof_H 	H 	0.2955	0.3881	0.2996	-0.044
Mof_C 	C 	0.2347	0.2632	0.2911	-0.157
Mof_C 	C 	0.1417	0.2217	0.26772	0.309
Mof_H 	H 	0.1421	0.158	0.274	-0.117
Mof_H 	H 	0.0815	0.2464	0.2826	-0.119
Mof_C 	C 	0.3326	0.2228	0.27258	0.312
Mof_H 	H 	0.3889	0.2517	0.2887	-0.101
Mof_H 	H 	0.334	0.1602	0.2814	-0.109
Mof_C 	C 	0.2295	0.2425	0.34486	-0.298
Mof_H 	H 	0.1739	0.2745	0.359	0.105
Mof_H 	H 	0.2916	0.2603	0.36	0.106
Mof_H 	H 	0.2195	0.1796	0.3494	0.103
Mof_O 	O 	0.9288	0.1074	0.10146	-0.417
Mof_H 	H 	0.906	0.1415	0.1218	-0.245
Mof_C 	C 	0.8643	0.0306	0.0976	0.195
Mof_H 	H 	0.8699	0.9959	0.1269	-0.09
Mof_H 	H 	0.888	0.9937	0.0713	-0.024
Mof_C 	C 	0.7537	0.0536	0.08929	-0.201
Mof_C 	C 	0.6908	0.9689	0.0907	-0.21
Mof_H 	H 	0.7127	0.9294	0.0656	0.092
Mof_H 	H 	0.6206	0.9835	0.086	0.071
Mof_H 	H 	0.6993	0.9402	0.1212	0.074
Mof_C 	C 	0.7202	0.1166	0.12814	0.568
Mof_H 	H 	0.7341	0.0894	0.159	-0.214
Mof_H 	H 	0.7602	0.1707	0.126	-0.184
Mof_O 	O 	0.6167	0.1396	0.12627	-1.088
Mof_H 	H 	0.6007	0.1505	0.0985	0.441
Mof_C 	C 	0.7417	0.0958	0.03954	0.224
Mof_H 	H 	0.7677	0.0551	0.0154	-0.018
Mof_H 	H 	0.6703	0.1055	0.0331	-0.052
Mof_O 	O 	0.5844	0.1817	0.26195	-0.982
Mof_H 	H 	0.617	0.1355	0.2589	0.335
Mof_C 	C 	0.6399	0.2431	0.29095	0.525
Mof_H 	H 	0.6269	0.23	0.3245	-0.118
Mof_H 	H 	0.6157	0.303	0.2846	-0.149
Mof_C 	C 	0.7533	0.2401	0.28221	-0.371
Mof_C 	C 	0.794	0.1484	0.29262	0.373
Mof_H 	H 	0.8672	0.149	0.2897	-0.115
Mof_H 	H 	0.7772	0.132	0.3253	-0.085
Mof_O 	O 	0.8782	0.2532	0.2165	-1.005
Mof_H 	H 	0.9108	0.2958	0.2267	0.376
Mof_C 	C 	0.7733	0.2638	0.22916	0.616
Mof_H 	H 	0.7322	0.2258	0.2088	-0.249
Mof_H 	H 	0.7531	0.3252	0.2234	-0.184
Mof_O 	O 	0.7931	0.1768	0.03629	-0.406
Mof_H 	H 	0.766	0.2082	0.0159	0.251
Mof_O 	O 	0.7536	0.0843	0.26092	-0.533
Mof_H 	H 	0.7316	0.042	0.2763	0.27
Mof_C 	C 	0.8033	0.3082	0.3162	-0.073
Mof_H 	H 	0.7798	0.3671	0.3085	0.046
Mof_H 	H 	0.8756	0.3057	0.3126	0.032
Mof_H 	H 	0.7857	0.2943	0.3488	0.05
Mof_N 	N 	0.2545	0.0524	0.20616	-0.23
Mof_N 	N 	0.253	0.0242	0.24566	-0.058
Mof_N 	N 	0.2519	0.9944	0.28392	-0.104
Mof_N 	N 	0.0015	0.0281	0.2157	-0.411
Mof_N 	N 	0.9933	0.8972	0.26049	-0.218
Mof_N 	N 	0.9974	0.9641	0.23764	-0.003
Mof_N 	N 	0.5353	0.8888	0.25989	-0.236
Mof_N 	N 	0.5305	0.9544	0.23548	-0.01
Mof_N 	N 	0.5175	0.0159	0.2119	-0.385
Mof_N 	N 	0.0069	0.2767	0.95297	-0.19
Mof_N 	N 	0.024	0.2527	0.99245	-0.037
Mof_N 	N 	0.0404	0.2275	0.03192	-0.162
Mof_O 	O 	0.7381	0.8159	0.35416	-0.641
Mof_O 	O 	0.3715	0.3866	0.06876	-0.45
Mof_O 	O 	0.47	0.3109	0.14472	-0.806
Mof_O 	O 	0.3585	0.4734	0.15794	-0.481
Mof_O 	O 	0.3711	0.1579	0.12987	-0.834
Mof_O 	O 	0.1593	0.1476	0.12751	-0.755
Mof_O 	O 	0.2763	0.2304	0.05115	-0.457
Mof_O 	O 	0.1414	0.4689	0.1593	-0.451
Mof_O 	O 	0.04	0.3119	0.14154	-0.748
Mof_O 	O 	0.1563	0.3993	0.06722	-0.441
Mof_O 	O 	0.2369	0.3925	0.23464	-0.471
Mof_O 	O 	0.1354	0.2355	0.21642	-0.805
Mof_O 	O 	0.3487	0.2295	0.2214	-0.82
Mof_Mn	Mn	0.63932	0.85716	0.30642	0.95
Mof_Mn	Mn	0.87435	0.85683	0.3076	1.022
Mof_Mn	Mn	0.25318	0.17626	0.17805	0.889
Mof_Mn	Mn	0.14123	0.26663	0.0877	0.821
Mof_Mn	Mn	0.38228	0.26826	0.09423	1.054
Mof_Mn	Mn	0.2564	0.44881	0.10905	1.029
Mof_N 	N 	0.2565	0.57	0.0785	-0.179
Mof_N 	N 	0.2803	0.6307	0.0765	-0.009
Mof_N 	N 	0.3145	0.7104	0.0806	-0.085
Mof_N 	N 	0.2641	0.5987	0.0524	0.02
Mof_N 	N 	0.2843	0.6304	0.0118	-0.092
Mof_Na	Na	0.99374	0.82936	0.68833	3.33
Mof_Na	Na	0.50737	0.83575	0.67353	3.226
Mof_C 	C 	0.0395	0.5597	0.56334	0.107
Mof_H 	H 	0.0588	0.5033	0.549	0.002
Mof_H 	H 	0.9938	0.5895	0.5413	0.003
Mof_C 	C 	0.9826	0.5408	0.60988	-0.064
Mof_C 	C 	0.9489	0.6279	0.63358	0.271
Mof_H 	H 	0.9013	0.6577	0.6124	-0.098
Mof_H 	H 	0.9132	0.6136	0.663	-0.103
Mof_C 	C 	0.0479	0.4857	0.6442	0.14
Mof_H 	H 	0.0088	0.4736	0.6729	-0.029
Mof_H 	H 	0.0628	0.4288	0.6291	-0.009
Mof_C 	C 	0.8876	0.4884	0.5987	-0.406
Mof_H 	H 	0.9054	0.4347	0.5818	0.14
Mof_H 	H 	0.8435	0.5238	0.579	0.134
Mof_H 	H 	0.8536	0.4733	0.628	0.139
Mof_C 	C 	0.1339	0.9256	0.60384	0.314
Mof_H 	H 	0.1346	0.9745	0.6266	-0.128
Mof_H 	H 	0.0734	0.9316	0.5843	-0.119
Mof_C 	C 	0.2261	0.9328	0.5719	-0.153
Mof_C 	C 	0.3241	0.9308	0.59993	0.321
Mof_H 	H 	0.38	0.9375	0.5776	-0.106
Mof_H 	H 	0.3253	0.9818	0.6213	-0.12
Mof_C 	C 	0.2228	0.8584	0.53305	0.17
Mof_H 	H 	0.162	0.8664	0.5139	-0.031
Mof_H 	H 	0.2805	0.8659	0.5119	-0.034
Mof_C 	C 	0.2217	0.0243	0.5458	-0.322
Mof_H 	H 	0.1573	0.0307	0.5302	0.113
Mof_H 	H 	0.2749	0.0274	0.5224	0.112
Mof_H 	H 	0.2302	0.0714	0.5688	0.119
Mof_C 	C 	0.4502	0.488	0.64216	0.068
Mof_C 	C 	0.504	0.5434	0.60421	0.024
Mof_C 	C 	0.5422	0.6321	0.62381	0.059
Mof_C 	C 	0.4373	0.552	0.5582	0.073
Mof_C 	C 	0.5991	0.4903	0.5891	-0.499
Mof_H 	H 	0.6351	0.5227	0.5648	0.161
Mof_H 	H 	0.579	0.4332	0.5767	0.165
Mof_H 	H 	0.6423	0.4819	0.6164	0.162
Mof_C 	C 	0.264	0.636	0.78374	0.198
Mof_H 	H 	0.3231	0.6108	0.7993	-0.047
Mof_H 	H 	0.2045	0.6119	0.7996	-0.044
Mof_C 	C 	0.2653	0.7368	0.7911	-0.159
Mof_C 	C 	0.3583	0.7783	0.76772	0.31
Mof_H 	H 	0.3579	0.842	0.774	-0.118
Mof_H 	H 	0.4185	0.7536	0.7826	-0.12
Mof_C 	C 	0.1674	0.7772	0.77258	0.314
Mof_H 	H 	0.1111	0.7483	0.7887	-0.102
Mof_H 	H 	0.166	0.8398	0.7814	-0.11
Mof_C 	C 	0.2705	0.7575	0.84486	-0.296
Mof_H 	H 	0.3261	0.7255	0.859	0.104
Mof_H 	H 	0.2084	0.7397	0.86	0.105
Mof_H 	H 	0.2805	0.8204	0.8494	0.101
Mof_O 	O 	0.5712	0.8926	0.60146	-0.418
Mof_H 	H 	0.594	0.8585	0.6218	-0.245
Mof_C 	C 	0.6357	0.9694	0.5976	0.202
Mof_H 	H 	0.6301	0.0041	0.6269	-0.093
Mof_H 	H 	0.612	0.0063	0.5713	-0.027
Mof_C 	C 	0.7463	0.9464	0.58929	-0.202
Mof_C 	C 	0.8092	0.0311	0.5907	-0.212
Mof_H 	H 	0.7873	0.0706	0.5656	0.092
Mof_H 	H 	0.8794	0.0165	0.586	0.071
Mof_H 	H 	0.8007	0.0598	0.6212	0.074
Mof_C 	C 	0.7798	0.8834	0.62814	0.57
Mof_H 	H 	0.7659	0.9106	0.659	-0.214
Mof_H 	H 	0.7398	0.8293	0.626	-0.184
Mof_O 	O 	0.8833	0.8604	0.62627	-1.09
Mof_H 	H 	0.8993	0.8495	0.5985	0.442
Mof_C 	C 	0.7583	0.9042	0.53954	0.224
Mof_H 	H 	0.7323	0.9449	0.5154	-0.017
Mof_H 	H 	0.8297	0.8945	0.5331	-0.052
Mof_O 	O 	0.9156	0.8183	0.76195	-0.983
Mof_H 	H 	0.883	0.8645	0.7589	0.335
Mof_C 	C 	0.8601	0.7569	0.79095	0.526
Mof_H 	H 	0.8731	0.77	0.8245	-0.117
Mof_H 	H 	0.8843	0.697	0.7846	-0.149
Mof_C 	C 	0.7467	0.7599	0.78221	-0.372
Mof_C 	C 	0.706	0.8516	0.79262	0.374
Mof_H 	H 	0.6328	0.851	0.7897	-0.115
Mof_H 	H 	0.7228	0.868	0.8253	-0.084
Mof_O 	O 	0.6218	0.7468	0.7165	-1.006
Mof_H 	H 	0.5892	0.7042	0.7267	0.376
Mof_C 	C 	0.7267	0.7362	0.72916	0.617
Mof_H 	H 	0.7678	0.7742	0.7088	-0.25
Mof_H 	H 	0.7469	0.6748	0.7234	-0.184
Mof_O 	O 	0.7069	0.8232	0.53629	-0.406
Mof_H 	H 	0.734	0.7918	0.5159	0.251
Mof_O 	O 	0.7464	0.9157	0.76092	-0.533
Mof_H 	H 	0.7684	0.958	0.7763	0.271
Mof_C 	C 	0.6967	0.6918	0.8162	-0.072
Mof_H 	H 	0.7202	0.6329	0.8085	0.046
Mof_H 	H 	0.6244	0.6943	0.8126	0.032
Mof_H 	H 	0.7143	0.7057	0.8488	0.05
Mof_N 	N 	0.2455	0.9476	0.70616	-0.231
Mof_N 	N 	0.247	0.9758	0.74566	-0.059
Mof_N 	N 	0.2481	0.0056	0.78392	-0.103
Mof_N 	N 	0.4985	0.9719	0.7157	-0.412
Mof_N 	N 	0.5067	0.1028	0.76049	-0.219
Mof_N 	N 	0.5026	0.0359	0.73764	-0.003
Mof_N 	N 	0.9647	0.1112	0.75989	-0.235
Mof_N 	N 	0.9695	0.0456	0.73548	-0.01
Mof_N 	N 	0.9825	0.9841	0.7119	-0.384
Mof_N 	N 	0.4931	0.7233	0.45297	-0.19
Mof_N 	N 	0.476	0.7473	0.49245	-0.037
Mof_N 	N 	0.4596	0.7725	0.53192	-0.164
Mof_O 	O 	0.7619	0.1841	0.85416	-0.641
Mof_O 	O 	0.1285	0.6134	0.56876	-0.449
Mof_O 	O 	0.03	0.6891	0.64472	-0.808
Mof_O 	O 	0.1415	0.5266	0.65794	-0.48
Mof_O 	O 	0.1289	0.8421	0.62987	-0.836
Mof_O 	O 	0.3407	0.8524	0.62751	-0.756
Mof_O 	O 	0.2237	0.7696	0.55115	-0.458
Mof_O 	O 	0.3586	0.5311	0.6593	-0.451
Mof_O 	O 	0.46	0.6881	0.64154	-0.749
Mof_O 	O 	0.3437	0.6007	0.56722	-0.441
Mof_O 	O 	0.2631	0.6075	0.73464	-0.471
Mof_O 	O 	0.3646	0.7645	0.71642	-0.806
Mof_O 	O 	0.1513	0.7705	0.7214	-0.822
Mof_Mn	Mn	0.86068	0.14284	0.80642	0.95
Mof_Mn	Mn	0.62565	0.14317	0.8076	1.022
Mof_Mn	Mn	0.24682	0.82374	0.67805	0.889
Mof_Mn	Mn	0.35877	0.73337	0.5877	0.821
Mof_Mn	Mn	0.11772	0.73174	0.59423	1.054
Mof_Mn	Mn	0.2436	0.55119	0.60905	1.029
Mof_N 	N 	0.2435	0.43	0.5785	-0.179
Mof_N 	N 	0.2197	0.3693	0.5765	-0.009
Mof_N 	N 	0.1855	0.2896	0.5806	-0.084
Mof_N 	N 	0.2359	0.4013	0.5524	0.02
Mof_N 	N 	0.2157	0.3696	0.5118	-0.092
_end
