data_functionalizedCrystal
_audit_creation_method	'EQeq! by Chris Wilmer'
_symmetry_space_group_name_H-M	'P1'
_symmetry_Int_Tables_number	1
_symmetry_cell_setting	triclinic
loop_
_symmetry_equiv_pos_as_xyz
  x,y,z
_cell_length_a	17.724
_cell_length_b	19.705
_cell_length_c	13.139
_cell_angle_alpha	90
_cell_angle_beta	127.496
_cell_angle_gamma	90
loop_
_atom_site_label
_atom_site_type_symbol
_atom_site_fract_x
_atom_site_fract_y
_atom_site_fract_z
_atom_site_charge
Mof_O 	O 	0.45455	0.42353	0.3212	-0.47
Mof_O 	O 	0.59419	0.42848	0.5148	-0.476
Mof_O 	O 	0.4049	0.22206	0.0335	-0.381
Mof_O 	O 	0.5212	0.1467	0.1356	-0.531
Mof_N 	N 	0.11609	0.46438	0.0838	-0.31
Mof_N 	N 	0.2362	0.38032	0.1894	-0.336
Mof_H 	H 	0.1953	0.3479	0.1531	0.121
Mof_H 	H 	0.2959	0.3713	0.2421	0.151
Mof_C 	C 	0.5374	0.40273	0.4064	0.396
Mof_C 	C 	0.5709	0.34051	0.3778	-0.113
Mof_C 	C 	0.6641	0.31913	0.4697	-0.005
Mof_H 	H 	0.7031	0.3438	0.5453	0.047
Mof_C 	C 	0.7003	0.2616	0.4511	-0.011
Mof_C 	C 	0.6384	0.2262	0.3372	-0.006
Mof_H 	H 	0.6604	0.1874	0.3225	0.039
Mof_C 	C 	0.5453	0.2461	0.245	-0.119
Mof_C 	C 	0.5113	0.3046	0.2645	0.045
Mof_H 	H 	0.4494	0.3193	0.2022	0.023
Mof_C 	C 	0.4842	0.2034	0.1262	0.37
Mof_C 	C 	0.2062	0.44616	0.1633	0.185
Mof_O 	O 	0.95455	0.92353	0.3212	-0.413
Mof_O 	O 	0.09419	0.92848	0.5148	-0.443
Mof_O 	O 	0.9049	0.72206	0.0335	-0.38
Mof_O 	O 	0.0212	0.6467	0.1356	-0.555
Mof_N 	N 	0.61609	0.96438	0.0838	-0.287
Mof_N 	N 	0.7362	0.88032	0.1894	-0.347
Mof_H 	H 	0.6953	0.8479	0.1531	0.128
Mof_H 	H 	0.7959	0.8713	0.2421	0.162
Mof_C 	C 	0.0374	0.90273	0.4064	0.347
Mof_C 	C 	0.0709	0.84051	0.3778	-0.077
Mof_C 	C 	0.1641	0.81913	0.4697	-0.022
Mof_H 	H 	0.2031	0.8438	0.5453	0.056
Mof_C 	C 	0.2003	0.7616	0.4511	-0.004
Mof_C 	C 	0.1384	0.7262	0.3372	-0.004
Mof_H 	H 	0.1604	0.6874	0.3225	0.04
Mof_C 	C 	0.0453	0.7461	0.245	-0.127
Mof_C 	C 	0.0113	0.8046	0.2645	-0.013
Mof_H 	H 	0.9494	0.8193	0.2022	0.064
Mof_C 	C 	0.9842	0.7034	0.1262	0.424
Mof_C 	C 	0.7062	0.94616	0.1633	0.243
Mof_O 	O 	0.54545	0.42353	0.6788	-0.438
Mof_O 	O 	0.40581	0.42848	0.4852	-0.47
Mof_O 	O 	0.5951	0.22206	0.9665	-0.207
Mof_O 	O 	0.4788	0.1467	0.8644	-0.429
Mof_N 	N 	0.88391	0.46438	0.9162	-0.234
Mof_N 	N 	0.7638	0.38032	0.8106	-0.355
Mof_H 	H 	0.8047	0.3479	0.8469	0.205
Mof_H 	H 	0.7041	0.3713	0.7579	0.182
Mof_C 	C 	0.4626	0.40273	0.5936	0.39
Mof_C 	C 	0.4291	0.34051	0.6222	-0.079
Mof_C 	C 	0.3359	0.31913	0.5303	-0.023
Mof_H 	H 	0.2969	0.3438	0.4547	0.052
Mof_C 	C 	0.2997	0.2616	0.5489	0.011
Mof_C 	C 	0.3616	0.2262	0.6628	-0.025
Mof_H 	H 	0.3396	0.1874	0.6775	0.054
Mof_C 	C 	0.4547	0.2461	0.755	-0.058
Mof_C 	C 	0.4887	0.3046	0.7355	0.022
Mof_H 	H 	0.5506	0.3193	0.7978	0.072
Mof_C 	C 	0.5158	0.2034	0.8738	0.355
Mof_C 	C 	0.7938	0.44616	0.8367	0.236
Mof_O 	O 	0.04545	0.92353	0.6788	-0.442
Mof_O 	O 	0.90581	0.92848	0.4852	-0.449
Mof_O 	O 	0.0951	0.72206	0.9665	-0.195
Mof_O 	O 	0.9788	0.6467	0.8644	-0.386
Mof_N 	N 	0.38391	0.96438	0.9162	-0.22
Mof_N 	N 	0.2638	0.88032	0.8106	-0.365
Mof_H 	H 	0.3047	0.8479	0.8469	0.206
Mof_H 	H 	0.2041	0.8713	0.7579	0.188
Mof_C 	C 	0.9626	0.90273	0.5936	0.428
Mof_C 	C 	0.9291	0.84051	0.6222	-0.093
Mof_C 	C 	0.8359	0.81913	0.5303	-0.011
Mof_H 	H 	0.7969	0.8438	0.4547	0.053
Mof_C 	C 	0.7997	0.7616	0.5489	0.016
Mof_C 	C 	0.8616	0.7262	0.6628	-0.03
Mof_H 	H 	0.8396	0.6874	0.6775	0.062
Mof_C 	C 	0.9547	0.7461	0.755	-0.034
Mof_C 	C 	0.9887	0.8046	0.7355	0.073
Mof_H 	H 	0.0506	0.8193	0.7978	0.043
Mof_C 	C 	0.0158	0.7034	0.8738	0.298
Mof_C 	C 	0.2938	0.94616	0.8367	0.289
Mof_O 	O 	0.54545	0.57647	0.6788	-0.438
Mof_O 	O 	0.40581	0.57152	0.4852	-0.469
Mof_O 	O 	0.5951	0.77794	0.9665	-0.202
Mof_O 	O 	0.4788	0.8533	0.8644	-0.415
Mof_N 	N 	0.88391	0.53562	0.9162	-0.234
Mof_N 	N 	0.7638	0.61968	0.8106	-0.357
Mof_H 	H 	0.8047	0.6521	0.8469	0.207
Mof_H 	H 	0.7041	0.6287	0.7579	0.184
Mof_C 	C 	0.4626	0.59727	0.5936	0.39
Mof_C 	C 	0.4291	0.65949	0.6222	-0.077
Mof_C 	C 	0.3359	0.68087	0.5303	-0.022
Mof_H 	H 	0.2969	0.6562	0.4547	0.052
Mof_C 	C 	0.2997	0.7384	0.5489	0.013
Mof_C 	C 	0.3616	0.7738	0.6628	-0.024
Mof_H 	H 	0.3396	0.8126	0.6775	0.06
Mof_C 	C 	0.4547	0.7539	0.755	-0.052
Mof_C 	C 	0.4887	0.6954	0.7355	0.022
Mof_H 	H 	0.5506	0.6807	0.7978	0.074
Mof_C 	C 	0.5158	0.7966	0.8738	0.354
Mof_C 	C 	0.7938	0.55384	0.8367	0.236
Mof_O 	O 	0.04545	0.07647	0.6788	-0.48
Mof_O 	O 	0.90581	0.07152	0.4852	-0.489
Mof_O 	O 	0.0951	0.27794	0.9665	-0.201
Mof_O 	O 	0.9788	0.3533	0.8644	-0.387
Mof_N 	N 	0.38391	0.03562	0.9162	-0.266
Mof_N 	N 	0.2638	0.11968	0.8106	-0.355
Mof_H 	H 	0.3047	0.1521	0.8469	0.201
Mof_H 	H 	0.2041	0.1287	0.7579	0.178
Mof_C 	C 	0.9626	0.09727	0.5936	0.434
Mof_C 	C 	0.9291	0.15949	0.6222	-0.109
Mof_C 	C 	0.8359	0.18087	0.5303	-0.007
Mof_H 	H 	0.7969	0.1562	0.4547	0.044
Mof_C 	C 	0.7997	0.2384	0.5489	0.008
Mof_C 	C 	0.8616	0.2738	0.6628	-0.027
Mof_H 	H 	0.8396	0.3126	0.6775	0.06
Mof_C 	C 	0.9547	0.2539	0.755	-0.042
Mof_C 	C 	0.9887	0.1954	0.7355	0.077
Mof_H 	H 	0.0506	0.1807	0.7978	0.034
Mof_C 	C 	0.0158	0.2966	0.8738	0.3
Mof_C 	C 	0.2938	0.05384	0.8367	0.223
Mof_O 	O 	0.45455	0.57647	0.3212	-0.468
Mof_O 	O 	0.59419	0.57152	0.5148	-0.475
Mof_O 	O 	0.4049	0.77794	0.0335	-0.376
Mof_O 	O 	0.5212	0.8533	0.1356	-0.517
Mof_N 	N 	0.11609	0.53562	0.0838	-0.31
Mof_N 	N 	0.2362	0.61968	0.1894	-0.337
Mof_H 	H 	0.1953	0.6521	0.1531	0.123
Mof_H 	H 	0.2959	0.6287	0.2421	0.153
Mof_C 	C 	0.5374	0.59727	0.4064	0.397
Mof_C 	C 	0.5709	0.65949	0.3778	-0.111
Mof_C 	C 	0.6641	0.68087	0.4697	-0.003
Mof_H 	H 	0.7031	0.6562	0.5453	0.047
Mof_C 	C 	0.7003	0.7384	0.4511	-0.008
Mof_C 	C 	0.6384	0.7738	0.3372	-0.005
Mof_H 	H 	0.6604	0.8126	0.3225	0.044
Mof_C 	C 	0.5453	0.7539	0.245	-0.113
Mof_C 	C 	0.5113	0.6954	0.2645	0.045
Mof_H 	H 	0.4494	0.6807	0.2022	0.024
Mof_C 	C 	0.4842	0.7966	0.1262	0.369
Mof_C 	C 	0.2062	0.55384	0.1633	0.185
Mof_O 	O 	0.95455	0.07647	0.3212	-0.452
Mof_O 	O 	0.09419	0.07152	0.5148	-0.483
Mof_O 	O 	0.9049	0.27794	0.0335	-0.387
Mof_O 	O 	0.0212	0.3533	0.1356	-0.557
Mof_N 	N 	0.61609	0.03562	0.0838	-0.333
Mof_N 	N 	0.7362	0.11968	0.1894	-0.337
Mof_H 	H 	0.6953	0.1521	0.1531	0.123
Mof_H 	H 	0.7959	0.1287	0.2421	0.153
Mof_C 	C 	0.0374	0.09727	0.4064	0.353
Mof_C 	C 	0.0709	0.15949	0.3778	-0.093
Mof_C 	C 	0.1641	0.18087	0.4697	-0.018
Mof_H 	H 	0.2031	0.1562	0.5453	0.047
Mof_C 	C 	0.2003	0.2384	0.4511	-0.011
Mof_C 	C 	0.1384	0.2738	0.3372	-0.001
Mof_H 	H 	0.1604	0.3126	0.3225	0.037
Mof_C 	C 	0.0453	0.2539	0.245	-0.136
Mof_C 	C 	0.0113	0.1954	0.2645	-0.009
Mof_H 	H 	0.9494	0.1807	0.2022	0.056
Mof_C 	C 	0.9842	0.2966	0.1262	0.427
Mof_C 	C 	0.7062	0.05384	0.1633	0.177
Mof_Zn	Zn	0.40437	0.5	0.36862	1.217
Mof_N 	N 	0.2656	0.5	0.2173	-0.297
Mof_Zn	Zn	0.90437	0	0.36862	1.202
Mof_N 	N 	0.7656	1.7334e-33	0.2173	-0.337
Mof_Zn	Zn	0.59563	0.5	0.63138	1.219
Mof_N 	N 	0.7344	0.5	0.7827	-0.296
Mof_Zn	Zn	0.09563	0	0.63138	1.2
Mof_N 	N 	0.2344	6.93362e-33	0.7827	-0.337
Mof_Zn	Zn	-0	0.40852	-0	1.148
Mof_Zn	Zn	0.5	0.90852	-0	1.16
Mof_Zn	Zn	-6.93362e-33	0.59148	-0	1.148
Mof_Zn	Zn	0.5	0.09148	-0	1.152
_end
