data_functionalizedCrystal
_audit_creation_method	'EQeq! by Chris Wilmer'
_symmetry_space_group_name_H-M	'P1'
_symmetry_Int_Tables_number	1
_symmetry_cell_setting	triclinic
loop_
_symmetry_equiv_pos_as_xyz
  x,y,z
_cell_length_a	18.595
_cell_length_b	18.595
_cell_length_c	18.595
_cell_angle_alpha	90
_cell_angle_beta	90
_cell_angle_gamma	90
loop_
_atom_site_label
_atom_site_type_symbol
_atom_site_fract_x
_atom_site_fract_y
_atom_site_fract_z
_atom_site_charge
Mof_Cu	Cu	0.5	0.86307	-0	0.899
Mof_Cu	Cu	0.5	0.13693	-0	0.894
Mof_Cu	Cu	3.23599e-33	0.5	0.86307	0.899
Mof_Cu	Cu	-4.68121e-34	0.5	0.13693	0.894
Mof_Cu	Cu	0.86307	-3.9261e-33	0.5	0.899
Mof_Cu	Cu	0.13693	-3.9261e-33	0.5	0.894
Mof_Cu	Cu	0.86307	0.5	-0	0.9
Mof_Cu	Cu	0.13693	0.5	-0	0.895
Mof_Cu	Cu	0.5	0	0.13693	0.895
Mof_Cu	Cu	0.5	-7.85221e-33	0.86307	0.9
Mof_Cu	Cu	5.8008e-33	0.86307	0.5	0.9
Mof_Cu	Cu	-2.0514e-33	0.13693	0.5	0.895
Mof_H 	H 	0.739	0.739	0.1076	0.089
Mof_H 	H 	0.261	0.261	0.1076	0.085
Mof_H 	H 	0.261	0.739	0.8924	0.101
Mof_H 	H 	0.739	0.261	0.8924	0.101
Mof_H 	H 	0.1076	0.739	0.739	0.089
Mof_H 	H 	0.1076	0.261	0.261	0.085
Mof_H 	H 	0.8924	0.261	0.739	0.101
Mof_H 	H 	0.8924	0.739	0.261	0.101
Mof_H 	H 	0.739	0.1076	0.739	0.089
Mof_H 	H 	0.261	0.1076	0.261	0.085
Mof_H 	H 	0.739	0.8924	0.261	0.101
Mof_H 	H 	0.261	0.8924	0.739	0.101
Mof_H 	H 	0.739	0.739	0.8924	0.103
Mof_H 	H 	0.261	0.261	0.8924	0.099
Mof_H 	H 	0.739	0.261	0.1076	0.087
Mof_H 	H 	0.261	0.739	0.1076	0.087
Mof_H 	H 	0.739	0.1076	0.261	0.087
Mof_H 	H 	0.261	0.1076	0.739	0.087
Mof_H 	H 	0.261	0.8924	0.261	0.099
Mof_H 	H 	0.739	0.8924	0.739	0.103
Mof_H 	H 	0.1076	0.739	0.261	0.087
Mof_H 	H 	0.1076	0.261	0.739	0.087
Mof_H 	H 	0.8924	0.739	0.739	0.103
Mof_H 	H 	0.8924	0.261	0.261	0.099
Mof_C 	C 	0.6638	0.8515	0.1485	0.108
Mof_C 	C 	0.7277	0.8195	0.1805	0.051
Mof_C 	C 	0.3362	0.1485	0.1485	0.103
Mof_C 	C 	0.2723	0.1805	0.1805	0.039
Mof_C 	C 	0.3362	0.8515	0.8515	0.112
Mof_C 	C 	0.2723	0.8195	0.8195	0.055
Mof_C 	C 	0.6638	0.1485	0.8515	0.108
Mof_C 	C 	0.7277	0.1805	0.8195	0.051
Mof_C 	C 	0.1485	0.6638	0.8515	0.108
Mof_C 	C 	0.1805	0.7277	0.8195	0.051
Mof_C 	C 	0.1485	0.3362	0.1485	0.103
Mof_C 	C 	0.1805	0.2723	0.1805	0.039
Mof_C 	C 	0.8515	0.3362	0.8515	0.112
Mof_C 	C 	0.8195	0.2723	0.8195	0.055
Mof_C 	C 	0.8515	0.6638	0.1485	0.108
Mof_C 	C 	0.8195	0.7277	0.1805	0.051
Mof_C 	C 	0.8515	0.1485	0.6638	0.108
Mof_C 	C 	0.8195	0.1805	0.7277	0.051
Mof_C 	C 	0.1485	0.1485	0.3362	0.103
Mof_C 	C 	0.1805	0.1805	0.2723	0.039
Mof_C 	C 	0.8515	0.8515	0.3362	0.112
Mof_C 	C 	0.8195	0.8195	0.2723	0.055
Mof_C 	C 	0.1485	0.8515	0.6638	0.108
Mof_C 	C 	0.1805	0.8195	0.7277	0.051
Mof_C 	C 	0.8515	0.6638	0.8515	0.113
Mof_C 	C 	0.8195	0.7277	0.8195	0.059
Mof_C 	C 	0.1485	0.3362	0.8515	0.108
Mof_C 	C 	0.1805	0.2723	0.8195	0.047
Mof_C 	C 	0.8515	0.3362	0.1485	0.108
Mof_C 	C 	0.8195	0.2723	0.1805	0.047
Mof_C 	C 	0.1485	0.6638	0.1485	0.104
Mof_C 	C 	0.1805	0.7277	0.1805	0.043
Mof_C 	C 	0.6638	0.1485	0.1485	0.104
Mof_C 	C 	0.7277	0.1805	0.1805	0.043
Mof_C 	C 	0.3362	0.1485	0.8515	0.108
Mof_C 	C 	0.2723	0.1805	0.8195	0.047
Mof_C 	C 	0.3362	0.8515	0.1485	0.108
Mof_C 	C 	0.2723	0.8195	0.1805	0.047
Mof_C 	C 	0.6638	0.8515	0.8515	0.113
Mof_C 	C 	0.7277	0.8195	0.8195	0.059
Mof_C 	C 	0.1485	0.8515	0.3362	0.108
Mof_C 	C 	0.1805	0.8195	0.2723	0.047
Mof_C 	C 	0.1485	0.1485	0.6638	0.104
Mof_C 	C 	0.1805	0.1805	0.7277	0.043
Mof_C 	C 	0.8515	0.8515	0.6638	0.113
Mof_C 	C 	0.8195	0.8195	0.7277	0.059
Mof_C 	C 	0.8515	0.1485	0.3362	0.108
Mof_C 	C 	0.8195	0.1805	0.2723	0.047
Mof_C 	C 	0.7587	0.7587	0.1491	-0.095
Mof_C 	C 	0.2413	0.2413	0.1491	-0.093
Mof_C 	C 	0.2413	0.7587	0.8509	-0.096
Mof_C 	C 	0.7587	0.2413	0.8509	-0.096
Mof_C 	C 	0.1491	0.7587	0.7587	-0.095
Mof_C 	C 	0.1491	0.2413	0.2413	-0.093
Mof_C 	C 	0.8509	0.2413	0.7587	-0.096
Mof_C 	C 	0.8509	0.7587	0.2413	-0.096
Mof_C 	C 	0.7587	0.1491	0.7587	-0.095
Mof_C 	C 	0.2413	0.1491	0.2413	-0.093
Mof_C 	C 	0.7587	0.8509	0.2413	-0.096
Mof_C 	C 	0.2413	0.8509	0.7587	-0.096
Mof_C 	C 	0.7587	0.7587	0.8509	-0.097
Mof_C 	C 	0.2413	0.2413	0.8509	-0.095
Mof_C 	C 	0.7587	0.2413	0.1491	-0.094
Mof_C 	C 	0.2413	0.7587	0.1491	-0.094
Mof_C 	C 	0.7587	0.1491	0.2413	-0.094
Mof_C 	C 	0.2413	0.1491	0.7587	-0.094
Mof_C 	C 	0.2413	0.8509	0.2413	-0.095
Mof_C 	C 	0.7587	0.8509	0.7587	-0.097
Mof_C 	C 	0.1491	0.7587	0.2413	-0.094
Mof_C 	C 	0.1491	0.2413	0.7587	-0.094
Mof_C 	C 	0.8509	0.7587	0.7587	-0.097
Mof_C 	C 	0.8509	0.2413	0.2413	-0.095
Mof_N 	N 	0.57496	0.86991	0.0792	-0.129
Mof_N 	N 	0.63046	0.8253	0.0893	-0.083
Mof_N 	N 	0.42504	0.13009	0.0792	-0.134
Mof_N 	N 	0.36954	0.1747	0.0893	-0.086
Mof_N 	N 	0.42504	0.86991	0.9208	-0.114
Mof_N 	N 	0.36954	0.8253	0.9107	-0.071
Mof_N 	N 	0.57496	0.13009	0.9208	-0.118
Mof_N 	N 	0.63046	0.1747	0.9107	-0.072
Mof_N 	N 	0.0792	0.57496	0.86991	-0.129
Mof_N 	N 	0.0893	0.63046	0.8253	-0.083
Mof_N 	N 	0.0792	0.42504	0.13009	-0.134
Mof_N 	N 	0.0893	0.36954	0.1747	-0.086
Mof_N 	N 	0.9208	0.42504	0.86991	-0.114
Mof_N 	N 	0.9107	0.36954	0.8253	-0.071
Mof_N 	N 	0.9208	0.57496	0.13009	-0.118
Mof_N 	N 	0.9107	0.63046	0.1747	-0.072
Mof_N 	N 	0.86991	0.0792	0.57496	-0.129
Mof_N 	N 	0.8253	0.0893	0.63046	-0.083
Mof_N 	N 	0.13009	0.0792	0.42504	-0.134
Mof_N 	N 	0.1747	0.0893	0.36954	-0.086
Mof_N 	N 	0.86991	0.9208	0.42504	-0.114
Mof_N 	N 	0.8253	0.9107	0.36954	-0.071
Mof_N 	N 	0.13009	0.9208	0.57496	-0.118
Mof_N 	N 	0.1747	0.9107	0.63046	-0.072
Mof_N 	N 	0.86991	0.57496	0.9208	-0.113
Mof_N 	N 	0.8253	0.63046	0.9107	-0.07
Mof_N 	N 	0.13009	0.42504	0.9208	-0.119
Mof_N 	N 	0.1747	0.36954	0.9107	-0.073
Mof_N 	N 	0.86991	0.42504	0.0792	-0.129
Mof_N 	N 	0.8253	0.36954	0.0893	-0.084
Mof_N 	N 	0.13009	0.57496	0.0792	-0.134
Mof_N 	N 	0.1747	0.63046	0.0893	-0.085
Mof_N 	N 	0.57496	0.0792	0.13009	-0.134
Mof_N 	N 	0.63046	0.0893	0.1747	-0.085
Mof_N 	N 	0.42504	0.0792	0.86991	-0.129
Mof_N 	N 	0.36954	0.0893	0.8253	-0.084
Mof_N 	N 	0.42504	0.9208	0.13009	-0.119
Mof_N 	N 	0.36954	0.9107	0.1747	-0.073
Mof_N 	N 	0.57496	0.9208	0.86991	-0.113
Mof_N 	N 	0.63046	0.9107	0.8253	-0.07
Mof_N 	N 	0.0792	0.86991	0.42504	-0.129
Mof_N 	N 	0.0893	0.8253	0.36954	-0.084
Mof_N 	N 	0.0792	0.13009	0.57496	-0.134
Mof_N 	N 	0.0893	0.1747	0.63046	-0.085
Mof_N 	N 	0.9208	0.86991	0.57496	-0.113
Mof_N 	N 	0.9107	0.8253	0.63046	-0.07
Mof_N 	N 	0.9208	0.13009	0.42504	-0.119
Mof_N 	N 	0.9107	0.1747	0.36954	-0.073
Mof_N 	N 	0.42504	0.13009	0.9208	-0.119
Mof_N 	N 	0.36954	0.1747	0.9107	-0.073
Mof_N 	N 	0.57496	0.86991	0.9208	-0.113
Mof_N 	N 	0.63046	0.8253	0.9107	-0.07
Mof_N 	N 	0.57496	0.13009	0.0792	-0.134
Mof_N 	N 	0.63046	0.1747	0.0893	-0.085
Mof_N 	N 	0.42504	0.86991	0.0792	-0.129
Mof_N 	N 	0.36954	0.8253	0.0893	-0.084
Mof_N 	N 	0.9208	0.42504	0.13009	-0.119
Mof_N 	N 	0.9107	0.36954	0.1747	-0.073
Mof_N 	N 	0.9208	0.57496	0.86991	-0.113
Mof_N 	N 	0.9107	0.63046	0.8253	-0.07
Mof_N 	N 	0.0792	0.57496	0.13009	-0.134
Mof_N 	N 	0.0893	0.63046	0.1747	-0.085
Mof_N 	N 	0.0792	0.42504	0.86991	-0.129
Mof_N 	N 	0.0893	0.36954	0.8253	-0.084
Mof_N 	N 	0.13009	0.9208	0.42504	-0.119
Mof_N 	N 	0.1747	0.9107	0.36954	-0.073
Mof_N 	N 	0.86991	0.9208	0.57496	-0.113
Mof_N 	N 	0.8253	0.9107	0.63046	-0.07
Mof_N 	N 	0.13009	0.0792	0.57496	-0.134
Mof_N 	N 	0.1747	0.0893	0.63046	-0.085
Mof_N 	N 	0.86991	0.0792	0.42504	-0.129
Mof_N 	N 	0.8253	0.0893	0.36954	-0.084
Mof_N 	N 	0.13009	0.42504	0.0792	-0.134
Mof_N 	N 	0.1747	0.36954	0.0893	-0.086
Mof_N 	N 	0.86991	0.57496	0.0792	-0.129
Mof_N 	N 	0.8253	0.63046	0.0893	-0.083
Mof_N 	N 	0.13009	0.57496	0.9208	-0.118
Mof_N 	N 	0.1747	0.63046	0.9107	-0.072
Mof_N 	N 	0.86991	0.42504	0.9208	-0.114
Mof_N 	N 	0.8253	0.36954	0.9107	-0.071
Mof_N 	N 	0.42504	0.9208	0.86991	-0.114
Mof_N 	N 	0.36954	0.9107	0.8253	-0.071
Mof_N 	N 	0.57496	0.9208	0.13009	-0.118
Mof_N 	N 	0.63046	0.9107	0.1747	-0.072
Mof_N 	N 	0.57496	0.0792	0.86991	-0.129
Mof_N 	N 	0.63046	0.0893	0.8253	-0.083
Mof_N 	N 	0.42504	0.0792	0.13009	-0.134
Mof_N 	N 	0.36954	0.0893	0.1747	-0.086
Mof_N 	N 	0.9208	0.13009	0.57496	-0.118
Mof_N 	N 	0.9107	0.1747	0.63046	-0.072
Mof_N 	N 	0.9208	0.86991	0.42504	-0.114
Mof_N 	N 	0.9107	0.8253	0.36954	-0.071
Mof_N 	N 	0.0792	0.13009	0.42504	-0.134
Mof_N 	N 	0.0893	0.1747	0.36954	-0.086
Mof_N 	N 	0.0792	0.86991	0.57496	-0.129
Mof_N 	N 	0.0893	0.8253	0.63046	-0.083
Mof_Cl	Cl	0.5	0	-0	-0.732
Mof_Cl	Cl	-3.9261e-33	0.5	-0	-0.732
Mof_Cl	Cl	-2.0514e-33	-3.9261e-33	0.5	-0.732
Mof_O 	O 	0.5	0.7436	-0	-0.219
Mof_O 	O 	0.5	0.2564	-0	-0.219
Mof_O 	O 	-5.06416e-33	0.5	0.7436	-0.219
Mof_O 	O 	-1.00171e-33	0.5	0.2564	-0.219
Mof_O 	O 	0.7436	-3.9261e-33	0.5	-0.219
Mof_O 	O 	0.2564	-3.9261e-33	0.5	-0.219
Mof_O 	O 	0.7436	0.5	-0	-0.219
Mof_O 	O 	0.2564	0.5	-0	-0.219
Mof_O 	O 	0.5	0	0.2564	-0.219
Mof_O 	O 	0.5	0	0.7436	-0.219
Mof_O 	O 	-2.0514e-33	0.7436	0.5	-0.219
Mof_O 	O 	-2.0514e-33	0.2564	0.5	-0.219
_end
