data_functionalizedCrystal
_audit_creation_method	'EQeq! by Chris Wilmer'
_symmetry_space_group_name_H-M	'P1'
_symmetry_Int_Tables_number	1
_symmetry_cell_setting	triclinic
loop_
_symmetry_equiv_pos_as_xyz
  x,y,z
_cell_length_a	27.0286
_cell_length_b	27.0288
_cell_length_c	27.0288
_cell_angle_alpha	63.54
_cell_angle_beta	83.7507
_cell_angle_gamma	116.46
loop_
_atom_site_label
_atom_site_type_symbol
_atom_site_fract_x
_atom_site_fract_y
_atom_site_fract_z
_atom_site_charge
Mof_Zn	Zn	0.8193	0.97048	0.2477	1.209
Mof_Zn	Zn	0.50617	0.33394	0.06199	1.178
Mof_Zn	Zn	0.05823	0.02884	0.21616	1.187
Mof_Zn	Zn	0.66429	0.40124	0.00503	1.14
Mof_Zn	Zn	0.6925	0.27681	0.07914	1.191
Mof_Zn	Zn	0.89594	0.83395	0.17222	1.178
Mof_Zn	Zn	0.745	0.52883	0.02939	1.188
Mof_Zn	Zn	0.71817	0.47047	0.84883	1.209
Mof_Zn	Zn	0.85594	0.7768	0.4157	1.19
Mof_Zn	Zn	0.90627	0.90124	0.26305	1.138
Mof_H 	H 	0.398	0.0523	0.2049	0.053
Mof_H 	H 	0.0226	0.8742	0.5066	0.036
Mof_H 	H 	0.434	0.3662	0.8674	0.036
Mof_H 	H 	0.8611	0.5285	0.0786	0.066
Mof_H 	H 	0.0957	0.1901	0.1246	0.05
Mof_H 	H 	0.7882	0.6193	0.4529	0.06
Mof_H 	H 	0.6594	0.5178	0.1426	0.088
Mof_H 	H 	0.1964	0.9877	0.0855	0.027
Mof_H 	H 	0.8308	0.2819	0.9053	0.031
Mof_H 	H 	0.5156	0.4144	0.7856	0.052
Mof_H 	H 	0.8808	0.3742	0.1484	0.037
Mof_H 	H 	0.7449	0.5329	0.442	0.033
Mof_H 	H 	0.4787	0.412	0.2211	0.036
Mof_H 	H 	0.4749	0.0329	0.212	0.033
Mof_H 	H 	0.8548	0.7495	0.7329	0.029
Mof_H 	H 	0.6104	0.445	0.7894	0.079
Mof_H 	H 	0.8035	0.6557	0.264	0.074
Mof_H 	H 	0.1604	0.0178	0.1416	0.088
Mof_H 	H 	0.9182	0.4858	0.1106	0.037
Mof_H 	H 	0.6491	0.9877	0.3162	0.143
Mof_H 	H 	0.8546	0.3709	0.8127	0.04
Mof_H 	H 	0.0769	0.2729	0.0864	0.06
Mof_H 	H 	0.5722	0.1193	0.1689	0.06
Mof_H 	H 	0.8147	0.6901	0.9056	0.05
Mof_H 	H 	0.9824	0.2495	0.1053	0.029
Mof_H 	H 	0.7493	0.7569	0.5154	0.07
Mof_H 	H 	0.8998	0.1421	0.1611	0.088
Mof_H 	H 	0.8039	0.4877	0.6614	0.143
Mof_H 	H 	0.1071	0.0285	0.3326	0.066
Mof_H 	H 	0.7	0.9144	0.1012	0.052
Mof_H 	H 	0.0302	0.8604	0.107	0.067
Mof_H 	H 	0.7344	0.945	0.1654	0.078
Mof_H 	H 	0.7416	0.0787	0.3071	-0.11
Mof_H 	H 	0.1331	0.912	0.0667	0.036
Mof_H 	H 	0.4674	0.3604	0.1698	0.067
Mof_H 	H 	0.5732	0.4877	0.2087	0.027
Mof_H 	H 	0.9605	0.7576	0.0711	0.038
Mof_H 	H 	0.9345	0.697	0.0235	0.044
Mof_H 	H 	0.7336	0.8662	0.0678	0.036
Mof_H 	H 	0.9147	0.6345	0.5596	0.207
Mof_H 	H 	0.3287	0.2576	0.2029	0.039
Mof_H 	H 	0.6941	0.1345	0.2802	0.208
Mof_H 	H 	0.806	0.314	0.128	0.067
Mof_H 	H 	0.0964	0.9858	0.4324	0.038
Mof_H 	H 	0.8041	0.4237	0.8004	0.099
Mof_H 	H 	0.8061	0.8478	0.0951	0.061
Mof_H 	H 	0.942	0.814	0.492	0.068
Mof_H 	H 	0.8593	0.7729	0.804	0.06
Mof_H 	H 	0.7723	0.2569	0.9924	0.07
Mof_H 	H 	0.7572	0.5523	0.3457	0.053
Mof_H 	H 	0.2205	0.197	0.2375	0.044
Mof_H 	H 	0.4429	0.3478	0.9583	0.061
Mof_H 	H 	0.8615	0.5779	0.5594	-0.079
Mof_H 	H 	0.7241	0.9237	0.3804	0.098
Mof_H 	H 	0.8032	0.6421	0.7577	0.087
Mof_H 	H 	0.8858	0.5787	0.6629	-0.109
Mof_H 	H 	0.6872	0.7819	0.5489	0.031
Mof_H 	H 	0.4197	0.1557	0.1478	0.074
Mof_H 	H 	0.6836	0.8709	0.4837	0.04
Mof_H 	H 	0.6373	0.0779	0.2836	-0.079
Mof_C 	C 	0.87333	0.72558	0.10549	-0.09
Mof_C 	C 	0.90675	0.69686	0.04717	-0.021
Mof_C 	C 	0.61371	0.45862	0.11383	0.076
Mof_C 	C 	0.22193	0.16278	0.18517	-0.083
Mof_C 	C 	0.74856	0.8777	0.09308	-0.016
Mof_C 	C 	0.03467	0.91243	0.14404	0.052
Mof_C 	C 	0.76304	0.37541	0.89235	0.075
Mof_C 	C 	0.5804	0.41006	0.87816	0.067
Mof_C 	C 	0.0683	0.9601	0.4226	-0.023
Mof_C 	C 	0.78193	0.61512	0.89245	0.045
Mof_C 	C 	0.8619	0.3929	0.1278	-0.01
Mof_C 	C 	0.15549	0.96893	0.1009	-0.006
Mof_C 	C 	0.79117	0.86569	0.1097	-0.117
Mof_C 	C 	0.15784	0.11833	0.19703	0.311
Mof_C 	C 	0.97645	0.88497	0.40268	0.059
Mof_C 	C 	0.73051	0.8926	0.40665	-0.114
Mof_C 	C 	0.81398	0.3059	0.90332	-0.015
Mof_C 	C 	0.77317	0.58829	0.34952	-0.024
Mof_C 	C 	0.72798	0.90672	0.11372	-0.026
Mof_C 	C 	0.48481	0.07626	0.19033	-0.014
Mof_C 	C 	0.57736	0.42478	0.82282	-0.109
Mof_C 	C 	0.76776	0.87541	0.38763	0.075
Mof_C 	C 	0.79925	0.3926	0.83791	-0.114
Mof_C 	C 	0.92178	0.73226	0.07412	-0.014
Mof_C 	C 	0.51232	0.4226	0.1945	-0.035
Mof_C 	C 	0.84902	0.68552	0.50876	0.29
Mof_C 	C 	0.6658	0.0797	0.2589	0.356
Mof_C 	C 	0.33107	0.22558	0.14775	-0.09
Mof_C 	C 	0.7074	0.1219	0.2575	-0.485
Mof_C 	C 	0.7497	0.0717	0.2412	-0.375
Mof_C 	C 	0.55447	0.19114	0.13099	0.061
Mof_C 	C 	0.02362	0.94777	0.35467	0.067
Mof_C 	C 	0.75123	0.32612	0.94743	0.065
Mof_C 	C 	0.7577	0.0148	0.2433	0.722
Mof_C 	C 	0.80127	0.649	0.30121	-0.105
Mof_C 	C 	0.98748	0.2145	0.12114	0.014
Mof_C 	C 	0.47539	0.36569	0.92548	-0.117
Mof_C 	C 	0.70484	0.8587	0.46786	-0.023
Mof_C 	C 	0.7785	0.28943	0.95499	-0.114
Mof_C 	C 	0.52044	0.40672	0.82126	-0.026
Mof_C 	C 	0.53155	0.38202	0.92807	0.059
Mof_C 	C 	0.78765	0.38497	0.09148	0.059
Mof_C 	C 	0.80541	0.65081	0.7873	-0.139
Mof_C 	C 	0.7476	0.92478	0.15258	-0.109
Mof_C 	C 	0.8386	0.5797	0.5861	0.355
Mof_C 	C 	0.81536	0.61833	0.03951	0.311
Mof_C 	C 	0.82213	0.69114	0.36333	0.061
Mof_C 	C 	0.5086	0.20222	0.12498	0.064
Mof_C 	C 	0.56983	0.46893	0.18656	-0.006
Mof_C 	C 	0.77355	0.82612	0.42511	0.065
Mof_C 	C 	0.04486	0.22859	0.11001	-0.05
Mof_C 	C 	0.81009	0.88202	0.14953	0.059
Mof_C 	C 	0.81216	0.67984	0.87702	-0.088
Mof_C 	C 	0.77778	0.59887	0.84825	0.088
Mof_C 	C 	0.85136	0.48756	0.0862	-0.11
Mof_C 	C 	0.70922	0.8059	0.50808	-0.015
Mof_C 	C 	0.00757	0.11512	0.16681	0.044
Mof_C 	C 	0.70242	0.13491	0.20047	-0.077
Mof_C 	C 	0.07376	0.98756	0.3638	-0.108
Mof_C 	C 	0.97407	0.85613	0.4609	-0.115
Mof_C 	C 	0.45021	0.149	0.15227	-0.105
Mof_C 	C 	0.54197	0.12652	0.16471	-0.112
Mof_C 	C 	0.8272	0.70222	0.30638	0.064
Mof_C 	C 	0.94712	0.09887	0.17891	0.089
Mof_C 	C 	0.74442	0.78943	0.48907	-0.115
Mof_C 	C 	0.84795	0.66278	0.05915	-0.083
Mof_C 	C 	0.82656	0.3587	0.84614	-0.023
Mof_C 	C 	0.93811	0.15081	0.1546	-0.14
Mof_C 	C 	0.87336	0.75886	0.1362	0.305
Mof_C 	C 	0.05602	0.89268	0.11256	-0.112
Mof_C 	C 	0.8067	0.5278	0.6453	-0.31
Mof_C 	C 	0.8794	0.6219	0.5855	-0.482
Mof_C 	C 	0.50524	0.39268	0.16334	-0.111
Mof_C 	C 	0.30638	0.23226	0.18952	-0.014
Mof_C 	C 	0.78822	0.91006	0.17034	0.067
Mof_C 	C 	0.778	0.5437	0.6799	0.127
Mof_C 	C 	0.8827	0.4601	0.1082	-0.022
Mof_C 	C 	0.24403	0.19686	0.20989	-0.021
Mof_C 	C 	0.6216	0.48773	0.14707	-0.129
Mof_C 	C 	0.69428	0.18552	0.1635	0.29
Mof_C 	C 	0.7343	0.089	0.2721	0.467
Mof_C 	C 	0.6731	0.0278	0.2789	-0.31
Mof_C 	C 	0.81703	0.35613	0.11794	-0.113
Mof_C 	C 	0.7581	0.5148	0.7429	0.721
Mof_C 	C 	0.83564	0.7145	0.77298	0.012
Mof_C 	C 	0.55647	0.41243	0.12224	0.052
Mof_C 	C 	0.7236	0.0437	0.2343	0.129
Mof_C 	C 	0.79123	0.62652	0.41545	-0.112
Mof_C 	C 	0.47078	0.3777	0.87086	-0.016
Mof_C 	C 	0.39506	0.25886	0.1145	0.305
Mof_C 	C 	0.8386	0.72859	0.81627	-0.048
Mof_C 	C 	0.1171	0.9226	0.08972	-0.035
Mof_C 	C 	0.83538	0.63491	0.56751	-0.078
Mof_C 	C 	0.76659	0.57626	0.40855	-0.014
Mof_C 	C 	0.07245	0.95862	0.15509	0.076
Mof_C 	C 	0.8611	0.589	0.6453	0.463
Mof_C 	C 	0.1348	0.98773	0.13387	-0.129
Mof_C 	C 	0.80244	0.44777	0.07585	0.067
Mof_C 	C 	0.05686	0.17984	0.13232	-0.087
Mof_C 	C 	0.43781	0.08829	0.18488	-0.024
Mof_C 	C 	0.8129	0.5717	0.678	-0.372
Mof_C 	C 	0.0207	0.8929	0.469	-0.007
Mof_S 	S 	0.80907	0.67469	0.1029	0.063
Mof_S 	S 	0.74117	0.11194	0.17059	0.072
Mof_S 	S 	0.78253	0.61194	0.62923	0.072
Mof_S 	S 	0.27759	0.17469	0.13438	0.063
Mof_N 	N 	0.62845	0.42206	0.89477	-0.231
Mof_N 	N 	0.72928	0.50855	0.93515	-0.201
Mof_N 	N 	0.91006	0.03298	0.21188	-0.24
Mof_N 	N 	0.85006	0.75188	0.3562	-0.247
Mof_N 	N 	0.98274	0.92738	0.19736	-0.209
Mof_N 	N 	0.81388	0.82438	0.39362	-0.24
Mof_N 	N 	0.84877	0.87556	0.17481	-0.244
Mof_N 	N 	0.01213	0.95825	0.3052	-0.238
Mof_N 	N 	0.62474	0.42738	0.05536	-0.208
Mof_N 	N 	0.70589	0.36993	0.96094	-0.204
Mof_N 	N 	0.95896	0.90593	0.32069	-0.202
Mof_N 	N 	0.73184	0.40222	0.9014	-0.236
Mof_N 	N 	0.56495	0.39386	0.08305	-0.241
Mof_N 	N 	0.53691	0.26954	0.08903	-0.217
Mof_N 	N 	0.72662	0.40593	0.05303	-0.202
Mof_N 	N 	0.74946	0.55512	0.9454	-0.24
Mof_N 	N 	0.718	0.32438	0.9895	-0.24
Mof_N 	N 	0.85274	0.89994	0.20888	-0.21
Mof_N 	N 	0.97691	0.89386	0.17109	-0.242
Mof_N 	N 	0.60882	0.39994	0.9528	-0.209
Mof_N 	N 	0.93576	0.8602	0.37918	-0.246
Mof_N 	N 	0.74486	0.53298	0.87708	-0.24
Mof_N 	N 	0.9437	0.00855	0.22073	-0.2
Mof_N 	N 	0.81683	0.92206	0.20639	-0.231
Mof_N 	N 	0.80362	0.90222	0.32962	-0.236
Mof_N 	N 	0.86989	0.79745	0.29788	-0.204
Mof_N 	N 	0.59533	0.29745	0.07244	-0.204
Mof_N 	N 	0.60808	0.25188	0.09818	-0.247
Mof_N 	N 	0.55037	0.37556	0.97321	-0.244
Mof_N 	N 	0.65469	0.46591	0.07266	-0.239
Mof_N 	N 	0.83087	0.86993	0.33596	-0.204
Mof_N 	N 	0.85857	0.76954	0.26737	-0.218
Mof_N 	N 	0.00052	0.05512	0.19434	-0.24
Mof_N 	N 	0.76345	0.45825	0.05388	-0.238
Mof_N 	N 	0.73938	0.3602	0.07556	-0.245
Mof_N 	N 	0.03857	0.96591	0.18878	-0.239
Mof_O 	O 	0.84306	0.61142	0.0076	-0.386
Mof_O 	O 	0.82076	0.71471	0.50129	-0.454
Mof_O 	O 	0.41218	0.25749	0.07115	-0.385
Mof_O 	O 	0.73408	0.45061	0.77611	-0.395
Mof_O 	O 	0.82864	0.75749	0.15469	-0.386
Mof_O 	O 	0.72672	0.95061	0.28347	-0.396
Mof_O 	O 	0.7867	0.0169	0.2822	-0.357
Mof_O 	O 	0.11902	0.11142	0.23164	-0.386
Mof_O 	O 	0.43169	0.29022	0.13203	-0.444
Mof_O 	O 	0.75768	0.58379	0.06191	-0.448
Mof_O 	O 	0.7991	0.5169	0.7698	-0.358
Mof_O 	O 	0.1457	0.08379	0.17389	-0.448
Mof_O 	O 	0.88991	0.70401	0.46366	-0.344
Mof_O 	O 	0.66767	0.20401	0.1859	-0.344
Mof_O 	O 	0.716	0.21471	0.10605	-0.454
Mof_O 	O 	0.78675	0.02299	0.20806	-0.633
Mof_O 	O 	0.92225	0.79022	0.14147	-0.444
Mof_O 	O 	0.73105	0.52299	0.76376	-0.633
Mof_Zn	Zn	0.57914	0.77164	0.64406	1.19
Mof_Zn	Zn	0.52939	0.77439	0.44177	1.187
Mof_Zn	Zn	0.50503	0.66932	0.59373	1.139
Mof_Zn	Zn	0.34882	0.56699	0.6807	1.208
Mof_Zn	Zn	0.67223	0.06817	0.99383	1.177
Mof_Zn	Zn	0.91569	0.27163	0.80751	1.19
Mof_Zn	Zn	0.76305	0.16932	0.83571	1.139
Mof_Zn	Zn	0.7477	0.067	0.78182	1.208
Mof_Zn	Zn	0.71617	0.2744	0.75499	1.187
Mof_Zn	Zn	0.56199	0.56816	0.60407	1.177
Mof_H 	H 	0.6426	0.802	0.3396	0.088
Mof_H 	H 	0.0489	0.2361	0.6692	0.033
Mof_H 	H 	0.9837	0.1673	0.6454	0.039
Mof_H 	H 	0.8326	0.4397	0.6389	0.066
Mof_H 	H 	0.4924	0.7647	0.7507	0.07
Mof_H 	H 	0.7836	0.9209	0.6385	-0.079
Mof_H 	H 	0.6689	0.7411	0.7118	0.06
Mof_H 	H 	0.0066	0.5292	0.6192	0.037
Mof_H 	H 	0.4056	0.7203	0.4043	0.05
Mof_H 	H 	0.5864	0.1633	0.6407	0.06
Mof_H 	H 	0.7087	0.7819	0.3036	0.027
Mof_H 	H 	0.0154	0.2647	0.7277	0.068
Mof_H 	H 	0.5855	0.2819	0.9268	0.027
Mof_H 	H 	0.3004	0.6045	0.7759	0.099
Mof_H 	H 	0.304	0.6633	0.4231	0.06
Mof_H 	H 	0.8804	0.1045	0.6959	0.099
Mof_H 	H 	0.2856	0.3012	0.8	0.052
Mof_H 	H 	0.4583	0.4012	0.6939	0.061
Mof_H 	H 	0.3674	0.3014	0.7664	0.036
Mof_H 	H 	0.5667	0.1998	0.0213	0.037
Mof_H 	H 	0.7375	0.458	0.5655	0.044
Mof_H 	H 	0.6654	0.8998	0.8896	0.079
Mof_H 	H 	0.7211	0.6998	0.3669	0.036
Mof_H 	H 	0.764	0.0675	0.0803	0.073
Mof_H 	H 	0.9529	0.2411	0.9278	0.061
Mof_H 	H 	0.6484	0.0292	0.4774	0.037
Mof_H 	H 	0.5951	0.9012	0.0571	0.062
Mof_H 	H 	0.5786	0.9397	0.3929	0.066
Mof_H 	H 	0.992	0.434	0.694	0.067
Mof_H 	H 	0.6698	0.6372	0.4698	0.067
Mof_H 	H 	0.712	0.6869	0.7551	0.033
Mof_H 	H 	0.5678	0.8014	0.066	0.037
Mof_H 	H 	0.8071	0.0487	0.6142	-0.108
Mof_H 	H 	0.5711	0.0316	0.1713	0.04
Mof_H 	H 	0.7049	0.6029	0.7428	0.053
Mof_H 	H 	0.6416	0.302	0.8406	0.088
Mof_H 	H 	0.607	0.1372	0.0326	0.068
Mof_H 	H 	0.1614	0.4653	0.8509	0.143
Mof_H 	H 	0.0594	0.4209	0.8627	-0.079
Mof_H 	H 	0.2894	0.3998	0.7656	0.079
Mof_H 	H 	0.5235	0.958	0.2795	0.043
Mof_H 	H 	0.942	0.1869	0.0251	0.032
Mof_H 	H 	0.6053	0.0877	0.6452	0.03
Mof_H 	H 	0.6106	0.0288	0.4036	0.038
Mof_H 	H 	0.3127	0.6673	0.8164	0.04
Mof_H 	H 	0.628	0.934	0.558	0.067
Mof_H 	H 	0.6246	0.2203	0.6853	0.05
Mof_H 	H 	0.2577	0.5609	0.6002	0.087
Mof_H 	H 	0.6012	0.8012	0.9844	0.052
Mof_H 	H 	0.8162	0.9653	0.6961	0.143
Mof_H 	H 	0.9324	0.5288	0.5818	0.037
Mof_H 	H 	0.2329	0.5877	0.5176	0.03
Mof_H 	H 	0.8457	0.1029	0.102	0.054
Mof_H 	H 	0.7802	0.9743	0.5853	0.206
Mof_H 	H 	0.6478	0.5675	0.6965	0.074
Mof_H 	H 	0.1629	0.5487	0.7584	-0.109
Mof_H 	H 	0.7029	0.5316	0.5395	0.039
Mof_H 	H 	0.0596	0.4743	0.8059	0.207
Mof_H 	H 	0.6611	0.0609	0.6968	0.087
Mof_H 	H 	0.4053	0.7361	0.8128	0.031
Mof_C 	C 	0.70989	0.45392	0.59325	-0.021
Mof_C 	C 	0.2873	0.59271	0.56189	-0.139
Mof_C 	C 	0.40332	0.7173	0.79078	-0.015
Mof_C 	C 	0.90855	0.17514	0.01519	-0.01
Mof_C 	C 	0.42548	0.40087	0.70883	-0.117
Mof_C 	C 	0.67034	0.95856	0.9196	0.067
Mof_C 	C 	0.70047	0.90289	0.66462	-0.078
Mof_C 	C 	0.969	0.4897	0.6381	-0.01
Mof_C 	C 	0.37702	0.68918	0.44314	-0.088
Mof_C 	C 	0.61001	0.15487	0.6614	-0.048
Mof_C 	C 	0.7343	0.9579	0.722	0.125
Mof_C 	C 	0.6362	0.00956	0.10494	0.307
Mof_C 	C 	0.42807	0.45962	0.68991	0.059
Mof_C 	C 	0.61383	0.72754	0.42755	0.076
Mof_C 	C 	0.6009	0.25639	0.93017	-0.005
Mof_C 	C 	0.68656	0.75639	0.34451	-0.006
Mof_C 	C 	0.68952	0.4959	0.57822	-0.014
Mof_C 	C 	0.06751	0.40289	0.79758	-0.077
Mof_C 	C 	0.6097	0.90087	0.02461	-0.118
Mof_C 	C 	0.7589	0.9247	0.6614	0.353
Mof_C 	C 	0.90268	0.37913	0.71235	0.059
Mof_C 	C 	0.0855	0.4649	0.7926	-0.482
Mof_C 	C 	0.31627	0.65487	0.45514	-0.048
Mof_C 	C 	0.58972	0.20682	0.98768	-0.036
Mof_C 	C 	0.59148	0.87913	0.52355	0.059
Mof_C 	C 	0.37086	0.34164	0.75144	-0.016
Mof_C 	C 	0.7412	0.9909	0.6871	-0.37
Mof_C 	C 	0.1453	0.452	0.8269	-0.31
Mof_C 	C 	0.96786	0.1727	0.67344	-0.019
Mof_C 	C 	0.8638	0.43756	0.64864	-0.11
Mof_C 	C 	0.1453	0.5064	0.7657	0.464
Mof_C 	C 	0.6278	0.9897	0.4793	-0.01
Mof_C 	C 	0.63232	0.18918	0.68784	-0.088
Mof_C 	C 	0.80638	0.13358	0.9914	0.062
Mof_C 	C 	0.57585	0.87829	0.47638	0.067
Mof_C 	C 	0.90665	0.13716	0.70075	-0.117
Mof_C 	C 	0.53951	0.85487	0.34216	0.311
Mof_C 	C 	0.9609	0.43497	0.68297	-0.113
Mof_C 	C 	0.91545	0.20668	0.95803	-0.115
Mof_C 	C 	0.39245	0.67438	0.49243	0.045
Mof_C 	C 	0.7575	0.9649	0.6206	-0.48
Mof_C 	C 	0.6945	0.70682	0.3829	-0.035
Mof_C 	C 	0.2429	0.501	0.7423	0.721
Mof_C 	C 	0.61372	0.8417	0.97956	-0.025
Mof_C 	C 	0.6635	0.85778	0.65098	0.29
Mof_C 	C 	0.33791	0.63716	0.76949	-0.114
Mof_C 	C 	0.68517	0.4071	0.65205	-0.083
Mof_C 	C 	0.84952	0.12269	0.06219	-0.026
Mof_C 	C 	0.7433	0.001	0.7419	0.721
Mof_C 	C 	0.92511	0.19866	0.74877	0.063
Mof_C 	C 	0.62498	0.63358	0.6728	0.064
Mof_C 	C 	0.0861	0.4247	0.8342	0.355
Mof_C 	C 	0.34825	0.62603	0.55288	0.088
Mof_C 	C 	0.7789	0.952	0.6933	-0.308
Mof_C 	C 	0.64775	0.47882	0.62667	-0.09
Mof_C 	C 	0.69703	0.35487	0.68464	0.311
Mof_C 	C 	0.44743	0.69866	0.72645	0.065
Mof_C 	C 	0.54717	0.95392	0.25597	-0.02
Mof_C 	C 	0.1799	0.4579	0.7764	0.127
Mof_C 	C 	0.45499	0.73349	0.75558	-0.114
Mof_C 	C 	0.65227	0.60248	0.69873	-0.105
Mof_C 	C 	0.66471	0.70668	0.70877	-0.112
Mof_C 	C 	0.66681	0.17438	0.71807	0.045
Mof_C 	C 	0.27298	0.60862	0.51252	0.012
Mof_C 	C 	0.64404	0.17871	0.94353	0.052
Mof_C 	C 	0.68488	0.62269	0.72683	-0.024
Mof_C 	C 	0.62114	0.10862	0.66436	0.012
Mof_C 	C 	0.34614	0.6727	0.79516	-0.023
Mof_C 	C 	0.67891	0.12603	0.72222	0.088
Mof_C 	C 	0.6546	0.09271	0.69459	-0.139
Mof_C 	C 	0.66334	0.66858	0.44398	-0.111
Mof_C 	C 	0.32282	0.40018	0.7524	-0.109
Mof_C 	C 	0.80121	0.10248	0.04979	-0.102
Mof_C 	C 	0.6145	0.50956	0.62664	0.305
Mof_C 	C 	0.85467	0.37829	0.69756	0.067
Mof_C 	C 	0.9226	0.4909	0.6173	-0.022
Mof_C 	C 	0.64953	0.95962	0.96845	0.06
Mof_C 	C 	0.60549	0.97882	0.16893	-0.091
Mof_C 	C 	0.64707	0.76867	0.3652	-0.129
Mof_C 	C 	0.6082	0.9909	0.4317	-0.022
Mof_C 	C 	0.65258	0.90018	0.92264	-0.109
Mof_C 	C 	0.61256	0.16858	0.99476	-0.112
Mof_C 	C 	0.5862	0.93756	0.42624	-0.109
Mof_C 	C 	0.69033	0.67514	0.73341	-0.014
Mof_C 	C 	0.88763	0.15539	0.73696	0.077
Mof_C 	C 	0.7721	0.0064	0.6389	0.461
Mof_C 	C 	0.39235	0.65539	0.73224	0.075
Mof_C 	C 	0.55915	0.9071	0.27807	-0.083
Mof_C 	C 	0.32126	0.3417	0.77202	-0.026
Mof_C 	C 	0.98907	0.23349	0.7215	-0.11
Mof_C 	C 	0.00876	0.35778	0.80572	0.289
Mof_C 	C 	0.178	0.4909	0.7503	-0.372
Mof_C 	C 	0.37816	0.45856	0.71178	0.067
Mof_C 	C 	0.61794	0.93497	0.52593	-0.113
Mof_C 	C 	0.00808	0.2173	0.68602	-0.02
Mof_C 	C 	0.86333	0.18546	0.94553	0.062
Mof_C 	C 	0.59308	0.84164	0.02922	-0.017
Mof_C 	C 	0.57412	0.9959	0.19362	-0.016
Mof_C 	C 	0.63387	0.26867	0.8784	-0.13
Mof_C 	C 	0.65509	0.22754	0.88629	0.076
Mof_C 	C 	0.63099	0.68546	0.67787	0.061
Mof_C 	C 	0.62224	0.67871	0.46533	0.052
Mof_S 	S 	0.12923	0.41176	0.75883	0.072
Mof_S 	S 	0.63438	0.41197	0.69093	0.063
Mof_S 	S 	0.6029	0.91197	0.22241	0.063
Mof_S 	S 	0.67059	0.91176	0.71747	0.073
Mof_N 	N 	0.43515	0.66443	0.5563	-0.201
Mof_N 	N 	0.82962	0.13324	0.76816	-0.236
Mof_N 	N 	0.4454	0.69486	0.49948	-0.24
Mof_N 	N 	0.71188	0.12194	0.75514	-0.24
Mof_N 	N 	0.57556	0.81494	0.56424	-0.245
Mof_N 	N 	0.68878	0.22735	0.84531	-0.239
Mof_N 	N 	0.67109	0.148	0.93505	-0.242
Mof_N 	N 	0.4528	0.56162	0.64726	-0.209
Mof_N 	N 	0.55536	0.6801	0.51726	-0.208
Mof_N 	N 	0.46094	0.66683	0.66913	-0.203
Mof_N 	N 	0.57266	0.72735	0.46143	-0.239
Mof_N 	N 	0.70639	0.02322	0.87155	-0.231
Mof_N 	N 	0.69736	0.1801	0.87526	-0.208
Mof_N 	N 	0.37708	0.62194	0.58994	-0.24
Mof_N 	N 	0.58305	0.648	0.52309	-0.242
Mof_N 	N 	0.76737	0.12594	0.96309	-0.217
Mof_N 	N 	0.89362	0.2075	0.782	-0.24
Mof_N 	N 	0.55388	0.81733	0.48787	-0.238
Mof_N 	N 	0.67481	0.02358	0.94963	-0.244
Mof_N 	N 	0.4014	0.63324	0.69638	-0.236
Mof_N 	N 	0.4895	0.7075	0.68612	-0.24
Mof_N 	N 	0.8562	0.20626	0.89192	-0.247
Mof_N 	N 	0.58903	0.62594	0.64143	-0.218
Mof_N 	N 	0.55303	0.77965	0.54104	-0.202
Mof_N 	N 	0.39477	0.52322	0.68317	-0.231
Mof_N 	N 	0.83596	0.16683	0.79411	-0.204
Mof_N 	N 	0.79788	0.16777	0.90467	-0.204
Mof_N 	N 	0.47321	0.52358	0.65123	-0.244
Mof_N 	N 	0.70888	0.06162	0.89118	-0.209
Mof_N 	N 	0.59818	0.70626	0.64994	-0.247
Mof_N 	N 	0.87918	0.31494	0.76062	-0.245
Mof_N 	N 	0.82069	0.27965	0.77338	-0.202
Mof_N 	N 	0.57244	0.66777	0.63011	-0.204
Mof_N 	N 	0.8052	0.31733	0.73655	-0.238
Mof_N 	N 	0.72073	0.16443	0.77072	-0.201
Mof_N 	N 	0.69434	0.19486	0.75054	-0.24
Mof_O 	O 	0.2698	0.5689	0.7133	-0.357
Mof_O 	O 	0.5076	0.85066	0.38098	-0.386
Mof_O 	O 	0.57115	0.48333	0.67136	-0.386
Mof_O 	O 	0.70806	0.99481	0.76895	-0.633
Mof_O 	O 	0.6859	0.85357	0.61009	-0.344
Mof_O 	O 	0.26376	0.49481	0.71325	-0.633
Mof_O 	O 	0.56191	0.81959	0.3543	-0.448
Mof_O 	O 	0.64147	0.06372	0.06831	-0.444
Mof_O 	O 	0.00129	0.32205	0.784	-0.454
Mof_O 	O 	0.60605	0.82205	0.67924	-0.454
Mof_O 	O 	0.73164	0.35066	0.65694	-0.386
Mof_O 	O 	0.96366	0.35357	0.83233	-0.343
Mof_O 	O 	0.7822	0.0689	0.7009	-0.358
Mof_O 	O 	0.27611	0.51019	0.77328	-0.395
Mof_O 	O 	0.65469	0.98333	0.08782	-0.387
Mof_O 	O 	0.78347	0.01019	0.76592	-0.395
Mof_O 	O 	0.63203	0.56372	0.57775	-0.444
Mof_O 	O 	0.67389	0.31959	0.74232	-0.448
Mof_Zn	Zn	0.65118	0.43301	0.3193	1.208
Mof_Zn	Zn	0.08431	0.72837	0.19249	1.19
Mof_Zn	Zn	0.47061	0.22561	0.55823	1.187
Mof_Zn	Zn	0.43801	0.43184	0.39593	1.177
Mof_Zn	Zn	0.23695	0.83068	0.16429	1.139
Mof_Zn	Zn	0.28383	0.7256	0.24501	1.187
Mof_Zn	Zn	0.42086	0.22836	0.35594	1.19
Mof_Zn	Zn	0.32777	0.93183	0.00617	1.177
Mof_Zn	Zn	0.49497	0.33068	0.40627	1.139
Mof_Zn	Zn	0.2523	0.933	0.21818	1.208
Mof_H 	H 	0.3754	0.7797	0.3147	0.05
Mof_H 	H 	0.9511	0.7639	0.3308	0.033
Mof_H 	H 	0.058	0.8131	0.9749	0.032
Mof_H 	H 	0.2625	0.542	0.4345	0.044
Mof_H 	H 	0.8386	0.5347	0.1491	0.143
Mof_H 	H 	0.288	0.3131	0.2449	0.033
Mof_H 	H 	0.0471	0.7589	0.0722	0.061
Mof_H 	H 	0.4145	0.7181	0.0732	0.027
Mof_H 	H 	0.6996	0.3955	0.2241	0.099
Mof_H 	H 	0.3302	0.3628	0.5302	0.067
Mof_H 	H 	0.3516	0.9708	0.5226	0.037
Mof_H 	H 	0.1543	0.8971	0.898	0.054
Mof_H 	H 	0.7423	0.4391	0.3998	0.087
Mof_H 	H 	0.008	0.566	0.306	0.067
Mof_H 	H 	0.8371	0.4513	0.2416	-0.109
Mof_H 	H 	0.2971	0.4684	0.4605	0.039
Mof_H 	H 	0.1674	0.5603	0.3611	0.066
Mof_H 	H 	0.3522	0.4325	0.3035	0.074
Mof_H 	H 	0.9404	0.5257	0.1941	0.207
Mof_H 	H 	0.4289	0.9684	0.8287	0.04
Mof_H 	H 	0.1929	0.9513	0.3858	-0.108
Mof_H 	H 	0.4765	0.042	0.7205	0.043
Mof_H 	H 	0.4322	0.1986	0.934	0.037
Mof_H 	H 	0.393	0.8628	0.9674	0.068
Mof_H 	H 	0.3894	0.9712	0.5964	0.038
Mof_H 	H 	0.3988	0.1988	0.0156	0.052
Mof_H 	H 	0.5417	0.5988	0.3061	0.061
Mof_H 	H 	0.2951	0.3971	0.2572	0.053
Mof_H 	H 	0.4049	0.0988	0.9429	0.062
Mof_H 	H 	0.5947	0.2639	0.1872	0.031
Mof_H 	H 	0.3947	0.9123	0.3548	0.03
Mof_H 	H 	0.6873	0.3327	0.1836	0.04
Mof_H 	H 	0.3574	0.198	0.6604	0.088
Mof_H 	H 	0.4214	0.0603	0.6071	0.066
Mof_H 	H 	0.6326	0.6986	0.2336	0.036
Mof_H 	H 	0.3584	0.698	0.1594	0.088
Mof_H 	H 	0.0676	0.4712	0.4182	0.037
Mof_H 	H 	0.5076	0.2353	0.2493	0.07
Mof_H 	H 	0.1196	0.8955	0.3041	0.099
Mof_H 	H 	0.3311	0.2589	0.2882	0.06
Mof_H 	H 	0.0163	0.8327	0.3546	0.039
Mof_H 	H 	0.9406	0.5791	0.1373	-0.079
Mof_H 	H 	0.236	0.9325	0.9197	0.073
Mof_H 	H 	0.2913	0.2181	0.6964	0.027
Mof_H 	H 	0.7144	0.6988	0.2	0.052
Mof_H 	H 	0.4333	0.8002	0.9787	0.037
Mof_H 	H 	0.7671	0.4123	0.4824	0.03
Mof_H 	H 	0.4136	0.8367	0.3593	0.06
Mof_H 	H 	0.696	0.3367	0.5769	0.06
Mof_H 	H 	0.9934	0.4708	0.3808	0.037
Mof_H 	H 	0.2198	0.0257	0.4147	0.206
Mof_H 	H 	0.2789	0.3002	0.6331	0.036
Mof_H 	H 	0.9846	0.7353	0.2723	0.068
Mof_H 	H 	0.372	0.066	0.442	0.067
Mof_H 	H 	0.5944	0.2797	0.5957	0.05
Mof_H 	H 	0.3389	0.9391	0.3032	0.087
Mof_H 	H 	0.7106	0.6002	0.2344	0.079
Mof_H 	H 	0.1838	0.0347	0.3039	0.143
Mof_H 	H 	0.2164	0.0791	0.3615	-0.079
Mof_H 	H 	0.3346	0.1002	0.1104	0.079
Mof_C 	C 	0.44085	0.0929	0.72193	-0.083
Mof_C 	C 	0.37502	0.36642	0.3272	0.064
Mof_C 	C 	0.3055	0.29318	0.6171	-0.035
Mof_C 	C 	0.67874	0.6583	0.22798	-0.026
Mof_C 	C 	0.3855	0.49044	0.37336	0.305
Mof_C 	C 	0.31048	0.5041	0.42178	-0.014
Mof_C 	C 	0.3918	0.0091	0.5683	-0.022
Mof_C 	C 	0.14533	0.62171	0.30244	0.067
Mof_C 	C 	0.36901	0.31454	0.32213	0.061
Mof_C 	C 	0.33529	0.29332	0.29123	-0.112
Mof_C 	C 	0.35596	0.82129	0.05647	0.052
Mof_C 	C 	0.33319	0.82562	0.28193	0.045
Mof_C 	C 	0.8547	0.548	0.1731	-0.31
Mof_C 	C 	0.39451	0.02118	0.83107	-0.091
Mof_C 	C 	0.57193	0.54038	0.31009	0.059
Mof_C 	C 	0.4138	0.06244	0.57376	-0.109
Mof_C 	C 	0.13667	0.81454	0.05447	0.062
Mof_C 	C 	0.01093	0.76651	0.2785	-0.11
Mof_C 	C 	0.19362	0.86642	0.0086	0.062
Mof_C 	C 	0.9145	0.5351	0.2074	-0.482
Mof_C 	C 	0.29011	0.54608	0.40675	-0.021
Mof_C 	C 	0.36768	0.81082	0.31216	-0.088
Mof_C 	C 	0.38206	0.06503	0.47407	-0.113
Mof_C 	C 	0.8201	0.5421	0.2236	0.127
Mof_C 	C 	0.40852	0.12087	0.47645	0.059
Mof_C 	C 	0.31483	0.5929	0.34795	-0.083
Mof_C 	C 	0.7571	0.499	0.2577	0.721
Mof_C 	C 	0.09335	0.86284	0.29925	-0.117
Mof_C 	C 	0.41028	0.79318	0.01232	-0.036
Mof_C 	C 	0.37886	0.89138	0.33564	0.012
Mof_C 	C 	0.3365	0.14222	0.34902	0.29
Mof_C 	C 	0.35225	0.52118	0.37333	-0.09
Mof_C 	C 	0.09145	0.82486	0.98481	-0.01
Mof_C 	C 	0.46049	0.14513	0.65784	0.311
Mof_C 	C 	0.60755	0.32562	0.50757	0.045
Mof_C 	C 	0.37776	0.32129	0.53467	0.052
Mof_C 	C 	0.54501	0.26651	0.24442	-0.114
Mof_C 	C 	0.2567	0.999	0.2581	0.721
Mof_C 	C 	0.45283	0.04608	0.74403	-0.02
Mof_C 	C 	0.40692	0.15836	0.97078	-0.017
Mof_C 	C 	0.9139	0.5753	0.1658	0.355
Mof_C 	C 	0.35293	0.23133	0.6348	-0.129
Mof_C 	C 	0.65175	0.37397	0.44712	0.088
Mof_C 	C 	0.11237	0.84461	0.26304	0.077
Mof_C 	C 	0.19879	0.89752	0.95021	-0.102
Mof_C 	C 	0.8547	0.4936	0.2343	0.464
Mof_C 	C 	0.2657	0.0421	0.278	0.125
Mof_C 	C 	0.7127	0.40729	0.43811	-0.139
Mof_C 	C 	0.59668	0.2827	0.20922	-0.015
Mof_C 	C 	0.62914	0.65836	0.24856	-0.016
Mof_C 	C 	0.36613	0.73133	0.1216	-0.13
Mof_C 	C 	0.65386	0.3273	0.20484	-0.023
Mof_C 	C 	0.38617	0.27246	0.57245	0.076
Mof_C 	C 	0.30297	0.64513	0.31536	0.311
Mof_C 	C 	0.3638	0.99044	0.89506	0.307
Mof_C 	C 	0.55257	0.30134	0.27355	0.065
Mof_C 	C 	0.34491	0.77246	0.11371	0.076
Mof_C 	C 	0.2425	0.0351	0.3794	-0.48
Mof_C 	C 	0.57452	0.59913	0.29117	-0.117
Mof_C 	C 	0.15048	0.87731	0.93781	-0.026
Mof_C 	C 	0.62298	0.31082	0.55686	-0.088
Mof_C 	C 	0.72702	0.39138	0.48748	0.012
Mof_C 	C 	0.60765	0.34461	0.26776	0.075
Mof_C 	C 	0.3903	0.09913	0.97539	-0.118
Mof_C 	C 	0.09732	0.62087	0.28765	0.059
Mof_C 	C 	0.2411	0.0753	0.3386	0.353
Mof_C 	C 	0.33666	0.33142	0.55602	-0.111
Mof_C 	C 	0.2588	0.0091	0.3129	-0.37
Mof_C 	C 	0.32109	0.87397	0.27778	0.088
Mof_C 	C 	0.30967	0.32486	0.26659	-0.014
Mof_C 	C 	0.07489	0.80134	0.25123	0.063
Mof_C 	C 	0.32966	0.04144	0.0804	0.067
Mof_C 	C 	0.62184	0.54144	0.28822	0.067
Mof_C 	C 	0.93249	0.59711	0.20242	-0.077
Mof_C 	C 	0.38744	0.83142	0.00524	-0.112
Mof_C 	C 	0.31344	0.24361	0.65549	-0.006
Mof_C 	C 	0.822	0.5091	0.2497	-0.372
Mof_C 	C 	0.34773	0.39752	0.30127	-0.105
Mof_C 	C 	0.34742	0.09982	0.07736	-0.109
Mof_C 	C 	0.35047	0.04038	0.03155	0.06
Mof_C 	C 	0.68373	0.34513	0.54486	-0.048
Mof_C 	C 	0.38628	0.1583	0.02044	-0.025
Mof_C 	C 	0.3722	0.0103	0.5207	-0.01
Mof_C 	C 	0.29953	0.09711	0.33538	-0.078
Mof_C 	C 	0.3454	0.90729	0.30541	-0.139
Mof_C 	C 	0.1362	0.56244	0.35136	-0.11
Mof_C 	C 	0.38999	0.84513	0.3386	-0.048
Mof_C 	C 	0.99192	0.7827	0.31398	-0.02
Mof_C 	C 	0.42415	0.12171	0.52362	0.067
Mof_C 	C 	0.3991	0.74361	0.06983	-0.005
Mof_C 	C 	0.2279	0.9936	0.3611	0.461
Mof_C 	C 	0.08455	0.79332	0.04197	-0.115
Mof_C 	C 	0.31512	0.37731	0.27317	-0.024
Mof_C 	C 	0.2211	0.048	0.3067	-0.308
Mof_C 	C 	0.031	0.5103	0.3619	-0.01
Mof_C 	C 	0.0391	0.56503	0.31703	-0.113
Mof_C 	C 	0.0774	0.5091	0.3827	-0.022
Mof_C 	C 	0.03214	0.8273	0.32656	-0.019
Mof_C 	C 	0.67718	0.59982	0.2476	-0.109
Mof_C 	C 	0.66209	0.36284	0.23051	-0.114
Mof_C 	C 	0.42588	0.0041	0.80638	-0.016
Mof_C 	C 	0.99124	0.64222	0.19428	0.289
Mof_S 	S 	0.32941	0.08824	0.28253	0.073
Mof_S 	S 	0.3971	0.08803	0.77759	0.063
Mof_S 	S 	0.36562	0.58803	0.30907	0.063
Mof_S 	S 	0.87077	0.58824	0.24117	0.072
Mof_N 	N 	0.42444	0.18506	0.43576	-0.245
Mof_N 	N 	0.27927	0.83557	0.22928	-0.201
Mof_N 	N 	0.41097	0.37406	0.35857	-0.218
Mof_N 	N 	0.5472	0.43838	0.35274	-0.209
Mof_N 	N 	0.52679	0.47642	0.34877	-0.244
Mof_N 	N 	0.31122	0.77265	0.15469	-0.239
Mof_N 	N 	0.44697	0.22035	0.45896	-0.202
Mof_N 	N 	0.40182	0.29374	0.35006	-0.247
Mof_N 	N 	0.32891	0.852	0.06495	-0.242
Mof_N 	N 	0.32519	0.97642	0.05037	-0.244
Mof_N 	N 	0.12082	0.68506	0.23938	-0.245
Mof_N 	N 	0.30566	0.80514	0.24946	-0.24
Mof_N 	N 	0.1438	0.79374	0.10808	-0.247
Mof_N 	N 	0.56485	0.33557	0.4437	-0.201
Mof_N 	N 	0.17038	0.86676	0.23184	-0.236
Mof_N 	N 	0.44612	0.18267	0.51213	-0.238
Mof_N 	N 	0.20212	0.83223	0.09533	-0.204
Mof_N 	N 	0.30264	0.8199	0.12474	-0.208
Mof_N 	N 	0.28812	0.87806	0.24486	-0.24
Mof_N 	N 	0.53906	0.33317	0.33087	-0.203
Mof_N 	N 	0.29112	0.93838	0.10882	-0.209
Mof_N 	N 	0.16404	0.83317	0.20589	-0.204
Mof_N 	N 	0.29361	0.97678	0.12845	-0.231
Mof_N 	N 	0.1948	0.68267	0.26345	-0.238
Mof_N 	N 	0.60523	0.47678	0.31683	-0.231
Mof_N 	N 	0.23263	0.87406	0.03691	-0.217
Mof_N 	N 	0.5546	0.30514	0.50052	-0.24
Mof_N 	N 	0.5986	0.36676	0.30362	-0.236
Mof_N 	N 	0.10638	0.7925	0.218	-0.24
Mof_N 	N 	0.41695	0.352	0.47691	-0.242
Mof_N 	N 	0.42734	0.27265	0.53857	-0.239
Mof_N 	N 	0.44464	0.3199	0.48274	-0.208
Mof_N 	N 	0.17931	0.72035	0.22662	-0.202
Mof_N 	N 	0.42756	0.33223	0.36989	-0.204
Mof_N 	N 	0.62292	0.37806	0.41006	-0.24
Mof_N 	N 	0.5105	0.2925	0.31388	-0.24
Mof_O 	O 	0.99871	0.67795	0.216	-0.454
Mof_O 	O 	0.34531	0.01667	0.91218	-0.387
Mof_O 	O 	0.73624	0.50519	0.28675	-0.633
Mof_O 	O 	0.42885	0.51667	0.32864	-0.386
Mof_O 	O 	0.43809	0.18041	0.6457	-0.448
Mof_O 	O 	0.21653	0.98981	0.23408	-0.395
Mof_O 	O 	0.32611	0.68041	0.25768	-0.448
Mof_O 	O 	0.4924	0.14934	0.61902	-0.386
Mof_O 	O 	0.35853	0.93628	0.93169	-0.444
Mof_O 	O 	0.29194	0.00519	0.23105	-0.633
Mof_O 	O 	0.72389	0.48981	0.22672	-0.395
Mof_O 	O 	0.7302	0.4311	0.2867	-0.357
Mof_O 	O 	0.2178	0.9311	0.2991	-0.358
Mof_O 	O 	0.39395	0.17795	0.32076	-0.454
Mof_O 	O 	0.26836	0.64934	0.34306	-0.386
Mof_O 	O 	0.36797	0.43628	0.42225	-0.444
Mof_O 	O 	0.3141	0.14643	0.38991	-0.344
Mof_O 	O 	0.03634	0.64643	0.16767	-0.343
Mof_Zn	Zn	0.33571	0.59876	0.99497	1.139
Mof_Zn	Zn	0.255	0.47117	0.97061	1.187
Mof_Zn	Zn	0.49383	0.66606	0.93801	1.177
Mof_Zn	Zn	0.09373	0.09876	0.73695	1.138
Mof_Zn	Zn	0.1807	0.02952	0.7523	1.208
Mof_Zn	Zn	0.14406	0.2232	0.5843	1.19
Mof_Zn	Zn	0.94177	0.97116	0.78384	1.186
Mof_Zn	Zn	0.10406	0.16605	0.82778	1.177
Mof_Zn	Zn	0.3075	0.72319	0.92086	1.19
Mof_Zn	Zn	0.28183	0.52953	0.15117	1.208
Mof_H 	H 	0.3059	0.8655	0.7198	0.208
Mof_H 	H 	0.566	0.6338	0.1326	0.036
Mof_H 	H 	0.2759	0.0763	0.6196	0.098
Mof_H 	H 	0.5571	0.6522	0.0417	0.061
Mof_H 	H 	0.9231	0.7271	0.9136	0.06
Mof_H 	H 	0.602	0.9477	0.7951	0.053
Mof_H 	H 	0.1452	0.2505	0.2671	0.029
Mof_H 	H 	0.8929	0.9715	0.6674	0.066
Mof_H 	H 	0.2428	0.4477	0.6543	0.053
Mof_H 	H 	0.3509	0.0123	0.6838	0.143
Mof_H 	H 	0.4278	0.8807	0.8311	0.06
Mof_H 	H 	0.1454	0.6291	0.1873	0.04
Mof_H 	H 	0.2507	0.2431	0.4846	0.07
Mof_H 	H 	0.9043	0.8099	0.8754	0.05
Mof_H 	H 	0.1939	0.1522	0.9049	0.061
Mof_H 	H 	0.1853	0.3099	0.0944	0.05
Mof_H 	H 	0.8396	0.9822	0.8584	0.088
Mof_H 	H 	0.3164	0.1291	0.5163	0.04
Mof_H 	H 	0.7795	0.803	0.7625	0.044
Mof_H 	H 	0.5251	0.9671	0.788	0.033
Mof_H 	H 	0.3128	0.2181	0.4511	0.031
Mof_H 	H 	0.9698	0.1396	0.893	0.067
Mof_H 	H 	0.1961	0.5123	0.3386	0.143
Mof_H 	H 	0.1385	0.4221	0.4406	-0.079
Mof_H 	H 	0.3	0.0856	0.8988	0.052
Mof_H 	H 	0.0395	0.2424	0.9289	0.038
Mof_H 	H 	0.9774	0.1258	0.4934	0.036
Mof_H 	H 	0.0655	0.303	0.9765	0.044
Mof_H 	H 	0.8036	0.0123	0.9145	0.027
Mof_H 	H 	0.1142	0.4213	0.3371	-0.109
Mof_H 	H 	0.1959	0.5763	0.1996	0.099
Mof_H 	H 	0.1968	0.3579	0.2423	0.087
Mof_H 	H 	0.3896	0.555	0.2106	0.079
Mof_H 	H 	0.1192	0.6258	0.8516	0.037
Mof_H 	H 	0.2277	0.7431	0.0076	0.07
Mof_H 	H 	0.194	0.686	0.872	0.067
Mof_H 	H 	0.3406	0.4822	0.8574	0.088
Mof_H 	H 	0.3627	0.9221	0.7164	-0.079
Mof_H 	H 	0.0176	0.7505	0.8947	0.029
Mof_H 	H 	0.5213	0.588	0.7789	0.036
Mof_H 	H 	0.4844	0.5856	0.2144	0.052
Mof_H 	H 	0.6713	0.7424	0.7971	0.039
Mof_H 	H 	0.0853	0.3655	0.4404	0.207
Mof_H 	H 	0.5326	0.6396	0.8302	0.067
Mof_H 	H 	0.2656	0.055	0.8346	0.078
Mof_H 	H 	0.9036	0.0142	0.5676	0.038
Mof_H 	H 	0.1407	0.2271	0.196	0.06
Mof_H 	H 	0.058	0.186	0.508	0.068
Mof_H 	H 	0.2551	0.4671	0.558	0.033
Mof_H 	H 	0.2118	0.3807	0.5471	0.06
Mof_H 	H 	0.1002	0.8579	0.8389	0.088
Mof_H 	H 	0.1692	0.7181	0.0947	0.031
Mof_H 	H 	0.0818	0.5142	0.8894	0.037
Mof_H 	H 	0.2584	0.9213	0.6929	-0.11
Mof_H 	H 	0.8669	0.088	0.9333	0.036
Mof_H 	H 	0.5803	0.8443	0.8522	0.074
Mof_H 	H 	0.4268	0.5123	0.7913	0.027
Mof_H 	H 	0.1965	0.3443	0.736	0.074
Mof_H 	H 	0.1389	0.4715	0.9214	0.066
Mof_H 	H 	0.2664	0.1338	0.9322	0.036
Mof_C 	C 	0.92755	0.04138	0.84491	0.076
Mof_C 	C 	0.38629	0.54138	0.88617	0.076
Mof_C 	C 	0.3784	0.51227	0.85293	-0.129
Mof_C 	C 	0.1728	0.29778	0.69362	0.064
Mof_C 	C 	0.2423	0.9852	0.7567	0.722
Mof_C 	C 	0.02593	0.14387	0.5391	-0.115
Mof_C 	C 	0.29078	0.1941	0.49192	-0.015
Mof_C 	C 	0.16436	0.2855	0.22702	0.012
Mof_C 	C 	0.01252	0.7855	0.87886	0.014
Mof_C 	C 	0.2524	0.07522	0.84742	-0.109
Mof_C 	C 	0.1933	0.4722	0.3547	-0.31
Mof_C 	C 	0.18602	0.6941	0.09668	-0.015
Mof_C 	C 	0.29516	0.1413	0.53214	-0.023
Mof_C 	C 	0.96533	0.08757	0.85596	0.052
Mof_C 	C 	0.14864	0.51244	0.9138	-0.11
Mof_C 	C 	0.1381	0.6071	0.8722	-0.01
Mof_C 	C 	0.60494	0.74114	0.8855	0.305
Mof_C 	C 	0.24877	0.67388	0.05257	0.065
Mof_C 	C 	0.20075	0.6074	0.16209	-0.114
Mof_C 	C 	0.2764	0.9563	0.7657	0.129
Mof_C 	C 	0.22683	0.41171	0.65048	-0.024
Mof_C 	C 	0.19873	0.351	0.69879	-0.105
Mof_C 	C 	0.44553	0.80886	0.86901	0.061
Mof_C 	C 	0.2215	0.71057	0.04501	-0.114
Mof_C 	C 	0.45803	0.87348	0.83529	-0.112
Mof_C 	C 	0.49476	0.60732	0.83666	-0.111
Mof_C 	C 	0.92624	0.01244	0.6362	-0.108
Mof_C 	C 	0.66893	0.77442	0.85225	-0.09
Mof_C 	C 	0.69362	0.76774	0.81048	-0.014
Mof_C 	C 	0.4196	0.58994	0.12184	0.067
Mof_C 	C 	0.12664	0.24114	0.8638	0.305
Mof_C 	C 	0.2419	0.4852	0.2571	0.721
Mof_C 	C 	0.21235	0.61503	0.90852	0.059
Mof_C 	C 	0.48768	0.5774	0.8055	-0.035
Mof_C 	C 	0.22222	0.40113	0.15175	0.088
Mof_C 	C 	0.9793	0.1071	0.531	-0.007
Mof_C 	C 	0.25144	0.1223	0.90692	-0.016
Mof_C 	C 	0.222	0.4563	0.3201	0.127
Mof_C 	C 	0.19459	0.34919	0.2127	-0.139
Mof_C 	C 	0.1871	0.4283	0.322	-0.372
Mof_C 	C 	0.09325	0.30314	0.95283	-0.021
Mof_C 	C 	0.23341	0.42374	0.59145	-0.014
Mof_C 	C 	0.23224	0.12459	0.61237	0.075
Mof_C 	C 	0.42264	0.57522	0.17718	-0.109
Mof_C 	C 	0.18991	0.11798	0.85047	0.059
Mof_C 	C 	0.84216	0.88167	0.80297	0.311
Mof_C 	C 	0.30572	0.81448	0.8365	0.29
Mof_C 	C 	0.15098	0.31448	0.49124	0.29
Mof_C 	C 	0.20877	0.37348	0.58455	-0.112
Mof_C 	C 	0.3269	0.9722	0.7211	-0.31
Mof_C 	C 	0.18784	0.32016	0.12298	-0.088
Mof_C 	C 	0.44353	0.58757	0.87776	0.052
Mof_C 	C 	0.1173	0.5399	0.8918	-0.022
Mof_C 	C 	0.20883	0.13431	0.8903	-0.117
Mof_C 	C 	0.94398	0.10732	0.88744	-0.112
Mof_C 	C 	0.2503	0.9283	0.7588	-0.375
Mof_C 	C 	0.21178	0.08994	0.82966	0.067
Mof_C 	C 	0.25558	0.21057	0.51093	-0.115
Mof_C 	C 	0.23696	0.62459	0.10765	0.075
Mof_C 	C 	0.52461	0.63431	0.07452	-0.117
Mof_C 	C 	0.99243	0.88488	0.83319	0.044
Mof_C 	C 	0.2926	0.8781	0.7425	-0.485
Mof_C 	C 	0.51519	0.92374	0.80967	-0.014
Mof_C 	C 	0.8829	0.0774	0.91028	-0.035
Mof_C 	C 	0.54979	0.851	0.84773	-0.105
Mof_C 	C 	0.1614	0.27141	0.18373	-0.048
Mof_C 	C 	0.17787	0.30886	0.63667	0.061
Mof_C 	C 	0.43017	0.53107	0.81344	-0.006
Mof_C 	C 	0.07822	0.26774	0.92588	-0.014
Mof_C 	C 	0.9317	0.0399	0.5774	-0.023
Mof_C 	C 	0.19756	0.55223	0.92415	0.067
Mof_C 	C 	0.06189	0.84919	0.8454	-0.14
Mof_C 	C 	0.02355	0.11503	0.59732	0.059
Mof_C 	C 	0.4914	0.79778	0.87502	0.064
Mof_C 	C 	0.56219	0.91171	0.81512	-0.024
Mof_C 	C 	0.46845	0.61798	0.07193	0.059
Mof_C 	C 	0.77807	0.83722	0.81483	-0.083
Mof_C 	C 	0.15205	0.33722	0.94085	-0.083
Mof_C 	C 	0.27202	0.09328	0.88628	-0.026
Mof_C 	C 	0.2657	0.911	0.7279	0.467
Mof_C 	C 	0.84451	0.03107	0.8991	-0.006
Mof_C 	C 	0.94314	0.82016	0.86768	-0.087
Mof_C 	C 	0.75597	0.80314	0.79011	-0.021
Mof_C 	C 	0.17344	0.6413	0.15386	-0.023
Mof_C 	C 	0.47956	0.59328	0.17874	-0.026
Mof_C 	C 	0.95514	0.77141	0.88999	-0.05
Mof_C 	C 	0.1389	0.411	0.3547	0.463
Mof_C 	C 	0.29758	0.86509	0.79953	-0.077
Mof_C 	C 	0.52922	0.6223	0.12914	-0.016
Mof_C 	C 	0.3342	0.9203	0.7411	0.356
Mof_C 	C 	0.18464	0.38167	0.96049	0.311
Mof_C 	C 	0.1614	0.4203	0.4139	0.355
Mof_C 	C 	0.21807	0.38488	0.10755	0.045
Mof_C 	C 	0.1206	0.3781	0.4145	-0.482
Mof_C 	C 	0.8652	0.01227	0.86613	-0.129
Mof_C 	C 	0.97638	0.05223	0.64533	0.067
Mof_C 	C 	0.05288	0.90113	0.82109	0.089
Mof_C 	C 	0.12667	0.27442	0.89451	-0.09
Mof_C 	C 	0.26949	0.1074	0.59335	-0.114
Mof_C 	C 	0.16462	0.36509	0.43249	-0.078
Mof_C 	C 	0.18297	0.64387	0.88206	-0.113
Mof_C 	C 	0.22645	0.17388	0.57489	0.065
Mof_S 	S 	0.72241	0.82531	0.86562	0.063
Mof_S 	S 	0.21747	0.38806	0.37077	0.072
Mof_S 	S 	0.25883	0.88806	0.82941	0.072
Mof_S 	S 	0.19093	0.32531	0.8971	0.063
Mof_N 	N 	0.13011	0.20255	0.70212	-0.204
Mof_N 	N 	0.19638	0.09778	0.67038	-0.236
Mof_N 	N 	0.02309	0.10614	0.82891	-0.242
Mof_N 	N 	0.37155	0.57794	0.10523	-0.231
Mof_N 	N 	0.06424	0.1398	0.62082	-0.246
Mof_N 	N 	0.23655	0.54175	0.94612	-0.238
Mof_N 	N 	0.98787	0.04175	0.6948	-0.238
Mof_N 	N 	0.46309	0.73046	0.91097	-0.217
Mof_N 	N 	0.18317	0.07794	0.79361	-0.231
Mof_N 	N 	0.0563	0.99145	0.77927	-0.2
Mof_N 	N 	0.16913	0.13007	0.66404	-0.204
Mof_N 	N 	0.18612	0.17562	0.60638	-0.24
Mof_N 	N 	0.26062	0.6398	0.92444	-0.245
Mof_N 	N 	0.15123	0.12444	0.82519	-0.244
Mof_N 	N 	0.14994	0.24812	0.6438	-0.247
Mof_N 	N 	0.08994	0.96702	0.78812	-0.24
Mof_N 	N 	0.14143	0.23046	0.73263	-0.218
Mof_N 	N 	0.44963	0.62444	0.02679	-0.244
Mof_N 	N 	0.99948	0.94488	0.80566	-0.24
Mof_N 	N 	0.43505	0.60614	0.91695	-0.241
Mof_N 	N 	0.14726	0.10006	0.79112	-0.21
Mof_N 	N 	0.26816	0.59778	0.0986	-0.236
Mof_N 	N 	0.34531	0.53409	0.92734	-0.239
Mof_N 	N 	0.29411	0.63007	0.03906	-0.204
Mof_N 	N 	0.282	0.67562	0.0105	-0.24
Mof_N 	N 	0.04104	0.09407	0.67931	-0.202
Mof_N 	N 	0.25054	0.44488	0.0546	-0.24
Mof_N 	N 	0.39118	0.60006	0.0472	-0.209
Mof_N 	N 	0.37526	0.57262	0.94464	-0.208
Mof_N 	N 	0.27072	0.49145	0.06485	-0.201
Mof_N 	N 	0.96143	0.03409	0.81122	-0.239
Mof_N 	N 	0.01726	0.07262	0.80264	-0.209
Mof_N 	N 	0.27338	0.59407	0.94697	-0.202
Mof_N 	N 	0.40467	0.70255	0.92756	-0.204
Mof_N 	N 	0.39192	0.74812	0.90182	-0.247
Mof_N 	N 	0.25514	0.46702	0.12292	-0.24
Mof_O 	O 	0.58782	0.74251	0.92885	-0.385
Mof_O 	O 	0.17136	0.24251	0.84531	-0.386
Mof_O 	O 	0.07775	0.20978	0.85853	-0.444
Mof_O 	O 	0.33233	0.79599	0.8141	-0.344
Mof_O 	O 	0.2009	0.4831	0.2302	-0.358
Mof_O 	O 	0.11009	0.29599	0.53634	-0.344
Mof_O 	O 	0.8543	0.91621	0.82611	-0.448
Mof_O 	O 	0.27328	0.04939	0.71653	-0.396
Mof_O 	O 	0.88098	0.88858	0.76836	-0.386
Mof_O 	O 	0.2133	0.9831	0.7178	-0.357
Mof_O 	O 	0.26895	0.47701	0.23624	-0.633
Mof_O 	O 	0.24232	0.41621	0.93809	-0.448
Mof_O 	O 	0.284	0.78529	0.89395	-0.454
Mof_O 	O 	0.56831	0.70978	0.86797	-0.444
Mof_O 	O 	0.21325	0.97701	0.79194	-0.633
Mof_O 	O 	0.15694	0.38858	0.9924	-0.386
Mof_O 	O 	0.26592	0.54939	0.22389	-0.395
Mof_O 	O 	0.17924	0.28529	0.49871	-0.454
_end
