data_functionalizedCrystal
_audit_creation_method	'EQeq! by Chris Wilmer'
_symmetry_space_group_name_H-M	'P1'
_symmetry_Int_Tables_number	1
_symmetry_cell_setting	triclinic
loop_
_symmetry_equiv_pos_as_xyz
  x,y,z
_cell_length_a	10.6186
_cell_length_b	15.7795
_cell_length_c	14.162
_cell_angle_alpha	90
_cell_angle_beta	130.43
_cell_angle_gamma	90
loop_
_atom_site_label
_atom_site_type_symbol
_atom_site_fract_x
_atom_site_fract_y
_atom_site_fract_z
_atom_site_charge
Mof_C 	C 	0.9941	0.4445	0.3841	0.148
Mof_H 	H 	0.9914	0.4219	0.4434	0.011
Mof_C 	C 	0.0859	0.4897	0.2962	-0.048
Mof_C 	C 	0.9138	0.4943	0.212	0.025
Mof_C 	C 	0.2157	0.5115	0.2903	0.312
Mof_C 	C 	0.7842	0.5241	0.0816	0.308
Mof_C 	C 	0.4806	0.2463	0.5835	0.112
Mof_H 	H 	0.452	0.2417	0.5062	0.021
Mof_C 	C 	0.524	0.2988	0.7418	0.001
Mof_C 	C 	0.5593	0.2126	0.7615	-0.053
Mof_C 	C 	0.5259	0.3632	0.8178	0.292
Mof_C 	C 	0.6132	0.1578	0.8637	0.374
Mof_N 	N 	0.1341	0.4583	0.4056	-0.148
Mof_N 	N 	0.8586	0.4656	0.271	-0.141
Mof_N 	N 	0.4727	0.3191	0.6278	-0.134
Mof_N 	N 	0.5335	0.1808	0.6612	-0.125
Mof_O 	O 	0.1849	0.5418	0.1959	-0.282
Mof_O 	O 	0.3627	0.4972	0.3885	-0.281
Mof_O 	O 	0.814	0.5396	0.012	-0.273
Mof_O 	O 	0.6436	0.5331	0.0483	-0.289
Mof_O 	O 	0.4645	0.4344	0.7666	-0.278
Mof_O 	O 	0.5819	0.3446	0.9249	-0.263
Mof_O 	O 	0.641	0.1896	0.9601	-0.47
Mof_H 	H 	0.6234	0.2407	0.9505	0.312
Mof_O 	O 	0.6286	0.081	0.8559	-0.293
Mof_Cd	Cd	0.40641	0.45657	0.57049	0.475
Mof_Cd	Cd	0.42036	0.54315	0.84355	0.483
Mof_C 	C 	0.0059	0.9445	0.1159	0.074
Mof_H 	H 	0.0086	0.9219	0.0566	0.012
Mof_C 	C 	0.9141	0.9897	0.2038	0.055
Mof_C 	C 	0.0862	0.9943	0.288	-0.045
Mof_C 	C 	0.7843	0.0115	0.2097	0.246
Mof_C 	C 	0.2158	0.0241	0.4184	0.314
Mof_C 	C 	0.5194	0.7463	0.9165	0.115
Mof_H 	H 	0.548	0.7417	0.9938	0.03
Mof_C 	C 	0.476	0.7988	0.7582	0.002
Mof_C 	C 	0.4407	0.7126	0.7385	-0.053
Mof_C 	C 	0.4741	0.8632	0.6822	0.293
Mof_C 	C 	0.3868	0.6578	0.6363	0.374
Mof_N 	N 	0.8659	0.9583	0.0944	-0.127
Mof_N 	N 	0.1414	0.9656	0.229	-0.124
Mof_N 	N 	0.5273	0.8191	0.8722	-0.131
Mof_N 	N 	0.4665	0.6808	0.8388	-0.123
Mof_O 	O 	0.8151	0.0418	0.3041	-0.25
Mof_O 	O 	0.6373	0.9972	0.1115	-0.248
Mof_O 	O 	0.186	0.0396	0.488	-0.293
Mof_O 	O 	0.3564	0.0331	0.4517	-0.294
Mof_O 	O 	0.5355	0.9344	0.7334	-0.27
Mof_O 	O 	0.4181	0.8446	0.5751	-0.269
Mof_O 	O 	0.359	0.6896	0.5399	-0.479
Mof_H 	H 	0.3766	0.7407	0.5495	0.31
Mof_O 	O 	0.3714	0.581	0.6441	-0.293
Mof_Cd	Cd	0.59359	0.95657	0.92951	0.495
Mof_Cd	Cd	0.57964	0.04315	0.65645	0.47
Mof_C 	C 	0.0059	0.5555	0.6159	0.077
Mof_H 	H 	0.0086	0.5781	0.5566	0.013
Mof_C 	C 	0.9141	0.5103	0.7038	0.03
Mof_C 	C 	0.0862	0.5057	0.788	-0.047
Mof_C 	C 	0.7843	0.4885	0.7097	0.291
Mof_C 	C 	0.2158	0.4759	0.9184	0.325
Mof_C 	C 	0.5194	0.7537	0.4165	0.113
Mof_H 	H 	0.548	0.7583	0.4938	0.026
Mof_C 	C 	0.476	0.7012	0.2582	-0
Mof_C 	C 	0.4407	0.7874	0.2385	-0.053
Mof_C 	C 	0.4741	0.6368	0.1822	0.294
Mof_C 	C 	0.3868	0.8422	0.1363	0.371
Mof_N 	N 	0.8659	0.5417	0.5944	-0.122
Mof_N 	N 	0.1414	0.5344	0.729	-0.126
Mof_N 	N 	0.5273	0.6809	0.3722	-0.132
Mof_N 	N 	0.4665	0.8192	0.3388	-0.125
Mof_O 	O 	0.8151	0.4582	0.8041	-0.251
Mof_O 	O 	0.6373	0.5028	0.6115	-0.272
Mof_O 	O 	0.186	0.4604	0.988	-0.28
Mof_O 	O 	0.3564	0.4669	0.9517	-0.281
Mof_O 	O 	0.5355	0.5656	0.2334	-0.279
Mof_O 	O 	0.4181	0.6554	0.0751	-0.278
Mof_O 	O 	0.359	0.8104	0.0399	-0.481
Mof_H 	H 	0.3766	0.7593	0.0495	0.308
Mof_O 	O 	0.3714	0.919	0.1441	-0.287
Mof_Cd	Cd	0.59359	0.54343	0.42951	0.48
Mof_Cd	Cd	0.57964	0.45685	0.15645	0.471
Mof_C 	C 	0.9941	0.0555	0.8841	0.142
Mof_H 	H 	0.9914	0.0781	0.9434	0.013
Mof_C 	C 	0.0859	0.0103	0.7962	-0.054
Mof_C 	C 	0.9138	0.0057	0.712	0.01
Mof_C 	C 	0.2157	0.9885	0.7903	0.336
Mof_C 	C 	0.7842	0.9759	0.5816	0.322
Mof_C 	C 	0.4806	0.2537	0.0835	0.109
Mof_H 	H 	0.452	0.2583	0.0062	0.015
Mof_C 	C 	0.524	0.2012	0.2418	-0.002
Mof_C 	C 	0.5593	0.2874	0.2615	-0.054
Mof_C 	C 	0.5259	0.1368	0.3178	0.293
Mof_C 	C 	0.6132	0.3422	0.3637	0.372
Mof_N 	N 	0.1341	0.0417	0.9056	-0.139
Mof_N 	N 	0.8586	0.0344	0.771	-0.14
Mof_N 	N 	0.4727	0.1809	0.1278	-0.136
Mof_N 	N 	0.5335	0.3192	0.1612	-0.127
Mof_O 	O 	0.1849	0.9582	0.6959	-0.279
Mof_O 	O 	0.3627	0.0028	0.8885	-0.29
Mof_O 	O 	0.814	0.9604	0.512	-0.263
Mof_O 	O 	0.6436	0.9669	0.5483	-0.277
Mof_O 	O 	0.4645	0.0656	0.2666	-0.289
Mof_O 	O 	0.5819	0.1554	0.4249	-0.272
Mof_O 	O 	0.641	0.3104	0.4601	-0.473
Mof_H 	H 	0.6234	0.2593	0.4505	0.31
Mof_O 	O 	0.6286	0.419	0.3559	-0.29
Mof_Cd	Cd	0.40641	0.04343	0.07049	0.448
Mof_Cd	Cd	0.42036	0.95685	0.34355	0.487
Mof_Cd	Cd	-0	0.5	-0	0.426
Mof_Cd	Cd	4.12176e-33	-6.98775e-33	0.5	0.43
_end
