data_functionalizedCrystal
_audit_creation_method	'EQeq! by Chris Wilmer'
_symmetry_space_group_name_H-M	'P1'
_symmetry_Int_Tables_number	1
_symmetry_cell_setting	triclinic
loop_
_symmetry_equiv_pos_as_xyz
  x,y,z
_cell_length_a	10.137
_cell_length_b	16.768
_cell_length_c	15.852
_cell_angle_alpha	90
_cell_angle_beta	94.166
_cell_angle_gamma	90
loop_
_atom_site_label
_atom_site_type_symbol
_atom_site_fract_x
_atom_site_fract_y
_atom_site_fract_z
_atom_site_charge
Mof_Ni	Ni	0.20999	0.22725	0.36763	1.057
Mof_C 	C 	0.6357	0.98588	0.73604	-0.023
Mof_H 	H 	0.5788	0.0142	0.7684	0.033
Mof_C 	C 	0.6277	0.9077	0.71518	0.005
Mof_H 	H 	0.5625	0.8729	0.7312	0.004
Mof_C 	C 	0.7974	0.95323	0.65932	0.081
Mof_H 	H 	0.8728	0.957	0.6295	-0.004
Mof_C 	C 	0.7894	0.09816	0.70156	-0.154
Mof_H 	H 	0.8852	0.0991	0.7026	0.091
Mof_H 	H 	0.7643	0.1227	0.7535	0.076
Mof_C 	C 	0.7324	0.14874	0.62566	0.122
Mof_C 	C 	0.7781	0.12225	0.54047	-0.145
Mof_H 	H 	0.7601	0.0657	0.5342	0.079
Mof_H 	H 	0.7242	0.1496	0.4964	0.077
Mof_C 	C 	0.0286	0.09851	0.5621	-0.008
Mof_H 	H 	0.0318	0.0622	0.6065	0.047
Mof_C 	C 	0.131	0.1253	0.52092	0.012
Mof_H 	H 	0.2188	0.111	0.5338	0.021
Mof_C 	C 	0.9592	0.18134	0.46252	0.088
Mof_H 	H 	0.9032	0.2125	0.4271	-0.007
Mof_C 	C 	0.7588	0.23761	0.64486	-0.143
Mof_H 	H 	0.7365	0.2679	0.5937	0.081
Mof_H 	H 	0.6996	0.2548	0.6867	0.072
Mof_C 	C 	0.9872	0.29546	0.63162	-0.012
Mof_H 	H 	0.9786	0.3097	0.5748	0.039
Mof_C 	C 	0.0929	0.30795	0.68627	0.01
Mof_H 	H 	0.1709	0.3326	0.6729	0.011
Mof_C 	C 	0.948	0.2502	0.75563	0.092
Mof_H 	H 	0.9046	0.2273	0.7993	-0.01
Mof_C 	C 	0.5802	0.13697	0.62224	-0.153
Mof_H 	H 	0.5604	0.0833	0.6024	0.082
Mof_H 	H 	0.5527	0.1408	0.6795	0.075
Mof_C 	C 	0.4398	0.2596	0.5969	-0.015
Mof_H 	H 	0.4535	0.2829	0.65	0.023
Mof_C 	C 	0.3571	0.28534	0.53238	0.004
Mof_H 	H 	0.3049	0.3309	0.5334	0.024
Mof_C 	C 	0.448	0.17989	0.48942	0.077
Mof_H 	H 	0.4713	0.1374	0.4558	-0.01
Mof_C 	C 	0.1275	0.40065	0.35322	0.402
Mof_C 	C 	0.0639	0.4722	0.39204	-0.36
Mof_H 	H 	0.124	0.517	0.39	0.139
Mof_H 	H 	0.9844	0.4857	0.3572	0.14
Mof_C 	C 	0.0277	0.46249	0.48123	-0.005
Mof_H 	H 	0.1058	0.4461	0.516	0.035
Mof_H 	H 	0.9627	0.4202	0.4831	0.033
Mof_O 	O 	0.13922	0.33816	0.39783	-0.434
Mof_O 	O 	0.16464	0.40815	0.2801	-0.315
Mof_N 	N 	0.74502	0.01488	0.69983	-0.104
Mof_N 	N 	0.72969	0.88705	0.66676	-0.239
Mof_N 	N 	0.91797	0.13567	0.52527	-0.101
Mof_N 	N 	0.08839	0.17672	0.45716	-0.221
Mof_N 	N 	0.89497	0.25787	0.67587	-0.103
Mof_N 	N 	0.0688	0.27904	0.76445	-0.231
Mof_N 	N 	0.49963	0.19249	0.5691	-0.105
Mof_N 	N 	0.36106	0.23469	0.465	-0.233
Mof_Ni	Ni	0.79001	0.72725	0.13237	1.058
Mof_C 	C 	0.3643	0.48588	0.76396	-0.023
Mof_H 	H 	0.4212	0.5142	0.7316	0.034
Mof_C 	C 	0.3723	0.4077	0.78482	0.007
Mof_H 	H 	0.4375	0.3729	0.7688	0.004
Mof_C 	C 	0.2026	0.45323	0.84068	0.081
Mof_H 	H 	0.1272	0.457	0.8705	-0.003
Mof_C 	C 	0.2106	0.59816	0.79844	-0.154
Mof_H 	H 	0.1148	0.5991	0.7974	0.092
Mof_H 	H 	0.2357	0.6227	0.7465	0.076
Mof_C 	C 	0.2676	0.64874	0.87434	0.122
Mof_C 	C 	0.2219	0.62225	0.95953	-0.144
Mof_H 	H 	0.2399	0.5657	0.9658	0.079
Mof_H 	H 	0.2758	0.6496	0.0036	0.076
Mof_C 	C 	0.9714	0.59851	0.9379	-0.011
Mof_H 	H 	0.9682	0.5622	0.8935	0.046
Mof_C 	C 	0.869	0.6253	0.97908	0.01
Mof_H 	H 	0.7812	0.611	0.9662	0.021
Mof_C 	C 	0.0408	0.68134	0.03748	0.085
Mof_H 	H 	0.0968	0.7125	0.0729	-0.007
Mof_C 	C 	0.2412	0.73761	0.85514	-0.142
Mof_H 	H 	0.2635	0.7679	0.9063	0.081
Mof_H 	H 	0.3004	0.7548	0.8133	0.072
Mof_C 	C 	0.0128	0.79546	0.86838	-0.009
Mof_H 	H 	0.0214	0.8097	0.9252	0.038
Mof_C 	C 	0.9071	0.80795	0.81373	0.007
Mof_H 	H 	0.8291	0.8326	0.8271	0.012
Mof_C 	C 	0.052	0.7502	0.74437	0.094
Mof_H 	H 	0.0954	0.7273	0.7007	-0.011
Mof_C 	C 	0.4198	0.63697	0.87776	-0.152
Mof_H 	H 	0.4396	0.5833	0.8976	0.082
Mof_H 	H 	0.4473	0.6408	0.8205	0.075
Mof_C 	C 	0.5602	0.7596	0.9031	-0.015
Mof_H 	H 	0.5465	0.7829	0.85	0.023
Mof_C 	C 	0.6429	0.78534	0.96762	0.003
Mof_H 	H 	0.6951	0.8309	0.9666	0.024
Mof_C 	C 	0.552	0.67989	0.01058	0.078
Mof_H 	H 	0.5287	0.6374	0.0442	-0.01
Mof_C 	C 	0.8725	0.90065	0.14678	0.399
Mof_C 	C 	0.9361	0.9722	0.10796	-0.346
Mof_H 	H 	0.876	0.017	0.11	0.134
Mof_H 	H 	0.0156	0.9857	0.1428	0.133
Mof_C 	C 	0.9723	0.96249	0.01877	0.001
Mof_H 	H 	0.8942	0.9461	0.984	0.031
Mof_H 	H 	0.0373	0.9202	0.0169	0.029
Mof_O 	O 	0.86078	0.83816	0.10217	-0.432
Mof_O 	O 	0.83536	0.90815	0.2199	-0.313
Mof_N 	N 	0.25498	0.51488	0.80017	-0.104
Mof_N 	N 	0.27031	0.38705	0.83324	-0.239
Mof_N 	N 	0.08203	0.63567	0.97473	-0.099
Mof_N 	N 	0.91161	0.67672	0.04284	-0.219
Mof_N 	N 	0.10503	0.75787	0.82413	-0.104
Mof_N 	N 	0.9312	0.77904	0.73555	-0.231
Mof_N 	N 	0.50037	0.69249	0.9309	-0.106
Mof_N 	N 	0.63894	0.73469	0.035	-0.232
Mof_Ni	Ni	0.79001	0.77275	0.63237	1.058
Mof_C 	C 	0.3643	0.01412	0.26396	-0.022
Mof_H 	H 	0.4212	0.9858	0.2316	0.034
Mof_C 	C 	0.3723	0.0923	0.28482	0.006
Mof_H 	H 	0.4375	0.1271	0.2688	0.004
Mof_C 	C 	0.2026	0.04677	0.34068	0.081
Mof_H 	H 	0.1272	0.043	0.3705	-0.004
Mof_C 	C 	0.2106	0.90184	0.29844	-0.154
Mof_H 	H 	0.1148	0.9009	0.2974	0.091
Mof_H 	H 	0.2357	0.8773	0.2465	0.076
Mof_C 	C 	0.2676	0.85126	0.37434	0.122
Mof_C 	C 	0.2219	0.87775	0.45953	-0.145
Mof_H 	H 	0.2399	0.9343	0.4658	0.079
Mof_H 	H 	0.2758	0.8504	0.5036	0.077
Mof_C 	C 	0.9714	0.90149	0.4379	-0.008
Mof_H 	H 	0.9682	0.9378	0.3935	0.047
Mof_C 	C 	0.869	0.8747	0.47908	0.012
Mof_H 	H 	0.7812	0.889	0.4662	0.021
Mof_C 	C 	0.0408	0.81866	0.53748	0.088
Mof_H 	H 	0.0968	0.7875	0.5729	-0.007
Mof_C 	C 	0.2412	0.76239	0.35514	-0.143
Mof_H 	H 	0.2635	0.7321	0.4063	0.081
Mof_H 	H 	0.3004	0.7452	0.3133	0.072
Mof_C 	C 	0.0128	0.70454	0.36838	-0.012
Mof_H 	H 	0.0214	0.6903	0.4252	0.039
Mof_C 	C 	0.9071	0.69205	0.31373	0.01
Mof_H 	H 	0.8291	0.6674	0.3271	0.011
Mof_C 	C 	0.052	0.7498	0.24437	0.092
Mof_H 	H 	0.0954	0.7727	0.2007	-0.01
Mof_C 	C 	0.4198	0.86303	0.37776	-0.153
Mof_H 	H 	0.4396	0.9167	0.3976	0.082
Mof_H 	H 	0.4473	0.8592	0.3205	0.075
Mof_C 	C 	0.5602	0.7404	0.4031	-0.015
Mof_H 	H 	0.5465	0.7171	0.35	0.023
Mof_C 	C 	0.6429	0.71466	0.46762	0.004
Mof_H 	H 	0.6951	0.6691	0.4666	0.024
Mof_C 	C 	0.552	0.82011	0.51058	0.077
Mof_H 	H 	0.5287	0.8626	0.5442	-0.01
Mof_C 	C 	0.8725	0.59935	0.64678	0.402
Mof_C 	C 	0.9361	0.5278	0.60796	-0.36
Mof_H 	H 	0.876	0.483	0.61	0.139
Mof_H 	H 	0.0156	0.5143	0.6428	0.14
Mof_C 	C 	0.9723	0.53751	0.51877	-0.005
Mof_H 	H 	0.8942	0.5539	0.484	0.035
Mof_H 	H 	0.0373	0.5798	0.5169	0.033
Mof_O 	O 	0.86078	0.66184	0.60217	-0.434
Mof_O 	O 	0.83536	0.59185	0.7199	-0.315
Mof_N 	N 	0.25498	0.98512	0.30017	-0.104
Mof_N 	N 	0.27031	0.11295	0.33324	-0.239
Mof_N 	N 	0.08203	0.86433	0.47473	-0.101
Mof_N 	N 	0.91161	0.82328	0.54284	-0.221
Mof_N 	N 	0.10503	0.74213	0.32413	-0.103
Mof_N 	N 	0.9312	0.72096	0.23555	-0.231
Mof_N 	N 	0.50037	0.80751	0.4309	-0.105
Mof_N 	N 	0.63894	0.76531	0.535	-0.233
Mof_Ni	Ni	0.20999	0.27275	0.86763	1.058
Mof_C 	C 	0.6357	0.51412	0.23604	-0.023
Mof_H 	H 	0.5788	0.4858	0.2684	0.034
Mof_C 	C 	0.6277	0.5923	0.21518	0.007
Mof_H 	H 	0.5625	0.6271	0.2312	0.004
Mof_C 	C 	0.7974	0.54677	0.15932	0.081
Mof_H 	H 	0.8728	0.543	0.1295	-0.003
Mof_C 	C 	0.7894	0.40184	0.20156	-0.154
Mof_H 	H 	0.8852	0.4009	0.2026	0.092
Mof_H 	H 	0.7643	0.3773	0.2535	0.076
Mof_C 	C 	0.7324	0.35126	0.12566	0.122
Mof_C 	C 	0.7781	0.37775	0.04047	-0.144
Mof_H 	H 	0.7601	0.4343	0.0342	0.079
Mof_H 	H 	0.7242	0.3504	0.9964	0.076
Mof_C 	C 	0.0286	0.40149	0.0621	-0.011
Mof_H 	H 	0.0318	0.4378	0.1065	0.046
Mof_C 	C 	0.131	0.3747	0.02092	0.01
Mof_H 	H 	0.2188	0.389	0.0338	0.021
Mof_C 	C 	0.9592	0.31866	0.96252	0.085
Mof_H 	H 	0.9032	0.2875	0.9271	-0.007
Mof_C 	C 	0.7588	0.26239	0.14486	-0.142
Mof_H 	H 	0.7365	0.2321	0.0937	0.081
Mof_H 	H 	0.6996	0.2452	0.1867	0.072
Mof_C 	C 	0.9872	0.20454	0.13162	-0.009
Mof_H 	H 	0.9786	0.1903	0.0748	0.038
Mof_C 	C 	0.0929	0.19205	0.18627	0.007
Mof_H 	H 	0.1709	0.1674	0.1729	0.012
Mof_C 	C 	0.948	0.2498	0.25563	0.094
Mof_H 	H 	0.9046	0.2727	0.2993	-0.011
Mof_C 	C 	0.5802	0.36303	0.12224	-0.152
Mof_H 	H 	0.5604	0.4167	0.1024	0.082
Mof_H 	H 	0.5527	0.3592	0.1795	0.075
Mof_C 	C 	0.4398	0.2404	0.0969	-0.015
Mof_H 	H 	0.4535	0.2171	0.15	0.023
Mof_C 	C 	0.3571	0.21466	0.03238	0.003
Mof_H 	H 	0.3049	0.1691	0.0334	0.024
Mof_C 	C 	0.448	0.32011	0.98942	0.078
Mof_H 	H 	0.4713	0.3626	0.9558	-0.01
Mof_C 	C 	0.1275	0.09935	0.85322	0.399
Mof_C 	C 	0.0639	0.0278	0.89204	-0.346
Mof_H 	H 	0.124	0.983	0.89	0.134
Mof_H 	H 	0.9844	0.0143	0.8572	0.133
Mof_C 	C 	0.0277	0.03751	0.98123	0.001
Mof_H 	H 	0.1058	0.0539	0.016	0.031
Mof_H 	H 	0.9627	0.0798	0.9831	0.029
Mof_O 	O 	0.13922	0.16184	0.89783	-0.432
Mof_O 	O 	0.16464	0.09185	0.7801	-0.313
Mof_N 	N 	0.74502	0.48512	0.19983	-0.104
Mof_N 	N 	0.72969	0.61295	0.16676	-0.239
Mof_N 	N 	0.91797	0.36433	0.02527	-0.099
Mof_N 	N 	0.08839	0.32328	0.95716	-0.219
Mof_N 	N 	0.89497	0.24213	0.17587	-0.104
Mof_N 	N 	0.0688	0.22096	0.26445	-0.231
Mof_N 	N 	0.49963	0.30751	0.0691	-0.106
Mof_N 	N 	0.36106	0.26531	0.965	-0.232
_end
