data_functionalizedCrystal
_audit_creation_method	'EQeq! by Chris Wilmer'
_symmetry_space_group_name_H-M	'P1'
_symmetry_Int_Tables_number	1
_symmetry_cell_setting	triclinic
loop_
_symmetry_equiv_pos_as_xyz
  x,y,z
_cell_length_a	9.8113
_cell_length_b	10.4188
_cell_length_c	11.0768
_cell_angle_alpha	76.721
_cell_angle_beta	76.242
_cell_angle_gamma	65.932
loop_
_atom_site_label
_atom_site_type_symbol
_atom_site_fract_x
_atom_site_fract_y
_atom_site_fract_z
_atom_site_charge
Mof_Ho	Ho	0.94522	0.22825	0.32292	1.691
Mof_Ho	Ho	0.05478	0.77175	0.67708	1.691
Mof_H 	H 	0.4553	0.185	0.1049	0.049
Mof_H 	H 	0.3075	0.9222	0.0068	0.055
Mof_H 	H 	0.4358	0.4156	0.209	0.04
Mof_H 	H 	0.7408	0.5025	0.9234	0.054
Mof_H 	H 	0.3995	0.8824	0.6796	0.041
Mof_H 	H 	0.3496	0.1418	0.3497	0.032
Mof_H 	H 	0.5447	0.815	0.8951	0.049
Mof_H 	H 	0.6925	0.0778	0.9932	0.055
Mof_H 	H 	0.5642	0.5844	0.791	0.04
Mof_H 	H 	0.2592	0.4975	0.0766	0.054
Mof_H 	H 	0.6005	0.1176	0.3204	0.041
Mof_H 	H 	0.6504	0.8582	0.6503	0.032
Mof_C 	C 	0.3565	0.0659	0.0672	-0.049
Mof_C 	C 	0.473	0.1108	0.0627	-0.024
Mof_C 	C 	0.3845	0.9537	0.0041	-0.041
Mof_C 	C 	0.2052	0.1323	0.1464	0.305
Mof_C 	C 	0.6079	0.4483	0.0793	-0.065
Mof_C 	C 	0.4615	0.4491	0.1249	-0.026
Mof_C 	C 	0.6446	0.501	0.9541	-0.028
Mof_C 	C 	0.7242	0.3895	0.1654	0.313
Mof_C 	C 	0.3507	0.0133	0.5168	-0.138
Mof_C 	C 	0.4402	0.9293	0.6074	-0.012
Mof_C 	C 	0.4099	0.0848	0.4097	-0.006
Mof_C 	C 	0.1903	0.023	0.5328	0.484
Mof_C 	C 	0.6435	0.9341	0.9328	-0.049
Mof_C 	C 	0.527	0.8892	0.9373	-0.024
Mof_C 	C 	0.6155	0.0463	0.9959	-0.041
Mof_C 	C 	0.7948	0.8677	0.8536	0.305
Mof_C 	C 	0.3921	0.5517	0.9207	-0.065
Mof_C 	C 	0.5385	0.5509	0.8751	-0.026
Mof_C 	C 	0.3554	0.499	0.0459	-0.028
Mof_C 	C 	0.2758	0.6105	0.8346	0.313
Mof_C 	C 	0.6493	0.9867	0.4832	-0.138
Mof_C 	C 	0.5598	0.0707	0.3926	-0.012
Mof_C 	C 	0.5901	0.9152	0.5903	-0.006
Mof_C 	C 	0.8097	0.977	0.4672	0.484
Mof_O 	O 	0.1157	0.0657	0.17882	-0.377
Mof_O 	O 	0.1728	0.2481	0.18212	-0.4
Mof_O 	O 	0.6862	0.3505	0.27942	-0.433
Mof_O 	O 	0.8591	0.3758	0.12267	-0.392
Mof_O 	O 	0.1419	0.952	0.62777	-0.517
Mof_O 	O 	0.1155	0.1026	0.44864	-0.556
Mof_O 	O 	0.8843	0.9343	0.82118	-0.377
Mof_O 	O 	0.8272	0.7519	0.81788	-0.4
Mof_O 	O 	0.3138	0.6495	0.72058	-0.433
Mof_O 	O 	0.1409	0.6242	0.87733	-0.392
Mof_O 	O 	0.8581	0.048	0.37223	-0.517
Mof_O 	O 	0.8845	0.8974	0.55136	-0.556
_end
