data_functionalizedCrystal
_audit_creation_method	'EQeq! by Chris Wilmer'
_symmetry_space_group_name_H-M	'P1'
_symmetry_Int_Tables_number	1
_symmetry_cell_setting	triclinic
loop_
_symmetry_equiv_pos_as_xyz
  x,y,z
_cell_length_a	5.7328
_cell_length_b	10.9152
_cell_length_c	11.2665
_cell_angle_alpha	90
_cell_angle_beta	97.106
_cell_angle_gamma	90
loop_
_atom_site_label
_atom_site_type_symbol
_atom_site_fract_x
_atom_site_fract_y
_atom_site_fract_z
_atom_site_charge
Mof_Na	Na	0.772	0.90558	0.74548	3.45
Mof_Na	Na	0.02409	0.59468	0.76522	2.722
Mof_Na	Na	0.272	0.09442	0.74548	2.854
Mof_Na	Na	0.52409	0.40532	0.76522	3.289
Mof_H 	H 	0.7599	0.5415	0.0457	0.153
Mof_H 	H 	0.6117	0.6286	0.1224	0.156
Mof_H 	H 	0.0269	0.6551	0.17	-0.181
Mof_H 	H 	0.0405	0.7017	0.0368	-0.194
Mof_H 	H 	0.9246	0.7063	0.3894	-0.101
Mof_H 	H 	0.7586	0.775	0.4721	-0.179
Mof_H 	H 	0.1568	0.8853	0.3847	0.224
Mof_H 	H 	0.9898	0.9549	0.4668	0.235
Mof_H 	H 	0.184	0.916	0.898	1.129
Mof_H 	H 	0.074	0.014	0.928	1.095
Mof_H 	H 	0.609	0.594	0.612	0.907
Mof_H 	H 	0.703	0.512	0.569	0.922
Mof_H 	H 	0.2599	0.4585	0.0457	0.051
Mof_H 	H 	0.1117	0.3714	0.1224	0.054
Mof_H 	H 	0.5269	0.3449	0.17	0.003
Mof_H 	H 	0.5405	0.2983	0.0368	-0.027
Mof_H 	H 	0.4246	0.2937	0.3894	-0.097
Mof_H 	H 	0.2586	0.225	0.4721	-0.166
Mof_H 	H 	0.6568	0.1147	0.3847	0.186
Mof_H 	H 	0.4898	0.0451	0.4668	0.119
Mof_H 	H 	0.684	0.084	0.898	1.076
Mof_H 	H 	0.574	0.986	0.928	1.035
Mof_H 	H 	0.109	0.406	0.612	0.88
Mof_H 	H 	0.203	0.488	0.569	0.909
Mof_C 	C 	0.7162	0.6278	0.0587	-0.476
Mof_C 	C 	0.9399	0.7002	0.1022	0.418
Mof_C 	C 	0.8571	0.7868	0.4068	0.362
Mof_C 	C 	0.0557	0.8741	0.449	-0.831
Mof_C 	C 	0.2162	0.3722	0.0587	-0.217
Mof_C 	C 	0.4399	0.2998	0.1022	0.015
Mof_C 	C 	0.3571	0.2132	0.4068	0.218
Mof_C 	C 	0.5557	0.1259	0.449	-0.557
Mof_S 	S 	0.55708	0.68535	0.92415	0.867
Mof_S 	S 	0.89874	0.85686	0.14969	-0.09
Mof_S 	S 	0.67117	0.84017	0.27364	-0.137
Mof_S 	S 	0.22768	0.81676	0.57943	1.041
Mof_S 	S 	0.05708	0.31465	0.92415	0.515
Mof_S 	S 	0.39874	0.14314	0.14969	-0.052
Mof_S 	S 	0.17117	0.15983	0.27364	-0.178
Mof_S 	S 	0.72768	0.18324	0.57943	0.964
Mof_O 	O 	0.404	0.58456	0.87786	-1.127
Mof_O 	O 	0.7313	0.71614	0.84467	-1.174
Mof_O 	O 	0.424	0.79128	0.95658	-0.742
Mof_O 	O 	0.0636	0.78428	0.66323	-1.247
Mof_O 	O 	0.3898	0.91483	0.62452	-1.142
Mof_O 	O 	0.3523	0.71	0.53982	-0.659
Mof_O 	O 	0.0935	0.9664	0.88078	-2.98
Mof_O 	O 	0.6935	0.54154	0.6298	-2.466
Mof_O 	O 	0.904	0.41544	0.87786	-0.984
Mof_O 	O 	0.2313	0.28386	0.84467	-1.147
Mof_O 	O 	0.924	0.20872	0.95658	-0.571
Mof_O 	O 	0.5636	0.21572	0.66323	-1.192
Mof_O 	O 	0.8898	0.08517	0.62452	-1.039
Mof_O 	O 	0.8523	0.29	0.53982	-0.589
Mof_O 	O 	0.5935	0.0336	0.88078	-2.805
Mof_O 	O 	0.1935	0.45846	0.6298	-2.502
_end
