data_functionalizedCrystal
_audit_creation_method	'EQeq! by Chris Wilmer'
_symmetry_space_group_name_H-M	'P1'
_symmetry_Int_Tables_number	1
_symmetry_cell_setting	triclinic
loop_
_symmetry_equiv_pos_as_xyz
  x,y,z
_cell_length_a	15.169
_cell_length_b	15.453
_cell_length_c	16.4504
_cell_angle_alpha	67.469
_cell_angle_beta	80.559
_cell_angle_gamma	61.982
loop_
_atom_site_label
_atom_site_type_symbol
_atom_site_fract_x
_atom_site_fract_y
_atom_site_fract_z
_atom_site_charge
Mof_Zn	Zn	0.98974	0.50814	0.66448	1.186
Mof_Zn	Zn	0.18728	0.13567	0.91624	1.158
Mof_Zn	Zn	0.01026	0.49186	0.33552	1.186
Mof_Zn	Zn	0.57707	0.13374	0.28983	1.219
Mof_Zn	Zn	0.81272	0.86433	0.08376	1.158
Mof_Zn	Zn	0.42293	0.86626	0.71017	1.219
Mof_H 	H 	0.3896	0.3982	0.873	0.041
Mof_H 	H 	0.1748	0.7523	0.7436	0.082
Mof_H 	H 	0.1778	0.0785	0.4604	0.09
Mof_H 	H 	0.9137	0.4357	0.5064	-0.029
Mof_H 	H 	0.7654	0.1511	0.5162	0.086
Mof_H 	H 	0.4629	0.4642	0.1487	0.064
Mof_H 	H 	0.3861	0.4018	0.3881	0.045
Mof_H 	H 	0.0863	0.5643	0.4936	-0.029
Mof_H 	H 	0.7118	0.664	0.7626	0.17
Mof_H 	H 	0.0877	0.9455	0.3989	0.028
Mof_H 	H 	0.9142	0.6699	0.9013	0.048
Mof_H 	H 	0.0319	0.2346	0.4239	0.04
Mof_H 	H 	0.6393	0.7643	0.8434	-0.026
Mof_H 	H 	0.3973	0.4837	0.7205	0.09
Mof_H 	H 	0.5056	0.3762	0.6021	0.036
Mof_H 	H 	0.5402	0.3565	0.3229	0.079
Mof_H 	H 	0.3304	0.9788	0.5337	0.002
Mof_H 	H 	0.2882	0.336	0.2374	0.17
Mof_H 	H 	0.1212	0.6578	0.6495	0.083
Mof_H 	H 	0.8514	0.7156	0.4147	0.04
Mof_H 	H 	0.5371	0.5358	0.8513	0.064
Mof_H 	H 	0.6596	0.3408	0.534	0.08
Mof_H 	H 	0.5145	0.9323	0.4358	0.034
Mof_H 	H 	0.0858	0.3301	0.0987	0.048
Mof_H 	H 	0.7888	0.6114	0.2702	0.006
Mof_H 	H 	0.4855	0.0677	0.5642	0.034
Mof_H 	H 	0.0433	0.0284	0.6942	0.074
Mof_H 	H 	0.8252	0.2477	0.2564	0.082
Mof_H 	H 	0.1965	0.9319	0.7653	-0.006
Mof_H 	H 	0.8008	0.4915	0.8152	-0.016
Mof_H 	H 	0.8332	0.3368	0.1056	0.03
Mof_H 	H 	0.2438	0.5241	0.4288	0.076
Mof_H 	H 	0.3552	0.3177	0.0032	0.1
Mof_H 	H 	0.1992	0.5085	0.1848	-0.016
Mof_H 	H 	0.3404	0.6592	0.466	0.08
Mof_H 	H 	0.4944	0.6238	0.3979	0.036
Mof_H 	H 	0.8088	0.402	0.969	0.102
Mof_H 	H 	0.6139	0.5982	0.6119	0.045
Mof_H 	H 	0.9567	0.9716	0.3058	0.074
Mof_H 	H 	0.6027	0.5163	0.2795	0.09
Mof_H 	H 	0.6448	0.6823	0.9968	0.1
Mof_H 	H 	0.8788	0.3422	0.3505	0.083
Mof_H 	H 	0.1486	0.2844	0.5853	0.04
Mof_H 	H 	0.6321	0.6528	0.3264	0.092
Mof_H 	H 	0.4934	0.9118	0.8094	0.317
Mof_H 	H 	0.9681	0.7654	0.5761	0.04
Mof_H 	H 	0.1668	0.6632	0.8944	0.03
Mof_H 	H 	0.3607	0.2357	0.1566	-0.026
Mof_H 	H 	0.8222	0.9215	0.5396	0.09
Mof_H 	H 	0.8035	0.0681	0.2347	-0.006
Mof_H 	H 	0.1912	0.598	0.031	0.102
Mof_H 	H 	0.2346	0.8489	0.4838	0.086
Mof_H 	H 	0.3679	0.3472	0.6736	0.092
Mof_H 	H 	0.6696	0.0212	0.4663	0.002
Mof_H 	H 	0.6104	0.6018	0.127	0.041
Mof_H 	H 	0.5066	0.0882	0.1906	0.317
Mof_H 	H 	0.2112	0.3886	0.7298	0.006
Mof_H 	H 	0.7562	0.4759	0.5712	0.076
Mof_H 	H 	0.4598	0.6435	0.6771	0.079
Mof_H 	H 	0.9123	0.0545	0.6011	0.028
Mof_C 	C 	0.6872	0.6116	0.3647	-0.141
Mof_C 	C 	0.3601	0.1817	0.4889	-0.061
Mof_C 	C 	0.3128	0.3884	0.6353	-0.141
Mof_C 	C 	0.784	0.7582	0.419	-0.016
Mof_C 	C 	0.4063	0.1697	0.4038	0.331
Mof_C 	C 	0.4267	0.3955	0.5023	-0.036
Mof_C 	C 	0.8087	0.6632	0.5799	0.323
Mof_C 	C 	0.113	0.7178	0.6012	-0.124
Mof_C 	C 	0.2132	0.6266	0.8605	0.019
Mof_C 	C 	0.3788	0.1096	0.6515	-0.129
Mof_C 	C 	0.4881	0.6255	0.4546	0.004
Mof_C 	C 	0.5434	0.3957	0.059	-0.039
Mof_C 	C 	0.7256	0.8282	0.34116	-0.035
Mof_C 	C 	0.0915	0.0648	0.5696	0.089
Mof_C 	C 	0.7252	0.5335	0.0006	0.132
Mof_C 	C 	0.1942	0.7445	0.5732	0.123
Mof_C 	C 	0.4171	0.7114	0.8694	0.3
Mof_C 	C 	0.7823	0.5855	0.3309	0.073
Mof_C 	C 	0.9912	0.5448	0.8117	0.336
Mof_C 	C 	0.8058	0.2555	0.4268	0.123
Mof_C 	C 	0.4445	0.0359	0.7328	0.462
Mof_C 	C 	0.5219	0.5213	0.9107	-0.02
Mof_C 	C 	0.2177	0.4145	0.6691	0.073
Mof_C 	C 	0.1805	0.049	0.5215	-0.138
Mof_C 	C 	0.5829	0.2886	0.1306	0.3
Mof_C 	C 	0.5555	0.9641	0.2672	0.462
Mof_C 	C 	0.2574	0.2484	0.498	-0.041
Mof_C 	C 	0.6544	0.5314	0.1525	0.02
Mof_C 	C 	0.6399	0.8183	0.5111	-0.061
Mof_C 	C 	0.1433	0.5185	0.5291	0.059
Mof_C 	C 	0.193	0.9603	0.7042	0.064
Mof_C 	C 	0.6727	0.5769	0.4556	0.088
Mof_C 	C 	0.7835	0.3189	0.2311	-0.129
Mof_C 	C 	0.5594	0.6116	0.5819	0.004
Mof_C 	C 	0.2759	0.521	0.9017	-0.051
Mof_C 	C 	0.6058	0.3512	0.5051	-0.121
Mof_C 	C 	0.8992	0.9809	0.3389	-0.141
Mof_C 	C 	0.5937	0.8303	0.5962	0.331
Mof_C 	C 	0.4187	0.1124	0.5683	0.017
Mof_C 	C 	0.2744	0.1718	0.65884	-0.035
Mof_C 	C 	0.1008	0.0191	0.6611	-0.141
Mof_C 	C 	0.4665	0.6379	0.6219	-0.12
Mof_C 	C 	0.9464	0.5836	0.0343	-0.047
Mof_C 	C 	0.5647	0.4151	0.9709	-0.036
Mof_C 	C 	0.3456	0.4686	0.8475	0.02
Mof_C 	C 	0.3507	0.5202	0.7544	-0.133
Mof_C 	C 	0.2165	0.6811	0.7689	-0.129
Mof_C 	C 	0.6195	0.3346	0.9282	0.282
Mof_C 	C 	0.324	0.3583	0.0385	-0.187
Mof_C 	C 	0.0088	0.4552	0.1883	0.336
Mof_C 	C 	0.2318	0.471	0.1474	0.136
Mof_C 	C 	0.7426	0.7516	0.502	-0.041
Mof_C 	C 	0.9085	0.9352	0.4304	0.089
Mof_C 	C 	0.8567	0.4815	0.4709	0.059
Mof_C 	C 	0.2262	0.5254	0.0545	-0.177
Mof_C 	C 	0.1826	0.8302	0.501	-0.138
Mof_C 	C 	0.8803	0.6737	0.0632	0.337
Mof_C 	C 	0.7139	0.3768	0.2835	0.123
Mof_C 	C 	0.2724	0.9887	0.5662	0.068
Mof_C 	C 	0.0066	0.872	0.4802	-0.042
Mof_C 	C 	0.9934	0.128	0.5198	-0.042
Mof_C 	C 	0.0536	0.4164	0.9657	-0.047
Mof_C 	C 	0.4566	0.6043	0.941	-0.039
Mof_C 	C 	0.676	0.6417	0.9615	-0.187
Mof_C 	C 	0.0521	0.3979	0.0593	-0.009
Mof_C 	C 	0.2748	0.4665	0.9994	0.132
Mof_C 	C 	0.3824	0.6561	0.5792	0.111
Mof_C 	C 	0.7868	0.3734	0.1395	0.019
Mof_C 	C 	0.9997	0.5188	0.9087	-0.049
Mof_C 	C 	0.1197	0.3263	0.9368	0.337
Mof_C 	C 	0.4353	0.5849	0.0291	-0.036
Mof_C 	C 	0.9789	0.2179	0.4441	0.001
Mof_C 	C 	0.7759	0.8282	0.2553	0.295
Mof_C 	C 	0.3273	0.4231	0.5444	0.088
Mof_C 	C 	0.7276	0.0113	0.4338	0.068
Mof_C 	C 	0.807	0.0397	0.2958	0.064
Mof_C 	C 	0.887	0.2822	0.3988	-0.124
Mof_C 	C 	0.7613	0.5056	0.5107	-0.136
Mof_C 	C 	0.6176	0.3439	0.4208	0.111
Mof_C 	C 	0.216	0.2418	0.581	-0.016
Mof_C 	C 	0.4406	0.3884	0.4181	0.004
Mof_C 	C 	0.0003	0.4812	0.0913	-0.049
Mof_C 	C 	0.9479	0.6021	0.9407	-0.009
Mof_C 	C 	0.3942	0.6488	0.4949	-0.121
Mof_C 	C 	0.6212	0.8904	0.3485	-0.129
Mof_C 	C 	0.6723	0.6917	0.8688	0.141
Mof_C 	C 	0.4781	0.4787	0.0893	-0.02
Mof_C 	C 	0.5813	0.8876	0.4317	0.017
Mof_C 	C 	0.7738	0.4746	0.9455	-0.177
Mof_C 	C 	0.5733	0.6045	0.4977	-0.036
Mof_C 	C 	0.8174	0.1698	0.499	-0.138
Mof_C 	C 	0.2861	0.6232	0.7165	0.123
Mof_C 	C 	0.3805	0.6654	0.0718	0.282
Mof_C 	C 	0.2241	0.1718	0.7447	0.295
Mof_C 	C 	0.0918	0.8913	0.4514	0.007
Mof_C 	C 	0.8195	0.951	0.4785	-0.138
Mof_C 	C 	0.1913	0.3368	0.4201	0.323
Mof_C 	C 	0.2387	0.4944	0.4893	-0.136
Mof_C 	C 	0.6493	0.4798	0.2456	-0.133
Mof_C 	C 	0.5335	0.3621	0.3781	-0.12
Mof_C 	C 	0.3277	0.3083	0.1312	0.141
Mof_C 	C 	0.7682	0.529	0.8526	0.136
Mof_C 	C 	0.5119	0.3745	0.5454	0.004
Mof_C 	C 	0.9082	0.1087	0.5486	0.007
Mof_C 	C 	0.7241	0.479	0.0983	-0.051
Mof_C 	C 	0.0211	0.7821	0.5559	0.001
Mof_N 	N 	0.2875	0.6781	0.62361	-0.162
Mof_N 	N 	0.7125	0.3219	0.37639	-0.162
Mof_N 	N 	0.2807	0.9437	0.65594	-0.254
Mof_N 	N 	0.7193	0.0563	0.34406	-0.254
Mof_N 	N 	0.7164	0.6336	0.81885	-0.242
Mof_N 	N 	0.2836	0.3664	0.18115	-0.242
Mof_N 	N 	0.8671	0.5234	0.38237	-0.265
Mof_N 	N 	0.1329	0.4766	0.61763	-0.265
Mof_O 	O 	0.22613	0.38173	0.35236	-0.318
Mof_O 	O 	0.3407	0.78769	0.88358	-0.283
Mof_O 	O 	0.90426	0.74718	0.04158	-0.48
Mof_O 	O 	0.9998	0.52965	0.20821	-0.467
Mof_O 	O 	0.02634	0.36799	0.24381	-0.323
Mof_O 	O 	0.49681	0.15338	0.39806	-0.436
Mof_O 	O 	0.53469	0.27796	0.20156	-0.437
Mof_O 	O 	0.57917	0.34564	0.86105	-0.24
Mof_O 	O 	0.0002	0.47035	0.79179	-0.467
Mof_O 	O 	0.97366	0.63201	0.75619	-0.323
Mof_O 	O 	0.54485	0.05527	0.23578	-0.73
Mof_O 	O 	0.90149	0.63399	0.56882	-0.468
Mof_O 	O 	0.13073	0.21654	0.75086	-0.372
Mof_O 	O 	0.09574	0.25282	0.95842	-0.48
Mof_O 	O 	0.09851	0.36601	0.43118	-0.468
Mof_O 	O 	0.45515	0.94473	0.76422	-0.73
Mof_O 	O 	0.80267	0.67813	0.10546	-0.32
Mof_O 	O 	0.49595	0.06574	0.75795	-0.298
Mof_O 	O 	0.6593	0.21231	0.11642	-0.283
Mof_O 	O 	0.77387	0.61827	0.64764	-0.318
Mof_O 	O 	0.50405	0.93426	0.24205	-0.298
Mof_O 	O 	0.64353	0.82304	0.65346	-0.287
Mof_O 	O 	0.28048	0.11874	0.81298	-0.45
Mof_O 	O 	0.35647	0.17696	0.34654	-0.287
Mof_O 	O 	0.19733	0.32187	0.89454	-0.32
Mof_O 	O 	0.6974	0.25665	0.96538	-0.238
Mof_O 	O 	0.86927	0.78346	0.24914	-0.372
Mof_O 	O 	0.46531	0.72204	0.79844	-0.437
Mof_O 	O 	0.3026	0.74335	0.03462	-0.238
Mof_O 	O 	0.50319	0.84662	0.60194	-0.436
Mof_O 	O 	0.71952	0.88126	0.18702	-0.45
Mof_O 	O 	0.42083	0.65436	0.13895	-0.24
_end
