data_functionalizedCrystal
_audit_creation_method	'EQeq! by Chris Wilmer'
_symmetry_space_group_name_H-M	'P1'
_symmetry_Int_Tables_number	1
_symmetry_cell_setting	triclinic
loop_
_symmetry_equiv_pos_as_xyz
  x,y,z
_cell_length_a	20.7471
_cell_length_b	26.2764
_cell_length_c	36.8943
_cell_angle_alpha	90
_cell_angle_beta	90
_cell_angle_gamma	90
loop_
_atom_site_label
_atom_site_type_symbol
_atom_site_fract_x
_atom_site_fract_y
_atom_site_fract_z
_atom_site_charge
Mof_Cd	Cd	0.20251	0.9394	0.15126	0.45
Mof_Cd	Cd	0.07923	0.16344	0.15047	0.446
Mof_O 	O 	0.0983	0.19111	0.21922	-0.3
Mof_O 	O 	0.268	0.42155	0.279	-0.288
Mof_N 	N 	0.1269	0.0931	0.16985	-0.156
Mof_O 	O 	0.2265	0.3821	0.32668	-0.266
Mof_N 	N 	0.8821	0.1122	0.16836	-0.151
Mof_N 	N 	0.1621	0.0124	0.17207	-0.126
Mof_O 	O 	0.3327	0.012	0.22122	-0.275
Mof_C 	C 	0.1336	0.0475	0.15237	0.092
Mof_H 	H 	0.1193	0.0419	0.1288	0.024
Mof_O 	O 	0.1467	0.961	0.09523	-0.263
Mof_N 	N 	0.1753	0.0357	0.20465	-0.12
Mof_C 	C 	0.1534	0.2697	0.22714	-0.069
Mof_N 	N 	0.9791	0.1476	0.16843	-0.116
Mof_C 	C 	0.4666	0.9998	0.2175	0.027
Mof_H 	H 	0.4442	0.9994	0.1957	0.053
Mof_C 	C 	0.1535	0.0826	0.20192	0.1
Mof_H 	H 	0.1564	0.1063	0.2206	0.017
Mof_O 	O 	0.0525	0.1179	0.0946	-0.302
Mof_O 	O 	0.1309	0.2317	0.17069	-0.268
Mof_C 	C 	0.9364	0.1204	0.1506	0.106
Mof_H 	H 	0.9439	0.108	0.1274	0.028
Mof_O 	O 	0.2289	0.9099	0.0945	-0.263
Mof_C 	C 	0.1868	0.9346	0.07849	0.298
Mof_O 	O 	0.097	0.1889	0.0948	-0.29
Mof_C 	C 	0.1835	0.932	0.038	-0.046
Mof_C 	C 	0.126	0.2287	0.2047	0.295
Mof_N 	N 	0.9501	0.1587	0.20103	-0.118
Mof_C 	C 	0.1997	0.3526	0.2327	-0.03
Mof_H 	H 	0.2141	0.3825	0.2219	0.061
Mof_C 	C 	0.184	0.3029	0.285	-0.035
Mof_H 	H 	0.1863	0.2991	0.3101	0.065
Mof_C 	C 	0.1731	0.3146	0.2115	-0.012
Mof_H 	H 	0.1686	0.3194	0.1866	0.059
Mof_C 	C 	0.1592	0.264	0.2639	-0.012
Mof_H 	H 	0.1463	0.2337	0.2748	0.045
Mof_C 	C 	0.2049	0.3466	0.26933	-0.046
Mof_C 	C 	0.0475	0.1121	0.01893	-0.018
Mof_H 	H 	0.0283	0.0853	0.0314	0.05
Mof_C 	C 	0.1343	0.9583	0.0189	-0.025
Mof_H 	H 	0.1022	0.9754	0.0315	0.06
Mof_C 	C 	0.2276	0.9038	0.0191	-0.023
Mof_H 	H 	0.2579	0.8845	0.0316	0.064
Mof_C 	C 	0.0755	0.1511	0.0378	-0.068
Mof_C 	C 	0.2339	0.3865	0.29311	0.292
Mof_C 	C 	0.8934	0.1372	0.1997	0.101
Mof_H 	H 	0.8636	0.139	0.2186	0.017
Mof_C 	C 	0.0775	0.1512	0.0786	0.352
Mof_C 	C 	0.1063	0.1882	0.0199	-0.018
Mof_H 	H 	0.1276	0.2138	0.0325	0.06
Mof_Cd	Cd	0.70251	0.4394	0.15126	0.443
Mof_Cd	Cd	0.57923	0.66344	0.15047	0.454
Mof_O 	O 	0.5983	0.69111	0.21922	-0.298
Mof_O 	O 	0.768	0.92155	0.279	-0.279
Mof_N 	N 	0.6269	0.5931	0.16985	-0.154
Mof_O 	O 	0.7265	0.8821	0.32668	-0.262
Mof_N 	N 	0.3821	0.6122	0.16836	-0.15
Mof_N 	N 	0.6621	0.5124	0.17207	-0.118
Mof_O 	O 	0.8327	0.512	0.22122	-0.275
Mof_C 	C 	0.6336	0.5475	0.15237	0.096
Mof_H 	H 	0.6193	0.5419	0.1288	0.031
Mof_O 	O 	0.6467	0.461	0.09523	-0.266
Mof_N 	N 	0.6753	0.5357	0.20465	-0.118
Mof_C 	C 	0.6534	0.7697	0.22714	-0.069
Mof_N 	N 	0.4791	0.6476	0.16843	-0.121
Mof_C 	C 	0.9666	0.4998	0.2175	0.028
Mof_H 	H 	0.9442	0.4994	0.1957	0.047
Mof_C 	C 	0.6535	0.5826	0.20192	0.103
Mof_H 	H 	0.6564	0.6063	0.2206	0.018
Mof_O 	O 	0.5525	0.6179	0.0946	-0.295
Mof_O 	O 	0.6309	0.7317	0.17069	-0.266
Mof_C 	C 	0.4364	0.6204	0.1506	0.106
Mof_H 	H 	0.4439	0.608	0.1274	0.025
Mof_O 	O 	0.7289	0.4099	0.0945	-0.263
Mof_C 	C 	0.6868	0.4346	0.07849	0.299
Mof_O 	O 	0.597	0.6889	0.0948	-0.288
Mof_C 	C 	0.6835	0.432	0.038	-0.047
Mof_C 	C 	0.626	0.7287	0.2047	0.296
Mof_N 	N 	0.4501	0.6587	0.20103	-0.122
Mof_C 	C 	0.6997	0.8526	0.2327	-0.031
Mof_H 	H 	0.7141	0.8825	0.2219	0.063
Mof_C 	C 	0.684	0.8029	0.285	-0.036
Mof_H 	H 	0.6863	0.7991	0.3101	0.067
Mof_C 	C 	0.6731	0.8146	0.2115	-0.01
Mof_H 	H 	0.6686	0.8194	0.1866	0.06
Mof_C 	C 	0.6592	0.764	0.2639	-0.01
Mof_H 	H 	0.6463	0.7337	0.2748	0.045
Mof_C 	C 	0.7049	0.8466	0.26933	-0.043
Mof_C 	C 	0.5475	0.6121	0.01893	-0.017
Mof_H 	H 	0.5283	0.5853	0.0314	0.056
Mof_C 	C 	0.6343	0.4583	0.0189	-0.025
Mof_H 	H 	0.6022	0.4754	0.0315	0.058
Mof_C 	C 	0.7276	0.4038	0.0191	-0.022
Mof_H 	H 	0.7579	0.3845	0.0316	0.065
Mof_C 	C 	0.5755	0.6511	0.0378	-0.064
Mof_C 	C 	0.7339	0.8865	0.29311	0.29
Mof_C 	C 	0.3934	0.6372	0.1997	0.101
Mof_H 	H 	0.3636	0.639	0.2186	0.016
Mof_C 	C 	0.5775	0.6512	0.0786	0.351
Mof_C 	C 	0.6063	0.6882	0.0199	-0.017
Mof_H 	H 	0.6276	0.7138	0.0325	0.062
Mof_Cd	Cd	0.79749	0.0606	0.15126	0.434
Mof_Cd	Cd	0.92077	0.83656	0.15047	0.46
Mof_O 	O 	0.9017	0.80889	0.21922	-0.293
Mof_O 	O 	0.732	0.57845	0.279	-0.287
Mof_N 	N 	0.8731	0.9069	0.16985	-0.153
Mof_O 	O 	0.7735	0.6179	0.32668	-0.263
Mof_N 	N 	0.1179	0.8878	0.16836	-0.15
Mof_N 	N 	0.8379	0.9876	0.17207	-0.11
Mof_O 	O 	0.6673	0.988	0.22122	-0.248
Mof_C 	C 	0.8664	0.9525	0.15237	0.098
Mof_H 	H 	0.8807	0.9581	0.1288	0.036
Mof_O 	O 	0.8533	0.039	0.09523	-0.271
Mof_N 	N 	0.8247	0.9643	0.20465	-0.112
Mof_C 	C 	0.8466	0.7303	0.22714	-0.067
Mof_N 	N 	0.0209	0.8524	0.16843	-0.126
Mof_C 	C 	0.5334	0.0002	0.2175	-0.06
Mof_H 	H 	0.5558	0.0006	0.1957	0.068
Mof_C 	C 	0.8465	0.9174	0.20192	0.105
Mof_H 	H 	0.8436	0.8937	0.2206	0.019
Mof_O 	O 	0.9475	0.8821	0.0946	-0.289
Mof_O 	O 	0.8691	0.7683	0.17069	-0.265
Mof_C 	C 	0.0636	0.8796	0.1506	0.106
Mof_H 	H 	0.0561	0.892	0.1274	0.023
Mof_O 	O 	0.7711	0.0901	0.0945	-0.265
Mof_C 	C 	0.8132	0.0654	0.07849	0.299
Mof_O 	O 	0.903	0.8111	0.0948	-0.286
Mof_C 	C 	0.8165	0.068	0.038	-0.049
Mof_C 	C 	0.874	0.7713	0.2047	0.295
Mof_N 	N 	0.0499	0.8413	0.20103	-0.123
Mof_C 	C 	0.8003	0.6474	0.2327	-0.028
Mof_H 	H 	0.7859	0.6175	0.2219	0.061
Mof_C 	C 	0.816	0.6971	0.285	-0.034
Mof_H 	H 	0.8137	0.7009	0.3101	0.067
Mof_C 	C 	0.8269	0.6854	0.2115	-0.012
Mof_H 	H 	0.8314	0.6806	0.1866	0.061
Mof_C 	C 	0.8408	0.736	0.2639	-0.012
Mof_H 	H 	0.8537	0.7663	0.2748	0.046
Mof_C 	C 	0.7951	0.6534	0.26933	-0.045
Mof_C 	C 	0.9525	0.8879	0.01893	-0.016
Mof_H 	H 	0.9717	0.9147	0.0314	0.061
Mof_C 	C 	0.8657	0.0417	0.0189	-0.025
Mof_H 	H 	0.8978	0.0246	0.0315	0.056
Mof_C 	C 	0.7724	0.0962	0.0191	-0.023
Mof_H 	H 	0.7421	0.1155	0.0316	0.063
Mof_C 	C 	0.9245	0.8489	0.0378	-0.061
Mof_C 	C 	0.7661	0.6135	0.29311	0.292
Mof_C 	C 	0.1066	0.8628	0.1997	0.101
Mof_H 	H 	0.1364	0.861	0.2186	0.016
Mof_C 	C 	0.9225	0.8488	0.0786	0.35
Mof_C 	C 	0.8937	0.8118	0.0199	-0.017
Mof_H 	H 	0.8724	0.7862	0.0325	0.063
Mof_Cd	Cd	0.29749	0.5606	0.15126	0.441
Mof_Cd	Cd	0.42077	0.33656	0.15047	0.453
Mof_O 	O 	0.4017	0.30889	0.21922	-0.298
Mof_O 	O 	0.232	0.07845	0.279	-0.289
Mof_N 	N 	0.3731	0.4069	0.16985	-0.154
Mof_O 	O 	0.2735	0.1179	0.32668	-0.265
Mof_N 	N 	0.6179	0.3878	0.16836	-0.15
Mof_N 	N 	0.3379	0.4876	0.17207	-0.118
Mof_O 	O 	0.1673	0.488	0.22122	-0.271
Mof_C 	C 	0.3664	0.4525	0.15237	0.095
Mof_H 	H 	0.3807	0.4581	0.1288	0.031
Mof_O 	O 	0.3533	0.539	0.09523	-0.267
Mof_N 	N 	0.3247	0.4643	0.20465	-0.118
Mof_C 	C 	0.3466	0.2303	0.22714	-0.069
Mof_N 	N 	0.5209	0.3524	0.16843	-0.121
Mof_C 	C 	0.0334	0.5002	0.2175	-0.079
Mof_H 	H 	0.0558	0.5006	0.1957	0.078
Mof_C 	C 	0.3465	0.4174	0.20192	0.103
Mof_H 	H 	0.3436	0.3937	0.2206	0.018
Mof_O 	O 	0.4475	0.3821	0.0946	-0.296
Mof_O 	O 	0.3691	0.2683	0.17069	-0.268
Mof_C 	C 	0.5636	0.3796	0.1506	0.106
Mof_H 	H 	0.5561	0.392	0.1274	0.025
Mof_O 	O 	0.2711	0.5901	0.0945	-0.265
Mof_C 	C 	0.3132	0.5654	0.07849	0.299
Mof_O 	O 	0.403	0.3111	0.0948	-0.289
Mof_C 	C 	0.3165	0.568	0.038	-0.048
Mof_C 	C 	0.374	0.2713	0.2047	0.296
Mof_N 	N 	0.5499	0.3413	0.20103	-0.122
Mof_C 	C 	0.3003	0.1474	0.2327	-0.03
Mof_H 	H 	0.2859	0.1175	0.2219	0.06
Mof_C 	C 	0.316	0.1971	0.285	-0.035
Mof_H 	H 	0.3137	0.2009	0.3101	0.065
Mof_C 	C 	0.3269	0.1854	0.2115	-0.011
Mof_H 	H 	0.3314	0.1806	0.1866	0.059
Mof_C 	C 	0.3408	0.236	0.2639	-0.012
Mof_H 	H 	0.3537	0.2663	0.2748	0.045
Mof_C 	C 	0.2951	0.1534	0.26933	-0.046
Mof_C 	C 	0.4525	0.3879	0.01893	-0.017
Mof_H 	H 	0.4717	0.4147	0.0314	0.056
Mof_C 	C 	0.3657	0.5417	0.0189	-0.025
Mof_H 	H 	0.3978	0.5246	0.0315	0.058
Mof_C 	C 	0.2724	0.5962	0.0191	-0.023
Mof_H 	H 	0.2421	0.6155	0.0316	0.063
Mof_C 	C 	0.4245	0.3489	0.0378	-0.065
Mof_C 	C 	0.2661	0.1135	0.29311	0.291
Mof_C 	C 	0.6066	0.3628	0.1997	0.101
Mof_H 	H 	0.6364	0.361	0.2186	0.016
Mof_C 	C 	0.4225	0.3488	0.0786	0.351
Mof_C 	C 	0.3937	0.3118	0.0199	-0.017
Mof_H 	H 	0.3724	0.2862	0.0325	0.061
Mof_Cd	Cd	0.79749	0.9394	0.34874	0.452
Mof_Cd	Cd	0.92077	0.16344	0.34953	0.459
Mof_O 	O 	0.9017	0.19111	0.28078	-0.294
Mof_O 	O 	0.732	0.42155	0.221	-0.287
Mof_N 	N 	0.8731	0.0931	0.33015	-0.154
Mof_O 	O 	0.7735	0.3821	0.17332	-0.263
Mof_N 	N 	0.1179	0.1122	0.33164	-0.151
Mof_N 	N 	0.8379	0.0124	0.32793	-0.124
Mof_O 	O 	0.6673	0.012	0.27878	-0.274
Mof_C 	C 	0.8664	0.0475	0.34763	0.095
Mof_H 	H 	0.8807	0.0419	0.3712	0.027
Mof_O 	O 	0.8533	0.961	0.40477	-0.259
Mof_N 	N 	0.8247	0.0357	0.29535	-0.12
Mof_C 	C 	0.8466	0.2697	0.27286	-0.067
Mof_N 	N 	0.0209	0.1476	0.33157	-0.126
Mof_C 	C 	0.5334	0.9998	0.2825	0.027
Mof_H 	H 	0.5558	0.9994	0.3043	0.053
Mof_C 	C 	0.8465	0.0826	0.29808	0.102
Mof_H 	H 	0.8436	0.1063	0.2794	0.018
Mof_O 	O 	0.9475	0.1179	0.4054	-0.293
Mof_O 	O 	0.8691	0.2317	0.32931	-0.266
Mof_C 	C 	0.0636	0.1204	0.3494	0.104
Mof_H 	H 	0.0561	0.108	0.3726	0.021
Mof_O 	O 	0.7711	0.9099	0.4055	-0.262
Mof_C 	C 	0.8132	0.9346	0.42151	0.298
Mof_O 	O 	0.903	0.1889	0.4052	-0.287
Mof_C 	C 	0.8165	0.932	0.462	-0.044
Mof_C 	C 	0.874	0.2287	0.2953	0.295
Mof_N 	N 	0.0499	0.1587	0.29897	-0.124
Mof_C 	C 	0.8003	0.3526	0.2673	-0.029
Mof_H 	H 	0.7859	0.3825	0.2781	0.061
Mof_C 	C 	0.816	0.3029	0.215	-0.034
Mof_H 	H 	0.8137	0.2991	0.1899	0.067
Mof_C 	C 	0.8269	0.3146	0.2885	-0.012
Mof_H 	H 	0.8314	0.3194	0.3134	0.061
Mof_C 	C 	0.8408	0.264	0.2361	-0.011
Mof_H 	H 	0.8537	0.2337	0.2252	0.047
Mof_C 	C 	0.7951	0.3466	0.23067	-0.045
Mof_C 	C 	0.9525	0.1121	0.48107	-0.017
Mof_H 	H 	0.9717	0.0853	0.4686	0.056
Mof_C 	C 	0.8657	0.9583	0.4811	-0.023
Mof_H 	H 	0.8978	0.9754	0.4685	0.064
Mof_C 	C 	0.7724	0.9038	0.4809	-0.022
Mof_H 	H 	0.7421	0.8845	0.4684	0.065
Mof_C 	C 	0.9245	0.1511	0.4622	-0.063
Mof_C 	C 	0.7661	0.3865	0.20689	0.292
Mof_C 	C 	0.1066	0.1372	0.3003	0.099
Mof_H 	H 	0.1364	0.139	0.2814	0.016
Mof_C 	C 	0.9225	0.1512	0.4214	0.35
Mof_C 	C 	0.8937	0.1882	0.4801	-0.017
Mof_H 	H 	0.8724	0.2138	0.4675	0.062
Mof_Cd	Cd	0.29749	0.4394	0.34874	0.441
Mof_Cd	Cd	0.42077	0.66344	0.34953	0.454
Mof_O 	O 	0.4017	0.69111	0.28078	-0.298
Mof_O 	O 	0.232	0.92155	0.221	-0.28
Mof_N 	N 	0.3731	0.5931	0.33015	-0.154
Mof_O 	O 	0.2735	0.8821	0.17332	-0.262
Mof_N 	N 	0.6179	0.6122	0.33164	-0.15
Mof_N 	N 	0.3379	0.5124	0.32793	-0.118
Mof_O 	O 	0.1673	0.512	0.27878	-0.271
Mof_C 	C 	0.3664	0.5475	0.34763	0.095
Mof_H 	H 	0.3807	0.5419	0.3712	0.031
Mof_O 	O 	0.3533	0.461	0.40477	-0.267
Mof_N 	N 	0.3247	0.5357	0.29535	-0.118
Mof_C 	C 	0.3466	0.7697	0.27286	-0.069
Mof_N 	N 	0.5209	0.6476	0.33157	-0.121
Mof_C 	C 	0.0334	0.4998	0.2825	-0.079
Mof_H 	H 	0.0558	0.4994	0.3043	0.078
Mof_C 	C 	0.3465	0.5826	0.29808	0.103
Mof_H 	H 	0.3436	0.6063	0.2794	0.018
Mof_O 	O 	0.4475	0.6179	0.4054	-0.295
Mof_O 	O 	0.3691	0.7317	0.32931	-0.267
Mof_C 	C 	0.5636	0.6204	0.3494	0.106
Mof_H 	H 	0.5561	0.608	0.3726	0.025
Mof_O 	O 	0.2711	0.4099	0.4055	-0.265
Mof_C 	C 	0.3132	0.4346	0.42151	0.299
Mof_O 	O 	0.403	0.6889	0.4052	-0.288
Mof_C 	C 	0.3165	0.432	0.462	-0.048
Mof_C 	C 	0.374	0.7287	0.2953	0.296
Mof_N 	N 	0.5499	0.6587	0.29897	-0.122
Mof_C 	C 	0.3003	0.8526	0.2673	-0.03
Mof_H 	H 	0.2859	0.8825	0.2781	0.063
Mof_C 	C 	0.316	0.8029	0.215	-0.036
Mof_H 	H 	0.3137	0.7991	0.1899	0.067
Mof_C 	C 	0.3269	0.8146	0.2885	-0.01
Mof_H 	H 	0.3314	0.8194	0.3134	0.06
Mof_C 	C 	0.3408	0.764	0.2361	-0.01
Mof_H 	H 	0.3537	0.7337	0.2252	0.045
Mof_C 	C 	0.2951	0.8466	0.23067	-0.043
Mof_C 	C 	0.4525	0.6121	0.48107	-0.017
Mof_H 	H 	0.4717	0.5853	0.4686	0.056
Mof_C 	C 	0.3657	0.4583	0.4811	-0.025
Mof_H 	H 	0.3978	0.4754	0.4685	0.058
Mof_C 	C 	0.2724	0.4038	0.4809	-0.023
Mof_H 	H 	0.2421	0.3845	0.4684	0.063
Mof_C 	C 	0.4245	0.6511	0.4622	-0.064
Mof_C 	C 	0.2661	0.8865	0.20689	0.291
Mof_C 	C 	0.6066	0.6372	0.3003	0.101
Mof_H 	H 	0.6364	0.639	0.2814	0.016
Mof_C 	C 	0.4225	0.6512	0.4214	0.351
Mof_C 	C 	0.3937	0.6882	0.4801	-0.017
Mof_H 	H 	0.3724	0.7138	0.4675	0.062
Mof_Cd	Cd	0.20251	0.0606	0.34874	0.433
Mof_Cd	Cd	0.07923	0.83656	0.34953	0.449
Mof_O 	O 	0.0983	0.80889	0.28078	-0.299
Mof_O 	O 	0.268	0.57845	0.221	-0.287
Mof_N 	N 	0.1269	0.9069	0.33015	-0.153
Mof_O 	O 	0.2265	0.6179	0.17332	-0.265
Mof_N 	N 	0.8821	0.8878	0.33164	-0.149
Mof_N 	N 	0.1621	0.9876	0.32793	-0.111
Mof_O 	O 	0.3327	0.988	0.27878	-0.248
Mof_C 	C 	0.1336	0.9525	0.34763	0.096
Mof_H 	H 	0.1193	0.9581	0.3712	0.035
Mof_O 	O 	0.1467	0.039	0.40477	-0.274
Mof_N 	N 	0.1753	0.9643	0.29535	-0.113
Mof_C 	C 	0.1534	0.7303	0.27286	-0.069
Mof_N 	N 	0.9791	0.8524	0.33157	-0.116
Mof_C 	C 	0.4666	0.0002	0.2825	-0.06
Mof_H 	H 	0.4442	0.0006	0.3043	0.068
Mof_C 	C 	0.1535	0.9174	0.29808	0.103
Mof_H 	H 	0.1564	0.8937	0.2794	0.018
Mof_O 	O 	0.0525	0.8821	0.4054	-0.298
Mof_O 	O 	0.1309	0.7683	0.32931	-0.268
Mof_C 	C 	0.9364	0.8796	0.3494	0.108
Mof_H 	H 	0.9439	0.892	0.3726	0.029
Mof_O 	O 	0.2289	0.0901	0.4055	-0.266
Mof_C 	C 	0.1868	0.0654	0.42151	0.299
Mof_O 	O 	0.097	0.8111	0.4052	-0.29
Mof_C 	C 	0.1835	0.068	0.462	-0.051
Mof_C 	C 	0.126	0.7713	0.2953	0.295
Mof_N 	N 	0.9501	0.8413	0.29897	-0.118
Mof_C 	C 	0.1997	0.6474	0.2673	-0.03
Mof_H 	H 	0.2141	0.6175	0.2781	0.061
Mof_C 	C 	0.184	0.6971	0.215	-0.035
Mof_H 	H 	0.1863	0.7009	0.1899	0.065
Mof_C 	C 	0.1731	0.6854	0.2885	-0.012
Mof_H 	H 	0.1686	0.6806	0.3134	0.059
Mof_C 	C 	0.1592	0.736	0.2361	-0.012
Mof_H 	H 	0.1463	0.7663	0.2252	0.045
Mof_C 	C 	0.2049	0.6534	0.23067	-0.046
Mof_C 	C 	0.0475	0.8879	0.48107	-0.017
Mof_H 	H 	0.0283	0.9147	0.4686	0.055
Mof_C 	C 	0.1343	0.0417	0.4811	-0.026
Mof_H 	H 	0.1022	0.0246	0.4685	0.053
Mof_C 	C 	0.2276	0.0962	0.4809	-0.023
Mof_H 	H 	0.2579	0.1155	0.4684	0.062
Mof_C 	C 	0.0755	0.8489	0.4622	-0.065
Mof_C 	C 	0.2339	0.6135	0.20689	0.291
Mof_C 	C 	0.8934	0.8628	0.3003	0.103
Mof_H 	H 	0.8636	0.861	0.2814	0.017
Mof_C 	C 	0.0775	0.8488	0.4214	0.352
Mof_C 	C 	0.1063	0.8118	0.4801	-0.017
Mof_H 	H 	0.1276	0.7862	0.4675	0.061
Mof_Cd	Cd	0.70251	0.5606	0.34874	0.443
Mof_Cd	Cd	0.57923	0.33656	0.34953	0.453
Mof_O 	O 	0.5983	0.30889	0.28078	-0.298
Mof_O 	O 	0.768	0.07845	0.221	-0.288
Mof_N 	N 	0.6269	0.4069	0.33015	-0.154
Mof_O 	O 	0.7265	0.1179	0.17332	-0.265
Mof_N 	N 	0.3821	0.3878	0.33164	-0.15
Mof_N 	N 	0.6621	0.4876	0.32793	-0.118
Mof_O 	O 	0.8327	0.488	0.27878	-0.275
Mof_C 	C 	0.6336	0.4525	0.34763	0.096
Mof_H 	H 	0.6193	0.4581	0.3712	0.031
Mof_O 	O 	0.6467	0.539	0.40477	-0.266
Mof_N 	N 	0.6753	0.4643	0.29535	-0.118
Mof_C 	C 	0.6534	0.2303	0.27286	-0.069
Mof_N 	N 	0.4791	0.3524	0.33157	-0.121
Mof_C 	C 	0.9666	0.5002	0.2825	0.028
Mof_H 	H 	0.9442	0.5006	0.3043	0.047
Mof_C 	C 	0.6535	0.4174	0.29808	0.103
Mof_H 	H 	0.6564	0.3937	0.2794	0.018
Mof_O 	O 	0.5525	0.3821	0.4054	-0.295
Mof_O 	O 	0.6309	0.2683	0.32931	-0.268
Mof_C 	C 	0.4364	0.3796	0.3494	0.106
Mof_H 	H 	0.4439	0.392	0.3726	0.025
Mof_O 	O 	0.7289	0.5901	0.4055	-0.263
Mof_C 	C 	0.6868	0.5654	0.42151	0.299
Mof_O 	O 	0.597	0.3111	0.4052	-0.289
Mof_C 	C 	0.6835	0.568	0.462	-0.047
Mof_C 	C 	0.626	0.2713	0.2953	0.296
Mof_N 	N 	0.4501	0.3413	0.29897	-0.122
Mof_C 	C 	0.6997	0.1474	0.2673	-0.03
Mof_H 	H 	0.7141	0.1175	0.2781	0.06
Mof_C 	C 	0.684	0.1971	0.215	-0.035
Mof_H 	H 	0.6863	0.2009	0.1899	0.066
Mof_C 	C 	0.6731	0.1854	0.2885	-0.011
Mof_H 	H 	0.6686	0.1806	0.3134	0.059
Mof_C 	C 	0.6592	0.236	0.2361	-0.011
Mof_H 	H 	0.6463	0.2663	0.2252	0.045
Mof_C 	C 	0.7049	0.1534	0.23067	-0.046
Mof_C 	C 	0.5475	0.3879	0.48107	-0.017
Mof_H 	H 	0.5283	0.4147	0.4686	0.056
Mof_C 	C 	0.6343	0.5417	0.4811	-0.025
Mof_H 	H 	0.6022	0.5246	0.4685	0.058
Mof_C 	C 	0.7276	0.5962	0.4809	-0.022
Mof_H 	H 	0.7579	0.6155	0.4684	0.065
Mof_C 	C 	0.5755	0.3489	0.4622	-0.065
Mof_C 	C 	0.7339	0.1135	0.20689	0.291
Mof_C 	C 	0.3934	0.3628	0.3003	0.101
Mof_H 	H 	0.3636	0.361	0.2814	0.016
Mof_C 	C 	0.5775	0.3488	0.4214	0.351
Mof_C 	C 	0.6063	0.3118	0.4801	-0.017
Mof_H 	H 	0.6276	0.2862	0.4675	0.061
Mof_Cd	Cd	0.79749	0.0606	0.84874	0.434
Mof_Cd	Cd	0.92077	0.83656	0.84953	0.46
Mof_O 	O 	0.9017	0.80889	0.78078	-0.293
Mof_O 	O 	0.732	0.57845	0.721	-0.287
Mof_N 	N 	0.8731	0.9069	0.83015	-0.153
Mof_O 	O 	0.7735	0.6179	0.67332	-0.263
Mof_N 	N 	0.1179	0.8878	0.83164	-0.15
Mof_N 	N 	0.8379	0.9876	0.82793	-0.11
Mof_O 	O 	0.6673	0.988	0.77878	-0.248
Mof_C 	C 	0.8664	0.9525	0.84763	0.098
Mof_H 	H 	0.8807	0.9581	0.8712	0.036
Mof_O 	O 	0.8533	0.039	0.90477	-0.271
Mof_N 	N 	0.8247	0.9643	0.79535	-0.112
Mof_C 	C 	0.8466	0.7303	0.77286	-0.067
Mof_N 	N 	0.0209	0.8524	0.83157	-0.126
Mof_C 	C 	0.5334	0.0002	0.7825	-0.06
Mof_H 	H 	0.5558	0.0006	0.8043	0.068
Mof_C 	C 	0.8465	0.9174	0.79808	0.105
Mof_H 	H 	0.8436	0.8937	0.7794	0.019
Mof_O 	O 	0.9475	0.8821	0.9054	-0.289
Mof_O 	O 	0.8691	0.7683	0.82931	-0.265
Mof_C 	C 	0.0636	0.8796	0.8494	0.106
Mof_H 	H 	0.0561	0.892	0.8726	0.023
Mof_O 	O 	0.7711	0.0901	0.9055	-0.265
Mof_C 	C 	0.8132	0.0654	0.92151	0.299
Mof_O 	O 	0.903	0.8111	0.9052	-0.286
Mof_C 	C 	0.8165	0.068	0.962	-0.049
Mof_C 	C 	0.874	0.7713	0.7953	0.295
Mof_N 	N 	0.0499	0.8413	0.79897	-0.123
Mof_C 	C 	0.8003	0.6474	0.7673	-0.028
Mof_H 	H 	0.7859	0.6175	0.7781	0.061
Mof_C 	C 	0.816	0.6971	0.715	-0.034
Mof_H 	H 	0.8137	0.7009	0.6899	0.067
Mof_C 	C 	0.8269	0.6854	0.7885	-0.012
Mof_H 	H 	0.8314	0.6806	0.8134	0.061
Mof_C 	C 	0.8408	0.736	0.7361	-0.012
Mof_H 	H 	0.8537	0.7663	0.7252	0.046
Mof_C 	C 	0.7951	0.6534	0.73067	-0.045
Mof_C 	C 	0.9525	0.8879	0.98107	-0.016
Mof_H 	H 	0.9717	0.9147	0.9686	0.061
Mof_C 	C 	0.8657	0.0417	0.9811	-0.025
Mof_H 	H 	0.8978	0.0246	0.9685	0.056
Mof_C 	C 	0.7724	0.0962	0.9809	-0.023
Mof_H 	H 	0.7421	0.1155	0.9684	0.063
Mof_C 	C 	0.9245	0.8489	0.9622	-0.061
Mof_C 	C 	0.7661	0.6135	0.70689	0.292
Mof_C 	C 	0.1066	0.8628	0.8003	0.101
Mof_H 	H 	0.1364	0.861	0.7814	0.016
Mof_C 	C 	0.9225	0.8488	0.9214	0.35
Mof_C 	C 	0.8937	0.8118	0.9801	-0.017
Mof_H 	H 	0.8724	0.7862	0.9675	0.063
Mof_Cd	Cd	0.29749	0.5606	0.84874	0.441
Mof_Cd	Cd	0.42077	0.33656	0.84953	0.453
Mof_O 	O 	0.4017	0.30889	0.78078	-0.298
Mof_O 	O 	0.232	0.07845	0.721	-0.289
Mof_N 	N 	0.3731	0.4069	0.83015	-0.154
Mof_O 	O 	0.2735	0.1179	0.67332	-0.265
Mof_N 	N 	0.6179	0.3878	0.83164	-0.15
Mof_N 	N 	0.3379	0.4876	0.82793	-0.118
Mof_O 	O 	0.1673	0.488	0.77878	-0.271
Mof_C 	C 	0.3664	0.4525	0.84763	0.095
Mof_H 	H 	0.3807	0.4581	0.8712	0.031
Mof_O 	O 	0.3533	0.539	0.90477	-0.267
Mof_N 	N 	0.3247	0.4643	0.79535	-0.118
Mof_C 	C 	0.3466	0.2303	0.77286	-0.069
Mof_N 	N 	0.5209	0.3524	0.83157	-0.121
Mof_C 	C 	0.0334	0.5002	0.7825	-0.079
Mof_H 	H 	0.0558	0.5006	0.8043	0.078
Mof_C 	C 	0.3465	0.4174	0.79808	0.103
Mof_H 	H 	0.3436	0.3937	0.7794	0.018
Mof_O 	O 	0.4475	0.3821	0.9054	-0.296
Mof_O 	O 	0.3691	0.2683	0.82931	-0.268
Mof_C 	C 	0.5636	0.3796	0.8494	0.106
Mof_H 	H 	0.5561	0.392	0.8726	0.025
Mof_O 	O 	0.2711	0.5901	0.9055	-0.265
Mof_C 	C 	0.3132	0.5654	0.92151	0.299
Mof_O 	O 	0.403	0.3111	0.9052	-0.289
Mof_C 	C 	0.3165	0.568	0.962	-0.048
Mof_C 	C 	0.374	0.2713	0.7953	0.296
Mof_N 	N 	0.5499	0.3413	0.79897	-0.122
Mof_C 	C 	0.3003	0.1474	0.7673	-0.03
Mof_H 	H 	0.2859	0.1175	0.7781	0.06
Mof_C 	C 	0.316	0.1971	0.715	-0.035
Mof_H 	H 	0.3137	0.2009	0.6899	0.065
Mof_C 	C 	0.3269	0.1854	0.7885	-0.011
Mof_H 	H 	0.3314	0.1806	0.8134	0.059
Mof_C 	C 	0.3408	0.236	0.7361	-0.012
Mof_H 	H 	0.3537	0.2663	0.7252	0.045
Mof_C 	C 	0.2951	0.1534	0.73067	-0.046
Mof_C 	C 	0.4525	0.3879	0.98107	-0.017
Mof_H 	H 	0.4717	0.4147	0.9686	0.056
Mof_C 	C 	0.3657	0.5417	0.9811	-0.025
Mof_H 	H 	0.3978	0.5246	0.9685	0.058
Mof_C 	C 	0.2724	0.5962	0.9809	-0.023
Mof_H 	H 	0.2421	0.6155	0.9684	0.063
Mof_C 	C 	0.4245	0.3489	0.9622	-0.065
Mof_C 	C 	0.2661	0.1135	0.70689	0.291
Mof_C 	C 	0.6066	0.3628	0.8003	0.101
Mof_H 	H 	0.6364	0.361	0.7814	0.016
Mof_C 	C 	0.4225	0.3488	0.9214	0.351
Mof_C 	C 	0.3937	0.3118	0.9801	-0.017
Mof_H 	H 	0.3724	0.2862	0.9675	0.061
Mof_Cd	Cd	0.20251	0.9394	0.84874	0.451
Mof_Cd	Cd	0.07923	0.16344	0.84953	0.447
Mof_O 	O 	0.0983	0.19111	0.78078	-0.299
Mof_O 	O 	0.268	0.42155	0.721	-0.287
Mof_N 	N 	0.1269	0.0931	0.83015	-0.155
Mof_O 	O 	0.2265	0.3821	0.67332	-0.265
Mof_N 	N 	0.8821	0.1122	0.83164	-0.15
Mof_N 	N 	0.1621	0.0124	0.82793	-0.125
Mof_O 	O 	0.3327	0.012	0.77878	-0.274
Mof_C 	C 	0.1336	0.0475	0.84763	0.093
Mof_H 	H 	0.1193	0.0419	0.8712	0.025
Mof_O 	O 	0.1467	0.961	0.90477	-0.262
Mof_N 	N 	0.1753	0.0357	0.79535	-0.12
Mof_C 	C 	0.1534	0.2697	0.77286	-0.069
Mof_N 	N 	0.9791	0.1476	0.83157	-0.116
Mof_C 	C 	0.4666	0.9998	0.7825	0.027
Mof_H 	H 	0.4442	0.9994	0.8043	0.053
Mof_C 	C 	0.1535	0.0826	0.79808	0.1
Mof_H 	H 	0.1564	0.1063	0.7794	0.017
Mof_O 	O 	0.0525	0.1179	0.9054	-0.302
Mof_O 	O 	0.1309	0.2317	0.82931	-0.268
Mof_C 	C 	0.9364	0.1204	0.8494	0.106
Mof_H 	H 	0.9439	0.108	0.8726	0.028
Mof_O 	O 	0.2289	0.9099	0.9055	-0.263
Mof_C 	C 	0.1868	0.9346	0.92151	0.298
Mof_O 	O 	0.097	0.1889	0.9052	-0.29
Mof_C 	C 	0.1835	0.932	0.962	-0.046
Mof_C 	C 	0.126	0.2287	0.7953	0.295
Mof_N 	N 	0.9501	0.1587	0.79897	-0.118
Mof_C 	C 	0.1997	0.3526	0.7673	-0.03
Mof_H 	H 	0.2141	0.3825	0.7781	0.061
Mof_C 	C 	0.184	0.3029	0.715	-0.035
Mof_H 	H 	0.1863	0.2991	0.6899	0.065
Mof_C 	C 	0.1731	0.3146	0.7885	-0.012
Mof_H 	H 	0.1686	0.3194	0.8134	0.059
Mof_C 	C 	0.1592	0.264	0.7361	-0.012
Mof_H 	H 	0.1463	0.2337	0.7252	0.045
Mof_C 	C 	0.2049	0.3466	0.73067	-0.046
Mof_C 	C 	0.0475	0.1121	0.98107	-0.018
Mof_H 	H 	0.0283	0.0853	0.9686	0.05
Mof_C 	C 	0.1343	0.9583	0.9811	-0.025
Mof_H 	H 	0.1022	0.9754	0.9685	0.06
Mof_C 	C 	0.2276	0.9038	0.9809	-0.023
Mof_H 	H 	0.2579	0.8845	0.9684	0.064
Mof_C 	C 	0.0755	0.1511	0.9622	-0.068
Mof_C 	C 	0.2339	0.3865	0.70689	0.292
Mof_C 	C 	0.8934	0.1372	0.8003	0.101
Mof_H 	H 	0.8636	0.139	0.7814	0.017
Mof_C 	C 	0.0775	0.1512	0.9214	0.352
Mof_C 	C 	0.1063	0.1882	0.9801	-0.018
Mof_H 	H 	0.1276	0.2138	0.9675	0.06
Mof_Cd	Cd	0.70251	0.4394	0.84874	0.443
Mof_Cd	Cd	0.57923	0.66344	0.84953	0.454
Mof_O 	O 	0.5983	0.69111	0.78078	-0.298
Mof_O 	O 	0.768	0.92155	0.721	-0.279
Mof_N 	N 	0.6269	0.5931	0.83015	-0.154
Mof_O 	O 	0.7265	0.8821	0.67332	-0.262
Mof_N 	N 	0.3821	0.6122	0.83164	-0.15
Mof_N 	N 	0.6621	0.5124	0.82793	-0.118
Mof_O 	O 	0.8327	0.512	0.77878	-0.275
Mof_C 	C 	0.6336	0.5475	0.84763	0.096
Mof_H 	H 	0.6193	0.5419	0.8712	0.031
Mof_O 	O 	0.6467	0.461	0.90477	-0.266
Mof_N 	N 	0.6753	0.5357	0.79535	-0.118
Mof_C 	C 	0.6534	0.7697	0.77286	-0.069
Mof_N 	N 	0.4791	0.6476	0.83157	-0.121
Mof_C 	C 	0.9666	0.4998	0.7825	0.028
Mof_H 	H 	0.9442	0.4994	0.8043	0.047
Mof_C 	C 	0.6535	0.5826	0.79808	0.103
Mof_H 	H 	0.6564	0.6063	0.7794	0.018
Mof_O 	O 	0.5525	0.6179	0.9054	-0.295
Mof_O 	O 	0.6309	0.7317	0.82931	-0.266
Mof_C 	C 	0.4364	0.6204	0.8494	0.106
Mof_H 	H 	0.4439	0.608	0.8726	0.025
Mof_O 	O 	0.7289	0.4099	0.9055	-0.263
Mof_C 	C 	0.6868	0.4346	0.92151	0.299
Mof_O 	O 	0.597	0.6889	0.9052	-0.288
Mof_C 	C 	0.6835	0.432	0.962	-0.047
Mof_C 	C 	0.626	0.7287	0.7953	0.296
Mof_N 	N 	0.4501	0.6587	0.79897	-0.122
Mof_C 	C 	0.6997	0.8526	0.7673	-0.031
Mof_H 	H 	0.7141	0.8825	0.7781	0.063
Mof_C 	C 	0.684	0.8029	0.715	-0.036
Mof_H 	H 	0.6863	0.7991	0.6899	0.067
Mof_C 	C 	0.6731	0.8146	0.7885	-0.01
Mof_H 	H 	0.6686	0.8194	0.8134	0.06
Mof_C 	C 	0.6592	0.764	0.7361	-0.01
Mof_H 	H 	0.6463	0.7337	0.7252	0.045
Mof_C 	C 	0.7049	0.8466	0.73067	-0.043
Mof_C 	C 	0.5475	0.6121	0.98107	-0.017
Mof_H 	H 	0.5283	0.5853	0.9686	0.056
Mof_C 	C 	0.6343	0.4583	0.9811	-0.025
Mof_H 	H 	0.6022	0.4754	0.9685	0.058
Mof_C 	C 	0.7276	0.4038	0.9809	-0.022
Mof_H 	H 	0.7579	0.3845	0.9684	0.065
Mof_C 	C 	0.5755	0.6511	0.9622	-0.064
Mof_C 	C 	0.7339	0.8865	0.70689	0.29
Mof_C 	C 	0.3934	0.6372	0.8003	0.101
Mof_H 	H 	0.3636	0.639	0.7814	0.016
Mof_C 	C 	0.5775	0.6512	0.9214	0.351
Mof_C 	C 	0.6063	0.6882	0.9801	-0.017
Mof_H 	H 	0.6276	0.7138	0.9675	0.062
Mof_Cd	Cd	0.20251	0.0606	0.65126	0.433
Mof_Cd	Cd	0.07923	0.83656	0.65047	0.449
Mof_O 	O 	0.0983	0.80889	0.71922	-0.299
Mof_O 	O 	0.268	0.57845	0.779	-0.287
Mof_N 	N 	0.1269	0.9069	0.66985	-0.153
Mof_O 	O 	0.2265	0.6179	0.82668	-0.265
Mof_N 	N 	0.8821	0.8878	0.66836	-0.149
Mof_N 	N 	0.1621	0.9876	0.67207	-0.111
Mof_O 	O 	0.3327	0.988	0.72122	-0.248
Mof_C 	C 	0.1336	0.9525	0.65237	0.096
Mof_H 	H 	0.1193	0.9581	0.6288	0.035
Mof_O 	O 	0.1467	0.039	0.59523	-0.274
Mof_N 	N 	0.1753	0.9643	0.70465	-0.113
Mof_C 	C 	0.1534	0.7303	0.72714	-0.069
Mof_N 	N 	0.9791	0.8524	0.66843	-0.116
Mof_C 	C 	0.4666	0.0002	0.7175	-0.06
Mof_H 	H 	0.4442	0.0006	0.6957	0.068
Mof_C 	C 	0.1535	0.9174	0.70192	0.103
Mof_H 	H 	0.1564	0.8937	0.7206	0.018
Mof_O 	O 	0.0525	0.8821	0.5946	-0.298
Mof_O 	O 	0.1309	0.7683	0.67069	-0.268
Mof_C 	C 	0.9364	0.8796	0.6506	0.108
Mof_H 	H 	0.9439	0.892	0.6274	0.029
Mof_O 	O 	0.2289	0.0901	0.5945	-0.266
Mof_C 	C 	0.1868	0.0654	0.57849	0.299
Mof_O 	O 	0.097	0.8111	0.5948	-0.29
Mof_C 	C 	0.1835	0.068	0.538	-0.051
Mof_C 	C 	0.126	0.7713	0.7047	0.295
Mof_N 	N 	0.9501	0.8413	0.70103	-0.118
Mof_C 	C 	0.1997	0.6474	0.7327	-0.03
Mof_H 	H 	0.2141	0.6175	0.7219	0.061
Mof_C 	C 	0.184	0.6971	0.785	-0.035
Mof_H 	H 	0.1863	0.7009	0.8101	0.065
Mof_C 	C 	0.1731	0.6854	0.7115	-0.012
Mof_H 	H 	0.1686	0.6806	0.6866	0.059
Mof_C 	C 	0.1592	0.736	0.7639	-0.012
Mof_H 	H 	0.1463	0.7663	0.7748	0.045
Mof_C 	C 	0.2049	0.6534	0.76933	-0.046
Mof_C 	C 	0.0475	0.8879	0.51893	-0.017
Mof_H 	H 	0.0283	0.9147	0.5314	0.055
Mof_C 	C 	0.1343	0.0417	0.5189	-0.026
Mof_H 	H 	0.1022	0.0246	0.5315	0.053
Mof_C 	C 	0.2276	0.0962	0.5191	-0.023
Mof_H 	H 	0.2579	0.1155	0.5316	0.062
Mof_C 	C 	0.0755	0.8489	0.5378	-0.065
Mof_C 	C 	0.2339	0.6135	0.79311	0.291
Mof_C 	C 	0.8934	0.8628	0.6997	0.103
Mof_H 	H 	0.8636	0.861	0.7186	0.017
Mof_C 	C 	0.0775	0.8488	0.5786	0.352
Mof_C 	C 	0.1063	0.8118	0.5199	-0.017
Mof_H 	H 	0.1276	0.7862	0.5325	0.061
Mof_Cd	Cd	0.70251	0.5606	0.65126	0.443
Mof_Cd	Cd	0.57923	0.33656	0.65047	0.453
Mof_O 	O 	0.5983	0.30889	0.71922	-0.298
Mof_O 	O 	0.768	0.07845	0.779	-0.288
Mof_N 	N 	0.6269	0.4069	0.66985	-0.154
Mof_O 	O 	0.7265	0.1179	0.82668	-0.265
Mof_N 	N 	0.3821	0.3878	0.66836	-0.15
Mof_N 	N 	0.6621	0.4876	0.67207	-0.118
Mof_O 	O 	0.8327	0.488	0.72122	-0.275
Mof_C 	C 	0.6336	0.4525	0.65237	0.096
Mof_H 	H 	0.6193	0.4581	0.6288	0.031
Mof_O 	O 	0.6467	0.539	0.59523	-0.266
Mof_N 	N 	0.6753	0.4643	0.70465	-0.118
Mof_C 	C 	0.6534	0.2303	0.72714	-0.069
Mof_N 	N 	0.4791	0.3524	0.66843	-0.121
Mof_C 	C 	0.9666	0.5002	0.7175	0.028
Mof_H 	H 	0.9442	0.5006	0.6957	0.047
Mof_C 	C 	0.6535	0.4174	0.70192	0.103
Mof_H 	H 	0.6564	0.3937	0.7206	0.018
Mof_O 	O 	0.5525	0.3821	0.5946	-0.295
Mof_O 	O 	0.6309	0.2683	0.67069	-0.268
Mof_C 	C 	0.4364	0.3796	0.6506	0.106
Mof_H 	H 	0.4439	0.392	0.6274	0.025
Mof_O 	O 	0.7289	0.5901	0.5945	-0.263
Mof_C 	C 	0.6868	0.5654	0.57849	0.299
Mof_O 	O 	0.597	0.3111	0.5948	-0.289
Mof_C 	C 	0.6835	0.568	0.538	-0.047
Mof_C 	C 	0.626	0.2713	0.7047	0.296
Mof_N 	N 	0.4501	0.3413	0.70103	-0.122
Mof_C 	C 	0.6997	0.1474	0.7327	-0.03
Mof_H 	H 	0.7141	0.1175	0.7219	0.06
Mof_C 	C 	0.684	0.1971	0.785	-0.035
Mof_H 	H 	0.6863	0.2009	0.8101	0.066
Mof_C 	C 	0.6731	0.1854	0.7115	-0.011
Mof_H 	H 	0.6686	0.1806	0.6866	0.059
Mof_C 	C 	0.6592	0.236	0.7639	-0.011
Mof_H 	H 	0.6463	0.2663	0.7748	0.045
Mof_C 	C 	0.7049	0.1534	0.76933	-0.046
Mof_C 	C 	0.5475	0.3879	0.51893	-0.017
Mof_H 	H 	0.5283	0.4147	0.5314	0.056
Mof_C 	C 	0.6343	0.5417	0.5189	-0.025
Mof_H 	H 	0.6022	0.5246	0.5315	0.058
Mof_C 	C 	0.7276	0.5962	0.5191	-0.022
Mof_H 	H 	0.7579	0.6155	0.5316	0.065
Mof_C 	C 	0.5755	0.3489	0.5378	-0.065
Mof_C 	C 	0.7339	0.1135	0.79311	0.291
Mof_C 	C 	0.3934	0.3628	0.6997	0.101
Mof_H 	H 	0.3636	0.361	0.7186	0.016
Mof_C 	C 	0.5775	0.3488	0.5786	0.351
Mof_C 	C 	0.6063	0.3118	0.5199	-0.017
Mof_H 	H 	0.6276	0.2862	0.5325	0.061
Mof_Cd	Cd	0.79749	0.9394	0.65126	0.452
Mof_Cd	Cd	0.92077	0.16344	0.65047	0.459
Mof_O 	O 	0.9017	0.19111	0.71922	-0.294
Mof_O 	O 	0.732	0.42155	0.779	-0.287
Mof_N 	N 	0.8731	0.0931	0.66985	-0.154
Mof_O 	O 	0.7735	0.3821	0.82668	-0.263
Mof_N 	N 	0.1179	0.1122	0.66836	-0.151
Mof_N 	N 	0.8379	0.0124	0.67207	-0.124
Mof_O 	O 	0.6673	0.012	0.72122	-0.274
Mof_C 	C 	0.8664	0.0475	0.65237	0.095
Mof_H 	H 	0.8807	0.0419	0.6288	0.027
Mof_O 	O 	0.8533	0.961	0.59523	-0.259
Mof_N 	N 	0.8247	0.0357	0.70465	-0.12
Mof_C 	C 	0.8466	0.2697	0.72714	-0.067
Mof_N 	N 	0.0209	0.1476	0.66843	-0.126
Mof_C 	C 	0.5334	0.9998	0.7175	0.027
Mof_H 	H 	0.5558	0.9994	0.6957	0.053
Mof_C 	C 	0.8465	0.0826	0.70192	0.102
Mof_H 	H 	0.8436	0.1063	0.7206	0.018
Mof_O 	O 	0.9475	0.1179	0.5946	-0.293
Mof_O 	O 	0.8691	0.2317	0.67069	-0.266
Mof_C 	C 	0.0636	0.1204	0.6506	0.104
Mof_H 	H 	0.0561	0.108	0.6274	0.021
Mof_O 	O 	0.7711	0.9099	0.5945	-0.262
Mof_C 	C 	0.8132	0.9346	0.57849	0.298
Mof_O 	O 	0.903	0.1889	0.5948	-0.287
Mof_C 	C 	0.8165	0.932	0.538	-0.044
Mof_C 	C 	0.874	0.2287	0.7047	0.295
Mof_N 	N 	0.0499	0.1587	0.70103	-0.124
Mof_C 	C 	0.8003	0.3526	0.7327	-0.029
Mof_H 	H 	0.7859	0.3825	0.7219	0.061
Mof_C 	C 	0.816	0.3029	0.785	-0.034
Mof_H 	H 	0.8137	0.2991	0.8101	0.067
Mof_C 	C 	0.8269	0.3146	0.7115	-0.012
Mof_H 	H 	0.8314	0.3194	0.6866	0.061
Mof_C 	C 	0.8408	0.264	0.7639	-0.011
Mof_H 	H 	0.8537	0.2337	0.7748	0.047
Mof_C 	C 	0.7951	0.3466	0.76933	-0.045
Mof_C 	C 	0.9525	0.1121	0.51893	-0.017
Mof_H 	H 	0.9717	0.0853	0.5314	0.056
Mof_C 	C 	0.8657	0.9583	0.5189	-0.023
Mof_H 	H 	0.8978	0.9754	0.5315	0.064
Mof_C 	C 	0.7724	0.9038	0.5191	-0.022
Mof_H 	H 	0.7421	0.8845	0.5316	0.065
Mof_C 	C 	0.9245	0.1511	0.5378	-0.063
Mof_C 	C 	0.7661	0.3865	0.79311	0.292
Mof_C 	C 	0.1066	0.1372	0.6997	0.099
Mof_H 	H 	0.1364	0.139	0.7186	0.016
Mof_C 	C 	0.9225	0.1512	0.5786	0.35
Mof_C 	C 	0.8937	0.1882	0.5199	-0.017
Mof_H 	H 	0.8724	0.2138	0.5325	0.062
Mof_Cd	Cd	0.29749	0.4394	0.65126	0.441
Mof_Cd	Cd	0.42077	0.66344	0.65047	0.454
Mof_O 	O 	0.4017	0.69111	0.71922	-0.298
Mof_O 	O 	0.232	0.92155	0.779	-0.28
Mof_N 	N 	0.3731	0.5931	0.66985	-0.154
Mof_O 	O 	0.2735	0.8821	0.82668	-0.262
Mof_N 	N 	0.6179	0.6122	0.66836	-0.15
Mof_N 	N 	0.3379	0.5124	0.67207	-0.118
Mof_O 	O 	0.1673	0.512	0.72122	-0.271
Mof_C 	C 	0.3664	0.5475	0.65237	0.095
Mof_H 	H 	0.3807	0.5419	0.6288	0.031
Mof_O 	O 	0.3533	0.461	0.59523	-0.267
Mof_N 	N 	0.3247	0.5357	0.70465	-0.118
Mof_C 	C 	0.3466	0.7697	0.72714	-0.069
Mof_N 	N 	0.5209	0.6476	0.66843	-0.121
Mof_C 	C 	0.0334	0.4998	0.7175	-0.079
Mof_H 	H 	0.0558	0.4994	0.6957	0.078
Mof_C 	C 	0.3465	0.5826	0.70192	0.103
Mof_H 	H 	0.3436	0.6063	0.7206	0.018
Mof_O 	O 	0.4475	0.6179	0.5946	-0.295
Mof_O 	O 	0.3691	0.7317	0.67069	-0.267
Mof_C 	C 	0.5636	0.6204	0.6506	0.106
Mof_H 	H 	0.5561	0.608	0.6274	0.025
Mof_O 	O 	0.2711	0.4099	0.5945	-0.265
Mof_C 	C 	0.3132	0.4346	0.57849	0.299
Mof_O 	O 	0.403	0.6889	0.5948	-0.288
Mof_C 	C 	0.3165	0.432	0.538	-0.048
Mof_C 	C 	0.374	0.7287	0.7047	0.296
Mof_N 	N 	0.5499	0.6587	0.70103	-0.122
Mof_C 	C 	0.3003	0.8526	0.7327	-0.03
Mof_H 	H 	0.2859	0.8825	0.7219	0.063
Mof_C 	C 	0.316	0.8029	0.785	-0.036
Mof_H 	H 	0.3137	0.7991	0.8101	0.067
Mof_C 	C 	0.3269	0.8146	0.7115	-0.01
Mof_H 	H 	0.3314	0.8194	0.6866	0.06
Mof_C 	C 	0.3408	0.764	0.7639	-0.01
Mof_H 	H 	0.3537	0.7337	0.7748	0.045
Mof_C 	C 	0.2951	0.8466	0.76933	-0.043
Mof_C 	C 	0.4525	0.6121	0.51893	-0.017
Mof_H 	H 	0.4717	0.5853	0.5314	0.056
Mof_C 	C 	0.3657	0.4583	0.5189	-0.025
Mof_H 	H 	0.3978	0.4754	0.5315	0.058
Mof_C 	C 	0.2724	0.4038	0.5191	-0.023
Mof_H 	H 	0.2421	0.3845	0.5316	0.063
Mof_C 	C 	0.4245	0.6511	0.5378	-0.064
Mof_C 	C 	0.2661	0.8865	0.79311	0.291
Mof_C 	C 	0.6066	0.6372	0.6997	0.101
Mof_H 	H 	0.6364	0.639	0.7186	0.016
Mof_C 	C 	0.4225	0.6512	0.5786	0.351
Mof_C 	C 	0.3937	0.6882	0.5199	-0.017
Mof_H 	H 	0.3724	0.7138	0.5325	0.062
Mof_Cd	Cd	0.23151	0	0.25	0.43
Mof_C 	C 	0.3587	0	0.25	0.284
Mof_C 	C 	0.4331	0	0.25	-0.057
Mof_Cd	Cd	0.73151	0.5	0.25	0.449
Mof_C 	C 	0.8587	0.5	0.25	0.317
Mof_C 	C 	0.9331	0.5	0.25	-0.073
Mof_Cd	Cd	0.76849	0	0.25	0.431
Mof_C 	C 	0.6413	0	0.25	0.284
Mof_C 	C 	0.5669	0	0.25	-0.057
Mof_Cd	Cd	0.26849	0.5	0.25	0.448
Mof_C 	C 	0.1413	0.5	0.25	0.293
Mof_C 	C 	0.0669	0.5	0.25	-0.007
Mof_Cd	Cd	0.76849	0	0.75	0.431
Mof_C 	C 	0.6413	0	0.75	0.284
Mof_C 	C 	0.5669	0	0.75	-0.057
Mof_Cd	Cd	0.26849	0.5	0.75	0.448
Mof_C 	C 	0.1413	0.5	0.75	0.293
Mof_C 	C 	0.0669	0.5	0.75	-0.007
Mof_Cd	Cd	0.23151	0	0.75	0.43
Mof_C 	C 	0.3587	0	0.75	0.284
Mof_C 	C 	0.4331	0	0.75	-0.057
Mof_Cd	Cd	0.73151	0.5	0.75	0.449
Mof_C 	C 	0.8587	0.5	0.75	0.317
Mof_C 	C 	0.9331	0.5	0.75	-0.073
Mof_Cd	Cd	1.66688e-33	0.19109	0.25	0.369
Mof_Cd	Cd	0.5	0.69109	0.25	0.383
Mof_Cd	Cd	-3.3534e-33	0.80891	0.25	0.37
Mof_Cd	Cd	0.5	0.30891	0.25	0.382
Mof_Cd	Cd	1.50412e-32	0.80891	0.75	0.37
Mof_Cd	Cd	0.5	0.30891	0.75	0.382
Mof_Cd	Cd	5.00063e-33	0.19109	0.75	0.369
Mof_Cd	Cd	0.5	0.69109	0.75	0.383
_end
