# CIF file generated by openbabel 2.4.1, see http://openbabel.sf.net
data_I
_chemical_name_common 'image0'
_cell_length_a 15.0294
_cell_length_b 15.0294
_cell_length_c 19.2362
_cell_angle_alpha 90
_cell_angle_beta 90
_cell_angle_gamma 90
_space_group_name_H-M_alt 'P 1'
_space_group_name_Hall 'P 1'
loop_
    _symmetry_equiv_pos_as_xyz
    x,y,z
loop_
    _atom_site_label
    _atom_site_type_symbol
    _atom_site_fract_x
    _atom_site_fract_y
    _atom_site_fract_z
    _atom_site_occupancy
    O1      O    0.94566   0.12168   0.05779   1.000
    C1      C    0.82953   0.26451   0.06218   1.000
    H1      H    0.85270   0.24360   0.10450   1.000
    C2      C    0.95400   0.07790   0.21120   1.000
    H2      H    0.90290   0.09400   0.18230   1.000
    H3      H    0.99440   0.12900   0.21410   1.000
    C3      C    0.91530   0.02500   0.20860   1.000
    O2      O    0.44566   0.62168   0.55779   1.000
    C4      C    0.32953   0.76451   0.56218   1.000
    H4      H    0.35270   0.74360   0.60450   1.000
    C5      C    0.45400   0.57790   0.71120   1.000
    H5      H    0.40290   0.59400   0.68230   1.000
    H6      H    0.49440   0.62900   0.71410   1.000
    C6      C    0.41530   0.52500   0.70860   1.000
    O3      O    0.05434   0.87832   0.05779   1.000
    C7      C    0.17047   0.73549   0.06218   1.000
    H7      H    0.14730   0.75640   0.10450   1.000
    C8      C    0.04600   0.92210   0.21120   1.000
    H8      H    0.09710   0.90600   0.18230   1.000
    H9      H    0.00560   0.87100   0.21410   1.000
    C9      C    0.08470   0.97500   0.20860   1.000
    O4      O    0.55434   0.37832   0.55779   1.000
    C10     C    0.67047   0.23549   0.56218   1.000
    H10     H    0.64730   0.25640   0.60450   1.000
    C11     C    0.54600   0.42210   0.71120   1.000
    H11     H    0.59710   0.40600   0.68230   1.000
    H12     H    0.50560   0.37100   0.71410   1.000
    C12     C    0.58470   0.47500   0.70860   1.000
    O5      O    0.87832   0.94566   0.05779   1.000
    C13     C    0.73549   0.82953   0.06218   1.000
    H13     H    0.75640   0.85270   0.10450   1.000
    C14     C    0.92210   0.95400   0.21120   1.000
    H14     H    0.90600   0.90290   0.18230   1.000
    H15     H    0.87100   0.99440   0.21410   1.000
    C15     C    0.97500   0.91530   0.20860   1.000
    O6      O    0.37832   0.44566   0.55779   1.000
    C16     C    0.23549   0.32953   0.56218   1.000
    H16     H    0.25640   0.35270   0.60450   1.000
    C17     C    0.42210   0.45400   0.71120   1.000
    H17     H    0.40600   0.40290   0.68230   1.000
    H18     H    0.37100   0.49440   0.71410   1.000
    C18     C    0.47500   0.41530   0.70860   1.000
    O7      O    0.12168   0.05434   0.05779   1.000
    C19     C    0.26451   0.17047   0.06218   1.000
    H19     H    0.24360   0.14730   0.10450   1.000
    C20     C    0.07790   0.04600   0.21120   1.000
    H20     H    0.09400   0.09710   0.18230   1.000
    H21     H    0.12900   0.00560   0.21410   1.000
    C21     C    0.02500   0.08470   0.20860   1.000
    O8      O    0.62168   0.55434   0.55779   1.000
    C22     C    0.76451   0.67047   0.56218   1.000
    H22     H    0.74360   0.64730   0.60450   1.000
    C23     C    0.57790   0.54600   0.71120   1.000
    H23     H    0.59400   0.59710   0.68230   1.000
    H24     H    0.62900   0.50560   0.71410   1.000
    C24     C    0.52500   0.58470   0.70860   1.000
    O9      O    0.05434   0.12168   0.44221   1.000
    C25     C    0.17047   0.26451   0.43782   1.000
    H25     H    0.14730   0.24360   0.39550   1.000
    C26     C    0.04600   0.07790   0.28880   1.000
    H26     H    0.09710   0.09400   0.31770   1.000
    H27     H    0.00560   0.12900   0.28590   1.000
    C27     C    0.08470   0.02500   0.29140   1.000
    O10     O    0.55434   0.62168   0.94221   1.000
    C28     C    0.67047   0.76451   0.93782   1.000
    H28     H    0.64730   0.74360   0.89550   1.000
    C29     C    0.54600   0.57790   0.78880   1.000
    H29     H    0.59710   0.59400   0.81770   1.000
    H30     H    0.50560   0.62900   0.78590   1.000
    C30     C    0.58470   0.52500   0.79140   1.000
    O11     O    0.94566   0.87832   0.44221   1.000
    C31     C    0.82953   0.73549   0.43782   1.000
    H31     H    0.85270   0.75640   0.39550   1.000
    C32     C    0.95400   0.92210   0.28880   1.000
    H32     H    0.90290   0.90600   0.31770   1.000
    H33     H    0.99440   0.87100   0.28590   1.000
    C33     C    0.91530   0.97500   0.29140   1.000
    O12     O    0.44566   0.37832   0.94221   1.000
    C34     C    0.32953   0.23549   0.93782   1.000
    H34     H    0.35270   0.25640   0.89550   1.000
    C35     C    0.45400   0.42210   0.78880   1.000
    H35     H    0.40290   0.40600   0.81770   1.000
    H36     H    0.49440   0.37100   0.78590   1.000
    C36     C    0.41530   0.47500   0.79140   1.000
    O13     O    0.12168   0.94566   0.44221   1.000
    C37     C    0.26451   0.82953   0.43782   1.000
    H37     H    0.24360   0.85270   0.39550   1.000
    C38     C    0.07790   0.95400   0.28880   1.000
    H38     H    0.09400   0.90290   0.31770   1.000
    H39     H    0.12900   0.99440   0.28590   1.000
    C39     C    0.02500   0.91530   0.29140   1.000
    O14     O    0.62168   0.44566   0.94221   1.000
    C40     C    0.76451   0.32953   0.93782   1.000
    H40     H    0.74360   0.35270   0.89550   1.000
    C41     C    0.57790   0.45400   0.78880   1.000
    H41     H    0.59400   0.40290   0.81770   1.000
    H42     H    0.62900   0.49440   0.78590   1.000
    C42     C    0.52500   0.41530   0.79140   1.000
    O15     O    0.87832   0.05434   0.44221   1.000
    C43     C    0.73549   0.17047   0.43782   1.000
    H43     H    0.75640   0.14730   0.39550   1.000
    C44     C    0.92210   0.04600   0.28880   1.000
    H44     H    0.90600   0.09710   0.31770   1.000
    H45     H    0.87100   0.00560   0.28590   1.000
    C45     C    0.97500   0.08470   0.29140   1.000
    O16     O    0.37832   0.55434   0.94221   1.000
    C46     C    0.23549   0.67047   0.93782   1.000
    H46     H    0.25640   0.64730   0.89550   1.000
    C47     C    0.42210   0.54600   0.78880   1.000
    H47     H    0.40600   0.59710   0.81770   1.000
    H48     H    0.37100   0.50560   0.78590   1.000
    C48     C    0.47500   0.58470   0.79140   1.000
    O17     O    0.05434   0.87832   0.94221   1.000
    C49     C    0.17047   0.73549   0.93782   1.000
    H49     H    0.14730   0.75640   0.89550   1.000
    C50     C    0.04600   0.92210   0.78880   1.000
    H50     H    0.09710   0.90600   0.81770   1.000
    H51     H    0.00560   0.87100   0.78590   1.000
    C51     C    0.08470   0.97500   0.79140   1.000
    O18     O    0.55434   0.37832   0.44221   1.000
    C52     C    0.67047   0.23549   0.43782   1.000
    H52     H    0.64730   0.25640   0.39550   1.000
    C53     C    0.54600   0.42210   0.28880   1.000
    H53     H    0.59710   0.40600   0.31770   1.000
    H54     H    0.50560   0.37100   0.28590   1.000
    C54     C    0.58470   0.47500   0.29140   1.000
    O19     O    0.94566   0.12168   0.94221   1.000
    C55     C    0.82953   0.26451   0.93782   1.000
    H55     H    0.85270   0.24360   0.89550   1.000
    C56     C    0.95400   0.07790   0.78880   1.000
    H56     H    0.90290   0.09400   0.81770   1.000
    H57     H    0.99440   0.12900   0.78590   1.000
    C57     C    0.91530   0.02500   0.79140   1.000
    O20     O    0.44566   0.62168   0.44221   1.000
    C58     C    0.32953   0.76451   0.43782   1.000
    H58     H    0.35270   0.74360   0.39550   1.000
    C59     C    0.45400   0.57790   0.28880   1.000
    H59     H    0.40290   0.59400   0.31770   1.000
    H60     H    0.49440   0.62900   0.28590   1.000
    C60     C    0.41530   0.52500   0.29140   1.000
    O21     O    0.12168   0.05434   0.94221   1.000
    C61     C    0.26451   0.17047   0.93782   1.000
    H61     H    0.24360   0.14730   0.89550   1.000
    C62     C    0.07790   0.04600   0.78880   1.000
    H62     H    0.09400   0.09710   0.81770   1.000
    H63     H    0.12900   0.00560   0.78590   1.000
    C63     C    0.02500   0.08470   0.79140   1.000
    O22     O    0.62168   0.55434   0.44221   1.000
    C64     C    0.76451   0.67047   0.43782   1.000
    H64     H    0.74360   0.64730   0.39550   1.000
    C65     C    0.57790   0.54600   0.28880   1.000
    H65     H    0.59400   0.59710   0.31770   1.000
    H66     H    0.62900   0.50560   0.28590   1.000
    C66     C    0.52500   0.58470   0.29140   1.000
    O23     O    0.87832   0.94566   0.94221   1.000
    C67     C    0.73549   0.82953   0.93782   1.000
    H67     H    0.75640   0.85270   0.89550   1.000
    C68     C    0.92210   0.95400   0.78880   1.000
    H68     H    0.90600   0.90290   0.81770   1.000
    H69     H    0.87100   0.99440   0.78590   1.000
    C69     C    0.97500   0.91530   0.79140   1.000
    O24     O    0.37832   0.44566   0.44221   1.000
    C70     C    0.23549   0.32953   0.43782   1.000
    H70     H    0.25640   0.35270   0.39550   1.000
    C71     C    0.42210   0.45400   0.28880   1.000
    H71     H    0.40600   0.40290   0.31770   1.000
    H72     H    0.37100   0.49440   0.28590   1.000
    C72     C    0.47500   0.41530   0.29140   1.000
    O25     O    0.94566   0.87832   0.55779   1.000
    C73     C    0.82953   0.73549   0.56218   1.000
    H73     H    0.85270   0.75640   0.60450   1.000
    C74     C    0.95400   0.92210   0.71120   1.000
    H74     H    0.90290   0.90600   0.68230   1.000
    H75     H    0.99440   0.87100   0.71410   1.000
    C75     C    0.91530   0.97500   0.70860   1.000
    O26     O    0.44566   0.37832   0.05779   1.000
    C76     C    0.32953   0.23549   0.06218   1.000
    H76     H    0.35270   0.25640   0.10450   1.000
    C77     C    0.45400   0.42210   0.21120   1.000
    H77     H    0.40290   0.40600   0.18230   1.000
    H78     H    0.49440   0.37100   0.21410   1.000
    C78     C    0.41530   0.47500   0.20860   1.000
    O27     O    0.05434   0.12168   0.55779   1.000
    C79     C    0.17047   0.26451   0.56218   1.000
    H79     H    0.14730   0.24360   0.60450   1.000
    C80     C    0.04600   0.07790   0.71120   1.000
    H80     H    0.09710   0.09400   0.68230   1.000
    H81     H    0.00560   0.12900   0.71410   1.000
    C81     C    0.08470   0.02500   0.70860   1.000
    O28     O    0.55434   0.62168   0.05779   1.000
    C82     C    0.67047   0.76451   0.06218   1.000
    H82     H    0.64730   0.74360   0.10450   1.000
    C83     C    0.54600   0.57790   0.21120   1.000
    H83     H    0.59710   0.59400   0.18230   1.000
    H84     H    0.50560   0.62900   0.21410   1.000
    C84     C    0.58470   0.52500   0.20860   1.000
    O29     O    0.87832   0.05434   0.55779   1.000
    C85     C    0.73549   0.17047   0.56218   1.000
    H85     H    0.75640   0.14730   0.60450   1.000
    C86     C    0.92210   0.04600   0.71120   1.000
    H86     H    0.90600   0.09710   0.68230   1.000
    H87     H    0.87100   0.00560   0.71410   1.000
    C87     C    0.97500   0.08470   0.70860   1.000
    O30     O    0.37832   0.55434   0.05779   1.000
    C88     C    0.23549   0.67047   0.06218   1.000
    H88     H    0.25640   0.64730   0.10450   1.000
    C89     C    0.42210   0.54600   0.21120   1.000
    H89     H    0.40600   0.59710   0.18230   1.000
    H90     H    0.37100   0.50560   0.21410   1.000
    C90     C    0.47500   0.58470   0.20860   1.000
    O31     O    0.12168   0.94566   0.55779   1.000
    C91     C    0.26451   0.82953   0.56218   1.000
    H91     H    0.24360   0.85270   0.60450   1.000
    C92     C    0.07790   0.95400   0.71120   1.000
    H92     H    0.09400   0.90290   0.68230   1.000
    H93     H    0.12900   0.99440   0.71410   1.000
    C93     C    0.02500   0.91530   0.70860   1.000
    O32     O    0.62168   0.44566   0.05779   1.000
    C94     C    0.76451   0.32953   0.06218   1.000
    H94     H    0.74360   0.35270   0.10450   1.000
    C95     C    0.57790   0.45400   0.21120   1.000
    H95     H    0.59400   0.40290   0.18230   1.000
    H96     H    0.62900   0.49440   0.21410   1.000
    C96     C    0.52500   0.41530   0.20860   1.000
    Zn1     Zn   0.00000   0.00000   0.07664   1.000
    N1      N    0.00000   0.00000   0.18296   1.000
    Zn2     Zn   0.50000   0.50000   0.57664   1.000
    N2      N    0.50000   0.50000   0.68296   1.000
    Zn3     Zn   0.00000   0.00000   0.42336   1.000
    N3      N    0.00000   0.00000   0.31704   1.000
    Zn4     Zn   0.50000   0.50000   0.92336   1.000
    N4      N    0.50000   0.50000   0.81704   1.000
    Zn5     Zn   0.00000   0.00000   0.92336   1.000
    N5      N    0.00000   0.00000   0.81704   1.000
    Zn6     Zn   0.50000   0.50000   0.42336   1.000
    N6      N    0.50000   0.50000   0.31704   1.000
    Zn7     Zn   0.00000   0.00000   0.57664   1.000
    N7      N    0.00000   0.00000   0.68296   1.000
    Zn8     Zn   0.50000   0.50000   0.07664   1.000
    N8      N    0.50000   0.50000   0.18296   1.000
    C97     C    0.92270   0.15180   0.00000   1.000
    C98     C    0.86070   0.23000   0.00000   1.000
    C99     C    0.42270   0.65180   0.50000   1.000
    C100    C    0.36070   0.73000   0.50000   1.000
    C101    C    0.07730   0.84820   0.00000   1.000
    C102    C    0.13930   0.77000   0.00000   1.000
    C103    C    0.57730   0.34820   0.50000   1.000
    C104    C    0.63930   0.27000   0.50000   1.000
    C105    C    0.84820   0.92270   0.00000   1.000
    C106    C    0.77000   0.86070   0.00000   1.000
    C107    C    0.34820   0.42270   0.50000   1.000
    C108    C    0.27000   0.36070   0.50000   1.000
    C109    C    0.15180   0.07730   0.00000   1.000
    C110    C    0.23000   0.13930   0.00000   1.000
    C111    C    0.65180   0.57730   0.50000   1.000
    C112    C    0.73000   0.63930   0.50000   1.000
    C113    C    0.07730   0.15180   0.50000   1.000
    C114    C    0.13930   0.23000   0.50000   1.000
    C115    C    0.57730   0.65180   0.00000   1.000
    C116    C    0.63930   0.73000   0.00000   1.000
    C117    C    0.92270   0.84820   0.50000   1.000
    C118    C    0.86070   0.77000   0.50000   1.000
    C119    C    0.42270   0.34820   0.00000   1.000
    C120    C    0.36070   0.27000   0.00000   1.000
    C121    C    0.15180   0.92270   0.50000   1.000
    C122    C    0.23000   0.86070   0.50000   1.000
    C123    C    0.65180   0.42270   0.00000   1.000
    C124    C    0.73000   0.36070   0.00000   1.000
    C125    C    0.84820   0.07730   0.50000   1.000
    C126    C    0.77000   0.13930   0.50000   1.000
    C127    C    0.34820   0.57730   0.00000   1.000
    C128    C    0.27000   0.63930   0.00000   1.000
