# CIF file generated by openbabel 2.4.1, see http://openbabel.sf.net
data_I
_chemical_name_common 'image0'
_cell_length_a 13.2544
_cell_length_b 13.2544
_cell_length_c 15.6722
_cell_angle_alpha 90
_cell_angle_beta 90
_cell_angle_gamma 120
_space_group_name_H-M_alt 'P 1'
_space_group_name_Hall 'P 1'
loop_
    _symmetry_equiv_pos_as_xyz
    x,y,z
loop_
    _atom_site_label
    _atom_site_type_symbol
    _atom_site_fract_x
    _atom_site_fract_y
    _atom_site_fract_z
    _atom_site_occupancy
    Al1     Al   0.59749   0.54365   0.55814   1.000
    P1      P    0.47091   0.28372   0.50486   1.000
    F1      F    0.43859   0.49316   0.55746   1.000
    O1      O    0.60550   0.56980   0.67190   1.000
    O2      O    0.41580   0.16460   0.54346   1.000
    O3      O    0.37820   0.30920   0.47080   1.000
    O4      O    0.55220   0.37800   0.57102   1.000
    O5      O    0.34260   0.26000   0.62820   1.000
    P2      P    0.42340   0.27930   0.55170   1.000
    Al2     Al   0.45635   0.05384   0.55814   1.000
    P3      P    0.71628   0.18719   0.50486   1.000
    F2      F    0.50684   0.94543   0.55746   1.000
    O6      O    0.43020   0.03570   0.67190   1.000
    O7      O    0.83540   0.25120   0.54346   1.000
    O8      O    0.69080   0.06900   0.47080   1.000
    O9      O    0.62200   0.17420   0.57102   1.000
    O10     O    0.74000   0.08260   0.62820   1.000
    P4      P    0.72070   0.14410   0.55170   1.000
    Al3     Al   0.94616   0.40251   0.55814   1.000
    P5      P    0.81281   0.52909   0.50486   1.000
    F3      F    0.05457   0.56141   0.55746   1.000
    O11     O    0.96430   0.39450   0.67190   1.000
    O12     O    0.74880   0.58420   0.54346   1.000
    O13     O    0.93100   0.62180   0.47080   1.000
    O14     O    0.82580   0.44780   0.57102   1.000
    O15     O    0.91740   0.65740   0.62820   1.000
    P6      P    0.85590   0.57660   0.55170   1.000
    Al4     Al   0.40251   0.45635   0.05814   1.000
    P7      P    0.52909   0.71628   0.00486   1.000
    F4      F    0.56141   0.50684   0.05746   1.000
    O16     O    0.39450   0.43020   0.17190   1.000
    O17     O    0.58420   0.83540   0.04346   1.000
    O18     O    0.62180   0.69080   0.97080   1.000
    O19     O    0.44780   0.62200   0.07102   1.000
    O20     O    0.65740   0.74000   0.12820   1.000
    P8      P    0.57660   0.72070   0.05170   1.000
    Al5     Al   0.54365   0.94616   0.05814   1.000
    P9      P    0.28372   0.81281   0.00486   1.000
    F5      F    0.49316   0.05457   0.05746   1.000
    O21     O    0.56980   0.96430   0.17190   1.000
    O22     O    0.16460   0.74880   0.04346   1.000
    O23     O    0.30920   0.93100   0.97080   1.000
    O24     O    0.37800   0.82580   0.07102   1.000
    O25     O    0.26000   0.91740   0.12820   1.000
    P10     P    0.27930   0.85590   0.05170   1.000
    Al6     Al   0.05384   0.59749   0.05814   1.000
    P11     P    0.18719   0.47091   0.00486   1.000
    F6      F    0.94543   0.43859   0.05746   1.000
    O26     O    0.03570   0.60550   0.17190   1.000
    O27     O    0.25120   0.41580   0.04346   1.000
    O28     O    0.06900   0.37820   0.97080   1.000
    O29     O    0.17420   0.55220   0.07102   1.000
    O30     O    0.08260   0.34260   0.12820   1.000
    P12     P    0.14410   0.42340   0.05170   1.000
    Al7     Al   0.40251   0.45635   0.44186   1.000
    P13     P    0.52909   0.71628   0.49514   1.000
    F7      F    0.56141   0.50684   0.44254   1.000
    O31     O    0.39450   0.43020   0.32810   1.000
    O32     O    0.58420   0.83540   0.45654   1.000
    O33     O    0.62180   0.69080   0.52920   1.000
    O34     O    0.44780   0.62200   0.42898   1.000
    O35     O    0.65740   0.74000   0.37180   1.000
    P14     P    0.57660   0.72070   0.44830   1.000
    Al8     Al   0.54365   0.94616   0.44186   1.000
    P15     P    0.28372   0.81281   0.49514   1.000
    F8      F    0.49316   0.05457   0.44254   1.000
    O36     O    0.56980   0.96430   0.32810   1.000
    O37     O    0.16460   0.74880   0.45654   1.000
    O38     O    0.30920   0.93100   0.52920   1.000
    O39     O    0.37800   0.82580   0.42898   1.000
    O40     O    0.26000   0.91740   0.37180   1.000
    P16     P    0.27930   0.85590   0.44830   1.000
    Al9     Al   0.05384   0.59749   0.44186   1.000
    P17     P    0.18719   0.47091   0.49514   1.000
    F9      F    0.94543   0.43859   0.44254   1.000
    O41     O    0.03570   0.60550   0.32810   1.000
    O42     O    0.25120   0.41580   0.45654   1.000
    O43     O    0.06900   0.37820   0.52920   1.000
    O44     O    0.17420   0.55220   0.42898   1.000
    O45     O    0.08260   0.34260   0.37180   1.000
    P18     P    0.14410   0.42340   0.44830   1.000
    Al10    Al   0.59749   0.54365   0.94186   1.000
    P19     P    0.47091   0.28372   0.99514   1.000
    F10     F    0.43859   0.49316   0.94254   1.000
    O46     O    0.60550   0.56980   0.82810   1.000
    O47     O    0.41580   0.16460   0.95654   1.000
    O48     O    0.37820   0.30920   0.02920   1.000
    O49     O    0.55220   0.37800   0.92898   1.000
    O50     O    0.34260   0.26000   0.87180   1.000
    P20     P    0.42340   0.27930   0.94830   1.000
    Al11    Al   0.45635   0.05384   0.94186   1.000
    P21     P    0.71628   0.18719   0.99514   1.000
    F11     F    0.50684   0.94543   0.94254   1.000
    O51     O    0.43020   0.03570   0.82810   1.000
    O52     O    0.83540   0.25120   0.95654   1.000
    O53     O    0.69080   0.06900   0.02920   1.000
    O54     O    0.62200   0.17420   0.92898   1.000
    O55     O    0.74000   0.08260   0.87180   1.000
    P22     P    0.72070   0.14410   0.94830   1.000
    Al12    Al   0.94616   0.40251   0.94186   1.000
    P23     P    0.81281   0.52909   0.99514   1.000
    F12     F    0.05457   0.56141   0.94254   1.000
    O56     O    0.96430   0.39450   0.82810   1.000
    O57     O    0.74880   0.58420   0.95654   1.000
    O58     O    0.93100   0.62180   0.02920   1.000
    O59     O    0.82580   0.44780   0.92898   1.000
    O60     O    0.91740   0.65740   0.87180   1.000
    P24     P    0.85590   0.57660   0.94830   1.000
    Mn1     Mn   0.66667   0.33333   0.65227   1.000
    Mn2     Mn   0.33333   0.66667   0.15227   1.000
    Mn3     Mn   0.33333   0.66667   0.34773   1.000
    Mn4     Mn   0.66667   0.33333   0.84773   1.000
    P25     P    0.66910   0.56560   0.75000   1.000
    O61     O    0.69130   0.46460   0.75000   1.000
    O62     O    0.78810   0.67740   0.75000   1.000
    P26     P    0.59680   0.50380   0.75000   1.000
    P27     P    0.43440   0.10350   0.75000   1.000
    O63     O    0.53540   0.22670   0.75000   1.000
    O64     O    0.32260   0.11070   0.75000   1.000
    P28     P    0.49620   0.09300   0.75000   1.000
    P29     P    0.89650   0.33090   0.75000   1.000
    O65     O    0.77330   0.30870   0.75000   1.000
    O66     O    0.88930   0.21190   0.75000   1.000
    P30     P    0.90700   0.40320   0.75000   1.000
    P31     P    0.33090   0.43440   0.25000   1.000
    O67     O    0.30870   0.53540   0.25000   1.000
    O68     O    0.21190   0.32260   0.25000   1.000
    P32     P    0.40320   0.49620   0.25000   1.000
    P33     P    0.56560   0.89650   0.25000   1.000
    O69     O    0.46460   0.77330   0.25000   1.000
    O70     O    0.67740   0.88930   0.25000   1.000
    P34     P    0.50380   0.90700   0.25000   1.000
    P35     P    0.10350   0.66910   0.25000   1.000
    O71     O    0.22670   0.69130   0.25000   1.000
    O72     O    0.11070   0.78810   0.25000   1.000
    P36     P    0.09300   0.59680   0.25000   1.000
