# CIF file generated by openbabel 2.4.1, see http://openbabel.sf.net
data_I
_chemical_name_common 'image0'
_cell_length_a 16.5956
_cell_length_b 16.5956
_cell_length_c 12.2868
_cell_angle_alpha 90
_cell_angle_beta 90
_cell_angle_gamma 90
_space_group_name_H-M_alt 'P 1'
_space_group_name_Hall 'P 1'
loop_
    _symmetry_equiv_pos_as_xyz
    x,y,z
loop_
    _atom_site_label
    _atom_site_type_symbol
    _atom_site_fract_x
    _atom_site_fract_y
    _atom_site_fract_z
    _atom_site_occupancy
    H1      H    0.14460   0.78770   0.75480   1.000
    O1      O    0.39224   0.51347   0.61531   1.000
    C1      C    0.29340   0.60500   0.74950   1.000
    H2      H    0.27080   0.55950   0.71560   1.000
    C2      C    0.24710   0.65150   0.81860   1.000
    H3      H    0.19210   0.63990   0.82880   1.000
    C3      C    0.31470   0.59100   0.78870   1.000
    H4      H    0.30470   0.53550   0.78140   1.000
    C4      C    0.26790   0.63620   0.85940   1.000
    H5      H    0.22550   0.61160   0.89780   1.000
    H6      H    0.85540   0.21230   0.75480   1.000
    O2      O    0.60776   0.48653   0.61531   1.000
    C5      C    0.70660   0.39500   0.74950   1.000
    H7      H    0.72920   0.44050   0.71560   1.000
    C6      C    0.75290   0.34850   0.81860   1.000
    H8      H    0.80790   0.36010   0.82880   1.000
    C7      C    0.68530   0.40900   0.78870   1.000
    H9      H    0.69530   0.46450   0.78140   1.000
    C8      C    0.73210   0.36380   0.85940   1.000
    H10     H    0.77450   0.38840   0.89780   1.000
    H11     H    0.71230   0.64460   0.25480   1.000
    O3      O    0.98653   0.89224   0.11531   1.000
    C9      C    0.89500   0.79340   0.24950   1.000
    H12     H    0.94050   0.77080   0.21560   1.000
    C10     C    0.84850   0.74710   0.31860   1.000
    H13     H    0.86010   0.69210   0.32880   1.000
    C11     C    0.90900   0.81470   0.28870   1.000
    H14     H    0.96450   0.80470   0.28140   1.000
    C12     C    0.86380   0.76790   0.35940   1.000
    H15     H    0.88840   0.72550   0.39780   1.000
    H16     H    0.28770   0.35540   0.25480   1.000
    O4      O    0.01347   0.10776   0.11531   1.000
    C13     C    0.10500   0.20660   0.24950   1.000
    H17     H    0.05950   0.22920   0.21560   1.000
    C14     C    0.15150   0.25290   0.31860   1.000
    H18     H    0.13990   0.30790   0.32880   1.000
    C15     C    0.09100   0.18530   0.28870   1.000
    H19     H    0.03550   0.19530   0.28140   1.000
    C16     C    0.13620   0.23210   0.35940   1.000
    H20     H    0.11160   0.27450   0.39780   1.000
    H21     H    0.35540   0.28770   0.74520   1.000
    O5      O    0.10776   0.01347   0.88469   1.000
    C17     C    0.20660   0.10500   0.75050   1.000
    H22     H    0.22920   0.05950   0.78440   1.000
    C18     C    0.25290   0.15150   0.68140   1.000
    H23     H    0.30790   0.13990   0.67120   1.000
    C19     C    0.18530   0.09100   0.71130   1.000
    H24     H    0.19530   0.03550   0.71860   1.000
    C20     C    0.23210   0.13620   0.64060   1.000
    H25     H    0.27450   0.11160   0.60220   1.000
    H26     H    0.64460   0.71230   0.74520   1.000
    O6      O    0.89224   0.98653   0.88469   1.000
    C21     C    0.79340   0.89500   0.75050   1.000
    H27     H    0.77080   0.94050   0.78440   1.000
    C22     C    0.74710   0.84850   0.68140   1.000
    H28     H    0.69210   0.86010   0.67120   1.000
    C23     C    0.81470   0.90900   0.71130   1.000
    H29     H    0.80470   0.96450   0.71860   1.000
    C24     C    0.76790   0.86380   0.64060   1.000
    H30     H    0.72550   0.88840   0.60220   1.000
    H31     H    0.78770   0.14460   0.24520   1.000
    O7      O    0.51347   0.39224   0.38469   1.000
    C25     C    0.60500   0.29340   0.25050   1.000
    H32     H    0.55950   0.27080   0.28440   1.000
    C26     C    0.65150   0.24710   0.18140   1.000
    H33     H    0.63990   0.19210   0.17120   1.000
    C27     C    0.59100   0.31470   0.21130   1.000
    H34     H    0.53550   0.30470   0.21860   1.000
    C28     C    0.63620   0.26790   0.14060   1.000
    H35     H    0.61160   0.22550   0.10220   1.000
    H36     H    0.21230   0.85540   0.24520   1.000
    O8      O    0.48653   0.60776   0.38469   1.000
    C29     C    0.39500   0.70660   0.25050   1.000
    H37     H    0.44050   0.72920   0.28440   1.000
    C30     C    0.34850   0.75290   0.18140   1.000
    H38     H    0.36010   0.80790   0.17120   1.000
    C31     C    0.40900   0.68530   0.21130   1.000
    H39     H    0.46450   0.69530   0.21860   1.000
    C32     C    0.36380   0.73210   0.14060   1.000
    H40     H    0.38840   0.77450   0.10220   1.000
    H41     H    0.85540   0.21230   0.24520   1.000
    O9      O    0.60776   0.48653   0.38469   1.000
    C33     C    0.70660   0.39500   0.25050   1.000
    H42     H    0.72920   0.44050   0.28440   1.000
    C34     C    0.75290   0.34850   0.18140   1.000
    H43     H    0.80790   0.36010   0.17120   1.000
    C35     C    0.68530   0.40900   0.21130   1.000
    H44     H    0.69530   0.46450   0.21860   1.000
    C36     C    0.73210   0.36380   0.14060   1.000
    H45     H    0.77450   0.38840   0.10220   1.000
    H46     H    0.14460   0.78770   0.24520   1.000
    O10     O    0.39224   0.51347   0.38469   1.000
    C37     C    0.29340   0.60500   0.25050   1.000
    H47     H    0.27080   0.55950   0.28440   1.000
    C38     C    0.24710   0.65150   0.18140   1.000
    H48     H    0.19210   0.63990   0.17120   1.000
    C39     C    0.31470   0.59100   0.21130   1.000
    H49     H    0.30470   0.53550   0.21860   1.000
    C40     C    0.26790   0.63620   0.14060   1.000
    H50     H    0.22550   0.61160   0.10220   1.000
    H51     H    0.28770   0.35540   0.74520   1.000
    O11     O    0.01347   0.10776   0.88469   1.000
    C41     C    0.10500   0.20660   0.75050   1.000
    H52     H    0.05950   0.22920   0.78440   1.000
    C42     C    0.15150   0.25290   0.68140   1.000
    H53     H    0.13990   0.30790   0.67120   1.000
    C43     C    0.09100   0.18530   0.71130   1.000
    H54     H    0.03550   0.19530   0.71860   1.000
    C44     C    0.13620   0.23210   0.64060   1.000
    H55     H    0.11160   0.27450   0.60220   1.000
    H56     H    0.71230   0.64460   0.74520   1.000
    O12     O    0.98653   0.89224   0.88469   1.000
    C45     C    0.89500   0.79340   0.75050   1.000
    H57     H    0.94050   0.77080   0.78440   1.000
    C46     C    0.84850   0.74710   0.68140   1.000
    H58     H    0.86010   0.69210   0.67120   1.000
    C47     C    0.90900   0.81470   0.71130   1.000
    H59     H    0.96450   0.80470   0.71860   1.000
    C48     C    0.86380   0.76790   0.64060   1.000
    H60     H    0.88840   0.72550   0.60220   1.000
    H61     H    0.64460   0.71230   0.25480   1.000
    O13     O    0.89224   0.98653   0.11531   1.000
    C49     C    0.79340   0.89500   0.24950   1.000
    H62     H    0.77080   0.94050   0.21560   1.000
    C50     C    0.74710   0.84850   0.31860   1.000
    H63     H    0.69210   0.86010   0.32880   1.000
    C51     C    0.81470   0.90900   0.28870   1.000
    H64     H    0.80470   0.96450   0.28140   1.000
    C52     C    0.76790   0.86380   0.35940   1.000
    H65     H    0.72550   0.88840   0.39780   1.000
    H66     H    0.35540   0.28770   0.25480   1.000
    O14     O    0.10776   0.01347   0.11531   1.000
    C53     C    0.20660   0.10500   0.24950   1.000
    H67     H    0.22920   0.05950   0.21560   1.000
    C54     C    0.25290   0.15150   0.31860   1.000
    H68     H    0.30790   0.13990   0.32880   1.000
    C55     C    0.18530   0.09100   0.28870   1.000
    H69     H    0.19530   0.03550   0.28140   1.000
    C56     C    0.23210   0.13620   0.35940   1.000
    H70     H    0.27450   0.11160   0.39780   1.000
    H71     H    0.21230   0.85540   0.75480   1.000
    O15     O    0.48653   0.60776   0.61531   1.000
    C57     C    0.39500   0.70660   0.74950   1.000
    H72     H    0.44050   0.72920   0.71560   1.000
    C58     C    0.34850   0.75290   0.81860   1.000
    H73     H    0.36010   0.80790   0.82880   1.000
    C59     C    0.40900   0.68530   0.78870   1.000
    H74     H    0.46450   0.69530   0.78140   1.000
    C60     C    0.36380   0.73210   0.85940   1.000
    H75     H    0.38840   0.77450   0.89780   1.000
    H76     H    0.78770   0.14460   0.75480   1.000
    O16     O    0.51347   0.39224   0.61531   1.000
    C61     C    0.60500   0.29340   0.74950   1.000
    H77     H    0.55950   0.27080   0.71560   1.000
    C62     C    0.65150   0.24710   0.81860   1.000
    H78     H    0.63990   0.19210   0.82880   1.000
    C63     C    0.59100   0.31470   0.78870   1.000
    H79     H    0.53550   0.30470   0.78140   1.000
    C64     C    0.63620   0.26790   0.85940   1.000
    H80     H    0.61160   0.22550   0.89780   1.000
    C65     C    0.42183   0.57817   0.64710   1.000
    C66     C    0.37451   0.62549   0.72980   1.000
    C67     C    0.28348   0.71652   0.87350   1.000
    C68     C    0.16330   0.83670   0.78960   1.000
    H81     H    0.12210   0.87790   0.78290   1.000
    C69     C    0.17998   0.82002   0.91160   1.000
    C70     C    0.23392   0.76608   0.94450   1.000
    N1      N    0.23392   0.76608   0.05550   1.000
    C71     C    0.57817   0.42183   0.64710   1.000
    C72     C    0.62549   0.37451   0.72980   1.000
    C73     C    0.71652   0.28348   0.87350   1.000
    C74     C    0.83670   0.16330   0.78960   1.000
    H82     H    0.87790   0.12210   0.78290   1.000
    C75     C    0.82002   0.17998   0.91160   1.000
    C76     C    0.76608   0.23392   0.94450   1.000
    N2      N    0.76608   0.23392   0.05550   1.000
    C77     C    0.92183   0.92183   0.14710   1.000
    C78     C    0.87451   0.87451   0.22980   1.000
    C79     C    0.78348   0.78348   0.37350   1.000
    C80     C    0.66330   0.66330   0.28960   1.000
    H83     H    0.62210   0.62210   0.28290   1.000
    C81     C    0.67998   0.67998   0.41160   1.000
    C82     C    0.73392   0.73392   0.44450   1.000
    N3      N    0.73392   0.73392   0.55550   1.000
    C83     C    0.07817   0.07817   0.14710   1.000
    C84     C    0.12549   0.12549   0.22980   1.000
    C85     C    0.21652   0.21652   0.37350   1.000
    C86     C    0.33670   0.33670   0.28960   1.000
    H84     H    0.37790   0.37790   0.28290   1.000
    C87     C    0.32002   0.32002   0.41160   1.000
    C88     C    0.26608   0.26608   0.44450   1.000
    N4      N    0.26608   0.26608   0.55550   1.000
    C89     C    0.07817   0.07817   0.85290   1.000
    C90     C    0.12549   0.12549   0.77020   1.000
    C91     C    0.21652   0.21652   0.62650   1.000
    C92     C    0.33670   0.33670   0.71040   1.000
    H85     H    0.37790   0.37790   0.71710   1.000
    C93     C    0.32002   0.32002   0.58840   1.000
    C94     C    0.92183   0.92183   0.85290   1.000
    C95     C    0.87451   0.87451   0.77020   1.000
    C96     C    0.78348   0.78348   0.62650   1.000
    C97     C    0.66330   0.66330   0.71040   1.000
    H86     H    0.62210   0.62210   0.71710   1.000
    C98     C    0.67998   0.67998   0.58840   1.000
    C99     C    0.57817   0.42183   0.35290   1.000
    C100    C    0.62549   0.37451   0.27020   1.000
    C101    C    0.71652   0.28348   0.12650   1.000
    C102    C    0.83670   0.16330   0.21040   1.000
    H87     H    0.87790   0.12210   0.21710   1.000
    C103    C    0.82002   0.17998   0.08840   1.000
    C104    C    0.42183   0.57817   0.35290   1.000
    C105    C    0.37451   0.62549   0.27020   1.000
    C106    C    0.28348   0.71652   0.12650   1.000
    C107    C    0.16330   0.83670   0.21040   1.000
    H88     H    0.12210   0.87790   0.21710   1.000
    C108    C    0.17998   0.82002   0.08840   1.000
    Co1     Co   0.44009   0.44009   0.50000   1.000
    Co2     Co   0.55991   0.55991   0.50000   1.000
    Co3     Co   0.05991   0.94009   0.00000   1.000
    Co4     Co   0.94009   0.05991   0.00000   1.000
    N5      N    0.14666   0.85334   0.00000   1.000
    N6      N    0.85334   0.14666   0.00000   1.000
    N7      N    0.64666   0.64666   0.50000   1.000
    N8      N    0.35334   0.35334   0.50000   1.000
