# CIF file generated by openbabel 2.4.1, see http://openbabel.sf.net
data_I
_chemical_name_common 'image0'
_cell_length_a 11.318
_cell_length_b 9.601
_cell_length_c 13.965
_cell_angle_alpha 90
_cell_angle_beta 92.063
_cell_angle_gamma 90
_space_group_name_H-M_alt 'P 1'
_space_group_name_Hall 'P 1'
loop_
    _symmetry_equiv_pos_as_xyz
    x,y,z
loop_
    _atom_site_label
    _atom_site_type_symbol
    _atom_site_fract_x
    _atom_site_fract_y
    _atom_site_fract_z
    _atom_site_occupancy
    Zn1     Zn   0.25444   0.26543   0.34577   1.000
    S1      S    0.21130   0.58173   0.32689   1.000
    O1      O    0.26210   0.45250   0.28190   1.000
    O2      O    0.23570   0.58350   0.42690   1.000
    O3      O    0.08760   0.58050   0.30050   1.000
    O4      O    0.27740   0.70010   0.27940   1.000
    N1      N    0.13740   0.22180   0.44510   1.000
    N2      N    0.04100   0.25560   0.57880   1.000
    H1      H    0.01590   0.29760   0.63030   1.000
    N3      N    0.41230   0.23050   0.40580   1.000
    N4      N    0.57560   0.26930   0.49130   1.000
    H2      H    0.63630   0.31440   0.51740   1.000
    C1      C    0.39280   0.97390   0.44170   1.000
    H3      H    0.32340   0.95640   0.40320   1.000
    C2      C    0.44550   0.10520   0.44800   1.000
    C3      C    0.55090   0.12860   0.50430   1.000
    C4      C    0.49280   0.32430   0.43350   1.000
    H4      H    0.49120   0.41920   0.41410   1.000
    C5      C    0.07250   0.10040   0.46310   1.000
    C6      C    0.01000   0.12170   0.54880   1.000
    C7      C    0.11500   0.30960   0.51640   1.000
    H5      H    0.14810   0.40030   0.52210   1.000
    C8      C    0.93680   0.02390   0.58830   1.000
    H6      H    0.89620   0.03990   0.64560   1.000
    O5      O    0.26690   0.46430   0.38770   1.000
    O6      O    0.21870   0.70550   0.39610   1.000
    O7      O    0.28140   0.60420   0.24850   1.000
    Zn2     Zn   0.24556   0.76543   0.15423   1.000
    S2      S    0.28870   0.08173   0.17311   1.000
    O8      O    0.23790   0.95250   0.21810   1.000
    O9      O    0.26430   0.08350   0.07310   1.000
    O10     O    0.41240   0.08050   0.19950   1.000
    O11     O    0.22260   0.20010   0.22060   1.000
    N5      N    0.36260   0.72180   0.05490   1.000
    N6      N    0.45900   0.75560   0.92120   1.000
    H7      H    0.48410   0.79760   0.86970   1.000
    N7      N    0.08770   0.73050   0.09420   1.000
    N8      N    0.92440   0.76930   0.00870   1.000
    H8      H    0.86370   0.81440   0.98260   1.000
    C9      C    0.10720   0.47390   0.05830   1.000
    H9      H    0.17660   0.45640   0.09680   1.000
    C10     C    0.05450   0.60520   0.05200   1.000
    C11     C    0.94910   0.62860   0.99570   1.000
    C12     C    0.00720   0.82430   0.06650   1.000
    H10     H    0.00880   0.91920   0.08590   1.000
    C13     C    0.42750   0.60040   0.03690   1.000
    C14     C    0.49000   0.62170   0.95120   1.000
    C15     C    0.38500   0.80960   0.98360   1.000
    H11     H    0.35190   0.90030   0.97790   1.000
    C16     C    0.56320   0.52390   0.91170   1.000
    H12     H    0.60380   0.53990   0.85440   1.000
    O12     O    0.23310   0.96430   0.11230   1.000
    O13     O    0.28130   0.20550   0.10390   1.000
    O14     O    0.21860   0.10420   0.25150   1.000
    Zn3     Zn   0.74556   0.73457   0.65423   1.000
    S3      S    0.78870   0.41827   0.67311   1.000
    O15     O    0.73790   0.54750   0.71810   1.000
    O16     O    0.76430   0.41650   0.57310   1.000
    O17     O    0.91240   0.41950   0.69950   1.000
    O18     O    0.72260   0.29990   0.72060   1.000
    N9      N    0.86260   0.77820   0.55490   1.000
    N10     N    0.95900   0.74440   0.42120   1.000
    H13     H    0.98410   0.70240   0.36970   1.000
    N11     N    0.58770   0.76950   0.59420   1.000
    N12     N    0.42440   0.73070   0.50870   1.000
    H14     H    0.36370   0.68560   0.48260   1.000
    C17     C    0.60720   0.02610   0.55830   1.000
    H15     H    0.67660   0.04360   0.59680   1.000
    C18     C    0.55450   0.89480   0.55200   1.000
    C19     C    0.44910   0.87140   0.49570   1.000
    C20     C    0.50720   0.67570   0.56650   1.000
    H16     H    0.50880   0.58080   0.58590   1.000
    C21     C    0.92750   0.89960   0.53690   1.000
    C22     C    0.99000   0.87830   0.45120   1.000
    C23     C    0.88500   0.69040   0.48360   1.000
    H17     H    0.85190   0.59970   0.47790   1.000
    C24     C    0.06320   0.97610   0.41170   1.000
    H18     H    0.10380   0.96010   0.35440   1.000
    O19     O    0.73310   0.53570   0.61230   1.000
    O20     O    0.78130   0.29450   0.60390   1.000
    O21     O    0.71860   0.39580   0.75150   1.000
    Zn4     Zn   0.75444   0.23457   0.84577   1.000
    S4      S    0.71130   0.91827   0.82689   1.000
    O22     O    0.76210   0.04750   0.78190   1.000
    O23     O    0.73570   0.91650   0.92690   1.000
    O24     O    0.58760   0.91950   0.80050   1.000
    O25     O    0.77740   0.79990   0.77940   1.000
    N13     N    0.63740   0.27820   0.94510   1.000
    N14     N    0.54100   0.24440   0.07880   1.000
    H19     H    0.51590   0.20240   0.13030   1.000
    N15     N    0.91230   0.26950   0.90580   1.000
    N16     N    0.07560   0.23070   0.99130   1.000
    H20     H    0.13630   0.18560   0.01740   1.000
    C25     C    0.89280   0.52610   0.94170   1.000
    H21     H    0.82340   0.54360   0.90320   1.000
    C26     C    0.94550   0.39480   0.94800   1.000
    C27     C    0.05090   0.37140   0.00430   1.000
    C28     C    0.99280   0.17570   0.93350   1.000
    H22     H    0.99120   0.08080   0.91410   1.000
    C29     C    0.57250   0.39960   0.96310   1.000
    C30     C    0.51000   0.37830   0.04880   1.000
    C31     C    0.61500   0.19040   0.01640   1.000
    H23     H    0.64810   0.09970   0.02210   1.000
    C32     C    0.43680   0.47610   0.08830   1.000
    H24     H    0.39620   0.46010   0.14560   1.000
    O26     O    0.76690   0.03570   0.88770   1.000
    O27     O    0.71870   0.79450   0.89610   1.000
    O28     O    0.78140   0.89580   0.74850   1.000
