# CIF file generated by openbabel 2.4.1, see http://openbabel.sf.net
data_I
_chemical_name_common 'image0'
_cell_length_a 11.771
_cell_length_b 11.771
_cell_length_c 11.771
_cell_angle_alpha 90
_cell_angle_beta 90
_cell_angle_gamma 90
_space_group_name_H-M_alt 'P 1'
_space_group_name_Hall 'P 1'
loop_
    _symmetry_equiv_pos_as_xyz
    x,y,z
loop_
    _atom_site_label
    _atom_site_type_symbol
    _atom_site_fract_x
    _atom_site_fract_y
    _atom_site_fract_z
    _atom_site_occupancy
    Cu1     Cu   0.00000   0.00000   0.00000   1.000
    Cu2     Cu   0.00000   0.50000   0.50000   1.000
    Cu3     Cu   0.50000   0.00000   0.50000   1.000
    Cu4     Cu   0.50000   0.50000   0.00000   1.000
    Zn1     Zn   0.25000   0.25000   0.25000   1.000
    Zn2     Zn   0.75000   0.75000   0.25000   1.000
    Zn3     Zn   0.75000   0.25000   0.75000   1.000
    Zn4     Zn   0.25000   0.75000   0.75000   1.000
    C1      C    0.09400   0.09400   0.09400   1.000
    N1      N    0.15000   0.15000   0.15000   1.000
    C2      C    0.09400   0.59400   0.59400   1.000
    N2      N    0.15000   0.65000   0.65000   1.000
    C3      C    0.59400   0.09400   0.59400   1.000
    N3      N    0.65000   0.15000   0.65000   1.000
    C4      C    0.59400   0.59400   0.09400   1.000
    N4      N    0.65000   0.65000   0.15000   1.000
    C5      C    0.90600   0.90600   0.09400   1.000
    N5      N    0.85000   0.85000   0.15000   1.000
    C6      C    0.90600   0.40600   0.59400   1.000
    N6      N    0.85000   0.35000   0.65000   1.000
    C7      C    0.40600   0.90600   0.59400   1.000
    N7      N    0.35000   0.85000   0.65000   1.000
    C8      C    0.40600   0.40600   0.09400   1.000
    N8      N    0.35000   0.35000   0.15000   1.000
    C9      C    0.90600   0.09400   0.90600   1.000
    N9      N    0.85000   0.15000   0.85000   1.000
    C10     C    0.90600   0.59400   0.40600   1.000
    N10     N    0.85000   0.65000   0.35000   1.000
    C11     C    0.40600   0.09400   0.40600   1.000
    N11     N    0.35000   0.15000   0.35000   1.000
    C12     C    0.40600   0.59400   0.90600   1.000
    N12     N    0.35000   0.65000   0.85000   1.000
    C13     C    0.09400   0.90600   0.90600   1.000
    N13     N    0.15000   0.85000   0.85000   1.000
    C14     C    0.09400   0.40600   0.40600   1.000
    N14     N    0.15000   0.35000   0.35000   1.000
    C15     C    0.59400   0.90600   0.40600   1.000
    N15     N    0.65000   0.85000   0.35000   1.000
    C16     C    0.59400   0.40600   0.90600   1.000
    N16     N    0.65000   0.35000   0.85000   1.000
    C17     C    0.92900   0.92900   0.04290   1.000
    C18     C    0.92900   0.42900   0.54290   1.000
    C19     C    0.42900   0.92900   0.54290   1.000
    C20     C    0.42900   0.42900   0.04290   1.000
    C21     C    0.07100   0.07100   0.04290   1.000
    C22     C    0.07100   0.57100   0.54290   1.000
    C23     C    0.57100   0.07100   0.54290   1.000
    C24     C    0.57100   0.57100   0.04290   1.000
    C25     C    0.07100   0.92900   0.95710   1.000
    C26     C    0.07100   0.42900   0.45710   1.000
    C27     C    0.57100   0.92900   0.45710   1.000
    C28     C    0.57100   0.42900   0.95710   1.000
    C29     C    0.92900   0.07100   0.95710   1.000
    C30     C    0.92900   0.57100   0.45710   1.000
    C31     C    0.42900   0.07100   0.45710   1.000
    C32     C    0.42900   0.57100   0.95710   1.000
    C33     C    0.04290   0.92900   0.92900   1.000
    C34     C    0.04290   0.42900   0.42900   1.000
    C35     C    0.54290   0.92900   0.42900   1.000
    C36     C    0.54290   0.42900   0.92900   1.000
    C37     C    0.04290   0.07100   0.07100   1.000
    C38     C    0.04290   0.57100   0.57100   1.000
    C39     C    0.54290   0.07100   0.57100   1.000
    C40     C    0.54290   0.57100   0.07100   1.000
    C41     C    0.95710   0.07100   0.92900   1.000
    C42     C    0.95710   0.57100   0.42900   1.000
    C43     C    0.45710   0.07100   0.42900   1.000
    C44     C    0.45710   0.57100   0.92900   1.000
    C45     C    0.95710   0.92900   0.07100   1.000
    C46     C    0.95710   0.42900   0.57100   1.000
    C47     C    0.45710   0.92900   0.57100   1.000
    C48     C    0.45710   0.42900   0.07100   1.000
    C49     C    0.92900   0.04290   0.92900   1.000
    C50     C    0.92900   0.54290   0.42900   1.000
    C51     C    0.42900   0.04290   0.42900   1.000
    C52     C    0.42900   0.54290   0.92900   1.000
    C53     C    0.07100   0.04290   0.07100   1.000
    C54     C    0.07100   0.54290   0.57100   1.000
    C55     C    0.57100   0.04290   0.57100   1.000
    C56     C    0.57100   0.54290   0.07100   1.000
    C57     C    0.92900   0.95710   0.07100   1.000
    C58     C    0.92900   0.45710   0.57100   1.000
    C59     C    0.42900   0.95710   0.57100   1.000
    C60     C    0.42900   0.45710   0.07100   1.000
    C61     C    0.07100   0.95710   0.92900   1.000
    C62     C    0.07100   0.45710   0.42900   1.000
    C63     C    0.57100   0.95710   0.42900   1.000
    C64     C    0.57100   0.45710   0.92900   1.000
