# CIF file generated by openbabel 2.4.1, see http://openbabel.sf.net
data_I
_chemical_name_common 'image0'
_cell_length_a 26.61
_cell_length_b 26.61
_cell_length_c 26.81
_cell_angle_alpha 90
_cell_angle_beta 90
_cell_angle_gamma 90
_space_group_name_H-M_alt 'P 1'
_space_group_name_Hall 'P 1'
loop_
    _symmetry_equiv_pos_as_xyz
    x,y,z
loop_
    _atom_site_label
    _atom_site_type_symbol
    _atom_site_fract_x
    _atom_site_fract_y
    _atom_site_fract_z
    _atom_site_occupancy
    O1      O    0.43508   0.98831   0.44875   1.000
    O2      O    0.47451   0.06286   0.44881   1.000
    O3      O    0.07023   0.02388   0.36015   1.000
    O4      O    0.06813   0.02690   0.27694   1.000
    N1      N    0.28785   0.11273   0.30887   1.000
    C1      C    0.44054   0.03370   0.43548   1.000
    C2      C    0.40149   0.05467   0.39977   1.000
    C3      C    0.36537   0.02280   0.37897   1.000
    H1      H    0.36570   0.98860   0.38600   1.000
    C4      C    0.32931   0.04263   0.34804   1.000
    H2      H    0.30570   0.02110   0.33380   1.000
    C5      C    0.32679   0.09315   0.33729   1.000
    C6      C    0.36334   0.12462   0.35765   1.000
    H3      H    0.36310   0.15880   0.35020   1.000
    C7      C    0.40019   0.10520   0.38902   1.000
    H4      H    0.42410   0.12650   0.40280   1.000
    C8      C    0.23888   0.09162   0.31175   1.000
    C9      C    0.21720   0.08042   0.35679   1.000
    H5      H    0.23510   0.08580   0.38610   1.000
    C10     C    0.16886   0.06106   0.35903   1.000
    H6      H    0.15490   0.05330   0.38990   1.000
    C11     C    0.14170   0.05323   0.31699   1.000
    C12     C    0.08892   0.03288   0.31839   1.000
    C13     C    0.16327   0.06469   0.27117   1.000
    H7      H    0.14500   0.05970   0.24200   1.000
    C14     C    0.21188   0.08348   0.26840   1.000
    H8      H    0.22620   0.09060   0.23750   1.000
    C15     C    0.29432   0.15711   0.27869   1.000
    C16     C    0.25813   0.19370   0.27880   1.000
    H9      H    0.22960   0.18970   0.29840   1.000
    C17     C    0.01040   0.04430   0.16290   1.000
    H10     H    0.01760   0.07360   0.18050   1.000
    C18     C    0.01000   0.04480   0.11150   1.000
    H11     H    0.01640   0.07450   0.09430   1.000
    N2      N    0.00700   0.05240   0.02430   1.000
    C19     C    0.97410   0.95800   0.47020   1.000
    H12     H    0.93980   0.95850   0.45820   1.000
    C20     C    0.01200   0.95170   0.47240   1.000
    H13     H    0.04480   0.94130   0.46060   1.000
    H14     H    0.98770   0.92720   0.46060   1.000
    H15     H    0.37050   0.91130   0.47080   1.000
    H16     H    0.33230   0.84230   0.52920   1.000
    H17     H    0.48160   0.84310   0.52880   1.000
    H18     H    0.45220   0.76790   0.47030   1.000
    C21     C    0.42380   0.86890   0.44940   1.000
    H19     H    0.45500   0.86420   0.43140   1.000
    H20     H    0.40420   0.89410   0.43200   1.000
    C22     C    0.39480   0.81970   0.45080   1.000
    H21     H    0.36230   0.82490   0.43520   1.000
    H22     H    0.41280   0.79500   0.43120   1.000
    H23     H    0.99000   0.92750   0.45820   1.000
    O5      O    0.56492   0.01169   0.44875   1.000
    O6      O    0.52549   0.93714   0.44881   1.000
    O7      O    0.92977   0.97612   0.36015   1.000
    O8      O    0.93187   0.97310   0.27694   1.000
    N3      N    0.71215   0.88727   0.30887   1.000
    C23     C    0.55946   0.96630   0.43548   1.000
    C24     C    0.59851   0.94533   0.39977   1.000
    C25     C    0.63463   0.97720   0.37897   1.000
    H24     H    0.63430   0.01140   0.38600   1.000
    C26     C    0.67069   0.95737   0.34804   1.000
    H25     H    0.69430   0.97890   0.33380   1.000
    C27     C    0.67321   0.90685   0.33729   1.000
    C28     C    0.63666   0.87538   0.35765   1.000
    H26     H    0.63690   0.84120   0.35020   1.000
    C29     C    0.59981   0.89480   0.38902   1.000
    H27     H    0.57590   0.87350   0.40280   1.000
    C30     C    0.76112   0.90838   0.31175   1.000
    C31     C    0.78280   0.91958   0.35679   1.000
    H28     H    0.76490   0.91420   0.38610   1.000
    C32     C    0.83114   0.93894   0.35903   1.000
    H29     H    0.84510   0.94670   0.38990   1.000
    C33     C    0.85830   0.94677   0.31699   1.000
    C34     C    0.91108   0.96712   0.31839   1.000
    C35     C    0.83673   0.93531   0.27117   1.000
    H30     H    0.85500   0.94030   0.24200   1.000
    C36     C    0.78812   0.91652   0.26840   1.000
    H31     H    0.77380   0.90940   0.23750   1.000
    C37     C    0.70568   0.84289   0.27869   1.000
    C38     C    0.74187   0.80630   0.27880   1.000
    H32     H    0.77040   0.81030   0.29840   1.000
    C39     C    0.98960   0.95570   0.16290   1.000
    H33     H    0.98240   0.92640   0.18050   1.000
    C40     C    0.99000   0.95520   0.11150   1.000
    H34     H    0.98360   0.92550   0.09430   1.000
    N4      N    0.99300   0.94760   0.02430   1.000
    C41     C    0.02590   0.04200   0.47020   1.000
    H35     H    0.06020   0.04150   0.45820   1.000
    C42     C    0.98800   0.04830   0.47240   1.000
    H36     H    0.95520   0.05870   0.46060   1.000
    H37     H    0.01230   0.07280   0.46060   1.000
    H38     H    0.62950   0.08870   0.47080   1.000
    H39     H    0.66770   0.15770   0.52920   1.000
    H40     H    0.51840   0.15690   0.52880   1.000
    H41     H    0.54780   0.23210   0.47030   1.000
    C43     C    0.57620   0.13110   0.44940   1.000
    H42     H    0.54500   0.13580   0.43140   1.000
    H43     H    0.59580   0.10590   0.43200   1.000
    C44     C    0.60520   0.18030   0.45080   1.000
    H44     H    0.63770   0.17510   0.43520   1.000
    H45     H    0.58720   0.20500   0.43120   1.000
    H46     H    0.01000   0.07250   0.45820   1.000
    O9      O    0.01169   0.43508   0.44875   1.000
    O10     O    0.93714   0.47451   0.44881   1.000
    O11     O    0.97612   0.07023   0.36015   1.000
    O12     O    0.97310   0.06813   0.27694   1.000
    N5      N    0.88727   0.28785   0.30887   1.000
    C45     C    0.96630   0.44054   0.43548   1.000
    C46     C    0.94533   0.40149   0.39977   1.000
    C47     C    0.97720   0.36537   0.37897   1.000
    H47     H    0.01140   0.36570   0.38600   1.000
    C48     C    0.95737   0.32931   0.34804   1.000
    H48     H    0.97890   0.30570   0.33380   1.000
    C49     C    0.90685   0.32679   0.33729   1.000
    C50     C    0.87538   0.36334   0.35765   1.000
    H49     H    0.84120   0.36310   0.35020   1.000
    C51     C    0.89480   0.40019   0.38902   1.000
    H50     H    0.87350   0.42410   0.40280   1.000
    C52     C    0.90838   0.23888   0.31175   1.000
    C53     C    0.91958   0.21720   0.35679   1.000
    H51     H    0.91420   0.23510   0.38610   1.000
    C54     C    0.93894   0.16886   0.35903   1.000
    H52     H    0.94670   0.15490   0.38990   1.000
    C55     C    0.94677   0.14170   0.31699   1.000
    C56     C    0.96712   0.08892   0.31839   1.000
    C57     C    0.93531   0.16327   0.27117   1.000
    H53     H    0.94030   0.14500   0.24200   1.000
    C58     C    0.91652   0.21188   0.26840   1.000
    H54     H    0.90940   0.22620   0.23750   1.000
    C59     C    0.84289   0.29432   0.27869   1.000
    C60     C    0.80630   0.25813   0.27880   1.000
    H55     H    0.81030   0.22960   0.29840   1.000
    C61     C    0.95570   0.01040   0.16290   1.000
    H56     H    0.92640   0.01760   0.18050   1.000
    C62     C    0.95520   0.01000   0.11150   1.000
    H57     H    0.92550   0.01640   0.09430   1.000
    N6      N    0.94760   0.00700   0.02430   1.000
    C63     C    0.04200   0.97410   0.47020   1.000
    H58     H    0.04150   0.93980   0.45820   1.000
    C64     C    0.04830   0.01200   0.47240   1.000
    H59     H    0.05870   0.04480   0.46060   1.000
    H60     H    0.07280   0.98770   0.46060   1.000
    H61     H    0.08870   0.37050   0.47080   1.000
    H62     H    0.15770   0.33230   0.52920   1.000
    H63     H    0.15690   0.48160   0.52880   1.000
    H64     H    0.23210   0.45220   0.47030   1.000
    C65     C    0.13110   0.42380   0.44940   1.000
    H65     H    0.13580   0.45500   0.43140   1.000
    H66     H    0.10590   0.40420   0.43200   1.000
    C66     C    0.18030   0.39480   0.45080   1.000
    H67     H    0.17510   0.36230   0.43520   1.000
    H68     H    0.20500   0.41280   0.43120   1.000
    H69     H    0.07250   0.99000   0.45820   1.000
    O13     O    0.98831   0.56492   0.44875   1.000
    O14     O    0.06286   0.52549   0.44881   1.000
    O15     O    0.02388   0.92977   0.36015   1.000
    O16     O    0.02690   0.93187   0.27694   1.000
    N7      N    0.11273   0.71215   0.30887   1.000
    C67     C    0.03370   0.55946   0.43548   1.000
    C68     C    0.05467   0.59851   0.39977   1.000
    C69     C    0.02280   0.63463   0.37897   1.000
    H70     H    0.98860   0.63430   0.38600   1.000
    C70     C    0.04263   0.67069   0.34804   1.000
    H71     H    0.02110   0.69430   0.33380   1.000
    C71     C    0.09315   0.67321   0.33729   1.000
    C72     C    0.12462   0.63666   0.35765   1.000
    H72     H    0.15880   0.63690   0.35020   1.000
    C73     C    0.10520   0.59981   0.38902   1.000
    H73     H    0.12650   0.57590   0.40280   1.000
    C74     C    0.09162   0.76112   0.31175   1.000
    C75     C    0.08042   0.78280   0.35679   1.000
    H74     H    0.08580   0.76490   0.38610   1.000
    C76     C    0.06106   0.83114   0.35903   1.000
    H75     H    0.05330   0.84510   0.38990   1.000
    C77     C    0.05323   0.85830   0.31699   1.000
    C78     C    0.03288   0.91108   0.31839   1.000
    C79     C    0.06469   0.83673   0.27117   1.000
    H76     H    0.05970   0.85500   0.24200   1.000
    C80     C    0.08348   0.78812   0.26840   1.000
    H77     H    0.09060   0.77380   0.23750   1.000
    C81     C    0.15711   0.70568   0.27869   1.000
    C82     C    0.19370   0.74187   0.27880   1.000
    H78     H    0.18970   0.77040   0.29840   1.000
    C83     C    0.04430   0.98960   0.16290   1.000
    H79     H    0.07360   0.98240   0.18050   1.000
    C84     C    0.04480   0.99000   0.11150   1.000
    H80     H    0.07450   0.98360   0.09430   1.000
    N8      N    0.05240   0.99300   0.02430   1.000
    C85     C    0.95800   0.02590   0.47020   1.000
    H81     H    0.95850   0.06020   0.45820   1.000
    C86     C    0.95170   0.98800   0.47240   1.000
    H82     H    0.94130   0.95520   0.46060   1.000
    H83     H    0.92720   0.01230   0.46060   1.000
    H84     H    0.91130   0.62950   0.47080   1.000
    H85     H    0.84230   0.66770   0.52920   1.000
    H86     H    0.84310   0.51840   0.52880   1.000
    H87     H    0.76790   0.54780   0.47030   1.000
    C87     C    0.86890   0.57620   0.44940   1.000
    H88     H    0.86420   0.54500   0.43140   1.000
    H89     H    0.89410   0.59580   0.43200   1.000
    C88     C    0.81970   0.60520   0.45080   1.000
    H90     H    0.82490   0.63770   0.43520   1.000
    H91     H    0.79500   0.58720   0.43120   1.000
    H92     H    0.92750   0.01000   0.45820   1.000
    O17     O    0.06492   0.48831   0.05125   1.000
    O18     O    0.02549   0.56286   0.05119   1.000
    O19     O    0.42977   0.52388   0.13985   1.000
    O20     O    0.43187   0.52690   0.22306   1.000
    N9      N    0.21215   0.61273   0.19113   1.000
    C89     C    0.05946   0.53370   0.06452   1.000
    C90     C    0.09851   0.55467   0.10023   1.000
    C91     C    0.13463   0.52280   0.12103   1.000
    H93     H    0.13430   0.48860   0.11400   1.000
    C92     C    0.17069   0.54263   0.15196   1.000
    H94     H    0.19430   0.52110   0.16620   1.000
    C93     C    0.17321   0.59315   0.16271   1.000
    C94     C    0.13666   0.62462   0.14235   1.000
    H95     H    0.13690   0.65880   0.14980   1.000
    C95     C    0.09981   0.60520   0.11098   1.000
    H96     H    0.07590   0.62650   0.09720   1.000
    C96     C    0.26112   0.59162   0.18825   1.000
    C97     C    0.28280   0.58042   0.14321   1.000
    H97     H    0.26490   0.58580   0.11390   1.000
    C98     C    0.33114   0.56106   0.14097   1.000
    H98     H    0.34510   0.55330   0.11010   1.000
    C99     C    0.35830   0.55323   0.18301   1.000
    C100    C    0.41108   0.53288   0.18161   1.000
    C101    C    0.33673   0.56469   0.22883   1.000
    H99     H    0.35500   0.55970   0.25800   1.000
    C102    C    0.28812   0.58348   0.23160   1.000
    H100    H    0.27380   0.59060   0.26250   1.000
    C103    C    0.20568   0.65711   0.22131   1.000
    C104    C    0.24187   0.69370   0.22120   1.000
    H101    H    0.27040   0.68970   0.20160   1.000
    C105    C    0.48960   0.54430   0.33710   1.000
    H102    H    0.48240   0.57360   0.31950   1.000
    C106    C    0.49000   0.54480   0.38850   1.000
    H103    H    0.48360   0.57450   0.40570   1.000
    N10     N    0.49300   0.55240   0.47570   1.000
    C107    C    0.52590   0.45800   0.02980   1.000
    H104    H    0.56020   0.45850   0.04180   1.000
    C108    C    0.48800   0.45170   0.02760   1.000
    H105    H    0.45520   0.44130   0.03940   1.000
    H106    H    0.51230   0.42720   0.03940   1.000
    H107    H    0.12950   0.41130   0.02920   1.000
    H108    H    0.16770   0.34230   0.97080   1.000
    H109    H    0.01840   0.34310   0.97120   1.000
    H110    H    0.04780   0.26790   0.02970   1.000
    C109    C    0.07620   0.36890   0.05060   1.000
    H111    H    0.04500   0.36420   0.06860   1.000
    H112    H    0.09580   0.39410   0.06800   1.000
    C110    C    0.10520   0.31970   0.04920   1.000
    H113    H    0.13770   0.32490   0.06480   1.000
    H114    H    0.08720   0.29500   0.06880   1.000
    H115    H    0.51000   0.42750   0.04180   1.000
    O21     O    0.93508   0.51169   0.05125   1.000
    O22     O    0.97451   0.43714   0.05119   1.000
    O23     O    0.57023   0.47612   0.13985   1.000
    O24     O    0.56813   0.47310   0.22306   1.000
    N11     N    0.78785   0.38727   0.19113   1.000
    C111    C    0.94054   0.46630   0.06452   1.000
    C112    C    0.90149   0.44533   0.10023   1.000
    C113    C    0.86537   0.47720   0.12103   1.000
    H116    H    0.86570   0.51140   0.11400   1.000
    C114    C    0.82931   0.45737   0.15196   1.000
    H117    H    0.80570   0.47890   0.16620   1.000
    C115    C    0.82679   0.40685   0.16271   1.000
    C116    C    0.86334   0.37538   0.14235   1.000
    H118    H    0.86310   0.34120   0.14980   1.000
    C117    C    0.90019   0.39480   0.11098   1.000
    H119    H    0.92410   0.37350   0.09720   1.000
    C118    C    0.73888   0.40838   0.18825   1.000
    C119    C    0.71720   0.41958   0.14321   1.000
    H120    H    0.73510   0.41420   0.11390   1.000
    C120    C    0.66886   0.43894   0.14097   1.000
    H121    H    0.65490   0.44670   0.11010   1.000
    C121    C    0.64170   0.44677   0.18301   1.000
    C122    C    0.58892   0.46712   0.18161   1.000
    C123    C    0.66327   0.43531   0.22883   1.000
    H122    H    0.64500   0.44030   0.25800   1.000
    C124    C    0.71188   0.41652   0.23160   1.000
    H123    H    0.72620   0.40940   0.26250   1.000
    C125    C    0.79432   0.34289   0.22131   1.000
    C126    C    0.75813   0.30630   0.22120   1.000
    H124    H    0.72960   0.31030   0.20160   1.000
    C127    C    0.51040   0.45570   0.33710   1.000
    H125    H    0.51760   0.42640   0.31950   1.000
    C128    C    0.51000   0.45520   0.38850   1.000
    H126    H    0.51640   0.42550   0.40570   1.000
    N12     N    0.50700   0.44760   0.47570   1.000
    C129    C    0.47410   0.54200   0.02980   1.000
    H127    H    0.43980   0.54150   0.04180   1.000
    C130    C    0.51200   0.54830   0.02760   1.000
    H128    H    0.54480   0.55870   0.03940   1.000
    H129    H    0.48770   0.57280   0.03940   1.000
    H130    H    0.87050   0.58870   0.02920   1.000
    H131    H    0.83230   0.65770   0.97080   1.000
    H132    H    0.98160   0.65690   0.97120   1.000
    H133    H    0.95220   0.73210   0.02970   1.000
    C131    C    0.92380   0.63110   0.05060   1.000
    H134    H    0.95500   0.63580   0.06860   1.000
    H135    H    0.90420   0.60590   0.06800   1.000
    C132    C    0.89480   0.68030   0.04920   1.000
    H136    H    0.86230   0.67510   0.06480   1.000
    H137    H    0.91280   0.70500   0.06880   1.000
    H138    H    0.49000   0.57250   0.04180   1.000
    O25     O    0.48831   0.93508   0.05125   1.000
    O26     O    0.56286   0.97451   0.05119   1.000
    O27     O    0.52388   0.57023   0.13985   1.000
    O28     O    0.52690   0.56813   0.22306   1.000
    N13     N    0.61273   0.78785   0.19113   1.000
    C133    C    0.53370   0.94054   0.06452   1.000
    C134    C    0.55467   0.90149   0.10023   1.000
    C135    C    0.52280   0.86537   0.12103   1.000
    H139    H    0.48860   0.86570   0.11400   1.000
    C136    C    0.54263   0.82931   0.15196   1.000
    H140    H    0.52110   0.80570   0.16620   1.000
    C137    C    0.59315   0.82679   0.16271   1.000
    C138    C    0.62462   0.86334   0.14235   1.000
    H141    H    0.65880   0.86310   0.14980   1.000
    C139    C    0.60520   0.90019   0.11098   1.000
    H142    H    0.62650   0.92410   0.09720   1.000
    C140    C    0.59162   0.73888   0.18825   1.000
    C141    C    0.58042   0.71720   0.14321   1.000
    H143    H    0.58580   0.73510   0.11390   1.000
    C142    C    0.56106   0.66886   0.14097   1.000
    H144    H    0.55330   0.65490   0.11010   1.000
    C143    C    0.55323   0.64170   0.18301   1.000
    C144    C    0.53288   0.58892   0.18161   1.000
    C145    C    0.56469   0.66327   0.22883   1.000
    H145    H    0.55970   0.64500   0.25800   1.000
    C146    C    0.58348   0.71188   0.23160   1.000
    H146    H    0.59060   0.72620   0.26250   1.000
    C147    C    0.65711   0.79432   0.22131   1.000
    C148    C    0.69370   0.75813   0.22120   1.000
    H147    H    0.68970   0.72960   0.20160   1.000
    C149    C    0.54430   0.51040   0.33710   1.000
    H148    H    0.57360   0.51760   0.31950   1.000
    C150    C    0.54480   0.51000   0.38850   1.000
    H149    H    0.57450   0.51640   0.40570   1.000
    N14     N    0.55240   0.50700   0.47570   1.000
    C151    C    0.45800   0.47410   0.02980   1.000
    H150    H    0.45850   0.43980   0.04180   1.000
    C152    C    0.45170   0.51200   0.02760   1.000
    H151    H    0.44130   0.54480   0.03940   1.000
    H152    H    0.42720   0.48770   0.03940   1.000
    H153    H    0.41130   0.87050   0.02920   1.000
    H154    H    0.34230   0.83230   0.97080   1.000
    H155    H    0.34310   0.98160   0.97120   1.000
    H156    H    0.26790   0.95220   0.02970   1.000
    C153    C    0.36890   0.92380   0.05060   1.000
    H157    H    0.36420   0.95500   0.06860   1.000
    H158    H    0.39410   0.90420   0.06800   1.000
    C154    C    0.31970   0.89480   0.04920   1.000
    H159    H    0.32490   0.86230   0.06480   1.000
    H160    H    0.29500   0.91280   0.06880   1.000
    H161    H    0.42750   0.49000   0.04180   1.000
    O29     O    0.51169   0.06492   0.05125   1.000
    O30     O    0.43714   0.02549   0.05119   1.000
    O31     O    0.47612   0.42977   0.13985   1.000
    O32     O    0.47310   0.43187   0.22306   1.000
    N15     N    0.38727   0.21215   0.19113   1.000
    C155    C    0.46630   0.05946   0.06452   1.000
    C156    C    0.44533   0.09851   0.10023   1.000
    C157    C    0.47720   0.13463   0.12103   1.000
    H162    H    0.51140   0.13430   0.11400   1.000
    C158    C    0.45737   0.17069   0.15196   1.000
    H163    H    0.47890   0.19430   0.16620   1.000
    C159    C    0.40685   0.17321   0.16271   1.000
    C160    C    0.37538   0.13666   0.14235   1.000
    H164    H    0.34120   0.13690   0.14980   1.000
    C161    C    0.39480   0.09981   0.11098   1.000
    H165    H    0.37350   0.07590   0.09720   1.000
    C162    C    0.40838   0.26112   0.18825   1.000
    C163    C    0.41958   0.28280   0.14321   1.000
    H166    H    0.41420   0.26490   0.11390   1.000
    C164    C    0.43894   0.33114   0.14097   1.000
    H167    H    0.44670   0.34510   0.11010   1.000
    C165    C    0.44677   0.35830   0.18301   1.000
    C166    C    0.46712   0.41108   0.18161   1.000
    C167    C    0.43531   0.33673   0.22883   1.000
    H168    H    0.44030   0.35500   0.25800   1.000
    C168    C    0.41652   0.28812   0.23160   1.000
    H169    H    0.40940   0.27380   0.26250   1.000
    C169    C    0.34289   0.20568   0.22131   1.000
    C170    C    0.30630   0.24187   0.22120   1.000
    H170    H    0.31030   0.27040   0.20160   1.000
    C171    C    0.45570   0.48960   0.33710   1.000
    H171    H    0.42640   0.48240   0.31950   1.000
    C172    C    0.45520   0.49000   0.38850   1.000
    H172    H    0.42550   0.48360   0.40570   1.000
    N16     N    0.44760   0.49300   0.47570   1.000
    C173    C    0.54200   0.52590   0.02980   1.000
    H173    H    0.54150   0.56020   0.04180   1.000
    C174    C    0.54830   0.48800   0.02760   1.000
    H174    H    0.55870   0.45520   0.03940   1.000
    H175    H    0.57280   0.51230   0.03940   1.000
    H176    H    0.58870   0.12950   0.02920   1.000
    H177    H    0.65770   0.16770   0.97080   1.000
    H178    H    0.65690   0.01840   0.97120   1.000
    H179    H    0.73210   0.04780   0.02970   1.000
    C175    C    0.63110   0.07620   0.05060   1.000
    H180    H    0.63580   0.04500   0.06860   1.000
    H181    H    0.60590   0.09580   0.06800   1.000
    C176    C    0.68030   0.10520   0.04920   1.000
    H182    H    0.67510   0.13770   0.06480   1.000
    H183    H    0.70500   0.08720   0.06880   1.000
    H184    H    0.57250   0.51000   0.04180   1.000
    O33     O    0.56492   0.01169   0.55125   1.000
    O34     O    0.52549   0.93714   0.55119   1.000
    O35     O    0.92977   0.97612   0.63985   1.000
    O36     O    0.93187   0.97310   0.72306   1.000
    N17     N    0.71215   0.88727   0.69113   1.000
    C177    C    0.55946   0.96630   0.56452   1.000
    C178    C    0.59851   0.94533   0.60023   1.000
    C179    C    0.63463   0.97720   0.62103   1.000
    H185    H    0.63430   0.01140   0.61400   1.000
    C180    C    0.67069   0.95737   0.65196   1.000
    H186    H    0.69430   0.97890   0.66620   1.000
    C181    C    0.67321   0.90685   0.66271   1.000
    C182    C    0.63666   0.87538   0.64235   1.000
    H187    H    0.63690   0.84120   0.64980   1.000
    C183    C    0.59981   0.89480   0.61098   1.000
    H188    H    0.57590   0.87350   0.59720   1.000
    C184    C    0.76112   0.90838   0.68825   1.000
    C185    C    0.78280   0.91958   0.64321   1.000
    H189    H    0.76490   0.91420   0.61390   1.000
    C186    C    0.83114   0.93894   0.64097   1.000
    H190    H    0.84510   0.94670   0.61010   1.000
    C187    C    0.85830   0.94677   0.68301   1.000
    C188    C    0.91108   0.96712   0.68161   1.000
    C189    C    0.83673   0.93531   0.72883   1.000
    H191    H    0.85500   0.94030   0.75800   1.000
    C190    C    0.78812   0.91652   0.73160   1.000
    H192    H    0.77380   0.90940   0.76250   1.000
    C191    C    0.70568   0.84289   0.72131   1.000
    C192    C    0.74187   0.80630   0.72120   1.000
    H193    H    0.77040   0.81030   0.70160   1.000
    C193    C    0.98960   0.95570   0.83710   1.000
    H194    H    0.98240   0.92640   0.81950   1.000
    C194    C    0.99000   0.95520   0.88850   1.000
    H195    H    0.98360   0.92550   0.90570   1.000
    N18     N    0.99300   0.94760   0.97570   1.000
    C195    C    0.02590   0.04200   0.52980   1.000
    H196    H    0.06020   0.04150   0.54180   1.000
    C196    C    0.98800   0.04830   0.52760   1.000
    H197    H    0.95520   0.05870   0.53940   1.000
    H198    H    0.01230   0.07280   0.53940   1.000
    H199    H    0.62950   0.08870   0.52920   1.000
    H200    H    0.66770   0.15770   0.47080   1.000
    H201    H    0.51840   0.15690   0.47120   1.000
    H202    H    0.54780   0.23210   0.52970   1.000
    C197    C    0.57620   0.13110   0.55060   1.000
    H203    H    0.54500   0.13580   0.56860   1.000
    H204    H    0.59580   0.10590   0.56800   1.000
    C198    C    0.60520   0.18030   0.54920   1.000
    H205    H    0.63770   0.17510   0.56480   1.000
    H206    H    0.58720   0.20500   0.56880   1.000
    H207    H    0.01000   0.07250   0.54180   1.000
    O37     O    0.43508   0.98831   0.55125   1.000
    O38     O    0.47451   0.06286   0.55119   1.000
    O39     O    0.07023   0.02388   0.63985   1.000
    O40     O    0.06813   0.02690   0.72306   1.000
    N19     N    0.28785   0.11273   0.69113   1.000
    C199    C    0.44054   0.03370   0.56452   1.000
    C200    C    0.40149   0.05467   0.60023   1.000
    C201    C    0.36537   0.02280   0.62103   1.000
    H208    H    0.36570   0.98860   0.61400   1.000
    C202    C    0.32931   0.04263   0.65196   1.000
    H209    H    0.30570   0.02110   0.66620   1.000
    C203    C    0.32679   0.09315   0.66271   1.000
    C204    C    0.36334   0.12462   0.64235   1.000
    H210    H    0.36310   0.15880   0.64980   1.000
    C205    C    0.40019   0.10520   0.61098   1.000
    H211    H    0.42410   0.12650   0.59720   1.000
    C206    C    0.23888   0.09162   0.68825   1.000
    C207    C    0.21720   0.08042   0.64321   1.000
    H212    H    0.23510   0.08580   0.61390   1.000
    C208    C    0.16886   0.06106   0.64097   1.000
    H213    H    0.15490   0.05330   0.61010   1.000
    C209    C    0.14170   0.05323   0.68301   1.000
    C210    C    0.08892   0.03288   0.68161   1.000
    C211    C    0.16327   0.06469   0.72883   1.000
    H214    H    0.14500   0.05970   0.75800   1.000
    C212    C    0.21188   0.08348   0.73160   1.000
    H215    H    0.22620   0.09060   0.76250   1.000
    C213    C    0.29432   0.15711   0.72131   1.000
    C214    C    0.25813   0.19370   0.72120   1.000
    H216    H    0.22960   0.18970   0.70160   1.000
    C215    C    0.01040   0.04430   0.83710   1.000
    H217    H    0.01760   0.07360   0.81950   1.000
    C216    C    0.01000   0.04480   0.88850   1.000
    H218    H    0.01640   0.07450   0.90570   1.000
    N20     N    0.00700   0.05240   0.97570   1.000
    C217    C    0.97410   0.95800   0.52980   1.000
    H219    H    0.93980   0.95850   0.54180   1.000
    C218    C    0.01200   0.95170   0.52760   1.000
    H220    H    0.04480   0.94130   0.53940   1.000
    H221    H    0.98770   0.92720   0.53940   1.000
    H222    H    0.37050   0.91130   0.52920   1.000
    H223    H    0.33230   0.84230   0.47080   1.000
    H224    H    0.48160   0.84310   0.47120   1.000
    H225    H    0.45220   0.76790   0.52970   1.000
    C219    C    0.42380   0.86890   0.55060   1.000
    H226    H    0.45500   0.86420   0.56860   1.000
    H227    H    0.40420   0.89410   0.56800   1.000
    C220    C    0.39480   0.81970   0.54920   1.000
    H228    H    0.36230   0.82490   0.56480   1.000
    H229    H    0.41280   0.79500   0.56880   1.000
    H230    H    0.99000   0.92750   0.54180   1.000
    O41     O    0.98831   0.56492   0.55125   1.000
    O42     O    0.06286   0.52549   0.55119   1.000
    O43     O    0.02388   0.92977   0.63985   1.000
    O44     O    0.02690   0.93187   0.72306   1.000
    N21     N    0.11273   0.71215   0.69113   1.000
    C221    C    0.03370   0.55946   0.56452   1.000
    C222    C    0.05467   0.59851   0.60023   1.000
    C223    C    0.02280   0.63463   0.62103   1.000
    H231    H    0.98860   0.63430   0.61400   1.000
    C224    C    0.04263   0.67069   0.65196   1.000
    H232    H    0.02110   0.69430   0.66620   1.000
    C225    C    0.09315   0.67321   0.66271   1.000
    C226    C    0.12462   0.63666   0.64235   1.000
    H233    H    0.15880   0.63690   0.64980   1.000
    C227    C    0.10520   0.59981   0.61098   1.000
    H234    H    0.12650   0.57590   0.59720   1.000
    C228    C    0.09162   0.76112   0.68825   1.000
    C229    C    0.08042   0.78280   0.64321   1.000
    H235    H    0.08580   0.76490   0.61390   1.000
    C230    C    0.06106   0.83114   0.64097   1.000
    H236    H    0.05330   0.84510   0.61010   1.000
    C231    C    0.05323   0.85830   0.68301   1.000
    C232    C    0.03288   0.91108   0.68161   1.000
    C233    C    0.06469   0.83673   0.72883   1.000
    H237    H    0.05970   0.85500   0.75800   1.000
    C234    C    0.08348   0.78812   0.73160   1.000
    H238    H    0.09060   0.77380   0.76250   1.000
    C235    C    0.15711   0.70568   0.72131   1.000
    C236    C    0.19370   0.74187   0.72120   1.000
    H239    H    0.18970   0.77040   0.70160   1.000
    C237    C    0.04430   0.98960   0.83710   1.000
    H240    H    0.07360   0.98240   0.81950   1.000
    C238    C    0.04480   0.99000   0.88850   1.000
    H241    H    0.07450   0.98360   0.90570   1.000
    N22     N    0.05240   0.99300   0.97570   1.000
    C239    C    0.95800   0.02590   0.52980   1.000
    H242    H    0.95850   0.06020   0.54180   1.000
    C240    C    0.95170   0.98800   0.52760   1.000
    H243    H    0.94130   0.95520   0.53940   1.000
    H244    H    0.92720   0.01230   0.53940   1.000
    H245    H    0.91130   0.62950   0.52920   1.000
    H246    H    0.84230   0.66770   0.47080   1.000
    H247    H    0.84310   0.51840   0.47120   1.000
    H248    H    0.76790   0.54780   0.52970   1.000
    C241    C    0.86890   0.57620   0.55060   1.000
    H249    H    0.86420   0.54500   0.56860   1.000
    H250    H    0.89410   0.59580   0.56800   1.000
    C242    C    0.81970   0.60520   0.54920   1.000
    H251    H    0.82490   0.63770   0.56480   1.000
    H252    H    0.79500   0.58720   0.56880   1.000
    H253    H    0.92750   0.01000   0.54180   1.000
    O45     O    0.01169   0.43508   0.55125   1.000
    O46     O    0.93714   0.47451   0.55119   1.000
    O47     O    0.97612   0.07023   0.63985   1.000
    O48     O    0.97310   0.06813   0.72306   1.000
    N23     N    0.88727   0.28785   0.69113   1.000
    C243    C    0.96630   0.44054   0.56452   1.000
    C244    C    0.94533   0.40149   0.60023   1.000
    C245    C    0.97720   0.36537   0.62103   1.000
    H254    H    0.01140   0.36570   0.61400   1.000
    C246    C    0.95737   0.32931   0.65196   1.000
    H255    H    0.97890   0.30570   0.66620   1.000
    C247    C    0.90685   0.32679   0.66271   1.000
    C248    C    0.87538   0.36334   0.64235   1.000
    H256    H    0.84120   0.36310   0.64980   1.000
    C249    C    0.89480   0.40019   0.61098   1.000
    H257    H    0.87350   0.42410   0.59720   1.000
    C250    C    0.90838   0.23888   0.68825   1.000
    C251    C    0.91958   0.21720   0.64321   1.000
    H258    H    0.91420   0.23510   0.61390   1.000
    C252    C    0.93894   0.16886   0.64097   1.000
    H259    H    0.94670   0.15490   0.61010   1.000
    C253    C    0.94677   0.14170   0.68301   1.000
    C254    C    0.96712   0.08892   0.68161   1.000
    C255    C    0.93531   0.16327   0.72883   1.000
    H260    H    0.94030   0.14500   0.75800   1.000
    C256    C    0.91652   0.21188   0.73160   1.000
    H261    H    0.90940   0.22620   0.76250   1.000
    C257    C    0.84289   0.29432   0.72131   1.000
    C258    C    0.80630   0.25813   0.72120   1.000
    H262    H    0.81030   0.22960   0.70160   1.000
    C259    C    0.95570   0.01040   0.83710   1.000
    H263    H    0.92640   0.01760   0.81950   1.000
    C260    C    0.95520   0.01000   0.88850   1.000
    H264    H    0.92550   0.01640   0.90570   1.000
    N24     N    0.94760   0.00700   0.97570   1.000
    C261    C    0.04200   0.97410   0.52980   1.000
    H265    H    0.04150   0.93980   0.54180   1.000
    C262    C    0.04830   0.01200   0.52760   1.000
    H266    H    0.05870   0.04480   0.53940   1.000
    H267    H    0.07280   0.98770   0.53940   1.000
    H268    H    0.08870   0.37050   0.52920   1.000
    H269    H    0.15770   0.33230   0.47080   1.000
    H270    H    0.15690   0.48160   0.47120   1.000
    H271    H    0.23210   0.45220   0.52970   1.000
    C263    C    0.13110   0.42380   0.55060   1.000
    H272    H    0.13580   0.45500   0.56860   1.000
    H273    H    0.10590   0.40420   0.56800   1.000
    C264    C    0.18030   0.39480   0.54920   1.000
    H274    H    0.17510   0.36230   0.56480   1.000
    H275    H    0.20500   0.41280   0.56880   1.000
    H276    H    0.07250   0.99000   0.54180   1.000
    O49     O    0.93508   0.51169   0.94875   1.000
    O50     O    0.97451   0.43714   0.94881   1.000
    O51     O    0.57023   0.47612   0.86015   1.000
    O52     O    0.56813   0.47310   0.77694   1.000
    N25     N    0.78785   0.38727   0.80887   1.000
    C265    C    0.94054   0.46630   0.93548   1.000
    C266    C    0.90149   0.44533   0.89977   1.000
    C267    C    0.86537   0.47720   0.87897   1.000
    H277    H    0.86570   0.51140   0.88600   1.000
    C268    C    0.82931   0.45737   0.84804   1.000
    H278    H    0.80570   0.47890   0.83380   1.000
    C269    C    0.82679   0.40685   0.83729   1.000
    C270    C    0.86334   0.37538   0.85765   1.000
    H279    H    0.86310   0.34120   0.85020   1.000
    C271    C    0.90019   0.39480   0.88902   1.000
    H280    H    0.92410   0.37350   0.90280   1.000
    C272    C    0.73888   0.40838   0.81175   1.000
    C273    C    0.71720   0.41958   0.85679   1.000
    H281    H    0.73510   0.41420   0.88610   1.000
    C274    C    0.66886   0.43894   0.85903   1.000
    H282    H    0.65490   0.44670   0.88990   1.000
    C275    C    0.64170   0.44677   0.81699   1.000
    C276    C    0.58892   0.46712   0.81839   1.000
    C277    C    0.66327   0.43531   0.77117   1.000
    H283    H    0.64500   0.44030   0.74200   1.000
    C278    C    0.71188   0.41652   0.76840   1.000
    H284    H    0.72620   0.40940   0.73750   1.000
    C279    C    0.79432   0.34289   0.77869   1.000
    C280    C    0.75813   0.30630   0.77880   1.000
    H285    H    0.72960   0.31030   0.79840   1.000
    C281    C    0.51040   0.45570   0.66290   1.000
    H286    H    0.51760   0.42640   0.68050   1.000
    C282    C    0.51000   0.45520   0.61150   1.000
    H287    H    0.51640   0.42550   0.59430   1.000
    N26     N    0.50700   0.44760   0.52430   1.000
    C283    C    0.47410   0.54200   0.97020   1.000
    H288    H    0.43980   0.54150   0.95820   1.000
    C284    C    0.51200   0.54830   0.97240   1.000
    H289    H    0.54480   0.55870   0.96060   1.000
    H290    H    0.48770   0.57280   0.96060   1.000
    H291    H    0.87050   0.58870   0.97080   1.000
    H292    H    0.83230   0.65770   0.02920   1.000
    H293    H    0.98160   0.65690   0.02880   1.000
    H294    H    0.95220   0.73210   0.97030   1.000
    C285    C    0.92380   0.63110   0.94940   1.000
    H295    H    0.95500   0.63580   0.93140   1.000
    H296    H    0.90420   0.60590   0.93200   1.000
    C286    C    0.89480   0.68030   0.95080   1.000
    H297    H    0.86230   0.67510   0.93520   1.000
    H298    H    0.91280   0.70500   0.93120   1.000
    H299    H    0.49000   0.57250   0.95820   1.000
    O53     O    0.06492   0.48831   0.94875   1.000
    O54     O    0.02549   0.56286   0.94881   1.000
    O55     O    0.42977   0.52388   0.86015   1.000
    O56     O    0.43187   0.52690   0.77694   1.000
    N27     N    0.21215   0.61273   0.80887   1.000
    C287    C    0.05946   0.53370   0.93548   1.000
    C288    C    0.09851   0.55467   0.89977   1.000
    C289    C    0.13463   0.52280   0.87897   1.000
    H300    H    0.13430   0.48860   0.88600   1.000
    C290    C    0.17069   0.54263   0.84804   1.000
    H301    H    0.19430   0.52110   0.83380   1.000
    C291    C    0.17321   0.59315   0.83729   1.000
    C292    C    0.13666   0.62462   0.85765   1.000
    H302    H    0.13690   0.65880   0.85020   1.000
    C293    C    0.09981   0.60520   0.88902   1.000
    H303    H    0.07590   0.62650   0.90280   1.000
    C294    C    0.26112   0.59162   0.81175   1.000
    C295    C    0.28280   0.58042   0.85679   1.000
    H304    H    0.26490   0.58580   0.88610   1.000
    C296    C    0.33114   0.56106   0.85903   1.000
    H305    H    0.34510   0.55330   0.88990   1.000
    C297    C    0.35830   0.55323   0.81699   1.000
    C298    C    0.41108   0.53288   0.81839   1.000
    C299    C    0.33673   0.56469   0.77117   1.000
    H306    H    0.35500   0.55970   0.74200   1.000
    C300    C    0.28812   0.58348   0.76840   1.000
    H307    H    0.27380   0.59060   0.73750   1.000
    C301    C    0.20568   0.65711   0.77869   1.000
    C302    C    0.24187   0.69370   0.77880   1.000
    H308    H    0.27040   0.68970   0.79840   1.000
    C303    C    0.48960   0.54430   0.66290   1.000
    H309    H    0.48240   0.57360   0.68050   1.000
    C304    C    0.49000   0.54480   0.61150   1.000
    H310    H    0.48360   0.57450   0.59430   1.000
    N28     N    0.49300   0.55240   0.52430   1.000
    C305    C    0.52590   0.45800   0.97020   1.000
    H311    H    0.56020   0.45850   0.95820   1.000
    C306    C    0.48800   0.45170   0.97240   1.000
    H312    H    0.45520   0.44130   0.96060   1.000
    H313    H    0.51230   0.42720   0.96060   1.000
    H314    H    0.12950   0.41130   0.97080   1.000
    H315    H    0.16770   0.34230   0.02920   1.000
    H316    H    0.01840   0.34310   0.02880   1.000
    H317    H    0.04780   0.26790   0.97030   1.000
    C307    C    0.07620   0.36890   0.94940   1.000
    H318    H    0.04500   0.36420   0.93140   1.000
    H319    H    0.09580   0.39410   0.93200   1.000
    C308    C    0.10520   0.31970   0.95080   1.000
    H320    H    0.13770   0.32490   0.93520   1.000
    H321    H    0.08720   0.29500   0.93120   1.000
    H322    H    0.51000   0.42750   0.95820   1.000
    O57     O    0.51169   0.06492   0.94875   1.000
    O58     O    0.43714   0.02549   0.94881   1.000
    O59     O    0.47612   0.42977   0.86015   1.000
    O60     O    0.47310   0.43187   0.77694   1.000
    N29     N    0.38727   0.21215   0.80887   1.000
    C309    C    0.46630   0.05946   0.93548   1.000
    C310    C    0.44533   0.09851   0.89977   1.000
    C311    C    0.47720   0.13463   0.87897   1.000
    H323    H    0.51140   0.13430   0.88600   1.000
    C312    C    0.45737   0.17069   0.84804   1.000
    H324    H    0.47890   0.19430   0.83380   1.000
    C313    C    0.40685   0.17321   0.83729   1.000
    C314    C    0.37538   0.13666   0.85765   1.000
    H325    H    0.34120   0.13690   0.85020   1.000
    C315    C    0.39480   0.09981   0.88902   1.000
    H326    H    0.37350   0.07590   0.90280   1.000
    C316    C    0.40838   0.26112   0.81175   1.000
    C317    C    0.41958   0.28280   0.85679   1.000
    H327    H    0.41420   0.26490   0.88610   1.000
    C318    C    0.43894   0.33114   0.85903   1.000
    H328    H    0.44670   0.34510   0.88990   1.000
    C319    C    0.44677   0.35830   0.81699   1.000
    C320    C    0.46712   0.41108   0.81839   1.000
    C321    C    0.43531   0.33673   0.77117   1.000
    H329    H    0.44030   0.35500   0.74200   1.000
    C322    C    0.41652   0.28812   0.76840   1.000
    H330    H    0.40940   0.27380   0.73750   1.000
    C323    C    0.34289   0.20568   0.77869   1.000
    C324    C    0.30630   0.24187   0.77880   1.000
    H331    H    0.31030   0.27040   0.79840   1.000
    C325    C    0.45570   0.48960   0.66290   1.000
    H332    H    0.42640   0.48240   0.68050   1.000
    C326    C    0.45520   0.49000   0.61150   1.000
    H333    H    0.42550   0.48360   0.59430   1.000
    N30     N    0.44760   0.49300   0.52430   1.000
    C327    C    0.54200   0.52590   0.97020   1.000
    H334    H    0.54150   0.56020   0.95820   1.000
    C328    C    0.54830   0.48800   0.97240   1.000
    H335    H    0.55870   0.45520   0.96060   1.000
    H336    H    0.57280   0.51230   0.96060   1.000
    H337    H    0.58870   0.12950   0.97080   1.000
    H338    H    0.65770   0.16770   0.02920   1.000
    H339    H    0.65690   0.01840   0.02880   1.000
    H340    H    0.73210   0.04780   0.97030   1.000
    C329    C    0.63110   0.07620   0.94940   1.000
    H341    H    0.63580   0.04500   0.93140   1.000
    H342    H    0.60590   0.09580   0.93200   1.000
    C330    C    0.68030   0.10520   0.95080   1.000
    H343    H    0.67510   0.13770   0.93520   1.000
    H344    H    0.70500   0.08720   0.93120   1.000
    H345    H    0.57250   0.51000   0.95820   1.000
    O61     O    0.48831   0.93508   0.94875   1.000
    O62     O    0.56286   0.97451   0.94881   1.000
    O63     O    0.52388   0.57023   0.86015   1.000
    O64     O    0.52690   0.56813   0.77694   1.000
    N31     N    0.61273   0.78785   0.80887   1.000
    C331    C    0.53370   0.94054   0.93548   1.000
    C332    C    0.55467   0.90149   0.89977   1.000
    C333    C    0.52280   0.86537   0.87897   1.000
    H346    H    0.48860   0.86570   0.88600   1.000
    C334    C    0.54263   0.82931   0.84804   1.000
    H347    H    0.52110   0.80570   0.83380   1.000
    C335    C    0.59315   0.82679   0.83729   1.000
    C336    C    0.62462   0.86334   0.85765   1.000
    H348    H    0.65880   0.86310   0.85020   1.000
    C337    C    0.60520   0.90019   0.88902   1.000
    H349    H    0.62650   0.92410   0.90280   1.000
    C338    C    0.59162   0.73888   0.81175   1.000
    C339    C    0.58042   0.71720   0.85679   1.000
    H350    H    0.58580   0.73510   0.88610   1.000
    C340    C    0.56106   0.66886   0.85903   1.000
    H351    H    0.55330   0.65490   0.88990   1.000
    C341    C    0.55323   0.64170   0.81699   1.000
    C342    C    0.53288   0.58892   0.81839   1.000
    C343    C    0.56469   0.66327   0.77117   1.000
    H352    H    0.55970   0.64500   0.74200   1.000
    C344    C    0.58348   0.71188   0.76840   1.000
    H353    H    0.59060   0.72620   0.73750   1.000
    C345    C    0.65711   0.79432   0.77869   1.000
    C346    C    0.69370   0.75813   0.77880   1.000
    H354    H    0.68970   0.72960   0.79840   1.000
    C347    C    0.54430   0.51040   0.66290   1.000
    H355    H    0.57360   0.51760   0.68050   1.000
    C348    C    0.54480   0.51000   0.61150   1.000
    H356    H    0.57450   0.51640   0.59430   1.000
    N32     N    0.55240   0.50700   0.52430   1.000
    C349    C    0.45800   0.47410   0.97020   1.000
    H357    H    0.45850   0.43980   0.95820   1.000
    C350    C    0.45170   0.51200   0.97240   1.000
    H358    H    0.44130   0.54480   0.96060   1.000
    H359    H    0.42720   0.48770   0.96060   1.000
    H360    H    0.41130   0.87050   0.97080   1.000
    H361    H    0.34230   0.83230   0.02920   1.000
    H362    H    0.34310   0.98160   0.02880   1.000
    H363    H    0.26790   0.95220   0.97030   1.000
    C351    C    0.36890   0.92380   0.94940   1.000
    H364    H    0.36420   0.95500   0.93140   1.000
    H365    H    0.39410   0.90420   0.93200   1.000
    C352    C    0.31970   0.89480   0.95080   1.000
    H366    H    0.32490   0.86230   0.93520   1.000
    H367    H    0.29500   0.91280   0.93120   1.000
    H368    H    0.42750   0.49000   0.95820   1.000
    Cu1     Cu   0.47640   0.95629   0.50000   1.000
    N33     N    0.43450   0.88620   0.50000   1.000
    C353    C    0.38040   0.89220   0.50000   1.000
    C354    C    0.35380   0.84390   0.50000   1.000
    C355    C    0.45960   0.84100   0.50000   1.000
    C356    C    0.44210   0.78610   0.50000   1.000
    N34     N    0.38700   0.79990   0.50000   1.000
    Cu2     Cu   0.52360   0.04371   0.50000   1.000
    N35     N    0.56550   0.11380   0.50000   1.000
    C357    C    0.61960   0.10780   0.50000   1.000
    C358    C    0.64620   0.15610   0.50000   1.000
    C359    C    0.54040   0.15900   0.50000   1.000
    C360    C    0.55790   0.21390   0.50000   1.000
    N36     N    0.61300   0.20010   0.50000   1.000
    Cu3     Cu   0.04371   0.47640   0.50000   1.000
    N37     N    0.11380   0.43450   0.50000   1.000
    C361    C    0.10780   0.38040   0.50000   1.000
    C362    C    0.15610   0.35380   0.50000   1.000
    C363    C    0.15900   0.45960   0.50000   1.000
    C364    C    0.21390   0.44210   0.50000   1.000
    N38     N    0.20010   0.38700   0.50000   1.000
    Cu4     Cu   0.95629   0.52360   0.50000   1.000
    N39     N    0.88620   0.56550   0.50000   1.000
    C365    C    0.89220   0.61960   0.50000   1.000
    C366    C    0.84390   0.64620   0.50000   1.000
    C367    C    0.84100   0.54040   0.50000   1.000
    C368    C    0.78610   0.55790   0.50000   1.000
    N40     N    0.79990   0.61300   0.50000   1.000
    Cu5     Cu   0.02360   0.45629   0.00000   1.000
    N41     N    0.06550   0.38620   0.00000   1.000
    C369    C    0.11960   0.39220   0.00000   1.000
    C370    C    0.14620   0.34390   0.00000   1.000
    C371    C    0.04040   0.34100   0.00000   1.000
    C372    C    0.05790   0.28610   0.00000   1.000
    N42     N    0.11300   0.29990   0.00000   1.000
    Cu6     Cu   0.97640   0.54371   0.00000   1.000
    N43     N    0.93450   0.61380   0.00000   1.000
    C373    C    0.88040   0.60780   0.00000   1.000
    C374    C    0.85380   0.65610   0.00000   1.000
    C375    C    0.95960   0.65900   0.00000   1.000
    C376    C    0.94210   0.71390   0.00000   1.000
    N44     N    0.88700   0.70010   0.00000   1.000
    Cu7     Cu   0.45629   0.97640   0.00000   1.000
    N45     N    0.38620   0.93450   0.00000   1.000
    C377    C    0.39220   0.88040   0.00000   1.000
    C378    C    0.34390   0.85380   0.00000   1.000
    C379    C    0.34100   0.95960   0.00000   1.000
    C380    C    0.28610   0.94210   0.00000   1.000
    N46     N    0.29990   0.88700   0.00000   1.000
    Cu8     Cu   0.54371   0.02360   0.00000   1.000
    N47     N    0.61380   0.06550   0.00000   1.000
    C381    C    0.60780   0.11960   0.00000   1.000
    C382    C    0.65610   0.14620   0.00000   1.000
    C383    C    0.65900   0.04040   0.00000   1.000
    C384    C    0.71390   0.05790   0.00000   1.000
    N48     N    0.70010   0.11300   0.00000   1.000
    Cu9     Cu   0.00000   0.00000   0.36901   1.000
    Cu10    Cu   0.00000   0.00000   0.26983   1.000
    N49     N    0.00000   0.00000   0.45124   1.000
    N50     N    0.00000   0.00000   0.18840   1.000
    C385    C    0.00000   0.00000   0.08500   1.000
    C386    C    0.00000   0.00000   0.03430   1.000
    Cu11    Cu   0.50000   0.50000   0.13099   1.000
    Cu12    Cu   0.50000   0.50000   0.23017   1.000
    N51     N    0.50000   0.50000   0.04876   1.000
    N52     N    0.50000   0.50000   0.31160   1.000
    C387    C    0.50000   0.50000   0.41500   1.000
    C388    C    0.50000   0.50000   0.46570   1.000
    Cu13    Cu   0.00000   0.00000   0.63099   1.000
    Cu14    Cu   0.00000   0.00000   0.73017   1.000
    N53     N    0.00000   0.00000   0.54876   1.000
    N54     N    0.00000   0.00000   0.81160   1.000
    C389    C    0.00000   0.00000   0.91500   1.000
    C390    C    0.00000   0.00000   0.96570   1.000
    Cu15    Cu   0.50000   0.50000   0.86901   1.000
    Cu16    Cu   0.50000   0.50000   0.76983   1.000
    N55     N    0.50000   0.50000   0.95124   1.000
    N56     N    0.50000   0.50000   0.68840   1.000
    C391    C    0.50000   0.50000   0.58500   1.000
    C392    C    0.50000   0.50000   0.53430   1.000
    C393    C    0.33672   0.16328   0.25000   1.000
    H369    H    0.36140   0.13860   0.25000   1.000
    C394    C    0.26350   0.23650   0.25000   1.000
    H370    H    0.23880   0.26120   0.25000   1.000
    C395    C    0.66328   0.83672   0.25000   1.000
    H371    H    0.63860   0.86140   0.25000   1.000
    C396    C    0.73650   0.76350   0.25000   1.000
    H372    H    0.76120   0.73880   0.25000   1.000
    C397    C    0.83672   0.33672   0.25000   1.000
    H373    H    0.86140   0.36140   0.25000   1.000
    C398    C    0.76350   0.26350   0.25000   1.000
    H374    H    0.73880   0.23880   0.25000   1.000
    C399    C    0.16328   0.66328   0.25000   1.000
    H375    H    0.13860   0.63860   0.25000   1.000
    C400    C    0.23650   0.73650   0.25000   1.000
    H376    H    0.26120   0.76120   0.25000   1.000
    C401    C    0.66328   0.83672   0.75000   1.000
    H377    H    0.63860   0.86140   0.75000   1.000
    C402    C    0.73650   0.76350   0.75000   1.000
    H378    H    0.76120   0.73880   0.75000   1.000
    C403    C    0.33672   0.16328   0.75000   1.000
    H379    H    0.36140   0.13860   0.75000   1.000
    C404    C    0.26350   0.23650   0.75000   1.000
    H380    H    0.23880   0.26120   0.75000   1.000
    C405    C    0.16328   0.66328   0.75000   1.000
    H381    H    0.13860   0.63860   0.75000   1.000
    C406    C    0.23650   0.73650   0.75000   1.000
    H382    H    0.26120   0.76120   0.75000   1.000
    C407    C    0.83672   0.33672   0.75000   1.000
    H383    H    0.86140   0.36140   0.75000   1.000
    C408    C    0.76350   0.26350   0.75000   1.000
    H384    H    0.73880   0.23880   0.75000   1.000
