# CIF file generated by openbabel 2.4.1, see http://openbabel.sf.net
data_I
_chemical_name_common 'RUMWUS_clean'
_cell_length_a 13.177
_cell_length_b 13.2269
_cell_length_c 13.2269
_cell_angle_alpha 91.5649
_cell_angle_beta 100.129
_cell_angle_gamma 79.8713
_space_group_name_H-M_alt 'P 1'
_space_group_name_Hall 'P 1'
loop_
    _symmetry_equiv_pos_as_xyz
    x,y,z
loop_
    _atom_site_label
    _atom_site_type_symbol
    _atom_site_fract_x
    _atom_site_fract_y
    _atom_site_fract_z
    _atom_site_occupancy
    Zn1     Zn   0.00373   0.36323   0.70753   1.000
    Zn2     Zn   0.19129   0.23598   0.61100   1.000
    Zn3     Zn   0.50373   0.29247   0.63677   1.000
    Zn4     Zn   0.69129   0.38900   0.76402   1.000
    H1      H    0.49200   0.99740   0.20840   1.000
    H2      H    0.45780   0.91340   0.12920   1.000
    H3      H    0.63020   0.87030   0.02050   1.000
    H4      H    0.58720   0.78120   0.06640   1.000
    H5      H    0.61950   0.87010   0.32830   1.000
    H6      H    0.69920   0.78620   0.28280   1.000
    H7      H    0.70460   0.99990   0.13870   1.000
    H8      H    0.76960   0.91960   0.22160   1.000
    H9      H    0.31410   0.03200   0.09100   1.000
    H10     H    0.49540   0.14300   0.92180   1.000
    H11     H    0.16800   0.12130   0.98730   1.000
    H12     H    0.35120   0.23060   0.82180   1.000
    H13     H    0.64130   0.72380   0.91800   1.000
    H14     H    0.91050   0.65240   0.11880   1.000
    H15     H    0.70610   0.59870   0.80710   1.000
    H16     H    0.97650   0.53600   0.00400   1.000
    H17     H    0.42770   0.64510   0.26470   1.000
    H18     H    0.69720   0.71410   0.41710   1.000
    H19     H    0.43350   0.51920   0.38480   1.000
    H20     H    0.70780   0.58030   0.53130   1.000
    H21     H    0.87440   0.02240   0.27260   1.000
    H22     H    0.64710   0.13740   0.42980   1.000
    H23     H    0.98970   0.09980   0.38440   1.000
    H24     H    0.76510   0.21460   0.54220   1.000
    H25     H    0.99200   0.79160   0.00260   1.000
    H26     H    0.95780   0.87080   0.08660   1.000
    H27     H    0.13020   0.97950   0.12970   1.000
    H28     H    0.08720   0.93360   0.21880   1.000
    H29     H    0.11950   0.67170   0.12990   1.000
    H30     H    0.19920   0.71720   0.21380   1.000
    H31     H    0.20460   0.86130   0.00010   1.000
    H32     H    0.26960   0.77840   0.08040   1.000
    H33     H    0.81410   0.90900   0.96800   1.000
    H34     H    0.99540   0.07820   0.85700   1.000
    H35     H    0.66800   0.01270   0.87870   1.000
    H36     H    0.85120   0.17820   0.76940   1.000
    H37     H    0.14130   0.08200   0.27620   1.000
    H38     H    0.41050   0.88120   0.34760   1.000
    H39     H    0.20610   0.19290   0.40130   1.000
    H40     H    0.47650   0.99600   0.46400   1.000
    H41     H    0.92770   0.73530   0.35490   1.000
    H42     H    0.19720   0.58290   0.28590   1.000
    H43     H    0.93350   0.61520   0.48080   1.000
    H44     H    0.20780   0.46870   0.41970   1.000
    H45     H    0.37440   0.72740   0.97760   1.000
    H46     H    0.14710   0.57020   0.86260   1.000
    H47     H    0.48970   0.61560   0.90020   1.000
    H48     H    0.26510   0.45780   0.78540   1.000
    C1      C    0.61830   0.89400   0.17440   1.000
    C2      C    0.50930   0.95750   0.14930   1.000
    C3      C    0.63780   0.82700   0.08040   1.000
    C4      C    0.62940   0.82700   0.26900   1.000
    C5      C    0.70150   0.96150   0.19910   1.000
    C6      C    0.41930   0.07530   0.01510   1.000
    C7      C    0.32150   0.07080   0.03600   1.000
    C8      C    0.42930   0.13780   0.93440   1.000
    C9      C    0.23430   0.12490   0.97410   1.000
    C10     C    0.34350   0.18990   0.87530   1.000
    C11     C    0.24400   0.18450   0.89250   1.000
    C12     C    0.14840   0.24140   0.82880   1.000
    C13     C    0.77050   0.69960   0.02960   1.000
    C14     C    0.70790   0.68500   0.93580   1.000
    C15     C    0.86980   0.64290   0.05550   1.000
    C16     C    0.74760   0.61050   0.86930   1.000
    C17     C    0.90850   0.57230   0.98770   1.000
    C18     C    0.84590   0.55480   0.89360   1.000
    C19     C    0.88910   0.47800   0.82180   1.000
    C20     C    0.56370   0.68910   0.32790   1.000
    C21     C    0.48380   0.63250   0.31890   1.000
    C22     C    0.64560   0.67320   0.40880   1.000
    C23     C    0.48740   0.55700   0.39080   1.000
    C24     C    0.65020   0.59450   0.47870   1.000
    C25     C    0.57100   0.53740   0.47160   1.000
    C26     C    0.57750   0.45700   0.54940   1.000
    C27     C    0.74950   0.07230   0.33990   1.000
    C28     C    0.85200   0.06100   0.32680   1.000
    C29     C    0.71650   0.12970   0.42090   1.000
    C30     C    0.92060   0.10690   0.39430   1.000
    C31     C    0.78750   0.17530   0.48830   1.000
    C32     C    0.89100   0.16370   0.47690   1.000
    C33     C    0.96890   0.21030   0.55030   1.000
    C34     C    0.11830   0.82560   0.10600   1.000
    C35     C    0.00930   0.85070   0.04250   1.000
    C36     C    0.13780   0.91960   0.17300   1.000
    C37     C    0.12940   0.73100   0.17300   1.000
    C38     C    0.20150   0.80090   0.03850   1.000
    C39     C    0.91930   0.98490   0.92470   1.000
    C40     C    0.82150   0.96400   0.92920   1.000
    C41     C    0.92930   0.06560   0.86220   1.000
    C42     C    0.73430   0.02590   0.87510   1.000
    C43     C    0.84350   0.12470   0.81010   1.000
    C44     C    0.74400   0.10750   0.81550   1.000
    C45     C    0.64840   0.17120   0.75860   1.000
    C46     C    0.27050   0.97040   0.30040   1.000
    C47     C    0.20790   0.06420   0.31500   1.000
    C48     C    0.36980   0.94450   0.35710   1.000
    C49     C    0.24760   0.13070   0.38950   1.000
    C50     C    0.40850   0.01230   0.42770   1.000
    C51     C    0.34590   0.10640   0.44520   1.000
    C52     C    0.38910   0.17820   0.52200   1.000
    C53     C    0.06370   0.67210   0.31090   1.000
    C54     C    0.98380   0.68110   0.36750   1.000
    C55     C    0.14560   0.59120   0.32680   1.000
    C56     C    0.98740   0.60920   0.44300   1.000
    C57     C    0.15020   0.52130   0.40550   1.000
    C58     C    0.07100   0.52840   0.46260   1.000
    C59     C    0.07750   0.45060   0.54300   1.000
    C60     C    0.24950   0.66010   0.92770   1.000
    C61     C    0.35200   0.67320   0.93900   1.000
    C62     C    0.21650   0.57910   0.87030   1.000
    C63     C    0.42060   0.60570   0.89310   1.000
    C64     C    0.28750   0.51170   0.82470   1.000
    C65     C    0.39100   0.52310   0.83630   1.000
    C66     C    0.46890   0.44970   0.78970   1.000
    O1      O    0.51100   0.02350   0.06690   1.000
    O2      O    0.74000   0.76984   0.10144   1.000
    O3      O    0.55400   0.76111   0.25269   1.000
    O4      O    0.67370   0.02942   0.27822   1.000
    O5      O    0.06110   0.24447   0.85013   1.000
    O6      O    0.15930   0.29119   0.74865   1.000
    O7      O    0.83310   0.42568   0.76348   1.000
    O8      O    0.98540   0.46683   0.81863   1.000
    O9      O    0.50970   0.40010   0.53690   1.000
    O10     O    0.65280   0.45090   0.62210   1.000
    O11     O    0.06010   0.19470   0.53490   1.000
    O12     O    0.93540   0.26207   0.62247   1.000
    O13     O    0.01100   0.93310   0.97650   1.000
    O14     O    0.24000   0.89856   0.23016   1.000
    O15     O    0.05400   0.74731   0.23889   1.000
    O16     O    0.17370   0.72178   0.97058   1.000
    O17     O    0.56110   0.14987   0.75553   1.000
    O18     O    0.65930   0.25135   0.70881   1.000
    O19     O    0.33310   0.23652   0.57432   1.000
    O20     O    0.48540   0.18137   0.53317   1.000
    O21     O    0.00970   0.46310   0.59990   1.000
    O22     O    0.15280   0.37790   0.54910   1.000
    O23     O    0.56010   0.46510   0.80530   1.000
    O24     O    0.43540   0.37753   0.73793   1.000
