# CIF file generated by openbabel 2.4.1, see http://openbabel.sf.net
data_I
_chemical_name_common 'image0'
_cell_length_a 23.9063
_cell_length_b 27.4059
_cell_length_c 30.321
_cell_angle_alpha 90
_cell_angle_beta 90
_cell_angle_gamma 90
_space_group_name_H-M_alt 'P 1'
_space_group_name_Hall 'P 1'
loop_
    _symmetry_equiv_pos_as_xyz
    x,y,z
loop_
    _atom_site_label
    _atom_site_type_symbol
    _atom_site_fract_x
    _atom_site_fract_y
    _atom_site_fract_z
    _atom_site_occupancy
    Yb1     Yb   0.25664   0.24127   0.63826   1.000
    O1      O    0.25860   0.23340   0.71470   1.000
    O2      O    0.38670   0.67220   0.30410   1.000
    O3      O    0.26470   0.18540   0.58510   1.000
    O4      O    0.18300   0.29740   0.65730   1.000
    O5      O    0.19310   0.27650   0.58900   1.000
    O6      O    0.81400   0.68850   0.65220   1.000
    O7      O    0.30550   0.31620   0.65020   1.000
    O8      O    0.88670   0.35610   0.30510   1.000
    C1      C    0.85020   0.60870   0.64330   1.000
    C2      C    0.16840   0.30130   0.61800   1.000
    C3      C    0.41810   0.57550   0.44180   1.000
    C4      C    0.38710   0.41050   0.53330   1.000
    H1      H    0.39490   0.41320   0.50330   1.000
    C5      C    0.88020   0.40560   0.36850   1.000
    C6      C    0.48890   0.56220   0.55320   1.000
    C7      C    0.39840   0.44900   0.56000   1.000
    O9      O    0.18060   0.74190   0.70340   1.000
    C8      C    0.89170   0.58220   0.57500   1.000
    H2      H    0.90170   0.58880   0.54600   1.000
    C9      C    0.26260   0.08690   0.56990   1.000
    H3      H    0.27030   0.09840   0.59810   1.000
    C10     C    0.46300   0.52080   0.56880   1.000
    H4      H    0.47150   0.50970   0.59700   1.000
    C11     C    0.92850   0.49780   0.56500   1.000
    C12     C    0.97560   0.42330   0.51610   1.000
    H5      H    0.99170   0.39820   0.49980   1.000
    C13     C    0.21650   0.93590   0.54370   1.000
    H6      H    0.19830   0.95020   0.56760   1.000
    C14     C    0.25690   0.17350   0.54560   1.000
    C15     C    0.24710   0.01950   0.52020   1.000
    C16     C    0.86690   0.61820   0.60030   1.000
    H7      H    0.86130   0.64900   0.58830   1.000
    O10     O    0.39520   0.79250   0.30640   1.000
    C17     C    0.90180   0.53690   0.59230   1.000
    C18     C    0.25980   0.03780   0.56270   1.000
    H8      H    0.26630   0.01620   0.58580   1.000
    C19     C    0.37970   0.62050   0.36370   1.000
    C20     C    0.32250   0.31780   0.61050   1.000
    C21     C    0.91540   0.43890   0.45170   1.000
    C22     C    0.24200   0.10250   0.49450   1.000
    H9      H    0.23610   0.12440   0.47150   1.000
    C23     C    0.47340   0.57950   0.51090   1.000
    H10     H    0.49000   0.60770   0.50000   1.000
    C24     C    0.21560   0.88590   0.53970   1.000
    C25     C    0.91190   0.48950   0.52170   1.000
    H11     H    0.88470   0.50940   0.50930   1.000
    O11     O    0.65850   0.70840   0.65290   1.000
    C26     C    0.24330   0.96590   0.51370   1.000
    C27     C    0.12210   0.33500   0.60500   1.000
    C28     C    0.03890   0.39830   0.57680   1.000
    C29     C    0.97060   0.46780   0.58340   1.000
    H12     H    0.98300   0.47360   0.61200   1.000
    C30     C    0.40970   0.51250   0.50160   1.000
    H13     H    0.38380   0.49560   0.48460   1.000
    O12     O    0.09300   0.76340   0.69780   1.000
    C31     C    0.42420   0.49480   0.54330   1.000
    O13     O    0.31360   0.28240   0.58470   1.000
    C32     C    0.08340   0.35250   0.63370   1.000
    H14     H    0.08490   0.34320   0.66320   1.000
    O14     O    0.25320   0.20200   0.51450   1.000
    C33     C    0.34770   0.79370   0.31630   1.000
    C34     C    0.53110   0.58830   0.57970   1.000
    C35     C    0.99350   0.43010   0.55970   1.000
    C36     C    0.19330   0.85510   0.57590   1.000
    C37     C    0.88620   0.52770   0.63470   1.000
    H15     H    0.89330   0.49720   0.64690   1.000
    O15     O    0.31200   0.76990   0.29660   1.000
    C38     C    0.23870   0.05250   0.48770   1.000
    H16     H    0.23020   0.04120   0.45960   1.000
    C39     C    0.24160   0.86530   0.50320   1.000
    H17     H    0.24240   0.83150   0.50050   1.000
    C40     C    0.35120   0.36250   0.59390   1.000
    O16     O    0.79820   0.63410   0.70530   1.000
    C41     C    0.36430   0.36730   0.54890   1.000
    H18     H    0.35770   0.34150   0.52960   1.000
    C42     C    0.81860   0.64600   0.66870   1.000
    C43     C    0.14250   0.76520   0.68400   1.000
    C44     C    0.35470   0.64650   0.32400   1.000
    C45     C    0.26900   0.94490   0.47590   1.000
    H19     H    0.28710   0.96470   0.45540   1.000
    C46     C    0.25450   0.11880   0.53690   1.000
    C47     C    0.43380   0.55530   0.48540   1.000
    C48     C    0.34390   0.59310   0.38910   1.000
    H20     H    0.30700   0.58890   0.38020   1.000
    O17     O    0.30490   0.63570   0.31510   1.000
    C49     C    0.85990   0.56350   0.66030   1.000
    H21     H    0.84900   0.55630   0.68900   1.000
    C50     C    0.15880   0.79750   0.64670   1.000
    C51     C    0.38660   0.44370   0.60540   1.000
    H22     H    0.39560   0.46870   0.62490   1.000
    C52     C    0.58190   0.65980   0.60030   1.000
    H23     H    0.58900   0.69270   0.59510   1.000
    C53     C    0.93540   0.45170   0.49600   1.000
    C54     C    0.43530   0.62280   0.37660   1.000
    H24     H    0.46040   0.63980   0.35880   1.000
    C55     C    0.36160   0.40130   0.62090   1.000
    H25     H    0.35160   0.39930   0.65050   1.000
    O18     O    0.68260   0.63890   0.68370   1.000
    C56     C    0.14250   0.86160   0.59360   1.000
    H26     H    0.12060   0.88760   0.58410   1.000
    C57     C    0.61070   0.63750   0.63140   1.000
    C58     C    0.12170   0.83040   0.62610   1.000
    H27     H    0.08420   0.83120   0.63390   1.000
    C59     C    0.56510   0.56170   0.60860   1.000
    H28     H    0.56200   0.52790   0.61030   1.000
    C60     C    0.54210   0.63700   0.57520   1.000
    H29     H    0.52210   0.65510   0.55470   1.000
    C61     C    0.26690   0.89420   0.46970   1.000
    C62     C    0.36290   0.57140   0.42830   1.000
    H30     H    0.33780   0.55390   0.44560   1.000
    C63     C    0.45540   0.60060   0.41490   1.000
    H31     H    0.49310   0.60260   0.42230   1.000
    C64     C    0.04290   0.38300   0.62010   1.000
    H32     H    0.01670   0.39410   0.64050   1.000
    O19     O    0.81070   0.39830   0.31330   1.000
    C65     C    0.85900   0.38590   0.32460   1.000
    C66     C    0.32870   0.82280   0.35690   1.000
    C67     C    0.92910   0.39440   0.38270   1.000
    H33     H    0.95140   0.37380   0.36580   1.000
    C68     C    0.87250   0.45490   0.43290   1.000
    H34     H    0.85380   0.48080   0.44610   1.000
    C69     C    0.95040   0.41240   0.42330   1.000
    H35     H    0.98750   0.40660   0.43110   1.000
    C70     C    0.85030   0.43610   0.39230   1.000
    H36     H    0.81480   0.44550   0.38290   1.000
    C71     C    0.60430   0.58710   0.63510   1.000
    H37     H    0.62590   0.56990   0.65530   1.000
    C72     C    0.36830   0.85410   0.38050   1.000
    H38     H    0.40560   0.85710   0.37200   1.000
    C73     C    0.25660   0.84250   0.40520   1.000
    H39     H    0.21940   0.83860   0.41350   1.000
    C74     C    0.29180   0.87120   0.43120   1.000
    C75     C    0.27510   0.82020   0.36800   1.000
    H40     H    0.25020   0.80310   0.35020   1.000
    C76     C    0.65250   0.66400   0.65820   1.000
    C77     C    0.22830   0.82230   0.59460   1.000
    H41     H    0.26450   0.81900   0.58370   1.000
    C78     C    0.21110   0.79310   0.63020   1.000
    H42     H    0.23580   0.77060   0.64240   1.000
    C79     C    0.34560   0.87980   0.41770   1.000
    H43     H    0.36750   0.90240   0.43270   1.000
    C80     C    0.11940   0.35100   0.56270   1.000
    H44     H    0.14430   0.33900   0.54180   1.000
    C81     C    0.08040   0.38470   0.55090   1.000
    H45     H    0.08310   0.39890   0.52310   1.000
    H46     H    0.24370   0.31990   0.77980   1.000
    H47     H    0.21420   0.31650   0.73380   1.000
    H48     H    0.27910   0.32400   0.73640   1.000
    H49     H    0.26710   0.70950   0.23000   1.000
    H50     H    0.27010   0.70050   0.27490   1.000
    H51     H    0.48920   0.73090   0.27290   1.000
    H52     H    0.26520   0.70760   0.22990   1.000
    H53     H    0.22840   0.67840   0.76950   1.000
    H54     H    0.22340   0.66840   0.72480   1.000
    H55     H    0.26940   0.69910   0.27490   1.000
    H56     H    0.48940   0.72830   0.27290   1.000
    Yb2     Yb   0.74336   0.75873   0.13827   1.000
    O20     O    0.74140   0.76660   0.21470   1.000
    O21     O    0.61330   0.32780   0.80410   1.000
    O22     O    0.73530   0.81460   0.08510   1.000
    O23     O    0.81700   0.70260   0.15730   1.000
    O24     O    0.80690   0.72350   0.08900   1.000
    O25     O    0.18600   0.31150   0.15220   1.000
    O26     O    0.69450   0.68380   0.15020   1.000
    O27     O    0.11330   0.64390   0.80510   1.000
    C82     C    0.14980   0.39130   0.14330   1.000
    C83     C    0.83160   0.69870   0.11800   1.000
    C84     C    0.58190   0.42450   0.94180   1.000
    C85     C    0.61290   0.58950   0.03330   1.000
    H57     H    0.60510   0.58680   0.00330   1.000
    C86     C    0.11980   0.59440   0.86850   1.000
    C87     C    0.51110   0.43780   0.05320   1.000
    C88     C    0.60160   0.55100   0.06000   1.000
    O28     O    0.81940   0.25810   0.20340   1.000
    C89     C    0.10830   0.41780   0.07500   1.000
    H58     H    0.09830   0.41120   0.04600   1.000
    C90     C    0.73740   0.91310   0.06990   1.000
    H59     H    0.72970   0.90160   0.09810   1.000
    C91     C    0.53700   0.47920   0.06880   1.000
    H60     H    0.52850   0.49030   0.09700   1.000
    C92     C    0.07150   0.50220   0.06500   1.000
    C93     C    0.02440   0.57670   0.01610   1.000
    H61     H    0.00830   0.60180   0.99980   1.000
    C94     C    0.78350   0.06410   0.04370   1.000
    H62     H    0.80170   0.04980   0.06760   1.000
    C95     C    0.74310   0.82650   0.04560   1.000
    C96     C    0.75290   0.98050   0.02020   1.000
    C97     C    0.13310   0.38180   0.10030   1.000
    H63     H    0.13870   0.35100   0.08830   1.000
    O29     O    0.60480   0.20750   0.80640   1.000
    C98     C    0.09820   0.46310   0.09230   1.000
    C99     C    0.74020   0.96220   0.06270   1.000
    H64     H    0.73370   0.98380   0.08580   1.000
    C100    C    0.62030   0.37950   0.86370   1.000
    C101    C    0.67750   0.68220   0.11050   1.000
    C102    C    0.08460   0.56110   0.95170   1.000
    C103    C    0.75800   0.89750   0.99450   1.000
    H65     H    0.76390   0.87560   0.97150   1.000
    C104    C    0.52660   0.42050   0.01090   1.000
    H66     H    0.51000   0.39230   0.00000   1.000
    C105    C    0.78440   0.11410   0.03970   1.000
    C106    C    0.08810   0.51050   0.02170   1.000
    H67     H    0.11530   0.49060   0.00930   1.000
    O30     O    0.34150   0.29160   0.15290   1.000
    C107    C    0.75670   0.03410   0.01370   1.000
    C108    C    0.87790   0.66500   0.10500   1.000
    C109    C    0.96110   0.60170   0.07680   1.000
    C110    C    0.02940   0.53220   0.08340   1.000
    H68     H    0.01700   0.52640   0.11200   1.000
    C111    C    0.59030   0.48750   0.00160   1.000
    H69     H    0.61620   0.50440   0.98460   1.000
    O31     O    0.90700   0.23660   0.19780   1.000
    C112    C    0.57580   0.50520   0.04330   1.000
    O32     O    0.68640   0.71760   0.08470   1.000
    C113    C    0.91660   0.64750   0.13370   1.000
    H70     H    0.91510   0.65680   0.16320   1.000
    O33     O    0.74680   0.79800   0.01450   1.000
    C114    C    0.65230   0.20630   0.81630   1.000
    C115    C    0.46890   0.41170   0.07970   1.000
    C116    C    0.00650   0.56990   0.05970   1.000
    C117    C    0.80670   0.14490   0.07590   1.000
    C118    C    0.11380   0.47230   0.13470   1.000
    H71     H    0.10670   0.50280   0.14690   1.000
    O34     O    0.68800   0.23010   0.79660   1.000
    C119    C    0.76130   0.94750   0.98770   1.000
    H72     H    0.76980   0.95880   0.95960   1.000
    C120    C    0.75840   0.13470   0.00320   1.000
    H73     H    0.75760   0.16850   0.00050   1.000
    C121    C    0.64880   0.63750   0.09390   1.000
    O35     O    0.20180   0.36590   0.20530   1.000
    C122    C    0.63570   0.63270   0.04890   1.000
    H74     H    0.64230   0.65850   0.02960   1.000
    C123    C    0.18140   0.35400   0.16870   1.000
    C124    C    0.85750   0.23480   0.18400   1.000
    C125    C    0.64530   0.35350   0.82400   1.000
    C126    C    0.73100   0.05510   0.97590   1.000
    H75     H    0.71290   0.03530   0.95540   1.000
    C127    C    0.74550   0.88120   0.03690   1.000
    C128    C    0.56620   0.44470   0.98540   1.000
    C129    C    0.65610   0.40690   0.88910   1.000
    H76     H    0.69300   0.41110   0.88020   1.000
    O36     O    0.69510   0.36430   0.81510   1.000
    C130    C    0.14010   0.43650   0.16030   1.000
    H77     H    0.15100   0.44370   0.18900   1.000
    C131    C    0.84120   0.20250   0.14670   1.000
    C132    C    0.61340   0.55630   0.10540   1.000
    H78     H    0.60440   0.53130   0.12490   1.000
    C133    C    0.41810   0.34020   0.10030   1.000
    H79     H    0.41100   0.30730   0.09510   1.000
    C134    C    0.06460   0.54830   0.99600   1.000
    C135    C    0.56470   0.37720   0.87660   1.000
    H80     H    0.53960   0.36020   0.85880   1.000
    C136    C    0.63840   0.59870   0.12090   1.000
    H81     H    0.64840   0.60070   0.15050   1.000
    O37     O    0.31740   0.36110   0.18370   1.000
    C137    C    0.85750   0.13840   0.09360   1.000
    H82     H    0.87940   0.11240   0.08410   1.000
    C138    C    0.38930   0.36250   0.13140   1.000
    C139    C    0.87830   0.16960   0.12610   1.000
    H83     H    0.91580   0.16880   0.13390   1.000
    C140    C    0.43490   0.43830   0.10860   1.000
    H84     H    0.43800   0.47210   0.11030   1.000
    C141    C    0.45790   0.36300   0.07520   1.000
    H85     H    0.47790   0.34490   0.05470   1.000
    C142    C    0.73310   0.10580   0.96970   1.000
    C143    C    0.63710   0.42860   0.92830   1.000
    H86     H    0.66220   0.44610   0.94560   1.000
    C144    C    0.54460   0.39940   0.91490   1.000
    H87     H    0.50690   0.39740   0.92230   1.000
    C145    C    0.95710   0.61700   0.12010   1.000
    H88     H    0.98330   0.60590   0.14050   1.000
    O38     O    0.18930   0.60170   0.81330   1.000
    C146    C    0.14100   0.61410   0.82460   1.000
    C147    C    0.67130   0.17720   0.85690   1.000
    C148    C    0.07090   0.60560   0.88270   1.000
    H89     H    0.04860   0.62620   0.86580   1.000
    C149    C    0.12750   0.54510   0.93290   1.000
    H90     H    0.14620   0.51920   0.94610   1.000
    C150    C    0.04960   0.58760   0.92330   1.000
    H91     H    0.01250   0.59340   0.93110   1.000
    C151    C    0.14970   0.56390   0.89230   1.000
    H92     H    0.18520   0.55450   0.88290   1.000
    C152    C    0.39570   0.41290   0.13510   1.000
    H93     H    0.37410   0.43010   0.15530   1.000
    C153    C    0.63170   0.14590   0.88050   1.000
    H94     H    0.59440   0.14290   0.87200   1.000
    C154    C    0.74340   0.15750   0.90520   1.000
    H95     H    0.78060   0.16140   0.91350   1.000
    C155    C    0.70820   0.12880   0.93120   1.000
    C156    C    0.72490   0.17980   0.86800   1.000
    H96     H    0.74980   0.19690   0.85020   1.000
    C157    C    0.34750   0.33600   0.15820   1.000
    C158    C    0.77170   0.17770   0.09460   1.000
    H97     H    0.73550   0.18100   0.08370   1.000
    C159    C    0.78890   0.20690   0.13020   1.000
    H98     H    0.76420   0.22940   0.14240   1.000
    C160    C    0.65440   0.12020   0.91770   1.000
    H99     H    0.63250   0.09760   0.93270   1.000
    C161    C    0.88060   0.64900   0.06270   1.000
    H100    H    0.85570   0.66100   0.04180   1.000
    C162    C    0.91960   0.61530   0.05090   1.000
    H101    H    0.91690   0.60110   0.02310   1.000
    H102    H    0.75630   0.68010   0.27980   1.000
    H103    H    0.78580   0.68350   0.23380   1.000
    H104    H    0.72090   0.67600   0.23640   1.000
    H105    H    0.73290   0.29050   0.73000   1.000
    H106    H    0.72990   0.29950   0.77490   1.000
    H107    H    0.51080   0.26910   0.77290   1.000
    H108    H    0.73480   0.29240   0.72990   1.000
    H109    H    0.77160   0.32160   0.26950   1.000
    H110    H    0.77660   0.33160   0.22480   1.000
    H111    H    0.73060   0.30090   0.77490   1.000
    H112    H    0.51060   0.27170   0.77290   1.000
    Yb3     Yb   0.74336   0.74127   0.86173   1.000
    O39     O    0.74140   0.73340   0.78530   1.000
    O40     O    0.61330   0.17220   0.19590   1.000
    O41     O    0.73530   0.68540   0.91490   1.000
    O42     O    0.81700   0.79740   0.84270   1.000
    O43     O    0.80690   0.77650   0.91100   1.000
    O44     O    0.18600   0.18850   0.84780   1.000
    O45     O    0.69450   0.81620   0.84980   1.000
    O46     O    0.11330   0.85610   0.19490   1.000
    C163    C    0.14980   0.10870   0.85670   1.000
    C164    C    0.83160   0.80130   0.88200   1.000
    C165    C    0.58190   0.07550   0.05820   1.000
    C166    C    0.61290   0.91050   0.96670   1.000
    H113    H    0.60510   0.91320   0.99670   1.000
    C167    C    0.11980   0.90560   0.13150   1.000
    C168    C    0.51110   0.06220   0.94680   1.000
    C169    C    0.60160   0.94900   0.94000   1.000
    O47     O    0.81940   0.24190   0.79660   1.000
    C170    C    0.10830   0.08220   0.92500   1.000
    H114    H    0.09830   0.08880   0.95400   1.000
    C171    C    0.73740   0.58690   0.93010   1.000
    H115    H    0.72970   0.59840   0.90190   1.000
    C172    C    0.53700   0.02080   0.93120   1.000
    H116    H    0.52850   0.00970   0.90300   1.000
    C173    C    0.07150   0.99780   0.93500   1.000
    C174    C    0.02440   0.92330   0.98390   1.000
    H117    H    0.00830   0.89820   0.00020   1.000
    C175    C    0.78350   0.43590   0.95630   1.000
    H118    H    0.80170   0.45020   0.93240   1.000
    C176    C    0.74310   0.67350   0.95440   1.000
    C177    C    0.75290   0.51950   0.97980   1.000
    C178    C    0.13310   0.11820   0.89970   1.000
    H119    H    0.13870   0.14900   0.91170   1.000
    O48     O    0.60480   0.29250   0.19360   1.000
    C179    C    0.09820   0.03690   0.90770   1.000
    C180    C    0.74020   0.53780   0.93730   1.000
    H120    H    0.73370   0.51620   0.91420   1.000
    C181    C    0.62030   0.12050   0.13630   1.000
    C182    C    0.67750   0.81780   0.88950   1.000
    C183    C    0.08460   0.93890   0.04830   1.000
    C184    C    0.75800   0.60250   0.00550   1.000
    H121    H    0.76390   0.62440   0.02850   1.000
    C185    C    0.52660   0.07950   0.98910   1.000
    H122    H    0.51000   0.10770   0.00000   1.000
    C186    C    0.78440   0.38590   0.96030   1.000
    C187    C    0.08810   0.98950   0.97830   1.000
    H123    H    0.11530   0.00940   0.99070   1.000
    O49     O    0.34150   0.20840   0.84710   1.000
    C188    C    0.75670   0.46590   0.98630   1.000
    C189    C    0.87790   0.83500   0.89500   1.000
    C190    C    0.96110   0.89830   0.92320   1.000
    C191    C    0.02940   0.96780   0.91660   1.000
    H124    H    0.01700   0.97360   0.88800   1.000
    C192    C    0.59030   0.01250   0.99840   1.000
    H125    H    0.61620   0.99560   0.01540   1.000
    O50     O    0.90700   0.26340   0.80220   1.000
    C193    C    0.57580   0.99480   0.95670   1.000
    O51     O    0.68640   0.78240   0.91530   1.000
    C194    C    0.91660   0.85250   0.86630   1.000
    H126    H    0.91510   0.84320   0.83680   1.000
    O52     O    0.74680   0.70200   0.98550   1.000
    C195    C    0.65230   0.29370   0.18370   1.000
    C196    C    0.46890   0.08830   0.92030   1.000
    C197    C    0.00650   0.93010   0.94030   1.000
    C198    C    0.80670   0.35510   0.92410   1.000
    C199    C    0.11380   0.02770   0.86530   1.000
    H127    H    0.10670   0.99720   0.85310   1.000
    O53     O    0.68800   0.26990   0.20340   1.000
    C200    C    0.76130   0.55250   0.01230   1.000
    H128    H    0.76980   0.54120   0.04040   1.000
    C201    C    0.75840   0.36530   0.99680   1.000
    H129    H    0.75760   0.33150   0.99950   1.000
    C202    C    0.64880   0.86250   0.90610   1.000
    O54     O    0.20180   0.13410   0.79470   1.000
    C203    C    0.63570   0.86730   0.95110   1.000
    H130    H    0.64230   0.84150   0.97040   1.000
    C204    C    0.18140   0.14600   0.83130   1.000
    C205    C    0.85750   0.26520   0.81600   1.000
    C206    C    0.64530   0.14650   0.17600   1.000
    C207    C    0.73100   0.44490   0.02410   1.000
    H131    H    0.71290   0.46470   0.04460   1.000
    C208    C    0.74550   0.61880   0.96310   1.000
    C209    C    0.56620   0.05530   0.01460   1.000
    C210    C    0.65610   0.09310   0.11090   1.000
    H132    H    0.69300   0.08890   0.11980   1.000
    O55     O    0.69510   0.13570   0.18490   1.000
    C211    C    0.14010   0.06350   0.83970   1.000
    H133    H    0.15100   0.05630   0.81100   1.000
    C212    C    0.84120   0.29750   0.85330   1.000
    C213    C    0.61340   0.94370   0.89460   1.000
    H134    H    0.60440   0.96870   0.87510   1.000
    C214    C    0.41810   0.15980   0.89970   1.000
    H135    H    0.41100   0.19270   0.90490   1.000
    C215    C    0.06460   0.95170   0.00400   1.000
    C216    C    0.56470   0.12280   0.12340   1.000
    H136    H    0.53960   0.13980   0.14120   1.000
    C217    C    0.63840   0.90130   0.87910   1.000
    H137    H    0.64840   0.89930   0.84950   1.000
    O56     O    0.31740   0.13890   0.81630   1.000
    C218    C    0.85750   0.36160   0.90640   1.000
    H138    H    0.87940   0.38760   0.91590   1.000
    C219    C    0.38930   0.13750   0.86860   1.000
    C220    C    0.87830   0.33040   0.87390   1.000
    H139    H    0.91580   0.33120   0.86610   1.000
    C221    C    0.43490   0.06170   0.89140   1.000
    H140    H    0.43800   0.02790   0.88970   1.000
    C222    C    0.45790   0.13700   0.92480   1.000
    H141    H    0.47790   0.15510   0.94530   1.000
    C223    C    0.73310   0.39420   0.03030   1.000
    C224    C    0.63710   0.07140   0.07170   1.000
    H142    H    0.66220   0.05390   0.05440   1.000
    C225    C    0.54460   0.10060   0.08510   1.000
    H143    H    0.50690   0.10260   0.07770   1.000
    C226    C    0.95710   0.88300   0.87990   1.000
    H144    H    0.98330   0.89410   0.85950   1.000
    O57     O    0.18930   0.89830   0.18670   1.000
    C227    C    0.14100   0.88590   0.17540   1.000
    C228    C    0.67130   0.32280   0.14310   1.000
    C229    C    0.07090   0.89440   0.11730   1.000
    H145    H    0.04860   0.87380   0.13420   1.000
    C230    C    0.12750   0.95490   0.06710   1.000
    H146    H    0.14620   0.98080   0.05390   1.000
    C231    C    0.04960   0.91240   0.07670   1.000
    H147    H    0.01250   0.90660   0.06890   1.000
    C232    C    0.14970   0.93610   0.10770   1.000
    H148    H    0.18520   0.94550   0.11710   1.000
    C233    C    0.39570   0.08710   0.86490   1.000
    H149    H    0.37410   0.06990   0.84470   1.000
    C234    C    0.63170   0.35410   0.11950   1.000
    H150    H    0.59440   0.35710   0.12800   1.000
    C235    C    0.74340   0.34250   0.09480   1.000
    H151    H    0.78060   0.33860   0.08650   1.000
    C236    C    0.70820   0.37120   0.06880   1.000
    C237    C    0.72490   0.32020   0.13200   1.000
    H152    H    0.74980   0.30310   0.14980   1.000
    C238    C    0.34750   0.16400   0.84180   1.000
    C239    C    0.77170   0.32230   0.90540   1.000
    H153    H    0.73550   0.31900   0.91630   1.000
    C240    C    0.78890   0.29310   0.86980   1.000
    H154    H    0.76420   0.27060   0.85760   1.000
    C241    C    0.65440   0.37980   0.08230   1.000
    H155    H    0.63250   0.40240   0.06730   1.000
    C242    C    0.88060   0.85100   0.93730   1.000
    H156    H    0.85570   0.83900   0.95820   1.000
    C243    C    0.91960   0.88470   0.94910   1.000
    H157    H    0.91690   0.89890   0.97690   1.000
    H158    H    0.75630   0.81990   0.72020   1.000
    H159    H    0.78580   0.81650   0.76620   1.000
    H160    H    0.72090   0.82400   0.76360   1.000
    H161    H    0.73290   0.20950   0.27000   1.000
    H162    H    0.72990   0.20050   0.22510   1.000
    H163    H    0.51080   0.23090   0.22710   1.000
    H164    H    0.73480   0.20760   0.27010   1.000
    H165    H    0.77160   0.17840   0.73050   1.000
    H166    H    0.77660   0.16840   0.77520   1.000
    H167    H    0.73060   0.19910   0.22510   1.000
    H168    H    0.51060   0.22830   0.22710   1.000
    Yb4     Yb   0.25664   0.25873   0.36173   1.000
    O58     O    0.25860   0.26660   0.28530   1.000
    O59     O    0.38670   0.82780   0.69590   1.000
    O60     O    0.26470   0.31460   0.41490   1.000
    O61     O    0.18300   0.20260   0.34270   1.000
    O62     O    0.19310   0.22350   0.41100   1.000
    O63     O    0.81400   0.81150   0.34780   1.000
    O64     O    0.30550   0.18380   0.34980   1.000
    O65     O    0.88670   0.14390   0.69490   1.000
    C244    C    0.85020   0.89130   0.35670   1.000
    C245    C    0.16840   0.19870   0.38200   1.000
    C246    C    0.41810   0.92450   0.55820   1.000
    C247    C    0.38710   0.08950   0.46670   1.000
    H169    H    0.39490   0.08680   0.49670   1.000
    C248    C    0.88020   0.09440   0.63150   1.000
    C249    C    0.48890   0.93780   0.44680   1.000
    C250    C    0.39840   0.05100   0.44000   1.000
    O66     O    0.18060   0.75810   0.29660   1.000
    C251    C    0.89170   0.91780   0.42500   1.000
    H170    H    0.90170   0.91120   0.45400   1.000
    C252    C    0.26260   0.41310   0.43010   1.000
    H171    H    0.27030   0.40160   0.40190   1.000
    C253    C    0.46300   0.97920   0.43120   1.000
    H172    H    0.47150   0.99030   0.40300   1.000
    C254    C    0.92850   0.00220   0.43500   1.000
    C255    C    0.97560   0.07670   0.48390   1.000
    H173    H    0.99170   0.10180   0.50020   1.000
    C256    C    0.21650   0.56410   0.45630   1.000
    H174    H    0.19830   0.54980   0.43240   1.000
    C257    C    0.25690   0.32650   0.45440   1.000
    C258    C    0.24710   0.48050   0.47980   1.000
    C259    C    0.86690   0.88180   0.39970   1.000
    H175    H    0.86130   0.85100   0.41170   1.000
    O67     O    0.39520   0.70750   0.69360   1.000
    C260    C    0.90180   0.96310   0.40770   1.000
    C261    C    0.25980   0.46220   0.43730   1.000
    H176    H    0.26630   0.48380   0.41420   1.000
    C262    C    0.37970   0.87950   0.63630   1.000
    C263    C    0.32250   0.18220   0.38950   1.000
    C264    C    0.91540   0.06110   0.54830   1.000
    C265    C    0.24200   0.39750   0.50550   1.000
    H177    H    0.23610   0.37560   0.52850   1.000
    C266    C    0.47340   0.92050   0.48910   1.000
    H178    H    0.49000   0.89230   0.50000   1.000
    C267    C    0.21560   0.61410   0.46030   1.000
    C268    C    0.91190   0.01050   0.47830   1.000
    H179    H    0.88470   0.99060   0.49070   1.000
    O68     O    0.65850   0.79160   0.34710   1.000
    C269    C    0.24330   0.53410   0.48630   1.000
    C270    C    0.12210   0.16500   0.39500   1.000
    C271    C    0.03890   0.10170   0.42320   1.000
    C272    C    0.97060   0.03220   0.41660   1.000
    H180    H    0.98300   0.02640   0.38800   1.000
    C273    C    0.40970   0.98750   0.49840   1.000
    H181    H    0.38380   0.00440   0.51540   1.000
    O69     O    0.09300   0.73660   0.30220   1.000
    C274    C    0.42420   0.00520   0.45670   1.000
    O70     O    0.31360   0.21760   0.41530   1.000
    C275    C    0.08340   0.14750   0.36630   1.000
    H182    H    0.08490   0.15680   0.33680   1.000
    O71     O    0.25320   0.29800   0.48550   1.000
    C276    C    0.34770   0.70630   0.68370   1.000
    C277    C    0.53110   0.91170   0.42030   1.000
    C278    C    0.99350   0.06990   0.44030   1.000
    C279    C    0.19330   0.64490   0.42410   1.000
    C280    C    0.88620   0.97230   0.36530   1.000
    H183    H    0.89330   0.00280   0.35310   1.000
    O72     O    0.31200   0.73010   0.70340   1.000
    C281    C    0.23870   0.44750   0.51230   1.000
    H184    H    0.23020   0.45880   0.54040   1.000
    C282    C    0.24160   0.63470   0.49680   1.000
    H185    H    0.24240   0.66850   0.49950   1.000
    C283    C    0.35120   0.13750   0.40610   1.000
    O73     O    0.79820   0.86590   0.29470   1.000
    C284    C    0.36430   0.13270   0.45110   1.000
    H186    H    0.35770   0.15850   0.47040   1.000
    C285    C    0.81860   0.85400   0.33130   1.000
    C286    C    0.14250   0.73480   0.31600   1.000
    C287    C    0.35470   0.85350   0.67600   1.000
    C288    C    0.26900   0.55510   0.52410   1.000
    H187    H    0.28710   0.53530   0.54460   1.000
    C289    C    0.25450   0.38120   0.46310   1.000
    C290    C    0.43380   0.94470   0.51460   1.000
    C291    C    0.34390   0.90690   0.61090   1.000
    H188    H    0.30700   0.91110   0.61980   1.000
    O74     O    0.30490   0.86430   0.68490   1.000
    C292    C    0.85990   0.93650   0.33970   1.000
    H189    H    0.84900   0.94370   0.31100   1.000
    C293    C    0.15880   0.70250   0.35330   1.000
    C294    C    0.38660   0.05630   0.39460   1.000
    H190    H    0.39560   0.03130   0.37510   1.000
    C295    C    0.58190   0.84020   0.39970   1.000
    H191    H    0.58900   0.80730   0.40490   1.000
    C296    C    0.93540   0.04830   0.50400   1.000
    C297    C    0.43530   0.87720   0.62340   1.000
    H192    H    0.46040   0.86020   0.64120   1.000
    C298    C    0.36160   0.09870   0.37910   1.000
    H193    H    0.35160   0.10070   0.34950   1.000
    O75     O    0.68260   0.86110   0.31630   1.000
    C299    C    0.14250   0.63840   0.40640   1.000
    H194    H    0.12060   0.61240   0.41590   1.000
    C300    C    0.61070   0.86250   0.36860   1.000
    C301    C    0.12170   0.66960   0.37390   1.000
    H195    H    0.08420   0.66880   0.36610   1.000
    C302    C    0.56510   0.93830   0.39140   1.000
    H196    H    0.56200   0.97210   0.38970   1.000
    C303    C    0.54210   0.86300   0.42480   1.000
    H197    H    0.52210   0.84490   0.44530   1.000
    C304    C    0.26690   0.60580   0.53030   1.000
    C305    C    0.36290   0.92860   0.57170   1.000
    H198    H    0.33780   0.94610   0.55440   1.000
    C306    C    0.45540   0.89940   0.58510   1.000
    H199    H    0.49310   0.89740   0.57770   1.000
    C307    C    0.04290   0.11700   0.37990   1.000
    H200    H    0.01670   0.10590   0.35950   1.000
    O76     O    0.81070   0.10170   0.68670   1.000
    C308    C    0.85900   0.11410   0.67540   1.000
    C309    C    0.32870   0.67720   0.64310   1.000
    C310    C    0.92910   0.10560   0.61730   1.000
    H201    H    0.95140   0.12620   0.63420   1.000
    C311    C    0.87250   0.04510   0.56710   1.000
    H202    H    0.85380   0.01920   0.55390   1.000
    C312    C    0.95040   0.08760   0.57670   1.000
    H203    H    0.98750   0.09340   0.56890   1.000
    C313    C    0.85030   0.06390   0.60770   1.000
    H204    H    0.81480   0.05450   0.61710   1.000
    C314    C    0.60430   0.91290   0.36490   1.000
    H205    H    0.62590   0.93010   0.34470   1.000
    C315    C    0.36830   0.64590   0.61950   1.000
    H206    H    0.40560   0.64290   0.62800   1.000
    C316    C    0.25660   0.65750   0.59480   1.000
    H207    H    0.21940   0.66140   0.58650   1.000
    C317    C    0.29180   0.62880   0.56880   1.000
    C318    C    0.27510   0.67980   0.63200   1.000
    H208    H    0.25020   0.69690   0.64980   1.000
    C319    C    0.65250   0.83600   0.34180   1.000
    C320    C    0.22830   0.67770   0.40540   1.000
    H209    H    0.26450   0.68100   0.41630   1.000
    C321    C    0.21110   0.70690   0.36980   1.000
    H210    H    0.23580   0.72940   0.35760   1.000
    C322    C    0.34560   0.62020   0.58230   1.000
    H211    H    0.36750   0.59760   0.56730   1.000
    C323    C    0.11940   0.14900   0.43730   1.000
    H212    H    0.14430   0.16100   0.45820   1.000
    C324    C    0.08040   0.11530   0.44910   1.000
    H213    H    0.08310   0.10110   0.47690   1.000
    H214    H    0.24370   0.18010   0.22020   1.000
    H215    H    0.21420   0.18350   0.26620   1.000
    H216    H    0.27910   0.17600   0.26360   1.000
    H217    H    0.26710   0.79050   0.77000   1.000
    H218    H    0.27010   0.79950   0.72510   1.000
    H219    H    0.48920   0.76910   0.72710   1.000
    H220    H    0.26520   0.79240   0.77010   1.000
    H221    H    0.22840   0.82160   0.23050   1.000
    H222    H    0.22340   0.83160   0.27520   1.000
    H223    H    0.26940   0.80090   0.72510   1.000
    H224    H    0.48940   0.77170   0.72710   1.000
    Yb5     Yb   0.74336   0.75873   0.36173   1.000
    O77     O    0.74140   0.76660   0.28530   1.000
    O78     O    0.61330   0.32780   0.69590   1.000
    O79     O    0.73530   0.81460   0.41490   1.000
    O80     O    0.81700   0.70260   0.34270   1.000
    O81     O    0.80690   0.72350   0.41100   1.000
    O82     O    0.18600   0.31150   0.34780   1.000
    O83     O    0.69450   0.68380   0.34980   1.000
    O84     O    0.11330   0.64390   0.69490   1.000
    C325    C    0.14980   0.39130   0.35670   1.000
    C326    C    0.83160   0.69870   0.38200   1.000
    C327    C    0.58190   0.42450   0.55820   1.000
    C328    C    0.61290   0.58950   0.46670   1.000
    H225    H    0.60510   0.58680   0.49670   1.000
    C329    C    0.11980   0.59440   0.63150   1.000
    C330    C    0.51110   0.43780   0.44680   1.000
    C331    C    0.60160   0.55100   0.44000   1.000
    O85     O    0.81940   0.25810   0.29660   1.000
    C332    C    0.10830   0.41780   0.42500   1.000
    H226    H    0.09830   0.41120   0.45400   1.000
    C333    C    0.73740   0.91310   0.43010   1.000
    H227    H    0.72970   0.90160   0.40190   1.000
    C334    C    0.53700   0.47920   0.43120   1.000
    H228    H    0.52850   0.49030   0.40300   1.000
    C335    C    0.07150   0.50220   0.43500   1.000
    C336    C    0.02440   0.57670   0.48390   1.000
    H229    H    0.00830   0.60180   0.50020   1.000
    C337    C    0.78350   0.06410   0.45630   1.000
    H230    H    0.80170   0.04980   0.43240   1.000
    C338    C    0.74310   0.82650   0.45440   1.000
    C339    C    0.75290   0.98050   0.47980   1.000
    C340    C    0.13310   0.38180   0.39970   1.000
    H231    H    0.13870   0.35100   0.41170   1.000
    O86     O    0.60480   0.20750   0.69360   1.000
    C341    C    0.09820   0.46310   0.40770   1.000
    C342    C    0.74020   0.96220   0.43730   1.000
    H232    H    0.73370   0.98380   0.41420   1.000
    C343    C    0.62030   0.37950   0.63630   1.000
    C344    C    0.67750   0.68220   0.38950   1.000
    C345    C    0.08460   0.56110   0.54830   1.000
    C346    C    0.75800   0.89750   0.50550   1.000
    H233    H    0.76390   0.87560   0.52850   1.000
    C347    C    0.52660   0.42050   0.48910   1.000
    H234    H    0.51000   0.39230   0.50000   1.000
    C348    C    0.78440   0.11410   0.46030   1.000
    C349    C    0.08810   0.51050   0.47830   1.000
    H235    H    0.11530   0.49060   0.49070   1.000
    O87     O    0.34150   0.29160   0.34710   1.000
    C350    C    0.75670   0.03410   0.48630   1.000
    C351    C    0.87790   0.66500   0.39500   1.000
    C352    C    0.96110   0.60170   0.42320   1.000
    C353    C    0.02940   0.53220   0.41660   1.000
    H236    H    0.01700   0.52640   0.38800   1.000
    C354    C    0.59030   0.48750   0.49840   1.000
    H237    H    0.61620   0.50440   0.51540   1.000
    O88     O    0.90700   0.23660   0.30220   1.000
    C355    C    0.57580   0.50520   0.45670   1.000
    O89     O    0.68640   0.71760   0.41530   1.000
    C356    C    0.91660   0.64750   0.36630   1.000
    H238    H    0.91510   0.65680   0.33680   1.000
    O90     O    0.74680   0.79800   0.48550   1.000
    C357    C    0.65230   0.20630   0.68370   1.000
    C358    C    0.46890   0.41170   0.42030   1.000
    C359    C    0.00650   0.56990   0.44030   1.000
    C360    C    0.80670   0.14490   0.42410   1.000
    C361    C    0.11380   0.47230   0.36530   1.000
    H239    H    0.10670   0.50280   0.35310   1.000
    O91     O    0.68800   0.23010   0.70340   1.000
    C362    C    0.76130   0.94750   0.51230   1.000
    H240    H    0.76980   0.95880   0.54040   1.000
    C363    C    0.75840   0.13470   0.49680   1.000
    H241    H    0.75760   0.16850   0.49950   1.000
    C364    C    0.64880   0.63750   0.40610   1.000
    O92     O    0.20180   0.36590   0.29470   1.000
    C365    C    0.63570   0.63270   0.45110   1.000
    H242    H    0.64230   0.65850   0.47040   1.000
    C366    C    0.18140   0.35400   0.33130   1.000
    C367    C    0.85750   0.23480   0.31600   1.000
    C368    C    0.64530   0.35350   0.67600   1.000
    C369    C    0.73100   0.05510   0.52410   1.000
    H243    H    0.71290   0.03530   0.54460   1.000
    C370    C    0.74550   0.88120   0.46310   1.000
    C371    C    0.56620   0.44470   0.51460   1.000
    C372    C    0.65610   0.40690   0.61090   1.000
    H244    H    0.69300   0.41110   0.61980   1.000
    O93     O    0.69510   0.36430   0.68490   1.000
    C373    C    0.14010   0.43650   0.33970   1.000
    H245    H    0.15100   0.44370   0.31100   1.000
    C374    C    0.84120   0.20250   0.35330   1.000
    C375    C    0.61340   0.55630   0.39460   1.000
    H246    H    0.60440   0.53130   0.37510   1.000
    C376    C    0.41810   0.34020   0.39970   1.000
    H247    H    0.41100   0.30730   0.40490   1.000
    C377    C    0.06460   0.54830   0.50400   1.000
    C378    C    0.56470   0.37720   0.62340   1.000
    H248    H    0.53960   0.36020   0.64120   1.000
    C379    C    0.63840   0.59870   0.37910   1.000
    H249    H    0.64840   0.60070   0.34950   1.000
    O94     O    0.31740   0.36110   0.31630   1.000
    C380    C    0.85750   0.13840   0.40640   1.000
    H250    H    0.87940   0.11240   0.41590   1.000
    C381    C    0.38930   0.36250   0.36860   1.000
    C382    C    0.87830   0.16960   0.37390   1.000
    H251    H    0.91580   0.16880   0.36610   1.000
    C383    C    0.43490   0.43830   0.39140   1.000
    H252    H    0.43800   0.47210   0.38970   1.000
    C384    C    0.45790   0.36300   0.42480   1.000
    H253    H    0.47790   0.34490   0.44530   1.000
    C385    C    0.73310   0.10580   0.53030   1.000
    C386    C    0.63710   0.42860   0.57170   1.000
    H254    H    0.66220   0.44610   0.55440   1.000
    C387    C    0.54460   0.39940   0.58510   1.000
    H255    H    0.50690   0.39740   0.57770   1.000
    C388    C    0.95710   0.61700   0.37990   1.000
    H256    H    0.98330   0.60590   0.35950   1.000
    O95     O    0.18930   0.60170   0.68670   1.000
    C389    C    0.14100   0.61410   0.67540   1.000
    C390    C    0.67130   0.17720   0.64310   1.000
    C391    C    0.07090   0.60560   0.61730   1.000
    H257    H    0.04860   0.62620   0.63420   1.000
    C392    C    0.12750   0.54510   0.56710   1.000
    H258    H    0.14620   0.51920   0.55390   1.000
    C393    C    0.04960   0.58760   0.57670   1.000
    H259    H    0.01250   0.59340   0.56890   1.000
    C394    C    0.14970   0.56390   0.60770   1.000
    H260    H    0.18520   0.55450   0.61710   1.000
    C395    C    0.39570   0.41290   0.36490   1.000
    H261    H    0.37410   0.43010   0.34470   1.000
    C396    C    0.63170   0.14590   0.61950   1.000
    H262    H    0.59440   0.14290   0.62800   1.000
    C397    C    0.74340   0.15750   0.59480   1.000
    H263    H    0.78060   0.16140   0.58650   1.000
    C398    C    0.70820   0.12880   0.56880   1.000
    C399    C    0.72490   0.17980   0.63200   1.000
    H264    H    0.74980   0.19690   0.64980   1.000
    C400    C    0.34750   0.33600   0.34180   1.000
    C401    C    0.77170   0.17770   0.40540   1.000
    H265    H    0.73550   0.18100   0.41630   1.000
    C402    C    0.78890   0.20690   0.36980   1.000
    H266    H    0.76420   0.22940   0.35760   1.000
    C403    C    0.65440   0.12020   0.58230   1.000
    H267    H    0.63250   0.09760   0.56730   1.000
    C404    C    0.88060   0.64900   0.43730   1.000
    H268    H    0.85570   0.66100   0.45820   1.000
    C405    C    0.91960   0.61530   0.44910   1.000
    H269    H    0.91690   0.60110   0.47690   1.000
    H270    H    0.75630   0.68010   0.22020   1.000
    H271    H    0.78580   0.68350   0.26620   1.000
    H272    H    0.72090   0.67600   0.26360   1.000
    H273    H    0.73290   0.29050   0.77000   1.000
    H274    H    0.72990   0.29950   0.72510   1.000
    H275    H    0.51080   0.26910   0.72710   1.000
    H276    H    0.73480   0.29240   0.77010   1.000
    H277    H    0.77160   0.32160   0.23050   1.000
    H278    H    0.77660   0.33160   0.27520   1.000
    H279    H    0.73060   0.30090   0.72510   1.000
    H280    H    0.51060   0.27170   0.72710   1.000
    Yb6     Yb   0.25664   0.24127   0.86173   1.000
    O96     O    0.25860   0.23340   0.78530   1.000
    O97     O    0.38670   0.67220   0.19590   1.000
    O98     O    0.26470   0.18540   0.91490   1.000
    O99     O    0.18300   0.29740   0.84270   1.000
    O100    O    0.19310   0.27650   0.91100   1.000
    O101    O    0.81400   0.68850   0.84780   1.000
    O102    O    0.30550   0.31620   0.84980   1.000
    O103    O    0.88670   0.35610   0.19490   1.000
    C406    C    0.85020   0.60870   0.85670   1.000
    C407    C    0.16840   0.30130   0.88200   1.000
    C408    C    0.41810   0.57550   0.05820   1.000
    C409    C    0.38710   0.41050   0.96670   1.000
    H281    H    0.39490   0.41320   0.99670   1.000
    C410    C    0.88020   0.40560   0.13150   1.000
    C411    C    0.48890   0.56220   0.94680   1.000
    C412    C    0.39840   0.44900   0.94000   1.000
    O104    O    0.18060   0.74190   0.79660   1.000
    C413    C    0.89170   0.58220   0.92500   1.000
    H282    H    0.90170   0.58880   0.95400   1.000
    C414    C    0.26260   0.08690   0.93010   1.000
    H283    H    0.27030   0.09840   0.90190   1.000
    C415    C    0.46300   0.52080   0.93120   1.000
    H284    H    0.47150   0.50970   0.90300   1.000
    C416    C    0.92850   0.49780   0.93500   1.000
    C417    C    0.97560   0.42330   0.98390   1.000
    H285    H    0.99170   0.39820   0.00020   1.000
    C418    C    0.21650   0.93590   0.95630   1.000
    H286    H    0.19830   0.95020   0.93240   1.000
    C419    C    0.25690   0.17350   0.95440   1.000
    C420    C    0.24710   0.01950   0.97980   1.000
    C421    C    0.86690   0.61820   0.89970   1.000
    H287    H    0.86130   0.64900   0.91170   1.000
    O105    O    0.39520   0.79250   0.19360   1.000
    C422    C    0.90180   0.53690   0.90770   1.000
    C423    C    0.25980   0.03780   0.93730   1.000
    H288    H    0.26630   0.01620   0.91420   1.000
    C424    C    0.37970   0.62050   0.13630   1.000
    C425    C    0.32250   0.31780   0.88950   1.000
    C426    C    0.91540   0.43890   0.04830   1.000
    C427    C    0.24200   0.10250   0.00550   1.000
    H289    H    0.23610   0.12440   0.02850   1.000
    C428    C    0.47340   0.57950   0.98910   1.000
    H290    H    0.49000   0.60770   0.00000   1.000
    C429    C    0.21560   0.88590   0.96030   1.000
    C430    C    0.91190   0.48950   0.97830   1.000
    H291    H    0.88470   0.50940   0.99070   1.000
    O106    O    0.65850   0.70840   0.84710   1.000
    C431    C    0.24330   0.96590   0.98630   1.000
    C432    C    0.12210   0.33500   0.89500   1.000
    C433    C    0.03890   0.39830   0.92320   1.000
    C434    C    0.97060   0.46780   0.91660   1.000
    H292    H    0.98300   0.47360   0.88800   1.000
    C435    C    0.40970   0.51250   0.99840   1.000
    H293    H    0.38380   0.49560   0.01540   1.000
    O107    O    0.09300   0.76340   0.80220   1.000
    C436    C    0.42420   0.49480   0.95670   1.000
    O108    O    0.31360   0.28240   0.91530   1.000
    C437    C    0.08340   0.35250   0.86630   1.000
    H294    H    0.08490   0.34320   0.83680   1.000
    O109    O    0.25320   0.20200   0.98550   1.000
    C438    C    0.34770   0.79370   0.18370   1.000
    C439    C    0.53110   0.58830   0.92030   1.000
    C440    C    0.99350   0.43010   0.94030   1.000
    C441    C    0.19330   0.85510   0.92410   1.000
    C442    C    0.88620   0.52770   0.86530   1.000
    H295    H    0.89330   0.49720   0.85310   1.000
    O110    O    0.31200   0.76990   0.20340   1.000
    C443    C    0.23870   0.05250   0.01230   1.000
    H296    H    0.23020   0.04120   0.04040   1.000
    C444    C    0.24160   0.86530   0.99680   1.000
    H297    H    0.24240   0.83150   0.99950   1.000
    C445    C    0.35120   0.36250   0.90610   1.000
    O111    O    0.79820   0.63410   0.79470   1.000
    C446    C    0.36430   0.36730   0.95110   1.000
    H298    H    0.35770   0.34150   0.97040   1.000
    C447    C    0.81860   0.64600   0.83130   1.000
    C448    C    0.14250   0.76520   0.81600   1.000
    C449    C    0.35470   0.64650   0.17600   1.000
    C450    C    0.26900   0.94490   0.02410   1.000
    H299    H    0.28710   0.96470   0.04460   1.000
    C451    C    0.25450   0.11880   0.96310   1.000
    C452    C    0.43380   0.55530   0.01460   1.000
    C453    C    0.34390   0.59310   0.11090   1.000
    H300    H    0.30700   0.58890   0.11980   1.000
    O112    O    0.30490   0.63570   0.18490   1.000
    C454    C    0.85990   0.56350   0.83970   1.000
    H301    H    0.84900   0.55630   0.81100   1.000
    C455    C    0.15880   0.79750   0.85330   1.000
    C456    C    0.38660   0.44370   0.89460   1.000
    H302    H    0.39560   0.46870   0.87510   1.000
    C457    C    0.58190   0.65980   0.89970   1.000
    H303    H    0.58900   0.69270   0.90490   1.000
    C458    C    0.93540   0.45170   0.00400   1.000
    C459    C    0.43530   0.62280   0.12340   1.000
    H304    H    0.46040   0.63980   0.14120   1.000
    C460    C    0.36160   0.40130   0.87910   1.000
    H305    H    0.35160   0.39930   0.84950   1.000
    O113    O    0.68260   0.63890   0.81630   1.000
    C461    C    0.14250   0.86160   0.90640   1.000
    H306    H    0.12060   0.88760   0.91590   1.000
    C462    C    0.61070   0.63750   0.86860   1.000
    C463    C    0.12170   0.83040   0.87390   1.000
    H307    H    0.08420   0.83120   0.86610   1.000
    C464    C    0.56510   0.56170   0.89140   1.000
    H308    H    0.56200   0.52790   0.88970   1.000
    C465    C    0.54210   0.63700   0.92480   1.000
    H309    H    0.52210   0.65510   0.94530   1.000
    C466    C    0.26690   0.89420   0.03030   1.000
    C467    C    0.36290   0.57140   0.07170   1.000
    H310    H    0.33780   0.55390   0.05440   1.000
    C468    C    0.45540   0.60060   0.08510   1.000
    H311    H    0.49310   0.60260   0.07770   1.000
    C469    C    0.04290   0.38300   0.87990   1.000
    H312    H    0.01670   0.39410   0.85950   1.000
    O114    O    0.81070   0.39830   0.18670   1.000
    C470    C    0.85900   0.38590   0.17540   1.000
    C471    C    0.32870   0.82280   0.14310   1.000
    C472    C    0.92910   0.39440   0.11730   1.000
    H313    H    0.95140   0.37380   0.13420   1.000
    C473    C    0.87250   0.45490   0.06710   1.000
    H314    H    0.85380   0.48080   0.05390   1.000
    C474    C    0.95040   0.41240   0.07670   1.000
    H315    H    0.98750   0.40660   0.06890   1.000
    C475    C    0.85030   0.43610   0.10770   1.000
    H316    H    0.81480   0.44550   0.11710   1.000
    C476    C    0.60430   0.58710   0.86490   1.000
    H317    H    0.62590   0.56990   0.84470   1.000
    C477    C    0.36830   0.85410   0.11950   1.000
    H318    H    0.40560   0.85710   0.12800   1.000
    C478    C    0.25660   0.84250   0.09480   1.000
    H319    H    0.21940   0.83860   0.08650   1.000
    C479    C    0.29180   0.87120   0.06880   1.000
    C480    C    0.27510   0.82020   0.13200   1.000
    H320    H    0.25020   0.80310   0.14980   1.000
    C481    C    0.65250   0.66400   0.84180   1.000
    C482    C    0.22830   0.82230   0.90540   1.000
    H321    H    0.26450   0.81900   0.91630   1.000
    C483    C    0.21110   0.79310   0.86980   1.000
    H322    H    0.23580   0.77060   0.85760   1.000
    C484    C    0.34560   0.87980   0.08230   1.000
    H323    H    0.36750   0.90240   0.06730   1.000
    C485    C    0.11940   0.35100   0.93730   1.000
    H324    H    0.14430   0.33900   0.95820   1.000
    C486    C    0.08040   0.38470   0.94910   1.000
    H325    H    0.08310   0.39890   0.97690   1.000
    H326    H    0.24370   0.31990   0.72020   1.000
    H327    H    0.21420   0.31650   0.76620   1.000
    H328    H    0.27910   0.32400   0.76360   1.000
    H329    H    0.26710   0.70950   0.27000   1.000
    H330    H    0.27010   0.70050   0.22510   1.000
    H331    H    0.48920   0.73090   0.22710   1.000
    H332    H    0.26520   0.70760   0.27010   1.000
    H333    H    0.22840   0.67840   0.73050   1.000
    H334    H    0.22340   0.66840   0.77520   1.000
    H335    H    0.26940   0.69910   0.22510   1.000
    H336    H    0.48940   0.72830   0.22710   1.000
    Yb7     Yb   0.25664   0.25873   0.13827   1.000
    O115    O    0.25860   0.26660   0.21470   1.000
    O116    O    0.38670   0.82780   0.80410   1.000
    O117    O    0.26470   0.31460   0.08510   1.000
    O118    O    0.18300   0.20260   0.15730   1.000
    O119    O    0.19310   0.22350   0.08900   1.000
    O120    O    0.81400   0.81150   0.15220   1.000
    O121    O    0.30550   0.18380   0.15020   1.000
    O122    O    0.88670   0.14390   0.80510   1.000
    C487    C    0.85020   0.89130   0.14330   1.000
    C488    C    0.16840   0.19870   0.11800   1.000
    C489    C    0.41810   0.92450   0.94180   1.000
    C490    C    0.38710   0.08950   0.03330   1.000
    H337    H    0.39490   0.08680   0.00330   1.000
    C491    C    0.88020   0.09440   0.86850   1.000
    C492    C    0.48890   0.93780   0.05320   1.000
    C493    C    0.39840   0.05100   0.06000   1.000
    O123    O    0.18060   0.75810   0.20340   1.000
    C494    C    0.89170   0.91780   0.07500   1.000
    H338    H    0.90170   0.91120   0.04600   1.000
    C495    C    0.26260   0.41310   0.06990   1.000
    H339    H    0.27030   0.40160   0.09810   1.000
    C496    C    0.46300   0.97920   0.06880   1.000
    H340    H    0.47150   0.99030   0.09700   1.000
    C497    C    0.92850   0.00220   0.06500   1.000
    C498    C    0.97560   0.07670   0.01610   1.000
    H341    H    0.99170   0.10180   0.99980   1.000
    C499    C    0.21650   0.56410   0.04370   1.000
    H342    H    0.19830   0.54980   0.06760   1.000
    C500    C    0.25690   0.32650   0.04560   1.000
    C501    C    0.24710   0.48050   0.02020   1.000
    C502    C    0.86690   0.88180   0.10030   1.000
    H343    H    0.86130   0.85100   0.08830   1.000
    O124    O    0.39520   0.70750   0.80640   1.000
    C503    C    0.90180   0.96310   0.09230   1.000
    C504    C    0.25980   0.46220   0.06270   1.000
    H344    H    0.26630   0.48380   0.08580   1.000
    C505    C    0.37970   0.87950   0.86370   1.000
    C506    C    0.32250   0.18220   0.11050   1.000
    C507    C    0.91540   0.06110   0.95170   1.000
    C508    C    0.24200   0.39750   0.99450   1.000
    H345    H    0.23610   0.37560   0.97150   1.000
    C509    C    0.47340   0.92050   0.01090   1.000
    H346    H    0.49000   0.89230   0.00000   1.000
    C510    C    0.21560   0.61410   0.03970   1.000
    C511    C    0.91190   0.01050   0.02170   1.000
    H347    H    0.88470   0.99060   0.00930   1.000
    O125    O    0.65850   0.79160   0.15290   1.000
    C512    C    0.24330   0.53410   0.01370   1.000
    C513    C    0.12210   0.16500   0.10500   1.000
    C514    C    0.03890   0.10170   0.07680   1.000
    C515    C    0.97060   0.03220   0.08340   1.000
    H348    H    0.98300   0.02640   0.11200   1.000
    C516    C    0.40970   0.98750   0.00160   1.000
    H349    H    0.38380   0.00440   0.98460   1.000
    O126    O    0.09300   0.73660   0.19780   1.000
    C517    C    0.42420   0.00520   0.04330   1.000
    O127    O    0.31360   0.21760   0.08470   1.000
    C518    C    0.08340   0.14750   0.13370   1.000
    H350    H    0.08490   0.15680   0.16320   1.000
    O128    O    0.25320   0.29800   0.01450   1.000
    C519    C    0.34770   0.70630   0.81630   1.000
    C520    C    0.53110   0.91170   0.07970   1.000
    C521    C    0.99350   0.06990   0.05970   1.000
    C522    C    0.19330   0.64490   0.07590   1.000
    C523    C    0.88620   0.97230   0.13470   1.000
    H351    H    0.89330   0.00280   0.14690   1.000
    O129    O    0.31200   0.73010   0.79660   1.000
    C524    C    0.23870   0.44750   0.98770   1.000
    H352    H    0.23020   0.45880   0.95960   1.000
    C525    C    0.24160   0.63470   0.00320   1.000
    H353    H    0.24240   0.66850   0.00050   1.000
    C526    C    0.35120   0.13750   0.09390   1.000
    O130    O    0.79820   0.86590   0.20530   1.000
    C527    C    0.36430   0.13270   0.04890   1.000
    H354    H    0.35770   0.15850   0.02960   1.000
    C528    C    0.81860   0.85400   0.16870   1.000
    C529    C    0.14250   0.73480   0.18400   1.000
    C530    C    0.35470   0.85350   0.82400   1.000
    C531    C    0.26900   0.55510   0.97590   1.000
    H355    H    0.28710   0.53530   0.95540   1.000
    C532    C    0.25450   0.38120   0.03690   1.000
    C533    C    0.43380   0.94470   0.98540   1.000
    C534    C    0.34390   0.90690   0.88910   1.000
    H356    H    0.30700   0.91110   0.88020   1.000
    O131    O    0.30490   0.86430   0.81510   1.000
    C535    C    0.85990   0.93650   0.16030   1.000
    H357    H    0.84900   0.94370   0.18900   1.000
    C536    C    0.15880   0.70250   0.14670   1.000
    C537    C    0.38660   0.05630   0.10540   1.000
    H358    H    0.39560   0.03130   0.12490   1.000
    C538    C    0.58190   0.84020   0.10030   1.000
    H359    H    0.58900   0.80730   0.09510   1.000
    C539    C    0.93540   0.04830   0.99600   1.000
    C540    C    0.43530   0.87720   0.87660   1.000
    H360    H    0.46040   0.86020   0.85880   1.000
    C541    C    0.36160   0.09870   0.12090   1.000
    H361    H    0.35160   0.10070   0.15050   1.000
    O132    O    0.68260   0.86110   0.18370   1.000
    C542    C    0.14250   0.63840   0.09360   1.000
    H362    H    0.12060   0.61240   0.08410   1.000
    C543    C    0.61070   0.86250   0.13140   1.000
    C544    C    0.12170   0.66960   0.12610   1.000
    H363    H    0.08420   0.66880   0.13390   1.000
    C545    C    0.56510   0.93830   0.10860   1.000
    H364    H    0.56200   0.97210   0.11030   1.000
    C546    C    0.54210   0.86300   0.07520   1.000
    H365    H    0.52210   0.84490   0.05470   1.000
    C547    C    0.26690   0.60580   0.96970   1.000
    C548    C    0.36290   0.92860   0.92830   1.000
    H366    H    0.33780   0.94610   0.94560   1.000
    C549    C    0.45540   0.89940   0.91490   1.000
    H367    H    0.49310   0.89740   0.92230   1.000
    C550    C    0.04290   0.11700   0.12010   1.000
    H368    H    0.01670   0.10590   0.14050   1.000
    O133    O    0.81070   0.10170   0.81330   1.000
    C551    C    0.85900   0.11410   0.82460   1.000
    C552    C    0.32870   0.67720   0.85690   1.000
    C553    C    0.92910   0.10560   0.88270   1.000
    H369    H    0.95140   0.12620   0.86580   1.000
    C554    C    0.87250   0.04510   0.93290   1.000
    H370    H    0.85380   0.01920   0.94610   1.000
    C555    C    0.95040   0.08760   0.92330   1.000
    H371    H    0.98750   0.09340   0.93110   1.000
    C556    C    0.85030   0.06390   0.89230   1.000
    H372    H    0.81480   0.05450   0.88290   1.000
    C557    C    0.60430   0.91290   0.13510   1.000
    H373    H    0.62590   0.93010   0.15530   1.000
    C558    C    0.36830   0.64590   0.88050   1.000
    H374    H    0.40560   0.64290   0.87200   1.000
    C559    C    0.25660   0.65750   0.90520   1.000
    H375    H    0.21940   0.66140   0.91350   1.000
    C560    C    0.29180   0.62880   0.93120   1.000
    C561    C    0.27510   0.67980   0.86800   1.000
    H376    H    0.25020   0.69690   0.85020   1.000
    C562    C    0.65250   0.83600   0.15820   1.000
    C563    C    0.22830   0.67770   0.09460   1.000
    H377    H    0.26450   0.68100   0.08370   1.000
    C564    C    0.21110   0.70690   0.13020   1.000
    H378    H    0.23580   0.72940   0.14240   1.000
    C565    C    0.34560   0.62020   0.91770   1.000
    H379    H    0.36750   0.59760   0.93270   1.000
    C566    C    0.11940   0.14900   0.06270   1.000
    H380    H    0.14430   0.16100   0.04180   1.000
    C567    C    0.08040   0.11530   0.05090   1.000
    H381    H    0.08310   0.10110   0.02310   1.000
    H382    H    0.24370   0.18010   0.27980   1.000
    H383    H    0.21420   0.18350   0.23380   1.000
    H384    H    0.27910   0.17600   0.23640   1.000
    H385    H    0.26710   0.79050   0.73000   1.000
    H386    H    0.27010   0.79950   0.77490   1.000
    H387    H    0.48920   0.76910   0.77290   1.000
    H388    H    0.26520   0.79240   0.72990   1.000
    H389    H    0.22840   0.82160   0.26950   1.000
    H390    H    0.22340   0.83160   0.22480   1.000
    H391    H    0.26940   0.80090   0.77490   1.000
    H392    H    0.48940   0.77170   0.77290   1.000
    Yb8     Yb   0.74336   0.74127   0.63826   1.000
    O134    O    0.74140   0.73340   0.71470   1.000
    O135    O    0.61330   0.17220   0.30410   1.000
    O136    O    0.73530   0.68540   0.58510   1.000
    O137    O    0.81700   0.79740   0.65730   1.000
    O138    O    0.80690   0.77650   0.58900   1.000
    O139    O    0.18600   0.18850   0.65220   1.000
    O140    O    0.69450   0.81620   0.65020   1.000
    O141    O    0.11330   0.85610   0.30510   1.000
    C568    C    0.14980   0.10870   0.64330   1.000
    C569    C    0.83160   0.80130   0.61800   1.000
    C570    C    0.58190   0.07550   0.44180   1.000
    C571    C    0.61290   0.91050   0.53330   1.000
    H393    H    0.60510   0.91320   0.50330   1.000
    C572    C    0.11980   0.90560   0.36850   1.000
    C573    C    0.51110   0.06220   0.55320   1.000
    C574    C    0.60160   0.94900   0.56000   1.000
    O142    O    0.81940   0.24190   0.70340   1.000
    C575    C    0.10830   0.08220   0.57500   1.000
    H394    H    0.09830   0.08880   0.54600   1.000
    C576    C    0.73740   0.58690   0.56990   1.000
    H395    H    0.72970   0.59840   0.59810   1.000
    C577    C    0.53700   0.02080   0.56880   1.000
    H396    H    0.52850   0.00970   0.59700   1.000
    C578    C    0.07150   0.99780   0.56500   1.000
    C579    C    0.02440   0.92330   0.51610   1.000
    H397    H    0.00830   0.89820   0.49980   1.000
    C580    C    0.78350   0.43590   0.54370   1.000
    H398    H    0.80170   0.45020   0.56760   1.000
    C581    C    0.74310   0.67350   0.54560   1.000
    C582    C    0.75290   0.51950   0.52020   1.000
    C583    C    0.13310   0.11820   0.60030   1.000
    H399    H    0.13870   0.14900   0.58830   1.000
    O143    O    0.60480   0.29250   0.30640   1.000
    C584    C    0.09820   0.03690   0.59230   1.000
    C585    C    0.74020   0.53780   0.56270   1.000
    H400    H    0.73370   0.51620   0.58580   1.000
    C586    C    0.62030   0.12050   0.36370   1.000
    C587    C    0.67750   0.81780   0.61050   1.000
    C588    C    0.08460   0.93890   0.45170   1.000
    C589    C    0.75800   0.60250   0.49450   1.000
    H401    H    0.76390   0.62440   0.47150   1.000
    C590    C    0.52660   0.07950   0.51090   1.000
    H402    H    0.51000   0.10770   0.50000   1.000
    C591    C    0.78440   0.38590   0.53970   1.000
    C592    C    0.08810   0.98950   0.52170   1.000
    H403    H    0.11530   0.00940   0.50930   1.000
    O144    O    0.34150   0.20840   0.65290   1.000
    C593    C    0.75670   0.46590   0.51370   1.000
    C594    C    0.87790   0.83500   0.60500   1.000
    C595    C    0.96110   0.89830   0.57680   1.000
    C596    C    0.02940   0.96780   0.58340   1.000
    H404    H    0.01700   0.97360   0.61200   1.000
    C597    C    0.59030   0.01250   0.50160   1.000
    H405    H    0.61620   0.99560   0.48460   1.000
    O145    O    0.90700   0.26340   0.69780   1.000
    C598    C    0.57580   0.99480   0.54330   1.000
    O146    O    0.68640   0.78240   0.58470   1.000
    C599    C    0.91660   0.85250   0.63370   1.000
    H406    H    0.91510   0.84320   0.66320   1.000
    O147    O    0.74680   0.70200   0.51450   1.000
    C600    C    0.65230   0.29370   0.31630   1.000
    C601    C    0.46890   0.08830   0.57970   1.000
    C602    C    0.00650   0.93010   0.55970   1.000
    C603    C    0.80670   0.35510   0.57590   1.000
    C604    C    0.11380   0.02770   0.63470   1.000
    H407    H    0.10670   0.99720   0.64690   1.000
    O148    O    0.68800   0.26990   0.29660   1.000
    C605    C    0.76130   0.55250   0.48770   1.000
    H408    H    0.76980   0.54120   0.45960   1.000
    C606    C    0.75840   0.36530   0.50320   1.000
    H409    H    0.75760   0.33150   0.50050   1.000
    C607    C    0.64880   0.86250   0.59390   1.000
    O149    O    0.20180   0.13410   0.70530   1.000
    C608    C    0.63570   0.86730   0.54890   1.000
    H410    H    0.64230   0.84150   0.52960   1.000
    C609    C    0.18140   0.14600   0.66870   1.000
    C610    C    0.85750   0.26520   0.68400   1.000
    C611    C    0.64530   0.14650   0.32400   1.000
    C612    C    0.73100   0.44490   0.47590   1.000
    H411    H    0.71290   0.46470   0.45540   1.000
    C613    C    0.74550   0.61880   0.53690   1.000
    C614    C    0.56620   0.05530   0.48540   1.000
    C615    C    0.65610   0.09310   0.38910   1.000
    H412    H    0.69300   0.08890   0.38020   1.000
    O150    O    0.69510   0.13570   0.31510   1.000
    C616    C    0.14010   0.06350   0.66030   1.000
    H413    H    0.15100   0.05630   0.68900   1.000
    C617    C    0.84120   0.29750   0.64670   1.000
    C618    C    0.61340   0.94370   0.60540   1.000
    H414    H    0.60440   0.96870   0.62490   1.000
    C619    C    0.41810   0.15980   0.60030   1.000
    H415    H    0.41100   0.19270   0.59510   1.000
    C620    C    0.06460   0.95170   0.49600   1.000
    C621    C    0.56470   0.12280   0.37660   1.000
    H416    H    0.53960   0.13980   0.35880   1.000
    C622    C    0.63840   0.90130   0.62090   1.000
    H417    H    0.64840   0.89930   0.65050   1.000
    O151    O    0.31740   0.13890   0.68370   1.000
    C623    C    0.85750   0.36160   0.59360   1.000
    H418    H    0.87940   0.38760   0.58410   1.000
    C624    C    0.38930   0.13750   0.63140   1.000
    C625    C    0.87830   0.33040   0.62610   1.000
    H419    H    0.91580   0.33120   0.63390   1.000
    C626    C    0.43490   0.06170   0.60860   1.000
    H420    H    0.43800   0.02790   0.61030   1.000
    C627    C    0.45790   0.13700   0.57520   1.000
    H421    H    0.47790   0.15510   0.55470   1.000
    C628    C    0.73310   0.39420   0.46970   1.000
    C629    C    0.63710   0.07140   0.42830   1.000
    H422    H    0.66220   0.05390   0.44560   1.000
    C630    C    0.54460   0.10060   0.41490   1.000
    H423    H    0.50690   0.10260   0.42230   1.000
    C631    C    0.95710   0.88300   0.62010   1.000
    H424    H    0.98330   0.89410   0.64050   1.000
    O152    O    0.18930   0.89830   0.31330   1.000
    C632    C    0.14100   0.88590   0.32460   1.000
    C633    C    0.67130   0.32280   0.35690   1.000
    C634    C    0.07090   0.89440   0.38270   1.000
    H425    H    0.04860   0.87380   0.36580   1.000
    C635    C    0.12750   0.95490   0.43290   1.000
    H426    H    0.14620   0.98080   0.44610   1.000
    C636    C    0.04960   0.91240   0.42330   1.000
    H427    H    0.01250   0.90660   0.43110   1.000
    C637    C    0.14970   0.93610   0.39230   1.000
    H428    H    0.18520   0.94550   0.38290   1.000
    C638    C    0.39570   0.08710   0.63510   1.000
    H429    H    0.37410   0.06990   0.65530   1.000
    C639    C    0.63170   0.35410   0.38050   1.000
    H430    H    0.59440   0.35710   0.37200   1.000
    C640    C    0.74340   0.34250   0.40520   1.000
    H431    H    0.78060   0.33860   0.41350   1.000
    C641    C    0.70820   0.37120   0.43120   1.000
    C642    C    0.72490   0.32020   0.36800   1.000
    H432    H    0.74980   0.30310   0.35020   1.000
    C643    C    0.34750   0.16400   0.65820   1.000
    C644    C    0.77170   0.32230   0.59460   1.000
    H433    H    0.73550   0.31900   0.58370   1.000
    C645    C    0.78890   0.29310   0.63020   1.000
    H434    H    0.76420   0.27060   0.64240   1.000
    C646    C    0.65440   0.37980   0.41770   1.000
    H435    H    0.63250   0.40240   0.43270   1.000
    C647    C    0.88060   0.85100   0.56270   1.000
    H436    H    0.85570   0.83900   0.54180   1.000
    C648    C    0.91960   0.88470   0.55090   1.000
    H437    H    0.91690   0.89890   0.52310   1.000
    H438    H    0.75630   0.81990   0.77980   1.000
    H439    H    0.78580   0.81650   0.73380   1.000
    H440    H    0.72090   0.82400   0.73640   1.000
    H441    H    0.73290   0.20950   0.23000   1.000
    H442    H    0.72990   0.20050   0.27490   1.000
    H443    H    0.51080   0.23090   0.27290   1.000
    H444    H    0.73480   0.20760   0.22990   1.000
    H445    H    0.77160   0.17840   0.76950   1.000
    H446    H    0.77660   0.16840   0.72480   1.000
    H447    H    0.73060   0.19910   0.27490   1.000
    H448    H    0.51060   0.22830   0.27290   1.000
    Yb9     Yb   0.37599   0.72856   0.25000   1.000
    O153    O    0.28470   0.69420   0.25000   1.000
    O154    O    0.46890   0.72840   0.25000   1.000
    Yb10    Yb   0.36530   0.71550   0.25000   1.000
    Yb11    Yb   0.62401   0.27144   0.75000   1.000
    O155    O    0.71530   0.30580   0.75000   1.000
    O156    O    0.53110   0.27160   0.75000   1.000
    Yb12    Yb   0.63470   0.28450   0.75000   1.000
    Yb13    Yb   0.62401   0.22856   0.25000   1.000
    O157    O    0.71530   0.19420   0.25000   1.000
    O158    O    0.53110   0.22840   0.25000   1.000
    Yb14    Yb   0.63470   0.21550   0.25000   1.000
    Yb15    Yb   0.37599   0.77144   0.75000   1.000
    O159    O    0.28470   0.80580   0.75000   1.000
    O160    O    0.46890   0.77160   0.75000   1.000
    Yb16    Yb   0.36530   0.78450   0.75000   1.000
    Yb17    Yb   0.11904   0.69860   0.75000   1.000
    Yb18    Yb   0.72601   0.65221   0.75000   1.000
    C649    C    0.24740   0.30860   0.75000   1.000
    C650    C    0.25530   0.25670   0.75000   1.000
    O161    O    0.20850   0.66450   0.75000   1.000
    Yb19    Yb   0.14730   0.67710   0.75000   1.000
    Yb20    Yb   0.88096   0.30140   0.25000   1.000
    Yb21    Yb   0.27399   0.34779   0.25000   1.000
    C651    C    0.75260   0.69140   0.25000   1.000
    C652    C    0.74470   0.74330   0.25000   1.000
    O162    O    0.79150   0.33550   0.25000   1.000
    Yb22    Yb   0.85270   0.32290   0.25000   1.000
    Yb23    Yb   0.88096   0.19860   0.75000   1.000
    Yb24    Yb   0.27399   0.15221   0.75000   1.000
    C653    C    0.75260   0.80860   0.75000   1.000
    C654    C    0.74470   0.75670   0.75000   1.000
    O163    O    0.79150   0.16450   0.75000   1.000
    Yb25    Yb   0.85270   0.17710   0.75000   1.000
    Yb26    Yb   0.11904   0.80140   0.25000   1.000
    Yb27    Yb   0.72601   0.84779   0.25000   1.000
    C655    C    0.24740   0.19140   0.25000   1.000
    C656    C    0.25530   0.24330   0.25000   1.000
    O164    O    0.20850   0.83550   0.25000   1.000
    Yb28    Yb   0.14730   0.82290   0.25000   1.000
