# CIF file generated by openbabel 2.4.1, see http://openbabel.sf.net
data_I
_chemical_name_common 'image0'
_cell_length_a 15.9731
_cell_length_b 15.9731
_cell_length_c 18.4149
_cell_angle_alpha 90
_cell_angle_beta 90
_cell_angle_gamma 120
_space_group_name_H-M_alt 'P 1'
_space_group_name_Hall 'P 1'
loop_
    _symmetry_equiv_pos_as_xyz
    x,y,z
loop_
    _atom_site_label
    _atom_site_type_symbol
    _atom_site_fract_x
    _atom_site_fract_y
    _atom_site_fract_z
    _atom_site_occupancy
    P1      P    0.45030   0.28992   0.08236   1.000
    O1      O    0.48149   0.21370   0.08028   1.000
    O2      O    0.53726   0.39316   0.07897   1.000
    O3      O    0.38931   0.27739   0.14777   1.000
    H1      H    0.48400   0.52600   0.14070   1.000
    H2      H    0.32510   0.36000   0.95840   1.000
    H3      H    0.33990   0.13100   0.97810   1.000
    H4      H    0.29800   0.32100   0.96700   1.000
    H5      H    0.32910   0.36260   0.04340   1.000
    H6      H    0.42420   0.42180   0.99820   1.000
    H7      H    0.29100   0.14030   0.04910   1.000
    H8      H    0.25150   0.14780   0.97290   1.000
    H9      H    0.25300   0.18500   0.96900   1.000
    P2      P    0.71008   0.16038   0.08236   1.000
    O4      O    0.78630   0.26779   0.08028   1.000
    O5      O    0.60684   0.14410   0.07897   1.000
    O6      O    0.72261   0.11192   0.14777   1.000
    H10     H    0.47400   0.95800   0.14070   1.000
    H11     H    0.64000   0.96510   0.95840   1.000
    H12     H    0.86900   0.20890   0.97810   1.000
    H13     H    0.67900   0.97700   0.96700   1.000
    H14     H    0.63740   0.96650   0.04340   1.000
    H15     H    0.57820   0.00240   0.99820   1.000
    H16     H    0.85970   0.15070   0.04910   1.000
    H17     H    0.85220   0.10370   0.97290   1.000
    H18     H    0.81500   0.06800   0.96900   1.000
    P3      P    0.83962   0.54970   0.08236   1.000
    O7      O    0.73221   0.51851   0.08028   1.000
    O8      O    0.85590   0.46274   0.07897   1.000
    O9      O    0.88808   0.61069   0.14777   1.000
    H19     H    0.04200   0.51600   0.14070   1.000
    H20     H    0.03490   0.67490   0.95840   1.000
    H21     H    0.79110   0.66010   0.97810   1.000
    H22     H    0.02300   0.70200   0.96700   1.000
    H23     H    0.03350   0.67090   0.04340   1.000
    H24     H    0.99760   0.57580   0.99820   1.000
    H25     H    0.84930   0.70900   0.04910   1.000
    H26     H    0.89630   0.74850   0.97290   1.000
    H27     H    0.93200   0.74700   0.96900   1.000
    P4      P    0.54970   0.71008   0.08236   1.000
    O10     O    0.51851   0.78630   0.08028   1.000
    O11     O    0.46274   0.60684   0.07897   1.000
    O12     O    0.61069   0.72261   0.14777   1.000
    H28     H    0.51600   0.47400   0.14070   1.000
    H29     H    0.67490   0.64000   0.95840   1.000
    H30     H    0.66010   0.86900   0.97810   1.000
    H31     H    0.70200   0.67900   0.96700   1.000
    H32     H    0.67090   0.63740   0.04340   1.000
    H33     H    0.57580   0.57820   0.99820   1.000
    H34     H    0.70900   0.85970   0.04910   1.000
    H35     H    0.74850   0.85220   0.97290   1.000
    H36     H    0.74700   0.81500   0.96900   1.000
    P5      P    0.28992   0.83962   0.08236   1.000
    O13     O    0.21370   0.73221   0.08028   1.000
    O14     O    0.39316   0.85590   0.07897   1.000
    O15     O    0.27739   0.88808   0.14777   1.000
    H37     H    0.52600   0.04200   0.14070   1.000
    H38     H    0.36000   0.03490   0.95840   1.000
    H39     H    0.13100   0.79110   0.97810   1.000
    H40     H    0.32100   0.02300   0.96700   1.000
    H41     H    0.36260   0.03350   0.04340   1.000
    H42     H    0.42180   0.99760   0.99820   1.000
    H43     H    0.14030   0.84930   0.04910   1.000
    H44     H    0.14780   0.89630   0.97290   1.000
    H45     H    0.18500   0.93200   0.96900   1.000
    P6      P    0.16038   0.45030   0.08236   1.000
    O16     O    0.26779   0.48149   0.08028   1.000
    O17     O    0.14410   0.53726   0.07897   1.000
    O18     O    0.11192   0.38931   0.14777   1.000
    H46     H    0.95800   0.48400   0.14070   1.000
    H47     H    0.96510   0.32510   0.95840   1.000
    H48     H    0.20890   0.33990   0.97810   1.000
    H49     H    0.97700   0.29800   0.96700   1.000
    H50     H    0.96650   0.32910   0.04340   1.000
    H51     H    0.00240   0.42420   0.99820   1.000
    H52     H    0.15070   0.29100   0.04910   1.000
    H53     H    0.10370   0.25150   0.97290   1.000
    H54     H    0.06800   0.25300   0.96900   1.000
    P7      P    0.28992   0.45030   0.41764   1.000
    O19     O    0.21370   0.48149   0.41972   1.000
    O20     O    0.39316   0.53726   0.42103   1.000
    O21     O    0.27739   0.38931   0.35223   1.000
    H55     H    0.52600   0.48400   0.35930   1.000
    H56     H    0.36000   0.32510   0.54160   1.000
    H57     H    0.13100   0.33990   0.52190   1.000
    H58     H    0.32100   0.29800   0.53300   1.000
    H59     H    0.36260   0.32910   0.45660   1.000
    H60     H    0.42180   0.42420   0.50180   1.000
    H61     H    0.14030   0.29100   0.45090   1.000
    H62     H    0.14780   0.25150   0.52710   1.000
    H63     H    0.18500   0.25300   0.53100   1.000
    P8      P    0.16038   0.71008   0.41764   1.000
    O22     O    0.26779   0.78630   0.41972   1.000
    O23     O    0.14410   0.60684   0.42103   1.000
    O24     O    0.11192   0.72261   0.35223   1.000
    H64     H    0.95800   0.47400   0.35930   1.000
    H65     H    0.96510   0.64000   0.54160   1.000
    H66     H    0.20890   0.86900   0.52190   1.000
    H67     H    0.97700   0.67900   0.53300   1.000
    H68     H    0.96650   0.63740   0.45660   1.000
    H69     H    0.00240   0.57820   0.50180   1.000
    H70     H    0.15070   0.85970   0.45090   1.000
    H71     H    0.10370   0.85220   0.52710   1.000
    H72     H    0.06800   0.81500   0.53100   1.000
    P9      P    0.54970   0.83962   0.41764   1.000
    O25     O    0.51851   0.73221   0.41972   1.000
    O26     O    0.46274   0.85590   0.42103   1.000
    O27     O    0.61069   0.88808   0.35223   1.000
    H73     H    0.51600   0.04200   0.35930   1.000
    H74     H    0.67490   0.03490   0.54160   1.000
    H75     H    0.66010   0.79110   0.52190   1.000
    H76     H    0.70200   0.02300   0.53300   1.000
    H77     H    0.67090   0.03350   0.45660   1.000
    H78     H    0.57580   0.99760   0.50180   1.000
    H79     H    0.70900   0.84930   0.45090   1.000
    H80     H    0.74850   0.89630   0.52710   1.000
    H81     H    0.74700   0.93200   0.53100   1.000
    P10     P    0.71008   0.54970   0.41764   1.000
    O28     O    0.78630   0.51851   0.41972   1.000
    O29     O    0.60684   0.46274   0.42103   1.000
    O30     O    0.72261   0.61069   0.35223   1.000
    H82     H    0.47400   0.51600   0.35930   1.000
    H83     H    0.64000   0.67490   0.54160   1.000
    H84     H    0.86900   0.66010   0.52190   1.000
    H85     H    0.67900   0.70200   0.53300   1.000
    H86     H    0.63740   0.67090   0.45660   1.000
    H87     H    0.57820   0.57580   0.50180   1.000
    H88     H    0.85970   0.70900   0.45090   1.000
    H89     H    0.85220   0.74850   0.52710   1.000
    H90     H    0.81500   0.74700   0.53100   1.000
    P11     P    0.83962   0.28992   0.41764   1.000
    O31     O    0.73221   0.21370   0.41972   1.000
    O32     O    0.85590   0.39316   0.42103   1.000
    O33     O    0.88808   0.27739   0.35223   1.000
    H91     H    0.04200   0.52600   0.35930   1.000
    H92     H    0.03490   0.36000   0.54160   1.000
    H93     H    0.79110   0.13100   0.52190   1.000
    H94     H    0.02300   0.32100   0.53300   1.000
    H95     H    0.03350   0.36260   0.45660   1.000
    H96     H    0.99760   0.42180   0.50180   1.000
    H97     H    0.84930   0.14030   0.45090   1.000
    H98     H    0.89630   0.14780   0.52710   1.000
    H99     H    0.93200   0.18500   0.53100   1.000
    P12     P    0.45030   0.16038   0.41764   1.000
    O34     O    0.48149   0.26779   0.41972   1.000
    O35     O    0.53726   0.14410   0.42103   1.000
    O36     O    0.38931   0.11192   0.35223   1.000
    H100    H    0.48400   0.95800   0.35930   1.000
    H101    H    0.32510   0.96510   0.54160   1.000
    H102    H    0.33990   0.20890   0.52190   1.000
    H103    H    0.29800   0.97700   0.53300   1.000
    H104    H    0.32910   0.96650   0.45660   1.000
    H105    H    0.42420   0.00240   0.50180   1.000
    H106    H    0.29100   0.15070   0.45090   1.000
    H107    H    0.25150   0.10370   0.52710   1.000
    H108    H    0.25300   0.06800   0.53100   1.000
    P13     P    0.54970   0.71008   0.91764   1.000
    O37     O    0.51851   0.78630   0.91972   1.000
    O38     O    0.46274   0.60684   0.92103   1.000
    O39     O    0.61069   0.72261   0.85223   1.000
    H109    H    0.51600   0.47400   0.85930   1.000
    H110    H    0.67490   0.64000   0.04160   1.000
    H111    H    0.66010   0.86900   0.02190   1.000
    H112    H    0.70200   0.67900   0.03300   1.000
    H113    H    0.67090   0.63740   0.95660   1.000
    H114    H    0.57580   0.57820   0.00180   1.000
    H115    H    0.70900   0.85970   0.95090   1.000
    H116    H    0.74850   0.85220   0.02710   1.000
    H117    H    0.74700   0.81500   0.03100   1.000
    P14     P    0.28992   0.83962   0.91764   1.000
    O40     O    0.21370   0.73221   0.91972   1.000
    O41     O    0.39316   0.85590   0.92103   1.000
    O42     O    0.27739   0.88808   0.85223   1.000
    H118    H    0.52600   0.04200   0.85930   1.000
    H119    H    0.36000   0.03490   0.04160   1.000
    H120    H    0.13100   0.79110   0.02190   1.000
    H121    H    0.32100   0.02300   0.03300   1.000
    H122    H    0.36260   0.03350   0.95660   1.000
    H123    H    0.42180   0.99760   0.00180   1.000
    H124    H    0.14030   0.84930   0.95090   1.000
    H125    H    0.14780   0.89630   0.02710   1.000
    H126    H    0.18500   0.93200   0.03100   1.000
    P15     P    0.16038   0.45030   0.91764   1.000
    O43     O    0.26779   0.48149   0.91972   1.000
    O44     O    0.14410   0.53726   0.92103   1.000
    O45     O    0.11192   0.38931   0.85223   1.000
    H127    H    0.95800   0.48400   0.85930   1.000
    H128    H    0.96510   0.32510   0.04160   1.000
    H129    H    0.20890   0.33990   0.02190   1.000
    H130    H    0.97700   0.29800   0.03300   1.000
    H131    H    0.96650   0.32910   0.95660   1.000
    H132    H    0.00240   0.42420   0.00180   1.000
    H133    H    0.15070   0.29100   0.95090   1.000
    H134    H    0.10370   0.25150   0.02710   1.000
    H135    H    0.06800   0.25300   0.03100   1.000
    P16     P    0.45030   0.28992   0.91764   1.000
    O46     O    0.48149   0.21370   0.91972   1.000
    O47     O    0.53726   0.39316   0.92103   1.000
    O48     O    0.38931   0.27739   0.85223   1.000
    H136    H    0.48400   0.52600   0.85930   1.000
    H137    H    0.32510   0.36000   0.04160   1.000
    H138    H    0.33990   0.13100   0.02190   1.000
    H139    H    0.29800   0.32100   0.03300   1.000
    H140    H    0.32910   0.36260   0.95660   1.000
    H141    H    0.42420   0.42180   0.00180   1.000
    H142    H    0.29100   0.14030   0.95090   1.000
    H143    H    0.25150   0.14780   0.02710   1.000
    H144    H    0.25300   0.18500   0.03100   1.000
    P17     P    0.71008   0.16038   0.91764   1.000
    O49     O    0.78630   0.26779   0.91972   1.000
    O50     O    0.60684   0.14410   0.92103   1.000
    O51     O    0.72261   0.11192   0.85223   1.000
    H145    H    0.47400   0.95800   0.85930   1.000
    H146    H    0.64000   0.96510   0.04160   1.000
    H147    H    0.86900   0.20890   0.02190   1.000
    H148    H    0.67900   0.97700   0.03300   1.000
    H149    H    0.63740   0.96650   0.95660   1.000
    H150    H    0.57820   0.00240   0.00180   1.000
    H151    H    0.85970   0.15070   0.95090   1.000
    H152    H    0.85220   0.10370   0.02710   1.000
    H153    H    0.81500   0.06800   0.03100   1.000
    P18     P    0.83962   0.54970   0.91764   1.000
    O52     O    0.73221   0.51851   0.91972   1.000
    O53     O    0.85590   0.46274   0.92103   1.000
    O54     O    0.88808   0.61069   0.85223   1.000
    H154    H    0.04200   0.51600   0.85930   1.000
    H155    H    0.03490   0.67490   0.04160   1.000
    H156    H    0.79110   0.66010   0.02190   1.000
    H157    H    0.02300   0.70200   0.03300   1.000
    H158    H    0.03350   0.67090   0.95660   1.000
    H159    H    0.99760   0.57580   0.00180   1.000
    H160    H    0.84930   0.70900   0.95090   1.000
    H161    H    0.89630   0.74850   0.02710   1.000
    H162    H    0.93200   0.74700   0.03100   1.000
    P19     P    0.71008   0.54970   0.58236   1.000
    O55     O    0.78630   0.51851   0.58028   1.000
    O56     O    0.60684   0.46274   0.57897   1.000
    O57     O    0.72261   0.61069   0.64777   1.000
    H163    H    0.47400   0.51600   0.64070   1.000
    H164    H    0.64000   0.67490   0.45840   1.000
    H165    H    0.86900   0.66010   0.47810   1.000
    H166    H    0.67900   0.70200   0.46700   1.000
    H167    H    0.63740   0.67090   0.54340   1.000
    H168    H    0.57820   0.57580   0.49820   1.000
    H169    H    0.85970   0.70900   0.54910   1.000
    H170    H    0.85220   0.74850   0.47290   1.000
    H171    H    0.81500   0.74700   0.46900   1.000
    P20     P    0.83962   0.28992   0.58236   1.000
    O58     O    0.73221   0.21370   0.58028   1.000
    O59     O    0.85590   0.39316   0.57897   1.000
    O60     O    0.88808   0.27739   0.64777   1.000
    H172    H    0.04200   0.52600   0.64070   1.000
    H173    H    0.03490   0.36000   0.45840   1.000
    H174    H    0.79110   0.13100   0.47810   1.000
    H175    H    0.02300   0.32100   0.46700   1.000
    H176    H    0.03350   0.36260   0.54340   1.000
    H177    H    0.99760   0.42180   0.49820   1.000
    H178    H    0.84930   0.14030   0.54910   1.000
    H179    H    0.89630   0.14780   0.47290   1.000
    H180    H    0.93200   0.18500   0.46900   1.000
    P21     P    0.45030   0.16038   0.58236   1.000
    O61     O    0.48149   0.26779   0.58028   1.000
    O62     O    0.53726   0.14410   0.57897   1.000
    O63     O    0.38931   0.11192   0.64777   1.000
    H181    H    0.48400   0.95800   0.64070   1.000
    H182    H    0.32510   0.96510   0.45840   1.000
    H183    H    0.33990   0.20890   0.47810   1.000
    H184    H    0.29800   0.97700   0.46700   1.000
    H185    H    0.32910   0.96650   0.54340   1.000
    H186    H    0.42420   0.00240   0.49820   1.000
    H187    H    0.29100   0.15070   0.54910   1.000
    H188    H    0.25150   0.10370   0.47290   1.000
    H189    H    0.25300   0.06800   0.46900   1.000
    P22     P    0.28992   0.45030   0.58236   1.000
    O64     O    0.21370   0.48149   0.58028   1.000
    O65     O    0.39316   0.53726   0.57897   1.000
    O66     O    0.27739   0.38931   0.64777   1.000
    H190    H    0.52600   0.48400   0.64070   1.000
    H191    H    0.36000   0.32510   0.45840   1.000
    H192    H    0.13100   0.33990   0.47810   1.000
    H193    H    0.32100   0.29800   0.46700   1.000
    H194    H    0.36260   0.32910   0.54340   1.000
    H195    H    0.42180   0.42420   0.49820   1.000
    H196    H    0.14030   0.29100   0.54910   1.000
    H197    H    0.14780   0.25150   0.47290   1.000
    H198    H    0.18500   0.25300   0.46900   1.000
    P23     P    0.16038   0.71008   0.58236   1.000
    O67     O    0.26779   0.78630   0.58028   1.000
    O68     O    0.14410   0.60684   0.57897   1.000
    O69     O    0.11192   0.72261   0.64777   1.000
    H199    H    0.95800   0.47400   0.64070   1.000
    H200    H    0.96510   0.64000   0.45840   1.000
    H201    H    0.20890   0.86900   0.47810   1.000
    H202    H    0.97700   0.67900   0.46700   1.000
    H203    H    0.96650   0.63740   0.54340   1.000
    H204    H    0.00240   0.57820   0.49820   1.000
    H205    H    0.15070   0.85970   0.54910   1.000
    H206    H    0.10370   0.85220   0.47290   1.000
    H207    H    0.06800   0.81500   0.46900   1.000
    P24     P    0.54970   0.83962   0.58236   1.000
    O70     O    0.51851   0.73221   0.58028   1.000
    O71     O    0.46274   0.85590   0.57897   1.000
    O72     O    0.61069   0.88808   0.64777   1.000
    H208    H    0.51600   0.04200   0.64070   1.000
    H209    H    0.67490   0.03490   0.45840   1.000
    H210    H    0.66010   0.79110   0.47810   1.000
    H211    H    0.70200   0.02300   0.46700   1.000
    H212    H    0.67090   0.03350   0.54340   1.000
    H213    H    0.57580   0.99760   0.49820   1.000
    H214    H    0.70900   0.84930   0.54910   1.000
    H215    H    0.74850   0.89630   0.47290   1.000
    H216    H    0.74700   0.93200   0.46900   1.000
    Pd1     Pd   0.63688   0.44960   0.00000   1.000
    C1      C    0.37870   0.27400   0.00000   1.000
    O73     O    0.28830   0.18360   0.00000   1.000
    C2      C    0.36270   0.36330   0.00000   1.000
    C3      C    0.30850   0.16260   0.00000   1.000
    O74     O    0.33860   0.33700   0.00000   1.000
    Pd2     Pd   0.55040   0.18728   0.00000   1.000
    C4      C    0.72600   0.10470   0.00000   1.000
    O75     O    0.81640   0.10470   0.00000   1.000
    C5      C    0.63670   0.99940   0.00000   1.000
    C6      C    0.83740   0.14590   0.00000   1.000
    O76     O    0.66300   0.00160   0.00000   1.000
    Pd3     Pd   0.81272   0.36312   0.00000   1.000
    C7      C    0.89530   0.62130   0.00000   1.000
    O77     O    0.89530   0.71170   0.00000   1.000
    C8      C    0.00060   0.63730   0.00000   1.000
    C9      C    0.85410   0.69150   0.00000   1.000
    O78     O    0.99840   0.66140   0.00000   1.000
    Pd4     Pd   0.36312   0.55040   0.00000   1.000
    C10     C    0.62130   0.72600   0.00000   1.000
    O79     O    0.71170   0.81640   0.00000   1.000
    C11     C    0.63730   0.63670   0.00000   1.000
    C12     C    0.69150   0.83740   0.00000   1.000
    O80     O    0.66140   0.66300   0.00000   1.000
    Pd5     Pd   0.44960   0.81272   0.00000   1.000
    C13     C    0.27400   0.89530   0.00000   1.000
    O81     O    0.18360   0.89530   0.00000   1.000
    C14     C    0.36330   0.00060   0.00000   1.000
    C15     C    0.16260   0.85410   0.00000   1.000
    O82     O    0.33700   0.99840   0.00000   1.000
    Pd6     Pd   0.18728   0.63688   0.00000   1.000
    C16     C    0.10470   0.37870   0.00000   1.000
    O83     O    0.10470   0.28830   0.00000   1.000
    C17     C    0.99940   0.36270   0.00000   1.000
    C18     C    0.14590   0.30850   0.00000   1.000
    O84     O    0.00160   0.33860   0.00000   1.000
    Pd7     Pd   0.44960   0.63688   0.50000   1.000
    C19     C    0.27400   0.37870   0.50000   1.000
    O85     O    0.18360   0.28830   0.50000   1.000
    C20     C    0.36330   0.36270   0.50000   1.000
    C21     C    0.16260   0.30850   0.50000   1.000
    O86     O    0.33700   0.33860   0.50000   1.000
    Pd8     Pd   0.18728   0.55040   0.50000   1.000
    C22     C    0.10470   0.72600   0.50000   1.000
    O87     O    0.10470   0.81640   0.50000   1.000
    C23     C    0.99940   0.63670   0.50000   1.000
    C24     C    0.14590   0.83740   0.50000   1.000
    O88     O    0.00160   0.66300   0.50000   1.000
    Pd9     Pd   0.36312   0.81272   0.50000   1.000
    C25     C    0.62130   0.89530   0.50000   1.000
    O89     O    0.71170   0.89530   0.50000   1.000
    C26     C    0.63730   0.00060   0.50000   1.000
    C27     C    0.69150   0.85410   0.50000   1.000
    O90     O    0.66140   0.99840   0.50000   1.000
    Pd10    Pd   0.55040   0.36312   0.50000   1.000
    C28     C    0.72600   0.62130   0.50000   1.000
    O91     O    0.81640   0.71170   0.50000   1.000
    C29     C    0.63670   0.63730   0.50000   1.000
    C30     C    0.83740   0.69150   0.50000   1.000
    O92     O    0.66300   0.66140   0.50000   1.000
    Pd11    Pd   0.81272   0.44960   0.50000   1.000
    C31     C    0.89530   0.27400   0.50000   1.000
    O93     O    0.89530   0.18360   0.50000   1.000
    C32     C    0.00060   0.36330   0.50000   1.000
    C33     C    0.85410   0.16260   0.50000   1.000
    O94     O    0.99840   0.33700   0.50000   1.000
    Pd12    Pd   0.63688   0.18728   0.50000   1.000
    C34     C    0.37870   0.10470   0.50000   1.000
    O95     O    0.28830   0.10470   0.50000   1.000
    C35     C    0.36270   0.99940   0.50000   1.000
    C36     C    0.30850   0.14590   0.50000   1.000
    O96     O    0.33860   0.00160   0.50000   1.000
    Ca1     Ca   0.37002   0.37002   0.25000   1.000
    Ca2     Ca   0.62998   0.00000   0.25000   1.000
    Ca3     Ca   0.00000   0.62998   0.25000   1.000
    Ca4     Ca   0.62998   0.62998   0.25000   1.000
    Ca5     Ca   0.37002   0.00000   0.25000   1.000
    Ca6     Ca   0.00000   0.37002   0.25000   1.000
    Ca7     Ca   0.62998   0.62998   0.75000   1.000
    Ca8     Ca   0.37002   0.00000   0.75000   1.000
    Ca9     Ca   0.00000   0.37002   0.75000   1.000
    Ca10    Ca   0.37002   0.37002   0.75000   1.000
    Ca11    Ca   0.62998   0.00000   0.75000   1.000
    Ca12    Ca   0.00000   0.62998   0.75000   1.000
    O97     O    0.50000   0.50000   0.17187   1.000
    O98     O    0.50000   0.00000   0.17187   1.000
    O99     O    0.00000   0.50000   0.17187   1.000
    O100    O    0.50000   0.50000   0.32813   1.000
    O101    O    0.00000   0.50000   0.32813   1.000
    O102    O    0.50000   0.00000   0.32813   1.000
    O103    O    0.50000   0.50000   0.82813   1.000
    O104    O    0.50000   0.00000   0.82813   1.000
    O105    O    0.00000   0.50000   0.82813   1.000
    O106    O    0.50000   0.50000   0.67187   1.000
    O107    O    0.00000   0.50000   0.67187   1.000
    O108    O    0.50000   0.00000   0.67187   1.000
