# CIF file generated by openbabel 2.4.1, see http://openbabel.sf.net
data_I
_chemical_name_common 'image0'
_cell_length_a 17.355
_cell_length_b 17.355
_cell_length_c 22.74
_cell_angle_alpha 90
_cell_angle_beta 90
_cell_angle_gamma 90
_space_group_name_H-M_alt 'P 1'
_space_group_name_Hall 'P 1'
loop_
    _symmetry_equiv_pos_as_xyz
    x,y,z
loop_
    _atom_site_label
    _atom_site_type_symbol
    _atom_site_fract_x
    _atom_site_fract_y
    _atom_site_fract_z
    _atom_site_occupancy
    N1      N    0.37310   0.22910   0.45260   1.000
    N2      N    0.62630   0.23570   0.49960   1.000
    C1      C    0.43180   0.20270   0.46600   1.000
    C2      C    0.49990   0.16500   0.48150   1.000
    C3      C    0.56710   0.20640   0.49100   1.000
    C4      C    0.49980   0.08090   0.49140   1.000
    C5      C    0.56590   0.04220   0.51010   1.000
    C6      C    0.56600   0.96370   0.51910   1.000
    C7      C    0.69340   0.28320   0.62450   1.000
    C8      C    0.69080   0.28420   0.68510   1.000
    C9      C    0.28430   0.19550   0.57680   1.000
    C10     C    0.28590   0.19260   0.63830   1.000
    C11     C    0.21340   0.19300   0.76680   1.000
    C12     C    0.21580   0.19290   0.82880   1.000
    H1      H    0.61170   0.07070   0.51730   1.000
    H2      H    0.65270   0.30660   0.60310   1.000
    H3      H    0.64920   0.30870   0.70480   1.000
    H4      H    0.31040   0.15630   0.55550   1.000
    H5      H    0.31000   0.15090   0.65820   1.000
    H6      H    0.18580   0.15390   0.74650   1.000
    H7      H    0.19260   0.15150   0.84950   1.000
    H8      H    0.61180   0.93930   0.53230   1.000
    N3      N    0.12690   0.27090   0.45260   1.000
    N4      N    0.87370   0.26430   0.49960   1.000
    C13     C    0.06820   0.29730   0.46600   1.000
    C14     C    0.00010   0.33500   0.48150   1.000
    C15     C    0.93290   0.29360   0.49100   1.000
    C16     C    0.00020   0.41910   0.49140   1.000
    C17     C    0.93410   0.45780   0.51010   1.000
    C18     C    0.93400   0.53630   0.51910   1.000
    C19     C    0.80660   0.21680   0.62450   1.000
    C20     C    0.80920   0.21580   0.68510   1.000
    C21     C    0.21570   0.30450   0.57680   1.000
    C22     C    0.21410   0.30740   0.63830   1.000
    C23     C    0.28660   0.30700   0.76680   1.000
    C24     C    0.28420   0.30710   0.82880   1.000
    H9      H    0.88830   0.42930   0.51730   1.000
    H10     H    0.84730   0.19340   0.60310   1.000
    H11     H    0.85080   0.19130   0.70480   1.000
    H12     H    0.18960   0.34370   0.55550   1.000
    H13     H    0.19000   0.34910   0.65820   1.000
    H14     H    0.31420   0.34610   0.74650   1.000
    H15     H    0.30740   0.34850   0.84950   1.000
    H16     H    0.88820   0.56070   0.53230   1.000
    N5      N    0.27090   0.37310   0.45260   1.000
    N6      N    0.26430   0.62630   0.49960   1.000
    C25     C    0.29730   0.43180   0.46600   1.000
    C26     C    0.33500   0.49990   0.48150   1.000
    C27     C    0.29360   0.56710   0.49100   1.000
    C28     C    0.41910   0.49980   0.49140   1.000
    C29     C    0.45780   0.56590   0.51010   1.000
    C30     C    0.53630   0.56600   0.51910   1.000
    C31     C    0.21680   0.69340   0.62450   1.000
    C32     C    0.21580   0.69080   0.68510   1.000
    C33     C    0.30450   0.28430   0.57680   1.000
    C34     C    0.30740   0.28590   0.63830   1.000
    C35     C    0.30700   0.21340   0.76680   1.000
    C36     C    0.30710   0.21580   0.82880   1.000
    H17     H    0.42930   0.61170   0.51730   1.000
    H18     H    0.19340   0.65270   0.60310   1.000
    H19     H    0.19130   0.64920   0.70480   1.000
    H20     H    0.34370   0.31040   0.55550   1.000
    H21     H    0.34910   0.31000   0.65820   1.000
    H22     H    0.34610   0.18580   0.74650   1.000
    H23     H    0.34850   0.19260   0.84950   1.000
    H24     H    0.56070   0.61180   0.53230   1.000
    N7      N    0.22910   0.12690   0.45260   1.000
    N8      N    0.23570   0.87370   0.49960   1.000
    C37     C    0.20270   0.06820   0.46600   1.000
    C38     C    0.16500   0.00010   0.48150   1.000
    C39     C    0.20640   0.93290   0.49100   1.000
    C40     C    0.08090   0.00020   0.49140   1.000
    C41     C    0.04220   0.93410   0.51010   1.000
    C42     C    0.96370   0.93400   0.51910   1.000
    C43     C    0.28320   0.80660   0.62450   1.000
    C44     C    0.28420   0.80920   0.68510   1.000
    C45     C    0.19550   0.21570   0.57680   1.000
    C46     C    0.19260   0.21410   0.63830   1.000
    C47     C    0.19300   0.28660   0.76680   1.000
    C48     C    0.19290   0.28420   0.82880   1.000
    H25     H    0.07070   0.88830   0.51730   1.000
    H26     H    0.30660   0.84730   0.60310   1.000
    H27     H    0.30870   0.85080   0.70480   1.000
    H28     H    0.15630   0.18960   0.55550   1.000
    H29     H    0.15090   0.19000   0.65820   1.000
    H30     H    0.15390   0.31420   0.74650   1.000
    H31     H    0.15150   0.30740   0.84950   1.000
    H32     H    0.93930   0.88820   0.53230   1.000
    N9      N    0.62690   0.72910   0.04740   1.000
    N10     N    0.37370   0.73570   0.00040   1.000
    C49     C    0.56820   0.70270   0.03400   1.000
    C50     C    0.50010   0.66500   0.01850   1.000
    C51     C    0.43290   0.70640   0.00900   1.000
    C52     C    0.50020   0.58090   0.00860   1.000
    C53     C    0.43410   0.54220   0.98990   1.000
    C54     C    0.43400   0.46370   0.98090   1.000
    C55     C    0.30660   0.78320   0.87550   1.000
    C56     C    0.30920   0.78420   0.81490   1.000
    C57     C    0.71570   0.69550   0.92320   1.000
    C58     C    0.71410   0.69260   0.86170   1.000
    C59     C    0.78660   0.69300   0.73320   1.000
    C60     C    0.78420   0.69290   0.67120   1.000
    H33     H    0.38830   0.57070   0.98270   1.000
    H34     H    0.34730   0.80660   0.89690   1.000
    H35     H    0.35080   0.80870   0.79520   1.000
    H36     H    0.68960   0.65630   0.94450   1.000
    H37     H    0.69000   0.65090   0.84180   1.000
    H38     H    0.81420   0.65390   0.75350   1.000
    H39     H    0.80740   0.65150   0.65050   1.000
    H40     H    0.38820   0.43930   0.96770   1.000
    N11     N    0.87310   0.77090   0.04740   1.000
    N12     N    0.12630   0.76430   0.00040   1.000
    C61     C    0.93180   0.79730   0.03400   1.000
    C62     C    0.99990   0.83500   0.01850   1.000
    C63     C    0.06710   0.79360   0.00900   1.000
    C64     C    0.99980   0.91910   0.00860   1.000
    C65     C    0.06590   0.95780   0.98990   1.000
    C66     C    0.06600   0.03630   0.98090   1.000
    C67     C    0.19340   0.71680   0.87550   1.000
    C68     C    0.19080   0.71580   0.81490   1.000
    C69     C    0.78430   0.80450   0.92320   1.000
    C70     C    0.78590   0.80740   0.86170   1.000
    C71     C    0.71340   0.80700   0.73320   1.000
    C72     C    0.71580   0.80710   0.67120   1.000
    H41     H    0.11170   0.92930   0.98270   1.000
    H42     H    0.15270   0.69340   0.89690   1.000
    H43     H    0.14920   0.69130   0.79520   1.000
    H44     H    0.81040   0.84370   0.94450   1.000
    H45     H    0.81000   0.84910   0.84180   1.000
    H46     H    0.68580   0.84610   0.75350   1.000
    H47     H    0.69260   0.84850   0.65050   1.000
    H48     H    0.11180   0.06070   0.96770   1.000
    N13     N    0.72910   0.87310   0.04740   1.000
    N14     N    0.73570   0.12630   0.00040   1.000
    C73     C    0.70270   0.93180   0.03400   1.000
    C74     C    0.66500   0.99990   0.01850   1.000
    C75     C    0.70640   0.06710   0.00900   1.000
    C76     C    0.58090   0.99980   0.00860   1.000
    C77     C    0.54220   0.06590   0.98990   1.000
    C78     C    0.46370   0.06600   0.98090   1.000
    C79     C    0.78320   0.19340   0.87550   1.000
    C80     C    0.78420   0.19080   0.81490   1.000
    C81     C    0.69550   0.78430   0.92320   1.000
    C82     C    0.69260   0.78590   0.86170   1.000
    C83     C    0.69300   0.71340   0.73320   1.000
    C84     C    0.69290   0.71580   0.67120   1.000
    H49     H    0.57070   0.11170   0.98270   1.000
    H50     H    0.80660   0.15270   0.89690   1.000
    H51     H    0.80870   0.14920   0.79520   1.000
    H52     H    0.65630   0.81040   0.94450   1.000
    H53     H    0.65090   0.81000   0.84180   1.000
    H54     H    0.65390   0.68580   0.75350   1.000
    H55     H    0.65150   0.69260   0.65050   1.000
    H56     H    0.43930   0.11180   0.96770   1.000
    N15     N    0.77090   0.62690   0.04740   1.000
    N16     N    0.76430   0.37370   0.00040   1.000
    C85     C    0.79730   0.56820   0.03400   1.000
    C86     C    0.83500   0.50010   0.01850   1.000
    C87     C    0.79360   0.43290   0.00900   1.000
    C88     C    0.91910   0.50020   0.00860   1.000
    C89     C    0.95780   0.43410   0.98990   1.000
    C90     C    0.03630   0.43400   0.98090   1.000
    C91     C    0.71680   0.30660   0.87550   1.000
    C92     C    0.71580   0.30920   0.81490   1.000
    C93     C    0.80450   0.71570   0.92320   1.000
    C94     C    0.80740   0.71410   0.86170   1.000
    C95     C    0.80700   0.78660   0.73320   1.000
    C96     C    0.80710   0.78420   0.67120   1.000
    H57     H    0.92930   0.38830   0.98270   1.000
    H58     H    0.69340   0.34730   0.89690   1.000
    H59     H    0.69130   0.35080   0.79520   1.000
    H60     H    0.84370   0.68960   0.94450   1.000
    H61     H    0.84910   0.69000   0.84180   1.000
    H62     H    0.84610   0.81420   0.75350   1.000
    H63     H    0.84850   0.80740   0.65050   1.000
    H64     H    0.06070   0.38820   0.96770   1.000
    N17     N    0.62690   0.77090   0.54740   1.000
    N18     N    0.37370   0.76430   0.50040   1.000
    C97     C    0.56820   0.79730   0.53400   1.000
    C98     C    0.50010   0.83500   0.51850   1.000
    C99     C    0.43290   0.79360   0.50900   1.000
    C100    C    0.50020   0.91910   0.50860   1.000
    C101    C    0.43410   0.95780   0.48990   1.000
    C102    C    0.43400   0.03630   0.48090   1.000
    C103    C    0.30660   0.71680   0.37550   1.000
    C104    C    0.30920   0.71580   0.31490   1.000
    C105    C    0.71570   0.80450   0.42320   1.000
    C106    C    0.71410   0.80740   0.36170   1.000
    C107    C    0.78660   0.80700   0.23320   1.000
    C108    C    0.78420   0.80710   0.17120   1.000
    H65     H    0.38830   0.92930   0.48270   1.000
    H66     H    0.34730   0.69340   0.39690   1.000
    H67     H    0.35080   0.69130   0.29520   1.000
    H68     H    0.68960   0.84370   0.44450   1.000
    H69     H    0.69000   0.84910   0.34180   1.000
    H70     H    0.81420   0.84610   0.25350   1.000
    H71     H    0.80740   0.84850   0.15050   1.000
    H72     H    0.38820   0.06070   0.46770   1.000
    N19     N    0.87310   0.72910   0.54740   1.000
    N20     N    0.12630   0.73570   0.50040   1.000
    C109    C    0.93180   0.70270   0.53400   1.000
    C110    C    0.99990   0.66500   0.51850   1.000
    C111    C    0.06710   0.70640   0.50900   1.000
    C112    C    0.99980   0.58090   0.50860   1.000
    C113    C    0.06590   0.54220   0.48990   1.000
    C114    C    0.06600   0.46370   0.48090   1.000
    C115    C    0.19340   0.78320   0.37550   1.000
    C116    C    0.19080   0.78420   0.31490   1.000
    C117    C    0.78430   0.69550   0.42320   1.000
    C118    C    0.78590   0.69260   0.36170   1.000
    C119    C    0.71340   0.69300   0.23320   1.000
    C120    C    0.71580   0.69290   0.17120   1.000
    H73     H    0.11170   0.57070   0.48270   1.000
    H74     H    0.15270   0.80660   0.39690   1.000
    H75     H    0.14920   0.80870   0.29520   1.000
    H76     H    0.81040   0.65630   0.44450   1.000
    H77     H    0.81000   0.65090   0.34180   1.000
    H78     H    0.68580   0.65390   0.25350   1.000
    H79     H    0.69260   0.65150   0.15050   1.000
    H80     H    0.11180   0.43930   0.46770   1.000
    N21     N    0.72910   0.62690   0.54740   1.000
    N22     N    0.73570   0.37370   0.50040   1.000
    C121    C    0.70270   0.56820   0.53400   1.000
    C122    C    0.66500   0.50010   0.51850   1.000
    C123    C    0.70640   0.43290   0.50900   1.000
    C124    C    0.58090   0.50020   0.50860   1.000
    C125    C    0.54220   0.43410   0.48990   1.000
    C126    C    0.46370   0.43400   0.48090   1.000
    C127    C    0.78320   0.30660   0.37550   1.000
    C128    C    0.78420   0.30920   0.31490   1.000
    C129    C    0.69550   0.71570   0.42320   1.000
    C130    C    0.69260   0.71410   0.36170   1.000
    C131    C    0.69300   0.78660   0.23320   1.000
    C132    C    0.69290   0.78420   0.17120   1.000
    H81     H    0.57070   0.38830   0.48270   1.000
    H82     H    0.80660   0.34730   0.39690   1.000
    H83     H    0.80870   0.35080   0.29520   1.000
    H84     H    0.65630   0.68960   0.44450   1.000
    H85     H    0.65090   0.69000   0.34180   1.000
    H86     H    0.65390   0.81420   0.25350   1.000
    H87     H    0.65150   0.80740   0.15050   1.000
    H88     H    0.43930   0.38820   0.46770   1.000
    N23     N    0.77090   0.87310   0.54740   1.000
    N24     N    0.76430   0.12630   0.50040   1.000
    C133    C    0.79730   0.93180   0.53400   1.000
    C134    C    0.83500   0.99990   0.51850   1.000
    C135    C    0.79360   0.06710   0.50900   1.000
    C136    C    0.91910   0.99980   0.50860   1.000
    C137    C    0.95780   0.06590   0.48990   1.000
    C138    C    0.03630   0.06600   0.48090   1.000
    C139    C    0.71680   0.19340   0.37550   1.000
    C140    C    0.71580   0.19080   0.31490   1.000
    C141    C    0.80450   0.78430   0.42320   1.000
    C142    C    0.80740   0.78590   0.36170   1.000
    C143    C    0.80700   0.71340   0.23320   1.000
    C144    C    0.80710   0.71580   0.17120   1.000
    H89     H    0.92930   0.11170   0.48270   1.000
    H90     H    0.69340   0.15270   0.39690   1.000
    H91     H    0.69130   0.14920   0.29520   1.000
    H92     H    0.84370   0.81040   0.44450   1.000
    H93     H    0.84910   0.81000   0.34180   1.000
    H94     H    0.84610   0.68580   0.25350   1.000
    H95     H    0.84850   0.69260   0.15050   1.000
    H96     H    0.06070   0.11180   0.46770   1.000
    N25     N    0.37310   0.27090   0.95260   1.000
    N26     N    0.62630   0.26430   0.99960   1.000
    C145    C    0.43180   0.29730   0.96600   1.000
    C146    C    0.49990   0.33500   0.98150   1.000
    C147    C    0.56710   0.29360   0.99100   1.000
    C148    C    0.49980   0.41910   0.99140   1.000
    C149    C    0.56590   0.45780   0.01010   1.000
    C150    C    0.56600   0.53630   0.01910   1.000
    C151    C    0.69340   0.21680   0.12450   1.000
    C152    C    0.69080   0.21580   0.18510   1.000
    C153    C    0.28430   0.30450   0.07680   1.000
    C154    C    0.28590   0.30740   0.13830   1.000
    C155    C    0.21340   0.30700   0.26680   1.000
    C156    C    0.21580   0.30710   0.32880   1.000
    H97     H    0.61170   0.42930   0.01730   1.000
    H98     H    0.65270   0.19340   0.10310   1.000
    H99     H    0.64920   0.19130   0.20480   1.000
    H100    H    0.31040   0.34370   0.05550   1.000
    H101    H    0.31000   0.34910   0.15820   1.000
    H102    H    0.18580   0.34610   0.24650   1.000
    H103    H    0.19260   0.34850   0.34950   1.000
    H104    H    0.61180   0.56070   0.03230   1.000
    N27     N    0.12690   0.22910   0.95260   1.000
    N28     N    0.87370   0.23570   0.99960   1.000
    C157    C    0.06820   0.20270   0.96600   1.000
    C158    C    0.00010   0.16500   0.98150   1.000
    C159    C    0.93290   0.20640   0.99100   1.000
    C160    C    0.00020   0.08090   0.99140   1.000
    C161    C    0.93410   0.04220   0.01010   1.000
    C162    C    0.93400   0.96370   0.01910   1.000
    C163    C    0.80660   0.28320   0.12450   1.000
    C164    C    0.80920   0.28420   0.18510   1.000
    C165    C    0.21570   0.19550   0.07680   1.000
    C166    C    0.21410   0.19260   0.13830   1.000
    C167    C    0.28660   0.19300   0.26680   1.000
    C168    C    0.28420   0.19290   0.32880   1.000
    H105    H    0.88830   0.07070   0.01730   1.000
    H106    H    0.84730   0.30660   0.10310   1.000
    H107    H    0.85080   0.30870   0.20480   1.000
    H108    H    0.18960   0.15630   0.05550   1.000
    H109    H    0.19000   0.15090   0.15820   1.000
    H110    H    0.31420   0.15390   0.24650   1.000
    H111    H    0.30740   0.15150   0.34950   1.000
    H112    H    0.88820   0.93930   0.03230   1.000
    N29     N    0.27090   0.12690   0.95260   1.000
    N30     N    0.26430   0.87370   0.99960   1.000
    C169    C    0.29730   0.06820   0.96600   1.000
    C170    C    0.33500   0.00010   0.98150   1.000
    C171    C    0.29360   0.93290   0.99100   1.000
    C172    C    0.41910   0.00020   0.99140   1.000
    C173    C    0.45780   0.93410   0.01010   1.000
    C174    C    0.53630   0.93400   0.01910   1.000
    C175    C    0.21680   0.80660   0.12450   1.000
    C176    C    0.21580   0.80920   0.18510   1.000
    C177    C    0.30450   0.21570   0.07680   1.000
    C178    C    0.30740   0.21410   0.13830   1.000
    C179    C    0.30700   0.28660   0.26680   1.000
    C180    C    0.30710   0.28420   0.32880   1.000
    H113    H    0.42930   0.88830   0.01730   1.000
    H114    H    0.19340   0.84730   0.10310   1.000
    H115    H    0.19130   0.85080   0.20480   1.000
    H116    H    0.34370   0.18960   0.05550   1.000
    H117    H    0.34910   0.19000   0.15820   1.000
    H118    H    0.34610   0.31420   0.24650   1.000
    H119    H    0.34850   0.30740   0.34950   1.000
    H120    H    0.56070   0.88820   0.03230   1.000
    N31     N    0.22910   0.37310   0.95260   1.000
    N32     N    0.23570   0.62630   0.99960   1.000
    C181    C    0.20270   0.43180   0.96600   1.000
    C182    C    0.16500   0.49990   0.98150   1.000
    C183    C    0.20640   0.56710   0.99100   1.000
    C184    C    0.08090   0.49980   0.99140   1.000
    C185    C    0.04220   0.56590   0.01010   1.000
    C186    C    0.96370   0.56600   0.01910   1.000
    C187    C    0.28320   0.69340   0.12450   1.000
    C188    C    0.28420   0.69080   0.18510   1.000
    C189    C    0.19550   0.28430   0.07680   1.000
    C190    C    0.19260   0.28590   0.13830   1.000
    C191    C    0.19300   0.21340   0.26680   1.000
    C192    C    0.19290   0.21580   0.32880   1.000
    H121    H    0.07070   0.61170   0.01730   1.000
    H122    H    0.30660   0.65270   0.10310   1.000
    H123    H    0.30870   0.64920   0.20480   1.000
    H124    H    0.15630   0.31040   0.05550   1.000
    H125    H    0.15090   0.31000   0.15820   1.000
    H126    H    0.15390   0.18580   0.24650   1.000
    H127    H    0.15150   0.19260   0.34950   1.000
    H128    H    0.93930   0.61180   0.03230   1.000
    Zn1     Zn   0.25000   0.25000   0.45204   1.000
    N33     N    0.25000   0.25000   0.54720   1.000
    N34     N    0.25000   0.25000   0.85880   1.000
    C193    C    0.25000   0.25000   0.67000   1.000
    C194    C    0.25000   0.25000   0.73500   1.000
    Zn2     Zn   0.75000   0.75000   0.04796   1.000
    N35     N    0.75000   0.75000   0.95280   1.000
    N36     N    0.75000   0.75000   0.64120   1.000
    C195    C    0.75000   0.75000   0.83000   1.000
    C196    C    0.75000   0.75000   0.76500   1.000
    Zn3     Zn   0.75000   0.75000   0.54796   1.000
    N37     N    0.75000   0.75000   0.45280   1.000
    N38     N    0.75000   0.75000   0.14120   1.000
    C197    C    0.75000   0.75000   0.33000   1.000
    C198    C    0.75000   0.75000   0.26500   1.000
    Zn4     Zn   0.25000   0.25000   0.95204   1.000
    N39     N    0.25000   0.25000   0.04720   1.000
    N40     N    0.25000   0.25000   0.35880   1.000
    C199    C    0.25000   0.25000   0.17000   1.000
    C200    C    0.25000   0.25000   0.23500   1.000
    Zn5     Zn   0.75000   0.25000   0.50000   1.000
    Zn6     Zn   0.25000   0.75000   0.50000   1.000
    Zn7     Zn   0.25000   0.75000   0.00000   1.000
    Zn8     Zn   0.75000   0.25000   0.00000   1.000
    N41     N    0.75000   0.25000   0.59420   1.000
    C201    C    0.75000   0.25000   0.71690   1.000
    N42     N    0.25000   0.75000   0.59420   1.000
    C202    C    0.25000   0.75000   0.71690   1.000
    N43     N    0.25000   0.75000   0.90580   1.000
    C203    C    0.25000   0.75000   0.78310   1.000
    N44     N    0.75000   0.25000   0.90580   1.000
    C204    C    0.75000   0.25000   0.78310   1.000
    N45     N    0.25000   0.75000   0.40580   1.000
    C205    C    0.25000   0.75000   0.28310   1.000
    N46     N    0.75000   0.25000   0.40580   1.000
    C206    C    0.75000   0.25000   0.28310   1.000
    N47     N    0.75000   0.25000   0.09420   1.000
    C207    C    0.75000   0.25000   0.21690   1.000
    N48     N    0.25000   0.75000   0.09420   1.000
    C208    C    0.25000   0.75000   0.21690   1.000
