# CIF file generated by openbabel 2.4.1, see http://openbabel.sf.net
data_I
_chemical_name_common 'image0'
_cell_length_a 11.2163
_cell_length_b 11.2163
_cell_length_c 18.286
_cell_angle_alpha 90
_cell_angle_beta 90
_cell_angle_gamma 90
_space_group_name_H-M_alt 'P 1'
_space_group_name_Hall 'P 1'
loop_
    _symmetry_equiv_pos_as_xyz
    x,y,z
loop_
    _atom_site_label
    _atom_site_type_symbol
    _atom_site_fract_x
    _atom_site_fract_y
    _atom_site_fract_z
    _atom_site_occupancy
    N1      N    0.41420   0.14580   0.31800   1.000
    C1      C    0.34550   0.21380   0.33710   1.000
    C2      C    0.25680   0.30040   0.36200   1.000
    H1      H    0.19410   0.30930   0.32430   1.000
    H2      H    0.29540   0.37900   0.36890   1.000
    C3      C    0.19940   0.25950   0.43500   1.000
    H3      H    0.16470   0.17800   0.42850   1.000
    C4      C    0.10010   0.34640   0.45920   1.000
    H4      H    0.11630   0.42750   0.44030   1.000
    H5      H    0.02180   0.31960   0.44030   1.000
    N2      N    0.35210   0.08580   0.18180   1.000
    C5      C    0.28390   0.15510   0.16360   1.000
    C6      C    0.19730   0.24320   0.13810   1.000
    H6      H    0.18750   0.30590   0.17570   1.000
    H7      H    0.11910   0.20410   0.13070   1.000
    C7      C    0.23910   0.30070   0.06530   1.000
    H8      H    0.32090   0.33430   0.07190   1.000
    C8      C    0.15300   0.40120   0.04130   1.000
    H9      H    0.07210   0.38600   0.06020   1.000
    H10     H    0.18120   0.47910   0.06020   1.000
    N3      N    0.91420   0.64580   0.81800   1.000
    C9      C    0.84550   0.71380   0.83710   1.000
    C10     C    0.75680   0.80040   0.86200   1.000
    H11     H    0.69410   0.80930   0.82430   1.000
    H12     H    0.79540   0.87900   0.86890   1.000
    C11     C    0.69940   0.75950   0.93500   1.000
    H13     H    0.66470   0.67800   0.92850   1.000
    C12     C    0.60010   0.84640   0.95920   1.000
    H14     H    0.61630   0.92750   0.94030   1.000
    H15     H    0.52180   0.81960   0.94030   1.000
    N4      N    0.85210   0.58580   0.68180   1.000
    C13     C    0.78390   0.65510   0.66360   1.000
    C14     C    0.69730   0.74320   0.63810   1.000
    H16     H    0.68750   0.80590   0.67570   1.000
    H17     H    0.61910   0.70410   0.63070   1.000
    C15     C    0.73910   0.80070   0.56530   1.000
    H18     H    0.82090   0.83430   0.57190   1.000
    C16     C    0.65300   0.90120   0.54130   1.000
    H19     H    0.57210   0.88600   0.56020   1.000
    H20     H    0.68120   0.97910   0.56020   1.000
    N5      N    0.58580   0.85420   0.31800   1.000
    C17     C    0.65450   0.78620   0.33710   1.000
    C18     C    0.74320   0.69960   0.36200   1.000
    H21     H    0.80590   0.69070   0.32430   1.000
    H22     H    0.70460   0.62100   0.36890   1.000
    C19     C    0.80060   0.74050   0.43500   1.000
    H23     H    0.83530   0.82200   0.42850   1.000
    C20     C    0.89990   0.65360   0.45920   1.000
    H24     H    0.88370   0.57250   0.44030   1.000
    H25     H    0.97820   0.68040   0.44030   1.000
    N6      N    0.64790   0.91420   0.18180   1.000
    C21     C    0.71610   0.84490   0.16360   1.000
    C22     C    0.80270   0.75680   0.13810   1.000
    H26     H    0.81250   0.69410   0.17570   1.000
    H27     H    0.88090   0.79590   0.13070   1.000
    C23     C    0.76090   0.69930   0.06530   1.000
    H28     H    0.67910   0.66570   0.07190   1.000
    C24     C    0.84700   0.59880   0.04130   1.000
    H29     H    0.92790   0.61400   0.06020   1.000
    H30     H    0.81880   0.52090   0.06020   1.000
    N7      N    0.08580   0.35420   0.81800   1.000
    C25     C    0.15450   0.28620   0.83710   1.000
    C26     C    0.24320   0.19960   0.86200   1.000
    H31     H    0.30590   0.19070   0.82430   1.000
    H32     H    0.20460   0.12100   0.86890   1.000
    C27     C    0.30060   0.24050   0.93500   1.000
    H33     H    0.33530   0.32200   0.92850   1.000
    C28     C    0.39990   0.15360   0.95920   1.000
    H34     H    0.38370   0.07250   0.94030   1.000
    H35     H    0.47820   0.18040   0.94030   1.000
    N8      N    0.14790   0.41420   0.68180   1.000
    C29     C    0.21610   0.34490   0.66360   1.000
    C30     C    0.30270   0.25680   0.63810   1.000
    H36     H    0.31250   0.19410   0.67570   1.000
    H37     H    0.38090   0.29590   0.63070   1.000
    C31     C    0.26090   0.19930   0.56530   1.000
    H38     H    0.17910   0.16570   0.57190   1.000
    C32     C    0.34700   0.09880   0.54130   1.000
    H39     H    0.42790   0.11400   0.56020   1.000
    H40     H    0.31880   0.02090   0.56020   1.000
    N9      N    0.85420   0.41420   0.31800   1.000
    C33     C    0.78620   0.34550   0.33710   1.000
    C34     C    0.69960   0.25680   0.36200   1.000
    H41     H    0.69070   0.19410   0.32430   1.000
    H42     H    0.62100   0.29540   0.36890   1.000
    C35     C    0.74050   0.19940   0.43500   1.000
    H43     H    0.82200   0.16470   0.42850   1.000
    C36     C    0.65360   0.10010   0.45920   1.000
    H44     H    0.57250   0.11630   0.44030   1.000
    H45     H    0.68040   0.02180   0.44030   1.000
    N10     N    0.91420   0.35210   0.18180   1.000
    C37     C    0.84490   0.28390   0.16360   1.000
    C38     C    0.75680   0.19730   0.13810   1.000
    H46     H    0.69410   0.18750   0.17570   1.000
    H47     H    0.79590   0.11910   0.13070   1.000
    C39     C    0.69930   0.23910   0.06530   1.000
    H48     H    0.66570   0.32090   0.07190   1.000
    C40     C    0.59880   0.15300   0.04130   1.000
    H49     H    0.61400   0.07210   0.06020   1.000
    H50     H    0.52090   0.18120   0.06020   1.000
    N11     N    0.35420   0.91420   0.81800   1.000
    C41     C    0.28620   0.84550   0.83710   1.000
    C42     C    0.19960   0.75680   0.86200   1.000
    H51     H    0.19070   0.69410   0.82430   1.000
    H52     H    0.12100   0.79540   0.86890   1.000
    C43     C    0.24050   0.69940   0.93500   1.000
    H53     H    0.32200   0.66470   0.92850   1.000
    C44     C    0.15360   0.60010   0.95920   1.000
    H54     H    0.07250   0.61630   0.94030   1.000
    H55     H    0.18040   0.52180   0.94030   1.000
    N12     N    0.41420   0.85210   0.68180   1.000
    C45     C    0.34490   0.78390   0.66360   1.000
    C46     C    0.25680   0.69730   0.63810   1.000
    H56     H    0.19410   0.68750   0.67570   1.000
    H57     H    0.29590   0.61910   0.63070   1.000
    C47     C    0.19930   0.73910   0.56530   1.000
    H58     H    0.16570   0.82090   0.57190   1.000
    C48     C    0.09880   0.65300   0.54130   1.000
    H59     H    0.11400   0.57210   0.56020   1.000
    H60     H    0.02090   0.68120   0.56020   1.000
    N13     N    0.14580   0.58580   0.31800   1.000
    C49     C    0.21380   0.65450   0.33710   1.000
    C50     C    0.30040   0.74320   0.36200   1.000
    H61     H    0.30930   0.80590   0.32430   1.000
    H62     H    0.37900   0.70460   0.36890   1.000
    C51     C    0.25950   0.80060   0.43500   1.000
    H63     H    0.17800   0.83530   0.42850   1.000
    C52     C    0.34640   0.89990   0.45920   1.000
    H64     H    0.42750   0.88370   0.44030   1.000
    H65     H    0.31960   0.97820   0.44030   1.000
    N14     N    0.08580   0.64790   0.18180   1.000
    C53     C    0.15510   0.71610   0.16360   1.000
    C54     C    0.24320   0.80270   0.13810   1.000
    H66     H    0.30590   0.81250   0.17570   1.000
    H67     H    0.20410   0.88090   0.13070   1.000
    C55     C    0.30070   0.76090   0.06530   1.000
    H68     H    0.33430   0.67910   0.07190   1.000
    C56     C    0.40120   0.84700   0.04130   1.000
    H69     H    0.38600   0.92790   0.06020   1.000
    H70     H    0.47910   0.81880   0.06020   1.000
    N15     N    0.64580   0.08580   0.81800   1.000
    C57     C    0.71380   0.15450   0.83710   1.000
    C58     C    0.80040   0.24320   0.86200   1.000
    H71     H    0.80930   0.30590   0.82430   1.000
    H72     H    0.87900   0.20460   0.86890   1.000
    C59     C    0.75950   0.30060   0.93500   1.000
    H73     H    0.67800   0.33530   0.92850   1.000
    C60     C    0.84640   0.39990   0.95920   1.000
    H74     H    0.92750   0.38370   0.94030   1.000
    H75     H    0.81960   0.47820   0.94030   1.000
    N16     N    0.58580   0.14790   0.68180   1.000
    C61     C    0.65510   0.21610   0.66360   1.000
    C62     C    0.74320   0.30270   0.63810   1.000
    H76     H    0.80590   0.31250   0.67570   1.000
    H77     H    0.70410   0.38090   0.63070   1.000
    C63     C    0.80070   0.26090   0.56530   1.000
    H78     H    0.83430   0.17910   0.57190   1.000
    C64     C    0.90120   0.34700   0.54130   1.000
    H79     H    0.88600   0.42790   0.56020   1.000
    H80     H    0.97910   0.31880   0.56020   1.000
    N17     N    0.58580   0.85420   0.68200   1.000
    C65     C    0.65450   0.78620   0.66290   1.000
    C66     C    0.74320   0.69960   0.63800   1.000
    H81     H    0.80590   0.69070   0.67570   1.000
    H82     H    0.70460   0.62100   0.63110   1.000
    C67     C    0.80060   0.74050   0.56500   1.000
    H83     H    0.83530   0.82200   0.57150   1.000
    C68     C    0.89990   0.65360   0.54080   1.000
    H84     H    0.88370   0.57250   0.55970   1.000
    H85     H    0.97820   0.68040   0.55970   1.000
    N18     N    0.64790   0.91420   0.81820   1.000
    C69     C    0.71610   0.84490   0.83640   1.000
    C70     C    0.80270   0.75680   0.86190   1.000
    H86     H    0.81250   0.69410   0.82430   1.000
    H87     H    0.88090   0.79590   0.86930   1.000
    C71     C    0.76090   0.69930   0.93470   1.000
    H88     H    0.67910   0.66570   0.92810   1.000
    C72     C    0.84700   0.59880   0.95870   1.000
    H89     H    0.92790   0.61400   0.93980   1.000
    H90     H    0.81880   0.52090   0.93980   1.000
    N19     N    0.08580   0.35420   0.18200   1.000
    C73     C    0.15450   0.28620   0.16290   1.000
    C74     C    0.24320   0.19960   0.13800   1.000
    H91     H    0.30590   0.19070   0.17570   1.000
    H92     H    0.20460   0.12100   0.13110   1.000
    C75     C    0.30060   0.24050   0.06500   1.000
    H93     H    0.33530   0.32200   0.07150   1.000
    C76     C    0.39990   0.15360   0.04080   1.000
    H94     H    0.38370   0.07250   0.05970   1.000
    H95     H    0.47820   0.18040   0.05970   1.000
    N20     N    0.14790   0.41420   0.31820   1.000
    C77     C    0.21610   0.34490   0.33640   1.000
    C78     C    0.30270   0.25680   0.36190   1.000
    H96     H    0.31250   0.19410   0.32430   1.000
    H97     H    0.38090   0.29590   0.36930   1.000
    C79     C    0.26090   0.19930   0.43470   1.000
    H98     H    0.17910   0.16570   0.42810   1.000
    C80     C    0.34700   0.09880   0.45870   1.000
    H99     H    0.42790   0.11400   0.43980   1.000
    H100    H    0.31880   0.02090   0.43980   1.000
    N21     N    0.41420   0.14580   0.68200   1.000
    C81     C    0.34550   0.21380   0.66290   1.000
    C82     C    0.25680   0.30040   0.63800   1.000
    H101    H    0.19410   0.30930   0.67570   1.000
    H102    H    0.29540   0.37900   0.63110   1.000
    C83     C    0.19940   0.25950   0.56500   1.000
    H103    H    0.16470   0.17800   0.57150   1.000
    C84     C    0.10010   0.34640   0.54080   1.000
    H104    H    0.11630   0.42750   0.55970   1.000
    H105    H    0.02180   0.31960   0.55970   1.000
    N22     N    0.35210   0.08580   0.81820   1.000
    C85     C    0.28390   0.15510   0.83640   1.000
    C86     C    0.19730   0.24320   0.86190   1.000
    H106    H    0.18750   0.30590   0.82430   1.000
    H107    H    0.11910   0.20410   0.86930   1.000
    C87     C    0.23910   0.30070   0.93470   1.000
    H108    H    0.32090   0.33430   0.92810   1.000
    C88     C    0.15300   0.40120   0.95870   1.000
    H109    H    0.07210   0.38600   0.93980   1.000
    H110    H    0.18120   0.47910   0.93980   1.000
    N23     N    0.91420   0.64580   0.18200   1.000
    C89     C    0.84550   0.71380   0.16290   1.000
    C90     C    0.75680   0.80040   0.13800   1.000
    H111    H    0.69410   0.80930   0.17570   1.000
    H112    H    0.79540   0.87900   0.13110   1.000
    C91     C    0.69940   0.75950   0.06500   1.000
    H113    H    0.66470   0.67800   0.07150   1.000
    C92     C    0.60010   0.84640   0.04080   1.000
    H114    H    0.61630   0.92750   0.05970   1.000
    H115    H    0.52180   0.81960   0.05970   1.000
    N24     N    0.85210   0.58580   0.31820   1.000
    C93     C    0.78390   0.65510   0.33640   1.000
    C94     C    0.69730   0.74320   0.36190   1.000
    H116    H    0.68750   0.80590   0.32430   1.000
    H117    H    0.61910   0.70410   0.36930   1.000
    C95     C    0.73910   0.80070   0.43470   1.000
    H118    H    0.82090   0.83430   0.42810   1.000
    C96     C    0.65300   0.90120   0.45870   1.000
    H119    H    0.57210   0.88600   0.43980   1.000
    H120    H    0.68120   0.97910   0.43980   1.000
    N25     N    0.14580   0.58580   0.68200   1.000
    C97     C    0.21380   0.65450   0.66290   1.000
    C98     C    0.30040   0.74320   0.63800   1.000
    H121    H    0.30930   0.80590   0.67570   1.000
    H122    H    0.37900   0.70460   0.63110   1.000
    C99     C    0.25950   0.80060   0.56500   1.000
    H123    H    0.17800   0.83530   0.57150   1.000
    C100    C    0.34640   0.89990   0.54080   1.000
    H124    H    0.42750   0.88370   0.55970   1.000
    H125    H    0.31960   0.97820   0.55970   1.000
    N26     N    0.08580   0.64790   0.81820   1.000
    C101    C    0.15510   0.71610   0.83640   1.000
    C102    C    0.24320   0.80270   0.86190   1.000
    H126    H    0.30590   0.81250   0.82430   1.000
    H127    H    0.20410   0.88090   0.86930   1.000
    C103    C    0.30070   0.76090   0.93470   1.000
    H128    H    0.33430   0.67910   0.92810   1.000
    C104    C    0.40120   0.84700   0.95870   1.000
    H129    H    0.38600   0.92790   0.93980   1.000
    H130    H    0.47910   0.81880   0.93980   1.000
    N27     N    0.64580   0.08580   0.18200   1.000
    C105    C    0.71380   0.15450   0.16290   1.000
    C106    C    0.80040   0.24320   0.13800   1.000
    H131    H    0.80930   0.30590   0.17570   1.000
    H132    H    0.87900   0.20460   0.13110   1.000
    C107    C    0.75950   0.30060   0.06500   1.000
    H133    H    0.67800   0.33530   0.07150   1.000
    C108    C    0.84640   0.39990   0.04080   1.000
    H134    H    0.92750   0.38370   0.05970   1.000
    H135    H    0.81960   0.47820   0.05970   1.000
    N28     N    0.58580   0.14790   0.31820   1.000
    C109    C    0.65510   0.21610   0.33640   1.000
    C110    C    0.74320   0.30270   0.36190   1.000
    H136    H    0.80590   0.31250   0.32430   1.000
    H137    H    0.70410   0.38090   0.36930   1.000
    C111    C    0.80070   0.26090   0.43470   1.000
    H138    H    0.83430   0.17910   0.42810   1.000
    C112    C    0.90120   0.34700   0.45870   1.000
    H139    H    0.88600   0.42790   0.43980   1.000
    H140    H    0.97910   0.31880   0.43980   1.000
    N29     N    0.85420   0.41420   0.68200   1.000
    C113    C    0.78620   0.34550   0.66290   1.000
    C114    C    0.69960   0.25680   0.63800   1.000
    H141    H    0.69070   0.19410   0.67570   1.000
    H142    H    0.62100   0.29540   0.63110   1.000
    C115    C    0.74050   0.19940   0.56500   1.000
    H143    H    0.82200   0.16470   0.57150   1.000
    C116    C    0.65360   0.10010   0.54080   1.000
    H144    H    0.57250   0.11630   0.55970   1.000
    H145    H    0.68040   0.02180   0.55970   1.000
    N30     N    0.91420   0.35210   0.81820   1.000
    C117    C    0.84490   0.28390   0.83640   1.000
    C118    C    0.75680   0.19730   0.86190   1.000
    H146    H    0.69410   0.18750   0.82430   1.000
    H147    H    0.79590   0.11910   0.86930   1.000
    C119    C    0.69930   0.23910   0.93470   1.000
    H148    H    0.66570   0.32090   0.92810   1.000
    C120    C    0.59880   0.15300   0.95870   1.000
    H149    H    0.61400   0.07210   0.93980   1.000
    H150    H    0.52090   0.18120   0.93980   1.000
    N31     N    0.35420   0.91420   0.18200   1.000
    C121    C    0.28620   0.84550   0.16290   1.000
    C122    C    0.19960   0.75680   0.13800   1.000
    H151    H    0.19070   0.69410   0.17570   1.000
    H152    H    0.12100   0.79540   0.13110   1.000
    C123    C    0.24050   0.69940   0.06500   1.000
    H153    H    0.32200   0.66470   0.07150   1.000
    C124    C    0.15360   0.60010   0.04080   1.000
    H154    H    0.07250   0.61630   0.05970   1.000
    H155    H    0.18040   0.52180   0.05970   1.000
    N32     N    0.41420   0.85210   0.31820   1.000
    C125    C    0.34490   0.78390   0.33640   1.000
    C126    C    0.25680   0.69730   0.36190   1.000
    H156    H    0.19410   0.68750   0.32430   1.000
    H157    H    0.29590   0.61910   0.36930   1.000
    C127    C    0.19930   0.73910   0.43470   1.000
    H158    H    0.16570   0.82090   0.42810   1.000
    C128    C    0.09880   0.65300   0.45870   1.000
    H159    H    0.11400   0.57210   0.43980   1.000
    H160    H    0.02090   0.68120   0.43980   1.000
    Ag1     Ag   0.50000   0.00000   0.25000   1.000
    Ag2     Ag   0.00000   0.50000   0.25000   1.000
    Ag3     Ag   0.50000   0.00000   0.75000   1.000
    Ag4     Ag   0.00000   0.50000   0.75000   1.000
    C129    C    0.28400   0.25860   0.50000   1.000
    H161    H    0.33440   0.18620   0.50000   1.000
    H162    H    0.33580   0.33000   0.50000   1.000
    C130    C    0.78400   0.75860   0.00000   1.000
    H163    H    0.83440   0.68620   0.00000   1.000
    H164    H    0.83580   0.83000   0.00000   1.000
    C131    C    0.71600   0.74140   0.50000   1.000
    H165    H    0.66560   0.81380   0.50000   1.000
    H166    H    0.66420   0.67000   0.50000   1.000
    C132    C    0.21600   0.24140   0.00000   1.000
    H167    H    0.16560   0.31380   0.00000   1.000
    H168    H    0.16420   0.17000   0.00000   1.000
    C133    C    0.74140   0.28400   0.50000   1.000
    H169    H    0.81380   0.33440   0.50000   1.000
    H170    H    0.67000   0.33580   0.50000   1.000
    C134    C    0.24140   0.78400   0.00000   1.000
    H171    H    0.31380   0.83440   0.00000   1.000
    H172    H    0.17000   0.83580   0.00000   1.000
    C135    C    0.25860   0.71600   0.50000   1.000
    H173    H    0.18620   0.66560   0.50000   1.000
    H174    H    0.33000   0.66420   0.50000   1.000
    C136    C    0.75860   0.21600   0.00000   1.000
    H175    H    0.68620   0.16560   0.00000   1.000
    H176    H    0.83000   0.16420   0.00000   1.000
    C137    C    0.23900   0.21700   0.00000   1.000
    H177    H    0.31080   0.16530   0.00000   1.000
    H178    H    0.16700   0.16550   0.00000   1.000
    C138    C    0.73900   0.71700   0.50000   1.000
    H179    H    0.81080   0.66530   0.50000   1.000
    H180    H    0.66700   0.66550   0.50000   1.000
    C139    C    0.76100   0.78300   0.00000   1.000
    H181    H    0.68920   0.83470   0.00000   1.000
    H182    H    0.83300   0.83450   0.00000   1.000
    C140    C    0.26100   0.28300   0.50000   1.000
    H183    H    0.18920   0.33470   0.50000   1.000
    H184    H    0.33300   0.33450   0.50000   1.000
    C141    C    0.78300   0.23900   0.00000   1.000
    H185    H    0.83470   0.31080   0.00000   1.000
    H186    H    0.83450   0.16700   0.00000   1.000
    C142    C    0.28300   0.73900   0.50000   1.000
    H187    H    0.33470   0.81080   0.50000   1.000
    H188    H    0.33450   0.66700   0.50000   1.000
    C143    C    0.21700   0.76100   0.00000   1.000
    H189    H    0.16530   0.68920   0.00000   1.000
    H190    H    0.16550   0.83300   0.00000   1.000
    C144    C    0.71700   0.26100   0.50000   1.000
    H191    H    0.66530   0.18920   0.50000   1.000
    H192    H    0.66550   0.33300   0.50000   1.000
