# CIF file generated by openbabel 2.4.1, see http://openbabel.sf.net
data_I
_chemical_name_common 'RACZIG_clean'
_cell_length_a 6.3964
_cell_length_b 8.9842
_cell_length_c 26.376
_cell_angle_alpha 90
_cell_angle_beta 90
_cell_angle_gamma 90
_space_group_name_H-M_alt 'P 1'
_space_group_name_Hall 'P 1'
loop_
    _symmetry_equiv_pos_as_xyz
    x,y,z
loop_
    _atom_site_label
    _atom_site_type_symbol
    _atom_site_fract_x
    _atom_site_fract_y
    _atom_site_fract_z
    _atom_site_occupancy
    Zn1     Zn   0.00000   0.00000   0.71344   1.000
    Zn2     Zn   0.50000   0.00000   0.78656   1.000
    Zn3     Zn   0.00000   0.00000   0.28656   1.000
    Zn4     Zn   0.50000   0.00000   0.21344   1.000
    H1      H    0.75010   0.87840   0.62560   1.000
    H2      H    0.74520   0.87390   0.53940   1.000
    H3      H    0.25010   0.12160   0.87440   1.000
    H4      H    0.24520   0.12610   0.96060   1.000
    H5      H    0.74990   0.87840   0.87440   1.000
    H6      H    0.75480   0.87390   0.96060   1.000
    H7      H    0.24990   0.12160   0.62560   1.000
    H8      H    0.25480   0.12610   0.53940   1.000
    H9      H    0.24990   0.12160   0.37440   1.000
    H10     H    0.25480   0.12610   0.46060   1.000
    H11     H    0.74990   0.87840   0.12560   1.000
    H12     H    0.75480   0.87390   0.03940   1.000
    H13     H    0.25010   0.12160   0.12560   1.000
    H14     H    0.24520   0.12610   0.03940   1.000
    H15     H    0.75010   0.87840   0.37440   1.000
    H16     H    0.74520   0.87390   0.46060   1.000
    C1      C    0.75460   0.49230   0.79427   1.000
    C2      C    0.75840   0.33850   0.79435   1.000
    C3      C    0.85450   0.92890   0.60809   1.000
    C4      C    0.85010   0.92610   0.55611   1.000
    C5      C    0.25460   0.50770   0.70573   1.000
    C6      C    0.25840   0.66150   0.70565   1.000
    C7      C    0.35450   0.07110   0.89191   1.000
    C8      C    0.35010   0.07390   0.94389   1.000
    C9      C    0.74540   0.49230   0.70573   1.000
    C10     C    0.74160   0.33850   0.70565   1.000
    C11     C    0.64550   0.92890   0.89191   1.000
    C12     C    0.64990   0.92610   0.94389   1.000
    C13     C    0.24540   0.50770   0.79427   1.000
    C14     C    0.24160   0.66150   0.79435   1.000
    C15     C    0.14550   0.07110   0.60809   1.000
    C16     C    0.14990   0.07390   0.55611   1.000
    C17     C    0.24540   0.50770   0.20573   1.000
    C18     C    0.24160   0.66150   0.20565   1.000
    C19     C    0.14550   0.07110   0.39191   1.000
    C20     C    0.14990   0.07390   0.44389   1.000
    C21     C    0.74540   0.49230   0.29427   1.000
    C22     C    0.74160   0.33850   0.29435   1.000
    C23     C    0.64550   0.92890   0.10809   1.000
    C24     C    0.64990   0.92610   0.05611   1.000
    C25     C    0.25460   0.50770   0.29427   1.000
    C26     C    0.25840   0.66150   0.29435   1.000
    C27     C    0.35450   0.07110   0.10809   1.000
    C28     C    0.35010   0.07390   0.05611   1.000
    C29     C    0.75460   0.49230   0.20573   1.000
    C30     C    0.75840   0.33850   0.20565   1.000
    C31     C    0.85450   0.92890   0.39191   1.000
    C32     C    0.85010   0.92610   0.44389   1.000
    C33     C    0.00000   0.00000   0.52860   1.000
    C34     C    0.50000   0.00000   0.97140   1.000
    C35     C    0.00000   0.00000   0.47140   1.000
    C36     C    0.50000   0.00000   0.02860   1.000
    C37     C    0.75000   0.74330   0.75000   1.000
    C38     C    0.75000   0.57540   0.75000   1.000
    C39     C    0.75000   0.25540   0.75000   1.000
    C40     C    0.25000   0.25670   0.75000   1.000
    C41     C    0.25000   0.42460   0.75000   1.000
    C42     C    0.25000   0.74460   0.75000   1.000
    C43     C    0.25000   0.25670   0.25000   1.000
    C44     C    0.25000   0.42460   0.25000   1.000
    C45     C    0.25000   0.74460   0.25000   1.000
    C46     C    0.75000   0.74330   0.25000   1.000
    C47     C    0.75000   0.57540   0.25000   1.000
    C48     C    0.75000   0.25540   0.25000   1.000
    N1      N    0.00000   0.00000   0.63475   1.000
    N2      N    0.50000   0.00000   0.86525   1.000
    N3      N    0.00000   0.00000   0.36525   1.000
    N4      N    0.50000   0.00000   0.13475   1.000
    O1      O    0.83620   0.80610   0.71311   1.000
    O2      O    0.33620   0.19390   0.78689   1.000
    O3      O    0.66380   0.80610   0.78689   1.000
    O4      O    0.16380   0.19390   0.71311   1.000
    O5      O    0.16380   0.19390   0.28689   1.000
    O6      O    0.66380   0.80610   0.21311   1.000
    O7      O    0.33620   0.19390   0.21311   1.000
    O8      O    0.83620   0.80610   0.28689   1.000
    O9      O    0.75000   0.10610   0.75000   1.000
    O10     O    0.25000   0.89390   0.75000   1.000
    O11     O    0.25000   0.89390   0.25000   1.000
    O12     O    0.75000   0.10610   0.25000   1.000
    F1      F    0.76380   0.56050   0.83999   1.000
    F2      F    0.77060   0.26630   0.83917   1.000
    F3      F    0.26380   0.43950   0.66001   1.000
    F4      F    0.27060   0.73370   0.66083   1.000
    F5      F    0.73620   0.56050   0.66001   1.000
    F6      F    0.72940   0.26630   0.66083   1.000
    F7      F    0.23620   0.43950   0.83999   1.000
    F8      F    0.22940   0.73370   0.83917   1.000
    F9      F    0.23620   0.43950   0.16001   1.000
    F10     F    0.22940   0.73370   0.16083   1.000
    F11     F    0.73620   0.56050   0.33999   1.000
    F12     F    0.72940   0.26630   0.33917   1.000
    F13     F    0.26380   0.43950   0.33999   1.000
    F14     F    0.27060   0.73370   0.33917   1.000
    F15     F    0.76380   0.56050   0.16001   1.000
    F16     F    0.77060   0.26630   0.16083   1.000
