# CIF file generated by openbabel 2.4.1, see http://openbabel.sf.net
data_I
_chemical_name_common 'image0'
_cell_length_a 16.0756
_cell_length_b 19.9994
_cell_length_c 28.3586
_cell_angle_alpha 104.731
_cell_angle_beta 91.047
_cell_angle_gamma 110.354
_space_group_name_H-M_alt 'P 1'
_space_group_name_Hall 'P 1'
loop_
    _symmetry_equiv_pos_as_xyz
    x,y,z
loop_
    _atom_site_label
    _atom_site_type_symbol
    _atom_site_fract_x
    _atom_site_fract_y
    _atom_site_fract_z
    _atom_site_occupancy
    Zn1     Zn   0.02644   0.42550   0.11438   1.000
    O1      O    0.12630   0.41080   0.07360   1.000
    C1      C    0.35100   0.55290   0.08250   1.000
    H1      H    0.40970   0.55730   0.07510   1.000
    Zn2     Zn   0.10575   0.63583   0.16491   1.000
    O2      O    0.10080   0.53430   0.12330   1.000
    C2      C    0.28250   0.48100   0.07040   1.000
    Zn3     Zn   0.28372   0.77806   0.26822   1.000
    O3      O    0.22880   0.67030   0.13920   1.000
    C3      C    0.19720   0.47700   0.08340   1.000
    Zn4     Zn   0.45169   0.76684   0.36053   1.000
    O4      O    0.33920   0.75980   0.20380   1.000
    C4      C    0.18050   0.54110   0.10860   1.000
    Zn5     Zn   0.50968   0.61003   0.38794   1.000
    O5      O    0.39930   0.77400   0.29600   1.000
    C5      C    0.25020   0.61150   0.11800   1.000
    Zn6     Zn   0.42788   0.40047   0.33558   1.000
    O6      O    0.54570   0.74640   0.31740   1.000
    C6      C    0.33490   0.61660   0.10480   1.000
    Zn7     Zn   0.24959   0.25855   0.23241   1.000
    O7      O    0.58460   0.64870   0.33490   1.000
    C7      C    0.41020   0.69220   0.11830   1.000
    H2      H    0.38160   0.72920   0.11800   1.000
    Zn8     Zn   0.08263   0.26767   0.13994   1.000
    O8      O    0.49860   0.50970   0.34320   1.000
    C8      C    0.52370   0.69030   0.18270   1.000
    H3      H    0.54930   0.66760   0.15640   1.000
    O9      O    0.48170   0.38940   0.27040   1.000
    C9      C    0.45200   0.71080   0.17140   1.000
    O10     O    0.36910   0.30100   0.20560   1.000
    C10     C    0.41360   0.74050   0.20990   1.000
    O11     O    0.20050   0.27160   0.16910   1.000
    C11     C    0.44250   0.75120   0.25980   1.000
    O12     O    0.16230   0.31090   0.09050   1.000
    C12     C    0.51840   0.73290   0.26780   1.000
    O13     O    0.95810   0.45300   0.17090   1.000
    C13     C    0.55960   0.70160   0.23100   1.000
    O14     O    0.02260   0.34320   0.14540   1.000
    C14     C    0.63590   0.67850   0.24270   1.000
    H4      H    0.66820   0.71250   0.27520   1.000
    O15     O    0.02730   0.25840   0.20460   1.000
    C15     C    0.58120   0.53780   0.21080   1.000
    H5      H    0.59670   0.54450   0.17970   1.000
    O16     O    0.13380   0.25210   0.26260   1.000
    C16     C    0.59580   0.59900   0.24900   1.000
    O17     O    0.30540   0.32650   0.30140   1.000
    C17     C    0.57240   0.59040   0.29390   1.000
    O18     O    0.35070   0.42990   0.38950   1.000
    C18     C    0.53110   0.51880   0.30080   1.000
    O19     O    0.40400   0.56110   0.42334   1.000
    C19     C    0.52010   0.45630   0.26150   1.000
    O20     O    0.44470   0.68280   0.39140   1.000
    C20     C    0.54430   0.46480   0.21510   1.000
    O21     O    0.33070   0.75290   0.38780   1.000
    C21     C    0.52300   0.39570   0.17260   1.000
    H6      H    0.52450   0.35510   0.18680   1.000
    O22     O    0.22510   0.75980   0.32990   1.000
    C22     C    0.40990   0.39690   0.10890   1.000
    H7      H    0.45810   0.42820   0.09640   1.000
    O23     O    0.16080   0.70170   0.23370   1.000
    C23     C    0.42780   0.37130   0.14740   1.000
    O24     O    0.00720   0.58630   0.20240   1.000
    C24     C    0.35700   0.32650   0.16640   1.000
    C25     C    0.26910   0.30900   0.14800   1.000
    C26     C    0.25040   0.33300   0.10790   1.000
    C27     C    0.32030   0.37710   0.08750   1.000
    C28     C    0.29910   0.40810   0.04780   1.000
    H8      H    0.24090   0.37130   0.02920   1.000
    C29     C    0.48360   0.70540   0.08430   1.000
    H9      H    0.50800   0.66530   0.07900   1.000
    H10     H    0.53280   0.75320   0.09960   1.000
    C30     C    0.44420   0.70670   0.03500   1.000
    H11     H    0.40900   0.65520   0.01560   1.000
    H12     H    0.40320   0.73430   0.04110   1.000
    C31     C    0.51500   0.74200   0.00590   1.000
    H13     H    0.48730   0.74190   0.97480   1.000
    H14     H    0.54960   0.79360   0.02480   1.000
    H15     H    0.55540   0.71440   0.99920   1.000
    C32     C    0.70600   0.68100   0.20580   1.000
    H16     H    0.67560   0.64560   0.17390   1.000
    H17     H    0.72730   0.73160   0.20070   1.000
    C33     C    0.78710   0.66500   0.21950   1.000
    H18     H    0.82450   0.66670   0.19220   1.000
    H19     H    0.76620   0.61360   0.22250   1.000
    C34     C    0.84600   0.71700   0.26740   1.000
    H20     H    0.89660   0.70200   0.27280   1.000
    H21     H    0.86950   0.76840   0.26460   1.000
    H22     H    0.81100   0.71520   0.29510   1.000
    C35     C    0.59320   0.40370   0.13570   1.000
    H23     H    0.57390   0.35750   0.10830   1.000
    H24     H    0.59480   0.44480   0.12190   1.000
    C36     C    0.68810   0.41880   0.15770   1.000
    H25     H    0.70980   0.46620   0.18420   1.000
    H26     H    0.68770   0.37850   0.17220   1.000
    C37     C    0.74840   0.42310   0.11900   1.000
    H27     H    0.80890   0.43280   0.13310   1.000
    H28     H    0.72710   0.37590   0.09310   1.000
    H29     H    0.74910   0.46340   0.10510   1.000
    C38     C    0.36670   0.41610   0.01020   1.000
    H30     H    0.37830   0.36940   0.99850   1.000
    H31     H    0.42390   0.45670   0.02550   1.000
    C39     C    0.32750   0.43350   0.96670   1.000
    H32     H    0.26740   0.39550   0.95370   1.000
    H33     H    0.32130   0.48240   0.97800   1.000
    C40     C    0.38530   0.43420   0.92810   1.000
    H34     H    0.35990   0.44530   0.90070   1.000
    H35     H    0.44450   0.47240   0.94090   1.000
    H36     H    0.39070   0.38560   0.91670   1.000
    C41     C    0.94370   0.39350   0.28420   1.000
    H37     H    0.92850   0.40590   0.31660   1.000
    C42     C    0.93530   0.43540   0.25290   1.000
    C43     C    0.96140   0.41600   0.20530   1.000
    C44     C    0.99440   0.35850   0.18980   1.000
    C45     C    0.99570   0.31750   0.22340   1.000
    C46     C    0.97350   0.33390   0.26980   1.000
    C47     C    0.98770   0.28980   0.30480   1.000
    H38     H    0.97970   0.23880   0.28430   1.000
    C48     C    0.10890   0.38310   0.37430   1.000
    H39     H    0.06440   0.39800   0.39050   1.000
    C49     C    0.08270   0.32560   0.33000   1.000
    C50     C    0.15060   0.30720   0.30740   1.000
    C51     C    0.24140   0.34230   0.32660   1.000
    C52     C    0.26270   0.39760   0.37130   1.000
    C53     C    0.19690   0.41850   0.39510   1.000
    C54     C    0.22650   0.48380   0.44280   1.000
    H40     H    0.28160   0.48340   0.45940   1.000
    C55     C    0.18960   0.59180   0.42590   1.000
    H41     H    0.13030   0.57040   0.43320   1.000
    C56     C    0.25090   0.55610   0.42980   1.000
    C57     C    0.33920   0.59010   0.42040   1.000
    C58     C    0.36370   0.65540   0.40430   1.000
    C59     C    0.30030   0.68770   0.40120   1.000
    C60     C    0.21360   0.65660   0.41190   1.000
    C61     C    0.14630   0.69370   0.40560   1.000
    H42     H    0.17970   0.74840   0.41260   1.000
    C62     C    0.02830   0.60110   0.33430   1.000
    H43     H    0.99950   0.57590   0.35710   1.000
    C63     C    0.10450   0.66360   0.35200   1.000
    C64     C    0.14670   0.69940   0.31720   1.000
    C65     C    0.11450   0.67090   0.26720   1.000
    C66     C    0.03400   0.60830   0.25170   1.000
    C67     C    0.99040   0.57230   0.28520   1.000
    C68     C    0.90900   0.50190   0.26810   1.000
    H44     H    0.87950   0.50490   0.23770   1.000
    C69     C    0.91780   0.28200   0.34080   1.000
    H45     H    0.85770   0.26420   0.32250   1.000
    H46     H    0.92840   0.33120   0.36390   1.000
    C70     C    0.92010   0.22730   0.37030   1.000
    H47     H    0.90960   0.17810   0.34720   1.000
    H48     H    0.98020   0.24510   0.38870   1.000
    C71     C    0.85100   0.21920   0.40610   1.000
    H49     H    0.85510   0.18410   0.42380   1.000
    H50     H    0.86180   0.26760   0.42950   1.000
    H51     H    0.79120   0.20060   0.38800   1.000
    C72     C    0.15380   0.47380   0.47900   1.000
    H52     H    0.09910   0.47580   0.46380   1.000
    H53     H    0.13850   0.42440   0.48470   1.000
    C73     C    0.18510   0.53350   0.52820   1.000
    H54     H    0.20720   0.58310   0.52220   1.000
    H55     H    0.23540   0.52770   0.54520   1.000
    C74     C    0.10940   0.52920   0.56180   1.000
    H56     H    0.13240   0.56830   0.59280   1.000
    H57     H    0.06000   0.53590   0.54540   1.000
    H58     H    0.08810   0.48060   0.56840   1.000
    C75     C    0.06940   0.68100   0.43740   1.000
    H59     H    0.02440   0.69930   0.42630   1.000
    H60     H    0.04010   0.62780   0.43450   1.000
    C76     C    0.10680   0.72400   0.49060   1.000
    H61     H    0.14970   0.77390   0.49170   1.000
    H62     H    0.14010   0.69780   0.50360   1.000
    C77     C    0.03480   0.73200   0.52380   1.000
    H63     H    0.06300   0.75990   0.55740   1.000
    H64     H    0.00250   0.75910   0.51160   1.000
    H65     H    0.99290   0.68300   0.52360   1.000
    C78     C    0.83970   0.49300   0.30390   1.000
    H66     H    0.86680   0.49140   0.33500   1.000
    H67     H    0.78960   0.44520   0.29020   1.000
    C79     C    0.80320   0.55630   0.31480   1.000
    H68     H    0.77060   0.55490   0.28440   1.000
    H69     H    0.85360   0.60460   0.32560   1.000
    C80     C    0.73950   0.54970   0.35510   1.000
    H70     H    0.71740   0.59070   0.36120   1.000
    H71     H    0.68900   0.50230   0.34420   1.000
    H72     H    0.77190   0.55190   0.38540   1.000
    N1      N    0.52470   0.86640   0.40260   1.000
    C81     C    0.53100   0.89550   0.45230   1.000
    H73     H    0.49990   0.86950   0.47430   1.000
    C82     C    0.58820   0.96660   0.46540   1.000
    H74     H    0.60370   0.99900   0.49780   1.000
    N2      N    0.61840   0.98300   0.42590   1.000
    C83     C    0.57760   0.92270   0.38960   1.000
    H75     H    0.58630   0.92070   0.35630   1.000
    C84     C    0.67290   0.05610   0.42290   1.000
    H76     H    0.69320   0.05190   0.38990   1.000
    H77     H    0.72670   0.07600   0.44730   1.000
    C85     C    0.62510   0.11030   0.43220   1.000
    C86     C    0.54470   0.09510   0.40670   1.000
    H78     H    0.52160   0.05190   0.37960   1.000
    C87     C    0.49710   0.13940   0.41890   1.000
    H79     H    0.43730   0.12350   0.40440   1.000
    C88     C    0.53580   0.20810   0.45260   1.000
    C89     C    0.62150   0.22660   0.47460   1.000
    H80     H    0.65190   0.27470   0.49620   1.000
    C90     C    0.66170   0.17700   0.46560   1.000
    H81     H    0.71810   0.18930   0.48340   1.000
    C91     C    0.48240   0.25910   0.46750   1.000
    H82     H    0.41760   0.22910   0.46160   1.000
    H83     H    0.49810   0.28590   0.50280   1.000
    N3      N    0.50340   0.31230   0.43820   1.000
    C92     C    0.57480   0.37770   0.44790   1.000
    H84     H    0.62270   0.39640   0.47350   1.000
    C93     C    0.56290   0.41050   0.41310   1.000
    H85     H    0.60020   0.45860   0.41180   1.000
    N4      N    0.49170   0.36590   0.38120   1.000
    C94     C    0.45630   0.30910   0.39710   1.000
    H86     H    0.40280   0.26900   0.38170   1.000
    N5      N    0.03440   0.66800   0.12130   1.000
    C95     C    0.95810   0.61610   0.09260   1.000
    H87     H    0.92770   0.56720   0.09510   1.000
    C96     C    0.93440   0.64750   0.06020   1.000
    H88     H    0.87920   0.62750   0.03970   1.000
    N6      N    0.99640   0.70700   0.06160   1.000
    C97     C    0.06200   0.71160   0.09440   1.000
    H89     H    0.12240   0.74400   0.09710   1.000
    C98     C    0.00320   0.75370   0.02910   1.000
    H90     H    0.97320   0.72220   0.99600   1.000
    H91     H    0.06700   0.77920   0.02600   1.000
    C99     C    0.96090   0.81180   0.04760   1.000
    C100    C    0.87860   0.80290   0.03000   1.000
    H92     H    0.84390   0.75780   0.00640   1.000
    C101    C    0.84390   0.85520   0.04440   1.000
    H93     H    0.78460   0.84600   0.03180   1.000
    C102    C    0.89270   0.92270   0.07760   1.000
    C103    C    0.97060   0.92590   0.10100   1.000
    H94     H    0.99650   0.96120   0.13170   1.000
    C104    C    0.00860   0.87860   0.07940   1.000
    H95     H    0.07120   0.89200   0.08650   1.000
    C105    C    0.84940   0.98080   0.09450   1.000
    H96     H    0.78900   0.96280   0.07640   1.000
    H97     H    0.84310   0.98870   0.13000   1.000
    N7      N    0.90500   0.05070   0.08550   1.000
    C106    C    0.92730   0.06210   0.04170   1.000
    H98     H    0.90300   0.02950   0.00980   1.000
    C107    C    0.99310   0.13150   0.05370   1.000
    H99     H    0.02690   0.15130   0.03010   1.000
    N8      N    0.00570   0.16750   0.09940   1.000
    C108    C    0.95800   0.11620   0.11940   1.000
    H100    H    0.95980   0.12330   0.15380   1.000
    N9      N    0.29190   0.88570   0.28240   1.000
    C109    C    0.37240   0.94290   0.28690   1.000
    H101    H    0.42880   0.93730   0.28600   1.000
    C110    C    0.36020   0.00890   0.29300   1.000
    H102    H    0.40460   0.05520   0.29340   1.000
    N10     N    0.27820   0.99630   0.29790   1.000
    C111    C    0.23880   0.92120   0.28750   1.000
    H103    H    0.17580   0.89680   0.28430   1.000
    C112    C    0.23600   0.04830   0.29480   1.000
    H104    H    0.17380   0.02010   0.27920   1.000
    H105    H    0.26780   0.07830   0.27320   1.000
    C113    C    0.23500   0.10090   0.34420   1.000
    C114    C    0.25100   0.08630   0.38650   1.000
    H106    H    0.27310   0.04810   0.38620   1.000
    C115    C    0.23490   0.12560   0.42920   1.000
    H107    H    0.23920   0.11190   0.45860   1.000
    C116    C    0.21260   0.18570   0.42940   1.000
    C117    C    0.17800   0.18800   0.38460   1.000
    H108    H    0.13290   0.20760   0.38210   1.000
    C118    C    0.21190   0.15970   0.34600   1.000
    H109    H    0.22030   0.18130   0.31950   1.000
    C119    C    0.19200   0.23310   0.47560   1.000
    H110    H    0.15080   0.25610   0.46670   1.000
    H111    H    0.16310   0.20180   0.49710   1.000
    N11     N    0.27510   0.29000   0.50110   1.000
    C120    C    0.31920   0.35160   0.48530   1.000
    H112    H    0.30460   0.36500   0.45730   1.000
    C121    C    0.39040   0.38820   0.52170   1.000
    H113    H    0.43510   0.43440   0.52220   1.000
    N12     N    0.39210   0.35500   0.55540   1.000
    C122    C    0.32090   0.29630   0.54500   1.000
    H114    H    0.30240   0.26250   0.56430   1.000
    H115    H    0.66640   0.71200   0.27570   1.000
    H116    H    0.98140   0.23960   0.28360   1.000
    H117    H    0.18130   0.74790   0.41140   1.000
    C123    C    0.53200   0.78220   0.08690   1.000
    H118    H    0.49200   0.80890   0.08210   1.000
    H119    H    0.55970   0.80280   0.12140   1.000
    C124    C    0.74500   0.77580   0.20780   1.000
    H120    H    0.77360   0.80580   0.24130   1.000
    H121    H    0.69520   0.79160   0.20000   1.000
    C125    C    0.82310   0.23200   0.31640   1.000
    H122    H    0.80590   0.25860   0.29530   1.000
    H123    H    0.82040   0.18320   0.29520   1.000
    C126    C    0.02560   0.73290   0.44440   1.000
    H124    H    0.06450   0.78590   0.45170   1.000
    H125    H    0.99340   0.71770   0.41100   1.000
    C127    C    0.95900   0.72300   0.48140   1.000
    H126    H    0.92270   0.75360   0.47990   1.000
    H127    H    0.91940   0.67100   0.47380   1.000
    H128    H    0.99050   0.73910   0.51450   1.000
    C128    C    0.75740   0.21900   0.35470   1.000
    H129    H    0.69680   0.19060   0.33800   1.000
    H130    H    0.77400   0.19240   0.37520   1.000
    H131    H    0.75950   0.26760   0.37530   1.000
    C129    C    0.81400   0.79000   0.17040   1.000
    H132    H    0.83690   0.84300   0.17210   1.000
    H133    H    0.86300   0.77520   0.17830   1.000
    H134    H    0.78460   0.76100   0.13710   1.000
    C130    C    0.60500   0.79600   0.05300   1.000
    H135    H    0.63820   0.84990   0.06050   1.000
    H136    H    0.64500   0.77120   0.05810   1.000
    H137    H    0.57730   0.77730   0.01880   1.000
    C131    C    0.47400   0.69950   0.07820   1.000
    H138    H    0.51340   0.67100   0.08010   1.000
    H139    H    0.43980   0.67930   0.04530   1.000
    C132    C    0.70640   0.69300   0.20610   1.000
    H140    H    0.75560   0.67750   0.21460   1.000
    H141    H    0.67850   0.66290   0.17250   1.000
    C133    C    0.91950   0.27700   0.34170   1.000
    H142    H    0.92190   0.32600   0.36250   1.000
    H143    H    0.93580   0.25080   0.36330   1.000
    C134    C    0.08330   0.68640   0.44560   1.000
    H144    H    0.04450   0.63360   0.44000   1.000
    H145    H    0.11860   0.70360   0.47820   1.000
    N13     N    0.24360   0.15420   0.22140   1.000
    C135    C    0.16080   0.09660   0.21020   1.000
    C136    C    0.15420   0.02540   0.18450   1.000
    C137    C    0.23040   0.01190   0.17000   1.000
    C138    C    0.31320   0.06960   0.18120   1.000
    C139    C    0.31980   0.14070   0.20690   1.000
    N14     N    0.92800   0.39020   0.05870   1.000
    C140    C    0.86120   0.32070   0.05110   1.000
    C141    C    0.79130   0.29620   0.01380   1.000
    C142    C    0.78830   0.34110   0.98400   1.000
    C143    C    0.85510   0.41050   0.99160   1.000
    C144    C    0.92500   0.43510   0.02900   1.000
    N15     N    0.31700   0.88800   0.27200   1.000
    N16     N    0.39100   0.36090   0.55840   1.000
    C145    C    0.40000   0.39490   0.52080   1.000
    C146    C    0.33180   0.36900   0.48230   1.000
    C147    C    0.25450   0.30900   0.48160   1.000
    C148    C    0.24550   0.27490   0.51920   1.000
    C149    C    0.31400   0.30100   0.55770   1.000
    Zn9     Zn   0.97356   0.57450   0.88562   1.000
    O25     O    0.87370   0.58920   0.92640   1.000
    C150    C    0.64900   0.44710   0.91750   1.000
    H146    H    0.59030   0.44270   0.92490   1.000
    Zn10    Zn   0.89425   0.36417   0.83509   1.000
    O26     O    0.89920   0.46570   0.87670   1.000
    C151    C    0.71750   0.51900   0.92960   1.000
    Zn11    Zn   0.71628   0.22194   0.73178   1.000
    O27     O    0.77120   0.32970   0.86080   1.000
    C152    C    0.80280   0.52300   0.91660   1.000
    Zn12    Zn   0.54831   0.23316   0.63947   1.000
    O28     O    0.66080   0.24020   0.79620   1.000
    C153    C    0.81950   0.45890   0.89140   1.000
    Zn13    Zn   0.49032   0.38997   0.61206   1.000
    O29     O    0.60070   0.22600   0.70400   1.000
    C154    C    0.74980   0.38850   0.88200   1.000
    Zn14    Zn   0.57212   0.59953   0.66442   1.000
    O30     O    0.45430   0.25360   0.68260   1.000
    C155    C    0.66510   0.38340   0.89520   1.000
    Zn15    Zn   0.75041   0.74145   0.76759   1.000
    O31     O    0.41540   0.35130   0.66510   1.000
    C156    C    0.58980   0.30780   0.88170   1.000
    H147    H    0.61840   0.27080   0.88200   1.000
    Zn16    Zn   0.91737   0.73233   0.86006   1.000
    O32     O    0.50140   0.49030   0.65680   1.000
    C157    C    0.47630   0.30970   0.81730   1.000
    H148    H    0.45070   0.33240   0.84360   1.000
    O33     O    0.51830   0.61060   0.72960   1.000
    C158    C    0.54800   0.28920   0.82860   1.000
    O34     O    0.63090   0.69900   0.79440   1.000
    C159    C    0.58640   0.25950   0.79010   1.000
    O35     O    0.79950   0.72840   0.83090   1.000
    C160    C    0.55750   0.24880   0.74020   1.000
    O36     O    0.83770   0.68910   0.90950   1.000
    C161    C    0.48160   0.26710   0.73220   1.000
    O37     O    0.04190   0.54700   0.82910   1.000
    C162    C    0.44040   0.29840   0.76900   1.000
    O38     O    0.97740   0.65680   0.85460   1.000
    C163    C    0.36410   0.32150   0.75730   1.000
    H149    H    0.33180   0.28750   0.72480   1.000
    O39     O    0.97270   0.74160   0.79540   1.000
    C164    C    0.41880   0.46220   0.78920   1.000
    H150    H    0.40330   0.45550   0.82030   1.000
    O40     O    0.86620   0.74790   0.73740   1.000
    C165    C    0.40420   0.40100   0.75100   1.000
    O41     O    0.69460   0.67350   0.69860   1.000
    C166    C    0.42760   0.40960   0.70610   1.000
    O42     O    0.64930   0.57010   0.61050   1.000
    C167    C    0.46890   0.48120   0.69920   1.000
    O43     O    0.59600   0.43890   0.57666   1.000
    C168    C    0.47990   0.54370   0.73850   1.000
    O44     O    0.55530   0.31720   0.60860   1.000
    C169    C    0.45570   0.53520   0.78490   1.000
    O45     O    0.66930   0.24710   0.61220   1.000
    C170    C    0.47700   0.60430   0.82740   1.000
    H151    H    0.47550   0.64490   0.81320   1.000
    O46     O    0.77490   0.24020   0.67010   1.000
    C171    C    0.59010   0.60310   0.89110   1.000
    H152    H    0.54190   0.57180   0.90360   1.000
    O47     O    0.83920   0.29830   0.76630   1.000
    C172    C    0.57220   0.62870   0.85260   1.000
    O48     O    0.99280   0.41370   0.79760   1.000
    C173    C    0.64300   0.67350   0.83360   1.000
    C174    C    0.73090   0.69100   0.85200   1.000
    C175    C    0.74960   0.66700   0.89210   1.000
    C176    C    0.67970   0.62290   0.91250   1.000
    C177    C    0.70090   0.59190   0.95220   1.000
    H153    H    0.75910   0.62870   0.97080   1.000
    C178    C    0.51640   0.29460   0.91570   1.000
    H154    H    0.49200   0.33470   0.92100   1.000
    H155    H    0.46720   0.24680   0.90040   1.000
    C179    C    0.55580   0.29330   0.96500   1.000
    H156    H    0.59100   0.34480   0.98440   1.000
    H157    H    0.59680   0.26570   0.95890   1.000
    C180    C    0.48500   0.25800   0.99410   1.000
    H158    H    0.51270   0.25810   0.02520   1.000
    H159    H    0.45040   0.20640   0.97520   1.000
    H160    H    0.44460   0.28560   0.00080   1.000
    C181    C    0.29400   0.31900   0.79420   1.000
    H161    H    0.32440   0.35440   0.82610   1.000
    H162    H    0.27270   0.26840   0.79930   1.000
    C182    C    0.21290   0.33500   0.78050   1.000
    H163    H    0.17550   0.33330   0.80780   1.000
    H164    H    0.23380   0.38640   0.77750   1.000
    C183    C    0.15400   0.28300   0.73260   1.000
    H165    H    0.10340   0.29800   0.72720   1.000
    H166    H    0.13050   0.23160   0.73540   1.000
    H167    H    0.18900   0.28480   0.70490   1.000
    C184    C    0.40680   0.59630   0.86430   1.000
    H168    H    0.42610   0.64250   0.89170   1.000
    H169    H    0.40520   0.55520   0.87810   1.000
    C185    C    0.31190   0.58120   0.84230   1.000
    H170    H    0.29020   0.53380   0.81580   1.000
    H171    H    0.31230   0.62150   0.82780   1.000
    C186    C    0.25160   0.57690   0.88100   1.000
    H172    H    0.19110   0.56720   0.86690   1.000
    H173    H    0.27290   0.62410   0.90690   1.000
    H174    H    0.25090   0.53660   0.89490   1.000
    C187    C    0.63330   0.58390   0.98980   1.000
    H175    H    0.62170   0.63060   0.00150   1.000
    H176    H    0.57610   0.54330   0.97450   1.000
    C188    C    0.67250   0.56650   0.03330   1.000
    H177    H    0.73260   0.60450   0.04630   1.000
    H178    H    0.67870   0.51760   0.02200   1.000
    C189    C    0.61470   0.56580   0.07190   1.000
    H179    H    0.64010   0.55470   0.09930   1.000
    H180    H    0.55550   0.52760   0.05910   1.000
    H181    H    0.60930   0.61440   0.08330   1.000
    C190    C    0.05630   0.60650   0.71580   1.000
    H182    H    0.07150   0.59410   0.68340   1.000
    C191    C    0.06470   0.56460   0.74710   1.000
    C192    C    0.03860   0.58400   0.79470   1.000
    C193    C    0.00560   0.64150   0.81020   1.000
    C194    C    0.00430   0.68250   0.77660   1.000
    C195    C    0.02650   0.66610   0.73020   1.000
    C196    C    0.01230   0.71020   0.69520   1.000
    H183    H    0.02030   0.76120   0.71570   1.000
    C197    C    0.89110   0.61690   0.62570   1.000
    H184    H    0.93560   0.60200   0.60950   1.000
    C198    C    0.91730   0.67440   0.67000   1.000
    C199    C    0.84940   0.69280   0.69260   1.000
    C200    C    0.75860   0.65770   0.67340   1.000
    C201    C    0.73730   0.60240   0.62870   1.000
    C202    C    0.80310   0.58150   0.60490   1.000
    C203    C    0.77350   0.51620   0.55720   1.000
    H185    H    0.71840   0.51660   0.54060   1.000
    C204    C    0.81040   0.40820   0.57410   1.000
    H186    H    0.86970   0.42960   0.56680   1.000
    C205    C    0.74910   0.44390   0.57020   1.000
    C206    C    0.66080   0.40990   0.57960   1.000
    C207    C    0.63630   0.34460   0.59570   1.000
    C208    C    0.69970   0.31230   0.59880   1.000
    C209    C    0.78640   0.34340   0.58810   1.000
    C210    C    0.85370   0.30630   0.59440   1.000
    H187    H    0.82030   0.25160   0.58740   1.000
    C211    C    0.97170   0.39890   0.66570   1.000
    H188    H    0.00050   0.42410   0.64290   1.000
    C212    C    0.89550   0.33640   0.64800   1.000
    C213    C    0.85330   0.30060   0.68280   1.000
    C214    C    0.88550   0.32910   0.73280   1.000
    C215    C    0.96600   0.39170   0.74830   1.000
    C216    C    0.00960   0.42770   0.71480   1.000
    C217    C    0.09100   0.49810   0.73190   1.000
    H189    H    0.12050   0.49510   0.76230   1.000
    C218    C    0.08220   0.71800   0.65920   1.000
    H190    H    0.14230   0.73580   0.67750   1.000
    H191    H    0.07160   0.66880   0.63610   1.000
    C219    C    0.07990   0.77270   0.62970   1.000
    H192    H    0.09040   0.82190   0.65280   1.000
    H193    H    0.01980   0.75490   0.61130   1.000
    C220    C    0.14900   0.78080   0.59390   1.000
    H194    H    0.14490   0.81590   0.57620   1.000
    H195    H    0.13820   0.73240   0.57050   1.000
    H196    H    0.20880   0.79940   0.61200   1.000
    C221    C    0.84620   0.52620   0.52100   1.000
    H197    H    0.90090   0.52420   0.53620   1.000
    H198    H    0.86150   0.57560   0.51530   1.000
    C222    C    0.81490   0.46650   0.47180   1.000
    H199    H    0.79280   0.41690   0.47780   1.000
    H200    H    0.76460   0.47230   0.45480   1.000
    C223    C    0.89060   0.47080   0.43820   1.000
    H201    H    0.86760   0.43170   0.40720   1.000
    H202    H    0.94000   0.46410   0.45460   1.000
    H203    H    0.91190   0.51940   0.43160   1.000
    C224    C    0.93060   0.31900   0.56260   1.000
    H204    H    0.97560   0.30070   0.57370   1.000
    H205    H    0.95990   0.37220   0.56550   1.000
    C225    C    0.89320   0.27600   0.50940   1.000
    H206    H    0.85030   0.22610   0.50830   1.000
    H207    H    0.85990   0.30220   0.49640   1.000
    C226    C    0.96520   0.26800   0.47620   1.000
    H208    H    0.93700   0.24010   0.44260   1.000
    H209    H    0.99750   0.24090   0.48840   1.000
    H210    H    0.00710   0.31700   0.47640   1.000
    C227    C    0.16030   0.50700   0.69610   1.000
    H211    H    0.13320   0.50860   0.66500   1.000
    H212    H    0.21040   0.55480   0.70980   1.000
    C228    C    0.19680   0.44370   0.68520   1.000
    H213    H    0.22940   0.44510   0.71560   1.000
    H214    H    0.14640   0.39540   0.67440   1.000
    C229    C    0.26050   0.45030   0.64490   1.000
    H215    H    0.28260   0.40930   0.63880   1.000
    H216    H    0.31100   0.49770   0.65580   1.000
    H217    H    0.22810   0.44810   0.61460   1.000
    N17     N    0.47530   0.13360   0.59740   1.000
    C230    C    0.46900   0.10450   0.54770   1.000
    H218    H    0.50010   0.13050   0.52570   1.000
    C231    C    0.41180   0.03340   0.53460   1.000
    H219    H    0.39630   0.00100   0.50220   1.000
    N18     N    0.38160   0.01700   0.57410   1.000
    C232    C    0.42240   0.07730   0.61040   1.000
    H220    H    0.41370   0.07930   0.64370   1.000
    C233    C    0.32710   0.94390   0.57710   1.000
    H221    H    0.30680   0.94810   0.61010   1.000
    H222    H    0.27330   0.92400   0.55270   1.000
    C234    C    0.37490   0.88970   0.56780   1.000
    C235    C    0.45530   0.90490   0.59330   1.000
    H223    H    0.47840   0.94810   0.62040   1.000
    C236    C    0.50290   0.86060   0.58110   1.000
    H224    H    0.56270   0.87650   0.59560   1.000
    C237    C    0.46420   0.79190   0.54740   1.000
    C238    C    0.37850   0.77340   0.52540   1.000
    H225    H    0.34810   0.72530   0.50380   1.000
    C239    C    0.33830   0.82300   0.53440   1.000
    H226    H    0.28190   0.81070   0.51660   1.000
    C240    C    0.51760   0.74090   0.53250   1.000
    H227    H    0.58240   0.77090   0.53840   1.000
    H228    H    0.50190   0.71410   0.49720   1.000
    N19     N    0.49660   0.68770   0.56180   1.000
    C241    C    0.42520   0.62230   0.55210   1.000
    H229    H    0.37730   0.60360   0.52650   1.000
    C242    C    0.43710   0.58950   0.58690   1.000
    H230    H    0.39980   0.54140   0.58820   1.000
    N20     N    0.50830   0.63410   0.61880   1.000
    C243    C    0.54370   0.69090   0.60290   1.000
    H231    H    0.59720   0.73100   0.61830   1.000
    N21     N    0.96560   0.33200   0.87870   1.000
    C244    C    0.04190   0.38390   0.90740   1.000
    H232    H    0.07230   0.43280   0.90490   1.000
    C245    C    0.06560   0.35250   0.93980   1.000
    H233    H    0.12080   0.37250   0.96030   1.000
    N22     N    0.00360   0.29300   0.93840   1.000
    C246    C    0.93800   0.28840   0.90560   1.000
    H234    H    0.87760   0.25600   0.90290   1.000
    C247    C    0.99680   0.24630   0.97090   1.000
    H235    H    0.02680   0.27780   0.00400   1.000
    H236    H    0.93300   0.22080   0.97400   1.000
    C248    C    0.03910   0.18820   0.95240   1.000
    C249    C    0.12140   0.19710   0.97000   1.000
    H237    H    0.15610   0.24220   0.99360   1.000
    C250    C    0.15610   0.14480   0.95560   1.000
    H238    H    0.21540   0.15400   0.96820   1.000
    C251    C    0.10730   0.07730   0.92240   1.000
    C252    C    0.02940   0.07410   0.89900   1.000
    H239    H    0.00350   0.03880   0.86830   1.000
    C253    C    0.99140   0.12140   0.92060   1.000
    H240    H    0.92880   0.10800   0.91350   1.000
    C254    C    0.15060   0.01920   0.90550   1.000
    H241    H    0.21100   0.03720   0.92360   1.000
    H242    H    0.15690   0.01130   0.87000   1.000
    N23     N    0.09500   0.94930   0.91450   1.000
    C255    C    0.07270   0.93790   0.95830   1.000
    H243    H    0.09700   0.97050   0.99020   1.000
    C256    C    0.00690   0.86850   0.94630   1.000
    H244    H    0.97310   0.84870   0.96990   1.000
    N24     N    0.99430   0.83250   0.90060   1.000
    C257    C    0.04200   0.88380   0.88060   1.000
    H245    H    0.04020   0.87670   0.84620   1.000
    N25     N    0.70810   0.11430   0.71760   1.000
    C258    C    0.62760   0.05710   0.71310   1.000
    H246    H    0.57120   0.06270   0.71400   1.000
    C259    C    0.63980   0.99110   0.70700   1.000
    H247    H    0.59540   0.94480   0.70660   1.000
    N26     N    0.72180   0.00370   0.70210   1.000
    C260    C    0.76120   0.07880   0.71250   1.000
    H248    H    0.82420   0.10320   0.71570   1.000
    C261    C    0.76400   0.95170   0.70520   1.000
    H249    H    0.82620   0.97990   0.72080   1.000
    H250    H    0.73220   0.92170   0.72680   1.000
    C262    C    0.76500   0.89910   0.65580   1.000
    C263    C    0.74900   0.91370   0.61350   1.000
    H251    H    0.72690   0.95190   0.61380   1.000
    C264    C    0.76510   0.87440   0.57080   1.000
    H252    H    0.76080   0.88810   0.54140   1.000
    C265    C    0.78740   0.81430   0.57060   1.000
    C266    C    0.82200   0.81200   0.61540   1.000
    H253    H    0.86710   0.79240   0.61790   1.000
    C267    C    0.78810   0.84030   0.65400   1.000
    H254    H    0.77970   0.81870   0.68050   1.000
    C268    C    0.80800   0.76690   0.52440   1.000
    H255    H    0.84920   0.74390   0.53330   1.000
    H256    H    0.83690   0.79820   0.50290   1.000
    N27     N    0.72490   0.71000   0.49890   1.000
    C269    C    0.68080   0.64840   0.51470   1.000
    H257    H    0.69540   0.63500   0.54270   1.000
    C270    C    0.60960   0.61180   0.47830   1.000
    H258    H    0.56490   0.56560   0.47780   1.000
    N28     N    0.60790   0.64500   0.44460   1.000
    C271    C    0.67910   0.70370   0.45500   1.000
    H259    H    0.69760   0.73750   0.43570   1.000
    H260    H    0.33360   0.28800   0.72430   1.000
    H261    H    0.01860   0.76040   0.71640   1.000
    H262    H    0.81870   0.25210   0.58860   1.000
    C272    C    0.46800   0.21780   0.91310   1.000
    H263    H    0.50800   0.19110   0.91790   1.000
    H264    H    0.44030   0.19720   0.87860   1.000
    C273    C    0.25500   0.22420   0.79220   1.000
    H265    H    0.22640   0.19420   0.75870   1.000
    H266    H    0.30480   0.20840   0.80000   1.000
    C274    C    0.17690   0.76800   0.68360   1.000
    H267    H    0.19410   0.74140   0.70470   1.000
    H268    H    0.17960   0.81680   0.70480   1.000
    C275    C    0.97440   0.26710   0.55560   1.000
    H269    H    0.93550   0.21410   0.54830   1.000
    H270    H    0.00660   0.28230   0.58900   1.000
    C276    C    0.04100   0.27700   0.51860   1.000
    H271    H    0.07730   0.24640   0.52010   1.000
    H272    H    0.08060   0.32900   0.52620   1.000
    H273    H    0.00950   0.26090   0.48550   1.000
    C277    C    0.24260   0.78100   0.64530   1.000
    H274    H    0.30320   0.80940   0.66200   1.000
    H275    H    0.22600   0.80760   0.62480   1.000
    H276    H    0.24050   0.73240   0.62470   1.000
    C278    C    0.18600   0.21000   0.82960   1.000
    H277    H    0.16310   0.15700   0.82790   1.000
    H278    H    0.13700   0.22480   0.82170   1.000
    H279    H    0.21540   0.23900   0.86290   1.000
    C279    C    0.39500   0.20400   0.94700   1.000
    H280    H    0.36180   0.15010   0.93950   1.000
    H281    H    0.35500   0.22880   0.94190   1.000
    H282    H    0.42270   0.22270   0.98120   1.000
    C280    C    0.52600   0.30050   0.92180   1.000
    H283    H    0.48660   0.32900   0.91990   1.000
    H284    H    0.56020   0.32070   0.95470   1.000
    C281    C    0.29360   0.30700   0.79390   1.000
    H285    H    0.24440   0.32250   0.78540   1.000
    H286    H    0.32150   0.33710   0.82750   1.000
    C282    C    0.08050   0.72300   0.65830   1.000
    H287    H    0.07810   0.67400   0.63750   1.000
    H288    H    0.06420   0.74920   0.63670   1.000
    C283    C    0.91670   0.31360   0.55440   1.000
    H289    H    0.95550   0.36640   0.56000   1.000
    H290    H    0.88140   0.29640   0.52180   1.000
    N29     N    0.75640   0.84580   0.77860   1.000
    C284    C    0.83920   0.90340   0.78980   1.000
    C285    C    0.84580   0.97460   0.81550   1.000
    C286    C    0.76960   0.98810   0.83000   1.000
    C287    C    0.68680   0.93040   0.81880   1.000
    C288    C    0.68020   0.85930   0.79310   1.000
    N30     N    0.07200   0.60980   0.94130   1.000
    C289    C    0.13880   0.67930   0.94890   1.000
    C290    C    0.20870   0.70380   0.98620   1.000
    C291    C    0.21170   0.65890   0.01600   1.000
    C292    C    0.14490   0.58950   0.00840   1.000
    C293    C    0.07500   0.56490   0.97100   1.000
    N31     N    0.68300   0.11200   0.72800   1.000
    N32     N    0.60900   0.63910   0.44160   1.000
    C294    C    0.60000   0.60510   0.47920   1.000
    C295    C    0.66820   0.63100   0.51770   1.000
    C296    C    0.74550   0.69100   0.51840   1.000
    C297    C    0.75450   0.72510   0.48080   1.000
    C298    C    0.68600   0.69900   0.44230   1.000
