# CIF file generated by openbabel 2.4.1, see http://openbabel.sf.net
data_I
_chemical_name_common 'image0'
_cell_length_a 15.7886
_cell_length_b 15.9425
_cell_length_c 16.3286
_cell_angle_alpha 90
_cell_angle_beta 90
_cell_angle_gamma 90
_space_group_name_H-M_alt 'P 1'
_space_group_name_Hall 'P 1'
loop_
    _symmetry_equiv_pos_as_xyz
    x,y,z
loop_
    _atom_site_label
    _atom_site_type_symbol
    _atom_site_fract_x
    _atom_site_fract_y
    _atom_site_fract_z
    _atom_site_occupancy
    Zn1     Zn   0.29782   0.18239   0.16349   1.000
    Zn2     Zn   0.35625   0.84386   0.32429   1.000
    N1      N    0.35690   0.95080   0.26370   1.000
    N2      N    0.33860   0.07490   0.21410   1.000
    N3      N    0.20170   0.14190   0.93120   1.000
    C1      C    0.30180   0.01400   0.24910   1.000
    N4      N    0.59950   0.75310   0.35240   1.000
    N5      N    0.47580   0.81010   0.34990   1.000
    N6      N    0.25290   0.15080   0.05370   1.000
    C2      C    0.53380   0.77200   0.30570   1.000
    C3      C    0.22180   0.19290   0.99030   1.000
    N7      N    0.42360   0.05370   0.20660   1.000
    N8      N    0.43470   0.98140   0.23800   1.000
    N9      N    0.50360   0.81250   0.42840   1.000
    N10     N    0.57910   0.77690   0.43060   1.000
    C4      C    0.20990   0.00720   0.26110   1.000
    H1      H    0.19720   0.95570   0.28900   1.000
    H2      H    0.19040   0.05370   0.29330   1.000
    H3      H    0.18210   0.00770   0.20880   1.000
    C5      C    0.53000   0.75880   0.21910   1.000
    H4      H    0.57990   0.72960   0.20140   1.000
    H5      H    0.48080   0.72600   0.20600   1.000
    H6      H    0.52670   0.81200   0.19170   1.000
    N11     N    0.22220   0.06230   0.95910   1.000
    C6      C    0.20930   0.28330   0.98930   1.000
    H7      H    0.22920   0.30680   0.03990   1.000
    H8      H    0.24040   0.30720   0.94450   1.000
    H9      H    0.15010   0.29550   0.98280   1.000
    N12     N    0.25020   0.06980   0.03410   1.000
    Zn3     Zn   0.20218   0.81761   0.66349   1.000
    Zn4     Zn   0.14375   0.15614   0.82429   1.000
    N13     N    0.14310   0.04920   0.76370   1.000
    N14     N    0.16140   0.92510   0.71410   1.000
    N15     N    0.29830   0.85810   0.43120   1.000
    C7      C    0.19820   0.98600   0.74910   1.000
    N16     N    0.90050   0.24690   0.85240   1.000
    N17     N    0.02420   0.18990   0.84990   1.000
    N18     N    0.24710   0.84920   0.55370   1.000
    C8      C    0.96620   0.22800   0.80570   1.000
    C9      C    0.27820   0.80710   0.49030   1.000
    N19     N    0.07640   0.94630   0.70660   1.000
    N20     N    0.06530   0.01860   0.73800   1.000
    N21     N    0.99640   0.18750   0.92840   1.000
    N22     N    0.92090   0.22310   0.93060   1.000
    C10     C    0.29010   0.99280   0.76110   1.000
    H10     H    0.30280   0.04430   0.78900   1.000
    H11     H    0.30960   0.94630   0.79330   1.000
    H12     H    0.31790   0.99230   0.70880   1.000
    C11     C    0.97000   0.24120   0.71910   1.000
    H13     H    0.92010   0.27040   0.70140   1.000
    H14     H    0.01920   0.27400   0.70600   1.000
    H15     H    0.97330   0.18800   0.69170   1.000
    N23     N    0.27780   0.93770   0.45910   1.000
    C12     C    0.29070   0.71670   0.48930   1.000
    H16     H    0.27080   0.69320   0.53990   1.000
    H17     H    0.25960   0.69280   0.44450   1.000
    H18     H    0.34990   0.70450   0.48280   1.000
    N24     N    0.24980   0.93020   0.53410   1.000
    Zn5     Zn   0.70218   0.68239   0.33651   1.000
    Zn6     Zn   0.64375   0.34386   0.17571   1.000
    N25     N    0.64310   0.45080   0.23630   1.000
    N26     N    0.66140   0.57490   0.28590   1.000
    N27     N    0.79830   0.64190   0.56880   1.000
    C13     C    0.69820   0.51400   0.25090   1.000
    N28     N    0.40050   0.25310   0.14760   1.000
    N29     N    0.52420   0.31010   0.15010   1.000
    N30     N    0.74710   0.65080   0.44630   1.000
    C14     C    0.46620   0.27200   0.19430   1.000
    C15     C    0.77820   0.69290   0.50970   1.000
    N31     N    0.57640   0.55370   0.29340   1.000
    N32     N    0.56530   0.48140   0.26200   1.000
    N33     N    0.49640   0.31250   0.07160   1.000
    N34     N    0.42090   0.27690   0.06940   1.000
    C16     C    0.79010   0.50720   0.23890   1.000
    H19     H    0.80280   0.45570   0.21100   1.000
    H20     H    0.80960   0.55370   0.20670   1.000
    H21     H    0.81790   0.50770   0.29120   1.000
    C17     C    0.47000   0.25880   0.28090   1.000
    H22     H    0.42010   0.22960   0.29860   1.000
    H23     H    0.51920   0.22600   0.29400   1.000
    H24     H    0.47330   0.31200   0.30830   1.000
    N35     N    0.77780   0.56230   0.54090   1.000
    C18     C    0.79070   0.78330   0.51070   1.000
    H25     H    0.77080   0.80680   0.46010   1.000
    H26     H    0.75960   0.80720   0.55550   1.000
    H27     H    0.84990   0.79550   0.51720   1.000
    N36     N    0.74980   0.56980   0.46590   1.000
    Zn7     Zn   0.79782   0.31761   0.83651   1.000
    Zn8     Zn   0.85625   0.65614   0.67571   1.000
    N37     N    0.85690   0.54920   0.73630   1.000
    N38     N    0.83860   0.42510   0.78590   1.000
    N39     N    0.70170   0.35810   0.06880   1.000
    C19     C    0.80180   0.48600   0.75090   1.000
    N40     N    0.09950   0.74690   0.64760   1.000
    N41     N    0.97580   0.68990   0.65010   1.000
    N42     N    0.75290   0.34920   0.94630   1.000
    C20     C    0.03380   0.72800   0.69430   1.000
    C21     C    0.72180   0.30710   0.00970   1.000
    N43     N    0.92360   0.44630   0.79340   1.000
    N44     N    0.93470   0.51860   0.76200   1.000
    N45     N    0.00360   0.68750   0.57160   1.000
    N46     N    0.07910   0.72310   0.56940   1.000
    C22     C    0.70990   0.49280   0.73890   1.000
    H28     H    0.69720   0.54430   0.71100   1.000
    H29     H    0.69040   0.44630   0.70670   1.000
    H30     H    0.68210   0.49230   0.79120   1.000
    C23     C    0.03000   0.74120   0.78090   1.000
    H31     H    0.07990   0.77040   0.79860   1.000
    H32     H    0.98080   0.77400   0.79400   1.000
    H33     H    0.02670   0.68800   0.80830   1.000
    N47     N    0.72220   0.43770   0.04090   1.000
    C24     C    0.70930   0.21670   0.01070   1.000
    H34     H    0.72920   0.19320   0.96010   1.000
    H35     H    0.74040   0.19280   0.05550   1.000
    H36     H    0.65010   0.20450   0.01720   1.000
    N48     N    0.75020   0.43020   0.96590   1.000
