# CIF file generated by openbabel 2.4.1, see http://openbabel.sf.net
data_I
_chemical_name_common 'image0'
_cell_length_a 31.535
_cell_length_b 31.535
_cell_length_c 31.535
_cell_angle_alpha 90
_cell_angle_beta 90
_cell_angle_gamma 90
_space_group_name_H-M_alt 'P 1'
_space_group_name_Hall 'P 1'
loop_
    _symmetry_equiv_pos_as_xyz
    x,y,z
loop_
    _atom_site_label
    _atom_site_type_symbol
    _atom_site_fract_x
    _atom_site_fract_y
    _atom_site_fract_z
    _atom_site_occupancy
    N1      N    0.97160   0.70545   0.15900   1.000
    C1      C    0.98435   0.66507   0.16780   1.000
    H1      H    0.00960   0.65260   0.15900   1.000
    N2      N    0.95360   0.64624   0.19160   1.000
    C2      C    0.92190   0.67500   0.19760   1.000
    H2      H    0.89700   0.67040   0.21280   1.000
    C3      C    0.93300   0.71157   0.17750   1.000
    H3      H    0.91700   0.73630   0.17650   1.000
    C4      C    0.95320   0.60010   0.20320   1.000
    C5      C    0.91540   0.58020   0.21350   1.000
    H4      H    0.88970   0.59410   0.20920   1.000
    C6      C    0.91580   0.53950   0.23020   1.000
    H5      H    0.89040   0.52610   0.23720   1.000
    C7      C    0.95400   0.51880   0.23660   1.000
    C8      C    0.99190   0.53870   0.22630   1.000
    H6      H    0.01750   0.52470   0.23060   1.000
    C9      C    0.99140   0.57930   0.20960   1.000
    H7      H    0.01680   0.59270   0.20270   1.000
    C10     C    0.95770   0.60770   0.21240   1.000
    C11     C    0.93380   0.59780   0.24790   1.000
    H8      H    0.91680   0.61840   0.26050   1.000
    C12     C    0.93540   0.55730   0.26480   1.000
    H9      H    0.91940   0.55060   0.28870   1.000
    C13     C    0.96070   0.52660   0.24610   1.000
    C14     C    0.98460   0.53660   0.21050   1.000
    H10     H    0.00160   0.51600   0.19800   1.000
    C15     C    0.98300   0.57710   0.19370   1.000
    H11     H    0.99900   0.58380   0.16980   1.000
    N3      N    0.47160   0.20545   0.65900   1.000
    C16     C    0.48435   0.16507   0.66780   1.000
    H12     H    0.50960   0.15260   0.65900   1.000
    N4      N    0.45360   0.14624   0.69160   1.000
    C17     C    0.42190   0.17500   0.69760   1.000
    H13     H    0.39700   0.17040   0.71280   1.000
    C18     C    0.43300   0.21157   0.67750   1.000
    H14     H    0.41700   0.23630   0.67650   1.000
    C19     C    0.45320   0.10010   0.70320   1.000
    C20     C    0.41540   0.08020   0.71350   1.000
    H15     H    0.38970   0.09410   0.70920   1.000
    C21     C    0.41580   0.03950   0.73020   1.000
    H16     H    0.39040   0.02610   0.73720   1.000
    C22     C    0.45400   0.01880   0.73660   1.000
    C23     C    0.49190   0.03870   0.72630   1.000
    H17     H    0.51750   0.02470   0.73060   1.000
    C24     C    0.49140   0.07930   0.70960   1.000
    H18     H    0.51680   0.09270   0.70270   1.000
    C25     C    0.45770   0.10770   0.71240   1.000
    C26     C    0.43380   0.09780   0.74790   1.000
    H19     H    0.41680   0.11840   0.76050   1.000
    C27     C    0.43540   0.05730   0.76480   1.000
    H20     H    0.41940   0.05060   0.78870   1.000
    C28     C    0.46070   0.02660   0.74610   1.000
    C29     C    0.48460   0.03660   0.71050   1.000
    H21     H    0.50160   0.01600   0.69800   1.000
    C30     C    0.48300   0.07710   0.69370   1.000
    H22     H    0.49900   0.08380   0.66980   1.000
    N5      N    0.52840   0.29455   0.65900   1.000
    C31     C    0.51565   0.33493   0.66780   1.000
    H23     H    0.49040   0.34740   0.65900   1.000
    N6      N    0.54640   0.35376   0.69160   1.000
    C32     C    0.57810   0.32500   0.69760   1.000
    H24     H    0.60300   0.32960   0.71280   1.000
    C33     C    0.56700   0.28843   0.67750   1.000
    H25     H    0.58300   0.26370   0.67650   1.000
    C34     C    0.54680   0.39990   0.70320   1.000
    C35     C    0.58460   0.41980   0.71350   1.000
    H26     H    0.61030   0.40590   0.70920   1.000
    C36     C    0.58420   0.46050   0.73020   1.000
    H27     H    0.60960   0.47390   0.73720   1.000
    C37     C    0.54600   0.48120   0.73660   1.000
    C38     C    0.50810   0.46130   0.72630   1.000
    H28     H    0.48250   0.47530   0.73060   1.000
    C39     C    0.50860   0.42070   0.70960   1.000
    H29     H    0.48320   0.40730   0.70270   1.000
    C40     C    0.54230   0.39230   0.71240   1.000
    C41     C    0.56620   0.40220   0.74790   1.000
    H30     H    0.58320   0.38160   0.76050   1.000
    C42     C    0.56460   0.44270   0.76480   1.000
    H31     H    0.58060   0.44940   0.78870   1.000
    C43     C    0.53930   0.47340   0.74610   1.000
    C44     C    0.51540   0.46340   0.71050   1.000
    H32     H    0.49840   0.48400   0.69800   1.000
    C45     C    0.51700   0.42290   0.69370   1.000
    H33     H    0.50100   0.41620   0.66980   1.000
    N7      N    0.02840   0.79455   0.15900   1.000
    C46     C    0.01565   0.83493   0.16780   1.000
    H34     H    0.99040   0.84740   0.15900   1.000
    N8      N    0.04640   0.85376   0.19160   1.000
    C47     C    0.07810   0.82500   0.19760   1.000
    H35     H    0.10300   0.82960   0.21280   1.000
    C48     C    0.06700   0.78843   0.17750   1.000
    H36     H    0.08300   0.76370   0.17650   1.000
    C49     C    0.04680   0.89990   0.20320   1.000
    C50     C    0.08460   0.91980   0.21350   1.000
    H37     H    0.11030   0.90590   0.20920   1.000
    C51     C    0.08420   0.96050   0.23020   1.000
    H38     H    0.10960   0.97390   0.23720   1.000
    C52     C    0.04600   0.98120   0.23660   1.000
    C53     C    0.00810   0.96130   0.22630   1.000
    H39     H    0.98250   0.97530   0.23060   1.000
    C54     C    0.00860   0.92070   0.20960   1.000
    H40     H    0.98320   0.90730   0.20270   1.000
    C55     C    0.04230   0.89230   0.21240   1.000
    C56     C    0.06620   0.90220   0.24790   1.000
    H41     H    0.08320   0.88160   0.26050   1.000
    C57     C    0.06460   0.94270   0.26480   1.000
    H42     H    0.08060   0.94940   0.28870   1.000
    C58     C    0.03930   0.97340   0.24610   1.000
    C59     C    0.01540   0.96340   0.21050   1.000
    H43     H    0.99840   0.98400   0.19800   1.000
    C60     C    0.01700   0.92290   0.19370   1.000
    H44     H    0.00100   0.91620   0.16980   1.000
    N9      N    0.02840   0.20545   0.34100   1.000
    C61     C    0.01565   0.16507   0.33220   1.000
    H45     H    0.99040   0.15260   0.34100   1.000
    N10     N    0.04640   0.14624   0.30840   1.000
    C62     C    0.07810   0.17500   0.30240   1.000
    H46     H    0.10300   0.17040   0.28720   1.000
    C63     C    0.06700   0.21157   0.32250   1.000
    H47     H    0.08300   0.23630   0.32350   1.000
    C64     C    0.04680   0.10010   0.29680   1.000
    C65     C    0.08460   0.08020   0.28650   1.000
    H48     H    0.11030   0.09410   0.29080   1.000
    C66     C    0.08420   0.03950   0.26980   1.000
    H49     H    0.10960   0.02610   0.26280   1.000
    C67     C    0.04600   0.01880   0.26340   1.000
    C68     C    0.00810   0.03870   0.27370   1.000
    H50     H    0.98250   0.02470   0.26940   1.000
    C69     C    0.00860   0.07930   0.29040   1.000
    H51     H    0.98320   0.09270   0.29730   1.000
    C70     C    0.04230   0.10770   0.28760   1.000
    C71     C    0.06620   0.09780   0.25210   1.000
    H52     H    0.08320   0.11840   0.23950   1.000
    C72     C    0.06460   0.05730   0.23520   1.000
    H53     H    0.08060   0.05060   0.21130   1.000
    C73     C    0.03930   0.02660   0.25390   1.000
    C74     C    0.01540   0.03660   0.28950   1.000
    H54     H    0.99840   0.01600   0.30200   1.000
    C75     C    0.01700   0.07710   0.30630   1.000
    H55     H    0.00100   0.08380   0.33020   1.000
    N11     N    0.52840   0.70545   0.84100   1.000
    C76     C    0.51565   0.66507   0.83220   1.000
    H56     H    0.49040   0.65260   0.84100   1.000
    N12     N    0.54640   0.64624   0.80840   1.000
    C77     C    0.57810   0.67500   0.80240   1.000
    H57     H    0.60300   0.67040   0.78720   1.000
    C78     C    0.56700   0.71157   0.82250   1.000
    H58     H    0.58300   0.73630   0.82350   1.000
    C79     C    0.54680   0.60010   0.79680   1.000
    C80     C    0.58460   0.58020   0.78650   1.000
    H59     H    0.61030   0.59410   0.79080   1.000
    C81     C    0.58420   0.53950   0.76980   1.000
    H60     H    0.60960   0.52610   0.76280   1.000
    C82     C    0.54600   0.51880   0.76340   1.000
    C83     C    0.50810   0.53870   0.77370   1.000
    H61     H    0.48250   0.52470   0.76940   1.000
    C84     C    0.50860   0.57930   0.79040   1.000
    H62     H    0.48320   0.59270   0.79730   1.000
    C85     C    0.54230   0.60770   0.78760   1.000
    C86     C    0.56620   0.59780   0.75210   1.000
    H63     H    0.58320   0.61840   0.73950   1.000
    C87     C    0.56460   0.55730   0.73520   1.000
    H64     H    0.58060   0.55060   0.71130   1.000
    C88     C    0.53930   0.52660   0.75390   1.000
    C89     C    0.51540   0.53660   0.78950   1.000
    H65     H    0.49840   0.51600   0.80200   1.000
    C90     C    0.51700   0.57710   0.80630   1.000
    H66     H    0.50100   0.58380   0.83020   1.000
    N13     N    0.47160   0.79455   0.84100   1.000
    C91     C    0.48435   0.83493   0.83220   1.000
    H67     H    0.50960   0.84740   0.84100   1.000
    N14     N    0.45360   0.85376   0.80840   1.000
    C92     C    0.42190   0.82500   0.80240   1.000
    H68     H    0.39700   0.82960   0.78720   1.000
    C93     C    0.43300   0.78843   0.82250   1.000
    H69     H    0.41700   0.76370   0.82350   1.000
    C94     C    0.45320   0.89990   0.79680   1.000
    C95     C    0.41540   0.91980   0.78650   1.000
    H70     H    0.38970   0.90590   0.79080   1.000
    C96     C    0.41580   0.96050   0.76980   1.000
    H71     H    0.39040   0.97390   0.76280   1.000
    C97     C    0.45400   0.98120   0.76340   1.000
    C98     C    0.49190   0.96130   0.77370   1.000
    H72     H    0.51750   0.97530   0.76940   1.000
    C99     C    0.49140   0.92070   0.79040   1.000
    H73     H    0.51680   0.90730   0.79730   1.000
    C100    C    0.45770   0.89230   0.78760   1.000
    C101    C    0.43380   0.90220   0.75210   1.000
    H74     H    0.41680   0.88160   0.73950   1.000
    C102    C    0.43540   0.94270   0.73520   1.000
    H75     H    0.41940   0.94940   0.71130   1.000
    C103    C    0.46070   0.97340   0.75390   1.000
    C104    C    0.48460   0.96340   0.78950   1.000
    H76     H    0.50160   0.98400   0.80200   1.000
    C105    C    0.48300   0.92290   0.80630   1.000
    H77     H    0.49900   0.91620   0.83020   1.000
    N15     N    0.97160   0.29455   0.34100   1.000
    C106    C    0.98435   0.33493   0.33220   1.000
    H78     H    0.00960   0.34740   0.34100   1.000
    N16     N    0.95360   0.35376   0.30840   1.000
    C107    C    0.92190   0.32500   0.30240   1.000
    H79     H    0.89700   0.32960   0.28720   1.000
    C108    C    0.93300   0.28843   0.32250   1.000
    H80     H    0.91700   0.26370   0.32350   1.000
    C109    C    0.95320   0.39990   0.29680   1.000
    C110    C    0.91540   0.41980   0.28650   1.000
    H81     H    0.88970   0.40590   0.29080   1.000
    C111    C    0.91580   0.46050   0.26980   1.000
    H82     H    0.89040   0.47390   0.26280   1.000
    C112    C    0.95400   0.48120   0.26340   1.000
    C113    C    0.99190   0.46130   0.27370   1.000
    H83     H    0.01750   0.47530   0.26940   1.000
    C114    C    0.99140   0.42070   0.29040   1.000
    H84     H    0.01680   0.40730   0.29730   1.000
    C115    C    0.95770   0.39230   0.28760   1.000
    C116    C    0.93380   0.40220   0.25210   1.000
    H85     H    0.91680   0.38160   0.23950   1.000
    C117    C    0.93540   0.44270   0.23520   1.000
    H86     H    0.91940   0.44940   0.21130   1.000
    C118    C    0.96070   0.47340   0.25390   1.000
    C119    C    0.98460   0.46340   0.28950   1.000
    H87     H    0.00160   0.48400   0.30200   1.000
    C120    C    0.98300   0.42290   0.30630   1.000
    H88     H    0.99900   0.41620   0.33020   1.000
    N17     N    0.54455   0.77840   0.90900   1.000
    C121    C    0.58493   0.76565   0.91780   1.000
    H89     H    0.59740   0.74040   0.90900   1.000
    N18     N    0.60376   0.79640   0.94160   1.000
    C122    C    0.57500   0.82810   0.94760   1.000
    H90     H    0.57960   0.85300   0.96280   1.000
    C123    C    0.53843   0.81700   0.92750   1.000
    H91     H    0.51370   0.83300   0.92650   1.000
    C124    C    0.64990   0.79680   0.95320   1.000
    C125    C    0.66980   0.83460   0.96350   1.000
    H92     H    0.65590   0.86030   0.95920   1.000
    C126    C    0.71050   0.83420   0.98020   1.000
    H93     H    0.72390   0.85960   0.98720   1.000
    C127    C    0.73120   0.79600   0.98660   1.000
    C128    C    0.71130   0.75810   0.97630   1.000
    H94     H    0.72530   0.73250   0.98060   1.000
    C129    C    0.67070   0.75860   0.95960   1.000
    H95     H    0.65730   0.73320   0.95270   1.000
    C130    C    0.64230   0.79230   0.96240   1.000
    C131    C    0.65220   0.81620   0.99790   1.000
    H96     H    0.63160   0.83320   0.01050   1.000
    C132    C    0.69270   0.81460   0.01480   1.000
    H97     H    0.69940   0.83060   0.03870   1.000
    C133    C    0.72340   0.78930   0.99610   1.000
    C134    C    0.71340   0.76540   0.96050   1.000
    H98     H    0.73400   0.74840   0.94800   1.000
    C135    C    0.67290   0.76700   0.94370   1.000
    H99     H    0.66620   0.75100   0.91980   1.000
    N19     N    0.04455   0.27840   0.40900   1.000
    C136    C    0.08493   0.26565   0.41780   1.000
    H100    H    0.09740   0.24040   0.40900   1.000
    N20     N    0.10376   0.29640   0.44160   1.000
    C137    C    0.07500   0.32810   0.44760   1.000
    H101    H    0.07960   0.35300   0.46280   1.000
    C138    C    0.03843   0.31700   0.42750   1.000
    H102    H    0.01370   0.33300   0.42650   1.000
    C139    C    0.14990   0.29680   0.45320   1.000
    C140    C    0.16980   0.33460   0.46350   1.000
    H103    H    0.15590   0.36030   0.45920   1.000
    C141    C    0.21050   0.33420   0.48020   1.000
    H104    H    0.22390   0.35960   0.48720   1.000
    C142    C    0.23120   0.29600   0.48660   1.000
    C143    C    0.21130   0.25810   0.47630   1.000
    H105    H    0.22530   0.23250   0.48060   1.000
    C144    C    0.17070   0.25860   0.45960   1.000
    H106    H    0.15730   0.23320   0.45270   1.000
    C145    C    0.14230   0.29230   0.46240   1.000
    C146    C    0.15220   0.31620   0.49790   1.000
    H107    H    0.13160   0.33320   0.51050   1.000
    C147    C    0.19270   0.31460   0.51480   1.000
    H108    H    0.19940   0.33060   0.53870   1.000
    C148    C    0.22340   0.28930   0.49610   1.000
    C149    C    0.21340   0.26540   0.46050   1.000
    H109    H    0.23400   0.24840   0.44800   1.000
    C150    C    0.17290   0.26700   0.44370   1.000
    H110    H    0.16620   0.25100   0.41980   1.000
    N21     N    0.95545   0.22160   0.40900   1.000
    C151    C    0.91507   0.23435   0.41780   1.000
    H111    H    0.90260   0.25960   0.40900   1.000
    N22     N    0.89624   0.20360   0.44160   1.000
    C152    C    0.92500   0.17190   0.44760   1.000
    H112    H    0.92040   0.14700   0.46280   1.000
    C153    C    0.96157   0.18300   0.42750   1.000
    H113    H    0.98630   0.16700   0.42650   1.000
    C154    C    0.85010   0.20320   0.45320   1.000
    C155    C    0.83020   0.16540   0.46350   1.000
    H114    H    0.84410   0.13970   0.45920   1.000
    C156    C    0.78950   0.16580   0.48020   1.000
    H115    H    0.77610   0.14040   0.48720   1.000
    C157    C    0.76880   0.20400   0.48660   1.000
    C158    C    0.78870   0.24190   0.47630   1.000
    H116    H    0.77470   0.26750   0.48060   1.000
    C159    C    0.82930   0.24140   0.45960   1.000
    H117    H    0.84270   0.26680   0.45270   1.000
    C160    C    0.85770   0.20770   0.46240   1.000
    C161    C    0.84780   0.18380   0.49790   1.000
    H118    H    0.86840   0.16680   0.51050   1.000
    C162    C    0.80730   0.18540   0.51480   1.000
    H119    H    0.80060   0.16940   0.53870   1.000
    C163    C    0.77660   0.21070   0.49610   1.000
    C164    C    0.78660   0.23460   0.46050   1.000
    H120    H    0.76600   0.25160   0.44800   1.000
    C165    C    0.82710   0.23300   0.44370   1.000
    H121    H    0.83380   0.24900   0.41980   1.000
    N23     N    0.45545   0.72160   0.90900   1.000
    C166    C    0.41507   0.73435   0.91780   1.000
    H122    H    0.40260   0.75960   0.90900   1.000
    N24     N    0.39624   0.70360   0.94160   1.000
    C167    C    0.42500   0.67190   0.94760   1.000
    H123    H    0.42040   0.64700   0.96280   1.000
    C168    C    0.46157   0.68300   0.92750   1.000
    H124    H    0.48630   0.66700   0.92650   1.000
    C169    C    0.35010   0.70320   0.95320   1.000
    C170    C    0.33020   0.66540   0.96350   1.000
    H125    H    0.34410   0.63970   0.95920   1.000
    C171    C    0.28950   0.66580   0.98020   1.000
    H126    H    0.27610   0.64040   0.98720   1.000
    C172    C    0.26880   0.70400   0.98660   1.000
    C173    C    0.28870   0.74190   0.97630   1.000
    H127    H    0.27470   0.76750   0.98060   1.000
    C174    C    0.32930   0.74140   0.95960   1.000
    H128    H    0.34270   0.76680   0.95270   1.000
    C175    C    0.35770   0.70770   0.96240   1.000
    C176    C    0.34780   0.68380   0.99790   1.000
    H129    H    0.36840   0.66680   0.01050   1.000
    C177    C    0.30730   0.68540   0.01480   1.000
    H130    H    0.30060   0.66940   0.03870   1.000
    C178    C    0.27660   0.71070   0.99610   1.000
    C179    C    0.28660   0.73460   0.96050   1.000
    H131    H    0.26600   0.75160   0.94800   1.000
    C180    C    0.32710   0.73300   0.94370   1.000
    H132    H    0.33380   0.74900   0.91980   1.000
    N25     N    0.04455   0.72160   0.09100   1.000
    C181    C    0.08493   0.73435   0.08220   1.000
    H133    H    0.09740   0.75960   0.09100   1.000
    N26     N    0.10376   0.70360   0.05840   1.000
    C182    C    0.07500   0.67190   0.05240   1.000
    H134    H    0.07960   0.64700   0.03720   1.000
    C183    C    0.03843   0.68300   0.07250   1.000
    H135    H    0.01370   0.66700   0.07350   1.000
    C184    C    0.14990   0.70320   0.04680   1.000
    C185    C    0.16980   0.66540   0.03650   1.000
    H136    H    0.15590   0.63970   0.04080   1.000
    C186    C    0.21050   0.66580   0.01980   1.000
    H137    H    0.22390   0.64040   0.01280   1.000
    C187    C    0.23120   0.70400   0.01340   1.000
    C188    C    0.21130   0.74190   0.02370   1.000
    H138    H    0.22530   0.76750   0.01940   1.000
    C189    C    0.17070   0.74140   0.04040   1.000
    H139    H    0.15730   0.76680   0.04730   1.000
    C190    C    0.14230   0.70770   0.03760   1.000
    C191    C    0.15220   0.68380   0.00210   1.000
    H140    H    0.13160   0.66680   0.98950   1.000
    C192    C    0.19270   0.68540   0.98520   1.000
    H141    H    0.19940   0.66940   0.96130   1.000
    C193    C    0.22340   0.71070   0.00390   1.000
    C194    C    0.21340   0.73460   0.03950   1.000
    H142    H    0.23400   0.75160   0.05200   1.000
    C195    C    0.17290   0.73300   0.05630   1.000
    H143    H    0.16620   0.74900   0.08020   1.000
    N27     N    0.54455   0.22160   0.59100   1.000
    C196    C    0.58493   0.23435   0.58220   1.000
    H144    H    0.59740   0.25960   0.59100   1.000
    N28     N    0.60376   0.20360   0.55840   1.000
    C197    C    0.57500   0.17190   0.55240   1.000
    H145    H    0.57960   0.14700   0.53720   1.000
    C198    C    0.53843   0.18300   0.57250   1.000
    H146    H    0.51370   0.16700   0.57350   1.000
    C199    C    0.64990   0.20320   0.54680   1.000
    C200    C    0.66980   0.16540   0.53650   1.000
    H147    H    0.65590   0.13970   0.54080   1.000
    C201    C    0.71050   0.16580   0.51980   1.000
    H148    H    0.72390   0.14040   0.51280   1.000
    C202    C    0.73120   0.20400   0.51340   1.000
    C203    C    0.71130   0.24190   0.52370   1.000
    H149    H    0.72530   0.26750   0.51940   1.000
    C204    C    0.67070   0.24140   0.54040   1.000
    H150    H    0.65730   0.26680   0.54730   1.000
    C205    C    0.64230   0.20770   0.53760   1.000
    C206    C    0.65220   0.18380   0.50210   1.000
    H151    H    0.63160   0.16680   0.48950   1.000
    C207    C    0.69270   0.18540   0.48520   1.000
    H152    H    0.69940   0.16940   0.46130   1.000
    C208    C    0.72340   0.21070   0.50390   1.000
    C209    C    0.71340   0.23460   0.53950   1.000
    H153    H    0.73400   0.25160   0.55200   1.000
    C210    C    0.67290   0.23300   0.55630   1.000
    H154    H    0.66620   0.24900   0.58020   1.000
    N29     N    0.45545   0.27840   0.59100   1.000
    C211    C    0.41507   0.26565   0.58220   1.000
    H155    H    0.40260   0.24040   0.59100   1.000
    N30     N    0.39624   0.29640   0.55840   1.000
    C212    C    0.42500   0.32810   0.55240   1.000
    H156    H    0.42040   0.35300   0.53720   1.000
    C213    C    0.46157   0.31700   0.57250   1.000
    H157    H    0.48630   0.33300   0.57350   1.000
    C214    C    0.35010   0.29680   0.54680   1.000
    C215    C    0.33020   0.33460   0.53650   1.000
    H158    H    0.34410   0.36030   0.54080   1.000
    C216    C    0.28950   0.33420   0.51980   1.000
    H159    H    0.27610   0.35960   0.51280   1.000
    C217    C    0.26880   0.29600   0.51340   1.000
    C218    C    0.28870   0.25810   0.52370   1.000
    H160    H    0.27470   0.23250   0.51940   1.000
    C219    C    0.32930   0.25860   0.54040   1.000
    H161    H    0.34270   0.23320   0.54730   1.000
    C220    C    0.35770   0.29230   0.53760   1.000
    C221    C    0.34780   0.31620   0.50210   1.000
    H162    H    0.36840   0.33320   0.48950   1.000
    C222    C    0.30730   0.31460   0.48520   1.000
    H163    H    0.30060   0.33060   0.46130   1.000
    C223    C    0.27660   0.28930   0.50390   1.000
    C224    C    0.28660   0.26540   0.53950   1.000
    H164    H    0.26600   0.24840   0.55200   1.000
    C225    C    0.32710   0.26700   0.55630   1.000
    H165    H    0.33380   0.25100   0.58020   1.000
    N31     N    0.95545   0.77840   0.09100   1.000
    C226    C    0.91507   0.76565   0.08220   1.000
    H166    H    0.90260   0.74040   0.09100   1.000
    N32     N    0.89624   0.79640   0.05840   1.000
    C227    C    0.92500   0.82810   0.05240   1.000
    H167    H    0.92040   0.85300   0.03720   1.000
    C228    C    0.96157   0.81700   0.07250   1.000
    H168    H    0.98630   0.83300   0.07350   1.000
    C229    C    0.85010   0.79680   0.04680   1.000
    C230    C    0.83020   0.83460   0.03650   1.000
    H169    H    0.84410   0.86030   0.04080   1.000
    C231    C    0.78950   0.83420   0.01980   1.000
    H170    H    0.77610   0.85960   0.01280   1.000
    C232    C    0.76880   0.79600   0.01340   1.000
    C233    C    0.78870   0.75810   0.02370   1.000
    H171    H    0.77470   0.73250   0.01940   1.000
    C234    C    0.82930   0.75860   0.04040   1.000
    H172    H    0.84270   0.73320   0.04730   1.000
    C235    C    0.85770   0.79230   0.03760   1.000
    C236    C    0.84780   0.81620   0.00210   1.000
    H173    H    0.86840   0.83320   0.98950   1.000
    C237    C    0.80730   0.81460   0.98520   1.000
    H174    H    0.80060   0.83060   0.96130   1.000
    C238    C    0.77660   0.78930   0.00390   1.000
    C239    C    0.78660   0.76540   0.03950   1.000
    H175    H    0.76600   0.74840   0.05200   1.000
    C240    C    0.82710   0.76700   0.05630   1.000
    H176    H    0.83380   0.75100   0.08020   1.000
    Zn1     Zn   0.00000   0.75000   0.12500   1.000
    Zn2     Zn   0.50000   0.25000   0.62500   1.000
    Zn3     Zn   0.00000   0.25000   0.37500   1.000
    Zn4     Zn   0.50000   0.75000   0.87500   1.000
    N33     N    0.15900   0.97160   0.70545   1.000
    C241    C    0.16780   0.98435   0.66507   1.000
    H177    H    0.15900   0.00960   0.65260   1.000
    N34     N    0.19160   0.95360   0.64624   1.000
    C242    C    0.19760   0.92190   0.67500   1.000
    H178    H    0.21280   0.89700   0.67040   1.000
    C243    C    0.17750   0.93300   0.71157   1.000
    H179    H    0.17650   0.91700   0.73630   1.000
    C244    C    0.20320   0.95320   0.60010   1.000
    C245    C    0.21350   0.91540   0.58020   1.000
    H180    H    0.20920   0.88970   0.59410   1.000
    C246    C    0.23020   0.91580   0.53950   1.000
    H181    H    0.23720   0.89040   0.52610   1.000
    C247    C    0.23660   0.95400   0.51880   1.000
    C248    C    0.22630   0.99190   0.53870   1.000
    H182    H    0.23060   0.01750   0.52470   1.000
    C249    C    0.20960   0.99140   0.57930   1.000
    H183    H    0.20270   0.01680   0.59270   1.000
    C250    C    0.21240   0.95770   0.60770   1.000
    C251    C    0.24790   0.93380   0.59780   1.000
    H184    H    0.26050   0.91680   0.61840   1.000
    C252    C    0.26480   0.93540   0.55730   1.000
    H185    H    0.28870   0.91940   0.55060   1.000
    C253    C    0.24610   0.96070   0.52660   1.000
    C254    C    0.21050   0.98460   0.53660   1.000
    H186    H    0.19800   0.00160   0.51600   1.000
    C255    C    0.19370   0.98300   0.57710   1.000
    H187    H    0.16980   0.99900   0.58380   1.000
    N35     N    0.65900   0.47160   0.20545   1.000
    C256    C    0.66780   0.48435   0.16507   1.000
    H188    H    0.65900   0.50960   0.15260   1.000
    N36     N    0.69160   0.45360   0.14624   1.000
    C257    C    0.69760   0.42190   0.17500   1.000
    H189    H    0.71280   0.39700   0.17040   1.000
    C258    C    0.67750   0.43300   0.21157   1.000
    H190    H    0.67650   0.41700   0.23630   1.000
    C259    C    0.70320   0.45320   0.10010   1.000
    C260    C    0.71350   0.41540   0.08020   1.000
    H191    H    0.70920   0.38970   0.09410   1.000
    C261    C    0.73020   0.41580   0.03950   1.000
    H192    H    0.73720   0.39040   0.02610   1.000
    C262    C    0.73660   0.45400   0.01880   1.000
    C263    C    0.72630   0.49190   0.03870   1.000
    H193    H    0.73060   0.51750   0.02470   1.000
    C264    C    0.70960   0.49140   0.07930   1.000
    H194    H    0.70270   0.51680   0.09270   1.000
    C265    C    0.71240   0.45770   0.10770   1.000
    C266    C    0.74790   0.43380   0.09780   1.000
    H195    H    0.76050   0.41680   0.11840   1.000
    C267    C    0.76480   0.43540   0.05730   1.000
    H196    H    0.78870   0.41940   0.05060   1.000
    C268    C    0.74610   0.46070   0.02660   1.000
    C269    C    0.71050   0.48460   0.03660   1.000
    H197    H    0.69800   0.50160   0.01600   1.000
    C270    C    0.69370   0.48300   0.07710   1.000
    H198    H    0.66980   0.49900   0.08380   1.000
    N37     N    0.65900   0.52840   0.29455   1.000
    C271    C    0.66780   0.51565   0.33493   1.000
    H199    H    0.65900   0.49040   0.34740   1.000
    N38     N    0.69160   0.54640   0.35376   1.000
    C272    C    0.69760   0.57810   0.32500   1.000
    H200    H    0.71280   0.60300   0.32960   1.000
    C273    C    0.67750   0.56700   0.28843   1.000
    H201    H    0.67650   0.58300   0.26370   1.000
    C274    C    0.70320   0.54680   0.39990   1.000
    C275    C    0.71350   0.58460   0.41980   1.000
    H202    H    0.70920   0.61030   0.40590   1.000
    C276    C    0.73020   0.58420   0.46050   1.000
    H203    H    0.73720   0.60960   0.47390   1.000
    C277    C    0.73660   0.54600   0.48120   1.000
    C278    C    0.72630   0.50810   0.46130   1.000
    H204    H    0.73060   0.48250   0.47530   1.000
    C279    C    0.70960   0.50860   0.42070   1.000
    H205    H    0.70270   0.48320   0.40730   1.000
    C280    C    0.71240   0.54230   0.39230   1.000
    C281    C    0.74790   0.56620   0.40220   1.000
    H206    H    0.76050   0.58320   0.38160   1.000
    C282    C    0.76480   0.56460   0.44270   1.000
    H207    H    0.78870   0.58060   0.44940   1.000
    C283    C    0.74610   0.53930   0.47340   1.000
    C284    C    0.71050   0.51540   0.46340   1.000
    H208    H    0.69800   0.49840   0.48400   1.000
    C285    C    0.69370   0.51700   0.42290   1.000
    H209    H    0.66980   0.50100   0.41620   1.000
    N39     N    0.15900   0.02840   0.79455   1.000
    C286    C    0.16780   0.01565   0.83493   1.000
    H210    H    0.15900   0.99040   0.84740   1.000
    N40     N    0.19160   0.04640   0.85376   1.000
    C287    C    0.19760   0.07810   0.82500   1.000
    H211    H    0.21280   0.10300   0.82960   1.000
    C288    C    0.17750   0.06700   0.78843   1.000
    H212    H    0.17650   0.08300   0.76370   1.000
    C289    C    0.20320   0.04680   0.89990   1.000
    C290    C    0.21350   0.08460   0.91980   1.000
    H213    H    0.20920   0.11030   0.90590   1.000
    C291    C    0.23020   0.08420   0.96050   1.000
    H214    H    0.23720   0.10960   0.97390   1.000
    C292    C    0.23660   0.04600   0.98120   1.000
    C293    C    0.22630   0.00810   0.96130   1.000
    H215    H    0.23060   0.98250   0.97530   1.000
    C294    C    0.20960   0.00860   0.92070   1.000
    H216    H    0.20270   0.98320   0.90730   1.000
    C295    C    0.21240   0.04230   0.89230   1.000
    C296    C    0.24790   0.06620   0.90220   1.000
    H217    H    0.26050   0.08320   0.88160   1.000
    C297    C    0.26480   0.06460   0.94270   1.000
    H218    H    0.28870   0.08060   0.94940   1.000
    C298    C    0.24610   0.03930   0.97340   1.000
    C299    C    0.21050   0.01540   0.96340   1.000
    H219    H    0.19800   0.99840   0.98400   1.000
    C300    C    0.19370   0.01700   0.92290   1.000
    H220    H    0.16980   0.00100   0.91620   1.000
    N41     N    0.34100   0.02840   0.20545   1.000
    C301    C    0.33220   0.01565   0.16507   1.000
    H221    H    0.34100   0.99040   0.15260   1.000
    N42     N    0.30840   0.04640   0.14624   1.000
    C302    C    0.30240   0.07810   0.17500   1.000
    H222    H    0.28720   0.10300   0.17040   1.000
    C303    C    0.32250   0.06700   0.21157   1.000
    H223    H    0.32350   0.08300   0.23630   1.000
    C304    C    0.29680   0.04680   0.10010   1.000
    C305    C    0.28650   0.08460   0.08020   1.000
    H224    H    0.29080   0.11030   0.09410   1.000
    C306    C    0.26980   0.08420   0.03950   1.000
    H225    H    0.26280   0.10960   0.02610   1.000
    C307    C    0.26340   0.04600   0.01880   1.000
    C308    C    0.27370   0.00810   0.03870   1.000
    H226    H    0.26940   0.98250   0.02470   1.000
    C309    C    0.29040   0.00860   0.07930   1.000
    H227    H    0.29730   0.98320   0.09270   1.000
    C310    C    0.28760   0.04230   0.10770   1.000
    C311    C    0.25210   0.06620   0.09780   1.000
    H228    H    0.23950   0.08320   0.11840   1.000
    C312    C    0.23520   0.06460   0.05730   1.000
    H229    H    0.21130   0.08060   0.05060   1.000
    C313    C    0.25390   0.03930   0.02660   1.000
    C314    C    0.28950   0.01540   0.03660   1.000
    H230    H    0.30200   0.99840   0.01600   1.000
    C315    C    0.30630   0.01700   0.07710   1.000
    H231    H    0.33020   0.00100   0.08380   1.000
    N43     N    0.84100   0.52840   0.70545   1.000
    C316    C    0.83220   0.51565   0.66507   1.000
    H232    H    0.84100   0.49040   0.65260   1.000
    N44     N    0.80840   0.54640   0.64624   1.000
    C317    C    0.80240   0.57810   0.67500   1.000
    H233    H    0.78720   0.60300   0.67040   1.000
    C318    C    0.82250   0.56700   0.71157   1.000
    H234    H    0.82350   0.58300   0.73630   1.000
    C319    C    0.79680   0.54680   0.60010   1.000
    C320    C    0.78650   0.58460   0.58020   1.000
    H235    H    0.79080   0.61030   0.59410   1.000
    C321    C    0.76980   0.58420   0.53950   1.000
    H236    H    0.76280   0.60960   0.52610   1.000
    C322    C    0.76340   0.54600   0.51880   1.000
    C323    C    0.77370   0.50810   0.53870   1.000
    H237    H    0.76940   0.48250   0.52470   1.000
    C324    C    0.79040   0.50860   0.57930   1.000
    H238    H    0.79730   0.48320   0.59270   1.000
    C325    C    0.78760   0.54230   0.60770   1.000
    C326    C    0.75210   0.56620   0.59780   1.000
    H239    H    0.73950   0.58320   0.61840   1.000
    C327    C    0.73520   0.56460   0.55730   1.000
    H240    H    0.71130   0.58060   0.55060   1.000
    C328    C    0.75390   0.53930   0.52660   1.000
    C329    C    0.78950   0.51540   0.53660   1.000
    H241    H    0.80200   0.49840   0.51600   1.000
    C330    C    0.80630   0.51700   0.57710   1.000
    H242    H    0.83020   0.50100   0.58380   1.000
    N45     N    0.84100   0.47160   0.79455   1.000
    C331    C    0.83220   0.48435   0.83493   1.000
    H243    H    0.84100   0.50960   0.84740   1.000
    N46     N    0.80840   0.45360   0.85376   1.000
    C332    C    0.80240   0.42190   0.82500   1.000
    H244    H    0.78720   0.39700   0.82960   1.000
    C333    C    0.82250   0.43300   0.78843   1.000
    H245    H    0.82350   0.41700   0.76370   1.000
    C334    C    0.79680   0.45320   0.89990   1.000
    C335    C    0.78650   0.41540   0.91980   1.000
    H246    H    0.79080   0.38970   0.90590   1.000
    C336    C    0.76980   0.41580   0.96050   1.000
    H247    H    0.76280   0.39040   0.97390   1.000
    C337    C    0.76340   0.45400   0.98120   1.000
    C338    C    0.77370   0.49190   0.96130   1.000
    H248    H    0.76940   0.51750   0.97530   1.000
    C339    C    0.79040   0.49140   0.92070   1.000
    H249    H    0.79730   0.51680   0.90730   1.000
    C340    C    0.78760   0.45770   0.89230   1.000
    C341    C    0.75210   0.43380   0.90220   1.000
    H250    H    0.73950   0.41680   0.88160   1.000
    C342    C    0.73520   0.43540   0.94270   1.000
    H251    H    0.71130   0.41940   0.94940   1.000
    C343    C    0.75390   0.46070   0.97340   1.000
    C344    C    0.78950   0.48460   0.96340   1.000
    H252    H    0.80200   0.50160   0.98400   1.000
    C345    C    0.80630   0.48300   0.92290   1.000
    H253    H    0.83020   0.49900   0.91620   1.000
    N47     N    0.34100   0.97160   0.29455   1.000
    C346    C    0.33220   0.98435   0.33493   1.000
    H254    H    0.34100   0.00960   0.34740   1.000
    N48     N    0.30840   0.95360   0.35376   1.000
    C347    C    0.30240   0.92190   0.32500   1.000
    H255    H    0.28720   0.89700   0.32960   1.000
    C348    C    0.32250   0.93300   0.28843   1.000
    H256    H    0.32350   0.91700   0.26370   1.000
    C349    C    0.29680   0.95320   0.39990   1.000
    C350    C    0.28650   0.91540   0.41980   1.000
    H257    H    0.29080   0.88970   0.40590   1.000
    C351    C    0.26980   0.91580   0.46050   1.000
    H258    H    0.26280   0.89040   0.47390   1.000
    C352    C    0.26340   0.95400   0.48120   1.000
    C353    C    0.27370   0.99190   0.46130   1.000
    H259    H    0.26940   0.01750   0.47530   1.000
    C354    C    0.29040   0.99140   0.42070   1.000
    H260    H    0.29730   0.01680   0.40730   1.000
    C355    C    0.28760   0.95770   0.39230   1.000
    C356    C    0.25210   0.93380   0.40220   1.000
    H261    H    0.23950   0.91680   0.38160   1.000
    C357    C    0.23520   0.93540   0.44270   1.000
    H262    H    0.21130   0.91940   0.44940   1.000
    C358    C    0.25390   0.96070   0.47340   1.000
    C359    C    0.28950   0.98460   0.46340   1.000
    H263    H    0.30200   0.00160   0.48400   1.000
    C360    C    0.30630   0.98300   0.42290   1.000
    H264    H    0.33020   0.99900   0.41620   1.000
    N49     N    0.09100   0.04455   0.72160   1.000
    C361    C    0.08220   0.08493   0.73435   1.000
    H265    H    0.09100   0.09740   0.75960   1.000
    N50     N    0.05840   0.10376   0.70360   1.000
    C362    C    0.05240   0.07500   0.67190   1.000
    H266    H    0.03720   0.07960   0.64700   1.000
    C363    C    0.07250   0.03843   0.68300   1.000
    H267    H    0.07350   0.01370   0.66700   1.000
    C364    C    0.04680   0.14990   0.70320   1.000
    C365    C    0.03650   0.16980   0.66540   1.000
    H268    H    0.04080   0.15590   0.63970   1.000
    C366    C    0.01980   0.21050   0.66580   1.000
    H269    H    0.01280   0.22390   0.64040   1.000
    C367    C    0.01340   0.23120   0.70400   1.000
    C368    C    0.02370   0.21130   0.74190   1.000
    H270    H    0.01940   0.22530   0.76750   1.000
    C369    C    0.04040   0.17070   0.74140   1.000
    H271    H    0.04730   0.15730   0.76680   1.000
    C370    C    0.03760   0.14230   0.70770   1.000
    C371    C    0.00210   0.15220   0.68380   1.000
    H272    H    0.98950   0.13160   0.66680   1.000
    C372    C    0.98520   0.19270   0.68540   1.000
    H273    H    0.96130   0.19940   0.66940   1.000
    C373    C    0.00390   0.22340   0.71070   1.000
    C374    C    0.03950   0.21340   0.73460   1.000
    H274    H    0.05200   0.23400   0.75160   1.000
    C375    C    0.05630   0.17290   0.73300   1.000
    H275    H    0.08020   0.16620   0.74900   1.000
    N51     N    0.59100   0.54455   0.22160   1.000
    C376    C    0.58220   0.58493   0.23435   1.000
    H276    H    0.59100   0.59740   0.25960   1.000
    N52     N    0.55840   0.60376   0.20360   1.000
    C377    C    0.55240   0.57500   0.17190   1.000
    H277    H    0.53720   0.57960   0.14700   1.000
    C378    C    0.57250   0.53843   0.18300   1.000
    H278    H    0.57350   0.51370   0.16700   1.000
    C379    C    0.54680   0.64990   0.20320   1.000
    C380    C    0.53650   0.66980   0.16540   1.000
    H279    H    0.54080   0.65590   0.13970   1.000
    C381    C    0.51980   0.71050   0.16580   1.000
    H280    H    0.51280   0.72390   0.14040   1.000
    C382    C    0.51340   0.73120   0.20400   1.000
    C383    C    0.52370   0.71130   0.24190   1.000
    H281    H    0.51940   0.72530   0.26750   1.000
    C384    C    0.54040   0.67070   0.24140   1.000
    H282    H    0.54730   0.65730   0.26680   1.000
    C385    C    0.53760   0.64230   0.20770   1.000
    C386    C    0.50210   0.65220   0.18380   1.000
    H283    H    0.48950   0.63160   0.16680   1.000
    C387    C    0.48520   0.69270   0.18540   1.000
    H284    H    0.46130   0.69940   0.16940   1.000
    C388    C    0.50390   0.72340   0.21070   1.000
    C389    C    0.53950   0.71340   0.23460   1.000
    H285    H    0.55200   0.73400   0.25160   1.000
    C390    C    0.55630   0.67290   0.23300   1.000
    H286    H    0.58020   0.66620   0.24900   1.000
    N53     N    0.59100   0.45545   0.27840   1.000
    C391    C    0.58220   0.41507   0.26565   1.000
    H287    H    0.59100   0.40260   0.24040   1.000
    N54     N    0.55840   0.39624   0.29640   1.000
    C392    C    0.55240   0.42500   0.32810   1.000
    H288    H    0.53720   0.42040   0.35300   1.000
    C393    C    0.57250   0.46157   0.31700   1.000
    H289    H    0.57350   0.48630   0.33300   1.000
    C394    C    0.54680   0.35010   0.29680   1.000
    C395    C    0.53650   0.33020   0.33460   1.000
    H290    H    0.54080   0.34410   0.36030   1.000
    C396    C    0.51980   0.28950   0.33420   1.000
    H291    H    0.51280   0.27610   0.35960   1.000
    C397    C    0.51340   0.26880   0.29600   1.000
    C398    C    0.52370   0.28870   0.25810   1.000
    H292    H    0.51940   0.27470   0.23250   1.000
    C399    C    0.54040   0.32930   0.25860   1.000
    H293    H    0.54730   0.34270   0.23320   1.000
    C400    C    0.53760   0.35770   0.29230   1.000
    C401    C    0.50210   0.34780   0.31620   1.000
    H294    H    0.48950   0.36840   0.33320   1.000
    C402    C    0.48520   0.30730   0.31460   1.000
    H295    H    0.46130   0.30060   0.33060   1.000
    C403    C    0.50390   0.27660   0.28930   1.000
    C404    C    0.53950   0.28660   0.26540   1.000
    H296    H    0.55200   0.26600   0.24840   1.000
    C405    C    0.55630   0.32710   0.26700   1.000
    H297    H    0.58020   0.33380   0.25100   1.000
    N55     N    0.09100   0.95545   0.77840   1.000
    C406    C    0.08220   0.91507   0.76565   1.000
    H298    H    0.09100   0.90260   0.74040   1.000
    N56     N    0.05840   0.89624   0.79640   1.000
    C407    C    0.05240   0.92500   0.82810   1.000
    H299    H    0.03720   0.92040   0.85300   1.000
    C408    C    0.07250   0.96157   0.81700   1.000
    H300    H    0.07350   0.98630   0.83300   1.000
    C409    C    0.04680   0.85010   0.79680   1.000
    C410    C    0.03650   0.83020   0.83460   1.000
    H301    H    0.04080   0.84410   0.86030   1.000
    C411    C    0.01980   0.78950   0.83420   1.000
    H302    H    0.01280   0.77610   0.85960   1.000
    C412    C    0.01340   0.76880   0.79600   1.000
    C413    C    0.02370   0.78870   0.75810   1.000
    H303    H    0.01940   0.77470   0.73250   1.000
    C414    C    0.04040   0.82930   0.75860   1.000
    H304    H    0.04730   0.84270   0.73320   1.000
    C415    C    0.03760   0.85770   0.79230   1.000
    C416    C    0.00210   0.84780   0.81620   1.000
    H305    H    0.98950   0.86840   0.83320   1.000
    C417    C    0.98520   0.80730   0.81460   1.000
    H306    H    0.96130   0.80060   0.83060   1.000
    C418    C    0.00390   0.77660   0.78930   1.000
    C419    C    0.03950   0.78660   0.76540   1.000
    H307    H    0.05200   0.76600   0.74840   1.000
    C420    C    0.05630   0.82710   0.76700   1.000
    H308    H    0.08020   0.83380   0.75100   1.000
    N57     N    0.90900   0.54455   0.77840   1.000
    C421    C    0.91780   0.58493   0.76565   1.000
    H309    H    0.90900   0.59740   0.74040   1.000
    N58     N    0.94160   0.60376   0.79640   1.000
    C422    C    0.94760   0.57500   0.82810   1.000
    H310    H    0.96280   0.57960   0.85300   1.000
    C423    C    0.92750   0.53843   0.81700   1.000
    H311    H    0.92650   0.51370   0.83300   1.000
    C424    C    0.95320   0.64990   0.79680   1.000
    C425    C    0.96350   0.66980   0.83460   1.000
    H312    H    0.95920   0.65590   0.86030   1.000
    C426    C    0.98020   0.71050   0.83420   1.000
    H313    H    0.98720   0.72390   0.85960   1.000
    C427    C    0.98660   0.73120   0.79600   1.000
    C428    C    0.97630   0.71130   0.75810   1.000
    H314    H    0.98060   0.72530   0.73250   1.000
    C429    C    0.95960   0.67070   0.75860   1.000
    H315    H    0.95270   0.65730   0.73320   1.000
    C430    C    0.96240   0.64230   0.79230   1.000
    C431    C    0.99790   0.65220   0.81620   1.000
    H316    H    0.01050   0.63160   0.83320   1.000
    C432    C    0.01480   0.69270   0.81460   1.000
    H317    H    0.03870   0.69940   0.83060   1.000
    C433    C    0.99610   0.72340   0.78930   1.000
    C434    C    0.96050   0.71340   0.76540   1.000
    H318    H    0.94800   0.73400   0.74840   1.000
    C435    C    0.94370   0.67290   0.76700   1.000
    H319    H    0.91980   0.66620   0.75100   1.000
    N59     N    0.40900   0.04455   0.27840   1.000
    C436    C    0.41780   0.08493   0.26565   1.000
    H320    H    0.40900   0.09740   0.24040   1.000
    N60     N    0.44160   0.10376   0.29640   1.000
    C437    C    0.44760   0.07500   0.32810   1.000
    H321    H    0.46280   0.07960   0.35300   1.000
    C438    C    0.42750   0.03843   0.31700   1.000
    H322    H    0.42650   0.01370   0.33300   1.000
    C439    C    0.45320   0.14990   0.29680   1.000
    C440    C    0.46350   0.16980   0.33460   1.000
    H323    H    0.45920   0.15590   0.36030   1.000
    C441    C    0.48020   0.21050   0.33420   1.000
    H324    H    0.48720   0.22390   0.35960   1.000
    C442    C    0.48660   0.23120   0.29600   1.000
    C443    C    0.47630   0.21130   0.25810   1.000
    H325    H    0.48060   0.22530   0.23250   1.000
    C444    C    0.45960   0.17070   0.25860   1.000
    H326    H    0.45270   0.15730   0.23320   1.000
    C445    C    0.46240   0.14230   0.29230   1.000
    C446    C    0.49790   0.15220   0.31620   1.000
    H327    H    0.51050   0.13160   0.33320   1.000
    C447    C    0.51480   0.19270   0.31460   1.000
    H328    H    0.53870   0.19940   0.33060   1.000
    C448    C    0.49610   0.22340   0.28930   1.000
    C449    C    0.46050   0.21340   0.26540   1.000
    H329    H    0.44800   0.23400   0.24840   1.000
    C450    C    0.44370   0.17290   0.26700   1.000
    H330    H    0.41980   0.16620   0.25100   1.000
    N61     N    0.40900   0.95545   0.22160   1.000
    C451    C    0.41780   0.91507   0.23435   1.000
    H331    H    0.40900   0.90260   0.25960   1.000
    N62     N    0.44160   0.89624   0.20360   1.000
    C452    C    0.44760   0.92500   0.17190   1.000
    H332    H    0.46280   0.92040   0.14700   1.000
    C453    C    0.42750   0.96157   0.18300   1.000
    H333    H    0.42650   0.98630   0.16700   1.000
    C454    C    0.45320   0.85010   0.20320   1.000
    C455    C    0.46350   0.83020   0.16540   1.000
    H334    H    0.45920   0.84410   0.13970   1.000
    C456    C    0.48020   0.78950   0.16580   1.000
    H335    H    0.48720   0.77610   0.14040   1.000
    C457    C    0.48660   0.76880   0.20400   1.000
    C458    C    0.47630   0.78870   0.24190   1.000
    H336    H    0.48060   0.77470   0.26750   1.000
    C459    C    0.45960   0.82930   0.24140   1.000
    H337    H    0.45270   0.84270   0.26680   1.000
    C460    C    0.46240   0.85770   0.20770   1.000
    C461    C    0.49790   0.84780   0.18380   1.000
    H338    H    0.51050   0.86840   0.16680   1.000
    C462    C    0.51480   0.80730   0.18540   1.000
    H339    H    0.53870   0.80060   0.16940   1.000
    C463    C    0.49610   0.77660   0.21070   1.000
    C464    C    0.46050   0.78660   0.23460   1.000
    H340    H    0.44800   0.76600   0.25160   1.000
    C465    C    0.44370   0.82710   0.23300   1.000
    H341    H    0.41980   0.83380   0.24900   1.000
    N63     N    0.90900   0.45545   0.72160   1.000
    C466    C    0.91780   0.41507   0.73435   1.000
    H342    H    0.90900   0.40260   0.75960   1.000
    N64     N    0.94160   0.39624   0.70360   1.000
    C467    C    0.94760   0.42500   0.67190   1.000
    H343    H    0.96280   0.42040   0.64700   1.000
    C468    C    0.92750   0.46157   0.68300   1.000
    H344    H    0.92650   0.48630   0.66700   1.000
    C469    C    0.95320   0.35010   0.70320   1.000
    C470    C    0.96350   0.33020   0.66540   1.000
    H345    H    0.95920   0.34410   0.63970   1.000
    C471    C    0.98020   0.28950   0.66580   1.000
    H346    H    0.98720   0.27610   0.64040   1.000
    C472    C    0.98660   0.26880   0.70400   1.000
    C473    C    0.97630   0.28870   0.74190   1.000
    H347    H    0.98060   0.27470   0.76750   1.000
    C474    C    0.95960   0.32930   0.74140   1.000
    H348    H    0.95270   0.34270   0.76680   1.000
    C475    C    0.96240   0.35770   0.70770   1.000
    C476    C    0.99790   0.34780   0.68380   1.000
    H349    H    0.01050   0.36840   0.66680   1.000
    C477    C    0.01480   0.30730   0.68540   1.000
    H350    H    0.03870   0.30060   0.66940   1.000
    C478    C    0.99610   0.27660   0.71070   1.000
    C479    C    0.96050   0.28660   0.73460   1.000
    H351    H    0.94800   0.26600   0.75160   1.000
    C480    C    0.94370   0.32710   0.73300   1.000
    H352    H    0.91980   0.33380   0.74900   1.000
    Zn5     Zn   0.12500   0.00000   0.75000   1.000
    Zn6     Zn   0.62500   0.50000   0.25000   1.000
    Zn7     Zn   0.37500   0.00000   0.25000   1.000
    Zn8     Zn   0.87500   0.50000   0.75000   1.000
    N65     N    0.70545   0.15900   0.97160   1.000
    C481    C    0.66507   0.16780   0.98435   1.000
    H353    H    0.65260   0.15900   0.00960   1.000
    N66     N    0.64624   0.19160   0.95360   1.000
    C482    C    0.67500   0.19760   0.92190   1.000
    H354    H    0.67040   0.21280   0.89700   1.000
    C483    C    0.71157   0.17750   0.93300   1.000
    H355    H    0.73630   0.17650   0.91700   1.000
    C484    C    0.60010   0.20320   0.95320   1.000
    C485    C    0.58020   0.21350   0.91540   1.000
    H356    H    0.59410   0.20920   0.88970   1.000
    C486    C    0.53950   0.23020   0.91580   1.000
    H357    H    0.52610   0.23720   0.89040   1.000
    C487    C    0.51880   0.23660   0.95400   1.000
    C488    C    0.53870   0.22630   0.99190   1.000
    H358    H    0.52470   0.23060   0.01750   1.000
    C489    C    0.57930   0.20960   0.99140   1.000
    H359    H    0.59270   0.20270   0.01680   1.000
    C490    C    0.60770   0.21240   0.95770   1.000
    C491    C    0.59780   0.24790   0.93380   1.000
    H360    H    0.61840   0.26050   0.91680   1.000
    C492    C    0.55730   0.26480   0.93540   1.000
    H361    H    0.55060   0.28870   0.91940   1.000
    C493    C    0.52660   0.24610   0.96070   1.000
    C494    C    0.53660   0.21050   0.98460   1.000
    H362    H    0.51600   0.19800   0.00160   1.000
    C495    C    0.57710   0.19370   0.98300   1.000
    H363    H    0.58380   0.16980   0.99900   1.000
    N67     N    0.20545   0.65900   0.47160   1.000
    C496    C    0.16507   0.66780   0.48435   1.000
    H364    H    0.15260   0.65900   0.50960   1.000
    N68     N    0.14624   0.69160   0.45360   1.000
    C497    C    0.17500   0.69760   0.42190   1.000
    H365    H    0.17040   0.71280   0.39700   1.000
    C498    C    0.21157   0.67750   0.43300   1.000
    H366    H    0.23630   0.67650   0.41700   1.000
    C499    C    0.10010   0.70320   0.45320   1.000
    C500    C    0.08020   0.71350   0.41540   1.000
    H367    H    0.09410   0.70920   0.38970   1.000
    C501    C    0.03950   0.73020   0.41580   1.000
    H368    H    0.02610   0.73720   0.39040   1.000
    C502    C    0.01880   0.73660   0.45400   1.000
    C503    C    0.03870   0.72630   0.49190   1.000
    H369    H    0.02470   0.73060   0.51750   1.000
    C504    C    0.07930   0.70960   0.49140   1.000
    H370    H    0.09270   0.70270   0.51680   1.000
    C505    C    0.10770   0.71240   0.45770   1.000
    C506    C    0.09780   0.74790   0.43380   1.000
    H371    H    0.11840   0.76050   0.41680   1.000
    C507    C    0.05730   0.76480   0.43540   1.000
    H372    H    0.05060   0.78870   0.41940   1.000
    C508    C    0.02660   0.74610   0.46070   1.000
    C509    C    0.03660   0.71050   0.48460   1.000
    H373    H    0.01600   0.69800   0.50160   1.000
    C510    C    0.07710   0.69370   0.48300   1.000
    H374    H    0.08380   0.66980   0.49900   1.000
    N69     N    0.29455   0.65900   0.52840   1.000
    C511    C    0.33493   0.66780   0.51565   1.000
    H375    H    0.34740   0.65900   0.49040   1.000
    N70     N    0.35376   0.69160   0.54640   1.000
    C512    C    0.32500   0.69760   0.57810   1.000
    H376    H    0.32960   0.71280   0.60300   1.000
    C513    C    0.28843   0.67750   0.56700   1.000
    H377    H    0.26370   0.67650   0.58300   1.000
    C514    C    0.39990   0.70320   0.54680   1.000
    C515    C    0.41980   0.71350   0.58460   1.000
    H378    H    0.40590   0.70920   0.61030   1.000
    C516    C    0.46050   0.73020   0.58420   1.000
    H379    H    0.47390   0.73720   0.60960   1.000
    C517    C    0.48120   0.73660   0.54600   1.000
    C518    C    0.46130   0.72630   0.50810   1.000
    H380    H    0.47530   0.73060   0.48250   1.000
    C519    C    0.42070   0.70960   0.50860   1.000
    H381    H    0.40730   0.70270   0.48320   1.000
    C520    C    0.39230   0.71240   0.54230   1.000
    C521    C    0.40220   0.74790   0.56620   1.000
    H382    H    0.38160   0.76050   0.58320   1.000
    C522    C    0.44270   0.76480   0.56460   1.000
    H383    H    0.44940   0.78870   0.58060   1.000
    C523    C    0.47340   0.74610   0.53930   1.000
    C524    C    0.46340   0.71050   0.51540   1.000
    H384    H    0.48400   0.69800   0.49840   1.000
    C525    C    0.42290   0.69370   0.51700   1.000
    H385    H    0.41620   0.66980   0.50100   1.000
    N71     N    0.79455   0.15900   0.02840   1.000
    C526    C    0.83493   0.16780   0.01565   1.000
    H386    H    0.84740   0.15900   0.99040   1.000
    N72     N    0.85376   0.19160   0.04640   1.000
    C527    C    0.82500   0.19760   0.07810   1.000
    H387    H    0.82960   0.21280   0.10300   1.000
    C528    C    0.78843   0.17750   0.06700   1.000
    H388    H    0.76370   0.17650   0.08300   1.000
    C529    C    0.89990   0.20320   0.04680   1.000
    C530    C    0.91980   0.21350   0.08460   1.000
    H389    H    0.90590   0.20920   0.11030   1.000
    C531    C    0.96050   0.23020   0.08420   1.000
    H390    H    0.97390   0.23720   0.10960   1.000
    C532    C    0.98120   0.23660   0.04600   1.000
    C533    C    0.96130   0.22630   0.00810   1.000
    H391    H    0.97530   0.23060   0.98250   1.000
    C534    C    0.92070   0.20960   0.00860   1.000
    H392    H    0.90730   0.20270   0.98320   1.000
    C535    C    0.89230   0.21240   0.04230   1.000
    C536    C    0.90220   0.24790   0.06620   1.000
    H393    H    0.88160   0.26050   0.08320   1.000
    C537    C    0.94270   0.26480   0.06460   1.000
    H394    H    0.94940   0.28870   0.08060   1.000
    C538    C    0.97340   0.24610   0.03930   1.000
    C539    C    0.96340   0.21050   0.01540   1.000
    H395    H    0.98400   0.19800   0.99840   1.000
    C540    C    0.92290   0.19370   0.01700   1.000
    H396    H    0.91620   0.16980   0.00100   1.000
    N73     N    0.20545   0.34100   0.02840   1.000
    C541    C    0.16507   0.33220   0.01565   1.000
    H397    H    0.15260   0.34100   0.99040   1.000
    N74     N    0.14624   0.30840   0.04640   1.000
    C542    C    0.17500   0.30240   0.07810   1.000
    H398    H    0.17040   0.28720   0.10300   1.000
    C543    C    0.21157   0.32250   0.06700   1.000
    H399    H    0.23630   0.32350   0.08300   1.000
    C544    C    0.10010   0.29680   0.04680   1.000
    C545    C    0.08020   0.28650   0.08460   1.000
    H400    H    0.09410   0.29080   0.11030   1.000
    C546    C    0.03950   0.26980   0.08420   1.000
    H401    H    0.02610   0.26280   0.10960   1.000
    C547    C    0.01880   0.26340   0.04600   1.000
    C548    C    0.03870   0.27370   0.00810   1.000
    H402    H    0.02470   0.26940   0.98250   1.000
    C549    C    0.07930   0.29040   0.00860   1.000
    H403    H    0.09270   0.29730   0.98320   1.000
    C550    C    0.10770   0.28760   0.04230   1.000
    C551    C    0.09780   0.25210   0.06620   1.000
    H404    H    0.11840   0.23950   0.08320   1.000
    C552    C    0.05730   0.23520   0.06460   1.000
    H405    H    0.05060   0.21130   0.08060   1.000
    C553    C    0.02660   0.25390   0.03930   1.000
    C554    C    0.03660   0.28950   0.01540   1.000
    H406    H    0.01600   0.30200   0.99840   1.000
    C555    C    0.07710   0.30630   0.01700   1.000
    H407    H    0.08380   0.33020   0.00100   1.000
    N75     N    0.70545   0.84100   0.52840   1.000
    C556    C    0.66507   0.83220   0.51565   1.000
    H408    H    0.65260   0.84100   0.49040   1.000
    N76     N    0.64624   0.80840   0.54640   1.000
    C557    C    0.67500   0.80240   0.57810   1.000
    H409    H    0.67040   0.78720   0.60300   1.000
    C558    C    0.71157   0.82250   0.56700   1.000
    H410    H    0.73630   0.82350   0.58300   1.000
    C559    C    0.60010   0.79680   0.54680   1.000
    C560    C    0.58020   0.78650   0.58460   1.000
    H411    H    0.59410   0.79080   0.61030   1.000
    C561    C    0.53950   0.76980   0.58420   1.000
    H412    H    0.52610   0.76280   0.60960   1.000
    C562    C    0.51880   0.76340   0.54600   1.000
    C563    C    0.53870   0.77370   0.50810   1.000
    H413    H    0.52470   0.76940   0.48250   1.000
    C564    C    0.57930   0.79040   0.50860   1.000
    H414    H    0.59270   0.79730   0.48320   1.000
    C565    C    0.60770   0.78760   0.54230   1.000
    C566    C    0.59780   0.75210   0.56620   1.000
    H415    H    0.61840   0.73950   0.58320   1.000
    C567    C    0.55730   0.73520   0.56460   1.000
    H416    H    0.55060   0.71130   0.58060   1.000
    C568    C    0.52660   0.75390   0.53930   1.000
    C569    C    0.53660   0.78950   0.51540   1.000
    H417    H    0.51600   0.80200   0.49840   1.000
    C570    C    0.57710   0.80630   0.51700   1.000
    H418    H    0.58380   0.83020   0.50100   1.000
    N77     N    0.79455   0.84100   0.47160   1.000
    C571    C    0.83493   0.83220   0.48435   1.000
    H419    H    0.84740   0.84100   0.50960   1.000
    N78     N    0.85376   0.80840   0.45360   1.000
    C572    C    0.82500   0.80240   0.42190   1.000
    H420    H    0.82960   0.78720   0.39700   1.000
    C573    C    0.78843   0.82250   0.43300   1.000
    H421    H    0.76370   0.82350   0.41700   1.000
    C574    C    0.89990   0.79680   0.45320   1.000
    C575    C    0.91980   0.78650   0.41540   1.000
    H422    H    0.90590   0.79080   0.38970   1.000
    C576    C    0.96050   0.76980   0.41580   1.000
    H423    H    0.97390   0.76280   0.39040   1.000
    C577    C    0.98120   0.76340   0.45400   1.000
    C578    C    0.96130   0.77370   0.49190   1.000
    H424    H    0.97530   0.76940   0.51750   1.000
    C579    C    0.92070   0.79040   0.49140   1.000
    H425    H    0.90730   0.79730   0.51680   1.000
    C580    C    0.89230   0.78760   0.45770   1.000
    C581    C    0.90220   0.75210   0.43380   1.000
    H426    H    0.88160   0.73950   0.41680   1.000
    C582    C    0.94270   0.73520   0.43540   1.000
    H427    H    0.94940   0.71130   0.41940   1.000
    C583    C    0.97340   0.75390   0.46070   1.000
    C584    C    0.96340   0.78950   0.48460   1.000
    H428    H    0.98400   0.80200   0.50160   1.000
    C585    C    0.92290   0.80630   0.48300   1.000
    H429    H    0.91620   0.83020   0.49900   1.000
    N79     N    0.29455   0.34100   0.97160   1.000
    C586    C    0.33493   0.33220   0.98435   1.000
    H430    H    0.34740   0.34100   0.00960   1.000
    N80     N    0.35376   0.30840   0.95360   1.000
    C587    C    0.32500   0.30240   0.92190   1.000
    H431    H    0.32960   0.28720   0.89700   1.000
    C588    C    0.28843   0.32250   0.93300   1.000
    H432    H    0.26370   0.32350   0.91700   1.000
    C589    C    0.39990   0.29680   0.95320   1.000
    C590    C    0.41980   0.28650   0.91540   1.000
    H433    H    0.40590   0.29080   0.88970   1.000
    C591    C    0.46050   0.26980   0.91580   1.000
    H434    H    0.47390   0.26280   0.89040   1.000
    C592    C    0.48120   0.26340   0.95400   1.000
    C593    C    0.46130   0.27370   0.99190   1.000
    H435    H    0.47530   0.26940   0.01750   1.000
    C594    C    0.42070   0.29040   0.99140   1.000
    H436    H    0.40730   0.29730   0.01680   1.000
    C595    C    0.39230   0.28760   0.95770   1.000
    C596    C    0.40220   0.25210   0.93380   1.000
    H437    H    0.38160   0.23950   0.91680   1.000
    C597    C    0.44270   0.23520   0.93540   1.000
    H438    H    0.44940   0.21130   0.91940   1.000
    C598    C    0.47340   0.25390   0.96070   1.000
    C599    C    0.46340   0.28950   0.98460   1.000
    H439    H    0.48400   0.30200   0.00160   1.000
    C600    C    0.42290   0.30630   0.98300   1.000
    H440    H    0.41620   0.33020   0.99900   1.000
    N81     N    0.27840   0.59100   0.45545   1.000
    C601    C    0.26565   0.58220   0.41507   1.000
    H441    H    0.24040   0.59100   0.40260   1.000
    N82     N    0.29640   0.55840   0.39624   1.000
    C602    C    0.32810   0.55240   0.42500   1.000
    H442    H    0.35300   0.53720   0.42040   1.000
    C603    C    0.31700   0.57250   0.46157   1.000
    H443    H    0.33300   0.57350   0.48630   1.000
    C604    C    0.29680   0.54680   0.35010   1.000
    C605    C    0.33460   0.53650   0.33020   1.000
    H444    H    0.36030   0.54080   0.34410   1.000
    C606    C    0.33420   0.51980   0.28950   1.000
    H445    H    0.35960   0.51280   0.27610   1.000
    C607    C    0.29600   0.51340   0.26880   1.000
    C608    C    0.25810   0.52370   0.28870   1.000
    H446    H    0.23250   0.51940   0.27470   1.000
    C609    C    0.25860   0.54040   0.32930   1.000
    H447    H    0.23320   0.54730   0.34270   1.000
    C610    C    0.29230   0.53760   0.35770   1.000
    C611    C    0.31620   0.50210   0.34780   1.000
    H448    H    0.33320   0.48950   0.36840   1.000
    C612    C    0.31460   0.48520   0.30730   1.000
    H449    H    0.33060   0.46130   0.30060   1.000
    C613    C    0.28930   0.50390   0.27660   1.000
    C614    C    0.26540   0.53950   0.28660   1.000
    H450    H    0.24840   0.55200   0.26600   1.000
    C615    C    0.26700   0.55630   0.32710   1.000
    H451    H    0.25100   0.58020   0.33380   1.000
    N83     N    0.77840   0.09100   0.95545   1.000
    C616    C    0.76565   0.08220   0.91507   1.000
    H452    H    0.74040   0.09100   0.90260   1.000
    N84     N    0.79640   0.05840   0.89624   1.000
    C617    C    0.82810   0.05240   0.92500   1.000
    H453    H    0.85300   0.03720   0.92040   1.000
    C618    C    0.81700   0.07250   0.96157   1.000
    H454    H    0.83300   0.07350   0.98630   1.000
    C619    C    0.79680   0.04680   0.85010   1.000
    C620    C    0.83460   0.03650   0.83020   1.000
    H455    H    0.86030   0.04080   0.84410   1.000
    C621    C    0.83420   0.01980   0.78950   1.000
    H456    H    0.85960   0.01280   0.77610   1.000
    C622    C    0.79600   0.01340   0.76880   1.000
    C623    C    0.75810   0.02370   0.78870   1.000
    H457    H    0.73250   0.01940   0.77470   1.000
    C624    C    0.75860   0.04040   0.82930   1.000
    H458    H    0.73320   0.04730   0.84270   1.000
    C625    C    0.79230   0.03760   0.85770   1.000
    C626    C    0.81620   0.00210   0.84780   1.000
    H459    H    0.83320   0.98950   0.86840   1.000
    C627    C    0.81460   0.98520   0.80730   1.000
    H460    H    0.83060   0.96130   0.80060   1.000
    C628    C    0.78930   0.00390   0.77660   1.000
    C629    C    0.76540   0.03950   0.78660   1.000
    H461    H    0.74840   0.05200   0.76600   1.000
    C630    C    0.76700   0.05630   0.82710   1.000
    H462    H    0.75100   0.08020   0.83380   1.000
    N85     N    0.72160   0.09100   0.04455   1.000
    C631    C    0.73435   0.08220   0.08493   1.000
    H463    H    0.75960   0.09100   0.09740   1.000
    N86     N    0.70360   0.05840   0.10376   1.000
    C632    C    0.67190   0.05240   0.07500   1.000
    H464    H    0.64700   0.03720   0.07960   1.000
    C633    C    0.68300   0.07250   0.03843   1.000
    H465    H    0.66700   0.07350   0.01370   1.000
    C634    C    0.70320   0.04680   0.14990   1.000
    C635    C    0.66540   0.03650   0.16980   1.000
    H466    H    0.63970   0.04080   0.15590   1.000
    C636    C    0.66580   0.01980   0.21050   1.000
    H467    H    0.64040   0.01280   0.22390   1.000
    C637    C    0.70400   0.01340   0.23120   1.000
    C638    C    0.74190   0.02370   0.21130   1.000
    H468    H    0.76750   0.01940   0.22530   1.000
    C639    C    0.74140   0.04040   0.17070   1.000
    H469    H    0.76680   0.04730   0.15730   1.000
    C640    C    0.70770   0.03760   0.14230   1.000
    C641    C    0.68380   0.00210   0.15220   1.000
    H470    H    0.66680   0.98950   0.13160   1.000
    C642    C    0.68540   0.98520   0.19270   1.000
    H471    H    0.66940   0.96130   0.19940   1.000
    C643    C    0.71070   0.00390   0.22340   1.000
    C644    C    0.73460   0.03950   0.21340   1.000
    H472    H    0.75160   0.05200   0.23400   1.000
    C645    C    0.73300   0.05630   0.17290   1.000
    H473    H    0.74900   0.08020   0.16620   1.000
    N87     N    0.22160   0.59100   0.54455   1.000
    C646    C    0.23435   0.58220   0.58493   1.000
    H474    H    0.25960   0.59100   0.59740   1.000
    N88     N    0.20360   0.55840   0.60376   1.000
    C647    C    0.17190   0.55240   0.57500   1.000
    H475    H    0.14700   0.53720   0.57960   1.000
    C648    C    0.18300   0.57250   0.53843   1.000
    H476    H    0.16700   0.57350   0.51370   1.000
    C649    C    0.20320   0.54680   0.64990   1.000
    C650    C    0.16540   0.53650   0.66980   1.000
    H477    H    0.13970   0.54080   0.65590   1.000
    C651    C    0.16580   0.51980   0.71050   1.000
    H478    H    0.14040   0.51280   0.72390   1.000
    C652    C    0.20400   0.51340   0.73120   1.000
    C653    C    0.24190   0.52370   0.71130   1.000
    H479    H    0.26750   0.51940   0.72530   1.000
    C654    C    0.24140   0.54040   0.67070   1.000
    H480    H    0.26680   0.54730   0.65730   1.000
    C655    C    0.20770   0.53760   0.64230   1.000
    C656    C    0.18380   0.50210   0.65220   1.000
    H481    H    0.16680   0.48950   0.63160   1.000
    C657    C    0.18540   0.48520   0.69270   1.000
    H482    H    0.16940   0.46130   0.69940   1.000
    C658    C    0.21070   0.50390   0.72340   1.000
    C659    C    0.23460   0.53950   0.71340   1.000
    H483    H    0.25160   0.55200   0.73400   1.000
    C660    C    0.23300   0.55630   0.67290   1.000
    H484    H    0.24900   0.58020   0.66620   1.000
    N89     N    0.22160   0.40900   0.95545   1.000
    C661    C    0.23435   0.41780   0.91507   1.000
    H485    H    0.25960   0.40900   0.90260   1.000
    N90     N    0.20360   0.44160   0.89624   1.000
    C662    C    0.17190   0.44760   0.92500   1.000
    H486    H    0.14700   0.46280   0.92040   1.000
    C663    C    0.18300   0.42750   0.96157   1.000
    H487    H    0.16700   0.42650   0.98630   1.000
    C664    C    0.20320   0.45320   0.85010   1.000
    C665    C    0.16540   0.46350   0.83020   1.000
    H488    H    0.13970   0.45920   0.84410   1.000
    C666    C    0.16580   0.48020   0.78950   1.000
    H489    H    0.14040   0.48720   0.77610   1.000
    C667    C    0.20400   0.48660   0.76880   1.000
    C668    C    0.24190   0.47630   0.78870   1.000
    H490    H    0.26750   0.48060   0.77470   1.000
    C669    C    0.24140   0.45960   0.82930   1.000
    H491    H    0.26680   0.45270   0.84270   1.000
    C670    C    0.20770   0.46240   0.85770   1.000
    C671    C    0.18380   0.49790   0.84780   1.000
    H492    H    0.16680   0.51050   0.86840   1.000
    C672    C    0.18540   0.51480   0.80730   1.000
    H493    H    0.16940   0.53870   0.80060   1.000
    C673    C    0.21070   0.49610   0.77660   1.000
    C674    C    0.23460   0.46050   0.78660   1.000
    H494    H    0.25160   0.44800   0.76600   1.000
    C675    C    0.23300   0.44370   0.82710   1.000
    H495    H    0.24900   0.41980   0.83380   1.000
    N91     N    0.72160   0.90900   0.45545   1.000
    C676    C    0.73435   0.91780   0.41507   1.000
    H496    H    0.75960   0.90900   0.40260   1.000
    N92     N    0.70360   0.94160   0.39624   1.000
    C677    C    0.67190   0.94760   0.42500   1.000
    H497    H    0.64700   0.96280   0.42040   1.000
    C678    C    0.68300   0.92750   0.46157   1.000
    H498    H    0.66700   0.92650   0.48630   1.000
    C679    C    0.70320   0.95320   0.35010   1.000
    C680    C    0.66540   0.96350   0.33020   1.000
    H499    H    0.63970   0.95920   0.34410   1.000
    C681    C    0.66580   0.98020   0.28950   1.000
    H500    H    0.64040   0.98720   0.27610   1.000
    C682    C    0.70400   0.98660   0.26880   1.000
    C683    C    0.74190   0.97630   0.28870   1.000
    H501    H    0.76750   0.98060   0.27470   1.000
    C684    C    0.74140   0.95960   0.32930   1.000
    H502    H    0.76680   0.95270   0.34270   1.000
    C685    C    0.70770   0.96240   0.35770   1.000
    C686    C    0.68380   0.99790   0.34780   1.000
    H503    H    0.66680   0.01050   0.36840   1.000
    C687    C    0.68540   0.01480   0.30730   1.000
    H504    H    0.66940   0.03870   0.30060   1.000
    C688    C    0.71070   0.99610   0.27660   1.000
    C689    C    0.73460   0.96050   0.28660   1.000
    H505    H    0.75160   0.94800   0.26600   1.000
    C690    C    0.73300   0.94370   0.32710   1.000
    H506    H    0.74900   0.91980   0.33380   1.000
    N93     N    0.77840   0.90900   0.54455   1.000
    C691    C    0.76565   0.91780   0.58493   1.000
    H507    H    0.74040   0.90900   0.59740   1.000
    N94     N    0.79640   0.94160   0.60376   1.000
    C692    C    0.82810   0.94760   0.57500   1.000
    H508    H    0.85300   0.96280   0.57960   1.000
    C693    C    0.81700   0.92750   0.53843   1.000
    H509    H    0.83300   0.92650   0.51370   1.000
    C694    C    0.79680   0.95320   0.64990   1.000
    C695    C    0.83460   0.96350   0.66980   1.000
    H510    H    0.86030   0.95920   0.65590   1.000
    C696    C    0.83420   0.98020   0.71050   1.000
    H511    H    0.85960   0.98720   0.72390   1.000
    C697    C    0.79600   0.98660   0.73120   1.000
    C698    C    0.75810   0.97630   0.71130   1.000
    H512    H    0.73250   0.98060   0.72530   1.000
    C699    C    0.75860   0.95960   0.67070   1.000
    H513    H    0.73320   0.95270   0.65730   1.000
    C700    C    0.79230   0.96240   0.64230   1.000
    C701    C    0.81620   0.99790   0.65220   1.000
    H514    H    0.83320   0.01050   0.63160   1.000
    C702    C    0.81460   0.01480   0.69270   1.000
    H515    H    0.83060   0.03870   0.69940   1.000
    C703    C    0.78930   0.99610   0.72340   1.000
    C704    C    0.76540   0.96050   0.71340   1.000
    H516    H    0.74840   0.94800   0.73400   1.000
    C705    C    0.76700   0.94370   0.67290   1.000
    H517    H    0.75100   0.91980   0.66620   1.000
    N95     N    0.27840   0.40900   0.04455   1.000
    C706    C    0.26565   0.41780   0.08493   1.000
    H518    H    0.24040   0.40900   0.09740   1.000
    N96     N    0.29640   0.44160   0.10376   1.000
    C707    C    0.32810   0.44760   0.07500   1.000
    H519    H    0.35300   0.46280   0.07960   1.000
    C708    C    0.31700   0.42750   0.03843   1.000
    H520    H    0.33300   0.42650   0.01370   1.000
    C709    C    0.29680   0.45320   0.14990   1.000
    C710    C    0.33460   0.46350   0.16980   1.000
    H521    H    0.36030   0.45920   0.15590   1.000
    C711    C    0.33420   0.48020   0.21050   1.000
    H522    H    0.35960   0.48720   0.22390   1.000
    C712    C    0.29600   0.48660   0.23120   1.000
    C713    C    0.25810   0.47630   0.21130   1.000
    H523    H    0.23250   0.48060   0.22530   1.000
    C714    C    0.25860   0.45960   0.17070   1.000
    H524    H    0.23320   0.45270   0.15730   1.000
    C715    C    0.29230   0.46240   0.14230   1.000
    C716    C    0.31620   0.49790   0.15220   1.000
    H525    H    0.33320   0.51050   0.13160   1.000
    C717    C    0.31460   0.51480   0.19270   1.000
    H526    H    0.33060   0.53870   0.19940   1.000
    C718    C    0.28930   0.49610   0.22340   1.000
    C719    C    0.26540   0.46050   0.21340   1.000
    H527    H    0.24840   0.44800   0.23400   1.000
    C720    C    0.26700   0.44370   0.17290   1.000
    H528    H    0.25100   0.41980   0.16620   1.000
    Zn9     Zn   0.75000   0.12500   0.00000   1.000
    Zn10    Zn   0.25000   0.62500   0.50000   1.000
    Zn11    Zn   0.25000   0.37500   0.00000   1.000
    Zn12    Zn   0.75000   0.87500   0.50000   1.000
    N97     N    0.45545   0.22160   0.09100   1.000
    C721    C    0.41507   0.23435   0.08220   1.000
    H529    H    0.40260   0.25960   0.09100   1.000
    N98     N    0.39624   0.20360   0.05840   1.000
    C722    C    0.42500   0.17190   0.05240   1.000
    H530    H    0.42040   0.14700   0.03720   1.000
    C723    C    0.46157   0.18300   0.07250   1.000
    H531    H    0.48630   0.16700   0.07350   1.000
    C724    C    0.35010   0.20320   0.04680   1.000
    C725    C    0.33020   0.16540   0.03650   1.000
    H532    H    0.34410   0.13970   0.04080   1.000
    C726    C    0.28950   0.16580   0.01980   1.000
    H533    H    0.27610   0.14040   0.01280   1.000
    C727    C    0.26880   0.20400   0.01340   1.000
    C728    C    0.28870   0.24190   0.02370   1.000
    H534    H    0.27470   0.26750   0.01940   1.000
    C729    C    0.32930   0.24140   0.04040   1.000
    H535    H    0.34270   0.26680   0.04730   1.000
    C730    C    0.35770   0.20770   0.03760   1.000
    C731    C    0.34780   0.18380   0.00210   1.000
    H536    H    0.36840   0.16680   0.98950   1.000
    C732    C    0.30730   0.18540   0.98520   1.000
    H537    H    0.30060   0.16940   0.96130   1.000
    C733    C    0.27660   0.21070   0.00390   1.000
    C734    C    0.28660   0.23460   0.03950   1.000
    H538    H    0.26600   0.25160   0.05200   1.000
    C735    C    0.32710   0.23300   0.05630   1.000
    H539    H    0.33380   0.24900   0.08020   1.000
    N99     N    0.95545   0.72160   0.59100   1.000
    C736    C    0.91507   0.73435   0.58220   1.000
    H540    H    0.90260   0.75960   0.59100   1.000
    N100    N    0.89624   0.70360   0.55840   1.000
    C737    C    0.92500   0.67190   0.55240   1.000
    H541    H    0.92040   0.64700   0.53720   1.000
    C738    C    0.96157   0.68300   0.57250   1.000
    H542    H    0.98630   0.66700   0.57350   1.000
    C739    C    0.85010   0.70320   0.54680   1.000
    C740    C    0.83020   0.66540   0.53650   1.000
    H543    H    0.84410   0.63970   0.54080   1.000
    C741    C    0.78950   0.66580   0.51980   1.000
    H544    H    0.77610   0.64040   0.51280   1.000
    C742    C    0.76880   0.70400   0.51340   1.000
    C743    C    0.78870   0.74190   0.52370   1.000
    H545    H    0.77470   0.76750   0.51940   1.000
    C744    C    0.82930   0.74140   0.54040   1.000
    H546    H    0.84270   0.76680   0.54730   1.000
    C745    C    0.85770   0.70770   0.53760   1.000
    C746    C    0.84780   0.68380   0.50210   1.000
    H547    H    0.86840   0.66680   0.48950   1.000
    C747    C    0.80730   0.68540   0.48520   1.000
    H548    H    0.80060   0.66940   0.46130   1.000
    C748    C    0.77660   0.71070   0.50390   1.000
    C749    C    0.78660   0.73460   0.53950   1.000
    H549    H    0.76600   0.75160   0.55200   1.000
    C750    C    0.82710   0.73300   0.55630   1.000
    H550    H    0.83380   0.74900   0.58020   1.000
    N101    N    0.04455   0.77840   0.59100   1.000
    C751    C    0.08493   0.76565   0.58220   1.000
    H551    H    0.09740   0.74040   0.59100   1.000
    N102    N    0.10376   0.79640   0.55840   1.000
    C752    C    0.07500   0.82810   0.55240   1.000
    H552    H    0.07960   0.85300   0.53720   1.000
    C753    C    0.03843   0.81700   0.57250   1.000
    H553    H    0.01370   0.83300   0.57350   1.000
    C754    C    0.14990   0.79680   0.54680   1.000
    C755    C    0.16980   0.83460   0.53650   1.000
    H554    H    0.15590   0.86030   0.54080   1.000
    C756    C    0.21050   0.83420   0.51980   1.000
    H555    H    0.22390   0.85960   0.51280   1.000
    C757    C    0.23120   0.79600   0.51340   1.000
    C758    C    0.21130   0.75810   0.52370   1.000
    H556    H    0.22530   0.73250   0.51940   1.000
    C759    C    0.17070   0.75860   0.54040   1.000
    H557    H    0.15730   0.73320   0.54730   1.000
    C760    C    0.14230   0.79230   0.53760   1.000
    C761    C    0.15220   0.81620   0.50210   1.000
    H558    H    0.13160   0.83320   0.48950   1.000
    C762    C    0.19270   0.81460   0.48520   1.000
    H559    H    0.19940   0.83060   0.46130   1.000
    C763    C    0.22340   0.78930   0.50390   1.000
    C764    C    0.21340   0.76540   0.53950   1.000
    H560    H    0.23400   0.74840   0.55200   1.000
    C765    C    0.17290   0.76700   0.55630   1.000
    H561    H    0.16620   0.75100   0.58020   1.000
    N103    N    0.54455   0.27840   0.09100   1.000
    C766    C    0.58493   0.26565   0.08220   1.000
    H562    H    0.59740   0.24040   0.09100   1.000
    N104    N    0.60376   0.29640   0.05840   1.000
    C767    C    0.57500   0.32810   0.05240   1.000
    H563    H    0.57960   0.35300   0.03720   1.000
    C768    C    0.53843   0.31700   0.07250   1.000
    H564    H    0.51370   0.33300   0.07350   1.000
    C769    C    0.64990   0.29680   0.04680   1.000
    C770    C    0.66980   0.33460   0.03650   1.000
    H565    H    0.65590   0.36030   0.04080   1.000
    C771    C    0.71050   0.33420   0.01980   1.000
    H566    H    0.72390   0.35960   0.01280   1.000
    C772    C    0.73120   0.29600   0.01340   1.000
    C773    C    0.71130   0.25810   0.02370   1.000
    H567    H    0.72530   0.23250   0.01940   1.000
    C774    C    0.67070   0.25860   0.04040   1.000
    H568    H    0.65730   0.23320   0.04730   1.000
    C775    C    0.64230   0.29230   0.03760   1.000
    C776    C    0.65220   0.31620   0.00210   1.000
    H569    H    0.63160   0.33320   0.98950   1.000
    C777    C    0.69270   0.31460   0.98520   1.000
    H570    H    0.69940   0.33060   0.96130   1.000
    C778    C    0.72340   0.28930   0.00390   1.000
    C779    C    0.71340   0.26540   0.03950   1.000
    H571    H    0.73400   0.24840   0.05200   1.000
    C780    C    0.67290   0.26700   0.05630   1.000
    H572    H    0.66620   0.25100   0.08020   1.000
    N105    N    0.95545   0.27840   0.90900   1.000
    C781    C    0.91507   0.26565   0.91780   1.000
    H573    H    0.90260   0.24040   0.90900   1.000
    N106    N    0.89624   0.29640   0.94160   1.000
    C782    C    0.92500   0.32810   0.94760   1.000
    H574    H    0.92040   0.35300   0.96280   1.000
    C783    C    0.96157   0.31700   0.92750   1.000
    H575    H    0.98630   0.33300   0.92650   1.000
    C784    C    0.85010   0.29680   0.95320   1.000
    C785    C    0.83020   0.33460   0.96350   1.000
    H576    H    0.84410   0.36030   0.95920   1.000
    C786    C    0.78950   0.33420   0.98020   1.000
    H577    H    0.77610   0.35960   0.98720   1.000
    C787    C    0.76880   0.29600   0.98660   1.000
    C788    C    0.78870   0.25810   0.97630   1.000
    H578    H    0.77470   0.23250   0.98060   1.000
    C789    C    0.82930   0.25860   0.95960   1.000
    H579    H    0.84270   0.23320   0.95270   1.000
    C790    C    0.85770   0.29230   0.96240   1.000
    C791    C    0.84780   0.31620   0.99790   1.000
    H580    H    0.86840   0.33320   0.01050   1.000
    C792    C    0.80730   0.31460   0.01480   1.000
    H581    H    0.80060   0.33060   0.03870   1.000
    C793    C    0.77660   0.28930   0.99610   1.000
    C794    C    0.78660   0.26540   0.96050   1.000
    H582    H    0.76600   0.24840   0.94800   1.000
    C795    C    0.82710   0.26700   0.94370   1.000
    H583    H    0.83380   0.25100   0.91980   1.000
    N107    N    0.45545   0.77840   0.40900   1.000
    C796    C    0.41507   0.76565   0.41780   1.000
    H584    H    0.40260   0.74040   0.40900   1.000
    N108    N    0.39624   0.79640   0.44160   1.000
    C797    C    0.42500   0.82810   0.44760   1.000
    H585    H    0.42040   0.85300   0.46280   1.000
    C798    C    0.46157   0.81700   0.42750   1.000
    H586    H    0.48630   0.83300   0.42650   1.000
    C799    C    0.35010   0.79680   0.45320   1.000
    C800    C    0.33020   0.83460   0.46350   1.000
    H587    H    0.34410   0.86030   0.45920   1.000
    C801    C    0.28950   0.83420   0.48020   1.000
    H588    H    0.27610   0.85960   0.48720   1.000
    C802    C    0.26880   0.79600   0.48660   1.000
    C803    C    0.28870   0.75810   0.47630   1.000
    H589    H    0.27470   0.73250   0.48060   1.000
    C804    C    0.32930   0.75860   0.45960   1.000
    H590    H    0.34270   0.73320   0.45270   1.000
    C805    C    0.35770   0.79230   0.46240   1.000
    C806    C    0.34780   0.81620   0.49790   1.000
    H591    H    0.36840   0.83320   0.51050   1.000
    C807    C    0.30730   0.81460   0.51480   1.000
    H592    H    0.30060   0.83060   0.53870   1.000
    C808    C    0.27660   0.78930   0.49610   1.000
    C809    C    0.28660   0.76540   0.46050   1.000
    H593    H    0.26600   0.74840   0.44800   1.000
    C810    C    0.32710   0.76700   0.44370   1.000
    H594    H    0.33380   0.75100   0.41980   1.000
    N109    N    0.54455   0.72160   0.40900   1.000
    C811    C    0.58493   0.73435   0.41780   1.000
    H595    H    0.59740   0.75960   0.40900   1.000
    N110    N    0.60376   0.70360   0.44160   1.000
    C812    C    0.57500   0.67190   0.44760   1.000
    H596    H    0.57960   0.64700   0.46280   1.000
    C813    C    0.53843   0.68300   0.42750   1.000
    H597    H    0.51370   0.66700   0.42650   1.000
    C814    C    0.64990   0.70320   0.45320   1.000
    C815    C    0.66980   0.66540   0.46350   1.000
    H598    H    0.65590   0.63970   0.45920   1.000
    C816    C    0.71050   0.66580   0.48020   1.000
    H599    H    0.72390   0.64040   0.48720   1.000
    C817    C    0.73120   0.70400   0.48660   1.000
    C818    C    0.71130   0.74190   0.47630   1.000
    H600    H    0.72530   0.76750   0.48060   1.000
    C819    C    0.67070   0.74140   0.45960   1.000
    H601    H    0.65730   0.76680   0.45270   1.000
    C820    C    0.64230   0.70770   0.46240   1.000
    C821    C    0.65220   0.68380   0.49790   1.000
    H602    H    0.63160   0.66680   0.51050   1.000
    C822    C    0.69270   0.68540   0.51480   1.000
    H603    H    0.69940   0.66940   0.53870   1.000
    C823    C    0.72340   0.71070   0.49610   1.000
    C824    C    0.71340   0.73460   0.46050   1.000
    H604    H    0.73400   0.75160   0.44800   1.000
    C825    C    0.67290   0.73300   0.44370   1.000
    H605    H    0.66620   0.74900   0.41980   1.000
    N111    N    0.04455   0.22160   0.90900   1.000
    C826    C    0.08493   0.23435   0.91780   1.000
    H606    H    0.09740   0.25960   0.90900   1.000
    N112    N    0.10376   0.20360   0.94160   1.000
    C827    C    0.07500   0.17190   0.94760   1.000
    H607    H    0.07960   0.14700   0.96280   1.000
    C828    C    0.03843   0.18300   0.92750   1.000
    H608    H    0.01370   0.16700   0.92650   1.000
    C829    C    0.14990   0.20320   0.95320   1.000
    C830    C    0.16980   0.16540   0.96350   1.000
    H609    H    0.15590   0.13970   0.95920   1.000
    C831    C    0.21050   0.16580   0.98020   1.000
    H610    H    0.22390   0.14040   0.98720   1.000
    C832    C    0.23120   0.20400   0.98660   1.000
    C833    C    0.21130   0.24190   0.97630   1.000
    H611    H    0.22530   0.26750   0.98060   1.000
    C834    C    0.17070   0.24140   0.95960   1.000
    H612    H    0.15730   0.26680   0.95270   1.000
    C835    C    0.14230   0.20770   0.96240   1.000
    C836    C    0.15220   0.18380   0.99790   1.000
    H613    H    0.13160   0.16680   0.01050   1.000
    C837    C    0.19270   0.18540   0.01480   1.000
    H614    H    0.19940   0.16940   0.03870   1.000
    C838    C    0.22340   0.21070   0.99610   1.000
    C839    C    0.21340   0.23460   0.96050   1.000
    H615    H    0.23400   0.25160   0.94800   1.000
    C840    C    0.17290   0.23300   0.94370   1.000
    H616    H    0.16620   0.24900   0.91980   1.000
    N113    N    0.02840   0.29455   0.84100   1.000
    C841    C    0.01565   0.33493   0.83220   1.000
    H617    H    0.99040   0.34740   0.84100   1.000
    N114    N    0.04640   0.35376   0.80840   1.000
    C842    C    0.07810   0.32500   0.80240   1.000
    H618    H    0.10300   0.32960   0.78720   1.000
    C843    C    0.06700   0.28843   0.82250   1.000
    H619    H    0.08300   0.26370   0.82350   1.000
    C844    C    0.04680   0.39990   0.79680   1.000
    C845    C    0.08460   0.41980   0.78650   1.000
    H620    H    0.11030   0.40590   0.79080   1.000
    C846    C    0.08420   0.46050   0.76980   1.000
    H621    H    0.10960   0.47390   0.76280   1.000
    C847    C    0.04600   0.48120   0.76340   1.000
    C848    C    0.00810   0.46130   0.77370   1.000
    H622    H    0.98250   0.47530   0.76940   1.000
    C849    C    0.00860   0.42070   0.79040   1.000
    H623    H    0.98320   0.40730   0.79730   1.000
    C850    C    0.04230   0.39230   0.78760   1.000
    C851    C    0.06620   0.40220   0.75210   1.000
    H624    H    0.08320   0.38160   0.73950   1.000
    C852    C    0.06460   0.44270   0.73520   1.000
    H625    H    0.08060   0.44940   0.71130   1.000
    C853    C    0.03930   0.47340   0.75390   1.000
    C854    C    0.01540   0.46340   0.78950   1.000
    H626    H    0.99840   0.48400   0.80200   1.000
    C855    C    0.01700   0.42290   0.80630   1.000
    H627    H    0.00100   0.41620   0.83020   1.000
    N115    N    0.52840   0.79455   0.34100   1.000
    C856    C    0.51565   0.83493   0.33220   1.000
    H628    H    0.49040   0.84740   0.34100   1.000
    N116    N    0.54640   0.85376   0.30840   1.000
    C857    C    0.57810   0.82500   0.30240   1.000
    H629    H    0.60300   0.82960   0.28720   1.000
    C858    C    0.56700   0.78843   0.32250   1.000
    H630    H    0.58300   0.76370   0.32350   1.000
    C859    C    0.54680   0.89990   0.29680   1.000
    C860    C    0.58460   0.91980   0.28650   1.000
    H631    H    0.61030   0.90590   0.29080   1.000
    C861    C    0.58420   0.96050   0.26980   1.000
    H632    H    0.60960   0.97390   0.26280   1.000
    C862    C    0.54600   0.98120   0.26340   1.000
    C863    C    0.50810   0.96130   0.27370   1.000
    H633    H    0.48250   0.97530   0.26940   1.000
    C864    C    0.50860   0.92070   0.29040   1.000
    H634    H    0.48320   0.90730   0.29730   1.000
    C865    C    0.54230   0.89230   0.28760   1.000
    C866    C    0.56620   0.90220   0.25210   1.000
    H635    H    0.58320   0.88160   0.23950   1.000
    C867    C    0.56460   0.94270   0.23520   1.000
    H636    H    0.58060   0.94940   0.21130   1.000
    C868    C    0.53930   0.97340   0.25390   1.000
    C869    C    0.51540   0.96340   0.28950   1.000
    H637    H    0.49840   0.98400   0.30200   1.000
    C870    C    0.51700   0.92290   0.30630   1.000
    H638    H    0.50100   0.91620   0.33020   1.000
    N117    N    0.47160   0.70545   0.34100   1.000
    C871    C    0.48435   0.66507   0.33220   1.000
    H639    H    0.50960   0.65260   0.34100   1.000
    N118    N    0.45360   0.64624   0.30840   1.000
    C872    C    0.42190   0.67500   0.30240   1.000
    H640    H    0.39700   0.67040   0.28720   1.000
    C873    C    0.43300   0.71157   0.32250   1.000
    H641    H    0.41700   0.73630   0.32350   1.000
    C874    C    0.45320   0.60010   0.29680   1.000
    C875    C    0.41540   0.58020   0.28650   1.000
    H642    H    0.38970   0.59410   0.29080   1.000
    C876    C    0.41580   0.53950   0.26980   1.000
    H643    H    0.39040   0.52610   0.26280   1.000
    C877    C    0.45400   0.51880   0.26340   1.000
    C878    C    0.49190   0.53870   0.27370   1.000
    H644    H    0.51750   0.52470   0.26940   1.000
    C879    C    0.49140   0.57930   0.29040   1.000
    H645    H    0.51680   0.59270   0.29730   1.000
    C880    C    0.45770   0.60770   0.28760   1.000
    C881    C    0.43380   0.59780   0.25210   1.000
    H646    H    0.41680   0.61840   0.23950   1.000
    C882    C    0.43540   0.55730   0.23520   1.000
    H647    H    0.41940   0.55060   0.21130   1.000
    C883    C    0.46070   0.52660   0.25390   1.000
    C884    C    0.48460   0.53660   0.28950   1.000
    H648    H    0.50160   0.51600   0.30200   1.000
    C885    C    0.48300   0.57710   0.30630   1.000
    H649    H    0.49900   0.58380   0.33020   1.000
    N119    N    0.97160   0.20545   0.84100   1.000
    C886    C    0.98435   0.16507   0.83220   1.000
    H650    H    0.00960   0.15260   0.84100   1.000
    N120    N    0.95360   0.14624   0.80840   1.000
    C887    C    0.92190   0.17500   0.80240   1.000
    H651    H    0.89700   0.17040   0.78720   1.000
    C888    C    0.93300   0.21157   0.82250   1.000
    H652    H    0.91700   0.23630   0.82350   1.000
    C889    C    0.95320   0.10010   0.79680   1.000
    C890    C    0.91540   0.08020   0.78650   1.000
    H653    H    0.88970   0.09410   0.79080   1.000
    C891    C    0.91580   0.03950   0.76980   1.000
    H654    H    0.89040   0.02610   0.76280   1.000
    C892    C    0.95400   0.01880   0.76340   1.000
    C893    C    0.99190   0.03870   0.77370   1.000
    H655    H    0.01750   0.02470   0.76940   1.000
    C894    C    0.99140   0.07930   0.79040   1.000
    H656    H    0.01680   0.09270   0.79730   1.000
    C895    C    0.95770   0.10770   0.78760   1.000
    C896    C    0.93380   0.09780   0.75210   1.000
    H657    H    0.91680   0.11840   0.73950   1.000
    C897    C    0.93540   0.05730   0.73520   1.000
    H658    H    0.91940   0.05060   0.71130   1.000
    C898    C    0.96070   0.02660   0.75390   1.000
    C899    C    0.98460   0.03660   0.78950   1.000
    H659    H    0.00160   0.01600   0.80200   1.000
    C900    C    0.98300   0.07710   0.80630   1.000
    H660    H    0.99900   0.08380   0.83020   1.000
    N121    N    0.97160   0.79455   0.65900   1.000
    C901    C    0.98435   0.83493   0.66780   1.000
    H661    H    0.00960   0.84740   0.65900   1.000
    N122    N    0.95360   0.85376   0.69160   1.000
    C902    C    0.92190   0.82500   0.69760   1.000
    H662    H    0.89700   0.82960   0.71280   1.000
    C903    C    0.93300   0.78843   0.67750   1.000
    H663    H    0.91700   0.76370   0.67650   1.000
    C904    C    0.95320   0.89990   0.70320   1.000
    C905    C    0.91540   0.91980   0.71350   1.000
    H664    H    0.88970   0.90590   0.70920   1.000
    C906    C    0.91580   0.96050   0.73020   1.000
    H665    H    0.89040   0.97390   0.73720   1.000
    C907    C    0.95400   0.98120   0.73660   1.000
    C908    C    0.99190   0.96130   0.72630   1.000
    H666    H    0.01750   0.97530   0.73060   1.000
    C909    C    0.99140   0.92070   0.70960   1.000
    H667    H    0.01680   0.90730   0.70270   1.000
    C910    C    0.95770   0.89230   0.71240   1.000
    C911    C    0.93380   0.90220   0.74790   1.000
    H668    H    0.91680   0.88160   0.76050   1.000
    C912    C    0.93540   0.94270   0.76480   1.000
    H669    H    0.91940   0.94940   0.78870   1.000
    C913    C    0.96070   0.97340   0.74610   1.000
    C914    C    0.98460   0.96340   0.71050   1.000
    H670    H    0.00160   0.98400   0.69800   1.000
    C915    C    0.98300   0.92290   0.69370   1.000
    H671    H    0.99900   0.91620   0.66980   1.000
    N123    N    0.47160   0.29455   0.15900   1.000
    C916    C    0.48435   0.33493   0.16780   1.000
    H672    H    0.50960   0.34740   0.15900   1.000
    N124    N    0.45360   0.35376   0.19160   1.000
    C917    C    0.42190   0.32500   0.19760   1.000
    H673    H    0.39700   0.32960   0.21280   1.000
    C918    C    0.43300   0.28843   0.17750   1.000
    H674    H    0.41700   0.26370   0.17650   1.000
    C919    C    0.45320   0.39990   0.20320   1.000
    C920    C    0.41540   0.41980   0.21350   1.000
    H675    H    0.38970   0.40590   0.20920   1.000
    C921    C    0.41580   0.46050   0.23020   1.000
    H676    H    0.39040   0.47390   0.23720   1.000
    C922    C    0.45400   0.48120   0.23660   1.000
    C923    C    0.49190   0.46130   0.22630   1.000
    H677    H    0.51750   0.47530   0.23060   1.000
    C924    C    0.49140   0.42070   0.20960   1.000
    H678    H    0.51680   0.40730   0.20270   1.000
    C925    C    0.45770   0.39230   0.21240   1.000
    C926    C    0.43380   0.40220   0.24790   1.000
    H679    H    0.41680   0.38160   0.26050   1.000
    C927    C    0.43540   0.44270   0.26480   1.000
    H680    H    0.41940   0.44940   0.28870   1.000
    C928    C    0.46070   0.47340   0.24610   1.000
    C929    C    0.48460   0.46340   0.21050   1.000
    H681    H    0.50160   0.48400   0.19800   1.000
    C930    C    0.48300   0.42290   0.19370   1.000
    H682    H    0.49900   0.41620   0.16980   1.000
    N125    N    0.52840   0.20545   0.15900   1.000
    C931    C    0.51565   0.16507   0.16780   1.000
    H683    H    0.49040   0.15260   0.15900   1.000
    N126    N    0.54640   0.14624   0.19160   1.000
    C932    C    0.57810   0.17500   0.19760   1.000
    H684    H    0.60300   0.17040   0.21280   1.000
    C933    C    0.56700   0.21157   0.17750   1.000
    H685    H    0.58300   0.23630   0.17650   1.000
    C934    C    0.54680   0.10010   0.20320   1.000
    C935    C    0.58460   0.08020   0.21350   1.000
    H686    H    0.61030   0.09410   0.20920   1.000
    C936    C    0.58420   0.03950   0.23020   1.000
    H687    H    0.60960   0.02610   0.23720   1.000
    C937    C    0.54600   0.01880   0.23660   1.000
    C938    C    0.50810   0.03870   0.22630   1.000
    H688    H    0.48250   0.02470   0.23060   1.000
    C939    C    0.50860   0.07930   0.20960   1.000
    H689    H    0.48320   0.09270   0.20270   1.000
    C940    C    0.54230   0.10770   0.21240   1.000
    C941    C    0.56620   0.09780   0.24790   1.000
    H690    H    0.58320   0.11840   0.26050   1.000
    C942    C    0.56460   0.05730   0.26480   1.000
    H691    H    0.58060   0.05060   0.28870   1.000
    C943    C    0.53930   0.02660   0.24610   1.000
    C944    C    0.51540   0.03660   0.21050   1.000
    H692    H    0.49840   0.01600   0.19800   1.000
    C945    C    0.51700   0.07710   0.19370   1.000
    H693    H    0.50100   0.08380   0.16980   1.000
    N127    N    0.02840   0.70545   0.65900   1.000
    C946    C    0.01565   0.66507   0.66780   1.000
    H694    H    0.99040   0.65260   0.65900   1.000
    N128    N    0.04640   0.64624   0.69160   1.000
    C947    C    0.07810   0.67500   0.69760   1.000
    H695    H    0.10300   0.67040   0.71280   1.000
    C948    C    0.06700   0.71157   0.67750   1.000
    H696    H    0.08300   0.73630   0.67650   1.000
    C949    C    0.04680   0.60010   0.70320   1.000
    C950    C    0.08460   0.58020   0.71350   1.000
    H697    H    0.11030   0.59410   0.70920   1.000
    C951    C    0.08420   0.53950   0.73020   1.000
    H698    H    0.10960   0.52610   0.73720   1.000
    C952    C    0.04600   0.51880   0.73660   1.000
    C953    C    0.00810   0.53870   0.72630   1.000
    H699    H    0.98250   0.52470   0.73060   1.000
    C954    C    0.00860   0.57930   0.70960   1.000
    H700    H    0.98320   0.59270   0.70270   1.000
    C955    C    0.04230   0.60770   0.71240   1.000
    C956    C    0.06620   0.59780   0.74790   1.000
    H701    H    0.08320   0.61840   0.76050   1.000
    C957    C    0.06460   0.55730   0.76480   1.000
    H702    H    0.08060   0.55060   0.78870   1.000
    C958    C    0.03930   0.52660   0.74610   1.000
    C959    C    0.01540   0.53660   0.71050   1.000
    H703    H    0.99840   0.51600   0.69800   1.000
    C960    C    0.01700   0.57710   0.69370   1.000
    H704    H    0.00100   0.58380   0.66980   1.000
    Zn13    Zn   0.50000   0.25000   0.12500   1.000
    Zn14    Zn   0.00000   0.75000   0.62500   1.000
    Zn15    Zn   0.00000   0.25000   0.87500   1.000
    Zn16    Zn   0.50000   0.75000   0.37500   1.000
    N129    N    0.72160   0.40900   0.54455   1.000
    C961    C    0.73435   0.41780   0.58493   1.000
    H705    H    0.75960   0.40900   0.59740   1.000
    N130    N    0.70360   0.44160   0.60376   1.000
    C962    C    0.67190   0.44760   0.57500   1.000
    H706    H    0.64700   0.46280   0.57960   1.000
    C963    C    0.68300   0.42750   0.53843   1.000
    H707    H    0.66700   0.42650   0.51370   1.000
    C964    C    0.70320   0.45320   0.64990   1.000
    C965    C    0.66540   0.46350   0.66980   1.000
    H708    H    0.63970   0.45920   0.65590   1.000
    C966    C    0.66580   0.48020   0.71050   1.000
    H709    H    0.64040   0.48720   0.72390   1.000
    C967    C    0.70400   0.48660   0.73120   1.000
    C968    C    0.74190   0.47630   0.71130   1.000
    H710    H    0.76750   0.48060   0.72530   1.000
    C969    C    0.74140   0.45960   0.67070   1.000
    H711    H    0.76680   0.45270   0.65730   1.000
    C970    C    0.70770   0.46240   0.64230   1.000
    C971    C    0.68380   0.49790   0.65220   1.000
    H712    H    0.66680   0.51050   0.63160   1.000
    C972    C    0.68540   0.51480   0.69270   1.000
    H713    H    0.66940   0.53870   0.69940   1.000
    C973    C    0.71070   0.49610   0.72340   1.000
    C974    C    0.73460   0.46050   0.71340   1.000
    H714    H    0.75160   0.44800   0.73400   1.000
    C975    C    0.73300   0.44370   0.67290   1.000
    H715    H    0.74900   0.41980   0.66620   1.000
    N131    N    0.22160   0.90900   0.04455   1.000
    C976    C    0.23435   0.91780   0.08493   1.000
    H716    H    0.25960   0.90900   0.09740   1.000
    N132    N    0.20360   0.94160   0.10376   1.000
    C977    C    0.17190   0.94760   0.07500   1.000
    H717    H    0.14700   0.96280   0.07960   1.000
    C978    C    0.18300   0.92750   0.03843   1.000
    H718    H    0.16700   0.92650   0.01370   1.000
    C979    C    0.20320   0.95320   0.14990   1.000
    C980    C    0.16540   0.96350   0.16980   1.000
    H719    H    0.13970   0.95920   0.15590   1.000
    C981    C    0.16580   0.98020   0.21050   1.000
    H720    H    0.14040   0.98720   0.22390   1.000
    C982    C    0.20400   0.98660   0.23120   1.000
    C983    C    0.24190   0.97630   0.21130   1.000
    H721    H    0.26750   0.98060   0.22530   1.000
    C984    C    0.24140   0.95960   0.17070   1.000
    H722    H    0.26680   0.95270   0.15730   1.000
    C985    C    0.20770   0.96240   0.14230   1.000
    C986    C    0.18380   0.99790   0.15220   1.000
    H723    H    0.16680   0.01050   0.13160   1.000
    C987    C    0.18540   0.01480   0.19270   1.000
    H724    H    0.16940   0.03870   0.19940   1.000
    C988    C    0.21070   0.99610   0.22340   1.000
    C989    C    0.23460   0.96050   0.21340   1.000
    H725    H    0.25160   0.94800   0.23400   1.000
    C990    C    0.23300   0.94370   0.17290   1.000
    H726    H    0.24900   0.91980   0.16620   1.000
    N133    N    0.27840   0.90900   0.95545   1.000
    C991    C    0.26565   0.91780   0.91507   1.000
    H727    H    0.24040   0.90900   0.90260   1.000
    N134    N    0.29640   0.94160   0.89624   1.000
    C992    C    0.32810   0.94760   0.92500   1.000
    H728    H    0.35300   0.96280   0.92040   1.000
    C993    C    0.31700   0.92750   0.96157   1.000
    H729    H    0.33300   0.92650   0.98630   1.000
    C994    C    0.29680   0.95320   0.85010   1.000
    C995    C    0.33460   0.96350   0.83020   1.000
    H730    H    0.36030   0.95920   0.84410   1.000
    C996    C    0.33420   0.98020   0.78950   1.000
    H731    H    0.35960   0.98720   0.77610   1.000
    C997    C    0.29600   0.98660   0.76880   1.000
    C998    C    0.25810   0.97630   0.78870   1.000
    H732    H    0.23250   0.98060   0.77470   1.000
    C999    C    0.25860   0.95960   0.82930   1.000
    H733    H    0.23320   0.95270   0.84270   1.000
    C1000   C    0.29230   0.96240   0.85770   1.000
    C1001   C    0.31620   0.99790   0.84780   1.000
    H734    H    0.33320   0.01050   0.86840   1.000
    C1002   C    0.31460   0.01480   0.80730   1.000
    H735    H    0.33060   0.03870   0.80060   1.000
    C1003   C    0.28930   0.99610   0.77660   1.000
    C1004   C    0.26540   0.96050   0.78660   1.000
    H736    H    0.24840   0.94800   0.76600   1.000
    C1005   C    0.26700   0.94370   0.82710   1.000
    H737    H    0.25100   0.91980   0.83380   1.000
    N135    N    0.77840   0.40900   0.45545   1.000
    C1006   C    0.76565   0.41780   0.41507   1.000
    H738    H    0.74040   0.40900   0.40260   1.000
    N136    N    0.79640   0.44160   0.39624   1.000
    C1007   C    0.82810   0.44760   0.42500   1.000
    H739    H    0.85300   0.46280   0.42040   1.000
    C1008   C    0.81700   0.42750   0.46157   1.000
    H740    H    0.83300   0.42650   0.48630   1.000
    C1009   C    0.79680   0.45320   0.35010   1.000
    C1010   C    0.83460   0.46350   0.33020   1.000
    H741    H    0.86030   0.45920   0.34410   1.000
    C1011   C    0.83420   0.48020   0.28950   1.000
    H742    H    0.85960   0.48720   0.27610   1.000
    C1012   C    0.79600   0.48660   0.26880   1.000
    C1013   C    0.75810   0.47630   0.28870   1.000
    H743    H    0.73250   0.48060   0.27470   1.000
    C1014   C    0.75860   0.45960   0.32930   1.000
    H744    H    0.73320   0.45270   0.34270   1.000
    C1015   C    0.79230   0.46240   0.35770   1.000
    C1016   C    0.81620   0.49790   0.34780   1.000
    H745    H    0.83320   0.51050   0.36840   1.000
    C1017   C    0.81460   0.51480   0.30730   1.000
    H746    H    0.83060   0.53870   0.30060   1.000
    C1018   C    0.78930   0.49610   0.27660   1.000
    C1019   C    0.76540   0.46050   0.28660   1.000
    H747    H    0.74840   0.44800   0.26600   1.000
    C1020   C    0.76700   0.44370   0.32710   1.000
    H748    H    0.75100   0.41980   0.33380   1.000
    N137    N    0.77840   0.59100   0.04455   1.000
    C1021   C    0.76565   0.58220   0.08493   1.000
    H749    H    0.74040   0.59100   0.09740   1.000
    N138    N    0.79640   0.55840   0.10376   1.000
    C1022   C    0.82810   0.55240   0.07500   1.000
    H750    H    0.85300   0.53720   0.07960   1.000
    C1023   C    0.81700   0.57250   0.03843   1.000
    H751    H    0.83300   0.57350   0.01370   1.000
    C1024   C    0.79680   0.54680   0.14990   1.000
    C1025   C    0.83460   0.53650   0.16980   1.000
    H752    H    0.86030   0.54080   0.15590   1.000
    C1026   C    0.83420   0.51980   0.21050   1.000
    H753    H    0.85960   0.51280   0.22390   1.000
    C1027   C    0.79600   0.51340   0.23120   1.000
    C1028   C    0.75810   0.52370   0.21130   1.000
    H754    H    0.73250   0.51940   0.22530   1.000
    C1029   C    0.75860   0.54040   0.17070   1.000
    H755    H    0.73320   0.54730   0.15730   1.000
    C1030   C    0.79230   0.53760   0.14230   1.000
    C1031   C    0.81620   0.50210   0.15220   1.000
    H756    H    0.83320   0.48950   0.13160   1.000
    C1032   C    0.81460   0.48520   0.19270   1.000
    H757    H    0.83060   0.46130   0.19940   1.000
    C1033   C    0.78930   0.50390   0.22340   1.000
    C1034   C    0.76540   0.53950   0.21340   1.000
    H758    H    0.74840   0.55200   0.23400   1.000
    C1035   C    0.76700   0.55630   0.17290   1.000
    H759    H    0.75100   0.58020   0.16620   1.000
    N139    N    0.27840   0.09100   0.54455   1.000
    C1036   C    0.26565   0.08220   0.58493   1.000
    H760    H    0.24040   0.09100   0.59740   1.000
    N140    N    0.29640   0.05840   0.60376   1.000
    C1037   C    0.32810   0.05240   0.57500   1.000
    H761    H    0.35300   0.03720   0.57960   1.000
    C1038   C    0.31700   0.07250   0.53843   1.000
    H762    H    0.33300   0.07350   0.51370   1.000
    C1039   C    0.29680   0.04680   0.64990   1.000
    C1040   C    0.33460   0.03650   0.66980   1.000
    H763    H    0.36030   0.04080   0.65590   1.000
    C1041   C    0.33420   0.01980   0.71050   1.000
    H764    H    0.35960   0.01280   0.72390   1.000
    C1042   C    0.29600   0.01340   0.73120   1.000
    C1043   C    0.25810   0.02370   0.71130   1.000
    H765    H    0.23250   0.01940   0.72530   1.000
    C1044   C    0.25860   0.04040   0.67070   1.000
    H766    H    0.23320   0.04730   0.65730   1.000
    C1045   C    0.29230   0.03760   0.64230   1.000
    C1046   C    0.31620   0.00210   0.65220   1.000
    H767    H    0.33320   0.98950   0.63160   1.000
    C1047   C    0.31460   0.98520   0.69270   1.000
    H768    H    0.33060   0.96130   0.69940   1.000
    C1048   C    0.28930   0.00390   0.72340   1.000
    C1049   C    0.26540   0.03950   0.71340   1.000
    H769    H    0.24840   0.05200   0.73400   1.000
    C1050   C    0.26700   0.05630   0.67290   1.000
    H770    H    0.25100   0.08020   0.66620   1.000
    N141    N    0.22160   0.09100   0.45545   1.000
    C1051   C    0.23435   0.08220   0.41507   1.000
    H771    H    0.25960   0.09100   0.40260   1.000
    N142    N    0.20360   0.05840   0.39624   1.000
    C1052   C    0.17190   0.05240   0.42500   1.000
    H772    H    0.14700   0.03720   0.42040   1.000
    C1053   C    0.18300   0.07250   0.46157   1.000
    H773    H    0.16700   0.07350   0.48630   1.000
    C1054   C    0.20320   0.04680   0.35010   1.000
    C1055   C    0.16540   0.03650   0.33020   1.000
    H774    H    0.13970   0.04080   0.34410   1.000
    C1056   C    0.16580   0.01980   0.28950   1.000
    H775    H    0.14040   0.01280   0.27610   1.000
    C1057   C    0.20400   0.01340   0.26880   1.000
    C1058   C    0.24190   0.02370   0.28870   1.000
    H776    H    0.26750   0.01940   0.27470   1.000
    C1059   C    0.24140   0.04040   0.32930   1.000
    H777    H    0.26680   0.04730   0.34270   1.000
    C1060   C    0.20770   0.03760   0.35770   1.000
    C1061   C    0.18380   0.00210   0.34780   1.000
    H778    H    0.16680   0.98950   0.36840   1.000
    C1062   C    0.18540   0.98520   0.30730   1.000
    H779    H    0.16940   0.96130   0.30060   1.000
    C1063   C    0.21070   0.00390   0.27660   1.000
    C1064   C    0.23460   0.03950   0.28660   1.000
    H780    H    0.25160   0.05200   0.26600   1.000
    C1065   C    0.23300   0.05630   0.32710   1.000
    H781    H    0.24900   0.08020   0.33380   1.000
    N143    N    0.72160   0.59100   0.95545   1.000
    C1066   C    0.73435   0.58220   0.91507   1.000
    H782    H    0.75960   0.59100   0.90260   1.000
    N144    N    0.70360   0.55840   0.89624   1.000
    C1067   C    0.67190   0.55240   0.92500   1.000
    H783    H    0.64700   0.53720   0.92040   1.000
    C1068   C    0.68300   0.57250   0.96157   1.000
    H784    H    0.66700   0.57350   0.98630   1.000
    C1069   C    0.70320   0.54680   0.85010   1.000
    C1070   C    0.66540   0.53650   0.83020   1.000
    H785    H    0.63970   0.54080   0.84410   1.000
    C1071   C    0.66580   0.51980   0.78950   1.000
    H786    H    0.64040   0.51280   0.77610   1.000
    C1072   C    0.70400   0.51340   0.76880   1.000
    C1073   C    0.74190   0.52370   0.78870   1.000
    H787    H    0.76750   0.51940   0.77470   1.000
    C1074   C    0.74140   0.54040   0.82930   1.000
    H788    H    0.76680   0.54730   0.84270   1.000
    C1075   C    0.70770   0.53760   0.85770   1.000
    C1076   C    0.68380   0.50210   0.84780   1.000
    H789    H    0.66680   0.48950   0.86840   1.000
    C1077   C    0.68540   0.48520   0.80730   1.000
    H790    H    0.66940   0.46130   0.80060   1.000
    C1078   C    0.71070   0.50390   0.77660   1.000
    C1079   C    0.73460   0.53950   0.78660   1.000
    H791    H    0.75160   0.55200   0.76600   1.000
    C1080   C    0.73300   0.55630   0.82710   1.000
    H792    H    0.74900   0.58020   0.83380   1.000
    N145    N    0.29455   0.84100   0.02840   1.000
    C1081   C    0.33493   0.83220   0.01565   1.000
    H793    H    0.34740   0.84100   0.99040   1.000
    N146    N    0.35376   0.80840   0.04640   1.000
    C1082   C    0.32500   0.80240   0.07810   1.000
    H794    H    0.32960   0.78720   0.10300   1.000
    C1083   C    0.28843   0.82250   0.06700   1.000
    H795    H    0.26370   0.82350   0.08300   1.000
    C1084   C    0.39990   0.79680   0.04680   1.000
    C1085   C    0.41980   0.78650   0.08460   1.000
    H796    H    0.40590   0.79080   0.11030   1.000
    C1086   C    0.46050   0.76980   0.08420   1.000
    H797    H    0.47390   0.76280   0.10960   1.000
    C1087   C    0.48120   0.76340   0.04600   1.000
    C1088   C    0.46130   0.77370   0.00810   1.000
    H798    H    0.47530   0.76940   0.98250   1.000
    C1089   C    0.42070   0.79040   0.00860   1.000
    H799    H    0.40730   0.79730   0.98320   1.000
    C1090   C    0.39230   0.78760   0.04230   1.000
    C1091   C    0.40220   0.75210   0.06620   1.000
    H800    H    0.38160   0.73950   0.08320   1.000
    C1092   C    0.44270   0.73520   0.06460   1.000
    H801    H    0.44940   0.71130   0.08060   1.000
    C1093   C    0.47340   0.75390   0.03930   1.000
    C1094   C    0.46340   0.78950   0.01540   1.000
    H802    H    0.48400   0.80200   0.99840   1.000
    C1095   C    0.42290   0.80630   0.01700   1.000
    H803    H    0.41620   0.83020   0.00100   1.000
    N147    N    0.79455   0.34100   0.52840   1.000
    C1096   C    0.83493   0.33220   0.51565   1.000
    H804    H    0.84740   0.34100   0.49040   1.000
    N148    N    0.85376   0.30840   0.54640   1.000
    C1097   C    0.82500   0.30240   0.57810   1.000
    H805    H    0.82960   0.28720   0.60300   1.000
    C1098   C    0.78843   0.32250   0.56700   1.000
    H806    H    0.76370   0.32350   0.58300   1.000
    C1099   C    0.89990   0.29680   0.54680   1.000
    C1100   C    0.91980   0.28650   0.58460   1.000
    H807    H    0.90590   0.29080   0.61030   1.000
    C1101   C    0.96050   0.26980   0.58420   1.000
    H808    H    0.97390   0.26280   0.60960   1.000
    C1102   C    0.98120   0.26340   0.54600   1.000
    C1103   C    0.96130   0.27370   0.50810   1.000
    H809    H    0.97530   0.26940   0.48250   1.000
    C1104   C    0.92070   0.29040   0.50860   1.000
    H810    H    0.90730   0.29730   0.48320   1.000
    C1105   C    0.89230   0.28760   0.54230   1.000
    C1106   C    0.90220   0.25210   0.56620   1.000
    H811    H    0.88160   0.23950   0.58320   1.000
    C1107   C    0.94270   0.23520   0.56460   1.000
    H812    H    0.94940   0.21130   0.58060   1.000
    C1108   C    0.97340   0.25390   0.53930   1.000
    C1109   C    0.96340   0.28950   0.51540   1.000
    H813    H    0.98400   0.30200   0.49840   1.000
    C1110   C    0.92290   0.30630   0.51700   1.000
    H814    H    0.91620   0.33020   0.50100   1.000
    N149    N    0.70545   0.34100   0.47160   1.000
    C1111   C    0.66507   0.33220   0.48435   1.000
    H815    H    0.65260   0.34100   0.50960   1.000
    N150    N    0.64624   0.30840   0.45360   1.000
    C1112   C    0.67500   0.30240   0.42190   1.000
    H816    H    0.67040   0.28720   0.39700   1.000
    C1113   C    0.71157   0.32250   0.43300   1.000
    H817    H    0.73630   0.32350   0.41700   1.000
    C1114   C    0.60010   0.29680   0.45320   1.000
    C1115   C    0.58020   0.28650   0.41540   1.000
    H818    H    0.59410   0.29080   0.38970   1.000
    C1116   C    0.53950   0.26980   0.41580   1.000
    H819    H    0.52610   0.26280   0.39040   1.000
    C1117   C    0.51880   0.26340   0.45400   1.000
    C1118   C    0.53870   0.27370   0.49190   1.000
    H820    H    0.52470   0.26940   0.51750   1.000
    C1119   C    0.57930   0.29040   0.49140   1.000
    H821    H    0.59270   0.29730   0.51680   1.000
    C1120   C    0.60770   0.28760   0.45770   1.000
    C1121   C    0.59780   0.25210   0.43380   1.000
    H822    H    0.61840   0.23950   0.41680   1.000
    C1122   C    0.55730   0.23520   0.43540   1.000
    H823    H    0.55060   0.21130   0.41940   1.000
    C1123   C    0.52660   0.25390   0.46070   1.000
    C1124   C    0.53660   0.28950   0.48460   1.000
    H824    H    0.51600   0.30200   0.50160   1.000
    C1125   C    0.57710   0.30630   0.48300   1.000
    H825    H    0.58380   0.33020   0.49900   1.000
    N151    N    0.20545   0.84100   0.97160   1.000
    C1126   C    0.16507   0.83220   0.98435   1.000
    H826    H    0.15260   0.84100   0.00960   1.000
    N152    N    0.14624   0.80840   0.95360   1.000
    C1127   C    0.17500   0.80240   0.92190   1.000
    H827    H    0.17040   0.78720   0.89700   1.000
    C1128   C    0.21157   0.82250   0.93300   1.000
    H828    H    0.23630   0.82350   0.91700   1.000
    C1129   C    0.10010   0.79680   0.95320   1.000
    C1130   C    0.08020   0.78650   0.91540   1.000
    H829    H    0.09410   0.79080   0.88970   1.000
    C1131   C    0.03950   0.76980   0.91580   1.000
    H830    H    0.02610   0.76280   0.89040   1.000
    C1132   C    0.01880   0.76340   0.95400   1.000
    C1133   C    0.03870   0.77370   0.99190   1.000
    H831    H    0.02470   0.76940   0.01750   1.000
    C1134   C    0.07930   0.79040   0.99140   1.000
    H832    H    0.09270   0.79730   0.01680   1.000
    C1135   C    0.10770   0.78760   0.95770   1.000
    C1136   C    0.09780   0.75210   0.93380   1.000
    H833    H    0.11840   0.73950   0.91680   1.000
    C1137   C    0.05730   0.73520   0.93540   1.000
    H834    H    0.05060   0.71130   0.91940   1.000
    C1138   C    0.02660   0.75390   0.96070   1.000
    C1139   C    0.03660   0.78950   0.98460   1.000
    H835    H    0.01600   0.80200   0.00160   1.000
    C1140   C    0.07710   0.80630   0.98300   1.000
    H836    H    0.08380   0.83020   0.99900   1.000
    N153    N    0.79455   0.65900   0.97160   1.000
    C1141   C    0.83493   0.66780   0.98435   1.000
    H837    H    0.84740   0.65900   0.00960   1.000
    N154    N    0.85376   0.69160   0.95360   1.000
    C1142   C    0.82500   0.69760   0.92190   1.000
    H838    H    0.82960   0.71280   0.89700   1.000
    C1143   C    0.78843   0.67750   0.93300   1.000
    H839    H    0.76370   0.67650   0.91700   1.000
    C1144   C    0.89990   0.70320   0.95320   1.000
    C1145   C    0.91980   0.71350   0.91540   1.000
    H840    H    0.90590   0.70920   0.88970   1.000
    C1146   C    0.96050   0.73020   0.91580   1.000
    H841    H    0.97390   0.73720   0.89040   1.000
    C1147   C    0.98120   0.73660   0.95400   1.000
    C1148   C    0.96130   0.72630   0.99190   1.000
    H842    H    0.97530   0.73060   0.01750   1.000
    C1149   C    0.92070   0.70960   0.99140   1.000
    H843    H    0.90730   0.70270   0.01680   1.000
    C1150   C    0.89230   0.71240   0.95770   1.000
    C1151   C    0.90220   0.74790   0.93380   1.000
    H844    H    0.88160   0.76050   0.91680   1.000
    C1152   C    0.94270   0.76480   0.93540   1.000
    H845    H    0.94940   0.78870   0.91940   1.000
    C1153   C    0.97340   0.74610   0.96070   1.000
    C1154   C    0.96340   0.71050   0.98460   1.000
    H846    H    0.98400   0.69800   0.00160   1.000
    C1155   C    0.92290   0.69370   0.98300   1.000
    H847    H    0.91620   0.66980   0.99900   1.000
    N155    N    0.29455   0.15900   0.47160   1.000
    C1156   C    0.33493   0.16780   0.48435   1.000
    H848    H    0.34740   0.15900   0.50960   1.000
    N156    N    0.35376   0.19160   0.45360   1.000
    C1157   C    0.32500   0.19760   0.42190   1.000
    H849    H    0.32960   0.21280   0.39700   1.000
    C1158   C    0.28843   0.17750   0.43300   1.000
    H850    H    0.26370   0.17650   0.41700   1.000
    C1159   C    0.39990   0.20320   0.45320   1.000
    C1160   C    0.41980   0.21350   0.41540   1.000
    H851    H    0.40590   0.20920   0.38970   1.000
    C1161   C    0.46050   0.23020   0.41580   1.000
    H852    H    0.47390   0.23720   0.39040   1.000
    C1162   C    0.48120   0.23660   0.45400   1.000
    C1163   C    0.46130   0.22630   0.49190   1.000
    H853    H    0.47530   0.23060   0.51750   1.000
    C1164   C    0.42070   0.20960   0.49140   1.000
    H854    H    0.40730   0.20270   0.51680   1.000
    C1165   C    0.39230   0.21240   0.45770   1.000
    C1166   C    0.40220   0.24790   0.43380   1.000
    H855    H    0.38160   0.26050   0.41680   1.000
    C1167   C    0.44270   0.26480   0.43540   1.000
    H856    H    0.44940   0.28870   0.41940   1.000
    C1168   C    0.47340   0.24610   0.46070   1.000
    C1169   C    0.46340   0.21050   0.48460   1.000
    H857    H    0.48400   0.19800   0.50160   1.000
    C1170   C    0.42290   0.19370   0.48300   1.000
    H858    H    0.41620   0.16980   0.49900   1.000
    N157    N    0.20545   0.15900   0.52840   1.000
    C1171   C    0.16507   0.16780   0.51565   1.000
    H859    H    0.15260   0.15900   0.49040   1.000
    N158    N    0.14624   0.19160   0.54640   1.000
    C1172   C    0.17500   0.19760   0.57810   1.000
    H860    H    0.17040   0.21280   0.60300   1.000
    C1173   C    0.21157   0.17750   0.56700   1.000
    H861    H    0.23630   0.17650   0.58300   1.000
    C1174   C    0.10010   0.20320   0.54680   1.000
    C1175   C    0.08020   0.21350   0.58460   1.000
    H862    H    0.09410   0.20920   0.61030   1.000
    C1176   C    0.03950   0.23020   0.58420   1.000
    H863    H    0.02610   0.23720   0.60960   1.000
    C1177   C    0.01880   0.23660   0.54600   1.000
    C1178   C    0.03870   0.22630   0.50810   1.000
    H864    H    0.02470   0.23060   0.48250   1.000
    C1179   C    0.07930   0.20960   0.50860   1.000
    H865    H    0.09270   0.20270   0.48320   1.000
    C1180   C    0.10770   0.21240   0.54230   1.000
    C1181   C    0.09780   0.24790   0.56620   1.000
    H866    H    0.11840   0.26050   0.58320   1.000
    C1182   C    0.05730   0.26480   0.56460   1.000
    H867    H    0.05060   0.28870   0.58060   1.000
    C1183   C    0.02660   0.24610   0.53930   1.000
    C1184   C    0.03660   0.21050   0.51540   1.000
    H868    H    0.01600   0.19800   0.49840   1.000
    C1185   C    0.07710   0.19370   0.51700   1.000
    H869    H    0.08380   0.16980   0.50100   1.000
    N159    N    0.70545   0.65900   0.02840   1.000
    C1186   C    0.66507   0.66780   0.01565   1.000
    H870    H    0.65260   0.65900   0.99040   1.000
    N160    N    0.64624   0.69160   0.04640   1.000
    C1187   C    0.67500   0.69760   0.07810   1.000
    H871    H    0.67040   0.71280   0.10300   1.000
    C1188   C    0.71157   0.67750   0.06700   1.000
    H872    H    0.73630   0.67650   0.08300   1.000
    C1189   C    0.60010   0.70320   0.04680   1.000
    C1190   C    0.58020   0.71350   0.08460   1.000
    H873    H    0.59410   0.70920   0.11030   1.000
    C1191   C    0.53950   0.73020   0.08420   1.000
    H874    H    0.52610   0.73720   0.10960   1.000
    C1192   C    0.51880   0.73660   0.04600   1.000
    C1193   C    0.53870   0.72630   0.00810   1.000
    H875    H    0.52470   0.73060   0.98250   1.000
    C1194   C    0.57930   0.70960   0.00860   1.000
    H876    H    0.59270   0.70270   0.98320   1.000
    C1195   C    0.60770   0.71240   0.04230   1.000
    C1196   C    0.59780   0.74790   0.06620   1.000
    H877    H    0.61840   0.76050   0.08320   1.000
    C1197   C    0.55730   0.76480   0.06460   1.000
    H878    H    0.55060   0.78870   0.08060   1.000
    C1198   C    0.52660   0.74610   0.03930   1.000
    C1199   C    0.53660   0.71050   0.01540   1.000
    H879    H    0.51600   0.69800   0.99840   1.000
    C1200   C    0.57710   0.69370   0.01700   1.000
    H880    H    0.58380   0.66980   0.00100   1.000
    Zn17    Zn   0.75000   0.37500   0.50000   1.000
    Zn18    Zn   0.25000   0.87500   0.00000   1.000
    Zn19    Zn   0.75000   0.62500   0.00000   1.000
    Zn20    Zn   0.25000   0.12500   0.50000   1.000
    N161    N    0.90900   0.95545   0.27840   1.000
    C1201   C    0.91780   0.91507   0.26565   1.000
    H881    H    0.90900   0.90260   0.24040   1.000
    N162    N    0.94160   0.89624   0.29640   1.000
    C1202   C    0.94760   0.92500   0.32810   1.000
    H882    H    0.96280   0.92040   0.35300   1.000
    C1203   C    0.92750   0.96157   0.31700   1.000
    H883    H    0.92650   0.98630   0.33300   1.000
    C1204   C    0.95320   0.85010   0.29680   1.000
    C1205   C    0.96350   0.83020   0.33460   1.000
    H884    H    0.95920   0.84410   0.36030   1.000
    C1206   C    0.98020   0.78950   0.33420   1.000
    H885    H    0.98720   0.77610   0.35960   1.000
    C1207   C    0.98660   0.76880   0.29600   1.000
    C1208   C    0.97630   0.78870   0.25810   1.000
    H886    H    0.98060   0.77470   0.23250   1.000
    C1209   C    0.95960   0.82930   0.25860   1.000
    H887    H    0.95270   0.84270   0.23320   1.000
    C1210   C    0.96240   0.85770   0.29230   1.000
    C1211   C    0.99790   0.84780   0.31620   1.000
    H888    H    0.01050   0.86840   0.33320   1.000
    C1212   C    0.01480   0.80730   0.31460   1.000
    H889    H    0.03870   0.80060   0.33060   1.000
    C1213   C    0.99610   0.77660   0.28930   1.000
    C1214   C    0.96050   0.78660   0.26540   1.000
    H890    H    0.94800   0.76600   0.24840   1.000
    C1215   C    0.94370   0.82710   0.26700   1.000
    H891    H    0.91980   0.83380   0.25100   1.000
    N163    N    0.40900   0.45545   0.77840   1.000
    C1216   C    0.41780   0.41507   0.76565   1.000
    H892    H    0.40900   0.40260   0.74040   1.000
    N164    N    0.44160   0.39624   0.79640   1.000
    C1217   C    0.44760   0.42500   0.82810   1.000
    H893    H    0.46280   0.42040   0.85300   1.000
    C1218   C    0.42750   0.46157   0.81700   1.000
    H894    H    0.42650   0.48630   0.83300   1.000
    C1219   C    0.45320   0.35010   0.79680   1.000
    C1220   C    0.46350   0.33020   0.83460   1.000
    H895    H    0.45920   0.34410   0.86030   1.000
    C1221   C    0.48020   0.28950   0.83420   1.000
    H896    H    0.48720   0.27610   0.85960   1.000
    C1222   C    0.48660   0.26880   0.79600   1.000
    C1223   C    0.47630   0.28870   0.75810   1.000
    H897    H    0.48060   0.27470   0.73250   1.000
    C1224   C    0.45960   0.32930   0.75860   1.000
    H898    H    0.45270   0.34270   0.73320   1.000
    C1225   C    0.46240   0.35770   0.79230   1.000
    C1226   C    0.49790   0.34780   0.81620   1.000
    H899    H    0.51050   0.36840   0.83320   1.000
    C1227   C    0.51480   0.30730   0.81460   1.000
    H900    H    0.53870   0.30060   0.83060   1.000
    C1228   C    0.49610   0.27660   0.78930   1.000
    C1229   C    0.46050   0.28660   0.76540   1.000
    H901    H    0.44800   0.26600   0.74840   1.000
    C1230   C    0.44370   0.32710   0.76700   1.000
    H902    H    0.41980   0.33380   0.75100   1.000
    N165    N    0.40900   0.54455   0.72160   1.000
    C1231   C    0.41780   0.58493   0.73435   1.000
    H903    H    0.40900   0.59740   0.75960   1.000
    N166    N    0.44160   0.60376   0.70360   1.000
    C1232   C    0.44760   0.57500   0.67190   1.000
    H904    H    0.46280   0.57960   0.64700   1.000
    C1233   C    0.42750   0.53843   0.68300   1.000
    H905    H    0.42650   0.51370   0.66700   1.000
    C1234   C    0.45320   0.64990   0.70320   1.000
    C1235   C    0.46350   0.66980   0.66540   1.000
    H906    H    0.45920   0.65590   0.63970   1.000
    C1236   C    0.48020   0.71050   0.66580   1.000
    H907    H    0.48720   0.72390   0.64040   1.000
    C1237   C    0.48660   0.73120   0.70400   1.000
    C1238   C    0.47630   0.71130   0.74190   1.000
    H908    H    0.48060   0.72530   0.76750   1.000
    C1239   C    0.45960   0.67070   0.74140   1.000
    H909    H    0.45270   0.65730   0.76680   1.000
    C1240   C    0.46240   0.64230   0.70770   1.000
    C1241   C    0.49790   0.65220   0.68380   1.000
    H910    H    0.51050   0.63160   0.66680   1.000
    C1242   C    0.51480   0.69270   0.68540   1.000
    H911    H    0.53870   0.69940   0.66940   1.000
    C1243   C    0.49610   0.72340   0.71070   1.000
    C1244   C    0.46050   0.71340   0.73460   1.000
    H912    H    0.44800   0.73400   0.75160   1.000
    C1245   C    0.44370   0.67290   0.73300   1.000
    H913    H    0.41980   0.66620   0.74900   1.000
    N167    N    0.90900   0.04455   0.22160   1.000
    C1246   C    0.91780   0.08493   0.23435   1.000
    H914    H    0.90900   0.09740   0.25960   1.000
    N168    N    0.94160   0.10376   0.20360   1.000
    C1247   C    0.94760   0.07500   0.17190   1.000
    H915    H    0.96280   0.07960   0.14700   1.000
    C1248   C    0.92750   0.03843   0.18300   1.000
    H916    H    0.92650   0.01370   0.16700   1.000
    C1249   C    0.95320   0.14990   0.20320   1.000
    C1250   C    0.96350   0.16980   0.16540   1.000
    H917    H    0.95920   0.15590   0.13970   1.000
    C1251   C    0.98020   0.21050   0.16580   1.000
    H918    H    0.98720   0.22390   0.14040   1.000
    C1252   C    0.98660   0.23120   0.20400   1.000
    C1253   C    0.97630   0.21130   0.24190   1.000
    H919    H    0.98060   0.22530   0.26750   1.000
    C1254   C    0.95960   0.17070   0.24140   1.000
    H920    H    0.95270   0.15730   0.26680   1.000
    C1255   C    0.96240   0.14230   0.20770   1.000
    C1256   C    0.99790   0.15220   0.18380   1.000
    H921    H    0.01050   0.13160   0.16680   1.000
    C1257   C    0.01480   0.19270   0.18540   1.000
    H922    H    0.03870   0.19940   0.16940   1.000
    C1258   C    0.99610   0.22340   0.21070   1.000
    C1259   C    0.96050   0.21340   0.23460   1.000
    H923    H    0.94800   0.23400   0.25160   1.000
    C1260   C    0.94370   0.17290   0.23300   1.000
    H924    H    0.91980   0.16620   0.24900   1.000
    N169    N    0.09100   0.45545   0.22160   1.000
    C1261   C    0.08220   0.41507   0.23435   1.000
    H925    H    0.09100   0.40260   0.25960   1.000
    N170    N    0.05840   0.39624   0.20360   1.000
    C1262   C    0.05240   0.42500   0.17190   1.000
    H926    H    0.03720   0.42040   0.14700   1.000
    C1263   C    0.07250   0.46157   0.18300   1.000
    H927    H    0.07350   0.48630   0.16700   1.000
    C1264   C    0.04680   0.35010   0.20320   1.000
    C1265   C    0.03650   0.33020   0.16540   1.000
    H928    H    0.04080   0.34410   0.13970   1.000
    C1266   C    0.01980   0.28950   0.16580   1.000
    H929    H    0.01280   0.27610   0.14040   1.000
    C1267   C    0.01340   0.26880   0.20400   1.000
    C1268   C    0.02370   0.28870   0.24190   1.000
    H930    H    0.01940   0.27470   0.26750   1.000
    C1269   C    0.04040   0.32930   0.24140   1.000
    H931    H    0.04730   0.34270   0.26680   1.000
    C1270   C    0.03760   0.35770   0.20770   1.000
    C1271   C    0.00210   0.34780   0.18380   1.000
    H932    H    0.98950   0.36840   0.16680   1.000
    C1272   C    0.98520   0.30730   0.18540   1.000
    H933    H    0.96130   0.30060   0.16940   1.000
    C1273   C    0.00390   0.27660   0.21070   1.000
    C1274   C    0.03950   0.28660   0.23460   1.000
    H934    H    0.05200   0.26600   0.25160   1.000
    C1275   C    0.05630   0.32710   0.23300   1.000
    H935    H    0.08020   0.33380   0.24900   1.000
    N171    N    0.59100   0.95545   0.72160   1.000
    C1276   C    0.58220   0.91507   0.73435   1.000
    H936    H    0.59100   0.90260   0.75960   1.000
    N172    N    0.55840   0.89624   0.70360   1.000
    C1277   C    0.55240   0.92500   0.67190   1.000
    H937    H    0.53720   0.92040   0.64700   1.000
    C1278   C    0.57250   0.96157   0.68300   1.000
    H938    H    0.57350   0.98630   0.66700   1.000
    C1279   C    0.54680   0.85010   0.70320   1.000
    C1280   C    0.53650   0.83020   0.66540   1.000
    H939    H    0.54080   0.84410   0.63970   1.000
    C1281   C    0.51980   0.78950   0.66580   1.000
    H940    H    0.51280   0.77610   0.64040   1.000
    C1282   C    0.51340   0.76880   0.70400   1.000
    C1283   C    0.52370   0.78870   0.74190   1.000
    H941    H    0.51940   0.77470   0.76750   1.000
    C1284   C    0.54040   0.82930   0.74140   1.000
    H942    H    0.54730   0.84270   0.76680   1.000
    C1285   C    0.53760   0.85770   0.70770   1.000
    C1286   C    0.50210   0.84780   0.68380   1.000
    H943    H    0.48950   0.86840   0.66680   1.000
    C1287   C    0.48520   0.80730   0.68540   1.000
    H944    H    0.46130   0.80060   0.66940   1.000
    C1288   C    0.50390   0.77660   0.71070   1.000
    C1289   C    0.53950   0.78660   0.73460   1.000
    H945    H    0.55200   0.76600   0.75160   1.000
    C1290   C    0.55630   0.82710   0.73300   1.000
    H946    H    0.58020   0.83380   0.74900   1.000
    N173    N    0.59100   0.04455   0.77840   1.000
    C1291   C    0.58220   0.08493   0.76565   1.000
    H947    H    0.59100   0.09740   0.74040   1.000
    N174    N    0.55840   0.10376   0.79640   1.000
    C1292   C    0.55240   0.07500   0.82810   1.000
    H948    H    0.53720   0.07960   0.85300   1.000
    C1293   C    0.57250   0.03843   0.81700   1.000
    H949    H    0.57350   0.01370   0.83300   1.000
    C1294   C    0.54680   0.14990   0.79680   1.000
    C1295   C    0.53650   0.16980   0.83460   1.000
    H950    H    0.54080   0.15590   0.86030   1.000
    C1296   C    0.51980   0.21050   0.83420   1.000
    H951    H    0.51280   0.22390   0.85960   1.000
    C1297   C    0.51340   0.23120   0.79600   1.000
    C1298   C    0.52370   0.21130   0.75810   1.000
    H952    H    0.51940   0.22530   0.73250   1.000
    C1299   C    0.54040   0.17070   0.75860   1.000
    H953    H    0.54730   0.15730   0.73320   1.000
    C1300   C    0.53760   0.14230   0.79230   1.000
    C1301   C    0.50210   0.15220   0.81620   1.000
    H954    H    0.48950   0.13160   0.83320   1.000
    C1302   C    0.48520   0.19270   0.81460   1.000
    H955    H    0.46130   0.19940   0.83060   1.000
    C1303   C    0.50390   0.22340   0.78930   1.000
    C1304   C    0.53950   0.21340   0.76540   1.000
    H956    H    0.55200   0.23400   0.74840   1.000
    C1305   C    0.55630   0.17290   0.76700   1.000
    H957    H    0.58020   0.16620   0.75100   1.000
    N175    N    0.09100   0.54455   0.27840   1.000
    C1306   C    0.08220   0.58493   0.26565   1.000
    H958    H    0.09100   0.59740   0.24040   1.000
    N176    N    0.05840   0.60376   0.29640   1.000
    C1307   C    0.05240   0.57500   0.32810   1.000
    H959    H    0.03720   0.57960   0.35300   1.000
    C1308   C    0.07250   0.53843   0.31700   1.000
    H960    H    0.07350   0.51370   0.33300   1.000
    C1309   C    0.04680   0.64990   0.29680   1.000
    C1310   C    0.03650   0.66980   0.33460   1.000
    H961    H    0.04080   0.65590   0.36030   1.000
    C1311   C    0.01980   0.71050   0.33420   1.000
    H962    H    0.01280   0.72390   0.35960   1.000
    C1312   C    0.01340   0.73120   0.29600   1.000
    C1313   C    0.02370   0.71130   0.25810   1.000
    H963    H    0.01940   0.72530   0.23250   1.000
    C1314   C    0.04040   0.67070   0.25860   1.000
    H964    H    0.04730   0.65730   0.23320   1.000
    C1315   C    0.03760   0.64230   0.29230   1.000
    C1316   C    0.00210   0.65220   0.31620   1.000
    H965    H    0.98950   0.63160   0.33320   1.000
    C1317   C    0.98520   0.69270   0.31460   1.000
    H966    H    0.96130   0.69940   0.33060   1.000
    C1318   C    0.00390   0.72340   0.28930   1.000
    C1319   C    0.03950   0.71340   0.26540   1.000
    H967    H    0.05200   0.73400   0.24840   1.000
    C1320   C    0.05630   0.67290   0.26700   1.000
    H968    H    0.08020   0.66620   0.25100   1.000
    N177    N    0.84100   0.02840   0.29455   1.000
    C1321   C    0.83220   0.01565   0.33493   1.000
    H969    H    0.84100   0.99040   0.34740   1.000
    N178    N    0.80840   0.04640   0.35376   1.000
    C1322   C    0.80240   0.07810   0.32500   1.000
    H970    H    0.78720   0.10300   0.32960   1.000
    C1323   C    0.82250   0.06700   0.28843   1.000
    H971    H    0.82350   0.08300   0.26370   1.000
    C1324   C    0.79680   0.04680   0.39990   1.000
    C1325   C    0.78650   0.08460   0.41980   1.000
    H972    H    0.79080   0.11030   0.40590   1.000
    C1326   C    0.76980   0.08420   0.46050   1.000
    H973    H    0.76280   0.10960   0.47390   1.000
    C1327   C    0.76340   0.04600   0.48120   1.000
    C1328   C    0.77370   0.00810   0.46130   1.000
    H974    H    0.76940   0.98250   0.47530   1.000
    C1329   C    0.79040   0.00860   0.42070   1.000
    H975    H    0.79730   0.98320   0.40730   1.000
    C1330   C    0.78760   0.04230   0.39230   1.000
    C1331   C    0.75210   0.06620   0.40220   1.000
    H976    H    0.73950   0.08320   0.38160   1.000
    C1332   C    0.73520   0.06460   0.44270   1.000
    H977    H    0.71130   0.08060   0.44940   1.000
    C1333   C    0.75390   0.03930   0.47340   1.000
    C1334   C    0.78950   0.01540   0.46340   1.000
    H978    H    0.80200   0.99840   0.48400   1.000
    C1335   C    0.80630   0.01700   0.42290   1.000
    H979    H    0.83020   0.00100   0.41620   1.000
    N179    N    0.34100   0.52840   0.79455   1.000
    C1336   C    0.33220   0.51565   0.83493   1.000
    H980    H    0.34100   0.49040   0.84740   1.000
    N180    N    0.30840   0.54640   0.85376   1.000
    C1337   C    0.30240   0.57810   0.82500   1.000
    H981    H    0.28720   0.60300   0.82960   1.000
    C1338   C    0.32250   0.56700   0.78843   1.000
    H982    H    0.32350   0.58300   0.76370   1.000
    C1339   C    0.29680   0.54680   0.89990   1.000
    C1340   C    0.28650   0.58460   0.91980   1.000
    H983    H    0.29080   0.61030   0.90590   1.000
    C1341   C    0.26980   0.58420   0.96050   1.000
    H984    H    0.26280   0.60960   0.97390   1.000
    C1342   C    0.26340   0.54600   0.98120   1.000
    C1343   C    0.27370   0.50810   0.96130   1.000
    H985    H    0.26940   0.48250   0.97530   1.000
    C1344   C    0.29040   0.50860   0.92070   1.000
    H986    H    0.29730   0.48320   0.90730   1.000
    C1345   C    0.28760   0.54230   0.89230   1.000
    C1346   C    0.25210   0.56620   0.90220   1.000
    H987    H    0.23950   0.58320   0.88160   1.000
    C1347   C    0.23520   0.56460   0.94270   1.000
    H988    H    0.21130   0.58060   0.94940   1.000
    C1348   C    0.25390   0.53930   0.97340   1.000
    C1349   C    0.28950   0.51540   0.96340   1.000
    H989    H    0.30200   0.49840   0.98400   1.000
    C1350   C    0.30630   0.51700   0.92290   1.000
    H990    H    0.33020   0.50100   0.91620   1.000
    N181    N    0.34100   0.47160   0.70545   1.000
    C1351   C    0.33220   0.48435   0.66507   1.000
    H991    H    0.34100   0.50960   0.65260   1.000
    N182    N    0.30840   0.45360   0.64624   1.000
    C1352   C    0.30240   0.42190   0.67500   1.000
    H992    H    0.28720   0.39700   0.67040   1.000
    C1353   C    0.32250   0.43300   0.71157   1.000
    H993    H    0.32350   0.41700   0.73630   1.000
    C1354   C    0.29680   0.45320   0.60010   1.000
    C1355   C    0.28650   0.41540   0.58020   1.000
    H994    H    0.29080   0.38970   0.59410   1.000
    C1356   C    0.26980   0.41580   0.53950   1.000
    H995    H    0.26280   0.39040   0.52610   1.000
    C1357   C    0.26340   0.45400   0.51880   1.000
    C1358   C    0.27370   0.49190   0.53870   1.000
    H996    H    0.26940   0.51750   0.52470   1.000
    C1359   C    0.29040   0.49140   0.57930   1.000
    H997    H    0.29730   0.51680   0.59270   1.000
    C1360   C    0.28760   0.45770   0.60770   1.000
    C1361   C    0.25210   0.43380   0.59780   1.000
    H998    H    0.23950   0.41680   0.61840   1.000
    C1362   C    0.23520   0.43540   0.55730   1.000
    H999    H    0.21130   0.41940   0.55060   1.000
    C1363   C    0.25390   0.46070   0.52660   1.000
    C1364   C    0.28950   0.48460   0.53660   1.000
    H1000   H    0.30200   0.50160   0.51600   1.000
    C1365   C    0.30630   0.48300   0.57710   1.000
    H1001   H    0.33020   0.49900   0.58380   1.000
    N183    N    0.84100   0.97160   0.20545   1.000
    C1366   C    0.83220   0.98435   0.16507   1.000
    H1002   H    0.84100   0.00960   0.15260   1.000
    N184    N    0.80840   0.95360   0.14624   1.000
    C1367   C    0.80240   0.92190   0.17500   1.000
    H1003   H    0.78720   0.89700   0.17040   1.000
    C1368   C    0.82250   0.93300   0.21157   1.000
    H1004   H    0.82350   0.91700   0.23630   1.000
    C1369   C    0.79680   0.95320   0.10010   1.000
    C1370   C    0.78650   0.91540   0.08020   1.000
    H1005   H    0.79080   0.88970   0.09410   1.000
    C1371   C    0.76980   0.91580   0.03950   1.000
    H1006   H    0.76280   0.89040   0.02610   1.000
    C1372   C    0.76340   0.95400   0.01880   1.000
    C1373   C    0.77370   0.99190   0.03870   1.000
    H1007   H    0.76940   0.01750   0.02470   1.000
    C1374   C    0.79040   0.99140   0.07930   1.000
    H1008   H    0.79730   0.01680   0.09270   1.000
    C1375   C    0.78760   0.95770   0.10770   1.000
    C1376   C    0.75210   0.93380   0.09780   1.000
    H1009   H    0.73950   0.91680   0.11840   1.000
    C1377   C    0.73520   0.93540   0.05730   1.000
    H1010   H    0.71130   0.91940   0.05060   1.000
    C1378   C    0.75390   0.96070   0.02660   1.000
    C1379   C    0.78950   0.98460   0.03660   1.000
    H1011   H    0.80200   0.00160   0.01600   1.000
    C1380   C    0.80630   0.98300   0.07710   1.000
    H1012   H    0.83020   0.99900   0.08380   1.000
    N185    N    0.65900   0.97160   0.79455   1.000
    C1381   C    0.66780   0.98435   0.83493   1.000
    H1013   H    0.65900   0.00960   0.84740   1.000
    N186    N    0.69160   0.95360   0.85376   1.000
    C1382   C    0.69760   0.92190   0.82500   1.000
    H1014   H    0.71280   0.89700   0.82960   1.000
    C1383   C    0.67750   0.93300   0.78843   1.000
    H1015   H    0.67650   0.91700   0.76370   1.000
    C1384   C    0.70320   0.95320   0.89990   1.000
    C1385   C    0.71350   0.91540   0.91980   1.000
    H1016   H    0.70920   0.88970   0.90590   1.000
    C1386   C    0.73020   0.91580   0.96050   1.000
    H1017   H    0.73720   0.89040   0.97390   1.000
    C1387   C    0.73660   0.95400   0.98120   1.000
    C1388   C    0.72630   0.99190   0.96130   1.000
    H1018   H    0.73060   0.01750   0.97530   1.000
    C1389   C    0.70960   0.99140   0.92070   1.000
    H1019   H    0.70270   0.01680   0.90730   1.000
    C1390   C    0.71240   0.95770   0.89230   1.000
    C1391   C    0.74790   0.93380   0.90220   1.000
    H1020   H    0.76050   0.91680   0.88160   1.000
    C1392   C    0.76480   0.93540   0.94270   1.000
    H1021   H    0.78870   0.91940   0.94940   1.000
    C1393   C    0.74610   0.96070   0.97340   1.000
    C1394   C    0.71050   0.98460   0.96340   1.000
    H1022   H    0.69800   0.00160   0.98400   1.000
    C1395   C    0.69370   0.98300   0.92290   1.000
    H1023   H    0.66980   0.99900   0.91620   1.000
    N187    N    0.15900   0.47160   0.29455   1.000
    C1396   C    0.16780   0.48435   0.33493   1.000
    H1024   H    0.15900   0.50960   0.34740   1.000
    N188    N    0.19160   0.45360   0.35376   1.000
    C1397   C    0.19760   0.42190   0.32500   1.000
    H1025   H    0.21280   0.39700   0.32960   1.000
    C1398   C    0.17750   0.43300   0.28843   1.000
    H1026   H    0.17650   0.41700   0.26370   1.000
    C1399   C    0.20320   0.45320   0.39990   1.000
    C1400   C    0.21350   0.41540   0.41980   1.000
    H1027   H    0.20920   0.38970   0.40590   1.000
    C1401   C    0.23020   0.41580   0.46050   1.000
    H1028   H    0.23720   0.39040   0.47390   1.000
    C1402   C    0.23660   0.45400   0.48120   1.000
    C1403   C    0.22630   0.49190   0.46130   1.000
    H1029   H    0.23060   0.51750   0.47530   1.000
    C1404   C    0.20960   0.49140   0.42070   1.000
    H1030   H    0.20270   0.51680   0.40730   1.000
    C1405   C    0.21240   0.45770   0.39230   1.000
    C1406   C    0.24790   0.43380   0.40220   1.000
    H1031   H    0.26050   0.41680   0.38160   1.000
    C1407   C    0.26480   0.43540   0.44270   1.000
    H1032   H    0.28870   0.41940   0.44940   1.000
    C1408   C    0.24610   0.46070   0.47340   1.000
    C1409   C    0.21050   0.48460   0.46340   1.000
    H1033   H    0.19800   0.50160   0.48400   1.000
    C1410   C    0.19370   0.48300   0.42290   1.000
    H1034   H    0.16980   0.49900   0.41620   1.000
    N189    N    0.15900   0.52840   0.20545   1.000
    C1411   C    0.16780   0.51565   0.16507   1.000
    H1035   H    0.15900   0.49040   0.15260   1.000
    N190    N    0.19160   0.54640   0.14624   1.000
    C1412   C    0.19760   0.57810   0.17500   1.000
    H1036   H    0.21280   0.60300   0.17040   1.000
    C1413   C    0.17750   0.56700   0.21157   1.000
    H1037   H    0.17650   0.58300   0.23630   1.000
    C1414   C    0.20320   0.54680   0.10010   1.000
    C1415   C    0.21350   0.58460   0.08020   1.000
    H1038   H    0.20920   0.61030   0.09410   1.000
    C1416   C    0.23020   0.58420   0.03950   1.000
    H1039   H    0.23720   0.60960   0.02610   1.000
    C1417   C    0.23660   0.54600   0.01880   1.000
    C1418   C    0.22630   0.50810   0.03870   1.000
    H1040   H    0.23060   0.48250   0.02470   1.000
    C1419   C    0.20960   0.50860   0.07930   1.000
    H1041   H    0.20270   0.48320   0.09270   1.000
    C1420   C    0.21240   0.54230   0.10770   1.000
    C1421   C    0.24790   0.56620   0.09780   1.000
    H1042   H    0.26050   0.58320   0.11840   1.000
    C1422   C    0.26480   0.56460   0.05730   1.000
    H1043   H    0.28870   0.58060   0.05060   1.000
    C1423   C    0.24610   0.53930   0.02660   1.000
    C1424   C    0.21050   0.51540   0.03660   1.000
    H1044   H    0.19800   0.49840   0.01600   1.000
    C1425   C    0.19370   0.51700   0.07710   1.000
    H1045   H    0.16980   0.50100   0.08380   1.000
    N191    N    0.65900   0.02840   0.70545   1.000
    C1426   C    0.66780   0.01565   0.66507   1.000
    H1046   H    0.65900   0.99040   0.65260   1.000
    N192    N    0.69160   0.04640   0.64624   1.000
    C1427   C    0.69760   0.07810   0.67500   1.000
    H1047   H    0.71280   0.10300   0.67040   1.000
    C1428   C    0.67750   0.06700   0.71157   1.000
    H1048   H    0.67650   0.08300   0.73630   1.000
    C1429   C    0.70320   0.04680   0.60010   1.000
    C1430   C    0.71350   0.08460   0.58020   1.000
    H1049   H    0.70920   0.11030   0.59410   1.000
    C1431   C    0.73020   0.08420   0.53950   1.000
    H1050   H    0.73720   0.10960   0.52610   1.000
    C1432   C    0.73660   0.04600   0.51880   1.000
    C1433   C    0.72630   0.00810   0.53870   1.000
    H1051   H    0.73060   0.98250   0.52470   1.000
    C1434   C    0.70960   0.00860   0.57930   1.000
    H1052   H    0.70270   0.98320   0.59270   1.000
    C1435   C    0.71240   0.04230   0.60770   1.000
    C1436   C    0.74790   0.06620   0.59780   1.000
    H1053   H    0.76050   0.08320   0.61840   1.000
    C1437   C    0.76480   0.06460   0.55730   1.000
    H1054   H    0.78870   0.08060   0.55060   1.000
    C1438   C    0.74610   0.03930   0.52660   1.000
    C1439   C    0.71050   0.01540   0.53660   1.000
    H1055   H    0.69800   0.99840   0.51600   1.000
    C1440   C    0.69370   0.01700   0.57710   1.000
    H1056   H    0.66980   0.00100   0.58380   1.000
    Zn21    Zn   0.87500   0.00000   0.25000   1.000
    Zn22    Zn   0.37500   0.50000   0.75000   1.000
    Zn23    Zn   0.12500   0.50000   0.25000   1.000
    Zn24    Zn   0.62500   0.00000   0.75000   1.000
