# CIF file generated by openbabel 2.4.1, see http://openbabel.sf.net
data_I
_chemical_name_common 'MODNIC_clean'
_cell_length_a 13.569
_cell_length_b 13.724
_cell_length_c 27.269
_cell_angle_alpha 90
_cell_angle_beta 90
_cell_angle_gamma 90
_space_group_name_H-M_alt 'P 1'
_space_group_name_Hall 'P 1'
loop_
    _symmetry_equiv_pos_as_xyz
    x,y,z
loop_
    _atom_site_label
    _atom_site_type_symbol
    _atom_site_fract_x
    _atom_site_fract_y
    _atom_site_fract_z
    _atom_site_occupancy
    Cd1     Cd   0.99629   0.16801   0.12556   1.000
    Cd2     Cd   0.87208   0.53744   0.19144   1.000
    Cd3     Cd   0.11566   0.78405   0.07553   1.000
    Cd4     Cd   0.49629   0.33199   0.87444   1.000
    Cd5     Cd   0.37208   0.96256   0.80856   1.000
    Cd6     Cd   0.61566   0.71595   0.92447   1.000
    Cd7     Cd   0.50371   0.83199   0.62556   1.000
    Cd8     Cd   0.62792   0.46256   0.69144   1.000
    Cd9     Cd   0.38434   0.21595   0.57553   1.000
    Cd10    Cd   0.00371   0.66801   0.37444   1.000
    Cd11    Cd   0.12792   0.03744   0.30856   1.000
    Cd12    Cd   0.88434   0.28405   0.42447   1.000
    Cd13    Cd   0.00371   0.83199   0.87444   1.000
    Cd14    Cd   0.12792   0.46256   0.80856   1.000
    Cd15    Cd   0.88434   0.21595   0.92447   1.000
    Cd16    Cd   0.50371   0.66801   0.12556   1.000
    Cd17    Cd   0.62792   0.03744   0.19144   1.000
    Cd18    Cd   0.38434   0.28405   0.07553   1.000
    Cd19    Cd   0.49629   0.16801   0.37444   1.000
    Cd20    Cd   0.37208   0.53744   0.30856   1.000
    Cd21    Cd   0.61566   0.78405   0.42447   1.000
    Cd22    Cd   0.99629   0.33199   0.62556   1.000
    Cd23    Cd   0.87208   0.96256   0.69144   1.000
    Cd24    Cd   0.11566   0.71595   0.57553   1.000
    C1      C    0.92610   0.39360   0.16560   1.000
    C2      C    0.76600   0.08460   0.15660   1.000
    C3      C    0.07520   0.93460   0.09620   1.000
    C4      C    0.22750   0.24860   0.08790   1.000
    C5      C    0.02050   0.67760   0.11390   1.000
    C6      C    0.91610   0.21010   0.00510   1.000
    C7      C    0.07380   0.10050   0.23950   1.000
    C8      C    0.42610   0.10640   0.83440   1.000
    C9      C    0.26600   0.41540   0.84340   1.000
    C10     C    0.57520   0.56540   0.90380   1.000
    C11     C    0.72750   0.25140   0.91210   1.000
    C12     C    0.52050   0.82240   0.88610   1.000
    C13     C    0.41610   0.28990   0.99490   1.000
    C14     C    0.57380   0.39950   0.76050   1.000
    C15     C    0.57390   0.60640   0.66560   1.000
    C16     C    0.73400   0.91540   0.65660   1.000
    C17     C    0.42480   0.06540   0.59620   1.000
    C18     C    0.27250   0.75140   0.58790   1.000
    C19     C    0.47950   0.32240   0.61390   1.000
    C20     C    0.58390   0.78990   0.50510   1.000
    C21     C    0.42620   0.89950   0.73950   1.000
    C22     C    0.07390   0.89360   0.33440   1.000
    C23     C    0.23400   0.58460   0.34340   1.000
    C24     C    0.92480   0.43460   0.40380   1.000
    C25     C    0.77250   0.74860   0.41210   1.000
    C26     C    0.97950   0.17760   0.38610   1.000
    C27     C    0.08390   0.71010   0.49490   1.000
    C28     C    0.92620   0.60050   0.26050   1.000
    C29     C    0.07390   0.60640   0.83440   1.000
    C30     C    0.23400   0.91540   0.84340   1.000
    C31     C    0.92480   0.06540   0.90380   1.000
    C32     C    0.77250   0.75140   0.91210   1.000
    C33     C    0.97950   0.32240   0.88610   1.000
    C34     C    0.08390   0.78990   0.99490   1.000
    C35     C    0.92620   0.89950   0.76050   1.000
    C36     C    0.57390   0.89360   0.16560   1.000
    C37     C    0.73400   0.58460   0.15660   1.000
    C38     C    0.42480   0.43460   0.09620   1.000
    C39     C    0.27250   0.74860   0.08790   1.000
    C40     C    0.47950   0.17760   0.11390   1.000
    C41     C    0.58390   0.71010   0.00510   1.000
    C42     C    0.42620   0.60050   0.23950   1.000
    C43     C    0.42610   0.39360   0.33440   1.000
    C44     C    0.26600   0.08460   0.34340   1.000
    C45     C    0.57520   0.93460   0.40380   1.000
    C46     C    0.72750   0.24860   0.41210   1.000
    C47     C    0.52050   0.67760   0.38610   1.000
    C48     C    0.41610   0.21010   0.49490   1.000
    C49     C    0.57380   0.10050   0.26050   1.000
    C50     C    0.92610   0.10640   0.66560   1.000
    C51     C    0.76600   0.41540   0.65660   1.000
    C52     C    0.07520   0.56540   0.59620   1.000
    C53     C    0.22750   0.25140   0.58790   1.000
    C54     C    0.02050   0.82240   0.61390   1.000
    C55     C    0.91610   0.28990   0.50510   1.000
    C56     C    0.07380   0.39950   0.73950   1.000
    N1      N    0.95100   0.32100   0.14910   1.000
    N2      N    0.83810   0.10800   0.14120   1.000
    N3      N    0.05000   0.01140   0.10220   1.000
    N4      N    0.15170   0.22620   0.09800   1.000
    N5      N    0.97270   0.62600   0.13520   1.000
    N6      N    0.93840   0.19790   0.04430   1.000
    N7      N    0.04860   0.13060   0.20380   1.000
    N8      N    0.45100   0.17900   0.85090   1.000
    N9      N    0.33810   0.39200   0.85880   1.000
    N10     N    0.55000   0.48860   0.89780   1.000
    N11     N    0.65170   0.27380   0.90200   1.000
    N12     N    0.47270   0.87400   0.86480   1.000
    N13     N    0.43840   0.30210   0.95570   1.000
    N14     N    0.54860   0.36940   0.79620   1.000
    N15     N    0.54900   0.67900   0.64910   1.000
    N16     N    0.66190   0.89200   0.64120   1.000
    N17     N    0.45000   0.98860   0.60220   1.000
    N18     N    0.34830   0.77380   0.59800   1.000
    N19     N    0.52730   0.37400   0.63520   1.000
    N20     N    0.56160   0.80210   0.54430   1.000
    N21     N    0.45140   0.86940   0.70380   1.000
    N22     N    0.04900   0.82100   0.35090   1.000
    N23     N    0.16190   0.60800   0.35880   1.000
    N24     N    0.95000   0.51140   0.39780   1.000
    N25     N    0.84830   0.72620   0.40200   1.000
    N26     N    0.02730   0.12600   0.36480   1.000
    N27     N    0.06160   0.69790   0.45570   1.000
    N28     N    0.95140   0.63060   0.29620   1.000
    N29     N    0.04900   0.67900   0.85090   1.000
    N30     N    0.16190   0.89200   0.85880   1.000
    N31     N    0.95000   0.98860   0.89780   1.000
    N32     N    0.84830   0.77380   0.90200   1.000
    N33     N    0.02730   0.37400   0.86480   1.000
    N34     N    0.06160   0.80210   0.95570   1.000
    N35     N    0.95140   0.86940   0.79620   1.000
    N36     N    0.54900   0.82100   0.14910   1.000
    N37     N    0.66190   0.60800   0.14120   1.000
    N38     N    0.45000   0.51140   0.10220   1.000
    N39     N    0.34830   0.72620   0.09800   1.000
    N40     N    0.52730   0.12600   0.13520   1.000
    N41     N    0.56160   0.69790   0.04430   1.000
    N42     N    0.45140   0.63060   0.20380   1.000
    N43     N    0.45100   0.32100   0.35090   1.000
    N44     N    0.33810   0.10800   0.35880   1.000
    N45     N    0.55000   0.01140   0.39780   1.000
    N46     N    0.65170   0.22620   0.40200   1.000
    N47     N    0.47270   0.62600   0.36480   1.000
    N48     N    0.43840   0.19790   0.45570   1.000
    N49     N    0.54860   0.13060   0.29620   1.000
    N50     N    0.95100   0.17900   0.64910   1.000
    N51     N    0.83810   0.39200   0.64120   1.000
    N52     N    0.05000   0.48860   0.60220   1.000
    N53     N    0.15170   0.27380   0.59800   1.000
    N54     N    0.97270   0.87400   0.63520   1.000
    N55     N    0.93840   0.30210   0.54430   1.000
    N56     N    0.04860   0.36940   0.70380   1.000
