# CIF file generated by openbabel 2.4.1, see http://openbabel.sf.net
data_I
_chemical_name_common 'image0'
_cell_length_a 27.221
_cell_length_b 8.104
_cell_length_c 23.537
_cell_angle_alpha 90
_cell_angle_beta 98.906
_cell_angle_gamma 90
_space_group_name_H-M_alt 'P 1'
_space_group_name_Hall 'P 1'
loop_
    _symmetry_equiv_pos_as_xyz
    x,y,z
loop_
    _atom_site_label
    _atom_site_type_symbol
    _atom_site_fract_x
    _atom_site_fract_y
    _atom_site_fract_z
    _atom_site_occupancy
    Cd1     Cd   0.04008   0.62470   0.50114   1.000
    O1      O    0.98564   0.73340   0.54160   1.000
    N1      N    0.09422   0.80390   0.51471   1.000
    C1      C    0.94577   0.68460   0.55552   1.000
    O2      O    0.92547   0.54870   0.54231   1.000
    N2      N    0.23372   0.18320   0.49834   1.000
    C2      C    0.91979   0.80010   0.59162   1.000
    O3      O    0.85268   0.11140   0.69625   1.000
    C3      C    0.93767   0.95650   0.60275   1.000
    H1      H    0.96490   0.99300   0.58680   1.000
    O4      O    0.93852   0.49450   0.92357   1.000
    C4      C    0.91544   0.05980   0.63755   1.000
    H2      H    0.92730   0.16670   0.64450   1.000
    O5      O    0.99860   0.30670   0.92362   1.000
    C5      C    0.87565   0.00550   0.66208   1.000
    C6      C    0.85661   0.85450   0.64950   1.000
    H3      H    0.82880   0.81990   0.66470   1.000
    C7      C    0.87782   0.75240   0.61460   1.000
    H4      H    0.86410   0.64870   0.60590   1.000
    C8      C    0.88133   0.17520   0.74552   1.000
    C9      C    0.92332   0.09870   0.77181   1.000
    H5      H    0.93500   0.00400   0.75600   1.000
    C10     C    0.94867   0.16520   0.82304   1.000
    H6      H    0.97710   0.11280   0.84160   1.000
    C11     C    0.93209   0.30780   0.84653   1.000
    C12     C    0.88906   0.38030   0.81799   1.000
    H7      H    0.87690   0.47470   0.83340   1.000
    C13     C    0.86419   0.31770   0.76820   1.000
    H8      H    0.83580   0.37020   0.74960   1.000
    C14     C    0.95863   0.37510   0.90180   1.000
    C15     C    0.13488   0.79300   0.49049   1.000
    H9      H    0.13970   0.69830   0.46970   1.000
    C16     C    0.17069   0.91590   0.49460   1.000
    H10     H    0.19890   0.90320   0.47720   1.000
    C17     C    0.16360   0.05930   0.52531   1.000
    C18     C    0.12132   0.06900   0.55093   1.000
    H11     H    0.11530   0.16150   0.57220   1.000
    C19     C    0.08811   0.93890   0.54437   1.000
    H12     H    0.05980   0.94680   0.56180   1.000
    C20     C    0.19879   0.20080   0.52727   1.000
    C21     C    0.19000   0.35070   0.56110   1.000
    H13     H    0.20300   0.33270   0.60100   1.000
    H14     H    0.15500   0.37230   0.55710   1.000
    H15     H    0.20650   0.44350   0.54720   1.000
    Zn1     Zn   0.03961   0.62570   0.50188   1.000
    Cd2     Cd   0.54008   0.12470   0.50114   1.000
    O6      O    0.48564   0.23340   0.54160   1.000
    N3      N    0.59422   0.30390   0.51471   1.000
    C22     C    0.44577   0.18460   0.55552   1.000
    O7      O    0.42547   0.04870   0.54231   1.000
    N4      N    0.73372   0.68320   0.49834   1.000
    C23     C    0.41979   0.30010   0.59162   1.000
    O8      O    0.35268   0.61140   0.69625   1.000
    C24     C    0.43767   0.45650   0.60275   1.000
    H16     H    0.46490   0.49300   0.58680   1.000
    O9      O    0.43852   0.99450   0.92357   1.000
    C25     C    0.41544   0.55980   0.63755   1.000
    H17     H    0.42730   0.66670   0.64450   1.000
    O10     O    0.49860   0.80670   0.92362   1.000
    C26     C    0.37565   0.50550   0.66208   1.000
    C27     C    0.35661   0.35450   0.64950   1.000
    H18     H    0.32880   0.31990   0.66470   1.000
    C28     C    0.37782   0.25240   0.61460   1.000
    H19     H    0.36410   0.14870   0.60590   1.000
    C29     C    0.38133   0.67520   0.74552   1.000
    C30     C    0.42332   0.59870   0.77181   1.000
    H20     H    0.43500   0.50400   0.75600   1.000
    C31     C    0.44867   0.66520   0.82304   1.000
    H21     H    0.47710   0.61280   0.84160   1.000
    C32     C    0.43209   0.80780   0.84653   1.000
    C33     C    0.38906   0.88030   0.81799   1.000
    H22     H    0.37690   0.97470   0.83340   1.000
    C34     C    0.36419   0.81770   0.76820   1.000
    H23     H    0.33580   0.87020   0.74960   1.000
    C35     C    0.45863   0.87510   0.90180   1.000
    C36     C    0.63488   0.29300   0.49049   1.000
    H24     H    0.63970   0.19830   0.46970   1.000
    C37     C    0.67069   0.41590   0.49460   1.000
    H25     H    0.69890   0.40320   0.47720   1.000
    C38     C    0.66360   0.55930   0.52531   1.000
    C39     C    0.62132   0.56900   0.55093   1.000
    H26     H    0.61530   0.66150   0.57220   1.000
    C40     C    0.58811   0.43890   0.54437   1.000
    H27     H    0.55980   0.44680   0.56180   1.000
    C41     C    0.69879   0.70080   0.52727   1.000
    C42     C    0.69000   0.85070   0.56110   1.000
    H28     H    0.70300   0.83270   0.60100   1.000
    H29     H    0.65500   0.87230   0.55710   1.000
    H30     H    0.70650   0.94350   0.54720   1.000
    Zn2     Zn   0.53961   0.12570   0.50188   1.000
    Cd3     Cd   0.95992   0.62470   0.99886   1.000
    O11     O    0.01436   0.73340   0.95840   1.000
    N5      N    0.90578   0.80390   0.98529   1.000
    C43     C    0.05423   0.68460   0.94448   1.000
    O12     O    0.07453   0.54870   0.95769   1.000
    N6      N    0.76628   0.18320   0.00166   1.000
    C44     C    0.08021   0.80010   0.90838   1.000
    O13     O    0.14732   0.11140   0.80375   1.000
    C45     C    0.06233   0.95650   0.89725   1.000
    H31     H    0.03510   0.99300   0.91320   1.000
    O14     O    0.06148   0.49450   0.57643   1.000
    C46     C    0.08456   0.05980   0.86245   1.000
    H32     H    0.07270   0.16670   0.85550   1.000
    O15     O    0.00140   0.30670   0.57638   1.000
    C47     C    0.12435   0.00550   0.83792   1.000
    C48     C    0.14339   0.85450   0.85050   1.000
    H33     H    0.17120   0.81990   0.83530   1.000
    C49     C    0.12218   0.75240   0.88540   1.000
    H34     H    0.13590   0.64870   0.89410   1.000
    C50     C    0.11867   0.17520   0.75448   1.000
    C51     C    0.07668   0.09870   0.72819   1.000
    H35     H    0.06500   0.00400   0.74400   1.000
    C52     C    0.05133   0.16520   0.67696   1.000
    H36     H    0.02290   0.11280   0.65840   1.000
    C53     C    0.06791   0.30780   0.65347   1.000
    C54     C    0.11094   0.38030   0.68201   1.000
    H37     H    0.12310   0.47470   0.66660   1.000
    C55     C    0.13581   0.31770   0.73180   1.000
    H38     H    0.16420   0.37020   0.75040   1.000
    C56     C    0.04137   0.37510   0.59820   1.000
    C57     C    0.86512   0.79300   0.00951   1.000
    H39     H    0.86030   0.69830   0.03030   1.000
    C58     C    0.82931   0.91590   0.00540   1.000
    H40     H    0.80110   0.90320   0.02280   1.000
    C59     C    0.83640   0.05930   0.97469   1.000
    C60     C    0.87868   0.06900   0.94907   1.000
    H41     H    0.88470   0.16150   0.92780   1.000
    C61     C    0.91189   0.93890   0.95563   1.000
    H42     H    0.94020   0.94680   0.93820   1.000
    C62     C    0.80121   0.20080   0.97273   1.000
    C63     C    0.81000   0.35070   0.93890   1.000
    H43     H    0.79700   0.33270   0.89900   1.000
    H44     H    0.84500   0.37230   0.94290   1.000
    H45     H    0.79350   0.44350   0.95280   1.000
    Zn3     Zn   0.96039   0.62570   0.99812   1.000
    Cd4     Cd   0.45992   0.12470   0.99886   1.000
    O16     O    0.51436   0.23340   0.95840   1.000
    N7      N    0.40578   0.30390   0.98529   1.000
    C64     C    0.55423   0.18460   0.94448   1.000
    O17     O    0.57453   0.04870   0.95769   1.000
    N8      N    0.26628   0.68320   0.00166   1.000
    C65     C    0.58021   0.30010   0.90838   1.000
    O18     O    0.64732   0.61140   0.80375   1.000
    C66     C    0.56233   0.45650   0.89725   1.000
    H46     H    0.53510   0.49300   0.91320   1.000
    O19     O    0.56148   0.99450   0.57643   1.000
    C67     C    0.58456   0.55980   0.86245   1.000
    H47     H    0.57270   0.66670   0.85550   1.000
    O20     O    0.50140   0.80670   0.57638   1.000
    C68     C    0.62435   0.50550   0.83792   1.000
    C69     C    0.64339   0.35450   0.85050   1.000
    H48     H    0.67120   0.31990   0.83530   1.000
    C70     C    0.62218   0.25240   0.88540   1.000
    H49     H    0.63590   0.14870   0.89410   1.000
    C71     C    0.61867   0.67520   0.75448   1.000
    C72     C    0.57668   0.59870   0.72819   1.000
    H50     H    0.56500   0.50400   0.74400   1.000
    C73     C    0.55133   0.66520   0.67696   1.000
    H51     H    0.52290   0.61280   0.65840   1.000
    C74     C    0.56791   0.80780   0.65347   1.000
    C75     C    0.61094   0.88030   0.68201   1.000
    H52     H    0.62310   0.97470   0.66660   1.000
    C76     C    0.63581   0.81770   0.73180   1.000
    H53     H    0.66420   0.87020   0.75040   1.000
    C77     C    0.54137   0.87510   0.59820   1.000
    C78     C    0.36512   0.29300   0.00951   1.000
    H54     H    0.36030   0.19830   0.03030   1.000
    C79     C    0.32931   0.41590   0.00540   1.000
    H55     H    0.30110   0.40320   0.02280   1.000
    C80     C    0.33640   0.55930   0.97469   1.000
    C81     C    0.37868   0.56900   0.94907   1.000
    H56     H    0.38470   0.66150   0.92780   1.000
    C82     C    0.41189   0.43890   0.95563   1.000
    H57     H    0.44020   0.44680   0.93820   1.000
    C83     C    0.30121   0.70080   0.97273   1.000
    C84     C    0.31000   0.85070   0.93890   1.000
    H58     H    0.29700   0.83270   0.89900   1.000
    H59     H    0.34500   0.87230   0.94290   1.000
    H60     H    0.29350   0.94350   0.95280   1.000
    Zn4     Zn   0.46039   0.12570   0.99812   1.000
    Cd5     Cd   0.95992   0.37530   0.49886   1.000
    O21     O    0.01436   0.26660   0.45840   1.000
    N9      N    0.90578   0.19610   0.48529   1.000
    C85     C    0.05423   0.31540   0.44448   1.000
    O22     O    0.07453   0.45130   0.45769   1.000
    N10     N    0.76628   0.81680   0.50166   1.000
    C86     C    0.08021   0.19990   0.40838   1.000
    O23     O    0.14732   0.88860   0.30375   1.000
    C87     C    0.06233   0.04350   0.39725   1.000
    H61     H    0.03510   0.00700   0.41320   1.000
    O24     O    0.06148   0.50550   0.07643   1.000
    C88     C    0.08456   0.94020   0.36245   1.000
    H62     H    0.07270   0.83330   0.35550   1.000
    O25     O    0.00140   0.69330   0.07638   1.000
    C89     C    0.12435   0.99450   0.33792   1.000
    C90     C    0.14339   0.14550   0.35050   1.000
    H63     H    0.17120   0.18010   0.33530   1.000
    C91     C    0.12218   0.24760   0.38540   1.000
    H64     H    0.13590   0.35130   0.39410   1.000
    C92     C    0.11867   0.82480   0.25448   1.000
    C93     C    0.07668   0.90130   0.22819   1.000
    H65     H    0.06500   0.99600   0.24400   1.000
    C94     C    0.05133   0.83480   0.17696   1.000
    H66     H    0.02290   0.88720   0.15840   1.000
    C95     C    0.06791   0.69220   0.15347   1.000
    C96     C    0.11094   0.61970   0.18201   1.000
    H67     H    0.12310   0.52530   0.16660   1.000
    C97     C    0.13581   0.68230   0.23180   1.000
    H68     H    0.16420   0.62980   0.25040   1.000
    C98     C    0.04137   0.62490   0.09820   1.000
    C99     C    0.86512   0.20700   0.50951   1.000
    H69     H    0.86030   0.30170   0.53030   1.000
    C100    C    0.82931   0.08410   0.50540   1.000
    H70     H    0.80110   0.09680   0.52280   1.000
    C101    C    0.83640   0.94070   0.47469   1.000
    C102    C    0.87868   0.93100   0.44907   1.000
    H71     H    0.88470   0.83850   0.42780   1.000
    C103    C    0.91189   0.06110   0.45563   1.000
    H72     H    0.94020   0.05320   0.43820   1.000
    C104    C    0.80121   0.79920   0.47273   1.000
    C105    C    0.81000   0.64930   0.43890   1.000
    H73     H    0.79700   0.66730   0.39900   1.000
    H74     H    0.84500   0.62770   0.44290   1.000
    H75     H    0.79350   0.55650   0.45280   1.000
    Zn5     Zn   0.96039   0.37430   0.49812   1.000
    Cd6     Cd   0.45992   0.87530   0.49886   1.000
    O26     O    0.51436   0.76660   0.45840   1.000
    N11     N    0.40578   0.69610   0.48529   1.000
    C106    C    0.55423   0.81540   0.44448   1.000
    O27     O    0.57453   0.95130   0.45769   1.000
    N12     N    0.26628   0.31680   0.50166   1.000
    C107    C    0.58021   0.69990   0.40838   1.000
    O28     O    0.64732   0.38860   0.30375   1.000
    C108    C    0.56233   0.54350   0.39725   1.000
    H76     H    0.53510   0.50700   0.41320   1.000
    O29     O    0.56148   0.00550   0.07643   1.000
    C109    C    0.58456   0.44020   0.36245   1.000
    H77     H    0.57270   0.33330   0.35550   1.000
    O30     O    0.50140   0.19330   0.07638   1.000
    C110    C    0.62435   0.49450   0.33792   1.000
    C111    C    0.64339   0.64550   0.35050   1.000
    H78     H    0.67120   0.68010   0.33530   1.000
    C112    C    0.62218   0.74760   0.38540   1.000
    H79     H    0.63590   0.85130   0.39410   1.000
    C113    C    0.61867   0.32480   0.25448   1.000
    C114    C    0.57668   0.40130   0.22819   1.000
    H80     H    0.56500   0.49600   0.24400   1.000
    C115    C    0.55133   0.33480   0.17696   1.000
    H81     H    0.52290   0.38720   0.15840   1.000
    C116    C    0.56791   0.19220   0.15347   1.000
    C117    C    0.61094   0.11970   0.18201   1.000
    H82     H    0.62310   0.02530   0.16660   1.000
    C118    C    0.63581   0.18230   0.23180   1.000
    H83     H    0.66420   0.12980   0.25040   1.000
    C119    C    0.54137   0.12490   0.09820   1.000
    C120    C    0.36512   0.70700   0.50951   1.000
    H84     H    0.36030   0.80170   0.53030   1.000
    C121    C    0.32931   0.58410   0.50540   1.000
    H85     H    0.30110   0.59680   0.52280   1.000
    C122    C    0.33640   0.44070   0.47469   1.000
    C123    C    0.37868   0.43100   0.44907   1.000
    H86     H    0.38470   0.33850   0.42780   1.000
    C124    C    0.41189   0.56110   0.45563   1.000
    H87     H    0.44020   0.55320   0.43820   1.000
    C125    C    0.30121   0.29920   0.47273   1.000
    C126    C    0.31000   0.14930   0.43890   1.000
    H88     H    0.29700   0.16730   0.39900   1.000
    H89     H    0.34500   0.12770   0.44290   1.000
    H90     H    0.29350   0.05650   0.45280   1.000
    Zn6     Zn   0.46039   0.87430   0.49812   1.000
    Cd7     Cd   0.04008   0.37530   0.00114   1.000
    O31     O    0.98564   0.26660   0.04160   1.000
    N13     N    0.09422   0.19610   0.01471   1.000
    C127    C    0.94577   0.31540   0.05552   1.000
    O32     O    0.92547   0.45130   0.04231   1.000
    N14     N    0.23372   0.81680   0.99834   1.000
    C128    C    0.91979   0.19990   0.09162   1.000
    O33     O    0.85268   0.88860   0.19625   1.000
    C129    C    0.93767   0.04350   0.10275   1.000
    H91     H    0.96490   0.00700   0.08680   1.000
    O34     O    0.93852   0.50550   0.42357   1.000
    C130    C    0.91544   0.94020   0.13755   1.000
    H92     H    0.92730   0.83330   0.14450   1.000
    O35     O    0.99860   0.69330   0.42362   1.000
    C131    C    0.87565   0.99450   0.16208   1.000
    C132    C    0.85661   0.14550   0.14950   1.000
    H93     H    0.82880   0.18010   0.16470   1.000
    C133    C    0.87782   0.24760   0.11460   1.000
    H94     H    0.86410   0.35130   0.10590   1.000
    C134    C    0.88133   0.82480   0.24552   1.000
    C135    C    0.92332   0.90130   0.27181   1.000
    H95     H    0.93500   0.99600   0.25600   1.000
    C136    C    0.94867   0.83480   0.32304   1.000
    H96     H    0.97710   0.88720   0.34160   1.000
    C137    C    0.93209   0.69220   0.34653   1.000
    C138    C    0.88906   0.61970   0.31799   1.000
    H97     H    0.87690   0.52530   0.33340   1.000
    C139    C    0.86419   0.68230   0.26820   1.000
    H98     H    0.83580   0.62980   0.24960   1.000
    C140    C    0.95863   0.62490   0.40180   1.000
    C141    C    0.13488   0.20700   0.99049   1.000
    H99     H    0.13970   0.30170   0.96970   1.000
    C142    C    0.17069   0.08410   0.99460   1.000
    H100    H    0.19890   0.09680   0.97720   1.000
    C143    C    0.16360   0.94070   0.02531   1.000
    C144    C    0.12132   0.93100   0.05093   1.000
    H101    H    0.11530   0.83850   0.07220   1.000
    C145    C    0.08811   0.06110   0.04437   1.000
    H102    H    0.05980   0.05320   0.06180   1.000
    C146    C    0.19879   0.79920   0.02727   1.000
    C147    C    0.19000   0.64930   0.06110   1.000
    H103    H    0.20300   0.66730   0.10100   1.000
    H104    H    0.15500   0.62770   0.05710   1.000
    H105    H    0.20650   0.55650   0.04720   1.000
    Zn7     Zn   0.03961   0.37430   0.00188   1.000
    Cd8     Cd   0.54008   0.87530   0.00114   1.000
    O36     O    0.48564   0.76660   0.04160   1.000
    N15     N    0.59422   0.69610   0.01471   1.000
    C148    C    0.44577   0.81540   0.05552   1.000
    O37     O    0.42547   0.95130   0.04231   1.000
    N16     N    0.73372   0.31680   0.99834   1.000
    C149    C    0.41979   0.69990   0.09162   1.000
    O38     O    0.35268   0.38860   0.19625   1.000
    C150    C    0.43767   0.54350   0.10275   1.000
    H106    H    0.46490   0.50700   0.08680   1.000
    O39     O    0.43852   0.00550   0.42357   1.000
    C151    C    0.41544   0.44020   0.13755   1.000
    H107    H    0.42730   0.33330   0.14450   1.000
    O40     O    0.49860   0.19330   0.42362   1.000
    C152    C    0.37565   0.49450   0.16208   1.000
    C153    C    0.35661   0.64550   0.14950   1.000
    H108    H    0.32880   0.68010   0.16470   1.000
    C154    C    0.37782   0.74760   0.11460   1.000
    H109    H    0.36410   0.85130   0.10590   1.000
    C155    C    0.38133   0.32480   0.24552   1.000
    C156    C    0.42332   0.40130   0.27181   1.000
    H110    H    0.43500   0.49600   0.25600   1.000
    C157    C    0.44867   0.33480   0.32304   1.000
    H111    H    0.47710   0.38720   0.34160   1.000
    C158    C    0.43209   0.19220   0.34653   1.000
    C159    C    0.38906   0.11970   0.31799   1.000
    H112    H    0.37690   0.02530   0.33340   1.000
    C160    C    0.36419   0.18230   0.26820   1.000
    H113    H    0.33580   0.12980   0.24960   1.000
    C161    C    0.45863   0.12490   0.40180   1.000
    C162    C    0.63488   0.70700   0.99049   1.000
    H114    H    0.63970   0.80170   0.96970   1.000
    C163    C    0.67069   0.58410   0.99460   1.000
    H115    H    0.69890   0.59680   0.97720   1.000
    C164    C    0.66360   0.44070   0.02531   1.000
    C165    C    0.62132   0.43100   0.05093   1.000
    H116    H    0.61530   0.33850   0.07220   1.000
    C166    C    0.58811   0.56110   0.04437   1.000
    H117    H    0.55980   0.55320   0.06180   1.000
    C167    C    0.69879   0.29920   0.02727   1.000
    C168    C    0.69000   0.14930   0.06110   1.000
    H118    H    0.70300   0.16730   0.10100   1.000
    H119    H    0.65500   0.12770   0.05710   1.000
    H120    H    0.70650   0.05650   0.04720   1.000
    Zn8     Zn   0.53961   0.87430   0.00188   1.000
