# CIF file generated by openbabel 2.4.1, see http://openbabel.sf.net
data_I
_chemical_name_common 'image0'
_cell_length_a 14.803
_cell_length_b 19.783
_cell_length_c 8.202
_cell_angle_alpha 90
_cell_angle_beta 90
_cell_angle_gamma 90
_space_group_name_H-M_alt 'P 1'
_space_group_name_Hall 'P 1'
loop_
    _symmetry_equiv_pos_as_xyz
    x,y,z
loop_
    _atom_site_label
    _atom_site_type_symbol
    _atom_site_fract_x
    _atom_site_fract_y
    _atom_site_fract_z
    _atom_site_occupancy
    O1      O    0.75470   0.71630   0.72720   1.000
    O2      O    0.64310   0.78810   0.66360   1.000
    O3      O    0.64420   0.65900   0.95230   1.000
    O4      O    0.54330   0.74030   0.90910   1.000
    C1      C    0.67810   0.74040   0.74610   1.000
    C2      C    0.61720   0.71000   0.87990   1.000
    O5      O    0.24530   0.71630   0.77280   1.000
    O6      O    0.35690   0.78810   0.83640   1.000
    O7      O    0.35580   0.65900   0.54770   1.000
    O8      O    0.45670   0.74030   0.59090   1.000
    C3      C    0.32190   0.74040   0.75390   1.000
    C4      C    0.38280   0.71000   0.62010   1.000
    Bi1     Bi   0.50000   0.82854   0.75000   1.000
    O9      O    0.74530   0.78370   0.22720   1.000
    O10     O    0.85690   0.71190   0.16360   1.000
    O11     O    0.85580   0.84100   0.45230   1.000
    O12     O    0.95670   0.75970   0.40910   1.000
    C5      C    0.82190   0.75960   0.24610   1.000
    C6      C    0.88280   0.79000   0.37990   1.000
    O13     O    0.25470   0.78370   0.27280   1.000
    O14     O    0.14310   0.71190   0.33640   1.000
    O15     O    0.14420   0.84100   0.04770   1.000
    O16     O    0.04330   0.75970   0.09090   1.000
    C7      C    0.17810   0.75960   0.25390   1.000
    C8      C    0.11720   0.79000   0.12010   1.000
    Bi2     Bi   0.00000   0.67146   0.25000   1.000
    O17     O    0.24530   0.28370   0.27280   1.000
    O18     O    0.35690   0.21190   0.33640   1.000
    O19     O    0.35580   0.34100   0.04770   1.000
    O20     O    0.45670   0.25970   0.09090   1.000
    C9      C    0.32190   0.25960   0.25390   1.000
    C10     C    0.38280   0.29000   0.12010   1.000
    O21     O    0.75470   0.28370   0.22720   1.000
    O22     O    0.64310   0.21190   0.16360   1.000
    O23     O    0.64420   0.34100   0.45230   1.000
    O24     O    0.54330   0.25970   0.40910   1.000
    C11     C    0.67810   0.25960   0.24610   1.000
    C12     C    0.61720   0.29000   0.37990   1.000
    Bi3     Bi   0.50000   0.17146   0.25000   1.000
    O25     O    0.25470   0.21630   0.77280   1.000
    O26     O    0.14310   0.28810   0.83640   1.000
    O27     O    0.14420   0.15900   0.54770   1.000
    O28     O    0.04330   0.24030   0.59090   1.000
    C13     C    0.17810   0.24040   0.75390   1.000
    C14     C    0.11720   0.21000   0.62010   1.000
    O29     O    0.74530   0.21630   0.72720   1.000
    O30     O    0.85690   0.28810   0.66360   1.000
    O31     O    0.85580   0.15900   0.95230   1.000
    O32     O    0.95670   0.24030   0.90910   1.000
    C15     C    0.82190   0.24040   0.74610   1.000
    C16     C    0.88280   0.21000   0.87990   1.000
    Bi4     Bi   0.00000   0.32854   0.75000   1.000
    Bi5     Bi   0.19557   0.61612   0.59677   1.000
    O33     O    0.27640   0.56260   0.79410   1.000
    O34     O    0.28320   0.47150   0.95040   1.000
    O35     O    0.12560   0.51410   0.65050   1.000
    O36     O    0.12960   0.42500   0.81540   1.000
    C17     C    0.15900   0.47950   0.76320   1.000
    C18     C    0.24710   0.50670   0.84420   1.000
    Bi6     Bi   0.80443   0.61612   0.90323   1.000
    O37     O    0.72360   0.56260   0.70590   1.000
    O38     O    0.71680   0.47150   0.54960   1.000
    O39     O    0.87440   0.51410   0.84950   1.000
    O40     O    0.87040   0.42500   0.68460   1.000
    C19     C    0.84100   0.47950   0.73680   1.000
    C20     C    0.75290   0.50670   0.65580   1.000
    O41     O    0.22360   0.06260   0.79410   1.000
    O42     O    0.21680   0.97150   0.95040   1.000
    O43     O    0.37440   0.01410   0.65050   1.000
    O44     O    0.37040   0.92500   0.81540   1.000
    C21     C    0.34100   0.97950   0.76320   1.000
    C22     C    0.25290   0.00670   0.84420   1.000
    Bi7     Bi   0.30443   0.11612   0.59677   1.000
    O45     O    0.77640   0.06260   0.70590   1.000
    O46     O    0.78320   0.97150   0.54960   1.000
    O47     O    0.62560   0.01410   0.84950   1.000
    O48     O    0.62960   0.92500   0.68460   1.000
    C23     C    0.65900   0.97950   0.73680   1.000
    C24     C    0.74710   0.00670   0.65580   1.000
    Bi8     Bi   0.69557   0.11612   0.90323   1.000
    Bi9     Bi   0.30443   0.88388   0.09677   1.000
    O49     O    0.22360   0.93740   0.29410   1.000
    O50     O    0.21680   0.02850   0.45040   1.000
    O51     O    0.37440   0.98590   0.15050   1.000
    O52     O    0.37040   0.07500   0.31540   1.000
    C25     C    0.34100   0.02050   0.26320   1.000
    C26     C    0.25290   0.99330   0.34420   1.000
    Bi10    Bi   0.69557   0.88388   0.40323   1.000
    O53     O    0.77640   0.93740   0.20590   1.000
    O54     O    0.78320   0.02850   0.04960   1.000
    O55     O    0.62560   0.98590   0.34950   1.000
    O56     O    0.62960   0.07500   0.18460   1.000
    C27     C    0.65900   0.02050   0.23680   1.000
    C28     C    0.74710   0.99330   0.15580   1.000
    O57     O    0.27640   0.43740   0.29410   1.000
    O58     O    0.28320   0.52850   0.45040   1.000
    O59     O    0.12560   0.48590   0.15050   1.000
    O60     O    0.12960   0.57500   0.31540   1.000
    C29     C    0.15900   0.52050   0.26320   1.000
    C30     C    0.24710   0.49330   0.34420   1.000
    Bi11    Bi   0.19557   0.38388   0.09677   1.000
    O61     O    0.72360   0.43740   0.20590   1.000
    O62     O    0.71680   0.52850   0.04960   1.000
    O63     O    0.87440   0.48590   0.34950   1.000
    O64     O    0.87040   0.57500   0.18460   1.000
    C31     C    0.84100   0.52050   0.23680   1.000
    C32     C    0.75290   0.49330   0.15580   1.000
    Bi12    Bi   0.80443   0.38388   0.40323   1.000
