# CIF file generated by openbabel 2.4.1, see http://openbabel.sf.net
data_I
_chemical_name_common 'image0'
_cell_length_a 23.1895
_cell_length_b 29.6451
_cell_length_c 29.5164
_cell_angle_alpha 90
_cell_angle_beta 90
_cell_angle_gamma 90
_space_group_name_H-M_alt 'P 1'
_space_group_name_Hall 'P 1'
loop_
    _symmetry_equiv_pos_as_xyz
    x,y,z
loop_
    _atom_site_label
    _atom_site_type_symbol
    _atom_site_fract_x
    _atom_site_fract_y
    _atom_site_fract_z
    _atom_site_occupancy
    C1      C    0.72370   0.36750   0.37980   1.000
    C2      C    0.71910   0.33200   0.34590   1.000
    C3      C    0.76840   0.31830   0.32240   1.000
    H1      H    0.80480   0.33170   0.32850   1.000
    C4      C    0.76350   0.28520   0.29020   1.000
    C5      C    0.71290   0.26560   0.27880   1.000
    H2      H    0.71140   0.24360   0.25550   1.000
    C6      C    0.66330   0.27830   0.30190   1.000
    C7      C    0.66640   0.31080   0.33570   1.000
    H3      H    0.63270   0.31870   0.35210   1.000
    C8      C    0.79700   0.15760   0.28470   1.000
    H4      H    0.78550   0.13440   0.30660   1.000
    H5      H    0.82280   0.14440   0.26200   1.000
    H6      H    0.76260   0.16970   0.26970   1.000
    C9      C    0.82870   0.19630   0.30980   1.000
    H7      H    0.80320   0.20960   0.33310   1.000
    H8      H    0.86370   0.18450   0.32500   1.000
    C10     C    0.84510   0.23150   0.27520   1.000
    C11     C    0.84360   0.29310   0.23390   1.000
    C12     C    0.82900   0.33680   0.21650   1.000
    H9      H    0.84360   0.36010   0.23700   1.000
    H10     H    0.78700   0.33950   0.21400   1.000
    H11     H    0.84640   0.34080   0.18650   1.000
    C13     C    0.59300   0.22320   0.27090   1.000
    C14     C    0.53700   0.20050   0.27940   1.000
    C15     C    0.52360   0.16300   0.25450   1.000
    H12     H    0.54720   0.15490   0.22940   1.000
    C16     C    0.47410   0.13570   0.26590   1.000
    C17     C    0.43950   0.15200   0.29800   1.000
    H13     H    0.40490   0.13580   0.30390   1.000
    C18     C    0.44970   0.19130   0.32390   1.000
    H14     H    0.42460   0.20070   0.34750   1.000
    C19     C    0.49910   0.21490   0.31220   1.000
    H15     H    0.50710   0.24240   0.32750   1.000
    C20     C    0.46200   0.09520   0.23540   1.000
    H16     H    0.45930   0.06790   0.25390   1.000
    H17     H    0.49340   0.09190   0.21340   1.000
    H18     H    0.42550   0.10000   0.21930   1.000
    C21     C    0.75400   0.60130   0.57380   1.000
    C22     C    0.74380   0.64620   0.60000   1.000
    C23     C    0.68780   0.65200   0.62170   1.000
    H19     H    0.65920   0.62910   0.62110   1.000
    C24     C    0.67870   0.69380   0.64380   1.000
    C25     C    0.71870   0.72640   0.64590   1.000
    H20     H    0.71070   0.75330   0.66210   1.000
    C26     C    0.77380   0.72100   0.62360   1.000
    C27     C    0.78160   0.67990   0.60140   1.000
    H21     H    0.81710   0.67560   0.58590   1.000
    C28     C    0.59910   0.76770   0.61450   1.000
    C29     C    0.58660   0.61680   0.75870   1.000
    H22     H    0.55410   0.63620   0.76720   1.000
    H23     H    0.61250   0.61310   0.78470   1.000
    H24     H    0.57210   0.58720   0.74930   1.000
    C30     C    0.61920   0.63810   0.71990   1.000
    H25     H    0.65720   0.64750   0.73180   1.000
    H26     H    0.62650   0.61410   0.69730   1.000
    C31     C    0.59500   0.67670   0.69550   1.000
    C32     C    0.58800   0.73440   0.65050   1.000
    H27     H    0.63790   0.76300   0.60220   1.000
    H28     H    0.59630   0.79820   0.62710   1.000
    H29     H    0.57060   0.76400   0.59030   1.000
    C33     C    0.81990   0.79210   0.64690   1.000
    C34     C    0.87360   0.81590   0.63650   1.000
    C35     C    0.91270   0.80740   0.60170   1.000
    H30     H    0.90860   0.78120   0.58360   1.000
    C36     C    0.95820   0.83780   0.59340   1.000
    C37     C    0.97030   0.87130   0.62520   1.000
    H31     H    0.00510   0.88810   0.62330   1.000
    C38     C    0.93130   0.88010   0.65970   1.000
    H32     H    0.93690   0.90530   0.67900   1.000
    C39     C    0.88360   0.85200   0.66600   1.000
    H33     H    0.85780   0.85740   0.69040   1.000
    C40     C    0.00100   0.82750   0.55580   1.000
    H34     H    0.02170   0.79950   0.56290   1.000
    H35     H    0.02860   0.85240   0.55310   1.000
    H36     H    0.98020   0.82390   0.52710   1.000
    C41     C    0.03460   0.34290   0.60310   1.000
    C42     C    0.02740   0.37360   0.56600   1.000
    C43     C    0.97220   0.39060   0.55590   1.000
    H37     H    0.93950   0.38100   0.57270   1.000
    C44     C    0.96650   0.42200   0.52050   1.000
    C45     C    0.01320   0.43550   0.49460   1.000
    H38     H    0.00840   0.45620   0.47040   1.000
    C46     C    0.06800   0.41770   0.50530   1.000
    C47     C    0.07410   0.38810   0.53960   1.000
    H39     H    0.11140   0.37660   0.54620   1.000
    C48     C    0.86450   0.52300   0.60090   1.000
    H40     H    0.82740   0.50910   0.60850   1.000
    H41     H    0.85810   0.54890   0.58080   1.000
    H42     H    0.88360   0.53320   0.62870   1.000
    C49     C    0.90130   0.48970   0.57780   1.000
    H43     H    0.91110   0.46600   0.60020   1.000
    H44     H    0.93780   0.50510   0.56970   1.000
    C50     C    0.87890   0.46590   0.53500   1.000
    C51     C    0.87440   0.42610   0.47420   1.000
    C52     C    0.89040   0.39030   0.44070   1.000
    H45     H    0.87820   0.36080   0.45220   1.000
    H46     H    0.93230   0.39030   0.43630   1.000
    H47     H    0.87120   0.39630   0.41180   1.000
    C53     C    0.12440   0.45520   0.44500   1.000
    C54     C    0.18080   0.44910   0.41870   1.000
    C55     C    0.21910   0.41350   0.42670   1.000
    H48     H    0.21120   0.39260   0.45030   1.000
    C56     C    0.26850   0.40810   0.40080   1.000
    C57     C    0.27760   0.43510   0.36720   1.000
    H49     H    0.30990   0.42940   0.34820   1.000
    C58     C    0.24400   0.47110   0.35760   1.000
    H50     H    0.25330   0.49030   0.33290   1.000
    C59     C    0.19190   0.48050   0.38600   1.000
    H51     H    0.16840   0.50630   0.38170   1.000
    C60     C    0.30410   0.36740   0.40950   1.000
    H52     H    0.28900   0.35140   0.43610   1.000
    H53     H    0.34410   0.37640   0.41510   1.000
    H54     H    0.30250   0.34740   0.38300   1.000
    C61     C    0.50440   0.64640   0.34040   1.000
    C62     C    0.50260   0.61800   0.38490   1.000
    C63     C    0.55120   0.59050   0.39350   1.000
    H55     H    0.58330   0.58950   0.37360   1.000
    C64     C    0.54890   0.56530   0.43270   1.000
    C65     C    0.50190   0.56480   0.46110   1.000
    H56     H    0.50000   0.54470   0.48610   1.000
    C66     C    0.45560   0.59610   0.45160   1.000
    C67     C    0.45880   0.61940   0.41100   1.000
    H57     H    0.42670   0.63720   0.40210   1.000
    C68     C    0.63010   0.54670   0.48550   1.000
    C69     C    0.62590   0.50290   0.42310   1.000
    C70     C    0.60530   0.48430   0.38170   1.000
    H58     H    0.61640   0.50390   0.35650   1.000
    H59     H    0.56310   0.48180   0.38290   1.000
    H60     H    0.62210   0.45430   0.37730   1.000
    C71     C    0.39420   0.57600   0.51840   1.000
    C72     C    0.33980   0.58650   0.54040   1.000
    C73     C    0.30240   0.61830   0.52880   1.000
    H61     H    0.30930   0.63510   0.50200   1.000
    C74     C    0.25230   0.62830   0.55500   1.000
    C75     C    0.24330   0.59980   0.59080   1.000
    H62     H    0.20990   0.60530   0.60870   1.000
    C76     C    0.27690   0.56480   0.60330   1.000
    H63     H    0.26670   0.54480   0.62720   1.000
    C77     C    0.32700   0.56030   0.57890   1.000
    H64     H    0.35440   0.53840   0.58850   1.000
    C78     C    0.21050   0.65840   0.54120   1.000
    H65     H    0.20260   0.65390   0.50890   1.000
    H66     H    0.22410   0.68930   0.54620   1.000
    H67     H    0.17510   0.65330   0.55860   1.000
    Ag1     Ag   0.74308   0.44525   0.43797   1.000
    Ag2     Ag   0.75014   0.51320   0.53339   1.000
    Ag3     Ag   0.97020   0.18510   0.24983   1.000
    Ag4     Ag   0.96451   0.28007   0.17836   1.000
    N1      N    0.89110   0.22990   0.25010   1.000
    N2      N    0.89150   0.26940   0.22420   1.000
    N3      N    0.81640   0.27050   0.26770   1.000
    N4      N    0.60690   0.25950   0.29570   1.000
    H68     H    0.57840   0.27310   0.30980   1.000
    N5      N    0.53880   0.73190   0.67400   1.000
    N6      N    0.54470   0.69750   0.70390   1.000
    N7      N    0.62310   0.69970   0.66350   1.000
    N8      N    0.81790   0.75460   0.62470   1.000
    H69     H    0.84830   0.74890   0.60780   1.000
    N9      N    0.82920   0.47150   0.51720   1.000
    N10     N    0.82500   0.44480   0.48020   1.000
    N11     N    0.90990   0.43730   0.51070   1.000
    N12     N    0.11930   0.42790   0.48030   1.000
    H70     H    0.15110   0.41450   0.48950   1.000
    N13     N    0.67320   0.51770   0.48620   1.000
    N14     N    0.66950   0.49080   0.44810   1.000
    N15     N    0.59690   0.54100   0.44700   1.000
    N16     N    0.40560   0.59740   0.47970   1.000
    H71     H    0.37790   0.61530   0.46990   1.000
    O1      O    0.68210   0.36840   0.41040   1.000
    O2      O    0.76390   0.39560   0.37970   1.000
    O3      O    0.62770   0.20810   0.24160   1.000
    O4      O    0.73010   0.56900   0.58820   1.000
    O5      O    0.78810   0.60400   0.54120   1.000
    O6      O    0.78020   0.80400   0.67240   1.000
    O7      O    0.00040   0.34510   0.63830   1.000
    O8      O    0.07420   0.31190   0.59850   1.000
    O9      O    0.08520   0.48090   0.43090   1.000
    O10     O    0.54100   0.63580   0.31080   1.000
    O11     O    0.47140   0.68160   0.33980   1.000
    O12     O    0.43130   0.54870   0.53550   1.000
    C79     C    0.62230   0.58280   0.51830   1.000
    C80     C    0.59130   0.56590   0.55960   1.000
    H72     H    0.58630   0.59070   0.58120   1.000
    H73     H    0.61390   0.54180   0.57380   1.000
    H74     H    0.55340   0.55420   0.55080   1.000
    H75     H    0.59990   0.60760   0.50440   1.000
    H76     H    0.66050   0.59490   0.52730   1.000
    C81     C    0.60240   0.74850   0.56720   1.000
    H77     H    0.59920   0.71560   0.56860   1.000
    H78     H    0.63940   0.75680   0.55350   1.000
    H79     H    0.57080   0.76070   0.54890   1.000
    H80     H    0.63590   0.78320   0.62120   1.000
    H81     H    0.56810   0.79060   0.61530   1.000
    H82     H    0.59080   0.62680   0.74170   1.000
    H83     H    0.65410   0.64750   0.73600   1.000
    H84     H    0.62890   0.61420   0.69830   1.000
    C82     C    0.86750   0.83000   0.64570   1.000
    C83     C    0.90900   0.82410   0.61380   1.000
    H85     H    0.90490   0.80090   0.59180   1.000
    C84     C    0.95730   0.85170   0.61300   1.000
    C85     C    0.96200   0.88440   0.64530   1.000
    H86     H    0.99530   0.90300   0.64580   1.000
    C86     C    0.91980   0.89090   0.67690   1.000
    H87     H    0.92330   0.91470   0.69820   1.000
    C87     C    0.87250   0.86320   0.67780   1.000
    H88     H    0.84370   0.86690   0.70040   1.000
    C88     C    0.00160   0.84720   0.57510   1.000
    H89     H    0.99100   0.82200   0.55540   1.000
    H90     H    0.03980   0.84170   0.58820   1.000
    H91     H    0.00240   0.87520   0.55730   1.000
    C89     C    0.62790   0.63000   0.50200   1.000
    H92     H    0.62160   0.65080   0.52740   1.000
    H93     H    0.59910   0.63570   0.47840   1.000
    H94     H    0.66660   0.63470   0.48960   1.000
    H95     H    0.65080   0.57830   0.54290   1.000
    H96     H    0.58350   0.57940   0.53190   1.000
    C90     C    0.22370   0.86750   0.87980   1.000
    C91     C    0.21910   0.83200   0.84590   1.000
    C92     C    0.26840   0.81830   0.82240   1.000
    H97     H    0.30480   0.83170   0.82850   1.000
    C93     C    0.26350   0.78520   0.79020   1.000
    C94     C    0.21290   0.76560   0.77880   1.000
    H98     H    0.21140   0.74360   0.75550   1.000
    C95     C    0.16330   0.77830   0.80190   1.000
    C96     C    0.16640   0.81080   0.83570   1.000
    H99     H    0.13270   0.81870   0.85210   1.000
    C97     C    0.29700   0.65760   0.78470   1.000
    H100    H    0.28550   0.63440   0.80660   1.000
    H101    H    0.32280   0.64440   0.76200   1.000
    H102    H    0.26260   0.66970   0.76970   1.000
    C98     C    0.32870   0.69630   0.80980   1.000
    H103    H    0.30320   0.70960   0.83310   1.000
    H104    H    0.36370   0.68450   0.82500   1.000
    C99     C    0.34510   0.73150   0.77520   1.000
    C100    C    0.34360   0.79310   0.73390   1.000
    C101    C    0.32900   0.83680   0.71650   1.000
    H105    H    0.34360   0.86010   0.73700   1.000
    H106    H    0.28700   0.83950   0.71400   1.000
    H107    H    0.34640   0.84080   0.68650   1.000
    C102    C    0.09300   0.72320   0.77090   1.000
    C103    C    0.03700   0.70050   0.77940   1.000
    C104    C    0.02360   0.66300   0.75450   1.000
    H108    H    0.04720   0.65490   0.72940   1.000
    C105    C    0.97410   0.63570   0.76590   1.000
    C106    C    0.93950   0.65200   0.79800   1.000
    H109    H    0.90490   0.63580   0.80390   1.000
    C107    C    0.94970   0.69130   0.82390   1.000
    H110    H    0.92460   0.70070   0.84750   1.000
    C108    C    0.99910   0.71490   0.81220   1.000
    H111    H    0.00710   0.74240   0.82750   1.000
    C109    C    0.96200   0.59520   0.73540   1.000
    H112    H    0.95930   0.56790   0.75390   1.000
    H113    H    0.99340   0.59190   0.71340   1.000
    H114    H    0.92550   0.60000   0.71930   1.000
    C110    C    0.25400   0.10130   0.07380   1.000
    C111    C    0.24380   0.14620   0.10000   1.000
    C112    C    0.18780   0.15200   0.12170   1.000
    H115    H    0.15920   0.12910   0.12110   1.000
    C113    C    0.17870   0.19380   0.14380   1.000
    C114    C    0.21870   0.22640   0.14590   1.000
    H116    H    0.21070   0.25330   0.16210   1.000
    C115    C    0.27380   0.22100   0.12360   1.000
    C116    C    0.28160   0.17990   0.10140   1.000
    H117    H    0.31710   0.17560   0.08590   1.000
    C117    C    0.09910   0.26770   0.11450   1.000
    C118    C    0.08660   0.11680   0.25870   1.000
    H118    H    0.05410   0.13620   0.26720   1.000
    H119    H    0.11250   0.11310   0.28470   1.000
    H120    H    0.07210   0.08720   0.24930   1.000
    C119    C    0.11920   0.13810   0.21990   1.000
    H121    H    0.15720   0.14750   0.23180   1.000
    H122    H    0.12650   0.11410   0.19730   1.000
    C120    C    0.09500   0.17670   0.19550   1.000
    C121    C    0.08800   0.23440   0.15050   1.000
    H123    H    0.13790   0.26300   0.10220   1.000
    H124    H    0.09630   0.29820   0.12710   1.000
    H125    H    0.07060   0.26400   0.09030   1.000
    C122    C    0.31990   0.29210   0.14690   1.000
    C123    C    0.37360   0.31590   0.13650   1.000
    C124    C    0.41270   0.30740   0.10170   1.000
    H126    H    0.40860   0.28120   0.08360   1.000
    C125    C    0.45820   0.33780   0.09340   1.000
    C126    C    0.47030   0.37130   0.12520   1.000
    H127    H    0.50510   0.38810   0.12330   1.000
    C127    C    0.43130   0.38010   0.15970   1.000
    H128    H    0.43690   0.40530   0.17900   1.000
    C128    C    0.38360   0.35200   0.16600   1.000
    H129    H    0.35780   0.35740   0.19040   1.000
    C129    C    0.50100   0.32750   0.05580   1.000
    H130    H    0.52170   0.29950   0.06290   1.000
    H131    H    0.52860   0.35240   0.05310   1.000
    H132    H    0.48020   0.32390   0.02710   1.000
    C130    C    0.53460   0.84290   0.10310   1.000
    C131    C    0.52740   0.87360   0.06600   1.000
    C132    C    0.47220   0.89060   0.05590   1.000
    H133    H    0.43950   0.88100   0.07270   1.000
    C133    C    0.46650   0.92200   0.02050   1.000
    C134    C    0.51320   0.93550   0.99460   1.000
    H134    H    0.50840   0.95620   0.97040   1.000
    C135    C    0.56800   0.91770   0.00530   1.000
    C136    C    0.57410   0.88810   0.03960   1.000
    H135    H    0.61140   0.87660   0.04620   1.000
    C137    C    0.36450   0.02300   0.10090   1.000
    H136    H    0.32740   0.00910   0.10850   1.000
    H137    H    0.35810   0.04890   0.08080   1.000
    H138    H    0.38360   0.03320   0.12870   1.000
    C138    C    0.40130   0.98970   0.07780   1.000
    H139    H    0.41110   0.96600   0.10020   1.000
    H140    H    0.43780   0.00510   0.06970   1.000
    C139    C    0.37890   0.96590   0.03500   1.000
    C140    C    0.37440   0.92610   0.97420   1.000
    C141    C    0.39040   0.89030   0.94070   1.000
    H141    H    0.37820   0.86080   0.95220   1.000
    H142    H    0.43230   0.89030   0.93630   1.000
    H143    H    0.37120   0.89630   0.91180   1.000
    C142    C    0.62440   0.95520   0.94500   1.000
    C143    C    0.68080   0.94910   0.91870   1.000
    C144    C    0.71910   0.91350   0.92670   1.000
    H144    H    0.71120   0.89260   0.95030   1.000
    C145    C    0.76850   0.90810   0.90080   1.000
    C146    C    0.77760   0.93510   0.86720   1.000
    H145    H    0.80990   0.92940   0.84820   1.000
    C147    C    0.74400   0.97110   0.85760   1.000
    H146    H    0.75330   0.99030   0.83290   1.000
    C148    C    0.69190   0.98050   0.88600   1.000
    H147    H    0.66840   0.00630   0.88170   1.000
    C149    C    0.80410   0.86740   0.90950   1.000
    H148    H    0.78900   0.85140   0.93610   1.000
    H149    H    0.84410   0.87640   0.91510   1.000
    H150    H    0.80250   0.84740   0.88300   1.000
    C150    C    0.00440   0.14640   0.84040   1.000
    C151    C    0.00260   0.11800   0.88490   1.000
    C152    C    0.05120   0.09050   0.89350   1.000
    H151    H    0.08330   0.08950   0.87360   1.000
    C153    C    0.04890   0.06530   0.93270   1.000
    C154    C    0.00190   0.06480   0.96110   1.000
    H152    H    0.00000   0.04470   0.98610   1.000
    C155    C    0.95560   0.09610   0.95160   1.000
    C156    C    0.95880   0.11940   0.91100   1.000
    H153    H    0.92670   0.13720   0.90210   1.000
    C157    C    0.13010   0.04670   0.98550   1.000
    C158    C    0.12590   0.00290   0.92310   1.000
    C159    C    0.10530   0.98430   0.88170   1.000
    H154    H    0.11640   0.00390   0.85650   1.000
    H155    H    0.06310   0.98180   0.88290   1.000
    H156    H    0.12210   0.95430   0.87730   1.000
    C160    C    0.89420   0.07600   0.01840   1.000
    C161    C    0.83980   0.08650   0.04040   1.000
    C162    C    0.80240   0.11830   0.02880   1.000
    H157    H    0.80930   0.13510   0.00200   1.000
    C163    C    0.75230   0.12830   0.05500   1.000
    C164    C    0.74330   0.09980   0.09080   1.000
    H158    H    0.70990   0.10530   0.10870   1.000
    C165    C    0.77690   0.06480   0.10330   1.000
    H159    H    0.76670   0.04480   0.12720   1.000
    C166    C    0.82700   0.06030   0.07890   1.000
    H160    H    0.85440   0.03840   0.08850   1.000
    C167    C    0.71050   0.15840   0.04120   1.000
    H161    H    0.70260   0.15390   0.00890   1.000
    H162    H    0.72410   0.18930   0.04620   1.000
    H163    H    0.67510   0.15330   0.05860   1.000
    Ag5     Ag   0.24308   0.94525   0.93797   1.000
    Ag6     Ag   0.25014   0.01320   0.03339   1.000
    Ag7     Ag   0.47020   0.68510   0.74983   1.000
    Ag8     Ag   0.46451   0.78007   0.67836   1.000
    N17     N    0.39110   0.72990   0.75010   1.000
    N18     N    0.39150   0.76940   0.72420   1.000
    N19     N    0.31640   0.77050   0.76770   1.000
    N20     N    0.10690   0.75950   0.79570   1.000
    H164    H    0.07840   0.77310   0.80980   1.000
    N21     N    0.03880   0.23190   0.17400   1.000
    N22     N    0.04470   0.19750   0.20390   1.000
    N23     N    0.12310   0.19970   0.16350   1.000
    N24     N    0.31790   0.25460   0.12470   1.000
    H165    H    0.34830   0.24890   0.10780   1.000
    N25     N    0.32920   0.97150   0.01720   1.000
    N26     N    0.32500   0.94480   0.98020   1.000
    N27     N    0.40990   0.93730   0.01070   1.000
    N28     N    0.61930   0.92790   0.98030   1.000
    H166    H    0.65110   0.91450   0.98950   1.000
    N29     N    0.17320   0.01770   0.98620   1.000
    N30     N    0.16950   0.99080   0.94810   1.000
    N31     N    0.09690   0.04100   0.94700   1.000
    N32     N    0.90560   0.09740   0.97970   1.000
    H167    H    0.87790   0.11530   0.96990   1.000
    O13     O    0.18210   0.86840   0.91040   1.000
    O14     O    0.26390   0.89560   0.87970   1.000
    O15     O    0.12770   0.70810   0.74160   1.000
    O16     O    0.23010   0.06900   0.08820   1.000
    O17     O    0.28810   0.10400   0.04120   1.000
    O18     O    0.28020   0.30400   0.17240   1.000
    O19     O    0.50040   0.84510   0.13830   1.000
    O20     O    0.57420   0.81190   0.09850   1.000
    O21     O    0.58520   0.98090   0.93090   1.000
    O22     O    0.04100   0.13580   0.81080   1.000
    O23     O    0.97140   0.18160   0.83980   1.000
    O24     O    0.93130   0.04870   0.03550   1.000
    C168    C    0.12230   0.08280   0.01830   1.000
    C169    C    0.09130   0.06590   0.05960   1.000
    H168    H    0.08630   0.09070   0.08120   1.000
    H169    H    0.11390   0.04180   0.07380   1.000
    H170    H    0.05340   0.05420   0.05080   1.000
    H171    H    0.09990   0.10760   0.00440   1.000
    H172    H    0.16050   0.09490   0.02730   1.000
    C170    C    0.10240   0.24850   0.06720   1.000
    H173    H    0.09920   0.21560   0.06860   1.000
    H174    H    0.13940   0.25680   0.05350   1.000
    H175    H    0.07080   0.26070   0.04890   1.000
    H176    H    0.13590   0.28320   0.12120   1.000
    H177    H    0.06810   0.29060   0.11530   1.000
    H178    H    0.09080   0.12680   0.24170   1.000
    H179    H    0.15410   0.14750   0.23600   1.000
    H180    H    0.12890   0.11420   0.19830   1.000
    C171    C    0.36750   0.33000   0.14570   1.000
    C172    C    0.40900   0.32410   0.11380   1.000
    H181    H    0.40490   0.30090   0.09180   1.000
    C173    C    0.45730   0.35170   0.11300   1.000
    C174    C    0.46200   0.38440   0.14530   1.000
    H182    H    0.49530   0.40300   0.14580   1.000
    C175    C    0.41980   0.39090   0.17690   1.000
    H183    H    0.42330   0.41470   0.19820   1.000
    C176    C    0.37250   0.36320   0.17780   1.000
    H184    H    0.34370   0.36690   0.20040   1.000
    C177    C    0.50160   0.34720   0.07510   1.000
    H185    H    0.49100   0.32200   0.05540   1.000
    H186    H    0.53980   0.34170   0.08820   1.000
    H187    H    0.50240   0.37520   0.05730   1.000
    C178    C    0.12790   0.13000   0.00200   1.000
    H188    H    0.12160   0.15080   0.02740   1.000
    H189    H    0.09910   0.13570   0.97840   1.000
    H190    H    0.16660   0.13470   0.98960   1.000
    H191    H    0.15080   0.07830   0.04290   1.000
    H192    H    0.08350   0.07940   0.03190   1.000
    C179    C    0.77630   0.86750   0.37980   1.000
    C180    C    0.78090   0.83200   0.34590   1.000
    C181    C    0.73160   0.81830   0.32240   1.000
    H193    H    0.69520   0.83170   0.32850   1.000
    C182    C    0.73650   0.78520   0.29020   1.000
    C183    C    0.78710   0.76560   0.27880   1.000
    H194    H    0.78860   0.74360   0.25550   1.000
    C184    C    0.83670   0.77830   0.30190   1.000
    C185    C    0.83360   0.81080   0.33570   1.000
    H195    H    0.86730   0.81870   0.35210   1.000
    C186    C    0.70300   0.65760   0.28470   1.000
    H196    H    0.71450   0.63440   0.30660   1.000
    H197    H    0.67720   0.64440   0.26200   1.000
    H198    H    0.73740   0.66970   0.26970   1.000
    C187    C    0.67130   0.69630   0.30980   1.000
    H199    H    0.69680   0.70960   0.33310   1.000
    H200    H    0.63630   0.68450   0.32500   1.000
    C188    C    0.65490   0.73150   0.27520   1.000
    C189    C    0.65640   0.79310   0.23390   1.000
    C190    C    0.67100   0.83680   0.21650   1.000
    H201    H    0.65640   0.86010   0.23700   1.000
    H202    H    0.71300   0.83950   0.21400   1.000
    H203    H    0.65360   0.84080   0.18650   1.000
    C191    C    0.90700   0.72320   0.27090   1.000
    C192    C    0.96300   0.70050   0.27940   1.000
    C193    C    0.97640   0.66300   0.25450   1.000
    H204    H    0.95280   0.65490   0.22940   1.000
    C194    C    0.02590   0.63570   0.26590   1.000
    C195    C    0.06050   0.65200   0.29800   1.000
    H205    H    0.09510   0.63580   0.30390   1.000
    C196    C    0.05030   0.69130   0.32390   1.000
    H206    H    0.07540   0.70070   0.34750   1.000
    C197    C    0.00090   0.71490   0.31220   1.000
    H207    H    0.99290   0.74240   0.32750   1.000
    C198    C    0.03800   0.59520   0.23540   1.000
    H208    H    0.04070   0.56790   0.25390   1.000
    H209    H    0.00660   0.59190   0.21340   1.000
    H210    H    0.07450   0.60000   0.21930   1.000
    C199    C    0.74600   0.10130   0.57380   1.000
    C200    C    0.75620   0.14620   0.60000   1.000
    C201    C    0.81220   0.15200   0.62170   1.000
    H211    H    0.84080   0.12910   0.62110   1.000
    C202    C    0.82130   0.19380   0.64380   1.000
    C203    C    0.78130   0.22640   0.64590   1.000
    H212    H    0.78930   0.25330   0.66210   1.000
    C204    C    0.72620   0.22100   0.62360   1.000
    C205    C    0.71840   0.17990   0.60140   1.000
    H213    H    0.68290   0.17560   0.58590   1.000
    C206    C    0.90090   0.26770   0.61450   1.000
    C207    C    0.91340   0.11680   0.75870   1.000
    H214    H    0.94590   0.13620   0.76720   1.000
    H215    H    0.88750   0.11310   0.78470   1.000
    H216    H    0.92790   0.08720   0.74930   1.000
    C208    C    0.88080   0.13810   0.71990   1.000
    H217    H    0.84280   0.14750   0.73180   1.000
    H218    H    0.87350   0.11410   0.69730   1.000
    C209    C    0.90500   0.17670   0.69550   1.000
    C210    C    0.91200   0.23440   0.65050   1.000
    H219    H    0.86210   0.26300   0.60220   1.000
    H220    H    0.90370   0.29820   0.62710   1.000
    H221    H    0.92940   0.26400   0.59030   1.000
    C211    C    0.68010   0.29210   0.64690   1.000
    C212    C    0.62640   0.31590   0.63650   1.000
    C213    C    0.58730   0.30740   0.60170   1.000
    H222    H    0.59140   0.28120   0.58360   1.000
    C214    C    0.54180   0.33780   0.59340   1.000
    C215    C    0.52970   0.37130   0.62520   1.000
    H223    H    0.49490   0.38810   0.62330   1.000
    C216    C    0.56870   0.38010   0.65970   1.000
    H224    H    0.56310   0.40530   0.67900   1.000
    C217    C    0.61640   0.35200   0.66600   1.000
    H225    H    0.64220   0.35740   0.69040   1.000
    C218    C    0.49900   0.32750   0.55580   1.000
    H226    H    0.47830   0.29950   0.56290   1.000
    H227    H    0.47140   0.35240   0.55310   1.000
    H228    H    0.51980   0.32390   0.52710   1.000
    C219    C    0.46540   0.84290   0.60310   1.000
    C220    C    0.47260   0.87360   0.56600   1.000
    C221    C    0.52780   0.89060   0.55590   1.000
    H229    H    0.56050   0.88100   0.57270   1.000
    C222    C    0.53350   0.92200   0.52050   1.000
    C223    C    0.48680   0.93550   0.49460   1.000
    H230    H    0.49160   0.95620   0.47040   1.000
    C224    C    0.43200   0.91770   0.50530   1.000
    C225    C    0.42590   0.88810   0.53960   1.000
    H231    H    0.38860   0.87660   0.54620   1.000
    C226    C    0.63550   0.02300   0.60090   1.000
    H232    H    0.67260   0.00910   0.60850   1.000
    H233    H    0.64190   0.04890   0.58080   1.000
    H234    H    0.61640   0.03320   0.62870   1.000
    C227    C    0.59870   0.98970   0.57780   1.000
    H235    H    0.58890   0.96600   0.60020   1.000
    H236    H    0.56220   0.00510   0.56970   1.000
    C228    C    0.62110   0.96590   0.53500   1.000
    C229    C    0.62560   0.92610   0.47420   1.000
    C230    C    0.60960   0.89030   0.44070   1.000
    H237    H    0.62180   0.86080   0.45220   1.000
    H238    H    0.56770   0.89030   0.43630   1.000
    H239    H    0.62880   0.89630   0.41180   1.000
    C231    C    0.37560   0.95520   0.44500   1.000
    C232    C    0.31920   0.94910   0.41870   1.000
    C233    C    0.28090   0.91350   0.42670   1.000
    H240    H    0.28880   0.89260   0.45030   1.000
    C234    C    0.23150   0.90810   0.40080   1.000
    C235    C    0.22240   0.93510   0.36720   1.000
    H241    H    0.19010   0.92940   0.34820   1.000
    C236    C    0.25600   0.97110   0.35760   1.000
    H242    H    0.24670   0.99030   0.33290   1.000
    C237    C    0.30810   0.98050   0.38600   1.000
    H243    H    0.33160   0.00630   0.38170   1.000
    C238    C    0.19590   0.86740   0.40950   1.000
    H244    H    0.21100   0.85140   0.43610   1.000
    H245    H    0.15590   0.87640   0.41510   1.000
    H246    H    0.19750   0.84740   0.38300   1.000
    C239    C    0.99560   0.14640   0.34040   1.000
    C240    C    0.99740   0.11800   0.38490   1.000
    C241    C    0.94880   0.09050   0.39350   1.000
    H247    H    0.91670   0.08950   0.37360   1.000
    C242    C    0.95110   0.06530   0.43270   1.000
    C243    C    0.99810   0.06480   0.46110   1.000
    H248    H    0.00000   0.04470   0.48610   1.000
    C244    C    0.04440   0.09610   0.45160   1.000
    C245    C    0.04120   0.11940   0.41100   1.000
    H249    H    0.07330   0.13720   0.40210   1.000
    C246    C    0.86990   0.04670   0.48550   1.000
    C247    C    0.87410   0.00290   0.42310   1.000
    C248    C    0.89470   0.98430   0.38170   1.000
    H250    H    0.88360   0.00390   0.35650   1.000
    H251    H    0.93690   0.98180   0.38290   1.000
    H252    H    0.87790   0.95430   0.37730   1.000
    C249    C    0.10580   0.07600   0.51840   1.000
    C250    C    0.16020   0.08650   0.54040   1.000
    C251    C    0.19760   0.11830   0.52880   1.000
    H253    H    0.19070   0.13510   0.50200   1.000
    C252    C    0.24770   0.12830   0.55500   1.000
    C253    C    0.25670   0.09980   0.59080   1.000
    H254    H    0.29010   0.10530   0.60870   1.000
    C254    C    0.22310   0.06480   0.60330   1.000
    H255    H    0.23330   0.04480   0.62720   1.000
    C255    C    0.17300   0.06030   0.57890   1.000
    H256    H    0.14560   0.03840   0.58850   1.000
    C256    C    0.28950   0.15840   0.54120   1.000
    H257    H    0.29740   0.15390   0.50890   1.000
    H258    H    0.27590   0.18930   0.54620   1.000
    H259    H    0.32490   0.15330   0.55860   1.000
    Ag9     Ag   0.75692   0.94525   0.43797   1.000
    Ag10    Ag   0.74986   0.01320   0.53339   1.000
    Ag11    Ag   0.52980   0.68510   0.24983   1.000
    Ag12    Ag   0.53549   0.78007   0.17836   1.000
    N33     N    0.60890   0.72990   0.25010   1.000
    N34     N    0.60850   0.76940   0.22420   1.000
    N35     N    0.68360   0.77050   0.26770   1.000
    N36     N    0.89310   0.75950   0.29570   1.000
    H260    H    0.92160   0.77310   0.30980   1.000
    N37     N    0.96120   0.23190   0.67400   1.000
    N38     N    0.95530   0.19750   0.70390   1.000
    N39     N    0.87690   0.19970   0.66350   1.000
    N40     N    0.68210   0.25460   0.62470   1.000
    H261    H    0.65170   0.24890   0.60780   1.000
    N41     N    0.67080   0.97150   0.51720   1.000
    N42     N    0.67500   0.94480   0.48020   1.000
    N43     N    0.59010   0.93730   0.51070   1.000
    N44     N    0.38070   0.92790   0.48030   1.000
    H262    H    0.34890   0.91450   0.48950   1.000
    N45     N    0.82680   0.01770   0.48620   1.000
    N46     N    0.83050   0.99080   0.44810   1.000
    N47     N    0.90310   0.04100   0.44700   1.000
    N48     N    0.09440   0.09740   0.47970   1.000
    H263    H    0.12210   0.11530   0.46990   1.000
    O25     O    0.81790   0.86840   0.41040   1.000
    O26     O    0.73610   0.89560   0.37970   1.000
    O27     O    0.87230   0.70810   0.24160   1.000
    O28     O    0.76990   0.06900   0.58820   1.000
    O29     O    0.71190   0.10400   0.54120   1.000
    O30     O    0.71980   0.30400   0.67240   1.000
    O31     O    0.49960   0.84510   0.63830   1.000
    O32     O    0.42580   0.81190   0.59850   1.000
    O33     O    0.41480   0.98090   0.43090   1.000
    O34     O    0.95900   0.13580   0.31080   1.000
    O35     O    0.02860   0.18160   0.33980   1.000
    O36     O    0.06870   0.04870   0.53550   1.000
    C257    C    0.87770   0.08280   0.51830   1.000
    C258    C    0.90870   0.06590   0.55960   1.000
    H264    H    0.91370   0.09070   0.58120   1.000
    H265    H    0.88610   0.04180   0.57380   1.000
    H266    H    0.94660   0.05420   0.55080   1.000
    H267    H    0.90010   0.10760   0.50440   1.000
    H268    H    0.83950   0.09490   0.52730   1.000
    C259    C    0.89760   0.24850   0.56720   1.000
    H269    H    0.90080   0.21560   0.56860   1.000
    H270    H    0.86060   0.25680   0.55350   1.000
    H271    H    0.92920   0.26070   0.54890   1.000
    H272    H    0.86410   0.28320   0.62120   1.000
    H273    H    0.93190   0.29060   0.61530   1.000
    H274    H    0.90920   0.12680   0.74170   1.000
    H275    H    0.84590   0.14750   0.73600   1.000
    H276    H    0.87110   0.11420   0.69830   1.000
    C260    C    0.63250   0.33000   0.64570   1.000
    C261    C    0.59100   0.32410   0.61380   1.000
    H277    H    0.59510   0.30090   0.59180   1.000
    C262    C    0.54270   0.35170   0.61300   1.000
    C263    C    0.53800   0.38440   0.64530   1.000
    H278    H    0.50470   0.40300   0.64580   1.000
    C264    C    0.58020   0.39090   0.67690   1.000
    H279    H    0.57670   0.41470   0.69820   1.000
    C265    C    0.62750   0.36320   0.67780   1.000
    H280    H    0.65630   0.36690   0.70040   1.000
    C266    C    0.49840   0.34720   0.57510   1.000
    H281    H    0.50900   0.32200   0.55540   1.000
    H282    H    0.46020   0.34170   0.58820   1.000
    H283    H    0.49760   0.37520   0.55730   1.000
    C267    C    0.87210   0.13000   0.50200   1.000
    H284    H    0.87840   0.15080   0.52740   1.000
    H285    H    0.90090   0.13570   0.47840   1.000
    H286    H    0.83340   0.13470   0.48960   1.000
    H287    H    0.84920   0.07830   0.54290   1.000
    H288    H    0.91650   0.07940   0.53190   1.000
    C268    C    0.27630   0.36750   0.87980   1.000
    C269    C    0.28090   0.33200   0.84590   1.000
    C270    C    0.23160   0.31830   0.82240   1.000
    H289    H    0.19520   0.33170   0.82850   1.000
    C271    C    0.23650   0.28520   0.79020   1.000
    C272    C    0.28710   0.26560   0.77880   1.000
    H290    H    0.28860   0.24360   0.75550   1.000
    C273    C    0.33670   0.27830   0.80190   1.000
    C274    C    0.33360   0.31080   0.83570   1.000
    H291    H    0.36730   0.31870   0.85210   1.000
    C275    C    0.20300   0.15760   0.78470   1.000
    H292    H    0.21450   0.13440   0.80660   1.000
    H293    H    0.17720   0.14440   0.76200   1.000
    H294    H    0.23740   0.16970   0.76970   1.000
    C276    C    0.17130   0.19630   0.80980   1.000
    H295    H    0.19680   0.20960   0.83310   1.000
    H296    H    0.13630   0.18450   0.82500   1.000
    C277    C    0.15490   0.23150   0.77520   1.000
    C278    C    0.15640   0.29310   0.73390   1.000
    C279    C    0.17100   0.33680   0.71650   1.000
    H297    H    0.15640   0.36010   0.73700   1.000
    H298    H    0.21300   0.33950   0.71400   1.000
    H299    H    0.15360   0.34080   0.68650   1.000
    C280    C    0.40700   0.22320   0.77090   1.000
    C281    C    0.46300   0.20050   0.77940   1.000
    C282    C    0.47640   0.16300   0.75450   1.000
    H300    H    0.45280   0.15490   0.72940   1.000
    C283    C    0.52590   0.13570   0.76590   1.000
    C284    C    0.56050   0.15200   0.79800   1.000
    H301    H    0.59510   0.13580   0.80390   1.000
    C285    C    0.55030   0.19130   0.82390   1.000
    H302    H    0.57540   0.20070   0.84750   1.000
    C286    C    0.50090   0.21490   0.81220   1.000
    H303    H    0.49290   0.24240   0.82750   1.000
    C287    C    0.53800   0.09520   0.73540   1.000
    H304    H    0.54070   0.06790   0.75390   1.000
    H305    H    0.50660   0.09190   0.71340   1.000
    H306    H    0.57450   0.10000   0.71930   1.000
    C288    C    0.24600   0.60130   0.07380   1.000
    C289    C    0.25620   0.64620   0.10000   1.000
    C290    C    0.31220   0.65200   0.12170   1.000
    H307    H    0.34080   0.62910   0.12110   1.000
    C291    C    0.32130   0.69380   0.14380   1.000
    C292    C    0.28130   0.72640   0.14590   1.000
    H308    H    0.28930   0.75330   0.16210   1.000
    C293    C    0.22620   0.72100   0.12360   1.000
    C294    C    0.21840   0.67990   0.10140   1.000
    H309    H    0.18290   0.67560   0.08590   1.000
    C295    C    0.40090   0.76770   0.11450   1.000
    C296    C    0.41340   0.61680   0.25870   1.000
    H310    H    0.44590   0.63620   0.26720   1.000
    H311    H    0.38750   0.61310   0.28470   1.000
    H312    H    0.42790   0.58720   0.24930   1.000
    C297    C    0.38080   0.63810   0.21990   1.000
    H313    H    0.34280   0.64750   0.23180   1.000
    H314    H    0.37350   0.61410   0.19730   1.000
    C298    C    0.40500   0.67670   0.19550   1.000
    C299    C    0.41200   0.73440   0.15050   1.000
    H315    H    0.36210   0.76300   0.10220   1.000
    H316    H    0.40370   0.79820   0.12710   1.000
    H317    H    0.42940   0.76400   0.09030   1.000
    C300    C    0.18010   0.79210   0.14690   1.000
    C301    C    0.12640   0.81590   0.13650   1.000
    C302    C    0.08730   0.80740   0.10170   1.000
    H318    H    0.09140   0.78120   0.08360   1.000
    C303    C    0.04180   0.83780   0.09340   1.000
    C304    C    0.02970   0.87130   0.12520   1.000
    H319    H    0.99490   0.88810   0.12330   1.000
    C305    C    0.06870   0.88010   0.15970   1.000
    H320    H    0.06310   0.90530   0.17900   1.000
    C306    C    0.11640   0.85200   0.16600   1.000
    H321    H    0.14220   0.85740   0.19040   1.000
    C307    C    0.99900   0.82750   0.05580   1.000
    H322    H    0.97830   0.79950   0.06290   1.000
    H323    H    0.97140   0.85240   0.05310   1.000
    H324    H    0.01980   0.82390   0.02710   1.000
    C308    C    0.96540   0.34290   0.10310   1.000
    C309    C    0.97260   0.37360   0.06600   1.000
    C310    C    0.02780   0.39060   0.05590   1.000
    H325    H    0.06050   0.38100   0.07270   1.000
    C311    C    0.03350   0.42200   0.02050   1.000
    C312    C    0.98680   0.43550   0.99460   1.000
    H326    H    0.99160   0.45620   0.97040   1.000
    C313    C    0.93200   0.41770   0.00530   1.000
    C314    C    0.92590   0.38810   0.03960   1.000
    H327    H    0.88860   0.37660   0.04620   1.000
    C315    C    0.13550   0.52300   0.10090   1.000
    H328    H    0.17260   0.50910   0.10850   1.000
    H329    H    0.14190   0.54890   0.08080   1.000
    H330    H    0.11640   0.53320   0.12870   1.000
    C316    C    0.09870   0.48970   0.07780   1.000
    H331    H    0.08890   0.46600   0.10020   1.000
    H332    H    0.06220   0.50510   0.06970   1.000
    C317    C    0.12110   0.46590   0.03500   1.000
    C318    C    0.12560   0.42610   0.97420   1.000
    C319    C    0.10960   0.39030   0.94070   1.000
    H333    H    0.12180   0.36080   0.95220   1.000
    H334    H    0.06770   0.39030   0.93630   1.000
    H335    H    0.12880   0.39630   0.91180   1.000
    C320    C    0.87560   0.45520   0.94500   1.000
    C321    C    0.81920   0.44910   0.91870   1.000
    C322    C    0.78090   0.41350   0.92670   1.000
    H336    H    0.78880   0.39260   0.95030   1.000
    C323    C    0.73150   0.40810   0.90080   1.000
    C324    C    0.72240   0.43510   0.86720   1.000
    H337    H    0.69010   0.42940   0.84820   1.000
    C325    C    0.75600   0.47110   0.85760   1.000
    H338    H    0.74670   0.49030   0.83290   1.000
    C326    C    0.80810   0.48050   0.88600   1.000
    H339    H    0.83160   0.50630   0.88170   1.000
    C327    C    0.69590   0.36740   0.90950   1.000
    H340    H    0.71100   0.35140   0.93610   1.000
    H341    H    0.65590   0.37640   0.91510   1.000
    H342    H    0.69750   0.34740   0.88300   1.000
    C328    C    0.49560   0.64640   0.84040   1.000
    C329    C    0.49740   0.61800   0.88490   1.000
    C330    C    0.44880   0.59050   0.89350   1.000
    H343    H    0.41670   0.58950   0.87360   1.000
    C331    C    0.45110   0.56530   0.93270   1.000
    C332    C    0.49810   0.56480   0.96110   1.000
    H344    H    0.50000   0.54470   0.98610   1.000
    C333    C    0.54440   0.59610   0.95160   1.000
    C334    C    0.54120   0.61940   0.91100   1.000
    H345    H    0.57330   0.63720   0.90210   1.000
    C335    C    0.36990   0.54670   0.98550   1.000
    C336    C    0.37410   0.50290   0.92310   1.000
    C337    C    0.39470   0.48430   0.88170   1.000
    H346    H    0.38360   0.50390   0.85650   1.000
    H347    H    0.43690   0.48180   0.88290   1.000
    H348    H    0.37790   0.45430   0.87730   1.000
    C338    C    0.60580   0.57600   0.01840   1.000
    C339    C    0.66020   0.58650   0.04040   1.000
    C340    C    0.69760   0.61830   0.02880   1.000
    H349    H    0.69070   0.63510   0.00200   1.000
    C341    C    0.74770   0.62830   0.05500   1.000
    C342    C    0.75670   0.59980   0.09080   1.000
    H350    H    0.79010   0.60530   0.10870   1.000
    C343    C    0.72310   0.56480   0.10330   1.000
    H351    H    0.73330   0.54480   0.12720   1.000
    C344    C    0.67300   0.56030   0.07890   1.000
    H352    H    0.64560   0.53840   0.08850   1.000
    C345    C    0.78950   0.65840   0.04120   1.000
    H353    H    0.79740   0.65390   0.00890   1.000
    H354    H    0.77590   0.68930   0.04620   1.000
    H355    H    0.82490   0.65330   0.05860   1.000
    Ag13    Ag   0.25692   0.44525   0.93797   1.000
    Ag14    Ag   0.24986   0.51320   0.03339   1.000
    Ag15    Ag   0.02980   0.18510   0.74983   1.000
    Ag16    Ag   0.03549   0.28007   0.67836   1.000
    N49     N    0.10890   0.22990   0.75010   1.000
    N50     N    0.10850   0.26940   0.72420   1.000
    N51     N    0.18360   0.27050   0.76770   1.000
    N52     N    0.39310   0.25950   0.79570   1.000
    H356    H    0.42160   0.27310   0.80980   1.000
    N53     N    0.46120   0.73190   0.17400   1.000
    N54     N    0.45530   0.69750   0.20390   1.000
    N55     N    0.37690   0.69970   0.16350   1.000
    N56     N    0.18210   0.75460   0.12470   1.000
    H357    H    0.15170   0.74890   0.10780   1.000
    N57     N    0.17080   0.47150   0.01720   1.000
    N58     N    0.17500   0.44480   0.98020   1.000
    N59     N    0.09010   0.43730   0.01070   1.000
    N60     N    0.88070   0.42790   0.98030   1.000
    H358    H    0.84890   0.41450   0.98950   1.000
    N61     N    0.32680   0.51770   0.98620   1.000
    N62     N    0.33050   0.49080   0.94810   1.000
    N63     N    0.40310   0.54100   0.94700   1.000
    N64     N    0.59440   0.59740   0.97970   1.000
    H359    H    0.62210   0.61530   0.96990   1.000
    O37     O    0.31790   0.36840   0.91040   1.000
    O38     O    0.23610   0.39560   0.87970   1.000
    O39     O    0.37230   0.20810   0.74160   1.000
    O40     O    0.26990   0.56900   0.08820   1.000
    O41     O    0.21190   0.60400   0.04120   1.000
    O42     O    0.21980   0.80400   0.17240   1.000
    O43     O    0.99960   0.34510   0.13830   1.000
    O44     O    0.92580   0.31190   0.09850   1.000
    O45     O    0.91480   0.48090   0.93090   1.000
    O46     O    0.45900   0.63580   0.81080   1.000
    O47     O    0.52860   0.68160   0.83980   1.000
    O48     O    0.56870   0.54870   0.03550   1.000
    C346    C    0.37770   0.58280   0.01830   1.000
    C347    C    0.40870   0.56590   0.05960   1.000
    H360    H    0.41370   0.59070   0.08120   1.000
    H361    H    0.38610   0.54180   0.07380   1.000
    H362    H    0.44660   0.55420   0.05080   1.000
    H363    H    0.40010   0.60760   0.00440   1.000
    H364    H    0.33950   0.59490   0.02730   1.000
    C348    C    0.39760   0.74850   0.06720   1.000
    H365    H    0.40080   0.71560   0.06860   1.000
    H366    H    0.36060   0.75680   0.05350   1.000
    H367    H    0.42920   0.76070   0.04890   1.000
    H368    H    0.36410   0.78320   0.12120   1.000
    H369    H    0.43190   0.79060   0.11530   1.000
    H370    H    0.40920   0.62680   0.24170   1.000
    H371    H    0.34590   0.64750   0.23600   1.000
    H372    H    0.37110   0.61420   0.19830   1.000
    C349    C    0.13250   0.83000   0.14570   1.000
    C350    C    0.09100   0.82410   0.11380   1.000
    H373    H    0.09510   0.80090   0.09180   1.000
    C351    C    0.04270   0.85170   0.11300   1.000
    C352    C    0.03800   0.88440   0.14530   1.000
    H374    H    0.00470   0.90300   0.14580   1.000
    C353    C    0.08020   0.89090   0.17690   1.000
    H375    H    0.07670   0.91470   0.19820   1.000
    C354    C    0.12750   0.86320   0.17780   1.000
    H376    H    0.15630   0.86690   0.20040   1.000
    C355    C    0.99840   0.84720   0.07510   1.000
    H377    H    0.00900   0.82200   0.05540   1.000
    H378    H    0.96020   0.84170   0.08820   1.000
    H379    H    0.99760   0.87520   0.05730   1.000
    C356    C    0.37210   0.63000   0.00200   1.000
    H380    H    0.37840   0.65080   0.02740   1.000
    H381    H    0.40090   0.63570   0.97840   1.000
    H382    H    0.33340   0.63470   0.98960   1.000
    H383    H    0.34920   0.57830   0.04290   1.000
    H384    H    0.41650   0.57940   0.03190   1.000
    C357    C    0.27630   0.63250   0.37980   1.000
    C358    C    0.28090   0.66800   0.34590   1.000
    C359    C    0.23160   0.68170   0.32240   1.000
    H385    H    0.19520   0.66830   0.32850   1.000
    C360    C    0.23650   0.71480   0.29020   1.000
    C361    C    0.28710   0.73440   0.27880   1.000
    H386    H    0.28860   0.75640   0.25550   1.000
    C362    C    0.33670   0.72170   0.30190   1.000
    C363    C    0.33360   0.68920   0.33570   1.000
    H387    H    0.36730   0.68130   0.35210   1.000
    C364    C    0.20300   0.84240   0.28470   1.000
    H388    H    0.21450   0.86560   0.30660   1.000
    H389    H    0.17720   0.85560   0.26200   1.000
    H390    H    0.23740   0.83030   0.26970   1.000
    C365    C    0.17130   0.80370   0.30980   1.000
    H391    H    0.19680   0.79040   0.33310   1.000
    H392    H    0.13630   0.81550   0.32500   1.000
    C366    C    0.15490   0.76850   0.27520   1.000
    C367    C    0.15640   0.70690   0.23390   1.000
    C368    C    0.17100   0.66320   0.21650   1.000
    H393    H    0.15640   0.63990   0.23700   1.000
    H394    H    0.21300   0.66050   0.21400   1.000
    H395    H    0.15360   0.65920   0.18650   1.000
    C369    C    0.40700   0.77680   0.27090   1.000
    C370    C    0.46300   0.79950   0.27940   1.000
    C371    C    0.47640   0.83700   0.25450   1.000
    H396    H    0.45280   0.84510   0.22940   1.000
    C372    C    0.52590   0.86430   0.26590   1.000
    C373    C    0.56050   0.84800   0.29800   1.000
    H397    H    0.59510   0.86420   0.30390   1.000
    C374    C    0.55030   0.80870   0.32390   1.000
    H398    H    0.57540   0.79930   0.34750   1.000
    C375    C    0.50090   0.78510   0.31220   1.000
    H399    H    0.49290   0.75760   0.32750   1.000
    C376    C    0.53800   0.90480   0.23540   1.000
    H400    H    0.54070   0.93210   0.25390   1.000
    H401    H    0.50660   0.90810   0.21340   1.000
    H402    H    0.57450   0.90000   0.21930   1.000
    C377    C    0.24600   0.39870   0.57380   1.000
    C378    C    0.25620   0.35380   0.60000   1.000
    C379    C    0.31220   0.34800   0.62170   1.000
    H403    H    0.34080   0.37090   0.62110   1.000
    C380    C    0.32130   0.30620   0.64380   1.000
    C381    C    0.28130   0.27360   0.64590   1.000
    H404    H    0.28930   0.24670   0.66210   1.000
    C382    C    0.22620   0.27900   0.62360   1.000
    C383    C    0.21840   0.32010   0.60140   1.000
    H405    H    0.18290   0.32440   0.58590   1.000
    C384    C    0.40090   0.23230   0.61450   1.000
    C385    C    0.41340   0.38320   0.75870   1.000
    H406    H    0.44590   0.36380   0.76720   1.000
    H407    H    0.38750   0.38690   0.78470   1.000
    H408    H    0.42790   0.41280   0.74930   1.000
    C386    C    0.38080   0.36190   0.71990   1.000
    H409    H    0.34280   0.35250   0.73180   1.000
    H410    H    0.37350   0.38590   0.69730   1.000
    C387    C    0.40500   0.32330   0.69550   1.000
    C388    C    0.41200   0.26560   0.65050   1.000
    H411    H    0.36210   0.23700   0.60220   1.000
    H412    H    0.40370   0.20180   0.62710   1.000
    H413    H    0.42940   0.23600   0.59030   1.000
    C389    C    0.18010   0.20790   0.64690   1.000
    C390    C    0.12640   0.18410   0.63650   1.000
    C391    C    0.08730   0.19260   0.60170   1.000
    H414    H    0.09140   0.21880   0.58360   1.000
    C392    C    0.04180   0.16220   0.59340   1.000
    C393    C    0.02970   0.12870   0.62520   1.000
    H415    H    0.99490   0.11190   0.62330   1.000
    C394    C    0.06870   0.11990   0.65970   1.000
    H416    H    0.06310   0.09470   0.67900   1.000
    C395    C    0.11640   0.14800   0.66600   1.000
    H417    H    0.14220   0.14260   0.69040   1.000
    C396    C    0.99900   0.17250   0.55580   1.000
    H418    H    0.97830   0.20050   0.56290   1.000
    H419    H    0.97140   0.14760   0.55310   1.000
    H420    H    0.01980   0.17610   0.52710   1.000
    C397    C    0.96540   0.65710   0.60310   1.000
    C398    C    0.97260   0.62640   0.56600   1.000
    C399    C    0.02780   0.60940   0.55590   1.000
    H421    H    0.06050   0.61900   0.57270   1.000
    C400    C    0.03350   0.57800   0.52050   1.000
    C401    C    0.98680   0.56450   0.49460   1.000
    H422    H    0.99160   0.54380   0.47040   1.000
    C402    C    0.93200   0.58230   0.50530   1.000
    C403    C    0.92590   0.61190   0.53960   1.000
    H423    H    0.88860   0.62340   0.54620   1.000
    C404    C    0.13550   0.47700   0.60090   1.000
    H424    H    0.17260   0.49090   0.60850   1.000
    H425    H    0.14190   0.45110   0.58080   1.000
    H426    H    0.11640   0.46680   0.62870   1.000
    C405    C    0.09870   0.51030   0.57780   1.000
    H427    H    0.08890   0.53400   0.60020   1.000
    H428    H    0.06220   0.49490   0.56970   1.000
    C406    C    0.12110   0.53410   0.53500   1.000
    C407    C    0.12560   0.57390   0.47420   1.000
    C408    C    0.10960   0.60970   0.44070   1.000
    H429    H    0.12180   0.63920   0.45220   1.000
    H430    H    0.06770   0.60970   0.43630   1.000
    H431    H    0.12880   0.60370   0.41180   1.000
    C409    C    0.87560   0.54480   0.44500   1.000
    C410    C    0.81920   0.55090   0.41870   1.000
    C411    C    0.78090   0.58650   0.42670   1.000
    H432    H    0.78880   0.60740   0.45030   1.000
    C412    C    0.73150   0.59190   0.40080   1.000
    C413    C    0.72240   0.56490   0.36720   1.000
    H433    H    0.69010   0.57060   0.34820   1.000
    C414    C    0.75600   0.52890   0.35760   1.000
    H434    H    0.74670   0.50970   0.33290   1.000
    C415    C    0.80810   0.51950   0.38600   1.000
    H435    H    0.83160   0.49370   0.38170   1.000
    C416    C    0.69590   0.63260   0.40950   1.000
    H436    H    0.71100   0.64860   0.43610   1.000
    H437    H    0.65590   0.62360   0.41510   1.000
    H438    H    0.69750   0.65260   0.38300   1.000
    C417    C    0.49560   0.35360   0.34040   1.000
    C418    C    0.49740   0.38200   0.38490   1.000
    C419    C    0.44880   0.40950   0.39350   1.000
    H439    H    0.41670   0.41050   0.37360   1.000
    C420    C    0.45110   0.43470   0.43270   1.000
    C421    C    0.49810   0.43520   0.46110   1.000
    H440    H    0.50000   0.45530   0.48610   1.000
    C422    C    0.54440   0.40390   0.45160   1.000
    C423    C    0.54120   0.38060   0.41100   1.000
    H441    H    0.57330   0.36280   0.40210   1.000
    C424    C    0.36990   0.45330   0.48550   1.000
    C425    C    0.37410   0.49710   0.42310   1.000
    C426    C    0.39470   0.51570   0.38170   1.000
    H442    H    0.38360   0.49610   0.35650   1.000
    H443    H    0.43690   0.51820   0.38290   1.000
    H444    H    0.37790   0.54570   0.37730   1.000
    C427    C    0.60580   0.42400   0.51840   1.000
    C428    C    0.66020   0.41350   0.54040   1.000
    C429    C    0.69760   0.38170   0.52880   1.000
    H445    H    0.69070   0.36490   0.50200   1.000
    C430    C    0.74770   0.37170   0.55500   1.000
    C431    C    0.75670   0.40020   0.59080   1.000
    H446    H    0.79010   0.39470   0.60870   1.000
    C432    C    0.72310   0.43520   0.60330   1.000
    H447    H    0.73330   0.45520   0.62720   1.000
    C433    C    0.67300   0.43970   0.57890   1.000
    H448    H    0.64560   0.46160   0.58850   1.000
    C434    C    0.78950   0.34160   0.54120   1.000
    H449    H    0.79740   0.34610   0.50890   1.000
    H450    H    0.77590   0.31070   0.54620   1.000
    H451    H    0.82490   0.34670   0.55860   1.000
    Ag17    Ag   0.25692   0.55475   0.43797   1.000
    Ag18    Ag   0.24986   0.48680   0.53339   1.000
    Ag19    Ag   0.02980   0.81490   0.24983   1.000
    Ag20    Ag   0.03549   0.71993   0.17836   1.000
    N65     N    0.10890   0.77010   0.25010   1.000
    N66     N    0.10850   0.73060   0.22420   1.000
    N67     N    0.18360   0.72950   0.26770   1.000
    N68     N    0.39310   0.74050   0.29570   1.000
    H452    H    0.42160   0.72690   0.30980   1.000
    N69     N    0.46120   0.26810   0.67400   1.000
    N70     N    0.45530   0.30250   0.70390   1.000
    N71     N    0.37690   0.30030   0.66350   1.000
    N72     N    0.18210   0.24540   0.62470   1.000
    H453    H    0.15170   0.25110   0.60780   1.000
    N73     N    0.17080   0.52850   0.51720   1.000
    N74     N    0.17500   0.55520   0.48020   1.000
    N75     N    0.09010   0.56270   0.51070   1.000
    N76     N    0.88070   0.57210   0.48030   1.000
    H454    H    0.84890   0.58550   0.48950   1.000
    N77     N    0.32680   0.48230   0.48620   1.000
    N78     N    0.33050   0.50920   0.44810   1.000
    N79     N    0.40310   0.45900   0.44700   1.000
    N80     N    0.59440   0.40260   0.47970   1.000
    H455    H    0.62210   0.38470   0.46990   1.000
    O49     O    0.31790   0.63160   0.41040   1.000
    O50     O    0.23610   0.60440   0.37970   1.000
    O51     O    0.37230   0.79190   0.24160   1.000
    O52     O    0.26990   0.43100   0.58820   1.000
    O53     O    0.21190   0.39600   0.54120   1.000
    O54     O    0.21980   0.19600   0.67240   1.000
    O55     O    0.99960   0.65490   0.63830   1.000
    O56     O    0.92580   0.68810   0.59850   1.000
    O57     O    0.91480   0.51910   0.43090   1.000
    O58     O    0.45900   0.36420   0.31080   1.000
    O59     O    0.52860   0.31840   0.33980   1.000
    O60     O    0.56870   0.45130   0.53550   1.000
    C435    C    0.37770   0.41720   0.51830   1.000
    C436    C    0.40870   0.43410   0.55960   1.000
    H456    H    0.41370   0.40930   0.58120   1.000
    H457    H    0.38610   0.45820   0.57380   1.000
    H458    H    0.44660   0.44580   0.55080   1.000
    H459    H    0.40010   0.39240   0.50440   1.000
    H460    H    0.33950   0.40510   0.52730   1.000
    C437    C    0.39760   0.25150   0.56720   1.000
    H461    H    0.40080   0.28440   0.56860   1.000
    H462    H    0.36060   0.24320   0.55350   1.000
    H463    H    0.42920   0.23930   0.54890   1.000
    H464    H    0.36410   0.21680   0.62120   1.000
    H465    H    0.43190   0.20940   0.61530   1.000
    H466    H    0.40920   0.37320   0.74170   1.000
    H467    H    0.34590   0.35250   0.73600   1.000
    H468    H    0.37110   0.38580   0.69830   1.000
    C438    C    0.13250   0.17000   0.64570   1.000
    C439    C    0.09100   0.17590   0.61380   1.000
    H469    H    0.09510   0.19910   0.59180   1.000
    C440    C    0.04270   0.14830   0.61300   1.000
    C441    C    0.03800   0.11560   0.64530   1.000
    H470    H    0.00470   0.09700   0.64580   1.000
    C442    C    0.08020   0.10910   0.67690   1.000
    H471    H    0.07670   0.08530   0.69820   1.000
    C443    C    0.12750   0.13680   0.67780   1.000
    H472    H    0.15630   0.13310   0.70040   1.000
    C444    C    0.99840   0.15280   0.57510   1.000
    H473    H    0.00900   0.17800   0.55540   1.000
    H474    H    0.96020   0.15830   0.58820   1.000
    H475    H    0.99760   0.12480   0.55730   1.000
    C445    C    0.37210   0.37000   0.50200   1.000
    H476    H    0.37840   0.34920   0.52740   1.000
    H477    H    0.40090   0.36430   0.47840   1.000
    H478    H    0.33340   0.36530   0.48960   1.000
    H479    H    0.34920   0.42170   0.54290   1.000
    H480    H    0.41650   0.42060   0.53190   1.000
    C446    C    0.77630   0.13250   0.87980   1.000
    C447    C    0.78090   0.16800   0.84590   1.000
    C448    C    0.73160   0.18170   0.82240   1.000
    H481    H    0.69520   0.16830   0.82850   1.000
    C449    C    0.73650   0.21480   0.79020   1.000
    C450    C    0.78710   0.23440   0.77880   1.000
    H482    H    0.78860   0.25640   0.75550   1.000
    C451    C    0.83670   0.22170   0.80190   1.000
    C452    C    0.83360   0.18920   0.83570   1.000
    H483    H    0.86730   0.18130   0.85210   1.000
    C453    C    0.70300   0.34240   0.78470   1.000
    H484    H    0.71450   0.36560   0.80660   1.000
    H485    H    0.67720   0.35560   0.76200   1.000
    H486    H    0.73740   0.33030   0.76970   1.000
    C454    C    0.67130   0.30370   0.80980   1.000
    H487    H    0.69680   0.29040   0.83310   1.000
    H488    H    0.63630   0.31550   0.82500   1.000
    C455    C    0.65490   0.26850   0.77520   1.000
    C456    C    0.65640   0.20690   0.73390   1.000
    C457    C    0.67100   0.16320   0.71650   1.000
    H489    H    0.65640   0.13990   0.73700   1.000
    H490    H    0.71300   0.16050   0.71400   1.000
    H491    H    0.65360   0.15920   0.68650   1.000
    C458    C    0.90700   0.27680   0.77090   1.000
    C459    C    0.96300   0.29950   0.77940   1.000
    C460    C    0.97640   0.33700   0.75450   1.000
    H492    H    0.95280   0.34510   0.72940   1.000
    C461    C    0.02590   0.36430   0.76590   1.000
    C462    C    0.06050   0.34800   0.79800   1.000
    H493    H    0.09510   0.36420   0.80390   1.000
    C463    C    0.05030   0.30870   0.82390   1.000
    H494    H    0.07540   0.29930   0.84750   1.000
    C464    C    0.00090   0.28510   0.81220   1.000
    H495    H    0.99290   0.25760   0.82750   1.000
    C465    C    0.03800   0.40480   0.73540   1.000
    H496    H    0.04070   0.43210   0.75390   1.000
    H497    H    0.00660   0.40810   0.71340   1.000
    H498    H    0.07450   0.40000   0.71930   1.000
    C466    C    0.74600   0.89870   0.07380   1.000
    C467    C    0.75620   0.85380   0.10000   1.000
    C468    C    0.81220   0.84800   0.12170   1.000
    H499    H    0.84080   0.87090   0.12110   1.000
    C469    C    0.82130   0.80620   0.14380   1.000
    C470    C    0.78130   0.77360   0.14590   1.000
    H500    H    0.78930   0.74670   0.16210   1.000
    C471    C    0.72620   0.77900   0.12360   1.000
    C472    C    0.71840   0.82010   0.10140   1.000
    H501    H    0.68290   0.82440   0.08590   1.000
    C473    C    0.90090   0.73230   0.11450   1.000
    C474    C    0.91340   0.88320   0.25870   1.000
    H502    H    0.94590   0.86380   0.26720   1.000
    H503    H    0.88750   0.88690   0.28470   1.000
    H504    H    0.92790   0.91280   0.24930   1.000
    C475    C    0.88080   0.86190   0.21990   1.000
    H505    H    0.84280   0.85250   0.23180   1.000
    H506    H    0.87350   0.88590   0.19730   1.000
    C476    C    0.90500   0.82330   0.19550   1.000
    C477    C    0.91200   0.76560   0.15050   1.000
    H507    H    0.86210   0.73700   0.10220   1.000
    H508    H    0.90370   0.70180   0.12710   1.000
    H509    H    0.92940   0.73600   0.09030   1.000
    C478    C    0.68010   0.70790   0.14690   1.000
    C479    C    0.62640   0.68410   0.13650   1.000
    C480    C    0.58730   0.69260   0.10170   1.000
    H510    H    0.59140   0.71880   0.08360   1.000
    C481    C    0.54180   0.66220   0.09340   1.000
    C482    C    0.52970   0.62870   0.12520   1.000
    H511    H    0.49490   0.61190   0.12330   1.000
    C483    C    0.56870   0.61990   0.15970   1.000
    H512    H    0.56310   0.59470   0.17900   1.000
    C484    C    0.61640   0.64800   0.16600   1.000
    H513    H    0.64220   0.64260   0.19040   1.000
    C485    C    0.49900   0.67250   0.05580   1.000
    H514    H    0.47830   0.70050   0.06290   1.000
    H515    H    0.47140   0.64760   0.05310   1.000
    H516    H    0.51980   0.67610   0.02710   1.000
    C486    C    0.46540   0.15710   0.10310   1.000
    C487    C    0.47260   0.12640   0.06600   1.000
    C488    C    0.52780   0.10940   0.05590   1.000
    H517    H    0.56050   0.11900   0.07270   1.000
    C489    C    0.53350   0.07800   0.02050   1.000
    C490    C    0.48680   0.06450   0.99460   1.000
    H518    H    0.49160   0.04380   0.97040   1.000
    C491    C    0.43200   0.08230   0.00530   1.000
    C492    C    0.42590   0.11190   0.03960   1.000
    H519    H    0.38860   0.12340   0.04620   1.000
    C493    C    0.63550   0.97700   0.10090   1.000
    H520    H    0.67260   0.99090   0.10850   1.000
    H521    H    0.64190   0.95110   0.08080   1.000
    H522    H    0.61640   0.96680   0.12870   1.000
    C494    C    0.59870   0.01030   0.07780   1.000
    H523    H    0.58890   0.03400   0.10020   1.000
    H524    H    0.56220   0.99490   0.06970   1.000
    C495    C    0.62110   0.03410   0.03500   1.000
    C496    C    0.62560   0.07390   0.97420   1.000
    C497    C    0.60960   0.10970   0.94070   1.000
    H525    H    0.62180   0.13920   0.95220   1.000
    H526    H    0.56770   0.10970   0.93630   1.000
    H527    H    0.62880   0.10370   0.91180   1.000
    C498    C    0.37560   0.04480   0.94500   1.000
    C499    C    0.31920   0.05090   0.91870   1.000
    C500    C    0.28090   0.08650   0.92670   1.000
    H528    H    0.28880   0.10740   0.95030   1.000
    C501    C    0.23150   0.09190   0.90080   1.000
    C502    C    0.22240   0.06490   0.86720   1.000
    H529    H    0.19010   0.07060   0.84820   1.000
    C503    C    0.25600   0.02890   0.85760   1.000
    H530    H    0.24670   0.00970   0.83290   1.000
    C504    C    0.30810   0.01950   0.88600   1.000
    H531    H    0.33160   0.99370   0.88170   1.000
    C505    C    0.19590   0.13260   0.90950   1.000
    H532    H    0.21100   0.14860   0.93610   1.000
    H533    H    0.15590   0.12360   0.91510   1.000
    H534    H    0.19750   0.15260   0.88300   1.000
    C506    C    0.99560   0.85360   0.84040   1.000
    C507    C    0.99740   0.88200   0.88490   1.000
    C508    C    0.94880   0.90950   0.89350   1.000
    H535    H    0.91670   0.91050   0.87360   1.000
    C509    C    0.95110   0.93470   0.93270   1.000
    C510    C    0.99810   0.93520   0.96110   1.000
    H536    H    0.00000   0.95530   0.98610   1.000
    C511    C    0.04440   0.90390   0.95160   1.000
    C512    C    0.04120   0.88060   0.91100   1.000
    H537    H    0.07330   0.86280   0.90210   1.000
    C513    C    0.86990   0.95330   0.98550   1.000
    C514    C    0.87410   0.99710   0.92310   1.000
    C515    C    0.89470   0.01570   0.88170   1.000
    H538    H    0.88360   0.99610   0.85650   1.000
    H539    H    0.93690   0.01820   0.88290   1.000
    H540    H    0.87790   0.04570   0.87730   1.000
    C516    C    0.10580   0.92400   0.01840   1.000
    C517    C    0.16020   0.91350   0.04040   1.000
    C518    C    0.19760   0.88170   0.02880   1.000
    H541    H    0.19070   0.86490   0.00200   1.000
    C519    C    0.24770   0.87170   0.05500   1.000
    C520    C    0.25670   0.90020   0.09080   1.000
    H542    H    0.29010   0.89470   0.10870   1.000
    C521    C    0.22310   0.93520   0.10330   1.000
    H543    H    0.23330   0.95520   0.12720   1.000
    C522    C    0.17300   0.93970   0.07890   1.000
    H544    H    0.14560   0.96160   0.08850   1.000
    C523    C    0.28950   0.84160   0.04120   1.000
    H545    H    0.29740   0.84610   0.00890   1.000
    H546    H    0.27590   0.81070   0.04620   1.000
    H547    H    0.32490   0.84670   0.05860   1.000
    Ag21    Ag   0.75692   0.05475   0.93797   1.000
    Ag22    Ag   0.74986   0.98680   0.03339   1.000
    Ag23    Ag   0.52980   0.31490   0.74983   1.000
    Ag24    Ag   0.53549   0.21993   0.67836   1.000
    N81     N    0.60890   0.27010   0.75010   1.000
    N82     N    0.60850   0.23060   0.72420   1.000
    N83     N    0.68360   0.22950   0.76770   1.000
    N84     N    0.89310   0.24050   0.79570   1.000
    H548    H    0.92160   0.22690   0.80980   1.000
    N85     N    0.96120   0.76810   0.17400   1.000
    N86     N    0.95530   0.80250   0.20390   1.000
    N87     N    0.87690   0.80030   0.16350   1.000
    N88     N    0.68210   0.74540   0.12470   1.000
    H549    H    0.65170   0.75110   0.10780   1.000
    N89     N    0.67080   0.02850   0.01720   1.000
    N90     N    0.67500   0.05520   0.98020   1.000
    N91     N    0.59010   0.06270   0.01070   1.000
    N92     N    0.38070   0.07210   0.98030   1.000
    H550    H    0.34890   0.08550   0.98950   1.000
    N93     N    0.82680   0.98230   0.98620   1.000
    N94     N    0.83050   0.00920   0.94810   1.000
    N95     N    0.90310   0.95900   0.94700   1.000
    N96     N    0.09440   0.90260   0.97970   1.000
    H551    H    0.12210   0.88470   0.96990   1.000
    O61     O    0.81790   0.13160   0.91040   1.000
    O62     O    0.73610   0.10440   0.87970   1.000
    O63     O    0.87230   0.29190   0.74160   1.000
    O64     O    0.76990   0.93100   0.08820   1.000
    O65     O    0.71190   0.89600   0.04120   1.000
    O66     O    0.71980   0.69600   0.17240   1.000
    O67     O    0.49960   0.15490   0.13830   1.000
    O68     O    0.42580   0.18810   0.09850   1.000
    O69     O    0.41480   0.01910   0.93090   1.000
    O70     O    0.95900   0.86420   0.81080   1.000
    O71     O    0.02860   0.81840   0.83980   1.000
    O72     O    0.06870   0.95130   0.03550   1.000
    C524    C    0.87770   0.91720   0.01830   1.000
    C525    C    0.90870   0.93410   0.05960   1.000
    H552    H    0.91370   0.90930   0.08120   1.000
    H553    H    0.88610   0.95820   0.07380   1.000
    H554    H    0.94660   0.94580   0.05080   1.000
    H555    H    0.90010   0.89240   0.00440   1.000
    H556    H    0.83950   0.90510   0.02730   1.000
    C526    C    0.89760   0.75150   0.06720   1.000
    H557    H    0.90080   0.78440   0.06860   1.000
    H558    H    0.86060   0.74320   0.05350   1.000
    H559    H    0.92920   0.73930   0.04890   1.000
    H560    H    0.86410   0.71680   0.12120   1.000
    H561    H    0.93190   0.70940   0.11530   1.000
    H562    H    0.90920   0.87320   0.24170   1.000
    H563    H    0.84590   0.85250   0.23600   1.000
    H564    H    0.87110   0.88580   0.19830   1.000
    C527    C    0.63250   0.67000   0.14570   1.000
    C528    C    0.59100   0.67590   0.11380   1.000
    H565    H    0.59510   0.69910   0.09180   1.000
    C529    C    0.54270   0.64830   0.11300   1.000
    C530    C    0.53800   0.61560   0.14530   1.000
    H566    H    0.50470   0.59700   0.14580   1.000
    C531    C    0.58020   0.60910   0.17690   1.000
    H567    H    0.57670   0.58530   0.19820   1.000
    C532    C    0.62750   0.63680   0.17780   1.000
    H568    H    0.65630   0.63310   0.20040   1.000
    C533    C    0.49840   0.65280   0.07510   1.000
    H569    H    0.50900   0.67800   0.05540   1.000
    H570    H    0.46020   0.65830   0.08820   1.000
    H571    H    0.49760   0.62480   0.05730   1.000
    C534    C    0.87210   0.87000   0.00200   1.000
    H572    H    0.87840   0.84920   0.02740   1.000
    H573    H    0.90090   0.86430   0.97840   1.000
    H574    H    0.83340   0.86530   0.98960   1.000
    H575    H    0.84920   0.92170   0.04290   1.000
    H576    H    0.91650   0.92060   0.03190   1.000
    C535    C    0.22370   0.13250   0.37980   1.000
    C536    C    0.21910   0.16800   0.34590   1.000
    C537    C    0.26840   0.18170   0.32240   1.000
    H577    H    0.30480   0.16830   0.32850   1.000
    C538    C    0.26350   0.21480   0.29020   1.000
    C539    C    0.21290   0.23440   0.27880   1.000
    H578    H    0.21140   0.25640   0.25550   1.000
    C540    C    0.16330   0.22170   0.30190   1.000
    C541    C    0.16640   0.18920   0.33570   1.000
    H579    H    0.13270   0.18130   0.35210   1.000
    C542    C    0.29700   0.34240   0.28470   1.000
    H580    H    0.28550   0.36560   0.30660   1.000
    H581    H    0.32280   0.35560   0.26200   1.000
    H582    H    0.26260   0.33030   0.26970   1.000
    C543    C    0.32870   0.30370   0.30980   1.000
    H583    H    0.30320   0.29040   0.33310   1.000
    H584    H    0.36370   0.31550   0.32500   1.000
    C544    C    0.34510   0.26850   0.27520   1.000
    C545    C    0.34360   0.20690   0.23390   1.000
    C546    C    0.32900   0.16320   0.21650   1.000
    H585    H    0.34360   0.13990   0.23700   1.000
    H586    H    0.28700   0.16050   0.21400   1.000
    H587    H    0.34640   0.15920   0.18650   1.000
    C547    C    0.09300   0.27680   0.27090   1.000
    C548    C    0.03700   0.29950   0.27940   1.000
    C549    C    0.02360   0.33700   0.25450   1.000
    H588    H    0.04720   0.34510   0.22940   1.000
    C550    C    0.97410   0.36430   0.26590   1.000
    C551    C    0.93950   0.34800   0.29800   1.000
    H589    H    0.90490   0.36420   0.30390   1.000
    C552    C    0.94970   0.30870   0.32390   1.000
    H590    H    0.92460   0.29930   0.34750   1.000
    C553    C    0.99910   0.28510   0.31220   1.000
    H591    H    0.00710   0.25760   0.32750   1.000
    C554    C    0.96200   0.40480   0.23540   1.000
    H592    H    0.95930   0.43210   0.25390   1.000
    H593    H    0.99340   0.40810   0.21340   1.000
    H594    H    0.92550   0.40000   0.21930   1.000
    C555    C    0.25400   0.89870   0.57380   1.000
    C556    C    0.24380   0.85380   0.60000   1.000
    C557    C    0.18780   0.84800   0.62170   1.000
    H595    H    0.15920   0.87090   0.62110   1.000
    C558    C    0.17870   0.80620   0.64380   1.000
    C559    C    0.21870   0.77360   0.64590   1.000
    H596    H    0.21070   0.74670   0.66210   1.000
    C560    C    0.27380   0.77900   0.62360   1.000
    C561    C    0.28160   0.82010   0.60140   1.000
    H597    H    0.31710   0.82440   0.58590   1.000
    C562    C    0.09910   0.73230   0.61450   1.000
    C563    C    0.08660   0.88320   0.75870   1.000
    H598    H    0.05410   0.86380   0.76720   1.000
    H599    H    0.11250   0.88690   0.78470   1.000
    H600    H    0.07210   0.91280   0.74930   1.000
    C564    C    0.11920   0.86190   0.71990   1.000
    H601    H    0.15720   0.85250   0.73180   1.000
    H602    H    0.12650   0.88590   0.69730   1.000
    C565    C    0.09500   0.82330   0.69550   1.000
    C566    C    0.08800   0.76560   0.65050   1.000
    H603    H    0.13790   0.73700   0.60220   1.000
    H604    H    0.09630   0.70180   0.62710   1.000
    H605    H    0.07060   0.73600   0.59030   1.000
    C567    C    0.31990   0.70790   0.64690   1.000
    C568    C    0.37360   0.68410   0.63650   1.000
    C569    C    0.41270   0.69260   0.60170   1.000
    H606    H    0.40860   0.71880   0.58360   1.000
    C570    C    0.45820   0.66220   0.59340   1.000
    C571    C    0.47030   0.62870   0.62520   1.000
    H607    H    0.50510   0.61190   0.62330   1.000
    C572    C    0.43130   0.61990   0.65970   1.000
    H608    H    0.43690   0.59470   0.67900   1.000
    C573    C    0.38360   0.64800   0.66600   1.000
    H609    H    0.35780   0.64260   0.69040   1.000
    C574    C    0.50100   0.67250   0.55580   1.000
    H610    H    0.52170   0.70050   0.56290   1.000
    H611    H    0.52860   0.64760   0.55310   1.000
    H612    H    0.48020   0.67610   0.52710   1.000
    C575    C    0.53460   0.15710   0.60310   1.000
    C576    C    0.52740   0.12640   0.56600   1.000
    C577    C    0.47220   0.10940   0.55590   1.000
    H613    H    0.43950   0.11900   0.57270   1.000
    C578    C    0.46650   0.07800   0.52050   1.000
    C579    C    0.51320   0.06450   0.49460   1.000
    H614    H    0.50840   0.04380   0.47040   1.000
    C580    C    0.56800   0.08230   0.50530   1.000
    C581    C    0.57410   0.11190   0.53960   1.000
    H615    H    0.61140   0.12340   0.54620   1.000
    C582    C    0.36450   0.97700   0.60090   1.000
    H616    H    0.32740   0.99090   0.60850   1.000
    H617    H    0.35810   0.95110   0.58080   1.000
    H618    H    0.38360   0.96680   0.62870   1.000
    C583    C    0.40130   0.01030   0.57780   1.000
    H619    H    0.41110   0.03400   0.60020   1.000
    H620    H    0.43780   0.99490   0.56970   1.000
    C584    C    0.37890   0.03410   0.53500   1.000
    C585    C    0.37440   0.07390   0.47420   1.000
    C586    C    0.39040   0.10970   0.44070   1.000
    H621    H    0.37820   0.13920   0.45220   1.000
    H622    H    0.43230   0.10970   0.43630   1.000
    H623    H    0.37120   0.10370   0.41180   1.000
    C587    C    0.62440   0.04480   0.44500   1.000
    C588    C    0.68080   0.05090   0.41870   1.000
    C589    C    0.71910   0.08650   0.42670   1.000
    H624    H    0.71120   0.10740   0.45030   1.000
    C590    C    0.76850   0.09190   0.40080   1.000
    C591    C    0.77760   0.06490   0.36720   1.000
    H625    H    0.80990   0.07060   0.34820   1.000
    C592    C    0.74400   0.02890   0.35760   1.000
    H626    H    0.75330   0.00970   0.33290   1.000
    C593    C    0.69190   0.01950   0.38600   1.000
    H627    H    0.66840   0.99370   0.38170   1.000
    C594    C    0.80410   0.13260   0.40950   1.000
    H628    H    0.78900   0.14860   0.43610   1.000
    H629    H    0.84410   0.12360   0.41510   1.000
    H630    H    0.80250   0.15260   0.38300   1.000
    C595    C    0.00440   0.85360   0.34040   1.000
    C596    C    0.00260   0.88200   0.38490   1.000
    C597    C    0.05120   0.90950   0.39350   1.000
    H631    H    0.08330   0.91050   0.37360   1.000
    C598    C    0.04890   0.93470   0.43270   1.000
    C599    C    0.00190   0.93520   0.46110   1.000
    H632    H    0.00000   0.95530   0.48610   1.000
    C600    C    0.95560   0.90390   0.45160   1.000
    C601    C    0.95880   0.88060   0.41100   1.000
    H633    H    0.92670   0.86280   0.40210   1.000
    C602    C    0.13010   0.95330   0.48550   1.000
    C603    C    0.12590   0.99710   0.42310   1.000
    C604    C    0.10530   0.01570   0.38170   1.000
    H634    H    0.11640   0.99610   0.35650   1.000
    H635    H    0.06310   0.01820   0.38290   1.000
    H636    H    0.12210   0.04570   0.37730   1.000
    C605    C    0.89420   0.92400   0.51840   1.000
    C606    C    0.83980   0.91350   0.54040   1.000
    C607    C    0.80240   0.88170   0.52880   1.000
    H637    H    0.80930   0.86490   0.50200   1.000
    C608    C    0.75230   0.87170   0.55500   1.000
    C609    C    0.74330   0.90020   0.59080   1.000
    H638    H    0.70990   0.89470   0.60870   1.000
    C610    C    0.77690   0.93520   0.60330   1.000
    H639    H    0.76670   0.95520   0.62720   1.000
    C611    C    0.82700   0.93970   0.57890   1.000
    H640    H    0.85440   0.96160   0.58850   1.000
    C612    C    0.71050   0.84160   0.54120   1.000
    H641    H    0.70260   0.84610   0.50890   1.000
    H642    H    0.72410   0.81070   0.54620   1.000
    H643    H    0.67510   0.84670   0.55860   1.000
    Ag25    Ag   0.24308   0.05475   0.43797   1.000
    Ag26    Ag   0.25014   0.98680   0.53339   1.000
    Ag27    Ag   0.47020   0.31490   0.24983   1.000
    Ag28    Ag   0.46451   0.21993   0.17836   1.000
    N97     N    0.39110   0.27010   0.25010   1.000
    N98     N    0.39150   0.23060   0.22420   1.000
    N99     N    0.31640   0.22950   0.26770   1.000
    N100    N    0.10690   0.24050   0.29570   1.000
    H644    H    0.07840   0.22690   0.30980   1.000
    N101    N    0.03880   0.76810   0.67400   1.000
    N102    N    0.04470   0.80250   0.70390   1.000
    N103    N    0.12310   0.80030   0.66350   1.000
    N104    N    0.31790   0.74540   0.62470   1.000
    H645    H    0.34830   0.75110   0.60780   1.000
    N105    N    0.32920   0.02850   0.51720   1.000
    N106    N    0.32500   0.05520   0.48020   1.000
    N107    N    0.40990   0.06270   0.51070   1.000
    N108    N    0.61930   0.07210   0.48030   1.000
    H646    H    0.65110   0.08550   0.48950   1.000
    N109    N    0.17320   0.98230   0.48620   1.000
    N110    N    0.16950   0.00920   0.44810   1.000
    N111    N    0.09690   0.95900   0.44700   1.000
    N112    N    0.90560   0.90260   0.47970   1.000
    H647    H    0.87790   0.88470   0.46990   1.000
    O73     O    0.18210   0.13160   0.41040   1.000
    O74     O    0.26390   0.10440   0.37970   1.000
    O75     O    0.12770   0.29190   0.24160   1.000
    O76     O    0.23010   0.93100   0.58820   1.000
    O77     O    0.28810   0.89600   0.54120   1.000
    O78     O    0.28020   0.69600   0.67240   1.000
    O79     O    0.50040   0.15490   0.63830   1.000
    O80     O    0.57420   0.18810   0.59850   1.000
    O81     O    0.58520   0.01910   0.43090   1.000
    O82     O    0.04100   0.86420   0.31080   1.000
    O83     O    0.97140   0.81840   0.33980   1.000
    O84     O    0.93130   0.95130   0.53550   1.000
    C613    C    0.12230   0.91720   0.51830   1.000
    C614    C    0.09130   0.93410   0.55960   1.000
    H648    H    0.08630   0.90930   0.58120   1.000
    H649    H    0.11390   0.95820   0.57380   1.000
    H650    H    0.05340   0.94580   0.55080   1.000
    H651    H    0.09990   0.89240   0.50440   1.000
    H652    H    0.16050   0.90510   0.52730   1.000
    C615    C    0.10240   0.75150   0.56720   1.000
    H653    H    0.09920   0.78440   0.56860   1.000
    H654    H    0.13940   0.74320   0.55350   1.000
    H655    H    0.07080   0.73930   0.54890   1.000
    H656    H    0.13590   0.71680   0.62120   1.000
    H657    H    0.06810   0.70940   0.61530   1.000
    H658    H    0.09080   0.87320   0.74170   1.000
    H659    H    0.15410   0.85250   0.73600   1.000
    H660    H    0.12890   0.88580   0.69830   1.000
    C616    C    0.36750   0.67000   0.64570   1.000
    C617    C    0.40900   0.67590   0.61380   1.000
    H661    H    0.40490   0.69910   0.59180   1.000
    C618    C    0.45730   0.64830   0.61300   1.000
    C619    C    0.46200   0.61560   0.64530   1.000
    H662    H    0.49530   0.59700   0.64580   1.000
    C620    C    0.41980   0.60910   0.67690   1.000
    H663    H    0.42330   0.58530   0.69820   1.000
    C621    C    0.37250   0.63680   0.67780   1.000
    H664    H    0.34370   0.63310   0.70040   1.000
    C622    C    0.50160   0.65280   0.57510   1.000
    H665    H    0.49100   0.67800   0.55540   1.000
    H666    H    0.53980   0.65830   0.58820   1.000
    H667    H    0.50240   0.62480   0.55730   1.000
    C623    C    0.12790   0.87000   0.50200   1.000
    H668    H    0.12160   0.84920   0.52740   1.000
    H669    H    0.09910   0.86430   0.47840   1.000
    H670    H    0.16660   0.86530   0.48960   1.000
    H671    H    0.15080   0.92170   0.54290   1.000
    H672    H    0.08350   0.92060   0.53190   1.000
    C624    C    0.72370   0.63250   0.87980   1.000
    C625    C    0.71910   0.66800   0.84590   1.000
    C626    C    0.76840   0.68170   0.82240   1.000
    H673    H    0.80480   0.66830   0.82850   1.000
    C627    C    0.76350   0.71480   0.79020   1.000
    C628    C    0.71290   0.73440   0.77880   1.000
    H674    H    0.71140   0.75640   0.75550   1.000
    C629    C    0.66330   0.72170   0.80190   1.000
    C630    C    0.66640   0.68920   0.83570   1.000
    H675    H    0.63270   0.68130   0.85210   1.000
    C631    C    0.79700   0.84240   0.78470   1.000
    H676    H    0.78550   0.86560   0.80660   1.000
    H677    H    0.82280   0.85560   0.76200   1.000
    H678    H    0.76260   0.83030   0.76970   1.000
    C632    C    0.82870   0.80370   0.80980   1.000
    H679    H    0.80320   0.79040   0.83310   1.000
    H680    H    0.86370   0.81550   0.82500   1.000
    C633    C    0.84510   0.76850   0.77520   1.000
    C634    C    0.84360   0.70690   0.73390   1.000
    C635    C    0.82900   0.66320   0.71650   1.000
    H681    H    0.84360   0.63990   0.73700   1.000
    H682    H    0.78700   0.66050   0.71400   1.000
    H683    H    0.84640   0.65920   0.68650   1.000
    C636    C    0.59300   0.77680   0.77090   1.000
    C637    C    0.53700   0.79950   0.77940   1.000
    C638    C    0.52360   0.83700   0.75450   1.000
    H684    H    0.54720   0.84510   0.72940   1.000
    C639    C    0.47410   0.86430   0.76590   1.000
    C640    C    0.43950   0.84800   0.79800   1.000
    H685    H    0.40490   0.86420   0.80390   1.000
    C641    C    0.44970   0.80870   0.82390   1.000
    H686    H    0.42460   0.79930   0.84750   1.000
    C642    C    0.49910   0.78510   0.81220   1.000
    H687    H    0.50710   0.75760   0.82750   1.000
    C643    C    0.46200   0.90480   0.73540   1.000
    H688    H    0.45930   0.93210   0.75390   1.000
    H689    H    0.49340   0.90810   0.71340   1.000
    H690    H    0.42550   0.90000   0.71930   1.000
    C644    C    0.75400   0.39870   0.07380   1.000
    C645    C    0.74380   0.35380   0.10000   1.000
    C646    C    0.68780   0.34800   0.12170   1.000
    H691    H    0.65920   0.37090   0.12110   1.000
    C647    C    0.67870   0.30620   0.14380   1.000
    C648    C    0.71870   0.27360   0.14590   1.000
    H692    H    0.71070   0.24670   0.16210   1.000
    C649    C    0.77380   0.27900   0.12360   1.000
    C650    C    0.78160   0.32010   0.10140   1.000
    H693    H    0.81710   0.32440   0.08590   1.000
    C651    C    0.59910   0.23230   0.11450   1.000
    C652    C    0.58660   0.38320   0.25870   1.000
    H694    H    0.55410   0.36380   0.26720   1.000
    H695    H    0.61250   0.38690   0.28470   1.000
    H696    H    0.57210   0.41280   0.24930   1.000
    C653    C    0.61920   0.36190   0.21990   1.000
    H697    H    0.65720   0.35250   0.23180   1.000
    H698    H    0.62650   0.38590   0.19730   1.000
    C654    C    0.59500   0.32330   0.19550   1.000
    C655    C    0.58800   0.26560   0.15050   1.000
    H699    H    0.63790   0.23700   0.10220   1.000
    H700    H    0.59630   0.20180   0.12710   1.000
    H701    H    0.57060   0.23600   0.09030   1.000
    C656    C    0.81990   0.20790   0.14690   1.000
    C657    C    0.87360   0.18410   0.13650   1.000
    C658    C    0.91270   0.19260   0.10170   1.000
    H702    H    0.90860   0.21880   0.08360   1.000
    C659    C    0.95820   0.16220   0.09340   1.000
    C660    C    0.97030   0.12870   0.12520   1.000
    H703    H    0.00510   0.11190   0.12330   1.000
    C661    C    0.93130   0.11990   0.15970   1.000
    H704    H    0.93690   0.09470   0.17900   1.000
    C662    C    0.88360   0.14800   0.16600   1.000
    H705    H    0.85780   0.14260   0.19040   1.000
    C663    C    0.00100   0.17250   0.05580   1.000
    H706    H    0.02170   0.20050   0.06290   1.000
    H707    H    0.02860   0.14760   0.05310   1.000
    H708    H    0.98020   0.17610   0.02710   1.000
    C664    C    0.03460   0.65710   0.10310   1.000
    C665    C    0.02740   0.62640   0.06600   1.000
    C666    C    0.97220   0.60940   0.05590   1.000
    H709    H    0.93950   0.61900   0.07270   1.000
    C667    C    0.96650   0.57800   0.02050   1.000
    C668    C    0.01320   0.56450   0.99460   1.000
    H710    H    0.00840   0.54380   0.97040   1.000
    C669    C    0.06800   0.58230   0.00530   1.000
    C670    C    0.07410   0.61190   0.03960   1.000
    H711    H    0.11140   0.62340   0.04620   1.000
    C671    C    0.86450   0.47700   0.10090   1.000
    H712    H    0.82740   0.49090   0.10850   1.000
    H713    H    0.85810   0.45110   0.08080   1.000
    H714    H    0.88360   0.46680   0.12870   1.000
    C672    C    0.90130   0.51030   0.07780   1.000
    H715    H    0.91110   0.53400   0.10020   1.000
    H716    H    0.93780   0.49490   0.06970   1.000
    C673    C    0.87890   0.53410   0.03500   1.000
    C674    C    0.87440   0.57390   0.97420   1.000
    C675    C    0.89040   0.60970   0.94070   1.000
    H717    H    0.87820   0.63920   0.95220   1.000
    H718    H    0.93230   0.60970   0.93630   1.000
    H719    H    0.87120   0.60370   0.91180   1.000
    C676    C    0.12440   0.54480   0.94500   1.000
    C677    C    0.18080   0.55090   0.91870   1.000
    C678    C    0.21910   0.58650   0.92670   1.000
    H720    H    0.21120   0.60740   0.95030   1.000
    C679    C    0.26850   0.59190   0.90080   1.000
    C680    C    0.27760   0.56490   0.86720   1.000
    H721    H    0.30990   0.57060   0.84820   1.000
    C681    C    0.24400   0.52890   0.85760   1.000
    H722    H    0.25330   0.50970   0.83290   1.000
    C682    C    0.19190   0.51950   0.88600   1.000
    H723    H    0.16840   0.49370   0.88170   1.000
    C683    C    0.30410   0.63260   0.90950   1.000
    H724    H    0.28900   0.64860   0.93610   1.000
    H725    H    0.34410   0.62360   0.91510   1.000
    H726    H    0.30250   0.65260   0.88300   1.000
    C684    C    0.50440   0.35360   0.84040   1.000
    C685    C    0.50260   0.38200   0.88490   1.000
    C686    C    0.55120   0.40950   0.89350   1.000
    H727    H    0.58330   0.41050   0.87360   1.000
    C687    C    0.54890   0.43470   0.93270   1.000
    C688    C    0.50190   0.43520   0.96110   1.000
    H728    H    0.50000   0.45530   0.98610   1.000
    C689    C    0.45560   0.40390   0.95160   1.000
    C690    C    0.45880   0.38060   0.91100   1.000
    H729    H    0.42670   0.36280   0.90210   1.000
    C691    C    0.63010   0.45330   0.98550   1.000
    C692    C    0.62590   0.49710   0.92310   1.000
    C693    C    0.60530   0.51570   0.88170   1.000
    H730    H    0.61640   0.49610   0.85650   1.000
    H731    H    0.56310   0.51820   0.88290   1.000
    H732    H    0.62210   0.54570   0.87730   1.000
    C694    C    0.39420   0.42400   0.01840   1.000
    C695    C    0.33980   0.41350   0.04040   1.000
    C696    C    0.30240   0.38170   0.02880   1.000
    H733    H    0.30930   0.36490   0.00200   1.000
    C697    C    0.25230   0.37170   0.05500   1.000
    C698    C    0.24330   0.40020   0.09080   1.000
    H734    H    0.20990   0.39470   0.10870   1.000
    C699    C    0.27690   0.43520   0.10330   1.000
    H735    H    0.26670   0.45520   0.12720   1.000
    C700    C    0.32700   0.43970   0.07890   1.000
    H736    H    0.35440   0.46160   0.08850   1.000
    C701    C    0.21050   0.34160   0.04120   1.000
    H737    H    0.20260   0.34610   0.00890   1.000
    H738    H    0.22410   0.31070   0.04620   1.000
    H739    H    0.17510   0.34670   0.05860   1.000
    Ag29    Ag   0.74308   0.55475   0.93797   1.000
    Ag30    Ag   0.75014   0.48680   0.03339   1.000
    Ag31    Ag   0.97020   0.81490   0.74983   1.000
    Ag32    Ag   0.96451   0.71993   0.67836   1.000
    N113    N    0.89110   0.77010   0.75010   1.000
    N114    N    0.89150   0.73060   0.72420   1.000
    N115    N    0.81640   0.72950   0.76770   1.000
    N116    N    0.60690   0.74050   0.79570   1.000
    H740    H    0.57840   0.72690   0.80980   1.000
    N117    N    0.53880   0.26810   0.17400   1.000
    N118    N    0.54470   0.30250   0.20390   1.000
    N119    N    0.62310   0.30030   0.16350   1.000
    N120    N    0.81790   0.24540   0.12470   1.000
    H741    H    0.84830   0.25110   0.10780   1.000
    N121    N    0.82920   0.52850   0.01720   1.000
    N122    N    0.82500   0.55520   0.98020   1.000
    N123    N    0.90990   0.56270   0.01070   1.000
    N124    N    0.11930   0.57210   0.98030   1.000
    H742    H    0.15110   0.58550   0.98950   1.000
    N125    N    0.67320   0.48230   0.98620   1.000
    N126    N    0.66950   0.50920   0.94810   1.000
    N127    N    0.59690   0.45900   0.94700   1.000
    N128    N    0.40560   0.40260   0.97970   1.000
    H743    H    0.37790   0.38470   0.96990   1.000
    O85     O    0.68210   0.63160   0.91040   1.000
    O86     O    0.76390   0.60440   0.87970   1.000
    O87     O    0.62770   0.79190   0.74160   1.000
    O88     O    0.73010   0.43100   0.08820   1.000
    O89     O    0.78810   0.39600   0.04120   1.000
    O90     O    0.78020   0.19600   0.17240   1.000
    O91     O    0.00040   0.65490   0.13830   1.000
    O92     O    0.07420   0.68810   0.09850   1.000
    O93     O    0.08520   0.51910   0.93090   1.000
    O94     O    0.54100   0.36420   0.81080   1.000
    O95     O    0.47140   0.31840   0.83980   1.000
    O96     O    0.43130   0.45130   0.03550   1.000
    C702    C    0.62230   0.41720   0.01830   1.000
    C703    C    0.59130   0.43410   0.05960   1.000
    H744    H    0.58630   0.40930   0.08120   1.000
    H745    H    0.61390   0.45820   0.07380   1.000
    H746    H    0.55340   0.44580   0.05080   1.000
    H747    H    0.59990   0.39240   0.00440   1.000
    H748    H    0.66050   0.40510   0.02730   1.000
    C704    C    0.60240   0.25150   0.06720   1.000
    H749    H    0.59920   0.28440   0.06860   1.000
    H750    H    0.63940   0.24320   0.05350   1.000
    H751    H    0.57080   0.23930   0.04890   1.000
    H752    H    0.63590   0.21680   0.12120   1.000
    H753    H    0.56810   0.20940   0.11530   1.000
    H754    H    0.59080   0.37320   0.24170   1.000
    H755    H    0.65410   0.35250   0.23600   1.000
    H756    H    0.62890   0.38580   0.19830   1.000
    C705    C    0.86750   0.17000   0.14570   1.000
    C706    C    0.90900   0.17590   0.11380   1.000
    H757    H    0.90490   0.19910   0.09180   1.000
    C707    C    0.95730   0.14830   0.11300   1.000
    C708    C    0.96200   0.11560   0.14530   1.000
    H758    H    0.99530   0.09700   0.14580   1.000
    C709    C    0.91980   0.10910   0.17690   1.000
    H759    H    0.92330   0.08530   0.19820   1.000
    C710    C    0.87250   0.13680   0.17780   1.000
    H760    H    0.84370   0.13310   0.20040   1.000
    C711    C    0.00160   0.15280   0.07510   1.000
    H761    H    0.99100   0.17800   0.05540   1.000
    H762    H    0.03980   0.15830   0.08820   1.000
    H763    H    0.00240   0.12480   0.05730   1.000
    C712    C    0.62790   0.37000   0.00200   1.000
    H764    H    0.62160   0.34920   0.02740   1.000
    H765    H    0.59910   0.36430   0.97840   1.000
    H766    H    0.66660   0.36530   0.98960   1.000
    H767    H    0.65080   0.42170   0.04290   1.000
    H768    H    0.58350   0.42060   0.03190   1.000
