# CIF file generated by openbabel 2.4.1, see http://openbabel.sf.net
data_I
_chemical_name_common 'image0'
_cell_length_a 40.6544
_cell_length_b 14.3377
_cell_length_c 20.2429
_cell_angle_alpha 90
_cell_angle_beta 108.733
_cell_angle_gamma 90
_space_group_name_H-M_alt 'P 1'
_space_group_name_Hall 'P 1'
loop_
    _symmetry_equiv_pos_as_xyz
    x,y,z
loop_
    _atom_site_label
    _atom_site_type_symbol
    _atom_site_fract_x
    _atom_site_fract_y
    _atom_site_fract_z
    _atom_site_occupancy
    Zn1     Zn   0.08224   0.96529   0.11891   1.000
    Zn2     Zn   0.27790   0.15390   0.17062   1.000
    O1      O    0.11464   0.98489   0.21509   1.000
    O2      O    0.06724   0.95920   0.24299   1.000
    O3      O    0.11645   0.03118   0.56720   1.000
    O4      O    0.06675   0.03010   0.48168   1.000
    O5      O    0.28574   0.28480   0.15750   1.000
    O6      O    0.27560   0.36260   0.24375   1.000
    O7      O    0.22166   0.38600   0.91993   1.000
    O8      O    0.22592   0.53630   0.89650   1.000
    N1      N    0.06764   0.83160   0.11160   1.000
    N2      N    0.06876   0.68920   0.14880   1.000
    N3      N    0.94741   0.07960   0.39783   1.000
    N4      N    0.98326   0.18830   0.38910   1.000
    N5      N    0.22950   0.14740   0.17629   1.000
    N6      N    0.18451   0.17820   0.20916   1.000
    N7      N    0.19212   0.41040   0.74392   1.000
    N8      N    0.16391   0.44100   0.63374   1.000
    C1      C    0.09849   0.98170   0.25887   1.000
    C2      C    0.11813   0.00890   0.33303   1.000
    C3      C    0.10125   0.00780   0.38258   1.000
    H1      H    0.07800   0.99030   0.36960   1.000
    C4      C    0.11846   0.03230   0.45110   1.000
    C5      C    0.09864   0.03120   0.50239   1.000
    C6      C    0.15263   0.05940   0.47040   1.000
    H2      H    0.16430   0.07650   0.51630   1.000
    C7      C    0.16991   0.06130   0.42050   1.000
    H3      H    0.19300   0.07990   0.43330   1.000
    C8      C    0.15258   0.03560   0.35250   1.000
    H4      H    0.16410   0.03620   0.31970   1.000
    C9      C    0.07383   0.77560   0.16650   1.000
    H5      H    0.08100   0.79650   0.21240   1.000
    C10     C    0.06066   0.68340   0.07850   1.000
    H6      H    0.05690   0.62950   0.05160   1.000
    C11     C    0.05922   0.77260   0.05570   1.000
    H7      H    0.05340   0.79080   0.00930   1.000
    C12     C    0.07516   0.61030   0.19736   1.000
    C13     C    0.10748   0.60340   0.24880   1.000
    H8      H    0.12450   0.64840   0.25230   1.000
    C14     C    0.11385   0.52980   0.29380   1.000
    H9      H    0.13570   0.52350   0.32680   1.000
    C15     C    0.05689   0.47270   0.23980   1.000
    H10     H    0.03970   0.42840   0.23640   1.000
    C16     C    0.05017   0.54560   0.19310   1.000
    H11     H    0.02860   0.55050   0.15870   1.000
    C17     C    0.08843   0.46400   0.29150   1.000
    C18     C    0.09827   0.37680   0.33925   1.000
    C19     C    0.96975   0.10600   0.36644   1.000
    H12     H    0.97530   0.07110   0.33270   1.000
    C20     C    0.96781   0.22010   0.43660   1.000
    H13     H    0.97170   0.27680   0.46020   1.000
    C21     C    0.94632   0.15310   0.44160   1.000
    H14     H    0.93250   0.15510   0.47020   1.000
    C22     C    0.01036   0.23500   0.36999   1.000
    C23     C    0.03376   0.18390   0.34890   1.000
    H15     H    0.03150   0.11940   0.34440   1.000
    C24     C    0.06099   0.22940   0.33440   1.000
    H16     H    0.07660   0.19470   0.31940   1.000
    C25     C    0.06529   0.32560   0.34177   1.000
    C26     C    0.04081   0.37590   0.36290   1.000
    H17     H    0.04290   0.44040   0.36750   1.000
    C27     C    0.01365   0.33140   0.37700   1.000
    H18     H    0.99770   0.36560   0.39120   1.000
    C28     C    0.21616   0.20570   0.21091   1.000
    H19     H    0.22730   0.25900   0.23360   1.000
    C29     C    0.17682   0.09780   0.17070   1.000
    H20     H    0.15640   0.06320   0.16010   1.000
    C30     C    0.20474   0.07960   0.15170   1.000
    H21     H    0.20710   0.02820   0.12550   1.000
    C31     C    0.16252   0.22680   0.24234   1.000
    C32     C    0.12733   0.23160   0.20966   1.000
    H22     H    0.11740   0.20470   0.16600   1.000
    C33     C    0.10691   0.27670   0.24210   1.000
    H23     H    0.08300   0.27920   0.22000   1.000
    C34     C    0.12091   0.31880   0.30726   1.000
    C35     C    0.15686   0.31470   0.33820   1.000
    H24     H    0.16710   0.34380   0.38090   1.000
    C36     C    0.17762   0.26780   0.30624   1.000
    H25     H    0.20150   0.26420   0.32800   1.000
    C37     C    0.17762   0.37420   0.68141   1.000
    H26     H    0.17700   0.31070   0.67150   1.000
    C38     C    0.17017   0.52460   0.66790   1.000
    H27     H    0.16350   0.58310   0.64840   1.000
    C39     C    0.18794   0.50620   0.73560   1.000
    H28     H    0.19600   0.55040   0.77080   1.000
    C40     C    0.14763   0.42580   0.56037   1.000
    C41     C    0.13334   0.50020   0.51730   1.000
    H29     H    0.13400   0.55990   0.53570   1.000
    C42     C    0.11800   0.48470   0.44605   1.000
    H30     H    0.10830   0.53500   0.41740   1.000
    C43     C    0.11668   0.39880   0.41692   1.000
    C44     C    0.13024   0.32530   0.46183   1.000
    H31     H    0.12870   0.26520   0.44380   1.000
    C45     C    0.14611   0.33850   0.53291   1.000
    H32     H    0.15570   0.28810   0.56160   1.000
    C46     C    0.27446   0.35550   0.18210   1.000
    C47     C    0.25968   0.43290   0.13280   1.000
    C48     C    0.24896   0.41920   0.06069   1.000
    H33     H    0.25080   0.35980   0.04370   1.000
    C49     C    0.23588   0.48990   0.01398   1.000
    C50     C    0.22662   0.47070   0.93690   1.000
    C51     C    0.23306   0.57840   0.03840   1.000
    H34     H    0.22480   0.62720   0.00720   1.000
    C52     C    0.24273   0.59480   0.11140   1.000
    H35     H    0.24040   0.65390   0.12830   1.000
    C53     C    0.25557   0.52180   0.15700   1.000
    H36     H    0.26160   0.53220   0.20470   1.000
    Co1     Co   0.08230   0.96800   0.11790   1.000
    Co2     Co   0.27820   0.15190   0.17230   1.000
    Zn3     Zn   0.58224   0.46529   0.11891   1.000
    Zn4     Zn   0.77790   0.65390   0.17062   1.000
    O9      O    0.61464   0.48489   0.21509   1.000
    O10     O    0.56724   0.45920   0.24299   1.000
    O11     O    0.61645   0.53118   0.56720   1.000
    O12     O    0.56675   0.53010   0.48168   1.000
    O13     O    0.78574   0.78480   0.15750   1.000
    O14     O    0.77560   0.86260   0.24375   1.000
    O15     O    0.72166   0.88600   0.91993   1.000
    O16     O    0.72592   0.03630   0.89650   1.000
    N9      N    0.56764   0.33160   0.11160   1.000
    N10     N    0.56876   0.18920   0.14880   1.000
    N11     N    0.44741   0.57960   0.39783   1.000
    N12     N    0.48326   0.68830   0.38910   1.000
    N13     N    0.72950   0.64740   0.17629   1.000
    N14     N    0.68451   0.67820   0.20916   1.000
    N15     N    0.69212   0.91040   0.74392   1.000
    N16     N    0.66391   0.94100   0.63374   1.000
    C54     C    0.59849   0.48170   0.25887   1.000
    C55     C    0.61813   0.50890   0.33303   1.000
    C56     C    0.60125   0.50780   0.38258   1.000
    H37     H    0.57800   0.49030   0.36960   1.000
    C57     C    0.61846   0.53230   0.45110   1.000
    C58     C    0.59864   0.53120   0.50239   1.000
    C59     C    0.65263   0.55940   0.47040   1.000
    H38     H    0.66430   0.57650   0.51630   1.000
    C60     C    0.66991   0.56130   0.42050   1.000
    H39     H    0.69300   0.57990   0.43330   1.000
    C61     C    0.65258   0.53560   0.35250   1.000
    H40     H    0.66410   0.53620   0.31970   1.000
    C62     C    0.57383   0.27560   0.16650   1.000
    H41     H    0.58100   0.29650   0.21240   1.000
    C63     C    0.56066   0.18340   0.07850   1.000
    H42     H    0.55690   0.12950   0.05160   1.000
    C64     C    0.55922   0.27260   0.05570   1.000
    H43     H    0.55340   0.29080   0.00930   1.000
    C65     C    0.57516   0.11030   0.19736   1.000
    C66     C    0.60748   0.10340   0.24880   1.000
    H44     H    0.62450   0.14840   0.25230   1.000
    C67     C    0.61385   0.02980   0.29380   1.000
    H45     H    0.63570   0.02350   0.32680   1.000
    C68     C    0.55689   0.97270   0.23980   1.000
    H46     H    0.53970   0.92840   0.23640   1.000
    C69     C    0.55017   0.04560   0.19310   1.000
    H47     H    0.52860   0.05050   0.15870   1.000
    C70     C    0.58843   0.96400   0.29150   1.000
    C71     C    0.59827   0.87680   0.33925   1.000
    C72     C    0.46975   0.60600   0.36644   1.000
    H48     H    0.47530   0.57110   0.33270   1.000
    C73     C    0.46781   0.72010   0.43660   1.000
    H49     H    0.47170   0.77680   0.46020   1.000
    C74     C    0.44632   0.65310   0.44160   1.000
    H50     H    0.43250   0.65510   0.47020   1.000
    C75     C    0.51036   0.73500   0.36999   1.000
    C76     C    0.53376   0.68390   0.34890   1.000
    H51     H    0.53150   0.61940   0.34440   1.000
    C77     C    0.56099   0.72940   0.33440   1.000
    H52     H    0.57660   0.69470   0.31940   1.000
    C78     C    0.56529   0.82560   0.34177   1.000
    C79     C    0.54081   0.87590   0.36290   1.000
    H53     H    0.54290   0.94040   0.36750   1.000
    C80     C    0.51365   0.83140   0.37700   1.000
    H54     H    0.49770   0.86560   0.39120   1.000
    C81     C    0.71616   0.70570   0.21091   1.000
    H55     H    0.72730   0.75900   0.23360   1.000
    C82     C    0.67682   0.59780   0.17070   1.000
    H56     H    0.65640   0.56320   0.16010   1.000
    C83     C    0.70474   0.57960   0.15170   1.000
    H57     H    0.70710   0.52820   0.12550   1.000
    C84     C    0.66252   0.72680   0.24234   1.000
    C85     C    0.62733   0.73160   0.20966   1.000
    H58     H    0.61740   0.70470   0.16600   1.000
    C86     C    0.60691   0.77670   0.24210   1.000
    H59     H    0.58300   0.77920   0.22000   1.000
    C87     C    0.62091   0.81880   0.30726   1.000
    C88     C    0.65686   0.81470   0.33820   1.000
    H60     H    0.66710   0.84380   0.38090   1.000
    C89     C    0.67762   0.76780   0.30624   1.000
    H61     H    0.70150   0.76420   0.32800   1.000
    C90     C    0.67762   0.87420   0.68141   1.000
    H62     H    0.67700   0.81070   0.67150   1.000
    C91     C    0.67017   0.02460   0.66790   1.000
    H63     H    0.66350   0.08310   0.64840   1.000
    C92     C    0.68794   0.00620   0.73560   1.000
    H64     H    0.69600   0.05040   0.77080   1.000
    C93     C    0.64763   0.92580   0.56037   1.000
    C94     C    0.63334   0.00020   0.51730   1.000
    H65     H    0.63400   0.05990   0.53570   1.000
    C95     C    0.61800   0.98470   0.44605   1.000
    H66     H    0.60830   0.03500   0.41740   1.000
    C96     C    0.61668   0.89880   0.41692   1.000
    C97     C    0.63024   0.82530   0.46183   1.000
    H67     H    0.62870   0.76520   0.44380   1.000
    C98     C    0.64611   0.83850   0.53291   1.000
    H68     H    0.65570   0.78810   0.56160   1.000
    C99     C    0.77446   0.85550   0.18210   1.000
    C100    C    0.75968   0.93290   0.13280   1.000
    C101    C    0.74896   0.91920   0.06069   1.000
    H69     H    0.75080   0.85980   0.04370   1.000
    C102    C    0.73588   0.98990   0.01398   1.000
    C103    C    0.72662   0.97070   0.93690   1.000
    C104    C    0.73306   0.07840   0.03840   1.000
    H70     H    0.72480   0.12720   0.00720   1.000
    C105    C    0.74273   0.09480   0.11140   1.000
    H71     H    0.74040   0.15390   0.12830   1.000
    C106    C    0.75557   0.02180   0.15700   1.000
    H72     H    0.76160   0.03220   0.20470   1.000
    Co3     Co   0.58230   0.46800   0.11790   1.000
    Co4     Co   0.77820   0.65190   0.17230   1.000
    Zn5     Zn   0.91776   0.96529   0.38109   1.000
    Zn6     Zn   0.72210   0.15390   0.32938   1.000
    O17     O    0.88536   0.98489   0.28491   1.000
    O18     O    0.93276   0.95920   0.25701   1.000
    O19     O    0.88355   0.03118   0.93280   1.000
    O20     O    0.93325   0.03010   0.01832   1.000
    O21     O    0.71426   0.28480   0.34250   1.000
    O22     O    0.72440   0.36260   0.25625   1.000
    O23     O    0.77834   0.38600   0.58007   1.000
    O24     O    0.77408   0.53630   0.60350   1.000
    N17     N    0.93236   0.83160   0.38840   1.000
    N18     N    0.93124   0.68920   0.35120   1.000
    N19     N    0.05259   0.07960   0.10217   1.000
    N20     N    0.01674   0.18830   0.11090   1.000
    N21     N    0.77050   0.14740   0.32371   1.000
    N22     N    0.81549   0.17820   0.29084   1.000
    N23     N    0.80788   0.41040   0.75608   1.000
    N24     N    0.83609   0.44100   0.86626   1.000
    C107    C    0.90151   0.98170   0.24113   1.000
    C108    C    0.88187   0.00890   0.16697   1.000
    C109    C    0.89875   0.00780   0.11742   1.000
    H73     H    0.92200   0.99030   0.13040   1.000
    C110    C    0.88154   0.03230   0.04890   1.000
    C111    C    0.90136   0.03120   0.99761   1.000
    C112    C    0.84737   0.05940   0.02960   1.000
    H74     H    0.83570   0.07650   0.98370   1.000
    C113    C    0.83009   0.06130   0.07950   1.000
    H75     H    0.80700   0.07990   0.06670   1.000
    C114    C    0.84742   0.03560   0.14750   1.000
    H76     H    0.83590   0.03620   0.18030   1.000
    C115    C    0.92617   0.77560   0.33350   1.000
    H77     H    0.91900   0.79650   0.28760   1.000
    C116    C    0.93934   0.68340   0.42150   1.000
    H78     H    0.94310   0.62950   0.44840   1.000
    C117    C    0.94078   0.77260   0.44430   1.000
    H79     H    0.94660   0.79080   0.49070   1.000
    C118    C    0.92484   0.61030   0.30264   1.000
    C119    C    0.89252   0.60340   0.25120   1.000
    H80     H    0.87550   0.64840   0.24770   1.000
    C120    C    0.88615   0.52980   0.20620   1.000
    H81     H    0.86430   0.52350   0.17320   1.000
    C121    C    0.94311   0.47270   0.26020   1.000
    H82     H    0.96030   0.42840   0.26360   1.000
    C122    C    0.94983   0.54560   0.30690   1.000
    H83     H    0.97140   0.55050   0.34130   1.000
    C123    C    0.91157   0.46400   0.20850   1.000
    C124    C    0.90173   0.37680   0.16075   1.000
    C125    C    0.03025   0.10600   0.13356   1.000
    H84     H    0.02470   0.07110   0.16730   1.000
    C126    C    0.03219   0.22010   0.06340   1.000
    H85     H    0.02830   0.27680   0.03980   1.000
    C127    C    0.05368   0.15310   0.05840   1.000
    H86     H    0.06750   0.15510   0.02980   1.000
    C128    C    0.98964   0.23500   0.13001   1.000
    C129    C    0.96624   0.18390   0.15110   1.000
    H87     H    0.96850   0.11940   0.15560   1.000
    C130    C    0.93901   0.22940   0.16560   1.000
    H88     H    0.92340   0.19470   0.18060   1.000
    C131    C    0.93471   0.32560   0.15823   1.000
    C132    C    0.95919   0.37590   0.13710   1.000
    H89     H    0.95710   0.44040   0.13250   1.000
    C133    C    0.98635   0.33140   0.12300   1.000
    H90     H    0.00230   0.36560   0.10880   1.000
    C134    C    0.78384   0.20570   0.28909   1.000
    H91     H    0.77270   0.25900   0.26640   1.000
    C135    C    0.82318   0.09780   0.32930   1.000
    H92     H    0.84360   0.06320   0.33990   1.000
    C136    C    0.79526   0.07960   0.34830   1.000
    H93     H    0.79290   0.02820   0.37450   1.000
    C137    C    0.83748   0.22680   0.25766   1.000
    C138    C    0.87267   0.23160   0.29034   1.000
    H94     H    0.88260   0.20470   0.33400   1.000
    C139    C    0.89309   0.27670   0.25790   1.000
    H95     H    0.91700   0.27920   0.28000   1.000
    C140    C    0.87909   0.31880   0.19274   1.000
    C141    C    0.84314   0.31470   0.16180   1.000
    H96     H    0.83290   0.34380   0.11910   1.000
    C142    C    0.82238   0.26780   0.19376   1.000
    H97     H    0.79850   0.26420   0.17200   1.000
    C143    C    0.82238   0.37420   0.81859   1.000
    H98     H    0.82300   0.31070   0.82850   1.000
    C144    C    0.82983   0.52460   0.83210   1.000
    H99     H    0.83650   0.58310   0.85160   1.000
    C145    C    0.81206   0.50620   0.76440   1.000
    H100    H    0.80400   0.55040   0.72920   1.000
    C146    C    0.85237   0.42580   0.93963   1.000
    C147    C    0.86666   0.50020   0.98270   1.000
    H101    H    0.86600   0.55990   0.96430   1.000
    C148    C    0.88200   0.48470   0.05395   1.000
    H102    H    0.89170   0.53500   0.08260   1.000
    C149    C    0.88332   0.39880   0.08308   1.000
    C150    C    0.86976   0.32530   0.03817   1.000
    H103    H    0.87130   0.26520   0.05620   1.000
    C151    C    0.85389   0.33850   0.96709   1.000
    H104    H    0.84430   0.28810   0.93840   1.000
    C152    C    0.72554   0.35550   0.31790   1.000
    C153    C    0.74032   0.43290   0.36720   1.000
    C154    C    0.75104   0.41920   0.43931   1.000
    H105    H    0.74920   0.35980   0.45630   1.000
    C155    C    0.76412   0.48990   0.48602   1.000
    C156    C    0.77338   0.47070   0.56310   1.000
    C157    C    0.76694   0.57840   0.46160   1.000
    H106    H    0.77520   0.62720   0.49280   1.000
    C158    C    0.75727   0.59480   0.38860   1.000
    H107    H    0.75960   0.65390   0.37170   1.000
    C159    C    0.74443   0.52180   0.34300   1.000
    H108    H    0.73840   0.53220   0.29530   1.000
    Co5     Co   0.91770   0.96800   0.38210   1.000
    Co6     Co   0.72180   0.15190   0.32770   1.000
    Zn7     Zn   0.41776   0.46529   0.38109   1.000
    Zn8     Zn   0.22210   0.65390   0.32938   1.000
    O25     O    0.38536   0.48489   0.28491   1.000
    O26     O    0.43276   0.45920   0.25701   1.000
    O27     O    0.38355   0.53118   0.93280   1.000
    O28     O    0.43325   0.53010   0.01832   1.000
    O29     O    0.21426   0.78480   0.34250   1.000
    O30     O    0.22440   0.86260   0.25625   1.000
    O31     O    0.27834   0.88600   0.58007   1.000
    O32     O    0.27408   0.03630   0.60350   1.000
    N25     N    0.43236   0.33160   0.38840   1.000
    N26     N    0.43124   0.18920   0.35120   1.000
    N27     N    0.55259   0.57960   0.10217   1.000
    N28     N    0.51674   0.68830   0.11090   1.000
    N29     N    0.27050   0.64740   0.32371   1.000
    N30     N    0.31549   0.67820   0.29084   1.000
    N31     N    0.30788   0.91040   0.75608   1.000
    N32     N    0.33609   0.94100   0.86626   1.000
    C160    C    0.40151   0.48170   0.24113   1.000
    C161    C    0.38187   0.50890   0.16697   1.000
    C162    C    0.39875   0.50780   0.11742   1.000
    H109    H    0.42200   0.49030   0.13040   1.000
    C163    C    0.38154   0.53230   0.04890   1.000
    C164    C    0.40136   0.53120   0.99761   1.000
    C165    C    0.34737   0.55940   0.02960   1.000
    H110    H    0.33570   0.57650   0.98370   1.000
    C166    C    0.33009   0.56130   0.07950   1.000
    H111    H    0.30700   0.57990   0.06670   1.000
    C167    C    0.34742   0.53560   0.14750   1.000
    H112    H    0.33590   0.53620   0.18030   1.000
    C168    C    0.42617   0.27560   0.33350   1.000
    H113    H    0.41900   0.29650   0.28760   1.000
    C169    C    0.43934   0.18340   0.42150   1.000
    H114    H    0.44310   0.12950   0.44840   1.000
    C170    C    0.44078   0.27260   0.44430   1.000
    H115    H    0.44660   0.29080   0.49070   1.000
    C171    C    0.42484   0.11030   0.30264   1.000
    C172    C    0.39252   0.10340   0.25120   1.000
    H116    H    0.37550   0.14840   0.24770   1.000
    C173    C    0.38615   0.02980   0.20620   1.000
    H117    H    0.36430   0.02350   0.17320   1.000
    C174    C    0.44311   0.97270   0.26020   1.000
    H118    H    0.46030   0.92840   0.26360   1.000
    C175    C    0.44983   0.04560   0.30690   1.000
    H119    H    0.47140   0.05050   0.34130   1.000
    C176    C    0.41157   0.96400   0.20850   1.000
    C177    C    0.40173   0.87680   0.16075   1.000
    C178    C    0.53025   0.60600   0.13356   1.000
    H120    H    0.52470   0.57110   0.16730   1.000
    C179    C    0.53219   0.72010   0.06340   1.000
    H121    H    0.52830   0.77680   0.03980   1.000
    C180    C    0.55368   0.65310   0.05840   1.000
    H122    H    0.56750   0.65510   0.02980   1.000
    C181    C    0.48964   0.73500   0.13001   1.000
    C182    C    0.46624   0.68390   0.15110   1.000
    H123    H    0.46850   0.61940   0.15560   1.000
    C183    C    0.43901   0.72940   0.16560   1.000
    H124    H    0.42340   0.69470   0.18060   1.000
    C184    C    0.43471   0.82560   0.15823   1.000
    C185    C    0.45919   0.87590   0.13710   1.000
    H125    H    0.45710   0.94040   0.13250   1.000
    C186    C    0.48635   0.83140   0.12300   1.000
    H126    H    0.50230   0.86560   0.10880   1.000
    C187    C    0.28384   0.70570   0.28909   1.000
    H127    H    0.27270   0.75900   0.26640   1.000
    C188    C    0.32318   0.59780   0.32930   1.000
    H128    H    0.34360   0.56320   0.33990   1.000
    C189    C    0.29526   0.57960   0.34830   1.000
    H129    H    0.29290   0.52820   0.37450   1.000
    C190    C    0.33748   0.72680   0.25766   1.000
    C191    C    0.37267   0.73160   0.29034   1.000
    H130    H    0.38260   0.70470   0.33400   1.000
    C192    C    0.39309   0.77670   0.25790   1.000
    H131    H    0.41700   0.77920   0.28000   1.000
    C193    C    0.37909   0.81880   0.19274   1.000
    C194    C    0.34314   0.81470   0.16180   1.000
    H132    H    0.33290   0.84380   0.11910   1.000
    C195    C    0.32238   0.76780   0.19376   1.000
    H133    H    0.29850   0.76420   0.17200   1.000
    C196    C    0.32238   0.87420   0.81859   1.000
    H134    H    0.32300   0.81070   0.82850   1.000
    C197    C    0.32983   0.02460   0.83210   1.000
    H135    H    0.33650   0.08310   0.85160   1.000
    C198    C    0.31206   0.00620   0.76440   1.000
    H136    H    0.30400   0.05040   0.72920   1.000
    C199    C    0.35237   0.92580   0.93963   1.000
    C200    C    0.36666   0.00020   0.98270   1.000
    H137    H    0.36600   0.05990   0.96430   1.000
    C201    C    0.38200   0.98470   0.05395   1.000
    H138    H    0.39170   0.03500   0.08260   1.000
    C202    C    0.38332   0.89880   0.08308   1.000
    C203    C    0.36976   0.82530   0.03817   1.000
    H139    H    0.37130   0.76520   0.05620   1.000
    C204    C    0.35389   0.83850   0.96709   1.000
    H140    H    0.34430   0.78810   0.93840   1.000
    C205    C    0.22554   0.85550   0.31790   1.000
    C206    C    0.24032   0.93290   0.36720   1.000
    C207    C    0.25104   0.91920   0.43931   1.000
    H141    H    0.24920   0.85980   0.45630   1.000
    C208    C    0.26412   0.98990   0.48602   1.000
    C209    C    0.27338   0.97070   0.56310   1.000
    C210    C    0.26694   0.07840   0.46160   1.000
    H142    H    0.27520   0.12720   0.49280   1.000
    C211    C    0.25727   0.09480   0.38860   1.000
    H143    H    0.25960   0.15390   0.37170   1.000
    C212    C    0.24443   0.02180   0.34300   1.000
    H144    H    0.23840   0.03220   0.29530   1.000
    Co7     Co   0.41770   0.46800   0.38210   1.000
    Co8     Co   0.22180   0.65190   0.32770   1.000
    Zn9     Zn   0.91776   0.03471   0.88109   1.000
    Zn10    Zn   0.72210   0.84610   0.82938   1.000
    O33     O    0.88536   0.01511   0.78491   1.000
    O34     O    0.93276   0.04080   0.75701   1.000
    O35     O    0.88355   0.96882   0.43280   1.000
    O36     O    0.93325   0.96990   0.51832   1.000
    O37     O    0.71426   0.71520   0.84250   1.000
    O38     O    0.72440   0.63740   0.75625   1.000
    O39     O    0.77834   0.61400   0.08007   1.000
    O40     O    0.77408   0.46370   0.10350   1.000
    N33     N    0.93236   0.16840   0.88840   1.000
    N34     N    0.93124   0.31080   0.85120   1.000
    N35     N    0.05259   0.92040   0.60217   1.000
    N36     N    0.01674   0.81170   0.61090   1.000
    N37     N    0.77050   0.85260   0.82371   1.000
    N38     N    0.81549   0.82180   0.79084   1.000
    N39     N    0.80788   0.58960   0.25608   1.000
    N40     N    0.83609   0.55900   0.36626   1.000
    C213    C    0.90151   0.01830   0.74113   1.000
    C214    C    0.88187   0.99110   0.66697   1.000
    C215    C    0.89875   0.99220   0.61742   1.000
    H145    H    0.92200   0.00970   0.63040   1.000
    C216    C    0.88154   0.96770   0.54890   1.000
    C217    C    0.90136   0.96880   0.49761   1.000
    C218    C    0.84737   0.94060   0.52960   1.000
    H146    H    0.83570   0.92350   0.48370   1.000
    C219    C    0.83009   0.93870   0.57950   1.000
    H147    H    0.80700   0.92010   0.56670   1.000
    C220    C    0.84742   0.96440   0.64750   1.000
    H148    H    0.83590   0.96380   0.68030   1.000
    C221    C    0.92617   0.22440   0.83350   1.000
    H149    H    0.91900   0.20350   0.78760   1.000
    C222    C    0.93934   0.31660   0.92150   1.000
    H150    H    0.94310   0.37050   0.94840   1.000
    C223    C    0.94078   0.22740   0.94430   1.000
    H151    H    0.94660   0.20920   0.99070   1.000
    C224    C    0.92484   0.38970   0.80264   1.000
    C225    C    0.89252   0.39660   0.75120   1.000
    H152    H    0.87550   0.35160   0.74770   1.000
    C226    C    0.88615   0.47020   0.70620   1.000
    H153    H    0.86430   0.47650   0.67320   1.000
    C227    C    0.94311   0.52730   0.76020   1.000
    H154    H    0.96030   0.57160   0.76360   1.000
    C228    C    0.94983   0.45440   0.80690   1.000
    H155    H    0.97140   0.44950   0.84130   1.000
    C229    C    0.91157   0.53600   0.70850   1.000
    C230    C    0.90173   0.62320   0.66075   1.000
    C231    C    0.03025   0.89400   0.63356   1.000
    H156    H    0.02470   0.92890   0.66730   1.000
    C232    C    0.03219   0.77990   0.56340   1.000
    H157    H    0.02830   0.72320   0.53980   1.000
    C233    C    0.05368   0.84690   0.55840   1.000
    H158    H    0.06750   0.84490   0.52980   1.000
    C234    C    0.98964   0.76500   0.63001   1.000
    C235    C    0.96624   0.81610   0.65110   1.000
    H159    H    0.96850   0.88060   0.65560   1.000
    C236    C    0.93901   0.77060   0.66560   1.000
    H160    H    0.92340   0.80530   0.68060   1.000
    C237    C    0.93471   0.67440   0.65823   1.000
    C238    C    0.95919   0.62410   0.63710   1.000
    H161    H    0.95710   0.55960   0.63250   1.000
    C239    C    0.98635   0.66860   0.62300   1.000
    H162    H    0.00230   0.63440   0.60880   1.000
    C240    C    0.78384   0.79430   0.78909   1.000
    H163    H    0.77270   0.74100   0.76640   1.000
    C241    C    0.82318   0.90220   0.82930   1.000
    H164    H    0.84360   0.93680   0.83990   1.000
    C242    C    0.79526   0.92040   0.84830   1.000
    H165    H    0.79290   0.97180   0.87450   1.000
    C243    C    0.83748   0.77320   0.75766   1.000
    C244    C    0.87267   0.76840   0.79034   1.000
    H166    H    0.88260   0.79530   0.83400   1.000
    C245    C    0.89309   0.72330   0.75790   1.000
    H167    H    0.91700   0.72080   0.78000   1.000
    C246    C    0.87909   0.68120   0.69274   1.000
    C247    C    0.84314   0.68530   0.66180   1.000
    H168    H    0.83290   0.65620   0.61910   1.000
    C248    C    0.82238   0.73220   0.69376   1.000
    H169    H    0.79850   0.73580   0.67200   1.000
    C249    C    0.82238   0.62580   0.31859   1.000
    H170    H    0.82300   0.68930   0.32850   1.000
    C250    C    0.82983   0.47540   0.33210   1.000
    H171    H    0.83650   0.41690   0.35160   1.000
    C251    C    0.81206   0.49380   0.26440   1.000
    H172    H    0.80400   0.44960   0.22920   1.000
    C252    C    0.85237   0.57420   0.43963   1.000
    C253    C    0.86666   0.49980   0.48270   1.000
    H173    H    0.86600   0.44010   0.46430   1.000
    C254    C    0.88200   0.51530   0.55395   1.000
    H174    H    0.89170   0.46500   0.58260   1.000
    C255    C    0.88332   0.60120   0.58308   1.000
    C256    C    0.86976   0.67470   0.53817   1.000
    H175    H    0.87130   0.73480   0.55620   1.000
    C257    C    0.85389   0.66150   0.46709   1.000
    H176    H    0.84430   0.71190   0.43840   1.000
    C258    C    0.72554   0.64450   0.81790   1.000
    C259    C    0.74032   0.56710   0.86720   1.000
    C260    C    0.75104   0.58080   0.93931   1.000
    H177    H    0.74920   0.64020   0.95630   1.000
    C261    C    0.76412   0.51010   0.98602   1.000
    C262    C    0.77338   0.52930   0.06310   1.000
    C263    C    0.76694   0.42160   0.96160   1.000
    H178    H    0.77520   0.37280   0.99280   1.000
    C264    C    0.75727   0.40520   0.88860   1.000
    H179    H    0.75960   0.34610   0.87170   1.000
    C265    C    0.74443   0.47820   0.84300   1.000
    H180    H    0.73840   0.46780   0.79530   1.000
    Co9     Co   0.91770   0.03200   0.88210   1.000
    Co10    Co   0.72180   0.84810   0.82770   1.000
    Zn11    Zn   0.41776   0.53471   0.88109   1.000
    Zn12    Zn   0.22210   0.34610   0.82938   1.000
    O41     O    0.38536   0.51511   0.78491   1.000
    O42     O    0.43276   0.54080   0.75701   1.000
    O43     O    0.38355   0.46882   0.43280   1.000
    O44     O    0.43325   0.46990   0.51832   1.000
    O45     O    0.21426   0.21520   0.84250   1.000
    O46     O    0.22440   0.13740   0.75625   1.000
    O47     O    0.27834   0.11400   0.08007   1.000
    O48     O    0.27408   0.96370   0.10350   1.000
    N41     N    0.43236   0.66840   0.88840   1.000
    N42     N    0.43124   0.81080   0.85120   1.000
    N43     N    0.55259   0.42040   0.60217   1.000
    N44     N    0.51674   0.31170   0.61090   1.000
    N45     N    0.27050   0.35260   0.82371   1.000
    N46     N    0.31549   0.32180   0.79084   1.000
    N47     N    0.30788   0.08960   0.25608   1.000
    N48     N    0.33609   0.05900   0.36626   1.000
    C266    C    0.40151   0.51830   0.74113   1.000
    C267    C    0.38187   0.49110   0.66697   1.000
    C268    C    0.39875   0.49220   0.61742   1.000
    H181    H    0.42200   0.50970   0.63040   1.000
    C269    C    0.38154   0.46770   0.54890   1.000
    C270    C    0.40136   0.46880   0.49761   1.000
    C271    C    0.34737   0.44060   0.52960   1.000
    H182    H    0.33570   0.42350   0.48370   1.000
    C272    C    0.33009   0.43870   0.57950   1.000
    H183    H    0.30700   0.42010   0.56670   1.000
    C273    C    0.34742   0.46440   0.64750   1.000
    H184    H    0.33590   0.46380   0.68030   1.000
    C274    C    0.42617   0.72440   0.83350   1.000
    H185    H    0.41900   0.70350   0.78760   1.000
    C275    C    0.43934   0.81660   0.92150   1.000
    H186    H    0.44310   0.87050   0.94840   1.000
    C276    C    0.44078   0.72740   0.94430   1.000
    H187    H    0.44660   0.70920   0.99070   1.000
    C277    C    0.42484   0.88970   0.80264   1.000
    C278    C    0.39252   0.89660   0.75120   1.000
    H188    H    0.37550   0.85160   0.74770   1.000
    C279    C    0.38615   0.97020   0.70620   1.000
    H189    H    0.36430   0.97650   0.67320   1.000
    C280    C    0.44311   0.02730   0.76020   1.000
    H190    H    0.46030   0.07160   0.76360   1.000
    C281    C    0.44983   0.95440   0.80690   1.000
    H191    H    0.47140   0.94950   0.84130   1.000
    C282    C    0.41157   0.03600   0.70850   1.000
    C283    C    0.40173   0.12320   0.66075   1.000
    C284    C    0.53025   0.39400   0.63356   1.000
    H192    H    0.52470   0.42890   0.66730   1.000
    C285    C    0.53219   0.27990   0.56340   1.000
    H193    H    0.52830   0.22320   0.53980   1.000
    C286    C    0.55368   0.34690   0.55840   1.000
    H194    H    0.56750   0.34490   0.52980   1.000
    C287    C    0.48964   0.26500   0.63001   1.000
    C288    C    0.46624   0.31610   0.65110   1.000
    H195    H    0.46850   0.38060   0.65560   1.000
    C289    C    0.43901   0.27060   0.66560   1.000
    H196    H    0.42340   0.30530   0.68060   1.000
    C290    C    0.43471   0.17440   0.65823   1.000
    C291    C    0.45919   0.12410   0.63710   1.000
    H197    H    0.45710   0.05960   0.63250   1.000
    C292    C    0.48635   0.16860   0.62300   1.000
    H198    H    0.50230   0.13440   0.60880   1.000
    C293    C    0.28384   0.29430   0.78909   1.000
    H199    H    0.27270   0.24100   0.76640   1.000
    C294    C    0.32318   0.40220   0.82930   1.000
    H200    H    0.34360   0.43680   0.83990   1.000
    C295    C    0.29526   0.42040   0.84830   1.000
    H201    H    0.29290   0.47180   0.87450   1.000
    C296    C    0.33748   0.27320   0.75766   1.000
    C297    C    0.37267   0.26840   0.79034   1.000
    H202    H    0.38260   0.29530   0.83400   1.000
    C298    C    0.39309   0.22330   0.75790   1.000
    H203    H    0.41700   0.22080   0.78000   1.000
    C299    C    0.37909   0.18120   0.69274   1.000
    C300    C    0.34314   0.18530   0.66180   1.000
    H204    H    0.33290   0.15620   0.61910   1.000
    C301    C    0.32238   0.23220   0.69376   1.000
    H205    H    0.29850   0.23580   0.67200   1.000
    C302    C    0.32238   0.12580   0.31859   1.000
    H206    H    0.32300   0.18930   0.32850   1.000
    C303    C    0.32983   0.97540   0.33210   1.000
    H207    H    0.33650   0.91690   0.35160   1.000
    C304    C    0.31206   0.99380   0.26440   1.000
    H208    H    0.30400   0.94960   0.22920   1.000
    C305    C    0.35237   0.07420   0.43963   1.000
    C306    C    0.36666   0.99980   0.48270   1.000
    H209    H    0.36600   0.94010   0.46430   1.000
    C307    C    0.38200   0.01530   0.55395   1.000
    H210    H    0.39170   0.96500   0.58260   1.000
    C308    C    0.38332   0.10120   0.58308   1.000
    C309    C    0.36976   0.17470   0.53817   1.000
    H211    H    0.37130   0.23480   0.55620   1.000
    C310    C    0.35389   0.16150   0.46709   1.000
    H212    H    0.34430   0.21190   0.43840   1.000
    C311    C    0.22554   0.14450   0.81790   1.000
    C312    C    0.24032   0.06710   0.86720   1.000
    C313    C    0.25104   0.08080   0.93931   1.000
    H213    H    0.24920   0.14020   0.95630   1.000
    C314    C    0.26412   0.01010   0.98602   1.000
    C315    C    0.27338   0.02930   0.06310   1.000
    C316    C    0.26694   0.92160   0.96160   1.000
    H214    H    0.27520   0.87280   0.99280   1.000
    C317    C    0.25727   0.90520   0.88860   1.000
    H215    H    0.25960   0.84610   0.87170   1.000
    C318    C    0.24443   0.97820   0.84300   1.000
    H216    H    0.23840   0.96780   0.79530   1.000
    Co11    Co   0.41770   0.53200   0.88210   1.000
    Co12    Co   0.22180   0.34810   0.82770   1.000
    Zn13    Zn   0.08224   0.03471   0.61891   1.000
    Zn14    Zn   0.27790   0.84610   0.67062   1.000
    O49     O    0.11464   0.01511   0.71509   1.000
    O50     O    0.06724   0.04080   0.74299   1.000
    O51     O    0.11645   0.96882   0.06720   1.000
    O52     O    0.06675   0.96990   0.98168   1.000
    O53     O    0.28574   0.71520   0.65750   1.000
    O54     O    0.27560   0.63740   0.74375   1.000
    O55     O    0.22166   0.61400   0.41993   1.000
    O56     O    0.22592   0.46370   0.39650   1.000
    N49     N    0.06764   0.16840   0.61160   1.000
    N50     N    0.06876   0.31080   0.64880   1.000
    N51     N    0.94741   0.92040   0.89783   1.000
    N52     N    0.98326   0.81170   0.88910   1.000
    N53     N    0.22950   0.85260   0.67629   1.000
    N54     N    0.18451   0.82180   0.70916   1.000
    N55     N    0.19212   0.58960   0.24392   1.000
    N56     N    0.16391   0.55900   0.13374   1.000
    C319    C    0.09849   0.01830   0.75887   1.000
    C320    C    0.11813   0.99110   0.83303   1.000
    C321    C    0.10125   0.99220   0.88258   1.000
    H217    H    0.07800   0.00970   0.86960   1.000
    C322    C    0.11846   0.96770   0.95110   1.000
    C323    C    0.09864   0.96880   0.00239   1.000
    C324    C    0.15263   0.94060   0.97040   1.000
    H218    H    0.16430   0.92350   0.01630   1.000
    C325    C    0.16991   0.93870   0.92050   1.000
    H219    H    0.19300   0.92010   0.93330   1.000
    C326    C    0.15258   0.96440   0.85250   1.000
    H220    H    0.16410   0.96380   0.81970   1.000
    C327    C    0.07383   0.22440   0.66650   1.000
    H221    H    0.08100   0.20350   0.71240   1.000
    C328    C    0.06066   0.31660   0.57850   1.000
    H222    H    0.05690   0.37050   0.55160   1.000
    C329    C    0.05922   0.22740   0.55570   1.000
    H223    H    0.05340   0.20920   0.50930   1.000
    C330    C    0.07516   0.38970   0.69736   1.000
    C331    C    0.10748   0.39660   0.74880   1.000
    H224    H    0.12450   0.35160   0.75230   1.000
    C332    C    0.11385   0.47020   0.79380   1.000
    H225    H    0.13570   0.47650   0.82680   1.000
    C333    C    0.05689   0.52730   0.73980   1.000
    H226    H    0.03970   0.57160   0.73640   1.000
    C334    C    0.05017   0.45440   0.69310   1.000
    H227    H    0.02860   0.44950   0.65870   1.000
    C335    C    0.08843   0.53600   0.79150   1.000
    C336    C    0.09827   0.62320   0.83925   1.000
    C337    C    0.96975   0.89400   0.86644   1.000
    H228    H    0.97530   0.92890   0.83270   1.000
    C338    C    0.96781   0.77990   0.93660   1.000
    H229    H    0.97170   0.72320   0.96020   1.000
    C339    C    0.94632   0.84690   0.94160   1.000
    H230    H    0.93250   0.84490   0.97020   1.000
    C340    C    0.01036   0.76500   0.86999   1.000
    C341    C    0.03376   0.81610   0.84890   1.000
    H231    H    0.03150   0.88060   0.84440   1.000
    C342    C    0.06099   0.77060   0.83440   1.000
    H232    H    0.07660   0.80530   0.81940   1.000
    C343    C    0.06529   0.67440   0.84177   1.000
    C344    C    0.04081   0.62410   0.86290   1.000
    H233    H    0.04290   0.55960   0.86750   1.000
    C345    C    0.01365   0.66860   0.87700   1.000
    H234    H    0.99770   0.63440   0.89120   1.000
    C346    C    0.21616   0.79430   0.71091   1.000
    H235    H    0.22730   0.74100   0.73360   1.000
    C347    C    0.17682   0.90220   0.67070   1.000
    H236    H    0.15640   0.93680   0.66010   1.000
    C348    C    0.20474   0.92040   0.65170   1.000
    H237    H    0.20710   0.97180   0.62550   1.000
    C349    C    0.16252   0.77320   0.74234   1.000
    C350    C    0.12733   0.76840   0.70966   1.000
    H238    H    0.11740   0.79530   0.66600   1.000
    C351    C    0.10691   0.72330   0.74210   1.000
    H239    H    0.08300   0.72080   0.72000   1.000
    C352    C    0.12091   0.68120   0.80726   1.000
    C353    C    0.15686   0.68530   0.83820   1.000
    H240    H    0.16710   0.65620   0.88090   1.000
    C354    C    0.17762   0.73220   0.80624   1.000
    H241    H    0.20150   0.73580   0.82800   1.000
    C355    C    0.17762   0.62580   0.18141   1.000
    H242    H    0.17700   0.68930   0.17150   1.000
    C356    C    0.17017   0.47540   0.16790   1.000
    H243    H    0.16350   0.41690   0.14840   1.000
    C357    C    0.18794   0.49380   0.23560   1.000
    H244    H    0.19600   0.44960   0.27080   1.000
    C358    C    0.14763   0.57420   0.06037   1.000
    C359    C    0.13334   0.49980   0.01730   1.000
    H245    H    0.13400   0.44010   0.03570   1.000
    C360    C    0.11800   0.51530   0.94605   1.000
    H246    H    0.10830   0.46500   0.91740   1.000
    C361    C    0.11668   0.60120   0.91692   1.000
    C362    C    0.13024   0.67470   0.96183   1.000
    H247    H    0.12870   0.73480   0.94380   1.000
    C363    C    0.14611   0.66150   0.03291   1.000
    H248    H    0.15570   0.71190   0.06160   1.000
    C364    C    0.27446   0.64450   0.68210   1.000
    C365    C    0.25968   0.56710   0.63280   1.000
    C366    C    0.24896   0.58080   0.56069   1.000
    H249    H    0.25080   0.64020   0.54370   1.000
    C367    C    0.23588   0.51010   0.51398   1.000
    C368    C    0.22662   0.52930   0.43690   1.000
    C369    C    0.23306   0.42160   0.53840   1.000
    H250    H    0.22480   0.37280   0.50720   1.000
    C370    C    0.24273   0.40520   0.61140   1.000
    H251    H    0.24040   0.34610   0.62830   1.000
    C371    C    0.25557   0.47820   0.65700   1.000
    H252    H    0.26160   0.46780   0.70470   1.000
    Co13    Co   0.08230   0.03200   0.61790   1.000
    Co14    Co   0.27820   0.84810   0.67230   1.000
    Zn15    Zn   0.58224   0.53471   0.61891   1.000
    Zn16    Zn   0.77790   0.34610   0.67062   1.000
    O57     O    0.61464   0.51511   0.71509   1.000
    O58     O    0.56724   0.54080   0.74299   1.000
    O59     O    0.61645   0.46882   0.06720   1.000
    O60     O    0.56675   0.46990   0.98168   1.000
    O61     O    0.78574   0.21520   0.65750   1.000
    O62     O    0.77560   0.13740   0.74375   1.000
    O63     O    0.72166   0.11400   0.41993   1.000
    O64     O    0.72592   0.96370   0.39650   1.000
    N57     N    0.56764   0.66840   0.61160   1.000
    N58     N    0.56876   0.81080   0.64880   1.000
    N59     N    0.44741   0.42040   0.89783   1.000
    N60     N    0.48326   0.31170   0.88910   1.000
    N61     N    0.72950   0.35260   0.67629   1.000
    N62     N    0.68451   0.32180   0.70916   1.000
    N63     N    0.69212   0.08960   0.24392   1.000
    N64     N    0.66391   0.05900   0.13374   1.000
    C372    C    0.59849   0.51830   0.75887   1.000
    C373    C    0.61813   0.49110   0.83303   1.000
    C374    C    0.60125   0.49220   0.88258   1.000
    H253    H    0.57800   0.50970   0.86960   1.000
    C375    C    0.61846   0.46770   0.95110   1.000
    C376    C    0.59864   0.46880   0.00239   1.000
    C377    C    0.65263   0.44060   0.97040   1.000
    H254    H    0.66430   0.42350   0.01630   1.000
    C378    C    0.66991   0.43870   0.92050   1.000
    H255    H    0.69300   0.42010   0.93330   1.000
    C379    C    0.65258   0.46440   0.85250   1.000
    H256    H    0.66410   0.46380   0.81970   1.000
    C380    C    0.57383   0.72440   0.66650   1.000
    H257    H    0.58100   0.70350   0.71240   1.000
    C381    C    0.56066   0.81660   0.57850   1.000
    H258    H    0.55690   0.87050   0.55160   1.000
    C382    C    0.55922   0.72740   0.55570   1.000
    H259    H    0.55340   0.70920   0.50930   1.000
    C383    C    0.57516   0.88970   0.69736   1.000
    C384    C    0.60748   0.89660   0.74880   1.000
    H260    H    0.62450   0.85160   0.75230   1.000
    C385    C    0.61385   0.97020   0.79380   1.000
    H261    H    0.63570   0.97650   0.82680   1.000
    C386    C    0.55689   0.02730   0.73980   1.000
    H262    H    0.53970   0.07160   0.73640   1.000
    C387    C    0.55017   0.95440   0.69310   1.000
    H263    H    0.52860   0.94950   0.65870   1.000
    C388    C    0.58843   0.03600   0.79150   1.000
    C389    C    0.59827   0.12320   0.83925   1.000
    C390    C    0.46975   0.39400   0.86644   1.000
    H264    H    0.47530   0.42890   0.83270   1.000
    C391    C    0.46781   0.27990   0.93660   1.000
    H265    H    0.47170   0.22320   0.96020   1.000
    C392    C    0.44632   0.34690   0.94160   1.000
    H266    H    0.43250   0.34490   0.97020   1.000
    C393    C    0.51036   0.26500   0.86999   1.000
    C394    C    0.53376   0.31610   0.84890   1.000
    H267    H    0.53150   0.38060   0.84440   1.000
    C395    C    0.56099   0.27060   0.83440   1.000
    H268    H    0.57660   0.30530   0.81940   1.000
    C396    C    0.56529   0.17440   0.84177   1.000
    C397    C    0.54081   0.12410   0.86290   1.000
    H269    H    0.54290   0.05960   0.86750   1.000
    C398    C    0.51365   0.16860   0.87700   1.000
    H270    H    0.49770   0.13440   0.89120   1.000
    C399    C    0.71616   0.29430   0.71091   1.000
    H271    H    0.72730   0.24100   0.73360   1.000
    C400    C    0.67682   0.40220   0.67070   1.000
    H272    H    0.65640   0.43680   0.66010   1.000
    C401    C    0.70474   0.42040   0.65170   1.000
    H273    H    0.70710   0.47180   0.62550   1.000
    C402    C    0.66252   0.27320   0.74234   1.000
    C403    C    0.62733   0.26840   0.70966   1.000
    H274    H    0.61740   0.29530   0.66600   1.000
    C404    C    0.60691   0.22330   0.74210   1.000
    H275    H    0.58300   0.22080   0.72000   1.000
    C405    C    0.62091   0.18120   0.80726   1.000
    C406    C    0.65686   0.18530   0.83820   1.000
    H276    H    0.66710   0.15620   0.88090   1.000
    C407    C    0.67762   0.23220   0.80624   1.000
    H277    H    0.70150   0.23580   0.82800   1.000
    C408    C    0.67762   0.12580   0.18141   1.000
    H278    H    0.67700   0.18930   0.17150   1.000
    C409    C    0.67017   0.97540   0.16790   1.000
    H279    H    0.66350   0.91690   0.14840   1.000
    C410    C    0.68794   0.99380   0.23560   1.000
    H280    H    0.69600   0.94960   0.27080   1.000
    C411    C    0.64763   0.07420   0.06037   1.000
    C412    C    0.63334   0.99980   0.01730   1.000
    H281    H    0.63400   0.94010   0.03570   1.000
    C413    C    0.61800   0.01530   0.94605   1.000
    H282    H    0.60830   0.96500   0.91740   1.000
    C414    C    0.61668   0.10120   0.91692   1.000
    C415    C    0.63024   0.17470   0.96183   1.000
    H283    H    0.62870   0.23480   0.94380   1.000
    C416    C    0.64611   0.16150   0.03291   1.000
    H284    H    0.65570   0.21190   0.06160   1.000
    C417    C    0.77446   0.14450   0.68210   1.000
    C418    C    0.75968   0.06710   0.63280   1.000
    C419    C    0.74896   0.08080   0.56069   1.000
    H285    H    0.75080   0.14020   0.54370   1.000
    C420    C    0.73588   0.01010   0.51398   1.000
    C421    C    0.72662   0.02930   0.43690   1.000
    C422    C    0.73306   0.92160   0.53840   1.000
    H286    H    0.72480   0.87280   0.50720   1.000
    C423    C    0.74273   0.90520   0.61140   1.000
    H287    H    0.74040   0.84610   0.62830   1.000
    C424    C    0.75557   0.97820   0.65700   1.000
    H288    H    0.76160   0.96780   0.70470   1.000
    Co15    Co   0.58230   0.53200   0.61790   1.000
    Co16    Co   0.77820   0.34810   0.67230   1.000
