# CIF file generated by openbabel 2.4.1, see http://openbabel.sf.net
data_I
_chemical_name_common 'image0'
_cell_length_a 41.381
_cell_length_b 41.381
_cell_length_c 17.548
_cell_angle_alpha 90
_cell_angle_beta 90
_cell_angle_gamma 120
_space_group_name_H-M_alt 'P 1'
_space_group_name_Hall 'P 1'
loop_
    _symmetry_equiv_pos_as_xyz
    x,y,z
loop_
    _atom_site_label
    _atom_site_type_symbol
    _atom_site_fract_x
    _atom_site_fract_y
    _atom_site_fract_z
    _atom_site_occupancy
    Zn1     Zn   0.40082   0.02916   0.66023   1.000
    O1      O    0.40381   0.11058   0.65717   1.000
    O2      O    0.38717   0.05735   0.59399   1.000
    O3      O    0.48827   0.04776   0.66302   1.000
    O4      O    0.43309   0.01706   0.60144   1.000
    O5      O    0.37277   0.35649   0.18624   1.000
    O6      O    0.42930   0.98010   0.48180   1.000
    O7      O    0.54220   0.04390   0.60750   1.000
    C1      C    0.39281   0.09031   0.59916   1.000
    C2      C    0.38673   0.10638   0.52820   1.000
    C3      C    0.36972   0.08293   0.46532   1.000
    C4      C    0.36682   0.09951   0.39727   1.000
    C5      C    0.37898   0.13723   0.39234   1.000
    C6      C    0.39489   0.16023   0.45728   1.000
    C7      C    0.39804   0.14452   0.52720   1.000
    C8      C    0.37701   0.15450   0.31898   1.000
    C9      C    0.37407   0.18683   0.32073   1.000
    C10     C    0.57481   0.19355   0.72180   1.000
    C11     C    0.60567   0.22931   0.72380   1.000
    C12     C    0.60260   0.25848   0.75160   1.000
    C13     C    0.56864   0.25185   0.78490   1.000
    C14     C    0.53779   0.21609   0.78290   1.000
    C15     C    0.46736   0.02737   0.61021   1.000
    C16     C    0.48417   0.01274   0.55203   1.000
    C17     C    0.52011   0.02174   0.55760   1.000
    C18     C    0.46441   0.99087   0.49400   1.000
    C19     C    0.37114   0.28922   0.18600   1.000
    C20     C    0.38580   0.26370   0.18820   1.000
    C21     C    0.35880   0.24920   0.18490   1.000
    Zn2     Zn   0.97084   0.37166   0.66023   1.000
    O8      O    0.88942   0.29323   0.65717   1.000
    O9      O    0.94265   0.32982   0.59399   1.000
    O10     O    0.95224   0.44051   0.66302   1.000
    O11     O    0.98294   0.41603   0.60144   1.000
    O12     O    0.64351   0.01628   0.18624   1.000
    O13     O    0.01990   0.44920   0.48180   1.000
    O14     O    0.95610   0.49830   0.60750   1.000
    C22     C    0.90969   0.30250   0.59916   1.000
    C23     C    0.89362   0.28035   0.52820   1.000
    C24     C    0.91707   0.28679   0.46532   1.000
    C25     C    0.90049   0.26731   0.39727   1.000
    C26     C    0.86277   0.24175   0.39234   1.000
    C27     C    0.83977   0.23466   0.45728   1.000
    C28     C    0.85548   0.25352   0.52720   1.000
    C29     C    0.84550   0.22251   0.31898   1.000
    C30     C    0.81317   0.18724   0.32073   1.000
    C31     C    0.80645   0.38126   0.72180   1.000
    C32     C    0.77069   0.37636   0.72380   1.000
    C33     C    0.74152   0.34412   0.75160   1.000
    C34     C    0.74815   0.31679   0.78490   1.000
    C35     C    0.78391   0.32170   0.78290   1.000
    C36     C    0.97263   0.43999   0.61021   1.000
    C37     C    0.98726   0.47143   0.55203   1.000
    C38     C    0.97826   0.49837   0.55760   1.000
    C39     C    0.00913   0.47354   0.49400   1.000
    C40     C    0.71078   0.08192   0.18600   1.000
    C41     C    0.73630   0.12210   0.18820   1.000
    C42     C    0.75080   0.10960   0.18490   1.000
    Zn3     Zn   0.62834   0.59918   0.66023   1.000
    O15     O    0.70677   0.59619   0.65717   1.000
    O16     O    0.67018   0.61283   0.59399   1.000
    O17     O    0.55949   0.51173   0.66302   1.000
    O18     O    0.58397   0.56691   0.60144   1.000
    O19     O    0.98372   0.62723   0.18624   1.000
    O20     O    0.55080   0.57070   0.48180   1.000
    O21     O    0.50170   0.45780   0.60750   1.000
    C43     C    0.69750   0.60719   0.59916   1.000
    C44     C    0.71965   0.61327   0.52820   1.000
    C45     C    0.71321   0.63028   0.46532   1.000
    C46     C    0.73269   0.63318   0.39727   1.000
    C47     C    0.75825   0.62102   0.39234   1.000
    C48     C    0.76534   0.60511   0.45728   1.000
    C49     C    0.74648   0.60196   0.52720   1.000
    C50     C    0.77749   0.62299   0.31898   1.000
    C51     C    0.81276   0.62593   0.32073   1.000
    C52     C    0.61874   0.42519   0.72180   1.000
    C53     C    0.62364   0.39433   0.72380   1.000
    C54     C    0.65588   0.39740   0.75160   1.000
    C55     C    0.68321   0.43136   0.78490   1.000
    C56     C    0.67830   0.46221   0.78290   1.000
    C57     C    0.56001   0.53264   0.61021   1.000
    C58     C    0.52857   0.51583   0.55203   1.000
    C59     C    0.50163   0.47989   0.55760   1.000
    C60     C    0.52646   0.53559   0.49400   1.000
    C61     C    0.91808   0.62886   0.18600   1.000
    C62     C    0.87790   0.61420   0.18820   1.000
    C63     C    0.89040   0.64120   0.18490   1.000
    Zn4     Zn   0.59918   0.97084   0.16023   1.000
    O22     O    0.59619   0.88942   0.15717   1.000
    O23     O    0.61283   0.94265   0.09399   1.000
    O24     O    0.51173   0.95224   0.16302   1.000
    O25     O    0.56691   0.98294   0.10144   1.000
    O26     O    0.62723   0.64351   0.68624   1.000
    O27     O    0.57070   0.01990   0.98180   1.000
    O28     O    0.45780   0.95610   0.10750   1.000
    C64     C    0.60719   0.90969   0.09916   1.000
    C65     C    0.61327   0.89362   0.02820   1.000
    C66     C    0.63028   0.91707   0.96532   1.000
    C67     C    0.63318   0.90049   0.89727   1.000
    C68     C    0.62102   0.86277   0.89234   1.000
    C69     C    0.60511   0.83977   0.95728   1.000
    C70     C    0.60196   0.85548   0.02720   1.000
    C71     C    0.62299   0.84550   0.81898   1.000
    C72     C    0.62593   0.81317   0.82073   1.000
    C73     C    0.42519   0.80645   0.22180   1.000
    C74     C    0.39433   0.77069   0.22380   1.000
    C75     C    0.39740   0.74152   0.25160   1.000
    C76     C    0.43136   0.74815   0.28490   1.000
    C77     C    0.46221   0.78391   0.28290   1.000
    C78     C    0.53264   0.97263   0.11021   1.000
    C79     C    0.51583   0.98726   0.05203   1.000
    C80     C    0.47989   0.97826   0.05760   1.000
    C81     C    0.53559   0.00913   0.99400   1.000
    C82     C    0.62886   0.71078   0.68600   1.000
    C83     C    0.61420   0.73630   0.68820   1.000
    C84     C    0.64120   0.75080   0.68490   1.000
    Zn5     Zn   0.02916   0.62834   0.16023   1.000
    O29     O    0.11058   0.70677   0.15717   1.000
    O30     O    0.05735   0.67018   0.09399   1.000
    O31     O    0.04776   0.55949   0.16302   1.000
    O32     O    0.01706   0.58397   0.10144   1.000
    O33     O    0.35649   0.98372   0.68624   1.000
    O34     O    0.98010   0.55080   0.98180   1.000
    O35     O    0.04390   0.50170   0.10750   1.000
    C85     C    0.09031   0.69750   0.09916   1.000
    C86     C    0.10638   0.71965   0.02820   1.000
    C87     C    0.08293   0.71321   0.96532   1.000
    C88     C    0.09951   0.73269   0.89727   1.000
    C89     C    0.13723   0.75825   0.89234   1.000
    C90     C    0.16023   0.76534   0.95728   1.000
    C91     C    0.14452   0.74648   0.02720   1.000
    C92     C    0.15450   0.77749   0.81898   1.000
    C93     C    0.18683   0.81276   0.82073   1.000
    C94     C    0.19355   0.61874   0.22180   1.000
    C95     C    0.22931   0.62364   0.22380   1.000
    C96     C    0.25848   0.65588   0.25160   1.000
    C97     C    0.25185   0.68321   0.28490   1.000
    C98     C    0.21609   0.67830   0.28290   1.000
    C99     C    0.02737   0.56001   0.11021   1.000
    C100    C    0.01274   0.52857   0.05203   1.000
    C101    C    0.02174   0.50163   0.05760   1.000
    C102    C    0.99087   0.52646   0.99400   1.000
    C103    C    0.28922   0.91808   0.68600   1.000
    C104    C    0.26370   0.87790   0.68820   1.000
    C105    C    0.24920   0.89040   0.68490   1.000
    Zn6     Zn   0.37166   0.40082   0.16023   1.000
    O36     O    0.29323   0.40381   0.15717   1.000
    O37     O    0.32982   0.38717   0.09399   1.000
    O38     O    0.44051   0.48827   0.16302   1.000
    O39     O    0.41603   0.43309   0.10144   1.000
    O40     O    0.01628   0.37277   0.68624   1.000
    O41     O    0.44920   0.42930   0.98180   1.000
    O42     O    0.49830   0.54220   0.10750   1.000
    C106    C    0.30250   0.39281   0.09916   1.000
    C107    C    0.28035   0.38673   0.02820   1.000
    C108    C    0.28679   0.36972   0.96532   1.000
    C109    C    0.26731   0.36682   0.89727   1.000
    C110    C    0.24175   0.37898   0.89234   1.000
    C111    C    0.23466   0.39489   0.95728   1.000
    C112    C    0.25352   0.39804   0.02720   1.000
    C113    C    0.22251   0.37701   0.81898   1.000
    C114    C    0.18724   0.37407   0.82073   1.000
    C115    C    0.38126   0.57481   0.22180   1.000
    C116    C    0.37636   0.60567   0.22380   1.000
    C117    C    0.34412   0.60260   0.25160   1.000
    C118    C    0.31679   0.56864   0.28490   1.000
    C119    C    0.32170   0.53779   0.28290   1.000
    C120    C    0.43999   0.46736   0.11021   1.000
    C121    C    0.47143   0.48417   0.05203   1.000
    C122    C    0.49837   0.52011   0.05760   1.000
    C123    C    0.47354   0.46441   0.99400   1.000
    C124    C    0.08192   0.37114   0.68600   1.000
    C125    C    0.12210   0.38580   0.68820   1.000
    C126    C    0.10960   0.35880   0.68490   1.000
    Zn7     Zn   0.59918   0.97084   0.33977   1.000
    O43     O    0.59619   0.88942   0.34283   1.000
    O44     O    0.61283   0.94265   0.40601   1.000
    O45     O    0.51173   0.95224   0.33698   1.000
    O46     O    0.56691   0.98294   0.39856   1.000
    O47     O    0.62723   0.64351   0.81376   1.000
    O48     O    0.57070   0.01990   0.51820   1.000
    O49     O    0.45780   0.95610   0.39250   1.000
    C127    C    0.60719   0.90969   0.40084   1.000
    C128    C    0.61327   0.89362   0.47180   1.000
    C129    C    0.63028   0.91707   0.53468   1.000
    C130    C    0.63318   0.90049   0.60273   1.000
    C131    C    0.62102   0.86277   0.60766   1.000
    C132    C    0.60511   0.83977   0.54272   1.000
    C133    C    0.60196   0.85548   0.47280   1.000
    C134    C    0.62299   0.84550   0.68102   1.000
    C135    C    0.62593   0.81317   0.67927   1.000
    C136    C    0.42519   0.80645   0.27820   1.000
    C137    C    0.39433   0.77069   0.27620   1.000
    C138    C    0.39740   0.74152   0.24840   1.000
    C139    C    0.43136   0.74815   0.21510   1.000
    C140    C    0.46221   0.78391   0.21710   1.000
    C141    C    0.53264   0.97263   0.38979   1.000
    C142    C    0.51583   0.98726   0.44797   1.000
    C143    C    0.47989   0.97826   0.44240   1.000
    C144    C    0.53559   0.00913   0.50600   1.000
    C145    C    0.62886   0.71078   0.81400   1.000
    C146    C    0.61420   0.73630   0.81180   1.000
    C147    C    0.64120   0.75080   0.81510   1.000
    Zn8     Zn   0.02916   0.62834   0.33977   1.000
    O50     O    0.11058   0.70677   0.34283   1.000
    O51     O    0.05735   0.67018   0.40601   1.000
    O52     O    0.04776   0.55949   0.33698   1.000
    O53     O    0.01706   0.58397   0.39856   1.000
    O54     O    0.35649   0.98372   0.81376   1.000
    O55     O    0.98010   0.55080   0.51820   1.000
    O56     O    0.04390   0.50170   0.39250   1.000
    C148    C    0.09031   0.69750   0.40084   1.000
    C149    C    0.10638   0.71965   0.47180   1.000
    C150    C    0.08293   0.71321   0.53468   1.000
    C151    C    0.09951   0.73269   0.60273   1.000
    C152    C    0.13723   0.75825   0.60766   1.000
    C153    C    0.16023   0.76534   0.54272   1.000
    C154    C    0.14452   0.74648   0.47280   1.000
    C155    C    0.15450   0.77749   0.68102   1.000
    C156    C    0.18683   0.81276   0.67927   1.000
    C157    C    0.19355   0.61874   0.27820   1.000
    C158    C    0.22931   0.62364   0.27620   1.000
    C159    C    0.25848   0.65588   0.24840   1.000
    C160    C    0.25185   0.68321   0.21510   1.000
    C161    C    0.21609   0.67830   0.21710   1.000
    C162    C    0.02737   0.56001   0.38979   1.000
    C163    C    0.01274   0.52857   0.44797   1.000
    C164    C    0.02174   0.50163   0.44240   1.000
    C165    C    0.99087   0.52646   0.50600   1.000
    C166    C    0.28922   0.91808   0.81400   1.000
    C167    C    0.26370   0.87790   0.81180   1.000
    C168    C    0.24920   0.89040   0.81510   1.000
    Zn9     Zn   0.37166   0.40082   0.33977   1.000
    O57     O    0.29323   0.40381   0.34283   1.000
    O58     O    0.32982   0.38717   0.40601   1.000
    O59     O    0.44051   0.48827   0.33698   1.000
    O60     O    0.41603   0.43309   0.39856   1.000
    O61     O    0.01628   0.37277   0.81376   1.000
    O62     O    0.44920   0.42930   0.51820   1.000
    O63     O    0.49830   0.54220   0.39250   1.000
    C169    C    0.30250   0.39281   0.40084   1.000
    C170    C    0.28035   0.38673   0.47180   1.000
    C171    C    0.28679   0.36972   0.53468   1.000
    C172    C    0.26731   0.36682   0.60273   1.000
    C173    C    0.24175   0.37898   0.60766   1.000
    C174    C    0.23466   0.39489   0.54272   1.000
    C175    C    0.25352   0.39804   0.47280   1.000
    C176    C    0.22251   0.37701   0.68102   1.000
    C177    C    0.18724   0.37407   0.67927   1.000
    C178    C    0.38126   0.57481   0.27820   1.000
    C179    C    0.37636   0.60567   0.27620   1.000
    C180    C    0.34412   0.60260   0.24840   1.000
    C181    C    0.31679   0.56864   0.21510   1.000
    C182    C    0.32170   0.53779   0.21710   1.000
    C183    C    0.43999   0.46736   0.38979   1.000
    C184    C    0.47143   0.48417   0.44797   1.000
    C185    C    0.49837   0.52011   0.44240   1.000
    C186    C    0.47354   0.46441   0.50600   1.000
    C187    C    0.08192   0.37114   0.81400   1.000
    C188    C    0.12210   0.38580   0.81180   1.000
    C189    C    0.10960   0.35880   0.81510   1.000
    Zn10    Zn   0.40082   0.02916   0.83977   1.000
    O64     O    0.40381   0.11058   0.84283   1.000
    O65     O    0.38717   0.05735   0.90601   1.000
    O66     O    0.48827   0.04776   0.83698   1.000
    O67     O    0.43309   0.01706   0.89856   1.000
    O68     O    0.37277   0.35649   0.31376   1.000
    O69     O    0.42930   0.98010   0.01820   1.000
    O70     O    0.54220   0.04390   0.89250   1.000
    C190    C    0.39281   0.09031   0.90084   1.000
    C191    C    0.38673   0.10638   0.97180   1.000
    C192    C    0.36972   0.08293   0.03468   1.000
    C193    C    0.36682   0.09951   0.10273   1.000
    C194    C    0.37898   0.13723   0.10766   1.000
    C195    C    0.39489   0.16023   0.04272   1.000
    C196    C    0.39804   0.14452   0.97280   1.000
    C197    C    0.37701   0.15450   0.18102   1.000
    C198    C    0.37407   0.18683   0.17927   1.000
    C199    C    0.57481   0.19355   0.77820   1.000
    C200    C    0.60567   0.22931   0.77620   1.000
    C201    C    0.60260   0.25848   0.74840   1.000
    C202    C    0.56864   0.25185   0.71510   1.000
    C203    C    0.53779   0.21609   0.71710   1.000
    C204    C    0.46736   0.02737   0.88979   1.000
    C205    C    0.48417   0.01274   0.94797   1.000
    C206    C    0.52011   0.02174   0.94240   1.000
    C207    C    0.46441   0.99087   0.00600   1.000
    C208    C    0.37114   0.28922   0.31400   1.000
    C209    C    0.38580   0.26370   0.31180   1.000
    C210    C    0.35880   0.24920   0.31510   1.000
    Zn11    Zn   0.97084   0.37166   0.83977   1.000
    O71     O    0.88942   0.29323   0.84283   1.000
    O72     O    0.94265   0.32982   0.90601   1.000
    O73     O    0.95224   0.44051   0.83698   1.000
    O74     O    0.98294   0.41603   0.89856   1.000
    O75     O    0.64351   0.01628   0.31376   1.000
    O76     O    0.01990   0.44920   0.01820   1.000
    O77     O    0.95610   0.49830   0.89250   1.000
    C211    C    0.90969   0.30250   0.90084   1.000
    C212    C    0.89362   0.28035   0.97180   1.000
    C213    C    0.91707   0.28679   0.03468   1.000
    C214    C    0.90049   0.26731   0.10273   1.000
    C215    C    0.86277   0.24175   0.10766   1.000
    C216    C    0.83977   0.23466   0.04272   1.000
    C217    C    0.85548   0.25352   0.97280   1.000
    C218    C    0.84550   0.22251   0.18102   1.000
    C219    C    0.81317   0.18724   0.17927   1.000
    C220    C    0.80645   0.38126   0.77820   1.000
    C221    C    0.77069   0.37636   0.77620   1.000
    C222    C    0.74152   0.34412   0.74840   1.000
    C223    C    0.74815   0.31679   0.71510   1.000
    C224    C    0.78391   0.32170   0.71710   1.000
    C225    C    0.97263   0.43999   0.88979   1.000
    C226    C    0.98726   0.47143   0.94797   1.000
    C227    C    0.97826   0.49837   0.94240   1.000
    C228    C    0.00913   0.47354   0.00600   1.000
    C229    C    0.71078   0.08192   0.31400   1.000
    C230    C    0.73630   0.12210   0.31180   1.000
    C231    C    0.75080   0.10960   0.31510   1.000
    Zn12    Zn   0.62834   0.59918   0.83977   1.000
    O78     O    0.70677   0.59619   0.84283   1.000
    O79     O    0.67018   0.61283   0.90601   1.000
    O80     O    0.55949   0.51173   0.83698   1.000
    O81     O    0.58397   0.56691   0.89856   1.000
    O82     O    0.98372   0.62723   0.31376   1.000
    O83     O    0.55080   0.57070   0.01820   1.000
    O84     O    0.50170   0.45780   0.89250   1.000
    C232    C    0.69750   0.60719   0.90084   1.000
    C233    C    0.71965   0.61327   0.97180   1.000
    C234    C    0.71321   0.63028   0.03468   1.000
    C235    C    0.73269   0.63318   0.10273   1.000
    C236    C    0.75825   0.62102   0.10766   1.000
    C237    C    0.76534   0.60511   0.04272   1.000
    C238    C    0.74648   0.60196   0.97280   1.000
    C239    C    0.77749   0.62299   0.18102   1.000
    C240    C    0.81276   0.62593   0.17927   1.000
    C241    C    0.61874   0.42519   0.77820   1.000
    C242    C    0.62364   0.39433   0.77620   1.000
    C243    C    0.65588   0.39740   0.74840   1.000
    C244    C    0.68321   0.43136   0.71510   1.000
    C245    C    0.67830   0.46221   0.71710   1.000
    C246    C    0.56001   0.53264   0.88979   1.000
    C247    C    0.52857   0.51583   0.94797   1.000
    C248    C    0.50163   0.47989   0.94240   1.000
    C249    C    0.52646   0.53559   0.00600   1.000
    C250    C    0.91808   0.62886   0.31400   1.000
    C251    C    0.87790   0.61420   0.31180   1.000
    C252    C    0.89040   0.64120   0.31510   1.000
    Zn13    Zn   0.47779   0.06944   0.75000   1.000
    Zn14    Zn   0.42543   0.10484   0.75000   1.000
    O85     O    0.42657   0.05822   0.75000   1.000
    O86     O    0.51310   0.12259   0.75000   1.000
    O87     O    0.47593   0.14609   0.75000   1.000
    C253    C    0.50711   0.14944   0.75000   1.000
    C254    C    0.54088   0.18695   0.75000   1.000
    C255    C    0.63549   0.29761   0.75000   1.000
    C256    C    0.67165   0.30242   0.75000   1.000
    Zn15    Zn   0.93056   0.40835   0.75000   1.000
    Zn16    Zn   0.89516   0.32059   0.75000   1.000
    O88     O    0.94178   0.36835   0.75000   1.000
    O89     O    0.87741   0.39051   0.75000   1.000
    O90     O    0.85391   0.32984   0.75000   1.000
    C257    C    0.85056   0.35767   0.75000   1.000
    C258    C    0.81305   0.35393   0.75000   1.000
    C259    C    0.70239   0.33788   0.75000   1.000
    C260    C    0.69758   0.36923   0.75000   1.000
    Zn17    Zn   0.59165   0.52221   0.75000   1.000
    Zn18    Zn   0.67941   0.57457   0.75000   1.000
    O91     O    0.63165   0.57343   0.75000   1.000
    O92     O    0.60949   0.48690   0.75000   1.000
    O93     O    0.67016   0.52407   0.75000   1.000
    C261    C    0.64233   0.49289   0.75000   1.000
    C262    C    0.64607   0.45912   0.75000   1.000
    C263    C    0.66212   0.36451   0.75000   1.000
    C264    C    0.63077   0.32835   0.75000   1.000
    Zn19    Zn   0.52221   0.93056   0.25000   1.000
    Zn20    Zn   0.57457   0.89516   0.25000   1.000
    O94     O    0.57343   0.94178   0.25000   1.000
    O95     O    0.48690   0.87741   0.25000   1.000
    O96     O    0.52407   0.85391   0.25000   1.000
    C265    C    0.49289   0.85056   0.25000   1.000
    C266    C    0.45912   0.81305   0.25000   1.000
    C267    C    0.36451   0.70239   0.25000   1.000
    C268    C    0.32835   0.69758   0.25000   1.000
    Zn21    Zn   0.06944   0.59165   0.25000   1.000
    Zn22    Zn   0.10484   0.67941   0.25000   1.000
    O97     O    0.05822   0.63165   0.25000   1.000
    O98     O    0.12259   0.60949   0.25000   1.000
    O99     O    0.14609   0.67016   0.25000   1.000
    C269    C    0.14944   0.64233   0.25000   1.000
    C270    C    0.18695   0.64607   0.25000   1.000
    C271    C    0.29761   0.66212   0.25000   1.000
    C272    C    0.30242   0.63077   0.25000   1.000
    Zn23    Zn   0.40835   0.47779   0.25000   1.000
    Zn24    Zn   0.32059   0.42543   0.25000   1.000
    O100    O    0.36835   0.42657   0.25000   1.000
    O101    O    0.39051   0.51310   0.25000   1.000
    O102    O    0.32984   0.47593   0.25000   1.000
    C273    C    0.35767   0.50711   0.25000   1.000
    C274    C    0.35393   0.54088   0.25000   1.000
    C275    C    0.33788   0.63549   0.25000   1.000
    C276    C    0.36923   0.67165   0.25000   1.000
    C277    C    0.37271   0.20276   0.25000   1.000
    C278    C    0.37844   0.13862   0.25000   1.000
    C279    C    0.37249   0.34243   0.25000   1.000
    C280    C    0.37156   0.30607   0.25000   1.000
    C281    C    0.37217   0.23864   0.25000   1.000
    C282    C    0.79724   0.16995   0.25000   1.000
    C283    C    0.86138   0.23982   0.25000   1.000
    C284    C    0.65757   0.03006   0.25000   1.000
    C285    C    0.69393   0.06549   0.25000   1.000
    C286    C    0.76136   0.13353   0.25000   1.000
    C287    C    0.83005   0.62729   0.25000   1.000
    C288    C    0.76018   0.62156   0.25000   1.000
    C289    C    0.96994   0.62751   0.25000   1.000
    C290    C    0.93451   0.62844   0.25000   1.000
    C291    C    0.86647   0.62783   0.25000   1.000
    C292    C    0.62729   0.79724   0.75000   1.000
    C293    C    0.62156   0.86138   0.75000   1.000
    C294    C    0.62751   0.65757   0.75000   1.000
    C295    C    0.62844   0.69393   0.75000   1.000
    C296    C    0.62783   0.76136   0.75000   1.000
    C297    C    0.20276   0.83005   0.75000   1.000
    C298    C    0.13862   0.76018   0.75000   1.000
    C299    C    0.34243   0.96994   0.75000   1.000
    C300    C    0.30607   0.93451   0.75000   1.000
    C301    C    0.23864   0.86647   0.75000   1.000
    C302    C    0.16995   0.37271   0.75000   1.000
    C303    C    0.23982   0.37844   0.75000   1.000
    C304    C    0.03006   0.37249   0.75000   1.000
    C305    C    0.06549   0.37156   0.75000   1.000
    C306    C    0.13353   0.37217   0.75000   1.000
