# CIF file generated by openbabel 2.4.1, see http://openbabel.sf.net
data_I
_chemical_name_common 'image0'
_cell_length_a 27.373
_cell_length_b 27.373
_cell_length_c 18.5827
_cell_angle_alpha 90
_cell_angle_beta 90
_cell_angle_gamma 90
_space_group_name_H-M_alt 'P 1'
_space_group_name_Hall 'P 1'
loop_
    _symmetry_equiv_pos_as_xyz
    x,y,z
loop_
    _atom_site_label
    _atom_site_type_symbol
    _atom_site_fract_x
    _atom_site_fract_y
    _atom_site_fract_z
    _atom_site_occupancy
    Zn1     Zn   0.26412   0.10989   0.42238   1.000
    Zn2     Zn   0.26369   0.10911   0.74412   1.000
    N1      N    0.31930   0.12810   0.80470   1.000
    C1      C    0.32550   0.17050   0.83580   1.000
    H1      H    0.30090   0.19500   0.83660   1.000
    N2      N    0.37040   0.17690   0.86710   1.000
    C2      C    0.39640   0.13570   0.84980   1.000
    H2      H    0.42950   0.12910   0.86190   1.000
    C3      C    0.36590   0.10620   0.81220   1.000
    H3      H    0.37460   0.07510   0.79340   1.000
    N3      N    0.28020   0.12510   0.63340   1.000
    C4      C    0.26050   0.10150   0.57190   1.000
    H4      H    0.23730   0.07560   0.57220   1.000
    N4      N    0.28150   0.12330   0.50980   1.000
    C5      C    0.31420   0.16040   0.53300   1.000
    H5      H    0.33320   0.18090   0.50280   1.000
    C6      C    0.31340   0.16150   0.60940   1.000
    H6      H    0.33180   0.18280   0.63920   1.000
    N5      N    0.28170   0.12110   0.65180   1.000
    C7      C    0.25750   0.10780   0.58710   1.000
    H7      H    0.22870   0.08850   0.58360   1.000
    N6      N    0.28390   0.12820   0.52860   1.000
    C8      C    0.32440   0.15420   0.55720   1.000
    H8      H    0.34830   0.17140   0.53010   1.000
    C9      C    0.32310   0.14980   0.63330   1.000
    H9      H    0.34580   0.16370   0.66610   1.000
    N7      N    0.20507   0.14923   0.77920   1.000
    C10     C    0.18460   0.14650   0.84490   1.000
    H10     H    0.19280   0.12480   0.88290   1.000
    N8      N    0.23670   0.04090   0.76360   1.000
    C11     C    0.26810   0.00240   0.74120   1.000
    H11     H    0.30160   0.00560   0.72890   1.000
    N9      N    0.24050   0.95850   0.74050   1.000
    C12     C    0.19210   0.96980   0.76240   1.000
    H12     H    0.16590   0.94720   0.76670   1.000
    C13     C    0.18980   0.02070   0.77670   1.000
    H13     H    0.16170   0.03810   0.79230   1.000
    N10     N    0.25690   0.03910   0.39890   1.000
    C14     C    0.25970   0.99510   0.43920   1.000
    H14     H    0.25920   0.99240   0.49010   1.000
    N11     N    0.26350   0.95560   0.38980   1.000
    C15     C    0.26300   0.97530   0.31910   1.000
    H15     H    0.26500   0.95710   0.27560   1.000
    C16     C    0.25890   0.02680   0.32470   1.000
    H16     H    0.25770   0.04920   0.28570   1.000
    N12     N    0.20510   0.14290   0.39010   1.000
    C17     C    0.19210   0.18430   0.43190   1.000
    H17     H    0.20420   0.19210   0.47840   1.000
    N13     N    0.15770   0.21210   0.39200   1.000
    C18     C    0.14950   0.18790   0.32550   1.000
    H18     H    0.12810   0.19850   0.28830   1.000
    C19     C    0.17880   0.14510   0.32430   1.000
    H19     H    0.18050   0.12210   0.28620   1.000
    Zn3     Zn   0.76412   0.60989   0.92238   1.000
    Zn4     Zn   0.76369   0.60911   0.24412   1.000
    N14     N    0.81930   0.62810   0.30470   1.000
    C20     C    0.82550   0.67050   0.33580   1.000
    H20     H    0.80090   0.69500   0.33660   1.000
    N15     N    0.87040   0.67690   0.36710   1.000
    C21     C    0.89640   0.63570   0.34980   1.000
    H21     H    0.92950   0.62910   0.36190   1.000
    C22     C    0.86590   0.60620   0.31220   1.000
    H22     H    0.87460   0.57510   0.29340   1.000
    N16     N    0.78020   0.62510   0.13340   1.000
    C23     C    0.76050   0.60150   0.07190   1.000
    H23     H    0.73730   0.57560   0.07220   1.000
    N17     N    0.78150   0.62330   0.00980   1.000
    C24     C    0.81420   0.66040   0.03300   1.000
    H24     H    0.83320   0.68090   0.00280   1.000
    C25     C    0.81340   0.66150   0.10940   1.000
    H25     H    0.83180   0.68280   0.13920   1.000
    N18     N    0.78170   0.62110   0.15180   1.000
    C26     C    0.75750   0.60780   0.08710   1.000
    H26     H    0.72870   0.58850   0.08360   1.000
    N19     N    0.78390   0.62820   0.02860   1.000
    C27     C    0.82440   0.65420   0.05720   1.000
    H27     H    0.84830   0.67140   0.03010   1.000
    C28     C    0.82310   0.64980   0.13330   1.000
    H28     H    0.84580   0.66370   0.16610   1.000
    N20     N    0.70507   0.64923   0.27920   1.000
    C29     C    0.68460   0.64650   0.34490   1.000
    H29     H    0.69280   0.62480   0.38290   1.000
    N21     N    0.73670   0.54090   0.26360   1.000
    C30     C    0.76810   0.50240   0.24120   1.000
    H30     H    0.80160   0.50560   0.22890   1.000
    N22     N    0.74050   0.45850   0.24050   1.000
    C31     C    0.69210   0.46980   0.26240   1.000
    H31     H    0.66590   0.44720   0.26670   1.000
    C32     C    0.68980   0.52070   0.27670   1.000
    H32     H    0.66170   0.53810   0.29230   1.000
    N23     N    0.75690   0.53910   0.89890   1.000
    C33     C    0.75970   0.49510   0.93920   1.000
    H33     H    0.75920   0.49240   0.99010   1.000
    N24     N    0.76350   0.45560   0.88980   1.000
    C34     C    0.76300   0.47530   0.81910   1.000
    H34     H    0.76500   0.45710   0.77560   1.000
    C35     C    0.75890   0.52680   0.82470   1.000
    H35     H    0.75770   0.54920   0.78570   1.000
    N25     N    0.70510   0.64290   0.89010   1.000
    C36     C    0.69210   0.68430   0.93190   1.000
    H36     H    0.70420   0.69210   0.97840   1.000
    N26     N    0.65770   0.71210   0.89200   1.000
    C37     C    0.64950   0.68790   0.82550   1.000
    H37     H    0.62810   0.69850   0.78830   1.000
    C38     C    0.67880   0.64510   0.82430   1.000
    H38     H    0.68050   0.62210   0.78620   1.000
    Zn5     Zn   0.73588   0.89011   0.42238   1.000
    Zn6     Zn   0.73631   0.89089   0.74412   1.000
    N27     N    0.68070   0.87190   0.80470   1.000
    C39     C    0.67450   0.82950   0.83580   1.000
    H39     H    0.69910   0.80500   0.83660   1.000
    N28     N    0.62960   0.82310   0.86710   1.000
    C40     C    0.60360   0.86430   0.84980   1.000
    H40     H    0.57050   0.87090   0.86190   1.000
    C41     C    0.63410   0.89380   0.81220   1.000
    H41     H    0.62540   0.92490   0.79340   1.000
    N29     N    0.71980   0.87490   0.63340   1.000
    C42     C    0.73950   0.89850   0.57190   1.000
    H42     H    0.76270   0.92440   0.57220   1.000
    N30     N    0.71850   0.87670   0.50980   1.000
    C43     C    0.68580   0.83960   0.53300   1.000
    H43     H    0.66680   0.81910   0.50280   1.000
    C44     C    0.68660   0.83850   0.60940   1.000
    H44     H    0.66820   0.81720   0.63920   1.000
    N31     N    0.71830   0.87890   0.65180   1.000
    C45     C    0.74250   0.89220   0.58710   1.000
    H45     H    0.77130   0.91150   0.58360   1.000
    N32     N    0.71610   0.87180   0.52860   1.000
    C46     C    0.67560   0.84580   0.55720   1.000
    H46     H    0.65170   0.82860   0.53010   1.000
    C47     C    0.67690   0.85020   0.63330   1.000
    H47     H    0.65420   0.83630   0.66610   1.000
    N33     N    0.79493   0.85077   0.77920   1.000
    C48     C    0.81540   0.85350   0.84490   1.000
    H48     H    0.80720   0.87520   0.88290   1.000
    N34     N    0.76330   0.95910   0.76360   1.000
    C49     C    0.73190   0.99760   0.74120   1.000
    H49     H    0.69840   0.99440   0.72890   1.000
    N35     N    0.75950   0.04150   0.74050   1.000
    C50     C    0.80790   0.03020   0.76240   1.000
    H50     H    0.83410   0.05280   0.76670   1.000
    C51     C    0.81020   0.97930   0.77670   1.000
    H51     H    0.83830   0.96190   0.79230   1.000
    N36     N    0.74310   0.96090   0.39890   1.000
    C52     C    0.74030   0.00490   0.43920   1.000
    H52     H    0.74080   0.00760   0.49010   1.000
    N37     N    0.73650   0.04440   0.38980   1.000
    C53     C    0.73700   0.02470   0.31910   1.000
    H53     H    0.73500   0.04290   0.27560   1.000
    C54     C    0.74110   0.97320   0.32470   1.000
    H54     H    0.74230   0.95080   0.28570   1.000
    N38     N    0.79490   0.85710   0.39010   1.000
    C55     C    0.80790   0.81570   0.43190   1.000
    H55     H    0.79580   0.80790   0.47840   1.000
    N39     N    0.84230   0.78790   0.39200   1.000
    C56     C    0.85050   0.81210   0.32550   1.000
    H56     H    0.87190   0.80150   0.28830   1.000
    C57     C    0.82120   0.85490   0.32430   1.000
    H57     H    0.81950   0.87790   0.28620   1.000
    Zn7     Zn   0.23588   0.39011   0.92238   1.000
    Zn8     Zn   0.23631   0.39089   0.24412   1.000
    N40     N    0.18070   0.37190   0.30470   1.000
    C58     C    0.17450   0.32950   0.33580   1.000
    H58     H    0.19910   0.30500   0.33660   1.000
    N41     N    0.12960   0.32310   0.36710   1.000
    C59     C    0.10360   0.36430   0.34980   1.000
    H59     H    0.07050   0.37090   0.36190   1.000
    C60     C    0.13410   0.39380   0.31220   1.000
    H60     H    0.12540   0.42490   0.29340   1.000
    N42     N    0.21980   0.37490   0.13340   1.000
    C61     C    0.23950   0.39850   0.07190   1.000
    H61     H    0.26270   0.42440   0.07220   1.000
    N43     N    0.21850   0.37670   0.00980   1.000
    C62     C    0.18580   0.33960   0.03300   1.000
    H62     H    0.16680   0.31910   0.00280   1.000
    C63     C    0.18660   0.33850   0.10940   1.000
    H63     H    0.16820   0.31720   0.13920   1.000
    N44     N    0.21830   0.37890   0.15180   1.000
    C64     C    0.24250   0.39220   0.08710   1.000
    H64     H    0.27130   0.41150   0.08360   1.000
    N45     N    0.21610   0.37180   0.02860   1.000
    C65     C    0.17560   0.34580   0.05720   1.000
    H65     H    0.15170   0.32860   0.03010   1.000
    C66     C    0.17690   0.35020   0.13330   1.000
    H66     H    0.15420   0.33630   0.16610   1.000
    N46     N    0.29493   0.35077   0.27920   1.000
    C67     C    0.31540   0.35350   0.34490   1.000
    H67     H    0.30720   0.37520   0.38290   1.000
    N47     N    0.26330   0.45910   0.26360   1.000
    C68     C    0.23190   0.49760   0.24120   1.000
    H68     H    0.19840   0.49440   0.22890   1.000
    N48     N    0.25950   0.54150   0.24050   1.000
    C69     C    0.30790   0.53020   0.26240   1.000
    H69     H    0.33410   0.55280   0.26670   1.000
    C70     C    0.31020   0.47930   0.27670   1.000
    H70     H    0.33830   0.46190   0.29230   1.000
    N49     N    0.24310   0.46090   0.89890   1.000
    C71     C    0.24030   0.50490   0.93920   1.000
    H71     H    0.24080   0.50760   0.99010   1.000
    N50     N    0.23650   0.54440   0.88980   1.000
    C72     C    0.23700   0.52470   0.81910   1.000
    H72     H    0.23500   0.54290   0.77560   1.000
    C73     C    0.24110   0.47320   0.82470   1.000
    H73     H    0.24230   0.45080   0.78570   1.000
    N51     N    0.29490   0.35710   0.89010   1.000
    C74     C    0.30790   0.31570   0.93190   1.000
    H74     H    0.29580   0.30790   0.97840   1.000
    N52     N    0.34230   0.28790   0.89200   1.000
    C75     C    0.35050   0.31210   0.82550   1.000
    H75     H    0.37190   0.30150   0.78830   1.000
    C76     C    0.32120   0.35490   0.82430   1.000
    H76     H    0.31950   0.37790   0.78620   1.000
    Zn9     Zn   0.89011   0.26412   0.42238   1.000
    Zn10    Zn   0.89089   0.26369   0.74412   1.000
    N53     N    0.87190   0.31930   0.80470   1.000
    C77     C    0.82950   0.32550   0.83580   1.000
    H77     H    0.80500   0.30090   0.83660   1.000
    N54     N    0.82310   0.37040   0.86710   1.000
    C78     C    0.86430   0.39640   0.84980   1.000
    H78     H    0.87090   0.42950   0.86190   1.000
    C79     C    0.89380   0.36590   0.81220   1.000
    H79     H    0.92490   0.37460   0.79340   1.000
    N55     N    0.87490   0.28020   0.63340   1.000
    C80     C    0.89850   0.26050   0.57190   1.000
    H80     H    0.92440   0.23730   0.57220   1.000
    N56     N    0.87670   0.28150   0.50980   1.000
    C81     C    0.83960   0.31420   0.53300   1.000
    H81     H    0.81910   0.33320   0.50280   1.000
    C82     C    0.83850   0.31340   0.60940   1.000
    H82     H    0.81720   0.33180   0.63920   1.000
    N57     N    0.87890   0.28170   0.65180   1.000
    C83     C    0.89220   0.25750   0.58710   1.000
    H83     H    0.91150   0.22870   0.58360   1.000
    N58     N    0.87180   0.28390   0.52860   1.000
    C84     C    0.84580   0.32440   0.55720   1.000
    H84     H    0.82860   0.34830   0.53010   1.000
    C85     C    0.85020   0.32310   0.63330   1.000
    H85     H    0.83630   0.34580   0.66610   1.000
    N59     N    0.85077   0.20507   0.77920   1.000
    C86     C    0.85350   0.18460   0.84490   1.000
    H86     H    0.87520   0.19280   0.88290   1.000
    N60     N    0.95910   0.23670   0.76360   1.000
    C87     C    0.99760   0.26810   0.74120   1.000
    H87     H    0.99440   0.30160   0.72890   1.000
    N61     N    0.04150   0.24050   0.74050   1.000
    C88     C    0.03020   0.19210   0.76240   1.000
    H88     H    0.05280   0.16590   0.76670   1.000
    C89     C    0.97930   0.18980   0.77670   1.000
    H89     H    0.96190   0.16170   0.79230   1.000
    N62     N    0.96090   0.25690   0.39890   1.000
    C90     C    0.00490   0.25970   0.43920   1.000
    H90     H    0.00760   0.25920   0.49010   1.000
    N63     N    0.04440   0.26350   0.38980   1.000
    C91     C    0.02470   0.26300   0.31910   1.000
    H91     H    0.04290   0.26500   0.27560   1.000
    C92     C    0.97320   0.25890   0.32470   1.000
    H92     H    0.95080   0.25770   0.28570   1.000
    N64     N    0.85710   0.20510   0.39010   1.000
    C93     C    0.81570   0.19210   0.43190   1.000
    H93     H    0.80790   0.20420   0.47840   1.000
    N65     N    0.78790   0.15770   0.39200   1.000
    C94     C    0.81210   0.14950   0.32550   1.000
    H94     H    0.80150   0.12810   0.28830   1.000
    C95     C    0.85490   0.17880   0.32430   1.000
    H95     H    0.87790   0.18050   0.28620   1.000
    Zn11    Zn   0.39011   0.76412   0.92238   1.000
    Zn12    Zn   0.39089   0.76369   0.24412   1.000
    N66     N    0.37190   0.81930   0.30470   1.000
    C96     C    0.32950   0.82550   0.33580   1.000
    H96     H    0.30500   0.80090   0.33660   1.000
    N67     N    0.32310   0.87040   0.36710   1.000
    C97     C    0.36430   0.89640   0.34980   1.000
    H97     H    0.37090   0.92950   0.36190   1.000
    C98     C    0.39380   0.86590   0.31220   1.000
    H98     H    0.42490   0.87460   0.29340   1.000
    N68     N    0.37490   0.78020   0.13340   1.000
    C99     C    0.39850   0.76050   0.07190   1.000
    H99     H    0.42440   0.73730   0.07220   1.000
    N69     N    0.37670   0.78150   0.00980   1.000
    C100    C    0.33960   0.81420   0.03300   1.000
    H100    H    0.31910   0.83320   0.00280   1.000
    C101    C    0.33850   0.81340   0.10940   1.000
    H101    H    0.31720   0.83180   0.13920   1.000
    N70     N    0.37890   0.78170   0.15180   1.000
    C102    C    0.39220   0.75750   0.08710   1.000
    H102    H    0.41150   0.72870   0.08360   1.000
    N71     N    0.37180   0.78390   0.02860   1.000
    C103    C    0.34580   0.82440   0.05720   1.000
    H103    H    0.32860   0.84830   0.03010   1.000
    C104    C    0.35020   0.82310   0.13330   1.000
    H104    H    0.33630   0.84580   0.16610   1.000
    N72     N    0.35077   0.70507   0.27920   1.000
    C105    C    0.35350   0.68460   0.34490   1.000
    H105    H    0.37520   0.69280   0.38290   1.000
    N73     N    0.45910   0.73670   0.26360   1.000
    C106    C    0.49760   0.76810   0.24120   1.000
    H106    H    0.49440   0.80160   0.22890   1.000
    N74     N    0.54150   0.74050   0.24050   1.000
    C107    C    0.53020   0.69210   0.26240   1.000
    H107    H    0.55280   0.66590   0.26670   1.000
    C108    C    0.47930   0.68980   0.27670   1.000
    H108    H    0.46190   0.66170   0.29230   1.000
    N75     N    0.46090   0.75690   0.89890   1.000
    C109    C    0.50490   0.75970   0.93920   1.000
    H109    H    0.50760   0.75920   0.99010   1.000
    N76     N    0.54440   0.76350   0.88980   1.000
    C110    C    0.52470   0.76300   0.81910   1.000
    H110    H    0.54290   0.76500   0.77560   1.000
    C111    C    0.47320   0.75890   0.82470   1.000
    H111    H    0.45080   0.75770   0.78570   1.000
    N77     N    0.35710   0.70510   0.89010   1.000
    C112    C    0.31570   0.69210   0.93190   1.000
    H112    H    0.30790   0.70420   0.97840   1.000
    N78     N    0.28790   0.65770   0.89200   1.000
    C113    C    0.31210   0.64950   0.82550   1.000
    H113    H    0.30150   0.62810   0.78830   1.000
    C114    C    0.35490   0.67880   0.82430   1.000
    H114    H    0.37790   0.68050   0.78620   1.000
    Zn13    Zn   0.10989   0.73588   0.42238   1.000
    Zn14    Zn   0.10911   0.73631   0.74412   1.000
    N79     N    0.12810   0.68070   0.80470   1.000
    C115    C    0.17050   0.67450   0.83580   1.000
    H115    H    0.19500   0.69910   0.83660   1.000
    N80     N    0.17690   0.62960   0.86710   1.000
    C116    C    0.13570   0.60360   0.84980   1.000
    H116    H    0.12910   0.57050   0.86190   1.000
    C117    C    0.10620   0.63410   0.81220   1.000
    H117    H    0.07510   0.62540   0.79340   1.000
    N81     N    0.12510   0.71980   0.63340   1.000
    C118    C    0.10150   0.73950   0.57190   1.000
    H118    H    0.07560   0.76270   0.57220   1.000
    N82     N    0.12330   0.71850   0.50980   1.000
    C119    C    0.16040   0.68580   0.53300   1.000
    H119    H    0.18090   0.66680   0.50280   1.000
    C120    C    0.16150   0.68660   0.60940   1.000
    H120    H    0.18280   0.66820   0.63920   1.000
    N83     N    0.12110   0.71830   0.65180   1.000
    C121    C    0.10780   0.74250   0.58710   1.000
    H121    H    0.08850   0.77130   0.58360   1.000
    N84     N    0.12820   0.71610   0.52860   1.000
    C122    C    0.15420   0.67560   0.55720   1.000
    H122    H    0.17140   0.65170   0.53010   1.000
    C123    C    0.14980   0.67690   0.63330   1.000
    H123    H    0.16370   0.65420   0.66610   1.000
    N85     N    0.14923   0.79493   0.77920   1.000
    C124    C    0.14650   0.81540   0.84490   1.000
    H124    H    0.12480   0.80720   0.88290   1.000
    N86     N    0.04090   0.76330   0.76360   1.000
    C125    C    0.00240   0.73190   0.74120   1.000
    H125    H    0.00560   0.69840   0.72890   1.000
    N87     N    0.95850   0.75950   0.74050   1.000
    C126    C    0.96980   0.80790   0.76240   1.000
    H126    H    0.94720   0.83410   0.76670   1.000
    C127    C    0.02070   0.81020   0.77670   1.000
    H127    H    0.03810   0.83830   0.79230   1.000
    N88     N    0.03910   0.74310   0.39890   1.000
    C128    C    0.99510   0.74030   0.43920   1.000
    H128    H    0.99240   0.74080   0.49010   1.000
    N89     N    0.95560   0.73650   0.38980   1.000
    C129    C    0.97530   0.73700   0.31910   1.000
    H129    H    0.95710   0.73500   0.27560   1.000
    C130    C    0.02680   0.74110   0.32470   1.000
    H130    H    0.04920   0.74230   0.28570   1.000
    N90     N    0.14290   0.79490   0.39010   1.000
    C131    C    0.18430   0.80790   0.43190   1.000
    H131    H    0.19210   0.79580   0.47840   1.000
    N91     N    0.21210   0.84230   0.39200   1.000
    C132    C    0.18790   0.85050   0.32550   1.000
    H132    H    0.19850   0.87190   0.28830   1.000
    C133    C    0.14510   0.82120   0.32430   1.000
    H133    H    0.12210   0.81950   0.28620   1.000
    Zn15    Zn   0.60989   0.23588   0.92238   1.000
    Zn16    Zn   0.60911   0.23631   0.24412   1.000
    N92     N    0.62810   0.18070   0.30470   1.000
    C134    C    0.67050   0.17450   0.33580   1.000
    H134    H    0.69500   0.19910   0.33660   1.000
    N93     N    0.67690   0.12960   0.36710   1.000
    C135    C    0.63570   0.10360   0.34980   1.000
    H135    H    0.62910   0.07050   0.36190   1.000
    C136    C    0.60620   0.13410   0.31220   1.000
    H136    H    0.57510   0.12540   0.29340   1.000
    N94     N    0.62510   0.21980   0.13340   1.000
    C137    C    0.60150   0.23950   0.07190   1.000
    H137    H    0.57560   0.26270   0.07220   1.000
    N95     N    0.62330   0.21850   0.00980   1.000
    C138    C    0.66040   0.18580   0.03300   1.000
    H138    H    0.68090   0.16680   0.00280   1.000
    C139    C    0.66150   0.18660   0.10940   1.000
    H139    H    0.68280   0.16820   0.13920   1.000
    N96     N    0.62110   0.21830   0.15180   1.000
    C140    C    0.60780   0.24250   0.08710   1.000
    H140    H    0.58850   0.27130   0.08360   1.000
    N97     N    0.62820   0.21610   0.02860   1.000
    C141    C    0.65420   0.17560   0.05720   1.000
    H141    H    0.67140   0.15170   0.03010   1.000
    C142    C    0.64980   0.17690   0.13330   1.000
    H142    H    0.66370   0.15420   0.16610   1.000
    N98     N    0.64923   0.29493   0.27920   1.000
    C143    C    0.64650   0.31540   0.34490   1.000
    H143    H    0.62480   0.30720   0.38290   1.000
    N99     N    0.54090   0.26330   0.26360   1.000
    C144    C    0.50240   0.23190   0.24120   1.000
    H144    H    0.50560   0.19840   0.22890   1.000
    N100    N    0.45850   0.25950   0.24050   1.000
    C145    C    0.46980   0.30790   0.26240   1.000
    H145    H    0.44720   0.33410   0.26670   1.000
    C146    C    0.52070   0.31020   0.27670   1.000
    H146    H    0.53810   0.33830   0.29230   1.000
    N101    N    0.53910   0.24310   0.89890   1.000
    C147    C    0.49510   0.24030   0.93920   1.000
    H147    H    0.49240   0.24080   0.99010   1.000
    N102    N    0.45560   0.23650   0.88980   1.000
    C148    C    0.47530   0.23700   0.81910   1.000
    H148    H    0.45710   0.23500   0.77560   1.000
    C149    C    0.52680   0.24110   0.82470   1.000
    H149    H    0.54920   0.24230   0.78570   1.000
    N103    N    0.64290   0.29490   0.89010   1.000
    C150    C    0.68430   0.30790   0.93190   1.000
    H150    H    0.69210   0.29580   0.97840   1.000
    N104    N    0.71210   0.34230   0.89200   1.000
    C151    C    0.68790   0.35050   0.82550   1.000
    H151    H    0.69850   0.37190   0.78830   1.000
    C152    C    0.64510   0.32120   0.82430   1.000
    H152    H    0.62210   0.31950   0.78620   1.000
    Zn17    Zn   0.26412   0.89011   0.42238   1.000
    Zn18    Zn   0.26369   0.89089   0.74412   1.000
    N105    N    0.31930   0.87190   0.80470   1.000
    C153    C    0.32550   0.82950   0.83580   1.000
    H153    H    0.30090   0.80500   0.83660   1.000
    N106    N    0.37040   0.82310   0.86710   1.000
    C154    C    0.39640   0.86430   0.84980   1.000
    H154    H    0.42950   0.87090   0.86190   1.000
    C155    C    0.36590   0.89380   0.81220   1.000
    H155    H    0.37460   0.92490   0.79340   1.000
    N107    N    0.28020   0.87490   0.63340   1.000
    C156    C    0.26050   0.89850   0.57190   1.000
    H156    H    0.23730   0.92440   0.57220   1.000
    N108    N    0.28150   0.87670   0.50980   1.000
    C157    C    0.31420   0.83960   0.53300   1.000
    H157    H    0.33320   0.81910   0.50280   1.000
    C158    C    0.31340   0.83850   0.60940   1.000
    H158    H    0.33180   0.81720   0.63920   1.000
    N109    N    0.28170   0.87890   0.65180   1.000
    C159    C    0.25750   0.89220   0.58710   1.000
    H159    H    0.22870   0.91150   0.58360   1.000
    N110    N    0.28390   0.87180   0.52860   1.000
    C160    C    0.32440   0.84580   0.55720   1.000
    H160    H    0.34830   0.82860   0.53010   1.000
    C161    C    0.32310   0.85020   0.63330   1.000
    H161    H    0.34580   0.83630   0.66610   1.000
    N111    N    0.20507   0.85077   0.77920   1.000
    C162    C    0.18460   0.85350   0.84490   1.000
    H162    H    0.19280   0.87520   0.88290   1.000
    N112    N    0.23670   0.95910   0.76360   1.000
    C163    C    0.26810   0.99760   0.74120   1.000
    H163    H    0.30160   0.99440   0.72890   1.000
    N113    N    0.24050   0.04150   0.74050   1.000
    C164    C    0.19210   0.03020   0.76240   1.000
    H164    H    0.16590   0.05280   0.76670   1.000
    C165    C    0.18980   0.97930   0.77670   1.000
    H165    H    0.16170   0.96190   0.79230   1.000
    N114    N    0.25690   0.96090   0.39890   1.000
    C166    C    0.25970   0.00490   0.43920   1.000
    H166    H    0.25920   0.00760   0.49010   1.000
    N115    N    0.26350   0.04440   0.38980   1.000
    C167    C    0.26300   0.02470   0.31910   1.000
    H167    H    0.26500   0.04290   0.27560   1.000
    C168    C    0.25890   0.97320   0.32470   1.000
    H168    H    0.25770   0.95080   0.28570   1.000
    N116    N    0.20510   0.85710   0.39010   1.000
    C169    C    0.19210   0.81570   0.43190   1.000
    H169    H    0.20420   0.80790   0.47840   1.000
    N117    N    0.15770   0.78790   0.39200   1.000
    C170    C    0.14950   0.81210   0.32550   1.000
    H170    H    0.12810   0.80150   0.28830   1.000
    C171    C    0.17880   0.85490   0.32430   1.000
    H171    H    0.18050   0.87790   0.28620   1.000
    Zn19    Zn   0.76412   0.39011   0.92238   1.000
    Zn20    Zn   0.76369   0.39089   0.24412   1.000
    N118    N    0.81930   0.37190   0.30470   1.000
    C172    C    0.82550   0.32950   0.33580   1.000
    H172    H    0.80090   0.30500   0.33660   1.000
    N119    N    0.87040   0.32310   0.36710   1.000
    C173    C    0.89640   0.36430   0.34980   1.000
    H173    H    0.92950   0.37090   0.36190   1.000
    C174    C    0.86590   0.39380   0.31220   1.000
    H174    H    0.87460   0.42490   0.29340   1.000
    N120    N    0.78020   0.37490   0.13340   1.000
    C175    C    0.76050   0.39850   0.07190   1.000
    H175    H    0.73730   0.42440   0.07220   1.000
    N121    N    0.78150   0.37670   0.00980   1.000
    C176    C    0.81420   0.33960   0.03300   1.000
    H176    H    0.83320   0.31910   0.00280   1.000
    C177    C    0.81340   0.33850   0.10940   1.000
    H177    H    0.83180   0.31720   0.13920   1.000
    N122    N    0.78170   0.37890   0.15180   1.000
    C178    C    0.75750   0.39220   0.08710   1.000
    H178    H    0.72870   0.41150   0.08360   1.000
    N123    N    0.78390   0.37180   0.02860   1.000
    C179    C    0.82440   0.34580   0.05720   1.000
    H179    H    0.84830   0.32860   0.03010   1.000
    C180    C    0.82310   0.35020   0.13330   1.000
    H180    H    0.84580   0.33630   0.16610   1.000
    N124    N    0.70507   0.35077   0.27920   1.000
    C181    C    0.68460   0.35350   0.34490   1.000
    H181    H    0.69280   0.37520   0.38290   1.000
    N125    N    0.73670   0.45910   0.26360   1.000
    C182    C    0.76810   0.49760   0.24120   1.000
    H182    H    0.80160   0.49440   0.22890   1.000
    N126    N    0.74050   0.54150   0.24050   1.000
    C183    C    0.69210   0.53020   0.26240   1.000
    H183    H    0.66590   0.55280   0.26670   1.000
    C184    C    0.68980   0.47930   0.27670   1.000
    H184    H    0.66170   0.46190   0.29230   1.000
    N127    N    0.75690   0.46090   0.89890   1.000
    C185    C    0.75970   0.50490   0.93920   1.000
    H185    H    0.75920   0.50760   0.99010   1.000
    N128    N    0.76350   0.54440   0.88980   1.000
    C186    C    0.76300   0.52470   0.81910   1.000
    H186    H    0.76500   0.54290   0.77560   1.000
    C187    C    0.75890   0.47320   0.82470   1.000
    H187    H    0.75770   0.45080   0.78570   1.000
    N129    N    0.70510   0.35710   0.89010   1.000
    C188    C    0.69210   0.31570   0.93190   1.000
    H188    H    0.70420   0.30790   0.97840   1.000
    N130    N    0.65770   0.28790   0.89200   1.000
    C189    C    0.64950   0.31210   0.82550   1.000
    H189    H    0.62810   0.30150   0.78830   1.000
    C190    C    0.67880   0.35490   0.82430   1.000
    H190    H    0.68050   0.37790   0.78620   1.000
    Zn21    Zn   0.73588   0.10989   0.42238   1.000
    Zn22    Zn   0.73631   0.10911   0.74412   1.000
    N131    N    0.68070   0.12810   0.80470   1.000
    C191    C    0.67450   0.17050   0.83580   1.000
    H191    H    0.69910   0.19500   0.83660   1.000
    N132    N    0.62960   0.17690   0.86710   1.000
    C192    C    0.60360   0.13570   0.84980   1.000
    H192    H    0.57050   0.12910   0.86190   1.000
    C193    C    0.63410   0.10620   0.81220   1.000
    H193    H    0.62540   0.07510   0.79340   1.000
    N133    N    0.71980   0.12510   0.63340   1.000
    C194    C    0.73950   0.10150   0.57190   1.000
    H194    H    0.76270   0.07560   0.57220   1.000
    N134    N    0.71850   0.12330   0.50980   1.000
    C195    C    0.68580   0.16040   0.53300   1.000
    H195    H    0.66680   0.18090   0.50280   1.000
    C196    C    0.68660   0.16150   0.60940   1.000
    H196    H    0.66820   0.18280   0.63920   1.000
    N135    N    0.71830   0.12110   0.65180   1.000
    C197    C    0.74250   0.10780   0.58710   1.000
    H197    H    0.77130   0.08850   0.58360   1.000
    N136    N    0.71610   0.12820   0.52860   1.000
    C198    C    0.67560   0.15420   0.55720   1.000
    H198    H    0.65170   0.17140   0.53010   1.000
    C199    C    0.67690   0.14980   0.63330   1.000
    H199    H    0.65420   0.16370   0.66610   1.000
    N137    N    0.79493   0.14923   0.77920   1.000
    C200    C    0.81540   0.14650   0.84490   1.000
    H200    H    0.80720   0.12480   0.88290   1.000
    N138    N    0.76330   0.04090   0.76360   1.000
    C201    C    0.73190   0.00240   0.74120   1.000
    H201    H    0.69840   0.00560   0.72890   1.000
    N139    N    0.75950   0.95850   0.74050   1.000
    C202    C    0.80790   0.96980   0.76240   1.000
    H202    H    0.83410   0.94720   0.76670   1.000
    C203    C    0.81020   0.02070   0.77670   1.000
    H203    H    0.83830   0.03810   0.79230   1.000
    N140    N    0.74310   0.03910   0.39890   1.000
    C204    C    0.74030   0.99510   0.43920   1.000
    H204    H    0.74080   0.99240   0.49010   1.000
    N141    N    0.73650   0.95560   0.38980   1.000
    C205    C    0.73700   0.97530   0.31910   1.000
    H205    H    0.73500   0.95710   0.27560   1.000
    C206    C    0.74110   0.02680   0.32470   1.000
    H206    H    0.74230   0.04920   0.28570   1.000
    N142    N    0.79490   0.14290   0.39010   1.000
    C207    C    0.80790   0.18430   0.43190   1.000
    H207    H    0.79580   0.19210   0.47840   1.000
    N143    N    0.84230   0.21210   0.39200   1.000
    C208    C    0.85050   0.18790   0.32550   1.000
    H208    H    0.87190   0.19850   0.28830   1.000
    C209    C    0.82120   0.14510   0.32430   1.000
    H209    H    0.81950   0.12210   0.28620   1.000
    Zn23    Zn   0.23588   0.60989   0.92238   1.000
    Zn24    Zn   0.23631   0.60911   0.24412   1.000
    N144    N    0.18070   0.62810   0.30470   1.000
    C210    C    0.17450   0.67050   0.33580   1.000
    H210    H    0.19910   0.69500   0.33660   1.000
    N145    N    0.12960   0.67690   0.36710   1.000
    C211    C    0.10360   0.63570   0.34980   1.000
    H211    H    0.07050   0.62910   0.36190   1.000
    C212    C    0.13410   0.60620   0.31220   1.000
    H212    H    0.12540   0.57510   0.29340   1.000
    N146    N    0.21980   0.62510   0.13340   1.000
    C213    C    0.23950   0.60150   0.07190   1.000
    H213    H    0.26270   0.57560   0.07220   1.000
    N147    N    0.21850   0.62330   0.00980   1.000
    C214    C    0.18580   0.66040   0.03300   1.000
    H214    H    0.16680   0.68090   0.00280   1.000
    C215    C    0.18660   0.66150   0.10940   1.000
    H215    H    0.16820   0.68280   0.13920   1.000
    N148    N    0.21830   0.62110   0.15180   1.000
    C216    C    0.24250   0.60780   0.08710   1.000
    H216    H    0.27130   0.58850   0.08360   1.000
    N149    N    0.21610   0.62820   0.02860   1.000
    C217    C    0.17560   0.65420   0.05720   1.000
    H217    H    0.15170   0.67140   0.03010   1.000
    C218    C    0.17690   0.64980   0.13330   1.000
    H218    H    0.15420   0.66370   0.16610   1.000
    N150    N    0.29493   0.64923   0.27920   1.000
    C219    C    0.31540   0.64650   0.34490   1.000
    H219    H    0.30720   0.62480   0.38290   1.000
    N151    N    0.26330   0.54090   0.26360   1.000
    C220    C    0.23190   0.50240   0.24120   1.000
    H220    H    0.19840   0.50560   0.22890   1.000
    N152    N    0.25950   0.45850   0.24050   1.000
    C221    C    0.30790   0.46980   0.26240   1.000
    H221    H    0.33410   0.44720   0.26670   1.000
    C222    C    0.31020   0.52070   0.27670   1.000
    H222    H    0.33830   0.53810   0.29230   1.000
    N153    N    0.24310   0.53910   0.89890   1.000
    C223    C    0.24030   0.49510   0.93920   1.000
    H223    H    0.24080   0.49240   0.99010   1.000
    N154    N    0.23650   0.45560   0.88980   1.000
    C224    C    0.23700   0.47530   0.81910   1.000
    H224    H    0.23500   0.45710   0.77560   1.000
    C225    C    0.24110   0.52680   0.82470   1.000
    H225    H    0.24230   0.54920   0.78570   1.000
    N155    N    0.29490   0.64290   0.89010   1.000
    C226    C    0.30790   0.68430   0.93190   1.000
    H226    H    0.29580   0.69210   0.97840   1.000
    N156    N    0.34230   0.71210   0.89200   1.000
    C227    C    0.35050   0.68790   0.82550   1.000
    H227    H    0.37190   0.69850   0.78830   1.000
    C228    C    0.32120   0.64510   0.82430   1.000
    H228    H    0.31950   0.62210   0.78620   1.000
    Zn25    Zn   0.89011   0.73588   0.42238   1.000
    Zn26    Zn   0.89089   0.73631   0.74412   1.000
    N157    N    0.87190   0.68070   0.80470   1.000
    C229    C    0.82950   0.67450   0.83580   1.000
    H229    H    0.80500   0.69910   0.83660   1.000
    N158    N    0.82310   0.62960   0.86710   1.000
    C230    C    0.86430   0.60360   0.84980   1.000
    H230    H    0.87090   0.57050   0.86190   1.000
    C231    C    0.89380   0.63410   0.81220   1.000
    H231    H    0.92490   0.62540   0.79340   1.000
    N159    N    0.87490   0.71980   0.63340   1.000
    C232    C    0.89850   0.73950   0.57190   1.000
    H232    H    0.92440   0.76270   0.57220   1.000
    N160    N    0.87670   0.71850   0.50980   1.000
    C233    C    0.83960   0.68580   0.53300   1.000
    H233    H    0.81910   0.66680   0.50280   1.000
    C234    C    0.83850   0.68660   0.60940   1.000
    H234    H    0.81720   0.66820   0.63920   1.000
    N161    N    0.87890   0.71830   0.65180   1.000
    C235    C    0.89220   0.74250   0.58710   1.000
    H235    H    0.91150   0.77130   0.58360   1.000
    N162    N    0.87180   0.71610   0.52860   1.000
    C236    C    0.84580   0.67560   0.55720   1.000
    H236    H    0.82860   0.65170   0.53010   1.000
    C237    C    0.85020   0.67690   0.63330   1.000
    H237    H    0.83630   0.65420   0.66610   1.000
    N163    N    0.85077   0.79493   0.77920   1.000
    C238    C    0.85350   0.81540   0.84490   1.000
    H238    H    0.87520   0.80720   0.88290   1.000
    N164    N    0.95910   0.76330   0.76360   1.000
    C239    C    0.99760   0.73190   0.74120   1.000
    H239    H    0.99440   0.69840   0.72890   1.000
    N165    N    0.04150   0.75950   0.74050   1.000
    C240    C    0.03020   0.80790   0.76240   1.000
    H240    H    0.05280   0.83410   0.76670   1.000
    C241    C    0.97930   0.81020   0.77670   1.000
    H241    H    0.96190   0.83830   0.79230   1.000
    N166    N    0.96090   0.74310   0.39890   1.000
    C242    C    0.00490   0.74030   0.43920   1.000
    H242    H    0.00760   0.74080   0.49010   1.000
    N167    N    0.04440   0.73650   0.38980   1.000
    C243    C    0.02470   0.73700   0.31910   1.000
    H243    H    0.04290   0.73500   0.27560   1.000
    C244    C    0.97320   0.74110   0.32470   1.000
    H244    H    0.95080   0.74230   0.28570   1.000
    N168    N    0.85710   0.79490   0.39010   1.000
    C245    C    0.81570   0.80790   0.43190   1.000
    H245    H    0.80790   0.79580   0.47840   1.000
    N169    N    0.78790   0.84230   0.39200   1.000
    C246    C    0.81210   0.85050   0.32550   1.000
    H246    H    0.80150   0.87190   0.28830   1.000
    C247    C    0.85490   0.82120   0.32430   1.000
    H247    H    0.87790   0.81950   0.28620   1.000
    Zn27    Zn   0.39011   0.23588   0.92238   1.000
    Zn28    Zn   0.39089   0.23631   0.24412   1.000
    N170    N    0.37190   0.18070   0.30470   1.000
    C248    C    0.32950   0.17450   0.33580   1.000
    H248    H    0.30500   0.19910   0.33660   1.000
    N171    N    0.32310   0.12960   0.36710   1.000
    C249    C    0.36430   0.10360   0.34980   1.000
    H249    H    0.37090   0.07050   0.36190   1.000
    C250    C    0.39380   0.13410   0.31220   1.000
    H250    H    0.42490   0.12540   0.29340   1.000
    N172    N    0.37490   0.21980   0.13340   1.000
    C251    C    0.39850   0.23950   0.07190   1.000
    H251    H    0.42440   0.26270   0.07220   1.000
    N173    N    0.37670   0.21850   0.00980   1.000
    C252    C    0.33960   0.18580   0.03300   1.000
    H252    H    0.31910   0.16680   0.00280   1.000
    C253    C    0.33850   0.18660   0.10940   1.000
    H253    H    0.31720   0.16820   0.13920   1.000
    N174    N    0.37890   0.21830   0.15180   1.000
    C254    C    0.39220   0.24250   0.08710   1.000
    H254    H    0.41150   0.27130   0.08360   1.000
    N175    N    0.37180   0.21610   0.02860   1.000
    C255    C    0.34580   0.17560   0.05720   1.000
    H255    H    0.32860   0.15170   0.03010   1.000
    C256    C    0.35020   0.17690   0.13330   1.000
    H256    H    0.33630   0.15420   0.16610   1.000
    N176    N    0.35077   0.29493   0.27920   1.000
    C257    C    0.35350   0.31540   0.34490   1.000
    H257    H    0.37520   0.30720   0.38290   1.000
    N177    N    0.45910   0.26330   0.26360   1.000
    C258    C    0.49760   0.23190   0.24120   1.000
    H258    H    0.49440   0.19840   0.22890   1.000
    N178    N    0.54150   0.25950   0.24050   1.000
    C259    C    0.53020   0.30790   0.26240   1.000
    H259    H    0.55280   0.33410   0.26670   1.000
    C260    C    0.47930   0.31020   0.27670   1.000
    H260    H    0.46190   0.33830   0.29230   1.000
    N179    N    0.46090   0.24310   0.89890   1.000
    C261    C    0.50490   0.24030   0.93920   1.000
    H261    H    0.50760   0.24080   0.99010   1.000
    N180    N    0.54440   0.23650   0.88980   1.000
    C262    C    0.52470   0.23700   0.81910   1.000
    H262    H    0.54290   0.23500   0.77560   1.000
    C263    C    0.47320   0.24110   0.82470   1.000
    H263    H    0.45080   0.24230   0.78570   1.000
    N181    N    0.35710   0.29490   0.89010   1.000
    C264    C    0.31570   0.30790   0.93190   1.000
    H264    H    0.30790   0.29580   0.97840   1.000
    N182    N    0.28790   0.34230   0.89200   1.000
    C265    C    0.31210   0.35050   0.82550   1.000
    H265    H    0.30150   0.37190   0.78830   1.000
    C266    C    0.35490   0.32120   0.82430   1.000
    H266    H    0.37790   0.31950   0.78620   1.000
    Zn29    Zn   0.10989   0.26412   0.42238   1.000
    Zn30    Zn   0.10911   0.26369   0.74412   1.000
    N183    N    0.12810   0.31930   0.80470   1.000
    C267    C    0.17050   0.32550   0.83580   1.000
    H267    H    0.19500   0.30090   0.83660   1.000
    N184    N    0.17690   0.37040   0.86710   1.000
    C268    C    0.13570   0.39640   0.84980   1.000
    H268    H    0.12910   0.42950   0.86190   1.000
    C269    C    0.10620   0.36590   0.81220   1.000
    H269    H    0.07510   0.37460   0.79340   1.000
    N185    N    0.12510   0.28020   0.63340   1.000
    C270    C    0.10150   0.26050   0.57190   1.000
    H270    H    0.07560   0.23730   0.57220   1.000
    N186    N    0.12330   0.28150   0.50980   1.000
    C271    C    0.16040   0.31420   0.53300   1.000
    H271    H    0.18090   0.33320   0.50280   1.000
    C272    C    0.16150   0.31340   0.60940   1.000
    H272    H    0.18280   0.33180   0.63920   1.000
    N187    N    0.12110   0.28170   0.65180   1.000
    C273    C    0.10780   0.25750   0.58710   1.000
    H273    H    0.08850   0.22870   0.58360   1.000
    N188    N    0.12820   0.28390   0.52860   1.000
    C274    C    0.15420   0.32440   0.55720   1.000
    H274    H    0.17140   0.34830   0.53010   1.000
    C275    C    0.14980   0.32310   0.63330   1.000
    H275    H    0.16370   0.34580   0.66610   1.000
    N189    N    0.14923   0.20507   0.77920   1.000
    C276    C    0.14650   0.18460   0.84490   1.000
    H276    H    0.12480   0.19280   0.88290   1.000
    N190    N    0.04090   0.23670   0.76360   1.000
    C277    C    0.00240   0.26810   0.74120   1.000
    H277    H    0.00560   0.30160   0.72890   1.000
    N191    N    0.95850   0.24050   0.74050   1.000
    C278    C    0.96980   0.19210   0.76240   1.000
    H278    H    0.94720   0.16590   0.76670   1.000
    C279    C    0.02070   0.18980   0.77670   1.000
    H279    H    0.03810   0.16170   0.79230   1.000
    N192    N    0.03910   0.25690   0.39890   1.000
    C280    C    0.99510   0.25970   0.43920   1.000
    H280    H    0.99240   0.25920   0.49010   1.000
    N193    N    0.95560   0.26350   0.38980   1.000
    C281    C    0.97530   0.26300   0.31910   1.000
    H281    H    0.95710   0.26500   0.27560   1.000
    C282    C    0.02680   0.25890   0.32470   1.000
    H282    H    0.04920   0.25770   0.28570   1.000
    N194    N    0.14290   0.20510   0.39010   1.000
    C283    C    0.18430   0.19210   0.43190   1.000
    H283    H    0.19210   0.20420   0.47840   1.000
    N195    N    0.21210   0.15770   0.39200   1.000
    C284    C    0.18790   0.14950   0.32550   1.000
    H284    H    0.19850   0.12810   0.28830   1.000
    C285    C    0.14510   0.17880   0.32430   1.000
    H285    H    0.12210   0.18050   0.28620   1.000
    Zn31    Zn   0.60989   0.76412   0.92238   1.000
    Zn32    Zn   0.60911   0.76369   0.24412   1.000
    N196    N    0.62810   0.81930   0.30470   1.000
    C286    C    0.67050   0.82550   0.33580   1.000
    H286    H    0.69500   0.80090   0.33660   1.000
    N197    N    0.67690   0.87040   0.36710   1.000
    C287    C    0.63570   0.89640   0.34980   1.000
    H287    H    0.62910   0.92950   0.36190   1.000
    C288    C    0.60620   0.86590   0.31220   1.000
    H288    H    0.57510   0.87460   0.29340   1.000
    N198    N    0.62510   0.78020   0.13340   1.000
    C289    C    0.60150   0.76050   0.07190   1.000
    H289    H    0.57560   0.73730   0.07220   1.000
    N199    N    0.62330   0.78150   0.00980   1.000
    C290    C    0.66040   0.81420   0.03300   1.000
    H290    H    0.68090   0.83320   0.00280   1.000
    C291    C    0.66150   0.81340   0.10940   1.000
    H291    H    0.68280   0.83180   0.13920   1.000
    N200    N    0.62110   0.78170   0.15180   1.000
    C292    C    0.60780   0.75750   0.08710   1.000
    H292    H    0.58850   0.72870   0.08360   1.000
    N201    N    0.62820   0.78390   0.02860   1.000
    C293    C    0.65420   0.82440   0.05720   1.000
    H293    H    0.67140   0.84830   0.03010   1.000
    C294    C    0.64980   0.82310   0.13330   1.000
    H294    H    0.66370   0.84580   0.16610   1.000
    N202    N    0.64923   0.70507   0.27920   1.000
    C295    C    0.64650   0.68460   0.34490   1.000
    H295    H    0.62480   0.69280   0.38290   1.000
    N203    N    0.54090   0.73670   0.26360   1.000
    C296    C    0.50240   0.76810   0.24120   1.000
    H296    H    0.50560   0.80160   0.22890   1.000
    N204    N    0.45850   0.74050   0.24050   1.000
    C297    C    0.46980   0.69210   0.26240   1.000
    H297    H    0.44720   0.66590   0.26670   1.000
    C298    C    0.52070   0.68980   0.27670   1.000
    H298    H    0.53810   0.66170   0.29230   1.000
    N205    N    0.53910   0.75690   0.89890   1.000
    C299    C    0.49510   0.75970   0.93920   1.000
    H299    H    0.49240   0.75920   0.99010   1.000
    N206    N    0.45560   0.76350   0.88980   1.000
    C300    C    0.47530   0.76300   0.81910   1.000
    H300    H    0.45710   0.76500   0.77560   1.000
    C301    C    0.52680   0.75890   0.82470   1.000
    H301    H    0.54920   0.75770   0.78570   1.000
    N207    N    0.64290   0.70510   0.89010   1.000
    C302    C    0.68430   0.69210   0.93190   1.000
    H302    H    0.69210   0.70420   0.97840   1.000
    N208    N    0.71210   0.65770   0.89200   1.000
    C303    C    0.68790   0.64950   0.82550   1.000
    H303    H    0.69850   0.62810   0.78830   1.000
    C304    C    0.64510   0.67880   0.82430   1.000
    H304    H    0.62210   0.68050   0.78620   1.000
    C305    C    0.18770   0.18770   0.74110   1.000
    H305    H    0.19990   0.19990   0.69680   1.000
    C306    C    0.68770   0.68770   0.24110   1.000
    H306    H    0.69990   0.69990   0.19680   1.000
    C307    C    0.81230   0.81230   0.74110   1.000
    H307    H    0.80010   0.80010   0.69680   1.000
    C308    C    0.31230   0.31230   0.24110   1.000
    H308    H    0.30010   0.30010   0.19680   1.000
    C309    C    0.81230   0.18770   0.74110   1.000
    H309    H    0.80010   0.19990   0.69680   1.000
    C310    C    0.31230   0.68770   0.24110   1.000
    H310    H    0.30010   0.69990   0.19680   1.000
    C311    C    0.18770   0.81230   0.74110   1.000
    H311    H    0.19990   0.80010   0.69680   1.000
    C312    C    0.68770   0.31230   0.24110   1.000
    H312    H    0.69990   0.30010   0.19680   1.000
