# CIF file generated by openbabel 2.4.1, see http://openbabel.sf.net
data_I
_chemical_name_common 'image0'
_cell_length_a 21.179
_cell_length_b 22.56
_cell_length_c 23.138
_cell_angle_alpha 105.3
_cell_angle_beta 114.19
_cell_angle_gamma 102.88
_space_group_name_H-M_alt 'P 1'
_space_group_name_Hall 'P 1'
loop_
    _symmetry_equiv_pos_as_xyz
    x,y,z
loop_
    _atom_site_label
    _atom_site_type_symbol
    _atom_site_fract_x
    _atom_site_fract_y
    _atom_site_fract_z
    _atom_site_occupancy
    Zn1     Zn   0.61874   0.53357   0.90577   1.000
    Zn2     Zn   0.61114   0.41066   0.81483   1.000
    Zn3     Zn   0.64148   0.94091   0.31592   1.000
    Zn4     Zn   0.59214   0.00521   0.40618   1.000
    O1      O    0.72481   0.45167   0.87306   1.000
    O2      O    0.50199   0.39463   0.77639   1.000
    O3      O    0.66539   0.89720   0.38486   1.000
    O4      O    0.48477   0.93977   0.34166   1.000
    O5      O    0.50669   0.49236   0.83646   1.000
    O6      O    0.63480   0.57794   0.84487   1.000
    O7      O    0.60411   0.37666   0.88584   1.000
    O8      O    0.53077   0.88978   0.28121   1.000
    O9      O    0.70559   0.05491   0.44731   1.000
    O10     O    0.61882   0.94018   0.44878   1.000
    O11     O    0.74559   0.01184   0.37718   1.000
    O12     O    0.72577   0.53871   0.94542   1.000
    O13     O    0.59720   0.46738   0.94693   1.000
    O14     O    0.61120   0.00111   0.26841   1.000
    O15     O    0.57640   0.05121   0.33922   1.000
    O16     O    0.62070   0.48069   0.77421   1.000
    N1      N    0.60290   0.33381   0.73930   1.000
    N2      N    0.62940   0.61227   0.98188   1.000
    N3      N    0.58730   0.07380   0.48000   1.000
    O17     O    0.10950   0.72140   0.12550   1.000
    N4      N    0.64620   0.87228   0.24300   1.000
    C1      C    0.64030   0.71690   0.08560   1.000
    N5      N    0.06950   0.62640   0.02990   1.000
    H1      H    0.08540   0.60450   0.00500   1.000
    C2      C    0.59400   0.23050   0.63560   1.000
    C3      C    0.39320   0.78680   0.18920   1.000
    H2      H    0.43530   0.78170   0.18620   1.000
    O18     O    0.11730   0.23110   0.59240   1.000
    C4      C    0.59390   0.40830   0.93300   1.000
    C5      C    0.53100   0.23090   0.63930   1.000
    H3      H    0.48400   0.19590   0.60690   1.000
    N6      N    0.19180   0.69310   0.09440   1.000
    H4      H    0.19410   0.66260   0.06340   1.000
    C6      C    0.57790   0.37540   0.97500   1.000
    C7      C    0.53770   0.28390   0.69170   1.000
    H5      H    0.49400   0.28470   0.69380   1.000
    O19     O    0.66410   0.75080   0.64370   1.000
    N7      N    0.53380   0.28630   0.09850   1.000
    H6      H    0.51400   0.30580   0.12080   1.000
    C8      C    0.47020   0.43190   0.79180   1.000
    C9      C    0.26100   0.74540   0.14530   1.000
    C10     C    0.63670   0.65630   0.09200   1.000
    H7      H    0.63800   0.65040   0.13160   1.000
    C11     C    0.32370   0.73840   0.14440   1.000
    H8      H    0.31840   0.69910   0.11180   1.000
    C12     C    0.64330   0.77070   0.14030   1.000
    C13     C    0.56300   0.40610   0.02560   1.000
    H9      H    0.56140   0.44900   0.03200   1.000
    C14     C    0.87880   0.50720   0.92640   1.000
    H10     H    0.85260   0.46470   0.88930   1.000
    O20     O    0.57550   0.19940   0.08370   1.000
    C15     C    0.38900   0.40710   0.75880   1.000
    C16     C    0.63570   0.67130   0.97820   1.000
    H11     H    0.63570   0.67660   0.93890   1.000
    C17     C    0.69070   0.80980   0.44820   1.000
    H12     H    0.69890   0.80480   0.41010   1.000
    C18     C    0.66650   0.85910   0.46910   1.000
    N8      N    0.15600   0.33730   0.66630   1.000
    H13     H    0.13910   0.36740   0.67980   1.000
    C19     C    0.75710   0.50740   0.92150   1.000
    C20     C    0.55050   0.37700   0.06630   1.000
    H14     H    0.54190   0.40030   0.10120   1.000
    C21     C    0.83890   0.53760   0.95120   1.000
    C22     C    0.40240   0.84420   0.23970   1.000
    N9      N    0.70470   0.72690   0.56540   1.000
    H15     H    0.72600   0.70170   0.55100   1.000
    C23     C    0.75500   0.05600   0.43090   1.000
    C24     C    0.34400   0.34420   0.70580   1.000
    H16     H    0.36760   0.31730   0.69100   1.000
    C25     C    0.59020   0.17550   0.58010   1.000
    C26     C    0.64230   0.72550   0.02980   1.000
    H17     H    0.64810   0.76710   0.02630   1.000
    C27     C    0.26820   0.31930   0.67430   1.000
    H18     H    0.24010   0.27620   0.63820   1.000
    C28     C    0.26750   0.80210   0.19380   1.000
    H19     H    0.22470   0.80790   0.19450   1.000
    C29     C    0.65800   0.86460   0.52710   1.000
    H20     H    0.64330   0.89910   0.54400   1.000
    C30     C    0.47830   0.89470   0.29160   1.000
    C31     C    0.82710   0.11000   0.47400   1.000
    C32     C    0.64990   0.90260   0.43180   1.000
    C33     C    0.55020   0.31380   0.05790   1.000
    C34     C    0.33730   0.84890   0.24000   1.000
    H21     H    0.34240   0.88680   0.27430   1.000
    C35     C    0.63120   0.60510   0.03900   1.000
    H22     H    0.62860   0.56380   0.04280   1.000
    C36     C    0.57270   0.08750   0.25460   1.000
    C37     C    0.95220   0.53600   0.95300   1.000
    H23     H    0.97670   0.51300   0.93460   1.000
    C38     C    0.70310   0.76750   0.48160   1.000
    H24     H    0.71890   0.73360   0.46550   1.000
    N10     N    0.53090   0.22050   0.15860   1.000
    H25     H    0.51060   0.24620   0.17390   1.000
    C39     C    0.66970   0.82380   0.56020   1.000
    H26     H    0.66220   0.82910   0.59870   1.000
    C40     C    0.58600   0.04310   0.28830   1.000
    N11     N    0.69770   0.66180   0.62570   1.000
    H27     H    0.71690   0.64140   0.60330   1.000
    C41     C    0.23220   0.35750   0.69510   1.000
    C42     C    0.99510   0.59970   0.00770   1.000
    C43     C    0.35090   0.44480   0.77870   1.000
    H28     H    0.37900   0.48780   0.81500   1.000
    C44     C    0.57600   0.31130   0.96590   1.000
    H29     H    0.58350   0.28780   0.93020   1.000
    C45     C    0.56380   0.28110   0.00610   1.000
    H30     H    0.56440   0.23790   0.99910   1.000
    C46     C    0.88960   0.11160   0.46640   1.000
    H31     H    0.88490   0.07520   0.43070   1.000
    N12     N    0.03460   0.27120   0.60830   1.000
    H32     H    0.03200   0.30660   0.63320   1.000
    C47     C    0.63480   0.54270   0.79350   1.000
    C48     C    0.61680   0.75720   0.18340   1.000
    H33     H    0.59820   0.71300   0.17930   1.000
    C49     C    0.54550   0.22930   0.10850   1.000
    C50     C    0.27650   0.42170   0.74790   1.000
    H34     H    0.25290   0.44910   0.76190   1.000
    C51     C    0.12280   0.68310   0.08640   1.000
    C52     C    0.88210   0.60130   0.00630   1.000
    H35     H    0.85710   0.62400   0.02420   1.000
    C53     C    0.69300   0.77340   0.53740   1.000
    C54     C    0.95650   0.63140   0.03460   1.000
    H36     H    0.98290   0.67350   0.07230   1.000
    C55     C    0.66660   0.88420   0.20010   1.000
    H37     H    0.68060   0.92820   0.20250   1.000
    C56     C    0.68310   0.63570   0.66770   1.000
    C57     C    0.65190   0.57470   0.75070   1.000
    C58     C    0.58240   0.08370   0.19820   1.000
    H38     H    0.59780   0.04990   0.18120   1.000
    C59     C    0.67630   0.67110   0.72310   1.000
    H39     H    0.68270   0.71650   0.73390   1.000
    C60     C    0.65780   0.53860   0.69380   1.000
    H40     H    0.65120   0.49320   0.68320   1.000
    C61     C    0.66880   0.83500   0.15090   1.000
    H41     H    0.68900   0.84710   0.12390   1.000
    C62     C    0.65870   0.28210   0.68220   1.000
    H42     H    0.70270   0.28350   0.67970   1.000
    C63     C    0.96500   0.21510   0.56060   1.000
    C64     C    0.68630   0.71590   0.61380   1.000
    C65     C    0.83870   0.16440   0.53080   1.000
    H43     H    0.79890   0.16510   0.53970   1.000
    C66     C    0.66060   0.64030   0.76080   1.000
    H44     H    0.65490   0.66530   0.79710   1.000
    C67     C    0.95800   0.16380   0.50840   1.000
    H45     H    0.99900   0.16380   0.50120   1.000
    C68     C    0.10240   0.27490   0.61830   1.000
    C69     C    0.54510   0.17490   0.18790   1.000
    C70     C    0.54660   0.13660   0.27550   1.000
    H46     H    0.53590   0.13910   0.31190   1.000
    C71     C    0.67240   0.56770   0.65580   1.000
    H47     H    0.67600   0.54210   0.61830   1.000
    C72     C    0.66220   0.33310   0.73350   1.000
    H48     H    0.70870   0.36870   0.76570   1.000
    C73     C    0.61820   0.80980   0.23260   1.000
    H49     H    0.59780   0.79980   0.26020   1.000
    C74     C    0.57110   0.12590   0.16590   1.000
    H50     H    0.58050   0.12230   0.12870   1.000
    C75     C    0.90540   0.21450   0.57150   1.000
    H51     H    0.91190   0.25040   0.60880   1.000
    C76     C    0.53650   0.17950   0.24640   1.000
    H52     H    0.52300   0.21420   0.26510   1.000
    C77     C    0.64170   0.09470   0.54610   1.000
    H53     H    0.67840   0.07550   0.55660   1.000
    C78     C    0.64460   0.14390   0.59890   1.000
    H54     H    0.68070   0.15670   0.64580   1.000
    C79     C    0.53260   0.09050   0.47050   1.000
    H55     H    0.48760   0.06410   0.42790   1.000
    C80     C    0.53100   0.14370   0.51590   1.000
    H56     H    0.48960   0.15700   0.50210   1.000
    C81     C    0.62810   0.19190   0.54130   1.000
    H57     H    0.65350   0.23640   0.54990   1.000
    C82     C    0.62420   0.13960   0.49300   1.000
    H58     H    0.64740   0.14780   0.46690   1.000
    C83     C    0.54570   0.11270   0.55470   1.000
    H59     H    0.50830   0.10050   0.56660   1.000
    C84     C    0.55450   0.06610   0.51120   1.000
    H60     H    0.53190   0.02160   0.50440   1.000
    Zn5     Zn   0.38126   0.46643   0.09423   1.000
    Zn6     Zn   0.38886   0.58934   0.18517   1.000
    Zn7     Zn   0.35852   0.05909   0.68408   1.000
    Zn8     Zn   0.40786   0.99479   0.59382   1.000
    O21     O    0.27519   0.54833   0.12694   1.000
    O22     O    0.49801   0.60537   0.22361   1.000
    O23     O    0.33461   0.10280   0.61514   1.000
    O24     O    0.51523   0.06023   0.65834   1.000
    O25     O    0.49331   0.50764   0.16354   1.000
    O26     O    0.36520   0.42206   0.15513   1.000
    O27     O    0.39589   0.62334   0.11416   1.000
    O28     O    0.46923   0.11022   0.71879   1.000
    O29     O    0.29441   0.94509   0.55269   1.000
    O30     O    0.38118   0.05982   0.55122   1.000
    O31     O    0.25441   0.98816   0.62282   1.000
    O32     O    0.27423   0.46129   0.05458   1.000
    O33     O    0.40280   0.53262   0.05307   1.000
    O34     O    0.38880   0.99889   0.73159   1.000
    O35     O    0.42360   0.94879   0.66078   1.000
    O36     O    0.37930   0.51931   0.22579   1.000
    N13     N    0.39710   0.66619   0.26070   1.000
    N14     N    0.37060   0.38773   0.01812   1.000
    N15     N    0.41270   0.92620   0.52000   1.000
    O37     O    0.89050   0.27860   0.87450   1.000
    N16     N    0.35380   0.12772   0.75700   1.000
    C85     C    0.35970   0.28310   0.91440   1.000
    N17     N    0.93050   0.37360   0.97010   1.000
    H61     H    0.91460   0.39550   0.99500   1.000
    C86     C    0.40600   0.76950   0.36440   1.000
    C87     C    0.60680   0.21320   0.81080   1.000
    H62     H    0.56470   0.21830   0.81380   1.000
    O38     O    0.88270   0.76890   0.40760   1.000
    C88     C    0.40610   0.59170   0.06700   1.000
    C89     C    0.46900   0.76910   0.36070   1.000
    H63     H    0.51600   0.80410   0.39310   1.000
    N18     N    0.80820   0.30690   0.90560   1.000
    H64     H    0.80590   0.33740   0.93660   1.000
    C90     C    0.42210   0.62460   0.02500   1.000
    C91     C    0.46230   0.71610   0.30830   1.000
    H65     H    0.50600   0.71530   0.30620   1.000
    O39     O    0.33590   0.24920   0.35630   1.000
    N19     N    0.46620   0.71370   0.90150   1.000
    H66     H    0.48600   0.69420   0.87920   1.000
    C92     C    0.52980   0.56810   0.20820   1.000
    C93     C    0.73900   0.25460   0.85470   1.000
    C94     C    0.36330   0.34370   0.90800   1.000
    H67     H    0.36200   0.34960   0.86840   1.000
    C95     C    0.67630   0.26160   0.85560   1.000
    H68     H    0.68160   0.30090   0.88820   1.000
    C96     C    0.35670   0.22930   0.85970   1.000
    C97     C    0.43700   0.59390   0.97440   1.000
    H69     H    0.43860   0.55100   0.96800   1.000
    C98     C    0.12120   0.49280   0.07360   1.000
    H70     H    0.14740   0.53530   0.11070   1.000
    O40     O    0.42450   0.80060   0.91630   1.000
    C99     C    0.61100   0.59290   0.24120   1.000
    C100    C    0.36430   0.32870   0.02180   1.000
    H71     H    0.36430   0.32340   0.06110   1.000
    C101    C    0.30930   0.19020   0.55180   1.000
    H72     H    0.30110   0.19520   0.58990   1.000
    C102    C    0.33350   0.14090   0.53090   1.000
    N20     N    0.84400   0.66270   0.33370   1.000
    H73     H    0.86090   0.63260   0.32020   1.000
    C103    C    0.24290   0.49260   0.07850   1.000
    C104    C    0.44950   0.62300   0.93370   1.000
    H74     H    0.45810   0.59970   0.89880   1.000
    C105    C    0.16110   0.46240   0.04880   1.000
    C106    C    0.59760   0.15580   0.76030   1.000
    N21     N    0.29530   0.27310   0.43460   1.000
    H75     H    0.27400   0.29830   0.44900   1.000
    C107    C    0.24500   0.94400   0.56910   1.000
    C108    C    0.65600   0.65580   0.29420   1.000
    H76     H    0.63240   0.68270   0.30900   1.000
    C109    C    0.40980   0.82450   0.41990   1.000
    C110    C    0.35770   0.27450   0.97020   1.000
    H77     H    0.35190   0.23290   0.97370   1.000
    C111    C    0.73180   0.68070   0.32570   1.000
    H78     H    0.75990   0.72380   0.36180   1.000
    C112    C    0.73250   0.19790   0.80620   1.000
    H79     H    0.77530   0.19210   0.80550   1.000
    C113    C    0.34200   0.13540   0.47290   1.000
    H80     H    0.35670   0.10090   0.45600   1.000
    C114    C    0.52170   0.10530   0.70840   1.000
    C115    C    0.17290   0.89000   0.52600   1.000
    C116    C    0.35010   0.09740   0.56820   1.000
    C117    C    0.44980   0.68620   0.94210   1.000
    C118    C    0.66270   0.15110   0.76000   1.000
    H81     H    0.65760   0.11320   0.72570   1.000
    C119    C    0.36880   0.39490   0.96100   1.000
    H82     H    0.37140   0.43620   0.95720   1.000
    C120    C    0.42730   0.91250   0.74540   1.000
    C121    C    0.04780   0.46400   0.04700   1.000
    H83     H    0.02330   0.48700   0.06540   1.000
    C122    C    0.29690   0.23250   0.51840   1.000
    H84     H    0.28110   0.26640   0.53450   1.000
    N22     N    0.46910   0.77950   0.84140   1.000
    H85     H    0.48940   0.75380   0.82610   1.000
    C123    C    0.33030   0.17620   0.43980   1.000
    H86     H    0.33780   0.17090   0.40130   1.000
    C124    C    0.41400   0.95690   0.71170   1.000
    N23     N    0.30230   0.33820   0.37430   1.000
    H87     H    0.28310   0.35860   0.39670   1.000
    C125    C    0.76780   0.64250   0.30490   1.000
    C126    C    0.00490   0.40030   0.99230   1.000
    C127    C    0.64910   0.55520   0.22130   1.000
    H88     H    0.62100   0.51220   0.18500   1.000
    C128    C    0.42400   0.68870   0.03410   1.000
    H89     H    0.41650   0.71220   0.06980   1.000
    C129    C    0.43620   0.71890   0.99390   1.000
    H90     H    0.43560   0.76210   0.00090   1.000
    C130    C    0.11040   0.88840   0.53360   1.000
    H91     H    0.11510   0.92480   0.56930   1.000
    N24     N    0.96540   0.72880   0.39170   1.000
    H92     H    0.96800   0.69340   0.36680   1.000
    C131    C    0.36520   0.45730   0.20650   1.000
    C132    C    0.38320   0.24280   0.81660   1.000
    H93     H    0.40180   0.28700   0.82070   1.000
    C133    C    0.45450   0.77070   0.89150   1.000
    C134    C    0.72350   0.57830   0.25210   1.000
    H94     H    0.74710   0.55090   0.23810   1.000
    C135    C    0.87720   0.31690   0.91360   1.000
    C136    C    0.11790   0.39870   0.99370   1.000
    H95     H    0.14290   0.37600   0.97580   1.000
    C137    C    0.30700   0.22660   0.46260   1.000
    C138    C    0.04350   0.36860   0.96540   1.000
    H96     H    0.01710   0.32650   0.92770   1.000
    C139    C    0.33340   0.11580   0.79990   1.000
    H97     H    0.31940   0.07180   0.79750   1.000
    C140    C    0.31690   0.36430   0.33230   1.000
    C141    C    0.34810   0.42530   0.24930   1.000
    C142    C    0.41760   0.91630   0.80180   1.000
    H98     H    0.40220   0.95010   0.81880   1.000
    C143    C    0.32370   0.32890   0.27690   1.000
    H99     H    0.31730   0.28350   0.26610   1.000
    C144    C    0.34220   0.46140   0.30620   1.000
    H100    H    0.34880   0.50680   0.31680   1.000
    C145    C    0.33120   0.16500   0.84910   1.000
    H101    H    0.31100   0.15290   0.87610   1.000
    C146    C    0.34130   0.71790   0.31780   1.000
    H102    H    0.29730   0.71650   0.32030   1.000
    C147    C    0.03500   0.78490   0.43940   1.000
    C148    C    0.31370   0.28410   0.38620   1.000
    C149    C    0.16130   0.83560   0.46920   1.000
    H103    H    0.20110   0.83490   0.46030   1.000
    C150    C    0.33940   0.35970   0.23920   1.000
    H104    H    0.34510   0.33470   0.20290   1.000
    C151    C    0.04200   0.83620   0.49160   1.000
    H105    H    0.00100   0.83620   0.49880   1.000
    C152    C    0.89760   0.72510   0.38170   1.000
    C153    C    0.45490   0.82510   0.81210   1.000
    C154    C    0.45340   0.86340   0.72450   1.000
    H106    H    0.46410   0.86090   0.68810   1.000
    C155    C    0.32760   0.43230   0.34420   1.000
    H107    H    0.32400   0.45790   0.38170   1.000
    C156    C    0.33780   0.66690   0.26650   1.000
    H108    H    0.29130   0.63130   0.23430   1.000
    C157    C    0.38180   0.19020   0.76740   1.000
    H109    H    0.40220   0.20020   0.73980   1.000
    C158    C    0.42890   0.87410   0.83410   1.000
    H110    H    0.41950   0.87770   0.87130   1.000
    C159    C    0.09460   0.78550   0.42850   1.000
    H111    H    0.08810   0.74960   0.39120   1.000
    C160    C    0.46350   0.82050   0.75360   1.000
    H112    H    0.47700   0.78580   0.73490   1.000
    C161    C    0.35830   0.90530   0.45390   1.000
    H113    H    0.32160   0.92450   0.44340   1.000
    C162    C    0.35540   0.85610   0.40110   1.000
    H114    H    0.31930   0.84330   0.35420   1.000
    C163    C    0.46740   0.90950   0.52950   1.000
    H115    H    0.51240   0.93590   0.57210   1.000
    C164    C    0.46900   0.85630   0.48410   1.000
    H116    H    0.51040   0.84300   0.49790   1.000
    C165    C    0.37190   0.80810   0.45870   1.000
    H117    H    0.34650   0.76360   0.45010   1.000
    C166    C    0.37580   0.86040   0.50700   1.000
    H118    H    0.35260   0.85220   0.53310   1.000
    C167    C    0.45430   0.88730   0.44530   1.000
    H119    H    0.49170   0.89950   0.43340   1.000
    C168    C    0.44550   0.93390   0.48880   1.000
    H120    H    0.46810   0.97840   0.49560   1.000
