# CIF file generated by openbabel 2.4.1, see http://openbabel.sf.net
data_I
_chemical_name_common 'image0'
_cell_length_a 27.75
_cell_length_b 27.75
_cell_length_c 27.75
_cell_angle_alpha 70.755
_cell_angle_beta 70.755
_cell_angle_gamma 70.755
_space_group_name_H-M_alt 'P 1'
_space_group_name_Hall 'P 1'
loop_
    _symmetry_equiv_pos_as_xyz
    x,y,z
loop_
    _atom_site_label
    _atom_site_type_symbol
    _atom_site_fract_x
    _atom_site_fract_y
    _atom_site_fract_z
    _atom_site_occupancy
    O1      O    0.73290   0.34820   0.42370   1.000
    N1      N    0.77920   0.34460   0.43520   1.000
    C1      C    0.77620   0.32220   0.48380   1.000
    H1      H    0.74500   0.31090   0.50400   1.000
    C2      C    0.81630   0.31230   0.51100   1.000
    C3      C    0.86370   0.33030   0.48490   1.000
    C4      C    0.90060   0.31830   0.51600   1.000
    C5      C    0.89100   0.28700   0.56820   1.000
    H2      H    0.91620   0.27880   0.58780   1.000
    C6      C    0.84640   0.26770   0.59200   1.000
    C7      C    0.80930   0.28110   0.56320   1.000
    H3      H    0.77820   0.26870   0.57920   1.000
    C8      C    0.94910   0.33560   0.49660   1.000
    H4      H    0.97000   0.32710   0.52080   1.000
    N2      N    0.96560   0.36110   0.45020   1.000
    O2      O    0.01390   0.36910   0.44600   1.000
    C9      C    0.12350   0.36030   0.43330   1.000
    H5      H    0.10660   0.33490   0.45960   1.000
    C10     C    0.17250   0.36080   0.43480   1.000
    H6      H    0.18910   0.33520   0.46090   1.000
    O3      O    0.87190   0.35830   0.43720   1.000
    C11     C    0.83860   0.23320   0.64880   1.000
    O4      O    0.27120   0.36620   0.43550   1.000
    C12     C    0.02630   0.20810   0.20540   1.000
    C13     C    0.08060   0.21800   0.17780   1.000
    H7      H    0.07700   0.25410   0.15560   1.000
    H8      H    0.09930   0.21310   0.20410   1.000
    H9      H    0.10050   0.19300   0.15580   1.000
    C14     C    0.99510   0.22210   0.16410   1.000
    H10     H    0.95990   0.21590   0.18160   1.000
    H11     H    0.99170   0.25940   0.14530   1.000
    H12     H    0.01370   0.20010   0.13900   1.000
    C15     C    0.02810   0.15280   0.24090   1.000
    H13     H    0.99210   0.14870   0.25760   1.000
    H14     H    0.04730   0.12690   0.21980   1.000
    H15     H    0.04600   0.14700   0.26810   1.000
    C16     C    0.88900   0.19240   0.65890   1.000
    H16     H    0.88210   0.17140   0.69540   1.000
    H17     H    0.90090   0.16920   0.63500   1.000
    H18     H    0.91630   0.21030   0.65280   1.000
    C17     C    0.79680   0.20240   0.66250   1.000
    H19     H    0.76350   0.22700   0.65660   1.000
    H20     H    0.80870   0.17770   0.64010   1.000
    H21     H    0.79170   0.18280   0.69960   1.000
    C18     C    0.81720   0.27160   0.68460   1.000
    H22     H    0.78490   0.29680   0.67640   1.000
    H23     H    0.80950   0.25180   0.72150   1.000
    H24     H    0.84370   0.29060   0.67860   1.000
    C19     C    0.85100   0.17510   0.64850   1.000
    H25     H    0.88650   0.16450   0.62710   1.000
    H26     H    0.84790   0.15310   0.68460   1.000
    H27     H    0.82550   0.17060   0.63360   1.000
    C20     C    0.78270   0.24900   0.68220   1.000
    H28     H    0.77960   0.22630   0.71790   1.000
    H29     H    0.77520   0.28590   0.68380   1.000
    H30     H    0.75750   0.24600   0.66640   1.000
    C21     C    0.87590   0.23800   0.67640   1.000
    H31     H    0.91240   0.22820   0.65620   1.000
    H32     H    0.86760   0.27470   0.67850   1.000
    H33     H    0.87160   0.21490   0.71200   1.000
    C22     C    0.63630   0.41300   0.35900   1.000
    H34     H    0.64300   0.44550   0.35600   1.000
    C23     C    0.58730   0.41300   0.35600   1.000
    H35     H    0.56160   0.44520   0.34930   1.000
    C24     C    0.62010   0.32490   0.35040   1.000
    H36     H    0.61700   0.29810   0.33820   1.000
    C25     C    0.66860   0.32500   0.35430   1.000
    H37     H    0.69760   0.29570   0.34860   1.000
    O5      O    0.42370   0.73290   0.34820   1.000
    N3      N    0.43520   0.77920   0.34460   1.000
    C26     C    0.48380   0.77620   0.32220   1.000
    H38     H    0.50400   0.74500   0.31090   1.000
    C27     C    0.51100   0.81630   0.31230   1.000
    C28     C    0.48490   0.86370   0.33030   1.000
    C29     C    0.51600   0.90060   0.31830   1.000
    C30     C    0.56820   0.89100   0.28700   1.000
    H39     H    0.58780   0.91620   0.27880   1.000
    C31     C    0.59200   0.84640   0.26770   1.000
    C32     C    0.56320   0.80930   0.28110   1.000
    H40     H    0.57920   0.77820   0.26870   1.000
    C33     C    0.49660   0.94910   0.33560   1.000
    H41     H    0.52080   0.97000   0.32710   1.000
    N4      N    0.45020   0.96560   0.36110   1.000
    O6      O    0.44600   0.01390   0.36910   1.000
    C34     C    0.43330   0.12350   0.36030   1.000
    H42     H    0.45960   0.10660   0.33490   1.000
    C35     C    0.43480   0.17250   0.36080   1.000
    H43     H    0.46090   0.18910   0.33520   1.000
    O7      O    0.43720   0.87190   0.35830   1.000
    C36     C    0.64880   0.83860   0.23320   1.000
    O8      O    0.43550   0.27120   0.36620   1.000
    C37     C    0.20540   0.02630   0.20810   1.000
    C38     C    0.17780   0.08060   0.21800   1.000
    H44     H    0.15560   0.07700   0.25410   1.000
    H45     H    0.20410   0.09930   0.21310   1.000
    H46     H    0.15580   0.10050   0.19300   1.000
    C39     C    0.16410   0.99510   0.22210   1.000
    H47     H    0.18160   0.95990   0.21590   1.000
    H48     H    0.14530   0.99170   0.25940   1.000
    H49     H    0.13900   0.01370   0.20010   1.000
    C40     C    0.24090   0.02810   0.15280   1.000
    H50     H    0.25760   0.99210   0.14870   1.000
    H51     H    0.21980   0.04730   0.12690   1.000
    H52     H    0.26810   0.04600   0.14700   1.000
    C41     C    0.65890   0.88900   0.19240   1.000
    H53     H    0.69540   0.88210   0.17140   1.000
    H54     H    0.63500   0.90090   0.16920   1.000
    H55     H    0.65280   0.91630   0.21030   1.000
    C42     C    0.66250   0.79680   0.20240   1.000
    H56     H    0.65660   0.76350   0.22700   1.000
    H57     H    0.64010   0.80870   0.17770   1.000
    H58     H    0.69960   0.79170   0.18280   1.000
    C43     C    0.68460   0.81720   0.27160   1.000
    H59     H    0.67640   0.78490   0.29680   1.000
    H60     H    0.72150   0.80950   0.25180   1.000
    H61     H    0.67860   0.84370   0.29060   1.000
    C44     C    0.64850   0.85100   0.17510   1.000
    H62     H    0.62710   0.88650   0.16450   1.000
    H63     H    0.68460   0.84790   0.15310   1.000
    H64     H    0.63360   0.82550   0.17060   1.000
    C45     C    0.68220   0.78270   0.24900   1.000
    H65     H    0.71790   0.77960   0.22630   1.000
    H66     H    0.68380   0.77520   0.28590   1.000
    H67     H    0.66640   0.75750   0.24600   1.000
    C46     C    0.67640   0.87590   0.23800   1.000
    H68     H    0.65620   0.91240   0.22820   1.000
    H69     H    0.67850   0.86760   0.27470   1.000
    H70     H    0.71200   0.87160   0.21490   1.000
    C47     C    0.35900   0.63630   0.41300   1.000
    H71     H    0.35600   0.64300   0.44550   1.000
    C48     C    0.35600   0.58730   0.41300   1.000
    H72     H    0.34930   0.56160   0.44520   1.000
    C49     C    0.35040   0.62010   0.32490   1.000
    H73     H    0.33820   0.61700   0.29810   1.000
    C50     C    0.35430   0.66860   0.32500   1.000
    H74     H    0.34860   0.69760   0.29570   1.000
    O9      O    0.34820   0.42370   0.73290   1.000
    N5      N    0.34460   0.43520   0.77920   1.000
    C51     C    0.32220   0.48380   0.77620   1.000
    H75     H    0.31090   0.50400   0.74500   1.000
    C52     C    0.31230   0.51100   0.81630   1.000
    C53     C    0.33030   0.48490   0.86370   1.000
    C54     C    0.31830   0.51600   0.90060   1.000
    C55     C    0.28700   0.56820   0.89100   1.000
    H76     H    0.27880   0.58780   0.91620   1.000
    C56     C    0.26770   0.59200   0.84640   1.000
    C57     C    0.28110   0.56320   0.80930   1.000
    H77     H    0.26870   0.57920   0.77820   1.000
    C58     C    0.33560   0.49660   0.94910   1.000
    H78     H    0.32710   0.52080   0.97000   1.000
    N6      N    0.36110   0.45020   0.96560   1.000
    O10     O    0.36910   0.44600   0.01390   1.000
    C59     C    0.36030   0.43330   0.12350   1.000
    H79     H    0.33490   0.45960   0.10660   1.000
    C60     C    0.36080   0.43480   0.17250   1.000
    H80     H    0.33520   0.46090   0.18910   1.000
    O11     O    0.35830   0.43720   0.87190   1.000
    C61     C    0.23320   0.64880   0.83860   1.000
    O12     O    0.36620   0.43550   0.27120   1.000
    C62     C    0.20810   0.20540   0.02630   1.000
    C63     C    0.21800   0.17780   0.08060   1.000
    H81     H    0.25410   0.15560   0.07700   1.000
    H82     H    0.21310   0.20410   0.09930   1.000
    H83     H    0.19300   0.15580   0.10050   1.000
    C64     C    0.22210   0.16410   0.99510   1.000
    H84     H    0.21590   0.18160   0.95990   1.000
    H85     H    0.25940   0.14530   0.99170   1.000
    H86     H    0.20010   0.13900   0.01370   1.000
    C65     C    0.15280   0.24090   0.02810   1.000
    H87     H    0.14870   0.25760   0.99210   1.000
    H88     H    0.12690   0.21980   0.04730   1.000
    H89     H    0.14700   0.26810   0.04600   1.000
    C66     C    0.19240   0.65890   0.88900   1.000
    H90     H    0.17140   0.69540   0.88210   1.000
    H91     H    0.16920   0.63500   0.90090   1.000
    H92     H    0.21030   0.65280   0.91630   1.000
    C67     C    0.20240   0.66250   0.79680   1.000
    H93     H    0.22700   0.65660   0.76350   1.000
    H94     H    0.17770   0.64010   0.80870   1.000
    H95     H    0.18280   0.69960   0.79170   1.000
    C68     C    0.27160   0.68460   0.81720   1.000
    H96     H    0.29680   0.67640   0.78490   1.000
    H97     H    0.25180   0.72150   0.80950   1.000
    H98     H    0.29060   0.67860   0.84370   1.000
    C69     C    0.17510   0.64850   0.85100   1.000
    H99     H    0.16450   0.62710   0.88650   1.000
    H100    H    0.15310   0.68460   0.84790   1.000
    H101    H    0.17060   0.63360   0.82550   1.000
    C70     C    0.24900   0.68220   0.78270   1.000
    H102    H    0.22630   0.71790   0.77960   1.000
    H103    H    0.28590   0.68380   0.77520   1.000
    H104    H    0.24600   0.66640   0.75750   1.000
    C71     C    0.23800   0.67640   0.87590   1.000
    H105    H    0.22820   0.65620   0.91240   1.000
    H106    H    0.27470   0.67850   0.86760   1.000
    H107    H    0.21490   0.71200   0.87160   1.000
    C72     C    0.41300   0.35900   0.63630   1.000
    H108    H    0.44550   0.35600   0.64300   1.000
    C73     C    0.41300   0.35600   0.58730   1.000
    H109    H    0.44520   0.34930   0.56160   1.000
    C74     C    0.32490   0.35040   0.62010   1.000
    H110    H    0.29810   0.33820   0.61700   1.000
    C75     C    0.32500   0.35430   0.66860   1.000
    H111    H    0.29570   0.34860   0.69760   1.000
    O13     O    0.34820   0.73290   0.42370   1.000
    N7      N    0.34460   0.77920   0.43520   1.000
    C76     C    0.32220   0.77620   0.48380   1.000
    H112    H    0.31090   0.74500   0.50400   1.000
    C77     C    0.31230   0.81630   0.51100   1.000
    C78     C    0.33030   0.86370   0.48490   1.000
    C79     C    0.31830   0.90060   0.51600   1.000
    C80     C    0.28700   0.89100   0.56820   1.000
    H113    H    0.27880   0.91620   0.58780   1.000
    C81     C    0.26770   0.84640   0.59200   1.000
    C82     C    0.28110   0.80930   0.56320   1.000
    H114    H    0.26870   0.77820   0.57920   1.000
    C83     C    0.33560   0.94910   0.49660   1.000
    H115    H    0.32710   0.97000   0.52080   1.000
    N8      N    0.36110   0.96560   0.45020   1.000
    O14     O    0.36910   0.01390   0.44600   1.000
    C84     C    0.36030   0.12350   0.43330   1.000
    H116    H    0.33490   0.10660   0.45960   1.000
    C85     C    0.36080   0.17250   0.43480   1.000
    H117    H    0.33520   0.18910   0.46090   1.000
    O15     O    0.35830   0.87190   0.43720   1.000
    C86     C    0.23320   0.83860   0.64880   1.000
    O16     O    0.36620   0.27120   0.43550   1.000
    C87     C    0.20810   0.02630   0.20540   1.000
    C88     C    0.21800   0.08060   0.17780   1.000
    H118    H    0.25410   0.07700   0.15560   1.000
    H119    H    0.21310   0.09930   0.20410   1.000
    H120    H    0.19300   0.10050   0.15580   1.000
    C89     C    0.22210   0.99510   0.16410   1.000
    H121    H    0.21590   0.95990   0.18160   1.000
    H122    H    0.25940   0.99170   0.14530   1.000
    H123    H    0.20010   0.01370   0.13900   1.000
    C90     C    0.15280   0.02810   0.24090   1.000
    H124    H    0.14870   0.99210   0.25760   1.000
    H125    H    0.12690   0.04730   0.21980   1.000
    H126    H    0.14700   0.04600   0.26810   1.000
    C91     C    0.19240   0.88900   0.65890   1.000
    H127    H    0.17140   0.88210   0.69540   1.000
    H128    H    0.16920   0.90090   0.63500   1.000
    H129    H    0.21030   0.91630   0.65280   1.000
    C92     C    0.20240   0.79680   0.66250   1.000
    H130    H    0.22700   0.76350   0.65660   1.000
    H131    H    0.17770   0.80870   0.64010   1.000
    H132    H    0.18280   0.79170   0.69960   1.000
    C93     C    0.27160   0.81720   0.68460   1.000
    H133    H    0.29680   0.78490   0.67640   1.000
    H134    H    0.25180   0.80950   0.72150   1.000
    H135    H    0.29060   0.84370   0.67860   1.000
    C94     C    0.17510   0.85100   0.64850   1.000
    H136    H    0.16450   0.88650   0.62710   1.000
    H137    H    0.15310   0.84790   0.68460   1.000
    H138    H    0.17060   0.82550   0.63360   1.000
    C95     C    0.24900   0.78270   0.68220   1.000
    H139    H    0.22630   0.77960   0.71790   1.000
    H140    H    0.28590   0.77520   0.68380   1.000
    H141    H    0.24600   0.75750   0.66640   1.000
    C96     C    0.23800   0.87590   0.67640   1.000
    H142    H    0.22820   0.91240   0.65620   1.000
    H143    H    0.27470   0.86760   0.67850   1.000
    H144    H    0.21490   0.87160   0.71200   1.000
    C97     C    0.41300   0.63630   0.35900   1.000
    H145    H    0.44550   0.64300   0.35600   1.000
    C98     C    0.41300   0.58730   0.35600   1.000
    H146    H    0.44520   0.56160   0.34930   1.000
    C99     C    0.32490   0.62010   0.35040   1.000
    H147    H    0.29810   0.61700   0.33820   1.000
    C100    C    0.32500   0.66860   0.35430   1.000
    H148    H    0.29570   0.69760   0.34860   1.000
    O17     O    0.73290   0.42370   0.34820   1.000
    N9      N    0.77920   0.43520   0.34460   1.000
    C101    C    0.77620   0.48380   0.32220   1.000
    H149    H    0.74500   0.50400   0.31090   1.000
    C102    C    0.81630   0.51100   0.31230   1.000
    C103    C    0.86370   0.48490   0.33030   1.000
    C104    C    0.90060   0.51600   0.31830   1.000
    C105    C    0.89100   0.56820   0.28700   1.000
    H150    H    0.91620   0.58780   0.27880   1.000
    C106    C    0.84640   0.59200   0.26770   1.000
    C107    C    0.80930   0.56320   0.28110   1.000
    H151    H    0.77820   0.57920   0.26870   1.000
    C108    C    0.94910   0.49660   0.33560   1.000
    H152    H    0.97000   0.52080   0.32710   1.000
    N10     N    0.96560   0.45020   0.36110   1.000
    O18     O    0.01390   0.44600   0.36910   1.000
    C109    C    0.12350   0.43330   0.36030   1.000
    H153    H    0.10660   0.45960   0.33490   1.000
    C110    C    0.17250   0.43480   0.36080   1.000
    H154    H    0.18910   0.46090   0.33520   1.000
    O19     O    0.87190   0.43720   0.35830   1.000
    C111    C    0.83860   0.64880   0.23320   1.000
    O20     O    0.27120   0.43550   0.36620   1.000
    C112    C    0.02630   0.20540   0.20810   1.000
    C113    C    0.08060   0.17780   0.21800   1.000
    H155    H    0.07700   0.15560   0.25410   1.000
    H156    H    0.09930   0.20410   0.21310   1.000
    H157    H    0.10050   0.15580   0.19300   1.000
    C114    C    0.99510   0.16410   0.22210   1.000
    H158    H    0.95990   0.18160   0.21590   1.000
    H159    H    0.99170   0.14530   0.25940   1.000
    H160    H    0.01370   0.13900   0.20010   1.000
    C115    C    0.02810   0.24090   0.15280   1.000
    H161    H    0.99210   0.25760   0.14870   1.000
    H162    H    0.04730   0.21980   0.12690   1.000
    H163    H    0.04600   0.26810   0.14700   1.000
    C116    C    0.88900   0.65890   0.19240   1.000
    H164    H    0.88210   0.69540   0.17140   1.000
    H165    H    0.90090   0.63500   0.16920   1.000
    H166    H    0.91630   0.65280   0.21030   1.000
    C117    C    0.79680   0.66250   0.20240   1.000
    H167    H    0.76350   0.65660   0.22700   1.000
    H168    H    0.80870   0.64010   0.17770   1.000
    H169    H    0.79170   0.69960   0.18280   1.000
    C118    C    0.81720   0.68460   0.27160   1.000
    H170    H    0.78490   0.67640   0.29680   1.000
    H171    H    0.80950   0.72150   0.25180   1.000
    H172    H    0.84370   0.67860   0.29060   1.000
    C119    C    0.85100   0.64850   0.17510   1.000
    H173    H    0.88650   0.62710   0.16450   1.000
    H174    H    0.84790   0.68460   0.15310   1.000
    H175    H    0.82550   0.63360   0.17060   1.000
    C120    C    0.78270   0.68220   0.24900   1.000
    H176    H    0.77960   0.71790   0.22630   1.000
    H177    H    0.77520   0.68380   0.28590   1.000
    H178    H    0.75750   0.66640   0.24600   1.000
    C121    C    0.87590   0.67640   0.23800   1.000
    H179    H    0.91240   0.65620   0.22820   1.000
    H180    H    0.86760   0.67850   0.27470   1.000
    H181    H    0.87160   0.71200   0.21490   1.000
    C122    C    0.63630   0.35900   0.41300   1.000
    H182    H    0.64300   0.35600   0.44550   1.000
    C123    C    0.58730   0.35600   0.41300   1.000
    H183    H    0.56160   0.34930   0.44520   1.000
    C124    C    0.62010   0.35040   0.32490   1.000
    H184    H    0.61700   0.33820   0.29810   1.000
    C125    C    0.66860   0.35430   0.32500   1.000
    H185    H    0.69760   0.34860   0.29570   1.000
    O21     O    0.42370   0.34820   0.73290   1.000
    N11     N    0.43520   0.34460   0.77920   1.000
    C126    C    0.48380   0.32220   0.77620   1.000
    H186    H    0.50400   0.31090   0.74500   1.000
    C127    C    0.51100   0.31230   0.81630   1.000
    C128    C    0.48490   0.33030   0.86370   1.000
    C129    C    0.51600   0.31830   0.90060   1.000
    C130    C    0.56820   0.28700   0.89100   1.000
    H187    H    0.58780   0.27880   0.91620   1.000
    C131    C    0.59200   0.26770   0.84640   1.000
    C132    C    0.56320   0.28110   0.80930   1.000
    H188    H    0.57920   0.26870   0.77820   1.000
    C133    C    0.49660   0.33560   0.94910   1.000
    H189    H    0.52080   0.32710   0.97000   1.000
    N12     N    0.45020   0.36110   0.96560   1.000
    O22     O    0.44600   0.36910   0.01390   1.000
    C134    C    0.43330   0.36030   0.12350   1.000
    H190    H    0.45960   0.33490   0.10660   1.000
    C135    C    0.43480   0.36080   0.17250   1.000
    H191    H    0.46090   0.33520   0.18910   1.000
    O23     O    0.43720   0.35830   0.87190   1.000
    C136    C    0.64880   0.23320   0.83860   1.000
    O24     O    0.43550   0.36620   0.27120   1.000
    C137    C    0.20540   0.20810   0.02630   1.000
    C138    C    0.17780   0.21800   0.08060   1.000
    H192    H    0.15560   0.25410   0.07700   1.000
    H193    H    0.20410   0.21310   0.09930   1.000
    H194    H    0.15580   0.19300   0.10050   1.000
    C139    C    0.16410   0.22210   0.99510   1.000
    H195    H    0.18160   0.21590   0.95990   1.000
    H196    H    0.14530   0.25940   0.99170   1.000
    H197    H    0.13900   0.20010   0.01370   1.000
    C140    C    0.24090   0.15280   0.02810   1.000
    H198    H    0.25760   0.14870   0.99210   1.000
    H199    H    0.21980   0.12690   0.04730   1.000
    H200    H    0.26810   0.14700   0.04600   1.000
    C141    C    0.65890   0.19240   0.88900   1.000
    H201    H    0.69540   0.17140   0.88210   1.000
    H202    H    0.63500   0.16920   0.90090   1.000
    H203    H    0.65280   0.21030   0.91630   1.000
    C142    C    0.66250   0.20240   0.79680   1.000
    H204    H    0.65660   0.22700   0.76350   1.000
    H205    H    0.64010   0.17770   0.80870   1.000
    H206    H    0.69960   0.18280   0.79170   1.000
    C143    C    0.68460   0.27160   0.81720   1.000
    H207    H    0.67640   0.29680   0.78490   1.000
    H208    H    0.72150   0.25180   0.80950   1.000
    H209    H    0.67860   0.29060   0.84370   1.000
    C144    C    0.64850   0.17510   0.85100   1.000
    H210    H    0.62710   0.16450   0.88650   1.000
    H211    H    0.68460   0.15310   0.84790   1.000
    H212    H    0.63360   0.17060   0.82550   1.000
    C145    C    0.68220   0.24900   0.78270   1.000
    H213    H    0.71790   0.22630   0.77960   1.000
    H214    H    0.68380   0.28590   0.77520   1.000
    H215    H    0.66640   0.24600   0.75750   1.000
    C146    C    0.67640   0.23800   0.87590   1.000
    H216    H    0.65620   0.22820   0.91240   1.000
    H217    H    0.67850   0.27470   0.86760   1.000
    H218    H    0.71200   0.21490   0.87160   1.000
    C147    C    0.35900   0.41300   0.63630   1.000
    H219    H    0.35600   0.44550   0.64300   1.000
    C148    C    0.35600   0.41300   0.58730   1.000
    H220    H    0.34930   0.44520   0.56160   1.000
    C149    C    0.35040   0.32490   0.62010   1.000
    H221    H    0.33820   0.29810   0.61700   1.000
    C150    C    0.35430   0.32500   0.66860   1.000
    H222    H    0.34860   0.29570   0.69760   1.000
    Zn1     Zn   0.93724   0.38353   0.38353   1.000
    Zn2     Zn   0.83677   0.37573   0.37573   1.000
    Zn3     Zn   0.44230   0.34303   0.34303   1.000
    C151    C    0.67660   0.36640   0.36640   1.000
    C152    C    0.57600   0.36450   0.36450   1.000
    B1      B    0.73300   0.36800   0.36800   1.000
    B2      B    0.04030   0.39480   0.39480   1.000
    O25     O    0.77360   0.33520   0.33520   1.000
    N13     N    0.82450   0.33200   0.33200   1.000
    C153    C    0.85700   0.30270   0.30270   1.000
    H223    H    0.84280   0.28680   0.28680   1.000
    C154    C    0.91390   0.29140   0.29140   1.000
    C155    C    0.94090   0.31230   0.31230   1.000
    C156    C    0.99750   0.29770   0.29770   1.000
    C157    C    0.02390   0.26400   0.26400   1.000
    H224    H    0.06130   0.25470   0.25470   1.000
    C158    C    0.99730   0.24380   0.24380   1.000
    C159    C    0.94290   0.25780   0.25780   1.000
    H225    H    0.92440   0.24410   0.24410   1.000
    C160    C    0.02880   0.31690   0.31690   1.000
    H226    H    0.06580   0.30460   0.30460   1.000
    N14     N    0.01500   0.34810   0.34810   1.000
    O26     O    0.05630   0.35770   0.35770   1.000
    C161    C    0.09760   0.39520   0.39520   1.000
    C162    C    0.19770   0.39850   0.39850   1.000
    C163    C    0.52230   0.36360   0.36360   1.000
    O27     O    0.48560   0.39160   0.39160   1.000
    O28     O    0.51770   0.33760   0.33760   1.000
    O29     O    0.91470   0.34300   0.34300   1.000
    C164    C    0.25050   0.40070   0.40070   1.000
    C165    C    0.63030   0.39470   0.39470   1.000
    H227    H    0.63290   0.41500   0.41500   1.000
    C166    C    0.58080   0.39400   0.39400   1.000
    H228    H    0.55020   0.41370   0.41370   1.000
    C167    C    0.62130   0.33610   0.33610   1.000
    H229    H    0.61860   0.31580   0.31580   1.000
    C168    C    0.67030   0.33730   0.33730   1.000
    H230    H    0.70080   0.31760   0.31760   1.000
    Zn4     Zn   0.38353   0.93724   0.38353   1.000
    Zn5     Zn   0.37573   0.83677   0.37573   1.000
    Zn6     Zn   0.34303   0.44230   0.34303   1.000
    C169    C    0.36640   0.67660   0.36640   1.000
    C170    C    0.36450   0.57600   0.36450   1.000
    B3      B    0.36800   0.73300   0.36800   1.000
    B4      B    0.39480   0.04030   0.39480   1.000
    O30     O    0.33520   0.77360   0.33520   1.000
    N15     N    0.33200   0.82450   0.33200   1.000
    C171    C    0.30270   0.85700   0.30270   1.000
    H231    H    0.28680   0.84280   0.28680   1.000
    C172    C    0.29140   0.91390   0.29140   1.000
    C173    C    0.31230   0.94090   0.31230   1.000
    C174    C    0.29770   0.99750   0.29770   1.000
    C175    C    0.26400   0.02390   0.26400   1.000
    H232    H    0.25470   0.06130   0.25470   1.000
    C176    C    0.24380   0.99730   0.24380   1.000
    C177    C    0.25780   0.94290   0.25780   1.000
    H233    H    0.24410   0.92440   0.24410   1.000
    C178    C    0.31690   0.02880   0.31690   1.000
    H234    H    0.30460   0.06580   0.30460   1.000
    N16     N    0.34810   0.01500   0.34810   1.000
    O31     O    0.35770   0.05630   0.35770   1.000
    C179    C    0.39520   0.09760   0.39520   1.000
    C180    C    0.39850   0.19770   0.39850   1.000
    C181    C    0.36360   0.52230   0.36360   1.000
    O32     O    0.39160   0.48560   0.39160   1.000
    O33     O    0.33760   0.51770   0.33760   1.000
    O34     O    0.34300   0.91470   0.34300   1.000
    C182    C    0.40070   0.25050   0.40070   1.000
    C183    C    0.39470   0.63030   0.39470   1.000
    H235    H    0.41500   0.63290   0.41500   1.000
    C184    C    0.39400   0.58080   0.39400   1.000
    H236    H    0.41370   0.55020   0.41370   1.000
    C185    C    0.33610   0.62130   0.33610   1.000
    H237    H    0.31580   0.61860   0.31580   1.000
    C186    C    0.33730   0.67030   0.33730   1.000
    H238    H    0.31760   0.70080   0.31760   1.000
    Zn7     Zn   0.38353   0.38353   0.93724   1.000
    Zn8     Zn   0.37573   0.37573   0.83677   1.000
    Zn9     Zn   0.34303   0.34303   0.44230   1.000
    C187    C    0.36640   0.36640   0.67660   1.000
    C188    C    0.36450   0.36450   0.57600   1.000
    B5      B    0.36800   0.36800   0.73300   1.000
    B6      B    0.39480   0.39480   0.04030   1.000
    O35     O    0.33520   0.33520   0.77360   1.000
    N17     N    0.33200   0.33200   0.82450   1.000
    C189    C    0.30270   0.30270   0.85700   1.000
    H239    H    0.28680   0.28680   0.84280   1.000
    C190    C    0.29140   0.29140   0.91390   1.000
    C191    C    0.31230   0.31230   0.94090   1.000
    C192    C    0.29770   0.29770   0.99750   1.000
    C193    C    0.26400   0.26400   0.02390   1.000
    H240    H    0.25470   0.25470   0.06130   1.000
    C194    C    0.24380   0.24380   0.99730   1.000
    C195    C    0.25780   0.25780   0.94290   1.000
    H241    H    0.24410   0.24410   0.92440   1.000
    C196    C    0.31690   0.31690   0.02880   1.000
    H242    H    0.30460   0.30460   0.06580   1.000
    N18     N    0.34810   0.34810   0.01500   1.000
    O36     O    0.35770   0.35770   0.05630   1.000
    C197    C    0.39520   0.39520   0.09760   1.000
    C198    C    0.39850   0.39850   0.19770   1.000
    C199    C    0.36360   0.36360   0.52230   1.000
    O37     O    0.39160   0.39160   0.48560   1.000
    O38     O    0.33760   0.33760   0.51770   1.000
    O39     O    0.34300   0.34300   0.91470   1.000
    C200    C    0.40070   0.40070   0.25050   1.000
    C201    C    0.39470   0.39470   0.63030   1.000
    H243    H    0.41500   0.41500   0.63290   1.000
    C202    C    0.39400   0.39400   0.58080   1.000
    H244    H    0.41370   0.41370   0.55020   1.000
    C203    C    0.33610   0.33610   0.62130   1.000
    H245    H    0.31580   0.31580   0.61860   1.000
    C204    C    0.33730   0.33730   0.67030   1.000
    H246    H    0.31760   0.31760   0.70080   1.000
    Zn10    Zn   0.41684   0.41684   0.41684   1.000
    O40     O    0.38510   0.38510   0.38510   1.000
    O41     O    0.65180   0.26710   0.57630   1.000
    N19     N    0.65540   0.22080   0.56480   1.000
    C205    C    0.67780   0.22380   0.51620   1.000
    H247    H    0.68910   0.25500   0.49600   1.000
    C206    C    0.68770   0.18370   0.48900   1.000
    C207    C    0.66970   0.13630   0.51510   1.000
    C208    C    0.68170   0.09940   0.48400   1.000
    C209    C    0.71300   0.10900   0.43180   1.000
    H248    H    0.72120   0.08380   0.41220   1.000
    C210    C    0.73230   0.15360   0.40800   1.000
    C211    C    0.71890   0.19070   0.43680   1.000
    H249    H    0.73130   0.22180   0.42080   1.000
    C212    C    0.66440   0.05090   0.50340   1.000
    H250    H    0.67290   0.03000   0.47920   1.000
    N20     N    0.63890   0.03440   0.54980   1.000
    O42     O    0.63090   0.98610   0.55400   1.000
    C213    C    0.63970   0.87650   0.56670   1.000
    H251    H    0.66510   0.89340   0.54040   1.000
    C214    C    0.63920   0.82750   0.56520   1.000
    H252    H    0.66480   0.81090   0.53910   1.000
    O43     O    0.64170   0.12810   0.56280   1.000
    C215    C    0.76680   0.16140   0.35120   1.000
    O44     O    0.63380   0.72880   0.56450   1.000
    C216    C    0.79190   0.97370   0.79460   1.000
    C217    C    0.78200   0.91940   0.82220   1.000
    H253    H    0.74590   0.92300   0.84440   1.000
    H254    H    0.78690   0.90070   0.79590   1.000
    H255    H    0.80700   0.89950   0.84420   1.000
    C218    C    0.77790   0.00490   0.83590   1.000
    H256    H    0.78410   0.04010   0.81840   1.000
    H257    H    0.74060   0.00830   0.85470   1.000
    H258    H    0.79990   0.98630   0.86100   1.000
    C219    C    0.84720   0.97190   0.75910   1.000
    H259    H    0.85130   0.00790   0.74240   1.000
    H260    H    0.87310   0.95270   0.78020   1.000
    H261    H    0.85300   0.95400   0.73190   1.000
    C220    C    0.80760   0.11100   0.34110   1.000
    H262    H    0.82860   0.11790   0.30460   1.000
    H263    H    0.83080   0.09910   0.36500   1.000
    H264    H    0.78970   0.08370   0.34720   1.000
    C221    C    0.79760   0.20320   0.33750   1.000
    H265    H    0.77300   0.23650   0.34340   1.000
    H266    H    0.82230   0.19130   0.35990   1.000
    H267    H    0.81720   0.20830   0.30040   1.000
    C222    C    0.72840   0.18280   0.31540   1.000
    H268    H    0.70320   0.21510   0.32360   1.000
    H269    H    0.74820   0.19050   0.27850   1.000
    H270    H    0.70940   0.15630   0.32140   1.000
    C223    C    0.82490   0.14900   0.35150   1.000
    H271    H    0.83550   0.11350   0.37290   1.000
    H272    H    0.84690   0.15210   0.31540   1.000
    H273    H    0.82940   0.17450   0.36640   1.000
    C224    C    0.75100   0.21730   0.31780   1.000
    H274    H    0.77370   0.22040   0.28210   1.000
    H275    H    0.71410   0.22480   0.31620   1.000
    H276    H    0.75400   0.24250   0.33360   1.000
    C225    C    0.76200   0.12410   0.32360   1.000
    H277    H    0.77180   0.08760   0.34380   1.000
    H278    H    0.72530   0.13240   0.32150   1.000
    H279    H    0.78510   0.12840   0.28800   1.000
    C226    C    0.58700   0.36370   0.64100   1.000
    H280    H    0.55450   0.35700   0.64400   1.000
    C227    C    0.58700   0.41270   0.64400   1.000
    H281    H    0.55480   0.43840   0.65070   1.000
    C228    C    0.67510   0.37990   0.64960   1.000
    H282    H    0.70190   0.38300   0.66180   1.000
    C229    C    0.67500   0.33140   0.64570   1.000
    H283    H    0.70430   0.30240   0.65140   1.000
    O45     O    0.26710   0.57630   0.65180   1.000
    N21     N    0.22080   0.56480   0.65540   1.000
    C230    C    0.22380   0.51620   0.67780   1.000
    H284    H    0.25500   0.49600   0.68910   1.000
    C231    C    0.18370   0.48900   0.68770   1.000
    C232    C    0.13630   0.51510   0.66970   1.000
    C233    C    0.09940   0.48400   0.68170   1.000
    C234    C    0.10900   0.43180   0.71300   1.000
    H285    H    0.08380   0.41220   0.72120   1.000
    C235    C    0.15360   0.40800   0.73230   1.000
    C236    C    0.19070   0.43680   0.71890   1.000
    H286    H    0.22180   0.42080   0.73130   1.000
    C237    C    0.05090   0.50340   0.66440   1.000
    H287    H    0.03000   0.47920   0.67290   1.000
    N22     N    0.03440   0.54980   0.63890   1.000
    O46     O    0.98610   0.55400   0.63090   1.000
    C238    C    0.87650   0.56670   0.63970   1.000
    H288    H    0.89340   0.54040   0.66510   1.000
    C239    C    0.82750   0.56520   0.63920   1.000
    H289    H    0.81090   0.53910   0.66480   1.000
    O47     O    0.12810   0.56280   0.64170   1.000
    C240    C    0.16140   0.35120   0.76680   1.000
    O48     O    0.72880   0.56450   0.63380   1.000
    C241    C    0.97370   0.79460   0.79190   1.000
    C242    C    0.91940   0.82220   0.78200   1.000
    H290    H    0.92300   0.84440   0.74590   1.000
    H291    H    0.90070   0.79590   0.78690   1.000
    H292    H    0.89950   0.84420   0.80700   1.000
    C243    C    0.00490   0.83590   0.77790   1.000
    H293    H    0.04010   0.81840   0.78410   1.000
    H294    H    0.00830   0.85470   0.74060   1.000
    H295    H    0.98630   0.86100   0.79990   1.000
    C244    C    0.97190   0.75910   0.84720   1.000
    H296    H    0.00790   0.74240   0.85130   1.000
    H297    H    0.95270   0.78020   0.87310   1.000
    H298    H    0.95400   0.73190   0.85300   1.000
    C245    C    0.11100   0.34110   0.80760   1.000
    H299    H    0.11790   0.30460   0.82860   1.000
    H300    H    0.09910   0.36500   0.83080   1.000
    H301    H    0.08370   0.34720   0.78970   1.000
    C246    C    0.20320   0.33750   0.79760   1.000
    H302    H    0.23650   0.34340   0.77300   1.000
    H303    H    0.19130   0.35990   0.82230   1.000
    H304    H    0.20830   0.30040   0.81720   1.000
    C247    C    0.18280   0.31540   0.72840   1.000
    H305    H    0.21510   0.32360   0.70320   1.000
    H306    H    0.19050   0.27850   0.74820   1.000
    H307    H    0.15630   0.32140   0.70940   1.000
    C248    C    0.14900   0.35150   0.82490   1.000
    H308    H    0.11350   0.37290   0.83550   1.000
    H309    H    0.15210   0.31540   0.84690   1.000
    H310    H    0.17450   0.36640   0.82940   1.000
    C249    C    0.21730   0.31780   0.75100   1.000
    H311    H    0.22040   0.28210   0.77370   1.000
    H312    H    0.22480   0.31620   0.71410   1.000
    H313    H    0.24250   0.33360   0.75400   1.000
    C250    C    0.12410   0.32360   0.76200   1.000
    H314    H    0.08760   0.34380   0.77180   1.000
    H315    H    0.13240   0.32150   0.72530   1.000
    H316    H    0.12840   0.28800   0.78510   1.000
    C251    C    0.36370   0.64100   0.58700   1.000
    H317    H    0.35700   0.64400   0.55450   1.000
    C252    C    0.41270   0.64400   0.58700   1.000
    H318    H    0.43840   0.65070   0.55480   1.000
    C253    C    0.37990   0.64960   0.67510   1.000
    H319    H    0.38300   0.66180   0.70190   1.000
    C254    C    0.33140   0.64570   0.67500   1.000
    H320    H    0.30240   0.65140   0.70430   1.000
    O49     O    0.57630   0.65180   0.26710   1.000
    N23     N    0.56480   0.65540   0.22080   1.000
    C255    C    0.51620   0.67780   0.22380   1.000
    H321    H    0.49600   0.68910   0.25500   1.000
    C256    C    0.48900   0.68770   0.18370   1.000
    C257    C    0.51510   0.66970   0.13630   1.000
    C258    C    0.48400   0.68170   0.09940   1.000
    C259    C    0.43180   0.71300   0.10900   1.000
    H322    H    0.41220   0.72120   0.08380   1.000
    C260    C    0.40800   0.73230   0.15360   1.000
    C261    C    0.43680   0.71890   0.19070   1.000
    H323    H    0.42080   0.73130   0.22180   1.000
    C262    C    0.50340   0.66440   0.05090   1.000
    H324    H    0.47920   0.67290   0.03000   1.000
    N24     N    0.54980   0.63890   0.03440   1.000
    O50     O    0.55400   0.63090   0.98610   1.000
    C263    C    0.56670   0.63970   0.87650   1.000
    H325    H    0.54040   0.66510   0.89340   1.000
    C264    C    0.56520   0.63920   0.82750   1.000
    H326    H    0.53910   0.66480   0.81090   1.000
    O51     O    0.56280   0.64170   0.12810   1.000
    C265    C    0.35120   0.76680   0.16140   1.000
    O52     O    0.56450   0.63380   0.72880   1.000
    C266    C    0.79460   0.79190   0.97370   1.000
    C267    C    0.82220   0.78200   0.91940   1.000
    H327    H    0.84440   0.74590   0.92300   1.000
    H328    H    0.79590   0.78690   0.90070   1.000
    H329    H    0.84420   0.80700   0.89950   1.000
    C268    C    0.83590   0.77790   0.00490   1.000
    H330    H    0.81840   0.78410   0.04010   1.000
    H331    H    0.85470   0.74060   0.00830   1.000
    H332    H    0.86100   0.79990   0.98630   1.000
    C269    C    0.75910   0.84720   0.97190   1.000
    H333    H    0.74240   0.85130   0.00790   1.000
    H334    H    0.78020   0.87310   0.95270   1.000
    H335    H    0.73190   0.85300   0.95400   1.000
    C270    C    0.34110   0.80760   0.11100   1.000
    H336    H    0.30460   0.82860   0.11790   1.000
    H337    H    0.36500   0.83080   0.09910   1.000
    H338    H    0.34720   0.78970   0.08370   1.000
    C271    C    0.33750   0.79760   0.20320   1.000
    H339    H    0.34340   0.77300   0.23650   1.000
    H340    H    0.35990   0.82230   0.19130   1.000
    H341    H    0.30040   0.81720   0.20830   1.000
    C272    C    0.31540   0.72840   0.18280   1.000
    H342    H    0.32360   0.70320   0.21510   1.000
    H343    H    0.27850   0.74820   0.19050   1.000
    H344    H    0.32140   0.70940   0.15630   1.000
    C273    C    0.35150   0.82490   0.14900   1.000
    H345    H    0.37290   0.83550   0.11350   1.000
    H346    H    0.31540   0.84690   0.15210   1.000
    H347    H    0.36640   0.82940   0.17450   1.000
    C274    C    0.31780   0.75100   0.21730   1.000
    H348    H    0.28210   0.77370   0.22040   1.000
    H349    H    0.31620   0.71410   0.22480   1.000
    H350    H    0.33360   0.75400   0.24250   1.000
    C275    C    0.32360   0.76200   0.12410   1.000
    H351    H    0.34380   0.77180   0.08760   1.000
    H352    H    0.32150   0.72530   0.13240   1.000
    H353    H    0.28800   0.78510   0.12840   1.000
    C276    C    0.64100   0.58700   0.36370   1.000
    H354    H    0.64400   0.55450   0.35700   1.000
    C277    C    0.64400   0.58700   0.41270   1.000
    H355    H    0.65070   0.55480   0.43840   1.000
    C278    C    0.64960   0.67510   0.37990   1.000
    H356    H    0.66180   0.70190   0.38300   1.000
    C279    C    0.64570   0.67500   0.33140   1.000
    H357    H    0.65140   0.70430   0.30240   1.000
    O53     O    0.26710   0.65180   0.57630   1.000
    N25     N    0.22080   0.65540   0.56480   1.000
    C280    C    0.22380   0.67780   0.51620   1.000
    H358    H    0.25500   0.68910   0.49600   1.000
    C281    C    0.18370   0.68770   0.48900   1.000
    C282    C    0.13630   0.66970   0.51510   1.000
    C283    C    0.09940   0.68170   0.48400   1.000
    C284    C    0.10900   0.71300   0.43180   1.000
    H359    H    0.08380   0.72120   0.41220   1.000
    C285    C    0.15360   0.73230   0.40800   1.000
    C286    C    0.19070   0.71890   0.43680   1.000
    H360    H    0.22180   0.73130   0.42080   1.000
    C287    C    0.05090   0.66440   0.50340   1.000
    H361    H    0.03000   0.67290   0.47920   1.000
    N26     N    0.03440   0.63890   0.54980   1.000
    O54     O    0.98610   0.63090   0.55400   1.000
    C288    C    0.87650   0.63970   0.56670   1.000
    H362    H    0.89340   0.66510   0.54040   1.000
    C289    C    0.82750   0.63920   0.56520   1.000
    H363    H    0.81090   0.66480   0.53910   1.000
    O55     O    0.12810   0.64170   0.56280   1.000
    C290    C    0.16140   0.76680   0.35120   1.000
    O56     O    0.72880   0.63380   0.56450   1.000
    C291    C    0.97370   0.79190   0.79460   1.000
    C292    C    0.91940   0.78200   0.82220   1.000
    H364    H    0.92300   0.74590   0.84440   1.000
    H365    H    0.90070   0.78690   0.79590   1.000
    H366    H    0.89950   0.80700   0.84420   1.000
    C293    C    0.00490   0.77790   0.83590   1.000
    H367    H    0.04010   0.78410   0.81840   1.000
    H368    H    0.00830   0.74060   0.85470   1.000
    H369    H    0.98630   0.79990   0.86100   1.000
    C294    C    0.97190   0.84720   0.75910   1.000
    H370    H    0.00790   0.85130   0.74240   1.000
    H371    H    0.95270   0.87310   0.78020   1.000
    H372    H    0.95400   0.85300   0.73190   1.000
    C295    C    0.11100   0.80760   0.34110   1.000
    H373    H    0.11790   0.82860   0.30460   1.000
    H374    H    0.09910   0.83080   0.36500   1.000
    H375    H    0.08370   0.78970   0.34720   1.000
    C296    C    0.20320   0.79760   0.33750   1.000
    H376    H    0.23650   0.77300   0.34340   1.000
    H377    H    0.19130   0.82230   0.35990   1.000
    H378    H    0.20830   0.81720   0.30040   1.000
    C297    C    0.18280   0.72840   0.31540   1.000
    H379    H    0.21510   0.70320   0.32360   1.000
    H380    H    0.19050   0.74820   0.27850   1.000
    H381    H    0.15630   0.70940   0.32140   1.000
    C298    C    0.14900   0.82490   0.35150   1.000
    H382    H    0.11350   0.83550   0.37290   1.000
    H383    H    0.15210   0.84690   0.31540   1.000
    H384    H    0.17450   0.82940   0.36640   1.000
    C299    C    0.21730   0.75100   0.31780   1.000
    H385    H    0.22040   0.77370   0.28210   1.000
    H386    H    0.22480   0.71410   0.31620   1.000
    H387    H    0.24250   0.75400   0.33360   1.000
    C300    C    0.12410   0.76200   0.32360   1.000
    H388    H    0.08760   0.77180   0.34380   1.000
    H389    H    0.13240   0.72530   0.32150   1.000
    H390    H    0.12840   0.78510   0.28800   1.000
    C301    C    0.36370   0.58700   0.64100   1.000
    H391    H    0.35700   0.55450   0.64400   1.000
    C302    C    0.41270   0.58700   0.64400   1.000
    H392    H    0.43840   0.55480   0.65070   1.000
    C303    C    0.37990   0.67510   0.64960   1.000
    H393    H    0.38300   0.70190   0.66180   1.000
    C304    C    0.33140   0.67500   0.64570   1.000
    H394    H    0.30240   0.70430   0.65140   1.000
    O57     O    0.57630   0.26710   0.65180   1.000
    N27     N    0.56480   0.22080   0.65540   1.000
    C305    C    0.51620   0.22380   0.67780   1.000
    H395    H    0.49600   0.25500   0.68910   1.000
    C306    C    0.48900   0.18370   0.68770   1.000
    C307    C    0.51510   0.13630   0.66970   1.000
    C308    C    0.48400   0.09940   0.68170   1.000
    C309    C    0.43180   0.10900   0.71300   1.000
    H396    H    0.41220   0.08380   0.72120   1.000
    C310    C    0.40800   0.15360   0.73230   1.000
    C311    C    0.43680   0.19070   0.71890   1.000
    H397    H    0.42080   0.22180   0.73130   1.000
    C312    C    0.50340   0.05090   0.66440   1.000
    H398    H    0.47920   0.03000   0.67290   1.000
    N28     N    0.54980   0.03440   0.63890   1.000
    O58     O    0.55400   0.98610   0.63090   1.000
    C313    C    0.56670   0.87650   0.63970   1.000
    H399    H    0.54040   0.89340   0.66510   1.000
    C314    C    0.56520   0.82750   0.63920   1.000
    H400    H    0.53910   0.81090   0.66480   1.000
    O59     O    0.56280   0.12810   0.64170   1.000
    C315    C    0.35120   0.16140   0.76680   1.000
    O60     O    0.56450   0.72880   0.63380   1.000
    C316    C    0.79460   0.97370   0.79190   1.000
    C317    C    0.82220   0.91940   0.78200   1.000
    H401    H    0.84440   0.92300   0.74590   1.000
    H402    H    0.79590   0.90070   0.78690   1.000
    H403    H    0.84420   0.89950   0.80700   1.000
    C318    C    0.83590   0.00490   0.77790   1.000
    H404    H    0.81840   0.04010   0.78410   1.000
    H405    H    0.85470   0.00830   0.74060   1.000
    H406    H    0.86100   0.98630   0.79990   1.000
    C319    C    0.75910   0.97190   0.84720   1.000
    H407    H    0.74240   0.00790   0.85130   1.000
    H408    H    0.78020   0.95270   0.87310   1.000
    H409    H    0.73190   0.95400   0.85300   1.000
    C320    C    0.34110   0.11100   0.80760   1.000
    H410    H    0.30460   0.11790   0.82860   1.000
    H411    H    0.36500   0.09910   0.83080   1.000
    H412    H    0.34720   0.08370   0.78970   1.000
    C321    C    0.33750   0.20320   0.79760   1.000
    H413    H    0.34340   0.23650   0.77300   1.000
    H414    H    0.35990   0.19130   0.82230   1.000
    H415    H    0.30040   0.20830   0.81720   1.000
    C322    C    0.31540   0.18280   0.72840   1.000
    H416    H    0.32360   0.21510   0.70320   1.000
    H417    H    0.27850   0.19050   0.74820   1.000
    H418    H    0.32140   0.15630   0.70940   1.000
    C323    C    0.35150   0.14900   0.82490   1.000
    H419    H    0.37290   0.11350   0.83550   1.000
    H420    H    0.31540   0.15210   0.84690   1.000
    H421    H    0.36640   0.17450   0.82940   1.000
    C324    C    0.31780   0.21730   0.75100   1.000
    H422    H    0.28210   0.22040   0.77370   1.000
    H423    H    0.31620   0.22480   0.71410   1.000
    H424    H    0.33360   0.24250   0.75400   1.000
    C325    C    0.32360   0.12410   0.76200   1.000
    H425    H    0.34380   0.08760   0.77180   1.000
    H426    H    0.32150   0.13240   0.72530   1.000
    H427    H    0.28800   0.12840   0.78510   1.000
    C326    C    0.64100   0.36370   0.58700   1.000
    H428    H    0.64400   0.35700   0.55450   1.000
    C327    C    0.64400   0.41270   0.58700   1.000
    H429    H    0.65070   0.43840   0.55480   1.000
    C328    C    0.64960   0.37990   0.67510   1.000
    H430    H    0.66180   0.38300   0.70190   1.000
    C329    C    0.64570   0.33140   0.67500   1.000
    H431    H    0.65140   0.30240   0.70430   1.000
    O61     O    0.65180   0.57630   0.26710   1.000
    N29     N    0.65540   0.56480   0.22080   1.000
    C330    C    0.67780   0.51620   0.22380   1.000
    H432    H    0.68910   0.49600   0.25500   1.000
    C331    C    0.68770   0.48900   0.18370   1.000
    C332    C    0.66970   0.51510   0.13630   1.000
    C333    C    0.68170   0.48400   0.09940   1.000
    C334    C    0.71300   0.43180   0.10900   1.000
    H433    H    0.72120   0.41220   0.08380   1.000
    C335    C    0.73230   0.40800   0.15360   1.000
    C336    C    0.71890   0.43680   0.19070   1.000
    H434    H    0.73130   0.42080   0.22180   1.000
    C337    C    0.66440   0.50340   0.05090   1.000
    H435    H    0.67290   0.47920   0.03000   1.000
    N30     N    0.63890   0.54980   0.03440   1.000
    O62     O    0.63090   0.55400   0.98610   1.000
    C338    C    0.63970   0.56670   0.87650   1.000
    H436    H    0.66510   0.54040   0.89340   1.000
    C339    C    0.63920   0.56520   0.82750   1.000
    H437    H    0.66480   0.53910   0.81090   1.000
    O63     O    0.64170   0.56280   0.12810   1.000
    C340    C    0.76680   0.35120   0.16140   1.000
    O64     O    0.63380   0.56450   0.72880   1.000
    C341    C    0.79190   0.79460   0.97370   1.000
    C342    C    0.78200   0.82220   0.91940   1.000
    H438    H    0.74590   0.84440   0.92300   1.000
    H439    H    0.78690   0.79590   0.90070   1.000
    H440    H    0.80700   0.84420   0.89950   1.000
    C343    C    0.77790   0.83590   0.00490   1.000
    H441    H    0.78410   0.81840   0.04010   1.000
    H442    H    0.74060   0.85470   0.00830   1.000
    H443    H    0.79990   0.86100   0.98630   1.000
    C344    C    0.84720   0.75910   0.97190   1.000
    H444    H    0.85130   0.74240   0.00790   1.000
    H445    H    0.87310   0.78020   0.95270   1.000
    H446    H    0.85300   0.73190   0.95400   1.000
    C345    C    0.80760   0.34110   0.11100   1.000
    H447    H    0.82860   0.30460   0.11790   1.000
    H448    H    0.83080   0.36500   0.09910   1.000
    H449    H    0.78970   0.34720   0.08370   1.000
    C346    C    0.79760   0.33750   0.20320   1.000
    H450    H    0.77300   0.34340   0.23650   1.000
    H451    H    0.82230   0.35990   0.19130   1.000
    H452    H    0.81720   0.30040   0.20830   1.000
    C347    C    0.72840   0.31540   0.18280   1.000
    H453    H    0.70320   0.32360   0.21510   1.000
    H454    H    0.74820   0.27850   0.19050   1.000
    H455    H    0.70940   0.32140   0.15630   1.000
    C348    C    0.82490   0.35150   0.14900   1.000
    H456    H    0.83550   0.37290   0.11350   1.000
    H457    H    0.84690   0.31540   0.15210   1.000
    H458    H    0.82940   0.36640   0.17450   1.000
    C349    C    0.75100   0.31780   0.21730   1.000
    H459    H    0.77370   0.28210   0.22040   1.000
    H460    H    0.71410   0.31620   0.22480   1.000
    H461    H    0.75400   0.33360   0.24250   1.000
    C350    C    0.76200   0.32360   0.12410   1.000
    H462    H    0.77180   0.34380   0.08760   1.000
    H463    H    0.72530   0.32150   0.13240   1.000
    H464    H    0.78510   0.28800   0.12840   1.000
    C351    C    0.58700   0.64100   0.36370   1.000
    H465    H    0.55450   0.64400   0.35700   1.000
    C352    C    0.58700   0.64400   0.41270   1.000
    H466    H    0.55480   0.65070   0.43840   1.000
    C353    C    0.67510   0.64960   0.37990   1.000
    H467    H    0.70190   0.66180   0.38300   1.000
    C354    C    0.67500   0.64570   0.33140   1.000
    H468    H    0.70430   0.65140   0.30240   1.000
    Zn11    Zn   0.61647   0.06276   0.61647   1.000
    Zn12    Zn   0.62427   0.16323   0.62427   1.000
    Zn13    Zn   0.65697   0.55770   0.65697   1.000
    C355    C    0.63360   0.32340   0.63360   1.000
    C356    C    0.63550   0.42400   0.63550   1.000
    B7      B    0.63200   0.26700   0.63200   1.000
    B8      B    0.60520   0.95970   0.60520   1.000
    O65     O    0.66480   0.22640   0.66480   1.000
    N31     N    0.66800   0.17550   0.66800   1.000
    C357    C    0.69730   0.14300   0.69730   1.000
    H469    H    0.71320   0.15720   0.71320   1.000
    C358    C    0.70860   0.08610   0.70860   1.000
    C359    C    0.68770   0.05910   0.68770   1.000
    C360    C    0.70230   0.00250   0.70230   1.000
    C361    C    0.73600   0.97610   0.73600   1.000
    H470    H    0.74530   0.93870   0.74530   1.000
    C362    C    0.75620   0.00270   0.75620   1.000
    C363    C    0.74220   0.05710   0.74220   1.000
    H471    H    0.75590   0.07560   0.75590   1.000
    C364    C    0.68310   0.97120   0.68310   1.000
    H472    H    0.69540   0.93420   0.69540   1.000
    N32     N    0.65190   0.98500   0.65190   1.000
    O66     O    0.64230   0.94370   0.64230   1.000
    C365    C    0.60480   0.90240   0.60480   1.000
    C366    C    0.60150   0.80230   0.60150   1.000
    C367    C    0.63640   0.47770   0.63640   1.000
    O67     O    0.60840   0.51440   0.60840   1.000
    O68     O    0.66240   0.48230   0.66240   1.000
    O69     O    0.65700   0.08530   0.65700   1.000
    C368    C    0.59930   0.74950   0.59930   1.000
    C369    C    0.60530   0.36970   0.60530   1.000
    H473    H    0.58500   0.36710   0.58500   1.000
    C370    C    0.60600   0.41920   0.60600   1.000
    H474    H    0.58630   0.44980   0.58630   1.000
    C371    C    0.66390   0.37870   0.66390   1.000
    H475    H    0.68420   0.38140   0.68420   1.000
    C372    C    0.66270   0.32970   0.66270   1.000
    H476    H    0.68240   0.29920   0.68240   1.000
    Zn14    Zn   0.06276   0.61647   0.61647   1.000
    Zn15    Zn   0.16323   0.62427   0.62427   1.000
    Zn16    Zn   0.55770   0.65697   0.65697   1.000
    C373    C    0.32340   0.63360   0.63360   1.000
    C374    C    0.42400   0.63550   0.63550   1.000
    B9      B    0.26700   0.63200   0.63200   1.000
    B10     B    0.95970   0.60520   0.60520   1.000
    O70     O    0.22640   0.66480   0.66480   1.000
    N33     N    0.17550   0.66800   0.66800   1.000
    C375    C    0.14300   0.69730   0.69730   1.000
    H477    H    0.15720   0.71320   0.71320   1.000
    C376    C    0.08610   0.70860   0.70860   1.000
    C377    C    0.05910   0.68770   0.68770   1.000
    C378    C    0.00250   0.70230   0.70230   1.000
    C379    C    0.97610   0.73600   0.73600   1.000
    H478    H    0.93870   0.74530   0.74530   1.000
    C380    C    0.00270   0.75620   0.75620   1.000
    C381    C    0.05710   0.74220   0.74220   1.000
    H479    H    0.07560   0.75590   0.75590   1.000
    C382    C    0.97120   0.68310   0.68310   1.000
    H480    H    0.93420   0.69540   0.69540   1.000
    N34     N    0.98500   0.65190   0.65190   1.000
    O71     O    0.94370   0.64230   0.64230   1.000
    C383    C    0.90240   0.60480   0.60480   1.000
    C384    C    0.80230   0.60150   0.60150   1.000
    C385    C    0.47770   0.63640   0.63640   1.000
    O72     O    0.51440   0.60840   0.60840   1.000
    O73     O    0.48230   0.66240   0.66240   1.000
    O74     O    0.08530   0.65700   0.65700   1.000
    C386    C    0.74950   0.59930   0.59930   1.000
    C387    C    0.36970   0.60530   0.60530   1.000
    H481    H    0.36710   0.58500   0.58500   1.000
    C388    C    0.41920   0.60600   0.60600   1.000
    H482    H    0.44980   0.58630   0.58630   1.000
    C389    C    0.37870   0.66390   0.66390   1.000
    H483    H    0.38140   0.68420   0.68420   1.000
    C390    C    0.32970   0.66270   0.66270   1.000
    H484    H    0.29920   0.68240   0.68240   1.000
    Zn17    Zn   0.61647   0.61647   0.06276   1.000
    Zn18    Zn   0.62427   0.62427   0.16323   1.000
    Zn19    Zn   0.65697   0.65697   0.55770   1.000
    C391    C    0.63360   0.63360   0.32340   1.000
    C392    C    0.63550   0.63550   0.42400   1.000
    B11     B    0.63200   0.63200   0.26700   1.000
    B12     B    0.60520   0.60520   0.95970   1.000
    O75     O    0.66480   0.66480   0.22640   1.000
    N35     N    0.66800   0.66800   0.17550   1.000
    C393    C    0.69730   0.69730   0.14300   1.000
    H485    H    0.71320   0.71320   0.15720   1.000
    C394    C    0.70860   0.70860   0.08610   1.000
    C395    C    0.68770   0.68770   0.05910   1.000
    C396    C    0.70230   0.70230   0.00250   1.000
    C397    C    0.73600   0.73600   0.97610   1.000
    H486    H    0.74530   0.74530   0.93870   1.000
    C398    C    0.75620   0.75620   0.00270   1.000
    C399    C    0.74220   0.74220   0.05710   1.000
    H487    H    0.75590   0.75590   0.07560   1.000
    C400    C    0.68310   0.68310   0.97120   1.000
    H488    H    0.69540   0.69540   0.93420   1.000
    N36     N    0.65190   0.65190   0.98500   1.000
    O76     O    0.64230   0.64230   0.94370   1.000
    C401    C    0.60480   0.60480   0.90240   1.000
    C402    C    0.60150   0.60150   0.80230   1.000
    C403    C    0.63640   0.63640   0.47770   1.000
    O77     O    0.60840   0.60840   0.51440   1.000
    O78     O    0.66240   0.66240   0.48230   1.000
    O79     O    0.65700   0.65700   0.08530   1.000
    C404    C    0.59930   0.59930   0.74950   1.000
    C405    C    0.60530   0.60530   0.36970   1.000
    H489    H    0.58500   0.58500   0.36710   1.000
    C406    C    0.60600   0.60600   0.41920   1.000
    H490    H    0.58630   0.58630   0.44980   1.000
    C407    C    0.66390   0.66390   0.37870   1.000
    H491    H    0.68420   0.68420   0.38140   1.000
    C408    C    0.66270   0.66270   0.32970   1.000
    H492    H    0.68240   0.68240   0.29920   1.000
    Zn20    Zn   0.58316   0.58316   0.58316   1.000
    O80     O    0.61490   0.61490   0.61490   1.000
