# CIF file generated by openbabel 2.4.1, see http://openbabel.sf.net
data_I
_chemical_name_common 'image0'
_cell_length_a 18.748
_cell_length_b 18.748
_cell_length_c 31.892
_cell_angle_alpha 90
_cell_angle_beta 90
_cell_angle_gamma 120
_space_group_name_H-M_alt 'P 1'
_space_group_name_Hall 'P 1'
loop_
    _symmetry_equiv_pos_as_xyz
    x,y,z
loop_
    _atom_site_label
    _atom_site_type_symbol
    _atom_site_fract_x
    _atom_site_fract_y
    _atom_site_fract_z
    _atom_site_occupancy
    Zn1     Zn   0.98562   0.17379   0.08019   1.000
    N1      N    0.89530   0.05660   0.06810   1.000
    N2      N    0.90180   0.99190   0.08130   1.000
    N3      N    0.83600   0.92220   0.06720   1.000
    C1      C    0.78830   0.94600   0.04650   1.000
    H1      H    0.73670   0.91050   0.03530   1.000
    C2      C    0.82610   0.02690   0.04470   1.000
    H2      H    0.80840   0.05810   0.03000   1.000
    C3      C    0.98690   0.16830   0.21180   1.000
    C4      C    0.97610   0.22870   0.22930   1.000
    H3      H    0.96930   0.26870   0.21240   1.000
    C5      C    0.99380   0.14880   0.16690   1.000
    O1      O    0.99700   0.08510   0.15980   1.000
    O2      O    0.98070   0.19090   0.14040   1.000
    C6      C    0.04460   0.43960   0.02370   1.000
    H4      H    0.09550   0.44790   0.03250   1.000
    C7      C    0.97850   0.36540   0.02540   1.000
    C8      C    0.90090   0.35060   0.01180   1.000
    H5      H    0.85420   0.29920   0.01550   1.000
    C9      C    0.89570   0.41570   0.99240   1.000
    H6      H    0.84690   0.40630   0.98000   1.000
    C10     C    0.96340   0.49220   0.99220   1.000
    C11     C    0.97780   0.29110   0.04510   1.000
    O3      O    0.90700   0.23010   0.05230   1.000
    O4      O    0.03870   0.28810   0.05040   1.000
    Zn2     Zn   0.01443   0.18818   0.08010   1.000
    N4      N    0.91380   0.07740   0.06720   1.000
    N5      N    0.91020   0.00870   0.08110   1.000
    N6      N    0.83900   0.94370   0.06820   1.000
    C12     C    0.79860   0.97300   0.04530   1.000
    H7      H    0.74930   0.94170   0.03100   1.000
    C13     C    0.84180   0.05390   0.04690   1.000
    H8      H    0.82560   0.08940   0.03580   1.000
    C14     C    0.01300   0.18330   0.21190   1.000
    C15     C    0.02470   0.25490   0.22950   1.000
    H9      H    0.03240   0.30230   0.21330   1.000
    C16     C    0.00650   0.15850   0.16680   1.000
    O5      O    0.00300   0.09260   0.15840   1.000
    O6      O    0.02000   0.21500   0.14030   1.000
    C17     C    0.95590   0.39510   0.02390   1.000
    H10     H    0.90510   0.35240   0.03280   1.000
    C18     C    0.02170   0.38790   0.02540   1.000
    C19     C    0.09950   0.45070   0.01160   1.000
    H11     H    0.14640   0.44650   0.01560   1.000
    C20     C    0.10400   0.51990   0.99160   1.000
    H12     H    0.15220   0.55870   0.97850   1.000
    C21     C    0.03630   0.52860   0.99200   1.000
    C22     C    0.02370   0.31450   0.04540   1.000
    O7      O    0.96290   0.25080   0.04990   1.000
    O8      O    0.09390   0.32460   0.05240   1.000
    Zn3     Zn   0.82621   0.81183   0.08019   1.000
    N7      N    0.94340   0.83870   0.06810   1.000
    N8      N    0.00810   0.90990   0.08130   1.000
    N9      N    0.07780   0.91380   0.06720   1.000
    C23     C    0.05400   0.84230   0.04650   1.000
    H13     H    0.08950   0.82620   0.03530   1.000
    C24     C    0.97310   0.79920   0.04470   1.000
    H14     H    0.94190   0.75030   0.03000   1.000
    C25     C    0.83170   0.81860   0.21180   1.000
    C26     C    0.77130   0.74740   0.22930   1.000
    H15     H    0.73130   0.70060   0.21240   1.000
    C27     C    0.85120   0.84500   0.16690   1.000
    O9      O    0.91490   0.91190   0.15980   1.000
    O10     O    0.80910   0.78980   0.14040   1.000
    C28     C    0.56040   0.60500   0.02370   1.000
    H16     H    0.55210   0.64760   0.03250   1.000
    C29     C    0.63460   0.61310   0.02540   1.000
    C30     C    0.64940   0.55030   0.01180   1.000
    H17     H    0.70080   0.55500   0.01550   1.000
    C31     C    0.58430   0.48000   0.99240   1.000
    H18     H    0.59370   0.44060   0.98000   1.000
    C32     C    0.50780   0.47120   0.99220   1.000
    C33     C    0.70890   0.68670   0.04510   1.000
    O11     O    0.76990   0.67690   0.05230   1.000
    O12     O    0.71190   0.75060   0.05040   1.000
    Zn4     Zn   0.81182   0.82625   0.08010   1.000
    N10     N    0.92260   0.83640   0.06720   1.000
    N11     N    0.99130   0.90150   0.08110   1.000
    N12     N    0.05630   0.89530   0.06820   1.000
    C34     C    0.02700   0.82560   0.04530   1.000
    H19     H    0.05830   0.80760   0.03100   1.000
    C35     C    0.94610   0.78790   0.04690   1.000
    H20     H    0.91060   0.73620   0.03580   1.000
    C36     C    0.81670   0.82970   0.21190   1.000
    C37     C    0.74510   0.76980   0.22950   1.000
    H21     H    0.69770   0.73010   0.21330   1.000
    C38     C    0.84150   0.84800   0.16680   1.000
    O13     O    0.90740   0.91040   0.15840   1.000
    O14     O    0.78500   0.80500   0.14030   1.000
    C39     C    0.60490   0.56080   0.02390   1.000
    H22     H    0.64760   0.55270   0.03280   1.000
    C40     C    0.61210   0.63380   0.02540   1.000
    C41     C    0.54930   0.64880   0.01160   1.000
    H23     H    0.55350   0.69990   0.01560   1.000
    C42     C    0.48010   0.58410   0.99160   1.000
    H24     H    0.44130   0.59350   0.97850   1.000
    C43     C    0.47140   0.50770   0.99200   1.000
    C44     C    0.68550   0.70920   0.04540   1.000
    O15     O    0.74920   0.71210   0.04990   1.000
    O16     O    0.67540   0.76930   0.05240   1.000
    Zn5     Zn   0.18817   0.01438   0.08019   1.000
    N13     N    0.16130   0.10470   0.06810   1.000
    N14     N    0.09010   0.09820   0.08130   1.000
    N15     N    0.08620   0.16400   0.06720   1.000
    C45     C    0.15770   0.21170   0.04650   1.000
    H25     H    0.17380   0.26330   0.03530   1.000
    C46     C    0.20080   0.17390   0.04470   1.000
    H26     H    0.24970   0.19160   0.03000   1.000
    C47     C    0.18140   0.01310   0.21180   1.000
    C48     C    0.25260   0.02390   0.22930   1.000
    H27     H    0.29940   0.03070   0.21240   1.000
    C49     C    0.15500   0.00620   0.16690   1.000
    O17     O    0.08810   0.00300   0.15980   1.000
    O18     O    0.21020   0.01930   0.14040   1.000
    C50     C    0.39500   0.95540   0.02370   1.000
    H28     H    0.35240   0.90450   0.03250   1.000
    C51     C    0.38690   0.02150   0.02540   1.000
    C52     C    0.44970   0.09910   0.01180   1.000
    H29     H    0.44500   0.14580   0.01550   1.000
    C53     C    0.52000   0.10430   0.99240   1.000
    H30     H    0.55940   0.15310   0.98000   1.000
    C54     C    0.52880   0.03660   0.99220   1.000
    C55     C    0.31330   0.02220   0.04510   1.000
    O19     O    0.32310   0.09300   0.05230   1.000
    O20     O    0.24940   0.96130   0.05040   1.000
    Zn6     Zn   0.17375   0.98557   0.08010   1.000
    N16     N    0.16360   0.08620   0.06720   1.000
    N17     N    0.09850   0.08980   0.08110   1.000
    N18     N    0.10470   0.16100   0.06820   1.000
    C56     C    0.17440   0.20140   0.04530   1.000
    H31     H    0.19240   0.25070   0.03100   1.000
    C57     C    0.21210   0.15820   0.04690   1.000
    H32     H    0.26380   0.17440   0.03580   1.000
    C58     C    0.17030   0.98700   0.21190   1.000
    C59     C    0.23020   0.97530   0.22950   1.000
    H33     H    0.26990   0.96760   0.21330   1.000
    C60     C    0.15200   0.99350   0.16680   1.000
    O21     O    0.08960   0.99700   0.15840   1.000
    O22     O    0.19500   0.98000   0.14030   1.000
    C61     C    0.43920   0.04410   0.02390   1.000
    H34     H    0.44730   0.09490   0.03280   1.000
    C62     C    0.36620   0.97830   0.02540   1.000
    C63     C    0.35120   0.90050   0.01160   1.000
    H35     H    0.30010   0.85360   0.01560   1.000
    C64     C    0.41590   0.89600   0.99160   1.000
    H36     H    0.40650   0.84780   0.97850   1.000
    C65     C    0.49230   0.96370   0.99200   1.000
    C66     C    0.29080   0.97630   0.04540   1.000
    O23     O    0.28790   0.03710   0.04990   1.000
    O24     O    0.23070   0.90610   0.05240   1.000
    Zn7     Zn   0.17379   0.98562   0.41981   1.000
    N19     N    0.05660   0.89530   0.43190   1.000
    N20     N    0.99190   0.90180   0.41870   1.000
    N21     N    0.92220   0.83600   0.43280   1.000
    C67     C    0.94600   0.78830   0.45350   1.000
    H37     H    0.91050   0.73670   0.46470   1.000
    C68     C    0.02690   0.82610   0.45530   1.000
    H38     H    0.05810   0.80840   0.47000   1.000
    C69     C    0.16830   0.98690   0.28820   1.000
    C70     C    0.22870   0.97610   0.27070   1.000
    H39     H    0.26870   0.96930   0.28760   1.000
    C71     C    0.14880   0.99380   0.33310   1.000
    O25     O    0.08510   0.99700   0.34020   1.000
    O26     O    0.19090   0.98070   0.35960   1.000
    C72     C    0.43960   0.04460   0.47630   1.000
    H40     H    0.44790   0.09550   0.46750   1.000
    C73     C    0.36540   0.97850   0.47460   1.000
    C74     C    0.35060   0.90090   0.48820   1.000
    H41     H    0.29920   0.85420   0.48450   1.000
    C75     C    0.41570   0.89570   0.50760   1.000
    H42     H    0.40630   0.84690   0.52000   1.000
    C76     C    0.49220   0.96340   0.50780   1.000
    C77     C    0.29110   0.97780   0.45490   1.000
    O27     O    0.23010   0.90700   0.44770   1.000
    O28     O    0.28810   0.03870   0.44960   1.000
    Zn8     Zn   0.18818   0.01443   0.41990   1.000
    N22     N    0.07740   0.91380   0.43280   1.000
    N23     N    0.00870   0.91020   0.41890   1.000
    N24     N    0.94370   0.83900   0.43180   1.000
    C78     C    0.97300   0.79860   0.45470   1.000
    H43     H    0.94170   0.74930   0.46900   1.000
    C79     C    0.05390   0.84180   0.45310   1.000
    H44     H    0.08940   0.82560   0.46420   1.000
    C80     C    0.18330   0.01300   0.28810   1.000
    C81     C    0.25490   0.02470   0.27050   1.000
    H45     H    0.30230   0.03240   0.28670   1.000
    C82     C    0.15850   0.00650   0.33320   1.000
    O29     O    0.09260   0.00300   0.34160   1.000
    O30     O    0.21500   0.02000   0.35970   1.000
    C83     C    0.39510   0.95590   0.47610   1.000
    H46     H    0.35240   0.90510   0.46720   1.000
    C84     C    0.38790   0.02170   0.47460   1.000
    C85     C    0.45070   0.09950   0.48840   1.000
    H47     H    0.44650   0.14640   0.48440   1.000
    C86     C    0.51990   0.10400   0.50840   1.000
    H48     H    0.55870   0.15220   0.52150   1.000
    C87     C    0.52860   0.03630   0.50800   1.000
    C88     C    0.31450   0.02370   0.45460   1.000
    O31     O    0.25080   0.96290   0.45010   1.000
    O32     O    0.32460   0.09390   0.44760   1.000
    Zn9     Zn   0.81183   0.82621   0.41981   1.000
    N25     N    0.83870   0.94340   0.43190   1.000
    N26     N    0.90990   0.00810   0.41870   1.000
    N27     N    0.91380   0.07780   0.43280   1.000
    C89     C    0.84230   0.05400   0.45350   1.000
    H49     H    0.82620   0.08950   0.46470   1.000
    C90     C    0.79920   0.97310   0.45530   1.000
    H50     H    0.75030   0.94190   0.47000   1.000
    C91     C    0.81860   0.83170   0.28820   1.000
    C92     C    0.74740   0.77130   0.27070   1.000
    H51     H    0.70060   0.73130   0.28760   1.000
    C93     C    0.84500   0.85120   0.33310   1.000
    O33     O    0.91190   0.91490   0.34020   1.000
    O34     O    0.78980   0.80910   0.35960   1.000
    C94     C    0.60500   0.56040   0.47630   1.000
    H52     H    0.64760   0.55210   0.46750   1.000
    C95     C    0.61310   0.63460   0.47460   1.000
    C96     C    0.55030   0.64940   0.48820   1.000
    H53     H    0.55500   0.70080   0.48450   1.000
    C97     C    0.48000   0.58430   0.50760   1.000
    H54     H    0.44060   0.59370   0.52000   1.000
    C98     C    0.47120   0.50780   0.50780   1.000
    C99     C    0.68670   0.70890   0.45490   1.000
    O35     O    0.67690   0.76990   0.44770   1.000
    O36     O    0.75060   0.71190   0.44960   1.000
    Zn10    Zn   0.82625   0.81182   0.41990   1.000
    N28     N    0.83640   0.92260   0.43280   1.000
    N29     N    0.90150   0.99130   0.41890   1.000
    N30     N    0.89530   0.05630   0.43180   1.000
    C100    C    0.82560   0.02700   0.45470   1.000
    H55     H    0.80760   0.05830   0.46900   1.000
    C101    C    0.78790   0.94610   0.45310   1.000
    H56     H    0.73620   0.91060   0.46420   1.000
    C102    C    0.82970   0.81670   0.28810   1.000
    C103    C    0.76980   0.74510   0.27050   1.000
    H57     H    0.73010   0.69770   0.28670   1.000
    C104    C    0.84800   0.84150   0.33320   1.000
    O37     O    0.91040   0.90740   0.34160   1.000
    O38     O    0.80500   0.78500   0.35970   1.000
    C105    C    0.56080   0.60490   0.47610   1.000
    H58     H    0.55270   0.64760   0.46720   1.000
    C106    C    0.63380   0.61210   0.47460   1.000
    C107    C    0.64880   0.54930   0.48840   1.000
    H59     H    0.69990   0.55350   0.48440   1.000
    C108    C    0.58410   0.48010   0.50840   1.000
    H60     H    0.59350   0.44130   0.52150   1.000
    C109    C    0.50770   0.47140   0.50800   1.000
    C110    C    0.70920   0.68550   0.45460   1.000
    O39     O    0.71210   0.74920   0.45010   1.000
    O40     O    0.76930   0.67540   0.44760   1.000
    Zn11    Zn   0.01438   0.18817   0.41981   1.000
    N31     N    0.10470   0.16130   0.43190   1.000
    N32     N    0.09820   0.09010   0.41870   1.000
    N33     N    0.16400   0.08620   0.43280   1.000
    C111    C    0.21170   0.15770   0.45350   1.000
    H61     H    0.26330   0.17380   0.46470   1.000
    C112    C    0.17390   0.20080   0.45530   1.000
    H62     H    0.19160   0.24970   0.47000   1.000
    C113    C    0.01310   0.18140   0.28820   1.000
    C114    C    0.02390   0.25260   0.27070   1.000
    H63     H    0.03070   0.29940   0.28760   1.000
    C115    C    0.00620   0.15500   0.33310   1.000
    O41     O    0.00300   0.08810   0.34020   1.000
    O42     O    0.01930   0.21020   0.35960   1.000
    C116    C    0.95540   0.39500   0.47630   1.000
    H64     H    0.90450   0.35240   0.46750   1.000
    C117    C    0.02150   0.38690   0.47460   1.000
    C118    C    0.09910   0.44970   0.48820   1.000
    H65     H    0.14580   0.44500   0.48450   1.000
    C119    C    0.10430   0.52000   0.50760   1.000
    H66     H    0.15310   0.55940   0.52000   1.000
    C120    C    0.03660   0.52880   0.50780   1.000
    C121    C    0.02220   0.31330   0.45490   1.000
    O43     O    0.09300   0.32310   0.44770   1.000
    O44     O    0.96130   0.24940   0.44960   1.000
    Zn12    Zn   0.98557   0.17375   0.41990   1.000
    N34     N    0.08620   0.16360   0.43280   1.000
    N35     N    0.08980   0.09850   0.41890   1.000
    N36     N    0.16100   0.10470   0.43180   1.000
    C122    C    0.20140   0.17440   0.45470   1.000
    H67     H    0.25070   0.19240   0.46900   1.000
    C123    C    0.15820   0.21210   0.45310   1.000
    H68     H    0.17440   0.26380   0.46420   1.000
    C124    C    0.98700   0.17030   0.28810   1.000
    C125    C    0.97530   0.23020   0.27050   1.000
    H69     H    0.96760   0.26990   0.28670   1.000
    C126    C    0.99350   0.15200   0.33320   1.000
    O45     O    0.99700   0.08960   0.34160   1.000
    O46     O    0.98000   0.19500   0.35970   1.000
    C127    C    0.04410   0.43920   0.47610   1.000
    H70     H    0.09490   0.44730   0.46720   1.000
    C128    C    0.97830   0.36620   0.47460   1.000
    C129    C    0.90050   0.35120   0.48840   1.000
    H71     H    0.85360   0.30010   0.48440   1.000
    C130    C    0.89600   0.41590   0.50840   1.000
    H72     H    0.84780   0.40650   0.52150   1.000
    C131    C    0.96370   0.49230   0.50800   1.000
    C132    C    0.97630   0.29080   0.45460   1.000
    O47     O    0.03710   0.28790   0.45010   1.000
    O48     O    0.90610   0.23070   0.44760   1.000
    Zn13    Zn   0.01438   0.82621   0.91981   1.000
    N37     N    0.10470   0.94340   0.93190   1.000
    N38     N    0.09820   0.00810   0.91870   1.000
    N39     N    0.16400   0.07780   0.93280   1.000
    C133    C    0.21170   0.05400   0.95350   1.000
    H73     H    0.26330   0.08950   0.96470   1.000
    C134    C    0.17390   0.97310   0.95530   1.000
    H74     H    0.19160   0.94190   0.97000   1.000
    C135    C    0.01310   0.83170   0.78820   1.000
    C136    C    0.02390   0.77130   0.77070   1.000
    H75     H    0.03070   0.73130   0.78760   1.000
    C137    C    0.00620   0.85120   0.83310   1.000
    O49     O    0.00300   0.91490   0.84020   1.000
    O50     O    0.01930   0.80910   0.85960   1.000
    C138    C    0.95540   0.56040   0.97630   1.000
    H76     H    0.90450   0.55210   0.96750   1.000
    C139    C    0.02150   0.63460   0.97460   1.000
    C140    C    0.09910   0.64940   0.98820   1.000
    H77     H    0.14580   0.70080   0.98450   1.000
    C141    C    0.10430   0.58430   0.00760   1.000
    H78     H    0.15310   0.59370   0.02000   1.000
    C142    C    0.03660   0.50780   0.00780   1.000
    C143    C    0.02220   0.70890   0.95490   1.000
    O51     O    0.09300   0.76990   0.94770   1.000
    O52     O    0.96130   0.71190   0.94960   1.000
    Zn14    Zn   0.98557   0.81182   0.91990   1.000
    N40     N    0.08620   0.92260   0.93280   1.000
    N41     N    0.08980   0.99130   0.91890   1.000
    N42     N    0.16100   0.05630   0.93180   1.000
    C144    C    0.20140   0.02700   0.95470   1.000
    H79     H    0.25070   0.05830   0.96900   1.000
    C145    C    0.15820   0.94610   0.95310   1.000
    H80     H    0.17440   0.91060   0.96420   1.000
    C146    C    0.98700   0.81670   0.78810   1.000
    C147    C    0.97530   0.74510   0.77050   1.000
    H81     H    0.96760   0.69770   0.78670   1.000
    C148    C    0.99350   0.84150   0.83320   1.000
    O53     O    0.99700   0.90740   0.84160   1.000
    O54     O    0.98000   0.78500   0.85970   1.000
    C149    C    0.04410   0.60490   0.97610   1.000
    H82     H    0.09490   0.64760   0.96720   1.000
    C150    C    0.97830   0.61210   0.97460   1.000
    C151    C    0.90050   0.54930   0.98840   1.000
    H83     H    0.85360   0.55350   0.98440   1.000
    C152    C    0.89600   0.48010   0.00840   1.000
    H84     H    0.84780   0.44130   0.02150   1.000
    C153    C    0.96370   0.47140   0.00800   1.000
    C154    C    0.97630   0.68550   0.95460   1.000
    O55     O    0.03710   0.74920   0.95010   1.000
    O56     O    0.90610   0.67540   0.94760   1.000
    Zn15    Zn   0.17379   0.18817   0.91981   1.000
    N43     N    0.05660   0.16130   0.93190   1.000
    N44     N    0.99190   0.09010   0.91870   1.000
    N45     N    0.92220   0.08620   0.93280   1.000
    C155    C    0.94600   0.15770   0.95350   1.000
    H85     H    0.91050   0.17380   0.96470   1.000
    C156    C    0.02690   0.20080   0.95530   1.000
    H86     H    0.05810   0.24970   0.97000   1.000
    C157    C    0.16830   0.18140   0.78820   1.000
    C158    C    0.22870   0.25260   0.77070   1.000
    H87     H    0.26870   0.29940   0.78760   1.000
    C159    C    0.14880   0.15500   0.83310   1.000
    O57     O    0.08510   0.08810   0.84020   1.000
    O58     O    0.19090   0.21020   0.85960   1.000
    C160    C    0.43960   0.39500   0.97630   1.000
    H88     H    0.44790   0.35240   0.96750   1.000
    C161    C    0.36540   0.38690   0.97460   1.000
    C162    C    0.35060   0.44970   0.98820   1.000
    H89     H    0.29920   0.44500   0.98450   1.000
    C163    C    0.41570   0.52000   0.00760   1.000
    H90     H    0.40630   0.55940   0.02000   1.000
    C164    C    0.49220   0.52880   0.00780   1.000
    C165    C    0.29110   0.31330   0.95490   1.000
    O59     O    0.23010   0.32310   0.94770   1.000
    O60     O    0.28810   0.24940   0.94960   1.000
    Zn16    Zn   0.18818   0.17375   0.91990   1.000
    N46     N    0.07740   0.16360   0.93280   1.000
    N47     N    0.00870   0.09850   0.91890   1.000
    N48     N    0.94370   0.10470   0.93180   1.000
    C166    C    0.97300   0.17440   0.95470   1.000
    H91     H    0.94170   0.19240   0.96900   1.000
    C167    C    0.05390   0.21210   0.95310   1.000
    H92     H    0.08940   0.26380   0.96420   1.000
    C168    C    0.18330   0.17030   0.78810   1.000
    C169    C    0.25490   0.23020   0.77050   1.000
    H93     H    0.30230   0.26990   0.78670   1.000
    C170    C    0.15850   0.15200   0.83320   1.000
    O61     O    0.09260   0.08960   0.84160   1.000
    O62     O    0.21500   0.19500   0.85970   1.000
    C171    C    0.39510   0.43920   0.97610   1.000
    H94     H    0.35240   0.44730   0.96720   1.000
    C172    C    0.38790   0.36620   0.97460   1.000
    C173    C    0.45070   0.35120   0.98840   1.000
    H95     H    0.44650   0.30010   0.98440   1.000
    C174    C    0.51990   0.41590   0.00840   1.000
    H96     H    0.55870   0.40650   0.02150   1.000
    C175    C    0.52860   0.49230   0.00800   1.000
    C176    C    0.31450   0.29080   0.95460   1.000
    O63     O    0.25080   0.28790   0.95010   1.000
    O64     O    0.32460   0.23070   0.94760   1.000
    Zn17    Zn   0.81183   0.98562   0.91981   1.000
    N49     N    0.83870   0.89530   0.93190   1.000
    N50     N    0.90990   0.90180   0.91870   1.000
    N51     N    0.91380   0.83600   0.93280   1.000
    C177    C    0.84230   0.78830   0.95350   1.000
    H97     H    0.82620   0.73670   0.96470   1.000
    C178    C    0.79920   0.82610   0.95530   1.000
    H98     H    0.75030   0.80840   0.97000   1.000
    C179    C    0.81860   0.98690   0.78820   1.000
    C180    C    0.74740   0.97610   0.77070   1.000
    H99     H    0.70060   0.96930   0.78760   1.000
    C181    C    0.84500   0.99380   0.83310   1.000
    O65     O    0.91190   0.99700   0.84020   1.000
    O66     O    0.78980   0.98070   0.85960   1.000
    C182    C    0.60500   0.04460   0.97630   1.000
    H100    H    0.64760   0.09550   0.96750   1.000
    C183    C    0.61310   0.97850   0.97460   1.000
    C184    C    0.55030   0.90090   0.98820   1.000
    H101    H    0.55500   0.85420   0.98450   1.000
    C185    C    0.48000   0.89570   0.00760   1.000
    H102    H    0.44060   0.84690   0.02000   1.000
    C186    C    0.47120   0.96340   0.00780   1.000
    C187    C    0.68670   0.97780   0.95490   1.000
    O67     O    0.67690   0.90700   0.94770   1.000
    O68     O    0.75060   0.03870   0.94960   1.000
    Zn18    Zn   0.82625   0.01443   0.91990   1.000
    N52     N    0.83640   0.91380   0.93280   1.000
    N53     N    0.90150   0.91020   0.91890   1.000
    N54     N    0.89530   0.83900   0.93180   1.000
    C188    C    0.82560   0.79860   0.95470   1.000
    H103    H    0.80760   0.74930   0.96900   1.000
    C189    C    0.78790   0.84180   0.95310   1.000
    H104    H    0.73620   0.82560   0.96420   1.000
    C190    C    0.82970   0.01300   0.78810   1.000
    C191    C    0.76980   0.02470   0.77050   1.000
    H105    H    0.73010   0.03240   0.78670   1.000
    C192    C    0.84800   0.00650   0.83320   1.000
    O69     O    0.91040   0.00300   0.84160   1.000
    O70     O    0.80500   0.02000   0.85970   1.000
    C193    C    0.56080   0.95590   0.97610   1.000
    H106    H    0.55270   0.90510   0.96720   1.000
    C194    C    0.63380   0.02170   0.97460   1.000
    C195    C    0.64880   0.09950   0.98840   1.000
    H107    H    0.69990   0.14640   0.98440   1.000
    C196    C    0.58410   0.10400   0.00840   1.000
    H108    H    0.59350   0.15220   0.02150   1.000
    C197    C    0.50770   0.03630   0.00800   1.000
    C198    C    0.70920   0.02370   0.95460   1.000
    O71     O    0.71210   0.96290   0.95010   1.000
    O72     O    0.76930   0.09390   0.94760   1.000
    Zn19    Zn   0.82621   0.01438   0.58019   1.000
    N55     N    0.94340   0.10470   0.56810   1.000
    N56     N    0.00810   0.09820   0.58130   1.000
    N57     N    0.07780   0.16400   0.56720   1.000
    C199    C    0.05400   0.21170   0.54650   1.000
    H109    H    0.08950   0.26330   0.53530   1.000
    C200    C    0.97310   0.17390   0.54470   1.000
    H110    H    0.94190   0.19160   0.53000   1.000
    C201    C    0.83170   0.01310   0.71180   1.000
    C202    C    0.77130   0.02390   0.72930   1.000
    H111    H    0.73130   0.03070   0.71240   1.000
    C203    C    0.85120   0.00620   0.66690   1.000
    O73     O    0.91490   0.00300   0.65980   1.000
    O74     O    0.80910   0.01930   0.64040   1.000
    C204    C    0.56040   0.95540   0.52370   1.000
    H112    H    0.55210   0.90450   0.53250   1.000
    C205    C    0.63460   0.02150   0.52540   1.000
    C206    C    0.64940   0.09910   0.51180   1.000
    H113    H    0.70080   0.14580   0.51550   1.000
    C207    C    0.58430   0.10430   0.49240   1.000
    H114    H    0.59370   0.15310   0.48000   1.000
    C208    C    0.50780   0.03660   0.49220   1.000
    C209    C    0.70890   0.02220   0.54510   1.000
    O75     O    0.76990   0.09300   0.55230   1.000
    O76     O    0.71190   0.96130   0.55040   1.000
    Zn20    Zn   0.81182   0.98557   0.58010   1.000
    N58     N    0.92260   0.08620   0.56720   1.000
    N59     N    0.99130   0.08980   0.58110   1.000
    N60     N    0.05630   0.16100   0.56820   1.000
    C210    C    0.02700   0.20140   0.54530   1.000
    H115    H    0.05830   0.25070   0.53100   1.000
    C211    C    0.94610   0.15820   0.54690   1.000
    H116    H    0.91060   0.17440   0.53580   1.000
    C212    C    0.81670   0.98700   0.71190   1.000
    C213    C    0.74510   0.97530   0.72950   1.000
    H117    H    0.69770   0.96760   0.71330   1.000
    C214    C    0.84150   0.99350   0.66680   1.000
    O77     O    0.90740   0.99700   0.65840   1.000
    O78     O    0.78500   0.98000   0.64030   1.000
    C215    C    0.60490   0.04410   0.52390   1.000
    H118    H    0.64760   0.09490   0.53280   1.000
    C216    C    0.61210   0.97830   0.52540   1.000
    C217    C    0.54930   0.90050   0.51160   1.000
    H119    H    0.55350   0.85360   0.51560   1.000
    C218    C    0.48010   0.89600   0.49160   1.000
    H120    H    0.44130   0.84780   0.47850   1.000
    C219    C    0.47140   0.96370   0.49200   1.000
    C220    C    0.68550   0.97630   0.54540   1.000
    O79     O    0.74920   0.03710   0.54990   1.000
    O80     O    0.67540   0.90610   0.55240   1.000
    Zn21    Zn   0.18817   0.17379   0.58019   1.000
    N61     N    0.16130   0.05660   0.56810   1.000
    N62     N    0.09010   0.99190   0.58130   1.000
    N63     N    0.08620   0.92220   0.56720   1.000
    C221    C    0.15770   0.94600   0.54650   1.000
    H121    H    0.17380   0.91050   0.53530   1.000
    C222    C    0.20080   0.02690   0.54470   1.000
    H122    H    0.24970   0.05810   0.53000   1.000
    C223    C    0.18140   0.16830   0.71180   1.000
    C224    C    0.25260   0.22870   0.72930   1.000
    H123    H    0.29940   0.26870   0.71240   1.000
    C225    C    0.15500   0.14880   0.66690   1.000
    O81     O    0.08810   0.08510   0.65980   1.000
    O82     O    0.21020   0.19090   0.64040   1.000
    C226    C    0.39500   0.43960   0.52370   1.000
    H124    H    0.35240   0.44790   0.53250   1.000
    C227    C    0.38690   0.36540   0.52540   1.000
    C228    C    0.44970   0.35060   0.51180   1.000
    H125    H    0.44500   0.29920   0.51550   1.000
    C229    C    0.52000   0.41570   0.49240   1.000
    H126    H    0.55940   0.40630   0.48000   1.000
    C230    C    0.52880   0.49220   0.49220   1.000
    C231    C    0.31330   0.29110   0.54510   1.000
    O83     O    0.32310   0.23010   0.55230   1.000
    O84     O    0.24940   0.28810   0.55040   1.000
    Zn22    Zn   0.17375   0.18818   0.58010   1.000
    N64     N    0.16360   0.07740   0.56720   1.000
    N65     N    0.09850   0.00870   0.58110   1.000
    N66     N    0.10470   0.94370   0.56820   1.000
    C232    C    0.17440   0.97300   0.54530   1.000
    H127    H    0.19240   0.94170   0.53100   1.000
    C233    C    0.21210   0.05390   0.54690   1.000
    H128    H    0.26380   0.08940   0.53580   1.000
    C234    C    0.17030   0.18330   0.71190   1.000
    C235    C    0.23020   0.25490   0.72950   1.000
    H129    H    0.26990   0.30230   0.71330   1.000
    C236    C    0.15200   0.15850   0.66680   1.000
    O85     O    0.08960   0.09260   0.65840   1.000
    O86     O    0.19500   0.21500   0.64030   1.000
    C237    C    0.43920   0.39510   0.52390   1.000
    H130    H    0.44730   0.35240   0.53280   1.000
    C238    C    0.36620   0.38790   0.52540   1.000
    C239    C    0.35120   0.45070   0.51160   1.000
    H131    H    0.30010   0.44650   0.51560   1.000
    C240    C    0.41590   0.51990   0.49160   1.000
    H132    H    0.40650   0.55870   0.47850   1.000
    C241    C    0.49230   0.52860   0.49200   1.000
    C242    C    0.29080   0.31450   0.54540   1.000
    O87     O    0.28790   0.25080   0.54990   1.000
    O88     O    0.23070   0.32460   0.55240   1.000
    Zn23    Zn   0.98562   0.81183   0.58019   1.000
    N67     N    0.89530   0.83870   0.56810   1.000
    N68     N    0.90180   0.90990   0.58130   1.000
    N69     N    0.83600   0.91380   0.56720   1.000
    C243    C    0.78830   0.84230   0.54650   1.000
    H133    H    0.73670   0.82620   0.53530   1.000
    C244    C    0.82610   0.79920   0.54470   1.000
    H134    H    0.80840   0.75030   0.53000   1.000
    C245    C    0.98690   0.81860   0.71180   1.000
    C246    C    0.97610   0.74740   0.72930   1.000
    H135    H    0.96930   0.70060   0.71240   1.000
    C247    C    0.99380   0.84500   0.66690   1.000
    O89     O    0.99700   0.91190   0.65980   1.000
    O90     O    0.98070   0.78980   0.64040   1.000
    C248    C    0.04460   0.60500   0.52370   1.000
    H136    H    0.09550   0.64760   0.53250   1.000
    C249    C    0.97850   0.61310   0.52540   1.000
    C250    C    0.90090   0.55030   0.51180   1.000
    H137    H    0.85420   0.55500   0.51550   1.000
    C251    C    0.89570   0.48000   0.49240   1.000
    H138    H    0.84690   0.44060   0.48000   1.000
    C252    C    0.96340   0.47120   0.49220   1.000
    C253    C    0.97780   0.68670   0.54510   1.000
    O91     O    0.90700   0.67690   0.55230   1.000
    O92     O    0.03870   0.75060   0.55040   1.000
    Zn24    Zn   0.01443   0.82625   0.58010   1.000
    N70     N    0.91380   0.83640   0.56720   1.000
    N71     N    0.91020   0.90150   0.58110   1.000
    N72     N    0.83900   0.89530   0.56820   1.000
    C254    C    0.79860   0.82560   0.54530   1.000
    H139    H    0.74930   0.80760   0.53100   1.000
    C255    C    0.84180   0.78790   0.54690   1.000
    H140    H    0.82560   0.73620   0.53580   1.000
    C256    C    0.01300   0.82970   0.71190   1.000
    C257    C    0.02470   0.76980   0.72950   1.000
    H141    H    0.03240   0.73010   0.71330   1.000
    C258    C    0.00650   0.84800   0.66680   1.000
    O93     O    0.00300   0.91040   0.65840   1.000
    O94     O    0.02000   0.80500   0.64030   1.000
    C259    C    0.95590   0.56080   0.52390   1.000
    H142    H    0.90510   0.55270   0.53280   1.000
    C260    C    0.02170   0.63380   0.52540   1.000
    C261    C    0.09950   0.64880   0.51160   1.000
    H143    H    0.14640   0.69990   0.51560   1.000
    C262    C    0.10400   0.58410   0.49160   1.000
    H144    H    0.15220   0.59350   0.47850   1.000
    C263    C    0.03630   0.50770   0.49200   1.000
    C264    C    0.02370   0.70920   0.54540   1.000
    O95     O    0.96290   0.71210   0.54990   1.000
    O96     O    0.09390   0.76930   0.55240   1.000
    Zn25    Zn   0.00000   0.00000   0.11972   1.000
    Zn26    Zn   0.00000   0.00000   0.38028   1.000
    Zn27    Zn   0.00000   0.00000   0.88028   1.000
    Zn28    Zn   0.00000   0.00000   0.61972   1.000
    S1      S    0.00000   0.11110   0.25000   1.000
    S2      S    0.00000   0.11340   0.25000   1.000
    S3      S    0.88890   0.88890   0.25000   1.000
    S4      S    0.88660   0.88660   0.25000   1.000
    S5      S    0.11110   0.00000   0.25000   1.000
    S6      S    0.11340   0.00000   0.25000   1.000
    S7      S    0.00000   0.88890   0.75000   1.000
    S8      S    0.00000   0.88660   0.75000   1.000
    S9      S    0.11110   0.11110   0.75000   1.000
    S10     S    0.11340   0.11340   0.75000   1.000
    S11     S    0.88890   0.00000   0.75000   1.000
    S12     S    0.88660   0.00000   0.75000   1.000
