# CIF file generated by openbabel 2.4.1, see http://openbabel.sf.net
data_I
_chemical_name_common 'image0'
_cell_length_a 12.358
_cell_length_b 12.358
_cell_length_c 22.9288
_cell_angle_alpha 90
_cell_angle_beta 90
_cell_angle_gamma 90
_space_group_name_H-M_alt 'P 1'
_space_group_name_Hall 'P 1'
loop_
    _symmetry_equiv_pos_as_xyz
    x,y,z
loop_
    _atom_site_label
    _atom_site_type_symbol
    _atom_site_fract_x
    _atom_site_fract_y
    _atom_site_fract_z
    _atom_site_occupancy
    C1      C    0.97940   0.08870   0.12450   1.000
    H1      H    0.96480   0.15350   0.10370   1.000
    C2      C    0.97820   0.09040   0.18730   1.000
    H2      H    0.96190   0.15570   0.20730   1.000
    C3      C    0.47940   0.58870   0.62450   1.000
    H3      H    0.46480   0.65350   0.60370   1.000
    C4      C    0.47820   0.59040   0.68730   1.000
    H4      H    0.46190   0.65570   0.70730   1.000
    C5      C    0.02060   0.91130   0.12450   1.000
    H5      H    0.03520   0.84650   0.10370   1.000
    C6      C    0.02180   0.90960   0.18730   1.000
    H6      H    0.03810   0.84430   0.20730   1.000
    C7      C    0.52060   0.41130   0.62450   1.000
    H7      H    0.53520   0.34650   0.60370   1.000
    C8      C    0.52180   0.40960   0.68730   1.000
    H8      H    0.53810   0.34430   0.70730   1.000
    C9      C    0.91130   0.97940   0.12450   1.000
    H9      H    0.84650   0.96480   0.10370   1.000
    C10     C    0.90960   0.97820   0.18730   1.000
    H10     H    0.84430   0.96190   0.20730   1.000
    C11     C    0.41130   0.47940   0.62450   1.000
    H11     H    0.34650   0.46480   0.60370   1.000
    C12     C    0.40960   0.47820   0.68730   1.000
    H12     H    0.34430   0.46190   0.70730   1.000
    C13     C    0.08870   0.02060   0.12450   1.000
    H13     H    0.15350   0.03520   0.10370   1.000
    C14     C    0.09040   0.02180   0.18730   1.000
    H14     H    0.15570   0.03810   0.20730   1.000
    C15     C    0.58870   0.52060   0.62450   1.000
    H15     H    0.65350   0.53520   0.60370   1.000
    C16     C    0.59040   0.52180   0.68730   1.000
    H16     H    0.65570   0.53810   0.70730   1.000
    C17     C    0.02060   0.08870   0.37550   1.000
    H17     H    0.03520   0.15350   0.39630   1.000
    C18     C    0.02180   0.09040   0.31270   1.000
    H18     H    0.03810   0.15570   0.29270   1.000
    C19     C    0.52060   0.58870   0.87550   1.000
    H19     H    0.53520   0.65350   0.89630   1.000
    C20     C    0.52180   0.59040   0.81270   1.000
    H20     H    0.53810   0.65570   0.79270   1.000
    C21     C    0.97940   0.91130   0.37550   1.000
    H21     H    0.96480   0.84650   0.39630   1.000
    C22     C    0.97820   0.90960   0.31270   1.000
    H22     H    0.96190   0.84430   0.29270   1.000
    C23     C    0.47940   0.41130   0.87550   1.000
    H23     H    0.46480   0.34650   0.89630   1.000
    C24     C    0.47820   0.40960   0.81270   1.000
    H24     H    0.46190   0.34430   0.79270   1.000
    C25     C    0.08870   0.97940   0.37550   1.000
    H25     H    0.15350   0.96480   0.39630   1.000
    C26     C    0.09040   0.97820   0.31270   1.000
    H26     H    0.15570   0.96190   0.29270   1.000
    C27     C    0.58870   0.47940   0.87550   1.000
    H27     H    0.65350   0.46480   0.89630   1.000
    C28     C    0.59040   0.47820   0.81270   1.000
    H28     H    0.65570   0.46190   0.79270   1.000
    C29     C    0.91130   0.02060   0.37550   1.000
    H29     H    0.84650   0.03520   0.39630   1.000
    C30     C    0.90960   0.02180   0.31270   1.000
    H30     H    0.84430   0.03810   0.29270   1.000
    C31     C    0.41130   0.52060   0.87550   1.000
    H31     H    0.34650   0.53520   0.89630   1.000
    C32     C    0.40960   0.52180   0.81270   1.000
    H32     H    0.34430   0.53810   0.79270   1.000
    C33     C    0.02060   0.91130   0.87550   1.000
    H33     H    0.03520   0.84650   0.89630   1.000
    C34     C    0.02180   0.90960   0.81270   1.000
    H34     H    0.03810   0.84430   0.79270   1.000
    C35     C    0.52060   0.41130   0.37550   1.000
    H35     H    0.53520   0.34650   0.39630   1.000
    C36     C    0.52180   0.40960   0.31270   1.000
    H36     H    0.53810   0.34430   0.29270   1.000
    C37     C    0.97940   0.08870   0.87550   1.000
    H37     H    0.96480   0.15350   0.89630   1.000
    C38     C    0.97820   0.09040   0.81270   1.000
    H38     H    0.96190   0.15570   0.79270   1.000
    C39     C    0.47940   0.58870   0.37550   1.000
    H39     H    0.46480   0.65350   0.39630   1.000
    C40     C    0.47820   0.59040   0.31270   1.000
    H40     H    0.46190   0.65570   0.29270   1.000
    C41     C    0.08870   0.02060   0.87550   1.000
    H41     H    0.15350   0.03520   0.89630   1.000
    C42     C    0.09040   0.02180   0.81270   1.000
    H42     H    0.15570   0.03810   0.79270   1.000
    C43     C    0.58870   0.52060   0.37550   1.000
    H43     H    0.65350   0.53520   0.39630   1.000
    C44     C    0.59040   0.52180   0.31270   1.000
    H44     H    0.65570   0.53810   0.29270   1.000
    C45     C    0.91130   0.97940   0.87550   1.000
    H45     H    0.84650   0.96480   0.89630   1.000
    C46     C    0.90960   0.97820   0.81270   1.000
    H46     H    0.84430   0.96190   0.79270   1.000
    C47     C    0.41130   0.47940   0.37550   1.000
    H47     H    0.34650   0.46480   0.39630   1.000
    C48     C    0.40960   0.47820   0.31270   1.000
    H48     H    0.34430   0.46190   0.29270   1.000
    C49     C    0.97940   0.91130   0.62450   1.000
    H49     H    0.96480   0.84650   0.60370   1.000
    C50     C    0.97820   0.90960   0.68730   1.000
    H50     H    0.96190   0.84430   0.70730   1.000
    C51     C    0.47940   0.41130   0.12450   1.000
    H51     H    0.46480   0.34650   0.10370   1.000
    C52     C    0.47820   0.40960   0.18730   1.000
    H52     H    0.46190   0.34430   0.20730   1.000
    C53     C    0.02060   0.08870   0.62450   1.000
    H53     H    0.03520   0.15350   0.60370   1.000
    C54     C    0.02180   0.09040   0.68730   1.000
    H54     H    0.03810   0.15570   0.70730   1.000
    C55     C    0.52060   0.58870   0.12450   1.000
    H55     H    0.53520   0.65350   0.10370   1.000
    C56     C    0.52180   0.59040   0.18730   1.000
    H56     H    0.53810   0.65570   0.20730   1.000
    C57     C    0.91130   0.02060   0.62450   1.000
    H57     H    0.84650   0.03520   0.60370   1.000
    C58     C    0.90960   0.02180   0.68730   1.000
    H58     H    0.84430   0.03810   0.70730   1.000
    C59     C    0.41130   0.52060   0.12450   1.000
    H59     H    0.34650   0.53520   0.10370   1.000
    C60     C    0.40960   0.52180   0.18730   1.000
    H60     H    0.34430   0.53810   0.20730   1.000
    C61     C    0.08870   0.97940   0.62450   1.000
    H61     H    0.15350   0.96480   0.60370   1.000
    C62     C    0.09040   0.97820   0.68730   1.000
    H62     H    0.15570   0.96190   0.70730   1.000
    C63     C    0.58870   0.47940   0.12450   1.000
    H63     H    0.65350   0.46480   0.10370   1.000
    C64     C    0.59040   0.47820   0.18730   1.000
    H64     H    0.65570   0.46190   0.20730   1.000
    Fe1     Fe   0.00000   0.00000   0.00000   1.000
    Fe2     Fe   0.50000   0.50000   0.50000   1.000
    Fe3     Fe   0.00000   0.00000   0.50000   1.000
    Fe4     Fe   0.50000   0.50000   0.00000   1.000
    N1      N    0.10078   0.14069   0.00000   1.000
    C65     C    0.13498   0.22685   0.00000   1.000
    C66     C    0.10800   0.52870   0.00000   1.000
    H65     H    0.18210   0.54930   0.00000   1.000
    N2      N    0.60078   0.64069   0.50000   1.000
    C67     C    0.63498   0.72685   0.50000   1.000
    C68     C    0.60800   0.02870   0.50000   1.000
    H66     H    0.68210   0.04930   0.50000   1.000
    N3      N    0.89922   0.85931   0.00000   1.000
    C69     C    0.86502   0.77315   0.00000   1.000
    C70     C    0.89200   0.47130   0.00000   1.000
    H67     H    0.81790   0.45070   0.00000   1.000
    N4      N    0.39922   0.35931   0.50000   1.000
    C71     C    0.36502   0.27315   0.50000   1.000
    C72     C    0.39200   0.97130   0.50000   1.000
    H68     H    0.31790   0.95070   0.50000   1.000
    N5      N    0.85931   0.10078   0.00000   1.000
    C73     C    0.77315   0.13498   0.00000   1.000
    C74     C    0.47130   0.10800   0.00000   1.000
    H69     H    0.45070   0.18210   0.00000   1.000
    N6      N    0.35931   0.60078   0.50000   1.000
    C75     C    0.27315   0.63498   0.50000   1.000
    C76     C    0.97130   0.60800   0.50000   1.000
    H70     H    0.95070   0.68210   0.50000   1.000
    N7      N    0.14069   0.89922   0.00000   1.000
    C77     C    0.22685   0.86502   0.00000   1.000
    C78     C    0.52870   0.89200   0.00000   1.000
    H71     H    0.54930   0.81790   0.00000   1.000
    N8      N    0.64069   0.39922   0.50000   1.000
    C79     C    0.72685   0.36502   0.50000   1.000
    C80     C    0.02870   0.39200   0.50000   1.000
    H72     H    0.04930   0.31790   0.50000   1.000
    N9      N    0.89922   0.14069   0.50000   1.000
    C81     C    0.86502   0.22685   0.50000   1.000
    C82     C    0.89200   0.52870   0.50000   1.000
    H73     H    0.81790   0.54930   0.50000   1.000
    N10     N    0.39922   0.64069   0.00000   1.000
    C83     C    0.36502   0.72685   0.00000   1.000
    C84     C    0.39200   0.02870   0.00000   1.000
    H74     H    0.31790   0.04930   0.00000   1.000
    N11     N    0.10078   0.85931   0.50000   1.000
    C85     C    0.13498   0.77315   0.50000   1.000
    C86     C    0.10800   0.47130   0.50000   1.000
    H75     H    0.18210   0.45070   0.50000   1.000
    N12     N    0.60078   0.35931   0.00000   1.000
    C87     C    0.63498   0.27315   0.00000   1.000
    C88     C    0.60800   0.97130   0.00000   1.000
    H76     H    0.68210   0.95070   0.00000   1.000
    N13     N    0.14069   0.10078   0.50000   1.000
    C89     C    0.22685   0.13498   0.50000   1.000
    C90     C    0.52870   0.10800   0.50000   1.000
    H77     H    0.54930   0.18210   0.50000   1.000
    N14     N    0.64069   0.60078   0.00000   1.000
    C91     C    0.72685   0.63498   0.00000   1.000
    C92     C    0.02870   0.60800   0.00000   1.000
    H78     H    0.04930   0.68210   0.00000   1.000
    N15     N    0.85931   0.89922   0.50000   1.000
    C93     C    0.77315   0.86502   0.50000   1.000
    C94     C    0.47130   0.89200   0.50000   1.000
    H79     H    0.45070   0.81790   0.50000   1.000
    N16     N    0.35931   0.39922   0.00000   1.000
    C95     C    0.27315   0.36502   0.00000   1.000
    C96     C    0.97130   0.39200   0.00000   1.000
    H80     H    0.95070   0.31790   0.00000   1.000
    N17     N    0.00000   0.00000   0.09559   1.000
    C97     C    0.00000   0.00000   0.21780   1.000
    N18     N    0.50000   0.50000   0.59559   1.000
    C98     C    0.50000   0.50000   0.71780   1.000
    N19     N    0.00000   0.00000   0.40441   1.000
    C99     C    0.00000   0.00000   0.28220   1.000
    N20     N    0.50000   0.50000   0.90441   1.000
    C100    C    0.50000   0.50000   0.78220   1.000
    N21     N    0.00000   0.00000   0.90441   1.000
    C101    C    0.00000   0.00000   0.78220   1.000
    N22     N    0.50000   0.50000   0.40441   1.000
    C102    C    0.50000   0.50000   0.28220   1.000
    N23     N    0.00000   0.00000   0.59559   1.000
    C103    C    0.00000   0.00000   0.71780   1.000
    N24     N    0.50000   0.50000   0.09559   1.000
    C104    C    0.50000   0.50000   0.21780   1.000
    C105    C    0.16501   0.33499   0.00000   1.000
    C106    C    0.08095   0.41905   0.00000   1.000
    C107    C    0.83499   0.66501   0.00000   1.000
    C108    C    0.91905   0.58095   0.00000   1.000
    C109    C    0.33499   0.16501   0.50000   1.000
    C110    C    0.41905   0.08095   0.50000   1.000
    C111    C    0.66501   0.16501   0.00000   1.000
    C112    C    0.58095   0.08095   0.00000   1.000
    C113    C    0.33499   0.83499   0.00000   1.000
    C114    C    0.41905   0.91905   0.00000   1.000
    C115    C    0.83499   0.33499   0.50000   1.000
    C116    C    0.91905   0.41905   0.50000   1.000
    C117    C    0.16501   0.66501   0.50000   1.000
    C118    C    0.08095   0.58095   0.50000   1.000
    C119    C    0.66501   0.83499   0.50000   1.000
    C120    C    0.58095   0.91905   0.50000   1.000
