# CIF file generated by openbabel 2.4.1, see http://openbabel.sf.net
data_I
_chemical_name_common 'image0'
_cell_length_a 47.4
_cell_length_b 9.611
_cell_length_c 17.8051
_cell_angle_alpha 90
_cell_angle_beta 92.21
_cell_angle_gamma 90
_space_group_name_H-M_alt 'P 1'
_space_group_name_Hall 'P 1'
loop_
    _symmetry_equiv_pos_as_xyz
    x,y,z
loop_
    _atom_site_label
    _atom_site_type_symbol
    _atom_site_fract_x
    _atom_site_fract_y
    _atom_site_fract_z
    _atom_site_occupancy
    Co1     Co   0.67717   0.67715   0.49146   1.000
    N1      N    0.63574   0.67940   0.52580   1.000
    N2      N    0.56086   0.66190   0.64430   1.000
    O1      O    0.71883   0.59660   0.47340   1.000
    O2      O    0.68905   0.47270   0.53640   1.000
    O3      O    0.68634   0.78560   0.58720   1.000
    O4      O    0.73356   0.78820   0.60290   1.000
    O5      O    0.67854   0.16210   0.91840   1.000
    O6      O    0.72392   0.10820   0.94520   1.000
    O7      O    0.58730   0.72600   0.74640   1.000
    O8      O    0.53480   0.60700   0.53790   1.000
    C1      C    0.71248   0.48360   0.50600   1.000
    C2      C    0.73211   0.36360   0.50240   1.000
    C3      C    0.72847   0.25200   0.55020   1.000
    H1      H    0.71400   0.25280   0.58410   1.000
    C4      C    0.75332   0.36190   0.45300   1.000
    H2      H    0.75570   0.43720   0.42100   1.000
    C5      C    0.70188   0.10650   0.90610   1.000
    C6      C    0.70912   0.81330   0.62150   1.000
    C7      C    0.70751   0.88810   0.69600   1.000
    C8      C    0.68235   0.94750   0.71570   1.000
    H3      H    0.66650   0.94010   0.68340   1.000
    C9      C    0.68035   0.02020   0.78520   1.000
    H4      H    0.66350   0.06250   0.79770   1.000
    C10     C    0.70315   0.02650   0.83250   1.000
    C11     C    0.72814   0.97020   0.81130   1.000
    H5      H    0.74420   0.97850   0.84280   1.000
    C12     C    0.72976   0.90060   0.74320   1.000
    H6      H    0.74690   0.86170   0.73030   1.000
    C13     C    0.62174   0.56380   0.53390   1.000
    H7      H    0.62890   0.48220   0.51410   1.000
    C14     C    0.59590   0.55750   0.57190   1.000
    H8      H    0.58610   0.47400   0.57520   1.000
    C15     C    0.58600   0.67140   0.60240   1.000
    C16     C    0.59980   0.78940   0.59280   1.000
    H9      H    0.59270   0.87230   0.61110   1.000
    C17     C    0.62433   0.78960   0.55640   1.000
    H10     H    0.63380   0.87380   0.55280   1.000
    C18     C    0.56430   0.70200   0.72000   1.000
    C19     C    0.53920   0.69500   0.76300   1.000
    C20     C    0.51250   0.65750   0.73020   1.000
    C21     C    0.51010   0.61600   0.64600   1.000
    C22     C    0.53610   0.61800   0.60400   1.000
    C23     C    0.54050   0.71100   0.83830   1.000
    H11     H    0.55810   0.72380   0.86200   1.000
    C24     C    0.48440   0.59700   0.61470   1.000
    H12     H    0.48230   0.58540   0.56290   1.000
    O9      O    0.58720   0.61100   0.75130   1.000
    O10     O    0.53570   0.72100   0.54200   1.000
    C25     C    0.56360   0.62100   0.72300   1.000
    C26     C    0.53800   0.61700   0.76700   1.000
    C27     C    0.50900   0.69000   0.65200   1.000
    C28     C    0.53660   0.69300   0.60900   1.000
    C29     C    0.53970   0.59300   0.84200   1.000
    H13     H    0.55720   0.57380   0.86550   1.000
    C30     C    0.48260   0.71100   0.61900   1.000
    H14     H    0.48050   0.72490   0.56700   1.000
    Co2     Co   0.17717   0.17715   0.49146   1.000
    N3      N    0.13574   0.17940   0.52580   1.000
    N4      N    0.06086   0.16190   0.64430   1.000
    O11     O    0.21883   0.09660   0.47340   1.000
    O12     O    0.18905   0.97270   0.53640   1.000
    O13     O    0.18634   0.28560   0.58720   1.000
    O14     O    0.23356   0.28820   0.60290   1.000
    O15     O    0.17854   0.66210   0.91840   1.000
    O16     O    0.22392   0.60820   0.94520   1.000
    O17     O    0.08730   0.22600   0.74640   1.000
    O18     O    0.03480   0.10700   0.53790   1.000
    C31     C    0.21248   0.98360   0.50600   1.000
    C32     C    0.23211   0.86360   0.50240   1.000
    C33     C    0.22847   0.75200   0.55020   1.000
    H15     H    0.21400   0.75280   0.58410   1.000
    C34     C    0.25332   0.86190   0.45300   1.000
    H16     H    0.25570   0.93720   0.42100   1.000
    C35     C    0.20188   0.60650   0.90610   1.000
    C36     C    0.20912   0.31330   0.62150   1.000
    C37     C    0.20751   0.38810   0.69600   1.000
    C38     C    0.18235   0.44750   0.71570   1.000
    H17     H    0.16650   0.44010   0.68340   1.000
    C39     C    0.18035   0.52020   0.78520   1.000
    H18     H    0.16350   0.56250   0.79770   1.000
    C40     C    0.20315   0.52650   0.83250   1.000
    C41     C    0.22814   0.47020   0.81130   1.000
    H19     H    0.24420   0.47850   0.84280   1.000
    C42     C    0.22976   0.40060   0.74320   1.000
    H20     H    0.24690   0.36170   0.73030   1.000
    C43     C    0.12174   0.06380   0.53390   1.000
    H21     H    0.12890   0.98220   0.51410   1.000
    C44     C    0.09590   0.05750   0.57190   1.000
    H22     H    0.08610   0.97400   0.57520   1.000
    C45     C    0.08600   0.17140   0.60240   1.000
    C46     C    0.09980   0.28940   0.59280   1.000
    H23     H    0.09270   0.37230   0.61110   1.000
    C47     C    0.12433   0.28960   0.55640   1.000
    H24     H    0.13380   0.37380   0.55280   1.000
    C48     C    0.06430   0.20200   0.72000   1.000
    C49     C    0.03920   0.19500   0.76300   1.000
    C50     C    0.01250   0.15750   0.73020   1.000
    C51     C    0.01010   0.11600   0.64600   1.000
    C52     C    0.03610   0.11800   0.60400   1.000
    C53     C    0.04050   0.21100   0.83830   1.000
    H25     H    0.05810   0.22380   0.86200   1.000
    C54     C    0.98440   0.09700   0.61470   1.000
    H26     H    0.98230   0.08540   0.56290   1.000
    O19     O    0.08720   0.11100   0.75130   1.000
    O20     O    0.03570   0.22100   0.54200   1.000
    C55     C    0.06360   0.12100   0.72300   1.000
    C56     C    0.03800   0.11700   0.76700   1.000
    C57     C    0.00900   0.19000   0.65200   1.000
    C58     C    0.03660   0.19300   0.60900   1.000
    C59     C    0.03970   0.09300   0.84200   1.000
    H27     H    0.05720   0.07380   0.86550   1.000
    C60     C    0.98260   0.21100   0.61900   1.000
    H28     H    0.98050   0.22490   0.56700   1.000
    Co3     Co   0.32283   0.67715   0.00854   1.000
    N5      N    0.36426   0.67940   0.97420   1.000
    N6      N    0.43914   0.66190   0.85570   1.000
    O21     O    0.28117   0.59660   0.02660   1.000
    O22     O    0.31095   0.47270   0.96360   1.000
    O23     O    0.31366   0.78560   0.91280   1.000
    O24     O    0.26644   0.78820   0.89710   1.000
    O25     O    0.32146   0.16210   0.58160   1.000
    O26     O    0.27608   0.10820   0.55480   1.000
    O27     O    0.41270   0.72600   0.75360   1.000
    O28     O    0.46520   0.60700   0.96210   1.000
    C61     C    0.28752   0.48360   0.99400   1.000
    C62     C    0.26789   0.36360   0.99760   1.000
    C63     C    0.27153   0.25200   0.94980   1.000
    H29     H    0.28600   0.25280   0.91590   1.000
    C64     C    0.24668   0.36190   0.04700   1.000
    H30     H    0.24430   0.43720   0.07900   1.000
    C65     C    0.29812   0.10650   0.59390   1.000
    C66     C    0.29088   0.81330   0.87850   1.000
    C67     C    0.29249   0.88810   0.80400   1.000
    C68     C    0.31765   0.94750   0.78430   1.000
    H31     H    0.33350   0.94010   0.81660   1.000
    C69     C    0.31965   0.02020   0.71480   1.000
    H32     H    0.33650   0.06250   0.70230   1.000
    C70     C    0.29685   0.02650   0.66750   1.000
    C71     C    0.27186   0.97020   0.68870   1.000
    H33     H    0.25580   0.97850   0.65720   1.000
    C72     C    0.27024   0.90060   0.75680   1.000
    H34     H    0.25310   0.86170   0.76970   1.000
    C73     C    0.37826   0.56380   0.96610   1.000
    H35     H    0.37110   0.48220   0.98590   1.000
    C74     C    0.40410   0.55750   0.92810   1.000
    H36     H    0.41390   0.47400   0.92480   1.000
    C75     C    0.41400   0.67140   0.89760   1.000
    C76     C    0.40020   0.78940   0.90720   1.000
    H37     H    0.40730   0.87230   0.88890   1.000
    C77     C    0.37567   0.78960   0.94360   1.000
    H38     H    0.36620   0.87380   0.94720   1.000
    C78     C    0.43570   0.70200   0.78000   1.000
    C79     C    0.46080   0.69500   0.73700   1.000
    C80     C    0.48750   0.65750   0.76980   1.000
    C81     C    0.48990   0.61600   0.85400   1.000
    C82     C    0.46390   0.61800   0.89600   1.000
    C83     C    0.45950   0.71100   0.66170   1.000
    H39     H    0.44190   0.72380   0.63800   1.000
    C84     C    0.51560   0.59700   0.88530   1.000
    H40     H    0.51770   0.58540   0.93710   1.000
    O29     O    0.41280   0.61100   0.74870   1.000
    O30     O    0.46430   0.72100   0.95800   1.000
    C85     C    0.43640   0.62100   0.77700   1.000
    C86     C    0.46200   0.61700   0.73300   1.000
    C87     C    0.49100   0.69000   0.84800   1.000
    C88     C    0.46340   0.69300   0.89100   1.000
    C89     C    0.46030   0.59300   0.65800   1.000
    H41     H    0.44280   0.57380   0.63450   1.000
    C90     C    0.51740   0.71100   0.88100   1.000
    H42     H    0.51950   0.72490   0.93300   1.000
    Co4     Co   0.82283   0.17715   0.00854   1.000
    N7      N    0.86426   0.17940   0.97420   1.000
    N8      N    0.93914   0.16190   0.85570   1.000
    O31     O    0.78117   0.09660   0.02660   1.000
    O32     O    0.81095   0.97270   0.96360   1.000
    O33     O    0.81366   0.28560   0.91280   1.000
    O34     O    0.76644   0.28820   0.89710   1.000
    O35     O    0.82146   0.66210   0.58160   1.000
    O36     O    0.77608   0.60820   0.55480   1.000
    O37     O    0.91270   0.22600   0.75360   1.000
    O38     O    0.96520   0.10700   0.96210   1.000
    C91     C    0.78752   0.98360   0.99400   1.000
    C92     C    0.76789   0.86360   0.99760   1.000
    C93     C    0.77153   0.75200   0.94980   1.000
    H43     H    0.78600   0.75280   0.91590   1.000
    C94     C    0.74668   0.86190   0.04700   1.000
    H44     H    0.74430   0.93720   0.07900   1.000
    C95     C    0.79812   0.60650   0.59390   1.000
    C96     C    0.79088   0.31330   0.87850   1.000
    C97     C    0.79249   0.38810   0.80400   1.000
    C98     C    0.81765   0.44750   0.78430   1.000
    H45     H    0.83350   0.44010   0.81660   1.000
    C99     C    0.81965   0.52020   0.71480   1.000
    H46     H    0.83650   0.56250   0.70230   1.000
    C100    C    0.79685   0.52650   0.66750   1.000
    C101    C    0.77186   0.47020   0.68870   1.000
    H47     H    0.75580   0.47850   0.65720   1.000
    C102    C    0.77024   0.40060   0.75680   1.000
    H48     H    0.75310   0.36170   0.76970   1.000
    C103    C    0.87826   0.06380   0.96610   1.000
    H49     H    0.87110   0.98220   0.98590   1.000
    C104    C    0.90410   0.05750   0.92810   1.000
    H50     H    0.91390   0.97400   0.92480   1.000
    C105    C    0.91400   0.17140   0.89760   1.000
    C106    C    0.90020   0.28940   0.90720   1.000
    H51     H    0.90730   0.37230   0.88890   1.000
    C107    C    0.87567   0.28960   0.94360   1.000
    H52     H    0.86620   0.37380   0.94720   1.000
    C108    C    0.93570   0.20200   0.78000   1.000
    C109    C    0.96080   0.19500   0.73700   1.000
    C110    C    0.98750   0.15750   0.76980   1.000
    C111    C    0.98990   0.11600   0.85400   1.000
    C112    C    0.96390   0.11800   0.89600   1.000
    C113    C    0.95950   0.21100   0.66170   1.000
    H53     H    0.94190   0.22380   0.63800   1.000
    C114    C    0.01560   0.09700   0.88530   1.000
    H54     H    0.01770   0.08540   0.93710   1.000
    O39     O    0.91280   0.11100   0.74870   1.000
    O40     O    0.96430   0.22100   0.95800   1.000
    C115    C    0.93640   0.12100   0.77700   1.000
    C116    C    0.96200   0.11700   0.73300   1.000
    C117    C    0.99100   0.19000   0.84800   1.000
    C118    C    0.96340   0.19300   0.89100   1.000
    C119    C    0.96030   0.09300   0.65800   1.000
    H55     H    0.94280   0.07380   0.63450   1.000
    C120    C    0.01740   0.21100   0.88100   1.000
    H56     H    0.01950   0.22490   0.93300   1.000
    Co5     Co   0.32283   0.32285   0.50854   1.000
    N9      N    0.36426   0.32060   0.47420   1.000
    N10     N    0.43914   0.33810   0.35570   1.000
    O41     O    0.28117   0.40340   0.52660   1.000
    O42     O    0.31095   0.52730   0.46360   1.000
    O43     O    0.31366   0.21440   0.41280   1.000
    O44     O    0.26644   0.21180   0.39710   1.000
    O45     O    0.32146   0.83790   0.08160   1.000
    O46     O    0.27608   0.89180   0.05480   1.000
    O47     O    0.41270   0.27400   0.25360   1.000
    O48     O    0.46520   0.39300   0.46210   1.000
    C121    C    0.28752   0.51640   0.49400   1.000
    C122    C    0.26789   0.63640   0.49760   1.000
    C123    C    0.27153   0.74800   0.44980   1.000
    H57     H    0.28600   0.74720   0.41590   1.000
    C124    C    0.24668   0.63810   0.54700   1.000
    H58     H    0.24430   0.56280   0.57900   1.000
    C125    C    0.29812   0.89350   0.09390   1.000
    C126    C    0.29088   0.18670   0.37850   1.000
    C127    C    0.29249   0.11190   0.30400   1.000
    C128    C    0.31765   0.05250   0.28430   1.000
    H59     H    0.33350   0.05990   0.31660   1.000
    C129    C    0.31965   0.97980   0.21480   1.000
    H60     H    0.33650   0.93750   0.20230   1.000
    C130    C    0.29685   0.97350   0.16750   1.000
    C131    C    0.27186   0.02980   0.18870   1.000
    H61     H    0.25580   0.02150   0.15720   1.000
    C132    C    0.27024   0.09940   0.25680   1.000
    H62     H    0.25310   0.13830   0.26970   1.000
    C133    C    0.37826   0.43620   0.46610   1.000
    H63     H    0.37110   0.51780   0.48590   1.000
    C134    C    0.40410   0.44250   0.42810   1.000
    H64     H    0.41390   0.52600   0.42480   1.000
    C135    C    0.41400   0.32860   0.39760   1.000
    C136    C    0.40020   0.21060   0.40720   1.000
    H65     H    0.40730   0.12770   0.38890   1.000
    C137    C    0.37567   0.21040   0.44360   1.000
    H66     H    0.36620   0.12620   0.44720   1.000
    C138    C    0.43570   0.29800   0.28000   1.000
    C139    C    0.46080   0.30500   0.23700   1.000
    C140    C    0.48750   0.34250   0.26980   1.000
    C141    C    0.48990   0.38400   0.35400   1.000
    C142    C    0.46390   0.38200   0.39600   1.000
    C143    C    0.45950   0.28900   0.16170   1.000
    H67     H    0.44190   0.27620   0.13800   1.000
    C144    C    0.51560   0.40300   0.38530   1.000
    H68     H    0.51770   0.41460   0.43710   1.000
    O49     O    0.41280   0.38900   0.24870   1.000
    O50     O    0.46430   0.27900   0.45800   1.000
    C145    C    0.43640   0.37900   0.27700   1.000
    C146    C    0.46200   0.38300   0.23300   1.000
    C147    C    0.49100   0.31000   0.34800   1.000
    C148    C    0.46340   0.30700   0.39100   1.000
    C149    C    0.46030   0.40700   0.15800   1.000
    H69     H    0.44280   0.42620   0.13450   1.000
    C150    C    0.51740   0.28900   0.38100   1.000
    H70     H    0.51950   0.27510   0.43300   1.000
    Co6     Co   0.82283   0.82285   0.50854   1.000
    N11     N    0.86426   0.82060   0.47420   1.000
    N12     N    0.93914   0.83810   0.35570   1.000
    O51     O    0.78117   0.90340   0.52660   1.000
    O52     O    0.81095   0.02730   0.46360   1.000
    O53     O    0.81366   0.71440   0.41280   1.000
    O54     O    0.76644   0.71180   0.39710   1.000
    O55     O    0.82146   0.33790   0.08160   1.000
    O56     O    0.77608   0.39180   0.05480   1.000
    O57     O    0.91270   0.77400   0.25360   1.000
    O58     O    0.96520   0.89300   0.46210   1.000
    C151    C    0.78752   0.01640   0.49400   1.000
    C152    C    0.76789   0.13640   0.49760   1.000
    C153    C    0.77153   0.24800   0.44980   1.000
    H71     H    0.78600   0.24720   0.41590   1.000
    C154    C    0.74668   0.13810   0.54700   1.000
    H72     H    0.74430   0.06280   0.57900   1.000
    C155    C    0.79812   0.39350   0.09390   1.000
    C156    C    0.79088   0.68670   0.37850   1.000
    C157    C    0.79249   0.61190   0.30400   1.000
    C158    C    0.81765   0.55250   0.28430   1.000
    H73     H    0.83350   0.55990   0.31660   1.000
    C159    C    0.81965   0.47980   0.21480   1.000
    H74     H    0.83650   0.43750   0.20230   1.000
    C160    C    0.79685   0.47350   0.16750   1.000
    C161    C    0.77186   0.52980   0.18870   1.000
    H75     H    0.75580   0.52150   0.15720   1.000
    C162    C    0.77024   0.59940   0.25680   1.000
    H76     H    0.75310   0.63830   0.26970   1.000
    C163    C    0.87826   0.93620   0.46610   1.000
    H77     H    0.87110   0.01780   0.48590   1.000
    C164    C    0.90410   0.94250   0.42810   1.000
    H78     H    0.91390   0.02600   0.42480   1.000
    C165    C    0.91400   0.82860   0.39760   1.000
    C166    C    0.90020   0.71060   0.40720   1.000
    H79     H    0.90730   0.62770   0.38890   1.000
    C167    C    0.87567   0.71040   0.44360   1.000
    H80     H    0.86620   0.62620   0.44720   1.000
    C168    C    0.93570   0.79800   0.28000   1.000
    C169    C    0.96080   0.80500   0.23700   1.000
    C170    C    0.98750   0.84250   0.26980   1.000
    C171    C    0.98990   0.88400   0.35400   1.000
    C172    C    0.96390   0.88200   0.39600   1.000
    C173    C    0.95950   0.78900   0.16170   1.000
    H81     H    0.94190   0.77620   0.13800   1.000
    C174    C    0.01560   0.90300   0.38530   1.000
    H82     H    0.01770   0.91460   0.43710   1.000
    O59     O    0.91280   0.88900   0.24870   1.000
    O60     O    0.96430   0.77900   0.45800   1.000
    C175    C    0.93640   0.87900   0.27700   1.000
    C176    C    0.96200   0.88300   0.23300   1.000
    C177    C    0.99100   0.81000   0.34800   1.000
    C178    C    0.96340   0.80700   0.39100   1.000
    C179    C    0.96030   0.90700   0.15800   1.000
    H83     H    0.94280   0.92620   0.13450   1.000
    C180    C    0.01740   0.78900   0.38100   1.000
    H84     H    0.01950   0.77510   0.43300   1.000
    Co7     Co   0.67717   0.32285   0.99146   1.000
    N13     N    0.63574   0.32060   0.02580   1.000
    N14     N    0.56086   0.33810   0.14430   1.000
    O61     O    0.71883   0.40340   0.97340   1.000
    O62     O    0.68905   0.52730   0.03640   1.000
    O63     O    0.68634   0.21440   0.08720   1.000
    O64     O    0.73356   0.21180   0.10290   1.000
    O65     O    0.67854   0.83790   0.41840   1.000
    O66     O    0.72392   0.89180   0.44520   1.000
    O67     O    0.58730   0.27400   0.24640   1.000
    O68     O    0.53480   0.39300   0.03790   1.000
    C181    C    0.71248   0.51640   0.00600   1.000
    C182    C    0.73211   0.63640   0.00240   1.000
    C183    C    0.72847   0.74800   0.05020   1.000
    H85     H    0.71400   0.74720   0.08410   1.000
    C184    C    0.75332   0.63810   0.95300   1.000
    H86     H    0.75570   0.56280   0.92100   1.000
    C185    C    0.70188   0.89350   0.40610   1.000
    C186    C    0.70912   0.18670   0.12150   1.000
    C187    C    0.70751   0.11190   0.19600   1.000
    C188    C    0.68235   0.05250   0.21570   1.000
    H87     H    0.66650   0.05990   0.18340   1.000
    C189    C    0.68035   0.97980   0.28520   1.000
    H88     H    0.66350   0.93750   0.29770   1.000
    C190    C    0.70315   0.97350   0.33250   1.000
    C191    C    0.72814   0.02980   0.31130   1.000
    H89     H    0.74420   0.02150   0.34280   1.000
    C192    C    0.72976   0.09940   0.24320   1.000
    H90     H    0.74690   0.13830   0.23030   1.000
    C193    C    0.62174   0.43620   0.03390   1.000
    H91     H    0.62890   0.51780   0.01410   1.000
    C194    C    0.59590   0.44250   0.07190   1.000
    H92     H    0.58610   0.52600   0.07520   1.000
    C195    C    0.58600   0.32860   0.10240   1.000
    C196    C    0.59980   0.21060   0.09280   1.000
    H93     H    0.59270   0.12770   0.11110   1.000
    C197    C    0.62433   0.21040   0.05640   1.000
    H94     H    0.63380   0.12620   0.05280   1.000
    C198    C    0.56430   0.29800   0.22000   1.000
    C199    C    0.53920   0.30500   0.26300   1.000
    C200    C    0.51250   0.34250   0.23020   1.000
    C201    C    0.51010   0.38400   0.14600   1.000
    C202    C    0.53610   0.38200   0.10400   1.000
    C203    C    0.54050   0.28900   0.33830   1.000
    H95     H    0.55810   0.27620   0.36200   1.000
    C204    C    0.48440   0.40300   0.11470   1.000
    H96     H    0.48230   0.41460   0.06290   1.000
    O69     O    0.58720   0.38900   0.25130   1.000
    O70     O    0.53570   0.27900   0.04200   1.000
    C205    C    0.56360   0.37900   0.22300   1.000
    C206    C    0.53800   0.38300   0.26700   1.000
    C207    C    0.50900   0.31000   0.15200   1.000
    C208    C    0.53660   0.30700   0.10900   1.000
    C209    C    0.53970   0.40700   0.34200   1.000
    H97     H    0.55720   0.42620   0.36550   1.000
    C210    C    0.48260   0.28900   0.11900   1.000
    H98     H    0.48050   0.27510   0.06700   1.000
    Co8     Co   0.17717   0.82285   0.99146   1.000
    N15     N    0.13574   0.82060   0.02580   1.000
    N16     N    0.06086   0.83810   0.14430   1.000
    O71     O    0.21883   0.90340   0.97340   1.000
    O72     O    0.18905   0.02730   0.03640   1.000
    O73     O    0.18634   0.71440   0.08720   1.000
    O74     O    0.23356   0.71180   0.10290   1.000
    O75     O    0.17854   0.33790   0.41840   1.000
    O76     O    0.22392   0.39180   0.44520   1.000
    O77     O    0.08730   0.77400   0.24640   1.000
    O78     O    0.03480   0.89300   0.03790   1.000
    C211    C    0.21248   0.01640   0.00600   1.000
    C212    C    0.23211   0.13640   0.00240   1.000
    C213    C    0.22847   0.24800   0.05020   1.000
    H99     H    0.21400   0.24720   0.08410   1.000
    C214    C    0.25332   0.13810   0.95300   1.000
    H100    H    0.25570   0.06280   0.92100   1.000
    C215    C    0.20188   0.39350   0.40610   1.000
    C216    C    0.20912   0.68670   0.12150   1.000
    C217    C    0.20751   0.61190   0.19600   1.000
    C218    C    0.18235   0.55250   0.21570   1.000
    H101    H    0.16650   0.55990   0.18340   1.000
    C219    C    0.18035   0.47980   0.28520   1.000
    H102    H    0.16350   0.43750   0.29770   1.000
    C220    C    0.20315   0.47350   0.33250   1.000
    C221    C    0.22814   0.52980   0.31130   1.000
    H103    H    0.24420   0.52150   0.34280   1.000
    C222    C    0.22976   0.59940   0.24320   1.000
    H104    H    0.24690   0.63830   0.23030   1.000
    C223    C    0.12174   0.93620   0.03390   1.000
    H105    H    0.12890   0.01780   0.01410   1.000
    C224    C    0.09590   0.94250   0.07190   1.000
    H106    H    0.08610   0.02600   0.07520   1.000
    C225    C    0.08600   0.82860   0.10240   1.000
    C226    C    0.09980   0.71060   0.09280   1.000
    H107    H    0.09270   0.62770   0.11110   1.000
    C227    C    0.12433   0.71040   0.05640   1.000
    H108    H    0.13380   0.62620   0.05280   1.000
    C228    C    0.06430   0.79800   0.22000   1.000
    C229    C    0.03920   0.80500   0.26300   1.000
    C230    C    0.01250   0.84250   0.23020   1.000
    C231    C    0.01010   0.88400   0.14600   1.000
    C232    C    0.03610   0.88200   0.10400   1.000
    C233    C    0.04050   0.78900   0.33830   1.000
    H109    H    0.05810   0.77620   0.36200   1.000
    C234    C    0.98440   0.90300   0.11470   1.000
    H110    H    0.98230   0.91460   0.06290   1.000
    O79     O    0.08720   0.88900   0.25130   1.000
    O80     O    0.03570   0.77900   0.04200   1.000
    C235    C    0.06360   0.87900   0.22300   1.000
    C236    C    0.03800   0.88300   0.26700   1.000
    C237    C    0.00900   0.81000   0.15200   1.000
    C238    C    0.03660   0.80700   0.10900   1.000
    C239    C    0.03970   0.90700   0.34200   1.000
    H111    H    0.05720   0.92620   0.36550   1.000
    C240    C    0.98260   0.78900   0.11900   1.000
    H112    H    0.98050   0.77510   0.06700   1.000
    Co9     Co   0.75000   0.75000   0.50000   1.000
    Co10    Co   0.25000   0.75000   0.00000   1.000
    Co11    Co   0.25000   0.25000   0.50000   1.000
    Co12    Co   0.75000   0.25000   0.00000   1.000
