# CIF file generated by openbabel 2.4.1, see http://openbabel.sf.net
data_I
_chemical_name_common 'image0'
_cell_length_a 23.065
_cell_length_b 19.498
_cell_length_c 9.529
_cell_angle_alpha 90
_cell_angle_beta 94.91
_cell_angle_gamma 90
_space_group_name_H-M_alt 'P 1'
_space_group_name_Hall 'P 1'
loop_
    _symmetry_equiv_pos_as_xyz
    x,y,z
loop_
    _atom_site_label
    _atom_site_type_symbol
    _atom_site_fract_x
    _atom_site_fract_y
    _atom_site_fract_z
    _atom_site_occupancy
    Cu1     Cu   0.49700   0.22219   0.60839   1.000
    O1      O    0.56010   0.29000   0.64800   1.000
    O2      O    0.56110   0.29620   0.87860   1.000
    O3      O    0.93350   0.65430   0.62530   1.000
    O4      O    0.94500   0.64940   0.85690   1.000
    C1      C    0.57830   0.31030   0.76550   1.000
    C2      C    0.92160   0.63460   0.73870   1.000
    C3      C    0.63040   0.36120   0.77470   1.000
    C4      C    0.62410   0.42220   0.69910   1.000
    F1      F    0.57260   0.43830   0.63120   1.000
    C5      C    0.67120   0.46630   0.69410   1.000
    F2      F    0.66510   0.52510   0.62130   1.000
    C6      C    0.72450   0.44960   0.76460   1.000
    C7      C    0.73080   0.38870   0.84010   1.000
    F3      F    0.78230   0.37250   0.90810   1.000
    C8      C    0.68370   0.34450   0.84520   1.000
    F4      F    0.68980   0.28580   0.91800   1.000
    C9      C    0.86930   0.58600   0.73980   1.000
    C10     C    0.87000   0.52170   0.67690   1.000
    F5      F    0.91540   0.50270   0.60720   1.000
    C11     C    0.82340   0.47710   0.68620   1.000
    F6      F    0.82400   0.41510   0.62550   1.000
    C12     C    0.77630   0.49680   0.75840   1.000
    C13     C    0.77560   0.56110   0.82140   1.000
    F7      F    0.73020   0.58010   0.89100   1.000
    C14     C    0.82220   0.60570   0.81200   1.000
    F8      F    0.82160   0.66760   0.87270   1.000
    N1      N    0.49960   0.22230   0.38670   1.000
    C15     C    0.52470   0.28640   0.33500   1.000
    C16     C    0.49440   0.15180   0.32860   1.000
    C17     C    0.51580   0.29080   0.17200   1.000
    C18     C    0.45120   0.26260   0.31500   1.000
    C19     C    0.44310   0.24620   0.15600   1.000
    C20     C    0.44210   0.20460   0.15700   1.000
    C21     C    0.45760   0.17260   0.32100   1.000
    C22     C    0.44010   0.21570   0.31600   1.000
    C23     C    0.53450   0.16470   0.33700   1.000
    C24     C    0.62880   0.36210   0.76330   1.000
    C25     C    0.62810   0.41420   0.66370   1.000
    F9      F    0.58200   0.42190   0.56970   1.000
    C26     C    0.67540   0.45840   0.66160   1.000
    F10     F    0.67470   0.50860   0.56550   1.000
    C27     C    0.72330   0.45040   0.75910   1.000
    C28     C    0.72390   0.39830   0.85870   1.000
    F11     F    0.77010   0.39060   0.95280   1.000
    C29     C    0.67670   0.35410   0.86090   1.000
    F12     F    0.67740   0.30390   0.95690   1.000
    C30     C    0.86940   0.58540   0.74250   1.000
    C31     C    0.87530   0.51590   0.71510   1.000
    F13     F    0.92660   0.49100   0.68230   1.000
    C32     C    0.82810   0.47210   0.72170   1.000
    F14     F    0.83380   0.40500   0.69530   1.000
    C33     C    0.77490   0.49780   0.75580   1.000
    C34     C    0.76890   0.56740   0.78320   1.000
    F15     F    0.71760   0.59220   0.81600   1.000
    C35     C    0.81610   0.61120   0.77660   1.000
    F16     F    0.81040   0.67820   0.80300   1.000
    H1      H    0.51510   0.12160   0.35290   1.000
    H2      H    0.57240   0.16380   0.39010   1.000
    H3      H    0.58170   0.18810   0.16750   1.000
    H4      H    0.53700   0.12850   0.13290   1.000
    H5      H    0.41810   0.25690   0.33250   1.000
    H6      H    0.42050   0.17720   0.35640   1.000
    H7      H    0.43340   0.15700   0.13370   1.000
    H8      H    0.41290   0.23300   0.10590   1.000
    H9      H    0.56590   0.28810   0.36420   1.000
    H10     H    0.50620   0.32550   0.37520   1.000
    H11     H    0.48500   0.32320   0.14430   1.000
    H12     H    0.55130   0.30690   0.13500   1.000
    H13     H    0.45580   0.13410   0.33950   1.000
    H14     H    0.52240   0.12210   0.38030   1.000
    H15     H    0.45920   0.31110   0.32820   1.000
    H16     H    0.41550   0.25220   0.35790   1.000
    H17     H    0.41390   0.21070   0.13840   1.000
    H18     H    0.43050   0.28680   0.10360   1.000
    Cu2     Cu   0.99700   0.72219   0.60839   1.000
    O5      O    0.06010   0.79000   0.64800   1.000
    O6      O    0.06110   0.79620   0.87860   1.000
    O7      O    0.43350   0.15430   0.62530   1.000
    O8      O    0.44500   0.14940   0.85690   1.000
    C36     C    0.07830   0.81030   0.76550   1.000
    C37     C    0.42160   0.13460   0.73870   1.000
    C38     C    0.13040   0.86120   0.77470   1.000
    C39     C    0.12410   0.92220   0.69910   1.000
    F17     F    0.07260   0.93830   0.63120   1.000
    C40     C    0.17120   0.96630   0.69410   1.000
    F18     F    0.16510   0.02510   0.62130   1.000
    C41     C    0.22450   0.94960   0.76460   1.000
    C42     C    0.23080   0.88870   0.84010   1.000
    F19     F    0.28230   0.87250   0.90810   1.000
    C43     C    0.18370   0.84450   0.84520   1.000
    F20     F    0.18980   0.78580   0.91800   1.000
    C44     C    0.36930   0.08600   0.73980   1.000
    C45     C    0.37000   0.02170   0.67690   1.000
    F21     F    0.41540   0.00270   0.60720   1.000
    C46     C    0.32340   0.97710   0.68620   1.000
    F22     F    0.32400   0.91510   0.62550   1.000
    C47     C    0.27630   0.99680   0.75840   1.000
    C48     C    0.27560   0.06110   0.82140   1.000
    F23     F    0.23020   0.08010   0.89100   1.000
    C49     C    0.32220   0.10570   0.81200   1.000
    F24     F    0.32160   0.16760   0.87270   1.000
    N2      N    0.99960   0.72230   0.38670   1.000
    C50     C    0.02470   0.78640   0.33500   1.000
    C51     C    0.99440   0.65180   0.32860   1.000
    C52     C    0.01580   0.79080   0.17200   1.000
    C53     C    0.95120   0.76260   0.31500   1.000
    C54     C    0.94310   0.74620   0.15600   1.000
    C55     C    0.94210   0.70460   0.15700   1.000
    C56     C    0.95760   0.67260   0.32100   1.000
    C57     C    0.94010   0.71570   0.31600   1.000
    C58     C    0.03450   0.66470   0.33700   1.000
    C59     C    0.12880   0.86210   0.76330   1.000
    C60     C    0.12810   0.91420   0.66370   1.000
    F25     F    0.08200   0.92190   0.56970   1.000
    C61     C    0.17540   0.95840   0.66160   1.000
    F26     F    0.17470   0.00860   0.56550   1.000
    C62     C    0.22330   0.95040   0.75910   1.000
    C63     C    0.22390   0.89830   0.85870   1.000
    F27     F    0.27010   0.89060   0.95280   1.000
    C64     C    0.17670   0.85410   0.86090   1.000
    F28     F    0.17740   0.80390   0.95690   1.000
    C65     C    0.36940   0.08540   0.74250   1.000
    C66     C    0.37530   0.01590   0.71510   1.000
    F29     F    0.42660   0.99100   0.68230   1.000
    C67     C    0.32810   0.97210   0.72170   1.000
    F30     F    0.33380   0.90500   0.69530   1.000
    C68     C    0.27490   0.99780   0.75580   1.000
    C69     C    0.26890   0.06740   0.78320   1.000
    F31     F    0.21760   0.09220   0.81600   1.000
    C70     C    0.31610   0.11120   0.77660   1.000
    F32     F    0.31040   0.17820   0.80300   1.000
    H19     H    0.01510   0.62160   0.35290   1.000
    H20     H    0.07240   0.66380   0.39010   1.000
    H21     H    0.08170   0.68810   0.16750   1.000
    H22     H    0.03700   0.62850   0.13290   1.000
    H23     H    0.91810   0.75690   0.33250   1.000
    H24     H    0.92050   0.67720   0.35640   1.000
    H25     H    0.93340   0.65700   0.13370   1.000
    H26     H    0.91290   0.73300   0.10590   1.000
    H27     H    0.06590   0.78810   0.36420   1.000
    H28     H    0.00620   0.82550   0.37520   1.000
    H29     H    0.98500   0.82320   0.14430   1.000
    H30     H    0.05130   0.80690   0.13500   1.000
    H31     H    0.95580   0.63410   0.33950   1.000
    H32     H    0.02240   0.62210   0.38030   1.000
    H33     H    0.95920   0.81110   0.32820   1.000
    H34     H    0.91550   0.75220   0.35790   1.000
    H35     H    0.91390   0.71070   0.13840   1.000
    H36     H    0.93050   0.78680   0.10360   1.000
    Cu3     Cu   0.50300   0.22219   0.89161   1.000
    O9      O    0.43990   0.29000   0.85200   1.000
    O10     O    0.43890   0.29620   0.62140   1.000
    O11     O    0.06650   0.65430   0.87470   1.000
    O12     O    0.05500   0.64940   0.64310   1.000
    C71     C    0.42170   0.31030   0.73450   1.000
    C72     C    0.07840   0.63460   0.76130   1.000
    C73     C    0.36960   0.36120   0.72530   1.000
    C74     C    0.37590   0.42220   0.80090   1.000
    F33     F    0.42740   0.43830   0.86880   1.000
    C75     C    0.32880   0.46630   0.80590   1.000
    F34     F    0.33490   0.52510   0.87870   1.000
    C76     C    0.27550   0.44960   0.73540   1.000
    C77     C    0.26920   0.38870   0.65990   1.000
    F35     F    0.21770   0.37250   0.59190   1.000
    C78     C    0.31630   0.34450   0.65480   1.000
    F36     F    0.31020   0.28580   0.58200   1.000
    C79     C    0.13070   0.58600   0.76020   1.000
    C80     C    0.13000   0.52170   0.82310   1.000
    F37     F    0.08460   0.50270   0.89280   1.000
    C81     C    0.17660   0.47710   0.81380   1.000
    F38     F    0.17600   0.41510   0.87450   1.000
    C82     C    0.22370   0.49680   0.74160   1.000
    C83     C    0.22440   0.56110   0.67860   1.000
    F39     F    0.26980   0.58010   0.60900   1.000
    C84     C    0.17780   0.60570   0.68800   1.000
    F40     F    0.17840   0.66760   0.62730   1.000
    N3      N    0.50040   0.22230   0.11330   1.000
    C85     C    0.47530   0.28640   0.16500   1.000
    C86     C    0.50560   0.15180   0.17140   1.000
    C87     C    0.48420   0.29080   0.32800   1.000
    C88     C    0.54880   0.26260   0.18500   1.000
    C89     C    0.55690   0.24620   0.34400   1.000
    C90     C    0.55790   0.20460   0.34300   1.000
    C91     C    0.54240   0.17260   0.17900   1.000
    C92     C    0.55990   0.21570   0.18400   1.000
    C93     C    0.46550   0.16470   0.16300   1.000
    C94     C    0.37120   0.36210   0.73670   1.000
    C95     C    0.37190   0.41420   0.83630   1.000
    F41     F    0.41800   0.42190   0.93030   1.000
    C96     C    0.32460   0.45840   0.83840   1.000
    F42     F    0.32530   0.50860   0.93450   1.000
    C97     C    0.27670   0.45040   0.74090   1.000
    C98     C    0.27610   0.39830   0.64130   1.000
    F43     F    0.22990   0.39060   0.54720   1.000
    C99     C    0.32330   0.35410   0.63910   1.000
    F44     F    0.32260   0.30390   0.54310   1.000
    C100    C    0.13060   0.58540   0.75750   1.000
    C101    C    0.12470   0.51590   0.78490   1.000
    F45     F    0.07340   0.49100   0.81770   1.000
    C102    C    0.17190   0.47210   0.77830   1.000
    F46     F    0.16620   0.40500   0.80470   1.000
    C103    C    0.22510   0.49780   0.74420   1.000
    C104    C    0.23110   0.56740   0.71680   1.000
    F47     F    0.28240   0.59220   0.68400   1.000
    C105    C    0.18390   0.61120   0.72340   1.000
    F48     F    0.18960   0.67820   0.69700   1.000
    H37     H    0.48490   0.12160   0.14710   1.000
    H38     H    0.42760   0.16380   0.10990   1.000
    H39     H    0.41830   0.18810   0.33250   1.000
    H40     H    0.46300   0.12850   0.36710   1.000
    H41     H    0.58190   0.25690   0.16750   1.000
    H42     H    0.57950   0.17720   0.14360   1.000
    H43     H    0.56660   0.15700   0.36630   1.000
    H44     H    0.58710   0.23300   0.39410   1.000
    H45     H    0.43410   0.28810   0.13580   1.000
    H46     H    0.49380   0.32550   0.12480   1.000
    H47     H    0.51500   0.32320   0.35570   1.000
    H48     H    0.44870   0.30690   0.36500   1.000
    H49     H    0.54420   0.13410   0.16050   1.000
    H50     H    0.47760   0.12210   0.11970   1.000
    H51     H    0.54080   0.31110   0.17180   1.000
    H52     H    0.58450   0.25220   0.14210   1.000
    H53     H    0.58610   0.21070   0.36160   1.000
    H54     H    0.56950   0.28680   0.39640   1.000
    Cu4     Cu   0.00300   0.72219   0.89161   1.000
    O13     O    0.93990   0.79000   0.85200   1.000
    O14     O    0.93890   0.79620   0.62140   1.000
    O15     O    0.56650   0.15430   0.87470   1.000
    O16     O    0.55500   0.14940   0.64310   1.000
    C106    C    0.92170   0.81030   0.73450   1.000
    C107    C    0.57840   0.13460   0.76130   1.000
    C108    C    0.86960   0.86120   0.72530   1.000
    C109    C    0.87590   0.92220   0.80090   1.000
    F49     F    0.92740   0.93830   0.86880   1.000
    C110    C    0.82880   0.96630   0.80590   1.000
    F50     F    0.83490   0.02510   0.87870   1.000
    C111    C    0.77550   0.94960   0.73540   1.000
    C112    C    0.76920   0.88870   0.65990   1.000
    F51     F    0.71770   0.87250   0.59190   1.000
    C113    C    0.81630   0.84450   0.65480   1.000
    F52     F    0.81020   0.78580   0.58200   1.000
    C114    C    0.63070   0.08600   0.76020   1.000
    C115    C    0.63000   0.02170   0.82310   1.000
    F53     F    0.58460   0.00270   0.89280   1.000
    C116    C    0.67660   0.97710   0.81380   1.000
    F54     F    0.67600   0.91510   0.87450   1.000
    C117    C    0.72370   0.99680   0.74160   1.000
    C118    C    0.72440   0.06110   0.67860   1.000
    F55     F    0.76980   0.08010   0.60900   1.000
    C119    C    0.67780   0.10570   0.68800   1.000
    F56     F    0.67840   0.16760   0.62730   1.000
    N4      N    0.00040   0.72230   0.11330   1.000
    C120    C    0.97530   0.78640   0.16500   1.000
    C121    C    0.00560   0.65180   0.17140   1.000
    C122    C    0.98420   0.79080   0.32800   1.000
    C123    C    0.04880   0.76260   0.18500   1.000
    C124    C    0.05690   0.74620   0.34400   1.000
    C125    C    0.05790   0.70460   0.34300   1.000
    C126    C    0.04240   0.67260   0.17900   1.000
    C127    C    0.05990   0.71570   0.18400   1.000
    C128    C    0.96550   0.66470   0.16300   1.000
    C129    C    0.87120   0.86210   0.73670   1.000
    C130    C    0.87190   0.91420   0.83630   1.000
    F57     F    0.91800   0.92190   0.93030   1.000
    C131    C    0.82460   0.95840   0.83840   1.000
    F58     F    0.82530   0.00860   0.93450   1.000
    C132    C    0.77670   0.95040   0.74090   1.000
    C133    C    0.77610   0.89830   0.64130   1.000
    F59     F    0.72990   0.89060   0.54720   1.000
    C134    C    0.82330   0.85410   0.63910   1.000
    F60     F    0.82260   0.80390   0.54310   1.000
    C135    C    0.63060   0.08540   0.75750   1.000
    C136    C    0.62470   0.01590   0.78490   1.000
    F61     F    0.57340   0.99100   0.81770   1.000
    C137    C    0.67190   0.97210   0.77830   1.000
    F62     F    0.66620   0.90500   0.80470   1.000
    C138    C    0.72510   0.99780   0.74420   1.000
    C139    C    0.73110   0.06740   0.71680   1.000
    F63     F    0.78240   0.09220   0.68400   1.000
    C140    C    0.68390   0.11120   0.72340   1.000
    F64     F    0.68960   0.17820   0.69700   1.000
    H55     H    0.98490   0.62160   0.14710   1.000
    H56     H    0.92760   0.66380   0.10990   1.000
    H57     H    0.91830   0.68810   0.33250   1.000
    H58     H    0.96300   0.62850   0.36710   1.000
    H59     H    0.08190   0.75690   0.16750   1.000
    H60     H    0.07950   0.67720   0.14360   1.000
    H61     H    0.06660   0.65700   0.36630   1.000
    H62     H    0.08710   0.73300   0.39410   1.000
    H63     H    0.93410   0.78810   0.13580   1.000
    H64     H    0.99380   0.82550   0.12480   1.000
    H65     H    0.01500   0.82320   0.35570   1.000
    H66     H    0.94870   0.80690   0.36500   1.000
    H67     H    0.04420   0.63410   0.16050   1.000
    H68     H    0.97760   0.62210   0.11970   1.000
    H69     H    0.04080   0.81110   0.17180   1.000
    H70     H    0.08450   0.75220   0.14210   1.000
    H71     H    0.08610   0.71070   0.36160   1.000
    H72     H    0.06950   0.78680   0.39640   1.000
    C141    C    0.50000   0.22320   0.75000   1.000
    C142    C    0.00000   0.72320   0.75000   1.000
    Cu5     Cu   0.50300   0.77781   0.39161   1.000
    O17     O    0.43990   0.71000   0.35200   1.000
    O18     O    0.43890   0.70380   0.12140   1.000
    O19     O    0.06650   0.34570   0.37470   1.000
    O20     O    0.05500   0.35060   0.14310   1.000
    C143    C    0.42170   0.68970   0.23450   1.000
    C144    C    0.07840   0.36540   0.26130   1.000
    C145    C    0.36960   0.63880   0.22530   1.000
    C146    C    0.37590   0.57780   0.30090   1.000
    F65     F    0.42740   0.56170   0.36880   1.000
    C147    C    0.32880   0.53370   0.30590   1.000
    F66     F    0.33490   0.47490   0.37870   1.000
    C148    C    0.27550   0.55040   0.23540   1.000
    C149    C    0.26920   0.61130   0.15990   1.000
    F67     F    0.21770   0.62750   0.09190   1.000
    C150    C    0.31630   0.65550   0.15480   1.000
    F68     F    0.31020   0.71420   0.08200   1.000
    C151    C    0.13070   0.41400   0.26020   1.000
    C152    C    0.13000   0.47830   0.32310   1.000
    F69     F    0.08460   0.49730   0.39280   1.000
    C153    C    0.17660   0.52290   0.31380   1.000
    F70     F    0.17600   0.58490   0.37450   1.000
    C154    C    0.22370   0.50320   0.24160   1.000
    C155    C    0.22440   0.43890   0.17860   1.000
    F71     F    0.26980   0.41990   0.10900   1.000
    C156    C    0.17780   0.39430   0.18800   1.000
    F72     F    0.17840   0.33240   0.12730   1.000
    N5      N    0.50040   0.77770   0.61330   1.000
    C157    C    0.47530   0.71360   0.66500   1.000
    C158    C    0.50560   0.84820   0.67140   1.000
    C159    C    0.48420   0.70920   0.82800   1.000
    C160    C    0.54880   0.73740   0.68500   1.000
    C161    C    0.55690   0.75380   0.84400   1.000
    C162    C    0.55790   0.79540   0.84300   1.000
    C163    C    0.54240   0.82740   0.67900   1.000
    C164    C    0.55990   0.78430   0.68400   1.000
    C165    C    0.46550   0.83530   0.66300   1.000
    C166    C    0.37120   0.63790   0.23670   1.000
    C167    C    0.37190   0.58580   0.33630   1.000
    F73     F    0.41800   0.57810   0.43030   1.000
    C168    C    0.32460   0.54160   0.33840   1.000
    F74     F    0.32530   0.49140   0.43450   1.000
    C169    C    0.27670   0.54960   0.24090   1.000
    C170    C    0.27610   0.60170   0.14130   1.000
    F75     F    0.22990   0.60940   0.04720   1.000
    C171    C    0.32330   0.64590   0.13910   1.000
    F76     F    0.32260   0.69610   0.04310   1.000
    C172    C    0.13060   0.41460   0.25750   1.000
    C173    C    0.12470   0.48410   0.28490   1.000
    F77     F    0.07340   0.50900   0.31770   1.000
    C174    C    0.17190   0.52790   0.27830   1.000
    F78     F    0.16620   0.59500   0.30470   1.000
    C175    C    0.22510   0.50220   0.24420   1.000
    C176    C    0.23110   0.43260   0.21680   1.000
    F79     F    0.28240   0.40780   0.18400   1.000
    C177    C    0.18390   0.38880   0.22340   1.000
    F80     F    0.18960   0.32180   0.19700   1.000
    H73     H    0.48490   0.87840   0.64710   1.000
    H74     H    0.42760   0.83620   0.60990   1.000
    H75     H    0.41830   0.81190   0.83250   1.000
    H76     H    0.46300   0.87150   0.86710   1.000
    H77     H    0.58190   0.74310   0.66750   1.000
    H78     H    0.57950   0.82280   0.64360   1.000
    H79     H    0.56660   0.84300   0.86630   1.000
    H80     H    0.58710   0.76700   0.89410   1.000
    H81     H    0.43410   0.71190   0.63580   1.000
    H82     H    0.49380   0.67450   0.62480   1.000
    H83     H    0.51500   0.67680   0.85570   1.000
    H84     H    0.44870   0.69310   0.86500   1.000
    H85     H    0.54420   0.86590   0.66050   1.000
    H86     H    0.47760   0.87790   0.61970   1.000
    H87     H    0.54080   0.68890   0.67180   1.000
    H88     H    0.58450   0.74780   0.64210   1.000
    H89     H    0.58610   0.78930   0.86160   1.000
    H90     H    0.56950   0.71320   0.89640   1.000
    Cu6     Cu   0.00300   0.27781   0.39161   1.000
    O21     O    0.93990   0.21000   0.35200   1.000
    O22     O    0.93890   0.20380   0.12140   1.000
    O23     O    0.56650   0.84570   0.37470   1.000
    O24     O    0.55500   0.85060   0.14310   1.000
    C178    C    0.92170   0.18970   0.23450   1.000
    C179    C    0.57840   0.86540   0.26130   1.000
    C180    C    0.86960   0.13880   0.22530   1.000
    C181    C    0.87590   0.07780   0.30090   1.000
    F81     F    0.92740   0.06170   0.36880   1.000
    C182    C    0.82880   0.03370   0.30590   1.000
    F82     F    0.83490   0.97490   0.37870   1.000
    C183    C    0.77550   0.05040   0.23540   1.000
    C184    C    0.76920   0.11130   0.15990   1.000
    F83     F    0.71770   0.12750   0.09190   1.000
    C185    C    0.81630   0.15550   0.15480   1.000
    F84     F    0.81020   0.21420   0.08200   1.000
    C186    C    0.63070   0.91400   0.26020   1.000
    C187    C    0.63000   0.97830   0.32310   1.000
    F85     F    0.58460   0.99730   0.39280   1.000
    C188    C    0.67660   0.02290   0.31380   1.000
    F86     F    0.67600   0.08490   0.37450   1.000
    C189    C    0.72370   0.00320   0.24160   1.000
    C190    C    0.72440   0.93890   0.17860   1.000
    F87     F    0.76980   0.91990   0.10900   1.000
    C191    C    0.67780   0.89430   0.18800   1.000
    F88     F    0.67840   0.83240   0.12730   1.000
    N6      N    0.00040   0.27770   0.61330   1.000
    C192    C    0.97530   0.21360   0.66500   1.000
    C193    C    0.00560   0.34820   0.67140   1.000
    C194    C    0.98420   0.20920   0.82800   1.000
    C195    C    0.04880   0.23740   0.68500   1.000
    C196    C    0.05690   0.25380   0.84400   1.000
    C197    C    0.05790   0.29540   0.84300   1.000
    C198    C    0.04240   0.32740   0.67900   1.000
    C199    C    0.05990   0.28430   0.68400   1.000
    C200    C    0.96550   0.33530   0.66300   1.000
    C201    C    0.87120   0.13790   0.23670   1.000
    C202    C    0.87190   0.08580   0.33630   1.000
    F89     F    0.91800   0.07810   0.43030   1.000
    C203    C    0.82460   0.04160   0.33840   1.000
    F90     F    0.82530   0.99140   0.43450   1.000
    C204    C    0.77670   0.04960   0.24090   1.000
    C205    C    0.77610   0.10170   0.14130   1.000
    F91     F    0.72990   0.10940   0.04720   1.000
    C206    C    0.82330   0.14590   0.13910   1.000
    F92     F    0.82260   0.19610   0.04310   1.000
    C207    C    0.63060   0.91460   0.25750   1.000
    C208    C    0.62470   0.98410   0.28490   1.000
    F93     F    0.57340   0.00900   0.31770   1.000
    C209    C    0.67190   0.02790   0.27830   1.000
    F94     F    0.66620   0.09500   0.30470   1.000
    C210    C    0.72510   0.00220   0.24420   1.000
    C211    C    0.73110   0.93260   0.21680   1.000
    F95     F    0.78240   0.90780   0.18400   1.000
    C212    C    0.68390   0.88880   0.22340   1.000
    F96     F    0.68960   0.82180   0.19700   1.000
    H91     H    0.98490   0.37840   0.64710   1.000
    H92     H    0.92760   0.33620   0.60990   1.000
    H93     H    0.91830   0.31190   0.83250   1.000
    H94     H    0.96300   0.37150   0.86710   1.000
    H95     H    0.08190   0.24310   0.66750   1.000
    H96     H    0.07950   0.32280   0.64360   1.000
    H97     H    0.06660   0.34300   0.86630   1.000
    H98     H    0.08710   0.26700   0.89410   1.000
    H99     H    0.93410   0.21190   0.63580   1.000
    H100    H    0.99380   0.17450   0.62480   1.000
    H101    H    0.01500   0.17680   0.85570   1.000
    H102    H    0.94870   0.19310   0.86500   1.000
    H103    H    0.04420   0.36590   0.66050   1.000
    H104    H    0.97760   0.37790   0.61970   1.000
    H105    H    0.04080   0.18890   0.67180   1.000
    H106    H    0.08450   0.24780   0.64210   1.000
    H107    H    0.08610   0.28930   0.86160   1.000
    H108    H    0.06950   0.21320   0.89640   1.000
    Cu7     Cu   0.49700   0.77781   0.10839   1.000
    O25     O    0.56010   0.71000   0.14800   1.000
    O26     O    0.56110   0.70380   0.37860   1.000
    O27     O    0.93350   0.34570   0.12530   1.000
    O28     O    0.94500   0.35060   0.35690   1.000
    C213    C    0.57830   0.68970   0.26550   1.000
    C214    C    0.92160   0.36540   0.23870   1.000
    C215    C    0.63040   0.63880   0.27470   1.000
    C216    C    0.62410   0.57780   0.19910   1.000
    F97     F    0.57260   0.56170   0.13120   1.000
    C217    C    0.67120   0.53370   0.19410   1.000
    F98     F    0.66510   0.47490   0.12130   1.000
    C218    C    0.72450   0.55040   0.26460   1.000
    C219    C    0.73080   0.61130   0.34010   1.000
    F99     F    0.78230   0.62750   0.40810   1.000
    C220    C    0.68370   0.65550   0.34520   1.000
    F100    F    0.68980   0.71420   0.41800   1.000
    C221    C    0.86930   0.41400   0.23980   1.000
    C222    C    0.87000   0.47830   0.17690   1.000
    F101    F    0.91540   0.49730   0.10720   1.000
    C223    C    0.82340   0.52290   0.18620   1.000
    F102    F    0.82400   0.58490   0.12550   1.000
    C224    C    0.77630   0.50320   0.25840   1.000
    C225    C    0.77560   0.43890   0.32140   1.000
    F103    F    0.73020   0.41990   0.39100   1.000
    C226    C    0.82220   0.39430   0.31200   1.000
    F104    F    0.82160   0.33240   0.37270   1.000
    N7      N    0.49960   0.77770   0.88670   1.000
    C227    C    0.52470   0.71360   0.83500   1.000
    C228    C    0.49440   0.84820   0.82860   1.000
    C229    C    0.51580   0.70920   0.67200   1.000
    C230    C    0.45120   0.73740   0.81500   1.000
    C231    C    0.44310   0.75380   0.65600   1.000
    C232    C    0.44210   0.79540   0.65700   1.000
    C233    C    0.45760   0.82740   0.82100   1.000
    C234    C    0.44010   0.78430   0.81600   1.000
    C235    C    0.53450   0.83530   0.83700   1.000
    C236    C    0.62880   0.63790   0.26330   1.000
    C237    C    0.62810   0.58580   0.16370   1.000
    F105    F    0.58200   0.57810   0.06970   1.000
    C238    C    0.67540   0.54160   0.16160   1.000
    F106    F    0.67470   0.49140   0.06550   1.000
    C239    C    0.72330   0.54960   0.25910   1.000
    C240    C    0.72390   0.60170   0.35870   1.000
    F107    F    0.77010   0.60940   0.45280   1.000
    C241    C    0.67670   0.64590   0.36090   1.000
    F108    F    0.67740   0.69610   0.45690   1.000
    C242    C    0.86940   0.41460   0.24250   1.000
    C243    C    0.87530   0.48410   0.21510   1.000
    F109    F    0.92660   0.50900   0.18230   1.000
    C244    C    0.82810   0.52790   0.22170   1.000
    F110    F    0.83380   0.59500   0.19530   1.000
    C245    C    0.77490   0.50220   0.25580   1.000
    C246    C    0.76890   0.43260   0.28320   1.000
    F111    F    0.71760   0.40780   0.31600   1.000
    C247    C    0.81610   0.38880   0.27660   1.000
    F112    F    0.81040   0.32180   0.30300   1.000
    H109    H    0.51510   0.87840   0.85290   1.000
    H110    H    0.57240   0.83620   0.89010   1.000
    H111    H    0.58170   0.81190   0.66750   1.000
    H112    H    0.53700   0.87150   0.63290   1.000
    H113    H    0.41810   0.74310   0.83250   1.000
    H114    H    0.42050   0.82280   0.85640   1.000
    H115    H    0.43340   0.84300   0.63370   1.000
    H116    H    0.41290   0.76700   0.60590   1.000
    H117    H    0.56590   0.71190   0.86420   1.000
    H118    H    0.50620   0.67450   0.87520   1.000
    H119    H    0.48500   0.67680   0.64430   1.000
    H120    H    0.55130   0.69310   0.63500   1.000
    H121    H    0.45580   0.86590   0.83950   1.000
    H122    H    0.52240   0.87790   0.88030   1.000
    H123    H    0.45920   0.68890   0.82820   1.000
    H124    H    0.41550   0.74780   0.85790   1.000
    H125    H    0.41390   0.78930   0.63840   1.000
    H126    H    0.43050   0.71320   0.60360   1.000
    Cu8     Cu   0.99700   0.27781   0.10839   1.000
    O29     O    0.06010   0.21000   0.14800   1.000
    O30     O    0.06110   0.20380   0.37860   1.000
    O31     O    0.43350   0.84570   0.12530   1.000
    O32     O    0.44500   0.85060   0.35690   1.000
    C248    C    0.07830   0.18970   0.26550   1.000
    C249    C    0.42160   0.86540   0.23870   1.000
    C250    C    0.13040   0.13880   0.27470   1.000
    C251    C    0.12410   0.07780   0.19910   1.000
    F113    F    0.07260   0.06170   0.13120   1.000
    C252    C    0.17120   0.03370   0.19410   1.000
    F114    F    0.16510   0.97490   0.12130   1.000
    C253    C    0.22450   0.05040   0.26460   1.000
    C254    C    0.23080   0.11130   0.34010   1.000
    F115    F    0.28230   0.12750   0.40810   1.000
    C255    C    0.18370   0.15550   0.34520   1.000
    F116    F    0.18980   0.21420   0.41800   1.000
    C256    C    0.36930   0.91400   0.23980   1.000
    C257    C    0.37000   0.97830   0.17690   1.000
    F117    F    0.41540   0.99730   0.10720   1.000
    C258    C    0.32340   0.02290   0.18620   1.000
    F118    F    0.32400   0.08490   0.12550   1.000
    C259    C    0.27630   0.00320   0.25840   1.000
    C260    C    0.27560   0.93890   0.32140   1.000
    F119    F    0.23020   0.91990   0.39100   1.000
    C261    C    0.32220   0.89430   0.31200   1.000
    F120    F    0.32160   0.83240   0.37270   1.000
    N8      N    0.99960   0.27770   0.88670   1.000
    C262    C    0.02470   0.21360   0.83500   1.000
    C263    C    0.99440   0.34820   0.82860   1.000
    C264    C    0.01580   0.20920   0.67200   1.000
    C265    C    0.95120   0.23740   0.81500   1.000
    C266    C    0.94310   0.25380   0.65600   1.000
    C267    C    0.94210   0.29540   0.65700   1.000
    C268    C    0.95760   0.32740   0.82100   1.000
    C269    C    0.94010   0.28430   0.81600   1.000
    C270    C    0.03450   0.33530   0.83700   1.000
    C271    C    0.12880   0.13790   0.26330   1.000
    C272    C    0.12810   0.08580   0.16370   1.000
    F121    F    0.08200   0.07810   0.06970   1.000
    C273    C    0.17540   0.04160   0.16160   1.000
    F122    F    0.17470   0.99140   0.06550   1.000
    C274    C    0.22330   0.04960   0.25910   1.000
    C275    C    0.22390   0.10170   0.35870   1.000
    F123    F    0.27010   0.10940   0.45280   1.000
    C276    C    0.17670   0.14590   0.36090   1.000
    F124    F    0.17740   0.19610   0.45690   1.000
    C277    C    0.36940   0.91460   0.24250   1.000
    C278    C    0.37530   0.98410   0.21510   1.000
    F125    F    0.42660   0.00900   0.18230   1.000
    C279    C    0.32810   0.02790   0.22170   1.000
    F126    F    0.33380   0.09500   0.19530   1.000
    C280    C    0.27490   0.00220   0.25580   1.000
    C281    C    0.26890   0.93260   0.28320   1.000
    F127    F    0.21760   0.90780   0.31600   1.000
    C282    C    0.31610   0.88880   0.27660   1.000
    F128    F    0.31040   0.82180   0.30300   1.000
    H127    H    0.01510   0.37840   0.85290   1.000
    H128    H    0.07240   0.33620   0.89010   1.000
    H129    H    0.08170   0.31190   0.66750   1.000
    H130    H    0.03700   0.37150   0.63290   1.000
    H131    H    0.91810   0.24310   0.83250   1.000
    H132    H    0.92050   0.32280   0.85640   1.000
    H133    H    0.93340   0.34300   0.63370   1.000
    H134    H    0.91290   0.26700   0.60590   1.000
    H135    H    0.06590   0.21190   0.86420   1.000
    H136    H    0.00620   0.17450   0.87520   1.000
    H137    H    0.98500   0.17680   0.64430   1.000
    H138    H    0.05130   0.19310   0.63500   1.000
    H139    H    0.95580   0.36590   0.83950   1.000
    H140    H    0.02240   0.37790   0.88030   1.000
    H141    H    0.95920   0.18890   0.82820   1.000
    H142    H    0.91550   0.24780   0.85790   1.000
    H143    H    0.91390   0.28930   0.63840   1.000
    H144    H    0.93050   0.21320   0.60360   1.000
    C283    C    0.50000   0.77680   0.25000   1.000
    C284    C    0.00000   0.27680   0.25000   1.000
