# CIF file generated by openbabel 2.4.1, see http://openbabel.sf.net
data_I
_chemical_name_common 'image0'
_cell_length_a 17.144
_cell_length_b 17.144
_cell_length_c 14.514
_cell_angle_alpha 90
_cell_angle_beta 90
_cell_angle_gamma 120
_space_group_name_H-M_alt 'P 1'
_space_group_name_Hall 'P 1'
loop_
    _symmetry_equiv_pos_as_xyz
    x,y,z
loop_
    _atom_site_label
    _atom_site_type_symbol
    _atom_site_fract_x
    _atom_site_fract_y
    _atom_site_fract_z
    _atom_site_occupancy
    O1      O    0.34664   0.52532   0.65180   1.000
    C1      C    0.41310   0.44910   0.52980   1.000
    H1      H    0.35390   0.41410   0.54970   1.000
    C2      C    0.23150   0.33690   0.77490   1.000
    H2      H    0.29080   0.36710   0.79560   1.000
    C3      C    0.18400   0.24150   0.77020   1.000
    H3      H    0.21500   0.21090   0.78180   1.000
    O2      O    0.47468   0.82132   0.65180   1.000
    C4      C    0.55090   0.96400   0.52980   1.000
    H4      H    0.58590   0.93980   0.54970   1.000
    C5      C    0.66310   0.89460   0.77490   1.000
    H5      H    0.63290   0.92370   0.79560   1.000
    C6      C    0.75850   0.94250   0.77020   1.000
    H6      H    0.78910   0.00410   0.78180   1.000
    O3      O    0.17868   0.65336   0.65180   1.000
    C7      C    0.03600   0.58690   0.52980   1.000
    H7      H    0.06020   0.64610   0.54970   1.000
    C8      C    0.10540   0.76850   0.77490   1.000
    H8      H    0.07630   0.70920   0.79560   1.000
    C9      C    0.05750   0.81600   0.77020   1.000
    H9      H    0.99590   0.78500   0.78180   1.000
    O4      O    0.65336   0.47468   0.15180   1.000
    C10     C    0.58690   0.55090   0.02980   1.000
    H10     H    0.64610   0.58590   0.04970   1.000
    C11     C    0.76850   0.66310   0.27490   1.000
    H11     H    0.70920   0.63290   0.29560   1.000
    C12     C    0.81600   0.75850   0.27020   1.000
    H12     H    0.78500   0.78910   0.28180   1.000
    O5      O    0.52532   0.17868   0.15180   1.000
    C13     C    0.44910   0.03600   0.02980   1.000
    H13     H    0.41410   0.06020   0.04970   1.000
    C14     C    0.33690   0.10540   0.27490   1.000
    H14     H    0.36710   0.07630   0.29560   1.000
    C15     C    0.24150   0.05750   0.27020   1.000
    H15     H    0.21090   0.99590   0.28180   1.000
    O6      O    0.82132   0.34664   0.15180   1.000
    C16     C    0.96400   0.41310   0.02980   1.000
    H16     H    0.93980   0.35390   0.04970   1.000
    C17     C    0.89460   0.23150   0.27490   1.000
    H17     H    0.92370   0.29080   0.29560   1.000
    C18     C    0.94250   0.18400   0.27020   1.000
    H18     H    0.00410   0.21500   0.28180   1.000
    O7      O    0.52532   0.34664   0.34820   1.000
    C19     C    0.44910   0.41310   0.47020   1.000
    H19     H    0.41410   0.35390   0.45030   1.000
    C20     C    0.33690   0.23150   0.22510   1.000
    H20     H    0.36710   0.29080   0.20440   1.000
    C21     C    0.24150   0.18400   0.22980   1.000
    H21     H    0.21090   0.21500   0.21820   1.000
    O8      O    0.82132   0.47468   0.34820   1.000
    C22     C    0.96400   0.55090   0.47020   1.000
    H22     H    0.93980   0.58590   0.45030   1.000
    C23     C    0.89460   0.66310   0.22510   1.000
    H23     H    0.92370   0.63290   0.20440   1.000
    C24     C    0.94250   0.75850   0.22980   1.000
    H24     H    0.00410   0.78910   0.21820   1.000
    O9      O    0.65336   0.17868   0.34820   1.000
    C25     C    0.58690   0.03600   0.47020   1.000
    H25     H    0.64610   0.06020   0.45030   1.000
    C26     C    0.76850   0.10540   0.22510   1.000
    H26     H    0.70920   0.07630   0.20440   1.000
    C27     C    0.81600   0.05750   0.22980   1.000
    H27     H    0.78500   0.99590   0.21820   1.000
    O10     O    0.47468   0.65336   0.84820   1.000
    C28     C    0.55090   0.58690   0.97020   1.000
    H28     H    0.58590   0.64610   0.95030   1.000
    C29     C    0.66310   0.76850   0.72510   1.000
    H29     H    0.63290   0.70920   0.70440   1.000
    C30     C    0.75850   0.81600   0.72980   1.000
    H30     H    0.78910   0.78500   0.71820   1.000
    O11     O    0.17868   0.52532   0.84820   1.000
    C31     C    0.03600   0.44910   0.97020   1.000
    H31     H    0.06020   0.41410   0.95030   1.000
    C32     C    0.10540   0.33690   0.72510   1.000
    H32     H    0.07630   0.36710   0.70440   1.000
    C33     C    0.05750   0.24150   0.72980   1.000
    H33     H    0.99590   0.21090   0.71820   1.000
    O12     O    0.34664   0.82132   0.84820   1.000
    C34     C    0.41310   0.96400   0.97020   1.000
    H34     H    0.35390   0.93980   0.95030   1.000
    C35     C    0.23150   0.89460   0.72510   1.000
    H35     H    0.29080   0.92370   0.70440   1.000
    C36     C    0.18400   0.94250   0.72980   1.000
    H36     H    0.21500   0.00410   0.71820   1.000
    O13     O    0.65336   0.47468   0.34820   1.000
    C37     C    0.58690   0.55090   0.47020   1.000
    H37     H    0.64610   0.58590   0.45030   1.000
    C38     C    0.76850   0.66310   0.22510   1.000
    H38     H    0.70920   0.63290   0.20440   1.000
    C39     C    0.81600   0.75850   0.22980   1.000
    H39     H    0.78500   0.78910   0.21820   1.000
    O14     O    0.52532   0.17868   0.34820   1.000
    C40     C    0.44910   0.03600   0.47020   1.000
    H40     H    0.41410   0.06020   0.45030   1.000
    C41     C    0.33690   0.10540   0.22510   1.000
    H41     H    0.36710   0.07630   0.20440   1.000
    C42     C    0.24150   0.05750   0.22980   1.000
    H42     H    0.21090   0.99590   0.21820   1.000
    O15     O    0.82132   0.34664   0.34820   1.000
    C43     C    0.96400   0.41310   0.47020   1.000
    H43     H    0.93980   0.35390   0.45030   1.000
    C44     C    0.89460   0.23150   0.22510   1.000
    H44     H    0.92370   0.29080   0.20440   1.000
    C45     C    0.94250   0.18400   0.22980   1.000
    H45     H    0.00410   0.21500   0.21820   1.000
    O16     O    0.34664   0.52532   0.84820   1.000
    C46     C    0.41310   0.44910   0.97020   1.000
    H46     H    0.35390   0.41410   0.95030   1.000
    C47     C    0.23150   0.33690   0.72510   1.000
    H47     H    0.29080   0.36710   0.70440   1.000
    C48     C    0.18400   0.24150   0.72980   1.000
    H48     H    0.21500   0.21090   0.71820   1.000
    O17     O    0.47468   0.82132   0.84820   1.000
    C49     C    0.55090   0.96400   0.97020   1.000
    H49     H    0.58590   0.93980   0.95030   1.000
    C50     C    0.66310   0.89460   0.72510   1.000
    H50     H    0.63290   0.92370   0.70440   1.000
    C51     C    0.75850   0.94250   0.72980   1.000
    H51     H    0.78910   0.00410   0.71820   1.000
    O18     O    0.17868   0.65336   0.84820   1.000
    C52     C    0.03600   0.58690   0.97020   1.000
    H52     H    0.06020   0.64610   0.95030   1.000
    C53     C    0.10540   0.76850   0.72510   1.000
    H53     H    0.07630   0.70920   0.70440   1.000
    C54     C    0.05750   0.81600   0.72980   1.000
    H54     H    0.99590   0.78500   0.71820   1.000
    O19     O    0.47468   0.65336   0.65180   1.000
    C55     C    0.55090   0.58690   0.52980   1.000
    H55     H    0.58590   0.64610   0.54970   1.000
    C56     C    0.66310   0.76850   0.77490   1.000
    H56     H    0.63290   0.70920   0.79560   1.000
    C57     C    0.75850   0.81600   0.77020   1.000
    H57     H    0.78910   0.78500   0.78180   1.000
    O20     O    0.17868   0.52532   0.65180   1.000
    C58     C    0.03600   0.44910   0.52980   1.000
    H58     H    0.06020   0.41410   0.54970   1.000
    C59     C    0.10540   0.33690   0.77490   1.000
    H59     H    0.07630   0.36710   0.79560   1.000
    C60     C    0.05750   0.24150   0.77020   1.000
    H60     H    0.99590   0.21090   0.78180   1.000
    O21     O    0.34664   0.82132   0.65180   1.000
    C61     C    0.41310   0.96400   0.52980   1.000
    H61     H    0.35390   0.93980   0.54970   1.000
    C62     C    0.23150   0.89460   0.77490   1.000
    H62     H    0.29080   0.92370   0.79560   1.000
    C63     C    0.18400   0.94250   0.77020   1.000
    H63     H    0.21500   0.00410   0.78180   1.000
    O22     O    0.52532   0.34664   0.15180   1.000
    C64     C    0.44910   0.41310   0.02980   1.000
    H64     H    0.41410   0.35390   0.04970   1.000
    C65     C    0.33690   0.23150   0.27490   1.000
    H65     H    0.36710   0.29080   0.29560   1.000
    C66     C    0.24150   0.18400   0.27020   1.000
    H66     H    0.21090   0.21500   0.28180   1.000
    O23     O    0.82132   0.47468   0.15180   1.000
    C67     C    0.96400   0.55090   0.02980   1.000
    H67     H    0.93980   0.58590   0.04970   1.000
    C68     C    0.89460   0.66310   0.27490   1.000
    H68     H    0.92370   0.63290   0.29560   1.000
    C69     C    0.94250   0.75850   0.27020   1.000
    H69     H    0.00410   0.78910   0.28180   1.000
    O24     O    0.65336   0.17868   0.15180   1.000
    C70     C    0.58690   0.03600   0.02980   1.000
    H70     H    0.64610   0.06020   0.04970   1.000
    C71     C    0.76850   0.10540   0.27490   1.000
    H71     H    0.70920   0.07630   0.29560   1.000
    C72     C    0.81600   0.05750   0.27020   1.000
    H72     H    0.78500   0.99590   0.28180   1.000
    Fe1     Fe   0.26445   0.52891   0.75000   1.000
    N1      N    0.19200   0.38400   0.75000   1.000
    C73     C    0.09725   0.19450   0.75000   1.000
    C74     C    0.04735   0.09470   0.75000   1.000
    Fe2     Fe   0.47109   0.73555   0.75000   1.000
    N2      N    0.61600   0.80800   0.75000   1.000
    C75     C    0.80550   0.90275   0.75000   1.000
    C76     C    0.90530   0.95265   0.75000   1.000
    Fe3     Fe   0.26445   0.73555   0.75000   1.000
    N3      N    0.19200   0.80800   0.75000   1.000
    C77     C    0.09725   0.90275   0.75000   1.000
    C78     C    0.04735   0.95265   0.75000   1.000
    Fe4     Fe   0.73555   0.47109   0.25000   1.000
    N4      N    0.80800   0.61600   0.25000   1.000
    C79     C    0.90275   0.80550   0.25000   1.000
    C80     C    0.95265   0.90530   0.25000   1.000
    Fe5     Fe   0.52891   0.26445   0.25000   1.000
    N5      N    0.38400   0.19200   0.25000   1.000
    C81     C    0.19450   0.09725   0.25000   1.000
    C82     C    0.09470   0.04735   0.25000   1.000
    Fe6     Fe   0.73555   0.26445   0.25000   1.000
    N6      N    0.80800   0.19200   0.25000   1.000
    C83     C    0.90275   0.09725   0.25000   1.000
    C84     C    0.95265   0.04735   0.25000   1.000
    O25     O    0.33333   0.66667   0.75000   1.000
    O26     O    0.66667   0.33333   0.25000   1.000
    C85     C    0.42527   0.57473   0.62620   1.000
    C86     C    0.46380   0.53620   0.56000   1.000
    C87     C    0.42527   0.85054   0.62620   1.000
    C88     C    0.46380   0.92760   0.56000   1.000
    C89     C    0.14946   0.57473   0.62620   1.000
    C90     C    0.07240   0.53620   0.56000   1.000
    C91     C    0.57473   0.42527   0.12620   1.000
    C92     C    0.53620   0.46380   0.06000   1.000
    C93     C    0.57473   0.14946   0.12620   1.000
    C94     C    0.53620   0.07240   0.06000   1.000
    C95     C    0.85054   0.42527   0.12620   1.000
    C96     C    0.92760   0.46380   0.06000   1.000
    C97     C    0.57473   0.42527   0.37380   1.000
    C98     C    0.53620   0.46380   0.44000   1.000
    C99     C    0.85054   0.42527   0.37380   1.000
    C100    C    0.92760   0.46380   0.44000   1.000
    C101    C    0.57473   0.14946   0.37380   1.000
    C102    C    0.53620   0.07240   0.44000   1.000
    C103    C    0.42527   0.57473   0.87380   1.000
    C104    C    0.46380   0.53620   0.94000   1.000
    C105    C    0.14946   0.57473   0.87380   1.000
    C106    C    0.07240   0.53620   0.94000   1.000
    C107    C    0.42527   0.85054   0.87380   1.000
    C108    C    0.46380   0.92760   0.94000   1.000
    C109    C    0.09370   0.04685   0.75000   1.000
    H73     H    0.15630   0.07815   0.75000   1.000
    C110    C    0.95315   0.04685   0.75000   1.000
    H74     H    0.92185   0.07815   0.75000   1.000
    C111    C    0.95315   0.90630   0.75000   1.000
    H75     H    0.92185   0.84370   0.75000   1.000
    C112    C    0.90630   0.95315   0.25000   1.000
    H76     H    0.84370   0.92185   0.25000   1.000
    C113    C    0.04685   0.95315   0.25000   1.000
    H77     H    0.07815   0.92185   0.25000   1.000
    C114    C    0.04685   0.09370   0.25000   1.000
    H78     H    0.07815   0.15630   0.25000   1.000
