# CIF file generated by openbabel 2.4.1, see http://openbabel.sf.net
data_I
_chemical_name_common 'image0'
_cell_length_a 8.0107
_cell_length_b 20.461
_cell_length_c 8.6435
_cell_angle_alpha 90
_cell_angle_beta 90.643
_cell_angle_gamma 90
_space_group_name_H-M_alt 'P 1'
_space_group_name_Hall 'P 1'
loop_
    _symmetry_equiv_pos_as_xyz
    x,y,z
loop_
    _atom_site_label
    _atom_site_type_symbol
    _atom_site_fract_x
    _atom_site_fract_y
    _atom_site_fract_z
    _atom_site_occupancy
    N1      N    0.37360   0.07490   0.09300   1.000
    N2      N    0.20050   0.07854   0.09480   1.000
    N3      N    0.30950   0.16830   0.18930   1.000
    N4      N    0.34220   0.23176   0.24310   1.000
    N5      N    0.17400   0.42163   0.37760   1.000
    N6      N    0.34710   0.41474   0.39640   1.000
    N7      N    0.24220   0.32501   0.29800   1.000
    N8      N    0.21010   0.26208   0.24490   1.000
    C1      C    0.43610   0.12831   0.15110   1.000
    H1      H    0.55160   0.13760   0.16440   1.000
    C2      C    0.16480   0.13576   0.15200   1.000
    H2      H    0.05520   0.15240   0.16580   1.000
    C3      C    0.11590   0.36800   0.31810   1.000
    H3      H    0.00200   0.36010   0.29240   1.000
    C4      C    0.38440   0.35637   0.34810   1.000
    H4      H    0.49350   0.33820   0.34760   1.000
    C5      C    0.18440   0.99982   0.79080   1.000
    H5      H    0.10280   0.00360   0.86920   1.000
    N9      N    0.34570   0.99987   0.81190   1.000
    N10     N    0.42220   0.99420   0.66860   1.000
    C6      C    0.30370   0.99190   0.56470   1.000
    H6      H    0.31970   0.98960   0.45610   1.000
    N11     N    0.15330   0.99340   0.63570   1.000
    N12     N    0.99460   0.99860   0.57170   1.000
    H7      H    0.10290   0.99560   0.86910   1.000
    N13     N    0.42220   0.00560   0.66850   1.000
    C7      C    0.30360   0.00800   0.56480   1.000
    H8      H    0.31960   0.01030   0.45620   1.000
    N14     N    0.15320   0.00690   0.63590   1.000
    N15     N    0.99440   0.00180   0.57190   1.000
    N16     N    0.62640   0.92510   0.90700   1.000
    N17     N    0.79950   0.92146   0.90520   1.000
    N18     N    0.69050   0.83170   0.81070   1.000
    N19     N    0.65780   0.76824   0.75690   1.000
    N20     N    0.82600   0.57837   0.62240   1.000
    N21     N    0.65290   0.58526   0.60360   1.000
    N22     N    0.75780   0.67499   0.70200   1.000
    N23     N    0.78990   0.73792   0.75510   1.000
    C8      C    0.56390   0.87169   0.84890   1.000
    H9      H    0.44840   0.86240   0.83560   1.000
    C9      C    0.83520   0.86424   0.84800   1.000
    H10     H    0.94480   0.84760   0.83420   1.000
    C10     C    0.88410   0.63200   0.68190   1.000
    H11     H    0.99800   0.63990   0.70760   1.000
    C11     C    0.61560   0.64363   0.65190   1.000
    H12     H    0.50650   0.66180   0.65240   1.000
    C12     C    0.81560   0.00018   0.20920   1.000
    H13     H    0.89720   0.99640   0.13080   1.000
    N24     N    0.65430   0.00013   0.18810   1.000
    N25     N    0.57780   0.00580   0.33140   1.000
    C13     C    0.69630   0.00810   0.43530   1.000
    H14     H    0.68030   0.01040   0.54390   1.000
    N26     N    0.84670   0.00660   0.36430   1.000
    N27     N    0.00540   0.00140   0.42830   1.000
    H15     H    0.89710   0.00440   0.13090   1.000
    N28     N    0.57780   0.99440   0.33150   1.000
    C14     C    0.69640   0.99200   0.43520   1.000
    H16     H    0.68040   0.98970   0.54380   1.000
    N29     N    0.84680   0.99310   0.36410   1.000
    N30     N    0.00560   0.99820   0.42810   1.000
    Cu1     Cu   0.50000   0.00000   0.00000   1.000
    N31     N    0.12640   0.57490   0.40700   1.000
    N32     N    0.29950   0.57854   0.40520   1.000
    N33     N    0.19050   0.66830   0.31070   1.000
    N34     N    0.15780   0.73176   0.25690   1.000
    N35     N    0.32600   0.92163   0.12240   1.000
    N36     N    0.15290   0.91474   0.10360   1.000
    N37     N    0.25780   0.82501   0.20200   1.000
    N38     N    0.28990   0.76208   0.25510   1.000
    C15     C    0.06390   0.62831   0.34890   1.000
    H17     H    0.94840   0.63760   0.33560   1.000
    C16     C    0.33520   0.63576   0.34800   1.000
    H18     H    0.44480   0.65240   0.33420   1.000
    C17     C    0.38410   0.86800   0.18190   1.000
    H19     H    0.49800   0.86010   0.20760   1.000
    C18     C    0.11560   0.85637   0.15190   1.000
    H20     H    0.00650   0.83820   0.15240   1.000
    C19     C    0.31560   0.49982   0.70920   1.000
    H21     H    0.39720   0.50360   0.63080   1.000
    N39     N    0.15430   0.49987   0.68810   1.000
    N40     N    0.07780   0.49420   0.83140   1.000
    C20     C    0.19630   0.49190   0.93530   1.000
    H22     H    0.18030   0.48960   0.04390   1.000
    N41     N    0.34670   0.49340   0.86430   1.000
    N42     N    0.50540   0.49860   0.92830   1.000
    H23     H    0.39710   0.49560   0.63090   1.000
    N43     N    0.07780   0.50560   0.83150   1.000
    C21     C    0.19640   0.50800   0.93520   1.000
    H24     H    0.18040   0.51030   0.04380   1.000
    N44     N    0.34680   0.50690   0.86410   1.000
    N45     N    0.50560   0.50180   0.92810   1.000
    N46     N    0.87360   0.42510   0.59300   1.000
    N47     N    0.70050   0.42146   0.59480   1.000
    N48     N    0.80950   0.33170   0.68930   1.000
    N49     N    0.84220   0.26824   0.74310   1.000
    N50     N    0.67400   0.07837   0.87760   1.000
    N51     N    0.84710   0.08526   0.89640   1.000
    N52     N    0.74220   0.17499   0.79800   1.000
    N53     N    0.71010   0.23792   0.74490   1.000
    C22     C    0.93610   0.37169   0.65110   1.000
    H25     H    0.05160   0.36240   0.66440   1.000
    C23     C    0.66480   0.36424   0.65200   1.000
    H26     H    0.55520   0.34760   0.66580   1.000
    C24     C    0.61590   0.13200   0.81810   1.000
    H27     H    0.50200   0.13990   0.79240   1.000
    C25     C    0.88440   0.14363   0.84810   1.000
    H28     H    0.99350   0.16180   0.84760   1.000
    C26     C    0.68440   0.50018   0.29080   1.000
    H29     H    0.60280   0.49640   0.36920   1.000
    N54     N    0.84570   0.50013   0.31190   1.000
    N55     N    0.92220   0.50580   0.16860   1.000
    C27     C    0.80370   0.50810   0.06470   1.000
    H30     H    0.81970   0.51040   0.95610   1.000
    N56     N    0.65330   0.50660   0.13570   1.000
    N57     N    0.49460   0.50140   0.07170   1.000
    H31     H    0.60290   0.50440   0.36910   1.000
    N58     N    0.92220   0.49440   0.16850   1.000
    C28     C    0.80360   0.49200   0.06480   1.000
    H32     H    0.81960   0.48970   0.95620   1.000
    N59     N    0.65320   0.49310   0.13590   1.000
    N60     N    0.49440   0.49820   0.07190   1.000
    Cu2     Cu   0.00000   0.50000   0.50000   1.000
