# CIF file generated by openbabel 2.4.1, see http://openbabel.sf.net
data_I
_chemical_name_common 'image0'
_cell_length_a 28.896
_cell_length_b 8.6749
_cell_length_c 14.2513
_cell_angle_alpha 90
_cell_angle_beta 116.056
_cell_angle_gamma 90
_space_group_name_H-M_alt 'P 1'
_space_group_name_Hall 'P 1'
loop_
    _symmetry_equiv_pos_as_xyz
    x,y,z
loop_
    _atom_site_label
    _atom_site_type_symbol
    _atom_site_fract_x
    _atom_site_fract_y
    _atom_site_fract_z
    _atom_site_occupancy
    C1      C    0.83560   0.76970   0.66520   1.000
    C2      C    0.88450   0.76910   0.76480   1.000
    C3      C    0.90710   0.63210   0.80840   1.000
    H1      H    0.89170   0.53740   0.77630   1.000
    C4      C    0.95300   0.63200   0.90040   1.000
    H2      H    0.96870   0.53640   0.92970   1.000
    C5      C    0.97640   0.76930   0.95060   1.000
    C6      C    0.95290   0.90450   0.90180   1.000
    H3      H    0.96870   0.00030   0.93050   1.000
    C7      C    0.90680   0.90360   0.81200   1.000
    H4      H    0.89050   0.99860   0.78280   1.000
    C8      C    0.78440   0.41900   0.36170   1.000
    C9      C    0.79180   0.41800   0.26380   1.000
    C10     C    0.81710   0.29380   0.24370   1.000
    H5      H    0.82970   0.21110   0.29200   1.000
    C11     C    0.82360   0.29190   0.15280   1.000
    H6      H    0.84260   0.21060   0.14140   1.000
    C12     C    0.80260   0.40820   0.07780   1.000
    C13     C    0.77890   0.53340   0.10020   1.000
    H7      H    0.76600   0.61620   0.05200   1.000
    C14     C    0.77390   0.53770   0.19320   1.000
    H8      H    0.75800   0.62410   0.20810   1.000
    C15     C    0.80200   0.31830   0.67600   1.000
    C16     C    0.80570   0.36000   0.78030   1.000
    C17     C    0.76750   0.44580   0.78920   1.000
    H9      H    0.74130   0.49250   0.72900   1.000
    C18     C    0.76750   0.46400   0.88690   1.000
    H10     H    0.74060   0.52120   0.89210   1.000
    C19     C    0.80590   0.40000   0.97570   1.000
    C20     C    0.84580   0.31830   0.96760   1.000
    H11     H    0.87310   0.27670   0.02830   1.000
    C21     C    0.84510   0.29810   0.86940   1.000
    H12     H    0.87200   0.24160   0.86380   1.000
    O1      O    0.81967   0.89980   0.62530   1.000
    O2      O    0.81396   0.64470   0.62770   1.000
    O3      O    0.77407   0.54470   0.39110   1.000
    O4      O    0.78924   0.29100   0.40770   1.000
    O5      O    0.76118   0.35810   0.59350   1.000
    O6      O    0.83541   0.23220   0.67030   1.000
    Pr1     Pr   0.72699   0.59698   0.49427   1.000
    O7      O    0.65830   0.50500   0.54500   1.000
    N1      N    0.60270   0.30340   0.49790   1.000
    C22     C    0.64900   0.36700   0.54830   1.000
    H13     H    0.67690   0.30110   0.58960   1.000
    C23     C    0.56200   0.39900   0.43760   1.000
    H14     H    0.53020   0.33940   0.40170   1.000
    H15     H    0.57010   0.45200   0.38590   1.000
    H16     H    0.55750   0.47490   0.48370   1.000
    C24     C    0.59610   0.13800   0.50680   1.000
    H17     H    0.57420   0.09460   0.43790   1.000
    H18     H    0.58020   0.11900   0.55400   1.000
    H19     H    0.63010   0.08890   0.53490   1.000
    O8      O    0.65920   0.50300   0.54000   1.000
    N2      N    0.61420   0.33870   0.59590   1.000
    C25     C    0.64660   0.37500   0.55700   1.000
    H20     H    0.66230   0.29060   0.54000   1.000
    C26     C    0.58950   0.45600   0.62400   1.000
    H21     H    0.58260   0.54490   0.57720   1.000
    H22     H    0.61320   0.48560   0.69500   1.000
    H23     H    0.55710   0.41910   0.62230   1.000
    C27     C    0.60580   0.17400   0.60940   1.000
    H24     H    0.57360   0.14160   0.55100   1.000
    H25     H    0.60370   0.15700   0.67540   1.000
    H26     H    0.63450   0.11460   0.60910   1.000
    C28     C    0.33560   0.26970   0.66520   1.000
    C29     C    0.38450   0.26910   0.76480   1.000
    C30     C    0.40710   0.13210   0.80840   1.000
    H27     H    0.39170   0.03740   0.77630   1.000
    C31     C    0.45300   0.13200   0.90040   1.000
    H28     H    0.46870   0.03640   0.92970   1.000
    C32     C    0.47640   0.26930   0.95060   1.000
    C33     C    0.45290   0.40450   0.90180   1.000
    H29     H    0.46870   0.50030   0.93050   1.000
    C34     C    0.40680   0.40360   0.81200   1.000
    H30     H    0.39050   0.49860   0.78280   1.000
    C35     C    0.28440   0.91900   0.36170   1.000
    C36     C    0.29180   0.91800   0.26380   1.000
    C37     C    0.31710   0.79380   0.24370   1.000
    H31     H    0.32970   0.71110   0.29200   1.000
    C38     C    0.32360   0.79190   0.15280   1.000
    H32     H    0.34260   0.71060   0.14140   1.000
    C39     C    0.30260   0.90820   0.07780   1.000
    C40     C    0.27890   0.03340   0.10020   1.000
    H33     H    0.26600   0.11620   0.05200   1.000
    C41     C    0.27390   0.03770   0.19320   1.000
    H34     H    0.25800   0.12410   0.20810   1.000
    C42     C    0.30200   0.81830   0.67600   1.000
    C43     C    0.30570   0.86000   0.78030   1.000
    C44     C    0.26750   0.94580   0.78920   1.000
    H35     H    0.24130   0.99250   0.72900   1.000
    C45     C    0.26750   0.96400   0.88690   1.000
    H36     H    0.24060   0.02120   0.89210   1.000
    C46     C    0.30590   0.90000   0.97570   1.000
    C47     C    0.34580   0.81830   0.96760   1.000
    H37     H    0.37310   0.77670   0.02830   1.000
    C48     C    0.34510   0.79810   0.86940   1.000
    H38     H    0.37200   0.74160   0.86380   1.000
    O9      O    0.31967   0.39980   0.62530   1.000
    O10     O    0.31396   0.14470   0.62770   1.000
    O11     O    0.27407   0.04470   0.39110   1.000
    O12     O    0.28924   0.79100   0.40770   1.000
    O13     O    0.26118   0.85810   0.59350   1.000
    O14     O    0.33541   0.73220   0.67030   1.000
    Pr2     Pr   0.22699   0.09698   0.49427   1.000
    O15     O    0.15830   0.00500   0.54500   1.000
    N3      N    0.10270   0.80340   0.49790   1.000
    C49     C    0.14900   0.86700   0.54830   1.000
    H39     H    0.17690   0.80110   0.58960   1.000
    C50     C    0.06200   0.89900   0.43760   1.000
    H40     H    0.03020   0.83940   0.40170   1.000
    H41     H    0.07010   0.95200   0.38590   1.000
    H42     H    0.05750   0.97490   0.48370   1.000
    C51     C    0.09610   0.63800   0.50680   1.000
    H43     H    0.07420   0.59460   0.43790   1.000
    H44     H    0.08020   0.61900   0.55400   1.000
    H45     H    0.13010   0.58890   0.53490   1.000
    O16     O    0.15920   0.00300   0.54000   1.000
    N4      N    0.11420   0.83870   0.59590   1.000
    C52     C    0.14660   0.87500   0.55700   1.000
    H46     H    0.16230   0.79060   0.54000   1.000
    C53     C    0.08950   0.95600   0.62400   1.000
    H47     H    0.08260   0.04490   0.57720   1.000
    H48     H    0.11320   0.98560   0.69500   1.000
    H49     H    0.05710   0.91910   0.62230   1.000
    C54     C    0.10580   0.67400   0.60940   1.000
    H50     H    0.07360   0.64160   0.55100   1.000
    H51     H    0.10370   0.65700   0.67540   1.000
    H52     H    0.13450   0.61460   0.60910   1.000
    C55     C    0.16440   0.76970   0.33480   1.000
    C56     C    0.11550   0.76910   0.23520   1.000
    C57     C    0.09290   0.63210   0.19160   1.000
    H53     H    0.10830   0.53740   0.22370   1.000
    C58     C    0.04700   0.63200   0.09960   1.000
    H54     H    0.03130   0.53640   0.07030   1.000
    C59     C    0.02360   0.76930   0.04940   1.000
    C60     C    0.04710   0.90450   0.09820   1.000
    H55     H    0.03130   0.00030   0.06950   1.000
    C61     C    0.09320   0.90360   0.18800   1.000
    H56     H    0.10950   0.99860   0.21720   1.000
    C62     C    0.21560   0.41900   0.63830   1.000
    C63     C    0.20820   0.41800   0.73620   1.000
    C64     C    0.18290   0.29380   0.75630   1.000
    H57     H    0.17030   0.21110   0.70800   1.000
    C65     C    0.17640   0.29190   0.84720   1.000
    H58     H    0.15740   0.21060   0.85860   1.000
    C66     C    0.19740   0.40820   0.92220   1.000
    C67     C    0.22110   0.53340   0.89980   1.000
    H59     H    0.23400   0.61620   0.94800   1.000
    C68     C    0.22610   0.53770   0.80680   1.000
    H60     H    0.24200   0.62410   0.79190   1.000
    C69     C    0.19800   0.31830   0.32400   1.000
    C70     C    0.19430   0.36000   0.21970   1.000
    C71     C    0.23250   0.44580   0.21080   1.000
    H61     H    0.25870   0.49250   0.27100   1.000
    C72     C    0.23250   0.46400   0.11310   1.000
    H62     H    0.25940   0.52120   0.10790   1.000
    C73     C    0.19410   0.40000   0.02430   1.000
    C74     C    0.15420   0.31830   0.03240   1.000
    H63     H    0.12690   0.27670   0.97170   1.000
    C75     C    0.15490   0.29810   0.13060   1.000
    H64     H    0.12800   0.24160   0.13620   1.000
    O17     O    0.18033   0.89980   0.37470   1.000
    O18     O    0.18604   0.64470   0.37230   1.000
    O19     O    0.22593   0.54470   0.60890   1.000
    O20     O    0.21076   0.29100   0.59230   1.000
    O21     O    0.23882   0.35810   0.40650   1.000
    O22     O    0.16459   0.23220   0.32970   1.000
    Pr3     Pr   0.27301   0.59698   0.50573   1.000
    O23     O    0.34170   0.50500   0.45500   1.000
    N5      N    0.39730   0.30340   0.50210   1.000
    C76     C    0.35100   0.36700   0.45170   1.000
    H65     H    0.32310   0.30110   0.41040   1.000
    C77     C    0.43800   0.39900   0.56240   1.000
    H66     H    0.46980   0.33940   0.59830   1.000
    H67     H    0.42990   0.45200   0.61410   1.000
    H68     H    0.44250   0.47490   0.51630   1.000
    C78     C    0.40390   0.13800   0.49320   1.000
    H69     H    0.42580   0.09460   0.56210   1.000
    H70     H    0.41980   0.11900   0.44600   1.000
    H71     H    0.36990   0.08890   0.46510   1.000
    O24     O    0.34080   0.50300   0.46000   1.000
    N6      N    0.38580   0.33870   0.40410   1.000
    C79     C    0.35340   0.37500   0.44300   1.000
    H72     H    0.33770   0.29060   0.46000   1.000
    C80     C    0.41050   0.45600   0.37600   1.000
    H73     H    0.41740   0.54490   0.42280   1.000
    H74     H    0.38680   0.48560   0.30500   1.000
    H75     H    0.44290   0.41910   0.37770   1.000
    C81     C    0.39420   0.17400   0.39060   1.000
    H76     H    0.42640   0.14160   0.44900   1.000
    H77     H    0.39630   0.15700   0.32460   1.000
    H78     H    0.36550   0.11460   0.39090   1.000
    C82     C    0.66440   0.26970   0.33480   1.000
    C83     C    0.61550   0.26910   0.23520   1.000
    C84     C    0.59290   0.13210   0.19160   1.000
    H79     H    0.60830   0.03740   0.22370   1.000
    C85     C    0.54700   0.13200   0.09960   1.000
    H80     H    0.53130   0.03640   0.07030   1.000
    C86     C    0.52360   0.26930   0.04940   1.000
    C87     C    0.54710   0.40450   0.09820   1.000
    H81     H    0.53130   0.50030   0.06950   1.000
    C88     C    0.59320   0.40360   0.18800   1.000
    H82     H    0.60950   0.49860   0.21720   1.000
    C89     C    0.71560   0.91900   0.63830   1.000
    C90     C    0.70820   0.91800   0.73620   1.000
    C91     C    0.68290   0.79380   0.75630   1.000
    H83     H    0.67030   0.71110   0.70800   1.000
    C92     C    0.67640   0.79190   0.84720   1.000
    H84     H    0.65740   0.71060   0.85860   1.000
    C93     C    0.69740   0.90820   0.92220   1.000
    C94     C    0.72110   0.03340   0.89980   1.000
    H85     H    0.73400   0.11620   0.94800   1.000
    C95     C    0.72610   0.03770   0.80680   1.000
    H86     H    0.74200   0.12410   0.79190   1.000
    C96     C    0.69800   0.81830   0.32400   1.000
    C97     C    0.69430   0.86000   0.21970   1.000
    C98     C    0.73250   0.94580   0.21080   1.000
    H87     H    0.75870   0.99250   0.27100   1.000
    C99     C    0.73250   0.96400   0.11310   1.000
    H88     H    0.75940   0.02120   0.10790   1.000
    C100    C    0.69410   0.90000   0.02430   1.000
    C101    C    0.65420   0.81830   0.03240   1.000
    H89     H    0.62690   0.77670   0.97170   1.000
    C102    C    0.65490   0.79810   0.13060   1.000
    H90     H    0.62800   0.74160   0.13620   1.000
    O25     O    0.68033   0.39980   0.37470   1.000
    O26     O    0.68604   0.14470   0.37230   1.000
    O27     O    0.72593   0.04470   0.60890   1.000
    O28     O    0.71076   0.79100   0.59230   1.000
    O29     O    0.73882   0.85810   0.40650   1.000
    O30     O    0.66459   0.73220   0.32970   1.000
    Pr4     Pr   0.77301   0.09698   0.50573   1.000
    O31     O    0.84170   0.00500   0.45500   1.000
    N7      N    0.89730   0.80340   0.50210   1.000
    C103    C    0.85100   0.86700   0.45170   1.000
    H91     H    0.82310   0.80110   0.41040   1.000
    C104    C    0.93800   0.89900   0.56240   1.000
    H92     H    0.96980   0.83940   0.59830   1.000
    H93     H    0.92990   0.95200   0.61410   1.000
    H94     H    0.94250   0.97490   0.51630   1.000
    C105    C    0.90390   0.63800   0.49320   1.000
    H95     H    0.92580   0.59460   0.56210   1.000
    H96     H    0.91980   0.61900   0.44600   1.000
    H97     H    0.86990   0.58890   0.46510   1.000
    O32     O    0.84080   0.00300   0.46000   1.000
    N8      N    0.88580   0.83870   0.40410   1.000
    C106    C    0.85340   0.87500   0.44300   1.000
    H98     H    0.83770   0.79060   0.46000   1.000
    C107    C    0.91050   0.95600   0.37600   1.000
    H99     H    0.91740   0.04490   0.42280   1.000
    H100    H    0.88680   0.98560   0.30500   1.000
    H101    H    0.94290   0.91910   0.37770   1.000
    C108    C    0.89420   0.67400   0.39060   1.000
    H102    H    0.92640   0.64160   0.44900   1.000
    H103    H    0.89630   0.65700   0.32460   1.000
    H104    H    0.86550   0.61460   0.39090   1.000
