# CIF file generated by openbabel 2.4.1, see http://openbabel.sf.net
data_I
_chemical_name_common 'image0'
_cell_length_a 14.331
_cell_length_b 23.7137
_cell_length_c 25.4868
_cell_angle_alpha 86.039
_cell_angle_beta 74.929
_cell_angle_gamma 74.441
_space_group_name_H-M_alt 'P 1'
_space_group_name_Hall 'P 1'
loop_
    _symmetry_equiv_pos_as_xyz
    x,y,z
loop_
    _atom_site_label
    _atom_site_type_symbol
    _atom_site_fract_x
    _atom_site_fract_y
    _atom_site_fract_z
    _atom_site_occupancy
    C1      C    0.26780   0.85690   0.62176   1.000
    C2      C    0.28110   0.90230   0.57730   1.000
    C3      C    0.22140   0.91490   0.54010   1.000
    H1      H    0.17130   0.89610   0.54230   1.000
    C4      C    0.23850   0.95630   0.49970   1.000
    H2      H    0.19800   0.96620   0.47560   1.000
    C5      C    0.31390   0.98260   0.49530   1.000
    C6      C    0.37460   0.96960   0.53167   1.000
    H3      H    0.42590   0.98780   0.52830   1.000
    C7      C    0.35760   0.92950   0.57270   1.000
    H4      H    0.39740   0.92080   0.59730   1.000
    C8      C    0.33460   0.02830   0.45205   1.000
    C9      C    0.26060   0.09940   0.39235   1.000
    C10     C    0.16870   0.12821   0.38172   1.000
    H5      H    0.11070   0.11840   0.40120   1.000
    C11     C    0.16350   0.17276   0.34085   1.000
    C12     C    0.25000   0.18440   0.30947   1.000
    H6      H    0.24690   0.21150   0.28140   1.000
    C13     C    0.34050   0.15638   0.31924   1.000
    C14     C    0.34640   0.11335   0.36130   1.000
    H7      H    0.40820   0.09460   0.36780   1.000
    C15     C    0.43460   0.16930   0.28576   1.000
    C16     C    0.06030   0.20200   0.33263   1.000
    C17     C    0.37560   0.87330   0.86560   1.000
    C18     C    0.31720   0.91730   0.90810   1.000
    C19     C    0.21850   0.94450   0.90920   1.000
    H8      H    0.19140   0.93760   0.88160   1.000
    C20     C    0.15860   0.98280   0.95240   1.000
    H9      H    0.09150   0.00020   0.95400   1.000
    C21     C    0.20030   0.99400   0.99170   1.000
    C22     C    0.29960   0.96800   0.99090   1.000
    H10     H    0.32710   0.97600   0.01790   1.000
    C23     C    0.35740   0.92940   0.94840   1.000
    H11     H    0.42410   0.91150   0.94740   1.000
    C24     C    0.13530   0.03670   0.03670   1.000
    C25     C    0.13640   0.10560   0.10420   1.000
    C26     C    0.03900   0.11200   0.13533   1.000
    H12     H    0.99920   0.09020   0.12760   1.000
    C27     C    0.00190   0.15183   0.17853   1.000
    C28     C    0.06250   0.18390   0.19100   1.000
    H13     H    0.03810   0.20970   0.22030   1.000
    C29     C    0.15890   0.17651   0.15921   1.000
    C30     C    0.19810   0.13770   0.11521   1.000
    H14     H    0.26300   0.13340   0.09390   1.000
    C31     C    0.22190   0.21023   0.17055   1.000
    C32     C    0.89390   0.16390   0.20970   1.000
    C33     C    0.24150   0.37060   0.13730   1.000
    C34     C    0.22450   0.41490   0.09300   1.000
    C35     C    0.30870   0.42300   0.05420   1.000
    H15     H    0.37350   0.40160   0.05400   1.000
    C36     C    0.28690   0.46700   0.01470   1.000
    H16     H    0.33940   0.47910   0.99110   1.000
    C37     C    0.18940   0.49250   0.01050   1.000
    C38     C    0.11170   0.48250   0.04750   1.000
    H17     H    0.04660   0.49980   0.04500   1.000
    C39     C    0.13030   0.44470   0.09120   1.000
    H18     H    0.07670   0.44020   0.11940   1.000
    C40     C    0.16240   0.53790   0.96800   1.000
    C41     C    0.23230   0.60664   0.89962   1.000
    C42     C    0.30270   0.63810   0.88950   1.000
    H19     H    0.34710   0.63270   0.91140   1.000
    C43     C    0.30840   0.67820   0.84690   1.000
    C44     C    0.23850   0.68760   0.81663   1.000
    H20     H    0.23980   0.71520   0.78890   1.000
    C45     C    0.16730   0.65700   0.82691   1.000
    C46     C    0.16220   0.61572   0.87154   1.000
    H21     H    0.11200   0.59610   0.88050   1.000
    C47     C    0.09060   0.66740   0.79599   1.000
    C48     C    0.38760   0.71150   0.83760   1.000
    C49     C    0.90570   0.37520   0.36530   1.000
    C50     C    0.83870   0.41864   0.40739   1.000
    C51     C    0.73590   0.42330   0.42400   1.000
    H22     H    0.70880   0.39920   0.40860   1.000
    C52     C    0.67410   0.46367   0.46330   1.000
    H23     H    0.60560   0.46720   0.47350   1.000
    C53     C    0.71460   0.49830   0.48690   1.000
    C54     C    0.81840   0.49290   0.47246   1.000
    H24     H    0.84600   0.51510   0.48990   1.000
    C55     C    0.87820   0.45400   0.43200   1.000
    H25     H    0.94640   0.45140   0.42090   1.000
    C56     C    0.64410   0.54090   0.52989   1.000
    C57     C    0.63130   0.60730   0.60250   1.000
    C58     C    0.52800   0.63420   0.61236   1.000
    H26     H    0.49060   0.62630   0.59030   1.000
    C59     C    0.48300   0.67300   0.65604   1.000
    C60     C    0.53980   0.68370   0.68953   1.000
    H27     H    0.50940   0.70960   0.71850   1.000
    C61     C    0.63950   0.65640   0.68010   1.000
    C62     C    0.68630   0.61849   0.63658   1.000
    H28     H    0.75440   0.60050   0.63000   1.000
    C63     C    0.69740   0.66810   0.71758   1.000
    C64     C    0.37400   0.70400   0.66688   1.000
    N1      N    0.23600   0.56243   0.94269   1.000
    H29     H    0.28890   0.53250   0.92880   1.000
    N2      N    0.67900   0.56867   0.56060   1.000
    H30     H    0.74320   0.56110   0.55280   1.000
    N3      N    0.26120   0.05508   0.43272   1.000
    H31     H    0.20600   0.04530   0.44550   1.000
    N4      N    0.18190   0.06146   0.06330   1.000
    H32     H    0.22500   0.07640   0.03760   1.000
    Nd1     Nd   0.57465   0.75065   0.83798   1.000
    Nd2     Nd   0.32750   0.83363   0.74672   1.000
    Nd3     Nd   0.15297   0.74781   0.67040   1.000
    Nd4     Nd   0.91932   0.66264   0.74371   1.000
    O1      O    0.30950   0.86120   0.65786   1.000
    O2      O    0.23180   0.81747   0.61013   1.000
    O3      O    0.42350   0.03177   0.43430   1.000
    O4      O    0.51000   0.15762   0.30111   1.000
    O5      O    0.43290   0.19061   0.24013   1.000
    O6      O    0.02930   0.25555   0.31273   1.000
    O7      O    0.99220   0.17899   0.34808   1.000
    O8      O    0.34460   0.87756   0.82359   1.000
    O9      O    0.45130   0.83884   0.87180   1.000
    O10     O    0.04900   0.04580   0.04642   1.000
    O11     O    0.31110   0.19813   0.14600   1.000
    O12     O    0.18500   0.25281   0.20289   1.000
    O13     O    0.86300   0.18520   0.25639   1.000
    O14     O    0.83300   0.14963   0.19014   1.000
    O15     O    0.38910   0.75023   0.80330   1.000
    O16     O    0.45540   0.69395   0.86262   1.000
    O17     O    0.10030   0.70041   0.75676   1.000
    O18     O    0.01930   0.64588   0.80924   1.000
    O19     O    0.08940   0.54278   0.95298   1.000
    O20     O    0.32230   0.33246   0.12784   1.000
    O21     O    0.17860   0.38814   0.17725   1.000
    O22     O    0.65370   0.69166   0.75975   1.000
    O23     O    0.78840   0.65847   0.70229   1.000
    O24     O    0.33340   0.74314   0.70013   1.000
    O25     O    0.32370   0.68795   0.63880   1.000
    O26     O    0.55410   0.54581   0.54088   1.000
    O27     O    0.99570   0.37156   0.34842   1.000
    O28     O    0.86730   0.35022   0.33996   1.000
    O29     O    0.53300   0.76260   0.94130   1.000
    H33     H    0.54290   0.79900   0.94970   1.000
    H34     H    0.57500   0.73080   0.95630   1.000
    O30     O    0.28100   0.94500   0.74400   1.000
    H35     H    0.32220   0.95760   0.71220   1.000
    H36     H    0.21210   0.95910   0.74410   1.000
    O31     O    0.15500   0.73500   0.57600   1.000
    H37     H    0.13770   0.77290   0.55940   1.000
    H38     H    0.10730   0.71400   0.57450   1.000
    O32     O    0.99400   0.56200   0.75330   1.000
    H39     H    0.95610   0.54740   0.78580   1.000
    H40     H    0.99350   0.54100   0.72240   1.000
    O33     O    0.53100   0.75330   0.93970   1.000
    H41     H    0.56460   0.77830   0.95130   1.000
    H42     H    0.55210   0.71450   0.95340   1.000
    O34     O    0.27700   0.94300   0.73900   1.000
    H43     H    0.32580   0.95510   0.70990   1.000
    H44     H    0.21290   0.95500   0.73100   1.000
    O35     O    0.15400   0.74400   0.57600   1.000
    H45     H    0.13900   0.78320   0.56220   1.000
    H46     H    0.10470   0.72510   0.57280   1.000
    O36     O    0.00700   0.55760   0.73980   1.000
    H47     H    0.00830   0.54350   0.77590   1.000
    H48     H    0.97170   0.53640   0.72440   1.000
    C65     C    0.73220   0.14310   0.37824   1.000
    C66     C    0.71890   0.09770   0.42270   1.000
    C67     C    0.77860   0.08510   0.45990   1.000
    H49     H    0.82870   0.10390   0.45770   1.000
    C68     C    0.76150   0.04370   0.50030   1.000
    H50     H    0.80200   0.03380   0.52440   1.000
    C69     C    0.68610   0.01740   0.50470   1.000
    C70     C    0.62540   0.03040   0.46833   1.000
    H51     H    0.57410   0.01220   0.47170   1.000
    C71     C    0.64240   0.07050   0.42730   1.000
    H52     H    0.60260   0.07920   0.40270   1.000
    C72     C    0.66540   0.97170   0.54795   1.000
    C73     C    0.73940   0.90060   0.60765   1.000
    C74     C    0.83130   0.87179   0.61828   1.000
    H53     H    0.88930   0.88160   0.59880   1.000
    C75     C    0.83650   0.82724   0.65915   1.000
    C76     C    0.75000   0.81560   0.69053   1.000
    H54     H    0.75310   0.78850   0.71860   1.000
    C77     C    0.65950   0.84362   0.68076   1.000
    C78     C    0.65360   0.88665   0.63870   1.000
    H55     H    0.59180   0.90540   0.63220   1.000
    C79     C    0.56540   0.83070   0.71424   1.000
    C80     C    0.93970   0.79800   0.66737   1.000
    C81     C    0.62440   0.12670   0.13440   1.000
    C82     C    0.68280   0.08270   0.09190   1.000
    C83     C    0.78150   0.05550   0.09080   1.000
    H56     H    0.80860   0.06240   0.11840   1.000
    C84     C    0.84140   0.01720   0.04760   1.000
    H57     H    0.90850   0.99980   0.04600   1.000
    C85     C    0.79970   0.00600   0.00830   1.000
    C86     C    0.70040   0.03200   0.00910   1.000
    H58     H    0.67290   0.02400   0.98210   1.000
    C87     C    0.64260   0.07060   0.05160   1.000
    H59     H    0.57590   0.08850   0.05260   1.000
    C88     C    0.86470   0.96330   0.96330   1.000
    C89     C    0.86360   0.89440   0.89580   1.000
    C90     C    0.96100   0.88800   0.86467   1.000
    H60     H    0.00080   0.90980   0.87240   1.000
    C91     C    0.99810   0.84817   0.82147   1.000
    C92     C    0.93750   0.81610   0.80900   1.000
    H61     H    0.96190   0.79030   0.77970   1.000
    C93     C    0.84110   0.82349   0.84079   1.000
    C94     C    0.80190   0.86230   0.88479   1.000
    H62     H    0.73700   0.86660   0.90610   1.000
    C95     C    0.77810   0.78977   0.82945   1.000
    C96     C    0.10610   0.83610   0.79030   1.000
    C97     C    0.75850   0.62940   0.86270   1.000
    C98     C    0.77550   0.58510   0.90700   1.000
    C99     C    0.69130   0.57700   0.94580   1.000
    H63     H    0.62650   0.59840   0.94600   1.000
    C100    C    0.71310   0.53300   0.98530   1.000
    H64     H    0.66060   0.52090   0.00890   1.000
    C101    C    0.81060   0.50750   0.98950   1.000
    C102    C    0.88830   0.51750   0.95250   1.000
    H65     H    0.95340   0.50020   0.95500   1.000
    C103    C    0.86970   0.55530   0.90880   1.000
    H66     H    0.92330   0.55980   0.88060   1.000
    C104    C    0.83760   0.46210   0.03200   1.000
    C105    C    0.76770   0.39336   0.10038   1.000
    C106    C    0.69730   0.36190   0.11050   1.000
    H67     H    0.65290   0.36730   0.08860   1.000
    C107    C    0.69160   0.32180   0.15310   1.000
    C108    C    0.76150   0.31240   0.18337   1.000
    H68     H    0.76020   0.28480   0.21110   1.000
    C109    C    0.83270   0.34300   0.17309   1.000
    C110    C    0.83780   0.38428   0.12846   1.000
    H69     H    0.88800   0.40390   0.11950   1.000
    C111    C    0.90940   0.33260   0.20401   1.000
    C112    C    0.61240   0.28850   0.16240   1.000
    C113    C    0.09430   0.62480   0.63470   1.000
    C114    C    0.16130   0.58136   0.59261   1.000
    C115    C    0.26410   0.57670   0.57600   1.000
    H70     H    0.29120   0.60080   0.59140   1.000
    C116    C    0.32590   0.53633   0.53670   1.000
    H71     H    0.39440   0.53280   0.52650   1.000
    C117    C    0.28540   0.50170   0.51310   1.000
    C118    C    0.18160   0.50710   0.52754   1.000
    H72     H    0.15400   0.48490   0.51010   1.000
    C119    C    0.12180   0.54600   0.56800   1.000
    H73     H    0.05360   0.54860   0.57910   1.000
    C120    C    0.35590   0.45910   0.47011   1.000
    C121    C    0.36870   0.39270   0.39750   1.000
    C122    C    0.47200   0.36580   0.38764   1.000
    H74     H    0.50940   0.37370   0.40970   1.000
    C123    C    0.51700   0.32700   0.34396   1.000
    C124    C    0.46020   0.31630   0.31047   1.000
    H75     H    0.49060   0.29040   0.28150   1.000
    C125    C    0.36050   0.34360   0.31990   1.000
    C126    C    0.31370   0.38151   0.36342   1.000
    H76     H    0.24560   0.39950   0.37000   1.000
    C127    C    0.30260   0.33190   0.28242   1.000
    C128    C    0.62600   0.29600   0.33312   1.000
    N5      N    0.76400   0.43757   0.05731   1.000
    H77     H    0.71110   0.46750   0.07120   1.000
    N6      N    0.32100   0.43133   0.43940   1.000
    H78     H    0.25680   0.43890   0.44720   1.000
    N7      N    0.73880   0.94492   0.56728   1.000
    H79     H    0.79400   0.95470   0.55450   1.000
    N8      N    0.81810   0.93854   0.93670   1.000
    H80     H    0.77500   0.92360   0.96240   1.000
    Nd5     Nd   0.42535   0.24935   0.16202   1.000
    Nd6     Nd   0.67250   0.16637   0.25328   1.000
    Nd7     Nd   0.84703   0.25219   0.32960   1.000
    Nd8     Nd   0.08068   0.33736   0.25629   1.000
    O37     O    0.69050   0.13880   0.34214   1.000
    O38     O    0.76820   0.18253   0.38987   1.000
    O39     O    0.57650   0.96823   0.56570   1.000
    O40     O    0.49000   0.84238   0.69889   1.000
    O41     O    0.56710   0.80939   0.75987   1.000
    O42     O    0.97070   0.74445   0.68727   1.000
    O43     O    0.00780   0.82101   0.65192   1.000
    O44     O    0.65540   0.12244   0.17641   1.000
    O45     O    0.54870   0.16116   0.12820   1.000
    O46     O    0.95100   0.95420   0.95358   1.000
    O47     O    0.68890   0.80187   0.85400   1.000
    O48     O    0.81500   0.74719   0.79711   1.000
    O49     O    0.13700   0.81480   0.74361   1.000
    O50     O    0.16700   0.85037   0.80986   1.000
    O51     O    0.61090   0.24977   0.19670   1.000
    O52     O    0.54460   0.30605   0.13738   1.000
    O53     O    0.89970   0.29959   0.24324   1.000
    O54     O    0.98070   0.35412   0.19076   1.000
    O55     O    0.91060   0.45722   0.04702   1.000
    O56     O    0.67770   0.66754   0.87216   1.000
    O57     O    0.82140   0.61186   0.82275   1.000
    O58     O    0.34630   0.30834   0.24025   1.000
    O59     O    0.21160   0.34153   0.29771   1.000
    O60     O    0.66660   0.25686   0.29987   1.000
    O61     O    0.67630   0.31205   0.36120   1.000
    O62     O    0.44590   0.45419   0.45912   1.000
    O63     O    0.00430   0.62844   0.65158   1.000
    O64     O    0.13270   0.64978   0.66004   1.000
    O65     O    0.46700   0.23740   0.05870   1.000
    H81     H    0.45710   0.20100   0.05030   1.000
    H82     H    0.42500   0.26920   0.04370   1.000
    O66     O    0.71900   0.05500   0.25600   1.000
    H83     H    0.67780   0.04240   0.28780   1.000
    H84     H    0.78790   0.04090   0.25590   1.000
    O67     O    0.84500   0.26500   0.42400   1.000
    H85     H    0.86230   0.22710   0.44060   1.000
    H86     H    0.89270   0.28600   0.42550   1.000
    O68     O    0.00600   0.43800   0.24670   1.000
    H87     H    0.04390   0.45260   0.21420   1.000
    H88     H    0.00650   0.45900   0.27760   1.000
    O69     O    0.46900   0.24670   0.06030   1.000
    H89     H    0.43540   0.22170   0.04870   1.000
    H90     H    0.44790   0.28550   0.04660   1.000
    O70     O    0.72300   0.05700   0.26100   1.000
    H91     H    0.67420   0.04490   0.29010   1.000
    H92     H    0.78710   0.04500   0.26900   1.000
    O71     O    0.84600   0.25600   0.42400   1.000
    H93     H    0.86100   0.21680   0.43780   1.000
    H94     H    0.89530   0.27490   0.42720   1.000
    O72     O    0.99300   0.44240   0.26020   1.000
    H95     H    0.99170   0.45650   0.22410   1.000
    H96     H    0.02830   0.46360   0.27560   1.000
