# CIF file generated by openbabel 2.4.1, see http://openbabel.sf.net
data_I
_chemical_name_common 'image0'
_cell_length_a 14.9756
_cell_length_b 14.9756
_cell_length_c 19.2026
_cell_angle_alpha 90
_cell_angle_beta 90
_cell_angle_gamma 90
_space_group_name_H-M_alt 'P 1'
_space_group_name_Hall 'P 1'
loop_
    _symmetry_equiv_pos_as_xyz
    x,y,z
loop_
    _atom_site_label
    _atom_site_type_symbol
    _atom_site_fract_x
    _atom_site_fract_y
    _atom_site_fract_z
    _atom_site_occupancy
    O1      O    0.13309   0.18466   0.31601   1.000
    O2      O    0.12249   0.20994   0.20157   1.000
    C1      C    0.09727   0.17448   0.25739   1.000
    C2      C    0.01896   0.11238   0.25395   1.000
    C3      C    0.98180   0.07770   0.31446   1.000
    H1      H    0.00150   0.09840   0.35860   1.000
    C4      C    0.98703   0.08400   0.18955   1.000
    H2      H    0.00980   0.11000   0.14810   1.000
    C5      C    0.19640   0.17590   0.46840   1.000
    H3      H    0.22050   0.11880   0.45050   1.000
    H4      H    0.13420   0.18200   0.45180   1.000
    C6      C    0.16130   0.23300   0.46890   1.000
    H5      H    0.14030   0.17420   0.45280   1.000
    C7      C    0.19740   0.17460   0.54700   1.000
    H6      H    0.22340   0.11750   0.56330   1.000
    H7      H    0.13530   0.17820   0.56460   1.000
    C8      C    0.26400   0.16130   0.54860   1.000
    H8      H    0.21560   0.12160   0.56490   1.000
    O3      O    0.36691   0.31534   0.31601   1.000
    O4      O    0.37751   0.29006   0.20157   1.000
    C9      C    0.40273   0.32552   0.25739   1.000
    C10     C    0.48104   0.38762   0.25395   1.000
    C11     C    0.51820   0.42230   0.31446   1.000
    H9      H    0.49850   0.40160   0.35860   1.000
    C12     C    0.51297   0.41600   0.18955   1.000
    H10     H    0.49020   0.39000   0.14810   1.000
    C13     C    0.30360   0.32410   0.46840   1.000
    H11     H    0.27950   0.38120   0.45050   1.000
    H12     H    0.36580   0.31800   0.45180   1.000
    C14     C    0.33870   0.26700   0.46890   1.000
    H13     H    0.35970   0.32580   0.45280   1.000
    C15     C    0.30260   0.32540   0.54700   1.000
    H14     H    0.27660   0.38250   0.56330   1.000
    H15     H    0.36470   0.32180   0.56460   1.000
    C16     C    0.23600   0.33870   0.54860   1.000
    H16     H    0.28440   0.37840   0.56490   1.000
    O5      O    0.31534   0.13309   0.31601   1.000
    O6      O    0.29006   0.12249   0.20157   1.000
    C17     C    0.32552   0.09727   0.25739   1.000
    C18     C    0.38762   0.01896   0.25395   1.000
    C19     C    0.42230   0.98180   0.31446   1.000
    H17     H    0.40160   0.00150   0.35860   1.000
    C20     C    0.41600   0.98703   0.18955   1.000
    H18     H    0.39000   0.00980   0.14810   1.000
    C21     C    0.32410   0.19640   0.46840   1.000
    H19     H    0.38120   0.22050   0.45050   1.000
    H20     H    0.31800   0.13420   0.45180   1.000
    C22     C    0.26700   0.16130   0.46890   1.000
    H21     H    0.32580   0.14030   0.45280   1.000
    C23     C    0.32540   0.19740   0.54700   1.000
    H22     H    0.38250   0.22340   0.56330   1.000
    H23     H    0.32180   0.13530   0.56460   1.000
    C24     C    0.33870   0.26400   0.54860   1.000
    H24     H    0.37840   0.21560   0.56490   1.000
    O7      O    0.18466   0.36691   0.31601   1.000
    O8      O    0.20994   0.37751   0.20157   1.000
    C25     C    0.17448   0.40273   0.25739   1.000
    C26     C    0.11238   0.48104   0.25395   1.000
    C27     C    0.07770   0.51820   0.31446   1.000
    H25     H    0.09840   0.49850   0.35860   1.000
    C28     C    0.08400   0.51297   0.18955   1.000
    H26     H    0.11000   0.49020   0.14810   1.000
    C29     C    0.17590   0.30360   0.46840   1.000
    H27     H    0.11880   0.27950   0.45050   1.000
    H28     H    0.18200   0.36580   0.45180   1.000
    C30     C    0.23300   0.33870   0.46890   1.000
    H29     H    0.17420   0.35970   0.45280   1.000
    C31     C    0.17460   0.30260   0.54700   1.000
    H30     H    0.11750   0.27660   0.56330   1.000
    H31     H    0.17820   0.36470   0.56460   1.000
    C32     C    0.16130   0.23600   0.54860   1.000
    H32     H    0.12160   0.28440   0.56490   1.000
    O9      O    0.86691   0.68466   0.18399   1.000
    O10     O    0.87751   0.70994   0.29843   1.000
    C33     C    0.90273   0.67448   0.24261   1.000
    C34     C    0.98104   0.61238   0.24605   1.000
    C35     C    0.01820   0.57770   0.18554   1.000
    H33     H    0.99850   0.59840   0.14140   1.000
    C36     C    0.01297   0.58400   0.31045   1.000
    H34     H    0.99020   0.61000   0.35190   1.000
    C37     C    0.80360   0.67590   0.03160   1.000
    H35     H    0.77950   0.61880   0.04950   1.000
    H36     H    0.86580   0.68200   0.04820   1.000
    C38     C    0.83870   0.73300   0.03110   1.000
    H37     H    0.85970   0.67420   0.04720   1.000
    C39     C    0.80260   0.67460   0.95300   1.000
    H38     H    0.77660   0.61750   0.93670   1.000
    H39     H    0.86470   0.67820   0.93540   1.000
    C40     C    0.73600   0.66130   0.95140   1.000
    H40     H    0.78440   0.62160   0.93510   1.000
    O11     O    0.63309   0.81534   0.18399   1.000
    O12     O    0.62249   0.79006   0.29843   1.000
    C41     C    0.59727   0.82552   0.24261   1.000
    C42     C    0.51896   0.88762   0.24605   1.000
    C43     C    0.48180   0.92230   0.18554   1.000
    H41     H    0.50150   0.90160   0.14140   1.000
    C44     C    0.48703   0.91600   0.31045   1.000
    H42     H    0.50980   0.89000   0.35190   1.000
    C45     C    0.69640   0.82410   0.03160   1.000
    H43     H    0.72050   0.88120   0.04950   1.000
    H44     H    0.63420   0.81800   0.04820   1.000
    C46     C    0.66130   0.76700   0.03110   1.000
    H45     H    0.64030   0.82580   0.04720   1.000
    C47     C    0.69740   0.82540   0.95300   1.000
    H46     H    0.72340   0.88250   0.93670   1.000
    H47     H    0.63530   0.82180   0.93540   1.000
    C48     C    0.76400   0.83870   0.95140   1.000
    H48     H    0.71560   0.87840   0.93510   1.000
    O13     O    0.68466   0.63309   0.18399   1.000
    O14     O    0.70994   0.62249   0.29843   1.000
    C49     C    0.67448   0.59727   0.24261   1.000
    C50     C    0.61238   0.51896   0.24605   1.000
    C51     C    0.57770   0.48180   0.18554   1.000
    H49     H    0.59840   0.50150   0.14140   1.000
    C52     C    0.58400   0.48703   0.31045   1.000
    H50     H    0.61000   0.50980   0.35190   1.000
    C53     C    0.67590   0.69640   0.03160   1.000
    H51     H    0.61880   0.72050   0.04950   1.000
    H52     H    0.68200   0.63420   0.04820   1.000
    C54     C    0.73300   0.66130   0.03110   1.000
    H53     H    0.67420   0.64030   0.04720   1.000
    C55     C    0.67460   0.69740   0.95300   1.000
    H54     H    0.61750   0.72340   0.93670   1.000
    H55     H    0.67820   0.63530   0.93540   1.000
    C56     C    0.66130   0.76400   0.95140   1.000
    H56     H    0.62160   0.71560   0.93510   1.000
    O15     O    0.81534   0.86691   0.18399   1.000
    O16     O    0.79006   0.87751   0.29843   1.000
    C57     C    0.82552   0.90273   0.24261   1.000
    C58     C    0.88762   0.98104   0.24605   1.000
    C59     C    0.92230   0.01820   0.18554   1.000
    H57     H    0.90160   0.99850   0.14140   1.000
    C60     C    0.91600   0.01297   0.31045   1.000
    H58     H    0.89000   0.99020   0.35190   1.000
    C61     C    0.82410   0.80360   0.03160   1.000
    H59     H    0.88120   0.77950   0.04950   1.000
    H60     H    0.81800   0.86580   0.04820   1.000
    C62     C    0.76700   0.83870   0.03110   1.000
    H61     H    0.82580   0.85970   0.04720   1.000
    C63     C    0.82540   0.80260   0.95300   1.000
    H62     H    0.88250   0.77660   0.93670   1.000
    H63     H    0.82180   0.86470   0.93540   1.000
    C64     C    0.83870   0.73600   0.95140   1.000
    H64     H    0.87840   0.78440   0.93510   1.000
    O17     O    0.86691   0.81534   0.68399   1.000
    O18     O    0.87751   0.79006   0.79843   1.000
    C65     C    0.90273   0.82552   0.74261   1.000
    C66     C    0.98104   0.88762   0.74605   1.000
    C67     C    0.01820   0.92230   0.68554   1.000
    H65     H    0.99850   0.90160   0.64140   1.000
    C68     C    0.01297   0.91600   0.81045   1.000
    H66     H    0.99020   0.89000   0.85190   1.000
    C69     C    0.80360   0.82410   0.53160   1.000
    H67     H    0.77950   0.88120   0.54950   1.000
    H68     H    0.86580   0.81800   0.54820   1.000
    C70     C    0.83870   0.76700   0.53110   1.000
    H69     H    0.85970   0.82580   0.54720   1.000
    C71     C    0.80260   0.82540   0.45300   1.000
    H70     H    0.77660   0.88250   0.43670   1.000
    H71     H    0.86470   0.82180   0.43540   1.000
    C72     C    0.73600   0.83870   0.45140   1.000
    H72     H    0.78440   0.87840   0.43510   1.000
    O19     O    0.63309   0.68466   0.68399   1.000
    O20     O    0.62249   0.70994   0.79843   1.000
    C73     C    0.59727   0.67448   0.74261   1.000
    C74     C    0.51896   0.61238   0.74605   1.000
    C75     C    0.48180   0.57770   0.68554   1.000
    H73     H    0.50150   0.59840   0.64140   1.000
    C76     C    0.48703   0.58400   0.81045   1.000
    H74     H    0.50980   0.61000   0.85190   1.000
    C77     C    0.69640   0.67590   0.53160   1.000
    H75     H    0.72050   0.61880   0.54950   1.000
    H76     H    0.63420   0.68200   0.54820   1.000
    C78     C    0.66130   0.73300   0.53110   1.000
    H77     H    0.64030   0.67420   0.54720   1.000
    C79     C    0.69740   0.67460   0.45300   1.000
    H78     H    0.72340   0.61750   0.43670   1.000
    H79     H    0.63530   0.67820   0.43540   1.000
    C80     C    0.76400   0.66130   0.45140   1.000
    H80     H    0.71560   0.62160   0.43510   1.000
    O21     O    0.68466   0.86691   0.68399   1.000
    O22     O    0.70994   0.87751   0.79843   1.000
    C81     C    0.67448   0.90273   0.74261   1.000
    C82     C    0.61238   0.98104   0.74605   1.000
    C83     C    0.57770   0.01820   0.68554   1.000
    H81     H    0.59840   0.99850   0.64140   1.000
    C84     C    0.58400   0.01297   0.81045   1.000
    H82     H    0.61000   0.99020   0.85190   1.000
    C85     C    0.67590   0.80360   0.53160   1.000
    H83     H    0.61880   0.77950   0.54950   1.000
    H84     H    0.68200   0.86580   0.54820   1.000
    C86     C    0.73300   0.83870   0.53110   1.000
    H85     H    0.67420   0.85970   0.54720   1.000
    C87     C    0.67460   0.80260   0.45300   1.000
    H86     H    0.61750   0.77660   0.43670   1.000
    H87     H    0.67820   0.86470   0.43540   1.000
    C88     C    0.66130   0.73600   0.45140   1.000
    H88     H    0.62160   0.78440   0.43510   1.000
    O23     O    0.81534   0.63309   0.68399   1.000
    O24     O    0.79006   0.62249   0.79843   1.000
    C89     C    0.82552   0.59727   0.74261   1.000
    C90     C    0.88762   0.51896   0.74605   1.000
    C91     C    0.92230   0.48180   0.68554   1.000
    H89     H    0.90160   0.50150   0.64140   1.000
    C92     C    0.91600   0.48703   0.81045   1.000
    H90     H    0.89000   0.50980   0.85190   1.000
    C93     C    0.82410   0.69640   0.53160   1.000
    H91     H    0.88120   0.72050   0.54950   1.000
    H92     H    0.81800   0.63420   0.54820   1.000
    C94     C    0.76700   0.66130   0.53110   1.000
    H93     H    0.82580   0.64030   0.54720   1.000
    C95     C    0.82540   0.69740   0.45300   1.000
    H94     H    0.88250   0.72340   0.43670   1.000
    H95     H    0.82180   0.63530   0.43540   1.000
    C96     C    0.83870   0.76400   0.45140   1.000
    H96     H    0.87840   0.71560   0.43510   1.000
    O25     O    0.13309   0.31534   0.81601   1.000
    O26     O    0.12249   0.29006   0.70157   1.000
    C97     C    0.09727   0.32552   0.75739   1.000
    C98     C    0.01896   0.38762   0.75395   1.000
    C99     C    0.98180   0.42230   0.81446   1.000
    H97     H    0.00150   0.40160   0.85860   1.000
    C100    C    0.98703   0.41600   0.68955   1.000
    H98     H    0.00980   0.39000   0.64810   1.000
    C101    C    0.19640   0.32410   0.96840   1.000
    H99     H    0.22050   0.38120   0.95050   1.000
    H100    H    0.13420   0.31800   0.95180   1.000
    C102    C    0.16130   0.26700   0.96890   1.000
    H101    H    0.14030   0.32580   0.95280   1.000
    C103    C    0.19740   0.32540   0.04700   1.000
    H102    H    0.22340   0.38250   0.06330   1.000
    H103    H    0.13530   0.32180   0.06460   1.000
    C104    C    0.26400   0.33870   0.04860   1.000
    H104    H    0.21560   0.37840   0.06490   1.000
    O27     O    0.36691   0.18466   0.81601   1.000
    O28     O    0.37751   0.20994   0.70157   1.000
    C105    C    0.40273   0.17448   0.75739   1.000
    C106    C    0.48104   0.11238   0.75395   1.000
    C107    C    0.51820   0.07770   0.81446   1.000
    H105    H    0.49850   0.09840   0.85860   1.000
    C108    C    0.51297   0.08400   0.68955   1.000
    H106    H    0.49020   0.11000   0.64810   1.000
    C109    C    0.30360   0.17590   0.96840   1.000
    H107    H    0.27950   0.11880   0.95050   1.000
    H108    H    0.36580   0.18200   0.95180   1.000
    C110    C    0.33870   0.23300   0.96890   1.000
    H109    H    0.35970   0.17420   0.95280   1.000
    C111    C    0.30260   0.17460   0.04700   1.000
    H110    H    0.27660   0.11750   0.06330   1.000
    H111    H    0.36470   0.17820   0.06460   1.000
    C112    C    0.23600   0.16130   0.04860   1.000
    H112    H    0.28440   0.12160   0.06490   1.000
    O29     O    0.31534   0.36691   0.81601   1.000
    O30     O    0.29006   0.37751   0.70157   1.000
    C113    C    0.32552   0.40273   0.75739   1.000
    C114    C    0.38762   0.48104   0.75395   1.000
    C115    C    0.42230   0.51820   0.81446   1.000
    H113    H    0.40160   0.49850   0.85860   1.000
    C116    C    0.41600   0.51297   0.68955   1.000
    H114    H    0.39000   0.49020   0.64810   1.000
    C117    C    0.32410   0.30360   0.96840   1.000
    H115    H    0.38120   0.27950   0.95050   1.000
    H116    H    0.31800   0.36580   0.95180   1.000
    C118    C    0.26700   0.33870   0.96890   1.000
    H117    H    0.32580   0.35970   0.95280   1.000
    C119    C    0.32540   0.30260   0.04700   1.000
    H118    H    0.38250   0.27660   0.06330   1.000
    H119    H    0.32180   0.36470   0.06460   1.000
    C120    C    0.33870   0.23600   0.04860   1.000
    H120    H    0.37840   0.28440   0.06490   1.000
    O31     O    0.18466   0.13309   0.81601   1.000
    O32     O    0.20994   0.12249   0.70157   1.000
    C121    C    0.17448   0.09727   0.75739   1.000
    C122    C    0.11238   0.01896   0.75395   1.000
    C123    C    0.07770   0.98180   0.81446   1.000
    H121    H    0.09840   0.00150   0.85860   1.000
    C124    C    0.08400   0.98703   0.68955   1.000
    H122    H    0.11000   0.00980   0.64810   1.000
    C125    C    0.17590   0.19640   0.96840   1.000
    H123    H    0.11880   0.22050   0.95050   1.000
    H124    H    0.18200   0.13420   0.95180   1.000
    C126    C    0.23300   0.16130   0.96890   1.000
    H125    H    0.17420   0.14030   0.95280   1.000
    C127    C    0.17460   0.19740   0.04700   1.000
    H126    H    0.11750   0.22340   0.06330   1.000
    H127    H    0.17820   0.13530   0.06460   1.000
    C128    C    0.16130   0.26400   0.04860   1.000
    H128    H    0.12160   0.21560   0.06490   1.000
    Zn1     Zn   0.25000   0.25000   0.33481   1.000
    Zn2     Zn   0.25000   0.25000   0.18158   1.000
    N1      N    0.25000   0.25000   0.44150   1.000
    N2      N    0.25000   0.25000   0.57520   1.000
    Zn3     Zn   0.75000   0.75000   0.16519   1.000
    Zn4     Zn   0.75000   0.75000   0.31842   1.000
    N3      N    0.75000   0.75000   0.05850   1.000
    N4      N    0.75000   0.75000   0.92480   1.000
    Zn5     Zn   0.75000   0.75000   0.66519   1.000
    Zn6     Zn   0.75000   0.75000   0.81842   1.000
    N5      N    0.75000   0.75000   0.55850   1.000
    N6      N    0.75000   0.75000   0.42480   1.000
    Zn7     Zn   0.25000   0.25000   0.83481   1.000
    Zn8     Zn   0.25000   0.25000   0.68158   1.000
    N7      N    0.25000   0.25000   0.94150   1.000
    N8      N    0.25000   0.25000   0.07520   1.000
