# CIF file generated by openbabel 2.4.1, see http://openbabel.sf.net
data_I
_chemical_name_common 'image0'
_cell_length_a 10.2304
_cell_length_b 10.2304
_cell_length_c 10.2304
_cell_angle_alpha 90
_cell_angle_beta 90
_cell_angle_gamma 90
_space_group_name_H-M_alt 'P 1'
_space_group_name_Hall 'P 1'
loop_
    _symmetry_equiv_pos_as_xyz
    x,y,z
loop_
    _atom_site_label
    _atom_site_type_symbol
    _atom_site_fract_x
    _atom_site_fract_y
    _atom_site_fract_z
    _atom_site_occupancy
    C1      C    0.36400   0.76300   0.98000   1.000
    C2      C    0.33050   0.64700   0.06040   1.000
    C3      C    0.40200   0.67020   0.10970   1.000
    C4      C    0.39000   0.76800   0.00300   1.000
    N1      N    0.46490   0.77150   0.06710   1.000
    N2      N    0.37500   0.77400   0.97430   1.000
    N3      N    0.29210   0.67700   0.99080   1.000
    O1      O    0.28100   0.77200   0.89000   1.000
    O2      O    0.45200   0.84900   0.99300   1.000
    O3      O    0.29900   0.77700   0.92300   1.000
    O4      O    0.50700   0.79000   0.98000   1.000
    C5      C    0.13600   0.23700   0.48000   1.000
    C6      C    0.16950   0.35300   0.56040   1.000
    C7      C    0.09800   0.32980   0.60970   1.000
    C8      C    0.11000   0.23200   0.50300   1.000
    N4      N    0.03510   0.22850   0.56710   1.000
    N5      N    0.12500   0.22600   0.47430   1.000
    N6      N    0.20790   0.32300   0.49080   1.000
    O5      O    0.21900   0.22800   0.39000   1.000
    O6      O    0.04800   0.15100   0.49300   1.000
    O7      O    0.20100   0.22300   0.42300   1.000
    O8      O    0.99300   0.21000   0.48000   1.000
    C9      C    0.63600   0.26300   0.52000   1.000
    C10     C    0.66950   0.14700   0.43960   1.000
    C11     C    0.59800   0.17020   0.39030   1.000
    C12     C    0.61000   0.26800   0.49700   1.000
    N7      N    0.53510   0.27150   0.43290   1.000
    N8      N    0.62500   0.27400   0.52570   1.000
    N9      N    0.70790   0.17700   0.50920   1.000
    O9      O    0.71900   0.27200   0.61000   1.000
    O10     O    0.54800   0.34900   0.50700   1.000
    O11     O    0.70100   0.27700   0.57700   1.000
    O12     O    0.49300   0.29000   0.52000   1.000
    C13     C    0.86400   0.73700   0.02000   1.000
    C14     C    0.83050   0.85300   0.93960   1.000
    C15     C    0.90200   0.82980   0.89030   1.000
    C16     C    0.89000   0.73200   0.99700   1.000
    N10     N    0.96490   0.72850   0.93290   1.000
    N11     N    0.87500   0.72600   0.02570   1.000
    N12     N    0.79210   0.82300   0.00920   1.000
    O13     O    0.78100   0.72800   0.11000   1.000
    O14     O    0.95200   0.65100   0.00700   1.000
    O15     O    0.79900   0.72300   0.07700   1.000
    O16     O    0.00700   0.71000   0.02000   1.000
    C17     C    0.98000   0.36400   0.76300   1.000
    C18     C    0.06040   0.33050   0.64700   1.000
    C19     C    0.10970   0.40200   0.67020   1.000
    C20     C    0.00300   0.39000   0.76800   1.000
    N13     N    0.06710   0.46490   0.77150   1.000
    N14     N    0.97430   0.37500   0.77400   1.000
    N15     N    0.99080   0.29210   0.67700   1.000
    O17     O    0.89000   0.28100   0.77200   1.000
    O18     O    0.99300   0.45200   0.84900   1.000
    O19     O    0.92300   0.29900   0.77700   1.000
    O20     O    0.98000   0.50700   0.79000   1.000
    C21     C    0.48000   0.13600   0.23700   1.000
    C22     C    0.56040   0.16950   0.35300   1.000
    C23     C    0.60970   0.09800   0.32980   1.000
    C24     C    0.50300   0.11000   0.23200   1.000
    N16     N    0.56710   0.03510   0.22850   1.000
    N17     N    0.47430   0.12500   0.22600   1.000
    N18     N    0.49080   0.20790   0.32300   1.000
    O21     O    0.39000   0.21900   0.22800   1.000
    O22     O    0.49300   0.04800   0.15100   1.000
    O23     O    0.42300   0.20100   0.22300   1.000
    O24     O    0.48000   0.99300   0.21000   1.000
    C25     C    0.52000   0.63600   0.26300   1.000
    C26     C    0.43960   0.66950   0.14700   1.000
    C27     C    0.39030   0.59800   0.17020   1.000
    C28     C    0.49700   0.61000   0.26800   1.000
    N19     N    0.43290   0.53510   0.27150   1.000
    N20     N    0.52570   0.62500   0.27400   1.000
    N21     N    0.50920   0.70790   0.17700   1.000
    O25     O    0.61000   0.71900   0.27200   1.000
    O26     O    0.50700   0.54800   0.34900   1.000
    O27     O    0.57700   0.70100   0.27700   1.000
    O28     O    0.52000   0.49300   0.29000   1.000
    C29     C    0.02000   0.86400   0.73700   1.000
    C30     C    0.93960   0.83050   0.85300   1.000
    C31     C    0.89030   0.90200   0.82980   1.000
    C32     C    0.99700   0.89000   0.73200   1.000
    N22     N    0.93290   0.96490   0.72850   1.000
    N23     N    0.02570   0.87500   0.72600   1.000
    N24     N    0.00920   0.79210   0.82300   1.000
    O29     O    0.11000   0.78100   0.72800   1.000
    O30     O    0.00700   0.95200   0.65100   1.000
    O31     O    0.07700   0.79900   0.72300   1.000
    O32     O    0.02000   0.00700   0.71000   1.000
    C33     C    0.76300   0.98000   0.36400   1.000
    C34     C    0.64700   0.06040   0.33050   1.000
    C35     C    0.67020   0.10970   0.40200   1.000
    C36     C    0.76800   0.00300   0.39000   1.000
    N25     N    0.77150   0.06710   0.46490   1.000
    N26     N    0.77400   0.97430   0.37500   1.000
    N27     N    0.67700   0.99080   0.29210   1.000
    O33     O    0.77200   0.89000   0.28100   1.000
    O34     O    0.84900   0.99300   0.45200   1.000
    O35     O    0.77700   0.92300   0.29900   1.000
    O36     O    0.79000   0.98000   0.50700   1.000
    C37     C    0.23700   0.48000   0.13600   1.000
    C38     C    0.35300   0.56040   0.16950   1.000
    C39     C    0.32980   0.60970   0.09800   1.000
    C40     C    0.23200   0.50300   0.11000   1.000
    N28     N    0.22850   0.56710   0.03510   1.000
    N29     N    0.22600   0.47430   0.12500   1.000
    N30     N    0.32300   0.49080   0.20790   1.000
    O37     O    0.22800   0.39000   0.21900   1.000
    O38     O    0.15100   0.49300   0.04800   1.000
    O39     O    0.22300   0.42300   0.20100   1.000
    O40     O    0.21000   0.48000   0.99300   1.000
    C41     C    0.26300   0.52000   0.63600   1.000
    C42     C    0.14700   0.43960   0.66950   1.000
    C43     C    0.17020   0.39030   0.59800   1.000
    C44     C    0.26800   0.49700   0.61000   1.000
    N31     N    0.27150   0.43290   0.53510   1.000
    N32     N    0.27400   0.52570   0.62500   1.000
    N33     N    0.17700   0.50920   0.70790   1.000
    O41     O    0.27200   0.61000   0.71900   1.000
    O42     O    0.34900   0.50700   0.54800   1.000
    O43     O    0.27700   0.57700   0.70100   1.000
    O44     O    0.29000   0.52000   0.49300   1.000
    C45     C    0.73700   0.02000   0.86400   1.000
    C46     C    0.85300   0.93960   0.83050   1.000
    C47     C    0.82980   0.89030   0.90200   1.000
    C48     C    0.73200   0.99700   0.89000   1.000
    N34     N    0.72850   0.93290   0.96490   1.000
    N35     N    0.72600   0.02570   0.87500   1.000
    N36     N    0.82300   0.00920   0.79210   1.000
    O45     O    0.72800   0.11000   0.78100   1.000
    O46     O    0.65100   0.00700   0.95200   1.000
    O47     O    0.72300   0.07700   0.79900   1.000
    O48     O    0.71000   0.02000   0.00700   1.000
    Mn1     Mn   0.62599   0.87401   0.12599   1.000
    Mn2     Mn   0.87401   0.12599   0.62599   1.000
    Mn3     Mn   0.37401   0.37401   0.37401   1.000
    Mn4     Mn   0.12599   0.62599   0.87401   1.000
