# CIF file generated by openbabel 2.4.1, see http://openbabel.sf.net
data_I
_chemical_name_common 'image0'
_cell_length_a 7.16
_cell_length_b 34.398
_cell_length_c 19.626
_cell_angle_alpha 90
_cell_angle_beta 90
_cell_angle_gamma 90
_space_group_name_H-M_alt 'P 1'
_space_group_name_Hall 'P 1'
loop_
    _symmetry_equiv_pos_as_xyz
    x,y,z
loop_
    _atom_site_label
    _atom_site_type_symbol
    _atom_site_fract_x
    _atom_site_fract_y
    _atom_site_fract_z
    _atom_site_occupancy
    C1      C    0.66150   0.61440   0.70510   1.000
    C2      C    0.66110   0.64070   0.75760   1.000
    N1      N    0.65450   0.69478   0.87280   1.000
    N2      N    0.59320   0.71766   0.92308   1.000
    C3      C    0.10300   0.47100   0.45700   1.000
    H1      H    0.77560   0.60420   0.68860   1.000
    H2      H    0.77540   0.64960   0.77630   1.000
    H3      H    0.15020   0.52260   0.40390   1.000
    H4      H    0.15690   0.47890   0.40230   1.000
    H5      H    0.15130   0.44650   0.45890   1.000
    H6      H    0.85350   0.44430   0.53990   1.000
    C4      C    0.16150   0.11440   0.70510   1.000
    C5      C    0.16110   0.14070   0.75760   1.000
    N3      N    0.15450   0.19478   0.87280   1.000
    N4      N    0.09320   0.21766   0.92308   1.000
    C6      C    0.60300   0.97100   0.45700   1.000
    H7      H    0.27560   0.10420   0.68860   1.000
    H8      H    0.27540   0.14960   0.77630   1.000
    H9      H    0.65020   0.02260   0.40390   1.000
    H10     H    0.65690   0.97890   0.40230   1.000
    H11     H    0.65130   0.94650   0.45890   1.000
    H12     H    0.35350   0.94430   0.53990   1.000
    C7      C    0.33850   0.38560   0.70510   1.000
    C8      C    0.33890   0.35930   0.75760   1.000
    N5      N    0.34550   0.30522   0.87280   1.000
    N6      N    0.40680   0.28234   0.92308   1.000
    C9      C    0.89700   0.52900   0.45700   1.000
    H13     H    0.22440   0.39580   0.68860   1.000
    H14     H    0.22460   0.35040   0.77630   1.000
    H15     H    0.84980   0.47740   0.40390   1.000
    H16     H    0.84310   0.52110   0.40230   1.000
    H17     H    0.84870   0.55350   0.45890   1.000
    H18     H    0.14650   0.55570   0.53990   1.000
    C10     C    0.83850   0.88560   0.70510   1.000
    C11     C    0.83890   0.85930   0.75760   1.000
    N7      N    0.84550   0.80522   0.87280   1.000
    N8      N    0.90680   0.78234   0.92308   1.000
    C12     C    0.39700   0.02900   0.45700   1.000
    H19     H    0.72440   0.89580   0.68860   1.000
    H20     H    0.72460   0.85040   0.77630   1.000
    H21     H    0.34980   0.97740   0.40390   1.000
    H22     H    0.34310   0.02110   0.40230   1.000
    H23     H    0.34870   0.05350   0.45890   1.000
    H24     H    0.64650   0.05570   0.53990   1.000
    C13     C    0.33850   0.61440   0.29490   1.000
    C14     C    0.33890   0.64070   0.24240   1.000
    N9      N    0.34550   0.69478   0.12720   1.000
    N10     N    0.40680   0.71766   0.07692   1.000
    C15     C    0.89700   0.47100   0.54300   1.000
    H25     H    0.22440   0.60420   0.31140   1.000
    H26     H    0.22460   0.64960   0.22370   1.000
    H27     H    0.84980   0.52260   0.59610   1.000
    H28     H    0.84310   0.47890   0.59770   1.000
    H29     H    0.84870   0.44650   0.54110   1.000
    H30     H    0.14650   0.44430   0.46010   1.000
    C16     C    0.83850   0.11440   0.29490   1.000
    C17     C    0.83890   0.14070   0.24240   1.000
    N11     N    0.84550   0.19478   0.12720   1.000
    N12     N    0.90680   0.21766   0.07692   1.000
    C18     C    0.39700   0.97100   0.54300   1.000
    H31     H    0.72440   0.10420   0.31140   1.000
    H32     H    0.72460   0.14960   0.22370   1.000
    H33     H    0.34980   0.02260   0.59610   1.000
    H34     H    0.34310   0.97890   0.59770   1.000
    H35     H    0.34870   0.94650   0.54110   1.000
    H36     H    0.64650   0.94430   0.46010   1.000
    C19     C    0.66150   0.38560   0.29490   1.000
    C20     C    0.66110   0.35930   0.24240   1.000
    N13     N    0.65450   0.30522   0.12720   1.000
    N14     N    0.59320   0.28234   0.07692   1.000
    C21     C    0.10300   0.52900   0.54300   1.000
    H37     H    0.77560   0.39580   0.31140   1.000
    H38     H    0.77540   0.35040   0.22370   1.000
    H39     H    0.15020   0.47740   0.59610   1.000
    H40     H    0.15690   0.52110   0.59770   1.000
    H41     H    0.15130   0.55350   0.54110   1.000
    H42     H    0.85350   0.55570   0.46010   1.000
    C22     C    0.16150   0.88560   0.29490   1.000
    C23     C    0.16110   0.85930   0.24240   1.000
    N15     N    0.15450   0.80522   0.12720   1.000
    N16     N    0.09320   0.78234   0.07692   1.000
    C24     C    0.60300   0.02900   0.54300   1.000
    H43     H    0.27560   0.89580   0.31140   1.000
    H44     H    0.27540   0.85040   0.22370   1.000
    H45     H    0.65020   0.97740   0.59610   1.000
    H46     H    0.65690   0.02110   0.59770   1.000
    H47     H    0.65130   0.05350   0.54110   1.000
    H48     H    0.35350   0.05570   0.46010   1.000
    C25     C    0.33850   0.38560   0.29490   1.000
    C26     C    0.33890   0.35930   0.24240   1.000
    N17     N    0.34550   0.30522   0.12720   1.000
    N18     N    0.40680   0.28234   0.07692   1.000
    C27     C    0.89700   0.52900   0.54300   1.000
    H49     H    0.22440   0.39580   0.31140   1.000
    H50     H    0.22460   0.35040   0.22370   1.000
    H51     H    0.84980   0.47740   0.59610   1.000
    H52     H    0.84310   0.52110   0.59770   1.000
    H53     H    0.84870   0.55350   0.54110   1.000
    H54     H    0.14650   0.55570   0.46010   1.000
    C28     C    0.83850   0.88560   0.29490   1.000
    C29     C    0.83890   0.85930   0.24240   1.000
    N19     N    0.84550   0.80522   0.12720   1.000
    N20     N    0.90680   0.78234   0.07692   1.000
    C30     C    0.39700   0.02900   0.54300   1.000
    H55     H    0.72440   0.89580   0.31140   1.000
    H56     H    0.72460   0.85040   0.22370   1.000
    H57     H    0.34980   0.97740   0.59610   1.000
    H58     H    0.34310   0.02110   0.59770   1.000
    H59     H    0.34870   0.05350   0.54110   1.000
    H60     H    0.64650   0.05570   0.46010   1.000
    C31     C    0.66150   0.61440   0.29490   1.000
    C32     C    0.66110   0.64070   0.24240   1.000
    N21     N    0.65450   0.69478   0.12720   1.000
    N22     N    0.59320   0.71766   0.07692   1.000
    C33     C    0.10300   0.47100   0.54300   1.000
    H61     H    0.77560   0.60420   0.31140   1.000
    H62     H    0.77540   0.64960   0.22370   1.000
    H63     H    0.15020   0.52260   0.59610   1.000
    H64     H    0.15690   0.47890   0.59770   1.000
    H65     H    0.15130   0.44650   0.54110   1.000
    H66     H    0.85350   0.44430   0.46010   1.000
    C34     C    0.16150   0.11440   0.29490   1.000
    C35     C    0.16110   0.14070   0.24240   1.000
    N23     N    0.15450   0.19478   0.12720   1.000
    N24     N    0.09320   0.21766   0.07692   1.000
    C36     C    0.60300   0.97100   0.54300   1.000
    H67     H    0.27560   0.10420   0.31140   1.000
    H68     H    0.27540   0.14960   0.22370   1.000
    H69     H    0.65020   0.02260   0.59610   1.000
    H70     H    0.65690   0.97890   0.59770   1.000
    H71     H    0.65130   0.94650   0.54110   1.000
    H72     H    0.35350   0.94430   0.46010   1.000
    C37     C    0.66150   0.38560   0.70510   1.000
    C38     C    0.66110   0.35930   0.75760   1.000
    N25     N    0.65450   0.30522   0.87280   1.000
    N26     N    0.59320   0.28234   0.92308   1.000
    C39     C    0.10300   0.52900   0.45700   1.000
    H73     H    0.77560   0.39580   0.68860   1.000
    H74     H    0.77540   0.35040   0.77630   1.000
    H75     H    0.15020   0.47740   0.40390   1.000
    H76     H    0.15690   0.52110   0.40230   1.000
    H77     H    0.15130   0.55350   0.45890   1.000
    H78     H    0.85350   0.55570   0.53990   1.000
    C40     C    0.16150   0.88560   0.70510   1.000
    C41     C    0.16110   0.85930   0.75760   1.000
    N27     N    0.15450   0.80522   0.87280   1.000
    N28     N    0.09320   0.78234   0.92308   1.000
    C42     C    0.60300   0.02900   0.45700   1.000
    H79     H    0.27560   0.89580   0.68860   1.000
    H80     H    0.27540   0.85040   0.77630   1.000
    H81     H    0.65020   0.97740   0.40390   1.000
    H82     H    0.65690   0.02110   0.40230   1.000
    H83     H    0.65130   0.05350   0.45890   1.000
    H84     H    0.35350   0.05570   0.53990   1.000
    C43     C    0.33850   0.61440   0.70510   1.000
    C44     C    0.33890   0.64070   0.75760   1.000
    N29     N    0.34550   0.69478   0.87280   1.000
    N30     N    0.40680   0.71766   0.92308   1.000
    C45     C    0.89700   0.47100   0.45700   1.000
    H85     H    0.22440   0.60420   0.68860   1.000
    H86     H    0.22460   0.64960   0.77630   1.000
    H87     H    0.84980   0.52260   0.40390   1.000
    H88     H    0.84310   0.47890   0.40230   1.000
    H89     H    0.84870   0.44650   0.45890   1.000
    H90     H    0.14650   0.44430   0.53990   1.000
    C46     C    0.83850   0.11440   0.70510   1.000
    C47     C    0.83890   0.14070   0.75760   1.000
    N31     N    0.84550   0.19478   0.87280   1.000
    N32     N    0.90680   0.21766   0.92308   1.000
    C48     C    0.39700   0.97100   0.45700   1.000
    H91     H    0.72440   0.10420   0.68860   1.000
    H92     H    0.72460   0.14960   0.77630   1.000
    H93     H    0.34980   0.02260   0.40390   1.000
    H94     H    0.34310   0.97890   0.40230   1.000
    H95     H    0.34870   0.94650   0.45890   1.000
    H96     H    0.64650   0.94430   0.53990   1.000
    Fe1     Fe   0.50000   0.50000   0.50000   1.000
    Fe2     Fe   0.00000   0.00000   0.50000   1.000
    N33     N    0.50000   0.50000   0.60270   1.000
    N34     N    0.00000   0.00000   0.60270   1.000
    N35     N    0.50000   0.50000   0.39730   1.000
    N36     N    0.00000   0.00000   0.39730   1.000
    C49     C    0.50000   0.53205   0.64490   1.000
    C50     C    0.50000   0.57031   0.62380   1.000
    C51     C    0.50000   0.58246   0.55630   1.000
    C52     C    0.50000   0.62266   0.53380   1.000
    C53     C    0.50000   0.60101   0.67860   1.000
    C54     C    0.50000   0.65430   0.78480   1.000
    C55     C    0.50000   0.68160   0.84250   1.000
    C56     C    0.50000   0.51936   0.71510   1.000
    H97     H    0.50000   0.53590   0.75420   1.000
    H98     H    0.50000   0.64500   0.56240   1.000
    C57     C    0.00000   0.03205   0.64490   1.000
    C58     C    0.00000   0.07031   0.62380   1.000
    C59     C    0.00000   0.08246   0.55630   1.000
    C60     C    0.00000   0.12266   0.53380   1.000
    C61     C    0.00000   0.10101   0.67860   1.000
    C62     C    0.00000   0.15430   0.78480   1.000
    C63     C    0.00000   0.18160   0.84250   1.000
    C64     C    0.00000   0.01936   0.71510   1.000
    H99     H    0.00000   0.03590   0.75420   1.000
    H100    H    0.00000   0.14500   0.56240   1.000
    C65     C    0.50000   0.46795   0.64490   1.000
    C66     C    0.50000   0.42969   0.62380   1.000
    C67     C    0.50000   0.41754   0.55630   1.000
    C68     C    0.50000   0.37734   0.53380   1.000
    C69     C    0.50000   0.39899   0.67860   1.000
    C70     C    0.50000   0.34570   0.78480   1.000
    C71     C    0.50000   0.31840   0.84250   1.000
    C72     C    0.50000   0.48064   0.71510   1.000
    H101    H    0.50000   0.46410   0.75420   1.000
    H102    H    0.50000   0.35500   0.56240   1.000
    C73     C    0.00000   0.96795   0.64490   1.000
    C74     C    0.00000   0.92969   0.62380   1.000
    C75     C    0.00000   0.91754   0.55630   1.000
    C76     C    0.00000   0.87734   0.53380   1.000
    C77     C    0.00000   0.89899   0.67860   1.000
    C78     C    0.00000   0.84570   0.78480   1.000
    C79     C    0.00000   0.81840   0.84250   1.000
    C80     C    0.00000   0.98064   0.71510   1.000
    H103    H    0.00000   0.96410   0.75420   1.000
    H104    H    0.00000   0.85500   0.56240   1.000
    C81     C    0.50000   0.53205   0.35510   1.000
    C82     C    0.50000   0.57031   0.37620   1.000
    C83     C    0.50000   0.58246   0.44370   1.000
    C84     C    0.50000   0.62266   0.46620   1.000
    C85     C    0.50000   0.60101   0.32140   1.000
    C86     C    0.50000   0.65430   0.21520   1.000
    C87     C    0.50000   0.68160   0.15750   1.000
    C88     C    0.50000   0.51936   0.28490   1.000
    H105    H    0.50000   0.53590   0.24580   1.000
    H106    H    0.50000   0.64500   0.43760   1.000
    C89     C    0.00000   0.03205   0.35510   1.000
    C90     C    0.00000   0.07031   0.37620   1.000
    C91     C    0.00000   0.08246   0.44370   1.000
    C92     C    0.00000   0.12266   0.46620   1.000
    C93     C    0.00000   0.10101   0.32140   1.000
    C94     C    0.00000   0.15430   0.21520   1.000
    C95     C    0.00000   0.18160   0.15750   1.000
    C96     C    0.00000   0.01936   0.28490   1.000
    H107    H    0.00000   0.03590   0.24580   1.000
    H108    H    0.00000   0.14500   0.43760   1.000
    C97     C    0.50000   0.46795   0.35510   1.000
    C98     C    0.50000   0.42969   0.37620   1.000
    C99     C    0.50000   0.41754   0.44370   1.000
    C100    C    0.50000   0.37734   0.46620   1.000
    C101    C    0.50000   0.39899   0.32140   1.000
    C102    C    0.50000   0.34570   0.21520   1.000
    C103    C    0.50000   0.31840   0.15750   1.000
    C104    C    0.50000   0.48064   0.28490   1.000
    H109    H    0.50000   0.46410   0.24580   1.000
    H110    H    0.50000   0.35500   0.43760   1.000
    C105    C    0.00000   0.96795   0.35510   1.000
    C106    C    0.00000   0.92969   0.37620   1.000
    C107    C    0.00000   0.91754   0.44370   1.000
    C108    C    0.00000   0.87734   0.46620   1.000
    C109    C    0.00000   0.89899   0.32140   1.000
    C110    C    0.00000   0.84570   0.21520   1.000
    C111    C    0.00000   0.81840   0.15750   1.000
    C112    C    0.00000   0.98064   0.28490   1.000
    H111    H    0.00000   0.96410   0.24580   1.000
    H112    H    0.00000   0.85500   0.43760   1.000
    N37     N    0.50000   0.55841   0.50000   1.000
    N38     N    0.00000   0.05841   0.50000   1.000
    N39     N    0.50000   0.44159   0.50000   1.000
    N40     N    0.00000   0.94159   0.50000   1.000
    Fe3     Fe   0.75000   0.75000   0.00000   1.000
    Fe4     Fe   0.25000   0.25000   0.00000   1.000
    Fe5     Fe   0.25000   0.75000   0.00000   1.000
    Fe6     Fe   0.75000   0.25000   0.00000   1.000
    O1      O    0.00000   0.71310   0.00000   1.000
    O2      O    0.50000   0.21310   0.00000   1.000
    O3      O    0.00000   0.28690   0.00000   1.000
    O4      O    0.50000   0.78690   0.00000   1.000
    N41     N    0.18340   0.50000   0.50000   1.000
    N42     N    0.68340   0.00000   0.50000   1.000
    N43     N    0.81660   0.50000   0.50000   1.000
    N44     N    0.31660   0.00000   0.50000   1.000
    C113    C    0.89300   0.45740   0.50000   1.000
    C114    C    0.39300   0.95740   0.50000   1.000
    C115    C    0.10700   0.54260   0.50000   1.000
    C116    C    0.60700   0.04260   0.50000   1.000
    C117    C    0.10700   0.45740   0.50000   1.000
    C118    C    0.60700   0.95740   0.50000   1.000
    C119    C    0.89300   0.54260   0.50000   1.000
    C120    C    0.39300   0.04260   0.50000   1.000
    C121    C    0.10800   0.50000   0.42730   1.000
    C122    C    0.60800   0.00000   0.42730   1.000
    C123    C    0.89200   0.50000   0.42730   1.000
    C124    C    0.39200   0.00000   0.42730   1.000
    C125    C    0.89200   0.50000   0.57270   1.000
    C126    C    0.39200   0.00000   0.57270   1.000
    C127    C    0.10800   0.50000   0.57270   1.000
    C128    C    0.60800   0.00000   0.57270   1.000
