# CIF file generated by openbabel 2.4.1, see http://openbabel.sf.net
data_I
_chemical_name_common 'image0'
_cell_length_a 28.13
_cell_length_b 14.427
_cell_length_c 10.38
_cell_angle_alpha 90
_cell_angle_beta 90
_cell_angle_gamma 90
_space_group_name_H-M_alt 'P 1'
_space_group_name_Hall 'P 1'
loop_
    _symmetry_equiv_pos_as_xyz
    x,y,z
loop_
    _atom_site_label
    _atom_site_type_symbol
    _atom_site_fract_x
    _atom_site_fract_y
    _atom_site_fract_z
    _atom_site_occupancy
    Zn1     Zn   0.19359   0.03501   0.56784   1.000
    O1      O    0.12932   0.98640   0.56910   1.000
    N1      N    0.19508   0.17100   0.59960   1.000
    N2      N    0.23819   0.01510   0.41820   1.000
    N3      N    0.27720   0.00940   0.23590   1.000
    C1      C    0.10260   0.02930   0.47460   1.000
    N4      N    0.21080   0.20440   0.72140   1.000
    C2      C    0.23590   0.00070   0.29180   1.000
    N5      N    0.28600   0.02750   0.44160   1.000
    C3      C    0.04910   0.01230   0.48760   1.000
    O2      O    0.11932   0.07000   0.38330   1.000
    N6      N    0.19370   0.98810   0.22770   1.000
    N7      N    0.30970   0.02710   0.33650   1.000
    C4      C    0.01930   0.04270   0.39380   1.000
    C5      C    0.03000   0.96370   0.59660   1.000
    H1      H    0.16550   0.19610   0.36920   1.000
    H2      H    0.16600   0.98820   0.27120   1.000
    H3      H    0.19380   0.97870   0.14200   1.000
    H4      H    0.03310   0.06820   0.31710   1.000
    H5      H    0.05060   0.93540   0.65890   1.000
    H6      H    0.16270   0.30390   0.37180   1.000
    Zn2     Zn   0.30641   0.96499   0.06784   1.000
    O3      O    0.37068   0.01360   0.06910   1.000
    N8      N    0.30492   0.82900   0.09960   1.000
    N9      N    0.26181   0.98490   0.91820   1.000
    N10     N    0.22280   0.99060   0.73590   1.000
    C6      C    0.39740   0.97070   0.97460   1.000
    N11     N    0.28920   0.79560   0.22140   1.000
    C7      C    0.26410   0.99930   0.79180   1.000
    N12     N    0.21400   0.97250   0.94160   1.000
    C8      C    0.45090   0.98770   0.98760   1.000
    O4      O    0.38068   0.93000   0.88330   1.000
    N13     N    0.30630   0.01190   0.72770   1.000
    N14     N    0.19030   0.97290   0.83650   1.000
    C9      C    0.48070   0.95730   0.89380   1.000
    C10     C    0.47000   0.03630   0.09660   1.000
    H7      H    0.33450   0.80390   0.86920   1.000
    H8      H    0.33400   0.01180   0.77120   1.000
    H9      H    0.30620   0.02130   0.64200   1.000
    H10     H    0.46690   0.93180   0.81710   1.000
    H11     H    0.44940   0.06460   0.15890   1.000
    H12     H    0.33730   0.69610   0.87180   1.000
    Zn3     Zn   0.80641   0.53501   0.43216   1.000
    O5      O    0.87068   0.48640   0.43090   1.000
    N15     N    0.80492   0.67100   0.40040   1.000
    N16     N    0.76181   0.51510   0.58180   1.000
    N17     N    0.72280   0.50940   0.76410   1.000
    C11     C    0.89740   0.52930   0.52540   1.000
    N18     N    0.78920   0.70440   0.27860   1.000
    C12     C    0.76410   0.50070   0.70820   1.000
    N19     N    0.71400   0.52750   0.55840   1.000
    C13     C    0.95090   0.51230   0.51240   1.000
    O6      O    0.88068   0.57000   0.61670   1.000
    N20     N    0.80630   0.48810   0.77230   1.000
    N21     N    0.69030   0.52710   0.66350   1.000
    C14     C    0.98070   0.54270   0.60620   1.000
    C15     C    0.97000   0.46370   0.40340   1.000
    H13     H    0.83450   0.69610   0.63080   1.000
    H14     H    0.83400   0.48820   0.72880   1.000
    H15     H    0.80620   0.47870   0.85800   1.000
    H16     H    0.96690   0.56820   0.68290   1.000
    H17     H    0.94940   0.43540   0.34110   1.000
    H18     H    0.83730   0.80390   0.62820   1.000
    Zn4     Zn   0.69359   0.46499   0.93216   1.000
    O7      O    0.62932   0.51360   0.93090   1.000
    N22     N    0.69508   0.32900   0.90040   1.000
    N23     N    0.73819   0.48490   0.08180   1.000
    N24     N    0.77720   0.49060   0.26410   1.000
    C16     C    0.60260   0.47070   0.02540   1.000
    N25     N    0.71080   0.29560   0.77860   1.000
    C17     C    0.73590   0.49930   0.20820   1.000
    N26     N    0.78600   0.47250   0.05840   1.000
    C18     C    0.54910   0.48770   0.01240   1.000
    O8      O    0.61932   0.43000   0.11670   1.000
    N27     N    0.69370   0.51190   0.27230   1.000
    N28     N    0.80970   0.47290   0.16350   1.000
    C19     C    0.51930   0.45730   0.10620   1.000
    C20     C    0.53000   0.53630   0.90340   1.000
    H19     H    0.66550   0.30390   0.13080   1.000
    H20     H    0.66600   0.51180   0.22880   1.000
    H21     H    0.69380   0.52130   0.35800   1.000
    H22     H    0.53310   0.43180   0.18290   1.000
    H23     H    0.55060   0.56460   0.84110   1.000
    H24     H    0.66270   0.19610   0.12820   1.000
    Zn5     Zn   0.80641   0.96499   0.43216   1.000
    O9      O    0.87068   0.01360   0.43090   1.000
    N29     N    0.80492   0.82900   0.40040   1.000
    N30     N    0.76181   0.98490   0.58180   1.000
    N31     N    0.72280   0.99060   0.76410   1.000
    C21     C    0.89740   0.97070   0.52540   1.000
    N32     N    0.78920   0.79560   0.27860   1.000
    C22     C    0.76410   0.99930   0.70820   1.000
    N33     N    0.71400   0.97250   0.55840   1.000
    C23     C    0.95090   0.98770   0.51240   1.000
    O10     O    0.88068   0.93000   0.61670   1.000
    N34     N    0.80630   0.01190   0.77230   1.000
    N35     N    0.69030   0.97290   0.66350   1.000
    C24     C    0.98070   0.95730   0.60620   1.000
    C25     C    0.97000   0.03630   0.40340   1.000
    H25     H    0.83450   0.80390   0.63080   1.000
    H26     H    0.83400   0.01180   0.72880   1.000
    H27     H    0.80620   0.02130   0.85800   1.000
    H28     H    0.96690   0.93180   0.68290   1.000
    H29     H    0.94940   0.06460   0.34110   1.000
    H30     H    0.83730   0.69610   0.62820   1.000
    Zn6     Zn   0.69359   0.03501   0.93216   1.000
    O11     O    0.62932   0.98640   0.93090   1.000
    N36     N    0.69508   0.17100   0.90040   1.000
    N37     N    0.73819   0.01510   0.08180   1.000
    N38     N    0.77720   0.00940   0.26410   1.000
    C26     C    0.60260   0.02930   0.02540   1.000
    N39     N    0.71080   0.20440   0.77860   1.000
    C27     C    0.73590   0.00070   0.20820   1.000
    N40     N    0.78600   0.02750   0.05840   1.000
    C28     C    0.54910   0.01230   0.01240   1.000
    O12     O    0.61932   0.07000   0.11670   1.000
    N41     N    0.69370   0.98810   0.27230   1.000
    N42     N    0.80970   0.02710   0.16350   1.000
    C29     C    0.51930   0.04270   0.10620   1.000
    C30     C    0.53000   0.96370   0.90340   1.000
    H31     H    0.66550   0.19610   0.13080   1.000
    H32     H    0.66600   0.98820   0.22880   1.000
    H33     H    0.69380   0.97870   0.35800   1.000
    H34     H    0.53310   0.06820   0.18290   1.000
    H35     H    0.55060   0.93540   0.84110   1.000
    H36     H    0.66270   0.30390   0.12820   1.000
    Zn7     Zn   0.19359   0.46499   0.56784   1.000
    O13     O    0.12932   0.51360   0.56910   1.000
    N43     N    0.19508   0.32900   0.59960   1.000
    N44     N    0.23819   0.48490   0.41820   1.000
    N45     N    0.27720   0.49060   0.23590   1.000
    C31     C    0.10260   0.47070   0.47460   1.000
    N46     N    0.21080   0.29560   0.72140   1.000
    C32     C    0.23590   0.49930   0.29180   1.000
    N47     N    0.28600   0.47250   0.44160   1.000
    C33     C    0.04910   0.48770   0.48760   1.000
    O14     O    0.11932   0.43000   0.38330   1.000
    N48     N    0.19370   0.51190   0.22770   1.000
    N49     N    0.30970   0.47290   0.33650   1.000
    C34     C    0.01930   0.45730   0.39380   1.000
    C35     C    0.03000   0.53630   0.59660   1.000
    H37     H    0.16550   0.30390   0.36920   1.000
    H38     H    0.16600   0.51180   0.27120   1.000
    H39     H    0.19380   0.52130   0.14200   1.000
    H40     H    0.03310   0.43180   0.31710   1.000
    H41     H    0.05060   0.56460   0.65890   1.000
    H42     H    0.16270   0.19610   0.37180   1.000
    Zn8     Zn   0.30641   0.53501   0.06784   1.000
    O15     O    0.37068   0.48640   0.06910   1.000
    N50     N    0.30492   0.67100   0.09960   1.000
    N51     N    0.26181   0.51510   0.91820   1.000
    N52     N    0.22280   0.50940   0.73590   1.000
    C36     C    0.39740   0.52930   0.97460   1.000
    N53     N    0.28920   0.70440   0.22140   1.000
    C37     C    0.26410   0.50070   0.79180   1.000
    N54     N    0.21400   0.52750   0.94160   1.000
    C38     C    0.45090   0.51230   0.98760   1.000
    O16     O    0.38068   0.57000   0.88330   1.000
    N55     N    0.30630   0.48810   0.72770   1.000
    N56     N    0.19030   0.52710   0.83650   1.000
    C39     C    0.48070   0.54270   0.89380   1.000
    C40     C    0.47000   0.46370   0.09660   1.000
    H43     H    0.33450   0.69610   0.86920   1.000
    H44     H    0.33400   0.48820   0.77120   1.000
    H45     H    0.30620   0.47870   0.64200   1.000
    H46     H    0.46690   0.56820   0.81710   1.000
    H47     H    0.44940   0.43540   0.15890   1.000
    H48     H    0.33730   0.80390   0.87180   1.000
    C41     C    0.18450   0.25000   0.53560   1.000
    N57     N    0.16930   0.25000   0.41150   1.000
    C42     C    0.31550   0.75000   0.03560   1.000
    N58     N    0.33070   0.75000   0.91150   1.000
    C43     C    0.81550   0.75000   0.46440   1.000
    N59     N    0.83070   0.75000   0.58850   1.000
    C44     C    0.68450   0.25000   0.96440   1.000
    N60     N    0.66930   0.25000   0.08850   1.000
