# CIF file generated by openbabel 2.4.1, see http://openbabel.sf.net
data_I
_chemical_name_common 'VARRIP_clean'
_cell_length_a 9.184
_cell_length_b 9.184
_cell_length_c 17.813
_cell_angle_alpha 90
_cell_angle_beta 90
_cell_angle_gamma 120
_space_group_name_H-M_alt 'P 1'
_space_group_name_Hall 'P 1'
loop_
    _symmetry_equiv_pos_as_xyz
    x,y,z
loop_
    _atom_site_label
    _atom_site_type_symbol
    _atom_site_fract_x
    _atom_site_fract_y
    _atom_site_fract_z
    _atom_site_occupancy
    La1     La   0.66667   0.33334   0.25000   1.000
    La2     La   0.33333   0.66666   0.75000   1.000
    Y1      Y    0.00000   0.00000   0.00000   1.000
    Y2      Y    0.00000   0.00000   0.50000   1.000
    H1      H    0.42570   0.40060   0.08200   1.000
    H2      H    0.48970   0.32270   0.02370   1.000
    H3      H    0.97490   0.57430   0.08200   1.000
    H4      H    0.83300   0.51030   0.02370   1.000
    H5      H    0.59940   0.02510   0.08200   1.000
    H6      H    0.67730   0.16700   0.02370   1.000
    H7      H    0.42570   0.40060   0.41800   1.000
    H8      H    0.48970   0.32270   0.47630   1.000
    H9      H    0.97490   0.57430   0.41800   1.000
    H10     H    0.83300   0.51030   0.47630   1.000
    H11     H    0.59940   0.02510   0.41800   1.000
    H12     H    0.67730   0.16700   0.47630   1.000
    H13     H    0.02510   0.59940   0.91800   1.000
    H14     H    0.16700   0.67730   0.97630   1.000
    H15     H    0.40060   0.42570   0.91800   1.000
    H16     H    0.32270   0.48970   0.97630   1.000
    H17     H    0.57430   0.97490   0.91800   1.000
    H18     H    0.51030   0.83300   0.97630   1.000
    H19     H    0.02510   0.59940   0.58200   1.000
    H20     H    0.16700   0.67730   0.52370   1.000
    H21     H    0.40060   0.42570   0.58200   1.000
    H22     H    0.32270   0.48970   0.52370   1.000
    H23     H    0.57430   0.97490   0.58200   1.000
    H24     H    0.51030   0.83300   0.52370   1.000
    C1      C    0.34020   0.15310   0.10460   1.000
    C2      C    0.39590   0.30450   0.05240   1.000
    C3      C    0.81290   0.65980   0.10460   1.000
    C4      C    0.90860   0.60410   0.05240   1.000
    C5      C    0.84690   0.18710   0.10460   1.000
    C6      C    0.69550   0.09140   0.05240   1.000
    C7      C    0.34020   0.15310   0.39540   1.000
    C8      C    0.39590   0.30450   0.44760   1.000
    C9      C    0.81290   0.65980   0.39540   1.000
    C10     C    0.90860   0.60410   0.44760   1.000
    C11     C    0.84690   0.18710   0.39540   1.000
    C12     C    0.69550   0.09140   0.44760   1.000
    C13     C    0.18710   0.84690   0.89540   1.000
    C14     C    0.09140   0.69550   0.94760   1.000
    C15     C    0.15310   0.34020   0.89540   1.000
    C16     C    0.30450   0.39590   0.94760   1.000
    C17     C    0.65980   0.81290   0.89540   1.000
    C18     C    0.60410   0.90860   0.94760   1.000
    C19     C    0.18710   0.84690   0.60460   1.000
    C20     C    0.09140   0.69550   0.55240   1.000
    C21     C    0.15310   0.34020   0.60460   1.000
    C22     C    0.30450   0.39590   0.55240   1.000
    C23     C    0.65980   0.81290   0.60460   1.000
    C24     C    0.60410   0.90860   0.55240   1.000
    O1      O    0.20090   0.02810   0.09150   1.000
    O2      O    0.43790   0.17100   0.15600   1.000
    O3      O    0.82720   0.79910   0.09150   1.000
    O4      O    0.73310   0.56210   0.15600   1.000
    O5      O    0.97190   0.17280   0.09150   1.000
    O6      O    0.82900   0.26690   0.15600   1.000
    O7      O    0.20090   0.02810   0.40850   1.000
    O8      O    0.43790   0.17100   0.34400   1.000
    O9      O    0.82720   0.79910   0.40850   1.000
    O10     O    0.73310   0.56210   0.34400   1.000
    O11     O    0.97190   0.17280   0.40850   1.000
    O12     O    0.82900   0.26690   0.34400   1.000
    O13     O    0.17280   0.97190   0.90850   1.000
    O14     O    0.26690   0.82900   0.84400   1.000
    O15     O    0.02810   0.20090   0.90850   1.000
    O16     O    0.17100   0.43790   0.84400   1.000
    O17     O    0.79910   0.82720   0.90850   1.000
    O18     O    0.56210   0.73310   0.84400   1.000
    O19     O    0.17280   0.97190   0.59150   1.000
    O20     O    0.26690   0.82900   0.65600   1.000
    O21     O    0.02810   0.20090   0.59150   1.000
    O22     O    0.17100   0.43790   0.65600   1.000
    O23     O    0.79910   0.82720   0.59150   1.000
    O24     O    0.56210   0.73310   0.65600   1.000
    O25     O    0.26630   0.26630   0.00000   1.000
    O26     O    0.00000   0.73370   0.00000   1.000
    O27     O    0.73370   0.00000   0.00000   1.000
    O28     O    0.26630   0.26630   0.50000   1.000
    O29     O    0.00000   0.73370   0.50000   1.000
    O30     O    0.73370   0.00000   0.50000   1.000
