# CIF file generated by openbabel 2.4.1, see http://openbabel.sf.net
data_I
_chemical_name_common 'RURQEB_clean'
_cell_length_a 10.137
_cell_length_b 10.228
_cell_length_c 12.747
_cell_angle_alpha 74.562
_cell_angle_beta 83.796
_cell_angle_gamma 60.952
_space_group_name_H-M_alt 'P 1'
_space_group_name_Hall 'P 1'
loop_
    _symmetry_equiv_pos_as_xyz
    x,y,z
loop_
    _atom_site_label
    _atom_site_type_symbol
    _atom_site_fract_x
    _atom_site_fract_y
    _atom_site_fract_z
    _atom_site_occupancy
    Zn1     Zn   0.50787   0.59543   0.71489   1.000
    Zn2     Zn   0.84511   0.88619   0.84619   1.000
    Zn3     Zn   0.49213   0.40457   0.28511   1.000
    Zn4     Zn   0.15489   0.11381   0.15381   1.000
    Zn5     Zn   0.50000   0.50000   0.00000   1.000
    H1      H    0.69930   0.68550   0.00740   1.000
    H2      H    0.68450   0.12020   0.99900   1.000
    H3      H    0.13200   0.81800   0.67400   1.000
    H4      H    0.12900   0.70800   0.99000   1.000
    H5      H    0.71900   0.75400   0.69500   1.000
    H6      H    0.69100   0.22800   0.68500   1.000
    H7      H    0.30070   0.31450   0.99260   1.000
    H8      H    0.31550   0.87980   0.00100   1.000
    H9      H    0.86800   0.18200   0.32600   1.000
    H10     H    0.87100   0.29200   0.01000   1.000
    H11     H    0.28100   0.24600   0.30500   1.000
    H12     H    0.30900   0.77200   0.31500   1.000
    C1      C    0.16170   0.77430   0.74720   1.000
    C2      C    0.16760   0.70860   0.91990   1.000
    C3      C    0.69770   0.73010   0.76640   1.000
    C4      C    0.68670   0.68860   0.93540   1.000
    C5      C    0.67650   0.23770   0.75660   1.000
    C6      C    0.66970   0.17740   0.92700   1.000
    C7      C    0.51540   0.71820   0.49210   1.000
    C8      C    0.60600   0.73910   0.39280   1.000
    C9      C    0.69730   0.61560   0.34550   1.000
    C10     C    0.60750   0.87580   0.34450   1.000
    C11     C    0.78400   0.63030   0.25520   1.000
    C12     C    0.69450   0.88810   0.25550   1.000
    C13     C    0.78520   0.76610   0.21190   1.000
    C14     C    0.88480   0.77950   0.11940   1.000
    C15     C    0.83830   0.22570   0.25280   1.000
    C16     C    0.83240   0.29140   0.08010   1.000
    C17     C    0.30230   0.26990   0.23360   1.000
    C18     C    0.31330   0.31140   0.06460   1.000
    C19     C    0.32350   0.76230   0.24340   1.000
    C20     C    0.33030   0.82260   0.07300   1.000
    C21     C    0.48460   0.28180   0.50790   1.000
    C22     C    0.39400   0.26090   0.60720   1.000
    C23     C    0.30270   0.38440   0.65450   1.000
    C24     C    0.39250   0.12420   0.65550   1.000
    C25     C    0.21600   0.36970   0.74480   1.000
    C26     C    0.30550   0.11190   0.74450   1.000
    C27     C    0.21480   0.23390   0.78810   1.000
    C28     C    0.11520   0.22050   0.88060   1.000
    N1      N    0.30550   0.68400   0.77890   1.000
    N2      N    0.30980   0.64290   0.89060   1.000
    N3      N    0.06980   0.79120   0.83400   1.000
    N4      N    0.62180   0.65510   0.79570   1.000
    N5      N    0.61610   0.62650   0.90820   1.000
    N6      N    0.74110   0.75880   0.85100   1.000
    N7      N    0.59990   0.36820   0.78650   1.000
    N8      N    0.59510   0.32880   0.89870   1.000
    N9      N    0.72310   0.11230   0.84110   1.000
    N10     N    0.69450   0.31600   0.22110   1.000
    N11     N    0.69020   0.35710   0.10940   1.000
    N12     N    0.93020   0.20880   0.16600   1.000
    N13     N    0.37820   0.34490   0.20430   1.000
    N14     N    0.38390   0.37350   0.09180   1.000
    N15     N    0.25890   0.24120   0.14900   1.000
    N16     N    0.40010   0.63180   0.21350   1.000
    N17     N    0.40490   0.67120   0.10130   1.000
    N18     N    0.27690   0.88770   0.15890   1.000
    O1      O    0.59450   0.61200   0.57250   1.000
    O2      O    0.38020   0.80600   0.49230   1.000
    O3      O    0.02380   0.73020   0.14780   1.000
    O4      O    0.83570   0.83310   0.02310   1.000
    O5      O    0.40550   0.38800   0.42750   1.000
    O6      O    0.61980   0.19400   0.50770   1.000
    O7      O    0.97620   0.26980   0.85220   1.000
    O8      O    0.16430   0.16690   0.97690   1.000
    F1      F    0.69840   0.47990   0.38810   1.000
    F2      F    0.52940   0.99650   0.38960   1.000
    F3      F    0.87040   0.50820   0.21370   1.000
    F4      F    0.69390   0.02590   0.21370   1.000
    F5      F    0.30160   0.52010   0.61190   1.000
    F6      F    0.47060   0.00350   0.61040   1.000
    F7      F    0.12960   0.49180   0.78630   1.000
    F8      F    0.30610   0.97410   0.78630   1.000
