# CIF file generated by openbabel 2.4.1, see http://openbabel.sf.net
data_I
_chemical_name_common 'image0'
_cell_length_a 26.7863
_cell_length_b 26.7863
_cell_length_c 26.7863
_cell_angle_alpha 90
_cell_angle_beta 90
_cell_angle_gamma 90
_space_group_name_H-M_alt 'P 1'
_space_group_name_Hall 'P 1'
loop_
    _symmetry_equiv_pos_as_xyz
    x,y,z
loop_
    _atom_site_label
    _atom_site_type_symbol
    _atom_site_fract_x
    _atom_site_fract_y
    _atom_site_fract_z
    _atom_site_occupancy
    C1      C    0.29400   0.35540   0.49220   1.000
    C2      C    0.25580   0.32040   0.49190   1.000
    H1      H    0.22200   0.32970   0.48650   1.000
    Cl1     Cl   0.27610   0.41800   0.48190   1.000
    H2      H    0.28520   0.38970   0.48660   1.000
    Cl2     Cl   0.27830   0.40550   0.55990   1.000
    H3      H    0.29590   0.38050   0.54660   1.000
    C3      C    0.29930   0.35220   0.52490   1.000
    C4      C    0.26300   0.31450   0.52420   1.000
    H4      H    0.23240   0.32010   0.54120   1.000
    C5      C    0.29400   0.85540   0.99220   1.000
    C6      C    0.25580   0.82040   0.99190   1.000
    H5      H    0.22200   0.82970   0.98650   1.000
    Cl3     Cl   0.27610   0.91800   0.98190   1.000
    H6      H    0.28520   0.88970   0.98660   1.000
    Cl4     Cl   0.27830   0.90550   0.05990   1.000
    H7      H    0.29590   0.88050   0.04660   1.000
    C7      C    0.29930   0.85220   0.02490   1.000
    C8      C    0.26300   0.81450   0.02420   1.000
    H8      H    0.23240   0.82010   0.04120   1.000
    C9      C    0.79400   0.35540   0.99220   1.000
    C10     C    0.75580   0.32040   0.99190   1.000
    H9      H    0.72200   0.32970   0.98650   1.000
    Cl5     Cl   0.77610   0.41800   0.98190   1.000
    H10     H    0.78520   0.38970   0.98660   1.000
    Cl6     Cl   0.77830   0.40550   0.05990   1.000
    H11     H    0.79590   0.38050   0.04660   1.000
    C11     C    0.79930   0.35220   0.02490   1.000
    C12     C    0.76300   0.31450   0.02420   1.000
    H12     H    0.73240   0.32010   0.04120   1.000
    C13     C    0.79400   0.85540   0.49220   1.000
    C14     C    0.75580   0.82040   0.49190   1.000
    H13     H    0.72200   0.82970   0.48650   1.000
    Cl7     Cl   0.77610   0.91800   0.48190   1.000
    H14     H    0.78520   0.88970   0.48660   1.000
    Cl8     Cl   0.77830   0.90550   0.55990   1.000
    H15     H    0.79590   0.88050   0.54660   1.000
    C15     C    0.79930   0.85220   0.52490   1.000
    C16     C    0.76300   0.81450   0.52420   1.000
    H16     H    0.73240   0.82010   0.54120   1.000
    C17     C    0.70600   0.64460   0.49220   1.000
    C18     C    0.74420   0.67960   0.49190   1.000
    H17     H    0.77800   0.67030   0.48650   1.000
    Cl9     Cl   0.72390   0.58200   0.48190   1.000
    H18     H    0.71480   0.61030   0.48660   1.000
    Cl10    Cl   0.72170   0.59450   0.55990   1.000
    H19     H    0.70410   0.61950   0.54660   1.000
    C19     C    0.70070   0.64780   0.52490   1.000
    C20     C    0.73700   0.68550   0.52420   1.000
    H20     H    0.76760   0.67990   0.54120   1.000
    C21     C    0.70600   0.14460   0.99220   1.000
    C22     C    0.74420   0.17960   0.99190   1.000
    H21     H    0.77800   0.17030   0.98650   1.000
    Cl11    Cl   0.72390   0.08200   0.98190   1.000
    H22     H    0.71480   0.11030   0.98660   1.000
    Cl12    Cl   0.72170   0.09450   0.05990   1.000
    H23     H    0.70410   0.11950   0.04660   1.000
    C23     C    0.70070   0.14780   0.02490   1.000
    C24     C    0.73700   0.18550   0.02420   1.000
    H24     H    0.76760   0.17990   0.04120   1.000
    C25     C    0.20600   0.64460   0.99220   1.000
    C26     C    0.24420   0.67960   0.99190   1.000
    H25     H    0.27800   0.67030   0.98650   1.000
    Cl13    Cl   0.22390   0.58200   0.98190   1.000
    H26     H    0.21480   0.61030   0.98660   1.000
    Cl14    Cl   0.22170   0.59450   0.05990   1.000
    H27     H    0.20410   0.61950   0.04660   1.000
    C27     C    0.20070   0.64780   0.02490   1.000
    C28     C    0.23700   0.68550   0.02420   1.000
    H28     H    0.26760   0.67990   0.04120   1.000
    C29     C    0.20600   0.14460   0.49220   1.000
    C30     C    0.24420   0.17960   0.49190   1.000
    H29     H    0.27800   0.17030   0.48650   1.000
    Cl15    Cl   0.22390   0.08200   0.48190   1.000
    H30     H    0.21480   0.11030   0.48660   1.000
    Cl16    Cl   0.22170   0.09450   0.55990   1.000
    H31     H    0.20410   0.11950   0.54660   1.000
    C31     C    0.20070   0.14780   0.52490   1.000
    C32     C    0.23700   0.18550   0.52420   1.000
    H32     H    0.26760   0.17990   0.54120   1.000
    C33     C    0.70600   0.35540   0.50780   1.000
    C34     C    0.74420   0.32040   0.50810   1.000
    H33     H    0.77800   0.32970   0.51350   1.000
    Cl17    Cl   0.72390   0.41800   0.51810   1.000
    H34     H    0.71480   0.38970   0.51340   1.000
    Cl18    Cl   0.72170   0.40550   0.44010   1.000
    H35     H    0.70410   0.38050   0.45340   1.000
    C35     C    0.70070   0.35220   0.47510   1.000
    C36     C    0.73700   0.31450   0.47580   1.000
    H36     H    0.76760   0.32010   0.45880   1.000
    C37     C    0.70600   0.85540   0.00780   1.000
    C38     C    0.74420   0.82040   0.00810   1.000
    H37     H    0.77800   0.82970   0.01350   1.000
    Cl19    Cl   0.72390   0.91800   0.01810   1.000
    H38     H    0.71480   0.88970   0.01340   1.000
    Cl20    Cl   0.72170   0.90550   0.94010   1.000
    H39     H    0.70410   0.88050   0.95340   1.000
    C39     C    0.70070   0.85220   0.97510   1.000
    C40     C    0.73700   0.81450   0.97580   1.000
    H40     H    0.76760   0.82010   0.95880   1.000
    C41     C    0.20600   0.35540   0.00780   1.000
    C42     C    0.24420   0.32040   0.00810   1.000
    H41     H    0.27800   0.32970   0.01350   1.000
    Cl21    Cl   0.22390   0.41800   0.01810   1.000
    H42     H    0.21480   0.38970   0.01340   1.000
    Cl22    Cl   0.22170   0.40550   0.94010   1.000
    H43     H    0.20410   0.38050   0.95340   1.000
    C43     C    0.20070   0.35220   0.97510   1.000
    C44     C    0.23700   0.31450   0.97580   1.000
    H44     H    0.26760   0.32010   0.95880   1.000
    C45     C    0.20600   0.85540   0.50780   1.000
    C46     C    0.24420   0.82040   0.50810   1.000
    H45     H    0.27800   0.82970   0.51350   1.000
    Cl23    Cl   0.22390   0.91800   0.51810   1.000
    H46     H    0.21480   0.88970   0.51340   1.000
    Cl24    Cl   0.22170   0.90550   0.44010   1.000
    H47     H    0.20410   0.88050   0.45340   1.000
    C47     C    0.20070   0.85220   0.47510   1.000
    C48     C    0.23700   0.81450   0.47580   1.000
    H48     H    0.26760   0.82010   0.45880   1.000
    C49     C    0.29400   0.64460   0.50780   1.000
    C50     C    0.25580   0.67960   0.50810   1.000
    H49     H    0.22200   0.67030   0.51350   1.000
    Cl25    Cl   0.27610   0.58200   0.51810   1.000
    H50     H    0.28520   0.61030   0.51340   1.000
    Cl26    Cl   0.27830   0.59450   0.44010   1.000
    H51     H    0.29590   0.61950   0.45340   1.000
    C51     C    0.29930   0.64780   0.47510   1.000
    C52     C    0.26300   0.68550   0.47580   1.000
    H52     H    0.23240   0.67990   0.45880   1.000
    C53     C    0.29400   0.14460   0.00780   1.000
    C54     C    0.25580   0.17960   0.00810   1.000
    H53     H    0.22200   0.17030   0.01350   1.000
    Cl27    Cl   0.27610   0.08200   0.01810   1.000
    H54     H    0.28520   0.11030   0.01340   1.000
    Cl28    Cl   0.27830   0.09450   0.94010   1.000
    H55     H    0.29590   0.11950   0.95340   1.000
    C55     C    0.29930   0.14780   0.97510   1.000
    C56     C    0.26300   0.18550   0.97580   1.000
    H56     H    0.23240   0.17990   0.95880   1.000
    C57     C    0.79400   0.64460   0.00780   1.000
    C58     C    0.75580   0.67960   0.00810   1.000
    H57     H    0.72200   0.67030   0.01350   1.000
    Cl29    Cl   0.77610   0.58200   0.01810   1.000
    H58     H    0.78520   0.61030   0.01340   1.000
    Cl30    Cl   0.77830   0.59450   0.94010   1.000
    H59     H    0.79590   0.61950   0.95340   1.000
    C59     C    0.79930   0.64780   0.97510   1.000
    C60     C    0.76300   0.68550   0.97580   1.000
    H60     H    0.73240   0.67990   0.95880   1.000
    C61     C    0.79400   0.14460   0.50780   1.000
    C62     C    0.75580   0.17960   0.50810   1.000
    H61     H    0.72200   0.17030   0.51350   1.000
    Cl31    Cl   0.77610   0.08200   0.51810   1.000
    H62     H    0.78520   0.11030   0.51340   1.000
    Cl32    Cl   0.77830   0.09450   0.44010   1.000
    H63     H    0.79590   0.11950   0.45340   1.000
    C63     C    0.79930   0.14780   0.47510   1.000
    C64     C    0.76300   0.18550   0.47580   1.000
    H64     H    0.73240   0.17990   0.45880   1.000
    C65     C    0.49220   0.29400   0.35540   1.000
    C66     C    0.49190   0.25580   0.32040   1.000
    H65     H    0.48650   0.22200   0.32970   1.000
    Cl33    Cl   0.48190   0.27610   0.41800   1.000
    H66     H    0.48660   0.28520   0.38970   1.000
    Cl34    Cl   0.55990   0.27830   0.40550   1.000
    H67     H    0.54660   0.29590   0.38050   1.000
    C67     C    0.52490   0.29930   0.35220   1.000
    C68     C    0.52420   0.26300   0.31450   1.000
    H68     H    0.54120   0.23240   0.32010   1.000
    C69     C    0.49220   0.79400   0.85540   1.000
    C70     C    0.49190   0.75580   0.82040   1.000
    H69     H    0.48650   0.72200   0.82970   1.000
    Cl35    Cl   0.48190   0.77610   0.91800   1.000
    H70     H    0.48660   0.78520   0.88970   1.000
    Cl36    Cl   0.55990   0.77830   0.90550   1.000
    H71     H    0.54660   0.79590   0.88050   1.000
    C71     C    0.52490   0.79930   0.85220   1.000
    C72     C    0.52420   0.76300   0.81450   1.000
    H72     H    0.54120   0.73240   0.82010   1.000
    C73     C    0.99220   0.29400   0.85540   1.000
    C74     C    0.99190   0.25580   0.82040   1.000
    H73     H    0.98650   0.22200   0.82970   1.000
    Cl37    Cl   0.98190   0.27610   0.91800   1.000
    H74     H    0.98660   0.28520   0.88970   1.000
    Cl38    Cl   0.05990   0.27830   0.90550   1.000
    H75     H    0.04660   0.29590   0.88050   1.000
    C75     C    0.02490   0.29930   0.85220   1.000
    C76     C    0.02420   0.26300   0.81450   1.000
    H76     H    0.04120   0.23240   0.82010   1.000
    C77     C    0.99220   0.79400   0.35540   1.000
    C78     C    0.99190   0.75580   0.32040   1.000
    H77     H    0.98650   0.72200   0.32970   1.000
    Cl39    Cl   0.98190   0.77610   0.41800   1.000
    H78     H    0.98660   0.78520   0.38970   1.000
    Cl40    Cl   0.05990   0.77830   0.40550   1.000
    H79     H    0.04660   0.79590   0.38050   1.000
    C79     C    0.02490   0.79930   0.35220   1.000
    C80     C    0.02420   0.76300   0.31450   1.000
    H80     H    0.04120   0.73240   0.32010   1.000
    C81     C    0.49220   0.70600   0.64460   1.000
    C82     C    0.49190   0.74420   0.67960   1.000
    H81     H    0.48650   0.77800   0.67030   1.000
    Cl41    Cl   0.48190   0.72390   0.58200   1.000
    H82     H    0.48660   0.71480   0.61030   1.000
    Cl42    Cl   0.55990   0.72170   0.59450   1.000
    H83     H    0.54660   0.70410   0.61950   1.000
    C83     C    0.52490   0.70070   0.64780   1.000
    C84     C    0.52420   0.73700   0.68550   1.000
    H84     H    0.54120   0.76760   0.67990   1.000
    C85     C    0.49220   0.20600   0.14460   1.000
    C86     C    0.49190   0.24420   0.17960   1.000
    H85     H    0.48650   0.27800   0.17030   1.000
    Cl43    Cl   0.48190   0.22390   0.08200   1.000
    H86     H    0.48660   0.21480   0.11030   1.000
    Cl44    Cl   0.55990   0.22170   0.09450   1.000
    H87     H    0.54660   0.20410   0.11950   1.000
    C87     C    0.52490   0.20070   0.14780   1.000
    C88     C    0.52420   0.23700   0.18550   1.000
    H88     H    0.54120   0.26760   0.17990   1.000
    C89     C    0.99220   0.70600   0.14460   1.000
    C90     C    0.99190   0.74420   0.17960   1.000
    H89     H    0.98650   0.77800   0.17030   1.000
    Cl45    Cl   0.98190   0.72390   0.08200   1.000
    H90     H    0.98660   0.71480   0.11030   1.000
    Cl46    Cl   0.05990   0.72170   0.09450   1.000
    H91     H    0.04660   0.70410   0.11950   1.000
    C91     C    0.02490   0.70070   0.14780   1.000
    C92     C    0.02420   0.73700   0.18550   1.000
    H92     H    0.04120   0.76760   0.17990   1.000
    C93     C    0.99220   0.20600   0.64460   1.000
    C94     C    0.99190   0.24420   0.67960   1.000
    H93     H    0.98650   0.27800   0.67030   1.000
    Cl47    Cl   0.98190   0.22390   0.58200   1.000
    H94     H    0.98660   0.21480   0.61030   1.000
    Cl48    Cl   0.05990   0.22170   0.59450   1.000
    H95     H    0.04660   0.20410   0.61950   1.000
    C95     C    0.02490   0.20070   0.64780   1.000
    C96     C    0.02420   0.23700   0.68550   1.000
    H96     H    0.04120   0.26760   0.67990   1.000
    C97     C    0.50780   0.70600   0.35540   1.000
    C98     C    0.50810   0.74420   0.32040   1.000
    H97     H    0.51350   0.77800   0.32970   1.000
    Cl49    Cl   0.51810   0.72390   0.41800   1.000
    H98     H    0.51340   0.71480   0.38970   1.000
    Cl50    Cl   0.44010   0.72170   0.40550   1.000
    H99     H    0.45340   0.70410   0.38050   1.000
    C99     C    0.47510   0.70070   0.35220   1.000
    C100    C    0.47580   0.73700   0.31450   1.000
    H100    H    0.45880   0.76760   0.32010   1.000
    C101    C    0.50780   0.20600   0.85540   1.000
    C102    C    0.50810   0.24420   0.82040   1.000
    H101    H    0.51350   0.27800   0.82970   1.000
    Cl51    Cl   0.51810   0.22390   0.91800   1.000
    H102    H    0.51340   0.21480   0.88970   1.000
    Cl52    Cl   0.44010   0.22170   0.90550   1.000
    H103    H    0.45340   0.20410   0.88050   1.000
    C103    C    0.47510   0.20070   0.85220   1.000
    C104    C    0.47580   0.23700   0.81450   1.000
    H104    H    0.45880   0.26760   0.82010   1.000
    C105    C    0.00780   0.70600   0.85540   1.000
    C106    C    0.00810   0.74420   0.82040   1.000
    H105    H    0.01350   0.77800   0.82970   1.000
    Cl53    Cl   0.01810   0.72390   0.91800   1.000
    H106    H    0.01340   0.71480   0.88970   1.000
    Cl54    Cl   0.94010   0.72170   0.90550   1.000
    H107    H    0.95340   0.70410   0.88050   1.000
    C107    C    0.97510   0.70070   0.85220   1.000
    C108    C    0.97580   0.73700   0.81450   1.000
    H108    H    0.95880   0.76760   0.82010   1.000
    C109    C    0.00780   0.20600   0.35540   1.000
    C110    C    0.00810   0.24420   0.32040   1.000
    H109    H    0.01350   0.27800   0.32970   1.000
    Cl55    Cl   0.01810   0.22390   0.41800   1.000
    H110    H    0.01340   0.21480   0.38970   1.000
    Cl56    Cl   0.94010   0.22170   0.40550   1.000
    H111    H    0.95340   0.20410   0.38050   1.000
    C111    C    0.97510   0.20070   0.35220   1.000
    C112    C    0.97580   0.23700   0.31450   1.000
    H112    H    0.95880   0.26760   0.32010   1.000
    C113    C    0.50780   0.29400   0.64460   1.000
    C114    C    0.50810   0.25580   0.67960   1.000
    H113    H    0.51350   0.22200   0.67030   1.000
    Cl57    Cl   0.51810   0.27610   0.58200   1.000
    H114    H    0.51340   0.28520   0.61030   1.000
    Cl58    Cl   0.44010   0.27830   0.59450   1.000
    H115    H    0.45340   0.29590   0.61950   1.000
    C115    C    0.47510   0.29930   0.64780   1.000
    C116    C    0.47580   0.26300   0.68550   1.000
    H116    H    0.45880   0.23240   0.67990   1.000
    C117    C    0.50780   0.79400   0.14460   1.000
    C118    C    0.50810   0.75580   0.17960   1.000
    H117    H    0.51350   0.72200   0.17030   1.000
    Cl59    Cl   0.51810   0.77610   0.08200   1.000
    H118    H    0.51340   0.78520   0.11030   1.000
    Cl60    Cl   0.44010   0.77830   0.09450   1.000
    H119    H    0.45340   0.79590   0.11950   1.000
    C119    C    0.47510   0.79930   0.14780   1.000
    C120    C    0.47580   0.76300   0.18550   1.000
    H120    H    0.45880   0.73240   0.17990   1.000
    C121    C    0.00780   0.29400   0.14460   1.000
    C122    C    0.00810   0.25580   0.17960   1.000
    H121    H    0.01350   0.22200   0.17030   1.000
    Cl61    Cl   0.01810   0.27610   0.08200   1.000
    H122    H    0.01340   0.28520   0.11030   1.000
    Cl62    Cl   0.94010   0.27830   0.09450   1.000
    H123    H    0.95340   0.29590   0.11950   1.000
    C123    C    0.97510   0.29930   0.14780   1.000
    C124    C    0.97580   0.26300   0.18550   1.000
    H124    H    0.95880   0.23240   0.17990   1.000
    C125    C    0.00780   0.79400   0.64460   1.000
    C126    C    0.00810   0.75580   0.67960   1.000
    H125    H    0.01350   0.72200   0.67030   1.000
    Cl63    Cl   0.01810   0.77610   0.58200   1.000
    H126    H    0.01340   0.78520   0.61030   1.000
    Cl64    Cl   0.94010   0.77830   0.59450   1.000
    H127    H    0.95340   0.79590   0.61950   1.000
    C127    C    0.97510   0.79930   0.64780   1.000
    C128    C    0.97580   0.76300   0.68550   1.000
    H128    H    0.95880   0.73240   0.67990   1.000
    C129    C    0.35540   0.49220   0.29400   1.000
    C130    C    0.32040   0.49190   0.25580   1.000
    H129    H    0.32970   0.48650   0.22200   1.000
    Cl65    Cl   0.41800   0.48190   0.27610   1.000
    H130    H    0.38970   0.48660   0.28520   1.000
    Cl66    Cl   0.40550   0.55990   0.27830   1.000
    H131    H    0.38050   0.54660   0.29590   1.000
    C131    C    0.35220   0.52490   0.29930   1.000
    C132    C    0.31450   0.52420   0.26300   1.000
    H132    H    0.32010   0.54120   0.23240   1.000
    C133    C    0.35540   0.99220   0.79400   1.000
    C134    C    0.32040   0.99190   0.75580   1.000
    H133    H    0.32970   0.98650   0.72200   1.000
    Cl67    Cl   0.41800   0.98190   0.77610   1.000
    H134    H    0.38970   0.98660   0.78520   1.000
    Cl68    Cl   0.40550   0.05990   0.77830   1.000
    H135    H    0.38050   0.04660   0.79590   1.000
    C135    C    0.35220   0.02490   0.79930   1.000
    C136    C    0.31450   0.02420   0.76300   1.000
    H136    H    0.32010   0.04120   0.73240   1.000
    C137    C    0.85540   0.49220   0.79400   1.000
    C138    C    0.82040   0.49190   0.75580   1.000
    H137    H    0.82970   0.48650   0.72200   1.000
    Cl69    Cl   0.91800   0.48190   0.77610   1.000
    H138    H    0.88970   0.48660   0.78520   1.000
    Cl70    Cl   0.90550   0.55990   0.77830   1.000
    H139    H    0.88050   0.54660   0.79590   1.000
    C139    C    0.85220   0.52490   0.79930   1.000
    C140    C    0.81450   0.52420   0.76300   1.000
    H140    H    0.82010   0.54120   0.73240   1.000
    C141    C    0.85540   0.99220   0.29400   1.000
    C142    C    0.82040   0.99190   0.25580   1.000
    H141    H    0.82970   0.98650   0.22200   1.000
    Cl71    Cl   0.91800   0.98190   0.27610   1.000
    H142    H    0.88970   0.98660   0.28520   1.000
    Cl72    Cl   0.90550   0.05990   0.27830   1.000
    H143    H    0.88050   0.04660   0.29590   1.000
    C143    C    0.85220   0.02490   0.29930   1.000
    C144    C    0.81450   0.02420   0.26300   1.000
    H144    H    0.82010   0.04120   0.23240   1.000
    C145    C    0.64460   0.49220   0.70600   1.000
    C146    C    0.67960   0.49190   0.74420   1.000
    H145    H    0.67030   0.48650   0.77800   1.000
    Cl73    Cl   0.58200   0.48190   0.72390   1.000
    H146    H    0.61030   0.48660   0.71480   1.000
    Cl74    Cl   0.59450   0.55990   0.72170   1.000
    H147    H    0.61950   0.54660   0.70410   1.000
    C147    C    0.64780   0.52490   0.70070   1.000
    C148    C    0.68550   0.52420   0.73700   1.000
    H148    H    0.67990   0.54120   0.76760   1.000
    C149    C    0.64460   0.99220   0.20600   1.000
    C150    C    0.67960   0.99190   0.24420   1.000
    H149    H    0.67030   0.98650   0.27800   1.000
    Cl75    Cl   0.58200   0.98190   0.22390   1.000
    H150    H    0.61030   0.98660   0.21480   1.000
    Cl76    Cl   0.59450   0.05990   0.22170   1.000
    H151    H    0.61950   0.04660   0.20410   1.000
    C151    C    0.64780   0.02490   0.20070   1.000
    C152    C    0.68550   0.02420   0.23700   1.000
    H152    H    0.67990   0.04120   0.26760   1.000
    C153    C    0.14460   0.49220   0.20600   1.000
    C154    C    0.17960   0.49190   0.24420   1.000
    H153    H    0.17030   0.48650   0.27800   1.000
    Cl77    Cl   0.08200   0.48190   0.22390   1.000
    H154    H    0.11030   0.48660   0.21480   1.000
    Cl78    Cl   0.09450   0.55990   0.22170   1.000
    H155    H    0.11950   0.54660   0.20410   1.000
    C155    C    0.14780   0.52490   0.20070   1.000
    C156    C    0.18550   0.52420   0.23700   1.000
    H156    H    0.17990   0.54120   0.26760   1.000
    C157    C    0.14460   0.99220   0.70600   1.000
    C158    C    0.17960   0.99190   0.74420   1.000
    H157    H    0.17030   0.98650   0.77800   1.000
    Cl79    Cl   0.08200   0.98190   0.72390   1.000
    H158    H    0.11030   0.98660   0.71480   1.000
    Cl80    Cl   0.09450   0.05990   0.72170   1.000
    H159    H    0.11950   0.04660   0.70410   1.000
    C159    C    0.14780   0.02490   0.70070   1.000
    C160    C    0.18550   0.02420   0.73700   1.000
    H160    H    0.17990   0.04120   0.76760   1.000
    C161    C    0.35540   0.50780   0.70600   1.000
    C162    C    0.32040   0.50810   0.74420   1.000
    H161    H    0.32970   0.51350   0.77800   1.000
    Cl81    Cl   0.41800   0.51810   0.72390   1.000
    H162    H    0.38970   0.51340   0.71480   1.000
    Cl82    Cl   0.40550   0.44010   0.72170   1.000
    H163    H    0.38050   0.45340   0.70410   1.000
    C163    C    0.35220   0.47510   0.70070   1.000
    C164    C    0.31450   0.47580   0.73700   1.000
    H164    H    0.32010   0.45880   0.76760   1.000
    C165    C    0.35540   0.00780   0.20600   1.000
    C166    C    0.32040   0.00810   0.24420   1.000
    H165    H    0.32970   0.01350   0.27800   1.000
    Cl83    Cl   0.41800   0.01810   0.22390   1.000
    H166    H    0.38970   0.01340   0.21480   1.000
    Cl84    Cl   0.40550   0.94010   0.22170   1.000
    H167    H    0.38050   0.95340   0.20410   1.000
    C167    C    0.35220   0.97510   0.20070   1.000
    C168    C    0.31450   0.97580   0.23700   1.000
    H168    H    0.32010   0.95880   0.26760   1.000
    C169    C    0.85540   0.50780   0.20600   1.000
    C170    C    0.82040   0.50810   0.24420   1.000
    H169    H    0.82970   0.51350   0.27800   1.000
    Cl85    Cl   0.91800   0.51810   0.22390   1.000
    H170    H    0.88970   0.51340   0.21480   1.000
    Cl86    Cl   0.90550   0.44010   0.22170   1.000
    H171    H    0.88050   0.45340   0.20410   1.000
    C171    C    0.85220   0.47510   0.20070   1.000
    C172    C    0.81450   0.47580   0.23700   1.000
    H172    H    0.82010   0.45880   0.26760   1.000
    C173    C    0.85540   0.00780   0.70600   1.000
    C174    C    0.82040   0.00810   0.74420   1.000
    H173    H    0.82970   0.01350   0.77800   1.000
    Cl87    Cl   0.91800   0.01810   0.72390   1.000
    H174    H    0.88970   0.01340   0.71480   1.000
    Cl88    Cl   0.90550   0.94010   0.72170   1.000
    H175    H    0.88050   0.95340   0.70410   1.000
    C175    C    0.85220   0.97510   0.70070   1.000
    C176    C    0.81450   0.97580   0.73700   1.000
    H176    H    0.82010   0.95880   0.76760   1.000
    C177    C    0.64460   0.50780   0.29400   1.000
    C178    C    0.67960   0.50810   0.25580   1.000
    H177    H    0.67030   0.51350   0.22200   1.000
    Cl89    Cl   0.58200   0.51810   0.27610   1.000
    H178    H    0.61030   0.51340   0.28520   1.000
    Cl90    Cl   0.59450   0.44010   0.27830   1.000
    H179    H    0.61950   0.45340   0.29590   1.000
    C179    C    0.64780   0.47510   0.29930   1.000
    C180    C    0.68550   0.47580   0.26300   1.000
    H180    H    0.67990   0.45880   0.23240   1.000
    C181    C    0.64460   0.00780   0.79400   1.000
    C182    C    0.67960   0.00810   0.75580   1.000
    H181    H    0.67030   0.01350   0.72200   1.000
    Cl91    Cl   0.58200   0.01810   0.77610   1.000
    H182    H    0.61030   0.01340   0.78520   1.000
    Cl92    Cl   0.59450   0.94010   0.77830   1.000
    H183    H    0.61950   0.95340   0.79590   1.000
    C183    C    0.64780   0.97510   0.79930   1.000
    C184    C    0.68550   0.97580   0.76300   1.000
    H184    H    0.67990   0.95880   0.73240   1.000
    C185    C    0.14460   0.50780   0.79400   1.000
    C186    C    0.17960   0.50810   0.75580   1.000
    H185    H    0.17030   0.51350   0.72200   1.000
    Cl93    Cl   0.08200   0.51810   0.77610   1.000
    H186    H    0.11030   0.51340   0.78520   1.000
    Cl94    Cl   0.09450   0.44010   0.77830   1.000
    H187    H    0.11950   0.45340   0.79590   1.000
    C187    C    0.14780   0.47510   0.79930   1.000
    C188    C    0.18550   0.47580   0.76300   1.000
    H188    H    0.17990   0.45880   0.73240   1.000
    C189    C    0.14460   0.00780   0.29400   1.000
    C190    C    0.17960   0.00810   0.25580   1.000
    H189    H    0.17030   0.01350   0.22200   1.000
    Cl95    Cl   0.08200   0.01810   0.27610   1.000
    H190    H    0.11030   0.01340   0.28520   1.000
    Cl96    Cl   0.09450   0.94010   0.27830   1.000
    H191    H    0.11950   0.95340   0.29590   1.000
    C191    C    0.14780   0.97510   0.29930   1.000
    C192    C    0.18550   0.97580   0.26300   1.000
    H192    H    0.17990   0.95880   0.23240   1.000
    C193    C    0.35540   0.29400   0.50780   1.000
    C194    C    0.32040   0.25580   0.50810   1.000
    H193    H    0.32970   0.22200   0.51350   1.000
    Cl97    Cl   0.41800   0.27610   0.51810   1.000
    H194    H    0.38970   0.28520   0.51340   1.000
    Cl98    Cl   0.40550   0.27830   0.44010   1.000
    H195    H    0.38050   0.29590   0.45340   1.000
    C195    C    0.35220   0.29930   0.47510   1.000
    C196    C    0.31450   0.26300   0.47580   1.000
    H196    H    0.32010   0.23240   0.45880   1.000
    C197    C    0.35540   0.79400   0.00780   1.000
    C198    C    0.32040   0.75580   0.00810   1.000
    H197    H    0.32970   0.72200   0.01350   1.000
    Cl99    Cl   0.41800   0.77610   0.01810   1.000
    H198    H    0.38970   0.78520   0.01340   1.000
    Cl100   Cl   0.40550   0.77830   0.94010   1.000
    H199    H    0.38050   0.79590   0.95340   1.000
    C199    C    0.35220   0.79930   0.97510   1.000
    C200    C    0.31450   0.76300   0.97580   1.000
    H200    H    0.32010   0.73240   0.95880   1.000
    C201    C    0.85540   0.29400   0.00780   1.000
    C202    C    0.82040   0.25580   0.00810   1.000
    H201    H    0.82970   0.22200   0.01350   1.000
    Cl101   Cl   0.91800   0.27610   0.01810   1.000
    H202    H    0.88970   0.28520   0.01340   1.000
    Cl102   Cl   0.90550   0.27830   0.94010   1.000
    H203    H    0.88050   0.29590   0.95340   1.000
    C203    C    0.85220   0.29930   0.97510   1.000
    C204    C    0.81450   0.26300   0.97580   1.000
    H204    H    0.82010   0.23240   0.95880   1.000
    C205    C    0.85540   0.79400   0.50780   1.000
    C206    C    0.82040   0.75580   0.50810   1.000
    H205    H    0.82970   0.72200   0.51350   1.000
    Cl103   Cl   0.91800   0.77610   0.51810   1.000
    H206    H    0.88970   0.78520   0.51340   1.000
    Cl104   Cl   0.90550   0.77830   0.44010   1.000
    H207    H    0.88050   0.79590   0.45340   1.000
    C207    C    0.85220   0.79930   0.47510   1.000
    C208    C    0.81450   0.76300   0.47580   1.000
    H208    H    0.82010   0.73240   0.45880   1.000
    C209    C    0.64460   0.70600   0.50780   1.000
    C210    C    0.67960   0.74420   0.50810   1.000
    H209    H    0.67030   0.77800   0.51350   1.000
    Cl105   Cl   0.58200   0.72390   0.51810   1.000
    H210    H    0.61030   0.71480   0.51340   1.000
    Cl106   Cl   0.59450   0.72170   0.44010   1.000
    H211    H    0.61950   0.70410   0.45340   1.000
    C211    C    0.64780   0.70070   0.47510   1.000
    C212    C    0.68550   0.73700   0.47580   1.000
    H212    H    0.67990   0.76760   0.45880   1.000
    C213    C    0.64460   0.20600   0.00780   1.000
    C214    C    0.67960   0.24420   0.00810   1.000
    H213    H    0.67030   0.27800   0.01350   1.000
    Cl107   Cl   0.58200   0.22390   0.01810   1.000
    H214    H    0.61030   0.21480   0.01340   1.000
    Cl108   Cl   0.59450   0.22170   0.94010   1.000
    H215    H    0.61950   0.20410   0.95340   1.000
    C215    C    0.64780   0.20070   0.97510   1.000
    C216    C    0.68550   0.23700   0.97580   1.000
    H216    H    0.67990   0.26760   0.95880   1.000
    C217    C    0.14460   0.70600   0.00780   1.000
    C218    C    0.17960   0.74420   0.00810   1.000
    H217    H    0.17030   0.77800   0.01350   1.000
    Cl109   Cl   0.08200   0.72390   0.01810   1.000
    H218    H    0.11030   0.71480   0.01340   1.000
    Cl110   Cl   0.09450   0.72170   0.94010   1.000
    H219    H    0.11950   0.70410   0.95340   1.000
    C219    C    0.14780   0.70070   0.97510   1.000
    C220    C    0.18550   0.73700   0.97580   1.000
    H220    H    0.17990   0.76760   0.95880   1.000
    C221    C    0.14460   0.20600   0.50780   1.000
    C222    C    0.17960   0.24420   0.50810   1.000
    H221    H    0.17030   0.27800   0.51350   1.000
    Cl111   Cl   0.08200   0.22390   0.51810   1.000
    H222    H    0.11030   0.21480   0.51340   1.000
    Cl112   Cl   0.09450   0.22170   0.44010   1.000
    H223    H    0.11950   0.20410   0.45340   1.000
    C223    C    0.14780   0.20070   0.47510   1.000
    C224    C    0.18550   0.23700   0.47580   1.000
    H224    H    0.17990   0.26760   0.45880   1.000
    C225    C    0.35540   0.70600   0.49220   1.000
    C226    C    0.32040   0.74420   0.49190   1.000
    H225    H    0.32970   0.77800   0.48650   1.000
    Cl113   Cl   0.41800   0.72390   0.48190   1.000
    H226    H    0.38970   0.71480   0.48660   1.000
    Cl114   Cl   0.40550   0.72170   0.55990   1.000
    H227    H    0.38050   0.70410   0.54660   1.000
    C227    C    0.35220   0.70070   0.52490   1.000
    C228    C    0.31450   0.73700   0.52420   1.000
    H228    H    0.32010   0.76760   0.54120   1.000
    C229    C    0.35540   0.20600   0.99220   1.000
    C230    C    0.32040   0.24420   0.99190   1.000
    H229    H    0.32970   0.27800   0.98650   1.000
    Cl115   Cl   0.41800   0.22390   0.98190   1.000
    H230    H    0.38970   0.21480   0.98660   1.000
    Cl116   Cl   0.40550   0.22170   0.05990   1.000
    H231    H    0.38050   0.20410   0.04660   1.000
    C231    C    0.35220   0.20070   0.02490   1.000
    C232    C    0.31450   0.23700   0.02420   1.000
    H232    H    0.32010   0.26760   0.04120   1.000
    C233    C    0.85540   0.70600   0.99220   1.000
    C234    C    0.82040   0.74420   0.99190   1.000
    H233    H    0.82970   0.77800   0.98650   1.000
    Cl117   Cl   0.91800   0.72390   0.98190   1.000
    H234    H    0.88970   0.71480   0.98660   1.000
    Cl118   Cl   0.90550   0.72170   0.05990   1.000
    H235    H    0.88050   0.70410   0.04660   1.000
    C235    C    0.85220   0.70070   0.02490   1.000
    C236    C    0.81450   0.73700   0.02420   1.000
    H236    H    0.82010   0.76760   0.04120   1.000
    C237    C    0.85540   0.20600   0.49220   1.000
    C238    C    0.82040   0.24420   0.49190   1.000
    H237    H    0.82970   0.27800   0.48650   1.000
    Cl119   Cl   0.91800   0.22390   0.48190   1.000
    H238    H    0.88970   0.21480   0.48660   1.000
    Cl120   Cl   0.90550   0.22170   0.55990   1.000
    H239    H    0.88050   0.20410   0.54660   1.000
    C239    C    0.85220   0.20070   0.52490   1.000
    C240    C    0.81450   0.23700   0.52420   1.000
    H240    H    0.82010   0.26760   0.54120   1.000
    C241    C    0.64460   0.29400   0.49220   1.000
    C242    C    0.67960   0.25580   0.49190   1.000
    H241    H    0.67030   0.22200   0.48650   1.000
    Cl121   Cl   0.58200   0.27610   0.48190   1.000
    H242    H    0.61030   0.28520   0.48660   1.000
    Cl122   Cl   0.59450   0.27830   0.55990   1.000
    H243    H    0.61950   0.29590   0.54660   1.000
    C243    C    0.64780   0.29930   0.52490   1.000
    C244    C    0.68550   0.26300   0.52420   1.000
    H244    H    0.67990   0.23240   0.54120   1.000
    C245    C    0.64460   0.79400   0.99220   1.000
    C246    C    0.67960   0.75580   0.99190   1.000
    H245    H    0.67030   0.72200   0.98650   1.000
    Cl123   Cl   0.58200   0.77610   0.98190   1.000
    H246    H    0.61030   0.78520   0.98660   1.000
    Cl124   Cl   0.59450   0.77830   0.05990   1.000
    H247    H    0.61950   0.79590   0.04660   1.000
    C247    C    0.64780   0.79930   0.02490   1.000
    C248    C    0.68550   0.76300   0.02420   1.000
    H248    H    0.67990   0.73240   0.04120   1.000
    C249    C    0.14460   0.29400   0.99220   1.000
    C250    C    0.17960   0.25580   0.99190   1.000
    H249    H    0.17030   0.22200   0.98650   1.000
    Cl125   Cl   0.08200   0.27610   0.98190   1.000
    H250    H    0.11030   0.28520   0.98660   1.000
    Cl126   Cl   0.09450   0.27830   0.05990   1.000
    H251    H    0.11950   0.29590   0.04660   1.000
    C251    C    0.14780   0.29930   0.02490   1.000
    C252    C    0.18550   0.26300   0.02420   1.000
    H252    H    0.17990   0.23240   0.04120   1.000
    C253    C    0.14460   0.79400   0.49220   1.000
    C254    C    0.17960   0.75580   0.49190   1.000
    H253    H    0.17030   0.72200   0.48650   1.000
    Cl127   Cl   0.08200   0.77610   0.48190   1.000
    H254    H    0.11030   0.78520   0.48660   1.000
    Cl128   Cl   0.09450   0.77830   0.55990   1.000
    H255    H    0.11950   0.79590   0.54660   1.000
    C255    C    0.14780   0.79930   0.52490   1.000
    C256    C    0.18550   0.76300   0.52420   1.000
    H256    H    0.17990   0.73240   0.54120   1.000
    C257    C    0.29400   0.49220   0.64460   1.000
    C258    C    0.25580   0.49190   0.67960   1.000
    H257    H    0.22200   0.48650   0.67030   1.000
    Cl129   Cl   0.27610   0.48190   0.58200   1.000
    H258    H    0.28520   0.48660   0.61030   1.000
    Cl130   Cl   0.27830   0.55990   0.59450   1.000
    H259    H    0.29590   0.54660   0.61950   1.000
    C259    C    0.29930   0.52490   0.64780   1.000
    C260    C    0.26300   0.52420   0.68550   1.000
    H260    H    0.23240   0.54120   0.67990   1.000
    C261    C    0.29400   0.99220   0.14460   1.000
    C262    C    0.25580   0.99190   0.17960   1.000
    H261    H    0.22200   0.98650   0.17030   1.000
    Cl131   Cl   0.27610   0.98190   0.08200   1.000
    H262    H    0.28520   0.98660   0.11030   1.000
    Cl132   Cl   0.27830   0.05990   0.09450   1.000
    H263    H    0.29590   0.04660   0.11950   1.000
    C263    C    0.29930   0.02490   0.14780   1.000
    C264    C    0.26300   0.02420   0.18550   1.000
    H264    H    0.23240   0.04120   0.17990   1.000
    C265    C    0.79400   0.49220   0.14460   1.000
    C266    C    0.75580   0.49190   0.17960   1.000
    H265    H    0.72200   0.48650   0.17030   1.000
    Cl133   Cl   0.77610   0.48190   0.08200   1.000
    H266    H    0.78520   0.48660   0.11030   1.000
    Cl134   Cl   0.77830   0.55990   0.09450   1.000
    H267    H    0.79590   0.54660   0.11950   1.000
    C267    C    0.79930   0.52490   0.14780   1.000
    C268    C    0.76300   0.52420   0.18550   1.000
    H268    H    0.73240   0.54120   0.17990   1.000
    C269    C    0.79400   0.99220   0.64460   1.000
    C270    C    0.75580   0.99190   0.67960   1.000
    H269    H    0.72200   0.98650   0.67030   1.000
    Cl135   Cl   0.77610   0.98190   0.58200   1.000
    H270    H    0.78520   0.98660   0.61030   1.000
    Cl136   Cl   0.77830   0.05990   0.59450   1.000
    H271    H    0.79590   0.04660   0.61950   1.000
    C271    C    0.79930   0.02490   0.64780   1.000
    C272    C    0.76300   0.02420   0.68550   1.000
    H272    H    0.73240   0.04120   0.67990   1.000
    C273    C    0.70600   0.49220   0.35540   1.000
    C274    C    0.74420   0.49190   0.32040   1.000
    H273    H    0.77800   0.48650   0.32970   1.000
    Cl137   Cl   0.72390   0.48190   0.41800   1.000
    H274    H    0.71480   0.48660   0.38970   1.000
    Cl138   Cl   0.72170   0.55990   0.40550   1.000
    H275    H    0.70410   0.54660   0.38050   1.000
    C275    C    0.70070   0.52490   0.35220   1.000
    C276    C    0.73700   0.52420   0.31450   1.000
    H276    H    0.76760   0.54120   0.32010   1.000
    C277    C    0.70600   0.99220   0.85540   1.000
    C278    C    0.74420   0.99190   0.82040   1.000
    H277    H    0.77800   0.98650   0.82970   1.000
    Cl139   Cl   0.72390   0.98190   0.91800   1.000
    H278    H    0.71480   0.98660   0.88970   1.000
    Cl140   Cl   0.72170   0.05990   0.90550   1.000
    H279    H    0.70410   0.04660   0.88050   1.000
    C279    C    0.70070   0.02490   0.85220   1.000
    C280    C    0.73700   0.02420   0.81450   1.000
    H280    H    0.76760   0.04120   0.82010   1.000
    C281    C    0.20600   0.49220   0.85540   1.000
    C282    C    0.24420   0.49190   0.82040   1.000
    H281    H    0.27800   0.48650   0.82970   1.000
    Cl141   Cl   0.22390   0.48190   0.91800   1.000
    H282    H    0.21480   0.48660   0.88970   1.000
    Cl142   Cl   0.22170   0.55990   0.90550   1.000
    H283    H    0.20410   0.54660   0.88050   1.000
    C283    C    0.20070   0.52490   0.85220   1.000
    C284    C    0.23700   0.52420   0.81450   1.000
    H284    H    0.26760   0.54120   0.82010   1.000
    C285    C    0.20600   0.99220   0.35540   1.000
    C286    C    0.24420   0.99190   0.32040   1.000
    H285    H    0.27800   0.98650   0.32970   1.000
    Cl143   Cl   0.22390   0.98190   0.41800   1.000
    H286    H    0.21480   0.98660   0.38970   1.000
    Cl144   Cl   0.22170   0.05990   0.40550   1.000
    H287    H    0.20410   0.04660   0.38050   1.000
    C287    C    0.20070   0.02490   0.35220   1.000
    C288    C    0.23700   0.02420   0.31450   1.000
    H288    H    0.26760   0.04120   0.32010   1.000
    C289    C    0.70600   0.50780   0.64460   1.000
    C290    C    0.74420   0.50810   0.67960   1.000
    H289    H    0.77800   0.51350   0.67030   1.000
    Cl145   Cl   0.72390   0.51810   0.58200   1.000
    H290    H    0.71480   0.51340   0.61030   1.000
    Cl146   Cl   0.72170   0.44010   0.59450   1.000
    H291    H    0.70410   0.45340   0.61950   1.000
    C291    C    0.70070   0.47510   0.64780   1.000
    C292    C    0.73700   0.47580   0.68550   1.000
    H292    H    0.76760   0.45880   0.67990   1.000
    C293    C    0.70600   0.00780   0.14460   1.000
    C294    C    0.74420   0.00810   0.17960   1.000
    H293    H    0.77800   0.01350   0.17030   1.000
    Cl147   Cl   0.72390   0.01810   0.08200   1.000
    H294    H    0.71480   0.01340   0.11030   1.000
    Cl148   Cl   0.72170   0.94010   0.09450   1.000
    H295    H    0.70410   0.95340   0.11950   1.000
    C295    C    0.70070   0.97510   0.14780   1.000
    C296    C    0.73700   0.97580   0.18550   1.000
    H296    H    0.76760   0.95880   0.17990   1.000
    C297    C    0.20600   0.50780   0.14460   1.000
    C298    C    0.24420   0.50810   0.17960   1.000
    H297    H    0.27800   0.51350   0.17030   1.000
    Cl149   Cl   0.22390   0.51810   0.08200   1.000
    H298    H    0.21480   0.51340   0.11030   1.000
    Cl150   Cl   0.22170   0.44010   0.09450   1.000
    H299    H    0.20410   0.45340   0.11950   1.000
    C299    C    0.20070   0.47510   0.14780   1.000
    C300    C    0.23700   0.47580   0.18550   1.000
    H300    H    0.26760   0.45880   0.17990   1.000
    C301    C    0.20600   0.00780   0.64460   1.000
    C302    C    0.24420   0.00810   0.67960   1.000
    H301    H    0.27800   0.01350   0.67030   1.000
    Cl151   Cl   0.22390   0.01810   0.58200   1.000
    H302    H    0.21480   0.01340   0.61030   1.000
    Cl152   Cl   0.22170   0.94010   0.59450   1.000
    H303    H    0.20410   0.95340   0.61950   1.000
    C303    C    0.20070   0.97510   0.64780   1.000
    C304    C    0.23700   0.97580   0.68550   1.000
    H304    H    0.26760   0.95880   0.67990   1.000
    C305    C    0.29400   0.50780   0.35540   1.000
    C306    C    0.25580   0.50810   0.32040   1.000
    H305    H    0.22200   0.51350   0.32970   1.000
    Cl153   Cl   0.27610   0.51810   0.41800   1.000
    H306    H    0.28520   0.51340   0.38970   1.000
    Cl154   Cl   0.27830   0.44010   0.40550   1.000
    H307    H    0.29590   0.45340   0.38050   1.000
    C307    C    0.29930   0.47510   0.35220   1.000
    C308    C    0.26300   0.47580   0.31450   1.000
    H308    H    0.23240   0.45880   0.32010   1.000
    C309    C    0.29400   0.00780   0.85540   1.000
    C310    C    0.25580   0.00810   0.82040   1.000
    H309    H    0.22200   0.01350   0.82970   1.000
    Cl155   Cl   0.27610   0.01810   0.91800   1.000
    H310    H    0.28520   0.01340   0.88970   1.000
    Cl156   Cl   0.27830   0.94010   0.90550   1.000
    H311    H    0.29590   0.95340   0.88050   1.000
    C311    C    0.29930   0.97510   0.85220   1.000
    C312    C    0.26300   0.97580   0.81450   1.000
    H312    H    0.23240   0.95880   0.82010   1.000
    C313    C    0.79400   0.50780   0.85540   1.000
    C314    C    0.75580   0.50810   0.82040   1.000
    H313    H    0.72200   0.51350   0.82970   1.000
    Cl157   Cl   0.77610   0.51810   0.91800   1.000
    H314    H    0.78520   0.51340   0.88970   1.000
    Cl158   Cl   0.77830   0.44010   0.90550   1.000
    H315    H    0.79590   0.45340   0.88050   1.000
    C315    C    0.79930   0.47510   0.85220   1.000
    C316    C    0.76300   0.47580   0.81450   1.000
    H316    H    0.73240   0.45880   0.82010   1.000
    C317    C    0.79400   0.00780   0.35540   1.000
    C318    C    0.75580   0.00810   0.32040   1.000
    H317    H    0.72200   0.01350   0.32970   1.000
    Cl159   Cl   0.77610   0.01810   0.41800   1.000
    H318    H    0.78520   0.01340   0.38970   1.000
    Cl160   Cl   0.77830   0.94010   0.40550   1.000
    H319    H    0.79590   0.95340   0.38050   1.000
    C319    C    0.79930   0.97510   0.35220   1.000
    C320    C    0.76300   0.97580   0.31450   1.000
    H320    H    0.73240   0.95880   0.32010   1.000
    C321    C    0.49220   0.35540   0.70600   1.000
    C322    C    0.49190   0.32040   0.74420   1.000
    H321    H    0.48650   0.32970   0.77800   1.000
    Cl161   Cl   0.48190   0.41800   0.72390   1.000
    H322    H    0.48660   0.38970   0.71480   1.000
    Cl162   Cl   0.55990   0.40550   0.72170   1.000
    H323    H    0.54660   0.38050   0.70410   1.000
    C323    C    0.52490   0.35220   0.70070   1.000
    C324    C    0.52420   0.31450   0.73700   1.000
    H324    H    0.54120   0.32010   0.76760   1.000
    C325    C    0.49220   0.85540   0.20600   1.000
    C326    C    0.49190   0.82040   0.24420   1.000
    H325    H    0.48650   0.82970   0.27800   1.000
    Cl163   Cl   0.48190   0.91800   0.22390   1.000
    H326    H    0.48660   0.88970   0.21480   1.000
    Cl164   Cl   0.55990   0.90550   0.22170   1.000
    H327    H    0.54660   0.88050   0.20410   1.000
    C327    C    0.52490   0.85220   0.20070   1.000
    C328    C    0.52420   0.81450   0.23700   1.000
    H328    H    0.54120   0.82010   0.26760   1.000
    C329    C    0.99220   0.35540   0.20600   1.000
    C330    C    0.99190   0.32040   0.24420   1.000
    H329    H    0.98650   0.32970   0.27800   1.000
    Cl165   Cl   0.98190   0.41800   0.22390   1.000
    H330    H    0.98660   0.38970   0.21480   1.000
    Cl166   Cl   0.05990   0.40550   0.22170   1.000
    H331    H    0.04660   0.38050   0.20410   1.000
    C331    C    0.02490   0.35220   0.20070   1.000
    C332    C    0.02420   0.31450   0.23700   1.000
    H332    H    0.04120   0.32010   0.26760   1.000
    C333    C    0.99220   0.85540   0.70600   1.000
    C334    C    0.99190   0.82040   0.74420   1.000
    H333    H    0.98650   0.82970   0.77800   1.000
    Cl167   Cl   0.98190   0.91800   0.72390   1.000
    H334    H    0.98660   0.88970   0.71480   1.000
    Cl168   Cl   0.05990   0.90550   0.72170   1.000
    H335    H    0.04660   0.88050   0.70410   1.000
    C335    C    0.02490   0.85220   0.70070   1.000
    C336    C    0.02420   0.81450   0.73700   1.000
    H336    H    0.04120   0.82010   0.76760   1.000
    C337    C    0.49220   0.64460   0.29400   1.000
    C338    C    0.49190   0.67960   0.25580   1.000
    H337    H    0.48650   0.67030   0.22200   1.000
    Cl169   Cl   0.48190   0.58200   0.27610   1.000
    H338    H    0.48660   0.61030   0.28520   1.000
    Cl170   Cl   0.55990   0.59450   0.27830   1.000
    H339    H    0.54660   0.61950   0.29590   1.000
    C339    C    0.52490   0.64780   0.29930   1.000
    C340    C    0.52420   0.68550   0.26300   1.000
    H340    H    0.54120   0.67990   0.23240   1.000
    C341    C    0.49220   0.14460   0.79400   1.000
    C342    C    0.49190   0.17960   0.75580   1.000
    H341    H    0.48650   0.17030   0.72200   1.000
    Cl171   Cl   0.48190   0.08200   0.77610   1.000
    H342    H    0.48660   0.11030   0.78520   1.000
    Cl172   Cl   0.55990   0.09450   0.77830   1.000
    H343    H    0.54660   0.11950   0.79590   1.000
    C343    C    0.52490   0.14780   0.79930   1.000
    C344    C    0.52420   0.18550   0.76300   1.000
    H344    H    0.54120   0.17990   0.73240   1.000
    C345    C    0.99220   0.64460   0.79400   1.000
    C346    C    0.99190   0.67960   0.75580   1.000
    H345    H    0.98650   0.67030   0.72200   1.000
    Cl173   Cl   0.98190   0.58200   0.77610   1.000
    H346    H    0.98660   0.61030   0.78520   1.000
    Cl174   Cl   0.05990   0.59450   0.77830   1.000
    H347    H    0.04660   0.61950   0.79590   1.000
    C347    C    0.02490   0.64780   0.79930   1.000
    C348    C    0.02420   0.68550   0.76300   1.000
    H348    H    0.04120   0.67990   0.73240   1.000
    C349    C    0.99220   0.14460   0.29400   1.000
    C350    C    0.99190   0.17960   0.25580   1.000
    H349    H    0.98650   0.17030   0.22200   1.000
    Cl175   Cl   0.98190   0.08200   0.27610   1.000
    H350    H    0.98660   0.11030   0.28520   1.000
    Cl176   Cl   0.05990   0.09450   0.27830   1.000
    H351    H    0.04660   0.11950   0.29590   1.000
    C351    C    0.02490   0.14780   0.29930   1.000
    C352    C    0.02420   0.18550   0.26300   1.000
    H352    H    0.04120   0.17990   0.23240   1.000
    C353    C    0.50780   0.35540   0.29400   1.000
    C354    C    0.50810   0.32040   0.25580   1.000
    H353    H    0.51350   0.32970   0.22200   1.000
    Cl177   Cl   0.51810   0.41800   0.27610   1.000
    H354    H    0.51340   0.38970   0.28520   1.000
    Cl178   Cl   0.44010   0.40550   0.27830   1.000
    H355    H    0.45340   0.38050   0.29590   1.000
    C355    C    0.47510   0.35220   0.29930   1.000
    C356    C    0.47580   0.31450   0.26300   1.000
    H356    H    0.45880   0.32010   0.23240   1.000
    C357    C    0.50780   0.85540   0.79400   1.000
    C358    C    0.50810   0.82040   0.75580   1.000
    H357    H    0.51350   0.82970   0.72200   1.000
    Cl179   Cl   0.51810   0.91800   0.77610   1.000
    H358    H    0.51340   0.88970   0.78520   1.000
    Cl180   Cl   0.44010   0.90550   0.77830   1.000
    H359    H    0.45340   0.88050   0.79590   1.000
    C359    C    0.47510   0.85220   0.79930   1.000
    C360    C    0.47580   0.81450   0.76300   1.000
    H360    H    0.45880   0.82010   0.73240   1.000
    C361    C    0.00780   0.35540   0.79400   1.000
    C362    C    0.00810   0.32040   0.75580   1.000
    H361    H    0.01350   0.32970   0.72200   1.000
    Cl181   Cl   0.01810   0.41800   0.77610   1.000
    H362    H    0.01340   0.38970   0.78520   1.000
    Cl182   Cl   0.94010   0.40550   0.77830   1.000
    H363    H    0.95340   0.38050   0.79590   1.000
    C363    C    0.97510   0.35220   0.79930   1.000
    C364    C    0.97580   0.31450   0.76300   1.000
    H364    H    0.95880   0.32010   0.73240   1.000
    C365    C    0.00780   0.85540   0.29400   1.000
    C366    C    0.00810   0.82040   0.25580   1.000
    H365    H    0.01350   0.82970   0.22200   1.000
    Cl183   Cl   0.01810   0.91800   0.27610   1.000
    H366    H    0.01340   0.88970   0.28520   1.000
    Cl184   Cl   0.94010   0.90550   0.27830   1.000
    H367    H    0.95340   0.88050   0.29590   1.000
    C367    C    0.97510   0.85220   0.29930   1.000
    C368    C    0.97580   0.81450   0.26300   1.000
    H368    H    0.95880   0.82010   0.23240   1.000
    C369    C    0.50780   0.64460   0.70600   1.000
    C370    C    0.50810   0.67960   0.74420   1.000
    H369    H    0.51350   0.67030   0.77800   1.000
    Cl185   Cl   0.51810   0.58200   0.72390   1.000
    H370    H    0.51340   0.61030   0.71480   1.000
    Cl186   Cl   0.44010   0.59450   0.72170   1.000
    H371    H    0.45340   0.61950   0.70410   1.000
    C371    C    0.47510   0.64780   0.70070   1.000
    C372    C    0.47580   0.68550   0.73700   1.000
    H372    H    0.45880   0.67990   0.76760   1.000
    C373    C    0.50780   0.14460   0.20600   1.000
    C374    C    0.50810   0.17960   0.24420   1.000
    H373    H    0.51350   0.17030   0.27800   1.000
    Cl187   Cl   0.51810   0.08200   0.22390   1.000
    H374    H    0.51340   0.11030   0.21480   1.000
    Cl188   Cl   0.44010   0.09450   0.22170   1.000
    H375    H    0.45340   0.11950   0.20410   1.000
    C375    C    0.47510   0.14780   0.20070   1.000
    C376    C    0.47580   0.18550   0.23700   1.000
    H376    H    0.45880   0.17990   0.26760   1.000
    C377    C    0.00780   0.64460   0.20600   1.000
    C378    C    0.00810   0.67960   0.24420   1.000
    H377    H    0.01350   0.67030   0.27800   1.000
    Cl189   Cl   0.01810   0.58200   0.22390   1.000
    H378    H    0.01340   0.61030   0.21480   1.000
    Cl190   Cl   0.94010   0.59450   0.22170   1.000
    H379    H    0.95340   0.61950   0.20410   1.000
    C379    C    0.97510   0.64780   0.20070   1.000
    C380    C    0.97580   0.68550   0.23700   1.000
    H380    H    0.95880   0.67990   0.26760   1.000
    C381    C    0.00780   0.14460   0.70600   1.000
    C382    C    0.00810   0.17960   0.74420   1.000
    H381    H    0.01350   0.17030   0.77800   1.000
    Cl191   Cl   0.01810   0.08200   0.72390   1.000
    H382    H    0.01340   0.11030   0.71480   1.000
    Cl192   Cl   0.94010   0.09450   0.72170   1.000
    H383    H    0.95340   0.11950   0.70410   1.000
    C383    C    0.97510   0.14780   0.70070   1.000
    C384    C    0.97580   0.18550   0.73700   1.000
    H384    H    0.95880   0.17990   0.76760   1.000
    C385    C    0.70600   0.64460   0.50780   1.000
    C386    C    0.74420   0.67960   0.50810   1.000
    H385    H    0.77800   0.67030   0.51350   1.000
    Cl193   Cl   0.72390   0.58200   0.51810   1.000
    H386    H    0.71480   0.61030   0.51340   1.000
    Cl194   Cl   0.72170   0.59450   0.44010   1.000
    H387    H    0.70410   0.61950   0.45340   1.000
    C387    C    0.70070   0.64780   0.47510   1.000
    C388    C    0.73700   0.68550   0.47580   1.000
    H388    H    0.76760   0.67990   0.45880   1.000
    C389    C    0.70600   0.14460   0.00780   1.000
    C390    C    0.74420   0.17960   0.00810   1.000
    H389    H    0.77800   0.17030   0.01350   1.000
    Cl195   Cl   0.72390   0.08200   0.01810   1.000
    H390    H    0.71480   0.11030   0.01340   1.000
    Cl196   Cl   0.72170   0.09450   0.94010   1.000
    H391    H    0.70410   0.11950   0.95340   1.000
    C391    C    0.70070   0.14780   0.97510   1.000
    C392    C    0.73700   0.18550   0.97580   1.000
    H392    H    0.76760   0.17990   0.95880   1.000
    C393    C    0.20600   0.64460   0.00780   1.000
    C394    C    0.24420   0.67960   0.00810   1.000
    H393    H    0.27800   0.67030   0.01350   1.000
    Cl197   Cl   0.22390   0.58200   0.01810   1.000
    H394    H    0.21480   0.61030   0.01340   1.000
    Cl198   Cl   0.22170   0.59450   0.94010   1.000
    H395    H    0.20410   0.61950   0.95340   1.000
    C395    C    0.20070   0.64780   0.97510   1.000
    C396    C    0.23700   0.68550   0.97580   1.000
    H396    H    0.26760   0.67990   0.95880   1.000
    C397    C    0.20600   0.14460   0.50780   1.000
    C398    C    0.24420   0.17960   0.50810   1.000
    H397    H    0.27800   0.17030   0.51350   1.000
    Cl199   Cl   0.22390   0.08200   0.51810   1.000
    H398    H    0.21480   0.11030   0.51340   1.000
    Cl200   Cl   0.22170   0.09450   0.44010   1.000
    H399    H    0.20410   0.11950   0.45340   1.000
    C399    C    0.20070   0.14780   0.47510   1.000
    C400    C    0.23700   0.18550   0.47580   1.000
    H400    H    0.26760   0.17990   0.45880   1.000
    C401    C    0.29400   0.35540   0.50780   1.000
    C402    C    0.25580   0.32040   0.50810   1.000
    H401    H    0.22200   0.32970   0.51350   1.000
    Cl201   Cl   0.27610   0.41800   0.51810   1.000
    H402    H    0.28520   0.38970   0.51340   1.000
    Cl202   Cl   0.27830   0.40550   0.44010   1.000
    H403    H    0.29590   0.38050   0.45340   1.000
    C403    C    0.29930   0.35220   0.47510   1.000
    C404    C    0.26300   0.31450   0.47580   1.000
    H404    H    0.23240   0.32010   0.45880   1.000
    C405    C    0.29400   0.85540   0.00780   1.000
    C406    C    0.25580   0.82040   0.00810   1.000
    H405    H    0.22200   0.82970   0.01350   1.000
    Cl203   Cl   0.27610   0.91800   0.01810   1.000
    H406    H    0.28520   0.88970   0.01340   1.000
    Cl204   Cl   0.27830   0.90550   0.94010   1.000
    H407    H    0.29590   0.88050   0.95340   1.000
    C407    C    0.29930   0.85220   0.97510   1.000
    C408    C    0.26300   0.81450   0.97580   1.000
    H408    H    0.23240   0.82010   0.95880   1.000
    C409    C    0.79400   0.35540   0.00780   1.000
    C410    C    0.75580   0.32040   0.00810   1.000
    H409    H    0.72200   0.32970   0.01350   1.000
    Cl205   Cl   0.77610   0.41800   0.01810   1.000
    H410    H    0.78520   0.38970   0.01340   1.000
    Cl206   Cl   0.77830   0.40550   0.94010   1.000
    H411    H    0.79590   0.38050   0.95340   1.000
    C411    C    0.79930   0.35220   0.97510   1.000
    C412    C    0.76300   0.31450   0.97580   1.000
    H412    H    0.73240   0.32010   0.95880   1.000
    C413    C    0.79400   0.85540   0.50780   1.000
    C414    C    0.75580   0.82040   0.50810   1.000
    H413    H    0.72200   0.82970   0.51350   1.000
    Cl207   Cl   0.77610   0.91800   0.51810   1.000
    H414    H    0.78520   0.88970   0.51340   1.000
    Cl208   Cl   0.77830   0.90550   0.44010   1.000
    H415    H    0.79590   0.88050   0.45340   1.000
    C415    C    0.79930   0.85220   0.47510   1.000
    C416    C    0.76300   0.81450   0.47580   1.000
    H416    H    0.73240   0.82010   0.45880   1.000
    C417    C    0.29400   0.64460   0.49220   1.000
    C418    C    0.25580   0.67960   0.49190   1.000
    H417    H    0.22200   0.67030   0.48650   1.000
    Cl209   Cl   0.27610   0.58200   0.48190   1.000
    H418    H    0.28520   0.61030   0.48660   1.000
    Cl210   Cl   0.27830   0.59450   0.55990   1.000
    H419    H    0.29590   0.61950   0.54660   1.000
    C419    C    0.29930   0.64780   0.52490   1.000
    C420    C    0.26300   0.68550   0.52420   1.000
    H420    H    0.23240   0.67990   0.54120   1.000
    C421    C    0.29400   0.14460   0.99220   1.000
    C422    C    0.25580   0.17960   0.99190   1.000
    H421    H    0.22200   0.17030   0.98650   1.000
    Cl211   Cl   0.27610   0.08200   0.98190   1.000
    H422    H    0.28520   0.11030   0.98660   1.000
    Cl212   Cl   0.27830   0.09450   0.05990   1.000
    H423    H    0.29590   0.11950   0.04660   1.000
    C423    C    0.29930   0.14780   0.02490   1.000
    C424    C    0.26300   0.18550   0.02420   1.000
    H424    H    0.23240   0.17990   0.04120   1.000
    C425    C    0.79400   0.64460   0.99220   1.000
    C426    C    0.75580   0.67960   0.99190   1.000
    H425    H    0.72200   0.67030   0.98650   1.000
    Cl213   Cl   0.77610   0.58200   0.98190   1.000
    H426    H    0.78520   0.61030   0.98660   1.000
    Cl214   Cl   0.77830   0.59450   0.05990   1.000
    H427    H    0.79590   0.61950   0.04660   1.000
    C427    C    0.79930   0.64780   0.02490   1.000
    C428    C    0.76300   0.68550   0.02420   1.000
    H428    H    0.73240   0.67990   0.04120   1.000
    C429    C    0.79400   0.14460   0.49220   1.000
    C430    C    0.75580   0.17960   0.49190   1.000
    H429    H    0.72200   0.17030   0.48650   1.000
    Cl215   Cl   0.77610   0.08200   0.48190   1.000
    H430    H    0.78520   0.11030   0.48660   1.000
    Cl216   Cl   0.77830   0.09450   0.55990   1.000
    H431    H    0.79590   0.11950   0.54660   1.000
    C431    C    0.79930   0.14780   0.52490   1.000
    C432    C    0.76300   0.18550   0.52420   1.000
    H432    H    0.73240   0.17990   0.54120   1.000
    C433    C    0.70600   0.35540   0.49220   1.000
    C434    C    0.74420   0.32040   0.49190   1.000
    H433    H    0.77800   0.32970   0.48650   1.000
    Cl217   Cl   0.72390   0.41800   0.48190   1.000
    H434    H    0.71480   0.38970   0.48660   1.000
    Cl218   Cl   0.72170   0.40550   0.55990   1.000
    H435    H    0.70410   0.38050   0.54660   1.000
    C435    C    0.70070   0.35220   0.52490   1.000
    C436    C    0.73700   0.31450   0.52420   1.000
    H436    H    0.76760   0.32010   0.54120   1.000
    C437    C    0.70600   0.85540   0.99220   1.000
    C438    C    0.74420   0.82040   0.99190   1.000
    H437    H    0.77800   0.82970   0.98650   1.000
    Cl219   Cl   0.72390   0.91800   0.98190   1.000
    H438    H    0.71480   0.88970   0.98660   1.000
    Cl220   Cl   0.72170   0.90550   0.05990   1.000
    H439    H    0.70410   0.88050   0.04660   1.000
    C439    C    0.70070   0.85220   0.02490   1.000
    C440    C    0.73700   0.81450   0.02420   1.000
    H440    H    0.76760   0.82010   0.04120   1.000
    C441    C    0.20600   0.35540   0.99220   1.000
    C442    C    0.24420   0.32040   0.99190   1.000
    H441    H    0.27800   0.32970   0.98650   1.000
    Cl221   Cl   0.22390   0.41800   0.98190   1.000
    H442    H    0.21480   0.38970   0.98660   1.000
    Cl222   Cl   0.22170   0.40550   0.05990   1.000
    H443    H    0.20410   0.38050   0.04660   1.000
    C443    C    0.20070   0.35220   0.02490   1.000
    C444    C    0.23700   0.31450   0.02420   1.000
    H444    H    0.26760   0.32010   0.04120   1.000
    C445    C    0.20600   0.85540   0.49220   1.000
    C446    C    0.24420   0.82040   0.49190   1.000
    H445    H    0.27800   0.82970   0.48650   1.000
    Cl223   Cl   0.22390   0.91800   0.48190   1.000
    H446    H    0.21480   0.88970   0.48660   1.000
    Cl224   Cl   0.22170   0.90550   0.55990   1.000
    H447    H    0.20410   0.88050   0.54660   1.000
    C447    C    0.20070   0.85220   0.52490   1.000
    C448    C    0.23700   0.81450   0.52420   1.000
    H448    H    0.26760   0.82010   0.54120   1.000
    C449    C    0.50780   0.70600   0.64460   1.000
    C450    C    0.50810   0.74420   0.67960   1.000
    H449    H    0.51350   0.77800   0.67030   1.000
    Cl225   Cl   0.51810   0.72390   0.58200   1.000
    H450    H    0.51340   0.71480   0.61030   1.000
    Cl226   Cl   0.44010   0.72170   0.59450   1.000
    H451    H    0.45340   0.70410   0.61950   1.000
    C451    C    0.47510   0.70070   0.64780   1.000
    C452    C    0.47580   0.73700   0.68550   1.000
    H452    H    0.45880   0.76760   0.67990   1.000
    C453    C    0.50780   0.20600   0.14460   1.000
    C454    C    0.50810   0.24420   0.17960   1.000
    H453    H    0.51350   0.27800   0.17030   1.000
    Cl227   Cl   0.51810   0.22390   0.08200   1.000
    H454    H    0.51340   0.21480   0.11030   1.000
    Cl228   Cl   0.44010   0.22170   0.09450   1.000
    H455    H    0.45340   0.20410   0.11950   1.000
    C455    C    0.47510   0.20070   0.14780   1.000
    C456    C    0.47580   0.23700   0.18550   1.000
    H456    H    0.45880   0.26760   0.17990   1.000
    C457    C    0.00780   0.70600   0.14460   1.000
    C458    C    0.00810   0.74420   0.17960   1.000
    H457    H    0.01350   0.77800   0.17030   1.000
    Cl229   Cl   0.01810   0.72390   0.08200   1.000
    H458    H    0.01340   0.71480   0.11030   1.000
    Cl230   Cl   0.94010   0.72170   0.09450   1.000
    H459    H    0.95340   0.70410   0.11950   1.000
    C459    C    0.97510   0.70070   0.14780   1.000
    C460    C    0.97580   0.73700   0.18550   1.000
    H460    H    0.95880   0.76760   0.17990   1.000
    C461    C    0.00780   0.20600   0.64460   1.000
    C462    C    0.00810   0.24420   0.67960   1.000
    H461    H    0.01350   0.27800   0.67030   1.000
    Cl231   Cl   0.01810   0.22390   0.58200   1.000
    H462    H    0.01340   0.21480   0.61030   1.000
    Cl232   Cl   0.94010   0.22170   0.59450   1.000
    H463    H    0.95340   0.20410   0.61950   1.000
    C463    C    0.97510   0.20070   0.64780   1.000
    C464    C    0.97580   0.23700   0.68550   1.000
    H464    H    0.95880   0.26760   0.67990   1.000
    C465    C    0.50780   0.29400   0.35540   1.000
    C466    C    0.50810   0.25580   0.32040   1.000
    H465    H    0.51350   0.22200   0.32970   1.000
    Cl233   Cl   0.51810   0.27610   0.41800   1.000
    H466    H    0.51340   0.28520   0.38970   1.000
    Cl234   Cl   0.44010   0.27830   0.40550   1.000
    H467    H    0.45340   0.29590   0.38050   1.000
    C467    C    0.47510   0.29930   0.35220   1.000
    C468    C    0.47580   0.26300   0.31450   1.000
    H468    H    0.45880   0.23240   0.32010   1.000
    C469    C    0.50780   0.79400   0.85540   1.000
    C470    C    0.50810   0.75580   0.82040   1.000
    H469    H    0.51350   0.72200   0.82970   1.000
    Cl235   Cl   0.51810   0.77610   0.91800   1.000
    H470    H    0.51340   0.78520   0.88970   1.000
    Cl236   Cl   0.44010   0.77830   0.90550   1.000
    H471    H    0.45340   0.79590   0.88050   1.000
    C471    C    0.47510   0.79930   0.85220   1.000
    C472    C    0.47580   0.76300   0.81450   1.000
    H472    H    0.45880   0.73240   0.82010   1.000
    C473    C    0.00780   0.29400   0.85540   1.000
    C474    C    0.00810   0.25580   0.82040   1.000
    H473    H    0.01350   0.22200   0.82970   1.000
    Cl237   Cl   0.01810   0.27610   0.91800   1.000
    H474    H    0.01340   0.28520   0.88970   1.000
    Cl238   Cl   0.94010   0.27830   0.90550   1.000
    H475    H    0.95340   0.29590   0.88050   1.000
    C475    C    0.97510   0.29930   0.85220   1.000
    C476    C    0.97580   0.26300   0.81450   1.000
    H476    H    0.95880   0.23240   0.82010   1.000
    C477    C    0.00780   0.79400   0.35540   1.000
    C478    C    0.00810   0.75580   0.32040   1.000
    H477    H    0.01350   0.72200   0.32970   1.000
    Cl239   Cl   0.01810   0.77610   0.41800   1.000
    H478    H    0.01340   0.78520   0.38970   1.000
    Cl240   Cl   0.94010   0.77830   0.40550   1.000
    H479    H    0.95340   0.79590   0.38050   1.000
    C479    C    0.97510   0.79930   0.35220   1.000
    C480    C    0.97580   0.76300   0.31450   1.000
    H480    H    0.95880   0.73240   0.32010   1.000
    C481    C    0.49220   0.29400   0.64460   1.000
    C482    C    0.49190   0.25580   0.67960   1.000
    H481    H    0.48650   0.22200   0.67030   1.000
    Cl241   Cl   0.48190   0.27610   0.58200   1.000
    H482    H    0.48660   0.28520   0.61030   1.000
    Cl242   Cl   0.55990   0.27830   0.59450   1.000
    H483    H    0.54660   0.29590   0.61950   1.000
    C483    C    0.52490   0.29930   0.64780   1.000
    C484    C    0.52420   0.26300   0.68550   1.000
    H484    H    0.54120   0.23240   0.67990   1.000
    C485    C    0.49220   0.79400   0.14460   1.000
    C486    C    0.49190   0.75580   0.17960   1.000
    H485    H    0.48650   0.72200   0.17030   1.000
    Cl243   Cl   0.48190   0.77610   0.08200   1.000
    H486    H    0.48660   0.78520   0.11030   1.000
    Cl244   Cl   0.55990   0.77830   0.09450   1.000
    H487    H    0.54660   0.79590   0.11950   1.000
    C487    C    0.52490   0.79930   0.14780   1.000
    C488    C    0.52420   0.76300   0.18550   1.000
    H488    H    0.54120   0.73240   0.17990   1.000
    C489    C    0.99220   0.29400   0.14460   1.000
    C490    C    0.99190   0.25580   0.17960   1.000
    H489    H    0.98650   0.22200   0.17030   1.000
    Cl245   Cl   0.98190   0.27610   0.08200   1.000
    H490    H    0.98660   0.28520   0.11030   1.000
    Cl246   Cl   0.05990   0.27830   0.09450   1.000
    H491    H    0.04660   0.29590   0.11950   1.000
    C491    C    0.02490   0.29930   0.14780   1.000
    C492    C    0.02420   0.26300   0.18550   1.000
    H492    H    0.04120   0.23240   0.17990   1.000
    C493    C    0.99220   0.79400   0.64460   1.000
    C494    C    0.99190   0.75580   0.67960   1.000
    H493    H    0.98650   0.72200   0.67030   1.000
    Cl247   Cl   0.98190   0.77610   0.58200   1.000
    H494    H    0.98660   0.78520   0.61030   1.000
    Cl248   Cl   0.05990   0.77830   0.59450   1.000
    H495    H    0.04660   0.79590   0.61950   1.000
    C495    C    0.02490   0.79930   0.64780   1.000
    C496    C    0.02420   0.76300   0.68550   1.000
    H496    H    0.04120   0.73240   0.67990   1.000
    C497    C    0.49220   0.70600   0.35540   1.000
    C498    C    0.49190   0.74420   0.32040   1.000
    H497    H    0.48650   0.77800   0.32970   1.000
    Cl249   Cl   0.48190   0.72390   0.41800   1.000
    H498    H    0.48660   0.71480   0.38970   1.000
    Cl250   Cl   0.55990   0.72170   0.40550   1.000
    H499    H    0.54660   0.70410   0.38050   1.000
    C499    C    0.52490   0.70070   0.35220   1.000
    C500    C    0.52420   0.73700   0.31450   1.000
    H500    H    0.54120   0.76760   0.32010   1.000
    C501    C    0.49220   0.20600   0.85540   1.000
    C502    C    0.49190   0.24420   0.82040   1.000
    H501    H    0.48650   0.27800   0.82970   1.000
    Cl251   Cl   0.48190   0.22390   0.91800   1.000
    H502    H    0.48660   0.21480   0.88970   1.000
    Cl252   Cl   0.55990   0.22170   0.90550   1.000
    H503    H    0.54660   0.20410   0.88050   1.000
    C503    C    0.52490   0.20070   0.85220   1.000
    C504    C    0.52420   0.23700   0.81450   1.000
    H504    H    0.54120   0.26760   0.82010   1.000
    C505    C    0.99220   0.70600   0.85540   1.000
    C506    C    0.99190   0.74420   0.82040   1.000
    H505    H    0.98650   0.77800   0.82970   1.000
    Cl253   Cl   0.98190   0.72390   0.91800   1.000
    H506    H    0.98660   0.71480   0.88970   1.000
    Cl254   Cl   0.05990   0.72170   0.90550   1.000
    H507    H    0.04660   0.70410   0.88050   1.000
    C507    C    0.02490   0.70070   0.85220   1.000
    C508    C    0.02420   0.73700   0.81450   1.000
    H508    H    0.04120   0.76760   0.82010   1.000
    C509    C    0.99220   0.20600   0.35540   1.000
    C510    C    0.99190   0.24420   0.32040   1.000
    H509    H    0.98650   0.27800   0.32970   1.000
    Cl255   Cl   0.98190   0.22390   0.41800   1.000
    H510    H    0.98660   0.21480   0.38970   1.000
    Cl256   Cl   0.05990   0.22170   0.40550   1.000
    H511    H    0.04660   0.20410   0.38050   1.000
    C511    C    0.02490   0.20070   0.35220   1.000
    C512    C    0.02420   0.23700   0.31450   1.000
    H512    H    0.04120   0.26760   0.32010   1.000
    C513    C    0.64460   0.50780   0.70600   1.000
    C514    C    0.67960   0.50810   0.74420   1.000
    H513    H    0.67030   0.51350   0.77800   1.000
    Cl257   Cl   0.58200   0.51810   0.72390   1.000
    H514    H    0.61030   0.51340   0.71480   1.000
    Cl258   Cl   0.59450   0.44010   0.72170   1.000
    H515    H    0.61950   0.45340   0.70410   1.000
    C515    C    0.64780   0.47510   0.70070   1.000
    C516    C    0.68550   0.47580   0.73700   1.000
    H516    H    0.67990   0.45880   0.76760   1.000
    C517    C    0.64460   0.00780   0.20600   1.000
    C518    C    0.67960   0.00810   0.24420   1.000
    H517    H    0.67030   0.01350   0.27800   1.000
    Cl259   Cl   0.58200   0.01810   0.22390   1.000
    H518    H    0.61030   0.01340   0.21480   1.000
    Cl260   Cl   0.59450   0.94010   0.22170   1.000
    H519    H    0.61950   0.95340   0.20410   1.000
    C519    C    0.64780   0.97510   0.20070   1.000
    C520    C    0.68550   0.97580   0.23700   1.000
    H520    H    0.67990   0.95880   0.26760   1.000
    C521    C    0.14460   0.50780   0.20600   1.000
    C522    C    0.17960   0.50810   0.24420   1.000
    H521    H    0.17030   0.51350   0.27800   1.000
    Cl261   Cl   0.08200   0.51810   0.22390   1.000
    H522    H    0.11030   0.51340   0.21480   1.000
    Cl262   Cl   0.09450   0.44010   0.22170   1.000
    H523    H    0.11950   0.45340   0.20410   1.000
    C523    C    0.14780   0.47510   0.20070   1.000
    C524    C    0.18550   0.47580   0.23700   1.000
    H524    H    0.17990   0.45880   0.26760   1.000
    C525    C    0.14460   0.00780   0.70600   1.000
    C526    C    0.17960   0.00810   0.74420   1.000
    H525    H    0.17030   0.01350   0.77800   1.000
    Cl263   Cl   0.08200   0.01810   0.72390   1.000
    H526    H    0.11030   0.01340   0.71480   1.000
    Cl264   Cl   0.09450   0.94010   0.72170   1.000
    H527    H    0.11950   0.95340   0.70410   1.000
    C527    C    0.14780   0.97510   0.70070   1.000
    C528    C    0.18550   0.97580   0.73700   1.000
    H528    H    0.17990   0.95880   0.76760   1.000
    C529    C    0.35540   0.50780   0.29400   1.000
    C530    C    0.32040   0.50810   0.25580   1.000
    H529    H    0.32970   0.51350   0.22200   1.000
    Cl265   Cl   0.41800   0.51810   0.27610   1.000
    H530    H    0.38970   0.51340   0.28520   1.000
    Cl266   Cl   0.40550   0.44010   0.27830   1.000
    H531    H    0.38050   0.45340   0.29590   1.000
    C531    C    0.35220   0.47510   0.29930   1.000
    C532    C    0.31450   0.47580   0.26300   1.000
    H532    H    0.32010   0.45880   0.23240   1.000
    C533    C    0.35540   0.00780   0.79400   1.000
    C534    C    0.32040   0.00810   0.75580   1.000
    H533    H    0.32970   0.01350   0.72200   1.000
    Cl267   Cl   0.41800   0.01810   0.77610   1.000
    H534    H    0.38970   0.01340   0.78520   1.000
    Cl268   Cl   0.40550   0.94010   0.77830   1.000
    H535    H    0.38050   0.95340   0.79590   1.000
    C535    C    0.35220   0.97510   0.79930   1.000
    C536    C    0.31450   0.97580   0.76300   1.000
    H536    H    0.32010   0.95880   0.73240   1.000
    C537    C    0.85540   0.50780   0.79400   1.000
    C538    C    0.82040   0.50810   0.75580   1.000
    H537    H    0.82970   0.51350   0.72200   1.000
    Cl269   Cl   0.91800   0.51810   0.77610   1.000
    H538    H    0.88970   0.51340   0.78520   1.000
    Cl270   Cl   0.90550   0.44010   0.77830   1.000
    H539    H    0.88050   0.45340   0.79590   1.000
    C539    C    0.85220   0.47510   0.79930   1.000
    C540    C    0.81450   0.47580   0.76300   1.000
    H540    H    0.82010   0.45880   0.73240   1.000
    C541    C    0.85540   0.00780   0.29400   1.000
    C542    C    0.82040   0.00810   0.25580   1.000
    H541    H    0.82970   0.01350   0.22200   1.000
    Cl271   Cl   0.91800   0.01810   0.27610   1.000
    H542    H    0.88970   0.01340   0.28520   1.000
    Cl272   Cl   0.90550   0.94010   0.27830   1.000
    H543    H    0.88050   0.95340   0.29590   1.000
    C543    C    0.85220   0.97510   0.29930   1.000
    C544    C    0.81450   0.97580   0.26300   1.000
    H544    H    0.82010   0.95880   0.23240   1.000
    C545    C    0.64460   0.49220   0.29400   1.000
    C546    C    0.67960   0.49190   0.25580   1.000
    H545    H    0.67030   0.48650   0.22200   1.000
    Cl273   Cl   0.58200   0.48190   0.27610   1.000
    H546    H    0.61030   0.48660   0.28520   1.000
    Cl274   Cl   0.59450   0.55990   0.27830   1.000
    H547    H    0.61950   0.54660   0.29590   1.000
    C547    C    0.64780   0.52490   0.29930   1.000
    C548    C    0.68550   0.52420   0.26300   1.000
    H548    H    0.67990   0.54120   0.23240   1.000
    C549    C    0.64460   0.99220   0.79400   1.000
    C550    C    0.67960   0.99190   0.75580   1.000
    H549    H    0.67030   0.98650   0.72200   1.000
    Cl275   Cl   0.58200   0.98190   0.77610   1.000
    H550    H    0.61030   0.98660   0.78520   1.000
    Cl276   Cl   0.59450   0.05990   0.77830   1.000
    H551    H    0.61950   0.04660   0.79590   1.000
    C551    C    0.64780   0.02490   0.79930   1.000
    C552    C    0.68550   0.02420   0.76300   1.000
    H552    H    0.67990   0.04120   0.73240   1.000
    C553    C    0.14460   0.49220   0.79400   1.000
    C554    C    0.17960   0.49190   0.75580   1.000
    H553    H    0.17030   0.48650   0.72200   1.000
    Cl277   Cl   0.08200   0.48190   0.77610   1.000
    H554    H    0.11030   0.48660   0.78520   1.000
    Cl278   Cl   0.09450   0.55990   0.77830   1.000
    H555    H    0.11950   0.54660   0.79590   1.000
    C555    C    0.14780   0.52490   0.79930   1.000
    C556    C    0.18550   0.52420   0.76300   1.000
    H556    H    0.17990   0.54120   0.73240   1.000
    C557    C    0.14460   0.99220   0.29400   1.000
    C558    C    0.17960   0.99190   0.25580   1.000
    H557    H    0.17030   0.98650   0.22200   1.000
    Cl279   Cl   0.08200   0.98190   0.27610   1.000
    H558    H    0.11030   0.98660   0.28520   1.000
    Cl280   Cl   0.09450   0.05990   0.27830   1.000
    H559    H    0.11950   0.04660   0.29590   1.000
    C559    C    0.14780   0.02490   0.29930   1.000
    C560    C    0.18550   0.02420   0.26300   1.000
    H560    H    0.17990   0.04120   0.23240   1.000
    C561    C    0.35540   0.49220   0.70600   1.000
    C562    C    0.32040   0.49190   0.74420   1.000
    H561    H    0.32970   0.48650   0.77800   1.000
    Cl281   Cl   0.41800   0.48190   0.72390   1.000
    H562    H    0.38970   0.48660   0.71480   1.000
    Cl282   Cl   0.40550   0.55990   0.72170   1.000
    H563    H    0.38050   0.54660   0.70410   1.000
    C563    C    0.35220   0.52490   0.70070   1.000
    C564    C    0.31450   0.52420   0.73700   1.000
    H564    H    0.32010   0.54120   0.76760   1.000
    C565    C    0.35540   0.99220   0.20600   1.000
    C566    C    0.32040   0.99190   0.24420   1.000
    H565    H    0.32970   0.98650   0.27800   1.000
    Cl283   Cl   0.41800   0.98190   0.22390   1.000
    H566    H    0.38970   0.98660   0.21480   1.000
    Cl284   Cl   0.40550   0.05990   0.22170   1.000
    H567    H    0.38050   0.04660   0.20410   1.000
    C567    C    0.35220   0.02490   0.20070   1.000
    C568    C    0.31450   0.02420   0.23700   1.000
    H568    H    0.32010   0.04120   0.26760   1.000
    C569    C    0.85540   0.49220   0.20600   1.000
    C570    C    0.82040   0.49190   0.24420   1.000
    H569    H    0.82970   0.48650   0.27800   1.000
    Cl285   Cl   0.91800   0.48190   0.22390   1.000
    H570    H    0.88970   0.48660   0.21480   1.000
    Cl286   Cl   0.90550   0.55990   0.22170   1.000
    H571    H    0.88050   0.54660   0.20410   1.000
    C571    C    0.85220   0.52490   0.20070   1.000
    C572    C    0.81450   0.52420   0.23700   1.000
    H572    H    0.82010   0.54120   0.26760   1.000
    C573    C    0.85540   0.99220   0.70600   1.000
    C574    C    0.82040   0.99190   0.74420   1.000
    H573    H    0.82970   0.98650   0.77800   1.000
    Cl287   Cl   0.91800   0.98190   0.72390   1.000
    H574    H    0.88970   0.98660   0.71480   1.000
    Cl288   Cl   0.90550   0.05990   0.72170   1.000
    H575    H    0.88050   0.04660   0.70410   1.000
    C575    C    0.85220   0.02490   0.70070   1.000
    C576    C    0.81450   0.02420   0.73700   1.000
    H576    H    0.82010   0.04120   0.76760   1.000
    C577    C    0.64460   0.70600   0.49220   1.000
    C578    C    0.67960   0.74420   0.49190   1.000
    H577    H    0.67030   0.77800   0.48650   1.000
    Cl289   Cl   0.58200   0.72390   0.48190   1.000
    H578    H    0.61030   0.71480   0.48660   1.000
    Cl290   Cl   0.59450   0.72170   0.55990   1.000
    H579    H    0.61950   0.70410   0.54660   1.000
    C579    C    0.64780   0.70070   0.52490   1.000
    C580    C    0.68550   0.73700   0.52420   1.000
    H580    H    0.67990   0.76760   0.54120   1.000
    C581    C    0.64460   0.20600   0.99220   1.000
    C582    C    0.67960   0.24420   0.99190   1.000
    H581    H    0.67030   0.27800   0.98650   1.000
    Cl291   Cl   0.58200   0.22390   0.98190   1.000
    H582    H    0.61030   0.21480   0.98660   1.000
    Cl292   Cl   0.59450   0.22170   0.05990   1.000
    H583    H    0.61950   0.20410   0.04660   1.000
    C583    C    0.64780   0.20070   0.02490   1.000
    C584    C    0.68550   0.23700   0.02420   1.000
    H584    H    0.67990   0.26760   0.04120   1.000
    C585    C    0.14460   0.70600   0.99220   1.000
    C586    C    0.17960   0.74420   0.99190   1.000
    H585    H    0.17030   0.77800   0.98650   1.000
    Cl293   Cl   0.08200   0.72390   0.98190   1.000
    H586    H    0.11030   0.71480   0.98660   1.000
    Cl294   Cl   0.09450   0.72170   0.05990   1.000
    H587    H    0.11950   0.70410   0.04660   1.000
    C587    C    0.14780   0.70070   0.02490   1.000
    C588    C    0.18550   0.73700   0.02420   1.000
    H588    H    0.17990   0.76760   0.04120   1.000
    C589    C    0.14460   0.20600   0.49220   1.000
    C590    C    0.17960   0.24420   0.49190   1.000
    H589    H    0.17030   0.27800   0.48650   1.000
    Cl295   Cl   0.08200   0.22390   0.48190   1.000
    H590    H    0.11030   0.21480   0.48660   1.000
    Cl296   Cl   0.09450   0.22170   0.55990   1.000
    H591    H    0.11950   0.20410   0.54660   1.000
    C591    C    0.14780   0.20070   0.52490   1.000
    C592    C    0.18550   0.23700   0.52420   1.000
    H592    H    0.17990   0.26760   0.54120   1.000
    C593    C    0.35540   0.29400   0.49220   1.000
    C594    C    0.32040   0.25580   0.49190   1.000
    H593    H    0.32970   0.22200   0.48650   1.000
    Cl297   Cl   0.41800   0.27610   0.48190   1.000
    H594    H    0.38970   0.28520   0.48660   1.000
    Cl298   Cl   0.40550   0.27830   0.55990   1.000
    H595    H    0.38050   0.29590   0.54660   1.000
    C595    C    0.35220   0.29930   0.52490   1.000
    C596    C    0.31450   0.26300   0.52420   1.000
    H596    H    0.32010   0.23240   0.54120   1.000
    C597    C    0.35540   0.79400   0.99220   1.000
    C598    C    0.32040   0.75580   0.99190   1.000
    H597    H    0.32970   0.72200   0.98650   1.000
    Cl299   Cl   0.41800   0.77610   0.98190   1.000
    H598    H    0.38970   0.78520   0.98660   1.000
    Cl300   Cl   0.40550   0.77830   0.05990   1.000
    H599    H    0.38050   0.79590   0.04660   1.000
    C599    C    0.35220   0.79930   0.02490   1.000
    C600    C    0.31450   0.76300   0.02420   1.000
    H600    H    0.32010   0.73240   0.04120   1.000
    C601    C    0.85540   0.29400   0.99220   1.000
    C602    C    0.82040   0.25580   0.99190   1.000
    H601    H    0.82970   0.22200   0.98650   1.000
    Cl301   Cl   0.91800   0.27610   0.98190   1.000
    H602    H    0.88970   0.28520   0.98660   1.000
    Cl302   Cl   0.90550   0.27830   0.05990   1.000
    H603    H    0.88050   0.29590   0.04660   1.000
    C603    C    0.85220   0.29930   0.02490   1.000
    C604    C    0.81450   0.26300   0.02420   1.000
    H604    H    0.82010   0.23240   0.04120   1.000
    C605    C    0.85540   0.79400   0.49220   1.000
    C606    C    0.82040   0.75580   0.49190   1.000
    H605    H    0.82970   0.72200   0.48650   1.000
    Cl303   Cl   0.91800   0.77610   0.48190   1.000
    H606    H    0.88970   0.78520   0.48660   1.000
    Cl304   Cl   0.90550   0.77830   0.55990   1.000
    H607    H    0.88050   0.79590   0.54660   1.000
    C607    C    0.85220   0.79930   0.52490   1.000
    C608    C    0.81450   0.76300   0.52420   1.000
    H608    H    0.82010   0.73240   0.54120   1.000
    C609    C    0.64460   0.29400   0.50780   1.000
    C610    C    0.67960   0.25580   0.50810   1.000
    H609    H    0.67030   0.22200   0.51350   1.000
    Cl305   Cl   0.58200   0.27610   0.51810   1.000
    H610    H    0.61030   0.28520   0.51340   1.000
    Cl306   Cl   0.59450   0.27830   0.44010   1.000
    H611    H    0.61950   0.29590   0.45340   1.000
    C611    C    0.64780   0.29930   0.47510   1.000
    C612    C    0.68550   0.26300   0.47580   1.000
    H612    H    0.67990   0.23240   0.45880   1.000
    C613    C    0.64460   0.79400   0.00780   1.000
    C614    C    0.67960   0.75580   0.00810   1.000
    H613    H    0.67030   0.72200   0.01350   1.000
    Cl307   Cl   0.58200   0.77610   0.01810   1.000
    H614    H    0.61030   0.78520   0.01340   1.000
    Cl308   Cl   0.59450   0.77830   0.94010   1.000
    H615    H    0.61950   0.79590   0.95340   1.000
    C615    C    0.64780   0.79930   0.97510   1.000
    C616    C    0.68550   0.76300   0.97580   1.000
    H616    H    0.67990   0.73240   0.95880   1.000
    C617    C    0.14460   0.29400   0.00780   1.000
    C618    C    0.17960   0.25580   0.00810   1.000
    H617    H    0.17030   0.22200   0.01350   1.000
    Cl309   Cl   0.08200   0.27610   0.01810   1.000
    H618    H    0.11030   0.28520   0.01340   1.000
    Cl310   Cl   0.09450   0.27830   0.94010   1.000
    H619    H    0.11950   0.29590   0.95340   1.000
    C619    C    0.14780   0.29930   0.97510   1.000
    C620    C    0.18550   0.26300   0.97580   1.000
    H620    H    0.17990   0.23240   0.95880   1.000
    C621    C    0.14460   0.79400   0.50780   1.000
    C622    C    0.17960   0.75580   0.50810   1.000
    H621    H    0.17030   0.72200   0.51350   1.000
    Cl311   Cl   0.08200   0.77610   0.51810   1.000
    H622    H    0.11030   0.78520   0.51340   1.000
    Cl312   Cl   0.09450   0.77830   0.44010   1.000
    H623    H    0.11950   0.79590   0.45340   1.000
    C623    C    0.14780   0.79930   0.47510   1.000
    C624    C    0.18550   0.76300   0.47580   1.000
    H624    H    0.17990   0.73240   0.45880   1.000
    C625    C    0.35540   0.70600   0.50780   1.000
    C626    C    0.32040   0.74420   0.50810   1.000
    H625    H    0.32970   0.77800   0.51350   1.000
    Cl313   Cl   0.41800   0.72390   0.51810   1.000
    H626    H    0.38970   0.71480   0.51340   1.000
    Cl314   Cl   0.40550   0.72170   0.44010   1.000
    H627    H    0.38050   0.70410   0.45340   1.000
    C627    C    0.35220   0.70070   0.47510   1.000
    C628    C    0.31450   0.73700   0.47580   1.000
    H628    H    0.32010   0.76760   0.45880   1.000
    C629    C    0.35540   0.20600   0.00780   1.000
    C630    C    0.32040   0.24420   0.00810   1.000
    H629    H    0.32970   0.27800   0.01350   1.000
    Cl315   Cl   0.41800   0.22390   0.01810   1.000
    H630    H    0.38970   0.21480   0.01340   1.000
    Cl316   Cl   0.40550   0.22170   0.94010   1.000
    H631    H    0.38050   0.20410   0.95340   1.000
    C631    C    0.35220   0.20070   0.97510   1.000
    C632    C    0.31450   0.23700   0.97580   1.000
    H632    H    0.32010   0.26760   0.95880   1.000
    C633    C    0.85540   0.70600   0.00780   1.000
    C634    C    0.82040   0.74420   0.00810   1.000
    H633    H    0.82970   0.77800   0.01350   1.000
    Cl317   Cl   0.91800   0.72390   0.01810   1.000
    H634    H    0.88970   0.71480   0.01340   1.000
    Cl318   Cl   0.90550   0.72170   0.94010   1.000
    H635    H    0.88050   0.70410   0.95340   1.000
    C635    C    0.85220   0.70070   0.97510   1.000
    C636    C    0.81450   0.73700   0.97580   1.000
    H636    H    0.82010   0.76760   0.95880   1.000
    C637    C    0.85540   0.20600   0.50780   1.000
    C638    C    0.82040   0.24420   0.50810   1.000
    H637    H    0.82970   0.27800   0.51350   1.000
    Cl319   Cl   0.91800   0.22390   0.51810   1.000
    H638    H    0.88970   0.21480   0.51340   1.000
    Cl320   Cl   0.90550   0.22170   0.44010   1.000
    H639    H    0.88050   0.20410   0.45340   1.000
    C639    C    0.85220   0.20070   0.47510   1.000
    C640    C    0.81450   0.23700   0.47580   1.000
    H640    H    0.82010   0.26760   0.45880   1.000
    C641    C    0.70600   0.50780   0.35540   1.000
    C642    C    0.74420   0.50810   0.32040   1.000
    H641    H    0.77800   0.51350   0.32970   1.000
    Cl321   Cl   0.72390   0.51810   0.41800   1.000
    H642    H    0.71480   0.51340   0.38970   1.000
    Cl322   Cl   0.72170   0.44010   0.40550   1.000
    H643    H    0.70410   0.45340   0.38050   1.000
    C643    C    0.70070   0.47510   0.35220   1.000
    C644    C    0.73700   0.47580   0.31450   1.000
    H644    H    0.76760   0.45880   0.32010   1.000
    C645    C    0.70600   0.00780   0.85540   1.000
    C646    C    0.74420   0.00810   0.82040   1.000
    H645    H    0.77800   0.01350   0.82970   1.000
    Cl323   Cl   0.72390   0.01810   0.91800   1.000
    H646    H    0.71480   0.01340   0.88970   1.000
    Cl324   Cl   0.72170   0.94010   0.90550   1.000
    H647    H    0.70410   0.95340   0.88050   1.000
    C647    C    0.70070   0.97510   0.85220   1.000
    C648    C    0.73700   0.97580   0.81450   1.000
    H648    H    0.76760   0.95880   0.82010   1.000
    C649    C    0.20600   0.50780   0.85540   1.000
    C650    C    0.24420   0.50810   0.82040   1.000
    H649    H    0.27800   0.51350   0.82970   1.000
    Cl325   Cl   0.22390   0.51810   0.91800   1.000
    H650    H    0.21480   0.51340   0.88970   1.000
    Cl326   Cl   0.22170   0.44010   0.90550   1.000
    H651    H    0.20410   0.45340   0.88050   1.000
    C651    C    0.20070   0.47510   0.85220   1.000
    C652    C    0.23700   0.47580   0.81450   1.000
    H652    H    0.26760   0.45880   0.82010   1.000
    C653    C    0.20600   0.00780   0.35540   1.000
    C654    C    0.24420   0.00810   0.32040   1.000
    H653    H    0.27800   0.01350   0.32970   1.000
    Cl327   Cl   0.22390   0.01810   0.41800   1.000
    H654    H    0.21480   0.01340   0.38970   1.000
    Cl328   Cl   0.22170   0.94010   0.40550   1.000
    H655    H    0.20410   0.95340   0.38050   1.000
    C655    C    0.20070   0.97510   0.35220   1.000
    C656    C    0.23700   0.97580   0.31450   1.000
    H656    H    0.26760   0.95880   0.32010   1.000
    C657    C    0.29400   0.50780   0.64460   1.000
    C658    C    0.25580   0.50810   0.67960   1.000
    H657    H    0.22200   0.51350   0.67030   1.000
    Cl329   Cl   0.27610   0.51810   0.58200   1.000
    H658    H    0.28520   0.51340   0.61030   1.000
    Cl330   Cl   0.27830   0.44010   0.59450   1.000
    H659    H    0.29590   0.45340   0.61950   1.000
    C659    C    0.29930   0.47510   0.64780   1.000
    C660    C    0.26300   0.47580   0.68550   1.000
    H660    H    0.23240   0.45880   0.67990   1.000
    C661    C    0.29400   0.00780   0.14460   1.000
    C662    C    0.25580   0.00810   0.17960   1.000
    H661    H    0.22200   0.01350   0.17030   1.000
    Cl331   Cl   0.27610   0.01810   0.08200   1.000
    H662    H    0.28520   0.01340   0.11030   1.000
    Cl332   Cl   0.27830   0.94010   0.09450   1.000
    H663    H    0.29590   0.95340   0.11950   1.000
    C663    C    0.29930   0.97510   0.14780   1.000
    C664    C    0.26300   0.97580   0.18550   1.000
    H664    H    0.23240   0.95880   0.17990   1.000
    C665    C    0.79400   0.50780   0.14460   1.000
    C666    C    0.75580   0.50810   0.17960   1.000
    H665    H    0.72200   0.51350   0.17030   1.000
    Cl333   Cl   0.77610   0.51810   0.08200   1.000
    H666    H    0.78520   0.51340   0.11030   1.000
    Cl334   Cl   0.77830   0.44010   0.09450   1.000
    H667    H    0.79590   0.45340   0.11950   1.000
    C667    C    0.79930   0.47510   0.14780   1.000
    C668    C    0.76300   0.47580   0.18550   1.000
    H668    H    0.73240   0.45880   0.17990   1.000
    C669    C    0.79400   0.00780   0.64460   1.000
    C670    C    0.75580   0.00810   0.67960   1.000
    H669    H    0.72200   0.01350   0.67030   1.000
    Cl335   Cl   0.77610   0.01810   0.58200   1.000
    H670    H    0.78520   0.01340   0.61030   1.000
    Cl336   Cl   0.77830   0.94010   0.59450   1.000
    H671    H    0.79590   0.95340   0.61950   1.000
    C671    C    0.79930   0.97510   0.64780   1.000
    C672    C    0.76300   0.97580   0.68550   1.000
    H672    H    0.73240   0.95880   0.67990   1.000
    C673    C    0.29400   0.49220   0.35540   1.000
    C674    C    0.25580   0.49190   0.32040   1.000
    H673    H    0.22200   0.48650   0.32970   1.000
    Cl337   Cl   0.27610   0.48190   0.41800   1.000
    H674    H    0.28520   0.48660   0.38970   1.000
    Cl338   Cl   0.27830   0.55990   0.40550   1.000
    H675    H    0.29590   0.54660   0.38050   1.000
    C675    C    0.29930   0.52490   0.35220   1.000
    C676    C    0.26300   0.52420   0.31450   1.000
    H676    H    0.23240   0.54120   0.32010   1.000
    C677    C    0.29400   0.99220   0.85540   1.000
    C678    C    0.25580   0.99190   0.82040   1.000
    H677    H    0.22200   0.98650   0.82970   1.000
    Cl339   Cl   0.27610   0.98190   0.91800   1.000
    H678    H    0.28520   0.98660   0.88970   1.000
    Cl340   Cl   0.27830   0.05990   0.90550   1.000
    H679    H    0.29590   0.04660   0.88050   1.000
    C679    C    0.29930   0.02490   0.85220   1.000
    C680    C    0.26300   0.02420   0.81450   1.000
    H680    H    0.23240   0.04120   0.82010   1.000
    C681    C    0.79400   0.49220   0.85540   1.000
    C682    C    0.75580   0.49190   0.82040   1.000
    H681    H    0.72200   0.48650   0.82970   1.000
    Cl341   Cl   0.77610   0.48190   0.91800   1.000
    H682    H    0.78520   0.48660   0.88970   1.000
    Cl342   Cl   0.77830   0.55990   0.90550   1.000
    H683    H    0.79590   0.54660   0.88050   1.000
    C683    C    0.79930   0.52490   0.85220   1.000
    C684    C    0.76300   0.52420   0.81450   1.000
    H684    H    0.73240   0.54120   0.82010   1.000
    C685    C    0.79400   0.99220   0.35540   1.000
    C686    C    0.75580   0.99190   0.32040   1.000
    H685    H    0.72200   0.98650   0.32970   1.000
    Cl343   Cl   0.77610   0.98190   0.41800   1.000
    H686    H    0.78520   0.98660   0.38970   1.000
    Cl344   Cl   0.77830   0.05990   0.40550   1.000
    H687    H    0.79590   0.04660   0.38050   1.000
    C687    C    0.79930   0.02490   0.35220   1.000
    C688    C    0.76300   0.02420   0.31450   1.000
    H688    H    0.73240   0.04120   0.32010   1.000
    C689    C    0.70600   0.49220   0.64460   1.000
    C690    C    0.74420   0.49190   0.67960   1.000
    H689    H    0.77800   0.48650   0.67030   1.000
    Cl345   Cl   0.72390   0.48190   0.58200   1.000
    H690    H    0.71480   0.48660   0.61030   1.000
    Cl346   Cl   0.72170   0.55990   0.59450   1.000
    H691    H    0.70410   0.54660   0.61950   1.000
    C691    C    0.70070   0.52490   0.64780   1.000
    C692    C    0.73700   0.52420   0.68550   1.000
    H692    H    0.76760   0.54120   0.67990   1.000
    C693    C    0.70600   0.99220   0.14460   1.000
    C694    C    0.74420   0.99190   0.17960   1.000
    H693    H    0.77800   0.98650   0.17030   1.000
    Cl347   Cl   0.72390   0.98190   0.08200   1.000
    H694    H    0.71480   0.98660   0.11030   1.000
    Cl348   Cl   0.72170   0.05990   0.09450   1.000
    H695    H    0.70410   0.04660   0.11950   1.000
    C695    C    0.70070   0.02490   0.14780   1.000
    C696    C    0.73700   0.02420   0.18550   1.000
    H696    H    0.76760   0.04120   0.17990   1.000
    C697    C    0.20600   0.49220   0.14460   1.000
    C698    C    0.24420   0.49190   0.17960   1.000
    H697    H    0.27800   0.48650   0.17030   1.000
    Cl349   Cl   0.22390   0.48190   0.08200   1.000
    H698    H    0.21480   0.48660   0.11030   1.000
    Cl350   Cl   0.22170   0.55990   0.09450   1.000
    H699    H    0.20410   0.54660   0.11950   1.000
    C699    C    0.20070   0.52490   0.14780   1.000
    C700    C    0.23700   0.52420   0.18550   1.000
    H700    H    0.26760   0.54120   0.17990   1.000
    C701    C    0.20600   0.99220   0.64460   1.000
    C702    C    0.24420   0.99190   0.67960   1.000
    H701    H    0.27800   0.98650   0.67030   1.000
    Cl351   Cl   0.22390   0.98190   0.58200   1.000
    H702    H    0.21480   0.98660   0.61030   1.000
    Cl352   Cl   0.22170   0.05990   0.59450   1.000
    H703    H    0.20410   0.04660   0.61950   1.000
    C703    C    0.20070   0.02490   0.64780   1.000
    C704    C    0.23700   0.02420   0.68550   1.000
    H704    H    0.26760   0.04120   0.67990   1.000
    C705    C    0.50780   0.64460   0.29400   1.000
    C706    C    0.50810   0.67960   0.25580   1.000
    H705    H    0.51350   0.67030   0.22200   1.000
    Cl353   Cl   0.51810   0.58200   0.27610   1.000
    H706    H    0.51340   0.61030   0.28520   1.000
    Cl354   Cl   0.44010   0.59450   0.27830   1.000
    H707    H    0.45340   0.61950   0.29590   1.000
    C707    C    0.47510   0.64780   0.29930   1.000
    C708    C    0.47580   0.68550   0.26300   1.000
    H708    H    0.45880   0.67990   0.23240   1.000
    C709    C    0.50780   0.14460   0.79400   1.000
    C710    C    0.50810   0.17960   0.75580   1.000
    H709    H    0.51350   0.17030   0.72200   1.000
    Cl355   Cl   0.51810   0.08200   0.77610   1.000
    H710    H    0.51340   0.11030   0.78520   1.000
    Cl356   Cl   0.44010   0.09450   0.77830   1.000
    H711    H    0.45340   0.11950   0.79590   1.000
    C711    C    0.47510   0.14780   0.79930   1.000
    C712    C    0.47580   0.18550   0.76300   1.000
    H712    H    0.45880   0.17990   0.73240   1.000
    C713    C    0.00780   0.64460   0.79400   1.000
    C714    C    0.00810   0.67960   0.75580   1.000
    H713    H    0.01350   0.67030   0.72200   1.000
    Cl357   Cl   0.01810   0.58200   0.77610   1.000
    H714    H    0.01340   0.61030   0.78520   1.000
    Cl358   Cl   0.94010   0.59450   0.77830   1.000
    H715    H    0.95340   0.61950   0.79590   1.000
    C715    C    0.97510   0.64780   0.79930   1.000
    C716    C    0.97580   0.68550   0.76300   1.000
    H716    H    0.95880   0.67990   0.73240   1.000
    C717    C    0.00780   0.14460   0.29400   1.000
    C718    C    0.00810   0.17960   0.25580   1.000
    H717    H    0.01350   0.17030   0.22200   1.000
    Cl359   Cl   0.01810   0.08200   0.27610   1.000
    H718    H    0.01340   0.11030   0.28520   1.000
    Cl360   Cl   0.94010   0.09450   0.27830   1.000
    H719    H    0.95340   0.11950   0.29590   1.000
    C719    C    0.97510   0.14780   0.29930   1.000
    C720    C    0.97580   0.18550   0.26300   1.000
    H720    H    0.95880   0.17990   0.23240   1.000
    C721    C    0.50780   0.35540   0.70600   1.000
    C722    C    0.50810   0.32040   0.74420   1.000
    H721    H    0.51350   0.32970   0.77800   1.000
    Cl361   Cl   0.51810   0.41800   0.72390   1.000
    H722    H    0.51340   0.38970   0.71480   1.000
    Cl362   Cl   0.44010   0.40550   0.72170   1.000
    H723    H    0.45340   0.38050   0.70410   1.000
    C723    C    0.47510   0.35220   0.70070   1.000
    C724    C    0.47580   0.31450   0.73700   1.000
    H724    H    0.45880   0.32010   0.76760   1.000
    C725    C    0.50780   0.85540   0.20600   1.000
    C726    C    0.50810   0.82040   0.24420   1.000
    H725    H    0.51350   0.82970   0.27800   1.000
    Cl363   Cl   0.51810   0.91800   0.22390   1.000
    H726    H    0.51340   0.88970   0.21480   1.000
    Cl364   Cl   0.44010   0.90550   0.22170   1.000
    H727    H    0.45340   0.88050   0.20410   1.000
    C727    C    0.47510   0.85220   0.20070   1.000
    C728    C    0.47580   0.81450   0.23700   1.000
    H728    H    0.45880   0.82010   0.26760   1.000
    C729    C    0.00780   0.35540   0.20600   1.000
    C730    C    0.00810   0.32040   0.24420   1.000
    H729    H    0.01350   0.32970   0.27800   1.000
    Cl365   Cl   0.01810   0.41800   0.22390   1.000
    H730    H    0.01340   0.38970   0.21480   1.000
    Cl366   Cl   0.94010   0.40550   0.22170   1.000
    H731    H    0.95340   0.38050   0.20410   1.000
    C731    C    0.97510   0.35220   0.20070   1.000
    C732    C    0.97580   0.31450   0.23700   1.000
    H732    H    0.95880   0.32010   0.26760   1.000
    C733    C    0.00780   0.85540   0.70600   1.000
    C734    C    0.00810   0.82040   0.74420   1.000
    H733    H    0.01350   0.82970   0.77800   1.000
    Cl367   Cl   0.01810   0.91800   0.72390   1.000
    H734    H    0.01340   0.88970   0.71480   1.000
    Cl368   Cl   0.94010   0.90550   0.72170   1.000
    H735    H    0.95340   0.88050   0.70410   1.000
    C735    C    0.97510   0.85220   0.70070   1.000
    C736    C    0.97580   0.81450   0.73700   1.000
    H736    H    0.95880   0.82010   0.76760   1.000
    C737    C    0.49220   0.64460   0.70600   1.000
    C738    C    0.49190   0.67960   0.74420   1.000
    H737    H    0.48650   0.67030   0.77800   1.000
    Cl369   Cl   0.48190   0.58200   0.72390   1.000
    H738    H    0.48660   0.61030   0.71480   1.000
    Cl370   Cl   0.55990   0.59450   0.72170   1.000
    H739    H    0.54660   0.61950   0.70410   1.000
    C739    C    0.52490   0.64780   0.70070   1.000
    C740    C    0.52420   0.68550   0.73700   1.000
    H740    H    0.54120   0.67990   0.76760   1.000
    C741    C    0.49220   0.14460   0.20600   1.000
    C742    C    0.49190   0.17960   0.24420   1.000
    H741    H    0.48650   0.17030   0.27800   1.000
    Cl371   Cl   0.48190   0.08200   0.22390   1.000
    H742    H    0.48660   0.11030   0.21480   1.000
    Cl372   Cl   0.55990   0.09450   0.22170   1.000
    H743    H    0.54660   0.11950   0.20410   1.000
    C743    C    0.52490   0.14780   0.20070   1.000
    C744    C    0.52420   0.18550   0.23700   1.000
    H744    H    0.54120   0.17990   0.26760   1.000
    C745    C    0.99220   0.64460   0.20600   1.000
    C746    C    0.99190   0.67960   0.24420   1.000
    H745    H    0.98650   0.67030   0.27800   1.000
    Cl373   Cl   0.98190   0.58200   0.22390   1.000
    H746    H    0.98660   0.61030   0.21480   1.000
    Cl374   Cl   0.05990   0.59450   0.22170   1.000
    H747    H    0.04660   0.61950   0.20410   1.000
    C747    C    0.02490   0.64780   0.20070   1.000
    C748    C    0.02420   0.68550   0.23700   1.000
    H748    H    0.04120   0.67990   0.26760   1.000
    C749    C    0.99220   0.14460   0.70600   1.000
    C750    C    0.99190   0.17960   0.74420   1.000
    H749    H    0.98650   0.17030   0.77800   1.000
    Cl375   Cl   0.98190   0.08200   0.72390   1.000
    H750    H    0.98660   0.11030   0.71480   1.000
    Cl376   Cl   0.05990   0.09450   0.72170   1.000
    H751    H    0.04660   0.11950   0.70410   1.000
    C751    C    0.02490   0.14780   0.70070   1.000
    C752    C    0.02420   0.18550   0.73700   1.000
    H752    H    0.04120   0.17990   0.76760   1.000
    C753    C    0.49220   0.35540   0.29400   1.000
    C754    C    0.49190   0.32040   0.25580   1.000
    H753    H    0.48650   0.32970   0.22200   1.000
    Cl377   Cl   0.48190   0.41800   0.27610   1.000
    H754    H    0.48660   0.38970   0.28520   1.000
    Cl378   Cl   0.55990   0.40550   0.27830   1.000
    H755    H    0.54660   0.38050   0.29590   1.000
    C755    C    0.52490   0.35220   0.29930   1.000
    C756    C    0.52420   0.31450   0.26300   1.000
    H756    H    0.54120   0.32010   0.23240   1.000
    C757    C    0.49220   0.85540   0.79400   1.000
    C758    C    0.49190   0.82040   0.75580   1.000
    H757    H    0.48650   0.82970   0.72200   1.000
    Cl379   Cl   0.48190   0.91800   0.77610   1.000
    H758    H    0.48660   0.88970   0.78520   1.000
    Cl380   Cl   0.55990   0.90550   0.77830   1.000
    H759    H    0.54660   0.88050   0.79590   1.000
    C759    C    0.52490   0.85220   0.79930   1.000
    C760    C    0.52420   0.81450   0.76300   1.000
    H760    H    0.54120   0.82010   0.73240   1.000
    C761    C    0.99220   0.35540   0.79400   1.000
    C762    C    0.99190   0.32040   0.75580   1.000
    H761    H    0.98650   0.32970   0.72200   1.000
    Cl381   Cl   0.98190   0.41800   0.77610   1.000
    H762    H    0.98660   0.38970   0.78520   1.000
    Cl382   Cl   0.05990   0.40550   0.77830   1.000
    H763    H    0.04660   0.38050   0.79590   1.000
    C763    C    0.02490   0.35220   0.79930   1.000
    C764    C    0.02420   0.31450   0.76300   1.000
    H764    H    0.04120   0.32010   0.73240   1.000
    C765    C    0.99220   0.85540   0.29400   1.000
    C766    C    0.99190   0.82040   0.25580   1.000
    H765    H    0.98650   0.82970   0.22200   1.000
    Cl383   Cl   0.98190   0.91800   0.27610   1.000
    H766    H    0.98660   0.88970   0.28520   1.000
    Cl384   Cl   0.05990   0.90550   0.27830   1.000
    H767    H    0.04660   0.88050   0.29590   1.000
    C767    C    0.02490   0.85220   0.29930   1.000
    C768    C    0.02420   0.81450   0.26300   1.000
    H768    H    0.04120   0.82010   0.23240   1.000
    Zr1     Zr   0.40789   0.50000   0.50000   1.000
    Zr2     Zr   0.40789   0.00000   0.00000   1.000
    Zr3     Zr   0.90789   0.50000   0.00000   1.000
    Zr4     Zr   0.90789   0.00000   0.50000   1.000
    Zr5     Zr   0.59211   0.50000   0.50000   1.000
    Zr6     Zr   0.59211   0.00000   0.00000   1.000
    Zr7     Zr   0.09211   0.50000   0.00000   1.000
    Zr8     Zr   0.09211   0.00000   0.50000   1.000
    Zr9     Zr   0.50000   0.40789   0.50000   1.000
    Zr10    Zr   0.50000   0.90789   0.00000   1.000
    Zr11    Zr   0.00000   0.40789   0.00000   1.000
    Zr12    Zr   0.00000   0.90789   0.50000   1.000
    Zr13    Zr   0.50000   0.59211   0.50000   1.000
    Zr14    Zr   0.50000   0.09211   0.00000   1.000
    Zr15    Zr   0.00000   0.59211   0.00000   1.000
    Zr16    Zr   0.00000   0.09211   0.50000   1.000
    Zr17    Zr   0.50000   0.50000   0.40789   1.000
    Zr18    Zr   0.50000   0.00000   0.90789   1.000
    Zr19    Zr   0.00000   0.50000   0.90789   1.000
    Zr20    Zr   0.00000   0.00000   0.40789   1.000
    Zr21    Zr   0.50000   0.50000   0.59211   1.000
    Zr22    Zr   0.50000   0.00000   0.09211   1.000
    Zr23    Zr   0.00000   0.50000   0.09211   1.000
    Zr24    Zr   0.00000   0.00000   0.59211   1.000
    O1      O    0.46040   0.53960   0.53960   1.000
    O2      O    0.44720   0.55280   0.55280   1.000
    O3      O    0.46040   0.03960   0.03960   1.000
    O4      O    0.44720   0.05280   0.05280   1.000
    O5      O    0.96040   0.53960   0.03960   1.000
    O6      O    0.94720   0.55280   0.05280   1.000
    O7      O    0.96040   0.03960   0.53960   1.000
    O8      O    0.94720   0.05280   0.55280   1.000
    O9      O    0.53960   0.46040   0.53960   1.000
    O10     O    0.55280   0.44720   0.55280   1.000
    O11     O    0.53960   0.96040   0.03960   1.000
    O12     O    0.55280   0.94720   0.05280   1.000
    O13     O    0.03960   0.46040   0.03960   1.000
    O14     O    0.05280   0.44720   0.05280   1.000
    O15     O    0.03960   0.96040   0.53960   1.000
    O16     O    0.05280   0.94720   0.55280   1.000
    O17     O    0.53960   0.53960   0.46040   1.000
    O18     O    0.55280   0.55280   0.44720   1.000
    O19     O    0.53960   0.03960   0.96040   1.000
    O20     O    0.55280   0.05280   0.94720   1.000
    O21     O    0.03960   0.53960   0.96040   1.000
    O22     O    0.05280   0.55280   0.94720   1.000
    O23     O    0.03960   0.03960   0.46040   1.000
    O24     O    0.05280   0.05280   0.44720   1.000
    O25     O    0.46040   0.46040   0.46040   1.000
    O26     O    0.44720   0.44720   0.44720   1.000
    O27     O    0.46040   0.96040   0.96040   1.000
    O28     O    0.44720   0.94720   0.94720   1.000
    O29     O    0.96040   0.46040   0.96040   1.000
    O30     O    0.94720   0.44720   0.94720   1.000
    O31     O    0.96040   0.96040   0.46040   1.000
    O32     O    0.94720   0.94720   0.44720   1.000
    O33     O    0.53960   0.46040   0.46040   1.000
    O34     O    0.55280   0.44720   0.44720   1.000
    O35     O    0.53960   0.96040   0.96040   1.000
    O36     O    0.55280   0.94720   0.94720   1.000
    O37     O    0.03960   0.46040   0.96040   1.000
    O38     O    0.05280   0.44720   0.94720   1.000
    O39     O    0.03960   0.96040   0.46040   1.000
    O40     O    0.05280   0.94720   0.44720   1.000
    O41     O    0.46040   0.53960   0.46040   1.000
    O42     O    0.44720   0.55280   0.44720   1.000
    O43     O    0.46040   0.03960   0.96040   1.000
    O44     O    0.44720   0.05280   0.94720   1.000
    O45     O    0.96040   0.53960   0.96040   1.000
    O46     O    0.94720   0.55280   0.94720   1.000
    O47     O    0.96040   0.03960   0.46040   1.000
    O48     O    0.94720   0.05280   0.44720   1.000
    O49     O    0.53960   0.53960   0.53960   1.000
    O50     O    0.55280   0.55280   0.55280   1.000
    O51     O    0.53960   0.03960   0.03960   1.000
    O52     O    0.55280   0.05280   0.05280   1.000
    O53     O    0.03960   0.53960   0.03960   1.000
    O54     O    0.05280   0.55280   0.05280   1.000
    O55     O    0.03960   0.03960   0.53960   1.000
    O56     O    0.05280   0.05280   0.55280   1.000
    O57     O    0.46040   0.46040   0.53960   1.000
    O58     O    0.44720   0.44720   0.55280   1.000
    O59     O    0.46040   0.96040   0.03960   1.000
    O60     O    0.44720   0.94720   0.05280   1.000
    O61     O    0.96040   0.46040   0.03960   1.000
    O62     O    0.94720   0.44720   0.05280   1.000
    O63     O    0.96040   0.96040   0.53960   1.000
    O64     O    0.94720   0.94720   0.55280   1.000
    O65     O    0.36723   0.42798   0.50000   1.000
    O66     O    0.36723   0.92798   0.00000   1.000
    O67     O    0.86723   0.42798   0.00000   1.000
    O68     O    0.86723   0.92798   0.50000   1.000
    O69     O    0.63277   0.57202   0.50000   1.000
    O70     O    0.63277   0.07202   0.00000   1.000
    O71     O    0.13277   0.57202   0.00000   1.000
    O72     O    0.13277   0.07202   0.50000   1.000
    O73     O    0.63277   0.42798   0.50000   1.000
    O74     O    0.63277   0.92798   0.00000   1.000
    O75     O    0.13277   0.42798   0.00000   1.000
    O76     O    0.13277   0.92798   0.50000   1.000
    O77     O    0.36723   0.57202   0.50000   1.000
    O78     O    0.36723   0.07202   0.00000   1.000
    O79     O    0.86723   0.57202   0.00000   1.000
    O80     O    0.86723   0.07202   0.50000   1.000
    O81     O    0.50000   0.36723   0.42798   1.000
    O82     O    0.50000   0.86723   0.92798   1.000
    O83     O    0.00000   0.36723   0.92798   1.000
    O84     O    0.00000   0.86723   0.42798   1.000
    O85     O    0.50000   0.63277   0.57202   1.000
    O86     O    0.50000   0.13277   0.07202   1.000
    O87     O    0.00000   0.63277   0.07202   1.000
    O88     O    0.00000   0.13277   0.57202   1.000
    O89     O    0.50000   0.63277   0.42798   1.000
    O90     O    0.50000   0.13277   0.92798   1.000
    O91     O    0.00000   0.63277   0.92798   1.000
    O92     O    0.00000   0.13277   0.42798   1.000
    O93     O    0.50000   0.36723   0.57202   1.000
    O94     O    0.50000   0.86723   0.07202   1.000
    O95     O    0.00000   0.36723   0.07202   1.000
    O96     O    0.00000   0.86723   0.57202   1.000
    O97     O    0.42798   0.50000   0.36723   1.000
    O98     O    0.42798   0.00000   0.86723   1.000
    O99     O    0.92798   0.50000   0.86723   1.000
    O100    O    0.92798   0.00000   0.36723   1.000
    O101    O    0.57202   0.50000   0.63277   1.000
    O102    O    0.57202   0.00000   0.13277   1.000
    O103    O    0.07202   0.50000   0.13277   1.000
    O104    O    0.07202   0.00000   0.63277   1.000
    O105    O    0.42798   0.50000   0.63277   1.000
    O106    O    0.42798   0.00000   0.13277   1.000
    O107    O    0.92798   0.50000   0.13277   1.000
    O108    O    0.92798   0.00000   0.63277   1.000
    O109    O    0.57202   0.50000   0.36723   1.000
    O110    O    0.57202   0.00000   0.86723   1.000
    O111    O    0.07202   0.50000   0.86723   1.000
    O112    O    0.07202   0.00000   0.36723   1.000
    O113    O    0.42798   0.36723   0.50000   1.000
    O114    O    0.42798   0.86723   0.00000   1.000
    O115    O    0.92798   0.36723   0.00000   1.000
    O116    O    0.92798   0.86723   0.50000   1.000
    O117    O    0.57202   0.63277   0.50000   1.000
    O118    O    0.57202   0.13277   0.00000   1.000
    O119    O    0.07202   0.63277   0.00000   1.000
    O120    O    0.07202   0.13277   0.50000   1.000
    O121    O    0.42798   0.63277   0.50000   1.000
    O122    O    0.42798   0.13277   0.00000   1.000
    O123    O    0.92798   0.63277   0.00000   1.000
    O124    O    0.92798   0.13277   0.50000   1.000
    O125    O    0.57202   0.36723   0.50000   1.000
    O126    O    0.57202   0.86723   0.00000   1.000
    O127    O    0.07202   0.36723   0.00000   1.000
    O128    O    0.07202   0.86723   0.50000   1.000
    O129    O    0.36723   0.50000   0.57202   1.000
    O130    O    0.36723   0.00000   0.07202   1.000
    O131    O    0.86723   0.50000   0.07202   1.000
    O132    O    0.86723   0.00000   0.57202   1.000
    O133    O    0.63277   0.50000   0.42798   1.000
    O134    O    0.63277   0.00000   0.92798   1.000
    O135    O    0.13277   0.50000   0.92798   1.000
    O136    O    0.13277   0.00000   0.42798   1.000
    O137    O    0.63277   0.50000   0.57202   1.000
    O138    O    0.63277   0.00000   0.07202   1.000
    O139    O    0.13277   0.50000   0.07202   1.000
    O140    O    0.13277   0.00000   0.57202   1.000
    O141    O    0.36723   0.50000   0.42798   1.000
    O142    O    0.36723   0.00000   0.92798   1.000
    O143    O    0.86723   0.50000   0.92798   1.000
    O144    O    0.86723   0.00000   0.42798   1.000
    O145    O    0.50000   0.42798   0.63277   1.000
    O146    O    0.50000   0.92798   0.13277   1.000
    O147    O    0.00000   0.42798   0.13277   1.000
    O148    O    0.00000   0.92798   0.63277   1.000
    O149    O    0.50000   0.57202   0.36723   1.000
    O150    O    0.50000   0.07202   0.86723   1.000
    O151    O    0.00000   0.57202   0.86723   1.000
    O152    O    0.00000   0.07202   0.36723   1.000
    O153    O    0.50000   0.42798   0.36723   1.000
    O154    O    0.50000   0.92798   0.86723   1.000
    O155    O    0.00000   0.42798   0.86723   1.000
    O156    O    0.00000   0.92798   0.36723   1.000
    O157    O    0.50000   0.57202   0.63277   1.000
    O158    O    0.50000   0.07202   0.13277   1.000
    O159    O    0.00000   0.57202   0.13277   1.000
    O160    O    0.00000   0.07202   0.63277   1.000
    C769    C    0.38255   0.38255   0.50000   1.000
    C770    C    0.34378   0.34378   0.50000   1.000
    C771    C    0.26990   0.26990   0.50000   1.000
    C772    C    0.38255   0.88255   0.00000   1.000
    C773    C    0.34378   0.84378   0.00000   1.000
    C774    C    0.26990   0.76990   0.00000   1.000
    C775    C    0.88255   0.38255   0.00000   1.000
    C776    C    0.84378   0.34378   0.00000   1.000
    C777    C    0.76990   0.26990   0.00000   1.000
    C778    C    0.88255   0.88255   0.50000   1.000
    C779    C    0.84378   0.84378   0.50000   1.000
    C780    C    0.76990   0.76990   0.50000   1.000
    C781    C    0.61745   0.61745   0.50000   1.000
    C782    C    0.65622   0.65622   0.50000   1.000
    C783    C    0.73010   0.73010   0.50000   1.000
    C784    C    0.61745   0.11745   0.00000   1.000
    C785    C    0.65622   0.15622   0.00000   1.000
    C786    C    0.73010   0.23010   0.00000   1.000
    C787    C    0.11745   0.61745   0.00000   1.000
    C788    C    0.15622   0.65622   0.00000   1.000
    C789    C    0.23010   0.73010   0.00000   1.000
    C790    C    0.11745   0.11745   0.50000   1.000
    C791    C    0.15622   0.15622   0.50000   1.000
    C792    C    0.23010   0.23010   0.50000   1.000
    C793    C    0.61745   0.38255   0.50000   1.000
    C794    C    0.65622   0.34378   0.50000   1.000
    C795    C    0.73010   0.26990   0.50000   1.000
    C796    C    0.61745   0.88255   0.00000   1.000
    C797    C    0.65622   0.84378   0.00000   1.000
    C798    C    0.73010   0.76990   0.00000   1.000
    C799    C    0.11745   0.38255   0.00000   1.000
    C800    C    0.15622   0.34378   0.00000   1.000
    C801    C    0.23010   0.26990   0.00000   1.000
    C802    C    0.11745   0.88255   0.50000   1.000
    C803    C    0.15622   0.84378   0.50000   1.000
    C804    C    0.23010   0.76990   0.50000   1.000
    C805    C    0.38255   0.61745   0.50000   1.000
    C806    C    0.34378   0.65622   0.50000   1.000
    C807    C    0.26990   0.73010   0.50000   1.000
    C808    C    0.38255   0.11745   0.00000   1.000
    C809    C    0.34378   0.15622   0.00000   1.000
    C810    C    0.26990   0.23010   0.00000   1.000
    C811    C    0.88255   0.61745   0.00000   1.000
    C812    C    0.84378   0.65622   0.00000   1.000
    C813    C    0.76990   0.73010   0.00000   1.000
    C814    C    0.88255   0.11745   0.50000   1.000
    C815    C    0.84378   0.15622   0.50000   1.000
    C816    C    0.76990   0.23010   0.50000   1.000
    C817    C    0.50000   0.38255   0.38255   1.000
    C818    C    0.50000   0.34378   0.34378   1.000
    C819    C    0.50000   0.26990   0.26990   1.000
    C820    C    0.50000   0.88255   0.88255   1.000
    C821    C    0.50000   0.84378   0.84378   1.000
    C822    C    0.50000   0.76990   0.76990   1.000
    C823    C    0.00000   0.38255   0.88255   1.000
    C824    C    0.00000   0.34378   0.84378   1.000
    C825    C    0.00000   0.26990   0.76990   1.000
    C826    C    0.00000   0.88255   0.38255   1.000
    C827    C    0.00000   0.84378   0.34378   1.000
    C828    C    0.00000   0.76990   0.26990   1.000
    C829    C    0.50000   0.61745   0.61745   1.000
    C830    C    0.50000   0.65622   0.65622   1.000
    C831    C    0.50000   0.73010   0.73010   1.000
    C832    C    0.50000   0.11745   0.11745   1.000
    C833    C    0.50000   0.15622   0.15622   1.000
    C834    C    0.50000   0.23010   0.23010   1.000
    C835    C    0.00000   0.61745   0.11745   1.000
    C836    C    0.00000   0.65622   0.15622   1.000
    C837    C    0.00000   0.73010   0.23010   1.000
    C838    C    0.00000   0.11745   0.61745   1.000
    C839    C    0.00000   0.15622   0.65622   1.000
    C840    C    0.00000   0.23010   0.73010   1.000
    C841    C    0.50000   0.61745   0.38255   1.000
    C842    C    0.50000   0.65622   0.34378   1.000
    C843    C    0.50000   0.73010   0.26990   1.000
    C844    C    0.50000   0.11745   0.88255   1.000
    C845    C    0.50000   0.15622   0.84378   1.000
    C846    C    0.50000   0.23010   0.76990   1.000
    C847    C    0.00000   0.61745   0.88255   1.000
    C848    C    0.00000   0.65622   0.84378   1.000
    C849    C    0.00000   0.73010   0.76990   1.000
    C850    C    0.00000   0.11745   0.38255   1.000
    C851    C    0.00000   0.15622   0.34378   1.000
    C852    C    0.00000   0.23010   0.26990   1.000
    C853    C    0.50000   0.38255   0.61745   1.000
    C854    C    0.50000   0.34378   0.65622   1.000
    C855    C    0.50000   0.26990   0.73010   1.000
    C856    C    0.50000   0.88255   0.11745   1.000
    C857    C    0.50000   0.84378   0.15622   1.000
    C858    C    0.50000   0.76990   0.23010   1.000
    C859    C    0.00000   0.38255   0.11745   1.000
    C860    C    0.00000   0.34378   0.15622   1.000
    C861    C    0.00000   0.26990   0.23010   1.000
    C862    C    0.00000   0.88255   0.61745   1.000
    C863    C    0.00000   0.84378   0.65622   1.000
    C864    C    0.00000   0.76990   0.73010   1.000
    C865    C    0.38255   0.50000   0.38255   1.000
    C866    C    0.34378   0.50000   0.34378   1.000
    C867    C    0.26990   0.50000   0.26990   1.000
    C868    C    0.38255   0.00000   0.88255   1.000
    C869    C    0.34378   0.00000   0.84378   1.000
    C870    C    0.26990   0.00000   0.76990   1.000
    C871    C    0.88255   0.50000   0.88255   1.000
    C872    C    0.84378   0.50000   0.84378   1.000
    C873    C    0.76990   0.50000   0.76990   1.000
    C874    C    0.88255   0.00000   0.38255   1.000
    C875    C    0.84378   0.00000   0.34378   1.000
    C876    C    0.76990   0.00000   0.26990   1.000
    C877    C    0.61745   0.50000   0.61745   1.000
    C878    C    0.65622   0.50000   0.65622   1.000
    C879    C    0.73010   0.50000   0.73010   1.000
    C880    C    0.61745   0.00000   0.11745   1.000
    C881    C    0.65622   0.00000   0.15622   1.000
    C882    C    0.73010   0.00000   0.23010   1.000
    C883    C    0.11745   0.50000   0.11745   1.000
    C884    C    0.15622   0.50000   0.15622   1.000
    C885    C    0.23010   0.50000   0.23010   1.000
    C886    C    0.11745   0.00000   0.61745   1.000
    C887    C    0.15622   0.00000   0.65622   1.000
    C888    C    0.23010   0.00000   0.73010   1.000
    C889    C    0.38255   0.50000   0.61745   1.000
    C890    C    0.34378   0.50000   0.65622   1.000
    C891    C    0.26990   0.50000   0.73010   1.000
    C892    C    0.38255   0.00000   0.11745   1.000
    C893    C    0.34378   0.00000   0.15622   1.000
    C894    C    0.26990   0.00000   0.23010   1.000
    C895    C    0.88255   0.50000   0.11745   1.000
    C896    C    0.84378   0.50000   0.15622   1.000
    C897    C    0.76990   0.50000   0.23010   1.000
    C898    C    0.88255   0.00000   0.61745   1.000
    C899    C    0.84378   0.00000   0.65622   1.000
    C900    C    0.76990   0.00000   0.73010   1.000
    C901    C    0.61745   0.50000   0.38255   1.000
    C902    C    0.65622   0.50000   0.34378   1.000
    C903    C    0.73010   0.50000   0.26990   1.000
    C904    C    0.61745   0.00000   0.88255   1.000
    C905    C    0.65622   0.00000   0.84378   1.000
    C906    C    0.73010   0.00000   0.76990   1.000
    C907    C    0.11745   0.50000   0.88255   1.000
    C908    C    0.15622   0.50000   0.84378   1.000
    C909    C    0.23010   0.50000   0.76990   1.000
    C910    C    0.11745   0.00000   0.38255   1.000
    C911    C    0.15622   0.00000   0.34378   1.000
    C912    C    0.23010   0.00000   0.26990   1.000
