# CIF file generated by openbabel 2.4.1, see http://openbabel.sf.net
data_I
_chemical_name_common 'image0'
_cell_length_a 38.741
_cell_length_b 38.741
_cell_length_c 38.741
_cell_angle_alpha 90
_cell_angle_beta 90
_cell_angle_gamma 90
_space_group_name_H-M_alt 'P 1'
_space_group_name_Hall 'P 1'
loop_
    _symmetry_equiv_pos_as_xyz
    x,y,z
loop_
    _atom_site_label
    _atom_site_type_symbol
    _atom_site_fract_x
    _atom_site_fract_y
    _atom_site_fract_z
    _atom_site_occupancy
    Cl1     Cl   0.71050   0.92030   0.29160   1.000
    N1      N    0.72570   0.98850   0.22770   1.000
    C1      C    0.72600   0.90960   0.22430   1.000
    C2      C    0.73530   0.02130   0.23870   1.000
    C3      C    0.70040   0.98470   0.20270   1.000
    O1      O    0.71310   0.88610   0.21030   1.000
    C4      C    0.71950   0.05030   0.22470   1.000
    C5      C    0.68460   0.01370   0.18860   1.000
    C6      C    0.69410   0.04650   0.19960   1.000
    C7      C    0.65750   0.01300   0.16070   1.000
    C8      C    0.66740   0.01180   0.12630   1.000
    C9      C    0.62260   0.01330   0.16940   1.000
    C10     C    0.64250   0.01110   0.10040   1.000
    C11     C    0.59770   0.01250   0.14350   1.000
    C12     C    0.60770   0.01140   0.10910   1.000
    C13     C    0.58090   0.00500   0.08070   1.000
    O2      O    0.59350   0.00360   0.04760   1.000
    O3      O    0.54830   0.00250   0.09370   1.000
    Re1     Re   0.79270   0.02160   0.20750   1.000
    C14     C    0.79460   0.07010   0.19870   1.000
    O4      O    0.79600   0.10020   0.20200   1.000
    C15     C    0.79020   0.02010   0.15820   1.000
    O5      O    0.78800   0.02700   0.12880   1.000
    C16     C    0.84080   0.02520   0.19790   1.000
    O6      O    0.87020   0.02750   0.19200   1.000
    C17     C    0.68320   0.01500   0.18770   1.000
    C18     C    0.71760   0.01650   0.17760   1.000
    C19     C    0.74350   0.01780   0.20230   1.000
    C20     C    0.73510   0.01760   0.23720   1.000
    C21     C    0.70070   0.01620   0.24730   1.000
    C22     C    0.67470   0.01490   0.22260   1.000
    C23     C    0.71290   0.93590   0.28170   1.000
    O7      O    0.69100   0.93200   0.30120   1.000
    Cl2     Cl   0.71420   0.96250   0.28710   1.000
    Cl3     Cl   0.71050   0.42030   0.79160   1.000
    N2      N    0.72570   0.48850   0.72770   1.000
    C24     C    0.72600   0.40960   0.72430   1.000
    C25     C    0.73530   0.52130   0.73870   1.000
    C26     C    0.70040   0.48470   0.70270   1.000
    O8      O    0.71310   0.38610   0.71030   1.000
    C27     C    0.71950   0.55030   0.72470   1.000
    C28     C    0.68460   0.51370   0.68860   1.000
    C29     C    0.69410   0.54650   0.69960   1.000
    C30     C    0.65750   0.51300   0.66070   1.000
    C31     C    0.66740   0.51180   0.62630   1.000
    C32     C    0.62260   0.51330   0.66940   1.000
    C33     C    0.64250   0.51110   0.60040   1.000
    C34     C    0.59770   0.51250   0.64350   1.000
    C35     C    0.60770   0.51140   0.60910   1.000
    C36     C    0.58090   0.50500   0.58070   1.000
    O9      O    0.59350   0.50360   0.54760   1.000
    O10     O    0.54830   0.50250   0.59370   1.000
    Re2     Re   0.79270   0.52160   0.70750   1.000
    C37     C    0.79460   0.57010   0.69870   1.000
    O11     O    0.79600   0.60020   0.70200   1.000
    C38     C    0.79020   0.52010   0.65820   1.000
    O12     O    0.78800   0.52700   0.62880   1.000
    C39     C    0.84080   0.52520   0.69790   1.000
    O13     O    0.87020   0.52750   0.69200   1.000
    C40     C    0.68320   0.51500   0.68770   1.000
    C41     C    0.71760   0.51650   0.67760   1.000
    C42     C    0.74350   0.51780   0.70230   1.000
    C43     C    0.73510   0.51760   0.73720   1.000
    C44     C    0.70070   0.51620   0.74730   1.000
    C45     C    0.67470   0.51490   0.72260   1.000
    C46     C    0.71290   0.43590   0.78170   1.000
    O14     O    0.69100   0.43200   0.80120   1.000
    Cl4     Cl   0.71420   0.46250   0.78710   1.000
    Cl5     Cl   0.21050   0.92030   0.79160   1.000
    N3      N    0.22570   0.98850   0.72770   1.000
    C47     C    0.22600   0.90960   0.72430   1.000
    C48     C    0.23530   0.02130   0.73870   1.000
    C49     C    0.20040   0.98470   0.70270   1.000
    O15     O    0.21310   0.88610   0.71030   1.000
    C50     C    0.21950   0.05030   0.72470   1.000
    C51     C    0.18460   0.01370   0.68860   1.000
    C52     C    0.19410   0.04650   0.69960   1.000
    C53     C    0.15750   0.01300   0.66070   1.000
    C54     C    0.16740   0.01180   0.62630   1.000
    C55     C    0.12260   0.01330   0.66940   1.000
    C56     C    0.14250   0.01110   0.60040   1.000
    C57     C    0.09770   0.01250   0.64350   1.000
    C58     C    0.10770   0.01140   0.60910   1.000
    C59     C    0.08090   0.00500   0.58070   1.000
    O16     O    0.09350   0.00360   0.54760   1.000
    O17     O    0.04830   0.00250   0.59370   1.000
    Re3     Re   0.29270   0.02160   0.70750   1.000
    C60     C    0.29460   0.07010   0.69870   1.000
    O18     O    0.29600   0.10020   0.70200   1.000
    C61     C    0.29020   0.02010   0.65820   1.000
    O19     O    0.28800   0.02700   0.62880   1.000
    C62     C    0.34080   0.02520   0.69790   1.000
    O20     O    0.37020   0.02750   0.69200   1.000
    C63     C    0.18320   0.01500   0.68770   1.000
    C64     C    0.21760   0.01650   0.67760   1.000
    C65     C    0.24350   0.01780   0.70230   1.000
    C66     C    0.23510   0.01760   0.73720   1.000
    C67     C    0.20070   0.01620   0.74730   1.000
    C68     C    0.17470   0.01490   0.72260   1.000
    C69     C    0.21290   0.93590   0.78170   1.000
    O21     O    0.19100   0.93200   0.80120   1.000
    Cl6     Cl   0.21420   0.96250   0.78710   1.000
    Cl7     Cl   0.21050   0.42030   0.29160   1.000
    N4      N    0.22570   0.48850   0.22770   1.000
    C70     C    0.22600   0.40960   0.22430   1.000
    C71     C    0.23530   0.52130   0.23870   1.000
    C72     C    0.20040   0.48470   0.20270   1.000
    O22     O    0.21310   0.38610   0.21030   1.000
    C73     C    0.21950   0.55030   0.22470   1.000
    C74     C    0.18460   0.51370   0.18860   1.000
    C75     C    0.19410   0.54650   0.19960   1.000
    C76     C    0.15750   0.51300   0.16070   1.000
    C77     C    0.16740   0.51180   0.12630   1.000
    C78     C    0.12260   0.51330   0.16940   1.000
    C79     C    0.14250   0.51110   0.10040   1.000
    C80     C    0.09770   0.51250   0.14350   1.000
    C81     C    0.10770   0.51140   0.10910   1.000
    C82     C    0.08090   0.50500   0.08070   1.000
    O23     O    0.09350   0.50360   0.04760   1.000
    O24     O    0.04830   0.50250   0.09370   1.000
    Re4     Re   0.29270   0.52160   0.20750   1.000
    C83     C    0.29460   0.57010   0.19870   1.000
    O25     O    0.29600   0.60020   0.20200   1.000
    C84     C    0.29020   0.52010   0.15820   1.000
    O26     O    0.28800   0.52700   0.12880   1.000
    C85     C    0.34080   0.52520   0.19790   1.000
    O27     O    0.37020   0.52750   0.19200   1.000
    C86     C    0.18320   0.51500   0.18770   1.000
    C87     C    0.21760   0.51650   0.17760   1.000
    C88     C    0.24350   0.51780   0.20230   1.000
    C89     C    0.23510   0.51760   0.23720   1.000
    C90     C    0.20070   0.51620   0.24730   1.000
    C91     C    0.17470   0.51490   0.22260   1.000
    C92     C    0.21290   0.43590   0.28170   1.000
    O28     O    0.19100   0.43200   0.30120   1.000
    Cl8     Cl   0.21420   0.46250   0.28710   1.000
    Cl9     Cl   0.28950   0.07970   0.29160   1.000
    N5      N    0.27430   0.01150   0.22770   1.000
    C93     C    0.27400   0.09040   0.22430   1.000
    C94     C    0.26470   0.97870   0.23870   1.000
    C95     C    0.29960   0.01530   0.20270   1.000
    O29     O    0.28690   0.11390   0.21030   1.000
    C96     C    0.28050   0.94970   0.22470   1.000
    C97     C    0.31540   0.98630   0.18860   1.000
    C98     C    0.30590   0.95350   0.19960   1.000
    C99     C    0.34250   0.98700   0.16070   1.000
    C100    C    0.33260   0.98820   0.12630   1.000
    C101    C    0.37740   0.98670   0.16940   1.000
    C102    C    0.35750   0.98890   0.10040   1.000
    C103    C    0.40230   0.98750   0.14350   1.000
    C104    C    0.39230   0.98860   0.10910   1.000
    C105    C    0.41910   0.99500   0.08070   1.000
    O30     O    0.40650   0.99640   0.04760   1.000
    O31     O    0.45170   0.99750   0.09370   1.000
    Re5     Re   0.20730   0.97840   0.20750   1.000
    C106    C    0.20540   0.92990   0.19870   1.000
    O32     O    0.20400   0.89980   0.20200   1.000
    C107    C    0.20980   0.97990   0.15820   1.000
    O33     O    0.21200   0.97300   0.12880   1.000
    C108    C    0.15920   0.97480   0.19790   1.000
    O34     O    0.12980   0.97250   0.19200   1.000
    C109    C    0.31680   0.98500   0.18770   1.000
    C110    C    0.28240   0.98350   0.17760   1.000
    C111    C    0.25650   0.98220   0.20230   1.000
    C112    C    0.26490   0.98240   0.23720   1.000
    C113    C    0.29930   0.98380   0.24730   1.000
    C114    C    0.32530   0.98510   0.22260   1.000
    C115    C    0.28710   0.06410   0.28170   1.000
    O35     O    0.30900   0.06800   0.30120   1.000
    Cl10    Cl   0.28580   0.03750   0.28710   1.000
    Cl11    Cl   0.28950   0.57970   0.79160   1.000
    N6      N    0.27430   0.51150   0.72770   1.000
    C116    C    0.27400   0.59040   0.72430   1.000
    C117    C    0.26470   0.47870   0.73870   1.000
    C118    C    0.29960   0.51530   0.70270   1.000
    O36     O    0.28690   0.61390   0.71030   1.000
    C119    C    0.28050   0.44970   0.72470   1.000
    C120    C    0.31540   0.48630   0.68860   1.000
    C121    C    0.30590   0.45350   0.69960   1.000
    C122    C    0.34250   0.48700   0.66070   1.000
    C123    C    0.33260   0.48820   0.62630   1.000
    C124    C    0.37740   0.48670   0.66940   1.000
    C125    C    0.35750   0.48890   0.60040   1.000
    C126    C    0.40230   0.48750   0.64350   1.000
    C127    C    0.39230   0.48860   0.60910   1.000
    C128    C    0.41910   0.49500   0.58070   1.000
    O37     O    0.40650   0.49640   0.54760   1.000
    O38     O    0.45170   0.49750   0.59370   1.000
    Re6     Re   0.20730   0.47840   0.70750   1.000
    C129    C    0.20540   0.42990   0.69870   1.000
    O39     O    0.20400   0.39980   0.70200   1.000
    C130    C    0.20980   0.47990   0.65820   1.000
    O40     O    0.21200   0.47300   0.62880   1.000
    C131    C    0.15920   0.47480   0.69790   1.000
    O41     O    0.12980   0.47250   0.69200   1.000
    C132    C    0.31680   0.48500   0.68770   1.000
    C133    C    0.28240   0.48350   0.67760   1.000
    C134    C    0.25650   0.48220   0.70230   1.000
    C135    C    0.26490   0.48240   0.73720   1.000
    C136    C    0.29930   0.48380   0.74730   1.000
    C137    C    0.32530   0.48510   0.72260   1.000
    C138    C    0.28710   0.56410   0.78170   1.000
    O42     O    0.30900   0.56800   0.80120   1.000
    Cl12    Cl   0.28580   0.53750   0.78710   1.000
    Cl13    Cl   0.78950   0.07970   0.79160   1.000
    N7      N    0.77430   0.01150   0.72770   1.000
    C139    C    0.77400   0.09040   0.72430   1.000
    C140    C    0.76470   0.97870   0.73870   1.000
    C141    C    0.79960   0.01530   0.70270   1.000
    O43     O    0.78690   0.11390   0.71030   1.000
    C142    C    0.78050   0.94970   0.72470   1.000
    C143    C    0.81540   0.98630   0.68860   1.000
    C144    C    0.80590   0.95350   0.69960   1.000
    C145    C    0.84250   0.98700   0.66070   1.000
    C146    C    0.83260   0.98820   0.62630   1.000
    C147    C    0.87740   0.98670   0.66940   1.000
    C148    C    0.85750   0.98890   0.60040   1.000
    C149    C    0.90230   0.98750   0.64350   1.000
    C150    C    0.89230   0.98860   0.60910   1.000
    C151    C    0.91910   0.99500   0.58070   1.000
    O44     O    0.90650   0.99640   0.54760   1.000
    O45     O    0.95170   0.99750   0.59370   1.000
    Re7     Re   0.70730   0.97840   0.70750   1.000
    C152    C    0.70540   0.92990   0.69870   1.000
    O46     O    0.70400   0.89980   0.70200   1.000
    C153    C    0.70980   0.97990   0.65820   1.000
    O47     O    0.71200   0.97300   0.62880   1.000
    C154    C    0.65920   0.97480   0.69790   1.000
    O48     O    0.62980   0.97250   0.69200   1.000
    C155    C    0.81680   0.98500   0.68770   1.000
    C156    C    0.78240   0.98350   0.67760   1.000
    C157    C    0.75650   0.98220   0.70230   1.000
    C158    C    0.76490   0.98240   0.73720   1.000
    C159    C    0.79930   0.98380   0.74730   1.000
    C160    C    0.82530   0.98510   0.72260   1.000
    C161    C    0.78710   0.06410   0.78170   1.000
    O49     O    0.80900   0.06800   0.80120   1.000
    Cl14    Cl   0.78580   0.03750   0.78710   1.000
    Cl15    Cl   0.78950   0.57970   0.29160   1.000
    N8      N    0.77430   0.51150   0.22770   1.000
    C162    C    0.77400   0.59040   0.22430   1.000
    C163    C    0.76470   0.47870   0.23870   1.000
    C164    C    0.79960   0.51530   0.20270   1.000
    O50     O    0.78690   0.61390   0.21030   1.000
    C165    C    0.78050   0.44970   0.22470   1.000
    C166    C    0.81540   0.48630   0.18860   1.000
    C167    C    0.80590   0.45350   0.19960   1.000
    C168    C    0.84250   0.48700   0.16070   1.000
    C169    C    0.83260   0.48820   0.12630   1.000
    C170    C    0.87740   0.48670   0.16940   1.000
    C171    C    0.85750   0.48890   0.10040   1.000
    C172    C    0.90230   0.48750   0.14350   1.000
    C173    C    0.89230   0.48860   0.10910   1.000
    C174    C    0.91910   0.49500   0.08070   1.000
    O51     O    0.90650   0.49640   0.04760   1.000
    O52     O    0.95170   0.49750   0.09370   1.000
    Re8     Re   0.70730   0.47840   0.20750   1.000
    C175    C    0.70540   0.42990   0.19870   1.000
    O53     O    0.70400   0.39980   0.20200   1.000
    C176    C    0.70980   0.47990   0.15820   1.000
    O54     O    0.71200   0.47300   0.12880   1.000
    C177    C    0.65920   0.47480   0.19790   1.000
    O55     O    0.62980   0.47250   0.19200   1.000
    C178    C    0.81680   0.48500   0.18770   1.000
    C179    C    0.78240   0.48350   0.17760   1.000
    C180    C    0.75650   0.48220   0.20230   1.000
    C181    C    0.76490   0.48240   0.23720   1.000
    C182    C    0.79930   0.48380   0.24730   1.000
    C183    C    0.82530   0.48510   0.22260   1.000
    C184    C    0.78710   0.56410   0.28170   1.000
    O56     O    0.80900   0.56800   0.30120   1.000
    Cl16    Cl   0.78580   0.53750   0.28710   1.000
    Cl17    Cl   0.28950   0.92030   0.70840   1.000
    N9      N    0.27430   0.98850   0.77230   1.000
    C185    C    0.27400   0.90960   0.77570   1.000
    C186    C    0.26470   0.02130   0.76130   1.000
    C187    C    0.29960   0.98470   0.79730   1.000
    O57     O    0.28690   0.88610   0.78970   1.000
    C188    C    0.28050   0.05030   0.77530   1.000
    C189    C    0.31540   0.01370   0.81140   1.000
    C190    C    0.30590   0.04650   0.80040   1.000
    C191    C    0.34250   0.01300   0.83930   1.000
    C192    C    0.33260   0.01180   0.87370   1.000
    C193    C    0.37740   0.01330   0.83060   1.000
    C194    C    0.35750   0.01110   0.89960   1.000
    C195    C    0.40230   0.01250   0.85650   1.000
    C196    C    0.39230   0.01140   0.89090   1.000
    C197    C    0.41910   0.00500   0.91930   1.000
    O58     O    0.40650   0.00360   0.95240   1.000
    O59     O    0.45170   0.00250   0.90630   1.000
    Re9     Re   0.20730   0.02160   0.79250   1.000
    C198    C    0.20540   0.07010   0.80130   1.000
    O60     O    0.20400   0.10020   0.79800   1.000
    C199    C    0.20980   0.02010   0.84180   1.000
    O61     O    0.21200   0.02700   0.87120   1.000
    C200    C    0.15920   0.02520   0.80210   1.000
    O62     O    0.12980   0.02750   0.80800   1.000
    C201    C    0.31680   0.01500   0.81230   1.000
    C202    C    0.28240   0.01650   0.82240   1.000
    C203    C    0.25650   0.01780   0.79770   1.000
    C204    C    0.26490   0.01760   0.76280   1.000
    C205    C    0.29930   0.01620   0.75270   1.000
    C206    C    0.32530   0.01490   0.77740   1.000
    C207    C    0.28710   0.93590   0.71830   1.000
    O63     O    0.30900   0.93200   0.69880   1.000
    Cl18    Cl   0.28580   0.96250   0.71290   1.000
    Cl19    Cl   0.28950   0.42030   0.20840   1.000
    N10     N    0.27430   0.48850   0.27230   1.000
    C208    C    0.27400   0.40960   0.27570   1.000
    C209    C    0.26470   0.52130   0.26130   1.000
    C210    C    0.29960   0.48470   0.29730   1.000
    O64     O    0.28690   0.38610   0.28970   1.000
    C211    C    0.28050   0.55030   0.27530   1.000
    C212    C    0.31540   0.51370   0.31140   1.000
    C213    C    0.30590   0.54650   0.30040   1.000
    C214    C    0.34250   0.51300   0.33930   1.000
    C215    C    0.33260   0.51180   0.37370   1.000
    C216    C    0.37740   0.51330   0.33060   1.000
    C217    C    0.35750   0.51110   0.39960   1.000
    C218    C    0.40230   0.51250   0.35650   1.000
    C219    C    0.39230   0.51140   0.39090   1.000
    C220    C    0.41910   0.50500   0.41930   1.000
    O65     O    0.40650   0.50360   0.45240   1.000
    O66     O    0.45170   0.50250   0.40630   1.000
    Re10    Re   0.20730   0.52160   0.29250   1.000
    C221    C    0.20540   0.57010   0.30130   1.000
    O67     O    0.20400   0.60020   0.29800   1.000
    C222    C    0.20980   0.52010   0.34180   1.000
    O68     O    0.21200   0.52700   0.37120   1.000
    C223    C    0.15920   0.52520   0.30210   1.000
    O69     O    0.12980   0.52750   0.30800   1.000
    C224    C    0.31680   0.51500   0.31230   1.000
    C225    C    0.28240   0.51650   0.32240   1.000
    C226    C    0.25650   0.51780   0.29770   1.000
    C227    C    0.26490   0.51760   0.26280   1.000
    C228    C    0.29930   0.51620   0.25270   1.000
    C229    C    0.32530   0.51490   0.27740   1.000
    C230    C    0.28710   0.43590   0.21830   1.000
    O70     O    0.30900   0.43200   0.19880   1.000
    Cl20    Cl   0.28580   0.46250   0.21290   1.000
    Cl21    Cl   0.78950   0.92030   0.20840   1.000
    N11     N    0.77430   0.98850   0.27230   1.000
    C231    C    0.77400   0.90960   0.27570   1.000
    C232    C    0.76470   0.02130   0.26130   1.000
    C233    C    0.79960   0.98470   0.29730   1.000
    O71     O    0.78690   0.88610   0.28970   1.000
    C234    C    0.78050   0.05030   0.27530   1.000
    C235    C    0.81540   0.01370   0.31140   1.000
    C236    C    0.80590   0.04650   0.30040   1.000
    C237    C    0.84250   0.01300   0.33930   1.000
    C238    C    0.83260   0.01180   0.37370   1.000
    C239    C    0.87740   0.01330   0.33060   1.000
    C240    C    0.85750   0.01110   0.39960   1.000
    C241    C    0.90230   0.01250   0.35650   1.000
    C242    C    0.89230   0.01140   0.39090   1.000
    C243    C    0.91910   0.00500   0.41930   1.000
    O72     O    0.90650   0.00360   0.45240   1.000
    O73     O    0.95170   0.00250   0.40630   1.000
    Re11    Re   0.70730   0.02160   0.29250   1.000
    C244    C    0.70540   0.07010   0.30130   1.000
    O74     O    0.70400   0.10020   0.29800   1.000
    C245    C    0.70980   0.02010   0.34180   1.000
    O75     O    0.71200   0.02700   0.37120   1.000
    C246    C    0.65920   0.02520   0.30210   1.000
    O76     O    0.62980   0.02750   0.30800   1.000
    C247    C    0.81680   0.01500   0.31230   1.000
    C248    C    0.78240   0.01650   0.32240   1.000
    C249    C    0.75650   0.01780   0.29770   1.000
    C250    C    0.76490   0.01760   0.26280   1.000
    C251    C    0.79930   0.01620   0.25270   1.000
    C252    C    0.82530   0.01490   0.27740   1.000
    C253    C    0.78710   0.93590   0.21830   1.000
    O77     O    0.80900   0.93200   0.19880   1.000
    Cl22    Cl   0.78580   0.96250   0.21290   1.000
    Cl23    Cl   0.78950   0.42030   0.70840   1.000
    N12     N    0.77430   0.48850   0.77230   1.000
    C254    C    0.77400   0.40960   0.77570   1.000
    C255    C    0.76470   0.52130   0.76130   1.000
    C256    C    0.79960   0.48470   0.79730   1.000
    O78     O    0.78690   0.38610   0.78970   1.000
    C257    C    0.78050   0.55030   0.77530   1.000
    C258    C    0.81540   0.51370   0.81140   1.000
    C259    C    0.80590   0.54650   0.80040   1.000
    C260    C    0.84250   0.51300   0.83930   1.000
    C261    C    0.83260   0.51180   0.87370   1.000
    C262    C    0.87740   0.51330   0.83060   1.000
    C263    C    0.85750   0.51110   0.89960   1.000
    C264    C    0.90230   0.51250   0.85650   1.000
    C265    C    0.89230   0.51140   0.89090   1.000
    C266    C    0.91910   0.50500   0.91930   1.000
    O79     O    0.90650   0.50360   0.95240   1.000
    O80     O    0.95170   0.50250   0.90630   1.000
    Re12    Re   0.70730   0.52160   0.79250   1.000
    C267    C    0.70540   0.57010   0.80130   1.000
    O81     O    0.70400   0.60020   0.79800   1.000
    C268    C    0.70980   0.52010   0.84180   1.000
    O82     O    0.71200   0.52700   0.87120   1.000
    C269    C    0.65920   0.52520   0.80210   1.000
    O83     O    0.62980   0.52750   0.80800   1.000
    C270    C    0.81680   0.51500   0.81230   1.000
    C271    C    0.78240   0.51650   0.82240   1.000
    C272    C    0.75650   0.51780   0.79770   1.000
    C273    C    0.76490   0.51760   0.76280   1.000
    C274    C    0.79930   0.51620   0.75270   1.000
    C275    C    0.82530   0.51490   0.77740   1.000
    C276    C    0.78710   0.43590   0.71830   1.000
    O84     O    0.80900   0.43200   0.69880   1.000
    Cl24    Cl   0.78580   0.46250   0.71290   1.000
    Cl25    Cl   0.71050   0.07970   0.70840   1.000
    N13     N    0.72570   0.01150   0.77230   1.000
    C277    C    0.72600   0.09040   0.77570   1.000
    C278    C    0.73530   0.97870   0.76130   1.000
    C279    C    0.70040   0.01530   0.79730   1.000
    O85     O    0.71310   0.11390   0.78970   1.000
    C280    C    0.71950   0.94970   0.77530   1.000
    C281    C    0.68460   0.98630   0.81140   1.000
    C282    C    0.69410   0.95350   0.80040   1.000
    C283    C    0.65750   0.98700   0.83930   1.000
    C284    C    0.66740   0.98820   0.87370   1.000
    C285    C    0.62260   0.98670   0.83060   1.000
    C286    C    0.64250   0.98890   0.89960   1.000
    C287    C    0.59770   0.98750   0.85650   1.000
    C288    C    0.60770   0.98860   0.89090   1.000
    C289    C    0.58090   0.99500   0.91930   1.000
    O86     O    0.59350   0.99640   0.95240   1.000
    O87     O    0.54830   0.99750   0.90630   1.000
    Re13    Re   0.79270   0.97840   0.79250   1.000
    C290    C    0.79460   0.92990   0.80130   1.000
    O88     O    0.79600   0.89980   0.79800   1.000
    C291    C    0.79020   0.97990   0.84180   1.000
    O89     O    0.78800   0.97300   0.87120   1.000
    C292    C    0.84080   0.97480   0.80210   1.000
    O90     O    0.87020   0.97250   0.80800   1.000
    C293    C    0.68320   0.98500   0.81230   1.000
    C294    C    0.71760   0.98350   0.82240   1.000
    C295    C    0.74350   0.98220   0.79770   1.000
    C296    C    0.73510   0.98240   0.76280   1.000
    C297    C    0.70070   0.98380   0.75270   1.000
    C298    C    0.67470   0.98510   0.77740   1.000
    C299    C    0.71290   0.06410   0.71830   1.000
    O91     O    0.69100   0.06800   0.69880   1.000
    Cl26    Cl   0.71420   0.03750   0.71290   1.000
    Cl27    Cl   0.71050   0.57970   0.20840   1.000
    N14     N    0.72570   0.51150   0.27230   1.000
    C300    C    0.72600   0.59040   0.27570   1.000
    C301    C    0.73530   0.47870   0.26130   1.000
    C302    C    0.70040   0.51530   0.29730   1.000
    O92     O    0.71310   0.61390   0.28970   1.000
    C303    C    0.71950   0.44970   0.27530   1.000
    C304    C    0.68460   0.48630   0.31140   1.000
    C305    C    0.69410   0.45350   0.30040   1.000
    C306    C    0.65750   0.48700   0.33930   1.000
    C307    C    0.66740   0.48820   0.37370   1.000
    C308    C    0.62260   0.48670   0.33060   1.000
    C309    C    0.64250   0.48890   0.39960   1.000
    C310    C    0.59770   0.48750   0.35650   1.000
    C311    C    0.60770   0.48860   0.39090   1.000
    C312    C    0.58090   0.49500   0.41930   1.000
    O93     O    0.59350   0.49640   0.45240   1.000
    O94     O    0.54830   0.49750   0.40630   1.000
    Re14    Re   0.79270   0.47840   0.29250   1.000
    C313    C    0.79460   0.42990   0.30130   1.000
    O95     O    0.79600   0.39980   0.29800   1.000
    C314    C    0.79020   0.47990   0.34180   1.000
    O96     O    0.78800   0.47300   0.37120   1.000
    C315    C    0.84080   0.47480   0.30210   1.000
    O97     O    0.87020   0.47250   0.30800   1.000
    C316    C    0.68320   0.48500   0.31230   1.000
    C317    C    0.71760   0.48350   0.32240   1.000
    C318    C    0.74350   0.48220   0.29770   1.000
    C319    C    0.73510   0.48240   0.26280   1.000
    C320    C    0.70070   0.48380   0.25270   1.000
    C321    C    0.67470   0.48510   0.27740   1.000
    C322    C    0.71290   0.56410   0.21830   1.000
    O98     O    0.69100   0.56800   0.19880   1.000
    Cl28    Cl   0.71420   0.53750   0.21290   1.000
    Cl29    Cl   0.21050   0.07970   0.20840   1.000
    N15     N    0.22570   0.01150   0.27230   1.000
    C323    C    0.22600   0.09040   0.27570   1.000
    C324    C    0.23530   0.97870   0.26130   1.000
    C325    C    0.20040   0.01530   0.29730   1.000
    O99     O    0.21310   0.11390   0.28970   1.000
    C326    C    0.21950   0.94970   0.27530   1.000
    C327    C    0.18460   0.98630   0.31140   1.000
    C328    C    0.19410   0.95350   0.30040   1.000
    C329    C    0.15750   0.98700   0.33930   1.000
    C330    C    0.16740   0.98820   0.37370   1.000
    C331    C    0.12260   0.98670   0.33060   1.000
    C332    C    0.14250   0.98890   0.39960   1.000
    C333    C    0.09770   0.98750   0.35650   1.000
    C334    C    0.10770   0.98860   0.39090   1.000
    C335    C    0.08090   0.99500   0.41930   1.000
    O100    O    0.09350   0.99640   0.45240   1.000
    O101    O    0.04830   0.99750   0.40630   1.000
    Re15    Re   0.29270   0.97840   0.29250   1.000
    C336    C    0.29460   0.92990   0.30130   1.000
    O102    O    0.29600   0.89980   0.29800   1.000
    C337    C    0.29020   0.97990   0.34180   1.000
    O103    O    0.28800   0.97300   0.37120   1.000
    C338    C    0.34080   0.97480   0.30210   1.000
    O104    O    0.37020   0.97250   0.30800   1.000
    C339    C    0.18320   0.98500   0.31230   1.000
    C340    C    0.21760   0.98350   0.32240   1.000
    C341    C    0.24350   0.98220   0.29770   1.000
    C342    C    0.23510   0.98240   0.26280   1.000
    C343    C    0.20070   0.98380   0.25270   1.000
    C344    C    0.17470   0.98510   0.27740   1.000
    C345    C    0.21290   0.06410   0.21830   1.000
    O105    O    0.19100   0.06800   0.19880   1.000
    Cl30    Cl   0.21420   0.03750   0.21290   1.000
    Cl31    Cl   0.21050   0.57970   0.70840   1.000
    N16     N    0.22570   0.51150   0.77230   1.000
    C346    C    0.22600   0.59040   0.77570   1.000
    C347    C    0.23530   0.47870   0.76130   1.000
    C348    C    0.20040   0.51530   0.79730   1.000
    O106    O    0.21310   0.61390   0.78970   1.000
    C349    C    0.21950   0.44970   0.77530   1.000
    C350    C    0.18460   0.48630   0.81140   1.000
    C351    C    0.19410   0.45350   0.80040   1.000
    C352    C    0.15750   0.48700   0.83930   1.000
    C353    C    0.16740   0.48820   0.87370   1.000
    C354    C    0.12260   0.48670   0.83060   1.000
    C355    C    0.14250   0.48890   0.89960   1.000
    C356    C    0.09770   0.48750   0.85650   1.000
    C357    C    0.10770   0.48860   0.89090   1.000
    C358    C    0.08090   0.49500   0.91930   1.000
    O107    O    0.09350   0.49640   0.95240   1.000
    O108    O    0.04830   0.49750   0.90630   1.000
    Re16    Re   0.29270   0.47840   0.79250   1.000
    C359    C    0.29460   0.42990   0.80130   1.000
    O109    O    0.29600   0.39980   0.79800   1.000
    C360    C    0.29020   0.47990   0.84180   1.000
    O110    O    0.28800   0.47300   0.87120   1.000
    C361    C    0.34080   0.47480   0.80210   1.000
    O111    O    0.37020   0.47250   0.80800   1.000
    C362    C    0.18320   0.48500   0.81230   1.000
    C363    C    0.21760   0.48350   0.82240   1.000
    C364    C    0.24350   0.48220   0.79770   1.000
    C365    C    0.23510   0.48240   0.76280   1.000
    C366    C    0.20070   0.48380   0.75270   1.000
    C367    C    0.17470   0.48510   0.77740   1.000
    C368    C    0.21290   0.56410   0.71830   1.000
    O112    O    0.19100   0.56800   0.69880   1.000
    Cl32    Cl   0.21420   0.53750   0.71290   1.000
    Cl33    Cl   0.29160   0.71050   0.92030   1.000
    N17     N    0.22770   0.72570   0.98850   1.000
    C369    C    0.22430   0.72600   0.90960   1.000
    C370    C    0.23870   0.73530   0.02130   1.000
    C371    C    0.20270   0.70040   0.98470   1.000
    O113    O    0.21030   0.71310   0.88610   1.000
    C372    C    0.22470   0.71950   0.05030   1.000
    C373    C    0.18860   0.68460   0.01370   1.000
    C374    C    0.19960   0.69410   0.04650   1.000
    C375    C    0.16070   0.65750   0.01300   1.000
    C376    C    0.12630   0.66740   0.01180   1.000
    C377    C    0.16940   0.62260   0.01330   1.000
    C378    C    0.10040   0.64250   0.01110   1.000
    C379    C    0.14350   0.59770   0.01250   1.000
    C380    C    0.10910   0.60770   0.01140   1.000
    C381    C    0.08070   0.58090   0.00500   1.000
    O114    O    0.04760   0.59350   0.00360   1.000
    O115    O    0.09370   0.54830   0.00250   1.000
    Re17    Re   0.20750   0.79270   0.02160   1.000
    C382    C    0.19870   0.79460   0.07010   1.000
    O116    O    0.20200   0.79600   0.10020   1.000
    C383    C    0.15820   0.79020   0.02010   1.000
    O117    O    0.12880   0.78800   0.02700   1.000
    C384    C    0.19790   0.84080   0.02520   1.000
    O118    O    0.19200   0.87020   0.02750   1.000
    C385    C    0.18770   0.68320   0.01500   1.000
    C386    C    0.17760   0.71760   0.01650   1.000
    C387    C    0.20230   0.74350   0.01780   1.000
    C388    C    0.23720   0.73510   0.01760   1.000
    C389    C    0.24730   0.70070   0.01620   1.000
    C390    C    0.22260   0.67470   0.01490   1.000
    C391    C    0.28170   0.71290   0.93590   1.000
    O119    O    0.30120   0.69100   0.93200   1.000
    Cl34    Cl   0.28710   0.71420   0.96250   1.000
    Cl35    Cl   0.29160   0.21050   0.42030   1.000
    N18     N    0.22770   0.22570   0.48850   1.000
    C392    C    0.22430   0.22600   0.40960   1.000
    C393    C    0.23870   0.23530   0.52130   1.000
    C394    C    0.20270   0.20040   0.48470   1.000
    O120    O    0.21030   0.21310   0.38610   1.000
    C395    C    0.22470   0.21950   0.55030   1.000
    C396    C    0.18860   0.18460   0.51370   1.000
    C397    C    0.19960   0.19410   0.54650   1.000
    C398    C    0.16070   0.15750   0.51300   1.000
    C399    C    0.12630   0.16740   0.51180   1.000
    C400    C    0.16940   0.12260   0.51330   1.000
    C401    C    0.10040   0.14250   0.51110   1.000
    C402    C    0.14350   0.09770   0.51250   1.000
    C403    C    0.10910   0.10770   0.51140   1.000
    C404    C    0.08070   0.08090   0.50500   1.000
    O121    O    0.04760   0.09350   0.50360   1.000
    O122    O    0.09370   0.04830   0.50250   1.000
    Re18    Re   0.20750   0.29270   0.52160   1.000
    C405    C    0.19870   0.29460   0.57010   1.000
    O123    O    0.20200   0.29600   0.60020   1.000
    C406    C    0.15820   0.29020   0.52010   1.000
    O124    O    0.12880   0.28800   0.52700   1.000
    C407    C    0.19790   0.34080   0.52520   1.000
    O125    O    0.19200   0.37020   0.52750   1.000
    C408    C    0.18770   0.18320   0.51500   1.000
    C409    C    0.17760   0.21760   0.51650   1.000
    C410    C    0.20230   0.24350   0.51780   1.000
    C411    C    0.23720   0.23510   0.51760   1.000
    C412    C    0.24730   0.20070   0.51620   1.000
    C413    C    0.22260   0.17470   0.51490   1.000
    C414    C    0.28170   0.21290   0.43590   1.000
    O126    O    0.30120   0.19100   0.43200   1.000
    Cl36    Cl   0.28710   0.21420   0.46250   1.000
    Cl37    Cl   0.79160   0.71050   0.42030   1.000
    N19     N    0.72770   0.72570   0.48850   1.000
    C415    C    0.72430   0.72600   0.40960   1.000
    C416    C    0.73870   0.73530   0.52130   1.000
    C417    C    0.70270   0.70040   0.48470   1.000
    O127    O    0.71030   0.71310   0.38610   1.000
    C418    C    0.72470   0.71950   0.55030   1.000
    C419    C    0.68860   0.68460   0.51370   1.000
    C420    C    0.69960   0.69410   0.54650   1.000
    C421    C    0.66070   0.65750   0.51300   1.000
    C422    C    0.62630   0.66740   0.51180   1.000
    C423    C    0.66940   0.62260   0.51330   1.000
    C424    C    0.60040   0.64250   0.51110   1.000
    C425    C    0.64350   0.59770   0.51250   1.000
    C426    C    0.60910   0.60770   0.51140   1.000
    C427    C    0.58070   0.58090   0.50500   1.000
    O128    O    0.54760   0.59350   0.50360   1.000
    O129    O    0.59370   0.54830   0.50250   1.000
    Re19    Re   0.70750   0.79270   0.52160   1.000
    C428    C    0.69870   0.79460   0.57010   1.000
    O130    O    0.70200   0.79600   0.60020   1.000
    C429    C    0.65820   0.79020   0.52010   1.000
    O131    O    0.62880   0.78800   0.52700   1.000
    C430    C    0.69790   0.84080   0.52520   1.000
    O132    O    0.69200   0.87020   0.52750   1.000
    C431    C    0.68770   0.68320   0.51500   1.000
    C432    C    0.67760   0.71760   0.51650   1.000
    C433    C    0.70230   0.74350   0.51780   1.000
    C434    C    0.73720   0.73510   0.51760   1.000
    C435    C    0.74730   0.70070   0.51620   1.000
    C436    C    0.72260   0.67470   0.51490   1.000
    C437    C    0.78170   0.71290   0.43590   1.000
    O133    O    0.80120   0.69100   0.43200   1.000
    Cl38    Cl   0.78710   0.71420   0.46250   1.000
    Cl39    Cl   0.79160   0.21050   0.92030   1.000
    N20     N    0.72770   0.22570   0.98850   1.000
    C438    C    0.72430   0.22600   0.90960   1.000
    C439    C    0.73870   0.23530   0.02130   1.000
    C440    C    0.70270   0.20040   0.98470   1.000
    O134    O    0.71030   0.21310   0.88610   1.000
    C441    C    0.72470   0.21950   0.05030   1.000
    C442    C    0.68860   0.18460   0.01370   1.000
    C443    C    0.69960   0.19410   0.04650   1.000
    C444    C    0.66070   0.15750   0.01300   1.000
    C445    C    0.62630   0.16740   0.01180   1.000
    C446    C    0.66940   0.12260   0.01330   1.000
    C447    C    0.60040   0.14250   0.01110   1.000
    C448    C    0.64350   0.09770   0.01250   1.000
    C449    C    0.60910   0.10770   0.01140   1.000
    C450    C    0.58070   0.08090   0.00500   1.000
    O135    O    0.54760   0.09350   0.00360   1.000
    O136    O    0.59370   0.04830   0.00250   1.000
    Re20    Re   0.70750   0.29270   0.02160   1.000
    C451    C    0.69870   0.29460   0.07010   1.000
    O137    O    0.70200   0.29600   0.10020   1.000
    C452    C    0.65820   0.29020   0.02010   1.000
    O138    O    0.62880   0.28800   0.02700   1.000
    C453    C    0.69790   0.34080   0.02520   1.000
    O139    O    0.69200   0.37020   0.02750   1.000
    C454    C    0.68770   0.18320   0.01500   1.000
    C455    C    0.67760   0.21760   0.01650   1.000
    C456    C    0.70230   0.24350   0.01780   1.000
    C457    C    0.73720   0.23510   0.01760   1.000
    C458    C    0.74730   0.20070   0.01620   1.000
    C459    C    0.72260   0.17470   0.01490   1.000
    C460    C    0.78170   0.21290   0.93590   1.000
    O140    O    0.80120   0.19100   0.93200   1.000
    Cl40    Cl   0.78710   0.21420   0.96250   1.000
    Cl41    Cl   0.29160   0.28950   0.07970   1.000
    N21     N    0.22770   0.27430   0.01150   1.000
    C461    C    0.22430   0.27400   0.09040   1.000
    C462    C    0.23870   0.26470   0.97870   1.000
    C463    C    0.20270   0.29960   0.01530   1.000
    O141    O    0.21030   0.28690   0.11390   1.000
    C464    C    0.22470   0.28050   0.94970   1.000
    C465    C    0.18860   0.31540   0.98630   1.000
    C466    C    0.19960   0.30590   0.95350   1.000
    C467    C    0.16070   0.34250   0.98700   1.000
    C468    C    0.12630   0.33260   0.98820   1.000
    C469    C    0.16940   0.37740   0.98670   1.000
    C470    C    0.10040   0.35750   0.98890   1.000
    C471    C    0.14350   0.40230   0.98750   1.000
    C472    C    0.10910   0.39230   0.98860   1.000
    C473    C    0.08070   0.41910   0.99500   1.000
    O142    O    0.04760   0.40650   0.99640   1.000
    O143    O    0.09370   0.45170   0.99750   1.000
    Re21    Re   0.20750   0.20730   0.97840   1.000
    C474    C    0.19870   0.20540   0.92990   1.000
    O144    O    0.20200   0.20400   0.89980   1.000
    C475    C    0.15820   0.20980   0.97990   1.000
    O145    O    0.12880   0.21200   0.97300   1.000
    C476    C    0.19790   0.15920   0.97480   1.000
    O146    O    0.19200   0.12980   0.97250   1.000
    C477    C    0.18770   0.31680   0.98500   1.000
    C478    C    0.17760   0.28240   0.98350   1.000
    C479    C    0.20230   0.25650   0.98220   1.000
    C480    C    0.23720   0.26490   0.98240   1.000
    C481    C    0.24730   0.29930   0.98380   1.000
    C482    C    0.22260   0.32530   0.98510   1.000
    C483    C    0.28170   0.28710   0.06410   1.000
    O147    O    0.30120   0.30900   0.06800   1.000
    Cl42    Cl   0.28710   0.28580   0.03750   1.000
    Cl43    Cl   0.29160   0.78950   0.57970   1.000
    N22     N    0.22770   0.77430   0.51150   1.000
    C484    C    0.22430   0.77400   0.59040   1.000
    C485    C    0.23870   0.76470   0.47870   1.000
    C486    C    0.20270   0.79960   0.51530   1.000
    O148    O    0.21030   0.78690   0.61390   1.000
    C487    C    0.22470   0.78050   0.44970   1.000
    C488    C    0.18860   0.81540   0.48630   1.000
    C489    C    0.19960   0.80590   0.45350   1.000
    C490    C    0.16070   0.84250   0.48700   1.000
    C491    C    0.12630   0.83260   0.48820   1.000
    C492    C    0.16940   0.87740   0.48670   1.000
    C493    C    0.10040   0.85750   0.48890   1.000
    C494    C    0.14350   0.90230   0.48750   1.000
    C495    C    0.10910   0.89230   0.48860   1.000
    C496    C    0.08070   0.91910   0.49500   1.000
    O149    O    0.04760   0.90650   0.49640   1.000
    O150    O    0.09370   0.95170   0.49750   1.000
    Re22    Re   0.20750   0.70730   0.47840   1.000
    C497    C    0.19870   0.70540   0.42990   1.000
    O151    O    0.20200   0.70400   0.39980   1.000
    C498    C    0.15820   0.70980   0.47990   1.000
    O152    O    0.12880   0.71200   0.47300   1.000
    C499    C    0.19790   0.65920   0.47480   1.000
    O153    O    0.19200   0.62980   0.47250   1.000
    C500    C    0.18770   0.81680   0.48500   1.000
    C501    C    0.17760   0.78240   0.48350   1.000
    C502    C    0.20230   0.75650   0.48220   1.000
    C503    C    0.23720   0.76490   0.48240   1.000
    C504    C    0.24730   0.79930   0.48380   1.000
    C505    C    0.22260   0.82530   0.48510   1.000
    C506    C    0.28170   0.78710   0.56410   1.000
    O154    O    0.30120   0.80900   0.56800   1.000
    Cl44    Cl   0.28710   0.78580   0.53750   1.000
    Cl45    Cl   0.79160   0.28950   0.57970   1.000
    N23     N    0.72770   0.27430   0.51150   1.000
    C507    C    0.72430   0.27400   0.59040   1.000
    C508    C    0.73870   0.26470   0.47870   1.000
    C509    C    0.70270   0.29960   0.51530   1.000
    O155    O    0.71030   0.28690   0.61390   1.000
    C510    C    0.72470   0.28050   0.44970   1.000
    C511    C    0.68860   0.31540   0.48630   1.000
    C512    C    0.69960   0.30590   0.45350   1.000
    C513    C    0.66070   0.34250   0.48700   1.000
    C514    C    0.62630   0.33260   0.48820   1.000
    C515    C    0.66940   0.37740   0.48670   1.000
    C516    C    0.60040   0.35750   0.48890   1.000
    C517    C    0.64350   0.40230   0.48750   1.000
    C518    C    0.60910   0.39230   0.48860   1.000
    C519    C    0.58070   0.41910   0.49500   1.000
    O156    O    0.54760   0.40650   0.49640   1.000
    O157    O    0.59370   0.45170   0.49750   1.000
    Re23    Re   0.70750   0.20730   0.47840   1.000
    C520    C    0.69870   0.20540   0.42990   1.000
    O158    O    0.70200   0.20400   0.39980   1.000
    C521    C    0.65820   0.20980   0.47990   1.000
    O159    O    0.62880   0.21200   0.47300   1.000
    C522    C    0.69790   0.15920   0.47480   1.000
    O160    O    0.69200   0.12980   0.47250   1.000
    C523    C    0.68770   0.31680   0.48500   1.000
    C524    C    0.67760   0.28240   0.48350   1.000
    C525    C    0.70230   0.25650   0.48220   1.000
    C526    C    0.73720   0.26490   0.48240   1.000
    C527    C    0.74730   0.29930   0.48380   1.000
    C528    C    0.72260   0.32530   0.48510   1.000
    C529    C    0.78170   0.28710   0.56410   1.000
    O161    O    0.80120   0.30900   0.56800   1.000
    Cl46    Cl   0.78710   0.28580   0.53750   1.000
    Cl47    Cl   0.79160   0.78950   0.07970   1.000
    N24     N    0.72770   0.77430   0.01150   1.000
    C530    C    0.72430   0.77400   0.09040   1.000
    C531    C    0.73870   0.76470   0.97870   1.000
    C532    C    0.70270   0.79960   0.01530   1.000
    O162    O    0.71030   0.78690   0.11390   1.000
    C533    C    0.72470   0.78050   0.94970   1.000
    C534    C    0.68860   0.81540   0.98630   1.000
    C535    C    0.69960   0.80590   0.95350   1.000
    C536    C    0.66070   0.84250   0.98700   1.000
    C537    C    0.62630   0.83260   0.98820   1.000
    C538    C    0.66940   0.87740   0.98670   1.000
    C539    C    0.60040   0.85750   0.98890   1.000
    C540    C    0.64350   0.90230   0.98750   1.000
    C541    C    0.60910   0.89230   0.98860   1.000
    C542    C    0.58070   0.91910   0.99500   1.000
    O163    O    0.54760   0.90650   0.99640   1.000
    O164    O    0.59370   0.95170   0.99750   1.000
    Re24    Re   0.70750   0.70730   0.97840   1.000
    C543    C    0.69870   0.70540   0.92990   1.000
    O165    O    0.70200   0.70400   0.89980   1.000
    C544    C    0.65820   0.70980   0.97990   1.000
    O166    O    0.62880   0.71200   0.97300   1.000
    C545    C    0.69790   0.65920   0.97480   1.000
    O167    O    0.69200   0.62980   0.97250   1.000
    C546    C    0.68770   0.81680   0.98500   1.000
    C547    C    0.67760   0.78240   0.98350   1.000
    C548    C    0.70230   0.75650   0.98220   1.000
    C549    C    0.73720   0.76490   0.98240   1.000
    C550    C    0.74730   0.79930   0.98380   1.000
    C551    C    0.72260   0.82530   0.98510   1.000
    C552    C    0.78170   0.78710   0.06410   1.000
    O168    O    0.80120   0.80900   0.06800   1.000
    Cl48    Cl   0.78710   0.78580   0.03750   1.000
    Cl49    Cl   0.70840   0.28950   0.92030   1.000
    N25     N    0.77230   0.27430   0.98850   1.000
    C553    C    0.77570   0.27400   0.90960   1.000
    C554    C    0.76130   0.26470   0.02130   1.000
    C555    C    0.79730   0.29960   0.98470   1.000
    O169    O    0.78970   0.28690   0.88610   1.000
    C556    C    0.77530   0.28050   0.05030   1.000
    C557    C    0.81140   0.31540   0.01370   1.000
    C558    C    0.80040   0.30590   0.04650   1.000
    C559    C    0.83930   0.34250   0.01300   1.000
    C560    C    0.87370   0.33260   0.01180   1.000
    C561    C    0.83060   0.37740   0.01330   1.000
    C562    C    0.89960   0.35750   0.01110   1.000
    C563    C    0.85650   0.40230   0.01250   1.000
    C564    C    0.89090   0.39230   0.01140   1.000
    C565    C    0.91930   0.41910   0.00500   1.000
    O170    O    0.95240   0.40650   0.00360   1.000
    O171    O    0.90630   0.45170   0.00250   1.000
    Re25    Re   0.79250   0.20730   0.02160   1.000
    C566    C    0.80130   0.20540   0.07010   1.000
    O172    O    0.79800   0.20400   0.10020   1.000
    C567    C    0.84180   0.20980   0.02010   1.000
    O173    O    0.87120   0.21200   0.02700   1.000
    C568    C    0.80210   0.15920   0.02520   1.000
    O174    O    0.80800   0.12980   0.02750   1.000
    C569    C    0.81230   0.31680   0.01500   1.000
    C570    C    0.82240   0.28240   0.01650   1.000
    C571    C    0.79770   0.25650   0.01780   1.000
    C572    C    0.76280   0.26490   0.01760   1.000
    C573    C    0.75270   0.29930   0.01620   1.000
    C574    C    0.77740   0.32530   0.01490   1.000
    C575    C    0.71830   0.28710   0.93590   1.000
    O175    O    0.69880   0.30900   0.93200   1.000
    Cl50    Cl   0.71290   0.28580   0.96250   1.000
    Cl51    Cl   0.70840   0.78950   0.42030   1.000
    N26     N    0.77230   0.77430   0.48850   1.000
    C576    C    0.77570   0.77400   0.40960   1.000
    C577    C    0.76130   0.76470   0.52130   1.000
    C578    C    0.79730   0.79960   0.48470   1.000
    O176    O    0.78970   0.78690   0.38610   1.000
    C579    C    0.77530   0.78050   0.55030   1.000
    C580    C    0.81140   0.81540   0.51370   1.000
    C581    C    0.80040   0.80590   0.54650   1.000
    C582    C    0.83930   0.84250   0.51300   1.000
    C583    C    0.87370   0.83260   0.51180   1.000
    C584    C    0.83060   0.87740   0.51330   1.000
    C585    C    0.89960   0.85750   0.51110   1.000
    C586    C    0.85650   0.90230   0.51250   1.000
    C587    C    0.89090   0.89230   0.51140   1.000
    C588    C    0.91930   0.91910   0.50500   1.000
    O177    O    0.95240   0.90650   0.50360   1.000
    O178    O    0.90630   0.95170   0.50250   1.000
    Re26    Re   0.79250   0.70730   0.52160   1.000
    C589    C    0.80130   0.70540   0.57010   1.000
    O179    O    0.79800   0.70400   0.60020   1.000
    C590    C    0.84180   0.70980   0.52010   1.000
    O180    O    0.87120   0.71200   0.52700   1.000
    C591    C    0.80210   0.65920   0.52520   1.000
    O181    O    0.80800   0.62980   0.52750   1.000
    C592    C    0.81230   0.81680   0.51500   1.000
    C593    C    0.82240   0.78240   0.51650   1.000
    C594    C    0.79770   0.75650   0.51780   1.000
    C595    C    0.76280   0.76490   0.51760   1.000
    C596    C    0.75270   0.79930   0.51620   1.000
    C597    C    0.77740   0.82530   0.51490   1.000
    C598    C    0.71830   0.78710   0.43590   1.000
    O182    O    0.69880   0.80900   0.43200   1.000
    Cl52    Cl   0.71290   0.78580   0.46250   1.000
    Cl53    Cl   0.20840   0.28950   0.42030   1.000
    N27     N    0.27230   0.27430   0.48850   1.000
    C599    C    0.27570   0.27400   0.40960   1.000
    C600    C    0.26130   0.26470   0.52130   1.000
    C601    C    0.29730   0.29960   0.48470   1.000
    O183    O    0.28970   0.28690   0.38610   1.000
    C602    C    0.27530   0.28050   0.55030   1.000
    C603    C    0.31140   0.31540   0.51370   1.000
    C604    C    0.30040   0.30590   0.54650   1.000
    C605    C    0.33930   0.34250   0.51300   1.000
    C606    C    0.37370   0.33260   0.51180   1.000
    C607    C    0.33060   0.37740   0.51330   1.000
    C608    C    0.39960   0.35750   0.51110   1.000
    C609    C    0.35650   0.40230   0.51250   1.000
    C610    C    0.39090   0.39230   0.51140   1.000
    C611    C    0.41930   0.41910   0.50500   1.000
    O184    O    0.45240   0.40650   0.50360   1.000
    O185    O    0.40630   0.45170   0.50250   1.000
    Re27    Re   0.29250   0.20730   0.52160   1.000
    C612    C    0.30130   0.20540   0.57010   1.000
    O186    O    0.29800   0.20400   0.60020   1.000
    C613    C    0.34180   0.20980   0.52010   1.000
    O187    O    0.37120   0.21200   0.52700   1.000
    C614    C    0.30210   0.15920   0.52520   1.000
    O188    O    0.30800   0.12980   0.52750   1.000
    C615    C    0.31230   0.31680   0.51500   1.000
    C616    C    0.32240   0.28240   0.51650   1.000
    C617    C    0.29770   0.25650   0.51780   1.000
    C618    C    0.26280   0.26490   0.51760   1.000
    C619    C    0.25270   0.29930   0.51620   1.000
    C620    C    0.27740   0.32530   0.51490   1.000
    C621    C    0.21830   0.28710   0.43590   1.000
    O189    O    0.19880   0.30900   0.43200   1.000
    Cl54    Cl   0.21290   0.28580   0.46250   1.000
    Cl55    Cl   0.20840   0.78950   0.92030   1.000
    N28     N    0.27230   0.77430   0.98850   1.000
    C622    C    0.27570   0.77400   0.90960   1.000
    C623    C    0.26130   0.76470   0.02130   1.000
    C624    C    0.29730   0.79960   0.98470   1.000
    O190    O    0.28970   0.78690   0.88610   1.000
    C625    C    0.27530   0.78050   0.05030   1.000
    C626    C    0.31140   0.81540   0.01370   1.000
    C627    C    0.30040   0.80590   0.04650   1.000
    C628    C    0.33930   0.84250   0.01300   1.000
    C629    C    0.37370   0.83260   0.01180   1.000
    C630    C    0.33060   0.87740   0.01330   1.000
    C631    C    0.39960   0.85750   0.01110   1.000
    C632    C    0.35650   0.90230   0.01250   1.000
    C633    C    0.39090   0.89230   0.01140   1.000
    C634    C    0.41930   0.91910   0.00500   1.000
    O191    O    0.45240   0.90650   0.00360   1.000
    O192    O    0.40630   0.95170   0.00250   1.000
    Re28    Re   0.29250   0.70730   0.02160   1.000
    C635    C    0.30130   0.70540   0.07010   1.000
    O193    O    0.29800   0.70400   0.10020   1.000
    C636    C    0.34180   0.70980   0.02010   1.000
    O194    O    0.37120   0.71200   0.02700   1.000
    C637    C    0.30210   0.65920   0.02520   1.000
    O195    O    0.30800   0.62980   0.02750   1.000
    C638    C    0.31230   0.81680   0.01500   1.000
    C639    C    0.32240   0.78240   0.01650   1.000
    C640    C    0.29770   0.75650   0.01780   1.000
    C641    C    0.26280   0.76490   0.01760   1.000
    C642    C    0.25270   0.79930   0.01620   1.000
    C643    C    0.27740   0.82530   0.01490   1.000
    C644    C    0.21830   0.78710   0.93590   1.000
    O196    O    0.19880   0.80900   0.93200   1.000
    Cl56    Cl   0.21290   0.78580   0.96250   1.000
    Cl57    Cl   0.70840   0.71050   0.07970   1.000
    N29     N    0.77230   0.72570   0.01150   1.000
    C645    C    0.77570   0.72600   0.09040   1.000
    C646    C    0.76130   0.73530   0.97870   1.000
    C647    C    0.79730   0.70040   0.01530   1.000
    O197    O    0.78970   0.71310   0.11390   1.000
    C648    C    0.77530   0.71950   0.94970   1.000
    C649    C    0.81140   0.68460   0.98630   1.000
    C650    C    0.80040   0.69410   0.95350   1.000
    C651    C    0.83930   0.65750   0.98700   1.000
    C652    C    0.87370   0.66740   0.98820   1.000
    C653    C    0.83060   0.62260   0.98670   1.000
    C654    C    0.89960   0.64250   0.98890   1.000
    C655    C    0.85650   0.59770   0.98750   1.000
    C656    C    0.89090   0.60770   0.98860   1.000
    C657    C    0.91930   0.58090   0.99500   1.000
    O198    O    0.95240   0.59350   0.99640   1.000
    O199    O    0.90630   0.54830   0.99750   1.000
    Re29    Re   0.79250   0.79270   0.97840   1.000
    C658    C    0.80130   0.79460   0.92990   1.000
    O200    O    0.79800   0.79600   0.89980   1.000
    C659    C    0.84180   0.79020   0.97990   1.000
    O201    O    0.87120   0.78800   0.97300   1.000
    C660    C    0.80210   0.84080   0.97480   1.000
    O202    O    0.80800   0.87020   0.97250   1.000
    C661    C    0.81230   0.68320   0.98500   1.000
    C662    C    0.82240   0.71760   0.98350   1.000
    C663    C    0.79770   0.74350   0.98220   1.000
    C664    C    0.76280   0.73510   0.98240   1.000
    C665    C    0.75270   0.70070   0.98380   1.000
    C666    C    0.77740   0.67470   0.98510   1.000
    C667    C    0.71830   0.71290   0.06410   1.000
    O203    O    0.69880   0.69100   0.06800   1.000
    Cl58    Cl   0.71290   0.71420   0.03750   1.000
    Cl59    Cl   0.70840   0.21050   0.57970   1.000
    N30     N    0.77230   0.22570   0.51150   1.000
    C668    C    0.77570   0.22600   0.59040   1.000
    C669    C    0.76130   0.23530   0.47870   1.000
    C670    C    0.79730   0.20040   0.51530   1.000
    O204    O    0.78970   0.21310   0.61390   1.000
    C671    C    0.77530   0.21950   0.44970   1.000
    C672    C    0.81140   0.18460   0.48630   1.000
    C673    C    0.80040   0.19410   0.45350   1.000
    C674    C    0.83930   0.15750   0.48700   1.000
    C675    C    0.87370   0.16740   0.48820   1.000
    C676    C    0.83060   0.12260   0.48670   1.000
    C677    C    0.89960   0.14250   0.48890   1.000
    C678    C    0.85650   0.09770   0.48750   1.000
    C679    C    0.89090   0.10770   0.48860   1.000
    C680    C    0.91930   0.08090   0.49500   1.000
    O205    O    0.95240   0.09350   0.49640   1.000
    O206    O    0.90630   0.04830   0.49750   1.000
    Re30    Re   0.79250   0.29270   0.47840   1.000
    C681    C    0.80130   0.29460   0.42990   1.000
    O207    O    0.79800   0.29600   0.39980   1.000
    C682    C    0.84180   0.29020   0.47990   1.000
    O208    O    0.87120   0.28800   0.47300   1.000
    C683    C    0.80210   0.34080   0.47480   1.000
    O209    O    0.80800   0.37020   0.47250   1.000
    C684    C    0.81230   0.18320   0.48500   1.000
    C685    C    0.82240   0.21760   0.48350   1.000
    C686    C    0.79770   0.24350   0.48220   1.000
    C687    C    0.76280   0.23510   0.48240   1.000
    C688    C    0.75270   0.20070   0.48380   1.000
    C689    C    0.77740   0.17470   0.48510   1.000
    C690    C    0.71830   0.21290   0.56410   1.000
    O210    O    0.69880   0.19100   0.56800   1.000
    Cl60    Cl   0.71290   0.21420   0.53750   1.000
    Cl61    Cl   0.20840   0.71050   0.57970   1.000
    N31     N    0.27230   0.72570   0.51150   1.000
    C691    C    0.27570   0.72600   0.59040   1.000
    C692    C    0.26130   0.73530   0.47870   1.000
    C693    C    0.29730   0.70040   0.51530   1.000
    O211    O    0.28970   0.71310   0.61390   1.000
    C694    C    0.27530   0.71950   0.44970   1.000
    C695    C    0.31140   0.68460   0.48630   1.000
    C696    C    0.30040   0.69410   0.45350   1.000
    C697    C    0.33930   0.65750   0.48700   1.000
    C698    C    0.37370   0.66740   0.48820   1.000
    C699    C    0.33060   0.62260   0.48670   1.000
    C700    C    0.39960   0.64250   0.48890   1.000
    C701    C    0.35650   0.59770   0.48750   1.000
    C702    C    0.39090   0.60770   0.48860   1.000
    C703    C    0.41930   0.58090   0.49500   1.000
    O212    O    0.45240   0.59350   0.49640   1.000
    O213    O    0.40630   0.54830   0.49750   1.000
    Re31    Re   0.29250   0.79270   0.47840   1.000
    C704    C    0.30130   0.79460   0.42990   1.000
    O214    O    0.29800   0.79600   0.39980   1.000
    C705    C    0.34180   0.79020   0.47990   1.000
    O215    O    0.37120   0.78800   0.47300   1.000
    C706    C    0.30210   0.84080   0.47480   1.000
    O216    O    0.30800   0.87020   0.47250   1.000
    C707    C    0.31230   0.68320   0.48500   1.000
    C708    C    0.32240   0.71760   0.48350   1.000
    C709    C    0.29770   0.74350   0.48220   1.000
    C710    C    0.26280   0.73510   0.48240   1.000
    C711    C    0.25270   0.70070   0.48380   1.000
    C712    C    0.27740   0.67470   0.48510   1.000
    C713    C    0.21830   0.71290   0.56410   1.000
    O217    O    0.19880   0.69100   0.56800   1.000
    Cl62    Cl   0.21290   0.71420   0.53750   1.000
    Cl63    Cl   0.20840   0.21050   0.07970   1.000
    N32     N    0.27230   0.22570   0.01150   1.000
    C714    C    0.27570   0.22600   0.09040   1.000
    C715    C    0.26130   0.23530   0.97870   1.000
    C716    C    0.29730   0.20040   0.01530   1.000
    O218    O    0.28970   0.21310   0.11390   1.000
    C717    C    0.27530   0.21950   0.94970   1.000
    C718    C    0.31140   0.18460   0.98630   1.000
    C719    C    0.30040   0.19410   0.95350   1.000
    C720    C    0.33930   0.15750   0.98700   1.000
    C721    C    0.37370   0.16740   0.98820   1.000
    C722    C    0.33060   0.12260   0.98670   1.000
    C723    C    0.39960   0.14250   0.98890   1.000
    C724    C    0.35650   0.09770   0.98750   1.000
    C725    C    0.39090   0.10770   0.98860   1.000
    C726    C    0.41930   0.08090   0.99500   1.000
    O219    O    0.45240   0.09350   0.99640   1.000
    O220    O    0.40630   0.04830   0.99750   1.000
    Re32    Re   0.29250   0.29270   0.97840   1.000
    C727    C    0.30130   0.29460   0.92990   1.000
    O221    O    0.29800   0.29600   0.89980   1.000
    C728    C    0.34180   0.29020   0.97990   1.000
    O222    O    0.37120   0.28800   0.97300   1.000
    C729    C    0.30210   0.34080   0.97480   1.000
    O223    O    0.30800   0.37020   0.97250   1.000
    C730    C    0.31230   0.18320   0.98500   1.000
    C731    C    0.32240   0.21760   0.98350   1.000
    C732    C    0.29770   0.24350   0.98220   1.000
    C733    C    0.26280   0.23510   0.98240   1.000
    C734    C    0.25270   0.20070   0.98380   1.000
    C735    C    0.27740   0.17470   0.98510   1.000
    C736    C    0.21830   0.21290   0.06410   1.000
    O224    O    0.19880   0.19100   0.06800   1.000
    Cl64    Cl   0.21290   0.21420   0.03750   1.000
    Cl65    Cl   0.92030   0.29160   0.71050   1.000
    N33     N    0.98850   0.22770   0.72570   1.000
    C737    C    0.90960   0.22430   0.72600   1.000
    C738    C    0.02130   0.23870   0.73530   1.000
    C739    C    0.98470   0.20270   0.70040   1.000
    O225    O    0.88610   0.21030   0.71310   1.000
    C740    C    0.05030   0.22470   0.71950   1.000
    C741    C    0.01370   0.18860   0.68460   1.000
    C742    C    0.04650   0.19960   0.69410   1.000
    C743    C    0.01300   0.16070   0.65750   1.000
    C744    C    0.01180   0.12630   0.66740   1.000
    C745    C    0.01330   0.16940   0.62260   1.000
    C746    C    0.01110   0.10040   0.64250   1.000
    C747    C    0.01250   0.14350   0.59770   1.000
    C748    C    0.01140   0.10910   0.60770   1.000
    C749    C    0.00500   0.08070   0.58090   1.000
    O226    O    0.00360   0.04760   0.59350   1.000
    O227    O    0.00250   0.09370   0.54830   1.000
    Re33    Re   0.02160   0.20750   0.79270   1.000
    C750    C    0.07010   0.19870   0.79460   1.000
    O228    O    0.10020   0.20200   0.79600   1.000
    C751    C    0.02010   0.15820   0.79020   1.000
    O229    O    0.02700   0.12880   0.78800   1.000
    C752    C    0.02520   0.19790   0.84080   1.000
    O230    O    0.02750   0.19200   0.87020   1.000
    C753    C    0.01500   0.18770   0.68320   1.000
    C754    C    0.01650   0.17760   0.71760   1.000
    C755    C    0.01780   0.20230   0.74350   1.000
    C756    C    0.01760   0.23720   0.73510   1.000
    C757    C    0.01620   0.24730   0.70070   1.000
    C758    C    0.01490   0.22260   0.67470   1.000
    C759    C    0.93590   0.28170   0.71290   1.000
    O231    O    0.93200   0.30120   0.69100   1.000
    Cl66    Cl   0.96250   0.28710   0.71420   1.000
    Cl67    Cl   0.92030   0.79160   0.21050   1.000
    N34     N    0.98850   0.72770   0.22570   1.000
    C760    C    0.90960   0.72430   0.22600   1.000
    C761    C    0.02130   0.73870   0.23530   1.000
    C762    C    0.98470   0.70270   0.20040   1.000
    O232    O    0.88610   0.71030   0.21310   1.000
    C763    C    0.05030   0.72470   0.21950   1.000
    C764    C    0.01370   0.68860   0.18460   1.000
    C765    C    0.04650   0.69960   0.19410   1.000
    C766    C    0.01300   0.66070   0.15750   1.000
    C767    C    0.01180   0.62630   0.16740   1.000
    C768    C    0.01330   0.66940   0.12260   1.000
    C769    C    0.01110   0.60040   0.14250   1.000
    C770    C    0.01250   0.64350   0.09770   1.000
    C771    C    0.01140   0.60910   0.10770   1.000
    C772    C    0.00500   0.58070   0.08090   1.000
    O233    O    0.00360   0.54760   0.09350   1.000
    O234    O    0.00250   0.59370   0.04830   1.000
    Re34    Re   0.02160   0.70750   0.29270   1.000
    C773    C    0.07010   0.69870   0.29460   1.000
    O235    O    0.10020   0.70200   0.29600   1.000
    C774    C    0.02010   0.65820   0.29020   1.000
    O236    O    0.02700   0.62880   0.28800   1.000
    C775    C    0.02520   0.69790   0.34080   1.000
    O237    O    0.02750   0.69200   0.37020   1.000
    C776    C    0.01500   0.68770   0.18320   1.000
    C777    C    0.01650   0.67760   0.21760   1.000
    C778    C    0.01780   0.70230   0.24350   1.000
    C779    C    0.01760   0.73720   0.23510   1.000
    C780    C    0.01620   0.74730   0.20070   1.000
    C781    C    0.01490   0.72260   0.17470   1.000
    C782    C    0.93590   0.78170   0.21290   1.000
    O238    O    0.93200   0.80120   0.19100   1.000
    Cl68    Cl   0.96250   0.78710   0.21420   1.000
    Cl69    Cl   0.42030   0.29160   0.21050   1.000
    N35     N    0.48850   0.22770   0.22570   1.000
    C783    C    0.40960   0.22430   0.22600   1.000
    C784    C    0.52130   0.23870   0.23530   1.000
    C785    C    0.48470   0.20270   0.20040   1.000
    O239    O    0.38610   0.21030   0.21310   1.000
    C786    C    0.55030   0.22470   0.21950   1.000
    C787    C    0.51370   0.18860   0.18460   1.000
    C788    C    0.54650   0.19960   0.19410   1.000
    C789    C    0.51300   0.16070   0.15750   1.000
    C790    C    0.51180   0.12630   0.16740   1.000
    C791    C    0.51330   0.16940   0.12260   1.000
    C792    C    0.51110   0.10040   0.14250   1.000
    C793    C    0.51250   0.14350   0.09770   1.000
    C794    C    0.51140   0.10910   0.10770   1.000
    C795    C    0.50500   0.08070   0.08090   1.000
    O240    O    0.50360   0.04760   0.09350   1.000
    O241    O    0.50250   0.09370   0.04830   1.000
    Re35    Re   0.52160   0.20750   0.29270   1.000
    C796    C    0.57010   0.19870   0.29460   1.000
    O242    O    0.60020   0.20200   0.29600   1.000
    C797    C    0.52010   0.15820   0.29020   1.000
    O243    O    0.52700   0.12880   0.28800   1.000
    C798    C    0.52520   0.19790   0.34080   1.000
    O244    O    0.52750   0.19200   0.37020   1.000
    C799    C    0.51500   0.18770   0.18320   1.000
    C800    C    0.51650   0.17760   0.21760   1.000
    C801    C    0.51780   0.20230   0.24350   1.000
    C802    C    0.51760   0.23720   0.23510   1.000
    C803    C    0.51620   0.24730   0.20070   1.000
    C804    C    0.51490   0.22260   0.17470   1.000
    C805    C    0.43590   0.28170   0.21290   1.000
    O245    O    0.43200   0.30120   0.19100   1.000
    Cl70    Cl   0.46250   0.28710   0.21420   1.000
    Cl71    Cl   0.42030   0.79160   0.71050   1.000
    N36     N    0.48850   0.72770   0.72570   1.000
    C806    C    0.40960   0.72430   0.72600   1.000
    C807    C    0.52130   0.73870   0.73530   1.000
    C808    C    0.48470   0.70270   0.70040   1.000
    O246    O    0.38610   0.71030   0.71310   1.000
    C809    C    0.55030   0.72470   0.71950   1.000
    C810    C    0.51370   0.68860   0.68460   1.000
    C811    C    0.54650   0.69960   0.69410   1.000
    C812    C    0.51300   0.66070   0.65750   1.000
    C813    C    0.51180   0.62630   0.66740   1.000
    C814    C    0.51330   0.66940   0.62260   1.000
    C815    C    0.51110   0.60040   0.64250   1.000
    C816    C    0.51250   0.64350   0.59770   1.000
    C817    C    0.51140   0.60910   0.60770   1.000
    C818    C    0.50500   0.58070   0.58090   1.000
    O247    O    0.50360   0.54760   0.59350   1.000
    O248    O    0.50250   0.59370   0.54830   1.000
    Re36    Re   0.52160   0.70750   0.79270   1.000
    C819    C    0.57010   0.69870   0.79460   1.000
    O249    O    0.60020   0.70200   0.79600   1.000
    C820    C    0.52010   0.65820   0.79020   1.000
    O250    O    0.52700   0.62880   0.78800   1.000
    C821    C    0.52520   0.69790   0.84080   1.000
    O251    O    0.52750   0.69200   0.87020   1.000
    C822    C    0.51500   0.68770   0.68320   1.000
    C823    C    0.51650   0.67760   0.71760   1.000
    C824    C    0.51780   0.70230   0.74350   1.000
    C825    C    0.51760   0.73720   0.73510   1.000
    C826    C    0.51620   0.74730   0.70070   1.000
    C827    C    0.51490   0.72260   0.67470   1.000
    C828    C    0.43590   0.78170   0.71290   1.000
    O252    O    0.43200   0.80120   0.69100   1.000
    Cl72    Cl   0.46250   0.78710   0.71420   1.000
    Cl73    Cl   0.07970   0.29160   0.28950   1.000
    N37     N    0.01150   0.22770   0.27430   1.000
    C829    C    0.09040   0.22430   0.27400   1.000
    C830    C    0.97870   0.23870   0.26470   1.000
    C831    C    0.01530   0.20270   0.29960   1.000
    O253    O    0.11390   0.21030   0.28690   1.000
    C832    C    0.94970   0.22470   0.28050   1.000
    C833    C    0.98630   0.18860   0.31540   1.000
    C834    C    0.95350   0.19960   0.30590   1.000
    C835    C    0.98700   0.16070   0.34250   1.000
    C836    C    0.98820   0.12630   0.33260   1.000
    C837    C    0.98670   0.16940   0.37740   1.000
    C838    C    0.98890   0.10040   0.35750   1.000
    C839    C    0.98750   0.14350   0.40230   1.000
    C840    C    0.98860   0.10910   0.39230   1.000
    C841    C    0.99500   0.08070   0.41910   1.000
    O254    O    0.99640   0.04760   0.40650   1.000
    O255    O    0.99750   0.09370   0.45170   1.000
    Re37    Re   0.97840   0.20750   0.20730   1.000
    C842    C    0.92990   0.19870   0.20540   1.000
    O256    O    0.89980   0.20200   0.20400   1.000
    C843    C    0.97990   0.15820   0.20980   1.000
    O257    O    0.97300   0.12880   0.21200   1.000
    C844    C    0.97480   0.19790   0.15920   1.000
    O258    O    0.97250   0.19200   0.12980   1.000
    C845    C    0.98500   0.18770   0.31680   1.000
    C846    C    0.98350   0.17760   0.28240   1.000
    C847    C    0.98220   0.20230   0.25650   1.000
    C848    C    0.98240   0.23720   0.26490   1.000
    C849    C    0.98380   0.24730   0.29930   1.000
    C850    C    0.98510   0.22260   0.32530   1.000
    C851    C    0.06410   0.28170   0.28710   1.000
    O259    O    0.06800   0.30120   0.30900   1.000
    Cl74    Cl   0.03750   0.28710   0.28580   1.000
    Cl75    Cl   0.07970   0.79160   0.78950   1.000
    N38     N    0.01150   0.72770   0.77430   1.000
    C852    C    0.09040   0.72430   0.77400   1.000
    C853    C    0.97870   0.73870   0.76470   1.000
    C854    C    0.01530   0.70270   0.79960   1.000
    O260    O    0.11390   0.71030   0.78690   1.000
    C855    C    0.94970   0.72470   0.78050   1.000
    C856    C    0.98630   0.68860   0.81540   1.000
    C857    C    0.95350   0.69960   0.80590   1.000
    C858    C    0.98700   0.66070   0.84250   1.000
    C859    C    0.98820   0.62630   0.83260   1.000
    C860    C    0.98670   0.66940   0.87740   1.000
    C861    C    0.98890   0.60040   0.85750   1.000
    C862    C    0.98750   0.64350   0.90230   1.000
    C863    C    0.98860   0.60910   0.89230   1.000
    C864    C    0.99500   0.58070   0.91910   1.000
    O261    O    0.99640   0.54760   0.90650   1.000
    O262    O    0.99750   0.59370   0.95170   1.000
    Re38    Re   0.97840   0.70750   0.70730   1.000
    C865    C    0.92990   0.69870   0.70540   1.000
    O263    O    0.89980   0.70200   0.70400   1.000
    C866    C    0.97990   0.65820   0.70980   1.000
    O264    O    0.97300   0.62880   0.71200   1.000
    C867    C    0.97480   0.69790   0.65920   1.000
    O265    O    0.97250   0.69200   0.62980   1.000
    C868    C    0.98500   0.68770   0.81680   1.000
    C869    C    0.98350   0.67760   0.78240   1.000
    C870    C    0.98220   0.70230   0.75650   1.000
    C871    C    0.98240   0.73720   0.76490   1.000
    C872    C    0.98380   0.74730   0.79930   1.000
    C873    C    0.98510   0.72260   0.82530   1.000
    C874    C    0.06410   0.78170   0.78710   1.000
    O266    O    0.06800   0.80120   0.80900   1.000
    Cl76    Cl   0.03750   0.78710   0.78580   1.000
    Cl77    Cl   0.57970   0.29160   0.78950   1.000
    N39     N    0.51150   0.22770   0.77430   1.000
    C875    C    0.59040   0.22430   0.77400   1.000
    C876    C    0.47870   0.23870   0.76470   1.000
    C877    C    0.51530   0.20270   0.79960   1.000
    O267    O    0.61390   0.21030   0.78690   1.000
    C878    C    0.44970   0.22470   0.78050   1.000
    C879    C    0.48630   0.18860   0.81540   1.000
    C880    C    0.45350   0.19960   0.80590   1.000
    C881    C    0.48700   0.16070   0.84250   1.000
    C882    C    0.48820   0.12630   0.83260   1.000
    C883    C    0.48670   0.16940   0.87740   1.000
    C884    C    0.48890   0.10040   0.85750   1.000
    C885    C    0.48750   0.14350   0.90230   1.000
    C886    C    0.48860   0.10910   0.89230   1.000
    C887    C    0.49500   0.08070   0.91910   1.000
    O268    O    0.49640   0.04760   0.90650   1.000
    O269    O    0.49750   0.09370   0.95170   1.000
    Re39    Re   0.47840   0.20750   0.70730   1.000
    C888    C    0.42990   0.19870   0.70540   1.000
    O270    O    0.39980   0.20200   0.70400   1.000
    C889    C    0.47990   0.15820   0.70980   1.000
    O271    O    0.47300   0.12880   0.71200   1.000
    C890    C    0.47480   0.19790   0.65920   1.000
    O272    O    0.47250   0.19200   0.62980   1.000
    C891    C    0.48500   0.18770   0.81680   1.000
    C892    C    0.48350   0.17760   0.78240   1.000
    C893    C    0.48220   0.20230   0.75650   1.000
    C894    C    0.48240   0.23720   0.76490   1.000
    C895    C    0.48380   0.24730   0.79930   1.000
    C896    C    0.48510   0.22260   0.82530   1.000
    C897    C    0.56410   0.28170   0.78710   1.000
    O273    O    0.56800   0.30120   0.80900   1.000
    Cl78    Cl   0.53750   0.28710   0.78580   1.000
    Cl79    Cl   0.57970   0.79160   0.28950   1.000
    N40     N    0.51150   0.72770   0.27430   1.000
    C898    C    0.59040   0.72430   0.27400   1.000
    C899    C    0.47870   0.73870   0.26470   1.000
    C900    C    0.51530   0.70270   0.29960   1.000
    O274    O    0.61390   0.71030   0.28690   1.000
    C901    C    0.44970   0.72470   0.28050   1.000
    C902    C    0.48630   0.68860   0.31540   1.000
    C903    C    0.45350   0.69960   0.30590   1.000
    C904    C    0.48700   0.66070   0.34250   1.000
    C905    C    0.48820   0.62630   0.33260   1.000
    C906    C    0.48670   0.66940   0.37740   1.000
    C907    C    0.48890   0.60040   0.35750   1.000
    C908    C    0.48750   0.64350   0.40230   1.000
    C909    C    0.48860   0.60910   0.39230   1.000
    C910    C    0.49500   0.58070   0.41910   1.000
    O275    O    0.49640   0.54760   0.40650   1.000
    O276    O    0.49750   0.59370   0.45170   1.000
    Re40    Re   0.47840   0.70750   0.20730   1.000
    C911    C    0.42990   0.69870   0.20540   1.000
    O277    O    0.39980   0.70200   0.20400   1.000
    C912    C    0.47990   0.65820   0.20980   1.000
    O278    O    0.47300   0.62880   0.21200   1.000
    C913    C    0.47480   0.69790   0.15920   1.000
    O279    O    0.47250   0.69200   0.12980   1.000
    C914    C    0.48500   0.68770   0.31680   1.000
    C915    C    0.48350   0.67760   0.28240   1.000
    C916    C    0.48220   0.70230   0.25650   1.000
    C917    C    0.48240   0.73720   0.26490   1.000
    C918    C    0.48380   0.74730   0.29930   1.000
    C919    C    0.48510   0.72260   0.32530   1.000
    C920    C    0.56410   0.78170   0.28710   1.000
    O280    O    0.56800   0.80120   0.30900   1.000
    Cl80    Cl   0.53750   0.78710   0.28580   1.000
    Cl81    Cl   0.92030   0.70840   0.28950   1.000
    N41     N    0.98850   0.77230   0.27430   1.000
    C921    C    0.90960   0.77570   0.27400   1.000
    C922    C    0.02130   0.76130   0.26470   1.000
    C923    C    0.98470   0.79730   0.29960   1.000
    O281    O    0.88610   0.78970   0.28690   1.000
    C924    C    0.05030   0.77530   0.28050   1.000
    C925    C    0.01370   0.81140   0.31540   1.000
    C926    C    0.04650   0.80040   0.30590   1.000
    C927    C    0.01300   0.83930   0.34250   1.000
    C928    C    0.01180   0.87370   0.33260   1.000
    C929    C    0.01330   0.83060   0.37740   1.000
    C930    C    0.01110   0.89960   0.35750   1.000
    C931    C    0.01250   0.85650   0.40230   1.000
    C932    C    0.01140   0.89090   0.39230   1.000
    C933    C    0.00500   0.91930   0.41910   1.000
    O282    O    0.00360   0.95240   0.40650   1.000
    O283    O    0.00250   0.90630   0.45170   1.000
    Re41    Re   0.02160   0.79250   0.20730   1.000
    C934    C    0.07010   0.80130   0.20540   1.000
    O284    O    0.10020   0.79800   0.20400   1.000
    C935    C    0.02010   0.84180   0.20980   1.000
    O285    O    0.02700   0.87120   0.21200   1.000
    C936    C    0.02520   0.80210   0.15920   1.000
    O286    O    0.02750   0.80800   0.12980   1.000
    C937    C    0.01500   0.81230   0.31680   1.000
    C938    C    0.01650   0.82240   0.28240   1.000
    C939    C    0.01780   0.79770   0.25650   1.000
    C940    C    0.01760   0.76280   0.26490   1.000
    C941    C    0.01620   0.75270   0.29930   1.000
    C942    C    0.01490   0.77740   0.32530   1.000
    C943    C    0.93590   0.71830   0.28710   1.000
    O287    O    0.93200   0.69880   0.30900   1.000
    Cl82    Cl   0.96250   0.71290   0.28580   1.000
    Cl83    Cl   0.92030   0.20840   0.78950   1.000
    N42     N    0.98850   0.27230   0.77430   1.000
    C944    C    0.90960   0.27570   0.77400   1.000
    C945    C    0.02130   0.26130   0.76470   1.000
    C946    C    0.98470   0.29730   0.79960   1.000
    O288    O    0.88610   0.28970   0.78690   1.000
    C947    C    0.05030   0.27530   0.78050   1.000
    C948    C    0.01370   0.31140   0.81540   1.000
    C949    C    0.04650   0.30040   0.80590   1.000
    C950    C    0.01300   0.33930   0.84250   1.000
    C951    C    0.01180   0.37370   0.83260   1.000
    C952    C    0.01330   0.33060   0.87740   1.000
    C953    C    0.01110   0.39960   0.85750   1.000
    C954    C    0.01250   0.35650   0.90230   1.000
    C955    C    0.01140   0.39090   0.89230   1.000
    C956    C    0.00500   0.41930   0.91910   1.000
    O289    O    0.00360   0.45240   0.90650   1.000
    O290    O    0.00250   0.40630   0.95170   1.000
    Re42    Re   0.02160   0.29250   0.70730   1.000
    C957    C    0.07010   0.30130   0.70540   1.000
    O291    O    0.10020   0.29800   0.70400   1.000
    C958    C    0.02010   0.34180   0.70980   1.000
    O292    O    0.02700   0.37120   0.71200   1.000
    C959    C    0.02520   0.30210   0.65920   1.000
    O293    O    0.02750   0.30800   0.62980   1.000
    C960    C    0.01500   0.31230   0.81680   1.000
    C961    C    0.01650   0.32240   0.78240   1.000
    C962    C    0.01780   0.29770   0.75650   1.000
    C963    C    0.01760   0.26280   0.76490   1.000
    C964    C    0.01620   0.25270   0.79930   1.000
    C965    C    0.01490   0.27740   0.82530   1.000
    C966    C    0.93590   0.21830   0.78710   1.000
    O294    O    0.93200   0.19880   0.80900   1.000
    Cl84    Cl   0.96250   0.21290   0.78580   1.000
    Cl85    Cl   0.42030   0.70840   0.78950   1.000
    N43     N    0.48850   0.77230   0.77430   1.000
    C967    C    0.40960   0.77570   0.77400   1.000
    C968    C    0.52130   0.76130   0.76470   1.000
    C969    C    0.48470   0.79730   0.79960   1.000
    O295    O    0.38610   0.78970   0.78690   1.000
    C970    C    0.55030   0.77530   0.78050   1.000
    C971    C    0.51370   0.81140   0.81540   1.000
    C972    C    0.54650   0.80040   0.80590   1.000
    C973    C    0.51300   0.83930   0.84250   1.000
    C974    C    0.51180   0.87370   0.83260   1.000
    C975    C    0.51330   0.83060   0.87740   1.000
    C976    C    0.51110   0.89960   0.85750   1.000
    C977    C    0.51250   0.85650   0.90230   1.000
    C978    C    0.51140   0.89090   0.89230   1.000
    C979    C    0.50500   0.91930   0.91910   1.000
    O296    O    0.50360   0.95240   0.90650   1.000
    O297    O    0.50250   0.90630   0.95170   1.000
    Re43    Re   0.52160   0.79250   0.70730   1.000
    C980    C    0.57010   0.80130   0.70540   1.000
    O298    O    0.60020   0.79800   0.70400   1.000
    C981    C    0.52010   0.84180   0.70980   1.000
    O299    O    0.52700   0.87120   0.71200   1.000
    C982    C    0.52520   0.80210   0.65920   1.000
    O300    O    0.52750   0.80800   0.62980   1.000
    C983    C    0.51500   0.81230   0.81680   1.000
    C984    C    0.51650   0.82240   0.78240   1.000
    C985    C    0.51780   0.79770   0.75650   1.000
    C986    C    0.51760   0.76280   0.76490   1.000
    C987    C    0.51620   0.75270   0.79930   1.000
    C988    C    0.51490   0.77740   0.82530   1.000
    C989    C    0.43590   0.71830   0.78710   1.000
    O301    O    0.43200   0.69880   0.80900   1.000
    Cl86    Cl   0.46250   0.71290   0.78580   1.000
    Cl87    Cl   0.42030   0.20840   0.28950   1.000
    N44     N    0.48850   0.27230   0.27430   1.000
    C990    C    0.40960   0.27570   0.27400   1.000
    C991    C    0.52130   0.26130   0.26470   1.000
    C992    C    0.48470   0.29730   0.29960   1.000
    O302    O    0.38610   0.28970   0.28690   1.000
    C993    C    0.55030   0.27530   0.28050   1.000
    C994    C    0.51370   0.31140   0.31540   1.000
    C995    C    0.54650   0.30040   0.30590   1.000
    C996    C    0.51300   0.33930   0.34250   1.000
    C997    C    0.51180   0.37370   0.33260   1.000
    C998    C    0.51330   0.33060   0.37740   1.000
    C999    C    0.51110   0.39960   0.35750   1.000
    C1000   C    0.51250   0.35650   0.40230   1.000
    C1001   C    0.51140   0.39090   0.39230   1.000
    C1002   C    0.50500   0.41930   0.41910   1.000
    O303    O    0.50360   0.45240   0.40650   1.000
    O304    O    0.50250   0.40630   0.45170   1.000
    Re44    Re   0.52160   0.29250   0.20730   1.000
    C1003   C    0.57010   0.30130   0.20540   1.000
    O305    O    0.60020   0.29800   0.20400   1.000
    C1004   C    0.52010   0.34180   0.20980   1.000
    O306    O    0.52700   0.37120   0.21200   1.000
    C1005   C    0.52520   0.30210   0.15920   1.000
    O307    O    0.52750   0.30800   0.12980   1.000
    C1006   C    0.51500   0.31230   0.31680   1.000
    C1007   C    0.51650   0.32240   0.28240   1.000
    C1008   C    0.51780   0.29770   0.25650   1.000
    C1009   C    0.51760   0.26280   0.26490   1.000
    C1010   C    0.51620   0.25270   0.29930   1.000
    C1011   C    0.51490   0.27740   0.32530   1.000
    C1012   C    0.43590   0.21830   0.28710   1.000
    O308    O    0.43200   0.19880   0.30900   1.000
    Cl88    Cl   0.46250   0.21290   0.28580   1.000
    Cl89    Cl   0.07970   0.70840   0.71050   1.000
    N45     N    0.01150   0.77230   0.72570   1.000
    C1013   C    0.09040   0.77570   0.72600   1.000
    C1014   C    0.97870   0.76130   0.73530   1.000
    C1015   C    0.01530   0.79730   0.70040   1.000
    O309    O    0.11390   0.78970   0.71310   1.000
    C1016   C    0.94970   0.77530   0.71950   1.000
    C1017   C    0.98630   0.81140   0.68460   1.000
    C1018   C    0.95350   0.80040   0.69410   1.000
    C1019   C    0.98700   0.83930   0.65750   1.000
    C1020   C    0.98820   0.87370   0.66740   1.000
    C1021   C    0.98670   0.83060   0.62260   1.000
    C1022   C    0.98890   0.89960   0.64250   1.000
    C1023   C    0.98750   0.85650   0.59770   1.000
    C1024   C    0.98860   0.89090   0.60770   1.000
    C1025   C    0.99500   0.91930   0.58090   1.000
    O310    O    0.99640   0.95240   0.59350   1.000
    O311    O    0.99750   0.90630   0.54830   1.000
    Re45    Re   0.97840   0.79250   0.79270   1.000
    C1026   C    0.92990   0.80130   0.79460   1.000
    O312    O    0.89980   0.79800   0.79600   1.000
    C1027   C    0.97990   0.84180   0.79020   1.000
    O313    O    0.97300   0.87120   0.78800   1.000
    C1028   C    0.97480   0.80210   0.84080   1.000
    O314    O    0.97250   0.80800   0.87020   1.000
    C1029   C    0.98500   0.81230   0.68320   1.000
    C1030   C    0.98350   0.82240   0.71760   1.000
    C1031   C    0.98220   0.79770   0.74350   1.000
    C1032   C    0.98240   0.76280   0.73510   1.000
    C1033   C    0.98380   0.75270   0.70070   1.000
    C1034   C    0.98510   0.77740   0.67470   1.000
    C1035   C    0.06410   0.71830   0.71290   1.000
    O315    O    0.06800   0.69880   0.69100   1.000
    Cl90    Cl   0.03750   0.71290   0.71420   1.000
    Cl91    Cl   0.07970   0.20840   0.21050   1.000
    N46     N    0.01150   0.27230   0.22570   1.000
    C1036   C    0.09040   0.27570   0.22600   1.000
    C1037   C    0.97870   0.26130   0.23530   1.000
    C1038   C    0.01530   0.29730   0.20040   1.000
    O316    O    0.11390   0.28970   0.21310   1.000
    C1039   C    0.94970   0.27530   0.21950   1.000
    C1040   C    0.98630   0.31140   0.18460   1.000
    C1041   C    0.95350   0.30040   0.19410   1.000
    C1042   C    0.98700   0.33930   0.15750   1.000
    C1043   C    0.98820   0.37370   0.16740   1.000
    C1044   C    0.98670   0.33060   0.12260   1.000
    C1045   C    0.98890   0.39960   0.14250   1.000
    C1046   C    0.98750   0.35650   0.09770   1.000
    C1047   C    0.98860   0.39090   0.10770   1.000
    C1048   C    0.99500   0.41930   0.08090   1.000
    O317    O    0.99640   0.45240   0.09350   1.000
    O318    O    0.99750   0.40630   0.04830   1.000
    Re46    Re   0.97840   0.29250   0.29270   1.000
    C1049   C    0.92990   0.30130   0.29460   1.000
    O319    O    0.89980   0.29800   0.29600   1.000
    C1050   C    0.97990   0.34180   0.29020   1.000
    O320    O    0.97300   0.37120   0.28800   1.000
    C1051   C    0.97480   0.30210   0.34080   1.000
    O321    O    0.97250   0.30800   0.37020   1.000
    C1052   C    0.98500   0.31230   0.18320   1.000
    C1053   C    0.98350   0.32240   0.21760   1.000
    C1054   C    0.98220   0.29770   0.24350   1.000
    C1055   C    0.98240   0.26280   0.23510   1.000
    C1056   C    0.98380   0.25270   0.20070   1.000
    C1057   C    0.98510   0.27740   0.17470   1.000
    C1058   C    0.06410   0.21830   0.21290   1.000
    O322    O    0.06800   0.19880   0.19100   1.000
    Cl92    Cl   0.03750   0.21290   0.21420   1.000
    Cl93    Cl   0.57970   0.70840   0.21050   1.000
    N47     N    0.51150   0.77230   0.22570   1.000
    C1059   C    0.59040   0.77570   0.22600   1.000
    C1060   C    0.47870   0.76130   0.23530   1.000
    C1061   C    0.51530   0.79730   0.20040   1.000
    O323    O    0.61390   0.78970   0.21310   1.000
    C1062   C    0.44970   0.77530   0.21950   1.000
    C1063   C    0.48630   0.81140   0.18460   1.000
    C1064   C    0.45350   0.80040   0.19410   1.000
    C1065   C    0.48700   0.83930   0.15750   1.000
    C1066   C    0.48820   0.87370   0.16740   1.000
    C1067   C    0.48670   0.83060   0.12260   1.000
    C1068   C    0.48890   0.89960   0.14250   1.000
    C1069   C    0.48750   0.85650   0.09770   1.000
    C1070   C    0.48860   0.89090   0.10770   1.000
    C1071   C    0.49500   0.91930   0.08090   1.000
    O324    O    0.49640   0.95240   0.09350   1.000
    O325    O    0.49750   0.90630   0.04830   1.000
    Re47    Re   0.47840   0.79250   0.29270   1.000
    C1072   C    0.42990   0.80130   0.29460   1.000
    O326    O    0.39980   0.79800   0.29600   1.000
    C1073   C    0.47990   0.84180   0.29020   1.000
    O327    O    0.47300   0.87120   0.28800   1.000
    C1074   C    0.47480   0.80210   0.34080   1.000
    O328    O    0.47250   0.80800   0.37020   1.000
    C1075   C    0.48500   0.81230   0.18320   1.000
    C1076   C    0.48350   0.82240   0.21760   1.000
    C1077   C    0.48220   0.79770   0.24350   1.000
    C1078   C    0.48240   0.76280   0.23510   1.000
    C1079   C    0.48380   0.75270   0.20070   1.000
    C1080   C    0.48510   0.77740   0.17470   1.000
    C1081   C    0.56410   0.71830   0.21290   1.000
    O329    O    0.56800   0.69880   0.19100   1.000
    Cl94    Cl   0.53750   0.71290   0.21420   1.000
    Cl95    Cl   0.57970   0.20840   0.71050   1.000
    N48     N    0.51150   0.27230   0.72570   1.000
    C1082   C    0.59040   0.27570   0.72600   1.000
    C1083   C    0.47870   0.26130   0.73530   1.000
    C1084   C    0.51530   0.29730   0.70040   1.000
    O330    O    0.61390   0.28970   0.71310   1.000
    C1085   C    0.44970   0.27530   0.71950   1.000
    C1086   C    0.48630   0.31140   0.68460   1.000
    C1087   C    0.45350   0.30040   0.69410   1.000
    C1088   C    0.48700   0.33930   0.65750   1.000
    C1089   C    0.48820   0.37370   0.66740   1.000
    C1090   C    0.48670   0.33060   0.62260   1.000
    C1091   C    0.48890   0.39960   0.64250   1.000
    C1092   C    0.48750   0.35650   0.59770   1.000
    C1093   C    0.48860   0.39090   0.60770   1.000
    C1094   C    0.49500   0.41930   0.58090   1.000
    O331    O    0.49640   0.45240   0.59350   1.000
    O332    O    0.49750   0.40630   0.54830   1.000
    Re48    Re   0.47840   0.29250   0.79270   1.000
    C1095   C    0.42990   0.30130   0.79460   1.000
    O333    O    0.39980   0.29800   0.79600   1.000
    C1096   C    0.47990   0.34180   0.79020   1.000
    O334    O    0.47300   0.37120   0.78800   1.000
    C1097   C    0.47480   0.30210   0.84080   1.000
    O335    O    0.47250   0.30800   0.87020   1.000
    C1098   C    0.48500   0.31230   0.68320   1.000
    C1099   C    0.48350   0.32240   0.71760   1.000
    C1100   C    0.48220   0.29770   0.74350   1.000
    C1101   C    0.48240   0.26280   0.73510   1.000
    C1102   C    0.48380   0.25270   0.70070   1.000
    C1103   C    0.48510   0.27740   0.67470   1.000
    C1104   C    0.56410   0.21830   0.71290   1.000
    O336    O    0.56800   0.19880   0.69100   1.000
    Cl96    Cl   0.53750   0.21290   0.71420   1.000
    Re49    Re   0.75000   0.94380   0.25000   1.000
    Re50    Re   0.75000   0.44380   0.75000   1.000
    Re51    Re   0.25000   0.05620   0.25000   1.000
    Re52    Re   0.25000   0.55620   0.75000   1.000
    Re53    Re   0.25000   0.94380   0.75000   1.000
    Re54    Re   0.25000   0.44380   0.25000   1.000
    Re55    Re   0.75000   0.05620   0.75000   1.000
    Re56    Re   0.75000   0.55620   0.25000   1.000
    Re57    Re   0.25000   0.75000   0.94380   1.000
    Re58    Re   0.25000   0.25000   0.44380   1.000
    Re59    Re   0.25000   0.25000   0.05620   1.000
    Re60    Re   0.25000   0.75000   0.55620   1.000
    Re61    Re   0.75000   0.25000   0.94380   1.000
    Re62    Re   0.75000   0.75000   0.44380   1.000
    Re63    Re   0.75000   0.75000   0.05620   1.000
    Re64    Re   0.75000   0.25000   0.55620   1.000
    Re65    Re   0.94380   0.25000   0.75000   1.000
    Re66    Re   0.44380   0.25000   0.25000   1.000
    Re67    Re   0.05620   0.25000   0.25000   1.000
    Re68    Re   0.55620   0.25000   0.75000   1.000
    Re69    Re   0.94380   0.75000   0.25000   1.000
    Re70    Re   0.44380   0.75000   0.75000   1.000
    Re71    Re   0.05620   0.75000   0.75000   1.000
    Re72    Re   0.55620   0.75000   0.25000   1.000
    Zr1     Zr   0.56421   0.00000   0.00000   1.000
    Zr2     Zr   0.56421   0.50000   0.50000   1.000
    Zr3     Zr   0.06421   0.00000   0.50000   1.000
    Zr4     Zr   0.06421   0.50000   0.00000   1.000
    Zr5     Zr   0.43579   0.00000   0.00000   1.000
    Zr6     Zr   0.43579   0.50000   0.50000   1.000
    Zr7     Zr   0.93579   0.00000   0.50000   1.000
    Zr8     Zr   0.93579   0.50000   0.00000   1.000
    Zr9     Zr   0.00000   0.56421   0.00000   1.000
    Zr10    Zr   0.00000   0.06421   0.50000   1.000
    Zr11    Zr   0.50000   0.56421   0.50000   1.000
    Zr12    Zr   0.50000   0.06421   0.00000   1.000
    Zr13    Zr   0.00000   0.43579   0.00000   1.000
    Zr14    Zr   0.00000   0.93579   0.50000   1.000
    Zr15    Zr   0.50000   0.43579   0.50000   1.000
    Zr16    Zr   0.50000   0.93579   0.00000   1.000
    Zr17    Zr   0.00000   0.00000   0.56421   1.000
    Zr18    Zr   0.00000   0.50000   0.06421   1.000
    Zr19    Zr   0.50000   0.00000   0.06421   1.000
    Zr20    Zr   0.50000   0.50000   0.56421   1.000
    Zr21    Zr   0.00000   0.00000   0.43579   1.000
    Zr22    Zr   0.00000   0.50000   0.93579   1.000
    Zr23    Zr   0.50000   0.00000   0.93579   1.000
    Zr24    Zr   0.50000   0.50000   0.43579   1.000
    O337    O    0.52760   0.02760   0.02760   1.000
    O338    O    0.52760   0.52760   0.52760   1.000
    O339    O    0.47240   0.97240   0.02760   1.000
    O340    O    0.47240   0.47240   0.52760   1.000
    O341    O    0.97240   0.97240   0.52760   1.000
    O342    O    0.47240   0.02760   0.97240   1.000
    O343    O    0.47240   0.52760   0.47240   1.000
    O344    O    0.97240   0.52760   0.97240   1.000
    O345    O    0.52760   0.97240   0.97240   1.000
    O346    O    0.52760   0.47240   0.47240   1.000
    O347    O    0.02760   0.52760   0.02760   1.000
    O348    O    0.02760   0.47240   0.97240   1.000
    O349    O    0.97240   0.47240   0.02760   1.000
    O350    O    0.02760   0.02760   0.52760   1.000
    O351    O    0.97240   0.02760   0.47240   1.000
    O352    O    0.02760   0.97240   0.47240   1.000
    O353    O    0.53790   0.96210   0.03790   1.000
    O354    O    0.53790   0.46210   0.53790   1.000
    O355    O    0.46210   0.03790   0.03790   1.000
    O356    O    0.46210   0.53790   0.53790   1.000
    O357    O    0.96210   0.03790   0.53790   1.000
    O358    O    0.96210   0.53790   0.03790   1.000
    O359    O    0.46210   0.96210   0.96210   1.000
    O360    O    0.46210   0.46210   0.46210   1.000
    O361    O    0.53790   0.03790   0.96210   1.000
    O362    O    0.53790   0.53790   0.46210   1.000
    O363    O    0.03790   0.53790   0.96210   1.000
    O364    O    0.03790   0.46210   0.03790   1.000
    O365    O    0.03790   0.96210   0.53790   1.000
    O366    O    0.96210   0.46210   0.96210   1.000
    O367    O    0.03790   0.03790   0.46210   1.000
    O368    O    0.96210   0.96210   0.46210   1.000
