# CIF file generated by openbabel 2.4.1, see http://openbabel.sf.net
data_I
_chemical_name_common 'image0'
_cell_length_a 10.1085
_cell_length_b 18.918
_cell_length_c 11.0438
_cell_angle_alpha 90
_cell_angle_beta 110.984
_cell_angle_gamma 90
_space_group_name_H-M_alt 'P 1'
_space_group_name_Hall 'P 1'
loop_
    _symmetry_equiv_pos_as_xyz
    x,y,z
loop_
    _atom_site_label
    _atom_site_type_symbol
    _atom_site_fract_x
    _atom_site_fract_y
    _atom_site_fract_z
    _atom_site_occupancy
    Cd1     Cd   0.66494   0.06026   0.06119   1.000
    O1      O    0.55680   0.11600   0.18580   1.000
    O2      O    0.40500   0.03980   0.06590   1.000
    O3      O    0.70190   0.17660   0.91830   1.000
    O4      O    0.55580   0.10370   0.85460   1.000
    O5      O    0.59030   0.19990   0.97170   1.000
    O6      O    0.51090   0.12150   0.88900   1.000
    O7      O    0.90340   0.04970   0.08670   1.000
    O8      O    0.86090   0.14050   0.18780   1.000
    C1      C    0.94670   0.09920   0.15950   1.000
    C2      C    0.10170   0.11520   0.21970   1.000
    C3      C    0.19390   0.08940   0.16300   1.000
    H1      H    0.16020   0.06070   0.08990   1.000
    C4      C    0.15170   0.15620   0.33190   1.000
    H2      H    0.08900   0.17320   0.36930   1.000
    C5      C    0.29500   0.17130   0.38740   1.000
    C6      C    0.38690   0.14710   0.32850   1.000
    H3      H    0.48280   0.15810   0.36460   1.000
    C7      C    0.33690   0.10660   0.21570   1.000
    C8      C    0.35410   0.21370   0.50980   1.000
    C9      C    0.42200   0.17740   0.62720   1.000
    H4      H    0.42120   0.12820   0.62680   1.000
    C10     C    0.49030   0.21250   0.74400   1.000
    C11     C    0.56180   0.16880   0.86310   1.000
    C12     C    0.43900   0.08490   0.15110   1.000
    Cd2     Cd   0.33506   0.56026   0.93881   1.000
    O9      O    0.44320   0.61600   0.81420   1.000
    O10     O    0.59500   0.53980   0.93410   1.000
    O11     O    0.29810   0.67660   0.08170   1.000
    O12     O    0.44420   0.60370   0.14540   1.000
    O13     O    0.40970   0.69990   0.02830   1.000
    O14     O    0.48910   0.62150   0.11100   1.000
    O15     O    0.09660   0.54970   0.91330   1.000
    O16     O    0.13910   0.64050   0.81220   1.000
    C13     C    0.05330   0.59920   0.84050   1.000
    C14     C    0.89830   0.61520   0.78030   1.000
    C15     C    0.80610   0.58940   0.83700   1.000
    H5      H    0.83980   0.56070   0.91010   1.000
    C16     C    0.84830   0.65620   0.66810   1.000
    H6      H    0.91100   0.67320   0.63070   1.000
    C17     C    0.70500   0.67130   0.61260   1.000
    C18     C    0.61310   0.64710   0.67150   1.000
    H7      H    0.51720   0.65810   0.63540   1.000
    C19     C    0.66310   0.60660   0.78430   1.000
    C20     C    0.64590   0.71370   0.49020   1.000
    C21     C    0.57800   0.67740   0.37280   1.000
    H8      H    0.57880   0.62820   0.37320   1.000
    C22     C    0.50970   0.71250   0.25600   1.000
    C23     C    0.43820   0.66880   0.13690   1.000
    C24     C    0.56100   0.58490   0.84890   1.000
    Cd3     Cd   0.33506   0.93974   0.93881   1.000
    O17     O    0.44320   0.88400   0.81420   1.000
    O18     O    0.59500   0.96020   0.93410   1.000
    O19     O    0.29810   0.82340   0.08170   1.000
    O20     O    0.44420   0.89630   0.14540   1.000
    O21     O    0.40970   0.80010   0.02830   1.000
    O22     O    0.48910   0.87850   0.11100   1.000
    O23     O    0.09660   0.95030   0.91330   1.000
    O24     O    0.13910   0.85950   0.81220   1.000
    C25     C    0.05330   0.90080   0.84050   1.000
    C26     C    0.89830   0.88480   0.78030   1.000
    C27     C    0.80610   0.91060   0.83700   1.000
    H9      H    0.83980   0.93930   0.91010   1.000
    C28     C    0.84830   0.84380   0.66810   1.000
    H10     H    0.91100   0.82680   0.63070   1.000
    C29     C    0.70500   0.82870   0.61260   1.000
    C30     C    0.61310   0.85290   0.67150   1.000
    H11     H    0.51720   0.84190   0.63540   1.000
    C31     C    0.66310   0.89340   0.78430   1.000
    C32     C    0.64590   0.78630   0.49020   1.000
    C33     C    0.57800   0.82260   0.37280   1.000
    H12     H    0.57880   0.87180   0.37320   1.000
    C34     C    0.50970   0.78750   0.25600   1.000
    C35     C    0.43820   0.83120   0.13690   1.000
    C36     C    0.56100   0.91510   0.84890   1.000
    Cd4     Cd   0.66494   0.43974   0.06119   1.000
    O25     O    0.55680   0.38400   0.18580   1.000
    O26     O    0.40500   0.46020   0.06590   1.000
    O27     O    0.70190   0.32340   0.91830   1.000
    O28     O    0.55580   0.39630   0.85460   1.000
    O29     O    0.59030   0.30010   0.97170   1.000
    O30     O    0.51090   0.37850   0.88900   1.000
    O31     O    0.90340   0.45030   0.08670   1.000
    O32     O    0.86090   0.35950   0.18780   1.000
    C37     C    0.94670   0.40080   0.15950   1.000
    C38     C    0.10170   0.38480   0.21970   1.000
    C39     C    0.19390   0.41060   0.16300   1.000
    H13     H    0.16020   0.43930   0.08990   1.000
    C40     C    0.15170   0.34380   0.33190   1.000
    H14     H    0.08900   0.32680   0.36930   1.000
    C41     C    0.29500   0.32870   0.38740   1.000
    C42     C    0.38690   0.35290   0.32850   1.000
    H15     H    0.48280   0.34190   0.36460   1.000
    C43     C    0.33690   0.39340   0.21570   1.000
    C44     C    0.35410   0.28630   0.50980   1.000
    C45     C    0.42200   0.32260   0.62720   1.000
    H16     H    0.42120   0.37180   0.62680   1.000
    C46     C    0.49030   0.28750   0.74400   1.000
    C47     C    0.56180   0.33120   0.86310   1.000
    C48     C    0.43900   0.41510   0.15110   1.000
    Cd5     Cd   0.79802   0.25000   0.09910   1.000
    Cd6     Cd   0.20198   0.75000   0.90090   1.000
