# CIF file generated by openbabel 2.4.1, see http://openbabel.sf.net
data_I
_chemical_name_common 'IMACZN01_clean'
_cell_length_a 6.6597
_cell_length_b 11.0287
_cell_length_c 11.0287
_cell_angle_alpha 71.9104
_cell_angle_beta 90
_cell_angle_gamma 90
_space_group_name_H-M_alt 'P 1'
_space_group_name_Hall 'P 1'
loop_
    _symmetry_equiv_pos_as_xyz
    x,y,z
loop_
    _atom_site_label
    _atom_site_type_symbol
    _atom_site_fract_x
    _atom_site_fract_y
    _atom_site_fract_z
    _atom_site_occupancy
    Zn1     Zn   0.88019   0.00000   0.50000   1.000
    Zn2     Zn   0.11981   0.50000   0.00000   1.000
    H1      H    0.66590   0.95610   0.14170   1.000
    H2      H    0.44660   0.97990   0.19030   1.000
    H3      H    0.39210   0.26350   0.43290   1.000
    H4      H    0.26030   0.34680   0.31500   1.000
    H5      H    0.61600   0.74300   0.23500   1.000
    H6      H    0.55000   0.18600   0.26000   1.000
    H7      H    0.66590   0.04390   0.85830   1.000
    H8      H    0.44660   0.02010   0.80970   1.000
    H9      H    0.39210   0.73650   0.56710   1.000
    H10     H    0.26030   0.65320   0.68500   1.000
    H11     H    0.61600   0.25700   0.76500   1.000
    H12     H    0.55000   0.81400   0.74000   1.000
    H13     H    0.33410   0.14170   0.95610   1.000
    H14     H    0.55340   0.19030   0.97990   1.000
    H15     H    0.60790   0.43290   0.26350   1.000
    H16     H    0.73970   0.31500   0.34680   1.000
    H17     H    0.38400   0.23500   0.74300   1.000
    H18     H    0.45000   0.26000   0.18600   1.000
    H19     H    0.33410   0.85830   0.04390   1.000
    H20     H    0.55340   0.80970   0.02010   1.000
    H21     H    0.60790   0.56710   0.73650   1.000
    H22     H    0.73970   0.68500   0.65320   1.000
    H23     H    0.38400   0.76500   0.25700   1.000
    H24     H    0.45000   0.74000   0.81400   1.000
    C1      C    0.56350   0.92146   0.20866   1.000
    C2      C    0.65000   0.91255   0.33855   1.000
    C3      C    0.33470   0.26557   0.34957   1.000
    C4      C    0.19080   0.15498   0.36858   1.000
    C5      C    0.56350   0.07854   0.79134   1.000
    C6      C    0.65000   0.08745   0.66145   1.000
    C7      C    0.33470   0.73443   0.65043   1.000
    C8      C    0.19080   0.84502   0.63142   1.000
    C9      C    0.43650   0.20866   0.92146   1.000
    C10     C    0.35000   0.33855   0.91255   1.000
    C11     C    0.66530   0.34957   0.26557   1.000
    C12     C    0.80920   0.36858   0.15498   1.000
    C13     C    0.43650   0.79134   0.07854   1.000
    C14     C    0.35000   0.66145   0.08745   1.000
    C15     C    0.66530   0.65043   0.73443   1.000
    C16     C    0.80920   0.63142   0.84502   1.000
    N1      N    0.50000   0.79220   0.20780   1.000
    N2      N    0.50000   0.20780   0.79220   1.000
    N3      N    0.50000   0.26085   0.26085   1.000
    N4      N    0.50000   0.73915   0.73915   1.000
    O1      O    0.70980   0.01902   0.34892   1.000
    O2      O    0.66010   0.80986   0.42190   1.000
    O3      O    0.05140   0.15236   0.44854   1.000
    O4      O    0.21590   0.07865   0.30985   1.000
    O5      O    0.70980   0.98098   0.65108   1.000
    O6      O    0.66010   0.19014   0.57810   1.000
    O7      O    0.05140   0.84764   0.55146   1.000
    O8      O    0.21590   0.92135   0.69015   1.000
    O9      O    0.29020   0.34892   0.01902   1.000
    O10     O    0.33990   0.42190   0.80986   1.000
    O11     O    0.94860   0.44854   0.15236   1.000
    O12     O    0.78410   0.30985   0.07865   1.000
    O13     O    0.29020   0.65108   0.98098   1.000
    O14     O    0.33990   0.57810   0.19014   1.000
    O15     O    0.94860   0.55146   0.84764   1.000
    O16     O    0.78410   0.69015   0.92135   1.000
