# CIF file generated by openbabel 2.4.1, see http://openbabel.sf.net
data_I
_chemical_name_common 'YIWMIA_clean'
_cell_length_a 8.875
_cell_length_b 13.843
_cell_length_c 21.934
_cell_angle_alpha 90
_cell_angle_beta 90
_cell_angle_gamma 90
_space_group_name_H-M_alt 'P 1'
_space_group_name_Hall 'P 1'
loop_
    _symmetry_equiv_pos_as_xyz
    x,y,z
loop_
    _atom_site_label
    _atom_site_type_symbol
    _atom_site_fract_x
    _atom_site_fract_y
    _atom_site_fract_z
    _atom_site_occupancy
    Cd1     Cd   0.75000   0.68550   0.86930   1.000
    Cd2     Cd   0.25000   0.18550   0.63070   1.000
    Cd3     Cd   0.25000   0.31450   0.13070   1.000
    Cd4     Cd   0.75000   0.81450   0.36930   1.000
    Cd5     Cd   0.25000   0.56610   0.72720   1.000
    Cd6     Cd   0.25000   0.68360   0.02360   1.000
    Cd7     Cd   0.75000   0.06610   0.77280   1.000
    Cd8     Cd   0.75000   0.18360   0.47640   1.000
    Cd9     Cd   0.75000   0.43390   0.27280   1.000
    Cd10    Cd   0.75000   0.31640   0.97640   1.000
    Cd11    Cd   0.25000   0.93390   0.22720   1.000
    Cd12    Cd   0.25000   0.81640   0.52360   1.000
    C1      C    0.05000   0.70900   0.96900   1.000
    C2      C    0.04700   0.61300   0.77400   1.000
    C3      C    0.95000   0.20900   0.53100   1.000
    C4      C    0.95300   0.11300   0.72600   1.000
    C5      C    0.55000   0.29100   0.03100   1.000
    C6      C    0.54700   0.38700   0.22600   1.000
    C7      C    0.45000   0.79100   0.46900   1.000
    C8      C    0.45300   0.88700   0.27400   1.000
    C9      C    0.95000   0.29100   0.03100   1.000
    C10     C    0.95300   0.38700   0.22600   1.000
    C11     C    0.05000   0.79100   0.46900   1.000
    C12     C    0.04700   0.88700   0.27400   1.000
    C13     C    0.45000   0.70900   0.96900   1.000
    C14     C    0.45300   0.61300   0.77400   1.000
    C15     C    0.55000   0.20900   0.53100   1.000
    C16     C    0.54700   0.11300   0.72600   1.000
    C17     C    0.75000   0.45800   0.93400   1.000
    C18     C    0.75000   0.91800   0.80800   1.000
    C19     C    0.25000   0.95800   0.56600   1.000
    C20     C    0.25000   0.41800   0.69200   1.000
    C21     C    0.25000   0.54200   0.06600   1.000
    C22     C    0.25000   0.08200   0.19200   1.000
    C23     C    0.75000   0.04200   0.43400   1.000
    C24     C    0.75000   0.58200   0.30800   1.000
    C25     C    0.25000   0.78300   0.11100   1.000
    C26     C    0.25000   0.66700   0.64900   1.000
    C27     C    0.75000   0.28300   0.38900   1.000
    C28     C    0.75000   0.16700   0.85100   1.000
    C29     C    0.75000   0.21700   0.88900   1.000
    C30     C    0.75000   0.33300   0.35100   1.000
    C31     C    0.25000   0.71700   0.61100   1.000
    C32     C    0.25000   0.83300   0.14900   1.000
    N1      N    0.95400   0.71800   0.93720   1.000
    N2      N    0.94400   0.64000   0.79700   1.000
    N3      N    0.04600   0.21800   0.56280   1.000
    N4      N    0.05600   0.14000   0.70300   1.000
    N5      N    0.45400   0.28200   0.06280   1.000
    N6      N    0.44400   0.36000   0.20300   1.000
    N7      N    0.54600   0.78200   0.43720   1.000
    N8      N    0.55600   0.86000   0.29700   1.000
    N9      N    0.04600   0.28200   0.06280   1.000
    N10     N    0.05600   0.36000   0.20300   1.000
    N11     N    0.95400   0.78200   0.43720   1.000
    N12     N    0.94400   0.86000   0.29700   1.000
    N13     N    0.54600   0.71800   0.93720   1.000
    N14     N    0.55600   0.64000   0.79700   1.000
    N15     N    0.45400   0.21800   0.56280   1.000
    N16     N    0.44400   0.14000   0.70300   1.000
    N17     N    0.75000   0.52800   0.90800   1.000
    N18     N    0.75000   0.84700   0.83000   1.000
    N19     N    0.25000   0.02800   0.59200   1.000
    N20     N    0.25000   0.34700   0.67000   1.000
    N21     N    0.25000   0.47200   0.09200   1.000
    N22     N    0.25000   0.15300   0.17000   1.000
    N23     N    0.75000   0.97200   0.40800   1.000
    N24     N    0.75000   0.65300   0.33000   1.000
