# CIF file generated by openbabel 2.4.1, see http://openbabel.sf.net
data_I
_chemical_name_common 'ic801677y_si_001_clean'
_cell_length_a 16.6008
_cell_length_b 16.6008
_cell_length_c 17.035
_cell_angle_alpha 60.8385
_cell_angle_beta 60.8385
_cell_angle_gamma 89.9991
_space_group_name_H-M_alt 'P 1'
_space_group_name_Hall 'P 1'
loop_
    _symmetry_equiv_pos_as_xyz
    x,y,z
loop_
    _atom_site_label
    _atom_site_type_symbol
    _atom_site_fract_x
    _atom_site_fract_y
    _atom_site_fract_z
    _atom_site_occupancy
    Co1     Co   0.44722   0.44722   0.10556   1.000
    Co2     Co   0.00000   0.00000   0.00000   1.000
    Co3     Co   0.55278   0.55278   0.89444   1.000
    H1      H    0.52890   0.67740   0.71540   1.000
    H2      H    0.70150   0.13750   0.16100   1.000
    H3      H    0.90750   0.90750   0.35720   1.000
    H4      H    0.26470   0.09250   0.64280   1.000
    H5      H    0.99420   0.99420   0.17780   1.000
    H6      H    0.24430   0.32260   0.28460   1.000
    H7      H    0.09250   0.09250   0.64280   1.000
    H8      H    0.26470   0.26470   0.64280   1.000
    H9      H    0.13750   0.70150   0.16100   1.000
    H10     H    0.67740   0.52890   0.71540   1.000
    H11     H    0.14980   0.22780   0.47120   1.000
    H12     H    0.92660   0.29760   0.00000   1.000
    H13     H    0.32260   0.24430   0.28460   1.000
    H14     H    0.60720   0.52890   0.71540   1.000
    H15     H    0.07340   0.29760   0.00000   1.000
    H16     H    0.39910   0.39910   0.83580   1.000
    H17     H    0.62100   0.77220   0.52880   1.000
    H18     H    0.30100   0.37900   0.47120   1.000
    H19     H    0.22780   0.37900   0.47120   1.000
    H20     H    0.17200   0.17200   0.82220   1.000
    H21     H    0.24430   0.39280   0.28460   1.000
    H22     H    0.62100   0.69900   0.52880   1.000
    H23     H    0.76510   0.76510   0.83580   1.000
    H24     H    0.75570   0.60720   0.71540   1.000
    H25     H    0.29760   0.07340   0.00000   1.000
    H26     H    0.70240   0.92660   0.00000   1.000
    H27     H    0.73530   0.90750   0.35720   1.000
    H28     H    0.39280   0.24430   0.28460   1.000
    H29     H    0.82800   0.82800   0.17780   1.000
    H30     H    0.60720   0.75570   0.71540   1.000
    H31     H    0.30100   0.14980   0.47120   1.000
    H32     H    0.90750   0.73530   0.35720   1.000
    H33     H    0.60090   0.23490   0.16420   1.000
    H34     H    0.77220   0.62100   0.52880   1.000
    H35     H    0.23490   0.60090   0.16420   1.000
    H36     H    0.29760   0.92660   0.00000   1.000
    H37     H    0.39280   0.47110   0.28460   1.000
    H38     H    0.37900   0.22780   0.47120   1.000
    H39     H    0.47110   0.32260   0.28460   1.000
    H40     H    0.69900   0.62100   0.52880   1.000
    H41     H    0.37900   0.30100   0.47120   1.000
    H42     H    0.07340   0.70240   0.00000   1.000
    H43     H    0.77220   0.85020   0.52880   1.000
    H44     H    0.32260   0.47110   0.28460   1.000
    H45     H    0.17200   0.00580   0.82220   1.000
    H46     H    0.23490   0.23490   0.16420   1.000
    H47     H    0.00580   0.17200   0.82220   1.000
    H48     H    0.00580   0.00580   0.82220   1.000
    H49     H    0.29850   0.86250   0.83900   1.000
    H50     H    0.39910   0.76510   0.83580   1.000
    H51     H    0.76510   0.39910   0.83580   1.000
    H52     H    0.67740   0.75570   0.71540   1.000
    H53     H    0.69900   0.85020   0.52880   1.000
    H54     H    0.52890   0.60720   0.71540   1.000
    H55     H    0.47110   0.39280   0.28460   1.000
    H56     H    0.22780   0.14980   0.47120   1.000
    H57     H    0.86250   0.29850   0.83900   1.000
    H58     H    0.09250   0.26470   0.64280   1.000
    H59     H    0.13750   0.13750   0.16100   1.000
    H60     H    0.85020   0.77220   0.52880   1.000
    H61     H    0.75570   0.67740   0.71540   1.000
    H62     H    0.70240   0.07340   0.00000   1.000
    H63     H    0.29850   0.29850   0.83900   1.000
    H64     H    0.92660   0.70240   0.00000   1.000
    H65     H    0.86250   0.86250   0.83900   1.000
    H66     H    0.70150   0.70150   0.16100   1.000
    H67     H    0.82800   0.99420   0.17780   1.000
    H68     H    0.60090   0.60090   0.16420   1.000
    H69     H    0.99420   0.82800   0.17780   1.000
    H70     H    0.85020   0.69900   0.52880   1.000
    H71     H    0.14980   0.30100   0.47120   1.000
    H72     H    0.73530   0.73530   0.35720   1.000
    C1      C    0.14462   0.14462   0.00000   1.000
    C2      C    0.21610   0.30410   0.43420   1.000
    C3      C    0.67320   0.32680   0.00000   1.000
    C4      C    0.83092   0.06499   0.00000   1.000
    C5      C    0.11127   0.11127   0.67740   1.000
    C6      C    0.75140   0.34568   0.90292   1.000
    C7      C    0.96058   0.74844   0.00000   1.000
    C8      C    0.69590   0.65030   0.56580   1.000
    C9      C    0.72800   0.68240   0.67640   1.000
    C10     C    0.67320   0.67320   0.00000   1.000
    C11     C    0.21133   0.21133   0.67740   1.000
    C12     C    0.25156   0.03942   0.00000   1.000
    C13     C    0.16908   0.06499   0.00000   1.000
    C14     C    0.25311   0.25311   0.49378   1.000
    C15     C    0.40440   0.31760   0.32360   1.000
    C16     C    0.64120   0.72800   0.67640   1.000
    C17     C    0.19110   0.71416   0.09474   1.000
    C18     C    0.19400   0.19400   0.61200   1.000
    C19     C    0.27200   0.31760   0.32360   1.000
    C20     C    0.79059   0.79059   0.00000   1.000
    C21     C    0.80890   0.80890   0.90526   1.000
    C22     C    0.32680   0.32680   0.00000   1.000
    C23     C    0.79059   0.20941   0.00000   1.000
    C24     C    0.38980   0.61020   0.00000   1.000
    C25     C    0.73830   0.65030   0.56580   1.000
    C26     C    0.93992   0.93992   0.21652   1.000
    C27     C    0.14462   0.85538   0.00000   1.000
    C28     C    0.61020   0.38980   0.00000   1.000
    C29     C    0.80890   0.28584   0.90526   1.000
    C30     C    0.68240   0.72800   0.67640   1.000
    C31     C    0.28584   0.80890   0.90526   1.000
    C32     C    0.20941   0.79059   0.00000   1.000
    C33     C    0.31760   0.27200   0.32360   1.000
    C34     C    0.34568   0.75140   0.90292   1.000
    C35     C    0.65030   0.73830   0.56580   1.000
    C36     C    0.21133   0.11127   0.67740   1.000
    C37     C    0.34568   0.34568   0.90292   1.000
    C38     C    0.88873   0.78867   0.32260   1.000
    C39     C    0.32680   0.67320   0.00000   1.000
    C40     C    0.69590   0.78390   0.56580   1.000
    C41     C    0.75140   0.75140   0.90292   1.000
    C42     C    0.93501   0.83092   0.00000   1.000
    C43     C    0.06008   0.06008   0.78348   1.000
    C44     C    0.11127   0.21133   0.67740   1.000
    C45     C    0.26170   0.34970   0.43420   1.000
    C46     C    0.59560   0.64120   0.67640   1.000
    C47     C    0.30410   0.21610   0.43420   1.000
    C48     C    0.35880   0.40440   0.32360   1.000
    C49     C    0.74844   0.96058   0.00000   1.000
    C50     C    0.78867   0.78867   0.32260   1.000
    C51     C    0.93501   0.16908   0.00000   1.000
    C52     C    0.27200   0.35880   0.32360   1.000
    C53     C    0.85538   0.85538   0.00000   1.000
    C54     C    0.35880   0.27200   0.32360   1.000
    C55     C    0.28584   0.28584   0.90526   1.000
    C56     C    0.88873   0.88873   0.32260   1.000
    C57     C    0.65432   0.24860   0.09708   1.000
    C58     C    0.31760   0.40440   0.32360   1.000
    C59     C    0.71416   0.71416   0.09474   1.000
    C60     C    0.19110   0.19110   0.09474   1.000
    C61     C    0.80600   0.80600   0.38800   1.000
    C62     C    0.03942   0.74844   0.00000   1.000
    C63     C    0.78390   0.73830   0.56580   1.000
    C64     C    0.26170   0.21610   0.43420   1.000
    C65     C    0.71416   0.19110   0.09474   1.000
    C66     C    0.84356   0.84356   0.21652   1.000
    C67     C    0.78390   0.69590   0.56580   1.000
    C68     C    0.61020   0.61020   0.00000   1.000
    C69     C    0.24860   0.65432   0.09708   1.000
    C70     C    0.96058   0.25156   0.00000   1.000
    C71     C    0.84356   0.93992   0.21652   1.000
    C72     C    0.65432   0.65432   0.09708   1.000
    C73     C    0.06499   0.16908   0.00000   1.000
    C74     C    0.21610   0.26170   0.43420   1.000
    C75     C    0.24860   0.24860   0.09708   1.000
    C76     C    0.93992   0.84356   0.21652   1.000
    C77     C    0.83092   0.93501   0.00000   1.000
    C78     C    0.38980   0.38980   0.00000   1.000
    C79     C    0.34970   0.26170   0.43420   1.000
    C80     C    0.15644   0.15644   0.78348   1.000
    C81     C    0.30410   0.34970   0.43420   1.000
    C82     C    0.78867   0.88873   0.32260   1.000
    C83     C    0.34970   0.30410   0.43420   1.000
    C84     C    0.40440   0.35880   0.32360   1.000
    C85     C    0.74689   0.74689   0.50622   1.000
    C86     C    0.25156   0.96058   0.00000   1.000
    C87     C    0.85538   0.14462   0.00000   1.000
    C88     C    0.06008   0.15644   0.78348   1.000
    C89     C    0.74844   0.03942   0.00000   1.000
    C90     C    0.03942   0.25156   0.00000   1.000
    C91     C    0.64120   0.59560   0.67640   1.000
    C92     C    0.20941   0.20941   0.00000   1.000
    C93     C    0.59560   0.68240   0.67640   1.000
    C94     C    0.73830   0.78390   0.56580   1.000
    C95     C    0.15644   0.06008   0.78348   1.000
    C96     C    0.16908   0.93501   0.00000   1.000
    C97     C    0.68240   0.59560   0.67640   1.000
    C98     C    0.72800   0.64120   0.67640   1.000
    C99     C    0.06499   0.83092   0.00000   1.000
    C100    C    0.65030   0.69590   0.56580   1.000
    N1      N    0.00000   0.88148   0.00000   1.000
    N2      N    0.88148   0.00000   0.00000   1.000
    N3      N    0.63521   0.63521   0.72958   1.000
    N4      N    0.36479   0.36479   0.27042   1.000
    N5      N    0.00000   0.11852   0.00000   1.000
    N6      N    0.08026   0.08026   0.83948   1.000
    N7      N    0.11852   0.00000   0.00000   1.000
    N8      N    0.91974   0.91974   0.16052   1.000
    O1      O    0.54059   0.36945   0.08996   1.000
    O2      O    0.63055   0.63055   0.91004   1.000
    O3      O    0.45941   0.45941   0.91004   1.000
    O4      O    0.54059   0.54059   0.08996   1.000
    O5      O    0.45941   0.63055   0.91004   1.000
    O6      O    0.63055   0.45941   0.91004   1.000
    O7      O    0.36945   0.54059   0.08996   1.000
    O8      O    0.36945   0.36945   0.08996   1.000
