# CIF file generated by openbabel 2.4.1, see http://openbabel.sf.net
data_I
_chemical_name_common 'image0'
_cell_length_a 22.2737
_cell_length_b 29.146
_cell_length_c 13.8719
_cell_angle_alpha 90
_cell_angle_beta 108.451
_cell_angle_gamma 90
_space_group_name_H-M_alt 'P 1'
_space_group_name_Hall 'P 1'
loop_
    _symmetry_equiv_pos_as_xyz
    x,y,z
loop_
    _atom_site_label
    _atom_site_type_symbol
    _atom_site_fract_x
    _atom_site_fract_y
    _atom_site_fract_z
    _atom_site_occupancy
    C1      C    0.43070   0.22577   0.38894   1.000
    H1      H    0.44510   0.25550   0.38600   1.000
    C2      C    0.41850   0.19875   0.30347   1.000
    H2      H    0.42530   0.21030   0.24530   1.000
    C3      C    0.39627   0.15456   0.30390   1.000
    C4      C    0.38715   0.14032   0.39305   1.000
    H3      H    0.37140   0.11110   0.39700   1.000
    C5      C    0.40110   0.16885   0.47604   1.000
    H4      H    0.39500   0.15790   0.53520   1.000
    C6      C    0.38593   0.12348   0.21565   1.000
    C7      C    0.42570   0.12456   0.15595   1.000
    H5      H    0.45770   0.14650   0.16960   1.000
    C8      C    0.41919   0.09431   0.07754   1.000
    H6      H    0.44760   0.09530   0.04080   1.000
    C9      C    0.37020   0.06196   0.05214   1.000
    C10     C    0.32852   0.06232   0.10849   1.000
    H7      H    0.29430   0.04230   0.09150   1.000
    C11     C    0.33719   0.09178   0.18876   1.000
    H8      H    0.30940   0.09040   0.22650   1.000
    C12     C    0.40120   0.03236   0.90774   1.000
    C13     C    0.40623   0.07209   0.85576   1.000
    H9      H    0.38290   0.09790   0.86110   1.000
    C14     C    0.44537   0.07387   0.79643   1.000
    H10     H    0.44920   0.10130   0.76470   1.000
    C15     C    0.47919   0.03581   0.78279   1.000
    C16     C    0.47088   0.99578   0.83199   1.000
    H11     H    0.49120   0.96910   0.82230   1.000
    C17     C    0.43392   0.99439   0.89402   1.000
    H12     H    0.43090   0.96720   0.92740   1.000
    C18     C    0.32580   0.98930   0.96958   1.000
    C19     C    0.33677   0.96037   0.05172   1.000
    H13     H    0.36990   0.96630   0.11090   1.000
    C20     C    0.29860   0.92254   0.04631   1.000
    H14     H    0.30630   0.90320   0.10230   1.000
    C21     C    0.24943   0.91282   0.95994   1.000
    C22     C    0.24148   0.94120   0.87691   1.000
    H15     H    0.20960   0.93470   0.81650   1.000
    C23     C    0.27922   0.97849   0.88156   1.000
    H16     H    0.27320   0.99670   0.82430   1.000
    C24     C    0.20538   0.87400   0.95527   1.000
    C25     C    0.13916   0.88407   0.92230   1.000
    H17     H    0.12460   0.91380   0.90520   1.000
    C26     C    0.09760   0.84840   0.91674   1.000
    H18     H    0.05470   0.85500   0.90030   1.000
    N1      N    0.11670   0.80323   0.93439   1.000
    C27     C    0.17613   0.79721   0.96272   1.000
    H19     H    0.19060   0.76730   0.97800   1.000
    C28     C    0.22124   0.83081   0.97290   1.000
    H20     H    0.26380   0.82270   0.99280   1.000
    C29     C    0.41341   0.20771   0.77274   1.000
    C30     C    0.35873   0.20069   0.81221   1.000
    C31     C    0.29734   0.20303   0.75159   1.000
    H21     H    0.28830   0.20760   0.68210   1.000
    C32     C    0.24837   0.19872   0.79182   1.000
    H22     H    0.20690   0.20010   0.74830   1.000
    C33     C    0.25864   0.19246   0.89374   1.000
    C34     C    0.32002   0.18750   0.95212   1.000
    H23     H    0.32910   0.18090   0.02090   1.000
    C35     C    0.36922   0.19197   0.91269   1.000
    H24     H    0.41060   0.18900   0.95570   1.000
    C36     C    0.20671   0.19040   0.93952   1.000
    C37     C    0.14691   0.20408   0.88915   1.000
    H25     H    0.13710   0.21420   0.82240   1.000
    C38     C    0.10012   0.20332   0.93507   1.000
    H26     H    0.05970   0.21340   0.89850   1.000
    C39     C    0.11120   0.18824   0.03224   1.000
    C40     C    0.17044   0.17301   0.08119   1.000
    H27     H    0.17970   0.16200   0.14720   1.000
    C41     C    0.21767   0.17325   0.03628   1.000
    H28     H    0.25740   0.16170   0.07180   1.000
    C42     C    0.06273   0.18976   0.08527   1.000
    Co1     Co   0.45770   0.25075   0.61322   1.000
    N2      N    0.42299   0.21150   0.47603   1.000
    N3      N    0.36373   0.03025   0.97395   1.000
    O1      O    0.46720   0.20545   0.83569   1.000
    O2      O    0.40006   0.21650   0.67864   1.000
    O3      O    0.07464   0.17008   0.16958   1.000
    O4      O    0.01244   0.21141   0.04295   1.000
    H29     H    0.47180   0.29730   0.77670   1.000
    C43     C    0.20630   0.87340   0.95200   1.000
    C44     C    0.17280   0.86470   0.02190   1.000
    H30     H    0.17980   0.88300   0.07940   1.000
    C45     C    0.12950   0.82890   0.00390   1.000
    H31     H    0.10780   0.82580   0.05080   1.000
    N4      N    0.11620   0.80126   0.93590   1.000
    C46     C    0.16110   0.80130   0.87730   1.000
    H32     H    0.16110   0.77700   0.83390   1.000
    C47     C    0.20360   0.83740   0.88670   1.000
    H33     H    0.23080   0.83710   0.84780   1.000
    H34     H    0.52860   0.27420   0.79170   1.000
    C48     C    0.93070   0.72577   0.38894   1.000
    H35     H    0.94510   0.75550   0.38600   1.000
    C49     C    0.91850   0.69875   0.30347   1.000
    H36     H    0.92530   0.71030   0.24530   1.000
    C50     C    0.89627   0.65456   0.30390   1.000
    C51     C    0.88715   0.64032   0.39305   1.000
    H37     H    0.87140   0.61110   0.39700   1.000
    C52     C    0.90110   0.66885   0.47604   1.000
    H38     H    0.89500   0.65790   0.53520   1.000
    C53     C    0.88593   0.62348   0.21565   1.000
    C54     C    0.92570   0.62456   0.15595   1.000
    H39     H    0.95770   0.64650   0.16960   1.000
    C55     C    0.91919   0.59431   0.07754   1.000
    H40     H    0.94760   0.59530   0.04080   1.000
    C56     C    0.87020   0.56196   0.05214   1.000
    C57     C    0.82852   0.56232   0.10849   1.000
    H41     H    0.79430   0.54230   0.09150   1.000
    C58     C    0.83719   0.59178   0.18876   1.000
    H42     H    0.80940   0.59040   0.22650   1.000
    C59     C    0.90120   0.53236   0.90774   1.000
    C60     C    0.90623   0.57209   0.85576   1.000
    H43     H    0.88290   0.59790   0.86110   1.000
    C61     C    0.94537   0.57387   0.79643   1.000
    H44     H    0.94920   0.60130   0.76470   1.000
    C62     C    0.97919   0.53581   0.78279   1.000
    C63     C    0.97088   0.49578   0.83199   1.000
    H45     H    0.99120   0.46910   0.82230   1.000
    C64     C    0.93392   0.49439   0.89402   1.000
    H46     H    0.93090   0.46720   0.92740   1.000
    C65     C    0.82580   0.48930   0.96958   1.000
    C66     C    0.83677   0.46037   0.05172   1.000
    H47     H    0.86990   0.46630   0.11090   1.000
    C67     C    0.79860   0.42254   0.04631   1.000
    H48     H    0.80630   0.40320   0.10230   1.000
    C68     C    0.74943   0.41282   0.95994   1.000
    C69     C    0.74148   0.44120   0.87691   1.000
    H49     H    0.70960   0.43470   0.81650   1.000
    C70     C    0.77922   0.47849   0.88156   1.000
    H50     H    0.77320   0.49670   0.82430   1.000
    C71     C    0.70538   0.37400   0.95527   1.000
    C72     C    0.63916   0.38407   0.92230   1.000
    H51     H    0.62460   0.41380   0.90520   1.000
    C73     C    0.59760   0.34840   0.91674   1.000
    H52     H    0.55470   0.35500   0.90030   1.000
    N5      N    0.61670   0.30323   0.93439   1.000
    C74     C    0.67613   0.29721   0.96272   1.000
    H53     H    0.69060   0.26730   0.97800   1.000
    C75     C    0.72124   0.33081   0.97290   1.000
    H54     H    0.76380   0.32270   0.99280   1.000
    C76     C    0.91341   0.70771   0.77274   1.000
    C77     C    0.85873   0.70069   0.81221   1.000
    C78     C    0.79734   0.70303   0.75159   1.000
    H55     H    0.78830   0.70760   0.68210   1.000
    C79     C    0.74837   0.69872   0.79182   1.000
    H56     H    0.70690   0.70010   0.74830   1.000
    C80     C    0.75864   0.69246   0.89374   1.000
    C81     C    0.82002   0.68750   0.95212   1.000
    H57     H    0.82910   0.68090   0.02090   1.000
    C82     C    0.86922   0.69197   0.91269   1.000
    H58     H    0.91060   0.68900   0.95570   1.000
    C83     C    0.70671   0.69040   0.93952   1.000
    C84     C    0.64691   0.70408   0.88915   1.000
    H59     H    0.63710   0.71420   0.82240   1.000
    C85     C    0.60012   0.70332   0.93507   1.000
    H60     H    0.55970   0.71340   0.89850   1.000
    C86     C    0.61120   0.68824   0.03224   1.000
    C87     C    0.67044   0.67301   0.08119   1.000
    H61     H    0.67970   0.66200   0.14720   1.000
    C88     C    0.71767   0.67325   0.03628   1.000
    H62     H    0.75740   0.66170   0.07180   1.000
    C89     C    0.56273   0.68976   0.08527   1.000
    Co2     Co   0.95770   0.75075   0.61322   1.000
    N6      N    0.92299   0.71150   0.47603   1.000
    N7      N    0.86373   0.53025   0.97395   1.000
    O5      O    0.96720   0.70545   0.83569   1.000
    O6      O    0.90006   0.71650   0.67864   1.000
    O7      O    0.57464   0.67008   0.16958   1.000
    O8      O    0.51244   0.71141   0.04295   1.000
    H63     H    0.97180   0.79730   0.77670   1.000
    C90     C    0.70630   0.37340   0.95200   1.000
    C91     C    0.67280   0.36470   0.02190   1.000
    H64     H    0.67980   0.38300   0.07940   1.000
    C92     C    0.62950   0.32890   0.00390   1.000
    H65     H    0.60780   0.32580   0.05080   1.000
    N8      N    0.61620   0.30126   0.93590   1.000
    C93     C    0.66110   0.30130   0.87730   1.000
    H66     H    0.66110   0.27700   0.83390   1.000
    C94     C    0.70360   0.33740   0.88670   1.000
    H67     H    0.73080   0.33710   0.84780   1.000
    H68     H    0.02860   0.77420   0.79170   1.000
    C95     C    0.56930   0.22577   0.11106   1.000
    H69     H    0.55490   0.25550   0.11400   1.000
    C96     C    0.58150   0.19875   0.19653   1.000
    H70     H    0.57470   0.21030   0.25470   1.000
    C97     C    0.60373   0.15456   0.19610   1.000
    C98     C    0.61285   0.14032   0.10695   1.000
    H71     H    0.62860   0.11110   0.10300   1.000
    C99     C    0.59890   0.16885   0.02396   1.000
    H72     H    0.60500   0.15790   0.96480   1.000
    C100    C    0.61407   0.12348   0.28435   1.000
    C101    C    0.57430   0.12456   0.34405   1.000
    H73     H    0.54230   0.14650   0.33040   1.000
    C102    C    0.58081   0.09431   0.42246   1.000
    H74     H    0.55240   0.09530   0.45920   1.000
    C103    C    0.62980   0.06196   0.44786   1.000
    C104    C    0.67148   0.06232   0.39151   1.000
    H75     H    0.70570   0.04230   0.40850   1.000
    C105    C    0.66281   0.09178   0.31124   1.000
    H76     H    0.69060   0.09040   0.27350   1.000
    C106    C    0.59880   0.03236   0.59226   1.000
    C107    C    0.59377   0.07209   0.64424   1.000
    H77     H    0.61710   0.09790   0.63890   1.000
    C108    C    0.55463   0.07387   0.70357   1.000
    H78     H    0.55080   0.10130   0.73530   1.000
    C109    C    0.52081   0.03581   0.71721   1.000
    C110    C    0.52912   0.99578   0.66801   1.000
    H79     H    0.50880   0.96910   0.67770   1.000
    C111    C    0.56608   0.99439   0.60598   1.000
    H80     H    0.56910   0.96720   0.57260   1.000
    C112    C    0.67420   0.98930   0.53042   1.000
    C113    C    0.66323   0.96037   0.44828   1.000
    H81     H    0.63010   0.96630   0.38910   1.000
    C114    C    0.70140   0.92254   0.45369   1.000
    H82     H    0.69370   0.90320   0.39770   1.000
    C115    C    0.75057   0.91282   0.54006   1.000
    C116    C    0.75852   0.94120   0.62309   1.000
    H83     H    0.79040   0.93470   0.68350   1.000
    C117    C    0.72078   0.97849   0.61844   1.000
    H84     H    0.72680   0.99670   0.67570   1.000
    C118    C    0.79462   0.87400   0.54473   1.000
    C119    C    0.86084   0.88407   0.57770   1.000
    H85     H    0.87540   0.91380   0.59480   1.000
    C120    C    0.90240   0.84840   0.58326   1.000
    H86     H    0.94530   0.85500   0.59970   1.000
    N9      N    0.88330   0.80323   0.56561   1.000
    C121    C    0.82387   0.79721   0.53728   1.000
    H87     H    0.80940   0.76730   0.52200   1.000
    C122    C    0.77876   0.83081   0.52710   1.000
    H88     H    0.73620   0.82270   0.50720   1.000
    C123    C    0.58659   0.20771   0.72726   1.000
    C124    C    0.64127   0.20069   0.68779   1.000
    C125    C    0.70266   0.20303   0.74841   1.000
    H89     H    0.71170   0.20760   0.81790   1.000
    C126    C    0.75163   0.19872   0.70818   1.000
    H90     H    0.79310   0.20010   0.75170   1.000
    C127    C    0.74136   0.19246   0.60626   1.000
    C128    C    0.67998   0.18750   0.54788   1.000
    H91     H    0.67090   0.18090   0.47910   1.000
    C129    C    0.63078   0.19197   0.58731   1.000
    H92     H    0.58940   0.18900   0.54430   1.000
    C130    C    0.79329   0.19040   0.56048   1.000
    C131    C    0.85309   0.20408   0.61085   1.000
    H93     H    0.86290   0.21420   0.67760   1.000
    C132    C    0.89988   0.20332   0.56493   1.000
    H94     H    0.94030   0.21340   0.60150   1.000
    C133    C    0.88880   0.18824   0.46776   1.000
    C134    C    0.82956   0.17301   0.41881   1.000
    H95     H    0.82030   0.16200   0.35280   1.000
    C135    C    0.78233   0.17325   0.46372   1.000
    H96     H    0.74260   0.16170   0.42820   1.000
    C136    C    0.93727   0.18976   0.41473   1.000
    Co3     Co   0.54230   0.25075   0.88678   1.000
    N10     N    0.57701   0.21150   0.02397   1.000
    N11     N    0.63627   0.03025   0.52605   1.000
    O9      O    0.53280   0.20545   0.66431   1.000
    O10     O    0.59994   0.21650   0.82136   1.000
    O11     O    0.92536   0.17008   0.33042   1.000
    O12     O    0.98756   0.21141   0.45705   1.000
    H97     H    0.52820   0.29730   0.72330   1.000
    C137    C    0.79370   0.87340   0.54800   1.000
    C138    C    0.82720   0.86470   0.47810   1.000
    H98     H    0.82020   0.88300   0.42060   1.000
    C139    C    0.87050   0.82890   0.49610   1.000
    H99     H    0.89220   0.82580   0.44920   1.000
    N12     N    0.88380   0.80126   0.56410   1.000
    C140    C    0.83890   0.80130   0.62270   1.000
    H100    H    0.83890   0.77700   0.66610   1.000
    C141    C    0.79640   0.83740   0.61330   1.000
    H101    H    0.76920   0.83710   0.65220   1.000
    H102    H    0.47140   0.27420   0.70830   1.000
    C142    C    0.06930   0.72577   0.11106   1.000
    H103    H    0.05490   0.75550   0.11400   1.000
    C143    C    0.08150   0.69875   0.19653   1.000
    H104    H    0.07470   0.71030   0.25470   1.000
    C144    C    0.10373   0.65456   0.19610   1.000
    C145    C    0.11285   0.64032   0.10695   1.000
    H105    H    0.12860   0.61110   0.10300   1.000
    C146    C    0.09890   0.66885   0.02396   1.000
    H106    H    0.10500   0.65790   0.96480   1.000
    C147    C    0.11407   0.62348   0.28435   1.000
    C148    C    0.07430   0.62456   0.34405   1.000
    H107    H    0.04230   0.64650   0.33040   1.000
    C149    C    0.08081   0.59431   0.42246   1.000
    H108    H    0.05240   0.59530   0.45920   1.000
    C150    C    0.12980   0.56196   0.44786   1.000
    C151    C    0.17148   0.56232   0.39151   1.000
    H109    H    0.20570   0.54230   0.40850   1.000
    C152    C    0.16281   0.59178   0.31124   1.000
    H110    H    0.19060   0.59040   0.27350   1.000
    C153    C    0.09880   0.53236   0.59226   1.000
    C154    C    0.09377   0.57209   0.64424   1.000
    H111    H    0.11710   0.59790   0.63890   1.000
    C155    C    0.05463   0.57387   0.70357   1.000
    H112    H    0.05080   0.60130   0.73530   1.000
    C156    C    0.02081   0.53581   0.71721   1.000
    C157    C    0.02912   0.49578   0.66801   1.000
    H113    H    0.00880   0.46910   0.67770   1.000
    C158    C    0.06608   0.49439   0.60598   1.000
    H114    H    0.06910   0.46720   0.57260   1.000
    C159    C    0.17420   0.48930   0.53042   1.000
    C160    C    0.16323   0.46037   0.44828   1.000
    H115    H    0.13010   0.46630   0.38910   1.000
    C161    C    0.20140   0.42254   0.45369   1.000
    H116    H    0.19370   0.40320   0.39770   1.000
    C162    C    0.25057   0.41282   0.54006   1.000
    C163    C    0.25852   0.44120   0.62309   1.000
    H117    H    0.29040   0.43470   0.68350   1.000
    C164    C    0.22078   0.47849   0.61844   1.000
    H118    H    0.22680   0.49670   0.67570   1.000
    C165    C    0.29462   0.37400   0.54473   1.000
    C166    C    0.36084   0.38407   0.57770   1.000
    H119    H    0.37540   0.41380   0.59480   1.000
    C167    C    0.40240   0.34840   0.58326   1.000
    H120    H    0.44530   0.35500   0.59970   1.000
    N13     N    0.38330   0.30323   0.56561   1.000
    C168    C    0.32387   0.29721   0.53728   1.000
    H121    H    0.30940   0.26730   0.52200   1.000
    C169    C    0.27876   0.33081   0.52710   1.000
    H122    H    0.23620   0.32270   0.50720   1.000
    C170    C    0.08659   0.70771   0.72726   1.000
    C171    C    0.14127   0.70069   0.68779   1.000
    C172    C    0.20266   0.70303   0.74841   1.000
    H123    H    0.21170   0.70760   0.81790   1.000
    C173    C    0.25163   0.69872   0.70818   1.000
    H124    H    0.29310   0.70010   0.75170   1.000
    C174    C    0.24136   0.69246   0.60626   1.000
    C175    C    0.17998   0.68750   0.54788   1.000
    H125    H    0.17090   0.68090   0.47910   1.000
    C176    C    0.13078   0.69197   0.58731   1.000
    H126    H    0.08940   0.68900   0.54430   1.000
    C177    C    0.29329   0.69040   0.56048   1.000
    C178    C    0.35309   0.70408   0.61085   1.000
    H127    H    0.36290   0.71420   0.67760   1.000
    C179    C    0.39988   0.70332   0.56493   1.000
    H128    H    0.44030   0.71340   0.60150   1.000
    C180    C    0.38880   0.68824   0.46776   1.000
    C181    C    0.32956   0.67301   0.41881   1.000
    H129    H    0.32030   0.66200   0.35280   1.000
    C182    C    0.28233   0.67325   0.46372   1.000
    H130    H    0.24260   0.66170   0.42820   1.000
    C183    C    0.43727   0.68976   0.41473   1.000
    Co4     Co   0.04230   0.75075   0.88678   1.000
    N14     N    0.07701   0.71150   0.02397   1.000
    N15     N    0.13627   0.53025   0.52605   1.000
    O13     O    0.03280   0.70545   0.66431   1.000
    O14     O    0.09994   0.71650   0.82136   1.000
    O15     O    0.42536   0.67008   0.33042   1.000
    O16     O    0.48756   0.71141   0.45705   1.000
    H131    H    0.02820   0.79730   0.72330   1.000
    C184    C    0.29370   0.37340   0.54800   1.000
    C185    C    0.32720   0.36470   0.47810   1.000
    H132    H    0.32020   0.38300   0.42060   1.000
    C186    C    0.37050   0.32890   0.49610   1.000
    H133    H    0.39220   0.32580   0.44920   1.000
    N16     N    0.38380   0.30126   0.56410   1.000
    C187    C    0.33890   0.30130   0.62270   1.000
    H134    H    0.33890   0.27700   0.66610   1.000
    C188    C    0.29640   0.33740   0.61330   1.000
    H135    H    0.26920   0.33710   0.65220   1.000
    H136    H    0.97140   0.77420   0.70830   1.000
    C189    C    0.56930   0.77423   0.61106   1.000
    H137    H    0.55490   0.74450   0.61400   1.000
    C190    C    0.58150   0.80125   0.69653   1.000
    H138    H    0.57470   0.78970   0.75470   1.000
    C191    C    0.60373   0.84544   0.69610   1.000
    C192    C    0.61285   0.85968   0.60695   1.000
    H139    H    0.62860   0.88890   0.60300   1.000
    C193    C    0.59890   0.83115   0.52396   1.000
    H140    H    0.60500   0.84210   0.46480   1.000
    C194    C    0.61407   0.87652   0.78435   1.000
    C195    C    0.57430   0.87544   0.84405   1.000
    H141    H    0.54230   0.85350   0.83040   1.000
    C196    C    0.58081   0.90569   0.92246   1.000
    H142    H    0.55240   0.90470   0.95920   1.000
    C197    C    0.62980   0.93804   0.94786   1.000
    C198    C    0.67148   0.93768   0.89151   1.000
    H143    H    0.70570   0.95770   0.90850   1.000
    C199    C    0.66281   0.90822   0.81124   1.000
    H144    H    0.69060   0.90960   0.77350   1.000
    C200    C    0.59880   0.96764   0.09226   1.000
    C201    C    0.59377   0.92791   0.14424   1.000
    H145    H    0.61710   0.90210   0.13890   1.000
    C202    C    0.55463   0.92613   0.20357   1.000
    H146    H    0.55080   0.89870   0.23530   1.000
    C203    C    0.52081   0.96419   0.21721   1.000
    C204    C    0.52912   0.00422   0.16801   1.000
    H147    H    0.50880   0.03090   0.17770   1.000
    C205    C    0.56608   0.00561   0.10598   1.000
    H148    H    0.56910   0.03280   0.07260   1.000
    C206    C    0.67420   0.01070   0.03042   1.000
    C207    C    0.66323   0.03963   0.94828   1.000
    H149    H    0.63010   0.03370   0.88910   1.000
    C208    C    0.70140   0.07746   0.95369   1.000
    H150    H    0.69370   0.09680   0.89770   1.000
    C209    C    0.75057   0.08718   0.04006   1.000
    C210    C    0.75852   0.05880   0.12309   1.000
    H151    H    0.79040   0.06530   0.18350   1.000
    C211    C    0.72078   0.02151   0.11844   1.000
    H152    H    0.72680   0.00330   0.17570   1.000
    C212    C    0.79462   0.12600   0.04473   1.000
    C213    C    0.86084   0.11593   0.07770   1.000
    H153    H    0.87540   0.08620   0.09480   1.000
    C214    C    0.90240   0.15160   0.08326   1.000
    H154    H    0.94530   0.14500   0.09970   1.000
    N17     N    0.88330   0.19677   0.06561   1.000
    C215    C    0.82387   0.20279   0.03728   1.000
    H155    H    0.80940   0.23270   0.02200   1.000
    C216    C    0.77876   0.16919   0.02710   1.000
    H156    H    0.73620   0.17730   0.00720   1.000
    C217    C    0.58659   0.79229   0.22726   1.000
    C218    C    0.64127   0.79931   0.18779   1.000
    C219    C    0.70266   0.79697   0.24841   1.000
    H157    H    0.71170   0.79240   0.31790   1.000
    C220    C    0.75163   0.80128   0.20818   1.000
    H158    H    0.79310   0.79990   0.25170   1.000
    C221    C    0.74136   0.80754   0.10626   1.000
    C222    C    0.67998   0.81250   0.04788   1.000
    H159    H    0.67090   0.81910   0.97910   1.000
    C223    C    0.63078   0.80803   0.08731   1.000
    H160    H    0.58940   0.81100   0.04430   1.000
    C224    C    0.79329   0.80960   0.06048   1.000
    C225    C    0.85309   0.79592   0.11085   1.000
    H161    H    0.86290   0.78580   0.17760   1.000
    C226    C    0.89988   0.79668   0.06493   1.000
    H162    H    0.94030   0.78660   0.10150   1.000
    C227    C    0.88880   0.81176   0.96776   1.000
    C228    C    0.82956   0.82699   0.91881   1.000
    H163    H    0.82030   0.83800   0.85280   1.000
    C229    C    0.78233   0.82675   0.96372   1.000
    H164    H    0.74260   0.83830   0.92820   1.000
    C230    C    0.93727   0.81024   0.91473   1.000
    Co5     Co   0.54230   0.74925   0.38678   1.000
    N18     N    0.57701   0.78850   0.52397   1.000
    N19     N    0.63627   0.96975   0.02605   1.000
    O17     O    0.53280   0.79455   0.16431   1.000
    O18     O    0.59994   0.78350   0.32136   1.000
    O19     O    0.92536   0.82992   0.83042   1.000
    O20     O    0.98756   0.78859   0.95705   1.000
    H165    H    0.52820   0.70270   0.22330   1.000
    C231    C    0.79370   0.12660   0.04800   1.000
    C232    C    0.82720   0.13530   0.97810   1.000
    H166    H    0.82020   0.11700   0.92060   1.000
    C233    C    0.87050   0.17110   0.99610   1.000
    H167    H    0.89220   0.17420   0.94920   1.000
    N20     N    0.88380   0.19874   0.06410   1.000
    C234    C    0.83890   0.19870   0.12270   1.000
    H168    H    0.83890   0.22300   0.16610   1.000
    C235    C    0.79640   0.16260   0.11330   1.000
    H169    H    0.76920   0.16290   0.15220   1.000
    H170    H    0.47140   0.72580   0.20830   1.000
    C236    C    0.06930   0.27423   0.61106   1.000
    H171    H    0.05490   0.24450   0.61400   1.000
    C237    C    0.08150   0.30125   0.69653   1.000
    H172    H    0.07470   0.28970   0.75470   1.000
    C238    C    0.10373   0.34544   0.69610   1.000
    C239    C    0.11285   0.35968   0.60695   1.000
    H173    H    0.12860   0.38890   0.60300   1.000
    C240    C    0.09890   0.33115   0.52396   1.000
    H174    H    0.10500   0.34210   0.46480   1.000
    C241    C    0.11407   0.37652   0.78435   1.000
    C242    C    0.07430   0.37544   0.84405   1.000
    H175    H    0.04230   0.35350   0.83040   1.000
    C243    C    0.08081   0.40569   0.92246   1.000
    H176    H    0.05240   0.40470   0.95920   1.000
    C244    C    0.12980   0.43804   0.94786   1.000
    C245    C    0.17148   0.43768   0.89151   1.000
    H177    H    0.20570   0.45770   0.90850   1.000
    C246    C    0.16281   0.40822   0.81124   1.000
    H178    H    0.19060   0.40960   0.77350   1.000
    C247    C    0.09880   0.46764   0.09226   1.000
    C248    C    0.09377   0.42791   0.14424   1.000
    H179    H    0.11710   0.40210   0.13890   1.000
    C249    C    0.05463   0.42613   0.20357   1.000
    H180    H    0.05080   0.39870   0.23530   1.000
    C250    C    0.02081   0.46419   0.21721   1.000
    C251    C    0.02912   0.50422   0.16801   1.000
    H181    H    0.00880   0.53090   0.17770   1.000
    C252    C    0.06608   0.50561   0.10598   1.000
    H182    H    0.06910   0.53280   0.07260   1.000
    C253    C    0.17420   0.51070   0.03042   1.000
    C254    C    0.16323   0.53963   0.94828   1.000
    H183    H    0.13010   0.53370   0.88910   1.000
    C255    C    0.20140   0.57746   0.95369   1.000
    H184    H    0.19370   0.59680   0.89770   1.000
    C256    C    0.25057   0.58718   0.04006   1.000
    C257    C    0.25852   0.55880   0.12309   1.000
    H185    H    0.29040   0.56530   0.18350   1.000
    C258    C    0.22078   0.52151   0.11844   1.000
    H186    H    0.22680   0.50330   0.17570   1.000
    C259    C    0.29462   0.62600   0.04473   1.000
    C260    C    0.36084   0.61593   0.07770   1.000
    H187    H    0.37540   0.58620   0.09480   1.000
    C261    C    0.40240   0.65160   0.08326   1.000
    H188    H    0.44530   0.64500   0.09970   1.000
    N21     N    0.38330   0.69677   0.06561   1.000
    C262    C    0.32387   0.70279   0.03728   1.000
    H189    H    0.30940   0.73270   0.02200   1.000
    C263    C    0.27876   0.66919   0.02710   1.000
    H190    H    0.23620   0.67730   0.00720   1.000
    C264    C    0.08659   0.29229   0.22726   1.000
    C265    C    0.14127   0.29931   0.18779   1.000
    C266    C    0.20266   0.29697   0.24841   1.000
    H191    H    0.21170   0.29240   0.31790   1.000
    C267    C    0.25163   0.30128   0.20818   1.000
    H192    H    0.29310   0.29990   0.25170   1.000
    C268    C    0.24136   0.30754   0.10626   1.000
    C269    C    0.17998   0.31250   0.04788   1.000
    H193    H    0.17090   0.31910   0.97910   1.000
    C270    C    0.13078   0.30803   0.08731   1.000
    H194    H    0.08940   0.31100   0.04430   1.000
    C271    C    0.29329   0.30960   0.06048   1.000
    C272    C    0.35309   0.29592   0.11085   1.000
    H195    H    0.36290   0.28580   0.17760   1.000
    C273    C    0.39988   0.29668   0.06493   1.000
    H196    H    0.44030   0.28660   0.10150   1.000
    C274    C    0.38880   0.31176   0.96776   1.000
    C275    C    0.32956   0.32699   0.91881   1.000
    H197    H    0.32030   0.33800   0.85280   1.000
    C276    C    0.28233   0.32675   0.96372   1.000
    H198    H    0.24260   0.33830   0.92820   1.000
    C277    C    0.43727   0.31024   0.91473   1.000
    Co6     Co   0.04230   0.24925   0.38678   1.000
    N22     N    0.07701   0.28850   0.52397   1.000
    N23     N    0.13627   0.46975   0.02605   1.000
    O21     O    0.03280   0.29455   0.16431   1.000
    O22     O    0.09994   0.28350   0.32136   1.000
    O23     O    0.42536   0.32992   0.83042   1.000
    O24     O    0.48756   0.28859   0.95705   1.000
    H199    H    0.02820   0.20270   0.22330   1.000
    C278    C    0.29370   0.62660   0.04800   1.000
    C279    C    0.32720   0.63530   0.97810   1.000
    H200    H    0.32020   0.61700   0.92060   1.000
    C280    C    0.37050   0.67110   0.99610   1.000
    H201    H    0.39220   0.67420   0.94920   1.000
    N24     N    0.38380   0.69874   0.06410   1.000
    C281    C    0.33890   0.69870   0.12270   1.000
    H202    H    0.33890   0.72300   0.16610   1.000
    C282    C    0.29640   0.66260   0.11330   1.000
    H203    H    0.26920   0.66290   0.15220   1.000
    H204    H    0.97140   0.22580   0.20830   1.000
    C283    C    0.43070   0.77423   0.88894   1.000
    H205    H    0.44510   0.74450   0.88600   1.000
    C284    C    0.41850   0.80125   0.80347   1.000
    H206    H    0.42530   0.78970   0.74530   1.000
    C285    C    0.39627   0.84544   0.80390   1.000
    C286    C    0.38715   0.85968   0.89305   1.000
    H207    H    0.37140   0.88890   0.89700   1.000
    C287    C    0.40110   0.83115   0.97604   1.000
    H208    H    0.39500   0.84210   0.03520   1.000
    C288    C    0.38593   0.87652   0.71565   1.000
    C289    C    0.42570   0.87544   0.65595   1.000
    H209    H    0.45770   0.85350   0.66960   1.000
    C290    C    0.41919   0.90569   0.57754   1.000
    H210    H    0.44760   0.90470   0.54080   1.000
    C291    C    0.37020   0.93804   0.55214   1.000
    C292    C    0.32852   0.93768   0.60849   1.000
    H211    H    0.29430   0.95770   0.59150   1.000
    C293    C    0.33719   0.90822   0.68876   1.000
    H212    H    0.30940   0.90960   0.72650   1.000
    C294    C    0.40120   0.96764   0.40774   1.000
    C295    C    0.40623   0.92791   0.35576   1.000
    H213    H    0.38290   0.90210   0.36110   1.000
    C296    C    0.44537   0.92613   0.29643   1.000
    H214    H    0.44920   0.89870   0.26470   1.000
    C297    C    0.47919   0.96419   0.28279   1.000
    C298    C    0.47088   0.00422   0.33199   1.000
    H215    H    0.49120   0.03090   0.32230   1.000
    C299    C    0.43392   0.00561   0.39402   1.000
    H216    H    0.43090   0.03280   0.42740   1.000
    C300    C    0.32580   0.01070   0.46958   1.000
    C301    C    0.33677   0.03963   0.55172   1.000
    H217    H    0.36990   0.03370   0.61090   1.000
    C302    C    0.29860   0.07746   0.54631   1.000
    H218    H    0.30630   0.09680   0.60230   1.000
    C303    C    0.24943   0.08718   0.45994   1.000
    C304    C    0.24148   0.05880   0.37691   1.000
    H219    H    0.20960   0.06530   0.31650   1.000
    C305    C    0.27922   0.02151   0.38156   1.000
    H220    H    0.27320   0.00330   0.32430   1.000
    C306    C    0.20538   0.12600   0.45527   1.000
    C307    C    0.13916   0.11593   0.42230   1.000
    H221    H    0.12460   0.08620   0.40520   1.000
    C308    C    0.09760   0.15160   0.41674   1.000
    H222    H    0.05470   0.14500   0.40030   1.000
    N25     N    0.11670   0.19677   0.43439   1.000
    C309    C    0.17613   0.20279   0.46272   1.000
    H223    H    0.19060   0.23270   0.47800   1.000
    C310    C    0.22124   0.16919   0.47290   1.000
    H224    H    0.26380   0.17730   0.49280   1.000
    C311    C    0.41341   0.79229   0.27274   1.000
    C312    C    0.35873   0.79931   0.31221   1.000
    C313    C    0.29734   0.79697   0.25159   1.000
    H225    H    0.28830   0.79240   0.18210   1.000
    C314    C    0.24837   0.80128   0.29182   1.000
    H226    H    0.20690   0.79990   0.24830   1.000
    C315    C    0.25864   0.80754   0.39374   1.000
    C316    C    0.32002   0.81250   0.45212   1.000
    H227    H    0.32910   0.81910   0.52090   1.000
    C317    C    0.36922   0.80803   0.41269   1.000
    H228    H    0.41060   0.81100   0.45570   1.000
    C318    C    0.20671   0.80960   0.43952   1.000
    C319    C    0.14691   0.79592   0.38915   1.000
    H229    H    0.13710   0.78580   0.32240   1.000
    C320    C    0.10012   0.79668   0.43507   1.000
    H230    H    0.05970   0.78660   0.39850   1.000
    C321    C    0.11120   0.81176   0.53224   1.000
    C322    C    0.17044   0.82699   0.58119   1.000
    H231    H    0.17970   0.83800   0.64720   1.000
    C323    C    0.21767   0.82675   0.53628   1.000
    H232    H    0.25740   0.83830   0.57180   1.000
    C324    C    0.06273   0.81024   0.58527   1.000
    Co7     Co   0.45770   0.74925   0.11322   1.000
    N26     N    0.42299   0.78850   0.97603   1.000
    N27     N    0.36373   0.96975   0.47395   1.000
    O25     O    0.46720   0.79455   0.33569   1.000
    O26     O    0.40006   0.78350   0.17864   1.000
    O27     O    0.07464   0.82992   0.66958   1.000
    O28     O    0.01244   0.78859   0.54295   1.000
    H233    H    0.47180   0.70270   0.27670   1.000
    C325    C    0.20630   0.12660   0.45200   1.000
    C326    C    0.17280   0.13530   0.52190   1.000
    H234    H    0.17980   0.11700   0.57940   1.000
    C327    C    0.12950   0.17110   0.50390   1.000
    H235    H    0.10780   0.17420   0.55080   1.000
    N28     N    0.11620   0.19874   0.43590   1.000
    C328    C    0.16110   0.19870   0.37730   1.000
    H236    H    0.16110   0.22300   0.33390   1.000
    C329    C    0.20360   0.16260   0.38670   1.000
    H237    H    0.23080   0.16290   0.34780   1.000
    H238    H    0.52860   0.72580   0.29170   1.000
    C330    C    0.93070   0.27423   0.88894   1.000
    H239    H    0.94510   0.24450   0.88600   1.000
    C331    C    0.91850   0.30125   0.80347   1.000
    H240    H    0.92530   0.28970   0.74530   1.000
    C332    C    0.89627   0.34544   0.80390   1.000
    C333    C    0.88715   0.35968   0.89305   1.000
    H241    H    0.87140   0.38890   0.89700   1.000
    C334    C    0.90110   0.33115   0.97604   1.000
    H242    H    0.89500   0.34210   0.03520   1.000
    C335    C    0.88593   0.37652   0.71565   1.000
    C336    C    0.92570   0.37544   0.65595   1.000
    H243    H    0.95770   0.35350   0.66960   1.000
    C337    C    0.91919   0.40569   0.57754   1.000
    H244    H    0.94760   0.40470   0.54080   1.000
    C338    C    0.87020   0.43804   0.55214   1.000
    C339    C    0.82852   0.43768   0.60849   1.000
    H245    H    0.79430   0.45770   0.59150   1.000
    C340    C    0.83719   0.40822   0.68876   1.000
    H246    H    0.80940   0.40960   0.72650   1.000
    C341    C    0.90120   0.46764   0.40774   1.000
    C342    C    0.90623   0.42791   0.35576   1.000
    H247    H    0.88290   0.40210   0.36110   1.000
    C343    C    0.94537   0.42613   0.29643   1.000
    H248    H    0.94920   0.39870   0.26470   1.000
    C344    C    0.97919   0.46419   0.28279   1.000
    C345    C    0.97088   0.50422   0.33199   1.000
    H249    H    0.99120   0.53090   0.32230   1.000
    C346    C    0.93392   0.50561   0.39402   1.000
    H250    H    0.93090   0.53280   0.42740   1.000
    C347    C    0.82580   0.51070   0.46958   1.000
    C348    C    0.83677   0.53963   0.55172   1.000
    H251    H    0.86990   0.53370   0.61090   1.000
    C349    C    0.79860   0.57746   0.54631   1.000
    H252    H    0.80630   0.59680   0.60230   1.000
    C350    C    0.74943   0.58718   0.45994   1.000
    C351    C    0.74148   0.55880   0.37691   1.000
    H253    H    0.70960   0.56530   0.31650   1.000
    C352    C    0.77922   0.52151   0.38156   1.000
    H254    H    0.77320   0.50330   0.32430   1.000
    C353    C    0.70538   0.62600   0.45527   1.000
    C354    C    0.63916   0.61593   0.42230   1.000
    H255    H    0.62460   0.58620   0.40520   1.000
    C355    C    0.59760   0.65160   0.41674   1.000
    H256    H    0.55470   0.64500   0.40030   1.000
    N29     N    0.61670   0.69677   0.43439   1.000
    C356    C    0.67613   0.70279   0.46272   1.000
    H257    H    0.69060   0.73270   0.47800   1.000
    C357    C    0.72124   0.66919   0.47290   1.000
    H258    H    0.76380   0.67730   0.49280   1.000
    C358    C    0.91341   0.29229   0.27274   1.000
    C359    C    0.85873   0.29931   0.31221   1.000
    C360    C    0.79734   0.29697   0.25159   1.000
    H259    H    0.78830   0.29240   0.18210   1.000
    C361    C    0.74837   0.30128   0.29182   1.000
    H260    H    0.70690   0.29990   0.24830   1.000
    C362    C    0.75864   0.30754   0.39374   1.000
    C363    C    0.82002   0.31250   0.45212   1.000
    H261    H    0.82910   0.31910   0.52090   1.000
    C364    C    0.86922   0.30803   0.41269   1.000
    H262    H    0.91060   0.31100   0.45570   1.000
    C365    C    0.70671   0.30960   0.43952   1.000
    C366    C    0.64691   0.29592   0.38915   1.000
    H263    H    0.63710   0.28580   0.32240   1.000
    C367    C    0.60012   0.29668   0.43507   1.000
    H264    H    0.55970   0.28660   0.39850   1.000
    C368    C    0.61120   0.31176   0.53224   1.000
    C369    C    0.67044   0.32699   0.58119   1.000
    H265    H    0.67970   0.33800   0.64720   1.000
    C370    C    0.71767   0.32675   0.53628   1.000
    H266    H    0.75740   0.33830   0.57180   1.000
    C371    C    0.56273   0.31024   0.58527   1.000
    Co8     Co   0.95770   0.24925   0.11322   1.000
    N30     N    0.92299   0.28850   0.97603   1.000
    N31     N    0.86373   0.46975   0.47395   1.000
    O29     O    0.96720   0.29455   0.33569   1.000
    O30     O    0.90006   0.28350   0.17864   1.000
    O31     O    0.57464   0.32992   0.66958   1.000
    O32     O    0.51244   0.28859   0.54295   1.000
    H267    H    0.97180   0.20270   0.27670   1.000
    C372    C    0.70630   0.62660   0.45200   1.000
    C373    C    0.67280   0.63530   0.52190   1.000
    H268    H    0.67980   0.61700   0.57940   1.000
    C374    C    0.62950   0.67110   0.50390   1.000
    H269    H    0.60780   0.67420   0.55080   1.000
    N32     N    0.61620   0.69874   0.43590   1.000
    C375    C    0.66110   0.69870   0.37730   1.000
    H270    H    0.66110   0.72300   0.33390   1.000
    C376    C    0.70360   0.66260   0.38670   1.000
    H271    H    0.73080   0.66290   0.34780   1.000
    H272    H    0.02860   0.22580   0.29170   1.000
    O33     O    0.50000   0.29020   0.75000   1.000
    O34     O    0.00000   0.79020   0.75000   1.000
    O35     O    0.50000   0.70980   0.25000   1.000
    O36     O    0.00000   0.20980   0.25000   1.000
