# CIF file generated by openbabel 2.4.1, see http://openbabel.sf.net
data_I
_chemical_name_common 'ZESFUY_clean'
_cell_length_a 7.6775
_cell_length_b 11.3959
_cell_length_c 11.3959
_cell_angle_alpha 90
_cell_angle_beta 90
_cell_angle_gamma 90
_space_group_name_H-M_alt 'P 1'
_space_group_name_Hall 'P 1'
loop_
    _symmetry_equiv_pos_as_xyz
    x,y,z
loop_
    _atom_site_label
    _atom_site_type_symbol
    _atom_site_fract_x
    _atom_site_fract_y
    _atom_site_fract_z
    _atom_site_occupancy
    Zn1     Zn   0.00000   0.00000   0.00000   1.000
    Si1     Si   0.50000   0.00000   0.00000   1.000
    H1      H    0.74200   0.00000   0.79500   1.000
    H2      H    0.73700   0.00000   0.58500   1.000
    H3      H    0.74200   0.00000   0.20500   1.000
    H4      H    0.73700   0.00000   0.41500   1.000
    H5      H    0.74200   0.20500   0.00000   1.000
    H6      H    0.73700   0.41500   0.00000   1.000
    H7      H    0.74200   0.79500   0.00000   1.000
    H8      H    0.73700   0.58500   0.00000   1.000
    H9      H    0.25800   0.00000   0.79500   1.000
    H10     H    0.26300   0.00000   0.58500   1.000
    H11     H    0.25800   0.00000   0.20500   1.000
    H12     H    0.26300   0.00000   0.41500   1.000
    H13     H    0.25800   0.79500   0.00000   1.000
    H14     H    0.26300   0.58500   0.00000   1.000
    H15     H    0.25800   0.20500   0.00000   1.000
    H16     H    0.26300   0.41500   0.00000   1.000
    C1      C    0.00000   0.00000   0.56680   1.000
    C2      C    0.00000   0.00000   0.43320   1.000
    C3      C    0.00000   0.43320   0.00000   1.000
    C4      C    0.00000   0.56680   0.00000   1.000
    C5      C    0.85880   0.00000   0.75010   1.000
    C6      C    0.85550   0.00000   0.62850   1.000
    C7      C    0.85880   0.00000   0.24990   1.000
    C8      C    0.85550   0.00000   0.37150   1.000
    C9      C    0.85880   0.24990   0.00000   1.000
    C10     C    0.85550   0.37150   0.00000   1.000
    C11     C    0.85880   0.75010   0.00000   1.000
    C12     C    0.85550   0.62850   0.00000   1.000
    C13     C    0.14120   0.00000   0.75010   1.000
    C14     C    0.14450   0.00000   0.62850   1.000
    C15     C    0.14120   0.00000   0.24990   1.000
    C16     C    0.14450   0.00000   0.37150   1.000
    C17     C    0.14120   0.75010   0.00000   1.000
    C18     C    0.14450   0.62850   0.00000   1.000
    C19     C    0.14120   0.24990   0.00000   1.000
    C20     C    0.14450   0.37150   0.00000   1.000
    N1      N    0.00000   0.00000   0.81070   1.000
    N2      N    0.00000   0.00000   0.18930   1.000
    N3      N    0.00000   0.18930   0.00000   1.000
    N4      N    0.00000   0.81070   0.00000   1.000
    F1      F    0.72880   0.00000   0.00000   1.000
    F2      F    0.27120   0.00000   0.00000   1.000
    F3      F    0.50000   0.89700   0.89700   1.000
    F4      F    0.50000   0.10300   0.10300   1.000
    F5      F    0.50000   0.10300   0.89700   1.000
    F6      F    0.50000   0.89700   0.10300   1.000
