# CIF file generated by openbabel 2.4.1, see http://openbabel.sf.net
data_I
_chemical_name_common 'image0'
_cell_length_a 9.0642
_cell_length_b 9.4507
_cell_length_c 19.858
_cell_angle_alpha 89.346
_cell_angle_beta 79.495
_cell_angle_gamma 86.028
_space_group_name_H-M_alt 'P 1'
_space_group_name_Hall 'P 1'
loop_
    _symmetry_equiv_pos_as_xyz
    x,y,z
loop_
    _atom_site_label
    _atom_site_type_symbol
    _atom_site_fract_x
    _atom_site_fract_y
    _atom_site_fract_z
    _atom_site_occupancy
    Al1     Al   0.73219   0.60809   0.50734   1.000
    Al2     Al   0.84986   0.17980   0.54609   1.000
    Al3     Al   0.15234   0.34285   0.29298   1.000
    Al4     Al   0.29532   0.56018   0.09902   1.000
    Al5     Al   0.72431   0.37902   0.11011   1.000
    Al6     Al   0.15960   0.13616   0.02662   1.000
    P1      P    0.55080   0.34872   0.56690   1.000
    P2      P    0.13101   0.14563   0.42498   1.000
    P3      P    0.02963   0.55824   0.40146   1.000
    P4      P    0.04195   0.33533   0.15391   1.000
    P5      P    0.44772   0.44925   0.21966   1.000
    P6      P    0.61995   0.64291   0.03069   1.000
    P7      P    0.84301   0.18807   0.97965   1.000
    O1      O    0.54360   0.30600   0.64274   1.000
    H1      H    0.51350   0.37500   0.66730   1.000
    O2      O    0.40580   0.31550   0.54395   1.000
    O3      O    0.58800   0.50360   0.55588   1.000
    O4      O    0.68120   0.25130   0.52618   1.000
    O5      O    0.86090   0.55680   0.42867   1.000
    O6      O    0.97130   0.16180   0.46694   1.000
    O7      O    0.17760   0.98640   0.41586   1.000
    O8      O    0.24440   0.21500   0.46042   1.000
    O9      O    0.12560   0.20530   0.35314   1.000
    O10     O    0.12580   0.46770   0.44240   1.000
    O11     O    0.07240   0.71510   0.39912   1.000
    O12     O    0.05970   0.50390   0.32656   1.000
    O13     O    0.06150   0.29330   0.22725   1.000
    O14     O    0.10040   0.20500   0.10864   1.000
    O15     O    0.11990   0.46610   0.12930   1.000
    O16     O    0.34660   0.34860   0.26695   1.000
    O17     O    0.53860   0.53210   0.26008   1.000
    O18     O    0.34470   0.54480   0.18262   1.000
    O19     O    0.55670   0.35190   0.16731   1.000
    O20     O    0.46070   0.66840   0.06912   1.000
    O21     O    0.62680   0.57960   0.95980   1.000
    O22     O    0.68980   0.78780   0.02310   1.000
    O23     O    0.71630   0.54470   0.07174   1.000
    O24     O    0.87130   0.36160   0.15590   1.000
    O25     O    0.75610   0.24290   0.04891   1.000
    O26     O    0.78700   0.04370   0.96534   1.000
    O27     O    0.82600   0.29210   0.92223   1.000
    O28     O    0.01150   0.16350   0.98168   1.000
    Al7     Al   0.26781   0.39191   0.49266   1.000
    Al8     Al   0.15014   0.82020   0.45391   1.000
    Al9     Al   0.84766   0.65715   0.70702   1.000
    Al10    Al   0.70468   0.43982   0.90098   1.000
    Al11    Al   0.27569   0.62098   0.88989   1.000
    Al12    Al   0.84040   0.86384   0.97338   1.000
    P8      P    0.44920   0.65128   0.43310   1.000
    P9      P    0.86899   0.85437   0.57502   1.000
    P10     P    0.97037   0.44176   0.59854   1.000
    P11     P    0.95805   0.66467   0.84609   1.000
    P12     P    0.55228   0.55075   0.78034   1.000
    P13     P    0.38005   0.35709   0.96931   1.000
    P14     P    0.15699   0.81193   0.02035   1.000
    O29     O    0.45640   0.69400   0.35726   1.000
    H2      H    0.48650   0.62500   0.33270   1.000
    O30     O    0.59420   0.68450   0.45605   1.000
    O31     O    0.41200   0.49640   0.44412   1.000
    O32     O    0.31880   0.74870   0.47382   1.000
    O33     O    0.13910   0.44320   0.57133   1.000
    O34     O    0.02870   0.83820   0.53306   1.000
    O35     O    0.82240   0.01360   0.58414   1.000
    O36     O    0.75560   0.78500   0.53958   1.000
    O37     O    0.87440   0.79470   0.64686   1.000
    O38     O    0.87420   0.53230   0.55760   1.000
    O39     O    0.92760   0.28490   0.60088   1.000
    O40     O    0.94030   0.49610   0.67344   1.000
    O41     O    0.93850   0.70670   0.77275   1.000
    O42     O    0.89960   0.79500   0.89136   1.000
    O43     O    0.88010   0.53390   0.87070   1.000
    O44     O    0.65340   0.65140   0.73305   1.000
    O45     O    0.46140   0.46790   0.73992   1.000
    O46     O    0.65530   0.45520   0.81738   1.000
    O47     O    0.44330   0.64810   0.83269   1.000
    O48     O    0.53930   0.33160   0.93088   1.000
    O49     O    0.37320   0.42040   0.04020   1.000
    O50     O    0.31020   0.21220   0.97690   1.000
    O51     O    0.28370   0.45530   0.92826   1.000
    O52     O    0.12870   0.63840   0.84410   1.000
    O53     O    0.24390   0.75710   0.95109   1.000
    O54     O    0.21300   0.95630   0.03466   1.000
    O55     O    0.17400   0.70790   0.07777   1.000
    O56     O    0.98850   0.83650   0.01832   1.000
