# CIF file generated by openbabel 2.4.1, see http://openbabel.sf.net
data_I
_chemical_name_common 'FUDQIF_clean'
_cell_length_a 7.1409
_cell_length_b 7.1409
_cell_length_c 7.6068
_cell_angle_alpha 90
_cell_angle_beta 90
_cell_angle_gamma 90
_space_group_name_H-M_alt 'P 1'
_space_group_name_Hall 'P 1'
loop_
    _symmetry_equiv_pos_as_xyz
    x,y,z
loop_
    _atom_site_label
    _atom_site_type_symbol
    _atom_site_fract_x
    _atom_site_fract_y
    _atom_site_fract_z
    _atom_site_occupancy
    Zn1     Zn   0.50000   0.50000   0.50000   1.000
    Si1     Si   0.50000   0.50000   0.00000   1.000
    H1      H    0.50000   0.83860   0.75150   1.000
    H2      H    0.50000   0.16140   0.75150   1.000
    H3      H    0.16140   0.50000   0.75150   1.000
    H4      H    0.83860   0.50000   0.75150   1.000
    H5      H    0.50000   0.83860   0.24850   1.000
    H6      H    0.50000   0.16140   0.24850   1.000
    H7      H    0.83860   0.50000   0.24850   1.000
    H8      H    0.16140   0.50000   0.24850   1.000
    C1      C    0.50000   0.90140   0.64450   1.000
    C2      C    0.50000   0.09860   0.64450   1.000
    C3      C    0.09860   0.50000   0.64450   1.000
    C4      C    0.90140   0.50000   0.64450   1.000
    C5      C    0.50000   0.90140   0.35550   1.000
    C6      C    0.50000   0.09860   0.35550   1.000
    C7      C    0.90140   0.50000   0.35550   1.000
    C8      C    0.09860   0.50000   0.35550   1.000
    N1      N    0.50000   0.80420   0.50000   1.000
    N2      N    0.50000   0.19580   0.50000   1.000
    N3      N    0.19580   0.50000   0.50000   1.000
    N4      N    0.80420   0.50000   0.50000   1.000
    F1      F    0.50000   0.50000   0.77040   1.000
    F2      F    0.50000   0.50000   0.22960   1.000
    F3      F    0.66410   0.66410   0.00000   1.000
    F4      F    0.33590   0.33590   0.00000   1.000
    F5      F    0.33590   0.66410   0.00000   1.000
    F6      F    0.66410   0.33590   0.00000   1.000
