# CIF file generated by openbabel 2.4.1, see http://openbabel.sf.net
data_I
_chemical_name_common 'GAYFOD_clean'
_cell_length_a 7.3007
_cell_length_b 8.8312
_cell_length_c 8.8312
_cell_angle_alpha 90
_cell_angle_beta 90
_cell_angle_gamma 90
_space_group_name_H-M_alt 'P 1'
_space_group_name_Hall 'P 1'
loop_
    _symmetry_equiv_pos_as_xyz
    x,y,z
loop_
    _atom_site_label
    _atom_site_type_symbol
    _atom_site_fract_x
    _atom_site_fract_y
    _atom_site_fract_z
    _atom_site_occupancy
    Zn1     Zn   0.75000   0.00000   0.00000   1.000
    Zn2     Zn   0.25000   0.00000   0.00000   1.000
    H1      H    0.72554   0.38200   0.00000   1.000
    H2      H    0.72554   0.61800   0.00000   1.000
    H3      H    0.22554   0.00000   0.38200   1.000
    H4      H    0.22554   0.00000   0.61800   1.000
    H5      H    0.27446   0.61800   0.00000   1.000
    H6      H    0.27446   0.38200   0.00000   1.000
    H7      H    0.77446   0.00000   0.38200   1.000
    H8      H    0.77446   0.00000   0.61800   1.000
    C1      C    0.00000   0.43928   0.00000   1.000
    C2      C    0.00000   0.56072   0.00000   1.000
    C3      C    0.50000   0.00000   0.43928   1.000
    C4      C    0.50000   0.00000   0.56072   1.000
    C5      C    0.84929   0.34876   0.00000   1.000
    C6      C    0.84929   0.65124   0.00000   1.000
    C7      C    0.34929   0.00000   0.34876   1.000
    C8      C    0.34929   0.00000   0.65124   1.000
    C9      C    0.15071   0.65124   0.00000   1.000
    C10     C    0.15071   0.34876   0.00000   1.000
    C11     C    0.65071   0.00000   0.34876   1.000
    C12     C    0.65071   0.00000   0.65124   1.000
    N1      N    0.90686   0.20230   0.00000   1.000
    N2      N    0.90686   0.79770   0.00000   1.000
    N3      N    0.40686   0.00000   0.20230   1.000
    N4      N    0.40686   0.00000   0.79770   1.000
    N5      N    0.09314   0.79770   0.00000   1.000
    N6      N    0.09314   0.20230   0.00000   1.000
    N7      N    0.59314   0.00000   0.20230   1.000
    N8      N    0.59314   0.00000   0.79770   1.000
