# CIF file generated by openbabel 2.4.1, see http://openbabel.sf.net
data_I
_chemical_name_common 'image0'
_cell_length_a 16.7913
_cell_length_b 16.7913
_cell_length_c 20.6558
_cell_angle_alpha 90
_cell_angle_beta 90
_cell_angle_gamma 120
_space_group_name_H-M_alt 'P 1'
_space_group_name_Hall 'P 1'
loop_
    _symmetry_equiv_pos_as_xyz
    x,y,z
loop_
    _atom_site_label
    _atom_site_type_symbol
    _atom_site_fract_x
    _atom_site_fract_y
    _atom_site_fract_z
    _atom_site_occupancy
    O1      O    0.52369   0.17870   0.18089   1.000
    C1      C    0.56470   0.09460   0.10090   1.000
    C2      C    0.48830   0.06760   0.06610   1.000
    C3      C    0.46400   0.00200   0.01300   1.000
    C4      C    0.61510   0.01470   0.02870   1.000
    C5      C    0.62640   0.06560   0.08270   1.000
    H1      H    0.65520   0.99280   0.01470   1.000
    H2      H    0.67980   0.08500   0.10930   1.000
    H3      H    0.44520   0.08600   0.07980   1.000
    O2      O    0.82130   0.34499   0.18089   1.000
    C6      C    0.90540   0.47010   0.10090   1.000
    C7      C    0.93240   0.42070   0.06610   1.000
    C8      C    0.99800   0.46200   0.01300   1.000
    C9      C    0.98530   0.60040   0.02870   1.000
    C10     C    0.93440   0.56080   0.08270   1.000
    H4      H    0.00720   0.66240   0.01470   1.000
    H5      H    0.91500   0.59480   0.10930   1.000
    H6      H    0.91400   0.35920   0.07980   1.000
    O3      O    0.65501   0.47631   0.18089   1.000
    C11     C    0.52990   0.43530   0.10090   1.000
    C12     C    0.57930   0.51170   0.06610   1.000
    C13     C    0.53800   0.53600   0.01300   1.000
    C14     C    0.39960   0.38490   0.02870   1.000
    C15     C    0.43920   0.37360   0.08270   1.000
    H7      H    0.33760   0.34480   0.01470   1.000
    H8      H    0.40520   0.32020   0.10930   1.000
    H9      H    0.64080   0.55480   0.07980   1.000
    O4      O    0.47631   0.82130   0.68089   1.000
    C16     C    0.43530   0.90540   0.60090   1.000
    C17     C    0.51170   0.93240   0.56610   1.000
    C18     C    0.53600   0.99800   0.51300   1.000
    C19     C    0.38490   0.98530   0.52870   1.000
    C20     C    0.37360   0.93440   0.58270   1.000
    H10     H    0.34480   0.00720   0.51470   1.000
    H11     H    0.32020   0.91500   0.60930   1.000
    H12     H    0.55480   0.91400   0.57980   1.000
    O5      O    0.17870   0.65501   0.68089   1.000
    C21     C    0.09460   0.52990   0.60090   1.000
    C22     C    0.06760   0.57930   0.56610   1.000
    C23     C    0.00200   0.53800   0.51300   1.000
    C24     C    0.01470   0.39960   0.52870   1.000
    C25     C    0.06560   0.43920   0.58270   1.000
    H13     H    0.99280   0.33760   0.51470   1.000
    H14     H    0.08500   0.40520   0.60930   1.000
    H15     H    0.08600   0.64080   0.57980   1.000
    O6      O    0.34499   0.52369   0.68089   1.000
    C26     C    0.47010   0.56470   0.60090   1.000
    C27     C    0.42070   0.48830   0.56610   1.000
    C28     C    0.46200   0.46400   0.51300   1.000
    C29     C    0.60040   0.61510   0.52870   1.000
    C30     C    0.56080   0.62640   0.58270   1.000
    H16     H    0.66240   0.65520   0.51470   1.000
    H17     H    0.59480   0.67980   0.60930   1.000
    H18     H    0.35920   0.44520   0.57980   1.000
    O7      O    0.17870   0.52369   0.81911   1.000
    C31     C    0.09460   0.56470   0.89910   1.000
    C32     C    0.06760   0.48830   0.93390   1.000
    C33     C    0.00200   0.46400   0.98700   1.000
    C34     C    0.01470   0.61510   0.97130   1.000
    C35     C    0.06560   0.62640   0.91730   1.000
    H19     H    0.99280   0.65520   0.98530   1.000
    H20     H    0.08500   0.67980   0.89070   1.000
    H21     H    0.08600   0.44520   0.92020   1.000
    O8      O    0.34499   0.82130   0.81911   1.000
    C36     C    0.47010   0.90540   0.89910   1.000
    C37     C    0.42070   0.93240   0.93390   1.000
    C38     C    0.46200   0.99800   0.98700   1.000
    C39     C    0.60040   0.98530   0.97130   1.000
    C40     C    0.56080   0.93440   0.91730   1.000
    H22     H    0.66240   0.00720   0.98530   1.000
    H23     H    0.59480   0.91500   0.89070   1.000
    H24     H    0.35920   0.91400   0.92020   1.000
    O9      O    0.47631   0.65501   0.81911   1.000
    C41     C    0.43530   0.52990   0.89910   1.000
    C42     C    0.51170   0.57930   0.93390   1.000
    C43     C    0.53600   0.53800   0.98700   1.000
    C44     C    0.38490   0.39960   0.97130   1.000
    C45     C    0.37360   0.43920   0.91730   1.000
    H25     H    0.34480   0.33760   0.98530   1.000
    H26     H    0.32020   0.40520   0.89070   1.000
    H27     H    0.55480   0.64080   0.92020   1.000
    O10     O    0.82130   0.47631   0.31911   1.000
    C46     C    0.90540   0.43530   0.39910   1.000
    C47     C    0.93240   0.51170   0.43390   1.000
    C48     C    0.99800   0.53600   0.48700   1.000
    C49     C    0.98530   0.38490   0.47130   1.000
    C50     C    0.93440   0.37360   0.41730   1.000
    H28     H    0.00720   0.34480   0.48530   1.000
    H29     H    0.91500   0.32020   0.39070   1.000
    H30     H    0.91400   0.55480   0.42020   1.000
    O11     O    0.65501   0.17870   0.31911   1.000
    C51     C    0.52990   0.09460   0.39910   1.000
    C52     C    0.57930   0.06760   0.43390   1.000
    C53     C    0.53800   0.00200   0.48700   1.000
    C54     C    0.39960   0.01470   0.47130   1.000
    C55     C    0.43920   0.06560   0.41730   1.000
    H31     H    0.33760   0.99280   0.48530   1.000
    H32     H    0.40520   0.08500   0.39070   1.000
    H33     H    0.64080   0.08600   0.42020   1.000
    O12     O    0.52369   0.34499   0.31911   1.000
    C56     C    0.56470   0.47010   0.39910   1.000
    C57     C    0.48830   0.42070   0.43390   1.000
    C58     C    0.46400   0.46200   0.48700   1.000
    C59     C    0.61510   0.60040   0.47130   1.000
    C60     C    0.62640   0.56080   0.41730   1.000
    H34     H    0.65520   0.66240   0.48530   1.000
    H35     H    0.67980   0.59480   0.39070   1.000
    H36     H    0.44520   0.35920   0.42020   1.000
    O13     O    0.47631   0.82130   0.81911   1.000
    C61     C    0.43530   0.90540   0.89910   1.000
    C62     C    0.51170   0.93240   0.93390   1.000
    C63     C    0.53600   0.99800   0.98700   1.000
    C64     C    0.38490   0.98530   0.97130   1.000
    C65     C    0.37360   0.93440   0.91730   1.000
    H37     H    0.34480   0.00720   0.98530   1.000
    H38     H    0.32020   0.91500   0.89070   1.000
    H39     H    0.55480   0.91400   0.92020   1.000
    O14     O    0.17870   0.65501   0.81911   1.000
    C66     C    0.09460   0.52990   0.89910   1.000
    C67     C    0.06760   0.57930   0.93390   1.000
    C68     C    0.00200   0.53800   0.98700   1.000
    C69     C    0.01470   0.39960   0.97130   1.000
    C70     C    0.06560   0.43920   0.91730   1.000
    H40     H    0.99280   0.33760   0.98530   1.000
    H41     H    0.08500   0.40520   0.89070   1.000
    H42     H    0.08600   0.64080   0.92020   1.000
    O15     O    0.34499   0.52369   0.81911   1.000
    C71     C    0.47010   0.56470   0.89910   1.000
    C72     C    0.42070   0.48830   0.93390   1.000
    C73     C    0.46200   0.46400   0.98700   1.000
    C74     C    0.60040   0.61510   0.97130   1.000
    C75     C    0.56080   0.62640   0.91730   1.000
    H43     H    0.66240   0.65520   0.98530   1.000
    H44     H    0.59480   0.67980   0.89070   1.000
    H45     H    0.35920   0.44520   0.92020   1.000
    O16     O    0.52369   0.17870   0.31911   1.000
    C76     C    0.56470   0.09460   0.39910   1.000
    C77     C    0.48830   0.06760   0.43390   1.000
    C78     C    0.46400   0.00200   0.48700   1.000
    C79     C    0.61510   0.01470   0.47130   1.000
    C80     C    0.62640   0.06560   0.41730   1.000
    H46     H    0.65520   0.99280   0.48530   1.000
    H47     H    0.67980   0.08500   0.39070   1.000
    H48     H    0.44520   0.08600   0.42020   1.000
    O17     O    0.82130   0.34499   0.31911   1.000
    C81     C    0.90540   0.47010   0.39910   1.000
    C82     C    0.93240   0.42070   0.43390   1.000
    C83     C    0.99800   0.46200   0.48700   1.000
    C84     C    0.98530   0.60040   0.47130   1.000
    C85     C    0.93440   0.56080   0.41730   1.000
    H49     H    0.00720   0.66240   0.48530   1.000
    H50     H    0.91500   0.59480   0.39070   1.000
    H51     H    0.91400   0.35920   0.42020   1.000
    O18     O    0.65501   0.47631   0.31911   1.000
    C86     C    0.52990   0.43530   0.39910   1.000
    C87     C    0.57930   0.51170   0.43390   1.000
    C88     C    0.53800   0.53600   0.48700   1.000
    C89     C    0.39960   0.38490   0.47130   1.000
    C90     C    0.43920   0.37360   0.41730   1.000
    H52     H    0.33760   0.34480   0.48530   1.000
    H53     H    0.40520   0.32020   0.39070   1.000
    H54     H    0.64080   0.55480   0.42020   1.000
    O19     O    0.82130   0.47631   0.18089   1.000
    C91     C    0.90540   0.43530   0.10090   1.000
    C92     C    0.93240   0.51170   0.06610   1.000
    C93     C    0.99800   0.53600   0.01300   1.000
    C94     C    0.98530   0.38490   0.02870   1.000
    C95     C    0.93440   0.37360   0.08270   1.000
    H55     H    0.00720   0.34480   0.01470   1.000
    H56     H    0.91500   0.32020   0.10930   1.000
    H57     H    0.91400   0.55480   0.07980   1.000
    O20     O    0.65501   0.17870   0.18089   1.000
    C96     C    0.52990   0.09460   0.10090   1.000
    C97     C    0.57930   0.06760   0.06610   1.000
    C98     C    0.53800   0.00200   0.01300   1.000
    C99     C    0.39960   0.01470   0.02870   1.000
    C100    C    0.43920   0.06560   0.08270   1.000
    H58     H    0.33760   0.99280   0.01470   1.000
    H59     H    0.40520   0.08500   0.10930   1.000
    H60     H    0.64080   0.08600   0.07980   1.000
    O21     O    0.52369   0.34499   0.18089   1.000
    C101    C    0.56470   0.47010   0.10090   1.000
    C102    C    0.48830   0.42070   0.06610   1.000
    C103    C    0.46400   0.46200   0.01300   1.000
    C104    C    0.61510   0.60040   0.02870   1.000
    C105    C    0.62640   0.56080   0.08270   1.000
    H61     H    0.65520   0.66240   0.01470   1.000
    H62     H    0.67980   0.59480   0.10930   1.000
    H63     H    0.44520   0.35920   0.07980   1.000
    O22     O    0.17870   0.52369   0.68089   1.000
    C106    C    0.09460   0.56470   0.60090   1.000
    C107    C    0.06760   0.48830   0.56610   1.000
    C108    C    0.00200   0.46400   0.51300   1.000
    C109    C    0.01470   0.61510   0.52870   1.000
    C110    C    0.06560   0.62640   0.58270   1.000
    H64     H    0.99280   0.65520   0.51470   1.000
    H65     H    0.08500   0.67980   0.60930   1.000
    H66     H    0.08600   0.44520   0.57980   1.000
    O23     O    0.34499   0.82130   0.68089   1.000
    C111    C    0.47010   0.90540   0.60090   1.000
    C112    C    0.42070   0.93240   0.56610   1.000
    C113    C    0.46200   0.99800   0.51300   1.000
    C114    C    0.60040   0.98530   0.52870   1.000
    C115    C    0.56080   0.93440   0.58270   1.000
    H67     H    0.66240   0.00720   0.51470   1.000
    H68     H    0.59480   0.91500   0.60930   1.000
    H69     H    0.35920   0.91400   0.57980   1.000
    O24     O    0.47631   0.65501   0.68089   1.000
    C116    C    0.43530   0.52990   0.60090   1.000
    C117    C    0.51170   0.57930   0.56610   1.000
    C118    C    0.53600   0.53800   0.51300   1.000
    C119    C    0.38490   0.39960   0.52870   1.000
    C120    C    0.37360   0.43920   0.58270   1.000
    H70     H    0.34480   0.33760   0.51470   1.000
    H71     H    0.32020   0.40520   0.60930   1.000
    H72     H    0.55480   0.64080   0.57980   1.000
    Mg1     Mg   0.53311   0.26655   0.25000   1.000
    N1      N    0.38090   0.19045   0.25000   1.000
    C121    C    0.19310   0.09655   0.25000   1.000
    C122    C    0.08870   0.04435   0.25000   1.000
    Mg2     Mg   0.73345   0.26655   0.25000   1.000
    N2      N    0.80955   0.19045   0.25000   1.000
    C123    C    0.90345   0.09655   0.25000   1.000
    C124    C    0.95565   0.04435   0.25000   1.000
    Mg3     Mg   0.73344   0.46689   0.25000   1.000
    N3      N    0.80955   0.61910   0.25000   1.000
    C125    C    0.90345   0.80690   0.25000   1.000
    C126    C    0.95565   0.91130   0.25000   1.000
    Mg4     Mg   0.46689   0.73345   0.75000   1.000
    N4      N    0.61910   0.80955   0.75000   1.000
    C127    C    0.80690   0.90345   0.75000   1.000
    C128    C    0.91130   0.95565   0.75000   1.000
    Mg5     Mg   0.26655   0.73344   0.75000   1.000
    N5      N    0.19045   0.80955   0.75000   1.000
    C129    C    0.09655   0.90345   0.75000   1.000
    C130    C    0.04435   0.95565   0.75000   1.000
    Mg6     Mg   0.26656   0.53311   0.75000   1.000
    N6      N    0.19045   0.38090   0.75000   1.000
    C131    C    0.09655   0.19310   0.75000   1.000
    C132    C    0.04435   0.08870   0.75000   1.000
    O25     O    0.66667   0.33333   0.25000   1.000
    O26     O    0.33333   0.66667   0.75000   1.000
    N7      N    0.04650   0.95350   0.25000   1.000
    N8      N    0.04650   0.09300   0.25000   1.000
    N9      N    0.90700   0.95350   0.25000   1.000
    N10     N    0.95350   0.04650   0.75000   1.000
    N11     N    0.95350   0.90700   0.75000   1.000
    N12     N    0.09300   0.04650   0.75000   1.000
    C133    C    0.33240   0.23310   0.25000   1.000
    H73     H    0.36500   0.29840   0.25000   1.000
    C134    C    0.23980   0.18960   0.25000   1.000
    H74     H    0.20820   0.22330   0.25000   1.000
    C135    C    0.76690   0.09930   0.25000   1.000
    H75     H    0.70160   0.06660   0.25000   1.000
    C136    C    0.81040   0.05020   0.25000   1.000
    H76     H    0.77670   0.98490   0.25000   1.000
    C137    C    0.90070   0.66760   0.25000   1.000
    H77     H    0.93340   0.63500   0.25000   1.000
    C138    C    0.94980   0.76020   0.25000   1.000
    H78     H    0.01510   0.79180   0.25000   1.000
    C139    C    0.66760   0.76690   0.75000   1.000
    H79     H    0.63500   0.70160   0.75000   1.000
    C140    C    0.76020   0.81040   0.75000   1.000
    H80     H    0.79180   0.77670   0.75000   1.000
    C141    C    0.23310   0.90070   0.75000   1.000
    H81     H    0.29840   0.93340   0.75000   1.000
    C142    C    0.18960   0.94980   0.75000   1.000
    H82     H    0.22330   0.01510   0.75000   1.000
    C143    C    0.09930   0.33240   0.75000   1.000
    H83     H    0.06660   0.36500   0.75000   1.000
    C144    C    0.05020   0.23980   0.75000   1.000
    H84     H    0.98490   0.20820   0.75000   1.000
    C145    C    0.23310   0.33240   0.75000   1.000
    H85     H    0.29840   0.36500   0.75000   1.000
    C146    C    0.18960   0.23980   0.75000   1.000
    H86     H    0.22330   0.20820   0.75000   1.000
    C147    C    0.09930   0.76690   0.75000   1.000
    H87     H    0.06660   0.70160   0.75000   1.000
    C148    C    0.05020   0.81040   0.75000   1.000
    H88     H    0.98490   0.77670   0.75000   1.000
    C149    C    0.66760   0.90070   0.75000   1.000
    H89     H    0.63500   0.93340   0.75000   1.000
    C150    C    0.76020   0.94980   0.75000   1.000
    H90     H    0.79180   0.01510   0.75000   1.000
    C151    C    0.76690   0.66760   0.25000   1.000
    H91     H    0.70160   0.63500   0.25000   1.000
    C152    C    0.81040   0.76020   0.25000   1.000
    H92     H    0.77670   0.79180   0.25000   1.000
    C153    C    0.90070   0.23310   0.25000   1.000
    H93     H    0.93340   0.29840   0.25000   1.000
    C154    C    0.94980   0.18960   0.25000   1.000
    H94     H    0.01510   0.22330   0.25000   1.000
    C155    C    0.33240   0.09930   0.25000   1.000
    H95     H    0.36500   0.06660   0.25000   1.000
    C156    C    0.23980   0.05020   0.25000   1.000
    H96     H    0.20820   0.98490   0.25000   1.000
    C157    C    0.57675   0.15350   0.15840   1.000
    C158    C    0.84650   0.42325   0.15840   1.000
    C159    C    0.57675   0.42325   0.15840   1.000
    C160    C    0.42325   0.84650   0.65840   1.000
    C161    C    0.15350   0.57675   0.65840   1.000
    C162    C    0.42325   0.57675   0.65840   1.000
    C163    C    0.15350   0.57675   0.84160   1.000
    C164    C    0.42325   0.84650   0.84160   1.000
    C165    C    0.42325   0.57675   0.84160   1.000
    C166    C    0.84650   0.42325   0.34160   1.000
    C167    C    0.57675   0.15350   0.34160   1.000
    C168    C    0.57675   0.42325   0.34160   1.000
    C169    C    0.53660   0.00000   0.00000   1.000
    C170    C    0.00000   0.53660   0.00000   1.000
    C171    C    0.46340   0.46340   0.00000   1.000
    C172    C    0.46340   0.00000   0.50000   1.000
    C173    C    0.00000   0.46340   0.50000   1.000
    C174    C    0.53660   0.53660   0.50000   1.000
    C175    C    0.46340   0.00000   0.00000   1.000
    C176    C    0.00000   0.46340   0.00000   1.000
    C177    C    0.53660   0.53660   0.00000   1.000
    C178    C    0.53660   0.00000   0.50000   1.000
    C179    C    0.00000   0.53660   0.50000   1.000
    C180    C    0.46340   0.46340   0.50000   1.000
