# CIF file generated by openbabel 2.4.1, see http://openbabel.sf.net
data_I
_chemical_name_common 'image0'
_cell_length_a 13.812
_cell_length_b 21.618
_cell_length_c 9.061
_cell_angle_alpha 90
_cell_angle_beta 90
_cell_angle_gamma 90
_space_group_name_H-M_alt 'P 1'
_space_group_name_Hall 'P 1'
loop_
    _symmetry_equiv_pos_as_xyz
    x,y,z
loop_
    _atom_site_label
    _atom_site_type_symbol
    _atom_site_fract_x
    _atom_site_fract_y
    _atom_site_fract_z
    _atom_site_occupancy
    O1      O    0.61560   0.18640   0.83130   1.000
    O2      O    0.00520   0.29700   0.55410   1.000
    N1      N    0.69680   0.32630   0.17300   1.000
    N2      N    0.91410   0.49300   0.40870   1.000
    C1      C    0.77620   0.35480   0.12590   1.000
    H1      H    0.80730   0.33940   0.04000   1.000
    C2      C    0.81680   0.40710   0.19730   1.000
    H2      H    0.87420   0.42560   0.16000   1.000
    C3      C    0.77290   0.43070   0.31960   1.000
    C4      C    0.68960   0.40130   0.37210   1.000
    H3      H    0.65770   0.41590   0.45830   1.000
    C5      C    0.65440   0.35020   0.29570   1.000
    H4      H    0.59730   0.33080   0.33140   1.000
    C6      C    0.80940   0.48670   0.40050   1.000
    H5      H    0.78290   0.52400   0.35170   1.000
    H6      H    0.78340   0.48570   0.50230   1.000
    C7      C    0.95610   0.44240   0.49870   1.000
    H7      H    0.94090   0.40220   0.45180   1.000
    H8      H    0.92600   0.44270   0.59780   1.000
    C8      C    0.93720   0.55150   0.48570   1.000
    H9      H    0.90660   0.55170   0.58450   1.000
    H10     H    0.91140   0.58690   0.42880   1.000
    C9      C    0.67300   0.21900   0.77500   1.000
    C10     C    0.70400   0.21810   0.63800   1.000
    H11     H    0.66650   0.23870   0.53920   1.000
    C11     C    0.85800   0.22880   0.46600   1.000
    H12     H    0.84080   0.19270   0.40440   1.000
    H13     H    0.82330   0.26490   0.42440   1.000
    C12     C    0.95900   0.27100   0.46700   1.000
    C13     C    0.81200   0.21600   0.63100   1.000
    H14     H    0.83390   0.17520   0.66610   1.000
    H15     H    0.83780   0.24770   0.70010   1.000
    O3      O    0.28480   0.37700   0.74800   1.000
    H16     H    0.23590   0.35290   0.72970   1.000
    H17     H    0.32070   0.36070   0.81660   1.000
    C14     C    0.69100   0.22400   0.81400   1.000
    H18     H    0.67760   0.25430   0.58470   1.000
    H19     H    0.71240   0.29560   0.63040   1.000
    C15     C    0.80500   0.22400   0.60200   1.000
    H20     H    0.80030   0.17890   0.59160   1.000
    H21     H    0.84550   0.23370   0.68890   1.000
    C16     C    0.96300   0.24000   0.44700   1.000
    H22     H    0.80950   0.21360   0.44360   1.000
    H23     H    0.84050   0.21910   0.39230   1.000
    H24     H    0.67490   0.17970   0.59840   1.000
    O4      O    0.88440   0.81360   0.33130   1.000
    O5      O    0.49480   0.70300   0.05410   1.000
    N3      N    0.80320   0.67370   0.67300   1.000
    N4      N    0.58590   0.50700   0.90870   1.000
    C17     C    0.72380   0.64520   0.62590   1.000
    H25     H    0.69270   0.66060   0.54000   1.000
    C18     C    0.68320   0.59290   0.69730   1.000
    H26     H    0.62580   0.57440   0.66000   1.000
    C19     C    0.72710   0.56930   0.81960   1.000
    C20     C    0.81040   0.59870   0.87210   1.000
    H27     H    0.84230   0.58410   0.95830   1.000
    C21     C    0.84560   0.64980   0.79570   1.000
    H28     H    0.90270   0.66920   0.83140   1.000
    C22     C    0.69060   0.51330   0.90050   1.000
    H29     H    0.71710   0.47600   0.85170   1.000
    H30     H    0.71660   0.51430   0.00230   1.000
    C23     C    0.54390   0.55760   0.99870   1.000
    H31     H    0.55910   0.59780   0.95180   1.000
    H32     H    0.57400   0.55730   0.09780   1.000
    C24     C    0.56280   0.44850   0.98570   1.000
    H33     H    0.59340   0.44830   0.08450   1.000
    H34     H    0.58860   0.41310   0.92880   1.000
    C25     C    0.82700   0.78100   0.27500   1.000
    C26     C    0.79600   0.78190   0.13800   1.000
    H35     H    0.83350   0.76130   0.03920   1.000
    C27     C    0.64200   0.77120   0.96600   1.000
    H36     H    0.65920   0.80730   0.90440   1.000
    H37     H    0.67670   0.73510   0.92440   1.000
    C28     C    0.54100   0.72900   0.96700   1.000
    C29     C    0.68800   0.78400   0.13100   1.000
    H38     H    0.66610   0.82480   0.16610   1.000
    H39     H    0.66220   0.75230   0.20010   1.000
    O6      O    0.21520   0.62300   0.24800   1.000
    H40     H    0.26410   0.64710   0.22970   1.000
    H41     H    0.17930   0.63930   0.31660   1.000
    C30     C    0.80900   0.77600   0.31400   1.000
    H42     H    0.82240   0.74570   0.08470   1.000
    H43     H    0.78760   0.70440   0.13040   1.000
    C31     C    0.69500   0.77600   0.10200   1.000
    H44     H    0.69970   0.82110   0.09160   1.000
    H45     H    0.65450   0.76630   0.18890   1.000
    C32     C    0.53700   0.76000   0.94700   1.000
    H46     H    0.69050   0.78640   0.94360   1.000
    H47     H    0.65950   0.78090   0.89230   1.000
    H48     H    0.82510   0.82030   0.09840   1.000
    O7      O    0.38440   0.68640   0.16870   1.000
    O8      O    0.99480   0.79700   0.44590   1.000
    N5      N    0.30320   0.82630   0.82700   1.000
    N6      N    0.08590   0.99300   0.59130   1.000
    C33     C    0.22380   0.85480   0.87410   1.000
    H49     H    0.19270   0.83940   0.96000   1.000
    C34     C    0.18320   0.90710   0.80270   1.000
    H50     H    0.12580   0.92560   0.84000   1.000
    C35     C    0.22710   0.93070   0.68040   1.000
    C36     C    0.31040   0.90130   0.62790   1.000
    H51     H    0.34230   0.91590   0.54170   1.000
    C37     C    0.34560   0.85020   0.70430   1.000
    H52     H    0.40270   0.83080   0.66860   1.000
    C38     C    0.19060   0.98670   0.59950   1.000
    H53     H    0.21710   0.02400   0.64830   1.000
    H54     H    0.21660   0.98570   0.49770   1.000
    C39     C    0.04390   0.94240   0.50130   1.000
    H55     H    0.05910   0.90220   0.54820   1.000
    H56     H    0.07400   0.94270   0.40220   1.000
    C40     C    0.06280   0.05150   0.51430   1.000
    H57     H    0.09340   0.05170   0.41550   1.000
    H58     H    0.08860   0.08690   0.57120   1.000
    C41     C    0.32700   0.71900   0.22500   1.000
    C42     C    0.29600   0.71810   0.36200   1.000
    H59     H    0.33350   0.73870   0.46080   1.000
    C43     C    0.14200   0.72880   0.53400   1.000
    H60     H    0.15920   0.69270   0.59560   1.000
    H61     H    0.17670   0.76490   0.57560   1.000
    C44     C    0.04100   0.77100   0.53300   1.000
    C45     C    0.18800   0.71600   0.36900   1.000
    H62     H    0.16610   0.67520   0.33390   1.000
    H63     H    0.16220   0.74770   0.29990   1.000
    O9      O    0.71520   0.87700   0.25200   1.000
    H64     H    0.76410   0.85290   0.27030   1.000
    H65     H    0.67930   0.86070   0.18340   1.000
    C46     C    0.30900   0.72400   0.18600   1.000
    H66     H    0.32240   0.75430   0.41530   1.000
    H67     H    0.28760   0.79560   0.36960   1.000
    C47     C    0.19500   0.72400   0.39800   1.000
    H68     H    0.19970   0.67890   0.40840   1.000
    H69     H    0.15450   0.73370   0.31110   1.000
    C48     C    0.03700   0.74000   0.55300   1.000
    H70     H    0.19050   0.71360   0.55640   1.000
    H71     H    0.15950   0.71910   0.60770   1.000
    H72     H    0.32510   0.67970   0.40160   1.000
    O10     O    0.11560   0.31360   0.66870   1.000
    O11     O    0.50520   0.20300   0.94590   1.000
    N7      N    0.19680   0.17370   0.32700   1.000
    N8      N    0.41410   0.00700   0.09130   1.000
    C49     C    0.27620   0.14520   0.37410   1.000
    H73     H    0.30730   0.16060   0.46000   1.000
    C50     C    0.31680   0.09290   0.30270   1.000
    H74     H    0.37420   0.07440   0.34000   1.000
    C51     C    0.27290   0.06930   0.18040   1.000
    C52     C    0.18960   0.09870   0.12790   1.000
    H75     H    0.15770   0.08410   0.04170   1.000
    C53     C    0.15440   0.14980   0.20430   1.000
    H76     H    0.09730   0.16920   0.16860   1.000
    C54     C    0.30940   0.01330   0.09950   1.000
    H77     H    0.28290   0.97600   0.14830   1.000
    H78     H    0.28340   0.01430   0.99770   1.000
    C55     C    0.45610   0.05760   0.00130   1.000
    H79     H    0.44090   0.09780   0.04820   1.000
    H80     H    0.42600   0.05730   0.90220   1.000
    C56     C    0.43720   0.94850   0.01430   1.000
    H81     H    0.40660   0.94830   0.91550   1.000
    H82     H    0.41140   0.91310   0.07120   1.000
    C57     C    0.17300   0.28100   0.72500   1.000
    C58     C    0.20400   0.28190   0.86200   1.000
    H83     H    0.16650   0.26130   0.96080   1.000
    C59     C    0.35800   0.27120   0.03400   1.000
    H84     H    0.34080   0.30730   0.09560   1.000
    H85     H    0.32330   0.23510   0.07560   1.000
    C60     C    0.45900   0.22900   0.03300   1.000
    C61     C    0.31200   0.28400   0.86900   1.000
    H86     H    0.33390   0.32480   0.83390   1.000
    H87     H    0.33780   0.25230   0.79990   1.000
    O12     O    0.78480   0.12300   0.75200   1.000
    H88     H    0.73590   0.14710   0.77030   1.000
    H89     H    0.82070   0.13930   0.68340   1.000
    C62     C    0.19100   0.27600   0.68600   1.000
    H90     H    0.17760   0.24570   0.91530   1.000
    H91     H    0.21240   0.20440   0.86960   1.000
    C63     C    0.30500   0.27600   0.89800   1.000
    H92     H    0.30030   0.32110   0.90840   1.000
    H93     H    0.34550   0.26630   0.81110   1.000
    C64     C    0.46300   0.26000   0.05300   1.000
    H94     H    0.30950   0.28640   0.05640   1.000
    H95     H    0.34050   0.28090   0.10770   1.000
    H96     H    0.17490   0.32030   0.90160   1.000
    O13     O    0.38440   0.81360   0.16870   1.000
    O14     O    0.99480   0.70300   0.44590   1.000
    N9      N    0.30320   0.67370   0.82700   1.000
    N10     N    0.08590   0.50700   0.59130   1.000
    C65     C    0.22380   0.64520   0.87410   1.000
    H97     H    0.19270   0.66060   0.96000   1.000
    C66     C    0.18320   0.59290   0.80270   1.000
    H98     H    0.12580   0.57440   0.84000   1.000
    C67     C    0.22710   0.56930   0.68040   1.000
    C68     C    0.31040   0.59870   0.62790   1.000
    H99     H    0.34230   0.58410   0.54170   1.000
    C69     C    0.34560   0.64980   0.70430   1.000
    H100    H    0.40270   0.66920   0.66860   1.000
    C70     C    0.19060   0.51330   0.59950   1.000
    H101    H    0.21710   0.47600   0.64830   1.000
    H102    H    0.21660   0.51430   0.49770   1.000
    C71     C    0.04390   0.55760   0.50130   1.000
    H103    H    0.05910   0.59780   0.54820   1.000
    H104    H    0.07400   0.55730   0.40220   1.000
    C72     C    0.06280   0.44850   0.51430   1.000
    H105    H    0.09340   0.44830   0.41550   1.000
    H106    H    0.08860   0.41310   0.57120   1.000
    C73     C    0.32700   0.78100   0.22500   1.000
    C74     C    0.29600   0.78190   0.36200   1.000
    H107    H    0.33350   0.76130   0.46080   1.000
    C75     C    0.14200   0.77120   0.53400   1.000
    H108    H    0.15920   0.80730   0.59560   1.000
    H109    H    0.17670   0.73510   0.57560   1.000
    C76     C    0.04100   0.72900   0.53300   1.000
    C77     C    0.18800   0.78400   0.36900   1.000
    H110    H    0.16610   0.82480   0.33390   1.000
    H111    H    0.16220   0.75230   0.29990   1.000
    O15     O    0.71520   0.62300   0.25200   1.000
    H112    H    0.76410   0.64710   0.27030   1.000
    H113    H    0.67930   0.63930   0.18340   1.000
    C78     C    0.30900   0.77600   0.18600   1.000
    H114    H    0.32240   0.74570   0.41530   1.000
    H115    H    0.28760   0.70440   0.36960   1.000
    C79     C    0.19500   0.77600   0.39800   1.000
    H116    H    0.19970   0.82110   0.40840   1.000
    H117    H    0.15450   0.76630   0.31110   1.000
    C80     C    0.03700   0.76000   0.55300   1.000
    H118    H    0.19050   0.78640   0.55640   1.000
    H119    H    0.15950   0.78090   0.60770   1.000
    H120    H    0.32510   0.82030   0.40160   1.000
    O16     O    0.11560   0.18640   0.66870   1.000
    O17     O    0.50520   0.29700   0.94590   1.000
    N11     N    0.19680   0.32630   0.32700   1.000
    N12     N    0.41410   0.49300   0.09130   1.000
    C81     C    0.27620   0.35480   0.37410   1.000
    H121    H    0.30730   0.33940   0.46000   1.000
    C82     C    0.31680   0.40710   0.30270   1.000
    H122    H    0.37420   0.42560   0.34000   1.000
    C83     C    0.27290   0.43070   0.18040   1.000
    C84     C    0.18960   0.40130   0.12790   1.000
    H123    H    0.15770   0.41590   0.04170   1.000
    C85     C    0.15440   0.35020   0.20430   1.000
    H124    H    0.09730   0.33080   0.16860   1.000
    C86     C    0.30940   0.48670   0.09950   1.000
    H125    H    0.28290   0.52400   0.14830   1.000
    H126    H    0.28340   0.48570   0.99770   1.000
    C87     C    0.45610   0.44240   0.00130   1.000
    H127    H    0.44090   0.40220   0.04820   1.000
    H128    H    0.42600   0.44270   0.90220   1.000
    C88     C    0.43720   0.55150   0.01430   1.000
    H129    H    0.40660   0.55170   0.91550   1.000
    H130    H    0.41140   0.58690   0.07120   1.000
    C89     C    0.17300   0.21900   0.72500   1.000
    C90     C    0.20400   0.21810   0.86200   1.000
    H131    H    0.16650   0.23870   0.96080   1.000
    C91     C    0.35800   0.22880   0.03400   1.000
    H132    H    0.34080   0.19270   0.09560   1.000
    H133    H    0.32330   0.26490   0.07560   1.000
    C92     C    0.45900   0.27100   0.03300   1.000
    C93     C    0.31200   0.21600   0.86900   1.000
    H134    H    0.33390   0.17520   0.83390   1.000
    H135    H    0.33780   0.24770   0.79990   1.000
    O18     O    0.78480   0.37700   0.75200   1.000
    H136    H    0.73590   0.35290   0.77030   1.000
    H137    H    0.82070   0.36070   0.68340   1.000
    C94     C    0.19100   0.22400   0.68600   1.000
    H138    H    0.17760   0.25430   0.91530   1.000
    H139    H    0.21240   0.29560   0.86960   1.000
    C95     C    0.30500   0.22400   0.89800   1.000
    H140    H    0.30030   0.17890   0.90840   1.000
    H141    H    0.34550   0.23370   0.81110   1.000
    C96     C    0.46300   0.24000   0.05300   1.000
    H142    H    0.30950   0.21360   0.05640   1.000
    H143    H    0.34050   0.21910   0.10770   1.000
    H144    H    0.17490   0.17970   0.90160   1.000
    O19     O    0.61560   0.31360   0.83130   1.000
    O20     O    0.00520   0.20300   0.55410   1.000
    N13     N    0.69680   0.17370   0.17300   1.000
    N14     N    0.91410   0.00700   0.40870   1.000
    C97     C    0.77620   0.14520   0.12590   1.000
    H145    H    0.80730   0.16060   0.04000   1.000
    C98     C    0.81680   0.09290   0.19730   1.000
    H146    H    0.87420   0.07440   0.16000   1.000
    C99     C    0.77290   0.06930   0.31960   1.000
    C100    C    0.68960   0.09870   0.37210   1.000
    H147    H    0.65770   0.08410   0.45830   1.000
    C101    C    0.65440   0.14980   0.29570   1.000
    H148    H    0.59730   0.16920   0.33140   1.000
    C102    C    0.80940   0.01330   0.40050   1.000
    H149    H    0.78290   0.97600   0.35170   1.000
    H150    H    0.78340   0.01430   0.50230   1.000
    C103    C    0.95610   0.05760   0.49870   1.000
    H151    H    0.94090   0.09780   0.45180   1.000
    H152    H    0.92600   0.05730   0.59780   1.000
    C104    C    0.93720   0.94850   0.48570   1.000
    H153    H    0.90660   0.94830   0.58450   1.000
    H154    H    0.91140   0.91310   0.42880   1.000
    C105    C    0.67300   0.28100   0.77500   1.000
    C106    C    0.70400   0.28190   0.63800   1.000
    H155    H    0.66650   0.26130   0.53920   1.000
    C107    C    0.85800   0.27120   0.46600   1.000
    H156    H    0.84080   0.30730   0.40440   1.000
    H157    H    0.82330   0.23510   0.42440   1.000
    C108    C    0.95900   0.22900   0.46700   1.000
    C109    C    0.81200   0.28400   0.63100   1.000
    H158    H    0.83390   0.32480   0.66610   1.000
    H159    H    0.83780   0.25230   0.70010   1.000
    O21     O    0.28480   0.12300   0.74800   1.000
    H160    H    0.23590   0.14710   0.72970   1.000
    H161    H    0.32070   0.13930   0.81660   1.000
    C110    C    0.69100   0.27600   0.81400   1.000
    H162    H    0.67760   0.24570   0.58470   1.000
    H163    H    0.71240   0.20440   0.63040   1.000
    C111    C    0.80500   0.27600   0.60200   1.000
    H164    H    0.80030   0.32110   0.59160   1.000
    H165    H    0.84550   0.26630   0.68890   1.000
    C112    C    0.96300   0.26000   0.44700   1.000
    H166    H    0.80950   0.28640   0.44360   1.000
    H167    H    0.84050   0.28090   0.39230   1.000
    H168    H    0.67490   0.32030   0.59840   1.000
    O22     O    0.88440   0.68640   0.33130   1.000
    O23     O    0.49480   0.79700   0.05410   1.000
    N15     N    0.80320   0.82630   0.67300   1.000
    N16     N    0.58590   0.99300   0.90870   1.000
    C113    C    0.72380   0.85480   0.62590   1.000
    H169    H    0.69270   0.83940   0.54000   1.000
    C114    C    0.68320   0.90710   0.69730   1.000
    H170    H    0.62580   0.92560   0.66000   1.000
    C115    C    0.72710   0.93070   0.81960   1.000
    C116    C    0.81040   0.90130   0.87210   1.000
    H171    H    0.84230   0.91590   0.95830   1.000
    C117    C    0.84560   0.85020   0.79570   1.000
    H172    H    0.90270   0.83080   0.83140   1.000
    C118    C    0.69060   0.98670   0.90050   1.000
    H173    H    0.71710   0.02400   0.85170   1.000
    H174    H    0.71660   0.98570   0.00230   1.000
    C119    C    0.54390   0.94240   0.99870   1.000
    H175    H    0.55910   0.90220   0.95180   1.000
    H176    H    0.57400   0.94270   0.09780   1.000
    C120    C    0.56280   0.05150   0.98570   1.000
    H177    H    0.59340   0.05170   0.08450   1.000
    H178    H    0.58860   0.08690   0.92880   1.000
    C121    C    0.82700   0.71900   0.27500   1.000
    C122    C    0.79600   0.71810   0.13800   1.000
    H179    H    0.83350   0.73870   0.03920   1.000
    C123    C    0.64200   0.72880   0.96600   1.000
    H180    H    0.65920   0.69270   0.90440   1.000
    H181    H    0.67670   0.76490   0.92440   1.000
    C124    C    0.54100   0.77100   0.96700   1.000
    C125    C    0.68800   0.71600   0.13100   1.000
    H182    H    0.66610   0.67520   0.16610   1.000
    H183    H    0.66220   0.74770   0.20010   1.000
    O24     O    0.21520   0.87700   0.24800   1.000
    H184    H    0.26410   0.85290   0.22970   1.000
    H185    H    0.17930   0.86070   0.31660   1.000
    C126    C    0.80900   0.72400   0.31400   1.000
    H186    H    0.82240   0.75430   0.08470   1.000
    H187    H    0.78760   0.79560   0.13040   1.000
    C127    C    0.69500   0.72400   0.10200   1.000
    H188    H    0.69970   0.67890   0.09160   1.000
    H189    H    0.65450   0.73370   0.18890   1.000
    C128    C    0.53700   0.74000   0.94700   1.000
    H190    H    0.69050   0.71360   0.94360   1.000
    H191    H    0.65950   0.71910   0.89230   1.000
    H192    H    0.82510   0.67970   0.09840   1.000
    Zn1     Zn   0.64210   0.25000   0.06785   1.000
    O25     O    0.71530   0.25000   0.88630   1.000
    O26     O    0.00450   0.25000   0.35460   1.000
    C129    C    0.71000   0.25000   0.62200   1.000
    C130    C    0.84900   0.25000   0.47200   1.000
    Zn2     Zn   0.85790   0.75000   0.56785   1.000
    O27     O    0.78470   0.75000   0.38630   1.000
    O28     O    0.49550   0.75000   0.85460   1.000
    C131    C    0.79000   0.75000   0.12200   1.000
    C132    C    0.65100   0.75000   0.97200   1.000
    Zn3     Zn   0.35790   0.75000   0.93215   1.000
    O29     O    0.28470   0.75000   0.11370   1.000
    O30     O    0.99550   0.75000   0.64540   1.000
    C133    C    0.29000   0.75000   0.37800   1.000
    C134    C    0.15100   0.75000   0.52800   1.000
    Zn4     Zn   0.14210   0.25000   0.43215   1.000
    O31     O    0.21530   0.25000   0.61370   1.000
    O32     O    0.50450   0.25000   0.14540   1.000
    C135    C    0.21000   0.25000   0.87800   1.000
    C136    C    0.34900   0.25000   0.02800   1.000
