# CIF file generated by openbabel 2.4.1, see http://openbabel.sf.net
data_I
_chemical_name_common 'image0'
_cell_length_a 15.7377
_cell_length_b 21.1254
_cell_length_c 11.7487
_cell_angle_alpha 90
_cell_angle_beta 90
_cell_angle_gamma 90
_space_group_name_H-M_alt 'P 1'
_space_group_name_Hall 'P 1'
loop_
    _symmetry_equiv_pos_as_xyz
    x,y,z
loop_
    _atom_site_label
    _atom_site_type_symbol
    _atom_site_fract_x
    _atom_site_fract_y
    _atom_site_fract_z
    _atom_site_occupancy
    Cd1     Cd   0.25157   0.41183   0.36997   1.000
    C1      C    0.25340   0.41260   0.93210   1.000
    N1      N    0.24610   0.41060   0.17110   1.000
    N2      N    0.26290   0.41330   0.56830   1.000
    C2      C    0.25910   0.41270   0.81060   1.000
    O1      O    0.78360   0.48020   0.35640   1.000
    O2      O    0.87440   0.14050   0.65990   1.000
    O3      O    0.64720   0.49660   0.38380   1.000
    O4      O    0.99720   0.11020   0.58370   1.000
    C3      C    0.70960   0.46070   0.36920   1.000
    C4      C    0.22380   0.46070   0.11390   1.000
    H1      H    0.20480   0.49580   0.15450   1.000
    C5      C    0.47130   0.45000   0.13780   1.000
    H2      H    0.44890   0.41590   0.17790   1.000
    C6      C    0.47380   0.44720   0.02000   1.000
    H3      H    0.45820   0.41050   0.98140   1.000
    C7      C    0.27090   0.36040   0.11210   1.000
    H4      H    0.28770   0.32440   0.15170   1.000
    C8      C    0.22670   0.46500   0.99360   1.000
    H5      H    0.21100   0.50220   0.95670   1.000
    C9      C    0.03370   0.29590   0.45620   1.000
    C10     C    0.51970   0.44910   0.65350   1.000
    H6      H    0.53300   0.41240   0.61370   1.000
    C11     C    0.25140   0.35780   0.74580   1.000
    H7      H    0.24490   0.31900   0.78250   1.000
    C12     C    0.26930   0.46830   0.74750   1.000
    H8      H    0.27280   0.50720   0.78450   1.000
    C13     C    0.27430   0.46550   0.62990   1.000
    H9      H    0.28650   0.50280   0.59110   1.000
    C14     C    0.25320   0.35960   0.62770   1.000
    H10     H    0.24730   0.32180   0.58780   1.000
    C15     C    0.30470   0.37160   0.63000   1.000
    H11     H    0.33630   0.34140   0.59120   1.000
    C16     C    0.30570   0.36840   0.74800   1.000
    H12     H    0.33710   0.33730   0.78520   1.000
    C17     C    0.21900   0.45640   0.73900   1.000
    H13     H    0.18620   0.48710   0.77550   1.000
    C18     C    0.22130   0.45980   0.62000   1.000
    H14     H    0.19550   0.49240   0.57980   1.000
    O5      O    0.17870   0.28850   0.40230   1.000
    C19     C    0.52160   0.44760   0.77020   1.000
    H15     H    0.53760   0.41090   0.80820   1.000
    O6      O    0.11760   0.38030   0.38980   1.000
    C20     C    0.94020   0.14920   0.60050   1.000
    C21     C    0.27300   0.35890   0.99240   1.000
    H16     H    0.28760   0.32180   0.95440   1.000
    N3      N    0.76820   0.35260   0.38260   1.000
    C22     C    0.95040   0.21500   0.55030   1.000
    O7      O    0.77720   0.38200   0.56390   1.000
    C23     C    0.02710   0.23540   0.50540   1.000
    H17     H    0.07440   0.20900   0.50790   1.000
    C24     C    0.87970   0.25360   0.54610   1.000
    H18     H    0.82890   0.24050   0.57880   1.000
    C25     C    0.11710   0.32220   0.41240   1.000
    C26     C    0.88460   0.31200   0.49310   1.000
    C27     C    0.69290   0.39010   0.36330   1.000
    H19     H    0.64840   0.37830   0.41780   1.000
    C28     C    0.80430   0.35220   0.48350   1.000
    C29     C    0.96000   0.33200   0.44650   1.000
    H20     H    0.96190   0.37030   0.40760   1.000
    C30     C    0.66550   0.37130   0.23970   1.000
    H21     H    0.60410   0.36870   0.23300   1.000
    H22     H    0.68690   0.40130   0.18410   1.000
    H23     H    0.62020   0.34010   0.24210   1.000
    H24     H    0.64510   0.40820   0.19880   1.000
    C31     C    0.79500   0.31770   0.28280   1.000
    H25     H    0.82130   0.27760   0.30240   1.000
    H26     H    0.83320   0.34220   0.23530   1.000
    H27     H    0.78440   0.27280   0.29240   1.000
    H28     H    0.85520   0.32400   0.26880   1.000
    C32     C    0.70530   0.30860   0.22600   1.000
    H29     H    0.71080   0.29750   0.14610   1.000
    H30     H    0.67280   0.27610   0.26450   1.000
    C33     C    0.74100   0.34500   0.18300   1.000
    H31     H    0.77230   0.37730   0.14190   1.000
    H32     H    0.72550   0.31150   0.12960   1.000
    Cd2     Cd   0.74843   0.58817   0.36997   1.000
    C34     C    0.74660   0.58740   0.93210   1.000
    N4      N    0.75390   0.58940   0.17110   1.000
    N5      N    0.73710   0.58670   0.56830   1.000
    C35     C    0.74090   0.58730   0.81060   1.000
    O8      O    0.21640   0.51980   0.35640   1.000
    O9      O    0.12560   0.85950   0.65990   1.000
    O10     O    0.35280   0.50340   0.38380   1.000
    O11     O    0.00280   0.88980   0.58370   1.000
    C36     C    0.29040   0.53930   0.36920   1.000
    C37     C    0.77620   0.53930   0.11390   1.000
    H33     H    0.79520   0.50420   0.15450   1.000
    C38     C    0.52870   0.55000   0.13780   1.000
    H34     H    0.55110   0.58410   0.17790   1.000
    C39     C    0.52620   0.55280   0.02000   1.000
    H35     H    0.54180   0.58950   0.98140   1.000
    C40     C    0.72910   0.63960   0.11210   1.000
    H36     H    0.71230   0.67560   0.15170   1.000
    C41     C    0.77330   0.53500   0.99360   1.000
    H37     H    0.78900   0.49780   0.95670   1.000
    C42     C    0.96630   0.70410   0.45620   1.000
    C43     C    0.48030   0.55090   0.65350   1.000
    H38     H    0.46700   0.58760   0.61370   1.000
    C44     C    0.74860   0.64220   0.74580   1.000
    H39     H    0.75510   0.68100   0.78250   1.000
    C45     C    0.73070   0.53170   0.74750   1.000
    H40     H    0.72720   0.49280   0.78450   1.000
    C46     C    0.72570   0.53450   0.62990   1.000
    H41     H    0.71350   0.49720   0.59110   1.000
    C47     C    0.74680   0.64040   0.62770   1.000
    H42     H    0.75270   0.67820   0.58780   1.000
    C48     C    0.69530   0.62840   0.63000   1.000
    H43     H    0.66370   0.65860   0.59120   1.000
    C49     C    0.69430   0.63160   0.74800   1.000
    H44     H    0.66290   0.66270   0.78520   1.000
    C50     C    0.78100   0.54360   0.73900   1.000
    H45     H    0.81380   0.51290   0.77550   1.000
    C51     C    0.77870   0.54020   0.62000   1.000
    H46     H    0.80450   0.50760   0.57980   1.000
    O12     O    0.82130   0.71150   0.40230   1.000
    C52     C    0.47840   0.55240   0.77020   1.000
    H47     H    0.46240   0.58910   0.80820   1.000
    O13     O    0.88240   0.61970   0.38980   1.000
    C53     C    0.05980   0.85080   0.60050   1.000
    C54     C    0.72700   0.64110   0.99240   1.000
    H48     H    0.71240   0.67820   0.95440   1.000
    N6      N    0.23180   0.64740   0.38260   1.000
    C55     C    0.04960   0.78500   0.55030   1.000
    O14     O    0.22280   0.61800   0.56390   1.000
    C56     C    0.97290   0.76460   0.50540   1.000
    H49     H    0.92560   0.79100   0.50790   1.000
    C57     C    0.12030   0.74640   0.54610   1.000
    H50     H    0.17110   0.75950   0.57880   1.000
    C58     C    0.88290   0.67780   0.41240   1.000
    C59     C    0.11540   0.68800   0.49310   1.000
    C60     C    0.30710   0.60990   0.36330   1.000
    H51     H    0.35160   0.62170   0.41780   1.000
    C61     C    0.19570   0.64780   0.48350   1.000
    C62     C    0.04000   0.66800   0.44650   1.000
    H52     H    0.03810   0.62970   0.40760   1.000
    C63     C    0.33450   0.62870   0.23970   1.000
    H53     H    0.39590   0.63130   0.23300   1.000
    H54     H    0.31310   0.59870   0.18410   1.000
    H55     H    0.37980   0.65990   0.24210   1.000
    H56     H    0.35490   0.59180   0.19880   1.000
    C64     C    0.20500   0.68230   0.28280   1.000
    H57     H    0.17870   0.72240   0.30240   1.000
    H58     H    0.16680   0.65780   0.23530   1.000
    H59     H    0.21560   0.72720   0.29240   1.000
    H60     H    0.14480   0.67600   0.26880   1.000
    C65     C    0.29470   0.69140   0.22600   1.000
    H61     H    0.28920   0.70250   0.14610   1.000
    H62     H    0.32720   0.72390   0.26450   1.000
    C66     C    0.25900   0.65500   0.18300   1.000
    H63     H    0.22770   0.62270   0.14190   1.000
    H64     H    0.27450   0.68850   0.12960   1.000
    Cd3     Cd   0.24843   0.91183   0.63003   1.000
    C67     C    0.24660   0.91260   0.06790   1.000
    N7      N    0.25390   0.91060   0.82890   1.000
    N8      N    0.23710   0.91330   0.43170   1.000
    C68     C    0.24090   0.91270   0.18940   1.000
    O15     O    0.71640   0.98020   0.64360   1.000
    O16     O    0.62560   0.64050   0.34010   1.000
    O17     O    0.85280   0.99660   0.61620   1.000
    O18     O    0.50280   0.61020   0.41630   1.000
    C69     C    0.79040   0.96070   0.63080   1.000
    C70     C    0.27620   0.96070   0.88610   1.000
    H65     H    0.29520   0.99580   0.84550   1.000
    C71     C    0.02870   0.95000   0.86220   1.000
    H66     H    0.05110   0.91590   0.82210   1.000
    C72     C    0.02620   0.94720   0.98000   1.000
    H67     H    0.04180   0.91050   0.01860   1.000
    C73     C    0.22910   0.86040   0.88790   1.000
    H68     H    0.21230   0.82440   0.84830   1.000
    C74     C    0.27330   0.96500   0.00640   1.000
    H69     H    0.28900   0.00220   0.04330   1.000
    C75     C    0.46630   0.79590   0.54380   1.000
    C76     C    0.98030   0.94910   0.34650   1.000
    H70     H    0.96700   0.91240   0.38630   1.000
    C77     C    0.24860   0.85780   0.25420   1.000
    H71     H    0.25510   0.81900   0.21750   1.000
    C78     C    0.23070   0.96830   0.25250   1.000
    H72     H    0.22720   0.00720   0.21550   1.000
    C79     C    0.22570   0.96550   0.37010   1.000
    H73     H    0.21350   0.00280   0.40890   1.000
    C80     C    0.24680   0.85960   0.37230   1.000
    H74     H    0.25270   0.82180   0.41220   1.000
    C81     C    0.19530   0.87160   0.37000   1.000
    H75     H    0.16370   0.84140   0.40880   1.000
    C82     C    0.19430   0.86840   0.25200   1.000
    H76     H    0.16290   0.83730   0.21480   1.000
    C83     C    0.28100   0.95640   0.26100   1.000
    H77     H    0.31380   0.98710   0.22450   1.000
    C84     C    0.27870   0.95980   0.38000   1.000
    H78     H    0.30450   0.99240   0.42020   1.000
    O19     O    0.32130   0.78850   0.59770   1.000
    C85     C    0.97840   0.94760   0.22980   1.000
    H79     H    0.96240   0.91090   0.19180   1.000
    O20     O    0.38240   0.88030   0.61020   1.000
    C86     C    0.55980   0.64920   0.39950   1.000
    C87     C    0.22700   0.85890   0.00760   1.000
    H80     H    0.21240   0.82180   0.04560   1.000
    N9      N    0.73180   0.85260   0.61740   1.000
    C88     C    0.54960   0.71500   0.44970   1.000
    O21     O    0.72280   0.88200   0.43610   1.000
    C89     C    0.47290   0.73540   0.49460   1.000
    H81     H    0.42560   0.70900   0.49210   1.000
    C90     C    0.62030   0.75360   0.45390   1.000
    H82     H    0.67110   0.74050   0.42120   1.000
    C91     C    0.38290   0.82220   0.58760   1.000
    C92     C    0.61540   0.81200   0.50690   1.000
    C93     C    0.80710   0.89010   0.63670   1.000
    H83     H    0.85160   0.87830   0.58220   1.000
    C94     C    0.69570   0.85220   0.51650   1.000
    C95     C    0.54000   0.83200   0.55350   1.000
    H84     H    0.53810   0.87030   0.59240   1.000
    C96     C    0.83450   0.87130   0.76030   1.000
    H85     H    0.89590   0.86870   0.76700   1.000
    H86     H    0.81310   0.90130   0.81590   1.000
    H87     H    0.87980   0.84010   0.75790   1.000
    H88     H    0.85490   0.90820   0.80120   1.000
    C97     C    0.70500   0.81770   0.71720   1.000
    H89     H    0.67870   0.77760   0.69760   1.000
    H90     H    0.66680   0.84220   0.76470   1.000
    H91     H    0.71560   0.77280   0.70760   1.000
    H92     H    0.64480   0.82400   0.73120   1.000
    C98     C    0.79470   0.80860   0.77400   1.000
    H93     H    0.78920   0.79750   0.85390   1.000
    H94     H    0.82720   0.77610   0.73550   1.000
    C99     C    0.75900   0.84500   0.81700   1.000
    H95     H    0.72770   0.87730   0.85810   1.000
    H96     H    0.77450   0.81150   0.87040   1.000
    Cd4     Cd   0.75157   0.08817   0.63003   1.000
    C100    C    0.75340   0.08740   0.06790   1.000
    N10     N    0.74610   0.08940   0.82890   1.000
    N11     N    0.76290   0.08670   0.43170   1.000
    C101    C    0.75910   0.08730   0.18940   1.000
    O22     O    0.28360   0.01980   0.64360   1.000
    O23     O    0.37440   0.35950   0.34010   1.000
    O24     O    0.14720   0.00340   0.61620   1.000
    O25     O    0.49720   0.38980   0.41630   1.000
    C102    C    0.20960   0.03930   0.63080   1.000
    C103    C    0.72380   0.03930   0.88610   1.000
    H97     H    0.70480   0.00420   0.84550   1.000
    C104    C    0.97130   0.05000   0.86220   1.000
    H98     H    0.94890   0.08410   0.82210   1.000
    C105    C    0.97380   0.05280   0.98000   1.000
    H99     H    0.95820   0.08950   0.01860   1.000
    C106    C    0.77090   0.13960   0.88790   1.000
    H100    H    0.78770   0.17560   0.84830   1.000
    C107    C    0.72670   0.03500   0.00640   1.000
    H101    H    0.71100   0.99780   0.04330   1.000
    C108    C    0.53370   0.20410   0.54380   1.000
    C109    C    0.01970   0.05090   0.34650   1.000
    H102    H    0.03300   0.08760   0.38630   1.000
    C110    C    0.75140   0.14220   0.25420   1.000
    H103    H    0.74490   0.18100   0.21750   1.000
    C111    C    0.76930   0.03170   0.25250   1.000
    H104    H    0.77280   0.99280   0.21550   1.000
    C112    C    0.77430   0.03450   0.37010   1.000
    H105    H    0.78650   0.99720   0.40890   1.000
    C113    C    0.75320   0.14040   0.37230   1.000
    H106    H    0.74730   0.17820   0.41220   1.000
    C114    C    0.80470   0.12840   0.37000   1.000
    H107    H    0.83630   0.15860   0.40880   1.000
    C115    C    0.80570   0.13160   0.25200   1.000
    H108    H    0.83710   0.16270   0.21480   1.000
    C116    C    0.71900   0.04360   0.26100   1.000
    H109    H    0.68620   0.01290   0.22450   1.000
    C117    C    0.72130   0.04020   0.38000   1.000
    H110    H    0.69550   0.00760   0.42020   1.000
    O26     O    0.67870   0.21150   0.59770   1.000
    C118    C    0.02160   0.05240   0.22980   1.000
    H111    H    0.03760   0.08910   0.19180   1.000
    O27     O    0.61760   0.11970   0.61020   1.000
    C119    C    0.44020   0.35080   0.39950   1.000
    C120    C    0.77300   0.14110   0.00760   1.000
    H112    H    0.78760   0.17820   0.04560   1.000
    N12     N    0.26820   0.14740   0.61740   1.000
    C121    C    0.45040   0.28500   0.44970   1.000
    O28     O    0.27720   0.11800   0.43610   1.000
    C122    C    0.52710   0.26460   0.49460   1.000
    H113    H    0.57440   0.29100   0.49210   1.000
    C123    C    0.37970   0.24640   0.45390   1.000
    H114    H    0.32890   0.25950   0.42120   1.000
    C124    C    0.61710   0.17780   0.58760   1.000
    C125    C    0.38460   0.18800   0.50690   1.000
    C126    C    0.19290   0.10990   0.63670   1.000
    H115    H    0.14840   0.12170   0.58220   1.000
    C127    C    0.30430   0.14780   0.51650   1.000
    C128    C    0.46000   0.16800   0.55350   1.000
    H116    H    0.46190   0.12970   0.59240   1.000
    C129    C    0.16550   0.12870   0.76030   1.000
    H117    H    0.10410   0.13130   0.76700   1.000
    H118    H    0.18690   0.09870   0.81590   1.000
    H119    H    0.12020   0.15990   0.75790   1.000
    H120    H    0.14510   0.09180   0.80120   1.000
    C130    C    0.29500   0.18230   0.71720   1.000
    H121    H    0.32130   0.22240   0.69760   1.000
    H122    H    0.33320   0.15780   0.76470   1.000
    H123    H    0.28440   0.22720   0.70760   1.000
    H124    H    0.35520   0.17600   0.73120   1.000
    C131    C    0.20530   0.19140   0.77400   1.000
    H125    H    0.21080   0.20250   0.85390   1.000
    H126    H    0.17280   0.22390   0.73550   1.000
    C132    C    0.24100   0.15500   0.81700   1.000
    H127    H    0.27230   0.12270   0.85810   1.000
    H128    H    0.22550   0.18850   0.87040   1.000
    Cd5     Cd   0.50000   0.50000   0.39547   1.000
    C133    C    0.50000   0.50000   0.82940   1.000
    C134    C    0.50000   0.50000   0.96200   1.000
    N13     N    0.50000   0.50000   0.19570   1.000
    N14     N    0.50000   0.50000   0.59580   1.000
    Cd6     Cd   0.00000   0.00000   0.60453   1.000
    C135    C    0.00000   0.00000   0.17060   1.000
    C136    C    0.00000   0.00000   0.03800   1.000
    N15     N    0.00000   0.00000   0.80430   1.000
    N16     N    0.00000   0.00000   0.40420   1.000
