# CIF file generated by openbabel 2.4.1, see http://openbabel.sf.net
data_I
_chemical_name_common 'image0'
_cell_length_a 38.757
_cell_length_b 38.757
_cell_length_c 38.757
_cell_angle_alpha 90
_cell_angle_beta 90
_cell_angle_gamma 90
_space_group_name_H-M_alt 'P 1'
_space_group_name_Hall 'P 1'
loop_
    _symmetry_equiv_pos_as_xyz
    x,y,z
loop_
    _atom_site_label
    _atom_site_type_symbol
    _atom_site_fract_x
    _atom_site_fract_y
    _atom_site_fract_z
    _atom_site_occupancy
    H1      H    0.81960   0.19420   0.08580   1.000
    H2      H    0.84500   0.17410   0.06150   1.000
    H3      H    0.80950   0.15760   0.07170   1.000
    H4      H    0.90079   0.43638   0.12980   1.000
    H5      H    0.87309   0.43616   0.09844   1.000
    H6      H    0.80252   0.18089   0.08648   1.000
    H7      H    0.84386   0.19353   0.07110   1.000
    H8      H    0.82622   0.15298   0.05883   1.000
    H9      H    0.87164   0.43627   0.09878   1.000
    H10     H    0.81960   0.69420   0.58580   1.000
    H11     H    0.84500   0.67410   0.56150   1.000
    H12     H    0.80950   0.65760   0.57170   1.000
    H13     H    0.90079   0.93638   0.62980   1.000
    H14     H    0.87309   0.93616   0.59844   1.000
    H15     H    0.80252   0.68089   0.58648   1.000
    H16     H    0.84386   0.69353   0.57110   1.000
    H17     H    0.82622   0.65298   0.55883   1.000
    H18     H    0.87164   0.93627   0.59878   1.000
    H19     H    0.31960   0.19420   0.58580   1.000
    H20     H    0.34500   0.17410   0.56150   1.000
    H21     H    0.30950   0.15760   0.57170   1.000
    H22     H    0.40079   0.43638   0.62980   1.000
    H23     H    0.37309   0.43616   0.59844   1.000
    H24     H    0.30252   0.18089   0.58648   1.000
    H25     H    0.34386   0.19353   0.57110   1.000
    H26     H    0.32622   0.15298   0.55883   1.000
    H27     H    0.37164   0.43627   0.59878   1.000
    H28     H    0.31960   0.69420   0.08580   1.000
    H29     H    0.34500   0.67410   0.06150   1.000
    H30     H    0.30950   0.65760   0.07170   1.000
    H31     H    0.40079   0.93638   0.12980   1.000
    H32     H    0.37309   0.93616   0.09844   1.000
    H33     H    0.30252   0.68089   0.08648   1.000
    H34     H    0.34386   0.69353   0.07110   1.000
    H35     H    0.32622   0.65298   0.05883   1.000
    H36     H    0.37164   0.93627   0.09878   1.000
    H37     H    0.18040   0.80580   0.08580   1.000
    H38     H    0.15500   0.82590   0.06150   1.000
    H39     H    0.19050   0.84240   0.07170   1.000
    H40     H    0.09921   0.56362   0.12980   1.000
    H41     H    0.12691   0.56384   0.09844   1.000
    H42     H    0.19748   0.81911   0.08648   1.000
    H43     H    0.15614   0.80647   0.07110   1.000
    H44     H    0.17378   0.84702   0.05883   1.000
    H45     H    0.12836   0.56373   0.09878   1.000
    H46     H    0.18040   0.30580   0.58580   1.000
    H47     H    0.15500   0.32590   0.56150   1.000
    H48     H    0.19050   0.34240   0.57170   1.000
    H49     H    0.09921   0.06362   0.62980   1.000
    H50     H    0.12691   0.06384   0.59844   1.000
    H51     H    0.19748   0.31911   0.58648   1.000
    H52     H    0.15614   0.30647   0.57110   1.000
    H53     H    0.17378   0.34702   0.55883   1.000
    H54     H    0.12836   0.06373   0.59878   1.000
    H55     H    0.68040   0.80580   0.58580   1.000
    H56     H    0.65500   0.82590   0.56150   1.000
    H57     H    0.69050   0.84240   0.57170   1.000
    H58     H    0.59921   0.56362   0.62980   1.000
    H59     H    0.62691   0.56384   0.59844   1.000
    H60     H    0.69748   0.81911   0.58648   1.000
    H61     H    0.65614   0.80647   0.57110   1.000
    H62     H    0.67378   0.84702   0.55883   1.000
    H63     H    0.62836   0.56373   0.59878   1.000
    H64     H    0.68040   0.30580   0.08580   1.000
    H65     H    0.65500   0.32590   0.06150   1.000
    H66     H    0.69050   0.34240   0.07170   1.000
    H67     H    0.59921   0.06362   0.12980   1.000
    H68     H    0.62691   0.06384   0.09844   1.000
    H69     H    0.69748   0.31911   0.08648   1.000
    H70     H    0.65614   0.30647   0.07110   1.000
    H71     H    0.67378   0.34702   0.05883   1.000
    H72     H    0.62836   0.06373   0.09878   1.000
    H73     H    0.18040   0.19420   0.91420   1.000
    H74     H    0.15500   0.17410   0.93850   1.000
    H75     H    0.19050   0.15760   0.92830   1.000
    H76     H    0.09921   0.43638   0.87020   1.000
    H77     H    0.12691   0.43616   0.90156   1.000
    H78     H    0.19748   0.18089   0.91352   1.000
    H79     H    0.15614   0.19353   0.92890   1.000
    H80     H    0.17378   0.15298   0.94117   1.000
    H81     H    0.12836   0.43627   0.90122   1.000
    H82     H    0.18040   0.69420   0.41420   1.000
    H83     H    0.15500   0.67410   0.43850   1.000
    H84     H    0.19050   0.65760   0.42830   1.000
    H85     H    0.09921   0.93638   0.37020   1.000
    H86     H    0.12691   0.93616   0.40156   1.000
    H87     H    0.19748   0.68089   0.41352   1.000
    H88     H    0.15614   0.69353   0.42890   1.000
    H89     H    0.17378   0.65298   0.44117   1.000
    H90     H    0.12836   0.93627   0.40122   1.000
    H91     H    0.68040   0.19420   0.41420   1.000
    H92     H    0.65500   0.17410   0.43850   1.000
    H93     H    0.69050   0.15760   0.42830   1.000
    H94     H    0.59921   0.43638   0.37020   1.000
    H95     H    0.62691   0.43616   0.40156   1.000
    H96     H    0.69748   0.18089   0.41352   1.000
    H97     H    0.65614   0.19353   0.42890   1.000
    H98     H    0.67378   0.15298   0.44117   1.000
    H99     H    0.62836   0.43627   0.40122   1.000
    H100    H    0.68040   0.69420   0.91420   1.000
    H101    H    0.65500   0.67410   0.93850   1.000
    H102    H    0.69050   0.65760   0.92830   1.000
    H103    H    0.59921   0.93638   0.87020   1.000
    H104    H    0.62691   0.93616   0.90156   1.000
    H105    H    0.69748   0.68089   0.91352   1.000
    H106    H    0.65614   0.69353   0.92890   1.000
    H107    H    0.67378   0.65298   0.94117   1.000
    H108    H    0.62836   0.93627   0.90122   1.000
    H109    H    0.81960   0.80580   0.91420   1.000
    H110    H    0.84500   0.82590   0.93850   1.000
    H111    H    0.80950   0.84240   0.92830   1.000
    H112    H    0.90079   0.56362   0.87020   1.000
    H113    H    0.87309   0.56384   0.90156   1.000
    H114    H    0.80252   0.81911   0.91352   1.000
    H115    H    0.84386   0.80647   0.92890   1.000
    H116    H    0.82622   0.84702   0.94117   1.000
    H117    H    0.87164   0.56373   0.90122   1.000
    H118    H    0.81960   0.30580   0.41420   1.000
    H119    H    0.84500   0.32590   0.43850   1.000
    H120    H    0.80950   0.34240   0.42830   1.000
    H121    H    0.90079   0.06362   0.37020   1.000
    H122    H    0.87309   0.06384   0.40156   1.000
    H123    H    0.80252   0.31911   0.41352   1.000
    H124    H    0.84386   0.30647   0.42890   1.000
    H125    H    0.82622   0.34702   0.44117   1.000
    H126    H    0.87164   0.06373   0.40122   1.000
    H127    H    0.31960   0.80580   0.41420   1.000
    H128    H    0.34500   0.82590   0.43850   1.000
    H129    H    0.30950   0.84240   0.42830   1.000
    H130    H    0.40079   0.56362   0.37020   1.000
    H131    H    0.37309   0.56384   0.40156   1.000
    H132    H    0.30252   0.81911   0.41352   1.000
    H133    H    0.34386   0.80647   0.42890   1.000
    H134    H    0.32622   0.84702   0.44117   1.000
    H135    H    0.37164   0.56373   0.40122   1.000
    H136    H    0.31960   0.30580   0.91420   1.000
    H137    H    0.34500   0.32590   0.93850   1.000
    H138    H    0.30950   0.34240   0.92830   1.000
    H139    H    0.40079   0.06362   0.87020   1.000
    H140    H    0.37309   0.06384   0.90156   1.000
    H141    H    0.30252   0.31911   0.91352   1.000
    H142    H    0.34386   0.30647   0.92890   1.000
    H143    H    0.32622   0.34702   0.94117   1.000
    H144    H    0.37164   0.06373   0.90122   1.000
    H145    H    0.08580   0.81960   0.19420   1.000
    H146    H    0.06150   0.84500   0.17410   1.000
    H147    H    0.07170   0.80950   0.15760   1.000
    H148    H    0.12980   0.90079   0.43638   1.000
    H149    H    0.09844   0.87309   0.43616   1.000
    H150    H    0.08648   0.80252   0.18089   1.000
    H151    H    0.07110   0.84386   0.19353   1.000
    H152    H    0.05883   0.82622   0.15298   1.000
    H153    H    0.09878   0.87164   0.43627   1.000
    H154    H    0.08580   0.31960   0.69420   1.000
    H155    H    0.06150   0.34500   0.67410   1.000
    H156    H    0.07170   0.30950   0.65760   1.000
    H157    H    0.12980   0.40079   0.93638   1.000
    H158    H    0.09844   0.37309   0.93616   1.000
    H159    H    0.08648   0.30252   0.68089   1.000
    H160    H    0.07110   0.34386   0.69353   1.000
    H161    H    0.05883   0.32622   0.65298   1.000
    H162    H    0.09878   0.37164   0.93627   1.000
    H163    H    0.58580   0.81960   0.69420   1.000
    H164    H    0.56150   0.84500   0.67410   1.000
    H165    H    0.57170   0.80950   0.65760   1.000
    H166    H    0.62980   0.90079   0.93638   1.000
    H167    H    0.59844   0.87309   0.93616   1.000
    H168    H    0.58648   0.80252   0.68089   1.000
    H169    H    0.57110   0.84386   0.69353   1.000
    H170    H    0.55883   0.82622   0.65298   1.000
    H171    H    0.59878   0.87164   0.93627   1.000
    H172    H    0.58580   0.31960   0.19420   1.000
    H173    H    0.56150   0.34500   0.17410   1.000
    H174    H    0.57170   0.30950   0.15760   1.000
    H175    H    0.62980   0.40079   0.43638   1.000
    H176    H    0.59844   0.37309   0.43616   1.000
    H177    H    0.58648   0.30252   0.18089   1.000
    H178    H    0.57110   0.34386   0.19353   1.000
    H179    H    0.55883   0.32622   0.15298   1.000
    H180    H    0.59878   0.37164   0.43627   1.000
    H181    H    0.08580   0.18040   0.80580   1.000
    H182    H    0.06150   0.15500   0.82590   1.000
    H183    H    0.07170   0.19050   0.84240   1.000
    H184    H    0.12980   0.09921   0.56362   1.000
    H185    H    0.09844   0.12691   0.56384   1.000
    H186    H    0.08648   0.19748   0.81911   1.000
    H187    H    0.07110   0.15614   0.80647   1.000
    H188    H    0.05883   0.17378   0.84702   1.000
    H189    H    0.09878   0.12836   0.56373   1.000
    H190    H    0.08580   0.68040   0.30580   1.000
    H191    H    0.06150   0.65500   0.32590   1.000
    H192    H    0.07170   0.69050   0.34240   1.000
    H193    H    0.12980   0.59921   0.06362   1.000
    H194    H    0.09844   0.62691   0.06384   1.000
    H195    H    0.08648   0.69748   0.31911   1.000
    H196    H    0.07110   0.65614   0.30647   1.000
    H197    H    0.05883   0.67378   0.34702   1.000
    H198    H    0.09878   0.62836   0.06373   1.000
    H199    H    0.58580   0.18040   0.30580   1.000
    H200    H    0.56150   0.15500   0.32590   1.000
    H201    H    0.57170   0.19050   0.34240   1.000
    H202    H    0.62980   0.09921   0.06362   1.000
    H203    H    0.59844   0.12691   0.06384   1.000
    H204    H    0.58648   0.19748   0.31911   1.000
    H205    H    0.57110   0.15614   0.30647   1.000
    H206    H    0.55883   0.17378   0.34702   1.000
    H207    H    0.59878   0.12836   0.06373   1.000
    H208    H    0.58580   0.68040   0.80580   1.000
    H209    H    0.56150   0.65500   0.82590   1.000
    H210    H    0.57170   0.69050   0.84240   1.000
    H211    H    0.62980   0.59921   0.56362   1.000
    H212    H    0.59844   0.62691   0.56384   1.000
    H213    H    0.58648   0.69748   0.81911   1.000
    H214    H    0.57110   0.65614   0.80647   1.000
    H215    H    0.55883   0.67378   0.84702   1.000
    H216    H    0.59878   0.62836   0.56373   1.000
    H217    H    0.91420   0.18040   0.19420   1.000
    H218    H    0.93850   0.15500   0.17410   1.000
    H219    H    0.92830   0.19050   0.15760   1.000
    H220    H    0.87020   0.09921   0.43638   1.000
    H221    H    0.90156   0.12691   0.43616   1.000
    H222    H    0.91352   0.19748   0.18089   1.000
    H223    H    0.92890   0.15614   0.19353   1.000
    H224    H    0.94117   0.17378   0.15298   1.000
    H225    H    0.90122   0.12836   0.43627   1.000
    H226    H    0.91420   0.68040   0.69420   1.000
    H227    H    0.93850   0.65500   0.67410   1.000
    H228    H    0.92830   0.69050   0.65760   1.000
    H229    H    0.87020   0.59921   0.93638   1.000
    H230    H    0.90156   0.62691   0.93616   1.000
    H231    H    0.91352   0.69748   0.68089   1.000
    H232    H    0.92890   0.65614   0.69353   1.000
    H233    H    0.94117   0.67378   0.65298   1.000
    H234    H    0.90122   0.62836   0.93627   1.000
    H235    H    0.41420   0.18040   0.69420   1.000
    H236    H    0.43850   0.15500   0.67410   1.000
    H237    H    0.42830   0.19050   0.65760   1.000
    H238    H    0.37020   0.09921   0.93638   1.000
    H239    H    0.40156   0.12691   0.93616   1.000
    H240    H    0.41352   0.19748   0.68089   1.000
    H241    H    0.42890   0.15614   0.69353   1.000
    H242    H    0.44117   0.17378   0.65298   1.000
    H243    H    0.40122   0.12836   0.93627   1.000
    H244    H    0.41420   0.68040   0.19420   1.000
    H245    H    0.43850   0.65500   0.17410   1.000
    H246    H    0.42830   0.69050   0.15760   1.000
    H247    H    0.37020   0.59921   0.43638   1.000
    H248    H    0.40156   0.62691   0.43616   1.000
    H249    H    0.41352   0.69748   0.18089   1.000
    H250    H    0.42890   0.65614   0.19353   1.000
    H251    H    0.44117   0.67378   0.15298   1.000
    H252    H    0.40122   0.62836   0.43627   1.000
    H253    H    0.91420   0.81960   0.80580   1.000
    H254    H    0.93850   0.84500   0.82590   1.000
    H255    H    0.92830   0.80950   0.84240   1.000
    H256    H    0.87020   0.90079   0.56362   1.000
    H257    H    0.90156   0.87309   0.56384   1.000
    H258    H    0.91352   0.80252   0.81911   1.000
    H259    H    0.92890   0.84386   0.80647   1.000
    H260    H    0.94117   0.82622   0.84702   1.000
    H261    H    0.90122   0.87164   0.56373   1.000
    H262    H    0.91420   0.31960   0.30580   1.000
    H263    H    0.93850   0.34500   0.32590   1.000
    H264    H    0.92830   0.30950   0.34240   1.000
    H265    H    0.87020   0.40079   0.06362   1.000
    H266    H    0.90156   0.37309   0.06384   1.000
    H267    H    0.91352   0.30252   0.31911   1.000
    H268    H    0.92890   0.34386   0.30647   1.000
    H269    H    0.94117   0.32622   0.34702   1.000
    H270    H    0.90122   0.37164   0.06373   1.000
    H271    H    0.41420   0.81960   0.30580   1.000
    H272    H    0.43850   0.84500   0.32590   1.000
    H273    H    0.42830   0.80950   0.34240   1.000
    H274    H    0.37020   0.90079   0.06362   1.000
    H275    H    0.40156   0.87309   0.06384   1.000
    H276    H    0.41352   0.80252   0.31911   1.000
    H277    H    0.42890   0.84386   0.30647   1.000
    H278    H    0.44117   0.82622   0.34702   1.000
    H279    H    0.40122   0.87164   0.06373   1.000
    H280    H    0.41420   0.31960   0.80580   1.000
    H281    H    0.43850   0.34500   0.82590   1.000
    H282    H    0.42830   0.30950   0.84240   1.000
    H283    H    0.37020   0.40079   0.56362   1.000
    H284    H    0.40156   0.37309   0.56384   1.000
    H285    H    0.41352   0.30252   0.81911   1.000
    H286    H    0.42890   0.34386   0.80647   1.000
    H287    H    0.44117   0.32622   0.84702   1.000
    H288    H    0.40122   0.37164   0.56373   1.000
    H289    H    0.19420   0.08580   0.81960   1.000
    H290    H    0.17410   0.06150   0.84500   1.000
    H291    H    0.15760   0.07170   0.80950   1.000
    H292    H    0.43638   0.12980   0.90079   1.000
    H293    H    0.43616   0.09844   0.87309   1.000
    H294    H    0.18089   0.08648   0.80252   1.000
    H295    H    0.19353   0.07110   0.84386   1.000
    H296    H    0.15298   0.05883   0.82622   1.000
    H297    H    0.43627   0.09878   0.87164   1.000
    H298    H    0.19420   0.58580   0.31960   1.000
    H299    H    0.17410   0.56150   0.34500   1.000
    H300    H    0.15760   0.57170   0.30950   1.000
    H301    H    0.43638   0.62980   0.40079   1.000
    H302    H    0.43616   0.59844   0.37309   1.000
    H303    H    0.18089   0.58648   0.30252   1.000
    H304    H    0.19353   0.57110   0.34386   1.000
    H305    H    0.15298   0.55883   0.32622   1.000
    H306    H    0.43627   0.59878   0.37164   1.000
    H307    H    0.69420   0.08580   0.31960   1.000
    H308    H    0.67410   0.06150   0.34500   1.000
    H309    H    0.65760   0.07170   0.30950   1.000
    H310    H    0.93638   0.12980   0.40079   1.000
    H311    H    0.93616   0.09844   0.37309   1.000
    H312    H    0.68089   0.08648   0.30252   1.000
    H313    H    0.69353   0.07110   0.34386   1.000
    H314    H    0.65298   0.05883   0.32622   1.000
    H315    H    0.93627   0.09878   0.37164   1.000
    H316    H    0.69420   0.58580   0.81960   1.000
    H317    H    0.67410   0.56150   0.84500   1.000
    H318    H    0.65760   0.57170   0.80950   1.000
    H319    H    0.93638   0.62980   0.90079   1.000
    H320    H    0.93616   0.59844   0.87309   1.000
    H321    H    0.68089   0.58648   0.80252   1.000
    H322    H    0.69353   0.57110   0.84386   1.000
    H323    H    0.65298   0.55883   0.82622   1.000
    H324    H    0.93627   0.59878   0.87164   1.000
    H325    H    0.80580   0.08580   0.18040   1.000
    H326    H    0.82590   0.06150   0.15500   1.000
    H327    H    0.84240   0.07170   0.19050   1.000
    H328    H    0.56362   0.12980   0.09921   1.000
    H329    H    0.56384   0.09844   0.12691   1.000
    H330    H    0.81911   0.08648   0.19748   1.000
    H331    H    0.80647   0.07110   0.15614   1.000
    H332    H    0.84702   0.05883   0.17378   1.000
    H333    H    0.56373   0.09878   0.12836   1.000
    H334    H    0.80580   0.58580   0.68040   1.000
    H335    H    0.82590   0.56150   0.65500   1.000
    H336    H    0.84240   0.57170   0.69050   1.000
    H337    H    0.56362   0.62980   0.59921   1.000
    H338    H    0.56384   0.59844   0.62691   1.000
    H339    H    0.81911   0.58648   0.69748   1.000
    H340    H    0.80647   0.57110   0.65614   1.000
    H341    H    0.84702   0.55883   0.67378   1.000
    H342    H    0.56373   0.59878   0.62836   1.000
    H343    H    0.30580   0.08580   0.68040   1.000
    H344    H    0.32590   0.06150   0.65500   1.000
    H345    H    0.34240   0.07170   0.69050   1.000
    H346    H    0.06362   0.12980   0.59921   1.000
    H347    H    0.06384   0.09844   0.62691   1.000
    H348    H    0.31911   0.08648   0.69748   1.000
    H349    H    0.30647   0.07110   0.65614   1.000
    H350    H    0.34702   0.05883   0.67378   1.000
    H351    H    0.06373   0.09878   0.62836   1.000
    H352    H    0.30580   0.58580   0.18040   1.000
    H353    H    0.32590   0.56150   0.15500   1.000
    H354    H    0.34240   0.57170   0.19050   1.000
    H355    H    0.06362   0.62980   0.09921   1.000
    H356    H    0.06384   0.59844   0.12691   1.000
    H357    H    0.31911   0.58648   0.19748   1.000
    H358    H    0.30647   0.57110   0.15614   1.000
    H359    H    0.34702   0.55883   0.17378   1.000
    H360    H    0.06373   0.59878   0.12836   1.000
    H361    H    0.19420   0.91420   0.18040   1.000
    H362    H    0.17410   0.93850   0.15500   1.000
    H363    H    0.15760   0.92830   0.19050   1.000
    H364    H    0.43638   0.87020   0.09921   1.000
    H365    H    0.43616   0.90156   0.12691   1.000
    H366    H    0.18089   0.91352   0.19748   1.000
    H367    H    0.19353   0.92890   0.15614   1.000
    H368    H    0.15298   0.94117   0.17378   1.000
    H369    H    0.43627   0.90122   0.12836   1.000
    H370    H    0.19420   0.41420   0.68040   1.000
    H371    H    0.17410   0.43850   0.65500   1.000
    H372    H    0.15760   0.42830   0.69050   1.000
    H373    H    0.43638   0.37020   0.59921   1.000
    H374    H    0.43616   0.40156   0.62691   1.000
    H375    H    0.18089   0.41352   0.69748   1.000
    H376    H    0.19353   0.42890   0.65614   1.000
    H377    H    0.15298   0.44117   0.67378   1.000
    H378    H    0.43627   0.40122   0.62836   1.000
    H379    H    0.69420   0.91420   0.68040   1.000
    H380    H    0.67410   0.93850   0.65500   1.000
    H381    H    0.65760   0.92830   0.69050   1.000
    H382    H    0.93638   0.87020   0.59921   1.000
    H383    H    0.93616   0.90156   0.62691   1.000
    H384    H    0.68089   0.91352   0.69748   1.000
    H385    H    0.69353   0.92890   0.65614   1.000
    H386    H    0.65298   0.94117   0.67378   1.000
    H387    H    0.93627   0.90122   0.62836   1.000
    H388    H    0.69420   0.41420   0.18040   1.000
    H389    H    0.67410   0.43850   0.15500   1.000
    H390    H    0.65760   0.42830   0.19050   1.000
    H391    H    0.93638   0.37020   0.09921   1.000
    H392    H    0.93616   0.40156   0.12691   1.000
    H393    H    0.68089   0.41352   0.19748   1.000
    H394    H    0.69353   0.42890   0.15614   1.000
    H395    H    0.65298   0.44117   0.17378   1.000
    H396    H    0.93627   0.40122   0.12836   1.000
    H397    H    0.80580   0.91420   0.81960   1.000
    H398    H    0.82590   0.93850   0.84500   1.000
    H399    H    0.84240   0.92830   0.80950   1.000
    H400    H    0.56362   0.87020   0.90079   1.000
    H401    H    0.56384   0.90156   0.87309   1.000
    H402    H    0.81911   0.91352   0.80252   1.000
    H403    H    0.80647   0.92890   0.84386   1.000
    H404    H    0.84702   0.94117   0.82622   1.000
    H405    H    0.56373   0.90122   0.87164   1.000
    H406    H    0.80580   0.41420   0.31960   1.000
    H407    H    0.82590   0.43850   0.34500   1.000
    H408    H    0.84240   0.42830   0.30950   1.000
    H409    H    0.56362   0.37020   0.40079   1.000
    H410    H    0.56384   0.40156   0.37309   1.000
    H411    H    0.81911   0.41352   0.30252   1.000
    H412    H    0.80647   0.42890   0.34386   1.000
    H413    H    0.84702   0.44117   0.32622   1.000
    H414    H    0.56373   0.40122   0.37164   1.000
    H415    H    0.30580   0.91420   0.31960   1.000
    H416    H    0.32590   0.93850   0.34500   1.000
    H417    H    0.34240   0.92830   0.30950   1.000
    H418    H    0.06362   0.87020   0.40079   1.000
    H419    H    0.06384   0.90156   0.37309   1.000
    H420    H    0.31911   0.91352   0.30252   1.000
    H421    H    0.30647   0.92890   0.34386   1.000
    H422    H    0.34702   0.94117   0.32622   1.000
    H423    H    0.06373   0.90122   0.37164   1.000
    H424    H    0.30580   0.41420   0.81960   1.000
    H425    H    0.32590   0.43850   0.84500   1.000
    H426    H    0.34240   0.42830   0.80950   1.000
    H427    H    0.06362   0.37020   0.90079   1.000
    H428    H    0.06384   0.40156   0.87309   1.000
    H429    H    0.31911   0.41352   0.80252   1.000
    H430    H    0.30647   0.42890   0.84386   1.000
    H431    H    0.34702   0.44117   0.82622   1.000
    H432    H    0.06373   0.40122   0.87164   1.000
    H433    H    0.19420   0.81960   0.91420   1.000
    H434    H    0.17410   0.84500   0.93850   1.000
    H435    H    0.15760   0.80950   0.92830   1.000
    H436    H    0.43638   0.90079   0.87020   1.000
    H437    H    0.43616   0.87309   0.90156   1.000
    H438    H    0.18089   0.80252   0.91352   1.000
    H439    H    0.19353   0.84386   0.92890   1.000
    H440    H    0.15298   0.82622   0.94117   1.000
    H441    H    0.43627   0.87164   0.90122   1.000
    H442    H    0.19420   0.31960   0.41420   1.000
    H443    H    0.17410   0.34500   0.43850   1.000
    H444    H    0.15760   0.30950   0.42830   1.000
    H445    H    0.43638   0.40079   0.37020   1.000
    H446    H    0.43616   0.37309   0.40156   1.000
    H447    H    0.18089   0.30252   0.41352   1.000
    H448    H    0.19353   0.34386   0.42890   1.000
    H449    H    0.15298   0.32622   0.44117   1.000
    H450    H    0.43627   0.37164   0.40122   1.000
    H451    H    0.69420   0.81960   0.41420   1.000
    H452    H    0.67410   0.84500   0.43850   1.000
    H453    H    0.65760   0.80950   0.42830   1.000
    H454    H    0.93638   0.90079   0.37020   1.000
    H455    H    0.93616   0.87309   0.40156   1.000
    H456    H    0.68089   0.80252   0.41352   1.000
    H457    H    0.69353   0.84386   0.42890   1.000
    H458    H    0.65298   0.82622   0.44117   1.000
    H459    H    0.93627   0.87164   0.40122   1.000
    H460    H    0.69420   0.31960   0.91420   1.000
    H461    H    0.67410   0.34500   0.93850   1.000
    H462    H    0.65760   0.30950   0.92830   1.000
    H463    H    0.93638   0.40079   0.87020   1.000
    H464    H    0.93616   0.37309   0.90156   1.000
    H465    H    0.68089   0.30252   0.91352   1.000
    H466    H    0.69353   0.34386   0.92890   1.000
    H467    H    0.65298   0.32622   0.94117   1.000
    H468    H    0.93627   0.37164   0.90122   1.000
    H469    H    0.80580   0.18040   0.91420   1.000
    H470    H    0.82590   0.15500   0.93850   1.000
    H471    H    0.84240   0.19050   0.92830   1.000
    H472    H    0.56362   0.09921   0.87020   1.000
    H473    H    0.56384   0.12691   0.90156   1.000
    H474    H    0.81911   0.19748   0.91352   1.000
    H475    H    0.80647   0.15614   0.92890   1.000
    H476    H    0.84702   0.17378   0.94117   1.000
    H477    H    0.56373   0.12836   0.90122   1.000
    H478    H    0.80580   0.68040   0.41420   1.000
    H479    H    0.82590   0.65500   0.43850   1.000
    H480    H    0.84240   0.69050   0.42830   1.000
    H481    H    0.56362   0.59921   0.37020   1.000
    H482    H    0.56384   0.62691   0.40156   1.000
    H483    H    0.81911   0.69748   0.41352   1.000
    H484    H    0.80647   0.65614   0.42890   1.000
    H485    H    0.84702   0.67378   0.44117   1.000
    H486    H    0.56373   0.62836   0.40122   1.000
    H487    H    0.30580   0.18040   0.41420   1.000
    H488    H    0.32590   0.15500   0.43850   1.000
    H489    H    0.34240   0.19050   0.42830   1.000
    H490    H    0.06362   0.09921   0.37020   1.000
    H491    H    0.06384   0.12691   0.40156   1.000
    H492    H    0.31911   0.19748   0.41352   1.000
    H493    H    0.30647   0.15614   0.42890   1.000
    H494    H    0.34702   0.17378   0.44117   1.000
    H495    H    0.06373   0.12836   0.40122   1.000
    H496    H    0.30580   0.68040   0.91420   1.000
    H497    H    0.32590   0.65500   0.93850   1.000
    H498    H    0.34240   0.69050   0.92830   1.000
    H499    H    0.06362   0.59921   0.87020   1.000
    H500    H    0.06384   0.62691   0.90156   1.000
    H501    H    0.31911   0.69748   0.91352   1.000
    H502    H    0.30647   0.65614   0.92890   1.000
    H503    H    0.34702   0.67378   0.94117   1.000
    H504    H    0.06373   0.62836   0.90122   1.000
    H505    H    0.19420   0.18040   0.08580   1.000
    H506    H    0.17410   0.15500   0.06150   1.000
    H507    H    0.15760   0.19050   0.07170   1.000
    H508    H    0.43638   0.09921   0.12980   1.000
    H509    H    0.43616   0.12691   0.09844   1.000
    H510    H    0.18089   0.19748   0.08648   1.000
    H511    H    0.19353   0.15614   0.07110   1.000
    H512    H    0.15298   0.17378   0.05883   1.000
    H513    H    0.43627   0.12836   0.09878   1.000
    H514    H    0.19420   0.68040   0.58580   1.000
    H515    H    0.17410   0.65500   0.56150   1.000
    H516    H    0.15760   0.69050   0.57170   1.000
    H517    H    0.43638   0.59921   0.62980   1.000
    H518    H    0.43616   0.62691   0.59844   1.000
    H519    H    0.18089   0.69748   0.58648   1.000
    H520    H    0.19353   0.65614   0.57110   1.000
    H521    H    0.15298   0.67378   0.55883   1.000
    H522    H    0.43627   0.62836   0.59878   1.000
    H523    H    0.69420   0.18040   0.58580   1.000
    H524    H    0.67410   0.15500   0.56150   1.000
    H525    H    0.65760   0.19050   0.57170   1.000
    H526    H    0.93638   0.09921   0.62980   1.000
    H527    H    0.93616   0.12691   0.59844   1.000
    H528    H    0.68089   0.19748   0.58648   1.000
    H529    H    0.69353   0.15614   0.57110   1.000
    H530    H    0.65298   0.17378   0.55883   1.000
    H531    H    0.93627   0.12836   0.59878   1.000
    H532    H    0.69420   0.68040   0.08580   1.000
    H533    H    0.67410   0.65500   0.06150   1.000
    H534    H    0.65760   0.69050   0.07170   1.000
    H535    H    0.93638   0.59921   0.12980   1.000
    H536    H    0.93616   0.62691   0.09844   1.000
    H537    H    0.68089   0.69748   0.08648   1.000
    H538    H    0.69353   0.65614   0.07110   1.000
    H539    H    0.65298   0.67378   0.05883   1.000
    H540    H    0.93627   0.62836   0.09878   1.000
    H541    H    0.80580   0.81960   0.08580   1.000
    H542    H    0.82590   0.84500   0.06150   1.000
    H543    H    0.84240   0.80950   0.07170   1.000
    H544    H    0.56362   0.90079   0.12980   1.000
    H545    H    0.56384   0.87309   0.09844   1.000
    H546    H    0.81911   0.80252   0.08648   1.000
    H547    H    0.80647   0.84386   0.07110   1.000
    H548    H    0.84702   0.82622   0.05883   1.000
    H549    H    0.56373   0.87164   0.09878   1.000
    H550    H    0.80580   0.31960   0.58580   1.000
    H551    H    0.82590   0.34500   0.56150   1.000
    H552    H    0.84240   0.30950   0.57170   1.000
    H553    H    0.56362   0.40079   0.62980   1.000
    H554    H    0.56384   0.37309   0.59844   1.000
    H555    H    0.81911   0.30252   0.58648   1.000
    H556    H    0.80647   0.34386   0.57110   1.000
    H557    H    0.84702   0.32622   0.55883   1.000
    H558    H    0.56373   0.37164   0.59878   1.000
    H559    H    0.30580   0.81960   0.58580   1.000
    H560    H    0.32590   0.84500   0.56150   1.000
    H561    H    0.34240   0.80950   0.57170   1.000
    H562    H    0.06362   0.90079   0.62980   1.000
    H563    H    0.06384   0.87309   0.59844   1.000
    H564    H    0.31911   0.80252   0.58648   1.000
    H565    H    0.30647   0.84386   0.57110   1.000
    H566    H    0.34702   0.82622   0.55883   1.000
    H567    H    0.06373   0.87164   0.59878   1.000
    H568    H    0.30580   0.31960   0.08580   1.000
    H569    H    0.32590   0.34500   0.06150   1.000
    H570    H    0.34240   0.30950   0.07170   1.000
    H571    H    0.06362   0.40079   0.12980   1.000
    H572    H    0.06384   0.37309   0.09844   1.000
    H573    H    0.31911   0.30252   0.08648   1.000
    H574    H    0.30647   0.34386   0.07110   1.000
    H575    H    0.34702   0.32622   0.05883   1.000
    H576    H    0.06373   0.37164   0.09878   1.000
    H577    H    0.81960   0.08580   0.80580   1.000
    H578    H    0.84500   0.06150   0.82590   1.000
    H579    H    0.80950   0.07170   0.84240   1.000
    H580    H    0.90079   0.12980   0.56362   1.000
    H581    H    0.87309   0.09844   0.56384   1.000
    H582    H    0.80252   0.08648   0.81911   1.000
    H583    H    0.84386   0.07110   0.80647   1.000
    H584    H    0.82622   0.05883   0.84702   1.000
    H585    H    0.87164   0.09878   0.56373   1.000
    H586    H    0.81960   0.58580   0.30580   1.000
    H587    H    0.84500   0.56150   0.32590   1.000
    H588    H    0.80950   0.57170   0.34240   1.000
    H589    H    0.90079   0.62980   0.06362   1.000
    H590    H    0.87309   0.59844   0.06384   1.000
    H591    H    0.80252   0.58648   0.31911   1.000
    H592    H    0.84386   0.57110   0.30647   1.000
    H593    H    0.82622   0.55883   0.34702   1.000
    H594    H    0.87164   0.59878   0.06373   1.000
    H595    H    0.31960   0.08580   0.30580   1.000
    H596    H    0.34500   0.06150   0.32590   1.000
    H597    H    0.30950   0.07170   0.34240   1.000
    H598    H    0.40079   0.12980   0.06362   1.000
    H599    H    0.37309   0.09844   0.06384   1.000
    H600    H    0.30252   0.08648   0.31911   1.000
    H601    H    0.34386   0.07110   0.30647   1.000
    H602    H    0.32622   0.05883   0.34702   1.000
    H603    H    0.37164   0.09878   0.06373   1.000
    H604    H    0.31960   0.58580   0.80580   1.000
    H605    H    0.34500   0.56150   0.82590   1.000
    H606    H    0.30950   0.57170   0.84240   1.000
    H607    H    0.40079   0.62980   0.56362   1.000
    H608    H    0.37309   0.59844   0.56384   1.000
    H609    H    0.30252   0.58648   0.81911   1.000
    H610    H    0.34386   0.57110   0.80647   1.000
    H611    H    0.32622   0.55883   0.84702   1.000
    H612    H    0.37164   0.59878   0.56373   1.000
    H613    H    0.18040   0.08580   0.19420   1.000
    H614    H    0.15500   0.06150   0.17410   1.000
    H615    H    0.19050   0.07170   0.15760   1.000
    H616    H    0.09921   0.12980   0.43638   1.000
    H617    H    0.12691   0.09844   0.43616   1.000
    H618    H    0.19748   0.08648   0.18089   1.000
    H619    H    0.15614   0.07110   0.19353   1.000
    H620    H    0.17378   0.05883   0.15298   1.000
    H621    H    0.12836   0.09878   0.43627   1.000
    H622    H    0.18040   0.58580   0.69420   1.000
    H623    H    0.15500   0.56150   0.67410   1.000
    H624    H    0.19050   0.57170   0.65760   1.000
    H625    H    0.09921   0.62980   0.93638   1.000
    H626    H    0.12691   0.59844   0.93616   1.000
    H627    H    0.19748   0.58648   0.68089   1.000
    H628    H    0.15614   0.57110   0.69353   1.000
    H629    H    0.17378   0.55883   0.65298   1.000
    H630    H    0.12836   0.59878   0.93627   1.000
    H631    H    0.68040   0.08580   0.69420   1.000
    H632    H    0.65500   0.06150   0.67410   1.000
    H633    H    0.69050   0.07170   0.65760   1.000
    H634    H    0.59921   0.12980   0.93638   1.000
    H635    H    0.62691   0.09844   0.93616   1.000
    H636    H    0.69748   0.08648   0.68089   1.000
    H637    H    0.65614   0.07110   0.69353   1.000
    H638    H    0.67378   0.05883   0.65298   1.000
    H639    H    0.62836   0.09878   0.93627   1.000
    H640    H    0.68040   0.58580   0.19420   1.000
    H641    H    0.65500   0.56150   0.17410   1.000
    H642    H    0.69050   0.57170   0.15760   1.000
    H643    H    0.59921   0.62980   0.43638   1.000
    H644    H    0.62691   0.59844   0.43616   1.000
    H645    H    0.69748   0.58648   0.18089   1.000
    H646    H    0.65614   0.57110   0.19353   1.000
    H647    H    0.67378   0.55883   0.15298   1.000
    H648    H    0.62836   0.59878   0.43627   1.000
    H649    H    0.18040   0.91420   0.80580   1.000
    H650    H    0.15500   0.93850   0.82590   1.000
    H651    H    0.19050   0.92830   0.84240   1.000
    H652    H    0.09921   0.87020   0.56362   1.000
    H653    H    0.12691   0.90156   0.56384   1.000
    H654    H    0.19748   0.91352   0.81911   1.000
    H655    H    0.15614   0.92890   0.80647   1.000
    H656    H    0.17378   0.94117   0.84702   1.000
    H657    H    0.12836   0.90122   0.56373   1.000
    H658    H    0.18040   0.41420   0.30580   1.000
    H659    H    0.15500   0.43850   0.32590   1.000
    H660    H    0.19050   0.42830   0.34240   1.000
    H661    H    0.09921   0.37020   0.06362   1.000
    H662    H    0.12691   0.40156   0.06384   1.000
    H663    H    0.19748   0.41352   0.31911   1.000
    H664    H    0.15614   0.42890   0.30647   1.000
    H665    H    0.17378   0.44117   0.34702   1.000
    H666    H    0.12836   0.40122   0.06373   1.000
    H667    H    0.68040   0.91420   0.30580   1.000
    H668    H    0.65500   0.93850   0.32590   1.000
    H669    H    0.69050   0.92830   0.34240   1.000
    H670    H    0.59921   0.87020   0.06362   1.000
    H671    H    0.62691   0.90156   0.06384   1.000
    H672    H    0.69748   0.91352   0.31911   1.000
    H673    H    0.65614   0.92890   0.30647   1.000
    H674    H    0.67378   0.94117   0.34702   1.000
    H675    H    0.62836   0.90122   0.06373   1.000
    H676    H    0.68040   0.41420   0.80580   1.000
    H677    H    0.65500   0.43850   0.82590   1.000
    H678    H    0.69050   0.42830   0.84240   1.000
    H679    H    0.59921   0.37020   0.56362   1.000
    H680    H    0.62691   0.40156   0.56384   1.000
    H681    H    0.69748   0.41352   0.81911   1.000
    H682    H    0.65614   0.42890   0.80647   1.000
    H683    H    0.67378   0.44117   0.84702   1.000
    H684    H    0.62836   0.40122   0.56373   1.000
    H685    H    0.81960   0.91420   0.19420   1.000
    H686    H    0.84500   0.93850   0.17410   1.000
    H687    H    0.80950   0.92830   0.15760   1.000
    H688    H    0.90079   0.87020   0.43638   1.000
    H689    H    0.87309   0.90156   0.43616   1.000
    H690    H    0.80252   0.91352   0.18089   1.000
    H691    H    0.84386   0.92890   0.19353   1.000
    H692    H    0.82622   0.94117   0.15298   1.000
    H693    H    0.87164   0.90122   0.43627   1.000
    H694    H    0.81960   0.41420   0.69420   1.000
    H695    H    0.84500   0.43850   0.67410   1.000
    H696    H    0.80950   0.42830   0.65760   1.000
    H697    H    0.90079   0.37020   0.93638   1.000
    H698    H    0.87309   0.40156   0.93616   1.000
    H699    H    0.80252   0.41352   0.68089   1.000
    H700    H    0.84386   0.42890   0.69353   1.000
    H701    H    0.82622   0.44117   0.65298   1.000
    H702    H    0.87164   0.40122   0.93627   1.000
    H703    H    0.31960   0.91420   0.69420   1.000
    H704    H    0.34500   0.93850   0.67410   1.000
    H705    H    0.30950   0.92830   0.65760   1.000
    H706    H    0.40079   0.87020   0.93638   1.000
    H707    H    0.37309   0.90156   0.93616   1.000
    H708    H    0.30252   0.91352   0.68089   1.000
    H709    H    0.34386   0.92890   0.69353   1.000
    H710    H    0.32622   0.94117   0.65298   1.000
    H711    H    0.37164   0.90122   0.93627   1.000
    H712    H    0.31960   0.41420   0.19420   1.000
    H713    H    0.34500   0.43850   0.17410   1.000
    H714    H    0.30950   0.42830   0.15760   1.000
    H715    H    0.40079   0.37020   0.43638   1.000
    H716    H    0.37309   0.40156   0.43616   1.000
    H717    H    0.30252   0.41352   0.18089   1.000
    H718    H    0.34386   0.42890   0.19353   1.000
    H719    H    0.32622   0.44117   0.15298   1.000
    H720    H    0.37164   0.40122   0.43627   1.000
    H721    H    0.08580   0.19420   0.18040   1.000
    H722    H    0.06150   0.17410   0.15500   1.000
    H723    H    0.07170   0.15760   0.19050   1.000
    H724    H    0.12980   0.43638   0.09921   1.000
    H725    H    0.09844   0.43616   0.12691   1.000
    H726    H    0.08648   0.18089   0.19748   1.000
    H727    H    0.07110   0.19353   0.15614   1.000
    H728    H    0.05883   0.15298   0.17378   1.000
    H729    H    0.09878   0.43627   0.12836   1.000
    H730    H    0.08580   0.69420   0.68040   1.000
    H731    H    0.06150   0.67410   0.65500   1.000
    H732    H    0.07170   0.65760   0.69050   1.000
    H733    H    0.12980   0.93638   0.59921   1.000
    H734    H    0.09844   0.93616   0.62691   1.000
    H735    H    0.08648   0.68089   0.69748   1.000
    H736    H    0.07110   0.69353   0.65614   1.000
    H737    H    0.05883   0.65298   0.67378   1.000
    H738    H    0.09878   0.93627   0.62836   1.000
    H739    H    0.58580   0.19420   0.68040   1.000
    H740    H    0.56150   0.17410   0.65500   1.000
    H741    H    0.57170   0.15760   0.69050   1.000
    H742    H    0.62980   0.43638   0.59921   1.000
    H743    H    0.59844   0.43616   0.62691   1.000
    H744    H    0.58648   0.18089   0.69748   1.000
    H745    H    0.57110   0.19353   0.65614   1.000
    H746    H    0.55883   0.15298   0.67378   1.000
    H747    H    0.59878   0.43627   0.62836   1.000
    H748    H    0.58580   0.69420   0.18040   1.000
    H749    H    0.56150   0.67410   0.15500   1.000
    H750    H    0.57170   0.65760   0.19050   1.000
    H751    H    0.62980   0.93638   0.09921   1.000
    H752    H    0.59844   0.93616   0.12691   1.000
    H753    H    0.58648   0.68089   0.19748   1.000
    H754    H    0.57110   0.69353   0.15614   1.000
    H755    H    0.55883   0.65298   0.17378   1.000
    H756    H    0.59878   0.93627   0.12836   1.000
    H757    H    0.08580   0.80580   0.81960   1.000
    H758    H    0.06150   0.82590   0.84500   1.000
    H759    H    0.07170   0.84240   0.80950   1.000
    H760    H    0.12980   0.56362   0.90079   1.000
    H761    H    0.09844   0.56384   0.87309   1.000
    H762    H    0.08648   0.81911   0.80252   1.000
    H763    H    0.07110   0.80647   0.84386   1.000
    H764    H    0.05883   0.84702   0.82622   1.000
    H765    H    0.09878   0.56373   0.87164   1.000
    H766    H    0.08580   0.30580   0.31960   1.000
    H767    H    0.06150   0.32590   0.34500   1.000
    H768    H    0.07170   0.34240   0.30950   1.000
    H769    H    0.12980   0.06362   0.40079   1.000
    H770    H    0.09844   0.06384   0.37309   1.000
    H771    H    0.08648   0.31911   0.30252   1.000
    H772    H    0.07110   0.30647   0.34386   1.000
    H773    H    0.05883   0.34702   0.32622   1.000
    H774    H    0.09878   0.06373   0.37164   1.000
    H775    H    0.58580   0.80580   0.31960   1.000
    H776    H    0.56150   0.82590   0.34500   1.000
    H777    H    0.57170   0.84240   0.30950   1.000
    H778    H    0.62980   0.56362   0.40079   1.000
    H779    H    0.59844   0.56384   0.37309   1.000
    H780    H    0.58648   0.81911   0.30252   1.000
    H781    H    0.57110   0.80647   0.34386   1.000
    H782    H    0.55883   0.84702   0.32622   1.000
    H783    H    0.59878   0.56373   0.37164   1.000
    H784    H    0.58580   0.30580   0.81960   1.000
    H785    H    0.56150   0.32590   0.84500   1.000
    H786    H    0.57170   0.34240   0.80950   1.000
    H787    H    0.62980   0.06362   0.90079   1.000
    H788    H    0.59844   0.06384   0.87309   1.000
    H789    H    0.58648   0.31911   0.80252   1.000
    H790    H    0.57110   0.30647   0.84386   1.000
    H791    H    0.55883   0.34702   0.82622   1.000
    H792    H    0.59878   0.06373   0.87164   1.000
    H793    H    0.91420   0.19420   0.81960   1.000
    H794    H    0.93850   0.17410   0.84500   1.000
    H795    H    0.92830   0.15760   0.80950   1.000
    H796    H    0.87020   0.43638   0.90079   1.000
    H797    H    0.90156   0.43616   0.87309   1.000
    H798    H    0.91352   0.18089   0.80252   1.000
    H799    H    0.92890   0.19353   0.84386   1.000
    H800    H    0.94117   0.15298   0.82622   1.000
    H801    H    0.90122   0.43627   0.87164   1.000
    H802    H    0.91420   0.69420   0.31960   1.000
    H803    H    0.93850   0.67410   0.34500   1.000
    H804    H    0.92830   0.65760   0.30950   1.000
    H805    H    0.87020   0.93638   0.40079   1.000
    H806    H    0.90156   0.93616   0.37309   1.000
    H807    H    0.91352   0.68089   0.30252   1.000
    H808    H    0.92890   0.69353   0.34386   1.000
    H809    H    0.94117   0.65298   0.32622   1.000
    H810    H    0.90122   0.93627   0.37164   1.000
    H811    H    0.41420   0.19420   0.31960   1.000
    H812    H    0.43850   0.17410   0.34500   1.000
    H813    H    0.42830   0.15760   0.30950   1.000
    H814    H    0.37020   0.43638   0.40079   1.000
    H815    H    0.40156   0.43616   0.37309   1.000
    H816    H    0.41352   0.18089   0.30252   1.000
    H817    H    0.42890   0.19353   0.34386   1.000
    H818    H    0.44117   0.15298   0.32622   1.000
    H819    H    0.40122   0.43627   0.37164   1.000
    H820    H    0.41420   0.69420   0.81960   1.000
    H821    H    0.43850   0.67410   0.84500   1.000
    H822    H    0.42830   0.65760   0.80950   1.000
    H823    H    0.37020   0.93638   0.90079   1.000
    H824    H    0.40156   0.93616   0.87309   1.000
    H825    H    0.41352   0.68089   0.80252   1.000
    H826    H    0.42890   0.69353   0.84386   1.000
    H827    H    0.44117   0.65298   0.82622   1.000
    H828    H    0.40122   0.93627   0.87164   1.000
    H829    H    0.91420   0.80580   0.18040   1.000
    H830    H    0.93850   0.82590   0.15500   1.000
    H831    H    0.92830   0.84240   0.19050   1.000
    H832    H    0.87020   0.56362   0.09921   1.000
    H833    H    0.90156   0.56384   0.12691   1.000
    H834    H    0.91352   0.81911   0.19748   1.000
    H835    H    0.92890   0.80647   0.15614   1.000
    H836    H    0.94117   0.84702   0.17378   1.000
    H837    H    0.90122   0.56373   0.12836   1.000
    H838    H    0.91420   0.30580   0.68040   1.000
    H839    H    0.93850   0.32590   0.65500   1.000
    H840    H    0.92830   0.34240   0.69050   1.000
    H841    H    0.87020   0.06362   0.59921   1.000
    H842    H    0.90156   0.06384   0.62691   1.000
    H843    H    0.91352   0.31911   0.69748   1.000
    H844    H    0.92890   0.30647   0.65614   1.000
    H845    H    0.94117   0.34702   0.67378   1.000
    H846    H    0.90122   0.06373   0.62836   1.000
    H847    H    0.41420   0.80580   0.68040   1.000
    H848    H    0.43850   0.82590   0.65500   1.000
    H849    H    0.42830   0.84240   0.69050   1.000
    H850    H    0.37020   0.56362   0.59921   1.000
    H851    H    0.40156   0.56384   0.62691   1.000
    H852    H    0.41352   0.81911   0.69748   1.000
    H853    H    0.42890   0.80647   0.65614   1.000
    H854    H    0.44117   0.84702   0.67378   1.000
    H855    H    0.40122   0.56373   0.62836   1.000
    H856    H    0.41420   0.30580   0.18040   1.000
    H857    H    0.43850   0.32590   0.15500   1.000
    H858    H    0.42830   0.34240   0.19050   1.000
    H859    H    0.37020   0.06362   0.09921   1.000
    H860    H    0.40156   0.06384   0.12691   1.000
    H861    H    0.41352   0.31911   0.19748   1.000
    H862    H    0.42890   0.30647   0.15614   1.000
    H863    H    0.44117   0.34702   0.17378   1.000
    H864    H    0.40122   0.06373   0.12836   1.000
    H865    H    0.18040   0.80580   0.91420   1.000
    H866    H    0.15500   0.82590   0.93850   1.000
    H867    H    0.19050   0.84240   0.92830   1.000
    H868    H    0.09921   0.56362   0.87020   1.000
    H869    H    0.12691   0.56384   0.90156   1.000
    H870    H    0.19748   0.81911   0.91352   1.000
    H871    H    0.15614   0.80647   0.92890   1.000
    H872    H    0.17378   0.84702   0.94117   1.000
    H873    H    0.12836   0.56373   0.90122   1.000
    H874    H    0.18040   0.30580   0.41420   1.000
    H875    H    0.15500   0.32590   0.43850   1.000
    H876    H    0.19050   0.34240   0.42830   1.000
    H877    H    0.09921   0.06362   0.37020   1.000
    H878    H    0.12691   0.06384   0.40156   1.000
    H879    H    0.19748   0.31911   0.41352   1.000
    H880    H    0.15614   0.30647   0.42890   1.000
    H881    H    0.17378   0.34702   0.44117   1.000
    H882    H    0.12836   0.06373   0.40122   1.000
    H883    H    0.68040   0.80580   0.41420   1.000
    H884    H    0.65500   0.82590   0.43850   1.000
    H885    H    0.69050   0.84240   0.42830   1.000
    H886    H    0.59921   0.56362   0.37020   1.000
    H887    H    0.62691   0.56384   0.40156   1.000
    H888    H    0.69748   0.81911   0.41352   1.000
    H889    H    0.65614   0.80647   0.42890   1.000
    H890    H    0.67378   0.84702   0.44117   1.000
    H891    H    0.62836   0.56373   0.40122   1.000
    H892    H    0.68040   0.30580   0.91420   1.000
    H893    H    0.65500   0.32590   0.93850   1.000
    H894    H    0.69050   0.34240   0.92830   1.000
    H895    H    0.59921   0.06362   0.87020   1.000
    H896    H    0.62691   0.06384   0.90156   1.000
    H897    H    0.69748   0.31911   0.91352   1.000
    H898    H    0.65614   0.30647   0.92890   1.000
    H899    H    0.67378   0.34702   0.94117   1.000
    H900    H    0.62836   0.06373   0.90122   1.000
    H901    H    0.81960   0.19420   0.91420   1.000
    H902    H    0.84500   0.17410   0.93850   1.000
    H903    H    0.80950   0.15760   0.92830   1.000
    H904    H    0.90079   0.43638   0.87020   1.000
    H905    H    0.87309   0.43616   0.90156   1.000
    H906    H    0.80252   0.18089   0.91352   1.000
    H907    H    0.84386   0.19353   0.92890   1.000
    H908    H    0.82622   0.15298   0.94117   1.000
    H909    H    0.87164   0.43627   0.90122   1.000
    H910    H    0.81960   0.69420   0.41420   1.000
    H911    H    0.84500   0.67410   0.43850   1.000
    H912    H    0.80950   0.65760   0.42830   1.000
    H913    H    0.90079   0.93638   0.37020   1.000
    H914    H    0.87309   0.93616   0.40156   1.000
    H915    H    0.80252   0.68089   0.41352   1.000
    H916    H    0.84386   0.69353   0.42890   1.000
    H917    H    0.82622   0.65298   0.44117   1.000
    H918    H    0.87164   0.93627   0.40122   1.000
    H919    H    0.31960   0.19420   0.41420   1.000
    H920    H    0.34500   0.17410   0.43850   1.000
    H921    H    0.30950   0.15760   0.42830   1.000
    H922    H    0.40079   0.43638   0.37020   1.000
    H923    H    0.37309   0.43616   0.40156   1.000
    H924    H    0.30252   0.18089   0.41352   1.000
    H925    H    0.34386   0.19353   0.42890   1.000
    H926    H    0.32622   0.15298   0.44117   1.000
    H927    H    0.37164   0.43627   0.40122   1.000
    H928    H    0.31960   0.69420   0.91420   1.000
    H929    H    0.34500   0.67410   0.93850   1.000
    H930    H    0.30950   0.65760   0.92830   1.000
    H931    H    0.40079   0.93638   0.87020   1.000
    H932    H    0.37309   0.93616   0.90156   1.000
    H933    H    0.30252   0.68089   0.91352   1.000
    H934    H    0.34386   0.69353   0.92890   1.000
    H935    H    0.32622   0.65298   0.94117   1.000
    H936    H    0.37164   0.93627   0.90122   1.000
    H937    H    0.81960   0.80580   0.08580   1.000
    H938    H    0.84500   0.82590   0.06150   1.000
    H939    H    0.80950   0.84240   0.07170   1.000
    H940    H    0.90079   0.56362   0.12980   1.000
    H941    H    0.87309   0.56384   0.09844   1.000
    H942    H    0.80252   0.81911   0.08648   1.000
    H943    H    0.84386   0.80647   0.07110   1.000
    H944    H    0.82622   0.84702   0.05883   1.000
    H945    H    0.87164   0.56373   0.09878   1.000
    H946    H    0.81960   0.30580   0.58580   1.000
    H947    H    0.84500   0.32590   0.56150   1.000
    H948    H    0.80950   0.34240   0.57170   1.000
    H949    H    0.90079   0.06362   0.62980   1.000
    H950    H    0.87309   0.06384   0.59844   1.000
    H951    H    0.80252   0.31911   0.58648   1.000
    H952    H    0.84386   0.30647   0.57110   1.000
    H953    H    0.82622   0.34702   0.55883   1.000
    H954    H    0.87164   0.06373   0.59878   1.000
    H955    H    0.31960   0.80580   0.58580   1.000
    H956    H    0.34500   0.82590   0.56150   1.000
    H957    H    0.30950   0.84240   0.57170   1.000
    H958    H    0.40079   0.56362   0.62980   1.000
    H959    H    0.37309   0.56384   0.59844   1.000
    H960    H    0.30252   0.81911   0.58648   1.000
    H961    H    0.34386   0.80647   0.57110   1.000
    H962    H    0.32622   0.84702   0.55883   1.000
    H963    H    0.37164   0.56373   0.59878   1.000
    H964    H    0.31960   0.30580   0.08580   1.000
    H965    H    0.34500   0.32590   0.06150   1.000
    H966    H    0.30950   0.34240   0.07170   1.000
    H967    H    0.40079   0.06362   0.12980   1.000
    H968    H    0.37309   0.06384   0.09844   1.000
    H969    H    0.30252   0.31911   0.08648   1.000
    H970    H    0.34386   0.30647   0.07110   1.000
    H971    H    0.32622   0.34702   0.05883   1.000
    H972    H    0.37164   0.06373   0.09878   1.000
    H973    H    0.18040   0.19420   0.08580   1.000
    H974    H    0.15500   0.17410   0.06150   1.000
    H975    H    0.19050   0.15760   0.07170   1.000
    H976    H    0.09921   0.43638   0.12980   1.000
    H977    H    0.12691   0.43616   0.09844   1.000
    H978    H    0.19748   0.18089   0.08648   1.000
    H979    H    0.15614   0.19353   0.07110   1.000
    H980    H    0.17378   0.15298   0.05883   1.000
    H981    H    0.12836   0.43627   0.09878   1.000
    H982    H    0.18040   0.69420   0.58580   1.000
    H983    H    0.15500   0.67410   0.56150   1.000
    H984    H    0.19050   0.65760   0.57170   1.000
    H985    H    0.09921   0.93638   0.62980   1.000
    H986    H    0.12691   0.93616   0.59844   1.000
    H987    H    0.19748   0.68089   0.58648   1.000
    H988    H    0.15614   0.69353   0.57110   1.000
    H989    H    0.17378   0.65298   0.55883   1.000
    H990    H    0.12836   0.93627   0.59878   1.000
    H991    H    0.68040   0.19420   0.58580   1.000
    H992    H    0.65500   0.17410   0.56150   1.000
    H993    H    0.69050   0.15760   0.57170   1.000
    H994    H    0.59921   0.43638   0.62980   1.000
    H995    H    0.62691   0.43616   0.59844   1.000
    H996    H    0.69748   0.18089   0.58648   1.000
    H997    H    0.65614   0.19353   0.57110   1.000
    H998    H    0.67378   0.15298   0.55883   1.000
    H999    H    0.62836   0.43627   0.59878   1.000
    H1000   H    0.68040   0.69420   0.08580   1.000
    H1001   H    0.65500   0.67410   0.06150   1.000
    H1002   H    0.69050   0.65760   0.07170   1.000
    H1003   H    0.59921   0.93638   0.12980   1.000
    H1004   H    0.62691   0.93616   0.09844   1.000
    H1005   H    0.69748   0.68089   0.08648   1.000
    H1006   H    0.65614   0.69353   0.07110   1.000
    H1007   H    0.67378   0.65298   0.05883   1.000
    H1008   H    0.62836   0.93627   0.09878   1.000
    H1009   H    0.91420   0.18040   0.80580   1.000
    H1010   H    0.93850   0.15500   0.82590   1.000
    H1011   H    0.92830   0.19050   0.84240   1.000
    H1012   H    0.87020   0.09921   0.56362   1.000
    H1013   H    0.90156   0.12691   0.56384   1.000
    H1014   H    0.91352   0.19748   0.81911   1.000
    H1015   H    0.92890   0.15614   0.80647   1.000
    H1016   H    0.94117   0.17378   0.84702   1.000
    H1017   H    0.90122   0.12836   0.56373   1.000
    H1018   H    0.91420   0.68040   0.30580   1.000
    H1019   H    0.93850   0.65500   0.32590   1.000
    H1020   H    0.92830   0.69050   0.34240   1.000
    H1021   H    0.87020   0.59921   0.06362   1.000
    H1022   H    0.90156   0.62691   0.06384   1.000
    H1023   H    0.91352   0.69748   0.31911   1.000
    H1024   H    0.92890   0.65614   0.30647   1.000
    H1025   H    0.94117   0.67378   0.34702   1.000
    H1026   H    0.90122   0.62836   0.06373   1.000
    H1027   H    0.41420   0.18040   0.30580   1.000
    H1028   H    0.43850   0.15500   0.32590   1.000
    H1029   H    0.42830   0.19050   0.34240   1.000
    H1030   H    0.37020   0.09921   0.06362   1.000
    H1031   H    0.40156   0.12691   0.06384   1.000
    H1032   H    0.41352   0.19748   0.31911   1.000
    H1033   H    0.42890   0.15614   0.30647   1.000
    H1034   H    0.44117   0.17378   0.34702   1.000
    H1035   H    0.40122   0.12836   0.06373   1.000
    H1036   H    0.41420   0.68040   0.80580   1.000
    H1037   H    0.43850   0.65500   0.82590   1.000
    H1038   H    0.42830   0.69050   0.84240   1.000
    H1039   H    0.37020   0.59921   0.56362   1.000
    H1040   H    0.40156   0.62691   0.56384   1.000
    H1041   H    0.41352   0.69748   0.81911   1.000
    H1042   H    0.42890   0.65614   0.80647   1.000
    H1043   H    0.44117   0.67378   0.84702   1.000
    H1044   H    0.40122   0.62836   0.56373   1.000
    H1045   H    0.91420   0.81960   0.19420   1.000
    H1046   H    0.93850   0.84500   0.17410   1.000
    H1047   H    0.92830   0.80950   0.15760   1.000
    H1048   H    0.87020   0.90079   0.43638   1.000
    H1049   H    0.90156   0.87309   0.43616   1.000
    H1050   H    0.91352   0.80252   0.18089   1.000
    H1051   H    0.92890   0.84386   0.19353   1.000
    H1052   H    0.94117   0.82622   0.15298   1.000
    H1053   H    0.90122   0.87164   0.43627   1.000
    H1054   H    0.91420   0.31960   0.69420   1.000
    H1055   H    0.93850   0.34500   0.67410   1.000
    H1056   H    0.92830   0.30950   0.65760   1.000
    H1057   H    0.87020   0.40079   0.93638   1.000
    H1058   H    0.90156   0.37309   0.93616   1.000
    H1059   H    0.91352   0.30252   0.68089   1.000
    H1060   H    0.92890   0.34386   0.69353   1.000
    H1061   H    0.94117   0.32622   0.65298   1.000
    H1062   H    0.90122   0.37164   0.93627   1.000
    H1063   H    0.41420   0.81960   0.69420   1.000
    H1064   H    0.43850   0.84500   0.67410   1.000
    H1065   H    0.42830   0.80950   0.65760   1.000
    H1066   H    0.37020   0.90079   0.93638   1.000
    H1067   H    0.40156   0.87309   0.93616   1.000
    H1068   H    0.41352   0.80252   0.68089   1.000
    H1069   H    0.42890   0.84386   0.69353   1.000
    H1070   H    0.44117   0.82622   0.65298   1.000
    H1071   H    0.40122   0.87164   0.93627   1.000
    H1072   H    0.41420   0.31960   0.19420   1.000
    H1073   H    0.43850   0.34500   0.17410   1.000
    H1074   H    0.42830   0.30950   0.15760   1.000
    H1075   H    0.37020   0.40079   0.43638   1.000
    H1076   H    0.40156   0.37309   0.43616   1.000
    H1077   H    0.41352   0.30252   0.18089   1.000
    H1078   H    0.42890   0.34386   0.19353   1.000
    H1079   H    0.44117   0.32622   0.15298   1.000
    H1080   H    0.40122   0.37164   0.43627   1.000
    H1081   H    0.08580   0.81960   0.80580   1.000
    H1082   H    0.06150   0.84500   0.82590   1.000
    H1083   H    0.07170   0.80950   0.84240   1.000
    H1084   H    0.12980   0.90079   0.56362   1.000
    H1085   H    0.09844   0.87309   0.56384   1.000
    H1086   H    0.08648   0.80252   0.81911   1.000
    H1087   H    0.07110   0.84386   0.80647   1.000
    H1088   H    0.05883   0.82622   0.84702   1.000
    H1089   H    0.09878   0.87164   0.56373   1.000
    H1090   H    0.08580   0.31960   0.30580   1.000
    H1091   H    0.06150   0.34500   0.32590   1.000
    H1092   H    0.07170   0.30950   0.34240   1.000
    H1093   H    0.12980   0.40079   0.06362   1.000
    H1094   H    0.09844   0.37309   0.06384   1.000
    H1095   H    0.08648   0.30252   0.31911   1.000
    H1096   H    0.07110   0.34386   0.30647   1.000
    H1097   H    0.05883   0.32622   0.34702   1.000
    H1098   H    0.09878   0.37164   0.06373   1.000
    H1099   H    0.58580   0.81960   0.30580   1.000
    H1100   H    0.56150   0.84500   0.32590   1.000
    H1101   H    0.57170   0.80950   0.34240   1.000
    H1102   H    0.62980   0.90079   0.06362   1.000
    H1103   H    0.59844   0.87309   0.06384   1.000
    H1104   H    0.58648   0.80252   0.31911   1.000
    H1105   H    0.57110   0.84386   0.30647   1.000
    H1106   H    0.55883   0.82622   0.34702   1.000
    H1107   H    0.59878   0.87164   0.06373   1.000
    H1108   H    0.58580   0.31960   0.80580   1.000
    H1109   H    0.56150   0.34500   0.82590   1.000
    H1110   H    0.57170   0.30950   0.84240   1.000
    H1111   H    0.62980   0.40079   0.56362   1.000
    H1112   H    0.59844   0.37309   0.56384   1.000
    H1113   H    0.58648   0.30252   0.81911   1.000
    H1114   H    0.57110   0.34386   0.80647   1.000
    H1115   H    0.55883   0.32622   0.84702   1.000
    H1116   H    0.59878   0.37164   0.56373   1.000
    H1117   H    0.08580   0.18040   0.19420   1.000
    H1118   H    0.06150   0.15500   0.17410   1.000
    H1119   H    0.07170   0.19050   0.15760   1.000
    H1120   H    0.12980   0.09921   0.43638   1.000
    H1121   H    0.09844   0.12691   0.43616   1.000
    H1122   H    0.08648   0.19748   0.18089   1.000
    H1123   H    0.07110   0.15614   0.19353   1.000
    H1124   H    0.05883   0.17378   0.15298   1.000
    H1125   H    0.09878   0.12836   0.43627   1.000
    H1126   H    0.08580   0.68040   0.69420   1.000
    H1127   H    0.06150   0.65500   0.67410   1.000
    H1128   H    0.07170   0.69050   0.65760   1.000
    H1129   H    0.12980   0.59921   0.93638   1.000
    H1130   H    0.09844   0.62691   0.93616   1.000
    H1131   H    0.08648   0.69748   0.68089   1.000
    H1132   H    0.07110   0.65614   0.69353   1.000
    H1133   H    0.05883   0.67378   0.65298   1.000
    H1134   H    0.09878   0.62836   0.93627   1.000
    H1135   H    0.58580   0.18040   0.69420   1.000
    H1136   H    0.56150   0.15500   0.67410   1.000
    H1137   H    0.57170   0.19050   0.65760   1.000
    H1138   H    0.62980   0.09921   0.93638   1.000
    H1139   H    0.59844   0.12691   0.93616   1.000
    H1140   H    0.58648   0.19748   0.68089   1.000
    H1141   H    0.57110   0.15614   0.69353   1.000
    H1142   H    0.55883   0.17378   0.65298   1.000
    H1143   H    0.59878   0.12836   0.93627   1.000
    H1144   H    0.58580   0.68040   0.19420   1.000
    H1145   H    0.56150   0.65500   0.17410   1.000
    H1146   H    0.57170   0.69050   0.15760   1.000
    H1147   H    0.62980   0.59921   0.43638   1.000
    H1148   H    0.59844   0.62691   0.43616   1.000
    H1149   H    0.58648   0.69748   0.18089   1.000
    H1150   H    0.57110   0.65614   0.19353   1.000
    H1151   H    0.55883   0.67378   0.15298   1.000
    H1152   H    0.59878   0.62836   0.43627   1.000
    H1153   H    0.80580   0.91420   0.18040   1.000
    H1154   H    0.82590   0.93850   0.15500   1.000
    H1155   H    0.84240   0.92830   0.19050   1.000
    H1156   H    0.56362   0.87020   0.09921   1.000
    H1157   H    0.56384   0.90156   0.12691   1.000
    H1158   H    0.81911   0.91352   0.19748   1.000
    H1159   H    0.80647   0.92890   0.15614   1.000
    H1160   H    0.84702   0.94117   0.17378   1.000
    H1161   H    0.56373   0.90122   0.12836   1.000
    H1162   H    0.80580   0.41420   0.68040   1.000
    H1163   H    0.82590   0.43850   0.65500   1.000
    H1164   H    0.84240   0.42830   0.69050   1.000
    H1165   H    0.56362   0.37020   0.59921   1.000
    H1166   H    0.56384   0.40156   0.62691   1.000
    H1167   H    0.81911   0.41352   0.69748   1.000
    H1168   H    0.80647   0.42890   0.65614   1.000
    H1169   H    0.84702   0.44117   0.67378   1.000
    H1170   H    0.56373   0.40122   0.62836   1.000
    H1171   H    0.30580   0.91420   0.68040   1.000
    H1172   H    0.32590   0.93850   0.65500   1.000
    H1173   H    0.34240   0.92830   0.69050   1.000
    H1174   H    0.06362   0.87020   0.59921   1.000
    H1175   H    0.06384   0.90156   0.62691   1.000
    H1176   H    0.31911   0.91352   0.69748   1.000
    H1177   H    0.30647   0.92890   0.65614   1.000
    H1178   H    0.34702   0.94117   0.67378   1.000
    H1179   H    0.06373   0.90122   0.62836   1.000
    H1180   H    0.30580   0.41420   0.18040   1.000
    H1181   H    0.32590   0.43850   0.15500   1.000
    H1182   H    0.34240   0.42830   0.19050   1.000
    H1183   H    0.06362   0.37020   0.09921   1.000
    H1184   H    0.06384   0.40156   0.12691   1.000
    H1185   H    0.31911   0.41352   0.19748   1.000
    H1186   H    0.30647   0.42890   0.15614   1.000
    H1187   H    0.34702   0.44117   0.17378   1.000
    H1188   H    0.06373   0.40122   0.12836   1.000
    H1189   H    0.19420   0.91420   0.81960   1.000
    H1190   H    0.17410   0.93850   0.84500   1.000
    H1191   H    0.15760   0.92830   0.80950   1.000
    H1192   H    0.43638   0.87020   0.90079   1.000
    H1193   H    0.43616   0.90156   0.87309   1.000
    H1194   H    0.18089   0.91352   0.80252   1.000
    H1195   H    0.19353   0.92890   0.84386   1.000
    H1196   H    0.15298   0.94117   0.82622   1.000
    H1197   H    0.43627   0.90122   0.87164   1.000
    H1198   H    0.19420   0.41420   0.31960   1.000
    H1199   H    0.17410   0.43850   0.34500   1.000
    H1200   H    0.15760   0.42830   0.30950   1.000
    H1201   H    0.43638   0.37020   0.40079   1.000
    H1202   H    0.43616   0.40156   0.37309   1.000
    H1203   H    0.18089   0.41352   0.30252   1.000
    H1204   H    0.19353   0.42890   0.34386   1.000
    H1205   H    0.15298   0.44117   0.32622   1.000
    H1206   H    0.43627   0.40122   0.37164   1.000
    H1207   H    0.69420   0.91420   0.31960   1.000
    H1208   H    0.67410   0.93850   0.34500   1.000
    H1209   H    0.65760   0.92830   0.30950   1.000
    H1210   H    0.93638   0.87020   0.40079   1.000
    H1211   H    0.93616   0.90156   0.37309   1.000
    H1212   H    0.68089   0.91352   0.30252   1.000
    H1213   H    0.69353   0.92890   0.34386   1.000
    H1214   H    0.65298   0.94117   0.32622   1.000
    H1215   H    0.93627   0.90122   0.37164   1.000
    H1216   H    0.69420   0.41420   0.81960   1.000
    H1217   H    0.67410   0.43850   0.84500   1.000
    H1218   H    0.65760   0.42830   0.80950   1.000
    H1219   H    0.93638   0.37020   0.90079   1.000
    H1220   H    0.93616   0.40156   0.87309   1.000
    H1221   H    0.68089   0.41352   0.80252   1.000
    H1222   H    0.69353   0.42890   0.84386   1.000
    H1223   H    0.65298   0.44117   0.82622   1.000
    H1224   H    0.93627   0.40122   0.87164   1.000
    H1225   H    0.80580   0.08580   0.81960   1.000
    H1226   H    0.82590   0.06150   0.84500   1.000
    H1227   H    0.84240   0.07170   0.80950   1.000
    H1228   H    0.56362   0.12980   0.90079   1.000
    H1229   H    0.56384   0.09844   0.87309   1.000
    H1230   H    0.81911   0.08648   0.80252   1.000
    H1231   H    0.80647   0.07110   0.84386   1.000
    H1232   H    0.84702   0.05883   0.82622   1.000
    H1233   H    0.56373   0.09878   0.87164   1.000
    H1234   H    0.80580   0.58580   0.31960   1.000
    H1235   H    0.82590   0.56150   0.34500   1.000
    H1236   H    0.84240   0.57170   0.30950   1.000
    H1237   H    0.56362   0.62980   0.40079   1.000
    H1238   H    0.56384   0.59844   0.37309   1.000
    H1239   H    0.81911   0.58648   0.30252   1.000
    H1240   H    0.80647   0.57110   0.34386   1.000
    H1241   H    0.84702   0.55883   0.32622   1.000
    H1242   H    0.56373   0.59878   0.37164   1.000
    H1243   H    0.30580   0.08580   0.31960   1.000
    H1244   H    0.32590   0.06150   0.34500   1.000
    H1245   H    0.34240   0.07170   0.30950   1.000
    H1246   H    0.06362   0.12980   0.40079   1.000
    H1247   H    0.06384   0.09844   0.37309   1.000
    H1248   H    0.31911   0.08648   0.30252   1.000
    H1249   H    0.30647   0.07110   0.34386   1.000
    H1250   H    0.34702   0.05883   0.32622   1.000
    H1251   H    0.06373   0.09878   0.37164   1.000
    H1252   H    0.30580   0.58580   0.81960   1.000
    H1253   H    0.32590   0.56150   0.84500   1.000
    H1254   H    0.34240   0.57170   0.80950   1.000
    H1255   H    0.06362   0.62980   0.90079   1.000
    H1256   H    0.06384   0.59844   0.87309   1.000
    H1257   H    0.31911   0.58648   0.80252   1.000
    H1258   H    0.30647   0.57110   0.84386   1.000
    H1259   H    0.34702   0.55883   0.82622   1.000
    H1260   H    0.06373   0.59878   0.87164   1.000
    H1261   H    0.19420   0.08580   0.18040   1.000
    H1262   H    0.17410   0.06150   0.15500   1.000
    H1263   H    0.15760   0.07170   0.19050   1.000
    H1264   H    0.43638   0.12980   0.09921   1.000
    H1265   H    0.43616   0.09844   0.12691   1.000
    H1266   H    0.18089   0.08648   0.19748   1.000
    H1267   H    0.19353   0.07110   0.15614   1.000
    H1268   H    0.15298   0.05883   0.17378   1.000
    H1269   H    0.43627   0.09878   0.12836   1.000
    H1270   H    0.19420   0.58580   0.68040   1.000
    H1271   H    0.17410   0.56150   0.65500   1.000
    H1272   H    0.15760   0.57170   0.69050   1.000
    H1273   H    0.43638   0.62980   0.59921   1.000
    H1274   H    0.43616   0.59844   0.62691   1.000
    H1275   H    0.18089   0.58648   0.69748   1.000
    H1276   H    0.19353   0.57110   0.65614   1.000
    H1277   H    0.15298   0.55883   0.67378   1.000
    H1278   H    0.43627   0.59878   0.62836   1.000
    H1279   H    0.69420   0.08580   0.68040   1.000
    H1280   H    0.67410   0.06150   0.65500   1.000
    H1281   H    0.65760   0.07170   0.69050   1.000
    H1282   H    0.93638   0.12980   0.59921   1.000
    H1283   H    0.93616   0.09844   0.62691   1.000
    H1284   H    0.68089   0.08648   0.69748   1.000
    H1285   H    0.69353   0.07110   0.65614   1.000
    H1286   H    0.65298   0.05883   0.67378   1.000
    H1287   H    0.93627   0.09878   0.62836   1.000
    H1288   H    0.69420   0.58580   0.18040   1.000
    H1289   H    0.67410   0.56150   0.15500   1.000
    H1290   H    0.65760   0.57170   0.19050   1.000
    H1291   H    0.93638   0.62980   0.09921   1.000
    H1292   H    0.93616   0.59844   0.12691   1.000
    H1293   H    0.68089   0.58648   0.19748   1.000
    H1294   H    0.69353   0.57110   0.15614   1.000
    H1295   H    0.65298   0.55883   0.17378   1.000
    H1296   H    0.93627   0.59878   0.12836   1.000
    H1297   H    0.80580   0.18040   0.08580   1.000
    H1298   H    0.82590   0.15500   0.06150   1.000
    H1299   H    0.84240   0.19050   0.07170   1.000
    H1300   H    0.56362   0.09921   0.12980   1.000
    H1301   H    0.56384   0.12691   0.09844   1.000
    H1302   H    0.81911   0.19748   0.08648   1.000
    H1303   H    0.80647   0.15614   0.07110   1.000
    H1304   H    0.84702   0.17378   0.05883   1.000
    H1305   H    0.56373   0.12836   0.09878   1.000
    H1306   H    0.80580   0.68040   0.58580   1.000
    H1307   H    0.82590   0.65500   0.56150   1.000
    H1308   H    0.84240   0.69050   0.57170   1.000
    H1309   H    0.56362   0.59921   0.62980   1.000
    H1310   H    0.56384   0.62691   0.59844   1.000
    H1311   H    0.81911   0.69748   0.58648   1.000
    H1312   H    0.80647   0.65614   0.57110   1.000
    H1313   H    0.84702   0.67378   0.55883   1.000
    H1314   H    0.56373   0.62836   0.59878   1.000
    H1315   H    0.30580   0.18040   0.58580   1.000
    H1316   H    0.32590   0.15500   0.56150   1.000
    H1317   H    0.34240   0.19050   0.57170   1.000
    H1318   H    0.06362   0.09921   0.62980   1.000
    H1319   H    0.06384   0.12691   0.59844   1.000
    H1320   H    0.31911   0.19748   0.58648   1.000
    H1321   H    0.30647   0.15614   0.57110   1.000
    H1322   H    0.34702   0.17378   0.55883   1.000
    H1323   H    0.06373   0.12836   0.59878   1.000
    H1324   H    0.30580   0.68040   0.08580   1.000
    H1325   H    0.32590   0.65500   0.06150   1.000
    H1326   H    0.34240   0.69050   0.07170   1.000
    H1327   H    0.06362   0.59921   0.12980   1.000
    H1328   H    0.06384   0.62691   0.09844   1.000
    H1329   H    0.31911   0.69748   0.08648   1.000
    H1330   H    0.30647   0.65614   0.07110   1.000
    H1331   H    0.34702   0.67378   0.05883   1.000
    H1332   H    0.06373   0.62836   0.09878   1.000
    H1333   H    0.19420   0.81960   0.08580   1.000
    H1334   H    0.17410   0.84500   0.06150   1.000
    H1335   H    0.15760   0.80950   0.07170   1.000
    H1336   H    0.43638   0.90079   0.12980   1.000
    H1337   H    0.43616   0.87309   0.09844   1.000
    H1338   H    0.18089   0.80252   0.08648   1.000
    H1339   H    0.19353   0.84386   0.07110   1.000
    H1340   H    0.15298   0.82622   0.05883   1.000
    H1341   H    0.43627   0.87164   0.09878   1.000
    H1342   H    0.19420   0.31960   0.58580   1.000
    H1343   H    0.17410   0.34500   0.56150   1.000
    H1344   H    0.15760   0.30950   0.57170   1.000
    H1345   H    0.43638   0.40079   0.62980   1.000
    H1346   H    0.43616   0.37309   0.59844   1.000
    H1347   H    0.18089   0.30252   0.58648   1.000
    H1348   H    0.19353   0.34386   0.57110   1.000
    H1349   H    0.15298   0.32622   0.55883   1.000
    H1350   H    0.43627   0.37164   0.59878   1.000
    H1351   H    0.69420   0.81960   0.58580   1.000
    H1352   H    0.67410   0.84500   0.56150   1.000
    H1353   H    0.65760   0.80950   0.57170   1.000
    H1354   H    0.93638   0.90079   0.62980   1.000
    H1355   H    0.93616   0.87309   0.59844   1.000
    H1356   H    0.68089   0.80252   0.58648   1.000
    H1357   H    0.69353   0.84386   0.57110   1.000
    H1358   H    0.65298   0.82622   0.55883   1.000
    H1359   H    0.93627   0.87164   0.59878   1.000
    H1360   H    0.69420   0.31960   0.08580   1.000
    H1361   H    0.67410   0.34500   0.06150   1.000
    H1362   H    0.65760   0.30950   0.07170   1.000
    H1363   H    0.93638   0.40079   0.12980   1.000
    H1364   H    0.93616   0.37309   0.09844   1.000
    H1365   H    0.68089   0.30252   0.08648   1.000
    H1366   H    0.69353   0.34386   0.07110   1.000
    H1367   H    0.65298   0.32622   0.05883   1.000
    H1368   H    0.93627   0.37164   0.09878   1.000
    H1369   H    0.80580   0.81960   0.91420   1.000
    H1370   H    0.82590   0.84500   0.93850   1.000
    H1371   H    0.84240   0.80950   0.92830   1.000
    H1372   H    0.56362   0.90079   0.87020   1.000
    H1373   H    0.56384   0.87309   0.90156   1.000
    H1374   H    0.81911   0.80252   0.91352   1.000
    H1375   H    0.80647   0.84386   0.92890   1.000
    H1376   H    0.84702   0.82622   0.94117   1.000
    H1377   H    0.56373   0.87164   0.90122   1.000
    H1378   H    0.80580   0.31960   0.41420   1.000
    H1379   H    0.82590   0.34500   0.43850   1.000
    H1380   H    0.84240   0.30950   0.42830   1.000
    H1381   H    0.56362   0.40079   0.37020   1.000
    H1382   H    0.56384   0.37309   0.40156   1.000
    H1383   H    0.81911   0.30252   0.41352   1.000
    H1384   H    0.80647   0.34386   0.42890   1.000
    H1385   H    0.84702   0.32622   0.44117   1.000
    H1386   H    0.56373   0.37164   0.40122   1.000
    H1387   H    0.30580   0.81960   0.41420   1.000
    H1388   H    0.32590   0.84500   0.43850   1.000
    H1389   H    0.34240   0.80950   0.42830   1.000
    H1390   H    0.06362   0.90079   0.37020   1.000
    H1391   H    0.06384   0.87309   0.40156   1.000
    H1392   H    0.31911   0.80252   0.41352   1.000
    H1393   H    0.30647   0.84386   0.42890   1.000
    H1394   H    0.34702   0.82622   0.44117   1.000
    H1395   H    0.06373   0.87164   0.40122   1.000
    H1396   H    0.30580   0.31960   0.91420   1.000
    H1397   H    0.32590   0.34500   0.93850   1.000
    H1398   H    0.34240   0.30950   0.92830   1.000
    H1399   H    0.06362   0.40079   0.87020   1.000
    H1400   H    0.06384   0.37309   0.90156   1.000
    H1401   H    0.31911   0.30252   0.91352   1.000
    H1402   H    0.30647   0.34386   0.92890   1.000
    H1403   H    0.34702   0.32622   0.94117   1.000
    H1404   H    0.06373   0.37164   0.90122   1.000
    H1405   H    0.19420   0.18040   0.91420   1.000
    H1406   H    0.17410   0.15500   0.93850   1.000
    H1407   H    0.15760   0.19050   0.92830   1.000
    H1408   H    0.43638   0.09921   0.87020   1.000
    H1409   H    0.43616   0.12691   0.90156   1.000
    H1410   H    0.18089   0.19748   0.91352   1.000
    H1411   H    0.19353   0.15614   0.92890   1.000
    H1412   H    0.15298   0.17378   0.94117   1.000
    H1413   H    0.43627   0.12836   0.90122   1.000
    H1414   H    0.19420   0.68040   0.41420   1.000
    H1415   H    0.17410   0.65500   0.43850   1.000
    H1416   H    0.15760   0.69050   0.42830   1.000
    H1417   H    0.43638   0.59921   0.37020   1.000
    H1418   H    0.43616   0.62691   0.40156   1.000
    H1419   H    0.18089   0.69748   0.41352   1.000
    H1420   H    0.19353   0.65614   0.42890   1.000
    H1421   H    0.15298   0.67378   0.44117   1.000
    H1422   H    0.43627   0.62836   0.40122   1.000
    H1423   H    0.69420   0.18040   0.41420   1.000
    H1424   H    0.67410   0.15500   0.43850   1.000
    H1425   H    0.65760   0.19050   0.42830   1.000
    H1426   H    0.93638   0.09921   0.37020   1.000
    H1427   H    0.93616   0.12691   0.40156   1.000
    H1428   H    0.68089   0.19748   0.41352   1.000
    H1429   H    0.69353   0.15614   0.42890   1.000
    H1430   H    0.65298   0.17378   0.44117   1.000
    H1431   H    0.93627   0.12836   0.40122   1.000
    H1432   H    0.69420   0.68040   0.91420   1.000
    H1433   H    0.67410   0.65500   0.93850   1.000
    H1434   H    0.65760   0.69050   0.92830   1.000
    H1435   H    0.93638   0.59921   0.87020   1.000
    H1436   H    0.93616   0.62691   0.90156   1.000
    H1437   H    0.68089   0.69748   0.91352   1.000
    H1438   H    0.69353   0.65614   0.92890   1.000
    H1439   H    0.65298   0.67378   0.94117   1.000
    H1440   H    0.93627   0.62836   0.90122   1.000
    H1441   H    0.18040   0.91420   0.19420   1.000
    H1442   H    0.15500   0.93850   0.17410   1.000
    H1443   H    0.19050   0.92830   0.15760   1.000
    H1444   H    0.09921   0.87020   0.43638   1.000
    H1445   H    0.12691   0.90156   0.43616   1.000
    H1446   H    0.19748   0.91352   0.18089   1.000
    H1447   H    0.15614   0.92890   0.19353   1.000
    H1448   H    0.17378   0.94117   0.15298   1.000
    H1449   H    0.12836   0.90122   0.43627   1.000
    H1450   H    0.18040   0.41420   0.69420   1.000
    H1451   H    0.15500   0.43850   0.67410   1.000
    H1452   H    0.19050   0.42830   0.65760   1.000
    H1453   H    0.09921   0.37020   0.93638   1.000
    H1454   H    0.12691   0.40156   0.93616   1.000
    H1455   H    0.19748   0.41352   0.68089   1.000
    H1456   H    0.15614   0.42890   0.69353   1.000
    H1457   H    0.17378   0.44117   0.65298   1.000
    H1458   H    0.12836   0.40122   0.93627   1.000
    H1459   H    0.68040   0.91420   0.69420   1.000
    H1460   H    0.65500   0.93850   0.67410   1.000
    H1461   H    0.69050   0.92830   0.65760   1.000
    H1462   H    0.59921   0.87020   0.93638   1.000
    H1463   H    0.62691   0.90156   0.93616   1.000
    H1464   H    0.69748   0.91352   0.68089   1.000
    H1465   H    0.65614   0.92890   0.69353   1.000
    H1466   H    0.67378   0.94117   0.65298   1.000
    H1467   H    0.62836   0.90122   0.93627   1.000
    H1468   H    0.68040   0.41420   0.19420   1.000
    H1469   H    0.65500   0.43850   0.17410   1.000
    H1470   H    0.69050   0.42830   0.15760   1.000
    H1471   H    0.59921   0.37020   0.43638   1.000
    H1472   H    0.62691   0.40156   0.43616   1.000
    H1473   H    0.69748   0.41352   0.18089   1.000
    H1474   H    0.65614   0.42890   0.19353   1.000
    H1475   H    0.67378   0.44117   0.15298   1.000
    H1476   H    0.62836   0.40122   0.43627   1.000
    H1477   H    0.81960   0.91420   0.80580   1.000
    H1478   H    0.84500   0.93850   0.82590   1.000
    H1479   H    0.80950   0.92830   0.84240   1.000
    H1480   H    0.90079   0.87020   0.56362   1.000
    H1481   H    0.87309   0.90156   0.56384   1.000
    H1482   H    0.80252   0.91352   0.81911   1.000
    H1483   H    0.84386   0.92890   0.80647   1.000
    H1484   H    0.82622   0.94117   0.84702   1.000
    H1485   H    0.87164   0.90122   0.56373   1.000
    H1486   H    0.81960   0.41420   0.30580   1.000
    H1487   H    0.84500   0.43850   0.32590   1.000
    H1488   H    0.80950   0.42830   0.34240   1.000
    H1489   H    0.90079   0.37020   0.06362   1.000
    H1490   H    0.87309   0.40156   0.06384   1.000
    H1491   H    0.80252   0.41352   0.31911   1.000
    H1492   H    0.84386   0.42890   0.30647   1.000
    H1493   H    0.82622   0.44117   0.34702   1.000
    H1494   H    0.87164   0.40122   0.06373   1.000
    H1495   H    0.31960   0.91420   0.30580   1.000
    H1496   H    0.34500   0.93850   0.32590   1.000
    H1497   H    0.30950   0.92830   0.34240   1.000
    H1498   H    0.40079   0.87020   0.06362   1.000
    H1499   H    0.37309   0.90156   0.06384   1.000
    H1500   H    0.30252   0.91352   0.31911   1.000
    H1501   H    0.34386   0.92890   0.30647   1.000
    H1502   H    0.32622   0.94117   0.34702   1.000
    H1503   H    0.37164   0.90122   0.06373   1.000
    H1504   H    0.31960   0.41420   0.80580   1.000
    H1505   H    0.34500   0.43850   0.82590   1.000
    H1506   H    0.30950   0.42830   0.84240   1.000
    H1507   H    0.40079   0.37020   0.56362   1.000
    H1508   H    0.37309   0.40156   0.56384   1.000
    H1509   H    0.30252   0.41352   0.81911   1.000
    H1510   H    0.34386   0.42890   0.80647   1.000
    H1511   H    0.32622   0.44117   0.84702   1.000
    H1512   H    0.37164   0.40122   0.56373   1.000
    H1513   H    0.81960   0.08580   0.19420   1.000
    H1514   H    0.84500   0.06150   0.17410   1.000
    H1515   H    0.80950   0.07170   0.15760   1.000
    H1516   H    0.90079   0.12980   0.43638   1.000
    H1517   H    0.87309   0.09844   0.43616   1.000
    H1518   H    0.80252   0.08648   0.18089   1.000
    H1519   H    0.84386   0.07110   0.19353   1.000
    H1520   H    0.82622   0.05883   0.15298   1.000
    H1521   H    0.87164   0.09878   0.43627   1.000
    H1522   H    0.81960   0.58580   0.69420   1.000
    H1523   H    0.84500   0.56150   0.67410   1.000
    H1524   H    0.80950   0.57170   0.65760   1.000
    H1525   H    0.90079   0.62980   0.93638   1.000
    H1526   H    0.87309   0.59844   0.93616   1.000
    H1527   H    0.80252   0.58648   0.68089   1.000
    H1528   H    0.84386   0.57110   0.69353   1.000
    H1529   H    0.82622   0.55883   0.65298   1.000
    H1530   H    0.87164   0.59878   0.93627   1.000
    H1531   H    0.31960   0.08580   0.69420   1.000
    H1532   H    0.34500   0.06150   0.67410   1.000
    H1533   H    0.30950   0.07170   0.65760   1.000
    H1534   H    0.40079   0.12980   0.93638   1.000
    H1535   H    0.37309   0.09844   0.93616   1.000
    H1536   H    0.30252   0.08648   0.68089   1.000
    H1537   H    0.34386   0.07110   0.69353   1.000
    H1538   H    0.32622   0.05883   0.65298   1.000
    H1539   H    0.37164   0.09878   0.93627   1.000
    H1540   H    0.31960   0.58580   0.19420   1.000
    H1541   H    0.34500   0.56150   0.17410   1.000
    H1542   H    0.30950   0.57170   0.15760   1.000
    H1543   H    0.40079   0.62980   0.43638   1.000
    H1544   H    0.37309   0.59844   0.43616   1.000
    H1545   H    0.30252   0.58648   0.18089   1.000
    H1546   H    0.34386   0.57110   0.19353   1.000
    H1547   H    0.32622   0.55883   0.15298   1.000
    H1548   H    0.37164   0.59878   0.43627   1.000
    H1549   H    0.18040   0.08580   0.80580   1.000
    H1550   H    0.15500   0.06150   0.82590   1.000
    H1551   H    0.19050   0.07170   0.84240   1.000
    H1552   H    0.09921   0.12980   0.56362   1.000
    H1553   H    0.12691   0.09844   0.56384   1.000
    H1554   H    0.19748   0.08648   0.81911   1.000
    H1555   H    0.15614   0.07110   0.80647   1.000
    H1556   H    0.17378   0.05883   0.84702   1.000
    H1557   H    0.12836   0.09878   0.56373   1.000
    H1558   H    0.18040   0.58580   0.30580   1.000
    H1559   H    0.15500   0.56150   0.32590   1.000
    H1560   H    0.19050   0.57170   0.34240   1.000
    H1561   H    0.09921   0.62980   0.06362   1.000
    H1562   H    0.12691   0.59844   0.06384   1.000
    H1563   H    0.19748   0.58648   0.31911   1.000
    H1564   H    0.15614   0.57110   0.30647   1.000
    H1565   H    0.17378   0.55883   0.34702   1.000
    H1566   H    0.12836   0.59878   0.06373   1.000
    H1567   H    0.68040   0.08580   0.30580   1.000
    H1568   H    0.65500   0.06150   0.32590   1.000
    H1569   H    0.69050   0.07170   0.34240   1.000
    H1570   H    0.59921   0.12980   0.06362   1.000
    H1571   H    0.62691   0.09844   0.06384   1.000
    H1572   H    0.69748   0.08648   0.31911   1.000
    H1573   H    0.65614   0.07110   0.30647   1.000
    H1574   H    0.67378   0.05883   0.34702   1.000
    H1575   H    0.62836   0.09878   0.06373   1.000
    H1576   H    0.68040   0.58580   0.80580   1.000
    H1577   H    0.65500   0.56150   0.82590   1.000
    H1578   H    0.69050   0.57170   0.84240   1.000
    H1579   H    0.59921   0.62980   0.56362   1.000
    H1580   H    0.62691   0.59844   0.56384   1.000
    H1581   H    0.69748   0.58648   0.81911   1.000
    H1582   H    0.65614   0.57110   0.80647   1.000
    H1583   H    0.67378   0.55883   0.84702   1.000
    H1584   H    0.62836   0.59878   0.56373   1.000
    H1585   H    0.91420   0.80580   0.81960   1.000
    H1586   H    0.93850   0.82590   0.84500   1.000
    H1587   H    0.92830   0.84240   0.80950   1.000
    H1588   H    0.87020   0.56362   0.90079   1.000
    H1589   H    0.90156   0.56384   0.87309   1.000
    H1590   H    0.91352   0.81911   0.80252   1.000
    H1591   H    0.92890   0.80647   0.84386   1.000
    H1592   H    0.94117   0.84702   0.82622   1.000
    H1593   H    0.90122   0.56373   0.87164   1.000
    H1594   H    0.91420   0.30580   0.31960   1.000
    H1595   H    0.93850   0.32590   0.34500   1.000
    H1596   H    0.92830   0.34240   0.30950   1.000
    H1597   H    0.87020   0.06362   0.40079   1.000
    H1598   H    0.90156   0.06384   0.37309   1.000
    H1599   H    0.91352   0.31911   0.30252   1.000
    H1600   H    0.92890   0.30647   0.34386   1.000
    H1601   H    0.94117   0.34702   0.32622   1.000
    H1602   H    0.90122   0.06373   0.37164   1.000
    H1603   H    0.41420   0.80580   0.31960   1.000
    H1604   H    0.43850   0.82590   0.34500   1.000
    H1605   H    0.42830   0.84240   0.30950   1.000
    H1606   H    0.37020   0.56362   0.40079   1.000
    H1607   H    0.40156   0.56384   0.37309   1.000
    H1608   H    0.41352   0.81911   0.30252   1.000
    H1609   H    0.42890   0.80647   0.34386   1.000
    H1610   H    0.44117   0.84702   0.32622   1.000
    H1611   H    0.40122   0.56373   0.37164   1.000
    H1612   H    0.41420   0.30580   0.81960   1.000
    H1613   H    0.43850   0.32590   0.84500   1.000
    H1614   H    0.42830   0.34240   0.80950   1.000
    H1615   H    0.37020   0.06362   0.90079   1.000
    H1616   H    0.40156   0.06384   0.87309   1.000
    H1617   H    0.41352   0.31911   0.80252   1.000
    H1618   H    0.42890   0.30647   0.84386   1.000
    H1619   H    0.44117   0.34702   0.82622   1.000
    H1620   H    0.40122   0.06373   0.87164   1.000
    H1621   H    0.91420   0.19420   0.18040   1.000
    H1622   H    0.93850   0.17410   0.15500   1.000
    H1623   H    0.92830   0.15760   0.19050   1.000
    H1624   H    0.87020   0.43638   0.09921   1.000
    H1625   H    0.90156   0.43616   0.12691   1.000
    H1626   H    0.91352   0.18089   0.19748   1.000
    H1627   H    0.92890   0.19353   0.15614   1.000
    H1628   H    0.94117   0.15298   0.17378   1.000
    H1629   H    0.90122   0.43627   0.12836   1.000
    H1630   H    0.91420   0.69420   0.68040   1.000
    H1631   H    0.93850   0.67410   0.65500   1.000
    H1632   H    0.92830   0.65760   0.69050   1.000
    H1633   H    0.87020   0.93638   0.59921   1.000
    H1634   H    0.90156   0.93616   0.62691   1.000
    H1635   H    0.91352   0.68089   0.69748   1.000
    H1636   H    0.92890   0.69353   0.65614   1.000
    H1637   H    0.94117   0.65298   0.67378   1.000
    H1638   H    0.90122   0.93627   0.62836   1.000
    H1639   H    0.41420   0.19420   0.68040   1.000
    H1640   H    0.43850   0.17410   0.65500   1.000
    H1641   H    0.42830   0.15760   0.69050   1.000
    H1642   H    0.37020   0.43638   0.59921   1.000
    H1643   H    0.40156   0.43616   0.62691   1.000
    H1644   H    0.41352   0.18089   0.69748   1.000
    H1645   H    0.42890   0.19353   0.65614   1.000
    H1646   H    0.44117   0.15298   0.67378   1.000
    H1647   H    0.40122   0.43627   0.62836   1.000
    H1648   H    0.41420   0.69420   0.18040   1.000
    H1649   H    0.43850   0.67410   0.15500   1.000
    H1650   H    0.42830   0.65760   0.19050   1.000
    H1651   H    0.37020   0.93638   0.09921   1.000
    H1652   H    0.40156   0.93616   0.12691   1.000
    H1653   H    0.41352   0.68089   0.19748   1.000
    H1654   H    0.42890   0.69353   0.15614   1.000
    H1655   H    0.44117   0.65298   0.17378   1.000
    H1656   H    0.40122   0.93627   0.12836   1.000
    H1657   H    0.08580   0.80580   0.18040   1.000
    H1658   H    0.06150   0.82590   0.15500   1.000
    H1659   H    0.07170   0.84240   0.19050   1.000
    H1660   H    0.12980   0.56362   0.09921   1.000
    H1661   H    0.09844   0.56384   0.12691   1.000
    H1662   H    0.08648   0.81911   0.19748   1.000
    H1663   H    0.07110   0.80647   0.15614   1.000
    H1664   H    0.05883   0.84702   0.17378   1.000
    H1665   H    0.09878   0.56373   0.12836   1.000
    H1666   H    0.08580   0.30580   0.68040   1.000
    H1667   H    0.06150   0.32590   0.65500   1.000
    H1668   H    0.07170   0.34240   0.69050   1.000
    H1669   H    0.12980   0.06362   0.59921   1.000
    H1670   H    0.09844   0.06384   0.62691   1.000
    H1671   H    0.08648   0.31911   0.69748   1.000
    H1672   H    0.07110   0.30647   0.65614   1.000
    H1673   H    0.05883   0.34702   0.67378   1.000
    H1674   H    0.09878   0.06373   0.62836   1.000
    H1675   H    0.58580   0.80580   0.68040   1.000
    H1676   H    0.56150   0.82590   0.65500   1.000
    H1677   H    0.57170   0.84240   0.69050   1.000
    H1678   H    0.62980   0.56362   0.59921   1.000
    H1679   H    0.59844   0.56384   0.62691   1.000
    H1680   H    0.58648   0.81911   0.69748   1.000
    H1681   H    0.57110   0.80647   0.65614   1.000
    H1682   H    0.55883   0.84702   0.67378   1.000
    H1683   H    0.59878   0.56373   0.62836   1.000
    H1684   H    0.58580   0.30580   0.18040   1.000
    H1685   H    0.56150   0.32590   0.15500   1.000
    H1686   H    0.57170   0.34240   0.19050   1.000
    H1687   H    0.62980   0.06362   0.09921   1.000
    H1688   H    0.59844   0.06384   0.12691   1.000
    H1689   H    0.58648   0.31911   0.19748   1.000
    H1690   H    0.57110   0.30647   0.15614   1.000
    H1691   H    0.55883   0.34702   0.17378   1.000
    H1692   H    0.59878   0.06373   0.12836   1.000
    H1693   H    0.08580   0.19420   0.81960   1.000
    H1694   H    0.06150   0.17410   0.84500   1.000
    H1695   H    0.07170   0.15760   0.80950   1.000
    H1696   H    0.12980   0.43638   0.90079   1.000
    H1697   H    0.09844   0.43616   0.87309   1.000
    H1698   H    0.08648   0.18089   0.80252   1.000
    H1699   H    0.07110   0.19353   0.84386   1.000
    H1700   H    0.05883   0.15298   0.82622   1.000
    H1701   H    0.09878   0.43627   0.87164   1.000
    H1702   H    0.08580   0.69420   0.31960   1.000
    H1703   H    0.06150   0.67410   0.34500   1.000
    H1704   H    0.07170   0.65760   0.30950   1.000
    H1705   H    0.12980   0.93638   0.40079   1.000
    H1706   H    0.09844   0.93616   0.37309   1.000
    H1707   H    0.08648   0.68089   0.30252   1.000
    H1708   H    0.07110   0.69353   0.34386   1.000
    H1709   H    0.05883   0.65298   0.32622   1.000
    H1710   H    0.09878   0.93627   0.37164   1.000
    H1711   H    0.58580   0.19420   0.31960   1.000
    H1712   H    0.56150   0.17410   0.34500   1.000
    H1713   H    0.57170   0.15760   0.30950   1.000
    H1714   H    0.62980   0.43638   0.40079   1.000
    H1715   H    0.59844   0.43616   0.37309   1.000
    H1716   H    0.58648   0.18089   0.30252   1.000
    H1717   H    0.57110   0.19353   0.34386   1.000
    H1718   H    0.55883   0.15298   0.32622   1.000
    H1719   H    0.59878   0.43627   0.37164   1.000
    H1720   H    0.58580   0.69420   0.81960   1.000
    H1721   H    0.56150   0.67410   0.84500   1.000
    H1722   H    0.57170   0.65760   0.80950   1.000
    H1723   H    0.62980   0.93638   0.90079   1.000
    H1724   H    0.59844   0.93616   0.87309   1.000
    H1725   H    0.58648   0.68089   0.80252   1.000
    H1726   H    0.57110   0.69353   0.84386   1.000
    H1727   H    0.55883   0.65298   0.82622   1.000
    H1728   H    0.59878   0.93627   0.87164   1.000
    Co1     Co   0.00000   0.19781   0.00000   1.000
    Co2     Co   0.00000   0.27284   0.00000   1.000
    Co3     Co   0.00000   0.69781   0.50000   1.000
    Co4     Co   0.00000   0.77284   0.50000   1.000
    Co5     Co   0.50000   0.19781   0.50000   1.000
    Co6     Co   0.50000   0.27284   0.50000   1.000
    Co7     Co   0.50000   0.69781   0.00000   1.000
    Co8     Co   0.50000   0.77284   0.00000   1.000
    Co9     Co   0.00000   0.80219   0.00000   1.000
    Co10    Co   0.00000   0.72716   0.00000   1.000
    Co11    Co   0.00000   0.30219   0.50000   1.000
    Co12    Co   0.00000   0.22716   0.50000   1.000
    Co13    Co   0.50000   0.80219   0.50000   1.000
    Co14    Co   0.50000   0.72716   0.50000   1.000
    Co15    Co   0.50000   0.30219   0.00000   1.000
    Co16    Co   0.50000   0.22716   0.00000   1.000
    Co17    Co   0.00000   0.00000   0.19781   1.000
    Co18    Co   0.00000   0.00000   0.27284   1.000
    Co19    Co   0.00000   0.50000   0.69781   1.000
    Co20    Co   0.00000   0.50000   0.77284   1.000
    Co21    Co   0.50000   0.00000   0.69781   1.000
    Co22    Co   0.50000   0.00000   0.77284   1.000
    Co23    Co   0.50000   0.50000   0.19781   1.000
    Co24    Co   0.50000   0.50000   0.27284   1.000
    Co25    Co   0.00000   0.00000   0.80219   1.000
    Co26    Co   0.00000   0.00000   0.72716   1.000
    Co27    Co   0.00000   0.50000   0.30219   1.000
    Co28    Co   0.00000   0.50000   0.22716   1.000
    Co29    Co   0.50000   0.00000   0.30219   1.000
    Co30    Co   0.50000   0.00000   0.22716   1.000
    Co31    Co   0.50000   0.50000   0.80219   1.000
    Co32    Co   0.50000   0.50000   0.72716   1.000
    Co33    Co   0.19781   0.00000   0.00000   1.000
    Co34    Co   0.27284   0.00000   0.00000   1.000
    Co35    Co   0.19781   0.50000   0.50000   1.000
    Co36    Co   0.27284   0.50000   0.50000   1.000
    Co37    Co   0.69781   0.00000   0.50000   1.000
    Co38    Co   0.77284   0.00000   0.50000   1.000
    Co39    Co   0.69781   0.50000   0.00000   1.000
    Co40    Co   0.77284   0.50000   0.00000   1.000
    Co41    Co   0.80219   0.00000   0.00000   1.000
    Co42    Co   0.72716   0.00000   0.00000   1.000
    Co43    Co   0.80219   0.50000   0.50000   1.000
    Co44    Co   0.72716   0.50000   0.50000   1.000
    Co45    Co   0.30219   0.00000   0.50000   1.000
    Co46    Co   0.22716   0.00000   0.50000   1.000
    Co47    Co   0.30219   0.50000   0.00000   1.000
    Co48    Co   0.22716   0.50000   0.00000   1.000
    Co49    Co   0.87406   0.37406   0.12594   1.000
    Co50    Co   0.82049   0.32049   0.17951   1.000
    Co51    Co   0.12594   0.62594   0.12594   1.000
    Co52    Co   0.17951   0.67951   0.17951   1.000
    Co53    Co   0.12594   0.37406   0.87406   1.000
    Co54    Co   0.17951   0.32049   0.82049   1.000
    Co55    Co   0.87406   0.62594   0.87406   1.000
    Co56    Co   0.82049   0.67951   0.82049   1.000
    Co57    Co   0.12594   0.87406   0.37406   1.000
    Co58    Co   0.17951   0.82049   0.32049   1.000
    Co59    Co   0.12594   0.12594   0.62594   1.000
    Co60    Co   0.17951   0.17951   0.67951   1.000
    Co61    Co   0.87406   0.12594   0.37406   1.000
    Co62    Co   0.82049   0.17951   0.32049   1.000
    Co63    Co   0.87406   0.87406   0.62594   1.000
    Co64    Co   0.82049   0.82049   0.67951   1.000
    Co65    Co   0.37406   0.12594   0.87406   1.000
    Co66    Co   0.32049   0.17951   0.82049   1.000
    Co67    Co   0.37406   0.62594   0.37406   1.000
    Co68    Co   0.32049   0.67951   0.32049   1.000
    Co69    Co   0.62594   0.12594   0.12594   1.000
    Co70    Co   0.67951   0.17951   0.17951   1.000
    Co71    Co   0.62594   0.62594   0.62594   1.000
    Co72    Co   0.67951   0.67951   0.67951   1.000
    Co73    Co   0.37406   0.87406   0.12594   1.000
    Co74    Co   0.32049   0.82049   0.17951   1.000
    Co75    Co   0.37406   0.37406   0.62594   1.000
    Co76    Co   0.32049   0.32049   0.67951   1.000
    Co77    Co   0.62594   0.87406   0.87406   1.000
    Co78    Co   0.67951   0.82049   0.82049   1.000
    Co79    Co   0.62594   0.37406   0.37406   1.000
    Co80    Co   0.67951   0.32049   0.32049   1.000
    Co81    Co   0.37406   0.87406   0.87406   1.000
    Co82    Co   0.32049   0.82049   0.82049   1.000
    Co83    Co   0.37406   0.37406   0.37406   1.000
    Co84    Co   0.32049   0.32049   0.32049   1.000
    Co85    Co   0.62594   0.12594   0.87406   1.000
    Co86    Co   0.67951   0.17951   0.82049   1.000
    Co87    Co   0.62594   0.62594   0.37406   1.000
    Co88    Co   0.67951   0.67951   0.32049   1.000
    Co89    Co   0.37406   0.12594   0.12594   1.000
    Co90    Co   0.32049   0.17951   0.17951   1.000
    Co91    Co   0.37406   0.62594   0.62594   1.000
    Co92    Co   0.32049   0.67951   0.67951   1.000
    Co93    Co   0.62594   0.87406   0.12594   1.000
    Co94    Co   0.67951   0.82049   0.17951   1.000
    Co95    Co   0.62594   0.37406   0.62594   1.000
    Co96    Co   0.67951   0.32049   0.67951   1.000
    Co97    Co   0.87406   0.12594   0.62594   1.000
    Co98    Co   0.82049   0.17951   0.67951   1.000
    Co99    Co   0.12594   0.12594   0.37406   1.000
    Co100   Co   0.17951   0.17951   0.32049   1.000
    Co101   Co   0.12594   0.87406   0.62594   1.000
    Co102   Co   0.17951   0.82049   0.67951   1.000
    Co103   Co   0.87406   0.87406   0.37406   1.000
    Co104   Co   0.82049   0.82049   0.32049   1.000
    Co105   Co   0.12594   0.37406   0.12594   1.000
    Co106   Co   0.17951   0.32049   0.17951   1.000
    Co107   Co   0.12594   0.62594   0.87406   1.000
    Co108   Co   0.17951   0.67951   0.82049   1.000
    Co109   Co   0.87406   0.37406   0.87406   1.000
    Co110   Co   0.82049   0.32049   0.82049   1.000
    Co111   Co   0.87406   0.62594   0.12594   1.000
    Co112   Co   0.82049   0.67951   0.17951   1.000
    O1      O    0.96365   0.26310   0.03635   1.000
    O2      O    0.96392   0.20550   0.03608   1.000
    O3      O    0.84999   0.29515   0.15001   1.000
    O4      O    0.88464   0.32516   0.11536   1.000
    O5      O    0.87740   0.42880   0.12260   1.000
    C1      C    0.95330   0.23380   0.04670   1.000
    C2      C    0.92588   0.23530   0.07412   1.000
    C3      C    0.91375   0.20370   0.08625   1.000
    H1729   H    0.92260   0.18320   0.07740   1.000
    C4      C    0.88744   0.20260   0.11256   1.000
    C5      C    0.87545   0.23380   0.12455   1.000
    H1730   H    0.85850   0.23410   0.14150   1.000
    C6      C    0.88780   0.26440   0.11220   1.000
    C7      C    0.91306   0.26570   0.08694   1.000
    H1731   H    0.92120   0.28680   0.07880   1.000
    C8      C    0.87310   0.29900   0.12690   1.000
    C9      C    0.87315   0.16960   0.12685   1.000
    H1732   H    0.86090   0.43938   0.13910   1.000
    O6      O    0.89910   0.41300   0.10090   1.000
    O7      O    0.96365   0.76310   0.53635   1.000
    O8      O    0.96392   0.70550   0.53608   1.000
    O9      O    0.84999   0.79515   0.65001   1.000
    O10     O    0.88464   0.82516   0.61536   1.000
    O11     O    0.87740   0.92880   0.62260   1.000
    C10     C    0.95330   0.73380   0.54670   1.000
    C11     C    0.92588   0.73530   0.57412   1.000
    C12     C    0.91375   0.70370   0.58625   1.000
    H1733   H    0.92260   0.68320   0.57740   1.000
    C13     C    0.88744   0.70260   0.61256   1.000
    C14     C    0.87545   0.73380   0.62455   1.000
    H1734   H    0.85850   0.73410   0.64150   1.000
    C15     C    0.88780   0.76440   0.61220   1.000
    C16     C    0.91306   0.76570   0.58694   1.000
    H1735   H    0.92120   0.78680   0.57880   1.000
    C17     C    0.87310   0.79900   0.62690   1.000
    C18     C    0.87315   0.66960   0.62685   1.000
    H1736   H    0.86090   0.93938   0.63910   1.000
    O12     O    0.89910   0.91300   0.60090   1.000
    O13     O    0.46365   0.26310   0.53635   1.000
    O14     O    0.46392   0.20550   0.53608   1.000
    O15     O    0.34999   0.29515   0.65001   1.000
    O16     O    0.38464   0.32516   0.61536   1.000
    O17     O    0.37740   0.42880   0.62260   1.000
    C19     C    0.45330   0.23380   0.54670   1.000
    C20     C    0.42588   0.23530   0.57412   1.000
    C21     C    0.41375   0.20370   0.58625   1.000
    H1737   H    0.42260   0.18320   0.57740   1.000
    C22     C    0.38744   0.20260   0.61256   1.000
    C23     C    0.37545   0.23380   0.62455   1.000
    H1738   H    0.35850   0.23410   0.64150   1.000
    C24     C    0.38780   0.26440   0.61220   1.000
    C25     C    0.41306   0.26570   0.58694   1.000
    H1739   H    0.42120   0.28680   0.57880   1.000
    C26     C    0.37310   0.29900   0.62690   1.000
    C27     C    0.37315   0.16960   0.62685   1.000
    H1740   H    0.36090   0.43938   0.63910   1.000
    O18     O    0.39910   0.41300   0.60090   1.000
    O19     O    0.46365   0.76310   0.03635   1.000
    O20     O    0.46392   0.70550   0.03608   1.000
    O21     O    0.34999   0.79515   0.15001   1.000
    O22     O    0.38464   0.82516   0.11536   1.000
    O23     O    0.37740   0.92880   0.12260   1.000
    C28     C    0.45330   0.73380   0.04670   1.000
    C29     C    0.42588   0.73530   0.07412   1.000
    C30     C    0.41375   0.70370   0.08625   1.000
    H1741   H    0.42260   0.68320   0.07740   1.000
    C31     C    0.38744   0.70260   0.11256   1.000
    C32     C    0.37545   0.73380   0.12455   1.000
    H1742   H    0.35850   0.73410   0.14150   1.000
    C33     C    0.38780   0.76440   0.11220   1.000
    C34     C    0.41306   0.76570   0.08694   1.000
    H1743   H    0.42120   0.78680   0.07880   1.000
    C35     C    0.37310   0.79900   0.12690   1.000
    C36     C    0.37315   0.66960   0.12685   1.000
    H1744   H    0.36090   0.93938   0.13910   1.000
    O24     O    0.39910   0.91300   0.10090   1.000
    O25     O    0.03635   0.73690   0.03635   1.000
    O26     O    0.03608   0.79450   0.03608   1.000
    O27     O    0.15001   0.70485   0.15001   1.000
    O28     O    0.11536   0.67484   0.11536   1.000
    O29     O    0.12260   0.57120   0.12260   1.000
    C37     C    0.04670   0.76620   0.04670   1.000
    C38     C    0.07412   0.76470   0.07412   1.000
    C39     C    0.08625   0.79630   0.08625   1.000
    H1745   H    0.07740   0.81680   0.07740   1.000
    C40     C    0.11256   0.79740   0.11256   1.000
    C41     C    0.12455   0.76620   0.12455   1.000
    H1746   H    0.14150   0.76590   0.14150   1.000
    C42     C    0.11220   0.73560   0.11220   1.000
    C43     C    0.08694   0.73430   0.08694   1.000
    H1747   H    0.07880   0.71320   0.07880   1.000
    C44     C    0.12690   0.70100   0.12690   1.000
    C45     C    0.12685   0.83040   0.12685   1.000
    H1748   H    0.13910   0.56062   0.13910   1.000
    O30     O    0.10090   0.58700   0.10090   1.000
    O31     O    0.03635   0.23690   0.53635   1.000
    O32     O    0.03608   0.29450   0.53608   1.000
    O33     O    0.15001   0.20485   0.65001   1.000
    O34     O    0.11536   0.17484   0.61536   1.000
    O35     O    0.12260   0.07120   0.62260   1.000
    C46     C    0.04670   0.26620   0.54670   1.000
    C47     C    0.07412   0.26470   0.57412   1.000
    C48     C    0.08625   0.29630   0.58625   1.000
    H1749   H    0.07740   0.31680   0.57740   1.000
    C49     C    0.11256   0.29740   0.61256   1.000
    C50     C    0.12455   0.26620   0.62455   1.000
    H1750   H    0.14150   0.26590   0.64150   1.000
    C51     C    0.11220   0.23560   0.61220   1.000
    C52     C    0.08694   0.23430   0.58694   1.000
    H1751   H    0.07880   0.21320   0.57880   1.000
    C53     C    0.12690   0.20100   0.62690   1.000
    C54     C    0.12685   0.33040   0.62685   1.000
    H1752   H    0.13910   0.06062   0.63910   1.000
    O36     O    0.10090   0.08700   0.60090   1.000
    O37     O    0.53635   0.73690   0.53635   1.000
    O38     O    0.53608   0.79450   0.53608   1.000
    O39     O    0.65001   0.70485   0.65001   1.000
    O40     O    0.61536   0.67484   0.61536   1.000
    O41     O    0.62260   0.57120   0.62260   1.000
    C55     C    0.54670   0.76620   0.54670   1.000
    C56     C    0.57412   0.76470   0.57412   1.000
    C57     C    0.58625   0.79630   0.58625   1.000
    H1753   H    0.57740   0.81680   0.57740   1.000
    C58     C    0.61256   0.79740   0.61256   1.000
    C59     C    0.62455   0.76620   0.62455   1.000
    H1754   H    0.64150   0.76590   0.64150   1.000
    C60     C    0.61220   0.73560   0.61220   1.000
    C61     C    0.58694   0.73430   0.58694   1.000
    H1755   H    0.57880   0.71320   0.57880   1.000
    C62     C    0.62690   0.70100   0.62690   1.000
    C63     C    0.62685   0.83040   0.62685   1.000
    H1756   H    0.63910   0.56062   0.63910   1.000
    O42     O    0.60090   0.58700   0.60090   1.000
    O43     O    0.53635   0.23690   0.03635   1.000
    O44     O    0.53608   0.29450   0.03608   1.000
    O45     O    0.65001   0.20485   0.15001   1.000
    O46     O    0.61536   0.17484   0.11536   1.000
    O47     O    0.62260   0.07120   0.12260   1.000
    C64     C    0.54670   0.26620   0.04670   1.000
    C65     C    0.57412   0.26470   0.07412   1.000
    C66     C    0.58625   0.29630   0.08625   1.000
    H1757   H    0.57740   0.31680   0.07740   1.000
    C67     C    0.61256   0.29740   0.11256   1.000
    C68     C    0.62455   0.26620   0.12455   1.000
    H1758   H    0.64150   0.26590   0.14150   1.000
    C69     C    0.61220   0.23560   0.11220   1.000
    C70     C    0.58694   0.23430   0.08694   1.000
    H1759   H    0.57880   0.21320   0.07880   1.000
    C71     C    0.62690   0.20100   0.12690   1.000
    C72     C    0.62685   0.33040   0.12685   1.000
    H1760   H    0.63910   0.06062   0.13910   1.000
    O48     O    0.60090   0.08700   0.10090   1.000
    O49     O    0.03635   0.26310   0.96365   1.000
    O50     O    0.03608   0.20550   0.96392   1.000
    O51     O    0.15001   0.29515   0.84999   1.000
    O52     O    0.11536   0.32516   0.88464   1.000
    O53     O    0.12260   0.42880   0.87740   1.000
    C73     C    0.04670   0.23380   0.95330   1.000
    C74     C    0.07412   0.23530   0.92588   1.000
    C75     C    0.08625   0.20370   0.91375   1.000
    H1761   H    0.07740   0.18320   0.92260   1.000
    C76     C    0.11256   0.20260   0.88744   1.000
    C77     C    0.12455   0.23380   0.87545   1.000
    H1762   H    0.14150   0.23410   0.85850   1.000
    C78     C    0.11220   0.26440   0.88780   1.000
    C79     C    0.08694   0.26570   0.91306   1.000
    H1763   H    0.07880   0.28680   0.92120   1.000
    C80     C    0.12690   0.29900   0.87310   1.000
    C81     C    0.12685   0.16960   0.87315   1.000
    H1764   H    0.13910   0.43938   0.86090   1.000
    O54     O    0.10090   0.41300   0.89910   1.000
    O55     O    0.03635   0.76310   0.46365   1.000
    O56     O    0.03608   0.70550   0.46392   1.000
    O57     O    0.15001   0.79515   0.34999   1.000
    O58     O    0.11536   0.82516   0.38464   1.000
    O59     O    0.12260   0.92880   0.37740   1.000
    C82     C    0.04670   0.73380   0.45330   1.000
    C83     C    0.07412   0.73530   0.42588   1.000
    C84     C    0.08625   0.70370   0.41375   1.000
    H1765   H    0.07740   0.68320   0.42260   1.000
    C85     C    0.11256   0.70260   0.38744   1.000
    C86     C    0.12455   0.73380   0.37545   1.000
    H1766   H    0.14150   0.73410   0.35850   1.000
    C87     C    0.11220   0.76440   0.38780   1.000
    C88     C    0.08694   0.76570   0.41306   1.000
    H1767   H    0.07880   0.78680   0.42120   1.000
    C89     C    0.12690   0.79900   0.37310   1.000
    C90     C    0.12685   0.66960   0.37315   1.000
    H1768   H    0.13910   0.93938   0.36090   1.000
    O60     O    0.10090   0.91300   0.39910   1.000
    O61     O    0.53635   0.26310   0.46365   1.000
    O62     O    0.53608   0.20550   0.46392   1.000
    O63     O    0.65001   0.29515   0.34999   1.000
    O64     O    0.61536   0.32516   0.38464   1.000
    O65     O    0.62260   0.42880   0.37740   1.000
    C91     C    0.54670   0.23380   0.45330   1.000
    C92     C    0.57412   0.23530   0.42588   1.000
    C93     C    0.58625   0.20370   0.41375   1.000
    H1769   H    0.57740   0.18320   0.42260   1.000
    C94     C    0.61256   0.20260   0.38744   1.000
    C95     C    0.62455   0.23380   0.37545   1.000
    H1770   H    0.64150   0.23410   0.35850   1.000
    C96     C    0.61220   0.26440   0.38780   1.000
    C97     C    0.58694   0.26570   0.41306   1.000
    H1771   H    0.57880   0.28680   0.42120   1.000
    C98     C    0.62690   0.29900   0.37310   1.000
    C99     C    0.62685   0.16960   0.37315   1.000
    H1772   H    0.63910   0.43938   0.36090   1.000
    O66     O    0.60090   0.41300   0.39910   1.000
    O67     O    0.53635   0.76310   0.96365   1.000
    O68     O    0.53608   0.70550   0.96392   1.000
    O69     O    0.65001   0.79515   0.84999   1.000
    O70     O    0.61536   0.82516   0.88464   1.000
    O71     O    0.62260   0.92880   0.87740   1.000
    C100    C    0.54670   0.73380   0.95330   1.000
    C101    C    0.57412   0.73530   0.92588   1.000
    C102    C    0.58625   0.70370   0.91375   1.000
    H1773   H    0.57740   0.68320   0.92260   1.000
    C103    C    0.61256   0.70260   0.88744   1.000
    C104    C    0.62455   0.73380   0.87545   1.000
    H1774   H    0.64150   0.73410   0.85850   1.000
    C105    C    0.61220   0.76440   0.88780   1.000
    C106    C    0.58694   0.76570   0.91306   1.000
    H1775   H    0.57880   0.78680   0.92120   1.000
    C107    C    0.62690   0.79900   0.87310   1.000
    C108    C    0.62685   0.66960   0.87315   1.000
    H1776   H    0.63910   0.93938   0.86090   1.000
    O72     O    0.60090   0.91300   0.89910   1.000
    O73     O    0.96365   0.73690   0.96365   1.000
    O74     O    0.96392   0.79450   0.96392   1.000
    O75     O    0.84999   0.70485   0.84999   1.000
    O76     O    0.88464   0.67484   0.88464   1.000
    O77     O    0.87740   0.57120   0.87740   1.000
    C109    C    0.95330   0.76620   0.95330   1.000
    C110    C    0.92588   0.76470   0.92588   1.000
    C111    C    0.91375   0.79630   0.91375   1.000
    H1777   H    0.92260   0.81680   0.92260   1.000
    C112    C    0.88744   0.79740   0.88744   1.000
    C113    C    0.87545   0.76620   0.87545   1.000
    H1778   H    0.85850   0.76590   0.85850   1.000
    C114    C    0.88780   0.73560   0.88780   1.000
    C115    C    0.91306   0.73430   0.91306   1.000
    H1779   H    0.92120   0.71320   0.92120   1.000
    C116    C    0.87310   0.70100   0.87310   1.000
    C117    C    0.87315   0.83040   0.87315   1.000
    H1780   H    0.86090   0.56062   0.86090   1.000
    O78     O    0.89910   0.58700   0.89910   1.000
    O79     O    0.96365   0.23690   0.46365   1.000
    O80     O    0.96392   0.29450   0.46392   1.000
    O81     O    0.84999   0.20485   0.34999   1.000
    O82     O    0.88464   0.17484   0.38464   1.000
    O83     O    0.87740   0.07120   0.37740   1.000
    C118    C    0.95330   0.26620   0.45330   1.000
    C119    C    0.92588   0.26470   0.42588   1.000
    C120    C    0.91375   0.29630   0.41375   1.000
    H1781   H    0.92260   0.31680   0.42260   1.000
    C121    C    0.88744   0.29740   0.38744   1.000
    C122    C    0.87545   0.26620   0.37545   1.000
    H1782   H    0.85850   0.26590   0.35850   1.000
    C123    C    0.88780   0.23560   0.38780   1.000
    C124    C    0.91306   0.23430   0.41306   1.000
    H1783   H    0.92120   0.21320   0.42120   1.000
    C125    C    0.87310   0.20100   0.37310   1.000
    C126    C    0.87315   0.33040   0.37315   1.000
    H1784   H    0.86090   0.06062   0.36090   1.000
    O84     O    0.89910   0.08700   0.39910   1.000
    O85     O    0.46365   0.73690   0.46365   1.000
    O86     O    0.46392   0.79450   0.46392   1.000
    O87     O    0.34999   0.70485   0.34999   1.000
    O88     O    0.38464   0.67484   0.38464   1.000
    O89     O    0.37740   0.57120   0.37740   1.000
    C127    C    0.45330   0.76620   0.45330   1.000
    C128    C    0.42588   0.76470   0.42588   1.000
    C129    C    0.41375   0.79630   0.41375   1.000
    H1785   H    0.42260   0.81680   0.42260   1.000
    C130    C    0.38744   0.79740   0.38744   1.000
    C131    C    0.37545   0.76620   0.37545   1.000
    H1786   H    0.35850   0.76590   0.35850   1.000
    C132    C    0.38780   0.73560   0.38780   1.000
    C133    C    0.41306   0.73430   0.41306   1.000
    H1787   H    0.42120   0.71320   0.42120   1.000
    C134    C    0.37310   0.70100   0.37310   1.000
    C135    C    0.37315   0.83040   0.37315   1.000
    H1788   H    0.36090   0.56062   0.36090   1.000
    O90     O    0.39910   0.58700   0.39910   1.000
    O91     O    0.46365   0.23690   0.96365   1.000
    O92     O    0.46392   0.29450   0.96392   1.000
    O93     O    0.34999   0.20485   0.84999   1.000
    O94     O    0.38464   0.17484   0.88464   1.000
    O95     O    0.37740   0.07120   0.87740   1.000
    C136    C    0.45330   0.26620   0.95330   1.000
    C137    C    0.42588   0.26470   0.92588   1.000
    C138    C    0.41375   0.29630   0.91375   1.000
    H1789   H    0.42260   0.31680   0.92260   1.000
    C139    C    0.38744   0.29740   0.88744   1.000
    C140    C    0.37545   0.26620   0.87545   1.000
    H1790   H    0.35850   0.26590   0.85850   1.000
    C141    C    0.38780   0.23560   0.88780   1.000
    C142    C    0.41306   0.23430   0.91306   1.000
    H1791   H    0.42120   0.21320   0.92120   1.000
    C143    C    0.37310   0.20100   0.87310   1.000
    C144    C    0.37315   0.33040   0.87315   1.000
    H1792   H    0.36090   0.06062   0.86090   1.000
    O96     O    0.39910   0.08700   0.89910   1.000
    O97     O    0.03635   0.96365   0.26310   1.000
    O98     O    0.03608   0.96392   0.20550   1.000
    O99     O    0.15001   0.84999   0.29515   1.000
    O100    O    0.11536   0.88464   0.32516   1.000
    O101    O    0.12260   0.87740   0.42880   1.000
    C145    C    0.04670   0.95330   0.23380   1.000
    C146    C    0.07412   0.92588   0.23530   1.000
    C147    C    0.08625   0.91375   0.20370   1.000
    H1793   H    0.07740   0.92260   0.18320   1.000
    C148    C    0.11256   0.88744   0.20260   1.000
    C149    C    0.12455   0.87545   0.23380   1.000
    H1794   H    0.14150   0.85850   0.23410   1.000
    C150    C    0.11220   0.88780   0.26440   1.000
    C151    C    0.08694   0.91306   0.26570   1.000
    H1795   H    0.07880   0.92120   0.28680   1.000
    C152    C    0.12690   0.87310   0.29900   1.000
    C153    C    0.12685   0.87315   0.16960   1.000
    H1796   H    0.13910   0.86090   0.43938   1.000
    O102    O    0.10090   0.89910   0.41300   1.000
    O103    O    0.03635   0.46365   0.76310   1.000
    O104    O    0.03608   0.46392   0.70550   1.000
    O105    O    0.15001   0.34999   0.79515   1.000
    O106    O    0.11536   0.38464   0.82516   1.000
    O107    O    0.12260   0.37740   0.92880   1.000
    C154    C    0.04670   0.45330   0.73380   1.000
    C155    C    0.07412   0.42588   0.73530   1.000
    C156    C    0.08625   0.41375   0.70370   1.000
    H1797   H    0.07740   0.42260   0.68320   1.000
    C157    C    0.11256   0.38744   0.70260   1.000
    C158    C    0.12455   0.37545   0.73380   1.000
    H1798   H    0.14150   0.35850   0.73410   1.000
    C159    C    0.11220   0.38780   0.76440   1.000
    C160    C    0.08694   0.41306   0.76570   1.000
    H1799   H    0.07880   0.42120   0.78680   1.000
    C161    C    0.12690   0.37310   0.79900   1.000
    C162    C    0.12685   0.37315   0.66960   1.000
    H1800   H    0.13910   0.36090   0.93938   1.000
    O108    O    0.10090   0.39910   0.91300   1.000
    O109    O    0.53635   0.96365   0.76310   1.000
    O110    O    0.53608   0.96392   0.70550   1.000
    O111    O    0.65001   0.84999   0.79515   1.000
    O112    O    0.61536   0.88464   0.82516   1.000
    O113    O    0.62260   0.87740   0.92880   1.000
    C163    C    0.54670   0.95330   0.73380   1.000
    C164    C    0.57412   0.92588   0.73530   1.000
    C165    C    0.58625   0.91375   0.70370   1.000
    H1801   H    0.57740   0.92260   0.68320   1.000
    C166    C    0.61256   0.88744   0.70260   1.000
    C167    C    0.62455   0.87545   0.73380   1.000
    H1802   H    0.64150   0.85850   0.73410   1.000
    C168    C    0.61220   0.88780   0.76440   1.000
    C169    C    0.58694   0.91306   0.76570   1.000
    H1803   H    0.57880   0.92120   0.78680   1.000
    C170    C    0.62690   0.87310   0.79900   1.000
    C171    C    0.62685   0.87315   0.66960   1.000
    H1804   H    0.63910   0.86090   0.93938   1.000
    O114    O    0.60090   0.89910   0.91300   1.000
    O115    O    0.53635   0.46365   0.26310   1.000
    O116    O    0.53608   0.46392   0.20550   1.000
    O117    O    0.65001   0.34999   0.29515   1.000
    O118    O    0.61536   0.38464   0.32516   1.000
    O119    O    0.62260   0.37740   0.42880   1.000
    C172    C    0.54670   0.45330   0.23380   1.000
    C173    C    0.57412   0.42588   0.23530   1.000
    C174    C    0.58625   0.41375   0.20370   1.000
    H1805   H    0.57740   0.42260   0.18320   1.000
    C175    C    0.61256   0.38744   0.20260   1.000
    C176    C    0.62455   0.37545   0.23380   1.000
    H1806   H    0.64150   0.35850   0.23410   1.000
    C177    C    0.61220   0.38780   0.26440   1.000
    C178    C    0.58694   0.41306   0.26570   1.000
    H1807   H    0.57880   0.42120   0.28680   1.000
    C179    C    0.62690   0.37310   0.29900   1.000
    C180    C    0.62685   0.37315   0.16960   1.000
    H1808   H    0.63910   0.36090   0.43938   1.000
    O120    O    0.60090   0.39910   0.41300   1.000
    O121    O    0.03635   0.03635   0.73690   1.000
    O122    O    0.03608   0.03608   0.79450   1.000
    O123    O    0.15001   0.15001   0.70485   1.000
    O124    O    0.11536   0.11536   0.67484   1.000
    O125    O    0.12260   0.12260   0.57120   1.000
    C181    C    0.04670   0.04670   0.76620   1.000
    C182    C    0.07412   0.07412   0.76470   1.000
    C183    C    0.08625   0.08625   0.79630   1.000
    H1809   H    0.07740   0.07740   0.81680   1.000
    C184    C    0.11256   0.11256   0.79740   1.000
    C185    C    0.12455   0.12455   0.76620   1.000
    H1810   H    0.14150   0.14150   0.76590   1.000
    C186    C    0.11220   0.11220   0.73560   1.000
    C187    C    0.08694   0.08694   0.73430   1.000
    H1811   H    0.07880   0.07880   0.71320   1.000
    C188    C    0.12690   0.12690   0.70100   1.000
    C189    C    0.12685   0.12685   0.83040   1.000
    H1812   H    0.13910   0.13910   0.56062   1.000
    O126    O    0.10090   0.10090   0.58700   1.000
    O127    O    0.03635   0.53635   0.23690   1.000
    O128    O    0.03608   0.53608   0.29450   1.000
    O129    O    0.15001   0.65001   0.20485   1.000
    O130    O    0.11536   0.61536   0.17484   1.000
    O131    O    0.12260   0.62260   0.07120   1.000
    C190    C    0.04670   0.54670   0.26620   1.000
    C191    C    0.07412   0.57412   0.26470   1.000
    C192    C    0.08625   0.58625   0.29630   1.000
    H1813   H    0.07740   0.57740   0.31680   1.000
    C193    C    0.11256   0.61256   0.29740   1.000
    C194    C    0.12455   0.62455   0.26620   1.000
    H1814   H    0.14150   0.64150   0.26590   1.000
    C195    C    0.11220   0.61220   0.23560   1.000
    C196    C    0.08694   0.58694   0.23430   1.000
    H1815   H    0.07880   0.57880   0.21320   1.000
    C197    C    0.12690   0.62690   0.20100   1.000
    C198    C    0.12685   0.62685   0.33040   1.000
    H1816   H    0.13910   0.63910   0.06062   1.000
    O132    O    0.10090   0.60090   0.08700   1.000
    O133    O    0.53635   0.03635   0.23690   1.000
    O134    O    0.53608   0.03608   0.29450   1.000
    O135    O    0.65001   0.15001   0.20485   1.000
    O136    O    0.61536   0.11536   0.17484   1.000
    O137    O    0.62260   0.12260   0.07120   1.000
    C199    C    0.54670   0.04670   0.26620   1.000
    C200    C    0.57412   0.07412   0.26470   1.000
    C201    C    0.58625   0.08625   0.29630   1.000
    H1817   H    0.57740   0.07740   0.31680   1.000
    C202    C    0.61256   0.11256   0.29740   1.000
    C203    C    0.62455   0.12455   0.26620   1.000
    H1818   H    0.64150   0.14150   0.26590   1.000
    C204    C    0.61220   0.11220   0.23560   1.000
    C205    C    0.58694   0.08694   0.23430   1.000
    H1819   H    0.57880   0.07880   0.21320   1.000
    C206    C    0.62690   0.12690   0.20100   1.000
    C207    C    0.62685   0.12685   0.33040   1.000
    H1820   H    0.63910   0.13910   0.06062   1.000
    O138    O    0.60090   0.10090   0.08700   1.000
    O139    O    0.53635   0.53635   0.73690   1.000
    O140    O    0.53608   0.53608   0.79450   1.000
    O141    O    0.65001   0.65001   0.70485   1.000
    O142    O    0.61536   0.61536   0.67484   1.000
    O143    O    0.62260   0.62260   0.57120   1.000
    C208    C    0.54670   0.54670   0.76620   1.000
    C209    C    0.57412   0.57412   0.76470   1.000
    C210    C    0.58625   0.58625   0.79630   1.000
    H1821   H    0.57740   0.57740   0.81680   1.000
    C211    C    0.61256   0.61256   0.79740   1.000
    C212    C    0.62455   0.62455   0.76620   1.000
    H1822   H    0.64150   0.64150   0.76590   1.000
    C213    C    0.61220   0.61220   0.73560   1.000
    C214    C    0.58694   0.58694   0.73430   1.000
    H1823   H    0.57880   0.57880   0.71320   1.000
    C215    C    0.62690   0.62690   0.70100   1.000
    C216    C    0.62685   0.62685   0.83040   1.000
    H1824   H    0.63910   0.63910   0.56062   1.000
    O144    O    0.60090   0.60090   0.58700   1.000
    O145    O    0.96365   0.03635   0.26310   1.000
    O146    O    0.96392   0.03608   0.20550   1.000
    O147    O    0.84999   0.15001   0.29515   1.000
    O148    O    0.88464   0.11536   0.32516   1.000
    O149    O    0.87740   0.12260   0.42880   1.000
    C217    C    0.95330   0.04670   0.23380   1.000
    C218    C    0.92588   0.07412   0.23530   1.000
    C219    C    0.91375   0.08625   0.20370   1.000
    H1825   H    0.92260   0.07740   0.18320   1.000
    C220    C    0.88744   0.11256   0.20260   1.000
    C221    C    0.87545   0.12455   0.23380   1.000
    H1826   H    0.85850   0.14150   0.23410   1.000
    C222    C    0.88780   0.11220   0.26440   1.000
    C223    C    0.91306   0.08694   0.26570   1.000
    H1827   H    0.92120   0.07880   0.28680   1.000
    C224    C    0.87310   0.12690   0.29900   1.000
    C225    C    0.87315   0.12685   0.16960   1.000
    H1828   H    0.86090   0.13910   0.43938   1.000
    O150    O    0.89910   0.10090   0.41300   1.000
    O151    O    0.96365   0.53635   0.76310   1.000
    O152    O    0.96392   0.53608   0.70550   1.000
    O153    O    0.84999   0.65001   0.79515   1.000
    O154    O    0.88464   0.61536   0.82516   1.000
    O155    O    0.87740   0.62260   0.92880   1.000
    C226    C    0.95330   0.54670   0.73380   1.000
    C227    C    0.92588   0.57412   0.73530   1.000
    C228    C    0.91375   0.58625   0.70370   1.000
    H1829   H    0.92260   0.57740   0.68320   1.000
    C229    C    0.88744   0.61256   0.70260   1.000
    C230    C    0.87545   0.62455   0.73380   1.000
    H1830   H    0.85850   0.64150   0.73410   1.000
    C231    C    0.88780   0.61220   0.76440   1.000
    C232    C    0.91306   0.58694   0.76570   1.000
    H1831   H    0.92120   0.57880   0.78680   1.000
    C233    C    0.87310   0.62690   0.79900   1.000
    C234    C    0.87315   0.62685   0.66960   1.000
    H1832   H    0.86090   0.63910   0.93938   1.000
    O156    O    0.89910   0.60090   0.91300   1.000
    O157    O    0.46365   0.03635   0.76310   1.000
    O158    O    0.46392   0.03608   0.70550   1.000
    O159    O    0.34999   0.15001   0.79515   1.000
    O160    O    0.38464   0.11536   0.82516   1.000
    O161    O    0.37740   0.12260   0.92880   1.000
    C235    C    0.45330   0.04670   0.73380   1.000
    C236    C    0.42588   0.07412   0.73530   1.000
    C237    C    0.41375   0.08625   0.70370   1.000
    H1833   H    0.42260   0.07740   0.68320   1.000
    C238    C    0.38744   0.11256   0.70260   1.000
    C239    C    0.37545   0.12455   0.73380   1.000
    H1834   H    0.35850   0.14150   0.73410   1.000
    C240    C    0.38780   0.11220   0.76440   1.000
    C241    C    0.41306   0.08694   0.76570   1.000
    H1835   H    0.42120   0.07880   0.78680   1.000
    C242    C    0.37310   0.12690   0.79900   1.000
    C243    C    0.37315   0.12685   0.66960   1.000
    H1836   H    0.36090   0.13910   0.93938   1.000
    O162    O    0.39910   0.10090   0.91300   1.000
    O163    O    0.46365   0.53635   0.26310   1.000
    O164    O    0.46392   0.53608   0.20550   1.000
    O165    O    0.34999   0.65001   0.29515   1.000
    O166    O    0.38464   0.61536   0.32516   1.000
    O167    O    0.37740   0.62260   0.42880   1.000
    C244    C    0.45330   0.54670   0.23380   1.000
    C245    C    0.42588   0.57412   0.23530   1.000
    C246    C    0.41375   0.58625   0.20370   1.000
    H1837   H    0.42260   0.57740   0.18320   1.000
    C247    C    0.38744   0.61256   0.20260   1.000
    C248    C    0.37545   0.62455   0.23380   1.000
    H1838   H    0.35850   0.64150   0.23410   1.000
    C249    C    0.38780   0.61220   0.26440   1.000
    C250    C    0.41306   0.58694   0.26570   1.000
    H1839   H    0.42120   0.57880   0.28680   1.000
    C251    C    0.37310   0.62690   0.29900   1.000
    C252    C    0.37315   0.62685   0.16960   1.000
    H1840   H    0.36090   0.63910   0.43938   1.000
    O168    O    0.39910   0.60090   0.41300   1.000
    O169    O    0.96365   0.96365   0.73690   1.000
    O170    O    0.96392   0.96392   0.79450   1.000
    O171    O    0.84999   0.84999   0.70485   1.000
    O172    O    0.88464   0.88464   0.67484   1.000
    O173    O    0.87740   0.87740   0.57120   1.000
    C253    C    0.95330   0.95330   0.76620   1.000
    C254    C    0.92588   0.92588   0.76470   1.000
    C255    C    0.91375   0.91375   0.79630   1.000
    H1841   H    0.92260   0.92260   0.81680   1.000
    C256    C    0.88744   0.88744   0.79740   1.000
    C257    C    0.87545   0.87545   0.76620   1.000
    H1842   H    0.85850   0.85850   0.76590   1.000
    C258    C    0.88780   0.88780   0.73560   1.000
    C259    C    0.91306   0.91306   0.73430   1.000
    H1843   H    0.92120   0.92120   0.71320   1.000
    C260    C    0.87310   0.87310   0.70100   1.000
    C261    C    0.87315   0.87315   0.83040   1.000
    H1844   H    0.86090   0.86090   0.56062   1.000
    O174    O    0.89910   0.89910   0.58700   1.000
    O175    O    0.96365   0.46365   0.23690   1.000
    O176    O    0.96392   0.46392   0.29450   1.000
    O177    O    0.84999   0.34999   0.20485   1.000
    O178    O    0.88464   0.38464   0.17484   1.000
    O179    O    0.87740   0.37740   0.07120   1.000
    C262    C    0.95330   0.45330   0.26620   1.000
    C263    C    0.92588   0.42588   0.26470   1.000
    C264    C    0.91375   0.41375   0.29630   1.000
    H1845   H    0.92260   0.42260   0.31680   1.000
    C265    C    0.88744   0.38744   0.29740   1.000
    C266    C    0.87545   0.37545   0.26620   1.000
    H1846   H    0.85850   0.35850   0.26590   1.000
    C267    C    0.88780   0.38780   0.23560   1.000
    C268    C    0.91306   0.41306   0.23430   1.000
    H1847   H    0.92120   0.42120   0.21320   1.000
    C269    C    0.87310   0.37310   0.20100   1.000
    C270    C    0.87315   0.37315   0.33040   1.000
    H1848   H    0.86090   0.36090   0.06062   1.000
    O180    O    0.89910   0.39910   0.08700   1.000
    O181    O    0.46365   0.96365   0.23690   1.000
    O182    O    0.46392   0.96392   0.29450   1.000
    O183    O    0.34999   0.84999   0.20485   1.000
    O184    O    0.38464   0.88464   0.17484   1.000
    O185    O    0.37740   0.87740   0.07120   1.000
    C271    C    0.45330   0.95330   0.26620   1.000
    C272    C    0.42588   0.92588   0.26470   1.000
    C273    C    0.41375   0.91375   0.29630   1.000
    H1849   H    0.42260   0.92260   0.31680   1.000
    C274    C    0.38744   0.88744   0.29740   1.000
    C275    C    0.37545   0.87545   0.26620   1.000
    H1850   H    0.35850   0.85850   0.26590   1.000
    C276    C    0.38780   0.88780   0.23560   1.000
    C277    C    0.41306   0.91306   0.23430   1.000
    H1851   H    0.42120   0.92120   0.21320   1.000
    C278    C    0.37310   0.87310   0.20100   1.000
    C279    C    0.37315   0.87315   0.33040   1.000
    H1852   H    0.36090   0.86090   0.06062   1.000
    O186    O    0.39910   0.89910   0.08700   1.000
    O187    O    0.46365   0.46365   0.73690   1.000
    O188    O    0.46392   0.46392   0.79450   1.000
    O189    O    0.34999   0.34999   0.70485   1.000
    O190    O    0.38464   0.38464   0.67484   1.000
    O191    O    0.37740   0.37740   0.57120   1.000
    C280    C    0.45330   0.45330   0.76620   1.000
    C281    C    0.42588   0.42588   0.76470   1.000
    C282    C    0.41375   0.41375   0.79630   1.000
    H1853   H    0.42260   0.42260   0.81680   1.000
    C283    C    0.38744   0.38744   0.79740   1.000
    C284    C    0.37545   0.37545   0.76620   1.000
    H1854   H    0.35850   0.35850   0.76590   1.000
    C285    C    0.38780   0.38780   0.73560   1.000
    C286    C    0.41306   0.41306   0.73430   1.000
    H1855   H    0.42120   0.42120   0.71320   1.000
    C287    C    0.37310   0.37310   0.70100   1.000
    C288    C    0.37315   0.37315   0.83040   1.000
    H1856   H    0.36090   0.36090   0.56062   1.000
    O192    O    0.39910   0.39910   0.58700   1.000
    O193    O    0.26310   0.03635   0.96365   1.000
    O194    O    0.20550   0.03608   0.96392   1.000
    O195    O    0.29515   0.15001   0.84999   1.000
    O196    O    0.32516   0.11536   0.88464   1.000
    O197    O    0.42880   0.12260   0.87740   1.000
    C289    C    0.23380   0.04670   0.95330   1.000
    C290    C    0.23530   0.07412   0.92588   1.000
    C291    C    0.20370   0.08625   0.91375   1.000
    H1857   H    0.18320   0.07740   0.92260   1.000
    C292    C    0.20260   0.11256   0.88744   1.000
    C293    C    0.23380   0.12455   0.87545   1.000
    H1858   H    0.23410   0.14150   0.85850   1.000
    C294    C    0.26440   0.11220   0.88780   1.000
    C295    C    0.26570   0.08694   0.91306   1.000
    H1859   H    0.28680   0.07880   0.92120   1.000
    C296    C    0.29900   0.12690   0.87310   1.000
    C297    C    0.16960   0.12685   0.87315   1.000
    H1860   H    0.43938   0.13910   0.86090   1.000
    O198    O    0.41300   0.10090   0.89910   1.000
    O199    O    0.26310   0.53635   0.46365   1.000
    O200    O    0.20550   0.53608   0.46392   1.000
    O201    O    0.29515   0.65001   0.34999   1.000
    O202    O    0.32516   0.61536   0.38464   1.000
    O203    O    0.42880   0.62260   0.37740   1.000
    C298    C    0.23380   0.54670   0.45330   1.000
    C299    C    0.23530   0.57412   0.42588   1.000
    C300    C    0.20370   0.58625   0.41375   1.000
    H1861   H    0.18320   0.57740   0.42260   1.000
    C301    C    0.20260   0.61256   0.38744   1.000
    C302    C    0.23380   0.62455   0.37545   1.000
    H1862   H    0.23410   0.64150   0.35850   1.000
    C303    C    0.26440   0.61220   0.38780   1.000
    C304    C    0.26570   0.58694   0.41306   1.000
    H1863   H    0.28680   0.57880   0.42120   1.000
    C305    C    0.29900   0.62690   0.37310   1.000
    C306    C    0.16960   0.62685   0.37315   1.000
    H1864   H    0.43938   0.63910   0.36090   1.000
    O204    O    0.41300   0.60090   0.39910   1.000
    O205    O    0.76310   0.03635   0.46365   1.000
    O206    O    0.70550   0.03608   0.46392   1.000
    O207    O    0.79515   0.15001   0.34999   1.000
    O208    O    0.82516   0.11536   0.38464   1.000
    O209    O    0.92880   0.12260   0.37740   1.000
    C307    C    0.73380   0.04670   0.45330   1.000
    C308    C    0.73530   0.07412   0.42588   1.000
    C309    C    0.70370   0.08625   0.41375   1.000
    H1865   H    0.68320   0.07740   0.42260   1.000
    C310    C    0.70260   0.11256   0.38744   1.000
    C311    C    0.73380   0.12455   0.37545   1.000
    H1866   H    0.73410   0.14150   0.35850   1.000
    C312    C    0.76440   0.11220   0.38780   1.000
    C313    C    0.76570   0.08694   0.41306   1.000
    H1867   H    0.78680   0.07880   0.42120   1.000
    C314    C    0.79900   0.12690   0.37310   1.000
    C315    C    0.66960   0.12685   0.37315   1.000
    H1868   H    0.93938   0.13910   0.36090   1.000
    O210    O    0.91300   0.10090   0.39910   1.000
    O211    O    0.76310   0.53635   0.96365   1.000
    O212    O    0.70550   0.53608   0.96392   1.000
    O213    O    0.79515   0.65001   0.84999   1.000
    O214    O    0.82516   0.61536   0.88464   1.000
    O215    O    0.92880   0.62260   0.87740   1.000
    C316    C    0.73380   0.54670   0.95330   1.000
    C317    C    0.73530   0.57412   0.92588   1.000
    C318    C    0.70370   0.58625   0.91375   1.000
    H1869   H    0.68320   0.57740   0.92260   1.000
    C319    C    0.70260   0.61256   0.88744   1.000
    C320    C    0.73380   0.62455   0.87545   1.000
    H1870   H    0.73410   0.64150   0.85850   1.000
    C321    C    0.76440   0.61220   0.88780   1.000
    C322    C    0.76570   0.58694   0.91306   1.000
    H1871   H    0.78680   0.57880   0.92120   1.000
    C323    C    0.79900   0.62690   0.87310   1.000
    C324    C    0.66960   0.62685   0.87315   1.000
    H1872   H    0.93938   0.63910   0.86090   1.000
    O216    O    0.91300   0.60090   0.89910   1.000
    O217    O    0.73690   0.03635   0.03635   1.000
    O218    O    0.79450   0.03608   0.03608   1.000
    O219    O    0.70485   0.15001   0.15001   1.000
    O220    O    0.67484   0.11536   0.11536   1.000
    O221    O    0.57120   0.12260   0.12260   1.000
    C325    C    0.76620   0.04670   0.04670   1.000
    C326    C    0.76470   0.07412   0.07412   1.000
    C327    C    0.79630   0.08625   0.08625   1.000
    H1873   H    0.81680   0.07740   0.07740   1.000
    C328    C    0.79740   0.11256   0.11256   1.000
    C329    C    0.76620   0.12455   0.12455   1.000
    H1874   H    0.76590   0.14150   0.14150   1.000
    C330    C    0.73560   0.11220   0.11220   1.000
    C331    C    0.73430   0.08694   0.08694   1.000
    H1875   H    0.71320   0.07880   0.07880   1.000
    C332    C    0.70100   0.12690   0.12690   1.000
    C333    C    0.83040   0.12685   0.12685   1.000
    H1876   H    0.56062   0.13910   0.13910   1.000
    O222    O    0.58700   0.10090   0.10090   1.000
    O223    O    0.73690   0.53635   0.53635   1.000
    O224    O    0.79450   0.53608   0.53608   1.000
    O225    O    0.70485   0.65001   0.65001   1.000
    O226    O    0.67484   0.61536   0.61536   1.000
    O227    O    0.57120   0.62260   0.62260   1.000
    C334    C    0.76620   0.54670   0.54670   1.000
    C335    C    0.76470   0.57412   0.57412   1.000
    C336    C    0.79630   0.58625   0.58625   1.000
    H1877   H    0.81680   0.57740   0.57740   1.000
    C337    C    0.79740   0.61256   0.61256   1.000
    C338    C    0.76620   0.62455   0.62455   1.000
    H1878   H    0.76590   0.64150   0.64150   1.000
    C339    C    0.73560   0.61220   0.61220   1.000
    C340    C    0.73430   0.58694   0.58694   1.000
    H1879   H    0.71320   0.57880   0.57880   1.000
    C341    C    0.70100   0.62690   0.62690   1.000
    C342    C    0.83040   0.62685   0.62685   1.000
    H1880   H    0.56062   0.63910   0.63910   1.000
    O228    O    0.58700   0.60090   0.60090   1.000
    O229    O    0.23690   0.03635   0.53635   1.000
    O230    O    0.29450   0.03608   0.53608   1.000
    O231    O    0.20485   0.15001   0.65001   1.000
    O232    O    0.17484   0.11536   0.61536   1.000
    O233    O    0.07120   0.12260   0.62260   1.000
    C343    C    0.26620   0.04670   0.54670   1.000
    C344    C    0.26470   0.07412   0.57412   1.000
    C345    C    0.29630   0.08625   0.58625   1.000
    H1881   H    0.31680   0.07740   0.57740   1.000
    C346    C    0.29740   0.11256   0.61256   1.000
    C347    C    0.26620   0.12455   0.62455   1.000
    H1882   H    0.26590   0.14150   0.64150   1.000
    C348    C    0.23560   0.11220   0.61220   1.000
    C349    C    0.23430   0.08694   0.58694   1.000
    H1883   H    0.21320   0.07880   0.57880   1.000
    C350    C    0.20100   0.12690   0.62690   1.000
    C351    C    0.33040   0.12685   0.62685   1.000
    H1884   H    0.06062   0.13910   0.63910   1.000
    O234    O    0.08700   0.10090   0.60090   1.000
    O235    O    0.23690   0.53635   0.03635   1.000
    O236    O    0.29450   0.53608   0.03608   1.000
    O237    O    0.20485   0.65001   0.15001   1.000
    O238    O    0.17484   0.61536   0.11536   1.000
    O239    O    0.07120   0.62260   0.12260   1.000
    C352    C    0.26620   0.54670   0.04670   1.000
    C353    C    0.26470   0.57412   0.07412   1.000
    C354    C    0.29630   0.58625   0.08625   1.000
    H1885   H    0.31680   0.57740   0.07740   1.000
    C355    C    0.29740   0.61256   0.11256   1.000
    C356    C    0.26620   0.62455   0.12455   1.000
    H1886   H    0.26590   0.64150   0.14150   1.000
    C357    C    0.23560   0.61220   0.11220   1.000
    C358    C    0.23430   0.58694   0.08694   1.000
    H1887   H    0.21320   0.57880   0.07880   1.000
    C359    C    0.20100   0.62690   0.12690   1.000
    C360    C    0.33040   0.62685   0.12685   1.000
    H1888   H    0.06062   0.63910   0.13910   1.000
    O240    O    0.08700   0.60090   0.10090   1.000
    O241    O    0.26310   0.96365   0.03635   1.000
    O242    O    0.20550   0.96392   0.03608   1.000
    O243    O    0.29515   0.84999   0.15001   1.000
    O244    O    0.32516   0.88464   0.11536   1.000
    O245    O    0.42880   0.87740   0.12260   1.000
    C361    C    0.23380   0.95330   0.04670   1.000
    C362    C    0.23530   0.92588   0.07412   1.000
    C363    C    0.20370   0.91375   0.08625   1.000
    H1889   H    0.18320   0.92260   0.07740   1.000
    C364    C    0.20260   0.88744   0.11256   1.000
    C365    C    0.23380   0.87545   0.12455   1.000
    H1890   H    0.23410   0.85850   0.14150   1.000
    C366    C    0.26440   0.88780   0.11220   1.000
    C367    C    0.26570   0.91306   0.08694   1.000
    H1891   H    0.28680   0.92120   0.07880   1.000
    C368    C    0.29900   0.87310   0.12690   1.000
    C369    C    0.16960   0.87315   0.12685   1.000
    H1892   H    0.43938   0.86090   0.13910   1.000
    O246    O    0.41300   0.89910   0.10090   1.000
    O247    O    0.26310   0.46365   0.53635   1.000
    O248    O    0.20550   0.46392   0.53608   1.000
    O249    O    0.29515   0.34999   0.65001   1.000
    O250    O    0.32516   0.38464   0.61536   1.000
    O251    O    0.42880   0.37740   0.62260   1.000
    C370    C    0.23380   0.45330   0.54670   1.000
    C371    C    0.23530   0.42588   0.57412   1.000
    C372    C    0.20370   0.41375   0.58625   1.000
    H1893   H    0.18320   0.42260   0.57740   1.000
    C373    C    0.20260   0.38744   0.61256   1.000
    C374    C    0.23380   0.37545   0.62455   1.000
    H1894   H    0.23410   0.35850   0.64150   1.000
    C375    C    0.26440   0.38780   0.61220   1.000
    C376    C    0.26570   0.41306   0.58694   1.000
    H1895   H    0.28680   0.42120   0.57880   1.000
    C377    C    0.29900   0.37310   0.62690   1.000
    C378    C    0.16960   0.37315   0.62685   1.000
    H1896   H    0.43938   0.36090   0.63910   1.000
    O252    O    0.41300   0.39910   0.60090   1.000
    O253    O    0.76310   0.96365   0.53635   1.000
    O254    O    0.70550   0.96392   0.53608   1.000
    O255    O    0.79515   0.84999   0.65001   1.000
    O256    O    0.82516   0.88464   0.61536   1.000
    O257    O    0.92880   0.87740   0.62260   1.000
    C379    C    0.73380   0.95330   0.54670   1.000
    C380    C    0.73530   0.92588   0.57412   1.000
    C381    C    0.70370   0.91375   0.58625   1.000
    H1897   H    0.68320   0.92260   0.57740   1.000
    C382    C    0.70260   0.88744   0.61256   1.000
    C383    C    0.73380   0.87545   0.62455   1.000
    H1898   H    0.73410   0.85850   0.64150   1.000
    C384    C    0.76440   0.88780   0.61220   1.000
    C385    C    0.76570   0.91306   0.58694   1.000
    H1899   H    0.78680   0.92120   0.57880   1.000
    C386    C    0.79900   0.87310   0.62690   1.000
    C387    C    0.66960   0.87315   0.62685   1.000
    H1900   H    0.93938   0.86090   0.63910   1.000
    O258    O    0.91300   0.89910   0.60090   1.000
    O259    O    0.76310   0.46365   0.03635   1.000
    O260    O    0.70550   0.46392   0.03608   1.000
    O261    O    0.79515   0.34999   0.15001   1.000
    O262    O    0.82516   0.38464   0.11536   1.000
    O263    O    0.92880   0.37740   0.12260   1.000
    C388    C    0.73380   0.45330   0.04670   1.000
    C389    C    0.73530   0.42588   0.07412   1.000
    C390    C    0.70370   0.41375   0.08625   1.000
    H1901   H    0.68320   0.42260   0.07740   1.000
    C391    C    0.70260   0.38744   0.11256   1.000
    C392    C    0.73380   0.37545   0.12455   1.000
    H1902   H    0.73410   0.35850   0.14150   1.000
    C393    C    0.76440   0.38780   0.11220   1.000
    C394    C    0.76570   0.41306   0.08694   1.000
    H1903   H    0.78680   0.42120   0.07880   1.000
    C395    C    0.79900   0.37310   0.12690   1.000
    C396    C    0.66960   0.37315   0.12685   1.000
    H1904   H    0.93938   0.36090   0.13910   1.000
    O264    O    0.91300   0.39910   0.10090   1.000
    O265    O    0.73690   0.96365   0.96365   1.000
    O266    O    0.79450   0.96392   0.96392   1.000
    O267    O    0.70485   0.84999   0.84999   1.000
    O268    O    0.67484   0.88464   0.88464   1.000
    O269    O    0.57120   0.87740   0.87740   1.000
    C397    C    0.76620   0.95330   0.95330   1.000
    C398    C    0.76470   0.92588   0.92588   1.000
    C399    C    0.79630   0.91375   0.91375   1.000
    H1905   H    0.81680   0.92260   0.92260   1.000
    C400    C    0.79740   0.88744   0.88744   1.000
    C401    C    0.76620   0.87545   0.87545   1.000
    H1906   H    0.76590   0.85850   0.85850   1.000
    C402    C    0.73560   0.88780   0.88780   1.000
    C403    C    0.73430   0.91306   0.91306   1.000
    H1907   H    0.71320   0.92120   0.92120   1.000
    C404    C    0.70100   0.87310   0.87310   1.000
    C405    C    0.83040   0.87315   0.87315   1.000
    H1908   H    0.56062   0.86090   0.86090   1.000
    O270    O    0.58700   0.89910   0.89910   1.000
    O271    O    0.73690   0.46365   0.46365   1.000
    O272    O    0.79450   0.46392   0.46392   1.000
    O273    O    0.70485   0.34999   0.34999   1.000
    O274    O    0.67484   0.38464   0.38464   1.000
    O275    O    0.57120   0.37740   0.37740   1.000
    C406    C    0.76620   0.45330   0.45330   1.000
    C407    C    0.76470   0.42588   0.42588   1.000
    C408    C    0.79630   0.41375   0.41375   1.000
    H1909   H    0.81680   0.42260   0.42260   1.000
    C409    C    0.79740   0.38744   0.38744   1.000
    C410    C    0.76620   0.37545   0.37545   1.000
    H1910   H    0.76590   0.35850   0.35850   1.000
    C411    C    0.73560   0.38780   0.38780   1.000
    C412    C    0.73430   0.41306   0.41306   1.000
    H1911   H    0.71320   0.42120   0.42120   1.000
    C413    C    0.70100   0.37310   0.37310   1.000
    C414    C    0.83040   0.37315   0.37315   1.000
    H1912   H    0.56062   0.36090   0.36090   1.000
    O276    O    0.58700   0.39910   0.39910   1.000
    O277    O    0.23690   0.96365   0.46365   1.000
    O278    O    0.29450   0.96392   0.46392   1.000
    O279    O    0.20485   0.84999   0.34999   1.000
    O280    O    0.17484   0.88464   0.38464   1.000
    O281    O    0.07120   0.87740   0.37740   1.000
    C415    C    0.26620   0.95330   0.45330   1.000
    C416    C    0.26470   0.92588   0.42588   1.000
    C417    C    0.29630   0.91375   0.41375   1.000
    H1913   H    0.31680   0.92260   0.42260   1.000
    C418    C    0.29740   0.88744   0.38744   1.000
    C419    C    0.26620   0.87545   0.37545   1.000
    H1914   H    0.26590   0.85850   0.35850   1.000
    C420    C    0.23560   0.88780   0.38780   1.000
    C421    C    0.23430   0.91306   0.41306   1.000
    H1915   H    0.21320   0.92120   0.42120   1.000
    C422    C    0.20100   0.87310   0.37310   1.000
    C423    C    0.33040   0.87315   0.37315   1.000
    H1916   H    0.06062   0.86090   0.36090   1.000
    O282    O    0.08700   0.89910   0.39910   1.000
    O283    O    0.23690   0.46365   0.96365   1.000
    O284    O    0.29450   0.46392   0.96392   1.000
    O285    O    0.20485   0.34999   0.84999   1.000
    O286    O    0.17484   0.38464   0.88464   1.000
    O287    O    0.07120   0.37740   0.87740   1.000
    C424    C    0.26620   0.45330   0.95330   1.000
    C425    C    0.26470   0.42588   0.92588   1.000
    C426    C    0.29630   0.41375   0.91375   1.000
    H1917   H    0.31680   0.42260   0.92260   1.000
    C427    C    0.29740   0.38744   0.88744   1.000
    C428    C    0.26620   0.37545   0.87545   1.000
    H1918   H    0.26590   0.35850   0.85850   1.000
    C429    C    0.23560   0.38780   0.88780   1.000
    C430    C    0.23430   0.41306   0.91306   1.000
    H1919   H    0.21320   0.42120   0.92120   1.000
    C431    C    0.20100   0.37310   0.87310   1.000
    C432    C    0.33040   0.37315   0.87315   1.000
    H1920   H    0.06062   0.36090   0.86090   1.000
    O288    O    0.08700   0.39910   0.89910   1.000
    O289    O    0.26310   0.96365   0.96365   1.000
    O290    O    0.20550   0.96392   0.96392   1.000
    O291    O    0.29515   0.84999   0.84999   1.000
    O292    O    0.32516   0.88464   0.88464   1.000
    O293    O    0.42880   0.87740   0.87740   1.000
    C433    C    0.23380   0.95330   0.95330   1.000
    C434    C    0.23530   0.92588   0.92588   1.000
    C435    C    0.20370   0.91375   0.91375   1.000
    H1921   H    0.18320   0.92260   0.92260   1.000
    C436    C    0.20260   0.88744   0.88744   1.000
    C437    C    0.23380   0.87545   0.87545   1.000
    H1922   H    0.23410   0.85850   0.85850   1.000
    C438    C    0.26440   0.88780   0.88780   1.000
    C439    C    0.26570   0.91306   0.91306   1.000
    H1923   H    0.28680   0.92120   0.92120   1.000
    C440    C    0.29900   0.87310   0.87310   1.000
    C441    C    0.16960   0.87315   0.87315   1.000
    H1924   H    0.43938   0.86090   0.86090   1.000
    O294    O    0.41300   0.89910   0.89910   1.000
    O295    O    0.26310   0.46365   0.46365   1.000
    O296    O    0.20550   0.46392   0.46392   1.000
    O297    O    0.29515   0.34999   0.34999   1.000
    O298    O    0.32516   0.38464   0.38464   1.000
    O299    O    0.42880   0.37740   0.37740   1.000
    C442    C    0.23380   0.45330   0.45330   1.000
    C443    C    0.23530   0.42588   0.42588   1.000
    C444    C    0.20370   0.41375   0.41375   1.000
    H1925   H    0.18320   0.42260   0.42260   1.000
    C445    C    0.20260   0.38744   0.38744   1.000
    C446    C    0.23380   0.37545   0.37545   1.000
    H1926   H    0.23410   0.35850   0.35850   1.000
    C447    C    0.26440   0.38780   0.38780   1.000
    C448    C    0.26570   0.41306   0.41306   1.000
    H1927   H    0.28680   0.42120   0.42120   1.000
    C449    C    0.29900   0.37310   0.37310   1.000
    C450    C    0.16960   0.37315   0.37315   1.000
    H1928   H    0.43938   0.36090   0.36090   1.000
    O300    O    0.41300   0.39910   0.39910   1.000
    O301    O    0.76310   0.96365   0.46365   1.000
    O302    O    0.70550   0.96392   0.46392   1.000
    O303    O    0.79515   0.84999   0.34999   1.000
    O304    O    0.82516   0.88464   0.38464   1.000
    O305    O    0.92880   0.87740   0.37740   1.000
    C451    C    0.73380   0.95330   0.45330   1.000
    C452    C    0.73530   0.92588   0.42588   1.000
    C453    C    0.70370   0.91375   0.41375   1.000
    H1929   H    0.68320   0.92260   0.42260   1.000
    C454    C    0.70260   0.88744   0.38744   1.000
    C455    C    0.73380   0.87545   0.37545   1.000
    H1930   H    0.73410   0.85850   0.35850   1.000
    C456    C    0.76440   0.88780   0.38780   1.000
    C457    C    0.76570   0.91306   0.41306   1.000
    H1931   H    0.78680   0.92120   0.42120   1.000
    C458    C    0.79900   0.87310   0.37310   1.000
    C459    C    0.66960   0.87315   0.37315   1.000
    H1932   H    0.93938   0.86090   0.36090   1.000
    O306    O    0.91300   0.89910   0.39910   1.000
    O307    O    0.76310   0.46365   0.96365   1.000
    O308    O    0.70550   0.46392   0.96392   1.000
    O309    O    0.79515   0.34999   0.84999   1.000
    O310    O    0.82516   0.38464   0.88464   1.000
    O311    O    0.92880   0.37740   0.87740   1.000
    C460    C    0.73380   0.45330   0.95330   1.000
    C461    C    0.73530   0.42588   0.92588   1.000
    C462    C    0.70370   0.41375   0.91375   1.000
    H1933   H    0.68320   0.42260   0.92260   1.000
    C463    C    0.70260   0.38744   0.88744   1.000
    C464    C    0.73380   0.37545   0.87545   1.000
    H1934   H    0.73410   0.35850   0.85850   1.000
    C465    C    0.76440   0.38780   0.88780   1.000
    C466    C    0.76570   0.41306   0.91306   1.000
    H1935   H    0.78680   0.42120   0.92120   1.000
    C467    C    0.79900   0.37310   0.87310   1.000
    C468    C    0.66960   0.37315   0.87315   1.000
    H1936   H    0.93938   0.36090   0.86090   1.000
    O312    O    0.91300   0.39910   0.89910   1.000
    O313    O    0.73690   0.03635   0.96365   1.000
    O314    O    0.79450   0.03608   0.96392   1.000
    O315    O    0.70485   0.15001   0.84999   1.000
    O316    O    0.67484   0.11536   0.88464   1.000
    O317    O    0.57120   0.12260   0.87740   1.000
    C469    C    0.76620   0.04670   0.95330   1.000
    C470    C    0.76470   0.07412   0.92588   1.000
    C471    C    0.79630   0.08625   0.91375   1.000
    H1937   H    0.81680   0.07740   0.92260   1.000
    C472    C    0.79740   0.11256   0.88744   1.000
    C473    C    0.76620   0.12455   0.87545   1.000
    H1938   H    0.76590   0.14150   0.85850   1.000
    C474    C    0.73560   0.11220   0.88780   1.000
    C475    C    0.73430   0.08694   0.91306   1.000
    H1939   H    0.71320   0.07880   0.92120   1.000
    C476    C    0.70100   0.12690   0.87310   1.000
    C477    C    0.83040   0.12685   0.87315   1.000
    H1940   H    0.56062   0.13910   0.86090   1.000
    O318    O    0.58700   0.10090   0.89910   1.000
    O319    O    0.73690   0.53635   0.46365   1.000
    O320    O    0.79450   0.53608   0.46392   1.000
    O321    O    0.70485   0.65001   0.34999   1.000
    O322    O    0.67484   0.61536   0.38464   1.000
    O323    O    0.57120   0.62260   0.37740   1.000
    C478    C    0.76620   0.54670   0.45330   1.000
    C479    C    0.76470   0.57412   0.42588   1.000
    C480    C    0.79630   0.58625   0.41375   1.000
    H1941   H    0.81680   0.57740   0.42260   1.000
    C481    C    0.79740   0.61256   0.38744   1.000
    C482    C    0.76620   0.62455   0.37545   1.000
    H1942   H    0.76590   0.64150   0.35850   1.000
    C483    C    0.73560   0.61220   0.38780   1.000
    C484    C    0.73430   0.58694   0.41306   1.000
    H1943   H    0.71320   0.57880   0.42120   1.000
    C485    C    0.70100   0.62690   0.37310   1.000
    C486    C    0.83040   0.62685   0.37315   1.000
    H1944   H    0.56062   0.63910   0.36090   1.000
    O324    O    0.58700   0.60090   0.39910   1.000
    O325    O    0.23690   0.03635   0.46365   1.000
    O326    O    0.29450   0.03608   0.46392   1.000
    O327    O    0.20485   0.15001   0.34999   1.000
    O328    O    0.17484   0.11536   0.38464   1.000
    O329    O    0.07120   0.12260   0.37740   1.000
    C487    C    0.26620   0.04670   0.45330   1.000
    C488    C    0.26470   0.07412   0.42588   1.000
    C489    C    0.29630   0.08625   0.41375   1.000
    H1945   H    0.31680   0.07740   0.42260   1.000
    C490    C    0.29740   0.11256   0.38744   1.000
    C491    C    0.26620   0.12455   0.37545   1.000
    H1946   H    0.26590   0.14150   0.35850   1.000
    C492    C    0.23560   0.11220   0.38780   1.000
    C493    C    0.23430   0.08694   0.41306   1.000
    H1947   H    0.21320   0.07880   0.42120   1.000
    C494    C    0.20100   0.12690   0.37310   1.000
    C495    C    0.33040   0.12685   0.37315   1.000
    H1948   H    0.06062   0.13910   0.36090   1.000
    O330    O    0.08700   0.10090   0.39910   1.000
    O331    O    0.23690   0.53635   0.96365   1.000
    O332    O    0.29450   0.53608   0.96392   1.000
    O333    O    0.20485   0.65001   0.84999   1.000
    O334    O    0.17484   0.61536   0.88464   1.000
    O335    O    0.07120   0.62260   0.87740   1.000
    C496    C    0.26620   0.54670   0.95330   1.000
    C497    C    0.26470   0.57412   0.92588   1.000
    C498    C    0.29630   0.58625   0.91375   1.000
    H1949   H    0.31680   0.57740   0.92260   1.000
    C499    C    0.29740   0.61256   0.88744   1.000
    C500    C    0.26620   0.62455   0.87545   1.000
    H1950   H    0.26590   0.64150   0.85850   1.000
    C501    C    0.23560   0.61220   0.88780   1.000
    C502    C    0.23430   0.58694   0.91306   1.000
    H1951   H    0.21320   0.57880   0.92120   1.000
    C503    C    0.20100   0.62690   0.87310   1.000
    C504    C    0.33040   0.62685   0.87315   1.000
    H1952   H    0.06062   0.63910   0.86090   1.000
    O336    O    0.08700   0.60090   0.89910   1.000
    O337    O    0.26310   0.03635   0.03635   1.000
    O338    O    0.20550   0.03608   0.03608   1.000
    O339    O    0.29515   0.15001   0.15001   1.000
    O340    O    0.32516   0.11536   0.11536   1.000
    O341    O    0.42880   0.12260   0.12260   1.000
    C505    C    0.23380   0.04670   0.04670   1.000
    C506    C    0.23530   0.07412   0.07412   1.000
    C507    C    0.20370   0.08625   0.08625   1.000
    H1953   H    0.18320   0.07740   0.07740   1.000
    C508    C    0.20260   0.11256   0.11256   1.000
    C509    C    0.23380   0.12455   0.12455   1.000
    H1954   H    0.23410   0.14150   0.14150   1.000
    C510    C    0.26440   0.11220   0.11220   1.000
    C511    C    0.26570   0.08694   0.08694   1.000
    H1955   H    0.28680   0.07880   0.07880   1.000
    C512    C    0.29900   0.12690   0.12690   1.000
    C513    C    0.16960   0.12685   0.12685   1.000
    H1956   H    0.43938   0.13910   0.13910   1.000
    O342    O    0.41300   0.10090   0.10090   1.000
    O343    O    0.26310   0.53635   0.53635   1.000
    O344    O    0.20550   0.53608   0.53608   1.000
    O345    O    0.29515   0.65001   0.65001   1.000
    O346    O    0.32516   0.61536   0.61536   1.000
    O347    O    0.42880   0.62260   0.62260   1.000
    C514    C    0.23380   0.54670   0.54670   1.000
    C515    C    0.23530   0.57412   0.57412   1.000
    C516    C    0.20370   0.58625   0.58625   1.000
    H1957   H    0.18320   0.57740   0.57740   1.000
    C517    C    0.20260   0.61256   0.61256   1.000
    C518    C    0.23380   0.62455   0.62455   1.000
    H1958   H    0.23410   0.64150   0.64150   1.000
    C519    C    0.26440   0.61220   0.61220   1.000
    C520    C    0.26570   0.58694   0.58694   1.000
    H1959   H    0.28680   0.57880   0.57880   1.000
    C521    C    0.29900   0.62690   0.62690   1.000
    C522    C    0.16960   0.62685   0.62685   1.000
    H1960   H    0.43938   0.63910   0.63910   1.000
    O348    O    0.41300   0.60090   0.60090   1.000
    O349    O    0.76310   0.03635   0.53635   1.000
    O350    O    0.70550   0.03608   0.53608   1.000
    O351    O    0.79515   0.15001   0.65001   1.000
    O352    O    0.82516   0.11536   0.61536   1.000
    O353    O    0.92880   0.12260   0.62260   1.000
    C523    C    0.73380   0.04670   0.54670   1.000
    C524    C    0.73530   0.07412   0.57412   1.000
    C525    C    0.70370   0.08625   0.58625   1.000
    H1961   H    0.68320   0.07740   0.57740   1.000
    C526    C    0.70260   0.11256   0.61256   1.000
    C527    C    0.73380   0.12455   0.62455   1.000
    H1962   H    0.73410   0.14150   0.64150   1.000
    C528    C    0.76440   0.11220   0.61220   1.000
    C529    C    0.76570   0.08694   0.58694   1.000
    H1963   H    0.78680   0.07880   0.57880   1.000
    C530    C    0.79900   0.12690   0.62690   1.000
    C531    C    0.66960   0.12685   0.62685   1.000
    H1964   H    0.93938   0.13910   0.63910   1.000
    O354    O    0.91300   0.10090   0.60090   1.000
    O355    O    0.76310   0.53635   0.03635   1.000
    O356    O    0.70550   0.53608   0.03608   1.000
    O357    O    0.79515   0.65001   0.15001   1.000
    O358    O    0.82516   0.61536   0.11536   1.000
    O359    O    0.92880   0.62260   0.12260   1.000
    C532    C    0.73380   0.54670   0.04670   1.000
    C533    C    0.73530   0.57412   0.07412   1.000
    C534    C    0.70370   0.58625   0.08625   1.000
    H1965   H    0.68320   0.57740   0.07740   1.000
    C535    C    0.70260   0.61256   0.11256   1.000
    C536    C    0.73380   0.62455   0.12455   1.000
    H1966   H    0.73410   0.64150   0.14150   1.000
    C537    C    0.76440   0.61220   0.11220   1.000
    C538    C    0.76570   0.58694   0.08694   1.000
    H1967   H    0.78680   0.57880   0.07880   1.000
    C539    C    0.79900   0.62690   0.12690   1.000
    C540    C    0.66960   0.62685   0.12685   1.000
    H1968   H    0.93938   0.63910   0.13910   1.000
    O360    O    0.91300   0.60090   0.10090   1.000
    O361    O    0.73690   0.96365   0.03635   1.000
    O362    O    0.79450   0.96392   0.03608   1.000
    O363    O    0.70485   0.84999   0.15001   1.000
    O364    O    0.67484   0.88464   0.11536   1.000
    O365    O    0.57120   0.87740   0.12260   1.000
    C541    C    0.76620   0.95330   0.04670   1.000
    C542    C    0.76470   0.92588   0.07412   1.000
    C543    C    0.79630   0.91375   0.08625   1.000
    H1969   H    0.81680   0.92260   0.07740   1.000
    C544    C    0.79740   0.88744   0.11256   1.000
    C545    C    0.76620   0.87545   0.12455   1.000
    H1970   H    0.76590   0.85850   0.14150   1.000
    C546    C    0.73560   0.88780   0.11220   1.000
    C547    C    0.73430   0.91306   0.08694   1.000
    H1971   H    0.71320   0.92120   0.07880   1.000
    C548    C    0.70100   0.87310   0.12690   1.000
    C549    C    0.83040   0.87315   0.12685   1.000
    H1972   H    0.56062   0.86090   0.13910   1.000
    O366    O    0.58700   0.89910   0.10090   1.000
    O367    O    0.73690   0.46365   0.53635   1.000
    O368    O    0.79450   0.46392   0.53608   1.000
    O369    O    0.70485   0.34999   0.65001   1.000
    O370    O    0.67484   0.38464   0.61536   1.000
    O371    O    0.57120   0.37740   0.62260   1.000
    C550    C    0.76620   0.45330   0.54670   1.000
    C551    C    0.76470   0.42588   0.57412   1.000
    C552    C    0.79630   0.41375   0.58625   1.000
    H1973   H    0.81680   0.42260   0.57740   1.000
    C553    C    0.79740   0.38744   0.61256   1.000
    C554    C    0.76620   0.37545   0.62455   1.000
    H1974   H    0.76590   0.35850   0.64150   1.000
    C555    C    0.73560   0.38780   0.61220   1.000
    C556    C    0.73430   0.41306   0.58694   1.000
    H1975   H    0.71320   0.42120   0.57880   1.000
    C557    C    0.70100   0.37310   0.62690   1.000
    C558    C    0.83040   0.37315   0.62685   1.000
    H1976   H    0.56062   0.36090   0.63910   1.000
    O372    O    0.58700   0.39910   0.60090   1.000
    O373    O    0.23690   0.96365   0.53635   1.000
    O374    O    0.29450   0.96392   0.53608   1.000
    O375    O    0.20485   0.84999   0.65001   1.000
    O376    O    0.17484   0.88464   0.61536   1.000
    O377    O    0.07120   0.87740   0.62260   1.000
    C559    C    0.26620   0.95330   0.54670   1.000
    C560    C    0.26470   0.92588   0.57412   1.000
    C561    C    0.29630   0.91375   0.58625   1.000
    H1977   H    0.31680   0.92260   0.57740   1.000
    C562    C    0.29740   0.88744   0.61256   1.000
    C563    C    0.26620   0.87545   0.62455   1.000
    H1978   H    0.26590   0.85850   0.64150   1.000
    C564    C    0.23560   0.88780   0.61220   1.000
    C565    C    0.23430   0.91306   0.58694   1.000
    H1979   H    0.21320   0.92120   0.57880   1.000
    C566    C    0.20100   0.87310   0.62690   1.000
    C567    C    0.33040   0.87315   0.62685   1.000
    H1980   H    0.06062   0.86090   0.63910   1.000
    O378    O    0.08700   0.89910   0.60090   1.000
    O379    O    0.23690   0.46365   0.03635   1.000
    O380    O    0.29450   0.46392   0.03608   1.000
    O381    O    0.20485   0.34999   0.15001   1.000
    O382    O    0.17484   0.38464   0.11536   1.000
    O383    O    0.07120   0.37740   0.12260   1.000
    C568    C    0.26620   0.45330   0.04670   1.000
    C569    C    0.26470   0.42588   0.07412   1.000
    C570    C    0.29630   0.41375   0.08625   1.000
    H1981   H    0.31680   0.42260   0.07740   1.000
    C571    C    0.29740   0.38744   0.11256   1.000
    C572    C    0.26620   0.37545   0.12455   1.000
    H1982   H    0.26590   0.35850   0.14150   1.000
    C573    C    0.23560   0.38780   0.11220   1.000
    C574    C    0.23430   0.41306   0.08694   1.000
    H1983   H    0.21320   0.42120   0.07880   1.000
    C575    C    0.20100   0.37310   0.12690   1.000
    C576    C    0.33040   0.37315   0.12685   1.000
    H1984   H    0.06062   0.36090   0.13910   1.000
    O384    O    0.08700   0.39910   0.10090   1.000
    O385    O    0.96365   0.03635   0.73690   1.000
    O386    O    0.96392   0.03608   0.79450   1.000
    O387    O    0.84999   0.15001   0.70485   1.000
    O388    O    0.88464   0.11536   0.67484   1.000
    O389    O    0.87740   0.12260   0.57120   1.000
    C577    C    0.95330   0.04670   0.76620   1.000
    C578    C    0.92588   0.07412   0.76470   1.000
    C579    C    0.91375   0.08625   0.79630   1.000
    H1985   H    0.92260   0.07740   0.81680   1.000
    C580    C    0.88744   0.11256   0.79740   1.000
    C581    C    0.87545   0.12455   0.76620   1.000
    H1986   H    0.85850   0.14150   0.76590   1.000
    C582    C    0.88780   0.11220   0.73560   1.000
    C583    C    0.91306   0.08694   0.73430   1.000
    H1987   H    0.92120   0.07880   0.71320   1.000
    C584    C    0.87310   0.12690   0.70100   1.000
    C585    C    0.87315   0.12685   0.83040   1.000
    H1988   H    0.86090   0.13910   0.56062   1.000
    O390    O    0.89910   0.10090   0.58700   1.000
    O391    O    0.96365   0.53635   0.23690   1.000
    O392    O    0.96392   0.53608   0.29450   1.000
    O393    O    0.84999   0.65001   0.20485   1.000
    O394    O    0.88464   0.61536   0.17484   1.000
    O395    O    0.87740   0.62260   0.07120   1.000
    C586    C    0.95330   0.54670   0.26620   1.000
    C587    C    0.92588   0.57412   0.26470   1.000
    C588    C    0.91375   0.58625   0.29630   1.000
    H1989   H    0.92260   0.57740   0.31680   1.000
    C589    C    0.88744   0.61256   0.29740   1.000
    C590    C    0.87545   0.62455   0.26620   1.000
    H1990   H    0.85850   0.64150   0.26590   1.000
    C591    C    0.88780   0.61220   0.23560   1.000
    C592    C    0.91306   0.58694   0.23430   1.000
    H1991   H    0.92120   0.57880   0.21320   1.000
    C593    C    0.87310   0.62690   0.20100   1.000
    C594    C    0.87315   0.62685   0.33040   1.000
    H1992   H    0.86090   0.63910   0.06062   1.000
    O396    O    0.89910   0.60090   0.08700   1.000
    O397    O    0.46365   0.03635   0.23690   1.000
    O398    O    0.46392   0.03608   0.29450   1.000
    O399    O    0.34999   0.15001   0.20485   1.000
    O400    O    0.38464   0.11536   0.17484   1.000
    O401    O    0.37740   0.12260   0.07120   1.000
    C595    C    0.45330   0.04670   0.26620   1.000
    C596    C    0.42588   0.07412   0.26470   1.000
    C597    C    0.41375   0.08625   0.29630   1.000
    H1993   H    0.42260   0.07740   0.31680   1.000
    C598    C    0.38744   0.11256   0.29740   1.000
    C599    C    0.37545   0.12455   0.26620   1.000
    H1994   H    0.35850   0.14150   0.26590   1.000
    C600    C    0.38780   0.11220   0.23560   1.000
    C601    C    0.41306   0.08694   0.23430   1.000
    H1995   H    0.42120   0.07880   0.21320   1.000
    C602    C    0.37310   0.12690   0.20100   1.000
    C603    C    0.37315   0.12685   0.33040   1.000
    H1996   H    0.36090   0.13910   0.06062   1.000
    O402    O    0.39910   0.10090   0.08700   1.000
    O403    O    0.46365   0.53635   0.73690   1.000
    O404    O    0.46392   0.53608   0.79450   1.000
    O405    O    0.34999   0.65001   0.70485   1.000
    O406    O    0.38464   0.61536   0.67484   1.000
    O407    O    0.37740   0.62260   0.57120   1.000
    C604    C    0.45330   0.54670   0.76620   1.000
    C605    C    0.42588   0.57412   0.76470   1.000
    C606    C    0.41375   0.58625   0.79630   1.000
    H1997   H    0.42260   0.57740   0.81680   1.000
    C607    C    0.38744   0.61256   0.79740   1.000
    C608    C    0.37545   0.62455   0.76620   1.000
    H1998   H    0.35850   0.64150   0.76590   1.000
    C609    C    0.38780   0.61220   0.73560   1.000
    C610    C    0.41306   0.58694   0.73430   1.000
    H1999   H    0.42120   0.57880   0.71320   1.000
    C611    C    0.37310   0.62690   0.70100   1.000
    C612    C    0.37315   0.62685   0.83040   1.000
    H2000   H    0.36090   0.63910   0.56062   1.000
    O408    O    0.39910   0.60090   0.58700   1.000
    O409    O    0.03635   0.03635   0.26310   1.000
    O410    O    0.03608   0.03608   0.20550   1.000
    O411    O    0.15001   0.15001   0.29515   1.000
    O412    O    0.11536   0.11536   0.32516   1.000
    O413    O    0.12260   0.12260   0.42880   1.000
    C613    C    0.04670   0.04670   0.23380   1.000
    C614    C    0.07412   0.07412   0.23530   1.000
    C615    C    0.08625   0.08625   0.20370   1.000
    H2001   H    0.07740   0.07740   0.18320   1.000
    C616    C    0.11256   0.11256   0.20260   1.000
    C617    C    0.12455   0.12455   0.23380   1.000
    H2002   H    0.14150   0.14150   0.23410   1.000
    C618    C    0.11220   0.11220   0.26440   1.000
    C619    C    0.08694   0.08694   0.26570   1.000
    H2003   H    0.07880   0.07880   0.28680   1.000
    C620    C    0.12690   0.12690   0.29900   1.000
    C621    C    0.12685   0.12685   0.16960   1.000
    H2004   H    0.13910   0.13910   0.43938   1.000
    O414    O    0.10090   0.10090   0.41300   1.000
    O415    O    0.03635   0.53635   0.76310   1.000
    O416    O    0.03608   0.53608   0.70550   1.000
    O417    O    0.15001   0.65001   0.79515   1.000
    O418    O    0.11536   0.61536   0.82516   1.000
    O419    O    0.12260   0.62260   0.92880   1.000
    C622    C    0.04670   0.54670   0.73380   1.000
    C623    C    0.07412   0.57412   0.73530   1.000
    C624    C    0.08625   0.58625   0.70370   1.000
    H2005   H    0.07740   0.57740   0.68320   1.000
    C625    C    0.11256   0.61256   0.70260   1.000
    C626    C    0.12455   0.62455   0.73380   1.000
    H2006   H    0.14150   0.64150   0.73410   1.000
    C627    C    0.11220   0.61220   0.76440   1.000
    C628    C    0.08694   0.58694   0.76570   1.000
    H2007   H    0.07880   0.57880   0.78680   1.000
    C629    C    0.12690   0.62690   0.79900   1.000
    C630    C    0.12685   0.62685   0.66960   1.000
    H2008   H    0.13910   0.63910   0.93938   1.000
    O420    O    0.10090   0.60090   0.91300   1.000
    O421    O    0.53635   0.03635   0.76310   1.000
    O422    O    0.53608   0.03608   0.70550   1.000
    O423    O    0.65001   0.15001   0.79515   1.000
    O424    O    0.61536   0.11536   0.82516   1.000
    O425    O    0.62260   0.12260   0.92880   1.000
    C631    C    0.54670   0.04670   0.73380   1.000
    C632    C    0.57412   0.07412   0.73530   1.000
    C633    C    0.58625   0.08625   0.70370   1.000
    H2009   H    0.57740   0.07740   0.68320   1.000
    C634    C    0.61256   0.11256   0.70260   1.000
    C635    C    0.62455   0.12455   0.73380   1.000
    H2010   H    0.64150   0.14150   0.73410   1.000
    C636    C    0.61220   0.11220   0.76440   1.000
    C637    C    0.58694   0.08694   0.76570   1.000
    H2011   H    0.57880   0.07880   0.78680   1.000
    C638    C    0.62690   0.12690   0.79900   1.000
    C639    C    0.62685   0.12685   0.66960   1.000
    H2012   H    0.63910   0.13910   0.93938   1.000
    O426    O    0.60090   0.10090   0.91300   1.000
    O427    O    0.53635   0.53635   0.26310   1.000
    O428    O    0.53608   0.53608   0.20550   1.000
    O429    O    0.65001   0.65001   0.29515   1.000
    O430    O    0.61536   0.61536   0.32516   1.000
    O431    O    0.62260   0.62260   0.42880   1.000
    C640    C    0.54670   0.54670   0.23380   1.000
    C641    C    0.57412   0.57412   0.23530   1.000
    C642    C    0.58625   0.58625   0.20370   1.000
    H2013   H    0.57740   0.57740   0.18320   1.000
    C643    C    0.61256   0.61256   0.20260   1.000
    C644    C    0.62455   0.62455   0.23380   1.000
    H2014   H    0.64150   0.64150   0.23410   1.000
    C645    C    0.61220   0.61220   0.26440   1.000
    C646    C    0.58694   0.58694   0.26570   1.000
    H2015   H    0.57880   0.57880   0.28680   1.000
    C647    C    0.62690   0.62690   0.29900   1.000
    C648    C    0.62685   0.62685   0.16960   1.000
    H2016   H    0.63910   0.63910   0.43938   1.000
    O432    O    0.60090   0.60090   0.41300   1.000
    O433    O    0.03635   0.96365   0.73690   1.000
    O434    O    0.03608   0.96392   0.79450   1.000
    O435    O    0.15001   0.84999   0.70485   1.000
    O436    O    0.11536   0.88464   0.67484   1.000
    O437    O    0.12260   0.87740   0.57120   1.000
    C649    C    0.04670   0.95330   0.76620   1.000
    C650    C    0.07412   0.92588   0.76470   1.000
    C651    C    0.08625   0.91375   0.79630   1.000
    H2017   H    0.07740   0.92260   0.81680   1.000
    C652    C    0.11256   0.88744   0.79740   1.000
    C653    C    0.12455   0.87545   0.76620   1.000
    H2018   H    0.14150   0.85850   0.76590   1.000
    C654    C    0.11220   0.88780   0.73560   1.000
    C655    C    0.08694   0.91306   0.73430   1.000
    H2019   H    0.07880   0.92120   0.71320   1.000
    C656    C    0.12690   0.87310   0.70100   1.000
    C657    C    0.12685   0.87315   0.83040   1.000
    H2020   H    0.13910   0.86090   0.56062   1.000
    O438    O    0.10090   0.89910   0.58700   1.000
    O439    O    0.03635   0.46365   0.23690   1.000
    O440    O    0.03608   0.46392   0.29450   1.000
    O441    O    0.15001   0.34999   0.20485   1.000
    O442    O    0.11536   0.38464   0.17484   1.000
    O443    O    0.12260   0.37740   0.07120   1.000
    C658    C    0.04670   0.45330   0.26620   1.000
    C659    C    0.07412   0.42588   0.26470   1.000
    C660    C    0.08625   0.41375   0.29630   1.000
    H2021   H    0.07740   0.42260   0.31680   1.000
    C661    C    0.11256   0.38744   0.29740   1.000
    C662    C    0.12455   0.37545   0.26620   1.000
    H2022   H    0.14150   0.35850   0.26590   1.000
    C663    C    0.11220   0.38780   0.23560   1.000
    C664    C    0.08694   0.41306   0.23430   1.000
    H2023   H    0.07880   0.42120   0.21320   1.000
    C665    C    0.12690   0.37310   0.20100   1.000
    C666    C    0.12685   0.37315   0.33040   1.000
    H2024   H    0.13910   0.36090   0.06062   1.000
    O444    O    0.10090   0.39910   0.08700   1.000
    O445    O    0.53635   0.96365   0.23690   1.000
    O446    O    0.53608   0.96392   0.29450   1.000
    O447    O    0.65001   0.84999   0.20485   1.000
    O448    O    0.61536   0.88464   0.17484   1.000
    O449    O    0.62260   0.87740   0.07120   1.000
    C667    C    0.54670   0.95330   0.26620   1.000
    C668    C    0.57412   0.92588   0.26470   1.000
    C669    C    0.58625   0.91375   0.29630   1.000
    H2025   H    0.57740   0.92260   0.31680   1.000
    C670    C    0.61256   0.88744   0.29740   1.000
    C671    C    0.62455   0.87545   0.26620   1.000
    H2026   H    0.64150   0.85850   0.26590   1.000
    C672    C    0.61220   0.88780   0.23560   1.000
    C673    C    0.58694   0.91306   0.23430   1.000
    H2027   H    0.57880   0.92120   0.21320   1.000
    C674    C    0.62690   0.87310   0.20100   1.000
    C675    C    0.62685   0.87315   0.33040   1.000
    H2028   H    0.63910   0.86090   0.06062   1.000
    O450    O    0.60090   0.89910   0.08700   1.000
    O451    O    0.53635   0.46365   0.73690   1.000
    O452    O    0.53608   0.46392   0.79450   1.000
    O453    O    0.65001   0.34999   0.70485   1.000
    O454    O    0.61536   0.38464   0.67484   1.000
    O455    O    0.62260   0.37740   0.57120   1.000
    C676    C    0.54670   0.45330   0.76620   1.000
    C677    C    0.57412   0.42588   0.76470   1.000
    C678    C    0.58625   0.41375   0.79630   1.000
    H2029   H    0.57740   0.42260   0.81680   1.000
    C679    C    0.61256   0.38744   0.79740   1.000
    C680    C    0.62455   0.37545   0.76620   1.000
    H2030   H    0.64150   0.35850   0.76590   1.000
    C681    C    0.61220   0.38780   0.73560   1.000
    C682    C    0.58694   0.41306   0.73430   1.000
    H2031   H    0.57880   0.42120   0.71320   1.000
    C683    C    0.62690   0.37310   0.70100   1.000
    C684    C    0.62685   0.37315   0.83040   1.000
    H2032   H    0.63910   0.36090   0.56062   1.000
    O456    O    0.60090   0.39910   0.58700   1.000
    O457    O    0.96365   0.96365   0.26310   1.000
    O458    O    0.96392   0.96392   0.20550   1.000
    O459    O    0.84999   0.84999   0.29515   1.000
    O460    O    0.88464   0.88464   0.32516   1.000
    O461    O    0.87740   0.87740   0.42880   1.000
    C685    C    0.95330   0.95330   0.23380   1.000
    C686    C    0.92588   0.92588   0.23530   1.000
    C687    C    0.91375   0.91375   0.20370   1.000
    H2033   H    0.92260   0.92260   0.18320   1.000
    C688    C    0.88744   0.88744   0.20260   1.000
    C689    C    0.87545   0.87545   0.23380   1.000
    H2034   H    0.85850   0.85850   0.23410   1.000
    C690    C    0.88780   0.88780   0.26440   1.000
    C691    C    0.91306   0.91306   0.26570   1.000
    H2035   H    0.92120   0.92120   0.28680   1.000
    C692    C    0.87310   0.87310   0.29900   1.000
    C693    C    0.87315   0.87315   0.16960   1.000
    H2036   H    0.86090   0.86090   0.43938   1.000
    O462    O    0.89910   0.89910   0.41300   1.000
    O463    O    0.96365   0.46365   0.76310   1.000
    O464    O    0.96392   0.46392   0.70550   1.000
    O465    O    0.84999   0.34999   0.79515   1.000
    O466    O    0.88464   0.38464   0.82516   1.000
    O467    O    0.87740   0.37740   0.92880   1.000
    C694    C    0.95330   0.45330   0.73380   1.000
    C695    C    0.92588   0.42588   0.73530   1.000
    C696    C    0.91375   0.41375   0.70370   1.000
    H2037   H    0.92260   0.42260   0.68320   1.000
    C697    C    0.88744   0.38744   0.70260   1.000
    C698    C    0.87545   0.37545   0.73380   1.000
    H2038   H    0.85850   0.35850   0.73410   1.000
    C699    C    0.88780   0.38780   0.76440   1.000
    C700    C    0.91306   0.41306   0.76570   1.000
    H2039   H    0.92120   0.42120   0.78680   1.000
    C701    C    0.87310   0.37310   0.79900   1.000
    C702    C    0.87315   0.37315   0.66960   1.000
    H2040   H    0.86090   0.36090   0.93938   1.000
    O468    O    0.89910   0.39910   0.91300   1.000
    O469    O    0.46365   0.96365   0.76310   1.000
    O470    O    0.46392   0.96392   0.70550   1.000
    O471    O    0.34999   0.84999   0.79515   1.000
    O472    O    0.38464   0.88464   0.82516   1.000
    O473    O    0.37740   0.87740   0.92880   1.000
    C703    C    0.45330   0.95330   0.73380   1.000
    C704    C    0.42588   0.92588   0.73530   1.000
    C705    C    0.41375   0.91375   0.70370   1.000
    H2041   H    0.42260   0.92260   0.68320   1.000
    C706    C    0.38744   0.88744   0.70260   1.000
    C707    C    0.37545   0.87545   0.73380   1.000
    H2042   H    0.35850   0.85850   0.73410   1.000
    C708    C    0.38780   0.88780   0.76440   1.000
    C709    C    0.41306   0.91306   0.76570   1.000
    H2043   H    0.42120   0.92120   0.78680   1.000
    C710    C    0.37310   0.87310   0.79900   1.000
    C711    C    0.37315   0.87315   0.66960   1.000
    H2044   H    0.36090   0.86090   0.93938   1.000
    O474    O    0.39910   0.89910   0.91300   1.000
    O475    O    0.46365   0.46365   0.26310   1.000
    O476    O    0.46392   0.46392   0.20550   1.000
    O477    O    0.34999   0.34999   0.29515   1.000
    O478    O    0.38464   0.38464   0.32516   1.000
    O479    O    0.37740   0.37740   0.42880   1.000
    C712    C    0.45330   0.45330   0.23380   1.000
    C713    C    0.42588   0.42588   0.23530   1.000
    C714    C    0.41375   0.41375   0.20370   1.000
    H2045   H    0.42260   0.42260   0.18320   1.000
    C715    C    0.38744   0.38744   0.20260   1.000
    C716    C    0.37545   0.37545   0.23380   1.000
    H2046   H    0.35850   0.35850   0.23410   1.000
    C717    C    0.38780   0.38780   0.26440   1.000
    C718    C    0.41306   0.41306   0.26570   1.000
    H2047   H    0.42120   0.42120   0.28680   1.000
    C719    C    0.37310   0.37310   0.29900   1.000
    C720    C    0.37315   0.37315   0.16960   1.000
    H2048   H    0.36090   0.36090   0.43938   1.000
    O480    O    0.39910   0.39910   0.41300   1.000
    O481    O    0.03635   0.26310   0.03635   1.000
    O482    O    0.03608   0.20550   0.03608   1.000
    O483    O    0.15001   0.29515   0.15001   1.000
    O484    O    0.11536   0.32516   0.11536   1.000
    O485    O    0.12260   0.42880   0.12260   1.000
    C721    C    0.04670   0.23380   0.04670   1.000
    C722    C    0.07412   0.23530   0.07412   1.000
    C723    C    0.08625   0.20370   0.08625   1.000
    H2049   H    0.07740   0.18320   0.07740   1.000
    C724    C    0.11256   0.20260   0.11256   1.000
    C725    C    0.12455   0.23380   0.12455   1.000
    H2050   H    0.14150   0.23410   0.14150   1.000
    C726    C    0.11220   0.26440   0.11220   1.000
    C727    C    0.08694   0.26570   0.08694   1.000
    H2051   H    0.07880   0.28680   0.07880   1.000
    C728    C    0.12690   0.29900   0.12690   1.000
    C729    C    0.12685   0.16960   0.12685   1.000
    H2052   H    0.13910   0.43938   0.13910   1.000
    O486    O    0.10090   0.41300   0.10090   1.000
    O487    O    0.03635   0.76310   0.53635   1.000
    O488    O    0.03608   0.70550   0.53608   1.000
    O489    O    0.15001   0.79515   0.65001   1.000
    O490    O    0.11536   0.82516   0.61536   1.000
    O491    O    0.12260   0.92880   0.62260   1.000
    C730    C    0.04670   0.73380   0.54670   1.000
    C731    C    0.07412   0.73530   0.57412   1.000
    C732    C    0.08625   0.70370   0.58625   1.000
    H2053   H    0.07740   0.68320   0.57740   1.000
    C733    C    0.11256   0.70260   0.61256   1.000
    C734    C    0.12455   0.73380   0.62455   1.000
    H2054   H    0.14150   0.73410   0.64150   1.000
    C735    C    0.11220   0.76440   0.61220   1.000
    C736    C    0.08694   0.76570   0.58694   1.000
    H2055   H    0.07880   0.78680   0.57880   1.000
    C737    C    0.12690   0.79900   0.62690   1.000
    C738    C    0.12685   0.66960   0.62685   1.000
    H2056   H    0.13910   0.93938   0.63910   1.000
    O492    O    0.10090   0.91300   0.60090   1.000
    O493    O    0.53635   0.26310   0.53635   1.000
    O494    O    0.53608   0.20550   0.53608   1.000
    O495    O    0.65001   0.29515   0.65001   1.000
    O496    O    0.61536   0.32516   0.61536   1.000
    O497    O    0.62260   0.42880   0.62260   1.000
    C739    C    0.54670   0.23380   0.54670   1.000
    C740    C    0.57412   0.23530   0.57412   1.000
    C741    C    0.58625   0.20370   0.58625   1.000
    H2057   H    0.57740   0.18320   0.57740   1.000
    C742    C    0.61256   0.20260   0.61256   1.000
    C743    C    0.62455   0.23380   0.62455   1.000
    H2058   H    0.64150   0.23410   0.64150   1.000
    C744    C    0.61220   0.26440   0.61220   1.000
    C745    C    0.58694   0.26570   0.58694   1.000
    H2059   H    0.57880   0.28680   0.57880   1.000
    C746    C    0.62690   0.29900   0.62690   1.000
    C747    C    0.62685   0.16960   0.62685   1.000
    H2060   H    0.63910   0.43938   0.63910   1.000
    O498    O    0.60090   0.41300   0.60090   1.000
    O499    O    0.53635   0.76310   0.03635   1.000
    O500    O    0.53608   0.70550   0.03608   1.000
    O501    O    0.65001   0.79515   0.15001   1.000
    O502    O    0.61536   0.82516   0.11536   1.000
    O503    O    0.62260   0.92880   0.12260   1.000
    C748    C    0.54670   0.73380   0.04670   1.000
    C749    C    0.57412   0.73530   0.07412   1.000
    C750    C    0.58625   0.70370   0.08625   1.000
    H2061   H    0.57740   0.68320   0.07740   1.000
    C751    C    0.61256   0.70260   0.11256   1.000
    C752    C    0.62455   0.73380   0.12455   1.000
    H2062   H    0.64150   0.73410   0.14150   1.000
    C753    C    0.61220   0.76440   0.11220   1.000
    C754    C    0.58694   0.76570   0.08694   1.000
    H2063   H    0.57880   0.78680   0.07880   1.000
    C755    C    0.62690   0.79900   0.12690   1.000
    C756    C    0.62685   0.66960   0.12685   1.000
    H2064   H    0.63910   0.93938   0.13910   1.000
    O504    O    0.60090   0.91300   0.10090   1.000
    O505    O    0.03635   0.73690   0.96365   1.000
    O506    O    0.03608   0.79450   0.96392   1.000
    O507    O    0.15001   0.70485   0.84999   1.000
    O508    O    0.11536   0.67484   0.88464   1.000
    O509    O    0.12260   0.57120   0.87740   1.000
    C757    C    0.04670   0.76620   0.95330   1.000
    C758    C    0.07412   0.76470   0.92588   1.000
    C759    C    0.08625   0.79630   0.91375   1.000
    H2065   H    0.07740   0.81680   0.92260   1.000
    C760    C    0.11256   0.79740   0.88744   1.000
    C761    C    0.12455   0.76620   0.87545   1.000
    H2066   H    0.14150   0.76590   0.85850   1.000
    C762    C    0.11220   0.73560   0.88780   1.000
    C763    C    0.08694   0.73430   0.91306   1.000
    H2067   H    0.07880   0.71320   0.92120   1.000
    C764    C    0.12690   0.70100   0.87310   1.000
    C765    C    0.12685   0.83040   0.87315   1.000
    H2068   H    0.13910   0.56062   0.86090   1.000
    O510    O    0.10090   0.58700   0.89910   1.000
    O511    O    0.03635   0.23690   0.46365   1.000
    O512    O    0.03608   0.29450   0.46392   1.000
    O513    O    0.15001   0.20485   0.34999   1.000
    O514    O    0.11536   0.17484   0.38464   1.000
    O515    O    0.12260   0.07120   0.37740   1.000
    C766    C    0.04670   0.26620   0.45330   1.000
    C767    C    0.07412   0.26470   0.42588   1.000
    C768    C    0.08625   0.29630   0.41375   1.000
    H2069   H    0.07740   0.31680   0.42260   1.000
    C769    C    0.11256   0.29740   0.38744   1.000
    C770    C    0.12455   0.26620   0.37545   1.000
    H2070   H    0.14150   0.26590   0.35850   1.000
    C771    C    0.11220   0.23560   0.38780   1.000
    C772    C    0.08694   0.23430   0.41306   1.000
    H2071   H    0.07880   0.21320   0.42120   1.000
    C773    C    0.12690   0.20100   0.37310   1.000
    C774    C    0.12685   0.33040   0.37315   1.000
    H2072   H    0.13910   0.06062   0.36090   1.000
    O516    O    0.10090   0.08700   0.39910   1.000
    O517    O    0.53635   0.73690   0.46365   1.000
    O518    O    0.53608   0.79450   0.46392   1.000
    O519    O    0.65001   0.70485   0.34999   1.000
    O520    O    0.61536   0.67484   0.38464   1.000
    O521    O    0.62260   0.57120   0.37740   1.000
    C775    C    0.54670   0.76620   0.45330   1.000
    C776    C    0.57412   0.76470   0.42588   1.000
    C777    C    0.58625   0.79630   0.41375   1.000
    H2073   H    0.57740   0.81680   0.42260   1.000
    C778    C    0.61256   0.79740   0.38744   1.000
    C779    C    0.62455   0.76620   0.37545   1.000
    H2074   H    0.64150   0.76590   0.35850   1.000
    C780    C    0.61220   0.73560   0.38780   1.000
    C781    C    0.58694   0.73430   0.41306   1.000
    H2075   H    0.57880   0.71320   0.42120   1.000
    C782    C    0.62690   0.70100   0.37310   1.000
    C783    C    0.62685   0.83040   0.37315   1.000
    H2076   H    0.63910   0.56062   0.36090   1.000
    O522    O    0.60090   0.58700   0.39910   1.000
    O523    O    0.53635   0.23690   0.96365   1.000
    O524    O    0.53608   0.29450   0.96392   1.000
    O525    O    0.65001   0.20485   0.84999   1.000
    O526    O    0.61536   0.17484   0.88464   1.000
    O527    O    0.62260   0.07120   0.87740   1.000
    C784    C    0.54670   0.26620   0.95330   1.000
    C785    C    0.57412   0.26470   0.92588   1.000
    C786    C    0.58625   0.29630   0.91375   1.000
    H2077   H    0.57740   0.31680   0.92260   1.000
    C787    C    0.61256   0.29740   0.88744   1.000
    C788    C    0.62455   0.26620   0.87545   1.000
    H2078   H    0.64150   0.26590   0.85850   1.000
    C789    C    0.61220   0.23560   0.88780   1.000
    C790    C    0.58694   0.23430   0.91306   1.000
    H2079   H    0.57880   0.21320   0.92120   1.000
    C791    C    0.62690   0.20100   0.87310   1.000
    C792    C    0.62685   0.33040   0.87315   1.000
    H2080   H    0.63910   0.06062   0.86090   1.000
    O528    O    0.60090   0.08700   0.89910   1.000
    O529    O    0.96365   0.26310   0.96365   1.000
    O530    O    0.96392   0.20550   0.96392   1.000
    O531    O    0.84999   0.29515   0.84999   1.000
    O532    O    0.88464   0.32516   0.88464   1.000
    O533    O    0.87740   0.42880   0.87740   1.000
    C793    C    0.95330   0.23380   0.95330   1.000
    C794    C    0.92588   0.23530   0.92588   1.000
    C795    C    0.91375   0.20370   0.91375   1.000
    H2081   H    0.92260   0.18320   0.92260   1.000
    C796    C    0.88744   0.20260   0.88744   1.000
    C797    C    0.87545   0.23380   0.87545   1.000
    H2082   H    0.85850   0.23410   0.85850   1.000
    C798    C    0.88780   0.26440   0.88780   1.000
    C799    C    0.91306   0.26570   0.91306   1.000
    H2083   H    0.92120   0.28680   0.92120   1.000
    C800    C    0.87310   0.29900   0.87310   1.000
    C801    C    0.87315   0.16960   0.87315   1.000
    H2084   H    0.86090   0.43938   0.86090   1.000
    O534    O    0.89910   0.41300   0.89910   1.000
    O535    O    0.96365   0.76310   0.46365   1.000
    O536    O    0.96392   0.70550   0.46392   1.000
    O537    O    0.84999   0.79515   0.34999   1.000
    O538    O    0.88464   0.82516   0.38464   1.000
    O539    O    0.87740   0.92880   0.37740   1.000
    C802    C    0.95330   0.73380   0.45330   1.000
    C803    C    0.92588   0.73530   0.42588   1.000
    C804    C    0.91375   0.70370   0.41375   1.000
    H2085   H    0.92260   0.68320   0.42260   1.000
    C805    C    0.88744   0.70260   0.38744   1.000
    C806    C    0.87545   0.73380   0.37545   1.000
    H2086   H    0.85850   0.73410   0.35850   1.000
    C807    C    0.88780   0.76440   0.38780   1.000
    C808    C    0.91306   0.76570   0.41306   1.000
    H2087   H    0.92120   0.78680   0.42120   1.000
    C809    C    0.87310   0.79900   0.37310   1.000
    C810    C    0.87315   0.66960   0.37315   1.000
    H2088   H    0.86090   0.93938   0.36090   1.000
    O540    O    0.89910   0.91300   0.39910   1.000
    O541    O    0.46365   0.26310   0.46365   1.000
    O542    O    0.46392   0.20550   0.46392   1.000
    O543    O    0.34999   0.29515   0.34999   1.000
    O544    O    0.38464   0.32516   0.38464   1.000
    O545    O    0.37740   0.42880   0.37740   1.000
    C811    C    0.45330   0.23380   0.45330   1.000
    C812    C    0.42588   0.23530   0.42588   1.000
    C813    C    0.41375   0.20370   0.41375   1.000
    H2089   H    0.42260   0.18320   0.42260   1.000
    C814    C    0.38744   0.20260   0.38744   1.000
    C815    C    0.37545   0.23380   0.37545   1.000
    H2090   H    0.35850   0.23410   0.35850   1.000
    C816    C    0.38780   0.26440   0.38780   1.000
    C817    C    0.41306   0.26570   0.41306   1.000
    H2091   H    0.42120   0.28680   0.42120   1.000
    C818    C    0.37310   0.29900   0.37310   1.000
    C819    C    0.37315   0.16960   0.37315   1.000
    H2092   H    0.36090   0.43938   0.36090   1.000
    O546    O    0.39910   0.41300   0.39910   1.000
    O547    O    0.46365   0.76310   0.96365   1.000
    O548    O    0.46392   0.70550   0.96392   1.000
    O549    O    0.34999   0.79515   0.84999   1.000
    O550    O    0.38464   0.82516   0.88464   1.000
    O551    O    0.37740   0.92880   0.87740   1.000
    C820    C    0.45330   0.73380   0.95330   1.000
    C821    C    0.42588   0.73530   0.92588   1.000
    C822    C    0.41375   0.70370   0.91375   1.000
    H2093   H    0.42260   0.68320   0.92260   1.000
    C823    C    0.38744   0.70260   0.88744   1.000
    C824    C    0.37545   0.73380   0.87545   1.000
    H2094   H    0.35850   0.73410   0.85850   1.000
    C825    C    0.38780   0.76440   0.88780   1.000
    C826    C    0.41306   0.76570   0.91306   1.000
    H2095   H    0.42120   0.78680   0.92120   1.000
    C827    C    0.37310   0.79900   0.87310   1.000
    C828    C    0.37315   0.66960   0.87315   1.000
    H2096   H    0.36090   0.93938   0.86090   1.000
    O552    O    0.39910   0.91300   0.89910   1.000
    O553    O    0.96365   0.73690   0.03635   1.000
    O554    O    0.96392   0.79450   0.03608   1.000
    O555    O    0.84999   0.70485   0.15001   1.000
    O556    O    0.88464   0.67484   0.11536   1.000
    O557    O    0.87740   0.57120   0.12260   1.000
    C829    C    0.95330   0.76620   0.04670   1.000
    C830    C    0.92588   0.76470   0.07412   1.000
    C831    C    0.91375   0.79630   0.08625   1.000
    H2097   H    0.92260   0.81680   0.07740   1.000
    C832    C    0.88744   0.79740   0.11256   1.000
    C833    C    0.87545   0.76620   0.12455   1.000
    H2098   H    0.85850   0.76590   0.14150   1.000
    C834    C    0.88780   0.73560   0.11220   1.000
    C835    C    0.91306   0.73430   0.08694   1.000
    H2099   H    0.92120   0.71320   0.07880   1.000
    C836    C    0.87310   0.70100   0.12690   1.000
    C837    C    0.87315   0.83040   0.12685   1.000
    H2100   H    0.86090   0.56062   0.13910   1.000
    O558    O    0.89910   0.58700   0.10090   1.000
    O559    O    0.96365   0.23690   0.53635   1.000
    O560    O    0.96392   0.29450   0.53608   1.000
    O561    O    0.84999   0.20485   0.65001   1.000
    O562    O    0.88464   0.17484   0.61536   1.000
    O563    O    0.87740   0.07120   0.62260   1.000
    C838    C    0.95330   0.26620   0.54670   1.000
    C839    C    0.92588   0.26470   0.57412   1.000
    C840    C    0.91375   0.29630   0.58625   1.000
    H2101   H    0.92260   0.31680   0.57740   1.000
    C841    C    0.88744   0.29740   0.61256   1.000
    C842    C    0.87545   0.26620   0.62455   1.000
    H2102   H    0.85850   0.26590   0.64150   1.000
    C843    C    0.88780   0.23560   0.61220   1.000
    C844    C    0.91306   0.23430   0.58694   1.000
    H2103   H    0.92120   0.21320   0.57880   1.000
    C845    C    0.87310   0.20100   0.62690   1.000
    C846    C    0.87315   0.33040   0.62685   1.000
    H2104   H    0.86090   0.06062   0.63910   1.000
    O564    O    0.89910   0.08700   0.60090   1.000
    O565    O    0.46365   0.73690   0.53635   1.000
    O566    O    0.46392   0.79450   0.53608   1.000
    O567    O    0.34999   0.70485   0.65001   1.000
    O568    O    0.38464   0.67484   0.61536   1.000
    O569    O    0.37740   0.57120   0.62260   1.000
    C847    C    0.45330   0.76620   0.54670   1.000
    C848    C    0.42588   0.76470   0.57412   1.000
    C849    C    0.41375   0.79630   0.58625   1.000
    H2105   H    0.42260   0.81680   0.57740   1.000
    C850    C    0.38744   0.79740   0.61256   1.000
    C851    C    0.37545   0.76620   0.62455   1.000
    H2106   H    0.35850   0.76590   0.64150   1.000
    C852    C    0.38780   0.73560   0.61220   1.000
    C853    C    0.41306   0.73430   0.58694   1.000
    H2107   H    0.42120   0.71320   0.57880   1.000
    C854    C    0.37310   0.70100   0.62690   1.000
    C855    C    0.37315   0.83040   0.62685   1.000
    H2108   H    0.36090   0.56062   0.63910   1.000
    O570    O    0.39910   0.58700   0.60090   1.000
    O571    O    0.46365   0.23690   0.03635   1.000
    O572    O    0.46392   0.29450   0.03608   1.000
    O573    O    0.34999   0.20485   0.15001   1.000
    O574    O    0.38464   0.17484   0.11536   1.000
    O575    O    0.37740   0.07120   0.12260   1.000
    C856    C    0.45330   0.26620   0.04670   1.000
    C857    C    0.42588   0.26470   0.07412   1.000
    C858    C    0.41375   0.29630   0.08625   1.000
    H2109   H    0.42260   0.31680   0.07740   1.000
    C859    C    0.38744   0.29740   0.11256   1.000
    C860    C    0.37545   0.26620   0.12455   1.000
    H2110   H    0.35850   0.26590   0.14150   1.000
    C861    C    0.38780   0.23560   0.11220   1.000
    C862    C    0.41306   0.23430   0.08694   1.000
    H2111   H    0.42120   0.21320   0.07880   1.000
    C863    C    0.37310   0.20100   0.12690   1.000
    C864    C    0.37315   0.33040   0.12685   1.000
    H2112   H    0.36090   0.06062   0.13910   1.000
    O576    O    0.39910   0.08700   0.10090   1.000
    C865    C    0.84529   0.15471   0.11150   1.000
    C866    C    0.82820   0.17180   0.07960   1.000
    C867    C    0.84529   0.65471   0.61150   1.000
    C868    C    0.82820   0.67180   0.57960   1.000
    C869    C    0.34529   0.15471   0.61150   1.000
    C870    C    0.32820   0.17180   0.57960   1.000
    C871    C    0.34529   0.65471   0.11150   1.000
    C872    C    0.32820   0.67180   0.07960   1.000
    C873    C    0.15471   0.84529   0.11150   1.000
    C874    C    0.17180   0.82820   0.07960   1.000
    C875    C    0.15471   0.34529   0.61150   1.000
    C876    C    0.17180   0.32820   0.57960   1.000
    C877    C    0.65471   0.84529   0.61150   1.000
    C878    C    0.67180   0.82820   0.57960   1.000
    C879    C    0.65471   0.34529   0.11150   1.000
    C880    C    0.67180   0.32820   0.07960   1.000
    C881    C    0.15471   0.15471   0.88850   1.000
    C882    C    0.17180   0.17180   0.92040   1.000
    C883    C    0.15471   0.65471   0.38850   1.000
    C884    C    0.17180   0.67180   0.42040   1.000
    C885    C    0.65471   0.15471   0.38850   1.000
    C886    C    0.67180   0.17180   0.42040   1.000
    C887    C    0.65471   0.65471   0.88850   1.000
    C888    C    0.67180   0.67180   0.92040   1.000
    C889    C    0.84529   0.84529   0.88850   1.000
    C890    C    0.82820   0.82820   0.92040   1.000
    C891    C    0.84529   0.34529   0.38850   1.000
    C892    C    0.82820   0.32820   0.42040   1.000
    C893    C    0.34529   0.84529   0.38850   1.000
    C894    C    0.32820   0.82820   0.42040   1.000
    C895    C    0.34529   0.34529   0.88850   1.000
    C896    C    0.32820   0.32820   0.92040   1.000
    C897    C    0.11150   0.84529   0.15471   1.000
    C898    C    0.07960   0.82820   0.17180   1.000
    C899    C    0.11150   0.34529   0.65471   1.000
    C900    C    0.07960   0.32820   0.67180   1.000
    C901    C    0.61150   0.84529   0.65471   1.000
    C902    C    0.57960   0.82820   0.67180   1.000
    C903    C    0.61150   0.34529   0.15471   1.000
    C904    C    0.57960   0.32820   0.17180   1.000
    C905    C    0.11150   0.15471   0.84529   1.000
    C906    C    0.07960   0.17180   0.82820   1.000
    C907    C    0.11150   0.65471   0.34529   1.000
    C908    C    0.07960   0.67180   0.32820   1.000
    C909    C    0.61150   0.15471   0.34529   1.000
    C910    C    0.57960   0.17180   0.32820   1.000
    C911    C    0.61150   0.65471   0.84529   1.000
    C912    C    0.57960   0.67180   0.82820   1.000
    C913    C    0.88850   0.15471   0.15471   1.000
    C914    C    0.92040   0.17180   0.17180   1.000
    C915    C    0.88850   0.65471   0.65471   1.000
    C916    C    0.92040   0.67180   0.67180   1.000
    C917    C    0.38850   0.15471   0.65471   1.000
    C918    C    0.42040   0.17180   0.67180   1.000
    C919    C    0.38850   0.65471   0.15471   1.000
    C920    C    0.42040   0.67180   0.17180   1.000
    C921    C    0.88850   0.84529   0.84529   1.000
    C922    C    0.92040   0.82820   0.82820   1.000
    C923    C    0.88850   0.34529   0.34529   1.000
    C924    C    0.92040   0.32820   0.32820   1.000
    C925    C    0.38850   0.84529   0.34529   1.000
    C926    C    0.42040   0.82820   0.32820   1.000
    C927    C    0.38850   0.34529   0.84529   1.000
    C928    C    0.42040   0.32820   0.82820   1.000
    C929    C    0.15471   0.11150   0.84529   1.000
    C930    C    0.17180   0.07960   0.82820   1.000
    C931    C    0.15471   0.61150   0.34529   1.000
    C932    C    0.17180   0.57960   0.32820   1.000
    C933    C    0.65471   0.11150   0.34529   1.000
    C934    C    0.67180   0.07960   0.32820   1.000
    C935    C    0.65471   0.61150   0.84529   1.000
    C936    C    0.67180   0.57960   0.82820   1.000
    C937    C    0.84529   0.11150   0.15471   1.000
    C938    C    0.82820   0.07960   0.17180   1.000
    C939    C    0.84529   0.61150   0.65471   1.000
    C940    C    0.82820   0.57960   0.67180   1.000
    C941    C    0.34529   0.11150   0.65471   1.000
    C942    C    0.32820   0.07960   0.67180   1.000
    C943    C    0.34529   0.61150   0.15471   1.000
    C944    C    0.32820   0.57960   0.17180   1.000
    C945    C    0.15471   0.88850   0.15471   1.000
    C946    C    0.17180   0.92040   0.17180   1.000
    C947    C    0.15471   0.38850   0.65471   1.000
    C948    C    0.17180   0.42040   0.67180   1.000
    C949    C    0.65471   0.88850   0.65471   1.000
    C950    C    0.67180   0.92040   0.67180   1.000
    C951    C    0.65471   0.38850   0.15471   1.000
    C952    C    0.67180   0.42040   0.17180   1.000
    C953    C    0.84529   0.88850   0.84529   1.000
    C954    C    0.82820   0.92040   0.82820   1.000
    C955    C    0.84529   0.38850   0.34529   1.000
    C956    C    0.82820   0.42040   0.32820   1.000
    C957    C    0.34529   0.88850   0.34529   1.000
    C958    C    0.32820   0.92040   0.32820   1.000
    C959    C    0.34529   0.38850   0.84529   1.000
    C960    C    0.32820   0.42040   0.82820   1.000
    C961    C    0.15471   0.84529   0.88850   1.000
    C962    C    0.17180   0.82820   0.92040   1.000
    C963    C    0.15471   0.34529   0.38850   1.000
    C964    C    0.17180   0.32820   0.42040   1.000
    C965    C    0.65471   0.84529   0.38850   1.000
    C966    C    0.67180   0.82820   0.42040   1.000
    C967    C    0.65471   0.34529   0.88850   1.000
    C968    C    0.67180   0.32820   0.92040   1.000
    C969    C    0.84529   0.15471   0.88850   1.000
    C970    C    0.82820   0.17180   0.92040   1.000
    C971    C    0.84529   0.65471   0.38850   1.000
    C972    C    0.82820   0.67180   0.42040   1.000
    C973    C    0.34529   0.15471   0.38850   1.000
    C974    C    0.32820   0.17180   0.42040   1.000
    C975    C    0.34529   0.65471   0.88850   1.000
    C976    C    0.32820   0.67180   0.92040   1.000
    C977    C    0.15471   0.15471   0.11150   1.000
    C978    C    0.17180   0.17180   0.07960   1.000
    C979    C    0.15471   0.65471   0.61150   1.000
    C980    C    0.17180   0.67180   0.57960   1.000
    C981    C    0.65471   0.15471   0.61150   1.000
    C982    C    0.67180   0.17180   0.57960   1.000
    C983    C    0.65471   0.65471   0.11150   1.000
    C984    C    0.67180   0.67180   0.07960   1.000
    C985    C    0.84529   0.84529   0.11150   1.000
    C986    C    0.82820   0.82820   0.07960   1.000
    C987    C    0.84529   0.34529   0.61150   1.000
    C988    C    0.82820   0.32820   0.57960   1.000
    C989    C    0.34529   0.84529   0.61150   1.000
    C990    C    0.32820   0.82820   0.57960   1.000
    C991    C    0.34529   0.34529   0.11150   1.000
    C992    C    0.32820   0.32820   0.07960   1.000
    C993    C    0.84529   0.11150   0.84529   1.000
    C994    C    0.82820   0.07960   0.82820   1.000
    C995    C    0.84529   0.61150   0.34529   1.000
    C996    C    0.82820   0.57960   0.32820   1.000
    C997    C    0.34529   0.11150   0.34529   1.000
    C998    C    0.32820   0.07960   0.32820   1.000
    C999    C    0.34529   0.61150   0.84529   1.000
    C1000   C    0.32820   0.57960   0.82820   1.000
    C1001   C    0.15471   0.11150   0.15471   1.000
    C1002   C    0.17180   0.07960   0.17180   1.000
    C1003   C    0.15471   0.61150   0.65471   1.000
    C1004   C    0.17180   0.57960   0.67180   1.000
    C1005   C    0.65471   0.11150   0.65471   1.000
    C1006   C    0.67180   0.07960   0.67180   1.000
    C1007   C    0.65471   0.61150   0.15471   1.000
    C1008   C    0.67180   0.57960   0.17180   1.000
    C1009   C    0.15471   0.88850   0.84529   1.000
    C1010   C    0.17180   0.92040   0.82820   1.000
    C1011   C    0.15471   0.38850   0.34529   1.000
    C1012   C    0.17180   0.42040   0.32820   1.000
    C1013   C    0.65471   0.88850   0.34529   1.000
    C1014   C    0.67180   0.92040   0.32820   1.000
    C1015   C    0.65471   0.38850   0.84529   1.000
    C1016   C    0.67180   0.42040   0.82820   1.000
    C1017   C    0.84529   0.88850   0.15471   1.000
    C1018   C    0.82820   0.92040   0.17180   1.000
    C1019   C    0.84529   0.38850   0.65471   1.000
    C1020   C    0.82820   0.42040   0.67180   1.000
    C1021   C    0.34529   0.88850   0.65471   1.000
    C1022   C    0.32820   0.92040   0.67180   1.000
    C1023   C    0.34529   0.38850   0.15471   1.000
    C1024   C    0.32820   0.42040   0.17180   1.000
    C1025   C    0.11150   0.15471   0.15471   1.000
    C1026   C    0.07960   0.17180   0.17180   1.000
    C1027   C    0.11150   0.65471   0.65471   1.000
    C1028   C    0.07960   0.67180   0.67180   1.000
    C1029   C    0.61150   0.15471   0.65471   1.000
    C1030   C    0.57960   0.17180   0.67180   1.000
    C1031   C    0.61150   0.65471   0.15471   1.000
    C1032   C    0.57960   0.67180   0.17180   1.000
    C1033   C    0.11150   0.84529   0.84529   1.000
    C1034   C    0.07960   0.82820   0.82820   1.000
    C1035   C    0.11150   0.34529   0.34529   1.000
    C1036   C    0.07960   0.32820   0.32820   1.000
    C1037   C    0.61150   0.84529   0.34529   1.000
    C1038   C    0.57960   0.82820   0.32820   1.000
    C1039   C    0.61150   0.34529   0.84529   1.000
    C1040   C    0.57960   0.32820   0.82820   1.000
    C1041   C    0.88850   0.15471   0.84529   1.000
    C1042   C    0.92040   0.17180   0.82820   1.000
    C1043   C    0.88850   0.65471   0.34529   1.000
    C1044   C    0.92040   0.67180   0.32820   1.000
    C1045   C    0.38850   0.15471   0.34529   1.000
    C1046   C    0.42040   0.17180   0.32820   1.000
    C1047   C    0.38850   0.65471   0.84529   1.000
    C1048   C    0.42040   0.67180   0.82820   1.000
    C1049   C    0.88850   0.84529   0.15471   1.000
    C1050   C    0.92040   0.82820   0.17180   1.000
    C1051   C    0.88850   0.34529   0.65471   1.000
    C1052   C    0.92040   0.32820   0.67180   1.000
    C1053   C    0.38850   0.84529   0.65471   1.000
    C1054   C    0.42040   0.82820   0.67180   1.000
    C1055   C    0.38850   0.34529   0.15471   1.000
    C1056   C    0.42040   0.32820   0.17180   1.000
