# CIF file generated by openbabel 2.4.1, see http://openbabel.sf.net
data_I
_chemical_name_common 'WONZUV_clean'
_cell_length_a 15.0937
_cell_length_b 17.328
_cell_length_c 17.328
_cell_angle_alpha 79.0656
_cell_angle_beta 64.1811
_cell_angle_gamma 64.1811
_space_group_name_H-M_alt 'P 1'
_space_group_name_Hall 'P 1'
loop_
    _symmetry_equiv_pos_as_xyz
    x,y,z
loop_
    _atom_site_label
    _atom_site_type_symbol
    _atom_site_fract_x
    _atom_site_fract_y
    _atom_site_fract_z
    _atom_site_occupancy
    Zn1     Zn   0.75000   0.00000   0.00000   1.000
    Zn2     Zn   0.25000   0.00000   0.00000   1.000
    Si1     Si   0.00000   0.00000   0.00000   1.000
    Si2     Si   0.50000   0.00000   0.00000   1.000
    H1      H    0.96670   0.85090   0.92850   1.000
    H2      H    0.04680   0.70110   0.92370   1.000
    H3      H    0.05840   0.57620   0.87680   1.000
    H4      H    0.74610   0.14910   0.07150   1.000
    H5      H    0.67160   0.29890   0.07630   1.000
    H6      H    0.51140   0.42380   0.12320   1.000
    H7      H    0.89520   0.07150   0.85090   1.000
    H8      H    0.97050   0.07630   0.70110   1.000
    H9      H    0.93520   0.12320   0.57620   1.000
    H10     H    0.81760   0.92850   0.14910   1.000
    H11     H    0.74790   0.92370   0.29890   1.000
    H12     H    0.63460   0.87680   0.42380   1.000
    H13     H    0.75390   0.92850   0.85090   1.000
    H14     H    0.82840   0.92370   0.70110   1.000
    H15     H    0.98860   0.87680   0.57620   1.000
    H16     H    0.53330   0.07150   0.14910   1.000
    H17     H    0.45320   0.07630   0.29890   1.000
    H18     H    0.44160   0.12320   0.42380   1.000
    H19     H    0.68240   0.85090   0.07150   1.000
    H20     H    0.75210   0.70110   0.07630   1.000
    H21     H    0.86540   0.57620   0.12320   1.000
    H22     H    0.60480   0.14910   0.92850   1.000
    H23     H    0.52950   0.29890   0.92370   1.000
    H24     H    0.56480   0.42380   0.87680   1.000
    H25     H    0.03330   0.14910   0.07150   1.000
    H26     H    0.95320   0.29890   0.07630   1.000
    H27     H    0.94160   0.42380   0.12320   1.000
    H28     H    0.25390   0.85090   0.92850   1.000
    H29     H    0.32840   0.70110   0.92370   1.000
    H30     H    0.48860   0.57620   0.87680   1.000
    H31     H    0.10480   0.92850   0.14910   1.000
    H32     H    0.02950   0.92370   0.29890   1.000
    H33     H    0.06480   0.87680   0.42380   1.000
    H34     H    0.18240   0.07150   0.85090   1.000
    H35     H    0.25210   0.07630   0.70110   1.000
    H36     H    0.36540   0.12320   0.57620   1.000
    H37     H    0.24610   0.07150   0.14910   1.000
    H38     H    0.17160   0.07630   0.29890   1.000
    H39     H    0.01140   0.12320   0.42380   1.000
    H40     H    0.46670   0.92850   0.85090   1.000
    H41     H    0.54680   0.92370   0.70110   1.000
    H42     H    0.55840   0.87680   0.57620   1.000
    H43     H    0.31760   0.14910   0.92850   1.000
    H44     H    0.24790   0.29890   0.92370   1.000
    H45     H    0.13460   0.42380   0.87680   1.000
    H46     H    0.39520   0.85090   0.07150   1.000
    H47     H    0.47050   0.70110   0.07630   1.000
    H48     H    0.43520   0.57620   0.12320   1.000
    C1      C    0.92270   0.81989   0.95811   1.000
    C2      C    0.97187   0.73022   0.95524   1.000
    C3      C    0.03370   0.54590   0.92770   1.000
    C4      C    0.70070   0.18011   0.04189   1.000
    C5      C    0.65733   0.26978   0.04476   1.000
    C6      C    0.50730   0.45410   0.07230   1.000
    C7      C    0.88081   0.04189   0.81989   1.000
    C8      C    0.92711   0.04476   0.73022   1.000
    C9      C    0.96140   0.07230   0.54590   1.000
    C10     C    0.74259   0.95811   0.18011   1.000
    C11     C    0.70209   0.95524   0.26978   1.000
    C12     C    0.57960   0.92770   0.45410   1.000
    C13     C    0.79930   0.95811   0.81989   1.000
    C14     C    0.84267   0.95524   0.73022   1.000
    C15     C    0.99270   0.92770   0.54590   1.000
    C16     C    0.57730   0.04189   0.18011   1.000
    C17     C    0.52813   0.04476   0.26978   1.000
    C18     C    0.46630   0.07230   0.45410   1.000
    C19     C    0.75741   0.81989   0.04189   1.000
    C20     C    0.79791   0.73022   0.04476   1.000
    C21     C    0.92040   0.54590   0.07230   1.000
    C22     C    0.61919   0.18011   0.95811   1.000
    C23     C    0.57289   0.26978   0.95524   1.000
    C24     C    0.53860   0.45410   0.92770   1.000
    C25     C    0.07730   0.18011   0.04189   1.000
    C26     C    0.02813   0.26978   0.04476   1.000
    C27     C    0.96630   0.45410   0.07230   1.000
    C28     C    0.29930   0.81989   0.95811   1.000
    C29     C    0.34267   0.73022   0.95524   1.000
    C30     C    0.49270   0.54590   0.92770   1.000
    C31     C    0.11919   0.95811   0.18011   1.000
    C32     C    0.07289   0.95524   0.26978   1.000
    C33     C    0.03860   0.92770   0.45410   1.000
    C34     C    0.25741   0.04189   0.81989   1.000
    C35     C    0.29791   0.04476   0.73022   1.000
    C36     C    0.42040   0.07230   0.54590   1.000
    C37     C    0.20070   0.04189   0.18011   1.000
    C38     C    0.15733   0.04476   0.26978   1.000
    C39     C    0.00730   0.07230   0.45410   1.000
    C40     C    0.42270   0.95811   0.81989   1.000
    C41     C    0.47187   0.95524   0.73022   1.000
    C42     C    0.53370   0.92770   0.54590   1.000
    C43     C    0.24259   0.18011   0.95811   1.000
    C44     C    0.20209   0.26978   0.95524   1.000
    C45     C    0.07960   0.45410   0.92770   1.000
    C46     C    0.38081   0.81989   0.04189   1.000
    C47     C    0.42711   0.73022   0.04476   1.000
    C48     C    0.46140   0.54590   0.07230   1.000
    C49     C    0.90731   0.68538   0.00000   1.000
    C50     C    0.95514   0.58972   0.00000   1.000
    C51     C    0.59269   0.31462   0.00000   1.000
    C52     C    0.54486   0.41028   0.00000   1.000
    C53     C    0.90731   0.00000   0.68538   1.000
    C54     C    0.95514   0.00000   0.58972   1.000
    C55     C    0.59269   0.00000   0.31462   1.000
    C56     C    0.54486   0.00000   0.41028   1.000
    C57     C    0.09269   0.31462   0.00000   1.000
    C58     C    0.04486   0.41028   0.00000   1.000
    C59     C    0.40731   0.68538   0.00000   1.000
    C60     C    0.45514   0.58972   0.00000   1.000
    C61     C    0.09269   0.00000   0.31462   1.000
    C62     C    0.04486   0.00000   0.41028   1.000
    C63     C    0.40731   0.00000   0.68538   1.000
    C64     C    0.45514   0.00000   0.58972   1.000
    N1      N    0.81787   0.86426   0.00000   1.000
    N2      N    0.68213   0.13574   0.00000   1.000
    N3      N    0.81787   0.00000   0.86426   1.000
    N4      N    0.68213   0.00000   0.13574   1.000
    N5      N    0.18213   0.13574   0.00000   1.000
    N6      N    0.31787   0.86426   0.00000   1.000
    N7      N    0.18213   0.00000   0.13574   1.000
    N8      N    0.31787   0.00000   0.86426   1.000
    F1      F    0.92723   0.05492   0.09062   1.000
    F2      F    0.07277   0.94508   0.90938   1.000
    F3      F    0.01785   0.90938   0.05492   1.000
    F4      F    0.98215   0.09062   0.94508   1.000
    F5      F    0.42723   0.09062   0.05492   1.000
    F6      F    0.57277   0.90938   0.94508   1.000
    F7      F    0.51785   0.05492   0.90938   1.000
    F8      F    0.48215   0.94508   0.09062   1.000
    F9      F    0.88660   0.00000   0.00000   1.000
    F10     F    0.61340   0.00000   0.00000   1.000
    F11     F    0.11340   0.00000   0.00000   1.000
    F12     F    0.38660   0.00000   0.00000   1.000
