# CIF file generated by openbabel 2.4.1, see http://openbabel.sf.net
data_I
_chemical_name_common 'image0'
_cell_length_a 37.27
_cell_length_b 10.733
_cell_length_c 38.171
_cell_angle_alpha 90
_cell_angle_beta 90
_cell_angle_gamma 90
_space_group_name_H-M_alt 'P 1'
_space_group_name_Hall 'P 1'
loop_
    _symmetry_equiv_pos_as_xyz
    x,y,z
loop_
    _atom_site_label
    _atom_site_type_symbol
    _atom_site_fract_x
    _atom_site_fract_y
    _atom_site_fract_z
    _atom_site_occupancy
    Zn1     Zn   0.26983   0.41304   0.18688   1.000
    Zn2     Zn   0.76594   0.03100   0.52370   1.000
    O1      O    0.31100   0.38550   0.21570   1.000
    O2      O    0.30560   0.56600   0.23670   1.000
    O3      O    0.72260   0.35810   0.28110   1.000
    O4      O    0.72100   0.53940   0.30050   1.000
    O5      O    0.30360   0.23840   0.49120   1.000
    O6      O    0.30660   0.43340   0.50750   1.000
    O7      O    0.71740   0.07070   0.47370   1.000
    O8      O    0.71820   0.09940   0.52950   1.000
    O9      O    0.27970   0.52650   0.14630   1.000
    O10     O    0.29950   0.71170   0.13790   1.000
    O11     O    0.43167   0.65720   0.16110   1.000
    O12     O    0.52750   0.67670   0.16530   1.000
    O13     O    0.59530   0.55060   0.16930   1.000
    O14     O    0.61390   0.30470   0.16090   1.000
    O15     O    0.72130   0.15400   0.08730   1.000
    O16     O    0.70250   0.96400   0.06780   1.000
    O17     O    0.57450   0.94640   0.09440   1.000
    O18     O    0.48030   0.93150   0.10440   1.000
    O19     O    0.40750   0.02320   0.12260   1.000
    O20     O    0.39370   0.28300   0.11460   1.000
    N1      N    0.47792   0.62750   0.31257   1.000
    H1      H    0.45530   0.64980   0.31420   1.000
    N2      N    0.53706   0.61260   0.32260   1.000
    N3      N    0.47560   0.09460   0.45480   1.000
    H2      H    0.45300   0.09020   0.44810   1.000
    N4      N    0.53360   0.05510   0.45720   1.000
    C1      C    0.32190   0.47600   0.23150   1.000
    C2      C    0.43490   0.46670   0.25880   1.000
    C3      C    0.41420   0.56790   0.26910   1.000
    H3      H    0.42520   0.63640   0.28080   1.000
    C4      C    0.37760   0.56880   0.26250   1.000
    H4      H    0.36340   0.63800   0.26960   1.000
    C5      C    0.36160   0.46860   0.24550   1.000
    C6      C    0.38230   0.36740   0.23520   1.000
    H5      H    0.37140   0.29890   0.22360   1.000
    C7      C    0.41900   0.36650   0.24180   1.000
    H6      H    0.43310   0.29730   0.23470   1.000
    C8      C    0.47530   0.47110   0.26320   1.000
    C9      C    0.49230   0.54410   0.28860   1.000
    C10     C    0.52890   0.53550   0.29450   1.000
    C11     C    0.55170   0.46050   0.27380   1.000
    C12     C    0.53480   0.39080   0.24880   1.000
    H7      H    0.54870   0.33820   0.23410   1.000
    C13     C    0.49660   0.39530   0.24430   1.000
    H8      H    0.48590   0.34260   0.22720   1.000
    C14     C    0.59140   0.45630   0.27850   1.000
    C15     C    0.61060   0.56840   0.28420   1.000
    H9      H    0.59840   0.64580   0.28580   1.000
    C16     C    0.64800   0.56290   0.28750   1.000
    H10     H    0.66100   0.63750   0.29170   1.000
    C17     C    0.66610   0.45320   0.28480   1.000
    C18     C    0.64840   0.34390   0.28000   1.000
    H11     H    0.66120   0.26730   0.27990   1.000
    C19     C    0.60990   0.34490   0.27490   1.000
    H12     H    0.59750   0.27030   0.26930   1.000
    C20     C    0.70900   0.44600   0.29340   1.000
    C21     C    0.50440   0.66670   0.33240   1.000
    C22     C    0.50270   0.75240   0.36190   1.000
    C23     C    0.47580   0.83990   0.36340   1.000
    H13     H    0.45830   0.84090   0.34540   1.000
    C24     C    0.47340   0.92610   0.38990   1.000
    H14     H    0.45390   0.98330   0.39060   1.000
    C25     C    0.50000   0.92790   0.41560   1.000
    C26     C    0.52670   0.83860   0.41460   1.000
    H15     H    0.54450   0.83670   0.43240   1.000
    C27     C    0.52770   0.75140   0.38770   1.000
    H16     H    0.54620   0.69050   0.38730   1.000
    C28     C    0.50300   0.02580   0.44280   1.000
    C29     C    0.32200   0.33100   0.50230   1.000
    C30     C    0.36030   0.32040   0.50490   1.000
    C31     C    0.38290   0.41710   0.50460   1.000
    H17     H    0.37320   0.49880   0.50570   1.000
    C32     C    0.41890   0.40470   0.50280   1.000
    H18     H    0.43380   0.47640   0.50160   1.000
    C33     C    0.43410   0.28680   0.50280   1.000
    C34     C    0.41090   0.18660   0.50400   1.000
    H19     H    0.42040   0.10450   0.50400   1.000
    C35     C    0.37520   0.20250   0.50510   1.000
    H20     H    0.36000   0.13170   0.50610   1.000
    C36     C    0.47390   0.26500   0.50100   1.000
    C37     C    0.49790   0.33410   0.52170   1.000
    H21     H    0.48890   0.39980   0.53590   1.000
    C38     C    0.53390   0.30930   0.52190   1.000
    H22     H    0.54880   0.35720   0.53700   1.000
    C39     C    0.54980   0.21890   0.50160   1.000
    C40     C    0.52650   0.15050   0.48030   1.000
    C41     C    0.48980   0.17480   0.48010   1.000
    C42     C    0.58970   0.19320   0.50130   1.000
    C43     C    0.60880   0.20070   0.53270   1.000
    H23     H    0.59740   0.22050   0.55420   1.000
    C44     C    0.64720   0.17670   0.53060   1.000
    H24     H    0.66150   0.18680   0.55110   1.000
    C45     C    0.66350   0.13990   0.50000   1.000
    C46     C    0.64270   0.12770   0.47080   1.000
    H25     H    0.65340   0.09760   0.44980   1.000
    C47     C    0.60660   0.15760   0.47070   1.000
    H26     H    0.59340   0.15360   0.44940   1.000
    C48     C    0.70070   0.10410   0.50060   1.000
    C49     C    0.30490   0.60200   0.14140   1.000
    C50     C    0.34220   0.55030   0.14180   1.000
    C51     C    0.37060   0.62790   0.15050   1.000
    H27     H    0.36660   0.71290   0.15630   1.000
    C52     C    0.40490   0.57850   0.15050   1.000
    C53     C    0.41010   0.45220   0.14350   1.000
    H28     H    0.43360   0.41830   0.14390   1.000
    C54     C    0.38140   0.37680   0.13620   1.000
    C55     C    0.34700   0.42360   0.13490   1.000
    H29     H    0.32720   0.37140   0.12940   1.000
    C56     C    0.46750   0.61170   0.15900   1.000
    H30     H    0.47320   0.59020   0.13440   1.000
    H31     H    0.46980   0.53530   0.17340   1.000
    C57     C    0.49260   0.70700   0.17170   1.000
    H32     H    0.48700   0.78740   0.16020   1.000
    H33     H    0.48920   0.71810   0.19730   1.000
    C58     C    0.54990   0.67600   0.18970   1.000
    H34     H    0.53960   0.61830   0.20740   1.000
    H35     H    0.54840   0.75990   0.20020   1.000
    C59     C    0.58470   0.65000   0.18960   1.000
    H36     H    0.59230   0.63320   0.21400   1.000
    H37     H    0.59780   0.72450   0.18150   1.000
    C60     C    0.62220   0.50270   0.18160   1.000
    H38     H    0.61630   0.47990   0.20610   1.000
    H39     H    0.64060   0.56900   0.18290   1.000
    C61     C    0.63770   0.40610   0.16780   1.000
    H40     H    0.65690   0.37710   0.18370   1.000
    H41     H    0.64920   0.43150   0.14550   1.000
    C62     C    0.62610   0.20970   0.13920   1.000
    C63     C    0.65560   0.18990   0.12340   1.000
    H42     H    0.67440   0.24850   0.12700   1.000
    C64     C    0.66290   0.09010   0.10130   1.000
    C65     C    0.63450   0.00470   0.09110   1.000
    H43     H    0.63850   0.93860   0.07490   1.000
    C66     C    0.60230   0.02510   0.10580   1.000
    C67     C    0.59670   0.12220   0.13010   1.000
    H44     H    0.57380   0.13180   0.14070   1.000
    C68     C    0.69840   0.06500   0.08410   1.000
    C69     C    0.54040   0.97980   0.10680   1.000
    H45     H    0.53550   0.06840   0.10150   1.000
    H46     H    0.53920   0.96820   0.13250   1.000
    C70     C    0.51340   0.89950   0.08940   1.000
    H47     H    0.51320   0.91500   0.06380   1.000
    H48     H    0.51890   0.81040   0.09350   1.000
    C71     C    0.45110   0.87540   0.08780   1.000
    H49     H    0.45550   0.78500   0.08480   1.000
    H50     H    0.44720   0.91290   0.06440   1.000
    C72     C    0.41760   0.89780   0.11170   1.000
    H51     H    0.39660   0.86160   0.09950   1.000
    H52     H    0.42120   0.84810   0.13330   1.000
    C73     C    0.38550   0.08200   0.09830   1.000
    H53     H    0.36870   0.01980   0.08840   1.000
    H54     H    0.40050   0.11360   0.07880   1.000
    C74     C    0.36550   0.18120   0.11210   1.000
    H55     H    0.35560   0.16040   0.13540   1.000
    H56     H    0.34580   0.20560   0.09620   1.000
    O21     O    0.75700   0.85390   0.51250   1.000
    H57     H    0.77740   0.81620   0.50960   1.000
    H58     H    0.74540   0.81930   0.52970   1.000
    Zn3     Zn   0.75250   0.18180   0.54290   1.000
    O22     O    0.29810   0.48500   0.26130   1.000
    O23     O    0.59970   0.59300   0.15800   1.000
    O24     O    0.71800   0.22900   0.08500   1.000
    O25     O    0.71860   0.01200   0.07600   1.000
    O26     O    0.40910   0.02040   0.10260   1.000
    O27     O    0.38790   0.24340   0.13660   1.000
    H59     H    0.72730   0.33900   0.49620   1.000
    H60     H    0.76300   0.37860   0.50290   1.000
    C75     C    0.32120   0.44400   0.24240   1.000
    C76     C    0.43510   0.47170   0.25830   1.000
    C77     C    0.41160   0.50940   0.28460   1.000
    H61     H    0.42080   0.54190   0.30600   1.000
    C78     C    0.37480   0.49950   0.27970   1.000
    H62     H    0.35880   0.52530   0.29770   1.000
    C79     C    0.36140   0.45190   0.24850   1.000
    C80     C    0.38480   0.41420   0.22220   1.000
    H63     H    0.37560   0.38170   0.20080   1.000
    C81     C    0.42160   0.42410   0.22710   1.000
    H64     H    0.43760   0.39830   0.20910   1.000
    C82     C    0.55490   0.74400   0.17000   1.000
    H65     H    0.55580   0.76050   0.19590   1.000
    H66     H    0.54990   0.82460   0.15890   1.000
    C83     C    0.58790   0.71200   0.16100   1.000
    H67     H    0.60410   0.75350   0.17810   1.000
    H68     H    0.59230   0.75290   0.13820   1.000
    H69     H    0.64110   0.55300   0.19310   1.000
    H70     H    0.60610   0.47210   0.20040   1.000
    C84     C    0.70800   0.11800   0.08500   1.000
    H71     H    0.39780   0.83970   0.10600   1.000
    H72     H    0.42370   0.89030   0.13690   1.000
    C85     C    0.37520   0.02800   0.11970   1.000
    H73     H    0.37710   0.00940   0.14500   1.000
    H74     H    0.35730   0.97160   0.10880   1.000
    H75     H    0.37160   0.20530   0.08770   1.000
    H76     H    0.33990   0.19930   0.11650   1.000
    Zn4     Zn   0.23017   0.58696   0.68688   1.000
    Zn5     Zn   0.73406   0.96900   0.02370   1.000
    O28     O    0.18900   0.61450   0.71570   1.000
    O29     O    0.19440   0.43400   0.73670   1.000
    O30     O    0.77740   0.64190   0.78110   1.000
    O31     O    0.77900   0.46060   0.80050   1.000
    O32     O    0.19640   0.76160   0.99120   1.000
    O33     O    0.19340   0.56660   0.00750   1.000
    O34     O    0.78260   0.92930   0.97370   1.000
    O35     O    0.78180   0.90060   0.02950   1.000
    O36     O    0.22030   0.47350   0.64630   1.000
    O37     O    0.20050   0.28830   0.63790   1.000
    O38     O    0.06833   0.34280   0.66110   1.000
    O39     O    0.97250   0.32330   0.66530   1.000
    O40     O    0.90470   0.44940   0.66930   1.000
    O41     O    0.88610   0.69530   0.66090   1.000
    O42     O    0.77870   0.84600   0.58730   1.000
    O43     O    0.79750   0.03600   0.56780   1.000
    O44     O    0.92550   0.05360   0.59440   1.000
    O45     O    0.01970   0.06850   0.60440   1.000
    O46     O    0.09250   0.97680   0.62260   1.000
    O47     O    0.10630   0.71700   0.61460   1.000
    N5      N    0.02208   0.37250   0.81257   1.000
    H77     H    0.04470   0.35020   0.81420   1.000
    N6      N    0.96294   0.38740   0.82260   1.000
    N7      N    0.02440   0.90540   0.95480   1.000
    H78     H    0.04700   0.90980   0.94810   1.000
    N8      N    0.96640   0.94490   0.95720   1.000
    C86     C    0.17810   0.52400   0.73150   1.000
    C87     C    0.06510   0.53330   0.75880   1.000
    C88     C    0.08580   0.43210   0.76910   1.000
    H79     H    0.07480   0.36360   0.78080   1.000
    C89     C    0.12240   0.43120   0.76250   1.000
    H80     H    0.13660   0.36200   0.76960   1.000
    C90     C    0.13840   0.53140   0.74550   1.000
    C91     C    0.11770   0.63260   0.73520   1.000
    H81     H    0.12860   0.70110   0.72360   1.000
    C92     C    0.08100   0.63350   0.74180   1.000
    H82     H    0.06690   0.70270   0.73470   1.000
    C93     C    0.02470   0.52890   0.76320   1.000
    C94     C    0.00770   0.45590   0.78860   1.000
    C95     C    0.97110   0.46450   0.79450   1.000
    C96     C    0.94830   0.53950   0.77380   1.000
    C97     C    0.96520   0.60920   0.74880   1.000
    H83     H    0.95130   0.66180   0.73410   1.000
    C98     C    0.00340   0.60470   0.74430   1.000
    H84     H    0.01410   0.65740   0.72720   1.000
    C99     C    0.90860   0.54370   0.77850   1.000
    C100    C    0.88940   0.43160   0.78420   1.000
    H85     H    0.90160   0.35420   0.78580   1.000
    C101    C    0.85200   0.43710   0.78750   1.000
    H86     H    0.83900   0.36250   0.79170   1.000
    C102    C    0.83390   0.54680   0.78480   1.000
    C103    C    0.85160   0.65610   0.78000   1.000
    H87     H    0.83880   0.73270   0.77990   1.000
    C104    C    0.89010   0.65510   0.77490   1.000
    H88     H    0.90250   0.72970   0.76930   1.000
    C105    C    0.79100   0.55400   0.79340   1.000
    C106    C    0.99560   0.33330   0.83240   1.000
    C107    C    0.99730   0.24760   0.86190   1.000
    C108    C    0.02420   0.16010   0.86340   1.000
    H89     H    0.04170   0.15910   0.84540   1.000
    C109    C    0.02660   0.07390   0.88990   1.000
    H90     H    0.04610   0.01670   0.89060   1.000
    C110    C    0.00000   0.07210   0.91560   1.000
    C111    C    0.97330   0.16140   0.91460   1.000
    H91     H    0.95550   0.16330   0.93240   1.000
    C112    C    0.97230   0.24860   0.88770   1.000
    H92     H    0.95380   0.30950   0.88730   1.000
    C113    C    0.99700   0.97420   0.94280   1.000
    C114    C    0.17800   0.66900   0.00230   1.000
    C115    C    0.13970   0.67960   0.00490   1.000
    C116    C    0.11710   0.58290   0.00460   1.000
    H93     H    0.12680   0.50120   0.00570   1.000
    C117    C    0.08110   0.59530   0.00280   1.000
    H94     H    0.06620   0.52360   0.00160   1.000
    C118    C    0.06590   0.71320   0.00280   1.000
    C119    C    0.08910   0.81340   0.00400   1.000
    H95     H    0.07960   0.89550   0.00400   1.000
    C120    C    0.12480   0.79750   0.00510   1.000
    H96     H    0.14000   0.86830   0.00610   1.000
    C121    C    0.02610   0.73500   0.00100   1.000
    C122    C    0.00210   0.66590   0.02170   1.000
    H97     H    0.01110   0.60020   0.03590   1.000
    C123    C    0.96610   0.69070   0.02190   1.000
    H98     H    0.95120   0.64280   0.03700   1.000
    C124    C    0.95020   0.78110   0.00160   1.000
    C125    C    0.97350   0.84950   0.98030   1.000
    C126    C    0.01020   0.82520   0.98010   1.000
    C127    C    0.91030   0.80680   0.00130   1.000
    C128    C    0.89120   0.79930   0.03270   1.000
    H99     H    0.90260   0.77950   0.05420   1.000
    C129    C    0.85280   0.82330   0.03060   1.000
    H100    H    0.83850   0.81320   0.05110   1.000
    C130    C    0.83650   0.86010   0.00000   1.000
    C131    C    0.85730   0.87230   0.97080   1.000
    H101    H    0.84660   0.90240   0.94980   1.000
    C132    C    0.89340   0.84240   0.97070   1.000
    H102    H    0.90660   0.84640   0.94940   1.000
    C133    C    0.79930   0.89590   0.00060   1.000
    C134    C    0.19510   0.39800   0.64140   1.000
    C135    C    0.15780   0.44970   0.64180   1.000
    C136    C    0.12940   0.37210   0.65050   1.000
    H103    H    0.13340   0.28710   0.65630   1.000
    C137    C    0.09510   0.42150   0.65050   1.000
    C138    C    0.08990   0.54780   0.64350   1.000
    H104    H    0.06640   0.58170   0.64390   1.000
    C139    C    0.11860   0.62320   0.63620   1.000
    C140    C    0.15300   0.57640   0.63490   1.000
    H105    H    0.17280   0.62860   0.62940   1.000
    C141    C    0.03250   0.38830   0.65900   1.000
    H106    H    0.02680   0.40980   0.63440   1.000
    H107    H    0.03020   0.46470   0.67340   1.000
    C142    C    0.00740   0.29300   0.67170   1.000
    H108    H    0.01300   0.21260   0.66020   1.000
    H109    H    0.01080   0.28190   0.69730   1.000
    C143    C    0.95010   0.32400   0.68970   1.000
    H110    H    0.96040   0.38170   0.70740   1.000
    H111    H    0.95160   0.24010   0.70020   1.000
    C144    C    0.91530   0.35000   0.68960   1.000
    H112    H    0.90770   0.36680   0.71400   1.000
    H113    H    0.90220   0.27550   0.68150   1.000
    C145    C    0.87780   0.49730   0.68160   1.000
    H114    H    0.88370   0.52010   0.70610   1.000
    H115    H    0.85940   0.43100   0.68290   1.000
    C146    C    0.86230   0.59390   0.66780   1.000
    H116    H    0.84310   0.62290   0.68370   1.000
    H117    H    0.85080   0.56850   0.64550   1.000
    C147    C    0.87390   0.79030   0.63920   1.000
    C148    C    0.84440   0.81010   0.62340   1.000
    H118    H    0.82560   0.75150   0.62700   1.000
    C149    C    0.83710   0.90990   0.60130   1.000
    C150    C    0.86550   0.99530   0.59110   1.000
    H119    H    0.86150   0.06140   0.57490   1.000
    C151    C    0.89770   0.97490   0.60580   1.000
    C152    C    0.90330   0.87780   0.63010   1.000
    H120    H    0.92620   0.86820   0.64070   1.000
    C153    C    0.80160   0.93500   0.58410   1.000
    C154    C    0.95960   0.02020   0.60680   1.000
    H121    H    0.96450   0.93160   0.60150   1.000
    H122    H    0.96080   0.03180   0.63250   1.000
    C155    C    0.98660   0.10050   0.58940   1.000
    H123    H    0.98680   0.08500   0.56380   1.000
    H124    H    0.98110   0.18960   0.59350   1.000
    C156    C    0.04890   0.12460   0.58780   1.000
    H125    H    0.04450   0.21500   0.58480   1.000
    H126    H    0.05280   0.08710   0.56440   1.000
    C157    C    0.08240   0.10220   0.61170   1.000
    H127    H    0.10340   0.13840   0.59950   1.000
    H128    H    0.07880   0.15190   0.63330   1.000
    C158    C    0.11450   0.91800   0.59830   1.000
    H129    H    0.13130   0.98020   0.58840   1.000
    H130    H    0.09950   0.88640   0.57880   1.000
    C159    C    0.13450   0.81880   0.61210   1.000
    H131    H    0.14440   0.83960   0.63540   1.000
    H132    H    0.15420   0.79440   0.59620   1.000
    O48     O    0.74300   0.14610   0.01250   1.000
    H133    H    0.72260   0.18380   0.00960   1.000
    H134    H    0.75460   0.18070   0.02970   1.000
    Zn6     Zn   0.74750   0.81820   0.04290   1.000
    O49     O    0.20190   0.51500   0.76130   1.000
    O50     O    0.90030   0.40700   0.65800   1.000
    O51     O    0.78200   0.77100   0.58500   1.000
    O52     O    0.78140   0.98800   0.57600   1.000
    O53     O    0.09090   0.97960   0.60260   1.000
    O54     O    0.11210   0.75660   0.63660   1.000
    H135    H    0.77270   0.66100   0.99620   1.000
    H136    H    0.73700   0.62140   0.00290   1.000
    C160    C    0.17880   0.55600   0.74240   1.000
    C161    C    0.06490   0.52830   0.75830   1.000
    C162    C    0.08840   0.49060   0.78460   1.000
    H137    H    0.07920   0.45810   0.80600   1.000
    C163    C    0.12520   0.50050   0.77970   1.000
    H138    H    0.14120   0.47470   0.79770   1.000
    C164    C    0.13860   0.54810   0.74850   1.000
    C165    C    0.11520   0.58580   0.72220   1.000
    H139    H    0.12440   0.61830   0.70080   1.000
    C166    C    0.07840   0.57590   0.72710   1.000
    H140    H    0.06240   0.60170   0.70910   1.000
    C167    C    0.94510   0.25600   0.67000   1.000
    H141    H    0.94420   0.23950   0.69590   1.000
    H142    H    0.95010   0.17540   0.65890   1.000
    C168    C    0.91210   0.28800   0.66100   1.000
    H143    H    0.89590   0.24650   0.67810   1.000
    H144    H    0.90770   0.24710   0.63820   1.000
    H145    H    0.85890   0.44700   0.69310   1.000
    H146    H    0.89390   0.52790   0.70040   1.000
    C169    C    0.79200   0.88200   0.58500   1.000
    H147    H    0.10220   0.16030   0.60600   1.000
    H148    H    0.07630   0.10970   0.63690   1.000
    C170    C    0.12480   0.97200   0.61970   1.000
    H149    H    0.12290   0.99060   0.64500   1.000
    H150    H    0.14270   0.02840   0.60880   1.000
    H151    H    0.12840   0.79470   0.58770   1.000
    H152    H    0.16010   0.80070   0.61650   1.000
    Zn7     Zn   0.73017   0.91304   0.31312   1.000
    Zn8     Zn   0.23406   0.53100   0.97630   1.000
    O55     O    0.68900   0.88550   0.28430   1.000
    O56     O    0.69440   0.06600   0.26330   1.000
    O57     O    0.27740   0.85810   0.21890   1.000
    O58     O    0.27900   0.03940   0.19950   1.000
    O59     O    0.69640   0.73840   0.00880   1.000
    O60     O    0.69340   0.93340   0.99250   1.000
    O61     O    0.28260   0.57070   0.02630   1.000
    O62     O    0.28180   0.59940   0.97050   1.000
    O63     O    0.72030   0.02650   0.35370   1.000
    O64     O    0.70050   0.21170   0.36210   1.000
    O65     O    0.56833   0.15720   0.33890   1.000
    O66     O    0.47250   0.17670   0.33470   1.000
    O67     O    0.40470   0.05060   0.33070   1.000
    O68     O    0.38610   0.80470   0.33910   1.000
    O69     O    0.27870   0.65400   0.41270   1.000
    O70     O    0.29750   0.46400   0.43220   1.000
    O71     O    0.42550   0.44640   0.40560   1.000
    O72     O    0.51970   0.43150   0.39560   1.000
    O73     O    0.59250   0.52320   0.37740   1.000
    O74     O    0.60630   0.78300   0.38540   1.000
    N9      N    0.52208   0.12750   0.18743   1.000
    H153    H    0.54470   0.14980   0.18580   1.000
    N10     N    0.46294   0.11260   0.17740   1.000
    N11     N    0.52440   0.59460   0.04520   1.000
    H154    H    0.54700   0.59020   0.05190   1.000
    N12     N    0.46640   0.55510   0.04280   1.000
    C171    C    0.67810   0.97600   0.26850   1.000
    C172    C    0.56510   0.96670   0.24120   1.000
    C173    C    0.58580   0.06790   0.23090   1.000
    H155    H    0.57480   0.13640   0.21920   1.000
    C174    C    0.62240   0.06880   0.23750   1.000
    H156    H    0.63660   0.13800   0.23040   1.000
    C175    C    0.63840   0.96860   0.25450   1.000
    C176    C    0.61770   0.86740   0.26480   1.000
    H157    H    0.62860   0.79890   0.27640   1.000
    C177    C    0.58100   0.86650   0.25820   1.000
    H158    H    0.56690   0.79730   0.26530   1.000
    C178    C    0.52470   0.97110   0.23680   1.000
    C179    C    0.50770   0.04410   0.21140   1.000
    C180    C    0.47110   0.03550   0.20550   1.000
    C181    C    0.44830   0.96050   0.22620   1.000
    C182    C    0.46520   0.89080   0.25120   1.000
    H159    H    0.45130   0.83820   0.26590   1.000
    C183    C    0.50340   0.89530   0.25570   1.000
    H160    H    0.51410   0.84260   0.27280   1.000
    C184    C    0.40860   0.95630   0.22150   1.000
    C185    C    0.38940   0.06840   0.21580   1.000
    H161    H    0.40160   0.14580   0.21420   1.000
    C186    C    0.35200   0.06290   0.21250   1.000
    H162    H    0.33900   0.13750   0.20830   1.000
    C187    C    0.33390   0.95320   0.21520   1.000
    C188    C    0.35160   0.84390   0.22000   1.000
    H163    H    0.33880   0.76730   0.22010   1.000
    C189    C    0.39010   0.84490   0.22510   1.000
    H164    H    0.40250   0.77030   0.23070   1.000
    C190    C    0.29100   0.94600   0.20660   1.000
    C191    C    0.49560   0.16670   0.16760   1.000
    C192    C    0.49730   0.25240   0.13810   1.000
    C193    C    0.52420   0.33990   0.13660   1.000
    H165    H    0.54170   0.34090   0.15460   1.000
    C194    C    0.52660   0.42610   0.11010   1.000
    H166    H    0.54610   0.48330   0.10940   1.000
    C195    C    0.50000   0.42790   0.08440   1.000
    C196    C    0.47330   0.33860   0.08540   1.000
    H167    H    0.45550   0.33670   0.06760   1.000
    C197    C    0.47230   0.25140   0.11230   1.000
    H168    H    0.45380   0.19050   0.11270   1.000
    C198    C    0.49700   0.52580   0.05720   1.000
    C199    C    0.67800   0.83100   0.99770   1.000
    C200    C    0.63970   0.82040   0.99510   1.000
    C201    C    0.61710   0.91710   0.99540   1.000
    H169    H    0.62680   0.99880   0.99430   1.000
    C202    C    0.58110   0.90470   0.99720   1.000
    H170    H    0.56620   0.97640   0.99840   1.000
    C203    C    0.56590   0.78680   0.99720   1.000
    C204    C    0.58910   0.68660   0.99600   1.000
    H171    H    0.57960   0.60450   0.99600   1.000
    C205    C    0.62480   0.70250   0.99490   1.000
    H172    H    0.64000   0.63170   0.99390   1.000
    C206    C    0.52610   0.76500   0.99900   1.000
    C207    C    0.50210   0.83410   0.97830   1.000
    H173    H    0.51110   0.89980   0.96410   1.000
    C208    C    0.46610   0.80930   0.97810   1.000
    H174    H    0.45120   0.85720   0.96300   1.000
    C209    C    0.45020   0.71890   0.99840   1.000
    C210    C    0.47350   0.65050   0.01970   1.000
    C211    C    0.51020   0.67480   0.01990   1.000
    C212    C    0.41030   0.69320   0.99870   1.000
    C213    C    0.39120   0.70070   0.96730   1.000
    H175    H    0.40260   0.72050   0.94580   1.000
    C214    C    0.35280   0.67670   0.96940   1.000
    H176    H    0.33850   0.68680   0.94890   1.000
    C215    C    0.33650   0.63990   0.00000   1.000
    C216    C    0.35730   0.62770   0.02920   1.000
    H177    H    0.34660   0.59760   0.05020   1.000
    C217    C    0.39340   0.65760   0.02930   1.000
    H178    H    0.40660   0.65360   0.05060   1.000
    C218    C    0.29930   0.60410   0.99940   1.000
    C219    C    0.69510   0.10200   0.35860   1.000
    C220    C    0.65780   0.05030   0.35820   1.000
    C221    C    0.62940   0.12790   0.34950   1.000
    H179    H    0.63340   0.21290   0.34370   1.000
    C222    C    0.59510   0.07850   0.34950   1.000
    C223    C    0.58990   0.95220   0.35650   1.000
    H180    H    0.56640   0.91830   0.35610   1.000
    C224    C    0.61860   0.87680   0.36380   1.000
    C225    C    0.65300   0.92360   0.36510   1.000
    H181    H    0.67280   0.87140   0.37060   1.000
    C226    C    0.53250   0.11170   0.34100   1.000
    H182    H    0.52680   0.09020   0.36560   1.000
    H183    H    0.53020   0.03530   0.32660   1.000
    C227    C    0.50740   0.20700   0.32830   1.000
    H184    H    0.51300   0.28740   0.33980   1.000
    H185    H    0.51080   0.21810   0.30270   1.000
    C228    C    0.45010   0.17600   0.31030   1.000
    H186    H    0.46040   0.11830   0.29260   1.000
    H187    H    0.45160   0.25990   0.29980   1.000
    C229    C    0.41530   0.15000   0.31040   1.000
    H188    H    0.40770   0.13320   0.28600   1.000
    H189    H    0.40220   0.22450   0.31850   1.000
    C230    C    0.37780   0.00270   0.31840   1.000
    H190    H    0.38370   0.97990   0.29390   1.000
    H191    H    0.35940   0.06900   0.31710   1.000
    C231    C    0.36230   0.90610   0.33220   1.000
    H192    H    0.34310   0.87710   0.31630   1.000
    H193    H    0.35080   0.93150   0.35450   1.000
    C232    C    0.37390   0.70970   0.36080   1.000
    C233    C    0.34440   0.68990   0.37660   1.000
    H194    H    0.32560   0.74850   0.37300   1.000
    C234    C    0.33710   0.59010   0.39870   1.000
    C235    C    0.36550   0.50470   0.40890   1.000
    H195    H    0.36150   0.43860   0.42510   1.000
    C236    C    0.39770   0.52510   0.39420   1.000
    C237    C    0.40330   0.62220   0.36990   1.000
    H196    H    0.42620   0.63180   0.35930   1.000
    C238    C    0.30160   0.56500   0.41590   1.000
    C239    C    0.45960   0.47980   0.39320   1.000
    H197    H    0.46450   0.56840   0.39850   1.000
    H198    H    0.46080   0.46820   0.36750   1.000
    C240    C    0.48660   0.39950   0.41060   1.000
    H199    H    0.48680   0.41500   0.43620   1.000
    H200    H    0.48110   0.31040   0.40650   1.000
    C241    C    0.54890   0.37540   0.41220   1.000
    H201    H    0.54450   0.28500   0.41520   1.000
    H202    H    0.55280   0.41290   0.43560   1.000
    C242    C    0.58240   0.39780   0.38830   1.000
    H203    H    0.60340   0.36160   0.40050   1.000
    H204    H    0.57880   0.34810   0.36670   1.000
    C243    C    0.61450   0.58200   0.40170   1.000
    H205    H    0.63130   0.51980   0.41160   1.000
    H206    H    0.59950   0.61360   0.42120   1.000
    C244    C    0.63450   0.68120   0.38790   1.000
    H207    H    0.64440   0.66040   0.36460   1.000
    H208    H    0.65420   0.70560   0.40380   1.000
    O75     O    0.24300   0.35390   0.98750   1.000
    H209    H    0.22260   0.31620   0.99040   1.000
    H210    H    0.25460   0.31930   0.97030   1.000
    Zn9     Zn   0.24750   0.68180   0.95710   1.000
    O76     O    0.70190   0.98500   0.23870   1.000
    O77     O    0.40030   0.09300   0.34200   1.000
    O78     O    0.28200   0.72900   0.41500   1.000
    O79     O    0.28140   0.51200   0.42400   1.000
    O80     O    0.59090   0.52040   0.39740   1.000
    O81     O    0.61210   0.74340   0.36340   1.000
    H211    H    0.27270   0.83900   0.00380   1.000
    H212    H    0.23700   0.87860   0.99710   1.000
    C245    C    0.67880   0.94400   0.25760   1.000
    C246    C    0.56490   0.97170   0.24170   1.000
    C247    C    0.58840   0.00940   0.21540   1.000
    H213    H    0.57920   0.04190   0.19400   1.000
    C248    C    0.62520   0.99950   0.22030   1.000
    H214    H    0.64120   0.02530   0.20230   1.000
    C249    C    0.63860   0.95190   0.25150   1.000
    C250    C    0.61520   0.91420   0.27780   1.000
    H215    H    0.62440   0.88170   0.29920   1.000
    C251    C    0.57840   0.92410   0.27290   1.000
    H216    H    0.56240   0.89830   0.29090   1.000
    C252    C    0.44510   0.24400   0.33000   1.000
    H217    H    0.44420   0.26050   0.30410   1.000
    H218    H    0.45010   0.32460   0.34110   1.000
    C253    C    0.41210   0.21200   0.33900   1.000
    H219    H    0.39590   0.25350   0.32190   1.000
    H220    H    0.40770   0.25290   0.36180   1.000
    H221    H    0.35890   0.05300   0.30690   1.000
    H222    H    0.39390   0.97210   0.29960   1.000
    C254    C    0.29200   0.61800   0.41500   1.000
    H223    H    0.60220   0.33970   0.39400   1.000
    H224    H    0.57630   0.39030   0.36310   1.000
    C255    C    0.62480   0.52800   0.38030   1.000
    H225    H    0.62290   0.50940   0.35500   1.000
    H226    H    0.64270   0.47160   0.39120   1.000
    H227    H    0.62840   0.70530   0.41230   1.000
    H228    H    0.66010   0.69930   0.38350   1.000
    Zn10    Zn   0.76983   0.08696   0.81312   1.000
    Zn11    Zn   0.26594   0.46900   0.47630   1.000
    O82     O    0.81100   0.11450   0.78430   1.000
    O83     O    0.80560   0.93400   0.76330   1.000
    O84     O    0.22260   0.14190   0.71890   1.000
    O85     O    0.22100   0.96060   0.69950   1.000
    O86     O    0.80360   0.26160   0.50880   1.000
    O87     O    0.80660   0.06660   0.49250   1.000
    O88     O    0.21740   0.42930   0.52630   1.000
    O89     O    0.21820   0.40060   0.47050   1.000
    O90     O    0.77970   0.97350   0.85370   1.000
    O91     O    0.79950   0.78830   0.86210   1.000
    O92     O    0.93167   0.84280   0.83890   1.000
    O93     O    0.02750   0.82330   0.83470   1.000
    O94     O    0.09530   0.94940   0.83070   1.000
    O95     O    0.11390   0.19530   0.83910   1.000
    O96     O    0.22130   0.34600   0.91270   1.000
    O97     O    0.20250   0.53600   0.93220   1.000
    O98     O    0.07450   0.55360   0.90560   1.000
    O99     O    0.98030   0.56850   0.89560   1.000
    O100    O    0.90750   0.47680   0.87740   1.000
    O101    O    0.89370   0.21700   0.88540   1.000
    N13     N    0.97792   0.87250   0.68743   1.000
    H229    H    0.95530   0.85020   0.68580   1.000
    N14     N    0.03706   0.88740   0.67740   1.000
    N15     N    0.97560   0.40540   0.54520   1.000
    H230    H    0.95300   0.40980   0.55190   1.000
    N16     N    0.03360   0.44490   0.54280   1.000
    C256    C    0.82190   0.02400   0.76850   1.000
    C257    C    0.93490   0.03330   0.74120   1.000
    C258    C    0.91420   0.93210   0.73090   1.000
    H231    H    0.92520   0.86360   0.71920   1.000
    C259    C    0.87760   0.93120   0.73750   1.000
    H232    H    0.86340   0.86200   0.73040   1.000
    C260    C    0.86160   0.03140   0.75450   1.000
    C261    C    0.88230   0.13260   0.76480   1.000
    H233    H    0.87140   0.20110   0.77640   1.000
    C262    C    0.91900   0.13350   0.75820   1.000
    H234    H    0.93310   0.20270   0.76530   1.000
    C263    C    0.97530   0.02890   0.73680   1.000
    C264    C    0.99230   0.95590   0.71140   1.000
    C265    C    0.02890   0.96450   0.70550   1.000
    C266    C    0.05170   0.03950   0.72620   1.000
    C267    C    0.03480   0.10920   0.75120   1.000
    H235    H    0.04870   0.16180   0.76590   1.000
    C268    C    0.99660   0.10470   0.75570   1.000
    H236    H    0.98590   0.15740   0.77280   1.000
    C269    C    0.09140   0.04370   0.72150   1.000
    C270    C    0.11060   0.93160   0.71580   1.000
    H237    H    0.09840   0.85420   0.71420   1.000
    C271    C    0.14800   0.93710   0.71250   1.000
    H238    H    0.16100   0.86250   0.70830   1.000
    C272    C    0.16610   0.04680   0.71520   1.000
    C273    C    0.14840   0.15610   0.72000   1.000
    H239    H    0.16120   0.23270   0.72010   1.000
    C274    C    0.10990   0.15510   0.72510   1.000
    H240    H    0.09750   0.22970   0.73070   1.000
    C275    C    0.20900   0.05400   0.70660   1.000
    C276    C    0.00440   0.83330   0.66760   1.000
    C277    C    0.00270   0.74760   0.63810   1.000
    C278    C    0.97580   0.66010   0.63660   1.000
    H241    H    0.95830   0.65910   0.65460   1.000
    C279    C    0.97340   0.57390   0.61010   1.000
    H242    H    0.95390   0.51670   0.60940   1.000
    C280    C    0.00000   0.57210   0.58440   1.000
    C281    C    0.02670   0.66140   0.58540   1.000
    H243    H    0.04450   0.66330   0.56760   1.000
    C282    C    0.02770   0.74860   0.61230   1.000
    H244    H    0.04620   0.80950   0.61270   1.000
    C283    C    0.00300   0.47420   0.55720   1.000
    C284    C    0.82200   0.16900   0.49770   1.000
    C285    C    0.86030   0.17960   0.49510   1.000
    C286    C    0.88290   0.08290   0.49540   1.000
    H245    H    0.87320   0.00120   0.49430   1.000
    C287    C    0.91890   0.09530   0.49720   1.000
    H246    H    0.93380   0.02360   0.49840   1.000
    C288    C    0.93410   0.21320   0.49720   1.000
    C289    C    0.91090   0.31340   0.49600   1.000
    H247    H    0.92040   0.39550   0.49600   1.000
    C290    C    0.87520   0.29750   0.49490   1.000
    H248    H    0.86000   0.36830   0.49390   1.000
    C291    C    0.97390   0.23500   0.49900   1.000
    C292    C    0.99790   0.16590   0.47830   1.000
    H249    H    0.98890   0.10020   0.46410   1.000
    C293    C    0.03390   0.19070   0.47810   1.000
    H250    H    0.04880   0.14280   0.46300   1.000
    C294    C    0.04980   0.28110   0.49840   1.000
    C295    C    0.02650   0.34950   0.51970   1.000
    C296    C    0.98980   0.32520   0.51990   1.000
    C297    C    0.08970   0.30680   0.49870   1.000
    C298    C    0.10880   0.29930   0.46730   1.000
    H251    H    0.09740   0.27950   0.44580   1.000
    C299    C    0.14720   0.32330   0.46940   1.000
    H252    H    0.16150   0.31320   0.44890   1.000
    C300    C    0.16350   0.36010   0.50000   1.000
    C301    C    0.14270   0.37230   0.52920   1.000
    H253    H    0.15340   0.40240   0.55020   1.000
    C302    C    0.10660   0.34240   0.52930   1.000
    H254    H    0.09340   0.34640   0.55060   1.000
    C303    C    0.20070   0.39590   0.49940   1.000
    C304    C    0.80490   0.89800   0.85860   1.000
    C305    C    0.84220   0.94970   0.85820   1.000
    C306    C    0.87060   0.87210   0.84950   1.000
    H255    H    0.86660   0.78710   0.84370   1.000
    C307    C    0.90490   0.92150   0.84950   1.000
    C308    C    0.91010   0.04780   0.85650   1.000
    H256    H    0.93360   0.08170   0.85610   1.000
    C309    C    0.88140   0.12320   0.86380   1.000
    C310    C    0.84700   0.07640   0.86510   1.000
    H257    H    0.82720   0.12860   0.87060   1.000
    C311    C    0.96750   0.88830   0.84100   1.000
    H258    H    0.97320   0.90980   0.86560   1.000
    H259    H    0.96980   0.96470   0.82660   1.000
    C312    C    0.99260   0.79300   0.82830   1.000
    H260    H    0.98700   0.71260   0.83980   1.000
    H261    H    0.98920   0.78190   0.80270   1.000
    C313    C    0.04990   0.82400   0.81030   1.000
    H262    H    0.03960   0.88170   0.79260   1.000
    H263    H    0.04840   0.74010   0.79980   1.000
    C314    C    0.08470   0.85000   0.81040   1.000
    H264    H    0.09230   0.86680   0.78600   1.000
    H265    H    0.09780   0.77550   0.81850   1.000
    C315    C    0.12220   0.99730   0.81840   1.000
    H266    H    0.11630   0.02010   0.79390   1.000
    H267    H    0.14060   0.93100   0.81710   1.000
    C316    C    0.13770   0.09390   0.83220   1.000
    H268    H    0.15690   0.12290   0.81630   1.000
    H269    H    0.14920   0.06850   0.85450   1.000
    C317    C    0.12610   0.29030   0.86080   1.000
    C318    C    0.15560   0.31010   0.87660   1.000
    H270    H    0.17440   0.25150   0.87300   1.000
    C319    C    0.16290   0.40990   0.89870   1.000
    C320    C    0.13450   0.49530   0.90890   1.000
    H271    H    0.13850   0.56140   0.92510   1.000
    C321    C    0.10230   0.47490   0.89420   1.000
    C322    C    0.09670   0.37780   0.86990   1.000
    H272    H    0.07380   0.36820   0.85930   1.000
    C323    C    0.19840   0.43500   0.91590   1.000
    C324    C    0.04040   0.52020   0.89320   1.000
    H273    H    0.03550   0.43160   0.89850   1.000
    H274    H    0.03920   0.53180   0.86750   1.000
    C325    C    0.01340   0.60050   0.91060   1.000
    H275    H    0.01320   0.58500   0.93620   1.000
    H276    H    0.01890   0.68960   0.90650   1.000
    C326    C    0.95110   0.62460   0.91220   1.000
    H277    H    0.95550   0.71500   0.91520   1.000
    H278    H    0.94720   0.58710   0.93560   1.000
    C327    C    0.91760   0.60220   0.88830   1.000
    H279    H    0.89660   0.63840   0.90050   1.000
    H280    H    0.92120   0.65190   0.86670   1.000
    C328    C    0.88550   0.41800   0.90170   1.000
    H281    H    0.86870   0.48020   0.91160   1.000
    H282    H    0.90050   0.38640   0.92120   1.000
    C329    C    0.86550   0.31880   0.88790   1.000
    H283    H    0.85560   0.33960   0.86460   1.000
    H284    H    0.84580   0.29440   0.90380   1.000
    O102    O    0.25700   0.64610   0.48750   1.000
    H285    H    0.27740   0.68380   0.49040   1.000
    H286    H    0.24540   0.68070   0.47030   1.000
    Zn12    Zn   0.25250   0.31820   0.45710   1.000
    O103    O    0.79810   0.01500   0.73870   1.000
    O104    O    0.09970   0.90700   0.84200   1.000
    O105    O    0.21800   0.27100   0.91500   1.000
    O106    O    0.21860   0.48800   0.92400   1.000
    O107    O    0.90910   0.47960   0.89740   1.000
    O108    O    0.88790   0.25660   0.86340   1.000
    H287    H    0.22730   0.16100   0.50380   1.000
    H288    H    0.26300   0.12140   0.49710   1.000
    C330    C    0.82120   0.05600   0.75760   1.000
    C331    C    0.93510   0.02830   0.74170   1.000
    C332    C    0.91160   0.99060   0.71540   1.000
    H289    H    0.92080   0.95810   0.69400   1.000
    C333    C    0.87480   0.00050   0.72030   1.000
    H290    H    0.85880   0.97470   0.70230   1.000
    C334    C    0.86140   0.04810   0.75150   1.000
    C335    C    0.88480   0.08580   0.77780   1.000
    H291    H    0.87560   0.11830   0.79920   1.000
    C336    C    0.92160   0.07590   0.77290   1.000
    H292    H    0.93760   0.10170   0.79090   1.000
    C337    C    0.05490   0.75600   0.83000   1.000
    H293    H    0.05580   0.73950   0.80410   1.000
    H294    H    0.04990   0.67540   0.84110   1.000
    C338    C    0.08790   0.78800   0.83900   1.000
    H295    H    0.10410   0.74650   0.82190   1.000
    H296    H    0.09230   0.74710   0.86180   1.000
    H297    H    0.14110   0.94700   0.80690   1.000
    H298    H    0.10610   0.02790   0.79960   1.000
    C339    C    0.20800   0.38200   0.91500   1.000
    H299    H    0.89780   0.66030   0.89400   1.000
    H300    H    0.92370   0.60970   0.86310   1.000
    C340    C    0.87520   0.47200   0.88030   1.000
    H301    H    0.87710   0.49060   0.85500   1.000
    H302    H    0.85730   0.52840   0.89120   1.000
    H303    H    0.87160   0.29470   0.91230   1.000
    H304    H    0.83990   0.30070   0.88350   1.000
    Zn13    Zn   0.73017   0.58696   0.81312   1.000
    Zn14    Zn   0.23406   0.96900   0.47630   1.000
    O109    O    0.68900   0.61450   0.78430   1.000
    O110    O    0.69440   0.43400   0.76330   1.000
    O111    O    0.27740   0.64190   0.71890   1.000
    O112    O    0.27900   0.46060   0.69950   1.000
    O113    O    0.69640   0.76160   0.50880   1.000
    O114    O    0.69340   0.56660   0.49250   1.000
    O115    O    0.28260   0.92930   0.52630   1.000
    O116    O    0.28180   0.90060   0.47050   1.000
    O117    O    0.72030   0.47350   0.85370   1.000
    O118    O    0.70050   0.28830   0.86210   1.000
    O119    O    0.56833   0.34280   0.83890   1.000
    O120    O    0.47250   0.32330   0.83470   1.000
    O121    O    0.40470   0.44940   0.83070   1.000
    O122    O    0.38610   0.69530   0.83910   1.000
    O123    O    0.27870   0.84600   0.91270   1.000
    O124    O    0.29750   0.03600   0.93220   1.000
    O125    O    0.42550   0.05360   0.90560   1.000
    O126    O    0.51970   0.06850   0.89560   1.000
    O127    O    0.59250   0.97680   0.87740   1.000
    O128    O    0.60630   0.71700   0.88540   1.000
    N17     N    0.52208   0.37250   0.68743   1.000
    H305    H    0.54470   0.35020   0.68580   1.000
    N18     N    0.46294   0.38740   0.67740   1.000
    N19     N    0.52440   0.90540   0.54520   1.000
    H306    H    0.54700   0.90980   0.55190   1.000
    N20     N    0.46640   0.94490   0.54280   1.000
    C341    C    0.67810   0.52400   0.76850   1.000
    C342    C    0.56510   0.53330   0.74120   1.000
    C343    C    0.58580   0.43210   0.73090   1.000
    H307    H    0.57480   0.36360   0.71920   1.000
    C344    C    0.62240   0.43120   0.73750   1.000
    H308    H    0.63660   0.36200   0.73040   1.000
    C345    C    0.63840   0.53140   0.75450   1.000
    C346    C    0.61770   0.63260   0.76480   1.000
    H309    H    0.62860   0.70110   0.77640   1.000
    C347    C    0.58100   0.63350   0.75820   1.000
    H310    H    0.56690   0.70270   0.76530   1.000
    C348    C    0.52470   0.52890   0.73680   1.000
    C349    C    0.50770   0.45590   0.71140   1.000
    C350    C    0.47110   0.46450   0.70550   1.000
    C351    C    0.44830   0.53950   0.72620   1.000
    C352    C    0.46520   0.60920   0.75120   1.000
    H311    H    0.45130   0.66180   0.76590   1.000
    C353    C    0.50340   0.60470   0.75570   1.000
    H312    H    0.51410   0.65740   0.77280   1.000
    C354    C    0.40860   0.54370   0.72150   1.000
    C355    C    0.38940   0.43160   0.71580   1.000
    H313    H    0.40160   0.35420   0.71420   1.000
    C356    C    0.35200   0.43710   0.71250   1.000
    H314    H    0.33900   0.36250   0.70830   1.000
    C357    C    0.33390   0.54680   0.71520   1.000
    C358    C    0.35160   0.65610   0.72000   1.000
    H315    H    0.33880   0.73270   0.72010   1.000
    C359    C    0.39010   0.65510   0.72510   1.000
    H316    H    0.40250   0.72970   0.73070   1.000
    C360    C    0.29100   0.55400   0.70660   1.000
    C361    C    0.49560   0.33330   0.66760   1.000
    C362    C    0.49730   0.24760   0.63810   1.000
    C363    C    0.52420   0.16010   0.63660   1.000
    H317    H    0.54170   0.15910   0.65460   1.000
    C364    C    0.52660   0.07390   0.61010   1.000
    H318    H    0.54610   0.01670   0.60940   1.000
    C365    C    0.50000   0.07210   0.58440   1.000
    C366    C    0.47330   0.16140   0.58540   1.000
    H319    H    0.45550   0.16330   0.56760   1.000
    C367    C    0.47230   0.24860   0.61230   1.000
    H320    H    0.45380   0.30950   0.61270   1.000
    C368    C    0.49700   0.97420   0.55720   1.000
    C369    C    0.67800   0.66900   0.49770   1.000
    C370    C    0.63970   0.67960   0.49510   1.000
    C371    C    0.61710   0.58290   0.49540   1.000
    H321    H    0.62680   0.50120   0.49430   1.000
    C372    C    0.58110   0.59530   0.49720   1.000
    H322    H    0.56620   0.52360   0.49840   1.000
    C373    C    0.56590   0.71320   0.49720   1.000
    C374    C    0.58910   0.81340   0.49600   1.000
    H323    H    0.57960   0.89550   0.49600   1.000
    C375    C    0.62480   0.79750   0.49490   1.000
    H324    H    0.64000   0.86830   0.49390   1.000
    C376    C    0.52610   0.73500   0.49900   1.000
    C377    C    0.50210   0.66590   0.47830   1.000
    H325    H    0.51110   0.60020   0.46410   1.000
    C378    C    0.46610   0.69070   0.47810   1.000
    H326    H    0.45120   0.64280   0.46300   1.000
    C379    C    0.45020   0.78110   0.49840   1.000
    C380    C    0.47350   0.84950   0.51970   1.000
    C381    C    0.51020   0.82520   0.51990   1.000
    C382    C    0.41030   0.80680   0.49870   1.000
    C383    C    0.39120   0.79930   0.46730   1.000
    H327    H    0.40260   0.77950   0.44580   1.000
    C384    C    0.35280   0.82330   0.46940   1.000
    H328    H    0.33850   0.81320   0.44890   1.000
    C385    C    0.33650   0.86010   0.50000   1.000
    C386    C    0.35730   0.87230   0.52920   1.000
    H329    H    0.34660   0.90240   0.55020   1.000
    C387    C    0.39340   0.84240   0.52930   1.000
    H330    H    0.40660   0.84640   0.55060   1.000
    C388    C    0.29930   0.89590   0.49940   1.000
    C389    C    0.69510   0.39800   0.85860   1.000
    C390    C    0.65780   0.44970   0.85820   1.000
    C391    C    0.62940   0.37210   0.84950   1.000
    H331    H    0.63340   0.28710   0.84370   1.000
    C392    C    0.59510   0.42150   0.84950   1.000
    C393    C    0.58990   0.54780   0.85650   1.000
    H332    H    0.56640   0.58170   0.85610   1.000
    C394    C    0.61860   0.62320   0.86380   1.000
    C395    C    0.65300   0.57640   0.86510   1.000
    H333    H    0.67280   0.62860   0.87060   1.000
    C396    C    0.53250   0.38830   0.84100   1.000
    H334    H    0.52680   0.40980   0.86560   1.000
    H335    H    0.53020   0.46470   0.82660   1.000
    C397    C    0.50740   0.29300   0.82830   1.000
    H336    H    0.51300   0.21260   0.83980   1.000
    H337    H    0.51080   0.28190   0.80270   1.000
    C398    C    0.45010   0.32400   0.81030   1.000
    H338    H    0.46040   0.38170   0.79260   1.000
    H339    H    0.45160   0.24010   0.79980   1.000
    C399    C    0.41530   0.35000   0.81040   1.000
    H340    H    0.40770   0.36680   0.78600   1.000
    H341    H    0.40220   0.27550   0.81850   1.000
    C400    C    0.37780   0.49730   0.81840   1.000
    H342    H    0.38370   0.52010   0.79390   1.000
    H343    H    0.35940   0.43100   0.81710   1.000
    C401    C    0.36230   0.59390   0.83220   1.000
    H344    H    0.34310   0.62290   0.81630   1.000
    H345    H    0.35080   0.56850   0.85450   1.000
    C402    C    0.37390   0.79030   0.86080   1.000
    C403    C    0.34440   0.81010   0.87660   1.000
    H346    H    0.32560   0.75150   0.87300   1.000
    C404    C    0.33710   0.90990   0.89870   1.000
    C405    C    0.36550   0.99530   0.90890   1.000
    H347    H    0.36150   0.06140   0.92510   1.000
    C406    C    0.39770   0.97490   0.89420   1.000
    C407    C    0.40330   0.87780   0.86990   1.000
    H348    H    0.42620   0.86820   0.85930   1.000
    C408    C    0.30160   0.93500   0.91590   1.000
    C409    C    0.45960   0.02020   0.89320   1.000
    H349    H    0.46450   0.93160   0.89850   1.000
    H350    H    0.46080   0.03180   0.86750   1.000
    C410    C    0.48660   0.10050   0.91060   1.000
    H351    H    0.48680   0.08500   0.93620   1.000
    H352    H    0.48110   0.18960   0.90650   1.000
    C411    C    0.54890   0.12460   0.91220   1.000
    H353    H    0.54450   0.21500   0.91520   1.000
    H354    H    0.55280   0.08710   0.93560   1.000
    C412    C    0.58240   0.10220   0.88830   1.000
    H355    H    0.60340   0.13840   0.90050   1.000
    H356    H    0.57880   0.15190   0.86670   1.000
    C413    C    0.61450   0.91800   0.90170   1.000
    H357    H    0.63130   0.98020   0.91160   1.000
    H358    H    0.59950   0.88640   0.92120   1.000
    C414    C    0.63450   0.81880   0.88790   1.000
    H359    H    0.64440   0.83960   0.86460   1.000
    H360    H    0.65420   0.79440   0.90380   1.000
    O129    O    0.24300   0.14610   0.48750   1.000
    H361    H    0.22260   0.18380   0.49040   1.000
    H362    H    0.25460   0.18070   0.47030   1.000
    Zn15    Zn   0.24750   0.81820   0.45710   1.000
    O130    O    0.70190   0.51500   0.73870   1.000
    O131    O    0.40030   0.40700   0.84200   1.000
    O132    O    0.28200   0.77100   0.91500   1.000
    O133    O    0.28140   0.98800   0.92400   1.000
    O134    O    0.59090   0.97960   0.89740   1.000
    O135    O    0.61210   0.75660   0.86340   1.000
    H363    H    0.27270   0.66100   0.50380   1.000
    H364    H    0.23700   0.62140   0.49710   1.000
    C415    C    0.67880   0.55600   0.75760   1.000
    C416    C    0.56490   0.52830   0.74170   1.000
    C417    C    0.58840   0.49060   0.71540   1.000
    H365    H    0.57920   0.45810   0.69400   1.000
    C418    C    0.62520   0.50050   0.72030   1.000
    H366    H    0.64120   0.47470   0.70230   1.000
    C419    C    0.63860   0.54810   0.75150   1.000
    C420    C    0.61520   0.58580   0.77780   1.000
    H367    H    0.62440   0.61830   0.79920   1.000
    C421    C    0.57840   0.57590   0.77290   1.000
    H368    H    0.56240   0.60170   0.79090   1.000
    C422    C    0.44510   0.25600   0.83000   1.000
    H369    H    0.44420   0.23950   0.80410   1.000
    H370    H    0.45010   0.17540   0.84110   1.000
    C423    C    0.41210   0.28800   0.83900   1.000
    H371    H    0.39590   0.24650   0.82190   1.000
    H372    H    0.40770   0.24710   0.86180   1.000
    H373    H    0.35890   0.44700   0.80690   1.000
    H374    H    0.39390   0.52790   0.79960   1.000
    C424    C    0.29200   0.88200   0.91500   1.000
    H375    H    0.60220   0.16030   0.89400   1.000
    H376    H    0.57630   0.10970   0.86310   1.000
    C425    C    0.62480   0.97200   0.88030   1.000
    H377    H    0.62290   0.99060   0.85500   1.000
    H378    H    0.64270   0.02840   0.89120   1.000
    H379    H    0.62840   0.79470   0.91230   1.000
    H380    H    0.66010   0.80070   0.88350   1.000
    Zn16    Zn   0.76983   0.41304   0.31312   1.000
    Zn17    Zn   0.26594   0.03100   0.97630   1.000
    O136    O    0.81100   0.38550   0.28430   1.000
    O137    O    0.80560   0.56600   0.26330   1.000
    O138    O    0.22260   0.35810   0.21890   1.000
    O139    O    0.22100   0.53940   0.19950   1.000
    O140    O    0.80360   0.23840   0.00880   1.000
    O141    O    0.80660   0.43340   0.99250   1.000
    O142    O    0.21740   0.07070   0.02630   1.000
    O143    O    0.21820   0.09940   0.97050   1.000
    O144    O    0.77970   0.52650   0.35370   1.000
    O145    O    0.79950   0.71170   0.36210   1.000
    O146    O    0.93167   0.65720   0.33890   1.000
    O147    O    0.02750   0.67670   0.33470   1.000
    O148    O    0.09530   0.55060   0.33070   1.000
    O149    O    0.11390   0.30470   0.33910   1.000
    O150    O    0.22130   0.15400   0.41270   1.000
    O151    O    0.20250   0.96400   0.43220   1.000
    O152    O    0.07450   0.94640   0.40560   1.000
    O153    O    0.98030   0.93150   0.39560   1.000
    O154    O    0.90750   0.02320   0.37740   1.000
    O155    O    0.89370   0.28300   0.38540   1.000
    N21     N    0.97792   0.62750   0.18743   1.000
    H381    H    0.95530   0.64980   0.18580   1.000
    N22     N    0.03706   0.61260   0.17740   1.000
    N23     N    0.97560   0.09460   0.04520   1.000
    H382    H    0.95300   0.09020   0.05190   1.000
    N24     N    0.03360   0.05510   0.04280   1.000
    C426    C    0.82190   0.47600   0.26850   1.000
    C427    C    0.93490   0.46670   0.24120   1.000
    C428    C    0.91420   0.56790   0.23090   1.000
    H383    H    0.92520   0.63640   0.21920   1.000
    C429    C    0.87760   0.56880   0.23750   1.000
    H384    H    0.86340   0.63800   0.23040   1.000
    C430    C    0.86160   0.46860   0.25450   1.000
    C431    C    0.88230   0.36740   0.26480   1.000
    H385    H    0.87140   0.29890   0.27640   1.000
    C432    C    0.91900   0.36650   0.25820   1.000
    H386    H    0.93310   0.29730   0.26530   1.000
    C433    C    0.97530   0.47110   0.23680   1.000
    C434    C    0.99230   0.54410   0.21140   1.000
    C435    C    0.02890   0.53550   0.20550   1.000
    C436    C    0.05170   0.46050   0.22620   1.000
    C437    C    0.03480   0.39080   0.25120   1.000
    H387    H    0.04870   0.33820   0.26590   1.000
    C438    C    0.99660   0.39530   0.25570   1.000
    H388    H    0.98590   0.34260   0.27280   1.000
    C439    C    0.09140   0.45630   0.22150   1.000
    C440    C    0.11060   0.56840   0.21580   1.000
    H389    H    0.09840   0.64580   0.21420   1.000
    C441    C    0.14800   0.56290   0.21250   1.000
    H390    H    0.16100   0.63750   0.20830   1.000
    C442    C    0.16610   0.45320   0.21520   1.000
    C443    C    0.14840   0.34390   0.22000   1.000
    H391    H    0.16120   0.26730   0.22010   1.000
    C444    C    0.10990   0.34490   0.22510   1.000
    H392    H    0.09750   0.27030   0.23070   1.000
    C445    C    0.20900   0.44600   0.20660   1.000
    C446    C    0.00440   0.66670   0.16760   1.000
    C447    C    0.00270   0.75240   0.13810   1.000
    C448    C    0.97580   0.83990   0.13660   1.000
    H393    H    0.95830   0.84090   0.15460   1.000
    C449    C    0.97340   0.92610   0.11010   1.000
    H394    H    0.95390   0.98330   0.10940   1.000
    C450    C    0.00000   0.92790   0.08440   1.000
    C451    C    0.02670   0.83860   0.08540   1.000
    H395    H    0.04450   0.83670   0.06760   1.000
    C452    C    0.02770   0.75140   0.11230   1.000
    H396    H    0.04620   0.69050   0.11270   1.000
    C453    C    0.00300   0.02580   0.05720   1.000
    C454    C    0.82200   0.33100   0.99770   1.000
    C455    C    0.86030   0.32040   0.99510   1.000
    C456    C    0.88290   0.41710   0.99540   1.000
    H397    H    0.87320   0.49880   0.99430   1.000
    C457    C    0.91890   0.40470   0.99720   1.000
    H398    H    0.93380   0.47640   0.99840   1.000
    C458    C    0.93410   0.28680   0.99720   1.000
    C459    C    0.91090   0.18660   0.99600   1.000
    H399    H    0.92040   0.10450   0.99600   1.000
    C460    C    0.87520   0.20250   0.99490   1.000
    H400    H    0.86000   0.13170   0.99390   1.000
    C461    C    0.97390   0.26500   0.99900   1.000
    C462    C    0.99790   0.33410   0.97830   1.000
    H401    H    0.98890   0.39980   0.96410   1.000
    C463    C    0.03390   0.30930   0.97810   1.000
    H402    H    0.04880   0.35720   0.96300   1.000
    C464    C    0.04980   0.21890   0.99840   1.000
    C465    C    0.02650   0.15050   0.01970   1.000
    C466    C    0.98980   0.17480   0.01990   1.000
    C467    C    0.08970   0.19320   0.99870   1.000
    C468    C    0.10880   0.20070   0.96730   1.000
    H403    H    0.09740   0.22050   0.94580   1.000
    C469    C    0.14720   0.17670   0.96940   1.000
    H404    H    0.16150   0.18680   0.94890   1.000
    C470    C    0.16350   0.13990   0.00000   1.000
    C471    C    0.14270   0.12770   0.02920   1.000
    H405    H    0.15340   0.09760   0.05020   1.000
    C472    C    0.10660   0.15760   0.02930   1.000
    H406    H    0.09340   0.15360   0.05060   1.000
    C473    C    0.20070   0.10410   0.99940   1.000
    C474    C    0.80490   0.60200   0.35860   1.000
    C475    C    0.84220   0.55030   0.35820   1.000
    C476    C    0.87060   0.62790   0.34950   1.000
    H407    H    0.86660   0.71290   0.34370   1.000
    C477    C    0.90490   0.57850   0.34950   1.000
    C478    C    0.91010   0.45220   0.35650   1.000
    H408    H    0.93360   0.41830   0.35610   1.000
    C479    C    0.88140   0.37680   0.36380   1.000
    C480    C    0.84700   0.42360   0.36510   1.000
    H409    H    0.82720   0.37140   0.37060   1.000
    C481    C    0.96750   0.61170   0.34100   1.000
    H410    H    0.97320   0.59020   0.36560   1.000
    H411    H    0.96980   0.53530   0.32660   1.000
    C482    C    0.99260   0.70700   0.32830   1.000
    H412    H    0.98700   0.78740   0.33980   1.000
    H413    H    0.98920   0.71810   0.30270   1.000
    C483    C    0.04990   0.67600   0.31030   1.000
    H414    H    0.03960   0.61830   0.29260   1.000
    H415    H    0.04840   0.75990   0.29980   1.000
    C484    C    0.08470   0.65000   0.31040   1.000
    H416    H    0.09230   0.63320   0.28600   1.000
    H417    H    0.09780   0.72450   0.31850   1.000
    C485    C    0.12220   0.50270   0.31840   1.000
    H418    H    0.11630   0.47990   0.29390   1.000
    H419    H    0.14060   0.56900   0.31710   1.000
    C486    C    0.13770   0.40610   0.33220   1.000
    H420    H    0.15690   0.37710   0.31630   1.000
    H421    H    0.14920   0.43150   0.35450   1.000
    C487    C    0.12610   0.20970   0.36080   1.000
    C488    C    0.15560   0.18990   0.37660   1.000
    H422    H    0.17440   0.24850   0.37300   1.000
    C489    C    0.16290   0.09010   0.39870   1.000
    C490    C    0.13450   0.00470   0.40890   1.000
    H423    H    0.13850   0.93860   0.42510   1.000
    C491    C    0.10230   0.02510   0.39420   1.000
    C492    C    0.09670   0.12220   0.36990   1.000
    H424    H    0.07380   0.13180   0.35930   1.000
    C493    C    0.19840   0.06500   0.41590   1.000
    C494    C    0.04040   0.97980   0.39320   1.000
    H425    H    0.03550   0.06840   0.39850   1.000
    H426    H    0.03920   0.96820   0.36750   1.000
    C495    C    0.01340   0.89950   0.41060   1.000
    H427    H    0.01320   0.91500   0.43620   1.000
    H428    H    0.01890   0.81040   0.40650   1.000
    C496    C    0.95110   0.87540   0.41220   1.000
    H429    H    0.95550   0.78500   0.41520   1.000
    H430    H    0.94720   0.91290   0.43560   1.000
    C497    C    0.91760   0.89780   0.38830   1.000
    H431    H    0.89660   0.86160   0.40050   1.000
    H432    H    0.92120   0.84810   0.36670   1.000
    C498    C    0.88550   0.08200   0.40170   1.000
    H433    H    0.86870   0.01980   0.41160   1.000
    H434    H    0.90050   0.11360   0.42120   1.000
    C499    C    0.86550   0.18120   0.38790   1.000
    H435    H    0.85560   0.16040   0.36460   1.000
    H436    H    0.84580   0.20560   0.40380   1.000
    O156    O    0.25700   0.85390   0.98750   1.000
    H437    H    0.27740   0.81620   0.99040   1.000
    H438    H    0.24540   0.81930   0.97030   1.000
    Zn18    Zn   0.25250   0.18180   0.95710   1.000
    O157    O    0.79810   0.48500   0.23870   1.000
    O158    O    0.09970   0.59300   0.34200   1.000
    O159    O    0.21800   0.22900   0.41500   1.000
    O160    O    0.21860   0.01200   0.42400   1.000
    O161    O    0.90910   0.02040   0.39740   1.000
    O162    O    0.88790   0.24340   0.36340   1.000
    H439    H    0.22730   0.33900   0.00380   1.000
    H440    H    0.26300   0.37860   0.99710   1.000
    C500    C    0.82120   0.44400   0.25760   1.000
    C501    C    0.93510   0.47170   0.24170   1.000
    C502    C    0.91160   0.50940   0.21540   1.000
    H441    H    0.92080   0.54190   0.19400   1.000
    C503    C    0.87480   0.49950   0.22030   1.000
    H442    H    0.85880   0.52530   0.20230   1.000
    C504    C    0.86140   0.45190   0.25150   1.000
    C505    C    0.88480   0.41420   0.27780   1.000
    H443    H    0.87560   0.38170   0.29920   1.000
    C506    C    0.92160   0.42410   0.27290   1.000
    H444    H    0.93760   0.39830   0.29090   1.000
    C507    C    0.05490   0.74400   0.33000   1.000
    H445    H    0.05580   0.76050   0.30410   1.000
    H446    H    0.04990   0.82460   0.34110   1.000
    C508    C    0.08790   0.71200   0.33900   1.000
    H447    H    0.10410   0.75350   0.32190   1.000
    H448    H    0.09230   0.75290   0.36180   1.000
    H449    H    0.14110   0.55300   0.30690   1.000
    H450    H    0.10610   0.47210   0.29960   1.000
    C509    C    0.20800   0.11800   0.41500   1.000
    H451    H    0.89780   0.83970   0.39400   1.000
    H452    H    0.92370   0.89030   0.36310   1.000
    C510    C    0.87520   0.02800   0.38030   1.000
    H453    H    0.87710   0.00940   0.35500   1.000
    H454    H    0.85730   0.97160   0.39120   1.000
    H455    H    0.87160   0.20530   0.41230   1.000
    H456    H    0.83990   0.19930   0.38350   1.000
    Zn19    Zn   0.26983   0.08696   0.68688   1.000
    Zn20    Zn   0.76594   0.46900   0.02370   1.000
    O163    O    0.31100   0.11450   0.71570   1.000
    O164    O    0.30560   0.93400   0.73670   1.000
    O165    O    0.72260   0.14190   0.78110   1.000
    O166    O    0.72100   0.96060   0.80050   1.000
    O167    O    0.30360   0.26160   0.99120   1.000
    O168    O    0.30660   0.06660   0.00750   1.000
    O169    O    0.71740   0.42930   0.97370   1.000
    O170    O    0.71820   0.40060   0.02950   1.000
    O171    O    0.27970   0.97350   0.64630   1.000
    O172    O    0.29950   0.78830   0.63790   1.000
    O173    O    0.43167   0.84280   0.66110   1.000
    O174    O    0.52750   0.82330   0.66530   1.000
    O175    O    0.59530   0.94940   0.66930   1.000
    O176    O    0.61390   0.19530   0.66090   1.000
    O177    O    0.72130   0.34600   0.58730   1.000
    O178    O    0.70250   0.53600   0.56780   1.000
    O179    O    0.57450   0.55360   0.59440   1.000
    O180    O    0.48030   0.56850   0.60440   1.000
    O181    O    0.40750   0.47680   0.62260   1.000
    O182    O    0.39370   0.21700   0.61460   1.000
    N25     N    0.47792   0.87250   0.81257   1.000
    H457    H    0.45530   0.85020   0.81420   1.000
    N26     N    0.53706   0.88740   0.82260   1.000
    N27     N    0.47560   0.40540   0.95480   1.000
    H458    H    0.45300   0.40980   0.94810   1.000
    N28     N    0.53360   0.44490   0.95720   1.000
    C511    C    0.32190   0.02400   0.73150   1.000
    C512    C    0.43490   0.03330   0.75880   1.000
    C513    C    0.41420   0.93210   0.76910   1.000
    H459    H    0.42520   0.86360   0.78080   1.000
    C514    C    0.37760   0.93120   0.76250   1.000
    H460    H    0.36340   0.86200   0.76960   1.000
    C515    C    0.36160   0.03140   0.74550   1.000
    C516    C    0.38230   0.13260   0.73520   1.000
    H461    H    0.37140   0.20110   0.72360   1.000
    C517    C    0.41900   0.13350   0.74180   1.000
    H462    H    0.43310   0.20270   0.73470   1.000
    C518    C    0.47530   0.02890   0.76320   1.000
    C519    C    0.49230   0.95590   0.78860   1.000
    C520    C    0.52890   0.96450   0.79450   1.000
    C521    C    0.55170   0.03950   0.77380   1.000
    C522    C    0.53480   0.10920   0.74880   1.000
    H463    H    0.54870   0.16180   0.73410   1.000
    C523    C    0.49660   0.10470   0.74430   1.000
    H464    H    0.48590   0.15740   0.72720   1.000
    C524    C    0.59140   0.04370   0.77850   1.000
    C525    C    0.61060   0.93160   0.78420   1.000
    H465    H    0.59840   0.85420   0.78580   1.000
    C526    C    0.64800   0.93710   0.78750   1.000
    H466    H    0.66100   0.86250   0.79170   1.000
    C527    C    0.66610   0.04680   0.78480   1.000
    C528    C    0.64840   0.15610   0.78000   1.000
    H467    H    0.66120   0.23270   0.77990   1.000
    C529    C    0.60990   0.15510   0.77490   1.000
    H468    H    0.59750   0.22970   0.76930   1.000
    C530    C    0.70900   0.05400   0.79340   1.000
    C531    C    0.50440   0.83330   0.83240   1.000
    C532    C    0.50270   0.74760   0.86190   1.000
    C533    C    0.47580   0.66010   0.86340   1.000
    H469    H    0.45830   0.65910   0.84540   1.000
    C534    C    0.47340   0.57390   0.88990   1.000
    H470    H    0.45390   0.51670   0.89060   1.000
    C535    C    0.50000   0.57210   0.91560   1.000
    C536    C    0.52670   0.66140   0.91460   1.000
    H471    H    0.54450   0.66330   0.93240   1.000
    C537    C    0.52770   0.74860   0.88770   1.000
    H472    H    0.54620   0.80950   0.88730   1.000
    C538    C    0.50300   0.47420   0.94280   1.000
    C539    C    0.32200   0.16900   0.00230   1.000
    C540    C    0.36030   0.17960   0.00490   1.000
    C541    C    0.38290   0.08290   0.00460   1.000
    H473    H    0.37320   0.00120   0.00570   1.000
    C542    C    0.41890   0.09530   0.00280   1.000
    H474    H    0.43380   0.02360   0.00160   1.000
    C543    C    0.43410   0.21320   0.00280   1.000
    C544    C    0.41090   0.31340   0.00400   1.000
    H475    H    0.42040   0.39550   0.00400   1.000
    C545    C    0.37520   0.29750   0.00510   1.000
    H476    H    0.36000   0.36830   0.00610   1.000
    C546    C    0.47390   0.23500   0.00100   1.000
    C547    C    0.49790   0.16590   0.02170   1.000
    H477    H    0.48890   0.10020   0.03590   1.000
    C548    C    0.53390   0.19070   0.02190   1.000
    H478    H    0.54880   0.14280   0.03700   1.000
    C549    C    0.54980   0.28110   0.00160   1.000
    C550    C    0.52650   0.34950   0.98030   1.000
    C551    C    0.48980   0.32520   0.98010   1.000
    C552    C    0.58970   0.30680   0.00130   1.000
    C553    C    0.60880   0.29930   0.03270   1.000
    H479    H    0.59740   0.27950   0.05420   1.000
    C554    C    0.64720   0.32330   0.03060   1.000
    H480    H    0.66150   0.31320   0.05110   1.000
    C555    C    0.66350   0.36010   0.00000   1.000
    C556    C    0.64270   0.37230   0.97080   1.000
    H481    H    0.65340   0.40240   0.94980   1.000
    C557    C    0.60660   0.34240   0.97070   1.000
    H482    H    0.59340   0.34640   0.94940   1.000
    C558    C    0.70070   0.39590   0.00060   1.000
    C559    C    0.30490   0.89800   0.64140   1.000
    C560    C    0.34220   0.94970   0.64180   1.000
    C561    C    0.37060   0.87210   0.65050   1.000
    H483    H    0.36660   0.78710   0.65630   1.000
    C562    C    0.40490   0.92150   0.65050   1.000
    C563    C    0.41010   0.04780   0.64350   1.000
    H484    H    0.43360   0.08170   0.64390   1.000
    C564    C    0.38140   0.12320   0.63620   1.000
    C565    C    0.34700   0.07640   0.63490   1.000
    H485    H    0.32720   0.12860   0.62940   1.000
    C566    C    0.46750   0.88830   0.65900   1.000
    H486    H    0.47320   0.90980   0.63440   1.000
    H487    H    0.46980   0.96470   0.67340   1.000
    C567    C    0.49260   0.79300   0.67170   1.000
    H488    H    0.48700   0.71260   0.66020   1.000
    H489    H    0.48920   0.78190   0.69730   1.000
    C568    C    0.54990   0.82400   0.68970   1.000
    H490    H    0.53960   0.88170   0.70740   1.000
    H491    H    0.54840   0.74010   0.70020   1.000
    C569    C    0.58470   0.85000   0.68960   1.000
    H492    H    0.59230   0.86680   0.71400   1.000
    H493    H    0.59780   0.77550   0.68150   1.000
    C570    C    0.62220   0.99730   0.68160   1.000
    H494    H    0.61630   0.02010   0.70610   1.000
    H495    H    0.64060   0.93100   0.68290   1.000
    C571    C    0.63770   0.09390   0.66780   1.000
    H496    H    0.65690   0.12290   0.68370   1.000
    H497    H    0.64920   0.06850   0.64550   1.000
    C572    C    0.62610   0.29030   0.63920   1.000
    C573    C    0.65560   0.31010   0.62340   1.000
    H498    H    0.67440   0.25150   0.62700   1.000
    C574    C    0.66290   0.40990   0.60130   1.000
    C575    C    0.63450   0.49530   0.59110   1.000
    H499    H    0.63850   0.56140   0.57490   1.000
    C576    C    0.60230   0.47490   0.60580   1.000
    C577    C    0.59670   0.37780   0.63010   1.000
    H500    H    0.57380   0.36820   0.64070   1.000
    C578    C    0.69840   0.43500   0.58410   1.000
    C579    C    0.54040   0.52020   0.60680   1.000
    H501    H    0.53550   0.43160   0.60150   1.000
    H502    H    0.53920   0.53180   0.63250   1.000
    C580    C    0.51340   0.60050   0.58940   1.000
    H503    H    0.51320   0.58500   0.56380   1.000
    H504    H    0.51890   0.68960   0.59350   1.000
    C581    C    0.45110   0.62460   0.58780   1.000
    H505    H    0.45550   0.71500   0.58480   1.000
    H506    H    0.44720   0.58710   0.56440   1.000
    C582    C    0.41760   0.60220   0.61170   1.000
    H507    H    0.39660   0.63840   0.59950   1.000
    H508    H    0.42120   0.65190   0.63330   1.000
    C583    C    0.38550   0.41800   0.59830   1.000
    H509    H    0.36870   0.48020   0.58840   1.000
    H510    H    0.40050   0.38640   0.57880   1.000
    C584    C    0.36550   0.31880   0.61210   1.000
    H511    H    0.35560   0.33960   0.63540   1.000
    H512    H    0.34580   0.29440   0.59620   1.000
    O183    O    0.75700   0.64610   0.01250   1.000
    H513    H    0.77740   0.68380   0.00960   1.000
    H514    H    0.74540   0.68070   0.02970   1.000
    Zn21    Zn   0.75250   0.31820   0.04290   1.000
    O184    O    0.29810   0.01500   0.76130   1.000
    O185    O    0.59970   0.90700   0.65800   1.000
    O186    O    0.71800   0.27100   0.58500   1.000
    O187    O    0.71860   0.48800   0.57600   1.000
    O188    O    0.40910   0.47960   0.60260   1.000
    O189    O    0.38790   0.25660   0.63660   1.000
    H515    H    0.72730   0.16100   0.99620   1.000
    H516    H    0.76300   0.12140   0.00290   1.000
    C585    C    0.32120   0.05600   0.74240   1.000
    C586    C    0.43510   0.02830   0.75830   1.000
    C587    C    0.41160   0.99060   0.78460   1.000
    H517    H    0.42080   0.95810   0.80600   1.000
    C588    C    0.37480   0.00050   0.77970   1.000
    H518    H    0.35880   0.97470   0.79770   1.000
    C589    C    0.36140   0.04810   0.74850   1.000
    C590    C    0.38480   0.08580   0.72220   1.000
    H519    H    0.37560   0.11830   0.70080   1.000
    C591    C    0.42160   0.07590   0.72710   1.000
    H520    H    0.43760   0.10170   0.70910   1.000
    C592    C    0.55490   0.75600   0.67000   1.000
    H521    H    0.55580   0.73950   0.69590   1.000
    H522    H    0.54990   0.67540   0.65890   1.000
    C593    C    0.58790   0.78800   0.66100   1.000
    H523    H    0.60410   0.74650   0.67810   1.000
    H524    H    0.59230   0.74710   0.63820   1.000
    H525    H    0.64110   0.94700   0.69310   1.000
    H526    H    0.60610   0.02790   0.70040   1.000
    C594    C    0.70800   0.38200   0.58500   1.000
    H527    H    0.39780   0.66030   0.60600   1.000
    H528    H    0.42370   0.60970   0.63690   1.000
    C595    C    0.37520   0.47200   0.61970   1.000
    H529    H    0.37710   0.49060   0.64500   1.000
    H530    H    0.35730   0.52840   0.60880   1.000
    H531    H    0.37160   0.29470   0.58770   1.000
    H532    H    0.33990   0.30070   0.61650   1.000
    Zn22    Zn   0.23017   0.91304   0.18688   1.000
    Zn23    Zn   0.73406   0.53100   0.52370   1.000
    O190    O    0.18900   0.88550   0.21570   1.000
    O191    O    0.19440   0.06600   0.23670   1.000
    O192    O    0.77740   0.85810   0.28110   1.000
    O193    O    0.77900   0.03940   0.30050   1.000
    O194    O    0.19640   0.73840   0.49120   1.000
    O195    O    0.19340   0.93340   0.50750   1.000
    O196    O    0.78260   0.57070   0.47370   1.000
    O197    O    0.78180   0.59940   0.52950   1.000
    O198    O    0.22030   0.02650   0.14630   1.000
    O199    O    0.20050   0.21170   0.13790   1.000
    O200    O    0.06833   0.15720   0.16110   1.000
    O201    O    0.97250   0.17670   0.16530   1.000
    O202    O    0.90470   0.05060   0.16930   1.000
    O203    O    0.88610   0.80470   0.16090   1.000
    O204    O    0.77870   0.65400   0.08730   1.000
    O205    O    0.79750   0.46400   0.06780   1.000
    O206    O    0.92550   0.44640   0.09440   1.000
    O207    O    0.01970   0.43150   0.10440   1.000
    O208    O    0.09250   0.52320   0.12260   1.000
    O209    O    0.10630   0.78300   0.11460   1.000
    N29     N    0.02208   0.12750   0.31257   1.000
    H533    H    0.04470   0.14980   0.31420   1.000
    N30     N    0.96294   0.11260   0.32260   1.000
    N31     N    0.02440   0.59460   0.45480   1.000
    H534    H    0.04700   0.59020   0.44810   1.000
    N32     N    0.96640   0.55510   0.45720   1.000
    C596    C    0.17810   0.97600   0.23150   1.000
    C597    C    0.06510   0.96670   0.25880   1.000
    C598    C    0.08580   0.06790   0.26910   1.000
    H535    H    0.07480   0.13640   0.28080   1.000
    C599    C    0.12240   0.06880   0.26250   1.000
    H536    H    0.13660   0.13800   0.26960   1.000
    C600    C    0.13840   0.96860   0.24550   1.000
    C601    C    0.11770   0.86740   0.23520   1.000
    H537    H    0.12860   0.79890   0.22360   1.000
    C602    C    0.08100   0.86650   0.24180   1.000
    H538    H    0.06690   0.79730   0.23470   1.000
    C603    C    0.02470   0.97110   0.26320   1.000
    C604    C    0.00770   0.04410   0.28860   1.000
    C605    C    0.97110   0.03550   0.29450   1.000
    C606    C    0.94830   0.96050   0.27380   1.000
    C607    C    0.96520   0.89080   0.24880   1.000
    H539    H    0.95130   0.83820   0.23410   1.000
    C608    C    0.00340   0.89530   0.24430   1.000
    H540    H    0.01410   0.84260   0.22720   1.000
    C609    C    0.90860   0.95630   0.27850   1.000
    C610    C    0.88940   0.06840   0.28420   1.000
    H541    H    0.90160   0.14580   0.28580   1.000
    C611    C    0.85200   0.06290   0.28750   1.000
    H542    H    0.83900   0.13750   0.29170   1.000
    C612    C    0.83390   0.95320   0.28480   1.000
    C613    C    0.85160   0.84390   0.28000   1.000
    H543    H    0.83880   0.76730   0.27990   1.000
    C614    C    0.89010   0.84490   0.27490   1.000
    H544    H    0.90250   0.77030   0.26930   1.000
    C615    C    0.79100   0.94600   0.29340   1.000
    C616    C    0.99560   0.16670   0.33240   1.000
    C617    C    0.99730   0.25240   0.36190   1.000
    C618    C    0.02420   0.33990   0.36340   1.000
    H545    H    0.04170   0.34090   0.34540   1.000
    C619    C    0.02660   0.42610   0.38990   1.000
    H546    H    0.04610   0.48330   0.39060   1.000
    C620    C    0.00000   0.42790   0.41560   1.000
    C621    C    0.97330   0.33860   0.41460   1.000
    H547    H    0.95550   0.33670   0.43240   1.000
    C622    C    0.97230   0.25140   0.38770   1.000
    H548    H    0.95380   0.19050   0.38730   1.000
    C623    C    0.99700   0.52580   0.44280   1.000
    C624    C    0.17800   0.83100   0.50230   1.000
    C625    C    0.13970   0.82040   0.50490   1.000
    C626    C    0.11710   0.91710   0.50460   1.000
    H549    H    0.12680   0.99880   0.50570   1.000
    C627    C    0.08110   0.90470   0.50280   1.000
    H550    H    0.06620   0.97640   0.50160   1.000
    C628    C    0.06590   0.78680   0.50280   1.000
    C629    C    0.08910   0.68660   0.50400   1.000
    H551    H    0.07960   0.60450   0.50400   1.000
    C630    C    0.12480   0.70250   0.50510   1.000
    H552    H    0.14000   0.63170   0.50610   1.000
    C631    C    0.02610   0.76500   0.50100   1.000
    C632    C    0.00210   0.83410   0.52170   1.000
    H553    H    0.01110   0.89980   0.53590   1.000
    C633    C    0.96610   0.80930   0.52190   1.000
    H554    H    0.95120   0.85720   0.53700   1.000
    C634    C    0.95020   0.71890   0.50160   1.000
    C635    C    0.97350   0.65050   0.48030   1.000
    C636    C    0.01020   0.67480   0.48010   1.000
    C637    C    0.91030   0.69320   0.50130   1.000
    C638    C    0.89120   0.70070   0.53270   1.000
    H555    H    0.90260   0.72050   0.55420   1.000
    C639    C    0.85280   0.67670   0.53060   1.000
    H556    H    0.83850   0.68680   0.55110   1.000
    C640    C    0.83650   0.63990   0.50000   1.000
    C641    C    0.85730   0.62770   0.47080   1.000
    H557    H    0.84660   0.59760   0.44980   1.000
    C642    C    0.89340   0.65760   0.47070   1.000
    H558    H    0.90660   0.65360   0.44940   1.000
    C643    C    0.79930   0.60410   0.50060   1.000
    C644    C    0.19510   0.10200   0.14140   1.000
    C645    C    0.15780   0.05030   0.14180   1.000
    C646    C    0.12940   0.12790   0.15050   1.000
    H559    H    0.13340   0.21290   0.15630   1.000
    C647    C    0.09510   0.07850   0.15050   1.000
    C648    C    0.08990   0.95220   0.14350   1.000
    H560    H    0.06640   0.91830   0.14390   1.000
    C649    C    0.11860   0.87680   0.13620   1.000
    C650    C    0.15300   0.92360   0.13490   1.000
    H561    H    0.17280   0.87140   0.12940   1.000
    C651    C    0.03250   0.11170   0.15900   1.000
    H562    H    0.02680   0.09020   0.13440   1.000
    H563    H    0.03020   0.03530   0.17340   1.000
    C652    C    0.00740   0.20700   0.17170   1.000
    H564    H    0.01300   0.28740   0.16020   1.000
    H565    H    0.01080   0.21810   0.19730   1.000
    C653    C    0.95010   0.17600   0.18970   1.000
    H566    H    0.96040   0.11830   0.20740   1.000
    H567    H    0.95160   0.25990   0.20020   1.000
    C654    C    0.91530   0.15000   0.18960   1.000
    H568    H    0.90770   0.13320   0.21400   1.000
    H569    H    0.90220   0.22450   0.18150   1.000
    C655    C    0.87780   0.00270   0.18160   1.000
    H570    H    0.88370   0.97990   0.20610   1.000
    H571    H    0.85940   0.06900   0.18290   1.000
    C656    C    0.86230   0.90610   0.16780   1.000
    H572    H    0.84310   0.87710   0.18370   1.000
    H573    H    0.85080   0.93150   0.14550   1.000
    C657    C    0.87390   0.70970   0.13920   1.000
    C658    C    0.84440   0.68990   0.12340   1.000
    H574    H    0.82560   0.74850   0.12700   1.000
    C659    C    0.83710   0.59010   0.10130   1.000
    C660    C    0.86550   0.50470   0.09110   1.000
    H575    H    0.86150   0.43860   0.07490   1.000
    C661    C    0.89770   0.52510   0.10580   1.000
    C662    C    0.90330   0.62220   0.13010   1.000
    H576    H    0.92620   0.63180   0.14070   1.000
    C663    C    0.80160   0.56500   0.08410   1.000
    C664    C    0.95960   0.47980   0.10680   1.000
    H577    H    0.96450   0.56840   0.10150   1.000
    H578    H    0.96080   0.46820   0.13250   1.000
    C665    C    0.98660   0.39950   0.08940   1.000
    H579    H    0.98680   0.41500   0.06380   1.000
    H580    H    0.98110   0.31040   0.09350   1.000
    C666    C    0.04890   0.37540   0.08780   1.000
    H581    H    0.04450   0.28500   0.08480   1.000
    H582    H    0.05280   0.41290   0.06440   1.000
    C667    C    0.08240   0.39780   0.11170   1.000
    H583    H    0.10340   0.36160   0.09950   1.000
    H584    H    0.07880   0.34810   0.13330   1.000
    C668    C    0.11450   0.58200   0.09830   1.000
    H585    H    0.13130   0.51980   0.08840   1.000
    H586    H    0.09950   0.61360   0.07880   1.000
    C669    C    0.13450   0.68120   0.11210   1.000
    H587    H    0.14440   0.66040   0.13540   1.000
    H588    H    0.15420   0.70560   0.09620   1.000
    O210    O    0.74300   0.35390   0.51250   1.000
    H589    H    0.72260   0.31620   0.50960   1.000
    H590    H    0.75460   0.31930   0.52970   1.000
    Zn24    Zn   0.74750   0.68180   0.54290   1.000
    O211    O    0.20190   0.98500   0.26130   1.000
    O212    O    0.90030   0.09300   0.15800   1.000
    O213    O    0.78200   0.72900   0.08500   1.000
    O214    O    0.78140   0.51200   0.07600   1.000
    O215    O    0.09090   0.52040   0.10260   1.000
    O216    O    0.11210   0.74340   0.13660   1.000
    H591    H    0.77270   0.83900   0.49620   1.000
    H592    H    0.73700   0.87860   0.50290   1.000
    C670    C    0.17880   0.94400   0.24240   1.000
    C671    C    0.06490   0.97170   0.25830   1.000
    C672    C    0.08840   0.00940   0.28460   1.000
    H593    H    0.07920   0.04190   0.30600   1.000
    C673    C    0.12520   0.99950   0.27970   1.000
    H594    H    0.14120   0.02530   0.29770   1.000
    C674    C    0.13860   0.95190   0.24850   1.000
    C675    C    0.11520   0.91420   0.22220   1.000
    H595    H    0.12440   0.88170   0.20080   1.000
    C676    C    0.07840   0.92410   0.22710   1.000
    H596    H    0.06240   0.89830   0.20910   1.000
    C677    C    0.94510   0.24400   0.17000   1.000
    H597    H    0.94420   0.26050   0.19590   1.000
    H598    H    0.95010   0.32460   0.15890   1.000
    C678    C    0.91210   0.21200   0.16100   1.000
    H599    H    0.89590   0.25350   0.17810   1.000
    H600    H    0.90770   0.25290   0.13820   1.000
    H601    H    0.85890   0.05300   0.19310   1.000
    H602    H    0.89390   0.97210   0.20040   1.000
    C679    C    0.79200   0.61800   0.08500   1.000
    H603    H    0.10220   0.33970   0.10600   1.000
    H604    H    0.07630   0.39030   0.13690   1.000
    C680    C    0.12480   0.52800   0.11970   1.000
    H605    H    0.12290   0.50940   0.14500   1.000
    H606    H    0.14270   0.47160   0.10880   1.000
    H607    H    0.12840   0.70530   0.08770   1.000
    H608    H    0.16010   0.69930   0.11650   1.000
