# CIF file generated by openbabel 2.4.1, see http://openbabel.sf.net
data_I
_chemical_name_common 'image0'
_cell_length_a 14.685
_cell_length_b 14.685
_cell_length_c 8.9274
_cell_angle_alpha 90
_cell_angle_beta 90
_cell_angle_gamma 90
_space_group_name_H-M_alt 'P 1'
_space_group_name_Hall 'P 1'
loop_
    _symmetry_equiv_pos_as_xyz
    x,y,z
loop_
    _atom_site_label
    _atom_site_type_symbol
    _atom_site_fract_x
    _atom_site_fract_y
    _atom_site_fract_z
    _atom_site_occupancy
    Zn1     Zn   0.13179   0.01115   0.73908   1.000
    Zn2     Zn   0.00156   0.36891   0.55399   1.000
    P1      P    0.35370   0.00000   0.69520   1.000
    P2      P    0.98660   0.14700   0.59690   1.000
    O1      O    0.07770   0.09640   0.60310   1.000
    O2      O    0.94620   0.13920   0.44280   1.000
    O3      O    0.92290   0.10580   0.71330   1.000
    O4      O    0.11210   0.07670   0.21590   1.000
    O5      O    0.00360   0.24570   0.63610   1.000
    O6      O    0.25000   0.00830   0.64520   1.000
    O7      O    0.35900   0.94830   0.84600   1.000
    O8      O    0.36890   0.05100   0.85620   1.000
    O9      O    0.39950   0.08340   0.68600   1.000
    O10     O    0.39730   0.07430   0.57900   1.000
    O11     O    0.38730   0.91190   0.67200   1.000
    O12     O    0.38700   0.92020   0.58000   1.000
    Zn3     Zn   0.86821   0.98885   0.73908   1.000
    Zn4     Zn   0.99844   0.63109   0.55399   1.000
    P3      P    0.64630   0.00000   0.69520   1.000
    P4      P    0.01340   0.85300   0.59690   1.000
    O13     O    0.92230   0.90360   0.60310   1.000
    O14     O    0.05380   0.86080   0.44280   1.000
    O15     O    0.07710   0.89420   0.71330   1.000
    O16     O    0.88790   0.92330   0.21590   1.000
    O17     O    0.99640   0.75430   0.63610   1.000
    O18     O    0.75000   0.99170   0.64520   1.000
    O19     O    0.64100   0.05170   0.84600   1.000
    O20     O    0.63110   0.94900   0.85620   1.000
    O21     O    0.60050   0.91660   0.68600   1.000
    O22     O    0.60270   0.92570   0.57900   1.000
    O23     O    0.61270   0.08810   0.67200   1.000
    O24     O    0.61300   0.07980   0.58000   1.000
    Zn5     Zn   0.98885   0.13179   0.23908   1.000
    Zn6     Zn   0.63109   0.00156   0.05399   1.000
    P5      P    0.00000   0.35370   0.19520   1.000
    P6      P    0.85300   0.98660   0.09690   1.000
    O25     O    0.90360   0.07770   0.10310   1.000
    O26     O    0.86080   0.94620   0.94280   1.000
    O27     O    0.89420   0.92290   0.21330   1.000
    O28     O    0.92330   0.11210   0.71590   1.000
    O29     O    0.75430   0.00360   0.13610   1.000
    O30     O    0.99170   0.25000   0.14520   1.000
    O31     O    0.05170   0.35900   0.34600   1.000
    O32     O    0.94900   0.36890   0.35620   1.000
    O33     O    0.91660   0.39950   0.18600   1.000
    O34     O    0.92570   0.39730   0.07900   1.000
    O35     O    0.08810   0.38730   0.17200   1.000
    O36     O    0.07980   0.38700   0.08000   1.000
    Zn7     Zn   0.01115   0.86821   0.23908   1.000
    Zn8     Zn   0.36891   0.99844   0.05399   1.000
    P7      P    0.00000   0.64630   0.19520   1.000
    P8      P    0.14700   0.01340   0.09690   1.000
    O37     O    0.09640   0.92230   0.10310   1.000
    O38     O    0.13920   0.05380   0.94280   1.000
    O39     O    0.10580   0.07710   0.21330   1.000
    O40     O    0.07670   0.88790   0.71590   1.000
    O41     O    0.24570   0.99640   0.13610   1.000
    O42     O    0.00830   0.75000   0.14520   1.000
    O43     O    0.94830   0.64100   0.34600   1.000
    O44     O    0.05100   0.63110   0.35620   1.000
    O45     O    0.08340   0.60050   0.18600   1.000
    O46     O    0.07430   0.60270   0.07900   1.000
    O47     O    0.91190   0.61270   0.17200   1.000
    O48     O    0.92020   0.61300   0.08000   1.000
    Zn9     Zn   0.63179   0.48885   0.73908   1.000
    Zn10    Zn   0.50156   0.13109   0.55399   1.000
    P9      P    0.85370   0.50000   0.69520   1.000
    P10     P    0.48660   0.35300   0.59690   1.000
    O49     O    0.57770   0.40360   0.60310   1.000
    O50     O    0.44620   0.36080   0.44280   1.000
    O51     O    0.42290   0.39420   0.71330   1.000
    O52     O    0.61210   0.42330   0.21590   1.000
    O53     O    0.50360   0.25430   0.63610   1.000
    O54     O    0.75000   0.49170   0.64520   1.000
    O55     O    0.85900   0.55170   0.84600   1.000
    O56     O    0.86890   0.44900   0.85620   1.000
    O57     O    0.89950   0.41660   0.68600   1.000
    O58     O    0.89730   0.42570   0.57900   1.000
    O59     O    0.88730   0.58810   0.67200   1.000
    O60     O    0.88700   0.57980   0.58000   1.000
    Zn11    Zn   0.36821   0.51115   0.73908   1.000
    Zn12    Zn   0.49844   0.86891   0.55399   1.000
    P11     P    0.14630   0.50000   0.69520   1.000
    P12     P    0.51340   0.64700   0.59690   1.000
    O61     O    0.42230   0.59640   0.60310   1.000
    O62     O    0.55380   0.63920   0.44280   1.000
    O63     O    0.57710   0.60580   0.71330   1.000
    O64     O    0.38790   0.57670   0.21590   1.000
    O65     O    0.49640   0.74570   0.63610   1.000
    O66     O    0.25000   0.50830   0.64520   1.000
    O67     O    0.14100   0.44830   0.84600   1.000
    O68     O    0.13110   0.55100   0.85620   1.000
    O69     O    0.10050   0.58340   0.68600   1.000
    O70     O    0.10270   0.57430   0.57900   1.000
    O71     O    0.11270   0.41190   0.67200   1.000
    O72     O    0.11300   0.42020   0.58000   1.000
    Zn13    Zn   0.48885   0.36821   0.23908   1.000
    Zn14    Zn   0.13109   0.49844   0.05399   1.000
    P13     P    0.50000   0.14630   0.19520   1.000
    P14     P    0.35300   0.51340   0.09690   1.000
    O73     O    0.40360   0.42230   0.10310   1.000
    O74     O    0.36080   0.55380   0.94280   1.000
    O75     O    0.39420   0.57710   0.21330   1.000
    O76     O    0.42330   0.38790   0.71590   1.000
    O77     O    0.25430   0.49640   0.13610   1.000
    O78     O    0.49170   0.25000   0.14520   1.000
    O79     O    0.55170   0.14100   0.34600   1.000
    O80     O    0.44900   0.13110   0.35620   1.000
    O81     O    0.41660   0.10050   0.18600   1.000
    O82     O    0.42570   0.10270   0.07900   1.000
    O83     O    0.58810   0.11270   0.17200   1.000
    O84     O    0.57980   0.11300   0.08000   1.000
    Zn15    Zn   0.51115   0.63179   0.23908   1.000
    Zn16    Zn   0.86891   0.50156   0.05399   1.000
    P15     P    0.50000   0.85370   0.19520   1.000
    P16     P    0.64700   0.48660   0.09690   1.000
    O85     O    0.59640   0.57770   0.10310   1.000
    O86     O    0.63920   0.44620   0.94280   1.000
    O87     O    0.60580   0.42290   0.21330   1.000
    O88     O    0.57670   0.61210   0.71590   1.000
    O89     O    0.74570   0.50360   0.13610   1.000
    O90     O    0.50830   0.75000   0.14520   1.000
    O91     O    0.44830   0.85900   0.34600   1.000
    O92     O    0.55100   0.86890   0.35620   1.000
    O93     O    0.58340   0.89950   0.18600   1.000
    O94     O    0.57430   0.89730   0.07900   1.000
    O95     O    0.41190   0.88730   0.17200   1.000
    O96     O    0.42020   0.88700   0.08000   1.000
