# CIF file generated by openbabel 2.4.1, see http://openbabel.sf.net
data_I
_chemical_name_common 'image0'
_cell_length_a 13.4938
_cell_length_b 8.7231
_cell_length_c 22.5819
_cell_angle_alpha 90
_cell_angle_beta 95.3654
_cell_angle_gamma 90
_space_group_name_H-M_alt 'P 1'
_space_group_name_Hall 'P 1'
loop_
    _symmetry_equiv_pos_as_xyz
    x,y,z
loop_
    _atom_site_label
    _atom_site_type_symbol
    _atom_site_fract_x
    _atom_site_fract_y
    _atom_site_fract_z
    _atom_site_occupancy
    C1      C    0.98217   0.59639   0.29104   1.000
    H1      H    0.94570   0.66940   0.26660   1.000
    C2      C    0.08485   0.59166   0.29026   1.000
    H2      H    0.11820   0.65960   0.26590   1.000
    C3      C    0.13745   0.48387   0.32637   1.000
    C4      C    0.08678   0.38939   0.36279   1.000
    H3      H    0.12160   0.31810   0.38880   1.000
    C5      C    0.98406   0.40173   0.36020   1.000
    H4      H    0.94900   0.33610   0.38450   1.000
    C6      C    0.38822   0.49008   0.29133   1.000
    C7      C    0.43942   0.54205   0.24445   1.000
    H5      H    0.40470   0.58590   0.21000   1.000
    C8      C    0.54241   0.52824   0.24925   1.000
    H6      H    0.57760   0.56350   0.21740   1.000
    C9      C    0.54340   0.41177   0.34101   1.000
    H7      H    0.57960   0.36440   0.37420   1.000
    C10     C    0.44088   0.42065   0.34009   1.000
    H8      H    0.40740   0.38050   0.37180   1.000
    C11     C    0.76926   0.35949   0.18594   1.000
    C12     C    0.79965   0.38094   0.12332   1.000
    H9      H    0.78900   0.28370   0.10100   1.000
    H10     H    0.75690   0.46030   0.10260   1.000
    C13     C    0.90768   0.42831   0.12349   1.000
    C14     C    0.93803   0.53297   0.08222   1.000
    H11     H    0.88980   0.58060   0.05490   1.000
    C15     C    0.03830   0.56827   0.08072   1.000
    H12     H    0.05760   0.63940   0.05210   1.000
    C16     C    0.11096   0.50128   0.12042   1.000
    C17     C    0.08071   0.39692   0.16166   1.000
    H13     H    0.12890   0.34950   0.18910   1.000
    C18     C    0.98045   0.36146   0.16305   1.000
    H14     H    0.96120   0.29010   0.19160   1.000
    C19     C    0.21978   0.54021   0.11805   1.000
    H15     H    0.22920   0.65230   0.12270   1.000
    H16     H    0.25980   0.48900   0.15130   1.000
    C20     C    0.25533   0.48928   0.05978   1.000
    C21     C    0.75460   0.43378   0.45364   1.000
    C22     C    0.71780   0.50661   0.50921   1.000
    H17     H    0.74520   0.44980   0.54500   1.000
    H18     H    0.74130   0.61400   0.51300   1.000
    C23     C    0.60526   0.50295   0.50493   1.000
    C24     C    0.54951   0.62107   0.47661   1.000
    H19     H    0.58290   0.70480   0.46030   1.000
    C25     C    0.44597   0.61880   0.47173   1.000
    H20     H    0.40980   0.70080   0.45230   1.000
    Mn1     Mn   0.76268   0.48804   0.31346   1.000
    N1      N    0.93202   0.50252   0.32474   1.000
    N2      N    0.24253   0.46082   0.32931   1.000
    N3      N    0.28271   0.51459   0.28620   1.000
    N4      N    0.59431   0.46695   0.29721   1.000
    O1      O    0.77262   0.47789   0.21897   1.000
    O2      O    0.74330   0.23084   0.20314   1.000
    O3      O    0.26899   0.57585   0.01955   1.000
    O4      O    0.26557   0.33858   0.05726   1.000
    H21     H    0.27270   0.31300   0.02100   1.000
    O5      O    0.75523   0.51772   0.40846   1.000
    O6      O    0.77905   0.29361   0.45515   1.000
    H22     H    0.25450   0.54490   0.15860   1.000
    H23     H    0.22730   0.64020   0.09820   1.000
    C26     C    0.26140   0.41090   0.08240   1.000
    O7      O    0.29610   0.29830   0.10730   1.000
    O8      O    0.25190   0.43060   0.02370   1.000
    H24     H    0.27620   0.31140   0.02120   1.000
    C27     C    0.51783   0.09639   0.20896   1.000
    H25     H    0.55430   0.16940   0.23340   1.000
    C28     C    0.41515   0.09166   0.20974   1.000
    H26     H    0.38180   0.15960   0.23410   1.000
    C29     C    0.36255   0.98387   0.17363   1.000
    C30     C    0.41322   0.88939   0.13721   1.000
    H27     H    0.37840   0.81810   0.11120   1.000
    C31     C    0.51594   0.90173   0.13980   1.000
    H28     H    0.55100   0.83610   0.11550   1.000
    C32     C    0.11178   0.99008   0.20867   1.000
    C33     C    0.06058   0.04205   0.25555   1.000
    H29     H    0.09530   0.08590   0.29000   1.000
    C34     C    0.95759   0.02824   0.25075   1.000
    H30     H    0.92240   0.06350   0.28260   1.000
    C35     C    0.95660   0.91177   0.15899   1.000
    H31     H    0.92040   0.86440   0.12580   1.000
    C36     C    0.05912   0.92065   0.15991   1.000
    H32     H    0.09260   0.88050   0.12820   1.000
    C37     C    0.73074   0.85949   0.31406   1.000
    C38     C    0.70035   0.88094   0.37668   1.000
    H33     H    0.71100   0.78370   0.39900   1.000
    H34     H    0.74310   0.96030   0.39740   1.000
    C39     C    0.59232   0.92831   0.37651   1.000
    C40     C    0.56197   0.03297   0.41778   1.000
    H35     H    0.61020   0.08060   0.44510   1.000
    C41     C    0.46170   0.06827   0.41928   1.000
    H36     H    0.44240   0.13940   0.44790   1.000
    C42     C    0.38904   0.00128   0.37958   1.000
    C43     C    0.41929   0.89692   0.33834   1.000
    H37     H    0.37110   0.84950   0.31090   1.000
    C44     C    0.51955   0.86146   0.33695   1.000
    H38     H    0.53880   0.79010   0.30840   1.000
    C45     C    0.28022   0.04021   0.38195   1.000
    H39     H    0.27080   0.15230   0.37730   1.000
    H40     H    0.24020   0.98900   0.34870   1.000
    C46     C    0.24467   0.98928   0.44022   1.000
    C47     C    0.74540   0.93378   0.04636   1.000
    C48     C    0.78220   0.00661   0.99079   1.000
    H41     H    0.75480   0.94980   0.95500   1.000
    H42     H    0.75870   0.11400   0.98700   1.000
    C49     C    0.89474   0.00295   0.99507   1.000
    C50     C    0.95049   0.12107   0.02339   1.000
    H43     H    0.91710   0.20480   0.03970   1.000
    C51     C    0.05403   0.11880   0.02827   1.000
    H44     H    0.09020   0.20080   0.04770   1.000
    Mn2     Mn   0.73732   0.98804   0.18654   1.000
    N5      N    0.56798   0.00252   0.17526   1.000
    N6      N    0.25747   0.96082   0.17069   1.000
    N7      N    0.21729   0.01459   0.21380   1.000
    N8      N    0.90569   0.96695   0.20279   1.000
    O9      O    0.72738   0.97789   0.28103   1.000
    O10     O    0.75670   0.73084   0.29686   1.000
    O11     O    0.23101   0.07585   0.48045   1.000
    O12     O    0.23443   0.83858   0.44274   1.000
    H45     H    0.22730   0.81300   0.47900   1.000
    O13     O    0.74477   0.01772   0.09154   1.000
    O14     O    0.72095   0.79361   0.04485   1.000
    H46     H    0.24550   0.04490   0.34140   1.000
    H47     H    0.27270   0.14020   0.40180   1.000
    C52     C    0.23860   0.91090   0.41760   1.000
    O15     O    0.20390   0.79830   0.39270   1.000
    O16     O    0.24810   0.93060   0.47630   1.000
    H48     H    0.22380   0.81140   0.47880   1.000
    C53     C    0.01783   0.40361   0.70896   1.000
    H49     H    0.05430   0.33060   0.73340   1.000
    C54     C    0.91515   0.40834   0.70974   1.000
    H50     H    0.88180   0.34040   0.73410   1.000
    C55     C    0.86255   0.51613   0.67363   1.000
    C56     C    0.91322   0.61061   0.63721   1.000
    H51     H    0.87840   0.68190   0.61120   1.000
    C57     C    0.01594   0.59827   0.63980   1.000
    H52     H    0.05100   0.66390   0.61550   1.000
    C58     C    0.61178   0.50992   0.70867   1.000
    C59     C    0.56058   0.45795   0.75555   1.000
    H53     H    0.59530   0.41410   0.79000   1.000
    C60     C    0.45759   0.47176   0.75075   1.000
    H54     H    0.42240   0.43650   0.78260   1.000
    C61     C    0.45660   0.58823   0.65899   1.000
    H55     H    0.42040   0.63560   0.62580   1.000
    C62     C    0.55912   0.57935   0.65991   1.000
    H56     H    0.59260   0.61950   0.62820   1.000
    C63     C    0.23074   0.64051   0.81406   1.000
    C64     C    0.20035   0.61906   0.87668   1.000
    H57     H    0.21100   0.71630   0.89900   1.000
    H58     H    0.24310   0.53970   0.89740   1.000
    C65     C    0.09232   0.57169   0.87651   1.000
    C66     C    0.06197   0.46703   0.91778   1.000
    H59     H    0.11020   0.41940   0.94510   1.000
    C67     C    0.96170   0.43173   0.91928   1.000
    H60     H    0.94240   0.36060   0.94790   1.000
    C68     C    0.88904   0.49872   0.87958   1.000
    C69     C    0.91929   0.60308   0.83834   1.000
    H61     H    0.87110   0.65050   0.81090   1.000
    C70     C    0.01955   0.63854   0.83695   1.000
    H62     H    0.03880   0.70990   0.80840   1.000
    C71     C    0.78022   0.45979   0.88195   1.000
    H63     H    0.77080   0.34770   0.87730   1.000
    H64     H    0.74020   0.51100   0.84870   1.000
    C72     C    0.74467   0.51072   0.94022   1.000
    C73     C    0.24540   0.56622   0.54636   1.000
    C74     C    0.28220   0.49339   0.49079   1.000
    H65     H    0.25480   0.55020   0.45500   1.000
    H66     H    0.25870   0.38600   0.48700   1.000
    C75     C    0.39474   0.49705   0.49507   1.000
    C76     C    0.45049   0.37893   0.52339   1.000
    H67     H    0.41710   0.29520   0.53970   1.000
    C77     C    0.55403   0.38120   0.52827   1.000
    H68     H    0.59020   0.29920   0.54770   1.000
    Mn3     Mn   0.23732   0.51196   0.68654   1.000
    N9      N    0.06798   0.49748   0.67526   1.000
    N10     N    0.75747   0.53918   0.67069   1.000
    N11     N    0.71729   0.48541   0.71380   1.000
    N12     N    0.40569   0.53305   0.70279   1.000
    O17     O    0.22738   0.52211   0.78103   1.000
    O18     O    0.25670   0.76916   0.79686   1.000
    O19     O    0.73101   0.42415   0.98045   1.000
    O20     O    0.73443   0.66142   0.94274   1.000
    H69     H    0.72730   0.68700   0.97900   1.000
    O21     O    0.24477   0.48228   0.59154   1.000
    O22     O    0.22095   0.70639   0.54485   1.000
    H70     H    0.74550   0.45510   0.84140   1.000
    H71     H    0.77270   0.35980   0.90180   1.000
    C78     C    0.73860   0.58910   0.91760   1.000
    O23     O    0.70390   0.70170   0.89270   1.000
    O24     O    0.74810   0.56940   0.97630   1.000
    H72     H    0.72380   0.68860   0.97880   1.000
    C79     C    0.48217   0.90361   0.79104   1.000
    H73     H    0.44570   0.83060   0.76660   1.000
    C80     C    0.58485   0.90834   0.79026   1.000
    H74     H    0.61820   0.84040   0.76590   1.000
    C81     C    0.63745   0.01613   0.82637   1.000
    C82     C    0.58678   0.11061   0.86279   1.000
    H75     H    0.62160   0.18190   0.88880   1.000
    C83     C    0.48406   0.09827   0.86020   1.000
    H76     H    0.44900   0.16390   0.88450   1.000
    C84     C    0.88822   0.00992   0.79133   1.000
    C85     C    0.93942   0.95795   0.74445   1.000
    H77     H    0.90470   0.91410   0.71000   1.000
    C86     C    0.04241   0.97176   0.74925   1.000
    H78     H    0.07760   0.93650   0.71740   1.000
    C87     C    0.04340   0.08823   0.84101   1.000
    H79     H    0.07960   0.13560   0.87420   1.000
    C88     C    0.94088   0.07935   0.84009   1.000
    H80     H    0.90740   0.11950   0.87180   1.000
    C89     C    0.26926   0.14051   0.68594   1.000
    C90     C    0.29965   0.11906   0.62332   1.000
    H81     H    0.28900   0.21630   0.60100   1.000
    H82     H    0.25690   0.03970   0.60260   1.000
    C91     C    0.40768   0.07169   0.62349   1.000
    C92     C    0.43803   0.96703   0.58222   1.000
    H83     H    0.38980   0.91940   0.55490   1.000
    C93     C    0.53830   0.93173   0.58072   1.000
    H84     H    0.55760   0.86060   0.55210   1.000
    C94     C    0.61096   0.99872   0.62042   1.000
    C95     C    0.58071   0.10308   0.66166   1.000
    H85     H    0.62890   0.15050   0.68910   1.000
    C96     C    0.48045   0.13854   0.66305   1.000
    H86     H    0.46120   0.20990   0.69160   1.000
    C97     C    0.71978   0.95979   0.61805   1.000
    H87     H    0.72920   0.84770   0.62270   1.000
    H88     H    0.75980   0.01100   0.65130   1.000
    C98     C    0.75533   0.01072   0.55978   1.000
    C99     C    0.25460   0.06622   0.95364   1.000
    C100    C    0.21780   0.99339   0.00921   1.000
    H89     H    0.24520   0.05020   0.04500   1.000
    H90     H    0.24130   0.88600   0.01300   1.000
    C101    C    0.10526   0.99705   0.00493   1.000
    C102    C    0.04951   0.87893   0.97661   1.000
    H91     H    0.08290   0.79520   0.96030   1.000
    C103    C    0.94597   0.88120   0.97173   1.000
    H92     H    0.90980   0.79920   0.95230   1.000
    Mn4     Mn   0.26268   0.01196   0.81346   1.000
    N13     N    0.43202   0.99748   0.82474   1.000
    N14     N    0.74253   0.03918   0.82931   1.000
    N15     N    0.78271   0.98541   0.78620   1.000
    N16     N    0.09431   0.03305   0.79721   1.000
    O25     O    0.27262   0.02211   0.71897   1.000
    O26     O    0.24330   0.26916   0.70314   1.000
    O27     O    0.76899   0.92415   0.51955   1.000
    O28     O    0.76557   0.16142   0.55726   1.000
    H93     H    0.77270   0.18700   0.52100   1.000
    O29     O    0.25523   0.98228   0.90846   1.000
    O30     O    0.27905   0.20639   0.95515   1.000
    H94     H    0.75450   0.95510   0.65860   1.000
    H95     H    0.72730   0.85980   0.59820   1.000
    C104    C    0.76140   0.08910   0.58240   1.000
    O31     O    0.79610   0.20170   0.60730   1.000
    O32     O    0.75190   0.06940   0.52370   1.000
    H96     H    0.77620   0.18860   0.52120   1.000
