# CIF file generated by openbabel 2.4.1, see http://openbabel.sf.net
data_I
_chemical_name_common 'image0'
_cell_length_a 29.9342
_cell_length_b 21.16
_cell_length_c 19.5148
_cell_angle_alpha 90
_cell_angle_beta 93.935
_cell_angle_gamma 90
_space_group_name_H-M_alt 'P 1'
_space_group_name_Hall 'P 1'
loop_
    _symmetry_equiv_pos_as_xyz
    x,y,z
loop_
    _atom_site_label
    _atom_site_type_symbol
    _atom_site_fract_x
    _atom_site_fract_y
    _atom_site_fract_z
    _atom_site_occupancy
    Tb1     Tb   0.22368   0.17422   0.44180   1.000
    Tb2     Tb   0.31885   0.83086   0.53757   1.000
    O1      O    0.22008   0.06790   0.48690   1.000
    O2      O    0.15986   0.10070   0.42790   1.000
    O3      O    0.24251   0.83890   0.53210   1.000
    O4      O    0.18995   0.77110   0.49820   1.000
    O5      O    0.87258   0.72300   0.11980   1.000
    O6      O    0.80436   0.70790   0.14960   1.000
    O7      O    0.81163   0.80930   0.45510   1.000
    O8      O    0.76859   0.74540   0.38710   1.000
    O9      O    0.34600   0.91090   0.61430   1.000
    O10     O    0.31290   0.94480   0.52200   1.000
    O11     O    0.28407   0.18580   0.52010   1.000
    O12     O    0.32892   0.24480   0.58750   1.000
    O13     O    0.38670   0.84160   0.48860   1.000
    O14     O    0.28140   0.10860   0.40050   1.000
    C1      C    0.18240   0.05720   0.45660   1.000
    C2      C    0.16570   0.99080   0.45380   1.000
    C3      C    0.12340   0.97780   0.42310   1.000
    H1      H    0.10560   0.01070   0.40530   1.000
    C4      C    0.10760   0.91660   0.41890   1.000
    C5      C    0.13440   0.86720   0.44630   1.000
    H2      H    0.12370   0.82590   0.44400   1.000
    C6      C    0.17640   0.87910   0.47650   1.000
    C7      C    0.19210   0.94130   0.48100   1.000
    H3      H    0.22020   0.94980   0.50220   1.000
    C8      C    0.20500   0.82590   0.50420   1.000
    C9      C    0.06380   0.90170   0.38810   1.000
    C10     C    0.02790   0.88450   0.36420   1.000
    C11     C    0.98640   0.86370   0.34130   1.000
    C12     C    0.95000   0.84320   0.32320   1.000
    C13     C    0.90710   0.81480   0.30670   1.000
    C14     C    0.89600   0.78710   0.24410   1.000
    H4      H    0.91630   0.78820   0.21010   1.000
    C15     C    0.85530   0.75800   0.23100   1.000
    C16     C    0.82510   0.75590   0.28140   1.000
    H5      H    0.79760   0.73600   0.27250   1.000
    C17     C    0.83540   0.78330   0.34540   1.000
    C18     C    0.87610   0.81240   0.35890   1.000
    H6      H    0.88330   0.83050   0.40170   1.000
    C19     C    0.84320   0.72740   0.16270   1.000
    C20     C    0.80290   0.77930   0.39990   1.000
    C21     C    0.33670   0.95640   0.57530   1.000
    C22     C    0.35160   0.02150   0.59350   1.000
    C23     C    0.39050   0.02970   0.63570   1.000
    H7      H    0.40630   0.99460   0.65310   1.000
    C24     C    0.40590   0.09080   0.65210   1.000
    C25     C    0.38170   0.14290   0.62750   1.000
    H8      H    0.39180   0.18350   0.63860   1.000
    C26     C    0.34270   0.13490   0.58680   1.000
    C27     C    0.32760   0.07430   0.56950   1.000
    H9      H    0.30140   0.06910   0.54170   1.000
    C28     C    0.31680   0.19220   0.56300   1.000
    C29     C    0.44570   0.09720   0.69660   1.000
    C30     C    0.48020   0.09930   0.73040   1.000
    C31     C    0.42430   0.81870   0.50730   1.000
    H10     H    0.42780   0.80210   0.55150   1.000
    C32     C    0.45240   0.83810   0.39840   1.000
    H11     H    0.43440   0.87560   0.39750   1.000
    H12     H    0.43720   0.80580   0.37120   1.000
    H13     H    0.48070   0.84720   0.38000   1.000
    C33     C    0.49980   0.78270   0.49400   1.000
    H14     H    0.49820   0.77320   0.54190   1.000
    H15     H    0.52560   0.80850   0.48800   1.000
    H16     H    0.50220   0.74400   0.46870   1.000
    C34     C    0.29750   0.10040   0.34400   1.000
    H17     H    0.29130   0.12920   0.30860   1.000
    C35     C    0.35410   0.06440   0.27690   1.000
    H18     H    0.33680   0.06500   0.23370   1.000
    H19     H    0.37700   0.03270   0.27580   1.000
    H20     H    0.36770   0.10500   0.28520   1.000
    C36     C    0.35640   0.05040   0.39740   1.000
    H21     H    0.34050   0.04010   0.43700   1.000
    H22     H    0.36930   0.09180   0.40300   1.000
    H23     H    0.37970   0.01990   0.39250   1.000
    N1      N    0.46000   0.81600   0.46910   1.000
    N2      N    0.32410   0.04940   0.33350   1.000
    O15     O    0.36560   0.91280   0.59300   1.000
    O16     O    0.30160   0.94700   0.54300   1.000
    O17     O    0.38180   0.81670   0.47750   1.000
    O18     O    0.27490   0.11050   0.38230   1.000
    C37     C    0.33840   0.95570   0.57510   1.000
    C38     C    0.40830   0.86270   0.48850   1.000
    H24     H    0.40290   0.89620   0.51760   1.000
    C39     C    0.44010   0.79510   0.41650   1.000
    H25     H    0.46270   0.79000   0.38430   1.000
    H26     H    0.41100   0.79370   0.39260   1.000
    H27     H    0.44270   0.76160   0.44980   1.000
    C40     C    0.48500   0.87710   0.46440   1.000
    H28     H    0.48500   0.91140   0.49660   1.000
    H29     H    0.49670   0.89150   0.42250   1.000
    H30     H    0.50350   0.84350   0.48350   1.000
    C41     C    0.30510   0.07080   0.38940   1.000
    H31     H    0.30380   0.04120   0.42450   1.000
    C42     C    0.32360   0.08080   0.27620   1.000
    H32     H    0.31140   0.12270   0.27300   1.000
    H33     H    0.30070   0.05070   0.26230   1.000
    H34     H    0.34790   0.07730   0.24670   1.000
    C43     C    0.36130   0.00390   0.35290   1.000
    H35     H    0.37310   0.99650   0.39920   1.000
    H36     H    0.38510   0.00170   0.32240   1.000
    H37     H    0.33920   0.97250   0.34020   1.000
    N3      N    0.44630   0.85760   0.45230   1.000
    N4      N    0.34030   0.06790   0.34820   1.000
    Tb3     Tb   0.72368   0.67422   0.44180   1.000
    Tb4     Tb   0.81885   0.33086   0.53757   1.000
    O19     O    0.72008   0.56790   0.48690   1.000
    O20     O    0.65986   0.60070   0.42790   1.000
    O21     O    0.74251   0.33890   0.53210   1.000
    O22     O    0.68995   0.27110   0.49820   1.000
    O23     O    0.37258   0.22300   0.11980   1.000
    O24     O    0.30436   0.20790   0.14960   1.000
    O25     O    0.31163   0.30930   0.45510   1.000
    O26     O    0.26859   0.24540   0.38710   1.000
    O27     O    0.84600   0.41090   0.61430   1.000
    O28     O    0.81290   0.44480   0.52200   1.000
    O29     O    0.78407   0.68580   0.52010   1.000
    O30     O    0.82892   0.74480   0.58750   1.000
    O31     O    0.88670   0.34160   0.48860   1.000
    O32     O    0.78140   0.60860   0.40050   1.000
    C44     C    0.68240   0.55720   0.45660   1.000
    C45     C    0.66570   0.49080   0.45380   1.000
    C46     C    0.62340   0.47780   0.42310   1.000
    H38     H    0.60560   0.51070   0.40530   1.000
    C47     C    0.60760   0.41660   0.41890   1.000
    C48     C    0.63440   0.36720   0.44630   1.000
    H39     H    0.62370   0.32590   0.44400   1.000
    C49     C    0.67640   0.37910   0.47650   1.000
    C50     C    0.69210   0.44130   0.48100   1.000
    H40     H    0.72020   0.44980   0.50220   1.000
    C51     C    0.70500   0.32590   0.50420   1.000
    C52     C    0.56380   0.40170   0.38810   1.000
    C53     C    0.52790   0.38450   0.36420   1.000
    C54     C    0.48640   0.36370   0.34130   1.000
    C55     C    0.45000   0.34320   0.32320   1.000
    C56     C    0.40710   0.31480   0.30670   1.000
    C57     C    0.39600   0.28710   0.24410   1.000
    H41     H    0.41630   0.28820   0.21010   1.000
    C58     C    0.35530   0.25800   0.23100   1.000
    C59     C    0.32510   0.25590   0.28140   1.000
    H42     H    0.29760   0.23600   0.27250   1.000
    C60     C    0.33540   0.28330   0.34540   1.000
    C61     C    0.37610   0.31240   0.35890   1.000
    H43     H    0.38330   0.33050   0.40170   1.000
    C62     C    0.34320   0.22740   0.16270   1.000
    C63     C    0.30290   0.27930   0.39990   1.000
    C64     C    0.83670   0.45640   0.57530   1.000
    C65     C    0.85160   0.52150   0.59350   1.000
    C66     C    0.89050   0.52970   0.63570   1.000
    H44     H    0.90630   0.49460   0.65310   1.000
    C67     C    0.90590   0.59080   0.65210   1.000
    C68     C    0.88170   0.64290   0.62750   1.000
    H45     H    0.89180   0.68350   0.63860   1.000
    C69     C    0.84270   0.63490   0.58680   1.000
    C70     C    0.82760   0.57430   0.56950   1.000
    H46     H    0.80140   0.56910   0.54170   1.000
    C71     C    0.81680   0.69220   0.56300   1.000
    C72     C    0.94570   0.59720   0.69660   1.000
    C73     C    0.98020   0.59930   0.73040   1.000
    C74     C    0.92430   0.31870   0.50730   1.000
    H47     H    0.92780   0.30210   0.55150   1.000
    C75     C    0.95240   0.33810   0.39840   1.000
    H48     H    0.93440   0.37560   0.39750   1.000
    H49     H    0.93720   0.30580   0.37120   1.000
    H50     H    0.98070   0.34720   0.38000   1.000
    C76     C    0.99980   0.28270   0.49400   1.000
    H51     H    0.99820   0.27320   0.54190   1.000
    H52     H    0.02560   0.30850   0.48800   1.000
    H53     H    0.00220   0.24400   0.46870   1.000
    C77     C    0.79750   0.60040   0.34400   1.000
    H54     H    0.79130   0.62920   0.30860   1.000
    C78     C    0.85410   0.56440   0.27690   1.000
    H55     H    0.83680   0.56500   0.23370   1.000
    H56     H    0.87700   0.53270   0.27580   1.000
    H57     H    0.86770   0.60500   0.28520   1.000
    C79     C    0.85640   0.55040   0.39740   1.000
    H58     H    0.84050   0.54010   0.43700   1.000
    H59     H    0.86930   0.59180   0.40300   1.000
    H60     H    0.87970   0.51990   0.39250   1.000
    N5      N    0.96000   0.31600   0.46910   1.000
    N6      N    0.82410   0.54940   0.33350   1.000
    O33     O    0.86560   0.41280   0.59300   1.000
    O34     O    0.80160   0.44700   0.54300   1.000
    O35     O    0.88180   0.31670   0.47750   1.000
    O36     O    0.77490   0.61050   0.38230   1.000
    C80     C    0.83840   0.45570   0.57510   1.000
    C81     C    0.90830   0.36270   0.48850   1.000
    H61     H    0.90290   0.39620   0.51760   1.000
    C82     C    0.94010   0.29510   0.41650   1.000
    H62     H    0.96270   0.29000   0.38430   1.000
    H63     H    0.91100   0.29370   0.39260   1.000
    H64     H    0.94270   0.26160   0.44980   1.000
    C83     C    0.98500   0.37710   0.46440   1.000
    H65     H    0.98500   0.41140   0.49660   1.000
    H66     H    0.99670   0.39150   0.42250   1.000
    H67     H    0.00350   0.34350   0.48350   1.000
    C84     C    0.80510   0.57080   0.38940   1.000
    H68     H    0.80380   0.54120   0.42450   1.000
    C85     C    0.82360   0.58080   0.27620   1.000
    H69     H    0.81140   0.62270   0.27300   1.000
    H70     H    0.80070   0.55070   0.26230   1.000
    H71     H    0.84790   0.57730   0.24670   1.000
    C86     C    0.86130   0.50390   0.35290   1.000
    H72     H    0.87310   0.49650   0.39920   1.000
    H73     H    0.88510   0.50170   0.32240   1.000
    H74     H    0.83920   0.47250   0.34020   1.000
    N7      N    0.94630   0.35760   0.45230   1.000
    N8      N    0.84030   0.56790   0.34820   1.000
    Tb5     Tb   0.77632   0.17422   0.05820   1.000
    Tb6     Tb   0.68115   0.83086   0.96243   1.000
    O37     O    0.77992   0.06790   0.01310   1.000
    O38     O    0.84014   0.10070   0.07210   1.000
    O39     O    0.75749   0.83890   0.96790   1.000
    O40     O    0.81005   0.77110   0.00180   1.000
    O41     O    0.12742   0.72300   0.38020   1.000
    O42     O    0.19564   0.70790   0.35040   1.000
    O43     O    0.18837   0.80930   0.04490   1.000
    O44     O    0.23141   0.74540   0.11290   1.000
    O45     O    0.65400   0.91090   0.88570   1.000
    O46     O    0.68710   0.94480   0.97800   1.000
    O47     O    0.71593   0.18580   0.97990   1.000
    O48     O    0.67108   0.24480   0.91250   1.000
    O49     O    0.61330   0.84160   0.01140   1.000
    O50     O    0.71860   0.10860   0.09950   1.000
    C87     C    0.81760   0.05720   0.04340   1.000
    C88     C    0.83430   0.99080   0.04620   1.000
    C89     C    0.87660   0.97780   0.07690   1.000
    H75     H    0.89440   0.01070   0.09470   1.000
    C90     C    0.89240   0.91660   0.08110   1.000
    C91     C    0.86560   0.86720   0.05370   1.000
    H76     H    0.87630   0.82590   0.05600   1.000
    C92     C    0.82360   0.87910   0.02350   1.000
    C93     C    0.80790   0.94130   0.01900   1.000
    H77     H    0.77980   0.94980   0.99780   1.000
    C94     C    0.79500   0.82590   0.99580   1.000
    C95     C    0.93620   0.90170   0.11190   1.000
    C96     C    0.97210   0.88450   0.13580   1.000
    C97     C    0.01360   0.86370   0.15870   1.000
    C98     C    0.05000   0.84320   0.17680   1.000
    C99     C    0.09290   0.81480   0.19330   1.000
    C100    C    0.10400   0.78710   0.25590   1.000
    H78     H    0.08370   0.78820   0.28990   1.000
    C101    C    0.14470   0.75800   0.26900   1.000
    C102    C    0.17490   0.75590   0.21860   1.000
    H79     H    0.20240   0.73600   0.22750   1.000
    C103    C    0.16460   0.78330   0.15460   1.000
    C104    C    0.12390   0.81240   0.14110   1.000
    H80     H    0.11670   0.83050   0.09830   1.000
    C105    C    0.15680   0.72740   0.33730   1.000
    C106    C    0.19710   0.77930   0.10010   1.000
    C107    C    0.66330   0.95640   0.92470   1.000
    C108    C    0.64840   0.02150   0.90650   1.000
    C109    C    0.60950   0.02970   0.86430   1.000
    H81     H    0.59370   0.99460   0.84690   1.000
    C110    C    0.59410   0.09080   0.84790   1.000
    C111    C    0.61830   0.14290   0.87250   1.000
    H82     H    0.60820   0.18350   0.86140   1.000
    C112    C    0.65730   0.13490   0.91320   1.000
    C113    C    0.67240   0.07430   0.93050   1.000
    H83     H    0.69860   0.06910   0.95830   1.000
    C114    C    0.68320   0.19220   0.93700   1.000
    C115    C    0.55430   0.09720   0.80340   1.000
    C116    C    0.51980   0.09930   0.76960   1.000
    C117    C    0.57570   0.81870   0.99270   1.000
    H84     H    0.57220   0.80210   0.94850   1.000
    C118    C    0.54760   0.83810   0.10160   1.000
    H85     H    0.56560   0.87560   0.10250   1.000
    H86     H    0.56280   0.80580   0.12880   1.000
    H87     H    0.51930   0.84720   0.12000   1.000
    C119    C    0.50020   0.78270   0.00600   1.000
    H88     H    0.50180   0.77320   0.95810   1.000
    H89     H    0.47440   0.80850   0.01200   1.000
    H90     H    0.49780   0.74400   0.03130   1.000
    C120    C    0.70250   0.10040   0.15600   1.000
    H91     H    0.70870   0.12920   0.19140   1.000
    C121    C    0.64590   0.06440   0.22310   1.000
    H92     H    0.66320   0.06500   0.26630   1.000
    H93     H    0.62300   0.03270   0.22420   1.000
    H94     H    0.63230   0.10500   0.21480   1.000
    C122    C    0.64360   0.05040   0.10260   1.000
    H95     H    0.65950   0.04010   0.06300   1.000
    H96     H    0.63070   0.09180   0.09700   1.000
    H97     H    0.62030   0.01990   0.10750   1.000
    N9      N    0.54000   0.81600   0.03090   1.000
    N10     N    0.67590   0.04940   0.16650   1.000
    O51     O    0.63440   0.91280   0.90700   1.000
    O52     O    0.69840   0.94700   0.95700   1.000
    O53     O    0.61820   0.81670   0.02250   1.000
    O54     O    0.72510   0.11050   0.11770   1.000
    C123    C    0.66160   0.95570   0.92490   1.000
    C124    C    0.59170   0.86270   0.01150   1.000
    H98     H    0.59710   0.89620   0.98240   1.000
    C125    C    0.55990   0.79510   0.08350   1.000
    H99     H    0.53730   0.79000   0.11570   1.000
    H100    H    0.58900   0.79370   0.10740   1.000
    H101    H    0.55730   0.76160   0.05020   1.000
    C126    C    0.51500   0.87710   0.03560   1.000
    H102    H    0.51500   0.91140   0.00340   1.000
    H103    H    0.50330   0.89150   0.07750   1.000
    H104    H    0.49650   0.84350   0.01650   1.000
    C127    C    0.69490   0.07080   0.11060   1.000
    H105    H    0.69620   0.04120   0.07550   1.000
    C128    C    0.67640   0.08080   0.22380   1.000
    H106    H    0.68860   0.12270   0.22700   1.000
    H107    H    0.69930   0.05070   0.23770   1.000
    H108    H    0.65210   0.07730   0.25330   1.000
    C129    C    0.63870   0.00390   0.14710   1.000
    H109    H    0.62690   0.99650   0.10080   1.000
    H110    H    0.61490   0.00170   0.17760   1.000
    H111    H    0.66080   0.97250   0.15980   1.000
    N11     N    0.55370   0.85760   0.04770   1.000
    N12     N    0.65970   0.06790   0.15180   1.000
    Tb7     Tb   0.27632   0.67422   0.05820   1.000
    Tb8     Tb   0.18115   0.33086   0.96243   1.000
    O55     O    0.27992   0.56790   0.01310   1.000
    O56     O    0.34014   0.60070   0.07210   1.000
    O57     O    0.25749   0.33890   0.96790   1.000
    O58     O    0.31005   0.27110   0.00180   1.000
    O59     O    0.62742   0.22300   0.38020   1.000
    O60     O    0.69564   0.20790   0.35040   1.000
    O61     O    0.68837   0.30930   0.04490   1.000
    O62     O    0.73141   0.24540   0.11290   1.000
    O63     O    0.15400   0.41090   0.88570   1.000
    O64     O    0.18710   0.44480   0.97800   1.000
    O65     O    0.21593   0.68580   0.97990   1.000
    O66     O    0.17108   0.74480   0.91250   1.000
    O67     O    0.11330   0.34160   0.01140   1.000
    O68     O    0.21860   0.60860   0.09950   1.000
    C130    C    0.31760   0.55720   0.04340   1.000
    C131    C    0.33430   0.49080   0.04620   1.000
    C132    C    0.37660   0.47780   0.07690   1.000
    H112    H    0.39440   0.51070   0.09470   1.000
    C133    C    0.39240   0.41660   0.08110   1.000
    C134    C    0.36560   0.36720   0.05370   1.000
    H113    H    0.37630   0.32590   0.05600   1.000
    C135    C    0.32360   0.37910   0.02350   1.000
    C136    C    0.30790   0.44130   0.01900   1.000
    H114    H    0.27980   0.44980   0.99780   1.000
    C137    C    0.29500   0.32590   0.99580   1.000
    C138    C    0.43620   0.40170   0.11190   1.000
    C139    C    0.47210   0.38450   0.13580   1.000
    C140    C    0.51360   0.36370   0.15870   1.000
    C141    C    0.55000   0.34320   0.17680   1.000
    C142    C    0.59290   0.31480   0.19330   1.000
    C143    C    0.60400   0.28710   0.25590   1.000
    H115    H    0.58370   0.28820   0.28990   1.000
    C144    C    0.64470   0.25800   0.26900   1.000
    C145    C    0.67490   0.25590   0.21860   1.000
    H116    H    0.70240   0.23600   0.22750   1.000
    C146    C    0.66460   0.28330   0.15460   1.000
    C147    C    0.62390   0.31240   0.14110   1.000
    H117    H    0.61670   0.33050   0.09830   1.000
    C148    C    0.65680   0.22740   0.33730   1.000
    C149    C    0.69710   0.27930   0.10010   1.000
    C150    C    0.16330   0.45640   0.92470   1.000
    C151    C    0.14840   0.52150   0.90650   1.000
    C152    C    0.10950   0.52970   0.86430   1.000
    H118    H    0.09370   0.49460   0.84690   1.000
    C153    C    0.09410   0.59080   0.84790   1.000
    C154    C    0.11830   0.64290   0.87250   1.000
    H119    H    0.10820   0.68350   0.86140   1.000
    C155    C    0.15730   0.63490   0.91320   1.000
    C156    C    0.17240   0.57430   0.93050   1.000
    H120    H    0.19860   0.56910   0.95830   1.000
    C157    C    0.18320   0.69220   0.93700   1.000
    C158    C    0.05430   0.59720   0.80340   1.000
    C159    C    0.01980   0.59930   0.76960   1.000
    C160    C    0.07570   0.31870   0.99270   1.000
    H121    H    0.07220   0.30210   0.94850   1.000
    C161    C    0.04760   0.33810   0.10160   1.000
    H122    H    0.06560   0.37560   0.10250   1.000
    H123    H    0.06280   0.30580   0.12880   1.000
    H124    H    0.01930   0.34720   0.12000   1.000
    C162    C    0.00020   0.28270   0.00600   1.000
    H125    H    0.00180   0.27320   0.95810   1.000
    H126    H    0.97440   0.30850   0.01200   1.000
    H127    H    0.99780   0.24400   0.03130   1.000
    C163    C    0.20250   0.60040   0.15600   1.000
    H128    H    0.20870   0.62920   0.19140   1.000
    C164    C    0.14590   0.56440   0.22310   1.000
    H129    H    0.16320   0.56500   0.26630   1.000
    H130    H    0.12300   0.53270   0.22420   1.000
    H131    H    0.13230   0.60500   0.21480   1.000
    C165    C    0.14360   0.55040   0.10260   1.000
    H132    H    0.15950   0.54010   0.06300   1.000
    H133    H    0.13070   0.59180   0.09700   1.000
    H134    H    0.12030   0.51990   0.10750   1.000
    N13     N    0.04000   0.31600   0.03090   1.000
    N14     N    0.17590   0.54940   0.16650   1.000
    O69     O    0.13440   0.41280   0.90700   1.000
    O70     O    0.19840   0.44700   0.95700   1.000
    O71     O    0.11820   0.31670   0.02250   1.000
    O72     O    0.22510   0.61050   0.11770   1.000
    C166    C    0.16160   0.45570   0.92490   1.000
    C167    C    0.09170   0.36270   0.01150   1.000
    H135    H    0.09710   0.39620   0.98240   1.000
    C168    C    0.05990   0.29510   0.08350   1.000
    H136    H    0.03730   0.29000   0.11570   1.000
    H137    H    0.08900   0.29370   0.10740   1.000
    H138    H    0.05730   0.26160   0.05020   1.000
    C169    C    0.01500   0.37710   0.03560   1.000
    H139    H    0.01500   0.41140   0.00340   1.000
    H140    H    0.00330   0.39150   0.07750   1.000
    H141    H    0.99650   0.34350   0.01650   1.000
    C170    C    0.19490   0.57080   0.11060   1.000
    H142    H    0.19620   0.54120   0.07550   1.000
    C171    C    0.17640   0.58080   0.22380   1.000
    H143    H    0.18860   0.62270   0.22700   1.000
    H144    H    0.19930   0.55070   0.23770   1.000
    H145    H    0.15210   0.57730   0.25330   1.000
    C172    C    0.13870   0.50390   0.14710   1.000
    H146    H    0.12690   0.49650   0.10080   1.000
    H147    H    0.11490   0.50170   0.17760   1.000
    H148    H    0.16080   0.47250   0.15980   1.000
    N15     N    0.05370   0.35760   0.04770   1.000
    N16     N    0.15970   0.56790   0.15180   1.000
    Tb9     Tb   0.77632   0.82578   0.55820   1.000
    Tb10    Tb   0.68115   0.16914   0.46243   1.000
    O73     O    0.77992   0.93210   0.51310   1.000
    O74     O    0.84014   0.89930   0.57210   1.000
    O75     O    0.75749   0.16110   0.46790   1.000
    O76     O    0.81005   0.22890   0.50180   1.000
    O77     O    0.12742   0.27700   0.88020   1.000
    O78     O    0.19564   0.29210   0.85040   1.000
    O79     O    0.18837   0.19070   0.54490   1.000
    O80     O    0.23141   0.25460   0.61290   1.000
    O81     O    0.65400   0.08910   0.38570   1.000
    O82     O    0.68710   0.05520   0.47800   1.000
    O83     O    0.71593   0.81420   0.47990   1.000
    O84     O    0.67108   0.75520   0.41250   1.000
    O85     O    0.61330   0.15840   0.51140   1.000
    O86     O    0.71860   0.89140   0.59950   1.000
    C173    C    0.81760   0.94280   0.54340   1.000
    C174    C    0.83430   0.00920   0.54620   1.000
    C175    C    0.87660   0.02220   0.57690   1.000
    H149    H    0.89440   0.98930   0.59470   1.000
    C176    C    0.89240   0.08340   0.58110   1.000
    C177    C    0.86560   0.13280   0.55370   1.000
    H150    H    0.87630   0.17410   0.55600   1.000
    C178    C    0.82360   0.12090   0.52350   1.000
    C179    C    0.80790   0.05870   0.51900   1.000
    H151    H    0.77980   0.05020   0.49780   1.000
    C180    C    0.79500   0.17410   0.49580   1.000
    C181    C    0.93620   0.09830   0.61190   1.000
    C182    C    0.97210   0.11550   0.63580   1.000
    C183    C    0.01360   0.13630   0.65870   1.000
    C184    C    0.05000   0.15680   0.67680   1.000
    C185    C    0.09290   0.18520   0.69330   1.000
    C186    C    0.10400   0.21290   0.75590   1.000
    H152    H    0.08370   0.21180   0.78990   1.000
    C187    C    0.14470   0.24200   0.76900   1.000
    C188    C    0.17490   0.24410   0.71860   1.000
    H153    H    0.20240   0.26400   0.72750   1.000
    C189    C    0.16460   0.21670   0.65460   1.000
    C190    C    0.12390   0.18760   0.64110   1.000
    H154    H    0.11670   0.16950   0.59830   1.000
    C191    C    0.15680   0.27260   0.83730   1.000
    C192    C    0.19710   0.22070   0.60010   1.000
    C193    C    0.66330   0.04360   0.42470   1.000
    C194    C    0.64840   0.97850   0.40650   1.000
    C195    C    0.60950   0.97030   0.36430   1.000
    H155    H    0.59370   0.00540   0.34690   1.000
    C196    C    0.59410   0.90920   0.34790   1.000
    C197    C    0.61830   0.85710   0.37250   1.000
    H156    H    0.60820   0.81650   0.36140   1.000
    C198    C    0.65730   0.86510   0.41320   1.000
    C199    C    0.67240   0.92570   0.43050   1.000
    H157    H    0.69860   0.93090   0.45830   1.000
    C200    C    0.68320   0.80780   0.43700   1.000
    C201    C    0.55430   0.90280   0.30340   1.000
    C202    C    0.51980   0.90070   0.26960   1.000
    C203    C    0.57570   0.18130   0.49270   1.000
    H158    H    0.57220   0.19790   0.44850   1.000
    C204    C    0.54760   0.16190   0.60160   1.000
    H159    H    0.56560   0.12440   0.60250   1.000
    H160    H    0.56280   0.19420   0.62880   1.000
    H161    H    0.51930   0.15280   0.62000   1.000
    C205    C    0.50020   0.21730   0.50600   1.000
    H162    H    0.50180   0.22680   0.45810   1.000
    H163    H    0.47440   0.19150   0.51200   1.000
    H164    H    0.49780   0.25600   0.53130   1.000
    C206    C    0.70250   0.89960   0.65600   1.000
    H165    H    0.70870   0.87080   0.69140   1.000
    C207    C    0.64590   0.93560   0.72310   1.000
    H166    H    0.66320   0.93500   0.76630   1.000
    H167    H    0.62300   0.96730   0.72420   1.000
    H168    H    0.63230   0.89500   0.71480   1.000
    C208    C    0.64360   0.94960   0.60260   1.000
    H169    H    0.65950   0.95990   0.56300   1.000
    H170    H    0.63070   0.90820   0.59700   1.000
    H171    H    0.62030   0.98010   0.60750   1.000
    N17     N    0.54000   0.18400   0.53090   1.000
    N18     N    0.67590   0.95060   0.66650   1.000
    O87     O    0.63440   0.08720   0.40700   1.000
    O88     O    0.69840   0.05300   0.45700   1.000
    O89     O    0.61820   0.18330   0.52250   1.000
    O90     O    0.72510   0.88950   0.61770   1.000
    C209    C    0.66160   0.04430   0.42490   1.000
    C210    C    0.59170   0.13730   0.51150   1.000
    H172    H    0.59710   0.10380   0.48240   1.000
    C211    C    0.55990   0.20490   0.58350   1.000
    H173    H    0.53730   0.21000   0.61570   1.000
    H174    H    0.58900   0.20630   0.60740   1.000
    H175    H    0.55730   0.23840   0.55020   1.000
    C212    C    0.51500   0.12290   0.53560   1.000
    H176    H    0.51500   0.08860   0.50340   1.000
    H177    H    0.50330   0.10850   0.57750   1.000
    H178    H    0.49650   0.15650   0.51650   1.000
    C213    C    0.69490   0.92920   0.61060   1.000
    H179    H    0.69620   0.95880   0.57550   1.000
    C214    C    0.67640   0.91920   0.72380   1.000
    H180    H    0.68860   0.87730   0.72700   1.000
    H181    H    0.69930   0.94930   0.73770   1.000
    H182    H    0.65210   0.92270   0.75330   1.000
    C215    C    0.63870   0.99610   0.64710   1.000
    H183    H    0.62690   0.00350   0.60080   1.000
    H184    H    0.61490   0.99830   0.67760   1.000
    H185    H    0.66080   0.02750   0.65980   1.000
    N19     N    0.55370   0.14240   0.54770   1.000
    N20     N    0.65970   0.93210   0.65180   1.000
    Tb11    Tb   0.27632   0.32578   0.55820   1.000
    Tb12    Tb   0.18115   0.66914   0.46243   1.000
    O91     O    0.27992   0.43210   0.51310   1.000
    O92     O    0.34014   0.39930   0.57210   1.000
    O93     O    0.25749   0.66110   0.46790   1.000
    O94     O    0.31005   0.72890   0.50180   1.000
    O95     O    0.62742   0.77700   0.88020   1.000
    O96     O    0.69564   0.79210   0.85040   1.000
    O97     O    0.68837   0.69070   0.54490   1.000
    O98     O    0.73141   0.75460   0.61290   1.000
    O99     O    0.15400   0.58910   0.38570   1.000
    O100    O    0.18710   0.55520   0.47800   1.000
    O101    O    0.21593   0.31420   0.47990   1.000
    O102    O    0.17108   0.25520   0.41250   1.000
    O103    O    0.11330   0.65840   0.51140   1.000
    O104    O    0.21860   0.39140   0.59950   1.000
    C216    C    0.31760   0.44280   0.54340   1.000
    C217    C    0.33430   0.50920   0.54620   1.000
    C218    C    0.37660   0.52220   0.57690   1.000
    H186    H    0.39440   0.48930   0.59470   1.000
    C219    C    0.39240   0.58340   0.58110   1.000
    C220    C    0.36560   0.63280   0.55370   1.000
    H187    H    0.37630   0.67410   0.55600   1.000
    C221    C    0.32360   0.62090   0.52350   1.000
    C222    C    0.30790   0.55870   0.51900   1.000
    H188    H    0.27980   0.55020   0.49780   1.000
    C223    C    0.29500   0.67410   0.49580   1.000
    C224    C    0.43620   0.59830   0.61190   1.000
    C225    C    0.47210   0.61550   0.63580   1.000
    C226    C    0.51360   0.63630   0.65870   1.000
    C227    C    0.55000   0.65680   0.67680   1.000
    C228    C    0.59290   0.68520   0.69330   1.000
    C229    C    0.60400   0.71290   0.75590   1.000
    H189    H    0.58370   0.71180   0.78990   1.000
    C230    C    0.64470   0.74200   0.76900   1.000
    C231    C    0.67490   0.74410   0.71860   1.000
    H190    H    0.70240   0.76400   0.72750   1.000
    C232    C    0.66460   0.71670   0.65460   1.000
    C233    C    0.62390   0.68760   0.64110   1.000
    H191    H    0.61670   0.66950   0.59830   1.000
    C234    C    0.65680   0.77260   0.83730   1.000
    C235    C    0.69710   0.72070   0.60010   1.000
    C236    C    0.16330   0.54360   0.42470   1.000
    C237    C    0.14840   0.47850   0.40650   1.000
    C238    C    0.10950   0.47030   0.36430   1.000
    H192    H    0.09370   0.50540   0.34690   1.000
    C239    C    0.09410   0.40920   0.34790   1.000
    C240    C    0.11830   0.35710   0.37250   1.000
    H193    H    0.10820   0.31650   0.36140   1.000
    C241    C    0.15730   0.36510   0.41320   1.000
    C242    C    0.17240   0.42570   0.43050   1.000
    H194    H    0.19860   0.43090   0.45830   1.000
    C243    C    0.18320   0.30780   0.43700   1.000
    C244    C    0.05430   0.40280   0.30340   1.000
    C245    C    0.01980   0.40070   0.26960   1.000
    C246    C    0.07570   0.68130   0.49270   1.000
    H195    H    0.07220   0.69790   0.44850   1.000
    C247    C    0.04760   0.66190   0.60160   1.000
    H196    H    0.06560   0.62440   0.60250   1.000
    H197    H    0.06280   0.69420   0.62880   1.000
    H198    H    0.01930   0.65280   0.62000   1.000
    C248    C    0.00020   0.71730   0.50600   1.000
    H199    H    0.00180   0.72680   0.45810   1.000
    H200    H    0.97440   0.69150   0.51200   1.000
    H201    H    0.99780   0.75600   0.53130   1.000
    C249    C    0.20250   0.39960   0.65600   1.000
    H202    H    0.20870   0.37080   0.69140   1.000
    C250    C    0.14590   0.43560   0.72310   1.000
    H203    H    0.16320   0.43500   0.76630   1.000
    H204    H    0.12300   0.46730   0.72420   1.000
    H205    H    0.13230   0.39500   0.71480   1.000
    C251    C    0.14360   0.44960   0.60260   1.000
    H206    H    0.15950   0.45990   0.56300   1.000
    H207    H    0.13070   0.40820   0.59700   1.000
    H208    H    0.12030   0.48010   0.60750   1.000
    N21     N    0.04000   0.68400   0.53090   1.000
    N22     N    0.17590   0.45060   0.66650   1.000
    O105    O    0.13440   0.58720   0.40700   1.000
    O106    O    0.19840   0.55300   0.45700   1.000
    O107    O    0.11820   0.68330   0.52250   1.000
    O108    O    0.22510   0.38950   0.61770   1.000
    C252    C    0.16160   0.54430   0.42490   1.000
    C253    C    0.09170   0.63730   0.51150   1.000
    H209    H    0.09710   0.60380   0.48240   1.000
    C254    C    0.05990   0.70490   0.58350   1.000
    H210    H    0.03730   0.71000   0.61570   1.000
    H211    H    0.08900   0.70630   0.60740   1.000
    H212    H    0.05730   0.73840   0.55020   1.000
    C255    C    0.01500   0.62290   0.53560   1.000
    H213    H    0.01500   0.58860   0.50340   1.000
    H214    H    0.00330   0.60850   0.57750   1.000
    H215    H    0.99650   0.65650   0.51650   1.000
    C256    C    0.19490   0.42920   0.61060   1.000
    H216    H    0.19620   0.45880   0.57550   1.000
    C257    C    0.17640   0.41920   0.72380   1.000
    H217    H    0.18860   0.37730   0.72700   1.000
    H218    H    0.19930   0.44930   0.73770   1.000
    H219    H    0.15210   0.42270   0.75330   1.000
    C258    C    0.13870   0.49610   0.64710   1.000
    H220    H    0.12690   0.50350   0.60080   1.000
    H221    H    0.11490   0.49830   0.67760   1.000
    H222    H    0.16080   0.52750   0.65980   1.000
    N23     N    0.05370   0.64240   0.54770   1.000
    N24     N    0.15970   0.43210   0.65180   1.000
    Tb13    Tb   0.22368   0.82578   0.94180   1.000
    Tb14    Tb   0.31885   0.16914   0.03757   1.000
    O109    O    0.22008   0.93210   0.98690   1.000
    O110    O    0.15986   0.89930   0.92790   1.000
    O111    O    0.24251   0.16110   0.03210   1.000
    O112    O    0.18995   0.22890   0.99820   1.000
    O113    O    0.87258   0.27700   0.61980   1.000
    O114    O    0.80436   0.29210   0.64960   1.000
    O115    O    0.81163   0.19070   0.95510   1.000
    O116    O    0.76859   0.25460   0.88710   1.000
    O117    O    0.34600   0.08910   0.11430   1.000
    O118    O    0.31290   0.05520   0.02200   1.000
    O119    O    0.28407   0.81420   0.02010   1.000
    O120    O    0.32892   0.75520   0.08750   1.000
    O121    O    0.38670   0.15840   0.98860   1.000
    O122    O    0.28140   0.89140   0.90050   1.000
    C259    C    0.18240   0.94280   0.95660   1.000
    C260    C    0.16570   0.00920   0.95380   1.000
    C261    C    0.12340   0.02220   0.92310   1.000
    H223    H    0.10560   0.98930   0.90530   1.000
    C262    C    0.10760   0.08340   0.91890   1.000
    C263    C    0.13440   0.13280   0.94630   1.000
    H224    H    0.12370   0.17410   0.94400   1.000
    C264    C    0.17640   0.12090   0.97650   1.000
    C265    C    0.19210   0.05870   0.98100   1.000
    H225    H    0.22020   0.05020   0.00220   1.000
    C266    C    0.20500   0.17410   0.00420   1.000
    C267    C    0.06380   0.09830   0.88810   1.000
    C268    C    0.02790   0.11550   0.86420   1.000
    C269    C    0.98640   0.13630   0.84130   1.000
    C270    C    0.95000   0.15680   0.82320   1.000
    C271    C    0.90710   0.18520   0.80670   1.000
    C272    C    0.89600   0.21290   0.74410   1.000
    H226    H    0.91630   0.21180   0.71010   1.000
    C273    C    0.85530   0.24200   0.73100   1.000
    C274    C    0.82510   0.24410   0.78140   1.000
    H227    H    0.79760   0.26400   0.77250   1.000
    C275    C    0.83540   0.21670   0.84540   1.000
    C276    C    0.87610   0.18760   0.85890   1.000
    H228    H    0.88330   0.16950   0.90170   1.000
    C277    C    0.84320   0.27260   0.66270   1.000
    C278    C    0.80290   0.22070   0.89990   1.000
    C279    C    0.33670   0.04360   0.07530   1.000
    C280    C    0.35160   0.97850   0.09350   1.000
    C281    C    0.39050   0.97030   0.13570   1.000
    H229    H    0.40630   0.00540   0.15310   1.000
    C282    C    0.40590   0.90920   0.15210   1.000
    C283    C    0.38170   0.85710   0.12750   1.000
    H230    H    0.39180   0.81650   0.13860   1.000
    C284    C    0.34270   0.86510   0.08680   1.000
    C285    C    0.32760   0.92570   0.06950   1.000
    H231    H    0.30140   0.93090   0.04170   1.000
    C286    C    0.31680   0.80780   0.06300   1.000
    C287    C    0.44570   0.90280   0.19660   1.000
    C288    C    0.48020   0.90070   0.23040   1.000
    C289    C    0.42430   0.18130   0.00730   1.000
    H232    H    0.42780   0.19790   0.05150   1.000
    C290    C    0.45240   0.16190   0.89840   1.000
    H233    H    0.43440   0.12440   0.89750   1.000
    H234    H    0.43720   0.19420   0.87120   1.000
    H235    H    0.48070   0.15280   0.88000   1.000
    C291    C    0.49980   0.21730   0.99400   1.000
    H236    H    0.49820   0.22680   0.04190   1.000
    H237    H    0.52560   0.19150   0.98800   1.000
    H238    H    0.50220   0.25600   0.96870   1.000
    C292    C    0.29750   0.89960   0.84400   1.000
    H239    H    0.29130   0.87080   0.80860   1.000
    C293    C    0.35410   0.93560   0.77690   1.000
    H240    H    0.33680   0.93500   0.73370   1.000
    H241    H    0.37700   0.96730   0.77580   1.000
    H242    H    0.36770   0.89500   0.78520   1.000
    C294    C    0.35640   0.94960   0.89740   1.000
    H243    H    0.34050   0.95990   0.93700   1.000
    H244    H    0.36930   0.90820   0.90300   1.000
    H245    H    0.37970   0.98010   0.89250   1.000
    N25     N    0.46000   0.18400   0.96910   1.000
    N26     N    0.32410   0.95060   0.83350   1.000
    O123    O    0.36560   0.08720   0.09300   1.000
    O124    O    0.30160   0.05300   0.04300   1.000
    O125    O    0.38180   0.18330   0.97750   1.000
    O126    O    0.27490   0.88950   0.88230   1.000
    C295    C    0.33840   0.04430   0.07510   1.000
    C296    C    0.40830   0.13730   0.98850   1.000
    H246    H    0.40290   0.10380   0.01760   1.000
    C297    C    0.44010   0.20490   0.91650   1.000
    H247    H    0.46270   0.21000   0.88430   1.000
    H248    H    0.41100   0.20630   0.89260   1.000
    H249    H    0.44270   0.23840   0.94980   1.000
    C298    C    0.48500   0.12290   0.96440   1.000
    H250    H    0.48500   0.08860   0.99660   1.000
    H251    H    0.49670   0.10850   0.92250   1.000
    H252    H    0.50350   0.15650   0.98350   1.000
    C299    C    0.30510   0.92920   0.88940   1.000
    H253    H    0.30380   0.95880   0.92450   1.000
    C300    C    0.32360   0.91920   0.77620   1.000
    H254    H    0.31140   0.87730   0.77300   1.000
    H255    H    0.30070   0.94930   0.76230   1.000
    H256    H    0.34790   0.92270   0.74670   1.000
    C301    C    0.36130   0.99610   0.85290   1.000
    H257    H    0.37310   0.00350   0.89920   1.000
    H258    H    0.38510   0.99830   0.82240   1.000
    H259    H    0.33920   0.02750   0.84020   1.000
    N27     N    0.44630   0.14240   0.95230   1.000
    N28     N    0.34030   0.93210   0.84820   1.000
    Tb15    Tb   0.72368   0.32578   0.94180   1.000
    Tb16    Tb   0.81885   0.66914   0.03757   1.000
    O127    O    0.72008   0.43210   0.98690   1.000
    O128    O    0.65986   0.39930   0.92790   1.000
    O129    O    0.74251   0.66110   0.03210   1.000
    O130    O    0.68995   0.72890   0.99820   1.000
    O131    O    0.37258   0.77700   0.61980   1.000
    O132    O    0.30436   0.79210   0.64960   1.000
    O133    O    0.31163   0.69070   0.95510   1.000
    O134    O    0.26859   0.75460   0.88710   1.000
    O135    O    0.84600   0.58910   0.11430   1.000
    O136    O    0.81290   0.55520   0.02200   1.000
    O137    O    0.78407   0.31420   0.02010   1.000
    O138    O    0.82892   0.25520   0.08750   1.000
    O139    O    0.88670   0.65840   0.98860   1.000
    O140    O    0.78140   0.39140   0.90050   1.000
    C302    C    0.68240   0.44280   0.95660   1.000
    C303    C    0.66570   0.50920   0.95380   1.000
    C304    C    0.62340   0.52220   0.92310   1.000
    H260    H    0.60560   0.48930   0.90530   1.000
    C305    C    0.60760   0.58340   0.91890   1.000
    C306    C    0.63440   0.63280   0.94630   1.000
    H261    H    0.62370   0.67410   0.94400   1.000
    C307    C    0.67640   0.62090   0.97650   1.000
    C308    C    0.69210   0.55870   0.98100   1.000
    H262    H    0.72020   0.55020   0.00220   1.000
    C309    C    0.70500   0.67410   0.00420   1.000
    C310    C    0.56380   0.59830   0.88810   1.000
    C311    C    0.52790   0.61550   0.86420   1.000
    C312    C    0.48640   0.63630   0.84130   1.000
    C313    C    0.45000   0.65680   0.82320   1.000
    C314    C    0.40710   0.68520   0.80670   1.000
    C315    C    0.39600   0.71290   0.74410   1.000
    H263    H    0.41630   0.71180   0.71010   1.000
    C316    C    0.35530   0.74200   0.73100   1.000
    C317    C    0.32510   0.74410   0.78140   1.000
    H264    H    0.29760   0.76400   0.77250   1.000
    C318    C    0.33540   0.71670   0.84540   1.000
    C319    C    0.37610   0.68760   0.85890   1.000
    H265    H    0.38330   0.66950   0.90170   1.000
    C320    C    0.34320   0.77260   0.66270   1.000
    C321    C    0.30290   0.72070   0.89990   1.000
    C322    C    0.83670   0.54360   0.07530   1.000
    C323    C    0.85160   0.47850   0.09350   1.000
    C324    C    0.89050   0.47030   0.13570   1.000
    H266    H    0.90630   0.50540   0.15310   1.000
    C325    C    0.90590   0.40920   0.15210   1.000
    C326    C    0.88170   0.35710   0.12750   1.000
    H267    H    0.89180   0.31650   0.13860   1.000
    C327    C    0.84270   0.36510   0.08680   1.000
    C328    C    0.82760   0.42570   0.06950   1.000
    H268    H    0.80140   0.43090   0.04170   1.000
    C329    C    0.81680   0.30780   0.06300   1.000
    C330    C    0.94570   0.40280   0.19660   1.000
    C331    C    0.98020   0.40070   0.23040   1.000
    C332    C    0.92430   0.68130   0.00730   1.000
    H269    H    0.92780   0.69790   0.05150   1.000
    C333    C    0.95240   0.66190   0.89840   1.000
    H270    H    0.93440   0.62440   0.89750   1.000
    H271    H    0.93720   0.69420   0.87120   1.000
    H272    H    0.98070   0.65280   0.88000   1.000
    C334    C    0.99980   0.71730   0.99400   1.000
    H273    H    0.99820   0.72680   0.04190   1.000
    H274    H    0.02560   0.69150   0.98800   1.000
    H275    H    0.00220   0.75600   0.96870   1.000
    C335    C    0.79750   0.39960   0.84400   1.000
    H276    H    0.79130   0.37080   0.80860   1.000
    C336    C    0.85410   0.43560   0.77690   1.000
    H277    H    0.83680   0.43500   0.73370   1.000
    H278    H    0.87700   0.46730   0.77580   1.000
    H279    H    0.86770   0.39500   0.78520   1.000
    C337    C    0.85640   0.44960   0.89740   1.000
    H280    H    0.84050   0.45990   0.93700   1.000
    H281    H    0.86930   0.40820   0.90300   1.000
    H282    H    0.87970   0.48010   0.89250   1.000
    N29     N    0.96000   0.68400   0.96910   1.000
    N30     N    0.82410   0.45060   0.83350   1.000
    O141    O    0.86560   0.58720   0.09300   1.000
    O142    O    0.80160   0.55300   0.04300   1.000
    O143    O    0.88180   0.68330   0.97750   1.000
    O144    O    0.77490   0.38950   0.88230   1.000
    C338    C    0.83840   0.54430   0.07510   1.000
    C339    C    0.90830   0.63730   0.98850   1.000
    H283    H    0.90290   0.60380   0.01760   1.000
    C340    C    0.94010   0.70490   0.91650   1.000
    H284    H    0.96270   0.71000   0.88430   1.000
    H285    H    0.91100   0.70630   0.89260   1.000
    H286    H    0.94270   0.73840   0.94980   1.000
    C341    C    0.98500   0.62290   0.96440   1.000
    H287    H    0.98500   0.58860   0.99660   1.000
    H288    H    0.99670   0.60850   0.92250   1.000
    H289    H    0.00350   0.65650   0.98350   1.000
    C342    C    0.80510   0.42920   0.88940   1.000
    H290    H    0.80380   0.45880   0.92450   1.000
    C343    C    0.82360   0.41920   0.77620   1.000
    H291    H    0.81140   0.37730   0.77300   1.000
    H292    H    0.80070   0.44930   0.76230   1.000
    H293    H    0.84790   0.42270   0.74670   1.000
    C344    C    0.86130   0.49610   0.85290   1.000
    H294    H    0.87310   0.50350   0.89920   1.000
    H295    H    0.88510   0.49830   0.82240   1.000
    H296    H    0.83920   0.52750   0.84020   1.000
    N31     N    0.94630   0.64240   0.95230   1.000
    N32     N    0.84030   0.43210   0.84820   1.000
