# CIF file generated by openbabel 2.4.1, see http://openbabel.sf.net
data_I
_chemical_name_common 'HAFQOW_clean'
_cell_length_a 6.6018
_cell_length_b 13.8911
_cell_length_c 15.954
_cell_angle_alpha 90
_cell_angle_beta 90
_cell_angle_gamma 91.699
_space_group_name_H-M_alt 'P 1'
_space_group_name_Hall 'P 1'
loop_
    _symmetry_equiv_pos_as_xyz
    x,y,z
loop_
    _atom_site_label
    _atom_site_type_symbol
    _atom_site_fract_x
    _atom_site_fract_y
    _atom_site_fract_z
    _atom_site_occupancy
    Al1     Al   0.00000   0.00000   0.00000   1.000
    Al2     Al   0.50000   0.50000   0.50000   1.000
    Al3     Al   0.50000   0.00000   0.00000   1.000
    Al4     Al   0.00000   0.50000   0.50000   1.000
    H1      H    0.23813   0.88517   0.98040   1.000
    H2      H    0.56779   0.29523   0.69077   1.000
    H3      H    0.56265   0.19253   0.80503   1.000
    H4      H    0.96248   0.29519   0.69190   1.000
    H5      H    0.95703   0.19248   0.80616   1.000
    H6      H    0.26187   0.61483   0.48040   1.000
    H7      H    0.93221   0.20477   0.19077   1.000
    H8      H    0.93735   0.30747   0.30503   1.000
    H9      H    0.53752   0.20481   0.19190   1.000
    H10     H    0.54297   0.30752   0.30616   1.000
    H11     H    0.76187   0.11483   0.01960   1.000
    H12     H    0.43221   0.70477   0.30923   1.000
    H13     H    0.43735   0.80747   0.19497   1.000
    H14     H    0.03752   0.70481   0.30810   1.000
    H15     H    0.04297   0.80752   0.19384   1.000
    H16     H    0.73813   0.38517   0.51960   1.000
    H17     H    0.06779   0.79523   0.80923   1.000
    H18     H    0.06265   0.69253   0.69497   1.000
    H19     H    0.46248   0.79519   0.80810   1.000
    H20     H    0.45703   0.69248   0.69384   1.000
    C1      C    0.26930   0.37623   0.61000   1.000
    C2      C    0.26582   0.30695   0.68157   1.000
    C3      C    0.44494   0.27512   0.71437   1.000
    C4      C    0.25613   0.11969   0.89287   1.000
    C5      C    0.25931   0.18206   0.81668   1.000
    C6      C    0.44192   0.21318   0.78237   1.000
    C7      C    0.08321   0.27511   0.71506   1.000
    C8      C    0.07988   0.21317   0.78306   1.000
    C9      C    0.23070   0.12377   0.11000   1.000
    C10     C    0.23418   0.19305   0.18157   1.000
    C11     C    0.05506   0.22488   0.21437   1.000
    C12     C    0.24387   0.38031   0.39287   1.000
    C13     C    0.24069   0.31794   0.31668   1.000
    C14     C    0.05808   0.28682   0.28237   1.000
    C15     C    0.41679   0.22489   0.21506   1.000
    C16     C    0.42012   0.28683   0.28306   1.000
    C17     C    0.73070   0.62377   0.39000   1.000
    C18     C    0.73418   0.69305   0.31843   1.000
    C19     C    0.55506   0.72488   0.28563   1.000
    C20     C    0.74387   0.88031   0.10713   1.000
    C21     C    0.74069   0.81794   0.18332   1.000
    C22     C    0.55808   0.78682   0.21763   1.000
    C23     C    0.91679   0.72489   0.28494   1.000
    C24     C    0.92012   0.78683   0.21694   1.000
    C25     C    0.76930   0.87623   0.89000   1.000
    C26     C    0.76582   0.80695   0.81843   1.000
    C27     C    0.94494   0.77512   0.78563   1.000
    C28     C    0.75613   0.61969   0.60713   1.000
    C29     C    0.75931   0.68206   0.68332   1.000
    C30     C    0.94192   0.71318   0.71763   1.000
    C31     C    0.58321   0.77511   0.78494   1.000
    C32     C    0.57988   0.71317   0.71694   1.000
    O1      O    0.24358   0.94189   0.99311   1.000
    O2      O    0.08563   0.09601   0.92261   1.000
    O3      O    0.10121   0.40175   0.58183   1.000
    O4      O    0.42422   0.09396   0.92074   1.000
    O5      O    0.44025   0.40380   0.58270   1.000
    O6      O    0.25642   0.55811   0.49311   1.000
    O7      O    0.41437   0.40399   0.42261   1.000
    O8      O    0.39879   0.09825   0.08183   1.000
    O9      O    0.07578   0.40604   0.42074   1.000
    O10     O    0.05975   0.09620   0.08270   1.000
    O11     O    0.75642   0.05811   0.00689   1.000
    O12     O    0.91437   0.90399   0.07739   1.000
    O13     O    0.89879   0.59825   0.41817   1.000
    O14     O    0.57578   0.90604   0.07926   1.000
    O15     O    0.55975   0.59620   0.41730   1.000
    O16     O    0.74358   0.44189   0.50689   1.000
    O17     O    0.58563   0.59601   0.57739   1.000
    O18     O    0.60121   0.90175   0.91817   1.000
    O19     O    0.92422   0.59396   0.57926   1.000
    O20     O    0.94025   0.90380   0.91730   1.000
