# CIF file generated by openbabel 2.4.1, see http://openbabel.sf.net
data_I
_chemical_name_common 'image0'
_cell_length_a 9.1425
_cell_length_b 9.1425
_cell_length_c 12.663
_cell_angle_alpha 90
_cell_angle_beta 90
_cell_angle_gamma 90
_space_group_name_H-M_alt 'P 1'
_space_group_name_Hall 'P 1'
loop_
    _symmetry_equiv_pos_as_xyz
    x,y,z
loop_
    _atom_site_label
    _atom_site_type_symbol
    _atom_site_fract_x
    _atom_site_fract_y
    _atom_site_fract_z
    _atom_site_occupancy
    O1      O    0.23700   0.03200   0.33680   1.000
    C1      C    0.54500   0.03000   0.34100   1.000
    H1      H    0.49440   0.04850   0.40330   1.000
    C2      C    0.69100   0.03400   0.34200   1.000
    H2      H    0.74060   0.05940   0.40390   1.000
    Zn1     Zn   0.03480   0.95840   0.37510   1.000
    O2      O    0.07900   0.03000   0.24800   1.000
    C3      C    0.47000   0.01500   0.34470   1.000
    C4      C    0.31800   0.00900   0.34600   1.000
    C5      C    0.24200   0.99000   0.25200   1.000
    O3      O    0.75500   0.00200   0.34200   1.000
    H3      H    0.52080   0.03100   0.40730   1.000
    H4      H    0.26470   0.03100   0.40730   1.000
    C6      C    0.31700   0.97000   0.15700   1.000
    C7      C    0.46900   0.97800   0.15600   1.000
    O4      O    0.23900   0.97700   0.33710   1.000
    C8      C    0.54200   0.97000   0.34400   1.000
    H5      H    0.49050   0.95160   0.40550   1.000
    C9      C    0.68500   0.96800   0.34500   1.000
    H6      H    0.73310   0.94560   0.40780   1.000
    O5      O    0.76300   0.96800   0.83680   1.000
    C10     C    0.45500   0.97000   0.84100   1.000
    H7      H    0.50560   0.95150   0.90330   1.000
    C11     C    0.30900   0.96600   0.84200   1.000
    H8      H    0.25940   0.94060   0.90390   1.000
    Zn2     Zn   0.96520   0.04160   0.87510   1.000
    O6      O    0.92100   0.97000   0.74800   1.000
    C12     C    0.53000   0.98500   0.84470   1.000
    C13     C    0.68200   0.99100   0.84600   1.000
    C14     C    0.75800   0.01000   0.75200   1.000
    O7      O    0.24500   0.99800   0.84200   1.000
    H9      H    0.47920   0.96900   0.90730   1.000
    H10     H    0.73530   0.96900   0.90730   1.000
    C15     C    0.68300   0.03000   0.65700   1.000
    C16     C    0.53100   0.02200   0.65600   1.000
    O8      O    0.76100   0.02300   0.83710   1.000
    C17     C    0.45800   0.03000   0.84400   1.000
    H11     H    0.50950   0.04840   0.90550   1.000
    C18     C    0.31500   0.03200   0.84500   1.000
    H12     H    0.26690   0.05440   0.90780   1.000
    O9      O    0.96800   0.23700   0.58680   1.000
    C19     C    0.97000   0.54500   0.59100   1.000
    H13     H    0.95150   0.49440   0.65330   1.000
    C20     C    0.96600   0.69100   0.59200   1.000
    H14     H    0.94060   0.74060   0.65390   1.000
    Zn3     Zn   0.04160   0.03480   0.62510   1.000
    O10     O    0.97000   0.07900   0.49800   1.000
    C21     C    0.98500   0.47000   0.59470   1.000
    C22     C    0.99100   0.31800   0.59600   1.000
    C23     C    0.01000   0.24200   0.50200   1.000
    O11     O    0.99800   0.75500   0.59200   1.000
    H15     H    0.96900   0.52080   0.65730   1.000
    H16     H    0.96900   0.26470   0.65730   1.000
    C24     C    0.03000   0.31700   0.40700   1.000
    C25     C    0.02200   0.46900   0.40600   1.000
    O12     O    0.02300   0.23900   0.58710   1.000
    C26     C    0.03000   0.54200   0.59400   1.000
    H17     H    0.04840   0.49050   0.65550   1.000
    C27     C    0.03200   0.68500   0.59500   1.000
    H18     H    0.05440   0.73310   0.65780   1.000
    O13     O    0.03200   0.76300   0.08680   1.000
    C28     C    0.03000   0.45500   0.09100   1.000
    H19     H    0.04850   0.50560   0.15330   1.000
    C29     C    0.03400   0.30900   0.09200   1.000
    H20     H    0.05940   0.25940   0.15390   1.000
    Zn4     Zn   0.95840   0.96520   0.12510   1.000
    O14     O    0.03000   0.92100   0.99800   1.000
    C30     C    0.01500   0.53000   0.09470   1.000
    C31     C    0.00900   0.68200   0.09600   1.000
    C32     C    0.99000   0.75800   0.00200   1.000
    O15     O    0.00200   0.24500   0.09200   1.000
    H21     H    0.03100   0.47920   0.15730   1.000
    H22     H    0.03100   0.73530   0.15730   1.000
    C33     C    0.97000   0.68300   0.90700   1.000
    C34     C    0.97800   0.53100   0.90600   1.000
    O16     O    0.97700   0.76100   0.08710   1.000
    C35     C    0.97000   0.45800   0.09400   1.000
    H23     H    0.95160   0.50950   0.15550   1.000
    C36     C    0.96800   0.31500   0.09500   1.000
    H24     H    0.94560   0.26690   0.15780   1.000
    O17     O    0.76300   0.03200   0.66320   1.000
    C37     C    0.45500   0.03000   0.65900   1.000
    H25     H    0.50560   0.04850   0.59670   1.000
    C38     C    0.30900   0.03400   0.65800   1.000
    H26     H    0.25940   0.05940   0.59610   1.000
    Zn5     Zn   0.96520   0.95840   0.62490   1.000
    O18     O    0.92100   0.03000   0.75200   1.000
    C39     C    0.53000   0.01500   0.65530   1.000
    C40     C    0.68200   0.00900   0.65400   1.000
    C41     C    0.75800   0.99000   0.74800   1.000
    O19     O    0.24500   0.00200   0.65800   1.000
    H27     H    0.47920   0.03100   0.59270   1.000
    H28     H    0.73530   0.03100   0.59270   1.000
    C42     C    0.68300   0.97000   0.84300   1.000
    C43     C    0.53100   0.97800   0.84400   1.000
    O20     O    0.76100   0.97700   0.66290   1.000
    C44     C    0.45800   0.97000   0.65600   1.000
    H29     H    0.50950   0.95160   0.59450   1.000
    C45     C    0.31500   0.96800   0.65500   1.000
    H30     H    0.26690   0.94560   0.59220   1.000
    O21     O    0.23700   0.96800   0.16320   1.000
    C46     C    0.54500   0.97000   0.15900   1.000
    H31     H    0.49440   0.95150   0.09670   1.000
    C47     C    0.69100   0.96600   0.15800   1.000
    H32     H    0.74060   0.94060   0.09610   1.000
    Zn6     Zn   0.03480   0.04160   0.12490   1.000
    O22     O    0.07900   0.97000   0.25200   1.000
    C48     C    0.47000   0.98500   0.15530   1.000
    C49     C    0.31800   0.99100   0.15400   1.000
    C50     C    0.24200   0.01000   0.24800   1.000
    O23     O    0.75500   0.99800   0.15800   1.000
    H33     H    0.52080   0.96900   0.09270   1.000
    H34     H    0.26470   0.96900   0.09270   1.000
    C51     C    0.31700   0.03000   0.34300   1.000
    C52     C    0.46900   0.02200   0.34400   1.000
    O24     O    0.23900   0.02300   0.16290   1.000
    C53     C    0.54200   0.03000   0.15600   1.000
    H35     H    0.49050   0.04840   0.09450   1.000
    C54     C    0.68500   0.03200   0.15500   1.000
    H36     H    0.73310   0.05440   0.09220   1.000
    O25     O    0.03200   0.23700   0.41320   1.000
    C55     C    0.03000   0.54500   0.40900   1.000
    H37     H    0.04850   0.49440   0.34670   1.000
    C56     C    0.03400   0.69100   0.40800   1.000
    H38     H    0.05940   0.74060   0.34610   1.000
    Zn7     Zn   0.95840   0.03480   0.37490   1.000
    O26     O    0.03000   0.07900   0.50200   1.000
    C57     C    0.01500   0.47000   0.40530   1.000
    C58     C    0.00900   0.31800   0.40400   1.000
    C59     C    0.99000   0.24200   0.49800   1.000
    O27     O    0.00200   0.75500   0.40800   1.000
    H39     H    0.03100   0.52080   0.34270   1.000
    H40     H    0.03100   0.26470   0.34270   1.000
    C60     C    0.97000   0.31700   0.59300   1.000
    C61     C    0.97800   0.46900   0.59400   1.000
    O28     O    0.97700   0.23900   0.41290   1.000
    C62     C    0.97000   0.54200   0.40600   1.000
    H41     H    0.95160   0.49050   0.34450   1.000
    C63     C    0.96800   0.68500   0.40500   1.000
    H42     H    0.94560   0.73310   0.34220   1.000
    O29     O    0.96800   0.76300   0.91320   1.000
    C64     C    0.97000   0.45500   0.90900   1.000
    H43     H    0.95150   0.50560   0.84670   1.000
    C65     C    0.96600   0.30900   0.90800   1.000
    H44     H    0.94060   0.25940   0.84610   1.000
    Zn8     Zn   0.04160   0.96520   0.87490   1.000
    O30     O    0.97000   0.92100   0.00200   1.000
    C66     C    0.98500   0.53000   0.90530   1.000
    C67     C    0.99100   0.68200   0.90400   1.000
    C68     C    0.01000   0.75800   0.99800   1.000
    O31     O    0.99800   0.24500   0.90800   1.000
    H45     H    0.96900   0.47920   0.84270   1.000
    H46     H    0.96900   0.73530   0.84270   1.000
    C69     C    0.03000   0.68300   0.09300   1.000
    C70     C    0.02200   0.53100   0.09400   1.000
    O32     O    0.02300   0.76100   0.91290   1.000
    C71     C    0.03000   0.45800   0.90600   1.000
    H47     H    0.04840   0.50950   0.84450   1.000
    C72     C    0.03200   0.31500   0.90500   1.000
    H48     H    0.05440   0.26690   0.84220   1.000
    Zn9     Zn   0.03670   0.03670   0.37500   1.000
    Zn10    Zn   0.96330   0.96330   0.87500   1.000
    Zn11    Zn   0.96330   0.03670   0.62500   1.000
    Zn12    Zn   0.03670   0.96330   0.12500   1.000
    C73     C    0.30100   0.00000   0.25000   1.000
    C74     C    0.46400   0.00000   0.25000   1.000
    C75     C    0.77100   0.00000   0.25000   1.000
    O33     O    0.91690   0.00000   0.25000   1.000
    C76     C    0.73100   0.00000   0.25000   1.000
    C77     C    0.54600   0.00000   0.25000   1.000
    C78     C    0.69900   0.00000   0.75000   1.000
    C79     C    0.53600   0.00000   0.75000   1.000
    C80     C    0.22900   0.00000   0.75000   1.000
    O34     O    0.08310   0.00000   0.75000   1.000
    C81     C    0.26900   0.00000   0.75000   1.000
    C82     C    0.45400   0.00000   0.75000   1.000
    C83     C    0.00000   0.30100   0.50000   1.000
    C84     C    0.00000   0.46400   0.50000   1.000
    C85     C    0.00000   0.77100   0.50000   1.000
    O35     O    0.00000   0.91690   0.50000   1.000
    C86     C    0.00000   0.73100   0.50000   1.000
    C87     C    0.00000   0.54600   0.50000   1.000
    C88     C    0.00000   0.69900   0.00000   1.000
    C89     C    0.00000   0.53600   0.00000   1.000
    C90     C    0.00000   0.22900   0.00000   1.000
    O36     O    0.00000   0.08310   0.00000   1.000
    C91     C    0.00000   0.26900   0.00000   1.000
    C92     C    0.00000   0.45400   0.00000   1.000
