# CIF file generated by openbabel 2.4.1, see http://openbabel.sf.net
data_I
_chemical_name_common 'image0'
_cell_length_a 34.351
_cell_length_b 34.351
_cell_length_c 14.71
_cell_angle_alpha 90
_cell_angle_beta 90
_cell_angle_gamma 90
_space_group_name_H-M_alt 'P 1'
_space_group_name_Hall 'P 1'
loop_
    _symmetry_equiv_pos_as_xyz
    x,y,z
loop_
    _atom_site_label
    _atom_site_type_symbol
    _atom_site_fract_x
    _atom_site_fract_y
    _atom_site_fract_z
    _atom_site_occupancy
    O1      O    0.24960   0.67000   0.17300   1.000
    O2      O    0.19450   0.65940   0.09030   1.000
    O3      O    0.21280   0.36250   0.41080   1.000
    O4      O    0.21360   0.73640   0.11570   1.000
    H1      H    0.20560   0.72860   0.17670   1.000
    O5      O    0.27430   0.35310   0.32810   1.000
    C1      C    0.22290   0.64900   0.14600   1.000
    C2      C    0.22230   0.60840   0.17900   1.000
    C3      C    0.24980   0.59550   0.24160   1.000
    H2      H    0.26710   0.61380   0.26990   1.000
    C4      C    0.25220   0.55620   0.26310   1.000
    H3      H    0.27110   0.54730   0.30630   1.000
    C5      C    0.22710   0.52970   0.22220   1.000
    C6      C    0.19960   0.54260   0.15960   1.000
    C7      C    0.19720   0.58190   0.13810   1.000
    H4      H    0.17830   0.59080   0.09490   1.000
    C8      C    0.22980   0.48890   0.25070   1.000
    C9      C    0.25830   0.46440   0.21530   1.000
    H5      H    0.27520   0.47350   0.16810   1.000
    C10     C    0.26210   0.42670   0.24830   1.000
    H6      H    0.28180   0.40980   0.22380   1.000
    C11     C    0.23750   0.41340   0.31670   1.000
    C12     C    0.20910   0.43790   0.35210   1.000
    H7      H    0.19210   0.42870   0.39930   1.000
    C13     C    0.20520   0.47560   0.31910   1.000
    C14     C    0.17990   0.50330   0.39080   1.000
    H8      H    0.16520   0.48700   0.43130   1.000
    H9      H    0.19740   0.51920   0.42540   1.000
    H10     H    0.16240   0.51960   0.35710   1.000
    C15     C    0.24090   0.37330   0.35410   1.000
    O6      O    0.75040   0.33000   0.17300   1.000
    O7      O    0.80550   0.34060   0.09030   1.000
    O8      O    0.78720   0.63750   0.41080   1.000
    O9      O    0.78640   0.26360   0.11570   1.000
    H11     H    0.79440   0.27140   0.17670   1.000
    O10     O    0.72570   0.64690   0.32810   1.000
    C16     C    0.77710   0.35100   0.14600   1.000
    C17     C    0.77770   0.39160   0.17900   1.000
    C18     C    0.75020   0.40450   0.24160   1.000
    H12     H    0.73290   0.38620   0.26990   1.000
    C19     C    0.74780   0.44380   0.26310   1.000
    H13     H    0.72890   0.45270   0.30630   1.000
    C20     C    0.77290   0.47030   0.22220   1.000
    C21     C    0.80040   0.45740   0.15960   1.000
    C22     C    0.80280   0.41810   0.13810   1.000
    H14     H    0.82170   0.40920   0.09490   1.000
    C23     C    0.77020   0.51110   0.25070   1.000
    C24     C    0.74170   0.53560   0.21530   1.000
    H15     H    0.72480   0.52650   0.16810   1.000
    C25     C    0.73790   0.57330   0.24830   1.000
    H16     H    0.71820   0.59020   0.22380   1.000
    C26     C    0.76250   0.58660   0.31670   1.000
    C27     C    0.79090   0.56210   0.35210   1.000
    H17     H    0.80790   0.57130   0.39930   1.000
    C28     C    0.79480   0.52440   0.31910   1.000
    C29     C    0.82010   0.49670   0.39080   1.000
    H18     H    0.83480   0.51300   0.43130   1.000
    H19     H    0.80260   0.48080   0.42540   1.000
    H20     H    0.83760   0.48040   0.35710   1.000
    C30     C    0.75910   0.62670   0.35410   1.000
    O11     O    0.83000   0.74960   0.67300   1.000
    O12     O    0.84060   0.69450   0.59030   1.000
    O13     O    0.13750   0.71280   0.91080   1.000
    O14     O    0.76360   0.71360   0.61570   1.000
    H21     H    0.77140   0.70560   0.67670   1.000
    O15     O    0.14690   0.77430   0.82810   1.000
    C31     C    0.85100   0.72290   0.64600   1.000
    C32     C    0.89160   0.72230   0.67900   1.000
    C33     C    0.90450   0.74980   0.74160   1.000
    H22     H    0.88620   0.76710   0.76990   1.000
    C34     C    0.94380   0.75220   0.76310   1.000
    H23     H    0.95270   0.77110   0.80630   1.000
    C35     C    0.97030   0.72710   0.72220   1.000
    C36     C    0.95740   0.69960   0.65960   1.000
    C37     C    0.91810   0.69720   0.63810   1.000
    H24     H    0.90920   0.67830   0.59490   1.000
    C38     C    0.01110   0.72980   0.75070   1.000
    C39     C    0.03560   0.75830   0.71530   1.000
    H25     H    0.02650   0.77520   0.66810   1.000
    C40     C    0.07330   0.76210   0.74830   1.000
    H26     H    0.09020   0.78180   0.72380   1.000
    C41     C    0.08660   0.73750   0.81670   1.000
    C42     C    0.06210   0.70910   0.85210   1.000
    H27     H    0.07130   0.69210   0.89930   1.000
    C43     C    0.02440   0.70520   0.81910   1.000
    C44     C    0.99670   0.67990   0.89080   1.000
    H28     H    0.01300   0.66520   0.93130   1.000
    H29     H    0.98080   0.69740   0.92540   1.000
    H30     H    0.98040   0.66240   0.85710   1.000
    C45     C    0.12670   0.74090   0.85410   1.000
    O16     O    0.17000   0.25040   0.67300   1.000
    O17     O    0.15940   0.30550   0.59030   1.000
    O18     O    0.86250   0.28720   0.91080   1.000
    O19     O    0.23640   0.28640   0.61570   1.000
    H31     H    0.22860   0.29440   0.67670   1.000
    O20     O    0.85310   0.22570   0.82810   1.000
    C46     C    0.14900   0.27710   0.64600   1.000
    C47     C    0.10840   0.27770   0.67900   1.000
    C48     C    0.09550   0.25020   0.74160   1.000
    H32     H    0.11380   0.23290   0.76990   1.000
    C49     C    0.05620   0.24780   0.76310   1.000
    H33     H    0.04730   0.22890   0.80630   1.000
    C50     C    0.02970   0.27290   0.72220   1.000
    C51     C    0.04260   0.30040   0.65960   1.000
    C52     C    0.08190   0.30280   0.63810   1.000
    H34     H    0.09080   0.32170   0.59490   1.000
    C53     C    0.98890   0.27020   0.75070   1.000
    C54     C    0.96440   0.24170   0.71530   1.000
    H35     H    0.97350   0.22480   0.66810   1.000
    C55     C    0.92670   0.23790   0.74830   1.000
    H36     H    0.90980   0.21820   0.72380   1.000
    C56     C    0.91340   0.26250   0.81670   1.000
    C57     C    0.93790   0.29090   0.85210   1.000
    H37     H    0.92870   0.30790   0.89930   1.000
    C58     C    0.97560   0.29480   0.81910   1.000
    C59     C    0.00330   0.32010   0.89080   1.000
    H38     H    0.98700   0.33480   0.93130   1.000
    H39     H    0.01920   0.30260   0.92540   1.000
    H40     H    0.01960   0.33760   0.85710   1.000
    C60     C    0.87330   0.25910   0.85410   1.000
    O21     O    0.25040   0.17000   0.32700   1.000
    O22     O    0.30550   0.15940   0.40970   1.000
    O23     O    0.28720   0.86250   0.08920   1.000
    O24     O    0.28640   0.23640   0.38430   1.000
    H41     H    0.29440   0.22860   0.32330   1.000
    O25     O    0.22570   0.85310   0.17190   1.000
    C61     C    0.27710   0.14900   0.35400   1.000
    C62     C    0.27770   0.10840   0.32100   1.000
    C63     C    0.25020   0.09550   0.25840   1.000
    H42     H    0.23290   0.11380   0.23010   1.000
    C64     C    0.24780   0.05620   0.23690   1.000
    H43     H    0.22890   0.04730   0.19370   1.000
    C65     C    0.27290   0.02970   0.27780   1.000
    C66     C    0.30040   0.04260   0.34040   1.000
    C67     C    0.30280   0.08190   0.36190   1.000
    H44     H    0.32170   0.09080   0.40510   1.000
    C68     C    0.27020   0.98890   0.24930   1.000
    C69     C    0.24170   0.96440   0.28470   1.000
    H45     H    0.22480   0.97350   0.33190   1.000
    C70     C    0.23790   0.92670   0.25170   1.000
    H46     H    0.21820   0.90980   0.27620   1.000
    C71     C    0.26250   0.91340   0.18330   1.000
    C72     C    0.29090   0.93790   0.14790   1.000
    H47     H    0.30790   0.92870   0.10070   1.000
    C73     C    0.29480   0.97560   0.18090   1.000
    C74     C    0.32010   0.00330   0.10920   1.000
    H48     H    0.33480   0.98700   0.06870   1.000
    H49     H    0.30260   0.01920   0.07460   1.000
    H50     H    0.33760   0.01960   0.14290   1.000
    C75     C    0.25910   0.87330   0.14590   1.000
    O26     O    0.74960   0.83000   0.32700   1.000
    O27     O    0.69450   0.84060   0.40970   1.000
    O28     O    0.71280   0.13750   0.08920   1.000
    O29     O    0.71360   0.76360   0.38430   1.000
    H51     H    0.70560   0.77140   0.32330   1.000
    O30     O    0.77430   0.14690   0.17190   1.000
    C76     C    0.72290   0.85100   0.35400   1.000
    C77     C    0.72230   0.89160   0.32100   1.000
    C78     C    0.74980   0.90450   0.25840   1.000
    H52     H    0.76710   0.88620   0.23010   1.000
    C79     C    0.75220   0.94380   0.23690   1.000
    H53     H    0.77110   0.95270   0.19370   1.000
    C80     C    0.72710   0.97030   0.27780   1.000
    C81     C    0.69960   0.95740   0.34040   1.000
    C82     C    0.69720   0.91810   0.36190   1.000
    H54     H    0.67830   0.90920   0.40510   1.000
    C83     C    0.72980   0.01110   0.24930   1.000
    C84     C    0.75830   0.03560   0.28470   1.000
    H55     H    0.77520   0.02650   0.33190   1.000
    C85     C    0.76210   0.07330   0.25170   1.000
    H56     H    0.78180   0.09020   0.27620   1.000
    C86     C    0.73750   0.08660   0.18330   1.000
    C87     C    0.70910   0.06210   0.14790   1.000
    H57     H    0.69210   0.07130   0.10070   1.000
    C88     C    0.70520   0.02440   0.18090   1.000
    C89     C    0.67990   0.99670   0.10920   1.000
    H58     H    0.66520   0.01300   0.06870   1.000
    H59     H    0.69740   0.98080   0.07460   1.000
    H60     H    0.66240   0.98040   0.14290   1.000
    C90     C    0.74090   0.12670   0.14590   1.000
    O31     O    0.67000   0.24960   0.82700   1.000
    O32     O    0.65940   0.19450   0.90970   1.000
    O33     O    0.36250   0.21280   0.58920   1.000
    O34     O    0.73640   0.21360   0.88430   1.000
    H61     H    0.72860   0.20560   0.82330   1.000
    O35     O    0.35310   0.27430   0.67190   1.000
    C91     C    0.64900   0.22290   0.85400   1.000
    C92     C    0.60840   0.22230   0.82100   1.000
    C93     C    0.59550   0.24980   0.75840   1.000
    H62     H    0.61380   0.26710   0.73010   1.000
    C94     C    0.55620   0.25220   0.73690   1.000
    H63     H    0.54730   0.27110   0.69370   1.000
    C95     C    0.52970   0.22710   0.77780   1.000
    C96     C    0.54260   0.19960   0.84040   1.000
    C97     C    0.58190   0.19720   0.86190   1.000
    H64     H    0.59080   0.17830   0.90510   1.000
    C98     C    0.48890   0.22980   0.74930   1.000
    C99     C    0.46440   0.25830   0.78470   1.000
    H65     H    0.47350   0.27520   0.83190   1.000
    C100    C    0.42670   0.26210   0.75170   1.000
    H66     H    0.40980   0.28180   0.77620   1.000
    C101    C    0.41340   0.23750   0.68330   1.000
    C102    C    0.43790   0.20910   0.64790   1.000
    H67     H    0.42870   0.19210   0.60070   1.000
    C103    C    0.47560   0.20520   0.68090   1.000
    C104    C    0.50330   0.17990   0.60920   1.000
    H68     H    0.48700   0.16520   0.56870   1.000
    H69     H    0.51920   0.19740   0.57460   1.000
    H70     H    0.51960   0.16240   0.64290   1.000
    C105    C    0.37330   0.24090   0.64590   1.000
    O36     O    0.33000   0.75040   0.82700   1.000
    O37     O    0.34060   0.80550   0.90970   1.000
    O38     O    0.63750   0.78720   0.58920   1.000
    O39     O    0.26360   0.78640   0.88430   1.000
    H71     H    0.27140   0.79440   0.82330   1.000
    O40     O    0.64690   0.72570   0.67190   1.000
    C106    C    0.35100   0.77710   0.85400   1.000
    C107    C    0.39160   0.77770   0.82100   1.000
    C108    C    0.40450   0.75020   0.75840   1.000
    H72     H    0.38620   0.73290   0.73010   1.000
    C109    C    0.44380   0.74780   0.73690   1.000
    H73     H    0.45270   0.72890   0.69370   1.000
    C110    C    0.47030   0.77290   0.77780   1.000
    C111    C    0.45740   0.80040   0.84040   1.000
    C112    C    0.41810   0.80280   0.86190   1.000
    H74     H    0.40920   0.82170   0.90510   1.000
    C113    C    0.51110   0.77020   0.74930   1.000
    C114    C    0.53560   0.74170   0.78470   1.000
    H75     H    0.52650   0.72480   0.83190   1.000
    C115    C    0.57330   0.73790   0.75170   1.000
    H76     H    0.59020   0.71820   0.77620   1.000
    C116    C    0.58660   0.76250   0.68330   1.000
    C117    C    0.56210   0.79090   0.64790   1.000
    H77     H    0.57130   0.80790   0.60070   1.000
    C118    C    0.52440   0.79480   0.68090   1.000
    C119    C    0.49670   0.82010   0.60920   1.000
    H78     H    0.51300   0.83480   0.56870   1.000
    H79     H    0.48080   0.80260   0.57460   1.000
    H80     H    0.48040   0.83760   0.64290   1.000
    C120    C    0.62670   0.75910   0.64590   1.000
    O41     O    0.75040   0.33000   0.82700   1.000
    O42     O    0.80550   0.34060   0.90970   1.000
    O43     O    0.78720   0.63750   0.58920   1.000
    O44     O    0.78640   0.26360   0.88430   1.000
    H81     H    0.79440   0.27140   0.82330   1.000
    O45     O    0.72570   0.64690   0.67190   1.000
    C121    C    0.77710   0.35100   0.85400   1.000
    C122    C    0.77770   0.39160   0.82100   1.000
    C123    C    0.75020   0.40450   0.75840   1.000
    H82     H    0.73290   0.38620   0.73010   1.000
    C124    C    0.74780   0.44380   0.73690   1.000
    H83     H    0.72890   0.45270   0.69370   1.000
    C125    C    0.77290   0.47030   0.77780   1.000
    C126    C    0.80040   0.45740   0.84040   1.000
    C127    C    0.80280   0.41810   0.86190   1.000
    H84     H    0.82170   0.40920   0.90510   1.000
    C128    C    0.77020   0.51110   0.74930   1.000
    C129    C    0.74170   0.53560   0.78470   1.000
    H85     H    0.72480   0.52650   0.83190   1.000
    C130    C    0.73790   0.57330   0.75170   1.000
    H86     H    0.71820   0.59020   0.77620   1.000
    C131    C    0.76250   0.58660   0.68330   1.000
    C132    C    0.79090   0.56210   0.64790   1.000
    H87     H    0.80790   0.57130   0.60070   1.000
    C133    C    0.79480   0.52440   0.68090   1.000
    C134    C    0.82010   0.49670   0.60920   1.000
    H88     H    0.83480   0.51300   0.56870   1.000
    H89     H    0.80260   0.48080   0.57460   1.000
    H90     H    0.83760   0.48040   0.64290   1.000
    C135    C    0.75910   0.62670   0.64590   1.000
    O46     O    0.24960   0.67000   0.82700   1.000
    O47     O    0.19450   0.65940   0.90970   1.000
    O48     O    0.21280   0.36250   0.58920   1.000
    O49     O    0.21360   0.73640   0.88430   1.000
    H91     H    0.20560   0.72860   0.82330   1.000
    O50     O    0.27430   0.35310   0.67190   1.000
    C136    C    0.22290   0.64900   0.85400   1.000
    C137    C    0.22230   0.60840   0.82100   1.000
    C138    C    0.24980   0.59550   0.75840   1.000
    H92     H    0.26710   0.61380   0.73010   1.000
    C139    C    0.25220   0.55620   0.73690   1.000
    H93     H    0.27110   0.54730   0.69370   1.000
    C140    C    0.22710   0.52970   0.77780   1.000
    C141    C    0.19960   0.54260   0.84040   1.000
    C142    C    0.19720   0.58190   0.86190   1.000
    H94     H    0.17830   0.59080   0.90510   1.000
    C143    C    0.22980   0.48890   0.74930   1.000
    C144    C    0.25830   0.46440   0.78470   1.000
    H95     H    0.27520   0.47350   0.83190   1.000
    C145    C    0.26210   0.42670   0.75170   1.000
    H96     H    0.28180   0.40980   0.77620   1.000
    C146    C    0.23750   0.41340   0.68330   1.000
    C147    C    0.20910   0.43790   0.64790   1.000
    H97     H    0.19210   0.42870   0.60070   1.000
    C148    C    0.20520   0.47560   0.68090   1.000
    C149    C    0.17990   0.50330   0.60920   1.000
    H98     H    0.16520   0.48700   0.56870   1.000
    H99     H    0.19740   0.51920   0.57460   1.000
    H100    H    0.16240   0.51960   0.64290   1.000
    C150    C    0.24090   0.37330   0.64590   1.000
    O51     O    0.17000   0.25040   0.32700   1.000
    O52     O    0.15940   0.30550   0.40970   1.000
    O53     O    0.86250   0.28720   0.08920   1.000
    O54     O    0.23640   0.28640   0.38430   1.000
    H101    H    0.22860   0.29440   0.32330   1.000
    O55     O    0.85310   0.22570   0.17190   1.000
    C151    C    0.14900   0.27710   0.35400   1.000
    C152    C    0.10840   0.27770   0.32100   1.000
    C153    C    0.09550   0.25020   0.25840   1.000
    H102    H    0.11380   0.23290   0.23010   1.000
    C154    C    0.05620   0.24780   0.23690   1.000
    H103    H    0.04730   0.22890   0.19370   1.000
    C155    C    0.02970   0.27290   0.27780   1.000
    C156    C    0.04260   0.30040   0.34040   1.000
    C157    C    0.08190   0.30280   0.36190   1.000
    H104    H    0.09080   0.32170   0.40510   1.000
    C158    C    0.98890   0.27020   0.24930   1.000
    C159    C    0.96440   0.24170   0.28470   1.000
    H105    H    0.97350   0.22480   0.33190   1.000
    C160    C    0.92670   0.23790   0.25170   1.000
    H106    H    0.90980   0.21820   0.27620   1.000
    C161    C    0.91340   0.26250   0.18330   1.000
    C162    C    0.93790   0.29090   0.14790   1.000
    H107    H    0.92870   0.30790   0.10070   1.000
    C163    C    0.97560   0.29480   0.18090   1.000
    C164    C    0.00330   0.32010   0.10920   1.000
    H108    H    0.98700   0.33480   0.06870   1.000
    H109    H    0.01920   0.30260   0.07460   1.000
    H110    H    0.01960   0.33760   0.14290   1.000
    C165    C    0.87330   0.25910   0.14590   1.000
    O56     O    0.83000   0.74960   0.32700   1.000
    O57     O    0.84060   0.69450   0.40970   1.000
    O58     O    0.13750   0.71280   0.08920   1.000
    O59     O    0.76360   0.71360   0.38430   1.000
    H111    H    0.77140   0.70560   0.32330   1.000
    O60     O    0.14690   0.77430   0.17190   1.000
    C166    C    0.85100   0.72290   0.35400   1.000
    C167    C    0.89160   0.72230   0.32100   1.000
    C168    C    0.90450   0.74980   0.25840   1.000
    H112    H    0.88620   0.76710   0.23010   1.000
    C169    C    0.94380   0.75220   0.23690   1.000
    H113    H    0.95270   0.77110   0.19370   1.000
    C170    C    0.97030   0.72710   0.27780   1.000
    C171    C    0.95740   0.69960   0.34040   1.000
    C172    C    0.91810   0.69720   0.36190   1.000
    H114    H    0.90920   0.67830   0.40510   1.000
    C173    C    0.01110   0.72980   0.24930   1.000
    C174    C    0.03560   0.75830   0.28470   1.000
    H115    H    0.02650   0.77520   0.33190   1.000
    C175    C    0.07330   0.76210   0.25170   1.000
    H116    H    0.09020   0.78180   0.27620   1.000
    C176    C    0.08660   0.73750   0.18330   1.000
    C177    C    0.06210   0.70910   0.14790   1.000
    H117    H    0.07130   0.69210   0.10070   1.000
    C178    C    0.02440   0.70520   0.18090   1.000
    C179    C    0.99670   0.67990   0.10920   1.000
    H118    H    0.01300   0.66520   0.06870   1.000
    H119    H    0.98080   0.69740   0.07460   1.000
    H120    H    0.98040   0.66240   0.14290   1.000
    C180    C    0.12670   0.74090   0.14590   1.000
    O61     O    0.74960   0.83000   0.67300   1.000
    O62     O    0.69450   0.84060   0.59030   1.000
    O63     O    0.71280   0.13750   0.91080   1.000
    O64     O    0.71360   0.76360   0.61570   1.000
    H121    H    0.70560   0.77140   0.67670   1.000
    O65     O    0.77430   0.14690   0.82810   1.000
    C181    C    0.72290   0.85100   0.64600   1.000
    C182    C    0.72230   0.89160   0.67900   1.000
    C183    C    0.74980   0.90450   0.74160   1.000
    H122    H    0.76710   0.88620   0.76990   1.000
    C184    C    0.75220   0.94380   0.76310   1.000
    H123    H    0.77110   0.95270   0.80630   1.000
    C185    C    0.72710   0.97030   0.72220   1.000
    C186    C    0.69960   0.95740   0.65960   1.000
    C187    C    0.69720   0.91810   0.63810   1.000
    H124    H    0.67830   0.90920   0.59490   1.000
    C188    C    0.72980   0.01110   0.75070   1.000
    C189    C    0.75830   0.03560   0.71530   1.000
    H125    H    0.77520   0.02650   0.66810   1.000
    C190    C    0.76210   0.07330   0.74830   1.000
    H126    H    0.78180   0.09020   0.72380   1.000
    C191    C    0.73750   0.08660   0.81670   1.000
    C192    C    0.70910   0.06210   0.85210   1.000
    H127    H    0.69210   0.07130   0.89930   1.000
    C193    C    0.70520   0.02440   0.81910   1.000
    C194    C    0.67990   0.99670   0.89080   1.000
    H128    H    0.66520   0.01300   0.93130   1.000
    H129    H    0.69740   0.98080   0.92540   1.000
    H130    H    0.66240   0.98040   0.85710   1.000
    C195    C    0.74090   0.12670   0.85410   1.000
    O66     O    0.25040   0.17000   0.67300   1.000
    O67     O    0.30550   0.15940   0.59030   1.000
    O68     O    0.28720   0.86250   0.91080   1.000
    O69     O    0.28640   0.23640   0.61570   1.000
    H131    H    0.29440   0.22860   0.67670   1.000
    O70     O    0.22570   0.85310   0.82810   1.000
    C196    C    0.27710   0.14900   0.64600   1.000
    C197    C    0.27770   0.10840   0.67900   1.000
    C198    C    0.25020   0.09550   0.74160   1.000
    H132    H    0.23290   0.11380   0.76990   1.000
    C199    C    0.24780   0.05620   0.76310   1.000
    H133    H    0.22890   0.04730   0.80630   1.000
    C200    C    0.27290   0.02970   0.72220   1.000
    C201    C    0.30040   0.04260   0.65960   1.000
    C202    C    0.30280   0.08190   0.63810   1.000
    H134    H    0.32170   0.09080   0.59490   1.000
    C203    C    0.27020   0.98890   0.75070   1.000
    C204    C    0.24170   0.96440   0.71530   1.000
    H135    H    0.22480   0.97350   0.66810   1.000
    C205    C    0.23790   0.92670   0.74830   1.000
    H136    H    0.21820   0.90980   0.72380   1.000
    C206    C    0.26250   0.91340   0.81670   1.000
    C207    C    0.29090   0.93790   0.85210   1.000
    H137    H    0.30790   0.92870   0.89930   1.000
    C208    C    0.29480   0.97560   0.81910   1.000
    C209    C    0.32010   0.00330   0.89080   1.000
    H138    H    0.33480   0.98700   0.93130   1.000
    H139    H    0.30260   0.01920   0.92540   1.000
    H140    H    0.33760   0.01960   0.85710   1.000
    C210    C    0.25910   0.87330   0.85410   1.000
    O71     O    0.33000   0.75040   0.17300   1.000
    O72     O    0.34060   0.80550   0.09030   1.000
    O73     O    0.63750   0.78720   0.41080   1.000
    O74     O    0.26360   0.78640   0.11570   1.000
    H141    H    0.27140   0.79440   0.17670   1.000
    O75     O    0.64690   0.72570   0.32810   1.000
    C211    C    0.35100   0.77710   0.14600   1.000
    C212    C    0.39160   0.77770   0.17900   1.000
    C213    C    0.40450   0.75020   0.24160   1.000
    H142    H    0.38620   0.73290   0.26990   1.000
    C214    C    0.44380   0.74780   0.26310   1.000
    H143    H    0.45270   0.72890   0.30630   1.000
    C215    C    0.47030   0.77290   0.22220   1.000
    C216    C    0.45740   0.80040   0.15960   1.000
    C217    C    0.41810   0.80280   0.13810   1.000
    H144    H    0.40920   0.82170   0.09490   1.000
    C218    C    0.51110   0.77020   0.25070   1.000
    C219    C    0.53560   0.74170   0.21530   1.000
    H145    H    0.52650   0.72480   0.16810   1.000
    C220    C    0.57330   0.73790   0.24830   1.000
    H146    H    0.59020   0.71820   0.22380   1.000
    C221    C    0.58660   0.76250   0.31670   1.000
    C222    C    0.56210   0.79090   0.35210   1.000
    H147    H    0.57130   0.80790   0.39930   1.000
    C223    C    0.52440   0.79480   0.31910   1.000
    C224    C    0.49670   0.82010   0.39080   1.000
    H148    H    0.51300   0.83480   0.43130   1.000
    H149    H    0.48080   0.80260   0.42540   1.000
    H150    H    0.48040   0.83760   0.35710   1.000
    C225    C    0.62670   0.75910   0.35410   1.000
    O76     O    0.67000   0.24960   0.17300   1.000
    O77     O    0.65940   0.19450   0.09030   1.000
    O78     O    0.36250   0.21280   0.41080   1.000
    O79     O    0.73640   0.21360   0.11570   1.000
    H151    H    0.72860   0.20560   0.17670   1.000
    O80     O    0.35310   0.27430   0.32810   1.000
    C226    C    0.64900   0.22290   0.14600   1.000
    C227    C    0.60840   0.22230   0.17900   1.000
    C228    C    0.59550   0.24980   0.24160   1.000
    H152    H    0.61380   0.26710   0.26990   1.000
    C229    C    0.55620   0.25220   0.26310   1.000
    H153    H    0.54730   0.27110   0.30630   1.000
    C230    C    0.52970   0.22710   0.22220   1.000
    C231    C    0.54260   0.19960   0.15960   1.000
    C232    C    0.58190   0.19720   0.13810   1.000
    H154    H    0.59080   0.17830   0.09490   1.000
    C233    C    0.48890   0.22980   0.25070   1.000
    C234    C    0.46440   0.25830   0.21530   1.000
    H155    H    0.47350   0.27520   0.16810   1.000
    C235    C    0.42670   0.26210   0.24830   1.000
    H156    H    0.40980   0.28180   0.22380   1.000
    C236    C    0.41340   0.23750   0.31670   1.000
    C237    C    0.43790   0.20910   0.35210   1.000
    H157    H    0.42870   0.19210   0.39930   1.000
    C238    C    0.47560   0.20520   0.31910   1.000
    C239    C    0.50330   0.17990   0.39080   1.000
    H158    H    0.48700   0.16520   0.43130   1.000
    H159    H    0.51920   0.19740   0.42540   1.000
    H160    H    0.51960   0.16240   0.35710   1.000
    C240    C    0.37330   0.24090   0.35410   1.000
    Zr1     Zr   0.27400   0.72600   0.11980   1.000
    Zr2     Zr   0.20220   0.79780   0.88080   1.000
    O81     O    0.15640   0.84360   0.91900   1.000
    O82     O    0.21420   0.78580   0.26490   1.000
    O83     O    0.26280   0.73720   0.26330   1.000
    O84     O    0.32050   0.67950   0.09250   1.000
    H161    H    0.32330   0.67670   0.03620   1.000
    C241    C    0.23860   0.76140   0.30600   1.000
    C242    C    0.26270   0.73730   0.46100   1.000
    C243    C    0.23890   0.76110   0.40850   1.000
    C244    C    0.21320   0.78680   0.45030   1.000
    H162    H    0.19650   0.80350   0.41580   1.000
    C245    C    0.26090   0.73910   0.55530   1.000
    H163    H    0.27730   0.72270   0.59140   1.000
    N1      N    0.28870   0.71130   0.41550   1.000
    H164    H    0.28940   0.71060   0.35440   1.000
    H165    H    0.30440   0.69560   0.44800   1.000
    C246    C    0.10140   0.89860   0.91810   1.000
    H166    H    0.11130   0.88870   0.86160   1.000
    C247    C    0.07280   0.92720   0.91810   1.000
    H167    H    0.06290   0.93710   0.86160   1.000
    C248    C    0.01370   0.98630   0.91710   1.000
    C249    C    0.98510   0.01490   0.91490   1.000
    O85     O    0.02880   0.97120   0.83370   1.000
    C250    C    0.00950   0.99050   0.76020   1.000
    H168    H    0.01925   0.98075   0.70350   1.000
    H169    H    0.97480   0.02520   0.85930   1.000
    Zr3     Zr   0.72600   0.27400   0.11980   1.000
    Zr4     Zr   0.79780   0.20220   0.88080   1.000
    O86     O    0.84360   0.15640   0.91900   1.000
    O87     O    0.78580   0.21420   0.26490   1.000
    O88     O    0.73720   0.26280   0.26330   1.000
    O89     O    0.67950   0.32050   0.09250   1.000
    H170    H    0.67670   0.32330   0.03620   1.000
    C251    C    0.76140   0.23860   0.30600   1.000
    C252    C    0.73730   0.26270   0.46100   1.000
    C253    C    0.76110   0.23890   0.40850   1.000
    C254    C    0.78680   0.21320   0.45030   1.000
    H171    H    0.80350   0.19650   0.41580   1.000
    C255    C    0.73910   0.26090   0.55530   1.000
    H172    H    0.72270   0.27730   0.59140   1.000
    N2      N    0.71130   0.28870   0.41550   1.000
    H173    H    0.71060   0.28940   0.35440   1.000
    H174    H    0.69560   0.30440   0.44800   1.000
    C256    C    0.89860   0.10140   0.91810   1.000
    H175    H    0.88870   0.11130   0.86160   1.000
    C257    C    0.92720   0.07280   0.91810   1.000
    H176    H    0.93710   0.06290   0.86160   1.000
    C258    C    0.98630   0.01370   0.91710   1.000
    C259    C    0.01490   0.98510   0.91490   1.000
    O90     O    0.97120   0.02880   0.83370   1.000
    C260    C    0.99050   0.00950   0.76020   1.000
    H177    H    0.98075   0.01925   0.70350   1.000
    H178    H    0.02520   0.97480   0.85930   1.000
    Zr5     Zr   0.77400   0.77400   0.61980   1.000
    Zr6     Zr   0.70220   0.70220   0.38080   1.000
    O91     O    0.65640   0.65640   0.41900   1.000
    O92     O    0.71420   0.71420   0.76490   1.000
    O93     O    0.76280   0.76280   0.76330   1.000
    O94     O    0.82050   0.82050   0.59250   1.000
    H179    H    0.82330   0.82330   0.53620   1.000
    C261    C    0.73860   0.73860   0.80600   1.000
    C262    C    0.76270   0.76270   0.96100   1.000
    C263    C    0.73890   0.73890   0.90850   1.000
    C264    C    0.71320   0.71320   0.95030   1.000
    H180    H    0.69650   0.69650   0.91580   1.000
    C265    C    0.76090   0.76090   0.05530   1.000
    H181    H    0.77730   0.77730   0.09140   1.000
    N3      N    0.78870   0.78870   0.91550   1.000
    H182    H    0.78940   0.78940   0.85440   1.000
    H183    H    0.80440   0.80440   0.94800   1.000
    C266    C    0.60140   0.60140   0.41810   1.000
    H184    H    0.61130   0.61130   0.36160   1.000
    C267    C    0.57280   0.57280   0.41810   1.000
    H185    H    0.56290   0.56290   0.36160   1.000
    C268    C    0.51370   0.51370   0.41710   1.000
    C269    C    0.48510   0.48510   0.41490   1.000
    O95     O    0.52880   0.52880   0.33370   1.000
    C270    C    0.50950   0.50950   0.26020   1.000
    H186    H    0.51925   0.51925   0.20350   1.000
    H187    H    0.47480   0.47480   0.35930   1.000
    Zr7     Zr   0.22600   0.22600   0.61980   1.000
    Zr8     Zr   0.29780   0.29780   0.38080   1.000
    O96     O    0.34360   0.34360   0.41900   1.000
    O97     O    0.28580   0.28580   0.76490   1.000
    O98     O    0.23720   0.23720   0.76330   1.000
    O99     O    0.17950   0.17950   0.59250   1.000
    H188    H    0.17670   0.17670   0.53620   1.000
    C271    C    0.26140   0.26140   0.80600   1.000
    C272    C    0.23730   0.23730   0.96100   1.000
    C273    C    0.26110   0.26110   0.90850   1.000
    C274    C    0.28680   0.28680   0.95030   1.000
    H189    H    0.30350   0.30350   0.91580   1.000
    C275    C    0.23910   0.23910   0.05530   1.000
    H190    H    0.22270   0.22270   0.09140   1.000
    N4      N    0.21130   0.21130   0.91550   1.000
    H191    H    0.21060   0.21060   0.85440   1.000
    H192    H    0.19560   0.19560   0.94800   1.000
    C276    C    0.39860   0.39860   0.41810   1.000
    H193    H    0.38870   0.38870   0.36160   1.000
    C277    C    0.42720   0.42720   0.41810   1.000
    H194    H    0.43710   0.43710   0.36160   1.000
    C278    C    0.48630   0.48630   0.41710   1.000
    C279    C    0.51490   0.51490   0.41490   1.000
    O100    O    0.47120   0.47120   0.33370   1.000
    C280    C    0.49050   0.49050   0.26020   1.000
    H195    H    0.48075   0.48075   0.20350   1.000
    H196    H    0.52520   0.52520   0.35930   1.000
    Zr9     Zr   0.22600   0.22600   0.38020   1.000
    Zr10    Zr   0.29780   0.29780   0.61920   1.000
    O101    O    0.34360   0.34360   0.58100   1.000
    O102    O    0.28580   0.28580   0.23510   1.000
    O103    O    0.23720   0.23720   0.23670   1.000
    O104    O    0.17950   0.17950   0.40750   1.000
    H197    H    0.17670   0.17670   0.46380   1.000
    C281    C    0.26140   0.26140   0.19400   1.000
    C282    C    0.23730   0.23730   0.03900   1.000
    C283    C    0.26110   0.26110   0.09150   1.000
    C284    C    0.28680   0.28680   0.04970   1.000
    H198    H    0.30350   0.30350   0.08420   1.000
    C285    C    0.23910   0.23910   0.94470   1.000
    H199    H    0.22270   0.22270   0.90860   1.000
    N5      N    0.21130   0.21130   0.08450   1.000
    H200    H    0.21060   0.21060   0.14560   1.000
    H201    H    0.19560   0.19560   0.05200   1.000
    C286    C    0.39860   0.39860   0.58190   1.000
    H202    H    0.38870   0.38870   0.63840   1.000
    C287    C    0.42720   0.42720   0.58190   1.000
    H203    H    0.43710   0.43710   0.63840   1.000
    C288    C    0.48630   0.48630   0.58290   1.000
    C289    C    0.51490   0.51490   0.58510   1.000
    O105    O    0.47120   0.47120   0.66630   1.000
    C290    C    0.49050   0.49050   0.73980   1.000
    H204    H    0.48075   0.48075   0.79650   1.000
    H205    H    0.52520   0.52520   0.64070   1.000
    Zr11    Zr   0.77400   0.77400   0.38020   1.000
    Zr12    Zr   0.70220   0.70220   0.61920   1.000
    O106    O    0.65640   0.65640   0.58100   1.000
    O107    O    0.71420   0.71420   0.23510   1.000
    O108    O    0.76280   0.76280   0.23670   1.000
    O109    O    0.82050   0.82050   0.40750   1.000
    H206    H    0.82330   0.82330   0.46380   1.000
    C291    C    0.73860   0.73860   0.19400   1.000
    C292    C    0.76270   0.76270   0.03900   1.000
    C293    C    0.73890   0.73890   0.09150   1.000
    C294    C    0.71320   0.71320   0.04970   1.000
    H207    H    0.69650   0.69650   0.08420   1.000
    C295    C    0.76090   0.76090   0.94470   1.000
    H208    H    0.77730   0.77730   0.90860   1.000
    N6      N    0.78870   0.78870   0.08450   1.000
    H209    H    0.78940   0.78940   0.14560   1.000
    H210    H    0.80440   0.80440   0.05200   1.000
    C296    C    0.60140   0.60140   0.58190   1.000
    H211    H    0.61130   0.61130   0.63840   1.000
    C297    C    0.57280   0.57280   0.58190   1.000
    H212    H    0.56290   0.56290   0.63840   1.000
    C298    C    0.51370   0.51370   0.58290   1.000
    C299    C    0.48510   0.48510   0.58510   1.000
    O110    O    0.52880   0.52880   0.66630   1.000
    C300    C    0.50950   0.50950   0.73980   1.000
    H213    H    0.51925   0.51925   0.79650   1.000
    H214    H    0.47480   0.47480   0.64070   1.000
    Zr13    Zr   0.72600   0.27400   0.88020   1.000
    Zr14    Zr   0.79780   0.20220   0.11920   1.000
    O111    O    0.84360   0.15640   0.08100   1.000
    O112    O    0.78580   0.21420   0.73510   1.000
    O113    O    0.73720   0.26280   0.73670   1.000
    O114    O    0.67950   0.32050   0.90750   1.000
    H215    H    0.67670   0.32330   0.96380   1.000
    C301    C    0.76140   0.23860   0.69400   1.000
    C302    C    0.73730   0.26270   0.53900   1.000
    C303    C    0.76110   0.23890   0.59150   1.000
    C304    C    0.78680   0.21320   0.54970   1.000
    H216    H    0.80350   0.19650   0.58420   1.000
    C305    C    0.73910   0.26090   0.44470   1.000
    H217    H    0.72270   0.27730   0.40860   1.000
    N7      N    0.71130   0.28870   0.58450   1.000
    H218    H    0.71060   0.28940   0.64560   1.000
    H219    H    0.69560   0.30440   0.55200   1.000
    C306    C    0.89860   0.10140   0.08190   1.000
    H220    H    0.88870   0.11130   0.13840   1.000
    C307    C    0.92720   0.07280   0.08190   1.000
    H221    H    0.93710   0.06290   0.13840   1.000
    C308    C    0.98630   0.01370   0.08290   1.000
    C309    C    0.01490   0.98510   0.08510   1.000
    O115    O    0.97120   0.02880   0.16630   1.000
    C310    C    0.99050   0.00950   0.23980   1.000
    H222    H    0.98075   0.01925   0.29650   1.000
    H223    H    0.02520   0.97480   0.14070   1.000
    Zr15    Zr   0.27400   0.72600   0.88020   1.000
    Zr16    Zr   0.20220   0.79780   0.11920   1.000
    O116    O    0.15640   0.84360   0.08100   1.000
    O117    O    0.21420   0.78580   0.73510   1.000
    O118    O    0.26280   0.73720   0.73670   1.000
    O119    O    0.32050   0.67950   0.90750   1.000
    H224    H    0.32330   0.67670   0.96380   1.000
    C311    C    0.23860   0.76140   0.69400   1.000
    C312    C    0.26270   0.73730   0.53900   1.000
    C313    C    0.23890   0.76110   0.59150   1.000
    C314    C    0.21320   0.78680   0.54970   1.000
    H225    H    0.19650   0.80350   0.58420   1.000
    C315    C    0.26090   0.73910   0.44470   1.000
    H226    H    0.27730   0.72270   0.40860   1.000
    N8      N    0.28870   0.71130   0.58450   1.000
    H227    H    0.28940   0.71060   0.64560   1.000
    H228    H    0.30440   0.69560   0.55200   1.000
    C316    C    0.10140   0.89860   0.08190   1.000
    H229    H    0.11130   0.88870   0.13840   1.000
    C317    C    0.07280   0.92720   0.08190   1.000
    H230    H    0.06290   0.93710   0.13840   1.000
    C318    C    0.01370   0.98630   0.08290   1.000
    C319    C    0.98510   0.01490   0.08510   1.000
    O120    O    0.02880   0.97120   0.16630   1.000
    C320    C    0.00950   0.99050   0.23980   1.000
    H231    H    0.01925   0.98075   0.29650   1.000
    H232    H    0.97480   0.02520   0.14070   1.000
    Zr17    Zr   0.18790   0.71060   0.00000   1.000
    O121    O    0.29840   0.74940   0.00000   1.000
    H233    H    0.32440   0.73780   0.00000   1.000
    O122    O    0.17760   0.77100   0.00000   1.000
    H234    H    0.15000   0.77440   0.00000   1.000
    Zr18    Zr   0.81210   0.28940   0.00000   1.000
    O123    O    0.70160   0.25060   0.00000   1.000
    H235    H    0.67560   0.26220   0.00000   1.000
    O124    O    0.82240   0.22900   0.00000   1.000
    H236    H    0.85000   0.22560   0.00000   1.000
    Zr19    Zr   0.78940   0.68790   0.50000   1.000
    O125    O    0.75060   0.79840   0.50000   1.000
    H237    H    0.76220   0.82440   0.50000   1.000
    O126    O    0.72900   0.67760   0.50000   1.000
    H238    H    0.72560   0.65000   0.50000   1.000
    Zr20    Zr   0.21060   0.31210   0.50000   1.000
    O127    O    0.24940   0.20160   0.50000   1.000
    H239    H    0.23780   0.17560   0.50000   1.000
    O128    O    0.27100   0.32240   0.50000   1.000
    H240    H    0.27440   0.35000   0.50000   1.000
    Zr21    Zr   0.31210   0.21060   0.50000   1.000
    O129    O    0.20160   0.24940   0.50000   1.000
    H241    H    0.17560   0.23780   0.50000   1.000
    O130    O    0.32240   0.27100   0.50000   1.000
    H242    H    0.35000   0.27440   0.50000   1.000
    Zr22    Zr   0.68790   0.78940   0.50000   1.000
    O131    O    0.79840   0.75060   0.50000   1.000
    H243    H    0.82440   0.76220   0.50000   1.000
    O132    O    0.67760   0.72900   0.50000   1.000
    H244    H    0.65000   0.72560   0.50000   1.000
    Zr23    Zr   0.71060   0.18790   0.00000   1.000
    O133    O    0.74940   0.29840   0.00000   1.000
    H245    H    0.73780   0.32440   0.00000   1.000
    O134    O    0.77100   0.17760   0.00000   1.000
    H246    H    0.77440   0.15000   0.00000   1.000
    Zr24    Zr   0.28940   0.81210   0.00000   1.000
    O135    O    0.25060   0.70160   0.00000   1.000
    H247    H    0.26220   0.67560   0.00000   1.000
    O136    O    0.22900   0.82240   0.00000   1.000
    H248    H    0.22560   0.85000   0.00000   1.000
    C321    C    0.14670   0.85330   0.00000   1.000
    C322    C    0.11570   0.88430   0.00000   1.000
    C323    C    0.05845   0.94155   0.00000   1.000
    C324    C    0.02740   0.97260   0.00000   1.000
    C325    C    0.85330   0.14670   0.00000   1.000
    C326    C    0.88430   0.11570   0.00000   1.000
    C327    C    0.94155   0.05845   0.00000   1.000
    C328    C    0.97260   0.02740   0.00000   1.000
    C329    C    0.64670   0.64670   0.50000   1.000
    C330    C    0.61570   0.61570   0.50000   1.000
    C331    C    0.55845   0.55845   0.50000   1.000
    C332    C    0.52740   0.52740   0.50000   1.000
    C333    C    0.35330   0.35330   0.50000   1.000
    C334    C    0.38430   0.38430   0.50000   1.000
    C335    C    0.44155   0.44155   0.50000   1.000
    C336    C    0.47260   0.47260   0.50000   1.000
    H249    H    0.98200   0.98200   0.76400   1.000
    H250    H    0.01430   0.01430   0.76400   1.000
    H251    H    0.01800   0.01800   0.76400   1.000
    H252    H    0.98570   0.98570   0.76400   1.000
    H253    H    0.51800   0.48200   0.26400   1.000
    H254    H    0.48570   0.51430   0.26400   1.000
    H255    H    0.48200   0.51800   0.26400   1.000
    H256    H    0.51430   0.48570   0.26400   1.000
    H257    H    0.51800   0.48200   0.73600   1.000
    H258    H    0.48570   0.51430   0.73600   1.000
    H259    H    0.48200   0.51800   0.73600   1.000
    H260    H    0.51430   0.48570   0.73600   1.000
    H261    H    0.98200   0.98200   0.23600   1.000
    H262    H    0.01430   0.01430   0.23600   1.000
    H263    H    0.01800   0.01800   0.23600   1.000
    H264    H    0.98570   0.98570   0.23600   1.000
