# CIF file generated by openbabel 2.4.1, see http://openbabel.sf.net
data_I
_chemical_name_common 'image0'
_cell_length_a 13.7642
_cell_length_b 15.6796
_cell_length_c 4.6902
_cell_angle_alpha 90
_cell_angle_beta 90
_cell_angle_gamma 90
_space_group_name_H-M_alt 'P 1'
_space_group_name_Hall 'P 1'
loop_
    _symmetry_equiv_pos_as_xyz
    x,y,z
loop_
    _atom_site_label
    _atom_site_type_symbol
    _atom_site_fract_x
    _atom_site_fract_y
    _atom_site_fract_z
    _atom_site_occupancy
    V1      V    0.49010   0.51620   0.02160   1.000
    P1      P    0.63780   0.57580   0.48950   1.000
    O1      O    0.64930   0.66720   0.37960   1.000
    O2      O    0.55860   0.57730   0.71580   1.000
    O3      O    0.61610   0.51320   0.25070   1.000
    O4      O    0.43700   0.60040   0.17100   1.000
    V2      V    0.00990   0.98380   0.02160   1.000
    P2      P    0.86220   0.92420   0.48950   1.000
    O5      O    0.85070   0.83280   0.37960   1.000
    O6      O    0.94140   0.92270   0.71580   1.000
    O7      O    0.88390   0.98680   0.25070   1.000
    O8      O    0.06300   0.89960   0.17100   1.000
    V3      V    0.50990   0.01620   0.97840   1.000
    P3      P    0.36220   0.07580   0.51050   1.000
    O9      O    0.35070   0.16720   0.62040   1.000
    O10     O    0.44140   0.07730   0.28420   1.000
    O11     O    0.38390   0.01320   0.74930   1.000
    O12     O    0.56300   0.10040   0.82900   1.000
    V4      V    0.99010   0.48380   0.97840   1.000
    P4      P    0.13780   0.42420   0.51050   1.000
    O13     O    0.14930   0.33280   0.62040   1.000
    O14     O    0.05860   0.42270   0.28420   1.000
    O15     O    0.11610   0.48680   0.74930   1.000
    O16     O    0.93700   0.39960   0.82900   1.000
    V5      V    0.50990   0.48380   0.97840   1.000
    P5      P    0.36220   0.42420   0.51050   1.000
    O17     O    0.35070   0.33280   0.62040   1.000
    O18     O    0.44140   0.42270   0.28420   1.000
    O19     O    0.38390   0.48680   0.74930   1.000
    O20     O    0.56300   0.39960   0.82900   1.000
    V6      V    0.99010   0.01620   0.97840   1.000
    P6      P    0.13780   0.07580   0.51050   1.000
    O21     O    0.14930   0.16720   0.62040   1.000
    O22     O    0.05860   0.07730   0.28420   1.000
    O23     O    0.11610   0.01320   0.74930   1.000
    O24     O    0.93700   0.10040   0.82900   1.000
    V7      V    0.49010   0.98380   0.02160   1.000
    P7      P    0.63780   0.92420   0.48950   1.000
    O25     O    0.64930   0.83280   0.37960   1.000
    O26     O    0.55860   0.92270   0.71580   1.000
    O27     O    0.61610   0.98680   0.25070   1.000
    O28     O    0.43700   0.89960   0.17100   1.000
    V8      V    0.00990   0.51620   0.02160   1.000
    P8      P    0.86220   0.57580   0.48950   1.000
    O29     O    0.85070   0.66720   0.37960   1.000
    O30     O    0.94140   0.57730   0.71580   1.000
    O31     O    0.88390   0.51320   0.25070   1.000
    O32     O    0.06300   0.60040   0.17100   1.000
    V9      V    0.75000   0.75000   0.28080   1.000
    O33     O    0.75000   0.75000   0.93830   1.000
    V10     V    0.25000   0.25000   0.71920   1.000
    O34     O    0.25000   0.25000   0.06170   1.000
    K1      K    0.53840   0.75000   0.90230   1.000
    K2      K    0.96160   0.75000   0.90230   1.000
    K3      K    0.46160   0.25000   0.09770   1.000
    K4      K    0.03840   0.25000   0.09770   1.000
    C1      C    0.75000   0.54450   0.65660   1.000
    H1      H    0.75000   0.48280   0.67220   1.000
    H2      H    0.75000   0.56710   0.84910   1.000
    C2      C    0.75000   0.95550   0.65660   1.000
    H3      H    0.75000   0.01720   0.67220   1.000
    H4      H    0.75000   0.93290   0.84910   1.000
    C3      C    0.25000   0.04450   0.34340   1.000
    H5      H    0.25000   0.98280   0.32780   1.000
    H6      H    0.25000   0.06710   0.15090   1.000
    C4      C    0.25000   0.45550   0.34340   1.000
    H7      H    0.25000   0.51720   0.32780   1.000
    H8      H    0.25000   0.43290   0.15090   1.000
