# CIF file generated by openbabel 2.4.1, see http://openbabel.sf.net
data_I
_chemical_name_common 'image0'
_cell_length_a 8.464
_cell_length_b 7.613
_cell_length_c 13.176
_cell_angle_alpha 90
_cell_angle_beta 90.482
_cell_angle_gamma 90
_space_group_name_H-M_alt 'P 1'
_space_group_name_Hall 'P 1'
loop_
    _symmetry_equiv_pos_as_xyz
    x,y,z
loop_
    _atom_site_label
    _atom_site_type_symbol
    _atom_site_fract_x
    _atom_site_fract_y
    _atom_site_fract_z
    _atom_site_occupancy
    C1      C    0.94790   0.82870   0.61187   1.000
    N1      N    0.99920   0.70850   0.57218   1.000
    C2      C    0.92370   0.66150   0.11554   1.000
    N2      N    0.96970   0.78500   0.07640   1.000
    C3      C    0.59540   0.39730   0.47620   1.000
    H1      H    0.60360   0.29060   0.43490   1.000
    H2      H    0.64140   0.37560   0.54350   1.000
    H3      H    0.65270   0.49320   0.44310   1.000
    C4      C    0.43170   0.44510   0.48630   1.000
    N3      N    0.30210   0.48290   0.49440   1.000
    C5      C    0.53040   0.21190   0.03800   1.000
    H4      H    0.52740   0.31800   0.99590   1.000
    H5      H    0.62350   0.14190   0.02060   1.000
    H6      H    0.53610   0.24530   0.10970   1.000
    C6      C    0.38970   0.11000   0.01990   1.000
    N4      N    0.27830   0.02900   0.00550   1.000
    C7      C    0.69018   0.00869   0.66041   1.000
    C8      C    0.60914   0.12350   0.72330   1.000
    H7      H    0.66590   0.19710   0.76910   1.000
    C9      C    0.44512   0.13070   0.71940   1.000
    H8      H    0.38970   0.20920   0.76240   1.000
    C10     C    0.36211   0.02300   0.65251   1.000
    H9      H    0.25000   0.02780   0.64980   1.000
    C11     C    0.44315   0.09190   0.58960   1.000
    H10     H    0.38640   0.16550   0.54390   1.000
    C12     C    0.60718   0.90100   0.59350   1.000
    H11     H    0.66260   0.82250   0.55050   1.000
    C13     C    0.66549   0.48663   0.18011   1.000
    C14     C    0.59430   0.34970   0.23240   1.000
    H12     H    0.65760   0.26410   0.26600   1.000
    C15     C    0.43053   0.33780   0.23560   1.000
    H13     H    0.38190   0.24420   0.27130   1.000
    C16     C    0.33797   0.46300   0.18641   1.000
    H14     H    0.22600   0.45490   0.18860   1.000
    C17     C    0.40916   0.40010   0.13412   1.000
    H15     H    0.34590   0.31450   0.10050   1.000
    C18     C    0.57292   0.38820   0.13097   1.000
    H16     H    0.62160   0.29460   0.09520   1.000
    C19     C    0.56120   0.12000   0.96930   1.000
    H17     H    0.62410   0.01970   0.94700   1.000
    H18     H    0.61040   0.17280   0.02970   1.000
    H19     H    0.55630   0.20810   0.91490   1.000
    C20     C    0.40380   0.06300   0.99320   1.000
    N5      N    0.27920   0.01700   0.01210   1.000
    C21     C    0.56300   0.97400   0.08350   1.000
    H20     H    0.60440   0.09110   0.09860   1.000
    H21     H    0.63080   0.91610   0.03360   1.000
    H22     H    0.56150   0.90370   0.14600   1.000
    C22     C    0.40490   0.98800   0.04320   1.000
    C23     C    0.57280   0.05100   0.96960   1.000
    H23     H    0.62350   0.06500   0.96710   1.000
    H24     H    0.58090   0.10740   0.90310   1.000
    H25     H    0.62570   0.12350   0.02090   1.000
    C24     C    0.40890   0.97000   0.99540   1.000
    N6      N    0.27910   0.98600   0.01580   1.000
    C25     C    0.94790   0.17130   0.61187   1.000
    N7      N    0.99920   0.29150   0.57218   1.000
    C26     C    0.92370   0.33850   0.11554   1.000
    N8      N    0.96970   0.21500   0.07640   1.000
    C27     C    0.59540   0.60270   0.47620   1.000
    H26     H    0.60360   0.70940   0.43490   1.000
    H27     H    0.64140   0.62440   0.54350   1.000
    H28     H    0.65270   0.50680   0.44310   1.000
    C28     C    0.43170   0.55490   0.48630   1.000
    N9      N    0.30210   0.51710   0.49440   1.000
    C29     C    0.53040   0.78810   0.03800   1.000
    H29     H    0.52740   0.68200   0.99590   1.000
    H30     H    0.62350   0.85810   0.02060   1.000
    H31     H    0.53610   0.75470   0.10970   1.000
    C30     C    0.38970   0.89000   0.01990   1.000
    N10     N    0.27830   0.97100   0.00550   1.000
    C31     C    0.69018   0.99131   0.66041   1.000
    C32     C    0.60914   0.87650   0.72330   1.000
    H32     H    0.66590   0.80290   0.76910   1.000
    C33     C    0.44512   0.86930   0.71940   1.000
    H33     H    0.38970   0.79080   0.76240   1.000
    C34     C    0.36211   0.97700   0.65251   1.000
    H34     H    0.25000   0.97220   0.64980   1.000
    C35     C    0.44315   0.90810   0.58960   1.000
    H35     H    0.38640   0.83450   0.54390   1.000
    C36     C    0.60718   0.09900   0.59350   1.000
    H36     H    0.66260   0.17750   0.55050   1.000
    C37     C    0.66549   0.51337   0.18011   1.000
    C38     C    0.59430   0.65030   0.23240   1.000
    H37     H    0.65760   0.73590   0.26600   1.000
    C39     C    0.43053   0.66220   0.23560   1.000
    H38     H    0.38190   0.75580   0.27130   1.000
    C40     C    0.33797   0.53700   0.18641   1.000
    H39     H    0.22600   0.54510   0.18860   1.000
    C41     C    0.40916   0.59990   0.13412   1.000
    H40     H    0.34590   0.68550   0.10050   1.000
    C42     C    0.57292   0.61180   0.13097   1.000
    H41     H    0.62160   0.70540   0.09520   1.000
    C43     C    0.56120   0.88000   0.96930   1.000
    H42     H    0.62410   0.98030   0.94700   1.000
    H43     H    0.61040   0.82720   0.02970   1.000
    H44     H    0.55630   0.79190   0.91490   1.000
    C44     C    0.40380   0.93700   0.99320   1.000
    N11     N    0.27920   0.98300   0.01210   1.000
    C45     C    0.56300   0.02600   0.08350   1.000
    H45     H    0.60440   0.90890   0.09860   1.000
    H46     H    0.63080   0.08390   0.03360   1.000
    H47     H    0.56150   0.09630   0.14600   1.000
    C46     C    0.40490   0.01200   0.04320   1.000
    C47     C    0.57280   0.94900   0.96960   1.000
    H48     H    0.62350   0.93500   0.96710   1.000
    H49     H    0.58090   0.89260   0.90310   1.000
    H50     H    0.62570   0.87650   0.02090   1.000
    C48     C    0.40890   0.03000   0.99540   1.000
    N12     N    0.27910   0.01400   0.01580   1.000
    Cu1     Cu   0.08048   0.50000   0.50338   1.000
    C49     C    0.93910   0.50000   0.28544   1.000
    N13     N    0.99060   0.50000   0.36566   1.000
    B1      B    0.86250   0.50000   0.17665   1.000
    Cu2     Cu   0.04892   0.00000   0.00538   1.000
    C50     C    0.93650   0.00000   0.77990   1.000
    N14     N    0.97980   0.00000   0.86258   1.000
    B2      B    0.88789   0.00000   0.66513   1.000
    N15     N    0.27980   0.00000   0.01120   1.000
