# CIF file generated by openbabel 2.4.1, see http://openbabel.sf.net
data_I
_chemical_name_common 'image0'
_cell_length_a 17.712
_cell_length_b 17.712
_cell_length_c 17.712
_cell_angle_alpha 90
_cell_angle_beta 90
_cell_angle_gamma 90
_space_group_name_H-M_alt 'P 1'
_space_group_name_Hall 'P 1'
loop_
    _symmetry_equiv_pos_as_xyz
    x,y,z
loop_
    _atom_site_label
    _atom_site_type_symbol
    _atom_site_fract_x
    _atom_site_fract_y
    _atom_site_fract_z
    _atom_site_occupancy
    C1      C    0.04100   0.02900   0.10700   1.000
    C2      C    0.03100   0.95000   0.10260   1.000
    C3      C    0.95300   0.93600   0.08800   1.000
    C4      C    0.91590   0.00700   0.08300   1.000
    C5      C    0.97100   0.06400   0.09500   1.000
    C6      C    0.11500   0.06900   0.12200   1.000
    H1      H    0.10730   0.12340   0.12200   1.000
    H2      H    0.15170   0.05550   0.08220   1.000
    H3      H    0.13530   0.05280   0.17100   1.000
    H4      H    0.15560   0.03110   0.12810   1.000
    H5      H    0.11120   0.09890   0.16790   1.000
    H6      H    0.12760   0.10160   0.07910   1.000
    C7      C    0.09100   0.89000   0.11200   1.000
    H7      H    0.13960   0.91470   0.12160   1.000
    H8      H    0.09430   0.86000   0.06570   1.000
    H9      H    0.07800   0.85740   0.15450   1.000
    H10     H    0.06830   0.84000   0.10620   1.000
    H11     H    0.11360   0.89470   0.16220   1.000
    H12     H    0.12990   0.89740   0.07340   1.000
    C8      C    0.91600   0.86000   0.07900   1.000
    H13     H    0.95440   0.82020   0.08460   1.000
    H14     H    0.89340   0.85610   0.02850   1.000
    H15     H    0.87700   0.85340   0.11730   1.000
    H16     H    0.86220   0.86630   0.06900   1.000
    H17     H    0.92320   0.83040   0.12510   1.000
    H18     H    0.93960   0.83300   0.03630   1.000
    C9      C    0.83290   0.01900   0.06800   1.000
    H19     H    0.80780   0.97040   0.06210   1.000
    H20     H    0.82660   0.04910   0.02200   1.000
    H21     H    0.81030   0.04650   0.11080   1.000
    H22     H    0.82200   0.07360   0.06780   1.000
    H23     H    0.80320   0.99490   0.10790   1.000
    H24     H    0.81950   0.99750   0.01910   1.000
    C10     C    0.95600   0.14800   0.09500   1.000
    H25     H    0.00330   0.17540   0.10440   1.000
    H26     H    0.91940   0.16090   0.13440   1.000
    H27     H    0.93570   0.16350   0.04560   1.000
    H28     H    0.90230   0.15780   0.08520   1.000
    H29     H    0.98630   0.17240   0.05520   1.000
    H30     H    0.96990   0.16970   0.14400   1.000
    C11     C    0.95900   0.97100   0.10700   1.000
    C12     C    0.96900   0.05000   0.10260   1.000
    C13     C    0.04700   0.06400   0.08800   1.000
    C14     C    0.08410   0.99300   0.08300   1.000
    C15     C    0.02900   0.93600   0.09500   1.000
    C16     C    0.88500   0.93100   0.12200   1.000
    H31     H    0.89270   0.87660   0.12200   1.000
    H32     H    0.84830   0.94450   0.08220   1.000
    H33     H    0.86470   0.94720   0.17100   1.000
    H34     H    0.84440   0.96890   0.12810   1.000
    H35     H    0.88880   0.90110   0.16790   1.000
    H36     H    0.87240   0.89840   0.07910   1.000
    C17     C    0.90900   0.11000   0.11200   1.000
    H37     H    0.86040   0.08530   0.12160   1.000
    H38     H    0.90570   0.14000   0.06570   1.000
    H39     H    0.92200   0.14260   0.15450   1.000
    H40     H    0.93170   0.16000   0.10620   1.000
    H41     H    0.88640   0.10530   0.16220   1.000
    H42     H    0.87010   0.10260   0.07340   1.000
    C18     C    0.08400   0.14000   0.07900   1.000
    H43     H    0.04560   0.17980   0.08460   1.000
    H44     H    0.10660   0.14390   0.02850   1.000
    H45     H    0.12300   0.14660   0.11730   1.000
    H46     H    0.13780   0.13370   0.06900   1.000
    H47     H    0.07680   0.16960   0.12510   1.000
    H48     H    0.06040   0.16700   0.03630   1.000
    C19     C    0.16710   0.98100   0.06800   1.000
    H49     H    0.19220   0.02960   0.06210   1.000
    H50     H    0.17340   0.95090   0.02200   1.000
    H51     H    0.18970   0.95350   0.11080   1.000
    H52     H    0.17800   0.92640   0.06780   1.000
    H53     H    0.19680   0.00510   0.10790   1.000
    H54     H    0.18050   0.00250   0.01910   1.000
    C20     C    0.04400   0.85200   0.09500   1.000
    H55     H    0.99670   0.82460   0.10440   1.000
    H56     H    0.08060   0.83910   0.13440   1.000
    H57     H    0.06430   0.83650   0.04560   1.000
    H58     H    0.09770   0.84220   0.08520   1.000
    H59     H    0.01370   0.82760   0.05520   1.000
    H60     H    0.03010   0.83030   0.14400   1.000
    C21     C    0.95900   0.02900   0.89300   1.000
    C22     C    0.96900   0.95000   0.89740   1.000
    C23     C    0.04700   0.93600   0.91200   1.000
    C24     C    0.08410   0.00700   0.91700   1.000
    C25     C    0.02900   0.06400   0.90500   1.000
    C26     C    0.88500   0.06900   0.87800   1.000
    H61     H    0.89270   0.12340   0.87800   1.000
    H62     H    0.84830   0.05550   0.91780   1.000
    H63     H    0.86470   0.05280   0.82900   1.000
    H64     H    0.84440   0.03110   0.87190   1.000
    H65     H    0.88880   0.09890   0.83210   1.000
    H66     H    0.87240   0.10160   0.92090   1.000
    C27     C    0.90900   0.89000   0.88800   1.000
    H67     H    0.86040   0.91470   0.87840   1.000
    H68     H    0.90570   0.86000   0.93430   1.000
    H69     H    0.92200   0.85740   0.84550   1.000
    H70     H    0.93170   0.84000   0.89380   1.000
    H71     H    0.88640   0.89470   0.83780   1.000
    H72     H    0.87010   0.89740   0.92660   1.000
    C28     C    0.08400   0.86000   0.92100   1.000
    H73     H    0.04560   0.82020   0.91540   1.000
    H74     H    0.10660   0.85610   0.97150   1.000
    H75     H    0.12300   0.85340   0.88270   1.000
    H76     H    0.13780   0.86630   0.93100   1.000
    H77     H    0.07680   0.83040   0.87490   1.000
    H78     H    0.06040   0.83300   0.96370   1.000
    C29     C    0.16710   0.01900   0.93200   1.000
    H79     H    0.19220   0.97040   0.93790   1.000
    H80     H    0.17340   0.04910   0.97800   1.000
    H81     H    0.18970   0.04650   0.88920   1.000
    H82     H    0.17800   0.07360   0.93220   1.000
    H83     H    0.19680   0.99490   0.89210   1.000
    H84     H    0.18050   0.99750   0.98090   1.000
    C30     C    0.04400   0.14800   0.90500   1.000
    H85     H    0.99670   0.17540   0.89560   1.000
    H86     H    0.08060   0.16090   0.86560   1.000
    H87     H    0.06430   0.16350   0.95440   1.000
    H88     H    0.09770   0.15780   0.91480   1.000
    H89     H    0.01370   0.17240   0.94480   1.000
    H90     H    0.03010   0.16970   0.85600   1.000
    C31     C    0.04100   0.97100   0.89300   1.000
    C32     C    0.03100   0.05000   0.89740   1.000
    C33     C    0.95300   0.06400   0.91200   1.000
    C34     C    0.91590   0.99300   0.91700   1.000
    C35     C    0.97100   0.93600   0.90500   1.000
    C36     C    0.11500   0.93100   0.87800   1.000
    H91     H    0.10730   0.87660   0.87800   1.000
    H92     H    0.15170   0.94450   0.91780   1.000
    H93     H    0.13530   0.94720   0.82900   1.000
    H94     H    0.15560   0.96890   0.87190   1.000
    H95     H    0.11120   0.90110   0.83210   1.000
    H96     H    0.12760   0.89840   0.92090   1.000
    C37     C    0.09100   0.11000   0.88800   1.000
    H97     H    0.13960   0.08530   0.87840   1.000
    H98     H    0.09430   0.14000   0.93430   1.000
    H99     H    0.07800   0.14260   0.84550   1.000
    H100    H    0.06830   0.16000   0.89380   1.000
    H101    H    0.11360   0.10530   0.83780   1.000
    H102    H    0.12990   0.10260   0.92660   1.000
    C38     C    0.91600   0.14000   0.92100   1.000
    H103    H    0.95440   0.17980   0.91540   1.000
    H104    H    0.89340   0.14390   0.97150   1.000
    H105    H    0.87700   0.14660   0.88270   1.000
    H106    H    0.86220   0.13370   0.93100   1.000
    H107    H    0.92320   0.16960   0.87490   1.000
    H108    H    0.93960   0.16700   0.96370   1.000
    C39     C    0.83290   0.98100   0.93200   1.000
    H109    H    0.80780   0.02960   0.93790   1.000
    H110    H    0.82660   0.95090   0.97800   1.000
    H111    H    0.81030   0.95350   0.88920   1.000
    H112    H    0.82200   0.92640   0.93220   1.000
    H113    H    0.80320   0.00510   0.89210   1.000
    H114    H    0.81950   0.00250   0.98090   1.000
    C40     C    0.95600   0.85200   0.90500   1.000
    H115    H    0.00330   0.82460   0.89560   1.000
    H116    H    0.91940   0.83910   0.86560   1.000
    H117    H    0.93570   0.83650   0.95440   1.000
    H118    H    0.90230   0.84220   0.91480   1.000
    H119    H    0.98630   0.82760   0.94480   1.000
    H120    H    0.96990   0.83030   0.85600   1.000
    C41     C    0.10700   0.04100   0.02900   1.000
    C42     C    0.10260   0.03100   0.95000   1.000
    C43     C    0.08800   0.95300   0.93600   1.000
    C44     C    0.08300   0.91590   0.00700   1.000
    C45     C    0.09500   0.97100   0.06400   1.000
    C46     C    0.12200   0.11500   0.06900   1.000
    H121    H    0.12200   0.10730   0.12340   1.000
    H122    H    0.08220   0.15170   0.05550   1.000
    H123    H    0.17100   0.13530   0.05280   1.000
    H124    H    0.12810   0.15560   0.03110   1.000
    H125    H    0.16790   0.11120   0.09890   1.000
    H126    H    0.07910   0.12760   0.10160   1.000
    C47     C    0.11200   0.09100   0.89000   1.000
    H127    H    0.12160   0.13960   0.91470   1.000
    H128    H    0.06570   0.09430   0.86000   1.000
    H129    H    0.15450   0.07800   0.85740   1.000
    H130    H    0.10620   0.06830   0.84000   1.000
    H131    H    0.16220   0.11360   0.89470   1.000
    H132    H    0.07340   0.12990   0.89740   1.000
    C48     C    0.07900   0.91600   0.86000   1.000
    H133    H    0.08460   0.95440   0.82020   1.000
    H134    H    0.02850   0.89340   0.85610   1.000
    H135    H    0.11730   0.87700   0.85340   1.000
    H136    H    0.06900   0.86220   0.86630   1.000
    H137    H    0.12510   0.92320   0.83040   1.000
    H138    H    0.03630   0.93960   0.83300   1.000
    C49     C    0.06800   0.83290   0.01900   1.000
    H139    H    0.06210   0.80780   0.97040   1.000
    H140    H    0.02200   0.82660   0.04910   1.000
    H141    H    0.11080   0.81030   0.04650   1.000
    H142    H    0.06780   0.82200   0.07360   1.000
    H143    H    0.10790   0.80320   0.99490   1.000
    H144    H    0.01910   0.81950   0.99750   1.000
    C50     C    0.09500   0.95600   0.14800   1.000
    H145    H    0.10440   0.00330   0.17540   1.000
    H146    H    0.13440   0.91940   0.16090   1.000
    H147    H    0.04560   0.93570   0.16350   1.000
    H148    H    0.08520   0.90230   0.15780   1.000
    H149    H    0.05520   0.98630   0.17240   1.000
    H150    H    0.14400   0.96990   0.16970   1.000
    C51     C    0.10700   0.95900   0.97100   1.000
    C52     C    0.10260   0.96900   0.05000   1.000
    C53     C    0.08800   0.04700   0.06400   1.000
    C54     C    0.08300   0.08410   0.99300   1.000
    C55     C    0.09500   0.02900   0.93600   1.000
    C56     C    0.12200   0.88500   0.93100   1.000
    H151    H    0.12200   0.89270   0.87660   1.000
    H152    H    0.08220   0.84830   0.94450   1.000
    H153    H    0.17100   0.86470   0.94720   1.000
    H154    H    0.12810   0.84440   0.96890   1.000
    H155    H    0.16790   0.88880   0.90110   1.000
    H156    H    0.07910   0.87240   0.89840   1.000
    C57     C    0.11200   0.90900   0.11000   1.000
    H157    H    0.12160   0.86040   0.08530   1.000
    H158    H    0.06570   0.90570   0.14000   1.000
    H159    H    0.15450   0.92200   0.14260   1.000
    H160    H    0.10620   0.93170   0.16000   1.000
    H161    H    0.16220   0.88640   0.10530   1.000
    H162    H    0.07340   0.87010   0.10260   1.000
    C58     C    0.07900   0.08400   0.14000   1.000
    H163    H    0.08460   0.04560   0.17980   1.000
    H164    H    0.02850   0.10660   0.14390   1.000
    H165    H    0.11730   0.12300   0.14660   1.000
    H166    H    0.06900   0.13780   0.13370   1.000
    H167    H    0.12510   0.07680   0.16960   1.000
    H168    H    0.03630   0.06040   0.16700   1.000
    C59     C    0.06800   0.16710   0.98100   1.000
    H169    H    0.06210   0.19220   0.02960   1.000
    H170    H    0.02200   0.17340   0.95090   1.000
    H171    H    0.11080   0.18970   0.95350   1.000
    H172    H    0.06780   0.17800   0.92640   1.000
    H173    H    0.10790   0.19680   0.00510   1.000
    H174    H    0.01910   0.18050   0.00250   1.000
    C60     C    0.09500   0.04400   0.85200   1.000
    H175    H    0.10440   0.99670   0.82460   1.000
    H176    H    0.13440   0.08060   0.83910   1.000
    H177    H    0.04560   0.06430   0.83650   1.000
    H178    H    0.08520   0.09770   0.84220   1.000
    H179    H    0.05520   0.01370   0.82760   1.000
    H180    H    0.14400   0.03010   0.83030   1.000
    C61     C    0.89300   0.95900   0.02900   1.000
    C62     C    0.89740   0.96900   0.95000   1.000
    C63     C    0.91200   0.04700   0.93600   1.000
    C64     C    0.91700   0.08410   0.00700   1.000
    C65     C    0.90500   0.02900   0.06400   1.000
    C66     C    0.87800   0.88500   0.06900   1.000
    H181    H    0.87800   0.89270   0.12340   1.000
    H182    H    0.91780   0.84830   0.05550   1.000
    H183    H    0.82900   0.86470   0.05280   1.000
    H184    H    0.87190   0.84440   0.03110   1.000
    H185    H    0.83210   0.88880   0.09890   1.000
    H186    H    0.92090   0.87240   0.10160   1.000
    C67     C    0.88800   0.90900   0.89000   1.000
    H187    H    0.87840   0.86040   0.91470   1.000
    H188    H    0.93430   0.90570   0.86000   1.000
    H189    H    0.84550   0.92200   0.85740   1.000
    H190    H    0.89380   0.93170   0.84000   1.000
    H191    H    0.83780   0.88640   0.89470   1.000
    H192    H    0.92660   0.87010   0.89740   1.000
    C68     C    0.92100   0.08400   0.86000   1.000
    H193    H    0.91540   0.04560   0.82020   1.000
    H194    H    0.97150   0.10660   0.85610   1.000
    H195    H    0.88270   0.12300   0.85340   1.000
    H196    H    0.93100   0.13780   0.86630   1.000
    H197    H    0.87490   0.07680   0.83040   1.000
    H198    H    0.96370   0.06040   0.83300   1.000
    C69     C    0.93200   0.16710   0.01900   1.000
    H199    H    0.93790   0.19220   0.97040   1.000
    H200    H    0.97800   0.17340   0.04910   1.000
    H201    H    0.88920   0.18970   0.04650   1.000
    H202    H    0.93220   0.17800   0.07360   1.000
    H203    H    0.89210   0.19680   0.99490   1.000
    H204    H    0.98090   0.18050   0.99750   1.000
    C70     C    0.90500   0.04400   0.14800   1.000
    H205    H    0.89560   0.99670   0.17540   1.000
    H206    H    0.86560   0.08060   0.16090   1.000
    H207    H    0.95440   0.06430   0.16350   1.000
    H208    H    0.91480   0.09770   0.15780   1.000
    H209    H    0.94480   0.01370   0.17240   1.000
    H210    H    0.85600   0.03010   0.16970   1.000
    C71     C    0.89300   0.04100   0.97100   1.000
    C72     C    0.89740   0.03100   0.05000   1.000
    C73     C    0.91200   0.95300   0.06400   1.000
    C74     C    0.91700   0.91590   0.99300   1.000
    C75     C    0.90500   0.97100   0.93600   1.000
    C76     C    0.87800   0.11500   0.93100   1.000
    H211    H    0.87800   0.10730   0.87660   1.000
    H212    H    0.91780   0.15170   0.94450   1.000
    H213    H    0.82900   0.13530   0.94720   1.000
    H214    H    0.87190   0.15560   0.96890   1.000
    H215    H    0.83210   0.11120   0.90110   1.000
    H216    H    0.92090   0.12760   0.89840   1.000
    C77     C    0.88800   0.09100   0.11000   1.000
    H217    H    0.87840   0.13960   0.08530   1.000
    H218    H    0.93430   0.09430   0.14000   1.000
    H219    H    0.84550   0.07800   0.14260   1.000
    H220    H    0.89380   0.06830   0.16000   1.000
    H221    H    0.83780   0.11360   0.10530   1.000
    H222    H    0.92660   0.12990   0.10260   1.000
    C78     C    0.92100   0.91600   0.14000   1.000
    H223    H    0.91540   0.95440   0.17980   1.000
    H224    H    0.97150   0.89340   0.14390   1.000
    H225    H    0.88270   0.87700   0.14660   1.000
    H226    H    0.93100   0.86220   0.13370   1.000
    H227    H    0.87490   0.92320   0.16960   1.000
    H228    H    0.96370   0.93960   0.16700   1.000
    C79     C    0.93200   0.83290   0.98100   1.000
    H229    H    0.93790   0.80780   0.02960   1.000
    H230    H    0.97800   0.82660   0.95090   1.000
    H231    H    0.88920   0.81030   0.95350   1.000
    H232    H    0.93220   0.82200   0.92640   1.000
    H233    H    0.89210   0.80320   0.00510   1.000
    H234    H    0.98090   0.81950   0.00250   1.000
    C80     C    0.90500   0.95600   0.85200   1.000
    H235    H    0.89560   0.00330   0.82460   1.000
    H236    H    0.86560   0.91940   0.83910   1.000
    H237    H    0.95440   0.93570   0.83650   1.000
    H238    H    0.91480   0.90230   0.84220   1.000
    H239    H    0.94480   0.98630   0.82760   1.000
    H240    H    0.85600   0.96990   0.83030   1.000
    C81     C    0.02900   0.10700   0.04100   1.000
    C82     C    0.95000   0.10260   0.03100   1.000
    C83     C    0.93600   0.08800   0.95300   1.000
    C84     C    0.00700   0.08300   0.91590   1.000
    C85     C    0.06400   0.09500   0.97100   1.000
    C86     C    0.06900   0.12200   0.11500   1.000
    H241    H    0.12340   0.12200   0.10730   1.000
    H242    H    0.05550   0.08220   0.15170   1.000
    H243    H    0.05280   0.17100   0.13530   1.000
    H244    H    0.03110   0.12810   0.15560   1.000
    H245    H    0.09890   0.16790   0.11120   1.000
    H246    H    0.10160   0.07910   0.12760   1.000
    C87     C    0.89000   0.11200   0.09100   1.000
    H247    H    0.91470   0.12160   0.13960   1.000
    H248    H    0.86000   0.06570   0.09430   1.000
    H249    H    0.85740   0.15450   0.07800   1.000
    H250    H    0.84000   0.10620   0.06830   1.000
    H251    H    0.89470   0.16220   0.11360   1.000
    H252    H    0.89740   0.07340   0.12990   1.000
    C88     C    0.86000   0.07900   0.91600   1.000
    H253    H    0.82020   0.08460   0.95440   1.000
    H254    H    0.85610   0.02850   0.89340   1.000
    H255    H    0.85340   0.11730   0.87700   1.000
    H256    H    0.86630   0.06900   0.86220   1.000
    H257    H    0.83040   0.12510   0.92320   1.000
    H258    H    0.83300   0.03630   0.93960   1.000
    C89     C    0.01900   0.06800   0.83290   1.000
    H259    H    0.97040   0.06210   0.80780   1.000
    H260    H    0.04910   0.02200   0.82660   1.000
    H261    H    0.04650   0.11080   0.81030   1.000
    H262    H    0.07360   0.06780   0.82200   1.000
    H263    H    0.99490   0.10790   0.80320   1.000
    H264    H    0.99750   0.01910   0.81950   1.000
    C90     C    0.14800   0.09500   0.95600   1.000
    H265    H    0.17540   0.10440   0.00330   1.000
    H266    H    0.16090   0.13440   0.91940   1.000
    H267    H    0.16350   0.04560   0.93570   1.000
    H268    H    0.15780   0.08520   0.90230   1.000
    H269    H    0.17240   0.05520   0.98630   1.000
    H270    H    0.16970   0.14400   0.96990   1.000
    C91     C    0.97100   0.10700   0.95900   1.000
    C92     C    0.05000   0.10260   0.96900   1.000
    C93     C    0.06400   0.08800   0.04700   1.000
    C94     C    0.99300   0.08300   0.08410   1.000
    C95     C    0.93600   0.09500   0.02900   1.000
    C96     C    0.93100   0.12200   0.88500   1.000
    H271    H    0.87660   0.12200   0.89270   1.000
    H272    H    0.94450   0.08220   0.84830   1.000
    H273    H    0.94720   0.17100   0.86470   1.000
    H274    H    0.96890   0.12810   0.84440   1.000
    H275    H    0.90110   0.16790   0.88880   1.000
    H276    H    0.89840   0.07910   0.87240   1.000
    C97     C    0.11000   0.11200   0.90900   1.000
    H277    H    0.08530   0.12160   0.86040   1.000
    H278    H    0.14000   0.06570   0.90570   1.000
    H279    H    0.14260   0.15450   0.92200   1.000
    H280    H    0.16000   0.10620   0.93170   1.000
    H281    H    0.10530   0.16220   0.88640   1.000
    H282    H    0.10260   0.07340   0.87010   1.000
    C98     C    0.14000   0.07900   0.08400   1.000
    H283    H    0.17980   0.08460   0.04560   1.000
    H284    H    0.14390   0.02850   0.10660   1.000
    H285    H    0.14660   0.11730   0.12300   1.000
    H286    H    0.13370   0.06900   0.13780   1.000
    H287    H    0.16960   0.12510   0.07680   1.000
    H288    H    0.16700   0.03630   0.06040   1.000
    C99     C    0.98100   0.06800   0.16710   1.000
    H289    H    0.02960   0.06210   0.19220   1.000
    H290    H    0.95090   0.02200   0.17340   1.000
    H291    H    0.95350   0.11080   0.18970   1.000
    H292    H    0.92640   0.06780   0.17800   1.000
    H293    H    0.00510   0.10790   0.19680   1.000
    H294    H    0.00250   0.01910   0.18050   1.000
    C100    C    0.85200   0.09500   0.04400   1.000
    H295    H    0.82460   0.10440   0.99670   1.000
    H296    H    0.83910   0.13440   0.08060   1.000
    H297    H    0.83650   0.04560   0.06430   1.000
    H298    H    0.84220   0.08520   0.09770   1.000
    H299    H    0.82760   0.05520   0.01370   1.000
    H300    H    0.83030   0.14400   0.03010   1.000
    C101    C    0.02900   0.89300   0.95900   1.000
    C102    C    0.95000   0.89740   0.96900   1.000
    C103    C    0.93600   0.91200   0.04700   1.000
    C104    C    0.00700   0.91700   0.08410   1.000
    C105    C    0.06400   0.90500   0.02900   1.000
    C106    C    0.06900   0.87800   0.88500   1.000
    H301    H    0.12340   0.87800   0.89270   1.000
    H302    H    0.05550   0.91780   0.84830   1.000
    H303    H    0.05280   0.82900   0.86470   1.000
    H304    H    0.03110   0.87190   0.84440   1.000
    H305    H    0.09890   0.83210   0.88880   1.000
    H306    H    0.10160   0.92090   0.87240   1.000
    C107    C    0.89000   0.88800   0.90900   1.000
    H307    H    0.91470   0.87840   0.86040   1.000
    H308    H    0.86000   0.93430   0.90570   1.000
    H309    H    0.85740   0.84550   0.92200   1.000
    H310    H    0.84000   0.89380   0.93170   1.000
    H311    H    0.89470   0.83780   0.88640   1.000
    H312    H    0.89740   0.92660   0.87010   1.000
    C108    C    0.86000   0.92100   0.08400   1.000
    H313    H    0.82020   0.91540   0.04560   1.000
    H314    H    0.85610   0.97150   0.10660   1.000
    H315    H    0.85340   0.88270   0.12300   1.000
    H316    H    0.86630   0.93100   0.13780   1.000
    H317    H    0.83040   0.87490   0.07680   1.000
    H318    H    0.83300   0.96370   0.06040   1.000
    C109    C    0.01900   0.93200   0.16710   1.000
    H319    H    0.97040   0.93790   0.19220   1.000
    H320    H    0.04910   0.97800   0.17340   1.000
    H321    H    0.04650   0.88920   0.18970   1.000
    H322    H    0.07360   0.93220   0.17800   1.000
    H323    H    0.99490   0.89210   0.19680   1.000
    H324    H    0.99750   0.98090   0.18050   1.000
    C110    C    0.14800   0.90500   0.04400   1.000
    H325    H    0.17540   0.89560   0.99670   1.000
    H326    H    0.16090   0.86560   0.08060   1.000
    H327    H    0.16350   0.95440   0.06430   1.000
    H328    H    0.15780   0.91480   0.09770   1.000
    H329    H    0.17240   0.94480   0.01370   1.000
    H330    H    0.16970   0.85600   0.03010   1.000
    C111    C    0.97100   0.89300   0.04100   1.000
    C112    C    0.05000   0.89740   0.03100   1.000
    C113    C    0.06400   0.91200   0.95300   1.000
    C114    C    0.99300   0.91700   0.91590   1.000
    C115    C    0.93600   0.90500   0.97100   1.000
    C116    C    0.93100   0.87800   0.11500   1.000
    H331    H    0.87660   0.87800   0.10730   1.000
    H332    H    0.94450   0.91780   0.15170   1.000
    H333    H    0.94720   0.82900   0.13530   1.000
    H334    H    0.96890   0.87190   0.15560   1.000
    H335    H    0.90110   0.83210   0.11120   1.000
    H336    H    0.89840   0.92090   0.12760   1.000
    C117    C    0.11000   0.88800   0.09100   1.000
    H337    H    0.08530   0.87840   0.13960   1.000
    H338    H    0.14000   0.93430   0.09430   1.000
    H339    H    0.14260   0.84550   0.07800   1.000
    H340    H    0.16000   0.89380   0.06830   1.000
    H341    H    0.10530   0.83780   0.11360   1.000
    H342    H    0.10260   0.92660   0.12990   1.000
    C118    C    0.14000   0.92100   0.91600   1.000
    H343    H    0.17980   0.91540   0.95440   1.000
    H344    H    0.14390   0.97150   0.89340   1.000
    H345    H    0.14660   0.88270   0.87700   1.000
    H346    H    0.13370   0.93100   0.86220   1.000
    H347    H    0.16960   0.87490   0.92320   1.000
    H348    H    0.16700   0.96370   0.93960   1.000
    C119    C    0.98100   0.93200   0.83290   1.000
    H349    H    0.02960   0.93790   0.80780   1.000
    H350    H    0.95090   0.97800   0.82660   1.000
    H351    H    0.95350   0.88920   0.81030   1.000
    H352    H    0.92640   0.93220   0.82200   1.000
    H353    H    0.00510   0.89210   0.80320   1.000
    H354    H    0.00250   0.98090   0.81950   1.000
    C120    C    0.85200   0.90500   0.95600   1.000
    H355    H    0.82460   0.89560   0.00330   1.000
    H356    H    0.83910   0.86560   0.91940   1.000
    H357    H    0.83650   0.95440   0.93570   1.000
    H358    H    0.84220   0.91480   0.90230   1.000
    H359    H    0.82760   0.94480   0.98630   1.000
    H360    H    0.83030   0.85600   0.96990   1.000
    C121    C    0.95900   0.97100   0.89300   1.000
    C122    C    0.96900   0.05000   0.89740   1.000
    C123    C    0.04700   0.06400   0.91200   1.000
    C124    C    0.08410   0.99300   0.91700   1.000
    C125    C    0.02900   0.93600   0.90500   1.000
    C126    C    0.88500   0.93100   0.87800   1.000
    H361    H    0.89270   0.87660   0.87800   1.000
    H362    H    0.84830   0.94450   0.91780   1.000
    H363    H    0.86470   0.94720   0.82900   1.000
    H364    H    0.84440   0.96890   0.87190   1.000
    H365    H    0.88880   0.90110   0.83210   1.000
    H366    H    0.87240   0.89840   0.92090   1.000
    C127    C    0.90900   0.11000   0.88800   1.000
    H367    H    0.86040   0.08530   0.87840   1.000
    H368    H    0.90570   0.14000   0.93430   1.000
    H369    H    0.92200   0.14260   0.84550   1.000
    H370    H    0.93170   0.16000   0.89380   1.000
    H371    H    0.88640   0.10530   0.83780   1.000
    H372    H    0.87010   0.10260   0.92660   1.000
    C128    C    0.08400   0.14000   0.92100   1.000
    H373    H    0.04560   0.17980   0.91540   1.000
    H374    H    0.10660   0.14390   0.97150   1.000
    H375    H    0.12300   0.14660   0.88270   1.000
    H376    H    0.13780   0.13370   0.93100   1.000
    H377    H    0.07680   0.16960   0.87490   1.000
    H378    H    0.06040   0.16700   0.96370   1.000
    C129    C    0.16710   0.98100   0.93200   1.000
    H379    H    0.19220   0.02960   0.93790   1.000
    H380    H    0.17340   0.95090   0.97800   1.000
    H381    H    0.18970   0.95350   0.88920   1.000
    H382    H    0.17800   0.92640   0.93220   1.000
    H383    H    0.19680   0.00510   0.89210   1.000
    H384    H    0.18050   0.00250   0.98090   1.000
    C130    C    0.04400   0.85200   0.90500   1.000
    H385    H    0.99670   0.82460   0.89560   1.000
    H386    H    0.08060   0.83910   0.86560   1.000
    H387    H    0.06430   0.83650   0.95440   1.000
    H388    H    0.09770   0.84220   0.91480   1.000
    H389    H    0.01370   0.82760   0.94480   1.000
    H390    H    0.03010   0.83030   0.85600   1.000
    C131    C    0.04100   0.02900   0.89300   1.000
    C132    C    0.03100   0.95000   0.89740   1.000
    C133    C    0.95300   0.93600   0.91200   1.000
    C134    C    0.91590   0.00700   0.91700   1.000
    C135    C    0.97100   0.06400   0.90500   1.000
    C136    C    0.11500   0.06900   0.87800   1.000
    H391    H    0.10730   0.12340   0.87800   1.000
    H392    H    0.15170   0.05550   0.91780   1.000
    H393    H    0.13530   0.05280   0.82900   1.000
    H394    H    0.15560   0.03110   0.87190   1.000
    H395    H    0.11120   0.09890   0.83210   1.000
    H396    H    0.12760   0.10160   0.92090   1.000
    C137    C    0.09100   0.89000   0.88800   1.000
    H397    H    0.13960   0.91470   0.87840   1.000
    H398    H    0.09430   0.86000   0.93430   1.000
    H399    H    0.07800   0.85740   0.84550   1.000
    H400    H    0.06830   0.84000   0.89380   1.000
    H401    H    0.11360   0.89470   0.83780   1.000
    H402    H    0.12990   0.89740   0.92660   1.000
    C138    C    0.91600   0.86000   0.92100   1.000
    H403    H    0.95440   0.82020   0.91540   1.000
    H404    H    0.89340   0.85610   0.97150   1.000
    H405    H    0.87700   0.85340   0.88270   1.000
    H406    H    0.86220   0.86630   0.93100   1.000
    H407    H    0.92320   0.83040   0.87490   1.000
    H408    H    0.93960   0.83300   0.96370   1.000
    C139    C    0.83290   0.01900   0.93200   1.000
    H409    H    0.80780   0.97040   0.93790   1.000
    H410    H    0.82660   0.04910   0.97800   1.000
    H411    H    0.81030   0.04650   0.88920   1.000
    H412    H    0.82200   0.07360   0.93220   1.000
    H413    H    0.80320   0.99490   0.89210   1.000
    H414    H    0.81950   0.99750   0.98090   1.000
    C140    C    0.95600   0.14800   0.90500   1.000
    H415    H    0.00330   0.17540   0.89560   1.000
    H416    H    0.91940   0.16090   0.86560   1.000
    H417    H    0.93570   0.16350   0.95440   1.000
    H418    H    0.90230   0.15780   0.91480   1.000
    H419    H    0.98630   0.17240   0.94480   1.000
    H420    H    0.96990   0.16970   0.85600   1.000
    C141    C    0.04100   0.97100   0.10700   1.000
    C142    C    0.03100   0.05000   0.10260   1.000
    C143    C    0.95300   0.06400   0.08800   1.000
    C144    C    0.91590   0.99300   0.08300   1.000
    C145    C    0.97100   0.93600   0.09500   1.000
    C146    C    0.11500   0.93100   0.12200   1.000
    H421    H    0.10730   0.87660   0.12200   1.000
    H422    H    0.15170   0.94450   0.08220   1.000
    H423    H    0.13530   0.94720   0.17100   1.000
    H424    H    0.15560   0.96890   0.12810   1.000
    H425    H    0.11120   0.90110   0.16790   1.000
    H426    H    0.12760   0.89840   0.07910   1.000
    C147    C    0.09100   0.11000   0.11200   1.000
    H427    H    0.13960   0.08530   0.12160   1.000
    H428    H    0.09430   0.14000   0.06570   1.000
    H429    H    0.07800   0.14260   0.15450   1.000
    H430    H    0.06830   0.16000   0.10620   1.000
    H431    H    0.11360   0.10530   0.16220   1.000
    H432    H    0.12990   0.10260   0.07340   1.000
    C148    C    0.91600   0.14000   0.07900   1.000
    H433    H    0.95440   0.17980   0.08460   1.000
    H434    H    0.89340   0.14390   0.02850   1.000
    H435    H    0.87700   0.14660   0.11730   1.000
    H436    H    0.86220   0.13370   0.06900   1.000
    H437    H    0.92320   0.16960   0.12510   1.000
    H438    H    0.93960   0.16700   0.03630   1.000
    C149    C    0.83290   0.98100   0.06800   1.000
    H439    H    0.80780   0.02960   0.06210   1.000
    H440    H    0.82660   0.95090   0.02200   1.000
    H441    H    0.81030   0.95350   0.11080   1.000
    H442    H    0.82200   0.92640   0.06780   1.000
    H443    H    0.80320   0.00510   0.10790   1.000
    H444    H    0.81950   0.00250   0.01910   1.000
    C150    C    0.95600   0.85200   0.09500   1.000
    H445    H    0.00330   0.82460   0.10440   1.000
    H446    H    0.91940   0.83910   0.13440   1.000
    H447    H    0.93570   0.83650   0.04560   1.000
    H448    H    0.90230   0.84220   0.08520   1.000
    H449    H    0.98630   0.82760   0.05520   1.000
    H450    H    0.96990   0.83030   0.14400   1.000
    C151    C    0.95900   0.02900   0.10700   1.000
    C152    C    0.96900   0.95000   0.10260   1.000
    C153    C    0.04700   0.93600   0.08800   1.000
    C154    C    0.08410   0.00700   0.08300   1.000
    C155    C    0.02900   0.06400   0.09500   1.000
    C156    C    0.88500   0.06900   0.12200   1.000
    H451    H    0.89270   0.12340   0.12200   1.000
    H452    H    0.84830   0.05550   0.08220   1.000
    H453    H    0.86470   0.05280   0.17100   1.000
    H454    H    0.84440   0.03110   0.12810   1.000
    H455    H    0.88880   0.09890   0.16790   1.000
    H456    H    0.87240   0.10160   0.07910   1.000
    C157    C    0.90900   0.89000   0.11200   1.000
    H457    H    0.86040   0.91470   0.12160   1.000
    H458    H    0.90570   0.86000   0.06570   1.000
    H459    H    0.92200   0.85740   0.15450   1.000
    H460    H    0.93170   0.84000   0.10620   1.000
    H461    H    0.88640   0.89470   0.16220   1.000
    H462    H    0.87010   0.89740   0.07340   1.000
    C158    C    0.08400   0.86000   0.07900   1.000
    H463    H    0.04560   0.82020   0.08460   1.000
    H464    H    0.10660   0.85610   0.02850   1.000
    H465    H    0.12300   0.85340   0.11730   1.000
    H466    H    0.13780   0.86630   0.06900   1.000
    H467    H    0.07680   0.83040   0.12510   1.000
    H468    H    0.06040   0.83300   0.03630   1.000
    C159    C    0.16710   0.01900   0.06800   1.000
    H469    H    0.19220   0.97040   0.06210   1.000
    H470    H    0.17340   0.04910   0.02200   1.000
    H471    H    0.18970   0.04650   0.11080   1.000
    H472    H    0.17800   0.07360   0.06780   1.000
    H473    H    0.19680   0.99490   0.10790   1.000
    H474    H    0.18050   0.99750   0.01910   1.000
    C160    C    0.04400   0.14800   0.09500   1.000
    H475    H    0.99670   0.17540   0.10440   1.000
    H476    H    0.08060   0.16090   0.13440   1.000
    H477    H    0.06430   0.16350   0.04560   1.000
    H478    H    0.09770   0.15780   0.08520   1.000
    H479    H    0.01370   0.17240   0.05520   1.000
    H480    H    0.03010   0.16970   0.14400   1.000
    C161    C    0.89300   0.95900   0.97100   1.000
    C162    C    0.89740   0.96900   0.05000   1.000
    C163    C    0.91200   0.04700   0.06400   1.000
    C164    C    0.91700   0.08410   0.99300   1.000
    C165    C    0.90500   0.02900   0.93600   1.000
    C166    C    0.87800   0.88500   0.93100   1.000
    H481    H    0.87800   0.89270   0.87660   1.000
    H482    H    0.91780   0.84830   0.94450   1.000
    H483    H    0.82900   0.86470   0.94720   1.000
    H484    H    0.87190   0.84440   0.96890   1.000
    H485    H    0.83210   0.88880   0.90110   1.000
    H486    H    0.92090   0.87240   0.89840   1.000
    C167    C    0.88800   0.90900   0.11000   1.000
    H487    H    0.87840   0.86040   0.08530   1.000
    H488    H    0.93430   0.90570   0.14000   1.000
    H489    H    0.84550   0.92200   0.14260   1.000
    H490    H    0.89380   0.93170   0.16000   1.000
    H491    H    0.83780   0.88640   0.10530   1.000
    H492    H    0.92660   0.87010   0.10260   1.000
    C168    C    0.92100   0.08400   0.14000   1.000
    H493    H    0.91540   0.04560   0.17980   1.000
    H494    H    0.97150   0.10660   0.14390   1.000
    H495    H    0.88270   0.12300   0.14660   1.000
    H496    H    0.93100   0.13780   0.13370   1.000
    H497    H    0.87490   0.07680   0.16960   1.000
    H498    H    0.96370   0.06040   0.16700   1.000
    C169    C    0.93200   0.16710   0.98100   1.000
    H499    H    0.93790   0.19220   0.02960   1.000
    H500    H    0.97800   0.17340   0.95090   1.000
    H501    H    0.88920   0.18970   0.95350   1.000
    H502    H    0.93220   0.17800   0.92640   1.000
    H503    H    0.89210   0.19680   0.00510   1.000
    H504    H    0.98090   0.18050   0.00250   1.000
    C170    C    0.90500   0.04400   0.85200   1.000
    H505    H    0.89560   0.99670   0.82460   1.000
    H506    H    0.86560   0.08060   0.83910   1.000
    H507    H    0.95440   0.06430   0.83650   1.000
    H508    H    0.91480   0.09770   0.84220   1.000
    H509    H    0.94480   0.01370   0.82760   1.000
    H510    H    0.85600   0.03010   0.83030   1.000
    C171    C    0.89300   0.04100   0.02900   1.000
    C172    C    0.89740   0.03100   0.95000   1.000
    C173    C    0.91200   0.95300   0.93600   1.000
    C174    C    0.91700   0.91590   0.00700   1.000
    C175    C    0.90500   0.97100   0.06400   1.000
    C176    C    0.87800   0.11500   0.06900   1.000
    H511    H    0.87800   0.10730   0.12340   1.000
    H512    H    0.91780   0.15170   0.05550   1.000
    H513    H    0.82900   0.13530   0.05280   1.000
    H514    H    0.87190   0.15560   0.03110   1.000
    H515    H    0.83210   0.11120   0.09890   1.000
    H516    H    0.92090   0.12760   0.10160   1.000
    C177    C    0.88800   0.09100   0.89000   1.000
    H517    H    0.87840   0.13960   0.91470   1.000
    H518    H    0.93430   0.09430   0.86000   1.000
    H519    H    0.84550   0.07800   0.85740   1.000
    H520    H    0.89380   0.06830   0.84000   1.000
    H521    H    0.83780   0.11360   0.89470   1.000
    H522    H    0.92660   0.12990   0.89740   1.000
    C178    C    0.92100   0.91600   0.86000   1.000
    H523    H    0.91540   0.95440   0.82020   1.000
    H524    H    0.97150   0.89340   0.85610   1.000
    H525    H    0.88270   0.87700   0.85340   1.000
    H526    H    0.93100   0.86220   0.86630   1.000
    H527    H    0.87490   0.92320   0.83040   1.000
    H528    H    0.96370   0.93960   0.83300   1.000
    C179    C    0.93200   0.83290   0.01900   1.000
    H529    H    0.93790   0.80780   0.97040   1.000
    H530    H    0.97800   0.82660   0.04910   1.000
    H531    H    0.88920   0.81030   0.04650   1.000
    H532    H    0.93220   0.82200   0.07360   1.000
    H533    H    0.89210   0.80320   0.99490   1.000
    H534    H    0.98090   0.81950   0.99750   1.000
    C180    C    0.90500   0.95600   0.14800   1.000
    H535    H    0.89560   0.00330   0.17540   1.000
    H536    H    0.86560   0.91940   0.16090   1.000
    H537    H    0.95440   0.93570   0.16350   1.000
    H538    H    0.91480   0.90230   0.15780   1.000
    H539    H    0.94480   0.98630   0.17240   1.000
    H540    H    0.85600   0.96990   0.16970   1.000
    C181    C    0.10700   0.04100   0.97100   1.000
    C182    C    0.10260   0.03100   0.05000   1.000
    C183    C    0.08800   0.95300   0.06400   1.000
    C184    C    0.08300   0.91590   0.99300   1.000
    C185    C    0.09500   0.97100   0.93600   1.000
    C186    C    0.12200   0.11500   0.93100   1.000
    H541    H    0.12200   0.10730   0.87660   1.000
    H542    H    0.08220   0.15170   0.94450   1.000
    H543    H    0.17100   0.13530   0.94720   1.000
    H544    H    0.12810   0.15560   0.96890   1.000
    H545    H    0.16790   0.11120   0.90110   1.000
    H546    H    0.07910   0.12760   0.89840   1.000
    C187    C    0.11200   0.09100   0.11000   1.000
    H547    H    0.12160   0.13960   0.08530   1.000
    H548    H    0.06570   0.09430   0.14000   1.000
    H549    H    0.15450   0.07800   0.14260   1.000
    H550    H    0.10620   0.06830   0.16000   1.000
    H551    H    0.16220   0.11360   0.10530   1.000
    H552    H    0.07340   0.12990   0.10260   1.000
    C188    C    0.07900   0.91600   0.14000   1.000
    H553    H    0.08460   0.95440   0.17980   1.000
    H554    H    0.02850   0.89340   0.14390   1.000
    H555    H    0.11730   0.87700   0.14660   1.000
    H556    H    0.06900   0.86220   0.13370   1.000
    H557    H    0.12510   0.92320   0.16960   1.000
    H558    H    0.03630   0.93960   0.16700   1.000
    C189    C    0.06800   0.83290   0.98100   1.000
    H559    H    0.06210   0.80780   0.02960   1.000
    H560    H    0.02200   0.82660   0.95090   1.000
    H561    H    0.11080   0.81030   0.95350   1.000
    H562    H    0.06780   0.82200   0.92640   1.000
    H563    H    0.10790   0.80320   0.00510   1.000
    H564    H    0.01910   0.81950   0.00250   1.000
    C190    C    0.09500   0.95600   0.85200   1.000
    H565    H    0.10440   0.00330   0.82460   1.000
    H566    H    0.13440   0.91940   0.83910   1.000
    H567    H    0.04560   0.93570   0.83650   1.000
    H568    H    0.08520   0.90230   0.84220   1.000
    H569    H    0.05520   0.98630   0.82760   1.000
    H570    H    0.14400   0.96990   0.83030   1.000
    C191    C    0.10700   0.95900   0.02900   1.000
    C192    C    0.10260   0.96900   0.95000   1.000
    C193    C    0.08800   0.04700   0.93600   1.000
    C194    C    0.08300   0.08410   0.00700   1.000
    C195    C    0.09500   0.02900   0.06400   1.000
    C196    C    0.12200   0.88500   0.06900   1.000
    H571    H    0.12200   0.89270   0.12340   1.000
    H572    H    0.08220   0.84830   0.05550   1.000
    H573    H    0.17100   0.86470   0.05280   1.000
    H574    H    0.12810   0.84440   0.03110   1.000
    H575    H    0.16790   0.88880   0.09890   1.000
    H576    H    0.07910   0.87240   0.10160   1.000
    C197    C    0.11200   0.90900   0.89000   1.000
    H577    H    0.12160   0.86040   0.91470   1.000
    H578    H    0.06570   0.90570   0.86000   1.000
    H579    H    0.15450   0.92200   0.85740   1.000
    H580    H    0.10620   0.93170   0.84000   1.000
    H581    H    0.16220   0.88640   0.89470   1.000
    H582    H    0.07340   0.87010   0.89740   1.000
    C198    C    0.07900   0.08400   0.86000   1.000
    H583    H    0.08460   0.04560   0.82020   1.000
    H584    H    0.02850   0.10660   0.85610   1.000
    H585    H    0.11730   0.12300   0.85340   1.000
    H586    H    0.06900   0.13780   0.86630   1.000
    H587    H    0.12510   0.07680   0.83040   1.000
    H588    H    0.03630   0.06040   0.83300   1.000
    C199    C    0.06800   0.16710   0.01900   1.000
    H589    H    0.06210   0.19220   0.97040   1.000
    H590    H    0.02200   0.17340   0.04910   1.000
    H591    H    0.11080   0.18970   0.04650   1.000
    H592    H    0.06780   0.17800   0.07360   1.000
    H593    H    0.10790   0.19680   0.99490   1.000
    H594    H    0.01910   0.18050   0.99750   1.000
    C200    C    0.09500   0.04400   0.14800   1.000
    H595    H    0.10440   0.99670   0.17540   1.000
    H596    H    0.13440   0.08060   0.16090   1.000
    H597    H    0.04560   0.06430   0.16350   1.000
    H598    H    0.08520   0.09770   0.15780   1.000
    H599    H    0.05520   0.01370   0.17240   1.000
    H600    H    0.14400   0.03010   0.16970   1.000
    C201    C    0.97100   0.89300   0.95900   1.000
    C202    C    0.05000   0.89740   0.96900   1.000
    C203    C    0.06400   0.91200   0.04700   1.000
    C204    C    0.99300   0.91700   0.08410   1.000
    C205    C    0.93600   0.90500   0.02900   1.000
    C206    C    0.93100   0.87800   0.88500   1.000
    H601    H    0.87660   0.87800   0.89270   1.000
    H602    H    0.94450   0.91780   0.84830   1.000
    H603    H    0.94720   0.82900   0.86470   1.000
    H604    H    0.96890   0.87190   0.84440   1.000
    H605    H    0.90110   0.83210   0.88880   1.000
    H606    H    0.89840   0.92090   0.87240   1.000
    C207    C    0.11000   0.88800   0.90900   1.000
    H607    H    0.08530   0.87840   0.86040   1.000
    H608    H    0.14000   0.93430   0.90570   1.000
    H609    H    0.14260   0.84550   0.92200   1.000
    H610    H    0.16000   0.89380   0.93170   1.000
    H611    H    0.10530   0.83780   0.88640   1.000
    H612    H    0.10260   0.92660   0.87010   1.000
    C208    C    0.14000   0.92100   0.08400   1.000
    H613    H    0.17980   0.91540   0.04560   1.000
    H614    H    0.14390   0.97150   0.10660   1.000
    H615    H    0.14660   0.88270   0.12300   1.000
    H616    H    0.13370   0.93100   0.13780   1.000
    H617    H    0.16960   0.87490   0.07680   1.000
    H618    H    0.16700   0.96370   0.06040   1.000
    C209    C    0.98100   0.93200   0.16710   1.000
    H619    H    0.02960   0.93790   0.19220   1.000
    H620    H    0.95090   0.97800   0.17340   1.000
    H621    H    0.95350   0.88920   0.18970   1.000
    H622    H    0.92640   0.93220   0.17800   1.000
    H623    H    0.00510   0.89210   0.19680   1.000
    H624    H    0.00250   0.98090   0.18050   1.000
    C210    C    0.85200   0.90500   0.04400   1.000
    H625    H    0.82460   0.89560   0.99670   1.000
    H626    H    0.83910   0.86560   0.08060   1.000
    H627    H    0.83650   0.95440   0.06430   1.000
    H628    H    0.84220   0.91480   0.09770   1.000
    H629    H    0.82760   0.94480   0.01370   1.000
    H630    H    0.83030   0.85600   0.03010   1.000
    C211    C    0.02900   0.89300   0.04100   1.000
    C212    C    0.95000   0.89740   0.03100   1.000
    C213    C    0.93600   0.91200   0.95300   1.000
    C214    C    0.00700   0.91700   0.91590   1.000
    C215    C    0.06400   0.90500   0.97100   1.000
    C216    C    0.06900   0.87800   0.11500   1.000
    H631    H    0.12340   0.87800   0.10730   1.000
    H632    H    0.05550   0.91780   0.15170   1.000
    H633    H    0.05280   0.82900   0.13530   1.000
    H634    H    0.03110   0.87190   0.15560   1.000
    H635    H    0.09890   0.83210   0.11120   1.000
    H636    H    0.10160   0.92090   0.12760   1.000
    C217    C    0.89000   0.88800   0.09100   1.000
    H637    H    0.91470   0.87840   0.13960   1.000
    H638    H    0.86000   0.93430   0.09430   1.000
    H639    H    0.85740   0.84550   0.07800   1.000
    H640    H    0.84000   0.89380   0.06830   1.000
    H641    H    0.89470   0.83780   0.11360   1.000
    H642    H    0.89740   0.92660   0.12990   1.000
    C218    C    0.86000   0.92100   0.91600   1.000
    H643    H    0.82020   0.91540   0.95440   1.000
    H644    H    0.85610   0.97150   0.89340   1.000
    H645    H    0.85340   0.88270   0.87700   1.000
    H646    H    0.86630   0.93100   0.86220   1.000
    H647    H    0.83040   0.87490   0.92320   1.000
    H648    H    0.83300   0.96370   0.93960   1.000
    C219    C    0.01900   0.93200   0.83290   1.000
    H649    H    0.97040   0.93790   0.80780   1.000
    H650    H    0.04910   0.97800   0.82660   1.000
    H651    H    0.04650   0.88920   0.81030   1.000
    H652    H    0.07360   0.93220   0.82200   1.000
    H653    H    0.99490   0.89210   0.80320   1.000
    H654    H    0.99750   0.98090   0.81950   1.000
    C220    C    0.14800   0.90500   0.95600   1.000
    H655    H    0.17540   0.89560   0.00330   1.000
    H656    H    0.16090   0.86560   0.91940   1.000
    H657    H    0.16350   0.95440   0.93570   1.000
    H658    H    0.15780   0.91480   0.90230   1.000
    H659    H    0.17240   0.94480   0.98630   1.000
    H660    H    0.16970   0.85600   0.96990   1.000
    C221    C    0.97100   0.10700   0.04100   1.000
    C222    C    0.05000   0.10260   0.03100   1.000
    C223    C    0.06400   0.08800   0.95300   1.000
    C224    C    0.99300   0.08300   0.91590   1.000
    C225    C    0.93600   0.09500   0.97100   1.000
    C226    C    0.93100   0.12200   0.11500   1.000
    H661    H    0.87660   0.12200   0.10730   1.000
    H662    H    0.94450   0.08220   0.15170   1.000
    H663    H    0.94720   0.17100   0.13530   1.000
    H664    H    0.96890   0.12810   0.15560   1.000
    H665    H    0.90110   0.16790   0.11120   1.000
    H666    H    0.89840   0.07910   0.12760   1.000
    C227    C    0.11000   0.11200   0.09100   1.000
    H667    H    0.08530   0.12160   0.13960   1.000
    H668    H    0.14000   0.06570   0.09430   1.000
    H669    H    0.14260   0.15450   0.07800   1.000
    H670    H    0.16000   0.10620   0.06830   1.000
    H671    H    0.10530   0.16220   0.11360   1.000
    H672    H    0.10260   0.07340   0.12990   1.000
    C228    C    0.14000   0.07900   0.91600   1.000
    H673    H    0.17980   0.08460   0.95440   1.000
    H674    H    0.14390   0.02850   0.89340   1.000
    H675    H    0.14660   0.11730   0.87700   1.000
    H676    H    0.13370   0.06900   0.86220   1.000
    H677    H    0.16960   0.12510   0.92320   1.000
    H678    H    0.16700   0.03630   0.93960   1.000
    C229    C    0.98100   0.06800   0.83290   1.000
    H679    H    0.02960   0.06210   0.80780   1.000
    H680    H    0.95090   0.02200   0.82660   1.000
    H681    H    0.95350   0.11080   0.81030   1.000
    H682    H    0.92640   0.06780   0.82200   1.000
    H683    H    0.00510   0.10790   0.80320   1.000
    H684    H    0.00250   0.01910   0.81950   1.000
    C230    C    0.85200   0.09500   0.95600   1.000
    H685    H    0.82460   0.10440   0.00330   1.000
    H686    H    0.83910   0.13440   0.91940   1.000
    H687    H    0.83650   0.04560   0.93570   1.000
    H688    H    0.84220   0.08520   0.90230   1.000
    H689    H    0.82760   0.05520   0.98630   1.000
    H690    H    0.83030   0.14400   0.96990   1.000
    C231    C    0.02900   0.10700   0.95900   1.000
    C232    C    0.95000   0.10260   0.96900   1.000
    C233    C    0.93600   0.08800   0.04700   1.000
    C234    C    0.00700   0.08300   0.08410   1.000
    C235    C    0.06400   0.09500   0.02900   1.000
    C236    C    0.06900   0.12200   0.88500   1.000
    H691    H    0.12340   0.12200   0.89270   1.000
    H692    H    0.05550   0.08220   0.84830   1.000
    H693    H    0.05280   0.17100   0.86470   1.000
    H694    H    0.03110   0.12810   0.84440   1.000
    H695    H    0.09890   0.16790   0.88880   1.000
    H696    H    0.10160   0.07910   0.87240   1.000
    C237    C    0.89000   0.11200   0.90900   1.000
    H697    H    0.91470   0.12160   0.86040   1.000
    H698    H    0.86000   0.06570   0.90570   1.000
    H699    H    0.85740   0.15450   0.92200   1.000
    H700    H    0.84000   0.10620   0.93170   1.000
    H701    H    0.89470   0.16220   0.88640   1.000
    H702    H    0.89740   0.07340   0.87010   1.000
    C238    C    0.86000   0.07900   0.08400   1.000
    H703    H    0.82020   0.08460   0.04560   1.000
    H704    H    0.85610   0.02850   0.10660   1.000
    H705    H    0.85340   0.11730   0.12300   1.000
    H706    H    0.86630   0.06900   0.13780   1.000
    H707    H    0.83040   0.12510   0.07680   1.000
    H708    H    0.83300   0.03630   0.06040   1.000
    C239    C    0.01900   0.06800   0.16710   1.000
    H709    H    0.97040   0.06210   0.19220   1.000
    H710    H    0.04910   0.02200   0.17340   1.000
    H711    H    0.04650   0.11080   0.18970   1.000
    H712    H    0.07360   0.06780   0.17800   1.000
    H713    H    0.99490   0.10790   0.19680   1.000
    H714    H    0.99750   0.01910   0.18050   1.000
    C240    C    0.14800   0.09500   0.04400   1.000
    H715    H    0.17540   0.10440   0.99670   1.000
    H716    H    0.16090   0.13440   0.08060   1.000
    H717    H    0.16350   0.04560   0.06430   1.000
    H718    H    0.15780   0.08520   0.09770   1.000
    H719    H    0.17240   0.05520   0.01370   1.000
    H720    H    0.16970   0.14400   0.03010   1.000
    Fe1     Fe   0.00000   0.00000   0.00000   1.000
    C241    C    0.54100   0.52900   0.60700   1.000
    C242    C    0.53100   0.45000   0.60260   1.000
    C243    C    0.45300   0.43600   0.58800   1.000
    C244    C    0.41590   0.50700   0.58300   1.000
    C245    C    0.47100   0.56400   0.59500   1.000
    C246    C    0.61500   0.56900   0.62200   1.000
    H721    H    0.60730   0.62340   0.62200   1.000
    H722    H    0.65170   0.55550   0.58220   1.000
    H723    H    0.63530   0.55280   0.67100   1.000
    H724    H    0.65560   0.53110   0.62810   1.000
    H725    H    0.61120   0.59890   0.66790   1.000
    H726    H    0.62760   0.60160   0.57910   1.000
    C247    C    0.59100   0.39000   0.61200   1.000
    H727    H    0.63960   0.41470   0.62160   1.000
    H728    H    0.59430   0.36000   0.56570   1.000
    H729    H    0.57800   0.35740   0.65450   1.000
    H730    H    0.56830   0.34000   0.60620   1.000
    H731    H    0.61360   0.39470   0.66220   1.000
    H732    H    0.62990   0.39740   0.57340   1.000
    C248    C    0.41600   0.36000   0.57900   1.000
    H733    H    0.45440   0.32020   0.58460   1.000
    H734    H    0.39340   0.35610   0.52850   1.000
    H735    H    0.37700   0.35340   0.61730   1.000
    H736    H    0.36220   0.36630   0.56900   1.000
    H737    H    0.42320   0.33040   0.62510   1.000
    H738    H    0.43960   0.33300   0.53630   1.000
    C249    C    0.33290   0.51900   0.56800   1.000
    H739    H    0.30780   0.47040   0.56210   1.000
    H740    H    0.32660   0.54910   0.52200   1.000
    H741    H    0.31030   0.54650   0.61080   1.000
    H742    H    0.32200   0.57360   0.56780   1.000
    H743    H    0.30320   0.49490   0.60790   1.000
    H744    H    0.31950   0.49750   0.51910   1.000
    C250    C    0.45600   0.64800   0.59500   1.000
    H745    H    0.50330   0.67540   0.60440   1.000
    H746    H    0.41940   0.66090   0.63440   1.000
    H747    H    0.43570   0.66350   0.54560   1.000
    H748    H    0.40230   0.65780   0.58520   1.000
    H749    H    0.48630   0.67240   0.55520   1.000
    H750    H    0.46990   0.66970   0.64400   1.000
    C251    C    0.45900   0.47100   0.60700   1.000
    C252    C    0.46900   0.55000   0.60260   1.000
    C253    C    0.54700   0.56400   0.58800   1.000
    C254    C    0.58410   0.49300   0.58300   1.000
    C255    C    0.52900   0.43600   0.59500   1.000
    C256    C    0.38500   0.43100   0.62200   1.000
    H751    H    0.39270   0.37660   0.62200   1.000
    H752    H    0.34830   0.44450   0.58220   1.000
    H753    H    0.36470   0.44720   0.67100   1.000
    H754    H    0.34440   0.46890   0.62810   1.000
    H755    H    0.38880   0.40110   0.66790   1.000
    H756    H    0.37240   0.39840   0.57910   1.000
    C257    C    0.40900   0.61000   0.61200   1.000
    H757    H    0.36040   0.58530   0.62160   1.000
    H758    H    0.40570   0.64000   0.56570   1.000
    H759    H    0.42200   0.64260   0.65450   1.000
    H760    H    0.43170   0.66000   0.60620   1.000
    H761    H    0.38640   0.60530   0.66220   1.000
    H762    H    0.37010   0.60260   0.57340   1.000
    C258    C    0.58400   0.64000   0.57900   1.000
    H763    H    0.54560   0.67980   0.58460   1.000
    H764    H    0.60660   0.64390   0.52850   1.000
    H765    H    0.62300   0.64660   0.61730   1.000
    H766    H    0.63780   0.63370   0.56900   1.000
    H767    H    0.57680   0.66960   0.62510   1.000
    H768    H    0.56040   0.66700   0.53630   1.000
    C259    C    0.66710   0.48100   0.56800   1.000
    H769    H    0.69220   0.52960   0.56210   1.000
    H770    H    0.67340   0.45090   0.52200   1.000
    H771    H    0.68970   0.45350   0.61080   1.000
    H772    H    0.67800   0.42640   0.56780   1.000
    H773    H    0.69680   0.50510   0.60790   1.000
    H774    H    0.68050   0.50250   0.51910   1.000
    C260    C    0.54400   0.35200   0.59500   1.000
    H775    H    0.49670   0.32460   0.60440   1.000
    H776    H    0.58060   0.33910   0.63440   1.000
    H777    H    0.56430   0.33650   0.54560   1.000
    H778    H    0.59770   0.34220   0.58520   1.000
    H779    H    0.51370   0.32760   0.55520   1.000
    H780    H    0.53010   0.33030   0.64400   1.000
    C261    C    0.45900   0.52900   0.39300   1.000
    C262    C    0.46900   0.45000   0.39740   1.000
    C263    C    0.54700   0.43600   0.41200   1.000
    C264    C    0.58410   0.50700   0.41700   1.000
    C265    C    0.52900   0.56400   0.40500   1.000
    C266    C    0.38500   0.56900   0.37800   1.000
    H781    H    0.39270   0.62340   0.37800   1.000
    H782    H    0.34830   0.55550   0.41780   1.000
    H783    H    0.36470   0.55280   0.32900   1.000
    H784    H    0.34440   0.53110   0.37190   1.000
    H785    H    0.38880   0.59890   0.33210   1.000
    H786    H    0.37240   0.60160   0.42090   1.000
    C267    C    0.40900   0.39000   0.38800   1.000
    H787    H    0.36040   0.41470   0.37840   1.000
    H788    H    0.40570   0.36000   0.43430   1.000
    H789    H    0.42200   0.35740   0.34550   1.000
    H790    H    0.43170   0.34000   0.39380   1.000
    H791    H    0.38640   0.39470   0.33780   1.000
    H792    H    0.37010   0.39740   0.42660   1.000
    C268    C    0.58400   0.36000   0.42100   1.000
    H793    H    0.54560   0.32020   0.41540   1.000
    H794    H    0.60660   0.35610   0.47150   1.000
    H795    H    0.62300   0.35340   0.38270   1.000
    H796    H    0.63780   0.36630   0.43100   1.000
    H797    H    0.57680   0.33040   0.37490   1.000
    H798    H    0.56040   0.33300   0.46370   1.000
    C269    C    0.66710   0.51900   0.43200   1.000
    H799    H    0.69220   0.47040   0.43790   1.000
    H800    H    0.67340   0.54910   0.47800   1.000
    H801    H    0.68970   0.54650   0.38920   1.000
    H802    H    0.67800   0.57360   0.43220   1.000
    H803    H    0.69680   0.49490   0.39210   1.000
    H804    H    0.68050   0.49750   0.48090   1.000
    C270    C    0.54400   0.64800   0.40500   1.000
    H805    H    0.49670   0.67540   0.39560   1.000
    H806    H    0.58060   0.66090   0.36560   1.000
    H807    H    0.56430   0.66350   0.45440   1.000
    H808    H    0.59770   0.65780   0.41480   1.000
    H809    H    0.51370   0.67240   0.44480   1.000
    H810    H    0.53010   0.66970   0.35600   1.000
    C271    C    0.54100   0.47100   0.39300   1.000
    C272    C    0.53100   0.55000   0.39740   1.000
    C273    C    0.45300   0.56400   0.41200   1.000
    C274    C    0.41590   0.49300   0.41700   1.000
    C275    C    0.47100   0.43600   0.40500   1.000
    C276    C    0.61500   0.43100   0.37800   1.000
    H811    H    0.60730   0.37660   0.37800   1.000
    H812    H    0.65170   0.44450   0.41780   1.000
    H813    H    0.63530   0.44720   0.32900   1.000
    H814    H    0.65560   0.46890   0.37190   1.000
    H815    H    0.61120   0.40110   0.33210   1.000
    H816    H    0.62760   0.39840   0.42090   1.000
    C277    C    0.59100   0.61000   0.38800   1.000
    H817    H    0.63960   0.58530   0.37840   1.000
    H818    H    0.59430   0.64000   0.43430   1.000
    H819    H    0.57800   0.64260   0.34550   1.000
    H820    H    0.56830   0.66000   0.39380   1.000
    H821    H    0.61360   0.60530   0.33780   1.000
    H822    H    0.62990   0.60260   0.42660   1.000
    C278    C    0.41600   0.64000   0.42100   1.000
    H823    H    0.45440   0.67980   0.41540   1.000
    H824    H    0.39340   0.64390   0.47150   1.000
    H825    H    0.37700   0.64660   0.38270   1.000
    H826    H    0.36220   0.63370   0.43100   1.000
    H827    H    0.42320   0.66960   0.37490   1.000
    H828    H    0.43960   0.66700   0.46370   1.000
    C279    C    0.33290   0.48100   0.43200   1.000
    H829    H    0.30780   0.52960   0.43790   1.000
    H830    H    0.32660   0.45090   0.47800   1.000
    H831    H    0.31030   0.45350   0.38920   1.000
    H832    H    0.32200   0.42640   0.43220   1.000
    H833    H    0.30320   0.50510   0.39210   1.000
    H834    H    0.31950   0.50250   0.48090   1.000
    C280    C    0.45600   0.35200   0.40500   1.000
    H835    H    0.50330   0.32460   0.39560   1.000
    H836    H    0.41940   0.33910   0.36560   1.000
    H837    H    0.43570   0.33650   0.45440   1.000
    H838    H    0.40230   0.34220   0.41480   1.000
    H839    H    0.48630   0.32760   0.44480   1.000
    H840    H    0.46990   0.33030   0.35600   1.000
    C281    C    0.60700   0.54100   0.52900   1.000
    C282    C    0.60260   0.53100   0.45000   1.000
    C283    C    0.58800   0.45300   0.43600   1.000
    C284    C    0.58300   0.41590   0.50700   1.000
    C285    C    0.59500   0.47100   0.56400   1.000
    C286    C    0.62200   0.61500   0.56900   1.000
    H841    H    0.62200   0.60730   0.62340   1.000
    H842    H    0.58220   0.65170   0.55550   1.000
    H843    H    0.67100   0.63530   0.55280   1.000
    H844    H    0.62810   0.65560   0.53110   1.000
    H845    H    0.66790   0.61120   0.59890   1.000
    H846    H    0.57910   0.62760   0.60160   1.000
    C287    C    0.61200   0.59100   0.39000   1.000
    H847    H    0.62160   0.63960   0.41470   1.000
    H848    H    0.56570   0.59430   0.36000   1.000
    H849    H    0.65450   0.57800   0.35740   1.000
    H850    H    0.60620   0.56830   0.34000   1.000
    H851    H    0.66220   0.61360   0.39470   1.000
    H852    H    0.57340   0.62990   0.39740   1.000
    C288    C    0.57900   0.41600   0.36000   1.000
    H853    H    0.58460   0.45440   0.32020   1.000
    H854    H    0.52850   0.39340   0.35610   1.000
    H855    H    0.61730   0.37700   0.35340   1.000
    H856    H    0.56900   0.36220   0.36630   1.000
    H857    H    0.62510   0.42320   0.33040   1.000
    H858    H    0.53630   0.43960   0.33300   1.000
    C289    C    0.56800   0.33290   0.51900   1.000
    H859    H    0.56210   0.30780   0.47040   1.000
    H860    H    0.52200   0.32660   0.54910   1.000
    H861    H    0.61080   0.31030   0.54650   1.000
    H862    H    0.56780   0.32200   0.57360   1.000
    H863    H    0.60790   0.30320   0.49490   1.000
    H864    H    0.51910   0.31950   0.49750   1.000
    C290    C    0.59500   0.45600   0.64800   1.000
    H865    H    0.60440   0.50330   0.67540   1.000
    H866    H    0.63440   0.41940   0.66090   1.000
    H867    H    0.54560   0.43570   0.66350   1.000
    H868    H    0.58520   0.40230   0.65780   1.000
    H869    H    0.55520   0.48630   0.67240   1.000
    H870    H    0.64400   0.46990   0.66970   1.000
    C291    C    0.60700   0.45900   0.47100   1.000
    C292    C    0.60260   0.46900   0.55000   1.000
    C293    C    0.58800   0.54700   0.56400   1.000
    C294    C    0.58300   0.58410   0.49300   1.000
    C295    C    0.59500   0.52900   0.43600   1.000
    C296    C    0.62200   0.38500   0.43100   1.000
    H871    H    0.62200   0.39270   0.37660   1.000
    H872    H    0.58220   0.34830   0.44450   1.000
    H873    H    0.67100   0.36470   0.44720   1.000
    H874    H    0.62810   0.34440   0.46890   1.000
    H875    H    0.66790   0.38880   0.40110   1.000
    H876    H    0.57910   0.37240   0.39840   1.000
    C297    C    0.61200   0.40900   0.61000   1.000
    H877    H    0.62160   0.36040   0.58530   1.000
    H878    H    0.56570   0.40570   0.64000   1.000
    H879    H    0.65450   0.42200   0.64260   1.000
    H880    H    0.60620   0.43170   0.66000   1.000
    H881    H    0.66220   0.38640   0.60530   1.000
    H882    H    0.57340   0.37010   0.60260   1.000
    C298    C    0.57900   0.58400   0.64000   1.000
    H883    H    0.58460   0.54560   0.67980   1.000
    H884    H    0.52850   0.60660   0.64390   1.000
    H885    H    0.61730   0.62300   0.64660   1.000
    H886    H    0.56900   0.63780   0.63370   1.000
    H887    H    0.62510   0.57680   0.66960   1.000
    H888    H    0.53630   0.56040   0.66700   1.000
    C299    C    0.56800   0.66710   0.48100   1.000
    H889    H    0.56210   0.69220   0.52960   1.000
    H890    H    0.52200   0.67340   0.45090   1.000
    H891    H    0.61080   0.68970   0.45350   1.000
    H892    H    0.56780   0.67800   0.42640   1.000
    H893    H    0.60790   0.69680   0.50510   1.000
    H894    H    0.51910   0.68050   0.50250   1.000
    C300    C    0.59500   0.54400   0.35200   1.000
    H895    H    0.60440   0.49670   0.32460   1.000
    H896    H    0.63440   0.58060   0.33910   1.000
    H897    H    0.54560   0.56430   0.33650   1.000
    H898    H    0.58520   0.59770   0.34220   1.000
    H899    H    0.55520   0.51370   0.32760   1.000
    H900    H    0.64400   0.53010   0.33030   1.000
    C301    C    0.39300   0.45900   0.52900   1.000
    C302    C    0.39740   0.46900   0.45000   1.000
    C303    C    0.41200   0.54700   0.43600   1.000
    C304    C    0.41700   0.58410   0.50700   1.000
    C305    C    0.40500   0.52900   0.56400   1.000
    C306    C    0.37800   0.38500   0.56900   1.000
    H901    H    0.37800   0.39270   0.62340   1.000
    H902    H    0.41780   0.34830   0.55550   1.000
    H903    H    0.32900   0.36470   0.55280   1.000
    H904    H    0.37190   0.34440   0.53110   1.000
    H905    H    0.33210   0.38880   0.59890   1.000
    H906    H    0.42090   0.37240   0.60160   1.000
    C307    C    0.38800   0.40900   0.39000   1.000
    H907    H    0.37840   0.36040   0.41470   1.000
    H908    H    0.43430   0.40570   0.36000   1.000
    H909    H    0.34550   0.42200   0.35740   1.000
    H910    H    0.39380   0.43170   0.34000   1.000
    H911    H    0.33780   0.38640   0.39470   1.000
    H912    H    0.42660   0.37010   0.39740   1.000
    C308    C    0.42100   0.58400   0.36000   1.000
    H913    H    0.41540   0.54560   0.32020   1.000
    H914    H    0.47150   0.60660   0.35610   1.000
    H915    H    0.38270   0.62300   0.35340   1.000
    H916    H    0.43100   0.63780   0.36630   1.000
    H917    H    0.37490   0.57680   0.33040   1.000
    H918    H    0.46370   0.56040   0.33300   1.000
    C309    C    0.43200   0.66710   0.51900   1.000
    H919    H    0.43790   0.69220   0.47040   1.000
    H920    H    0.47800   0.67340   0.54910   1.000
    H921    H    0.38920   0.68970   0.54650   1.000
    H922    H    0.43220   0.67800   0.57360   1.000
    H923    H    0.39210   0.69680   0.49490   1.000
    H924    H    0.48090   0.68050   0.49750   1.000
    C310    C    0.40500   0.54400   0.64800   1.000
    H925    H    0.39560   0.49670   0.67540   1.000
    H926    H    0.36560   0.58060   0.66090   1.000
    H927    H    0.45440   0.56430   0.66350   1.000
    H928    H    0.41480   0.59770   0.65780   1.000
    H929    H    0.44480   0.51370   0.67240   1.000
    H930    H    0.35600   0.53010   0.66970   1.000
    C311    C    0.39300   0.54100   0.47100   1.000
    C312    C    0.39740   0.53100   0.55000   1.000
    C313    C    0.41200   0.45300   0.56400   1.000
    C314    C    0.41700   0.41590   0.49300   1.000
    C315    C    0.40500   0.47100   0.43600   1.000
    C316    C    0.37800   0.61500   0.43100   1.000
    H931    H    0.37800   0.60730   0.37660   1.000
    H932    H    0.41780   0.65170   0.44450   1.000
    H933    H    0.32900   0.63530   0.44720   1.000
    H934    H    0.37190   0.65560   0.46890   1.000
    H935    H    0.33210   0.61120   0.40110   1.000
    H936    H    0.42090   0.62760   0.39840   1.000
    C317    C    0.38800   0.59100   0.61000   1.000
    H937    H    0.37840   0.63960   0.58530   1.000
    H938    H    0.43430   0.59430   0.64000   1.000
    H939    H    0.34550   0.57800   0.64260   1.000
    H940    H    0.39380   0.56830   0.66000   1.000
    H941    H    0.33780   0.61360   0.60530   1.000
    H942    H    0.42660   0.62990   0.60260   1.000
    C318    C    0.42100   0.41600   0.64000   1.000
    H943    H    0.41540   0.45440   0.67980   1.000
    H944    H    0.47150   0.39340   0.64390   1.000
    H945    H    0.38270   0.37700   0.64660   1.000
    H946    H    0.43100   0.36220   0.63370   1.000
    H947    H    0.37490   0.42320   0.66960   1.000
    H948    H    0.46370   0.43960   0.66700   1.000
    C319    C    0.43200   0.33290   0.48100   1.000
    H949    H    0.43790   0.30780   0.52960   1.000
    H950    H    0.47800   0.32660   0.45090   1.000
    H951    H    0.38920   0.31030   0.45350   1.000
    H952    H    0.43220   0.32200   0.42640   1.000
    H953    H    0.39210   0.30320   0.50510   1.000
    H954    H    0.48090   0.31950   0.50250   1.000
    C320    C    0.40500   0.45600   0.35200   1.000
    H955    H    0.39560   0.50330   0.32460   1.000
    H956    H    0.36560   0.41940   0.33910   1.000
    H957    H    0.45440   0.43570   0.33650   1.000
    H958    H    0.41480   0.40230   0.34220   1.000
    H959    H    0.44480   0.48630   0.32760   1.000
    H960    H    0.35600   0.46990   0.33030   1.000
    C321    C    0.52900   0.60700   0.54100   1.000
    C322    C    0.45000   0.60260   0.53100   1.000
    C323    C    0.43600   0.58800   0.45300   1.000
    C324    C    0.50700   0.58300   0.41590   1.000
    C325    C    0.56400   0.59500   0.47100   1.000
    C326    C    0.56900   0.62200   0.61500   1.000
    H961    H    0.62340   0.62200   0.60730   1.000
    H962    H    0.55550   0.58220   0.65170   1.000
    H963    H    0.55280   0.67100   0.63530   1.000
    H964    H    0.53110   0.62810   0.65560   1.000
    H965    H    0.59890   0.66790   0.61120   1.000
    H966    H    0.60160   0.57910   0.62760   1.000
    C327    C    0.39000   0.61200   0.59100   1.000
    H967    H    0.41470   0.62160   0.63960   1.000
    H968    H    0.36000   0.56570   0.59430   1.000
    H969    H    0.35740   0.65450   0.57800   1.000
    H970    H    0.34000   0.60620   0.56830   1.000
    H971    H    0.39470   0.66220   0.61360   1.000
    H972    H    0.39740   0.57340   0.62990   1.000
    C328    C    0.36000   0.57900   0.41600   1.000
    H973    H    0.32020   0.58460   0.45440   1.000
    H974    H    0.35610   0.52850   0.39340   1.000
    H975    H    0.35340   0.61730   0.37700   1.000
    H976    H    0.36630   0.56900   0.36220   1.000
    H977    H    0.33040   0.62510   0.42320   1.000
    H978    H    0.33300   0.53630   0.43960   1.000
    C329    C    0.51900   0.56800   0.33290   1.000
    H979    H    0.47040   0.56210   0.30780   1.000
    H980    H    0.54910   0.52200   0.32660   1.000
    H981    H    0.54650   0.61080   0.31030   1.000
    H982    H    0.57360   0.56780   0.32200   1.000
    H983    H    0.49490   0.60790   0.30320   1.000
    H984    H    0.49750   0.51910   0.31950   1.000
    C330    C    0.64800   0.59500   0.45600   1.000
    H985    H    0.67540   0.60440   0.50330   1.000
    H986    H    0.66090   0.63440   0.41940   1.000
    H987    H    0.66350   0.54560   0.43570   1.000
    H988    H    0.65780   0.58520   0.40230   1.000
    H989    H    0.67240   0.55520   0.48630   1.000
    H990    H    0.66970   0.64400   0.46990   1.000
    C331    C    0.47100   0.60700   0.45900   1.000
    C332    C    0.55000   0.60260   0.46900   1.000
    C333    C    0.56400   0.58800   0.54700   1.000
    C334    C    0.49300   0.58300   0.58410   1.000
    C335    C    0.43600   0.59500   0.52900   1.000
    C336    C    0.43100   0.62200   0.38500   1.000
    H991    H    0.37660   0.62200   0.39270   1.000
    H992    H    0.44450   0.58220   0.34830   1.000
    H993    H    0.44720   0.67100   0.36470   1.000
    H994    H    0.46890   0.62810   0.34440   1.000
    H995    H    0.40110   0.66790   0.38880   1.000
    H996    H    0.39840   0.57910   0.37240   1.000
    C337    C    0.61000   0.61200   0.40900   1.000
    H997    H    0.58530   0.62160   0.36040   1.000
    H998    H    0.64000   0.56570   0.40570   1.000
    H999    H    0.64260   0.65450   0.42200   1.000
    H1000   H    0.66000   0.60620   0.43170   1.000
    H1001   H    0.60530   0.66220   0.38640   1.000
    H1002   H    0.60260   0.57340   0.37010   1.000
    C338    C    0.64000   0.57900   0.58400   1.000
    H1003   H    0.67980   0.58460   0.54560   1.000
    H1004   H    0.64390   0.52850   0.60660   1.000
    H1005   H    0.64660   0.61730   0.62300   1.000
    H1006   H    0.63370   0.56900   0.63780   1.000
    H1007   H    0.66960   0.62510   0.57680   1.000
    H1008   H    0.66700   0.53630   0.56040   1.000
    C339    C    0.48100   0.56800   0.66710   1.000
    H1009   H    0.52960   0.56210   0.69220   1.000
    H1010   H    0.45090   0.52200   0.67340   1.000
    H1011   H    0.45350   0.61080   0.68970   1.000
    H1012   H    0.42640   0.56780   0.67800   1.000
    H1013   H    0.50510   0.60790   0.69680   1.000
    H1014   H    0.50250   0.51910   0.68050   1.000
    C340    C    0.35200   0.59500   0.54400   1.000
    H1015   H    0.32460   0.60440   0.49670   1.000
    H1016   H    0.33910   0.63440   0.58060   1.000
    H1017   H    0.33650   0.54560   0.56430   1.000
    H1018   H    0.34220   0.58520   0.59770   1.000
    H1019   H    0.32760   0.55520   0.51370   1.000
    H1020   H    0.33030   0.64400   0.53010   1.000
    C341    C    0.52900   0.39300   0.45900   1.000
    C342    C    0.45000   0.39740   0.46900   1.000
    C343    C    0.43600   0.41200   0.54700   1.000
    C344    C    0.50700   0.41700   0.58410   1.000
    C345    C    0.56400   0.40500   0.52900   1.000
    C346    C    0.56900   0.37800   0.38500   1.000
    H1021   H    0.62340   0.37800   0.39270   1.000
    H1022   H    0.55550   0.41780   0.34830   1.000
    H1023   H    0.55280   0.32900   0.36470   1.000
    H1024   H    0.53110   0.37190   0.34440   1.000
    H1025   H    0.59890   0.33210   0.38880   1.000
    H1026   H    0.60160   0.42090   0.37240   1.000
    C347    C    0.39000   0.38800   0.40900   1.000
    H1027   H    0.41470   0.37840   0.36040   1.000
    H1028   H    0.36000   0.43430   0.40570   1.000
    H1029   H    0.35740   0.34550   0.42200   1.000
    H1030   H    0.34000   0.39380   0.43170   1.000
    H1031   H    0.39470   0.33780   0.38640   1.000
    H1032   H    0.39740   0.42660   0.37010   1.000
    C348    C    0.36000   0.42100   0.58400   1.000
    H1033   H    0.32020   0.41540   0.54560   1.000
    H1034   H    0.35610   0.47150   0.60660   1.000
    H1035   H    0.35340   0.38270   0.62300   1.000
    H1036   H    0.36630   0.43100   0.63780   1.000
    H1037   H    0.33040   0.37490   0.57680   1.000
    H1038   H    0.33300   0.46370   0.56040   1.000
    C349    C    0.51900   0.43200   0.66710   1.000
    H1039   H    0.47040   0.43790   0.69220   1.000
    H1040   H    0.54910   0.47800   0.67340   1.000
    H1041   H    0.54650   0.38920   0.68970   1.000
    H1042   H    0.57360   0.43220   0.67800   1.000
    H1043   H    0.49490   0.39210   0.69680   1.000
    H1044   H    0.49750   0.48090   0.68050   1.000
    C350    C    0.64800   0.40500   0.54400   1.000
    H1045   H    0.67540   0.39560   0.49670   1.000
    H1046   H    0.66090   0.36560   0.58060   1.000
    H1047   H    0.66350   0.45440   0.56430   1.000
    H1048   H    0.65780   0.41480   0.59770   1.000
    H1049   H    0.67240   0.44480   0.51370   1.000
    H1050   H    0.66970   0.35600   0.53010   1.000
    C351    C    0.47100   0.39300   0.54100   1.000
    C352    C    0.55000   0.39740   0.53100   1.000
    C353    C    0.56400   0.41200   0.45300   1.000
    C354    C    0.49300   0.41700   0.41590   1.000
    C355    C    0.43600   0.40500   0.47100   1.000
    C356    C    0.43100   0.37800   0.61500   1.000
    H1051   H    0.37660   0.37800   0.60730   1.000
    H1052   H    0.44450   0.41780   0.65170   1.000
    H1053   H    0.44720   0.32900   0.63530   1.000
    H1054   H    0.46890   0.37190   0.65560   1.000
    H1055   H    0.40110   0.33210   0.61120   1.000
    H1056   H    0.39840   0.42090   0.62760   1.000
    C357    C    0.61000   0.38800   0.59100   1.000
    H1057   H    0.58530   0.37840   0.63960   1.000
    H1058   H    0.64000   0.43430   0.59430   1.000
    H1059   H    0.64260   0.34550   0.57800   1.000
    H1060   H    0.66000   0.39380   0.56830   1.000
    H1061   H    0.60530   0.33780   0.61360   1.000
    H1062   H    0.60260   0.42660   0.62990   1.000
    C358    C    0.64000   0.42100   0.41600   1.000
    H1063   H    0.67980   0.41540   0.45440   1.000
    H1064   H    0.64390   0.47150   0.39340   1.000
    H1065   H    0.64660   0.38270   0.37700   1.000
    H1066   H    0.63370   0.43100   0.36220   1.000
    H1067   H    0.66960   0.37490   0.42320   1.000
    H1068   H    0.66700   0.46370   0.43960   1.000
    C359    C    0.48100   0.43200   0.33290   1.000
    H1069   H    0.52960   0.43790   0.30780   1.000
    H1070   H    0.45090   0.47800   0.32660   1.000
    H1071   H    0.45350   0.38920   0.31030   1.000
    H1072   H    0.42640   0.43220   0.32200   1.000
    H1073   H    0.50510   0.39210   0.30320   1.000
    H1074   H    0.50250   0.48090   0.31950   1.000
    C360    C    0.35200   0.40500   0.45600   1.000
    H1075   H    0.32460   0.39560   0.50330   1.000
    H1076   H    0.33910   0.36560   0.41940   1.000
    H1077   H    0.33650   0.45440   0.43570   1.000
    H1078   H    0.34220   0.41480   0.40230   1.000
    H1079   H    0.32760   0.44480   0.48630   1.000
    H1080   H    0.33030   0.35600   0.46990   1.000
    C361    C    0.45900   0.47100   0.39300   1.000
    C362    C    0.46900   0.55000   0.39740   1.000
    C363    C    0.54700   0.56400   0.41200   1.000
    C364    C    0.58410   0.49300   0.41700   1.000
    C365    C    0.52900   0.43600   0.40500   1.000
    C366    C    0.38500   0.43100   0.37800   1.000
    H1081   H    0.39270   0.37660   0.37800   1.000
    H1082   H    0.34830   0.44450   0.41780   1.000
    H1083   H    0.36470   0.44720   0.32900   1.000
    H1084   H    0.34440   0.46890   0.37190   1.000
    H1085   H    0.38880   0.40110   0.33210   1.000
    H1086   H    0.37240   0.39840   0.42090   1.000
    C367    C    0.40900   0.61000   0.38800   1.000
    H1087   H    0.36040   0.58530   0.37840   1.000
    H1088   H    0.40570   0.64000   0.43430   1.000
    H1089   H    0.42200   0.64260   0.34550   1.000
    H1090   H    0.43170   0.66000   0.39380   1.000
    H1091   H    0.38640   0.60530   0.33780   1.000
    H1092   H    0.37010   0.60260   0.42660   1.000
    C368    C    0.58400   0.64000   0.42100   1.000
    H1093   H    0.54560   0.67980   0.41540   1.000
    H1094   H    0.60660   0.64390   0.47150   1.000
    H1095   H    0.62300   0.64660   0.38270   1.000
    H1096   H    0.63780   0.63370   0.43100   1.000
    H1097   H    0.57680   0.66960   0.37490   1.000
    H1098   H    0.56040   0.66700   0.46370   1.000
    C369    C    0.66710   0.48100   0.43200   1.000
    H1099   H    0.69220   0.52960   0.43790   1.000
    H1100   H    0.67340   0.45090   0.47800   1.000
    H1101   H    0.68970   0.45350   0.38920   1.000
    H1102   H    0.67800   0.42640   0.43220   1.000
    H1103   H    0.69680   0.50510   0.39210   1.000
    H1104   H    0.68050   0.50250   0.48090   1.000
    C370    C    0.54400   0.35200   0.40500   1.000
    H1105   H    0.49670   0.32460   0.39560   1.000
    H1106   H    0.58060   0.33910   0.36560   1.000
    H1107   H    0.56430   0.33650   0.45440   1.000
    H1108   H    0.59770   0.34220   0.41480   1.000
    H1109   H    0.51370   0.32760   0.44480   1.000
    H1110   H    0.53010   0.33030   0.35600   1.000
    C371    C    0.54100   0.52900   0.39300   1.000
    C372    C    0.53100   0.45000   0.39740   1.000
    C373    C    0.45300   0.43600   0.41200   1.000
    C374    C    0.41590   0.50700   0.41700   1.000
    C375    C    0.47100   0.56400   0.40500   1.000
    C376    C    0.61500   0.56900   0.37800   1.000
    H1111   H    0.60730   0.62340   0.37800   1.000
    H1112   H    0.65170   0.55550   0.41780   1.000
    H1113   H    0.63530   0.55280   0.32900   1.000
    H1114   H    0.65560   0.53110   0.37190   1.000
    H1115   H    0.61120   0.59890   0.33210   1.000
    H1116   H    0.62760   0.60160   0.42090   1.000
    C377    C    0.59100   0.39000   0.38800   1.000
    H1117   H    0.63960   0.41470   0.37840   1.000
    H1118   H    0.59430   0.36000   0.43430   1.000
    H1119   H    0.57800   0.35740   0.34550   1.000
    H1120   H    0.56830   0.34000   0.39380   1.000
    H1121   H    0.61360   0.39470   0.33780   1.000
    H1122   H    0.62990   0.39740   0.42660   1.000
    C378    C    0.41600   0.36000   0.42100   1.000
    H1123   H    0.45440   0.32020   0.41540   1.000
    H1124   H    0.39340   0.35610   0.47150   1.000
    H1125   H    0.37700   0.35340   0.38270   1.000
    H1126   H    0.36220   0.36630   0.43100   1.000
    H1127   H    0.42320   0.33040   0.37490   1.000
    H1128   H    0.43960   0.33300   0.46370   1.000
    C379    C    0.33290   0.51900   0.43200   1.000
    H1129   H    0.30780   0.47040   0.43790   1.000
    H1130   H    0.32660   0.54910   0.47800   1.000
    H1131   H    0.31030   0.54650   0.38920   1.000
    H1132   H    0.32200   0.57360   0.43220   1.000
    H1133   H    0.30320   0.49490   0.39210   1.000
    H1134   H    0.31950   0.49750   0.48090   1.000
    C380    C    0.45600   0.64800   0.40500   1.000
    H1135   H    0.50330   0.67540   0.39560   1.000
    H1136   H    0.41940   0.66090   0.36560   1.000
    H1137   H    0.43570   0.66350   0.45440   1.000
    H1138   H    0.40230   0.65780   0.41480   1.000
    H1139   H    0.48630   0.67240   0.44480   1.000
    H1140   H    0.46990   0.66970   0.35600   1.000
    C381    C    0.54100   0.47100   0.60700   1.000
    C382    C    0.53100   0.55000   0.60260   1.000
    C383    C    0.45300   0.56400   0.58800   1.000
    C384    C    0.41590   0.49300   0.58300   1.000
    C385    C    0.47100   0.43600   0.59500   1.000
    C386    C    0.61500   0.43100   0.62200   1.000
    H1141   H    0.60730   0.37660   0.62200   1.000
    H1142   H    0.65170   0.44450   0.58220   1.000
    H1143   H    0.63530   0.44720   0.67100   1.000
    H1144   H    0.65560   0.46890   0.62810   1.000
    H1145   H    0.61120   0.40110   0.66790   1.000
    H1146   H    0.62760   0.39840   0.57910   1.000
    C387    C    0.59100   0.61000   0.61200   1.000
    H1147   H    0.63960   0.58530   0.62160   1.000
    H1148   H    0.59430   0.64000   0.56570   1.000
    H1149   H    0.57800   0.64260   0.65450   1.000
    H1150   H    0.56830   0.66000   0.60620   1.000
    H1151   H    0.61360   0.60530   0.66220   1.000
    H1152   H    0.62990   0.60260   0.57340   1.000
    C388    C    0.41600   0.64000   0.57900   1.000
    H1153   H    0.45440   0.67980   0.58460   1.000
    H1154   H    0.39340   0.64390   0.52850   1.000
    H1155   H    0.37700   0.64660   0.61730   1.000
    H1156   H    0.36220   0.63370   0.56900   1.000
    H1157   H    0.42320   0.66960   0.62510   1.000
    H1158   H    0.43960   0.66700   0.53630   1.000
    C389    C    0.33290   0.48100   0.56800   1.000
    H1159   H    0.30780   0.52960   0.56210   1.000
    H1160   H    0.32660   0.45090   0.52200   1.000
    H1161   H    0.31030   0.45350   0.61080   1.000
    H1162   H    0.32200   0.42640   0.56780   1.000
    H1163   H    0.30320   0.50510   0.60790   1.000
    H1164   H    0.31950   0.50250   0.51910   1.000
    C390    C    0.45600   0.35200   0.59500   1.000
    H1165   H    0.50330   0.32460   0.60440   1.000
    H1166   H    0.41940   0.33910   0.63440   1.000
    H1167   H    0.43570   0.33650   0.54560   1.000
    H1168   H    0.40230   0.34220   0.58520   1.000
    H1169   H    0.48630   0.32760   0.55520   1.000
    H1170   H    0.46990   0.33030   0.64400   1.000
    C391    C    0.45900   0.52900   0.60700   1.000
    C392    C    0.46900   0.45000   0.60260   1.000
    C393    C    0.54700   0.43600   0.58800   1.000
    C394    C    0.58410   0.50700   0.58300   1.000
    C395    C    0.52900   0.56400   0.59500   1.000
    C396    C    0.38500   0.56900   0.62200   1.000
    H1171   H    0.39270   0.62340   0.62200   1.000
    H1172   H    0.34830   0.55550   0.58220   1.000
    H1173   H    0.36470   0.55280   0.67100   1.000
    H1174   H    0.34440   0.53110   0.62810   1.000
    H1175   H    0.38880   0.59890   0.66790   1.000
    H1176   H    0.37240   0.60160   0.57910   1.000
    C397    C    0.40900   0.39000   0.61200   1.000
    H1177   H    0.36040   0.41470   0.62160   1.000
    H1178   H    0.40570   0.36000   0.56570   1.000
    H1179   H    0.42200   0.35740   0.65450   1.000
    H1180   H    0.43170   0.34000   0.60620   1.000
    H1181   H    0.38640   0.39470   0.66220   1.000
    H1182   H    0.37010   0.39740   0.57340   1.000
    C398    C    0.58400   0.36000   0.57900   1.000
    H1183   H    0.54560   0.32020   0.58460   1.000
    H1184   H    0.60660   0.35610   0.52850   1.000
    H1185   H    0.62300   0.35340   0.61730   1.000
    H1186   H    0.63780   0.36630   0.56900   1.000
    H1187   H    0.57680   0.33040   0.62510   1.000
    H1188   H    0.56040   0.33300   0.53630   1.000
    C399    C    0.66710   0.51900   0.56800   1.000
    H1189   H    0.69220   0.47040   0.56210   1.000
    H1190   H    0.67340   0.54910   0.52200   1.000
    H1191   H    0.68970   0.54650   0.61080   1.000
    H1192   H    0.67800   0.57360   0.56780   1.000
    H1193   H    0.69680   0.49490   0.60790   1.000
    H1194   H    0.68050   0.49750   0.51910   1.000
    C400    C    0.54400   0.64800   0.59500   1.000
    H1195   H    0.49670   0.67540   0.60440   1.000
    H1196   H    0.58060   0.66090   0.63440   1.000
    H1197   H    0.56430   0.66350   0.54560   1.000
    H1198   H    0.59770   0.65780   0.58520   1.000
    H1199   H    0.51370   0.67240   0.55520   1.000
    H1200   H    0.53010   0.66970   0.64400   1.000
    C401    C    0.39300   0.45900   0.47100   1.000
    C402    C    0.39740   0.46900   0.55000   1.000
    C403    C    0.41200   0.54700   0.56400   1.000
    C404    C    0.41700   0.58410   0.49300   1.000
    C405    C    0.40500   0.52900   0.43600   1.000
    C406    C    0.37800   0.38500   0.43100   1.000
    H1201   H    0.37800   0.39270   0.37660   1.000
    H1202   H    0.41780   0.34830   0.44450   1.000
    H1203   H    0.32900   0.36470   0.44720   1.000
    H1204   H    0.37190   0.34440   0.46890   1.000
    H1205   H    0.33210   0.38880   0.40110   1.000
    H1206   H    0.42090   0.37240   0.39840   1.000
    C407    C    0.38800   0.40900   0.61000   1.000
    H1207   H    0.37840   0.36040   0.58530   1.000
    H1208   H    0.43430   0.40570   0.64000   1.000
    H1209   H    0.34550   0.42200   0.64260   1.000
    H1210   H    0.39380   0.43170   0.66000   1.000
    H1211   H    0.33780   0.38640   0.60530   1.000
    H1212   H    0.42660   0.37010   0.60260   1.000
    C408    C    0.42100   0.58400   0.64000   1.000
    H1213   H    0.41540   0.54560   0.67980   1.000
    H1214   H    0.47150   0.60660   0.64390   1.000
    H1215   H    0.38270   0.62300   0.64660   1.000
    H1216   H    0.43100   0.63780   0.63370   1.000
    H1217   H    0.37490   0.57680   0.66960   1.000
    H1218   H    0.46370   0.56040   0.66700   1.000
    C409    C    0.43200   0.66710   0.48100   1.000
    H1219   H    0.43790   0.69220   0.52960   1.000
    H1220   H    0.47800   0.67340   0.45090   1.000
    H1221   H    0.38920   0.68970   0.45350   1.000
    H1222   H    0.43220   0.67800   0.42640   1.000
    H1223   H    0.39210   0.69680   0.50510   1.000
    H1224   H    0.48090   0.68050   0.50250   1.000
    C410    C    0.40500   0.54400   0.35200   1.000
    H1225   H    0.39560   0.49670   0.32460   1.000
    H1226   H    0.36560   0.58060   0.33910   1.000
    H1227   H    0.45440   0.56430   0.33650   1.000
    H1228   H    0.41480   0.59770   0.34220   1.000
    H1229   H    0.44480   0.51370   0.32760   1.000
    H1230   H    0.35600   0.53010   0.33030   1.000
    C411    C    0.39300   0.54100   0.52900   1.000
    C412    C    0.39740   0.53100   0.45000   1.000
    C413    C    0.41200   0.45300   0.43600   1.000
    C414    C    0.41700   0.41590   0.50700   1.000
    C415    C    0.40500   0.47100   0.56400   1.000
    C416    C    0.37800   0.61500   0.56900   1.000
    H1231   H    0.37800   0.60730   0.62340   1.000
    H1232   H    0.41780   0.65170   0.55550   1.000
    H1233   H    0.32900   0.63530   0.55280   1.000
    H1234   H    0.37190   0.65560   0.53110   1.000
    H1235   H    0.33210   0.61120   0.59890   1.000
    H1236   H    0.42090   0.62760   0.60160   1.000
    C417    C    0.38800   0.59100   0.39000   1.000
    H1237   H    0.37840   0.63960   0.41470   1.000
    H1238   H    0.43430   0.59430   0.36000   1.000
    H1239   H    0.34550   0.57800   0.35740   1.000
    H1240   H    0.39380   0.56830   0.34000   1.000
    H1241   H    0.33780   0.61360   0.39470   1.000
    H1242   H    0.42660   0.62990   0.39740   1.000
    C418    C    0.42100   0.41600   0.36000   1.000
    H1243   H    0.41540   0.45440   0.32020   1.000
    H1244   H    0.47150   0.39340   0.35610   1.000
    H1245   H    0.38270   0.37700   0.35340   1.000
    H1246   H    0.43100   0.36220   0.36630   1.000
    H1247   H    0.37490   0.42320   0.33040   1.000
    H1248   H    0.46370   0.43960   0.33300   1.000
    C419    C    0.43200   0.33290   0.51900   1.000
    H1249   H    0.43790   0.30780   0.47040   1.000
    H1250   H    0.47800   0.32660   0.54910   1.000
    H1251   H    0.38920   0.31030   0.54650   1.000
    H1252   H    0.43220   0.32200   0.57360   1.000
    H1253   H    0.39210   0.30320   0.49490   1.000
    H1254   H    0.48090   0.31950   0.49750   1.000
    C420    C    0.40500   0.45600   0.64800   1.000
    H1255   H    0.39560   0.50330   0.67540   1.000
    H1256   H    0.36560   0.41940   0.66090   1.000
    H1257   H    0.45440   0.43570   0.66350   1.000
    H1258   H    0.41480   0.40230   0.65780   1.000
    H1259   H    0.44480   0.48630   0.67240   1.000
    H1260   H    0.35600   0.46990   0.66970   1.000
    C421    C    0.60700   0.54100   0.47100   1.000
    C422    C    0.60260   0.53100   0.55000   1.000
    C423    C    0.58800   0.45300   0.56400   1.000
    C424    C    0.58300   0.41590   0.49300   1.000
    C425    C    0.59500   0.47100   0.43600   1.000
    C426    C    0.62200   0.61500   0.43100   1.000
    H1261   H    0.62200   0.60730   0.37660   1.000
    H1262   H    0.58220   0.65170   0.44450   1.000
    H1263   H    0.67100   0.63530   0.44720   1.000
    H1264   H    0.62810   0.65560   0.46890   1.000
    H1265   H    0.66790   0.61120   0.40110   1.000
    H1266   H    0.57910   0.62760   0.39840   1.000
    C427    C    0.61200   0.59100   0.61000   1.000
    H1267   H    0.62160   0.63960   0.58530   1.000
    H1268   H    0.56570   0.59430   0.64000   1.000
    H1269   H    0.65450   0.57800   0.64260   1.000
    H1270   H    0.60620   0.56830   0.66000   1.000
    H1271   H    0.66220   0.61360   0.60530   1.000
    H1272   H    0.57340   0.62990   0.60260   1.000
    C428    C    0.57900   0.41600   0.64000   1.000
    H1273   H    0.58460   0.45440   0.67980   1.000
    H1274   H    0.52850   0.39340   0.64390   1.000
    H1275   H    0.61730   0.37700   0.64660   1.000
    H1276   H    0.56900   0.36220   0.63370   1.000
    H1277   H    0.62510   0.42320   0.66960   1.000
    H1278   H    0.53630   0.43960   0.66700   1.000
    C429    C    0.56800   0.33290   0.48100   1.000
    H1279   H    0.56210   0.30780   0.52960   1.000
    H1280   H    0.52200   0.32660   0.45090   1.000
    H1281   H    0.61080   0.31030   0.45350   1.000
    H1282   H    0.56780   0.32200   0.42640   1.000
    H1283   H    0.60790   0.30320   0.50510   1.000
    H1284   H    0.51910   0.31950   0.50250   1.000
    C430    C    0.59500   0.45600   0.35200   1.000
    H1285   H    0.60440   0.50330   0.32460   1.000
    H1286   H    0.63440   0.41940   0.33910   1.000
    H1287   H    0.54560   0.43570   0.33650   1.000
    H1288   H    0.58520   0.40230   0.34220   1.000
    H1289   H    0.55520   0.48630   0.32760   1.000
    H1290   H    0.64400   0.46990   0.33030   1.000
    C431    C    0.60700   0.45900   0.52900   1.000
    C432    C    0.60260   0.46900   0.45000   1.000
    C433    C    0.58800   0.54700   0.43600   1.000
    C434    C    0.58300   0.58410   0.50700   1.000
    C435    C    0.59500   0.52900   0.56400   1.000
    C436    C    0.62200   0.38500   0.56900   1.000
    H1291   H    0.62200   0.39270   0.62340   1.000
    H1292   H    0.58220   0.34830   0.55550   1.000
    H1293   H    0.67100   0.36470   0.55280   1.000
    H1294   H    0.62810   0.34440   0.53110   1.000
    H1295   H    0.66790   0.38880   0.59890   1.000
    H1296   H    0.57910   0.37240   0.60160   1.000
    C437    C    0.61200   0.40900   0.39000   1.000
    H1297   H    0.62160   0.36040   0.41470   1.000
    H1298   H    0.56570   0.40570   0.36000   1.000
    H1299   H    0.65450   0.42200   0.35740   1.000
    H1300   H    0.60620   0.43170   0.34000   1.000
    H1301   H    0.66220   0.38640   0.39470   1.000
    H1302   H    0.57340   0.37010   0.39740   1.000
    C438    C    0.57900   0.58400   0.36000   1.000
    H1303   H    0.58460   0.54560   0.32020   1.000
    H1304   H    0.52850   0.60660   0.35610   1.000
    H1305   H    0.61730   0.62300   0.35340   1.000
    H1306   H    0.56900   0.63780   0.36630   1.000
    H1307   H    0.62510   0.57680   0.33040   1.000
    H1308   H    0.53630   0.56040   0.33300   1.000
    C439    C    0.56800   0.66710   0.51900   1.000
    H1309   H    0.56210   0.69220   0.47040   1.000
    H1310   H    0.52200   0.67340   0.54910   1.000
    H1311   H    0.61080   0.68970   0.54650   1.000
    H1312   H    0.56780   0.67800   0.57360   1.000
    H1313   H    0.60790   0.69680   0.49490   1.000
    H1314   H    0.51910   0.68050   0.49750   1.000
    C440    C    0.59500   0.54400   0.64800   1.000
    H1315   H    0.60440   0.49670   0.67540   1.000
    H1316   H    0.63440   0.58060   0.66090   1.000
    H1317   H    0.54560   0.56430   0.66350   1.000
    H1318   H    0.58520   0.59770   0.65780   1.000
    H1319   H    0.55520   0.51370   0.67240   1.000
    H1320   H    0.64400   0.53010   0.66970   1.000
    C441    C    0.47100   0.39300   0.45900   1.000
    C442    C    0.55000   0.39740   0.46900   1.000
    C443    C    0.56400   0.41200   0.54700   1.000
    C444    C    0.49300   0.41700   0.58410   1.000
    C445    C    0.43600   0.40500   0.52900   1.000
    C446    C    0.43100   0.37800   0.38500   1.000
    H1321   H    0.37660   0.37800   0.39270   1.000
    H1322   H    0.44450   0.41780   0.34830   1.000
    H1323   H    0.44720   0.32900   0.36470   1.000
    H1324   H    0.46890   0.37190   0.34440   1.000
    H1325   H    0.40110   0.33210   0.38880   1.000
    H1326   H    0.39840   0.42090   0.37240   1.000
    C447    C    0.61000   0.38800   0.40900   1.000
    H1327   H    0.58530   0.37840   0.36040   1.000
    H1328   H    0.64000   0.43430   0.40570   1.000
    H1329   H    0.64260   0.34550   0.42200   1.000
    H1330   H    0.66000   0.39380   0.43170   1.000
    H1331   H    0.60530   0.33780   0.38640   1.000
    H1332   H    0.60260   0.42660   0.37010   1.000
    C448    C    0.64000   0.42100   0.58400   1.000
    H1333   H    0.67980   0.41540   0.54560   1.000
    H1334   H    0.64390   0.47150   0.60660   1.000
    H1335   H    0.64660   0.38270   0.62300   1.000
    H1336   H    0.63370   0.43100   0.63780   1.000
    H1337   H    0.66960   0.37490   0.57680   1.000
    H1338   H    0.66700   0.46370   0.56040   1.000
    C449    C    0.48100   0.43200   0.66710   1.000
    H1339   H    0.52960   0.43790   0.69220   1.000
    H1340   H    0.45090   0.47800   0.67340   1.000
    H1341   H    0.45350   0.38920   0.68970   1.000
    H1342   H    0.42640   0.43220   0.67800   1.000
    H1343   H    0.50510   0.39210   0.69680   1.000
    H1344   H    0.50250   0.48090   0.68050   1.000
    C450    C    0.35200   0.40500   0.54400   1.000
    H1345   H    0.32460   0.39560   0.49670   1.000
    H1346   H    0.33910   0.36560   0.58060   1.000
    H1347   H    0.33650   0.45440   0.56430   1.000
    H1348   H    0.34220   0.41480   0.59770   1.000
    H1349   H    0.32760   0.44480   0.51370   1.000
    H1350   H    0.33030   0.35600   0.53010   1.000
    C451    C    0.52900   0.39300   0.54100   1.000
    C452    C    0.45000   0.39740   0.53100   1.000
    C453    C    0.43600   0.41200   0.45300   1.000
    C454    C    0.50700   0.41700   0.41590   1.000
    C455    C    0.56400   0.40500   0.47100   1.000
    C456    C    0.56900   0.37800   0.61500   1.000
    H1351   H    0.62340   0.37800   0.60730   1.000
    H1352   H    0.55550   0.41780   0.65170   1.000
    H1353   H    0.55280   0.32900   0.63530   1.000
    H1354   H    0.53110   0.37190   0.65560   1.000
    H1355   H    0.59890   0.33210   0.61120   1.000
    H1356   H    0.60160   0.42090   0.62760   1.000
    C457    C    0.39000   0.38800   0.59100   1.000
    H1357   H    0.41470   0.37840   0.63960   1.000
    H1358   H    0.36000   0.43430   0.59430   1.000
    H1359   H    0.35740   0.34550   0.57800   1.000
    H1360   H    0.34000   0.39380   0.56830   1.000
    H1361   H    0.39470   0.33780   0.61360   1.000
    H1362   H    0.39740   0.42660   0.62990   1.000
    C458    C    0.36000   0.42100   0.41600   1.000
    H1363   H    0.32020   0.41540   0.45440   1.000
    H1364   H    0.35610   0.47150   0.39340   1.000
    H1365   H    0.35340   0.38270   0.37700   1.000
    H1366   H    0.36630   0.43100   0.36220   1.000
    H1367   H    0.33040   0.37490   0.42320   1.000
    H1368   H    0.33300   0.46370   0.43960   1.000
    C459    C    0.51900   0.43200   0.33290   1.000
    H1369   H    0.47040   0.43790   0.30780   1.000
    H1370   H    0.54910   0.47800   0.32660   1.000
    H1371   H    0.54650   0.38920   0.31030   1.000
    H1372   H    0.57360   0.43220   0.32200   1.000
    H1373   H    0.49490   0.39210   0.30320   1.000
    H1374   H    0.49750   0.48090   0.31950   1.000
    C460    C    0.64800   0.40500   0.45600   1.000
    H1375   H    0.67540   0.39560   0.50330   1.000
    H1376   H    0.66090   0.36560   0.41940   1.000
    H1377   H    0.66350   0.45440   0.43570   1.000
    H1378   H    0.65780   0.41480   0.40230   1.000
    H1379   H    0.67240   0.44480   0.48630   1.000
    H1380   H    0.66970   0.35600   0.46990   1.000
    C461    C    0.47100   0.60700   0.54100   1.000
    C462    C    0.55000   0.60260   0.53100   1.000
    C463    C    0.56400   0.58800   0.45300   1.000
    C464    C    0.49300   0.58300   0.41590   1.000
    C465    C    0.43600   0.59500   0.47100   1.000
    C466    C    0.43100   0.62200   0.61500   1.000
    H1381   H    0.37660   0.62200   0.60730   1.000
    H1382   H    0.44450   0.58220   0.65170   1.000
    H1383   H    0.44720   0.67100   0.63530   1.000
    H1384   H    0.46890   0.62810   0.65560   1.000
    H1385   H    0.40110   0.66790   0.61120   1.000
    H1386   H    0.39840   0.57910   0.62760   1.000
    C467    C    0.61000   0.61200   0.59100   1.000
    H1387   H    0.58530   0.62160   0.63960   1.000
    H1388   H    0.64000   0.56570   0.59430   1.000
    H1389   H    0.64260   0.65450   0.57800   1.000
    H1390   H    0.66000   0.60620   0.56830   1.000
    H1391   H    0.60530   0.66220   0.61360   1.000
    H1392   H    0.60260   0.57340   0.62990   1.000
    C468    C    0.64000   0.57900   0.41600   1.000
    H1393   H    0.67980   0.58460   0.45440   1.000
    H1394   H    0.64390   0.52850   0.39340   1.000
    H1395   H    0.64660   0.61730   0.37700   1.000
    H1396   H    0.63370   0.56900   0.36220   1.000
    H1397   H    0.66960   0.62510   0.42320   1.000
    H1398   H    0.66700   0.53630   0.43960   1.000
    C469    C    0.48100   0.56800   0.33290   1.000
    H1399   H    0.52960   0.56210   0.30780   1.000
    H1400   H    0.45090   0.52200   0.32660   1.000
    H1401   H    0.45350   0.61080   0.31030   1.000
    H1402   H    0.42640   0.56780   0.32200   1.000
    H1403   H    0.50510   0.60790   0.30320   1.000
    H1404   H    0.50250   0.51910   0.31950   1.000
    C470    C    0.35200   0.59500   0.45600   1.000
    H1405   H    0.32460   0.60440   0.50330   1.000
    H1406   H    0.33910   0.63440   0.41940   1.000
    H1407   H    0.33650   0.54560   0.43570   1.000
    H1408   H    0.34220   0.58520   0.40230   1.000
    H1409   H    0.32760   0.55520   0.48630   1.000
    H1410   H    0.33030   0.64400   0.46990   1.000
    C471    C    0.52900   0.60700   0.45900   1.000
    C472    C    0.45000   0.60260   0.46900   1.000
    C473    C    0.43600   0.58800   0.54700   1.000
    C474    C    0.50700   0.58300   0.58410   1.000
    C475    C    0.56400   0.59500   0.52900   1.000
    C476    C    0.56900   0.62200   0.38500   1.000
    H1411   H    0.62340   0.62200   0.39270   1.000
    H1412   H    0.55550   0.58220   0.34830   1.000
    H1413   H    0.55280   0.67100   0.36470   1.000
    H1414   H    0.53110   0.62810   0.34440   1.000
    H1415   H    0.59890   0.66790   0.38880   1.000
    H1416   H    0.60160   0.57910   0.37240   1.000
    C477    C    0.39000   0.61200   0.40900   1.000
    H1417   H    0.41470   0.62160   0.36040   1.000
    H1418   H    0.36000   0.56570   0.40570   1.000
    H1419   H    0.35740   0.65450   0.42200   1.000
    H1420   H    0.34000   0.60620   0.43170   1.000
    H1421   H    0.39470   0.66220   0.38640   1.000
    H1422   H    0.39740   0.57340   0.37010   1.000
    C478    C    0.36000   0.57900   0.58400   1.000
    H1423   H    0.32020   0.58460   0.54560   1.000
    H1424   H    0.35610   0.52850   0.60660   1.000
    H1425   H    0.35340   0.61730   0.62300   1.000
    H1426   H    0.36630   0.56900   0.63780   1.000
    H1427   H    0.33040   0.62510   0.57680   1.000
    H1428   H    0.33300   0.53630   0.56040   1.000
    C479    C    0.51900   0.56800   0.66710   1.000
    H1429   H    0.47040   0.56210   0.69220   1.000
    H1430   H    0.54910   0.52200   0.67340   1.000
    H1431   H    0.54650   0.61080   0.68970   1.000
    H1432   H    0.57360   0.56780   0.67800   1.000
    H1433   H    0.49490   0.60790   0.69680   1.000
    H1434   H    0.49750   0.51910   0.68050   1.000
    C480    C    0.64800   0.59500   0.54400   1.000
    H1435   H    0.67540   0.60440   0.49670   1.000
    H1436   H    0.66090   0.63440   0.58060   1.000
    H1437   H    0.66350   0.54560   0.56430   1.000
    H1438   H    0.65780   0.58520   0.59770   1.000
    H1439   H    0.67240   0.55520   0.51370   1.000
    H1440   H    0.66970   0.64400   0.53010   1.000
    Fe2     Fe   0.50000   0.50000   0.50000   1.000
