# CIF file generated by openbabel 2.4.1, see http://openbabel.sf.net
data_I
_chemical_name_common 'image0'
_cell_length_a 19.2919
_cell_length_b 19.2919
_cell_length_c 19.2919
_cell_angle_alpha 90
_cell_angle_beta 90
_cell_angle_gamma 90
_space_group_name_H-M_alt 'P 1'
_space_group_name_Hall 'P 1'
loop_
    _symmetry_equiv_pos_as_xyz
    x,y,z
loop_
    _atom_site_label
    _atom_site_type_symbol
    _atom_site_fract_x
    _atom_site_fract_y
    _atom_site_fract_z
    _atom_site_occupancy
    C1      C    0.05370   0.69310   0.00100   1.000
    H1      H    0.10000   0.71130   0.00190   1.000
    C2      C    0.04540   0.62070   0.00110   1.000
    H2      H    0.08430   0.58970   0.00110   1.000
    C3      C    0.97980   0.59870   0.99820   1.000
    C4      C    0.07410   0.64180   0.00240   1.000
    H3      H    0.12040   0.62370   0.00330   1.000
    C5      C    0.93390   0.71380   0.99940   1.000
    H4      H    0.10500   0.74480   0.00070   1.000
    C6      C    0.96750   0.52060   0.99440   1.000
    H5      H    0.00340   0.49150   0.98770   1.000
    O1      O    0.03611   0.84689   0.95852   1.000
    N1      N    0.52060   0.99440   0.96750   1.000
    C7      C    0.94630   0.30690   0.00100   1.000
    H6      H    0.90000   0.28870   0.00190   1.000
    C8      C    0.95460   0.37930   0.00110   1.000
    H7      H    0.91570   0.41030   0.00110   1.000
    C9      C    0.02020   0.40130   0.99820   1.000
    C10     C    0.92590   0.35820   0.00240   1.000
    H8      H    0.87960   0.37630   0.00330   1.000
    C11     C    0.06610   0.28620   0.99940   1.000
    H9      H    0.89500   0.25520   0.00070   1.000
    C12     C    0.03250   0.47940   0.99440   1.000
    H10     H    0.99660   0.50850   0.98770   1.000
    O2      O    0.96389   0.15311   0.95852   1.000
    N2      N    0.47940   0.00560   0.96750   1.000
    C13     C    0.94630   0.69310   0.99900   1.000
    H11     H    0.90000   0.71130   0.99810   1.000
    C14     C    0.95460   0.62070   0.99890   1.000
    H12     H    0.91570   0.58970   0.99890   1.000
    C15     C    0.02020   0.59870   0.00180   1.000
    C16     C    0.92590   0.64180   0.99760   1.000
    H13     H    0.87960   0.62370   0.99670   1.000
    C17     C    0.06610   0.71380   0.00060   1.000
    H14     H    0.89500   0.74480   0.99930   1.000
    C18     C    0.03250   0.52060   0.00560   1.000
    H15     H    0.99660   0.49150   0.01230   1.000
    O3      O    0.96389   0.84689   0.04148   1.000
    N3      N    0.47940   0.99440   0.03250   1.000
    C19     C    0.05370   0.30690   0.99900   1.000
    H16     H    0.10000   0.28870   0.99810   1.000
    C20     C    0.04540   0.37930   0.99890   1.000
    H17     H    0.08430   0.41030   0.99890   1.000
    C21     C    0.97980   0.40130   0.00180   1.000
    C22     C    0.07410   0.35820   0.99760   1.000
    H18     H    0.12040   0.37630   0.99670   1.000
    C23     C    0.93390   0.28620   0.00060   1.000
    H19     H    0.10500   0.25520   0.99930   1.000
    C24     C    0.96750   0.47940   0.00560   1.000
    H20     H    0.00340   0.50850   0.01230   1.000
    O4      O    0.03611   0.15311   0.04148   1.000
    N4      N    0.52060   0.00560   0.03250   1.000
    C25     C    0.00100   0.05370   0.69310   1.000
    H21     H    0.00190   0.10000   0.71130   1.000
    C26     C    0.00110   0.04540   0.62070   1.000
    H22     H    0.00110   0.08430   0.58970   1.000
    C27     C    0.99820   0.97980   0.59870   1.000
    C28     C    0.00240   0.07410   0.64180   1.000
    H23     H    0.00330   0.12040   0.62370   1.000
    C29     C    0.99940   0.93390   0.71380   1.000
    H24     H    0.00070   0.10500   0.74480   1.000
    C30     C    0.99440   0.96750   0.52060   1.000
    H25     H    0.98770   0.00340   0.49150   1.000
    O5      O    0.95852   0.03611   0.84689   1.000
    C31     C    0.00100   0.94630   0.30690   1.000
    H26     H    0.00190   0.90000   0.28870   1.000
    C32     C    0.00110   0.95460   0.37930   1.000
    H27     H    0.00110   0.91570   0.41030   1.000
    C33     C    0.99820   0.02020   0.40130   1.000
    C34     C    0.00240   0.92590   0.35820   1.000
    H28     H    0.00330   0.87960   0.37630   1.000
    C35     C    0.99940   0.06610   0.28620   1.000
    H29     H    0.00070   0.89500   0.25520   1.000
    C36     C    0.99440   0.03250   0.47940   1.000
    H30     H    0.98770   0.99660   0.50850   1.000
    O6      O    0.95852   0.96389   0.15311   1.000
    C37     C    0.99900   0.94630   0.69310   1.000
    H31     H    0.99810   0.90000   0.71130   1.000
    C38     C    0.99890   0.95460   0.62070   1.000
    H32     H    0.99890   0.91570   0.58970   1.000
    C39     C    0.00180   0.02020   0.59870   1.000
    C40     C    0.99760   0.92590   0.64180   1.000
    H33     H    0.99670   0.87960   0.62370   1.000
    C41     C    0.00060   0.06610   0.71380   1.000
    H34     H    0.99930   0.89500   0.74480   1.000
    C42     C    0.00560   0.03250   0.52060   1.000
    H35     H    0.01230   0.99660   0.49150   1.000
    O7      O    0.04148   0.96389   0.84689   1.000
    C43     C    0.99900   0.05370   0.30690   1.000
    H36     H    0.99810   0.10000   0.28870   1.000
    C44     C    0.99890   0.04540   0.37930   1.000
    H37     H    0.99890   0.08430   0.41030   1.000
    C45     C    0.00180   0.97980   0.40130   1.000
    C46     C    0.99760   0.07410   0.35820   1.000
    H38     H    0.99670   0.12040   0.37630   1.000
    C47     C    0.00060   0.93390   0.28620   1.000
    H39     H    0.99930   0.10500   0.25520   1.000
    C48     C    0.00560   0.96750   0.47940   1.000
    H40     H    0.01230   0.00340   0.50850   1.000
    O8      O    0.04148   0.03611   0.15311   1.000
    C49     C    0.69310   0.00100   0.05370   1.000
    H41     H    0.71130   0.00190   0.10000   1.000
    C50     C    0.62070   0.00110   0.04540   1.000
    H42     H    0.58970   0.00110   0.08430   1.000
    C51     C    0.59870   0.99820   0.97980   1.000
    C52     C    0.64180   0.00240   0.07410   1.000
    H43     H    0.62370   0.00330   0.12040   1.000
    C53     C    0.71380   0.99940   0.93390   1.000
    H44     H    0.74480   0.00070   0.10500   1.000
    H45     H    0.49150   0.98770   0.00340   1.000
    O9      O    0.84689   0.95852   0.03611   1.000
    C54     C    0.30690   0.00100   0.94630   1.000
    H46     H    0.28870   0.00190   0.90000   1.000
    C55     C    0.37930   0.00110   0.95460   1.000
    H47     H    0.41030   0.00110   0.91570   1.000
    C56     C    0.40130   0.99820   0.02020   1.000
    C57     C    0.35820   0.00240   0.92590   1.000
    H48     H    0.37630   0.00330   0.87960   1.000
    C58     C    0.28620   0.99940   0.06610   1.000
    H49     H    0.25520   0.00070   0.89500   1.000
    H50     H    0.50850   0.98770   0.99660   1.000
    O10     O    0.15311   0.95852   0.96389   1.000
    C59     C    0.69310   0.99900   0.94630   1.000
    H51     H    0.71130   0.99810   0.90000   1.000
    C60     C    0.62070   0.99890   0.95460   1.000
    H52     H    0.58970   0.99890   0.91570   1.000
    C61     C    0.59870   0.00180   0.02020   1.000
    C62     C    0.64180   0.99760   0.92590   1.000
    H53     H    0.62370   0.99670   0.87960   1.000
    C63     C    0.71380   0.00060   0.06610   1.000
    H54     H    0.74480   0.99930   0.89500   1.000
    H55     H    0.49150   0.01230   0.99660   1.000
    O11     O    0.84689   0.04148   0.96389   1.000
    C64     C    0.30690   0.99900   0.05370   1.000
    H56     H    0.28870   0.99810   0.10000   1.000
    C65     C    0.37930   0.99890   0.04540   1.000
    H57     H    0.41030   0.99890   0.08430   1.000
    C66     C    0.40130   0.00180   0.97980   1.000
    C67     C    0.35820   0.99760   0.07410   1.000
    H58     H    0.37630   0.99670   0.12040   1.000
    C68     C    0.28620   0.00060   0.93390   1.000
    H59     H    0.25520   0.99930   0.10500   1.000
    H60     H    0.50850   0.01230   0.00340   1.000
    O12     O    0.15311   0.04148   0.03611   1.000
    C69     C    0.00000   0.81750   0.00000   1.000
    C70     C    0.00000   0.73980   0.00000   1.000
    C71     C    0.00000   0.18250   0.00000   1.000
    C72     C    0.00000   0.26020   0.00000   1.000
    C73     C    0.00000   0.00000   0.81750   1.000
    C74     C    0.00000   0.00000   0.73980   1.000
    C75     C    0.00000   0.00000   0.18250   1.000
    C76     C    0.00000   0.00000   0.26020   1.000
    C77     C    0.81750   0.00000   0.00000   1.000
    C78     C    0.73980   0.00000   0.00000   1.000
    C79     C    0.18250   0.00000   0.00000   1.000
    C80     C    0.26020   0.00000   0.00000   1.000
    O13     O    0.00000   0.00000   0.00000   1.000
    O14     O    0.91420   0.50000   0.00000   1.000
    O15     O    0.08580   0.50000   0.00000   1.000
    O16     O    0.00000   0.91420   0.50000   1.000
    O17     O    0.00000   0.08580   0.50000   1.000
    O18     O    0.50000   0.00000   0.91420   1.000
    O19     O    0.50000   0.00000   0.08580   1.000
    Zn1     Zn   0.05881   0.94119   0.94119   1.000
    Zn2     Zn   0.94119   0.05881   0.94119   1.000
    Zn3     Zn   0.94119   0.94119   0.05881   1.000
    Zn4     Zn   0.05881   0.05881   0.05881   1.000
    C81     C    0.55370   0.19310   0.50100   1.000
    H61     H    0.60000   0.21130   0.50190   1.000
    C82     C    0.54540   0.12070   0.50110   1.000
    H62     H    0.58430   0.08970   0.50110   1.000
    C83     C    0.47980   0.09870   0.49820   1.000
    C84     C    0.57410   0.14180   0.50240   1.000
    H63     H    0.62040   0.12370   0.50330   1.000
    C85     C    0.43390   0.21380   0.49940   1.000
    H64     H    0.60500   0.24480   0.50070   1.000
    C86     C    0.46750   0.02060   0.49440   1.000
    H65     H    0.50340   0.99150   0.48770   1.000
    O20     O    0.53611   0.34689   0.45852   1.000
    N5      N    0.02060   0.49440   0.46750   1.000
    C87     C    0.44630   0.80690   0.50100   1.000
    H66     H    0.40000   0.78870   0.50190   1.000
    C88     C    0.45460   0.87930   0.50110   1.000
    H67     H    0.41570   0.91030   0.50110   1.000
    C89     C    0.52020   0.90130   0.49820   1.000
    C90     C    0.42590   0.85820   0.50240   1.000
    H68     H    0.37960   0.87630   0.50330   1.000
    C91     C    0.56610   0.78620   0.49940   1.000
    H69     H    0.39500   0.75520   0.50070   1.000
    C92     C    0.53250   0.97940   0.49440   1.000
    H70     H    0.49660   0.00850   0.48770   1.000
    O21     O    0.46389   0.65311   0.45852   1.000
    N6      N    0.97940   0.50560   0.46750   1.000
    C93     C    0.44630   0.19310   0.49900   1.000
    H71     H    0.40000   0.21130   0.49810   1.000
    C94     C    0.45460   0.12070   0.49890   1.000
    H72     H    0.41570   0.08970   0.49890   1.000
    C95     C    0.52020   0.09870   0.50180   1.000
    C96     C    0.42590   0.14180   0.49760   1.000
    H73     H    0.37960   0.12370   0.49670   1.000
    C97     C    0.56610   0.21380   0.50060   1.000
    H74     H    0.39500   0.24480   0.49930   1.000
    C98     C    0.53250   0.02060   0.50560   1.000
    H75     H    0.49660   0.99150   0.51230   1.000
    O22     O    0.46389   0.34689   0.54148   1.000
    N7      N    0.97940   0.49440   0.53250   1.000
    C99     C    0.55370   0.80690   0.49900   1.000
    H76     H    0.60000   0.78870   0.49810   1.000
    C100    C    0.54540   0.87930   0.49890   1.000
    H77     H    0.58430   0.91030   0.49890   1.000
    C101    C    0.47980   0.90130   0.50180   1.000
    C102    C    0.57410   0.85820   0.49760   1.000
    H78     H    0.62040   0.87630   0.49670   1.000
    C103    C    0.43390   0.78620   0.50060   1.000
    H79     H    0.60500   0.75520   0.49930   1.000
    C104    C    0.46750   0.97940   0.50560   1.000
    H80     H    0.50340   0.00850   0.51230   1.000
    O23     O    0.53611   0.65311   0.54148   1.000
    N8      N    0.02060   0.50560   0.53250   1.000
    C105    C    0.50100   0.55370   0.19310   1.000
    H81     H    0.50190   0.60000   0.21130   1.000
    C106    C    0.50110   0.54540   0.12070   1.000
    H82     H    0.50110   0.58430   0.08970   1.000
    C107    C    0.49820   0.47980   0.09870   1.000
    C108    C    0.50240   0.57410   0.14180   1.000
    H83     H    0.50330   0.62040   0.12370   1.000
    C109    C    0.49940   0.43390   0.21380   1.000
    H84     H    0.50070   0.60500   0.24480   1.000
    C110    C    0.49440   0.46750   0.02060   1.000
    H85     H    0.48770   0.50340   0.99150   1.000
    O24     O    0.45852   0.53611   0.34689   1.000
    C111    C    0.50100   0.44630   0.80690   1.000
    H86     H    0.50190   0.40000   0.78870   1.000
    C112    C    0.50110   0.45460   0.87930   1.000
    H87     H    0.50110   0.41570   0.91030   1.000
    C113    C    0.49820   0.52020   0.90130   1.000
    C114    C    0.50240   0.42590   0.85820   1.000
    H88     H    0.50330   0.37960   0.87630   1.000
    C115    C    0.49940   0.56610   0.78620   1.000
    H89     H    0.50070   0.39500   0.75520   1.000
    C116    C    0.49440   0.53250   0.97940   1.000
    H90     H    0.48770   0.49660   0.00850   1.000
    O25     O    0.45852   0.46389   0.65311   1.000
    C117    C    0.49900   0.44630   0.19310   1.000
    H91     H    0.49810   0.40000   0.21130   1.000
    C118    C    0.49890   0.45460   0.12070   1.000
    H92     H    0.49890   0.41570   0.08970   1.000
    C119    C    0.50180   0.52020   0.09870   1.000
    C120    C    0.49760   0.42590   0.14180   1.000
    H93     H    0.49670   0.37960   0.12370   1.000
    C121    C    0.50060   0.56610   0.21380   1.000
    H94     H    0.49930   0.39500   0.24480   1.000
    C122    C    0.50560   0.53250   0.02060   1.000
    H95     H    0.51230   0.49660   0.99150   1.000
    O26     O    0.54148   0.46389   0.34689   1.000
    C123    C    0.49900   0.55370   0.80690   1.000
    H96     H    0.49810   0.60000   0.78870   1.000
    C124    C    0.49890   0.54540   0.87930   1.000
    H97     H    0.49890   0.58430   0.91030   1.000
    C125    C    0.50180   0.47980   0.90130   1.000
    C126    C    0.49760   0.57410   0.85820   1.000
    H98     H    0.49670   0.62040   0.87630   1.000
    C127    C    0.50060   0.43390   0.78620   1.000
    H99     H    0.49930   0.60500   0.75520   1.000
    C128    C    0.50560   0.46750   0.97940   1.000
    H100    H    0.51230   0.50340   0.00850   1.000
    O27     O    0.54148   0.53611   0.65311   1.000
    C129    C    0.19310   0.50100   0.55370   1.000
    H101    H    0.21130   0.50190   0.60000   1.000
    C130    C    0.12070   0.50110   0.54540   1.000
    H102    H    0.08970   0.50110   0.58430   1.000
    C131    C    0.09870   0.49820   0.47980   1.000
    C132    C    0.14180   0.50240   0.57410   1.000
    H103    H    0.12370   0.50330   0.62040   1.000
    C133    C    0.21380   0.49940   0.43390   1.000
    H104    H    0.24480   0.50070   0.60500   1.000
    H105    H    0.99150   0.48770   0.50340   1.000
    O28     O    0.34689   0.45852   0.53611   1.000
    C134    C    0.80690   0.50100   0.44630   1.000
    H106    H    0.78870   0.50190   0.40000   1.000
    C135    C    0.87930   0.50110   0.45460   1.000
    H107    H    0.91030   0.50110   0.41570   1.000
    C136    C    0.90130   0.49820   0.52020   1.000
    C137    C    0.85820   0.50240   0.42590   1.000
    H108    H    0.87630   0.50330   0.37960   1.000
    C138    C    0.78620   0.49940   0.56610   1.000
    H109    H    0.75520   0.50070   0.39500   1.000
    H110    H    0.00850   0.48770   0.49660   1.000
    O29     O    0.65311   0.45852   0.46389   1.000
    C139    C    0.19310   0.49900   0.44630   1.000
    H111    H    0.21130   0.49810   0.40000   1.000
    C140    C    0.12070   0.49890   0.45460   1.000
    H112    H    0.08970   0.49890   0.41570   1.000
    C141    C    0.09870   0.50180   0.52020   1.000
    C142    C    0.14180   0.49760   0.42590   1.000
    H113    H    0.12370   0.49670   0.37960   1.000
    C143    C    0.21380   0.50060   0.56610   1.000
    H114    H    0.24480   0.49930   0.39500   1.000
    H115    H    0.99150   0.51230   0.49660   1.000
    O30     O    0.34689   0.54148   0.46389   1.000
    C144    C    0.80690   0.49900   0.55370   1.000
    H116    H    0.78870   0.49810   0.60000   1.000
    C145    C    0.87930   0.49890   0.54540   1.000
    H117    H    0.91030   0.49890   0.58430   1.000
    C146    C    0.90130   0.50180   0.47980   1.000
    C147    C    0.85820   0.49760   0.57410   1.000
    H118    H    0.87630   0.49670   0.62040   1.000
    C148    C    0.78620   0.50060   0.43390   1.000
    H119    H    0.75520   0.49930   0.60500   1.000
    H120    H    0.00850   0.51230   0.50340   1.000
    O31     O    0.65311   0.54148   0.53611   1.000
    C149    C    0.50000   0.31750   0.50000   1.000
    C150    C    0.50000   0.23980   0.50000   1.000
    C151    C    0.50000   0.68250   0.50000   1.000
    C152    C    0.50000   0.76020   0.50000   1.000
    C153    C    0.50000   0.50000   0.31750   1.000
    C154    C    0.50000   0.50000   0.23980   1.000
    C155    C    0.50000   0.50000   0.68250   1.000
    C156    C    0.50000   0.50000   0.76020   1.000
    C157    C    0.31750   0.50000   0.50000   1.000
    C158    C    0.23980   0.50000   0.50000   1.000
    C159    C    0.68250   0.50000   0.50000   1.000
    C160    C    0.76020   0.50000   0.50000   1.000
    O32     O    0.50000   0.50000   0.50000   1.000
    O33     O    0.41420   0.00000   0.50000   1.000
    O34     O    0.58580   0.00000   0.50000   1.000
    O35     O    0.50000   0.41420   0.00000   1.000
    O36     O    0.50000   0.58580   0.00000   1.000
    O37     O    0.00000   0.50000   0.41420   1.000
    O38     O    0.00000   0.50000   0.58580   1.000
    Zn5     Zn   0.55881   0.44119   0.44119   1.000
    Zn6     Zn   0.44119   0.55881   0.44119   1.000
    Zn7     Zn   0.44119   0.44119   0.55881   1.000
    Zn8     Zn   0.55881   0.55881   0.55881   1.000
