# CIF file generated by openbabel 2.4.1, see http://openbabel.sf.net
data_I
_chemical_name_common 'image0'
_cell_length_a 18.421
_cell_length_b 18.421
_cell_length_c 8.537
_cell_angle_alpha 90
_cell_angle_beta 90
_cell_angle_gamma 120
_space_group_name_H-M_alt 'P 1'
_space_group_name_Hall 'P 1'
loop_
    _symmetry_equiv_pos_as_xyz
    x,y,z
loop_
    _atom_site_label
    _atom_site_type_symbol
    _atom_site_fract_x
    _atom_site_fract_y
    _atom_site_fract_z
    _atom_site_occupancy
    C1      C    0.35460   0.03990   0.29000   1.000
    C2      C    0.25700   0.99400   0.33900   1.000
    C3      C    0.32200   0.03900   0.33300   1.000
    C4      C    0.96010   0.31470   0.29000   1.000
    C5      C    0.00600   0.26300   0.33900   1.000
    C6      C    0.96100   0.28300   0.33300   1.000
    C7      C    0.68530   0.64540   0.29000   1.000
    C8      C    0.73700   0.74300   0.33900   1.000
    C9      C    0.71700   0.67800   0.33300   1.000
    C10     C    0.64540   0.96010   0.79000   1.000
    C11     C    0.74300   0.00600   0.83900   1.000
    C12     C    0.67800   0.96100   0.83300   1.000
    C13     C    0.03990   0.68530   0.79000   1.000
    C14     C    0.99400   0.73700   0.83900   1.000
    C15     C    0.03900   0.71700   0.83300   1.000
    C16     C    0.31470   0.35460   0.79000   1.000
    C17     C    0.26300   0.25700   0.83900   1.000
    C18     C    0.28300   0.32200   0.83300   1.000
    C19     C    0.03990   0.35460   0.71000   1.000
    C20     C    0.99400   0.25700   0.66100   1.000
    C21     C    0.03900   0.32200   0.66700   1.000
    C22     C    0.31470   0.96010   0.71000   1.000
    C23     C    0.26300   0.00600   0.66100   1.000
    C24     C    0.28300   0.96100   0.66700   1.000
    C25     C    0.64540   0.68530   0.71000   1.000
    C26     C    0.74300   0.73700   0.66100   1.000
    C27     C    0.67800   0.71700   0.66700   1.000
    C28     C    0.96010   0.64540   0.21000   1.000
    C29     C    0.00600   0.74300   0.16100   1.000
    C30     C    0.96100   0.67800   0.16700   1.000
    C31     C    0.68530   0.03990   0.21000   1.000
    C32     C    0.73700   0.99400   0.16100   1.000
    C33     C    0.71700   0.03900   0.16700   1.000
    C34     C    0.35460   0.31470   0.21000   1.000
    C35     C    0.25700   0.26300   0.16100   1.000
    C36     C    0.32200   0.28300   0.16700   1.000
    C37     C    0.64540   0.96010   0.71000   1.000
    C38     C    0.74300   0.00600   0.66100   1.000
    C39     C    0.67800   0.96100   0.66700   1.000
    C40     C    0.03990   0.68530   0.71000   1.000
    C41     C    0.99400   0.73700   0.66100   1.000
    C42     C    0.03900   0.71700   0.66700   1.000
    C43     C    0.31470   0.35460   0.71000   1.000
    C44     C    0.26300   0.25700   0.66100   1.000
    C45     C    0.28300   0.32200   0.66700   1.000
    C46     C    0.35460   0.03990   0.21000   1.000
    C47     C    0.25700   0.99400   0.16100   1.000
    C48     C    0.32200   0.03900   0.16700   1.000
    C49     C    0.96010   0.31470   0.21000   1.000
    C50     C    0.00600   0.26300   0.16100   1.000
    C51     C    0.96100   0.28300   0.16700   1.000
    C52     C    0.68530   0.64540   0.21000   1.000
    C53     C    0.73700   0.74300   0.16100   1.000
    C54     C    0.71700   0.67800   0.16700   1.000
    C55     C    0.96010   0.64540   0.29000   1.000
    C56     C    0.00600   0.74300   0.33900   1.000
    C57     C    0.96100   0.67800   0.33300   1.000
    C58     C    0.68530   0.03990   0.29000   1.000
    C59     C    0.73700   0.99400   0.33900   1.000
    C60     C    0.71700   0.03900   0.33300   1.000
    C61     C    0.35460   0.31470   0.29000   1.000
    C62     C    0.25700   0.26300   0.33900   1.000
    C63     C    0.32200   0.28300   0.33300   1.000
    C64     C    0.03990   0.35460   0.79000   1.000
    C65     C    0.99400   0.25700   0.83900   1.000
    C66     C    0.03900   0.32200   0.83300   1.000
    C67     C    0.31470   0.96010   0.79000   1.000
    C68     C    0.26300   0.00600   0.83900   1.000
    C69     C    0.28300   0.96100   0.83300   1.000
    C70     C    0.64540   0.68530   0.79000   1.000
    C71     C    0.74300   0.73700   0.83900   1.000
    C72     C    0.67800   0.71700   0.83300   1.000
    Cu1     Cu   0.53885   0.07769   0.25000   1.000
    Cu2     Cu   0.92231   0.46116   0.25000   1.000
    Cu3     Cu   0.53884   0.46115   0.25000   1.000
    Cu4     Cu   0.46115   0.92231   0.75000   1.000
    Cu5     Cu   0.07769   0.53884   0.75000   1.000
    Cu6     Cu   0.46116   0.53885   0.75000   1.000
    C73     C    0.50975   0.01950   0.05740   1.000
    C74     C    0.98050   0.49025   0.05740   1.000
    C75     C    0.50975   0.49025   0.05740   1.000
    C76     C    0.49025   0.98050   0.55740   1.000
    C77     C    0.01950   0.50975   0.55740   1.000
    C78     C    0.49025   0.50975   0.55740   1.000
    C79     C    0.01950   0.50975   0.94260   1.000
    C80     C    0.49025   0.98050   0.94260   1.000
    C81     C    0.49025   0.50975   0.94260   1.000
    C82     C    0.98050   0.49025   0.44260   1.000
    C83     C    0.50975   0.01950   0.44260   1.000
    C84     C    0.50975   0.49025   0.44260   1.000
    C85     C    0.58940   0.25720   0.25000   1.000
    N1      N    0.51740   0.18200   0.25000   1.000
    O1      O    0.36830   0.12770   0.25000   1.000
    C86     C    0.44780   0.18550   0.25000   1.000
    C87     C    0.37500   0.09510   0.25000   1.000
    N2      N    0.32140   0.03520   0.25000   1.000
    C88     C    0.25700   0.98900   0.25000   1.000
    C89     C    0.74280   0.33220   0.25000   1.000
    N3      N    0.81800   0.33540   0.25000   1.000
    O2      O    0.87230   0.24060   0.25000   1.000
    C90     C    0.81450   0.26230   0.25000   1.000
    C91     C    0.90490   0.27990   0.25000   1.000
    N4      N    0.96480   0.28620   0.25000   1.000
    C92     C    0.01100   0.26800   0.25000   1.000
    C93     C    0.66780   0.41060   0.25000   1.000
    N5      N    0.66460   0.48260   0.25000   1.000
    O3      O    0.75940   0.63170   0.25000   1.000
    C94     C    0.73770   0.55220   0.25000   1.000
    C95     C    0.72010   0.62500   0.25000   1.000
    N6      N    0.71380   0.67860   0.25000   1.000
    C96     C    0.73200   0.74300   0.25000   1.000
    C97     C    0.41060   0.74280   0.75000   1.000
    N7      N    0.48260   0.81800   0.75000   1.000
    O4      O    0.63170   0.87230   0.75000   1.000
    C98     C    0.55220   0.81450   0.75000   1.000
    C99     C    0.62500   0.90490   0.75000   1.000
    N8      N    0.67860   0.96480   0.75000   1.000
    C100    C    0.74300   0.01100   0.75000   1.000
    C101    C    0.25720   0.66780   0.75000   1.000
    N9      N    0.18200   0.66460   0.75000   1.000
    O5      O    0.12770   0.75940   0.75000   1.000
    C102    C    0.18550   0.73770   0.75000   1.000
    C103    C    0.09510   0.72010   0.75000   1.000
    N10     N    0.03520   0.71380   0.75000   1.000
    C104    C    0.98900   0.73200   0.75000   1.000
    C105    C    0.33220   0.58940   0.75000   1.000
    N11     N    0.33540   0.51740   0.75000   1.000
    O6      O    0.24060   0.36830   0.75000   1.000
    C106    C    0.26230   0.44780   0.75000   1.000
    C107    C    0.27990   0.37500   0.75000   1.000
    N12     N    0.28620   0.32140   0.75000   1.000
    C108    C    0.26800   0.25700   0.75000   1.000
    C109    C    0.25720   0.58940   0.75000   1.000
    N13     N    0.18200   0.51740   0.75000   1.000
    O7      O    0.12770   0.36830   0.75000   1.000
    C110    C    0.18550   0.44780   0.75000   1.000
    C111    C    0.09510   0.37500   0.75000   1.000
    N14     N    0.03520   0.32140   0.75000   1.000
    C112    C    0.98900   0.25700   0.75000   1.000
    C113    C    0.33220   0.74280   0.75000   1.000
    N15     N    0.33540   0.81800   0.75000   1.000
    O8      O    0.24060   0.87230   0.75000   1.000
    C114    C    0.26230   0.81450   0.75000   1.000
    C115    C    0.27990   0.90490   0.75000   1.000
    N16     N    0.28620   0.96480   0.75000   1.000
    C116    C    0.26800   0.01100   0.75000   1.000
    C117    C    0.41060   0.66780   0.75000   1.000
    N17     N    0.48260   0.66460   0.75000   1.000
    O9      O    0.63170   0.75940   0.75000   1.000
    C118    C    0.55220   0.73770   0.75000   1.000
    C119    C    0.62500   0.72010   0.75000   1.000
    N18     N    0.67860   0.71380   0.75000   1.000
    C120    C    0.74300   0.73200   0.75000   1.000
    C121    C    0.74280   0.41060   0.25000   1.000
    N19     N    0.81800   0.48260   0.25000   1.000
    O10     O    0.87230   0.63170   0.25000   1.000
    C122    C    0.81450   0.55220   0.25000   1.000
    C123    C    0.90490   0.62500   0.25000   1.000
    N20     N    0.96480   0.67860   0.25000   1.000
    C124    C    0.01100   0.74300   0.25000   1.000
    C125    C    0.66780   0.25720   0.25000   1.000
    N21     N    0.66460   0.18200   0.25000   1.000
    O11     O    0.75940   0.12770   0.25000   1.000
    C126    C    0.73770   0.18550   0.25000   1.000
    C127    C    0.72010   0.09510   0.25000   1.000
    N22     N    0.71380   0.03520   0.25000   1.000
    C128    C    0.73200   0.98900   0.25000   1.000
    C129    C    0.58940   0.33220   0.25000   1.000
    N23     N    0.51740   0.33540   0.25000   1.000
    O12     O    0.36830   0.24060   0.25000   1.000
    C130    C    0.44780   0.26230   0.25000   1.000
    C131    C    0.37500   0.27990   0.25000   1.000
    N24     N    0.32140   0.28620   0.25000   1.000
    C132    C    0.25700   0.26800   0.25000   1.000
