# CIF file generated by openbabel 2.4.1, see http://openbabel.sf.net
data_I
_chemical_name_common 'image0'
_cell_length_a 18.6567
_cell_length_b 18.6567
_cell_length_c 38.6198
_cell_angle_alpha 90
_cell_angle_beta 90
_cell_angle_gamma 120
_space_group_name_H-M_alt 'P 1'
_space_group_name_Hall 'P 1'
loop_
    _symmetry_equiv_pos_as_xyz
    x,y,z
loop_
    _atom_site_label
    _atom_site_type_symbol
    _atom_site_fract_x
    _atom_site_fract_y
    _atom_site_fract_z
    _atom_site_occupancy
    O1      O    0.48150   0.37194   0.99683   1.000
    O2      O    0.44210   0.41130   0.04405   1.000
    O3      O    0.44950   0.31650   0.14560   1.000
    C1      C    0.45340   0.36100   0.02718   1.000
    C2      C    0.43210   0.28000   0.04422   1.000
    C3      C    0.40160   0.26480   0.07808   1.000
    H1      H    0.39070   0.30250   0.08920   1.000
    C4      C    0.40520   0.25310   0.15550   1.000
    C5      C    0.38700   0.24010   0.19060   1.000
    H2      H    0.41710   0.28380   0.20700   1.000
    C6      C    0.49700   0.39340   0.16910   1.000
    H3      H    0.54360   0.39340   0.18060   1.000
    H4      H    0.46140   0.39690   0.18630   1.000
    H5      H    0.41190   0.28830   0.14650   1.000
    H6      H    0.38590   0.26540   0.20610   1.000
    C7      C    0.37420   0.23350   0.15480   1.000
    C8      C    0.31080   0.11170   0.14360   1.000
    O4      O    0.14817   0.70527   0.33016   1.000
    O5      O    0.10877   0.74463   0.37738   1.000
    O6      O    0.11617   0.64983   0.47893   1.000
    C9      C    0.12007   0.69433   0.36051   1.000
    C10     C    0.09877   0.61333   0.37755   1.000
    C11     C    0.06827   0.59813   0.41141   1.000
    H7      H    0.05737   0.63583   0.42253   1.000
    C12     C    0.07187   0.58643   0.48883   1.000
    C13     C    0.05367   0.57343   0.52393   1.000
    H8      H    0.08377   0.61713   0.54033   1.000
    C14     C    0.16367   0.72673   0.50243   1.000
    H9      H    0.21027   0.72673   0.51393   1.000
    H10     H    0.12807   0.73023   0.51963   1.000
    H11     H    0.07857   0.62163   0.47983   1.000
    H12     H    0.05257   0.59873   0.53943   1.000
    C15     C    0.04087   0.56683   0.48813   1.000
    C16     C    0.97747   0.44503   0.47693   1.000
    O7      O    0.81483   0.03861   0.66350   1.000
    O8      O    0.77543   0.07797   0.71072   1.000
    O9      O    0.78283   0.98317   0.81227   1.000
    C17     C    0.78673   0.02767   0.69385   1.000
    C18     C    0.76543   0.94667   0.71089   1.000
    C19     C    0.73493   0.93147   0.74475   1.000
    H13     H    0.72403   0.96917   0.75587   1.000
    C20     C    0.73853   0.91977   0.82217   1.000
    C21     C    0.72033   0.90677   0.85727   1.000
    H14     H    0.75043   0.95047   0.87367   1.000
    C22     C    0.83033   0.06007   0.83577   1.000
    H15     H    0.87693   0.06007   0.84727   1.000
    H16     H    0.79473   0.06357   0.85297   1.000
    H17     H    0.74523   0.95497   0.81317   1.000
    H18     H    0.71923   0.93207   0.87277   1.000
    C23     C    0.70753   0.90017   0.82147   1.000
    C24     C    0.64413   0.77837   0.81027   1.000
    O10     O    0.62806   0.10956   0.99683   1.000
    O11     O    0.58870   0.03080   0.04405   1.000
    O12     O    0.68350   0.13300   0.14560   1.000
    C25     C    0.63900   0.09240   0.02718   1.000
    C26     C    0.72000   0.15210   0.04422   1.000
    C27     C    0.73520   0.13680   0.07808   1.000
    H19     H    0.69750   0.08820   0.08920   1.000
    C28     C    0.74690   0.15210   0.15550   1.000
    C29     C    0.75990   0.14690   0.19060   1.000
    H20     H    0.71620   0.13330   0.20700   1.000
    C30     C    0.60660   0.10360   0.16910   1.000
    H21     H    0.60660   0.15020   0.18060   1.000
    H22     H    0.60310   0.06450   0.18630   1.000
    H23     H    0.71170   0.12360   0.14650   1.000
    H24     H    0.73460   0.12050   0.20610   1.000
    C31     C    0.76650   0.14070   0.15480   1.000
    C32     C    0.88830   0.19910   0.14360   1.000
    O13     O    0.29473   0.44289   0.33016   1.000
    O14     O    0.25537   0.36413   0.37738   1.000
    O15     O    0.35017   0.46633   0.47893   1.000
    C33     C    0.30567   0.42573   0.36051   1.000
    C34     C    0.38667   0.48543   0.37755   1.000
    C35     C    0.40187   0.47013   0.41141   1.000
    H25     H    0.36417   0.42153   0.42253   1.000
    C36     C    0.41357   0.48543   0.48883   1.000
    C37     C    0.42657   0.48023   0.52393   1.000
    H26     H    0.38287   0.46663   0.54033   1.000
    C38     C    0.27327   0.43693   0.50243   1.000
    H27     H    0.27327   0.48353   0.51393   1.000
    H28     H    0.26977   0.39783   0.51963   1.000
    H29     H    0.37837   0.45693   0.47983   1.000
    H30     H    0.40127   0.45383   0.53943   1.000
    C39     C    0.43317   0.47403   0.48813   1.000
    C40     C    0.55497   0.53243   0.47693   1.000
    O16     O    0.96139   0.77623   0.66350   1.000
    O17     O    0.92203   0.69747   0.71072   1.000
    O18     O    0.01683   0.79967   0.81227   1.000
    C41     C    0.97233   0.75907   0.69385   1.000
    C42     C    0.05333   0.81877   0.71089   1.000
    C43     C    0.06853   0.80347   0.74475   1.000
    H31     H    0.03083   0.75487   0.75587   1.000
    C44     C    0.08023   0.81877   0.82217   1.000
    C45     C    0.09323   0.81357   0.85727   1.000
    H32     H    0.04953   0.79997   0.87367   1.000
    C46     C    0.93993   0.77027   0.83577   1.000
    H33     H    0.93993   0.81687   0.84727   1.000
    H34     H    0.93643   0.73117   0.85297   1.000
    H35     H    0.04503   0.79027   0.81317   1.000
    H36     H    0.06793   0.78717   0.87277   1.000
    C47     C    0.09983   0.80737   0.82147   1.000
    C48     C    0.22163   0.86577   0.81027   1.000
    O19     O    0.89044   0.51850   0.99683   1.000
    O20     O    0.96920   0.55790   0.04405   1.000
    O21     O    0.86700   0.55050   0.14560   1.000
    C49     C    0.90760   0.54660   0.02718   1.000
    C50     C    0.84790   0.56790   0.04422   1.000
    C51     C    0.86320   0.59840   0.07808   1.000
    H37     H    0.91180   0.60930   0.08920   1.000
    C52     C    0.84790   0.59480   0.15550   1.000
    C53     C    0.85310   0.61300   0.19060   1.000
    H38     H    0.86670   0.58290   0.20700   1.000
    C54     C    0.89640   0.50300   0.16910   1.000
    H39     H    0.84980   0.45640   0.18060   1.000
    H40     H    0.93550   0.53860   0.18630   1.000
    H41     H    0.87640   0.58810   0.14650   1.000
    H42     H    0.87950   0.61410   0.20610   1.000
    C55     C    0.85930   0.62580   0.15480   1.000
    C56     C    0.80090   0.68920   0.14360   1.000
    O22     O    0.55711   0.85183   0.33016   1.000
    O23     O    0.63587   0.89123   0.37738   1.000
    O24     O    0.53367   0.88383   0.47893   1.000
    C57     C    0.57427   0.87993   0.36051   1.000
    C58     C    0.51457   0.90123   0.37755   1.000
    C59     C    0.52987   0.93173   0.41141   1.000
    H43     H    0.57847   0.94263   0.42253   1.000
    C60     C    0.51457   0.92813   0.48883   1.000
    C61     C    0.51977   0.94633   0.52393   1.000
    H44     H    0.53337   0.91623   0.54033   1.000
    C62     C    0.56307   0.83633   0.50243   1.000
    H45     H    0.51647   0.78973   0.51393   1.000
    H46     H    0.60217   0.87193   0.51963   1.000
    H47     H    0.54307   0.92143   0.47983   1.000
    H48     H    0.54617   0.94743   0.53943   1.000
    C63     C    0.52597   0.95913   0.48813   1.000
    C64     C    0.46757   0.02253   0.47693   1.000
    O25     O    0.22377   0.18517   0.66350   1.000
    O26     O    0.30253   0.22457   0.71072   1.000
    O27     O    0.20033   0.21717   0.81227   1.000
    C65     C    0.24093   0.21327   0.69385   1.000
    C66     C    0.18123   0.23457   0.71089   1.000
    C67     C    0.19653   0.26507   0.74475   1.000
    H49     H    0.24513   0.27597   0.75587   1.000
    C68     C    0.18123   0.26147   0.82217   1.000
    C69     C    0.18643   0.27967   0.85727   1.000
    H50     H    0.20003   0.24957   0.87367   1.000
    C70     C    0.22973   0.16967   0.83577   1.000
    H51     H    0.18313   0.12307   0.84727   1.000
    H52     H    0.26883   0.20527   0.85297   1.000
    H53     H    0.20973   0.25477   0.81317   1.000
    H54     H    0.21283   0.28077   0.87277   1.000
    C71     C    0.19263   0.29247   0.82147   1.000
    C72     C    0.13423   0.35587   0.81027   1.000
    O28     O    0.37194   0.48150   0.00317   1.000
    O29     O    0.41130   0.44210   0.95595   1.000
    O30     O    0.31650   0.44950   0.85440   1.000
    C73     C    0.36100   0.45340   0.97282   1.000
    C74     C    0.28000   0.43210   0.95578   1.000
    C75     C    0.26480   0.40160   0.92192   1.000
    H55     H    0.30250   0.39070   0.91080   1.000
    C76     C    0.25310   0.40520   0.84450   1.000
    C77     C    0.24010   0.38700   0.80940   1.000
    H56     H    0.28380   0.41710   0.79300   1.000
    C78     C    0.39340   0.49700   0.83090   1.000
    H57     H    0.39340   0.54360   0.81940   1.000
    H58     H    0.39690   0.46140   0.81370   1.000
    H59     H    0.28830   0.41190   0.85350   1.000
    H60     H    0.26540   0.38590   0.79390   1.000
    C79     C    0.23350   0.37420   0.84520   1.000
    C80     C    0.11170   0.31080   0.85640   1.000
    O31     O    0.03861   0.81483   0.33650   1.000
    O32     O    0.07797   0.77543   0.28928   1.000
    O33     O    0.98317   0.78283   0.18773   1.000
    C81     C    0.02767   0.78673   0.30615   1.000
    C82     C    0.94667   0.76543   0.28911   1.000
    C83     C    0.93147   0.73493   0.25525   1.000
    H61     H    0.96917   0.72403   0.24413   1.000
    C84     C    0.91977   0.73853   0.17783   1.000
    C85     C    0.90677   0.72033   0.14273   1.000
    H62     H    0.95047   0.75043   0.12633   1.000
    C86     C    0.06007   0.83033   0.16423   1.000
    H63     H    0.06007   0.87693   0.15273   1.000
    H64     H    0.06357   0.79473   0.14703   1.000
    H65     H    0.95497   0.74523   0.18683   1.000
    H66     H    0.93207   0.71923   0.12723   1.000
    C87     C    0.90017   0.70753   0.17853   1.000
    C88     C    0.77837   0.64413   0.18973   1.000
    O34     O    0.70527   0.14817   0.66984   1.000
    O35     O    0.74463   0.10877   0.62262   1.000
    O36     O    0.64983   0.11617   0.52107   1.000
    C89     C    0.69433   0.12007   0.63949   1.000
    C90     C    0.61333   0.09877   0.62245   1.000
    C91     C    0.59813   0.06827   0.58859   1.000
    H67     H    0.63583   0.05737   0.57747   1.000
    C92     C    0.58643   0.07187   0.51117   1.000
    C93     C    0.57343   0.05367   0.47607   1.000
    H68     H    0.61713   0.08377   0.45967   1.000
    C94     C    0.72673   0.16367   0.49757   1.000
    H69     H    0.72673   0.21027   0.48607   1.000
    H70     H    0.73023   0.12807   0.48037   1.000
    H71     H    0.62163   0.07857   0.52017   1.000
    H72     H    0.59873   0.05257   0.46057   1.000
    C95     C    0.56683   0.04087   0.51187   1.000
    C96     C    0.44503   0.97747   0.52307   1.000
    O37     O    0.10956   0.62806   0.00317   1.000
    O38     O    0.03080   0.58870   0.95595   1.000
    O39     O    0.13300   0.68350   0.85440   1.000
    C97     C    0.09240   0.63900   0.97282   1.000
    C98     C    0.15210   0.72000   0.95578   1.000
    C99     C    0.13680   0.73520   0.92192   1.000
    H73     H    0.08820   0.69750   0.91080   1.000
    C100    C    0.15210   0.74690   0.84450   1.000
    C101    C    0.14690   0.75990   0.80940   1.000
    H74     H    0.13330   0.71620   0.79300   1.000
    C102    C    0.10360   0.60660   0.83090   1.000
    H75     H    0.15020   0.60660   0.81940   1.000
    H76     H    0.06450   0.60310   0.81370   1.000
    H77     H    0.12360   0.71170   0.85350   1.000
    H78     H    0.12050   0.73460   0.79390   1.000
    C103    C    0.14070   0.76650   0.84520   1.000
    C104    C    0.19910   0.88830   0.85640   1.000
    O40     O    0.77623   0.96139   0.33650   1.000
    O41     O    0.69747   0.92203   0.28928   1.000
    O42     O    0.79967   0.01683   0.18773   1.000
    C105    C    0.75907   0.97233   0.30615   1.000
    C106    C    0.81877   0.05333   0.28911   1.000
    C107    C    0.80347   0.06853   0.25525   1.000
    H79     H    0.75487   0.03083   0.24413   1.000
    C108    C    0.81877   0.08023   0.17783   1.000
    C109    C    0.81357   0.09323   0.14273   1.000
    H80     H    0.79997   0.04953   0.12633   1.000
    C110    C    0.77027   0.93993   0.16423   1.000
    H81     H    0.81687   0.93993   0.15273   1.000
    H82     H    0.73117   0.93643   0.14703   1.000
    H83     H    0.79027   0.04503   0.18683   1.000
    H84     H    0.78717   0.06793   0.12723   1.000
    C111    C    0.80737   0.09983   0.17853   1.000
    C112    C    0.86577   0.22163   0.18973   1.000
    O43     O    0.44289   0.29473   0.66984   1.000
    O44     O    0.36413   0.25537   0.62262   1.000
    O45     O    0.46633   0.35017   0.52107   1.000
    C113    C    0.42573   0.30567   0.63949   1.000
    C114    C    0.48543   0.38667   0.62245   1.000
    C115    C    0.47013   0.40187   0.58859   1.000
    H85     H    0.42153   0.36417   0.57747   1.000
    C116    C    0.48543   0.41357   0.51117   1.000
    C117    C    0.48023   0.42657   0.47607   1.000
    H86     H    0.46663   0.38287   0.45967   1.000
    C118    C    0.43693   0.27327   0.49757   1.000
    H87     H    0.48353   0.27327   0.48607   1.000
    H88     H    0.39783   0.26977   0.48037   1.000
    H89     H    0.45693   0.37837   0.52017   1.000
    H90     H    0.45383   0.40127   0.46057   1.000
    C119    C    0.47403   0.43317   0.51187   1.000
    C120    C    0.53243   0.55497   0.52307   1.000
    O46     O    0.51850   0.89044   0.00317   1.000
    O47     O    0.55790   0.96920   0.95595   1.000
    O48     O    0.55050   0.86700   0.85440   1.000
    C121    C    0.54660   0.90760   0.97282   1.000
    C122    C    0.56790   0.84790   0.95578   1.000
    C123    C    0.59840   0.86320   0.92192   1.000
    H91     H    0.60930   0.91180   0.91080   1.000
    C124    C    0.59480   0.84790   0.84450   1.000
    C125    C    0.61300   0.85310   0.80940   1.000
    H92     H    0.58290   0.86670   0.79300   1.000
    C126    C    0.50300   0.89640   0.83090   1.000
    H93     H    0.45640   0.84980   0.81940   1.000
    H94     H    0.53860   0.93550   0.81370   1.000
    H95     H    0.58810   0.87640   0.85350   1.000
    H96     H    0.61410   0.87950   0.79390   1.000
    C127    C    0.62580   0.85930   0.84520   1.000
    C128    C    0.68920   0.80090   0.85640   1.000
    O49     O    0.18517   0.22377   0.33650   1.000
    O50     O    0.22457   0.30253   0.28928   1.000
    O51     O    0.21717   0.20033   0.18773   1.000
    C129    C    0.21327   0.24093   0.30615   1.000
    C130    C    0.23457   0.18123   0.28911   1.000
    C131    C    0.26507   0.19653   0.25525   1.000
    H97     H    0.27597   0.24513   0.24413   1.000
    C132    C    0.26147   0.18123   0.17783   1.000
    C133    C    0.27967   0.18643   0.14273   1.000
    H98     H    0.24957   0.20003   0.12633   1.000
    C134    C    0.16967   0.22973   0.16423   1.000
    H99     H    0.12307   0.18313   0.15273   1.000
    H100    H    0.20527   0.26883   0.14703   1.000
    H101    H    0.25477   0.20973   0.18683   1.000
    H102    H    0.28077   0.21283   0.12723   1.000
    C135    C    0.29247   0.19263   0.17853   1.000
    C136    C    0.35587   0.13423   0.18973   1.000
    O52     O    0.85183   0.55711   0.66984   1.000
    O53     O    0.89123   0.63587   0.62262   1.000
    O54     O    0.88383   0.53367   0.52107   1.000
    C137    C    0.87993   0.57427   0.63949   1.000
    C138    C    0.90123   0.51457   0.62245   1.000
    C139    C    0.93173   0.52987   0.58859   1.000
    H103    H    0.94263   0.57847   0.57747   1.000
    C140    C    0.92813   0.51457   0.51117   1.000
    C141    C    0.94633   0.51977   0.47607   1.000
    H104    H    0.91623   0.53337   0.45967   1.000
    C142    C    0.83633   0.56307   0.49757   1.000
    H105    H    0.78973   0.51647   0.48607   1.000
    H106    H    0.87193   0.60217   0.48037   1.000
    H107    H    0.92143   0.54307   0.52017   1.000
    H108    H    0.94743   0.54617   0.46057   1.000
    C143    C    0.95913   0.52597   0.51187   1.000
    C144    C    0.02253   0.46757   0.52307   1.000
    O55     O    0.51850   0.62806   0.00317   1.000
    O56     O    0.55790   0.58870   0.95595   1.000
    O57     O    0.55050   0.68350   0.85440   1.000
    C145    C    0.54660   0.63900   0.97282   1.000
    C146    C    0.56790   0.72000   0.95578   1.000
    C147    C    0.59840   0.73520   0.92192   1.000
    H109    H    0.60930   0.69750   0.91080   1.000
    C148    C    0.59480   0.74690   0.84450   1.000
    C149    C    0.61300   0.75990   0.80940   1.000
    H110    H    0.58290   0.71620   0.79300   1.000
    C150    C    0.50300   0.60660   0.83090   1.000
    H111    H    0.45640   0.60660   0.81940   1.000
    H112    H    0.53860   0.60310   0.81370   1.000
    H113    H    0.58810   0.71170   0.85350   1.000
    H114    H    0.61410   0.73460   0.79390   1.000
    C151    C    0.62580   0.76650   0.84520   1.000
    C152    C    0.68920   0.88830   0.85640   1.000
    O58     O    0.18517   0.96139   0.33650   1.000
    O59     O    0.22457   0.92203   0.28928   1.000
    O60     O    0.21717   0.01683   0.18773   1.000
    C153    C    0.21327   0.97233   0.30615   1.000
    C154    C    0.23457   0.05333   0.28911   1.000
    C155    C    0.26507   0.06853   0.25525   1.000
    H115    H    0.27597   0.03083   0.24413   1.000
    C156    C    0.26147   0.08023   0.17783   1.000
    C157    C    0.27967   0.09323   0.14273   1.000
    H116    H    0.24957   0.04953   0.12633   1.000
    C158    C    0.16967   0.93993   0.16423   1.000
    H117    H    0.12307   0.93993   0.15273   1.000
    H118    H    0.20527   0.93643   0.14703   1.000
    H119    H    0.25477   0.04503   0.18683   1.000
    H120    H    0.28077   0.06793   0.12723   1.000
    C159    C    0.29247   0.09983   0.17853   1.000
    C160    C    0.35587   0.22163   0.18973   1.000
    O61     O    0.85183   0.29473   0.66984   1.000
    O62     O    0.89123   0.25537   0.62262   1.000
    O63     O    0.88383   0.35017   0.52107   1.000
    C161    C    0.87993   0.30567   0.63949   1.000
    C162    C    0.90123   0.38667   0.62245   1.000
    C163    C    0.93173   0.40187   0.58859   1.000
    H121    H    0.94263   0.36417   0.57747   1.000
    C164    C    0.92813   0.41357   0.51117   1.000
    C165    C    0.94633   0.42657   0.47607   1.000
    H122    H    0.91623   0.38287   0.45967   1.000
    C166    C    0.83633   0.27327   0.49757   1.000
    H123    H    0.78973   0.27327   0.48607   1.000
    H124    H    0.87193   0.26977   0.48037   1.000
    H125    H    0.92143   0.37837   0.52017   1.000
    H126    H    0.94743   0.40127   0.46057   1.000
    C167    C    0.95913   0.43317   0.51187   1.000
    C168    C    0.02253   0.55497   0.52307   1.000
    O64     O    0.37194   0.89044   0.00317   1.000
    O65     O    0.41130   0.96920   0.95595   1.000
    O66     O    0.31650   0.86700   0.85440   1.000
    C169    C    0.36100   0.90760   0.97282   1.000
    C170    C    0.28000   0.84790   0.95578   1.000
    C171    C    0.26480   0.86320   0.92192   1.000
    H127    H    0.30250   0.91180   0.91080   1.000
    C172    C    0.25310   0.84790   0.84450   1.000
    C173    C    0.24010   0.85310   0.80940   1.000
    H128    H    0.28380   0.86670   0.79300   1.000
    C174    C    0.39340   0.89640   0.83090   1.000
    H129    H    0.39340   0.84980   0.81940   1.000
    H130    H    0.39690   0.93550   0.81370   1.000
    H131    H    0.28830   0.87640   0.85350   1.000
    H132    H    0.26540   0.87950   0.79390   1.000
    C175    C    0.23350   0.85930   0.84520   1.000
    C176    C    0.11170   0.80090   0.85640   1.000
    O67     O    0.03861   0.22377   0.33650   1.000
    O68     O    0.07797   0.30253   0.28928   1.000
    O69     O    0.98317   0.20033   0.18773   1.000
    C177    C    0.02767   0.24093   0.30615   1.000
    C178    C    0.94667   0.18123   0.28911   1.000
    C179    C    0.93147   0.19653   0.25525   1.000
    H133    H    0.96917   0.24513   0.24413   1.000
    C180    C    0.91977   0.18123   0.17783   1.000
    C181    C    0.90677   0.18643   0.14273   1.000
    H134    H    0.95047   0.20003   0.12633   1.000
    C182    C    0.06007   0.22973   0.16423   1.000
    H135    H    0.06007   0.18313   0.15273   1.000
    H136    H    0.06357   0.26883   0.14703   1.000
    H137    H    0.95497   0.20973   0.18683   1.000
    H138    H    0.93207   0.21283   0.12723   1.000
    C183    C    0.90017   0.19263   0.17853   1.000
    C184    C    0.77837   0.13423   0.18973   1.000
    O70     O    0.70527   0.55711   0.66984   1.000
    O71     O    0.74463   0.63587   0.62262   1.000
    O72     O    0.64983   0.53367   0.52107   1.000
    C185    C    0.69433   0.57427   0.63949   1.000
    C186    C    0.61333   0.51457   0.62245   1.000
    C187    C    0.59813   0.52987   0.58859   1.000
    H139    H    0.63583   0.57847   0.57747   1.000
    C188    C    0.58643   0.51457   0.51117   1.000
    C189    C    0.57343   0.51977   0.47607   1.000
    H140    H    0.61713   0.53337   0.45967   1.000
    C190    C    0.72673   0.56307   0.49757   1.000
    H141    H    0.72673   0.51647   0.48607   1.000
    H142    H    0.73023   0.60217   0.48037   1.000
    H143    H    0.62163   0.54307   0.52017   1.000
    H144    H    0.59873   0.54617   0.46057   1.000
    C191    C    0.56683   0.52597   0.51187   1.000
    C192    C    0.44503   0.46757   0.52307   1.000
    O73     O    0.10956   0.48150   0.00317   1.000
    O74     O    0.03080   0.44210   0.95595   1.000
    O75     O    0.13300   0.44950   0.85440   1.000
    C193    C    0.09240   0.45340   0.97282   1.000
    C194    C    0.15210   0.43210   0.95578   1.000
    C195    C    0.13680   0.40160   0.92192   1.000
    H145    H    0.08820   0.39070   0.91080   1.000
    C196    C    0.15210   0.40520   0.84450   1.000
    C197    C    0.14690   0.38700   0.80940   1.000
    H146    H    0.13330   0.41710   0.79300   1.000
    C198    C    0.10360   0.49700   0.83090   1.000
    H147    H    0.15020   0.54360   0.81940   1.000
    H148    H    0.06450   0.46140   0.81370   1.000
    H149    H    0.12360   0.41190   0.85350   1.000
    H150    H    0.12050   0.38590   0.79390   1.000
    C199    C    0.14070   0.37420   0.84520   1.000
    C200    C    0.19910   0.31080   0.85640   1.000
    O76     O    0.77623   0.81483   0.33650   1.000
    O77     O    0.69747   0.77543   0.28928   1.000
    O78     O    0.79967   0.78283   0.18773   1.000
    C201    C    0.75907   0.78673   0.30615   1.000
    C202    C    0.81877   0.76543   0.28911   1.000
    C203    C    0.80347   0.73493   0.25525   1.000
    H151    H    0.75487   0.72403   0.24413   1.000
    C204    C    0.81877   0.73853   0.17783   1.000
    C205    C    0.81357   0.72033   0.14273   1.000
    H152    H    0.79997   0.75043   0.12633   1.000
    C206    C    0.77027   0.83033   0.16423   1.000
    H153    H    0.81687   0.87693   0.15273   1.000
    H154    H    0.73117   0.79473   0.14703   1.000
    H155    H    0.79027   0.74523   0.18683   1.000
    H156    H    0.78717   0.71923   0.12723   1.000
    C207    C    0.80737   0.70753   0.17853   1.000
    C208    C    0.86577   0.64413   0.18973   1.000
    O79     O    0.44289   0.14817   0.66984   1.000
    O80     O    0.36413   0.10877   0.62262   1.000
    O81     O    0.46633   0.11617   0.52107   1.000
    C209    C    0.42573   0.12007   0.63949   1.000
    C210    C    0.48543   0.09877   0.62245   1.000
    C211    C    0.47013   0.06827   0.58859   1.000
    H157    H    0.42153   0.05737   0.57747   1.000
    C212    C    0.48543   0.07187   0.51117   1.000
    C213    C    0.48023   0.05367   0.47607   1.000
    H158    H    0.46663   0.08377   0.45967   1.000
    C214    C    0.43693   0.16367   0.49757   1.000
    H159    H    0.48353   0.21027   0.48607   1.000
    H160    H    0.39783   0.12807   0.48037   1.000
    H161    H    0.45693   0.07857   0.52017   1.000
    H162    H    0.45383   0.05257   0.46057   1.000
    C215    C    0.47403   0.04087   0.51187   1.000
    C216    C    0.53243   0.97747   0.52307   1.000
    O82     O    0.62806   0.51850   0.99683   1.000
    O83     O    0.58870   0.55790   0.04405   1.000
    O84     O    0.68350   0.55050   0.14560   1.000
    C217    C    0.63900   0.54660   0.02718   1.000
    C218    C    0.72000   0.56790   0.04422   1.000
    C219    C    0.73520   0.59840   0.07808   1.000
    H163    H    0.69750   0.60930   0.08920   1.000
    C220    C    0.74690   0.59480   0.15550   1.000
    C221    C    0.75990   0.61300   0.19060   1.000
    H164    H    0.71620   0.58290   0.20700   1.000
    C222    C    0.60660   0.50300   0.16910   1.000
    H165    H    0.60660   0.45640   0.18060   1.000
    H166    H    0.60310   0.53860   0.18630   1.000
    H167    H    0.71170   0.58810   0.14650   1.000
    H168    H    0.73460   0.61410   0.20610   1.000
    C223    C    0.76650   0.62580   0.15480   1.000
    C224    C    0.88830   0.68920   0.14360   1.000
    O85     O    0.29473   0.85183   0.33016   1.000
    O86     O    0.25537   0.89123   0.37738   1.000
    O87     O    0.35017   0.88383   0.47893   1.000
    C225    C    0.30567   0.87993   0.36051   1.000
    C226    C    0.38667   0.90123   0.37755   1.000
    C227    C    0.40187   0.93173   0.41141   1.000
    H169    H    0.36417   0.94263   0.42253   1.000
    C228    C    0.41357   0.92813   0.48883   1.000
    C229    C    0.42657   0.94633   0.52393   1.000
    H170    H    0.38287   0.91623   0.54033   1.000
    C230    C    0.27327   0.83633   0.50243   1.000
    H171    H    0.27327   0.78973   0.51393   1.000
    H172    H    0.26977   0.87193   0.51963   1.000
    H173    H    0.37837   0.92143   0.47983   1.000
    H174    H    0.40127   0.94743   0.53943   1.000
    C231    C    0.43317   0.95913   0.48813   1.000
    C232    C    0.55497   0.02253   0.47693   1.000
    O88     O    0.96139   0.18517   0.66350   1.000
    O89     O    0.92203   0.22457   0.71072   1.000
    O90     O    0.01683   0.21717   0.81227   1.000
    C233    C    0.97233   0.21327   0.69385   1.000
    C234    C    0.05333   0.23457   0.71089   1.000
    C235    C    0.06853   0.26507   0.74475   1.000
    H175    H    0.03083   0.27597   0.75587   1.000
    C236    C    0.08023   0.26147   0.82217   1.000
    C237    C    0.09323   0.27967   0.85727   1.000
    H176    H    0.04953   0.24957   0.87367   1.000
    C238    C    0.93993   0.16967   0.83577   1.000
    H177    H    0.93993   0.12307   0.84727   1.000
    H178    H    0.93643   0.20527   0.85297   1.000
    H179    H    0.04503   0.25477   0.81317   1.000
    H180    H    0.06793   0.28077   0.87277   1.000
    C239    C    0.09983   0.29247   0.82147   1.000
    C240    C    0.22163   0.35587   0.81027   1.000
    O91     O    0.89044   0.37194   0.99683   1.000
    O92     O    0.96920   0.41130   0.04405   1.000
    O93     O    0.86700   0.31650   0.14560   1.000
    C241    C    0.90760   0.36100   0.02718   1.000
    C242    C    0.84790   0.28000   0.04422   1.000
    C243    C    0.86320   0.26480   0.07808   1.000
    H181    H    0.91180   0.30250   0.08920   1.000
    C244    C    0.84790   0.25310   0.15550   1.000
    C245    C    0.85310   0.24010   0.19060   1.000
    H182    H    0.86670   0.28380   0.20700   1.000
    C246    C    0.89640   0.39340   0.16910   1.000
    H183    H    0.84980   0.39340   0.18060   1.000
    H184    H    0.93550   0.39690   0.18630   1.000
    H185    H    0.87640   0.28830   0.14650   1.000
    H186    H    0.87950   0.26540   0.20610   1.000
    C247    C    0.85930   0.23350   0.15480   1.000
    C248    C    0.80090   0.11170   0.14360   1.000
    O94     O    0.55711   0.70527   0.33016   1.000
    O95     O    0.63587   0.74463   0.37738   1.000
    O96     O    0.53367   0.64983   0.47893   1.000
    C249    C    0.57427   0.69433   0.36051   1.000
    C250    C    0.51457   0.61333   0.37755   1.000
    C251    C    0.52987   0.59813   0.41141   1.000
    H187    H    0.57847   0.63583   0.42253   1.000
    C252    C    0.51457   0.58643   0.48883   1.000
    C253    C    0.51977   0.57343   0.52393   1.000
    H188    H    0.53337   0.61713   0.54033   1.000
    C254    C    0.56307   0.72673   0.50243   1.000
    H189    H    0.51647   0.72673   0.51393   1.000
    H190    H    0.60217   0.73023   0.51963   1.000
    H191    H    0.54307   0.62163   0.47983   1.000
    H192    H    0.54617   0.59873   0.53943   1.000
    C255    C    0.52597   0.56683   0.48813   1.000
    C256    C    0.46757   0.44503   0.47693   1.000
    O97     O    0.22377   0.03861   0.66350   1.000
    O98     O    0.30253   0.07797   0.71072   1.000
    O99     O    0.20033   0.98317   0.81227   1.000
    C257    C    0.24093   0.02767   0.69385   1.000
    C258    C    0.18123   0.94667   0.71089   1.000
    C259    C    0.19653   0.93147   0.74475   1.000
    H193    H    0.24513   0.96917   0.75587   1.000
    C260    C    0.18123   0.91977   0.82217   1.000
    C261    C    0.18643   0.90677   0.85727   1.000
    H194    H    0.20003   0.95047   0.87367   1.000
    C262    C    0.22973   0.06007   0.83577   1.000
    H195    H    0.18313   0.06007   0.84727   1.000
    H196    H    0.26883   0.06357   0.85297   1.000
    H197    H    0.20973   0.95497   0.81317   1.000
    H198    H    0.21283   0.93207   0.87277   1.000
    C263    C    0.19263   0.90017   0.82147   1.000
    C264    C    0.13423   0.77837   0.81027   1.000
    O100    O    0.48150   0.10956   0.99683   1.000
    O101    O    0.44210   0.03080   0.04405   1.000
    O102    O    0.44950   0.13300   0.14560   1.000
    C265    C    0.45340   0.09240   0.02718   1.000
    C266    C    0.43210   0.15210   0.04422   1.000
    C267    C    0.40160   0.13680   0.07808   1.000
    H199    H    0.39070   0.08820   0.08920   1.000
    C268    C    0.40520   0.15210   0.15550   1.000
    C269    C    0.38700   0.14690   0.19060   1.000
    H200    H    0.41710   0.13330   0.20700   1.000
    C270    C    0.49700   0.10360   0.16910   1.000
    H201    H    0.54360   0.15020   0.18060   1.000
    H202    H    0.46140   0.06450   0.18630   1.000
    H203    H    0.41190   0.12360   0.14650   1.000
    H204    H    0.38590   0.12050   0.20610   1.000
    C271    C    0.37420   0.14070   0.15480   1.000
    C272    C    0.31080   0.19910   0.14360   1.000
    O103    O    0.14817   0.44289   0.33016   1.000
    O104    O    0.10877   0.36413   0.37738   1.000
    O105    O    0.11617   0.46633   0.47893   1.000
    C273    C    0.12007   0.42573   0.36051   1.000
    C274    C    0.09877   0.48543   0.37755   1.000
    C275    C    0.06827   0.47013   0.41141   1.000
    H205    H    0.05737   0.42153   0.42253   1.000
    C276    C    0.07187   0.48543   0.48883   1.000
    C277    C    0.05367   0.48023   0.52393   1.000
    H206    H    0.08377   0.46663   0.54033   1.000
    C278    C    0.16367   0.43693   0.50243   1.000
    H207    H    0.21027   0.48353   0.51393   1.000
    H208    H    0.12807   0.39783   0.51963   1.000
    H209    H    0.07857   0.45693   0.47983   1.000
    H210    H    0.05257   0.45383   0.53943   1.000
    C279    C    0.04087   0.47403   0.48813   1.000
    C280    C    0.97747   0.53243   0.47693   1.000
    O106    O    0.81483   0.77623   0.66350   1.000
    O107    O    0.77543   0.69747   0.71072   1.000
    O108    O    0.78283   0.79967   0.81227   1.000
    C281    C    0.78673   0.75907   0.69385   1.000
    C282    C    0.76543   0.81877   0.71089   1.000
    C283    C    0.73493   0.80347   0.74475   1.000
    H211    H    0.72403   0.75487   0.75587   1.000
    C284    C    0.73853   0.81877   0.82217   1.000
    C285    C    0.72033   0.81357   0.85727   1.000
    H212    H    0.75043   0.79997   0.87367   1.000
    C286    C    0.83033   0.77027   0.83577   1.000
    H213    H    0.87693   0.81687   0.84727   1.000
    H214    H    0.79473   0.73117   0.85297   1.000
    H215    H    0.74523   0.79027   0.81317   1.000
    H216    H    0.71923   0.78717   0.87277   1.000
    C287    C    0.70753   0.80737   0.82147   1.000
    C288    C    0.64413   0.86577   0.81027   1.000
    Cu1     Cu   0.52323   0.47677   0.97237   1.000
    C289    C    0.52970   0.47030   0.14000   1.000
    H217    H    0.54180   0.45820   0.11700   1.000
    H218    H    0.49960   0.50040   0.13960   1.000
    Cu2     Cu   0.18990   0.81010   0.30571   1.000
    C290    C    0.19637   0.80363   0.47333   1.000
    H219    H    0.20847   0.79153   0.45033   1.000
    H220    H    0.16627   0.83373   0.47293   1.000
    Cu3     Cu   0.85657   0.14343   0.63904   1.000
    C291    C    0.86303   0.13697   0.80667   1.000
    H221    H    0.87513   0.12487   0.78367   1.000
    H222    H    0.83293   0.16707   0.80627   1.000
    Cu4     Cu   0.52323   0.04646   0.97237   1.000
    C292    C    0.52970   0.05940   0.14000   1.000
    H223    H    0.54180   0.08360   0.11700   1.000
    H224    H    0.49960   0.99920   0.13960   1.000
    Cu5     Cu   0.18990   0.37980   0.30571   1.000
    C293    C    0.19637   0.39273   0.47333   1.000
    H225    H    0.20847   0.41693   0.45033   1.000
    H226    H    0.16627   0.33253   0.47293   1.000
    Cu6     Cu   0.85657   0.71313   0.63904   1.000
    C294    C    0.86303   0.72607   0.80667   1.000
    H227    H    0.87513   0.75027   0.78367   1.000
    H228    H    0.83293   0.66587   0.80627   1.000
    Cu7     Cu   0.95354   0.47677   0.97237   1.000
    C295    C    0.94060   0.47030   0.14000   1.000
    H229    H    0.91640   0.45820   0.11700   1.000
    H230    H    0.00080   0.50040   0.13960   1.000
    Cu8     Cu   0.62020   0.81010   0.30571   1.000
    C296    C    0.60727   0.80363   0.47333   1.000
    H231    H    0.58307   0.79153   0.45033   1.000
    H232    H    0.66747   0.83373   0.47293   1.000
    Cu9     Cu   0.28687   0.14343   0.63904   1.000
    C297    C    0.27393   0.13697   0.80667   1.000
    H233    H    0.24973   0.12487   0.78367   1.000
    H234    H    0.33413   0.16707   0.80627   1.000
    Cu10    Cu   0.47677   0.52323   0.02762   1.000
    C298    C    0.47030   0.52970   0.86000   1.000
    H235    H    0.45820   0.54180   0.88300   1.000
    H236    H    0.50040   0.49960   0.86040   1.000
    Cu11    Cu   0.14343   0.85657   0.36096   1.000
    C299    C    0.13697   0.86303   0.19333   1.000
    H237    H    0.12487   0.87513   0.21633   1.000
    H238    H    0.16707   0.83293   0.19373   1.000
    Cu12    Cu   0.81010   0.18990   0.69429   1.000
    C300    C    0.80363   0.19637   0.52667   1.000
    H239    H    0.79153   0.20847   0.54967   1.000
    H240    H    0.83373   0.16627   0.52707   1.000
    Cu13    Cu   0.04646   0.52323   0.02762   1.000
    C301    C    0.05940   0.52970   0.86000   1.000
    H241    H    0.08360   0.54180   0.88300   1.000
    H242    H    0.99920   0.49960   0.86040   1.000
    Cu14    Cu   0.71313   0.85657   0.36096   1.000
    C302    C    0.72607   0.86303   0.19333   1.000
    H243    H    0.75027   0.87513   0.21633   1.000
    H244    H    0.66587   0.83293   0.19373   1.000
    Cu15    Cu   0.37980   0.18990   0.69429   1.000
    C303    C    0.39273   0.19637   0.52667   1.000
    H245    H    0.41693   0.20847   0.54967   1.000
    H246    H    0.33253   0.16627   0.52707   1.000
    Cu16    Cu   0.47677   0.95354   0.02762   1.000
    C304    C    0.47030   0.94060   0.86000   1.000
    H247    H    0.45820   0.91640   0.88300   1.000
    H248    H    0.50040   0.00080   0.86040   1.000
    Cu17    Cu   0.14343   0.28687   0.36096   1.000
    C305    C    0.13697   0.27393   0.19333   1.000
    H249    H    0.12487   0.24973   0.21633   1.000
    H250    H    0.16707   0.33413   0.19373   1.000
    Cu18    Cu   0.81010   0.62020   0.69429   1.000
    C306    C    0.80363   0.60727   0.52667   1.000
    H251    H    0.79153   0.58307   0.54967   1.000
    H252    H    0.83373   0.66747   0.52707   1.000
    C307    C    0.44690   0.22345   0.02739   1.000
    H253    H    0.46670   0.23335   0.00480   1.000
    C308    C    0.38770   0.19385   0.09512   1.000
    C309    C    0.37380   0.18690   0.13280   1.000
    C310    C    0.32610   0.16305   0.20180   1.000
    C311    C    0.11357   0.55678   0.36072   1.000
    H254    H    0.13337   0.56668   0.33813   1.000
    C312    C    0.05437   0.52718   0.42845   1.000
    C313    C    0.04047   0.52023   0.46613   1.000
    C314    C    0.99277   0.49638   0.53513   1.000
    C315    C    0.78023   0.89012   0.69406   1.000
    H255    H    0.80003   0.90002   0.67147   1.000
    C316    C    0.72103   0.86052   0.76179   1.000
    C317    C    0.70713   0.85357   0.79947   1.000
    C318    C    0.65943   0.82972   0.86847   1.000
    C319    C    0.77655   0.22345   0.02739   1.000
    H256    H    0.76665   0.23335   0.00480   1.000
    C320    C    0.80615   0.19385   0.09512   1.000
    C321    C    0.81310   0.18690   0.13280   1.000
    C322    C    0.83695   0.16305   0.20180   1.000
    C323    C    0.44322   0.55678   0.36072   1.000
    H257    H    0.43332   0.56668   0.33813   1.000
    C324    C    0.47282   0.52718   0.42845   1.000
    C325    C    0.47977   0.52023   0.46613   1.000
    C326    C    0.50362   0.49638   0.53513   1.000
    C327    C    0.10988   0.89012   0.69406   1.000
    H258    H    0.09998   0.90002   0.67147   1.000
    C328    C    0.13948   0.86052   0.76179   1.000
    C329    C    0.14643   0.85357   0.79947   1.000
    C330    C    0.17028   0.82972   0.86847   1.000
    C331    C    0.77655   0.55310   0.02739   1.000
    H259    H    0.76665   0.53330   0.00480   1.000
    C332    C    0.80615   0.61230   0.09512   1.000
    C333    C    0.81310   0.62620   0.13280   1.000
    C334    C    0.83695   0.67390   0.20180   1.000
    C335    C    0.44322   0.88643   0.36072   1.000
    H260    H    0.43332   0.86663   0.33813   1.000
    C336    C    0.47282   0.94563   0.42845   1.000
    C337    C    0.47977   0.95953   0.46613   1.000
    C338    C    0.50362   0.00723   0.53513   1.000
    C339    C    0.10988   0.21977   0.69406   1.000
    H261    H    0.09998   0.19997   0.67147   1.000
    C340    C    0.13948   0.27897   0.76179   1.000
    C341    C    0.14643   0.29287   0.79947   1.000
    C342    C    0.17028   0.34057   0.86847   1.000
    C343    C    0.22345   0.44690   0.97261   1.000
    H262    H    0.23335   0.46670   0.99520   1.000
    C344    C    0.19385   0.38770   0.90488   1.000
    C345    C    0.18690   0.37380   0.86720   1.000
    C346    C    0.16305   0.32610   0.79820   1.000
    C347    C    0.89012   0.78023   0.30594   1.000
    H263    H    0.90002   0.80003   0.32853   1.000
    C348    C    0.86052   0.72103   0.23821   1.000
    C349    C    0.85357   0.70713   0.20053   1.000
    C350    C    0.82972   0.65943   0.13153   1.000
    C351    C    0.55678   0.11357   0.63928   1.000
    H264    H    0.56668   0.13337   0.66187   1.000
    C352    C    0.52718   0.05437   0.57155   1.000
    C353    C    0.52023   0.04047   0.53387   1.000
    C354    C    0.49638   0.99277   0.46487   1.000
    C355    C    0.22345   0.77655   0.97261   1.000
    H265    H    0.23335   0.76665   0.99520   1.000
    C356    C    0.19385   0.80615   0.90488   1.000
    C357    C    0.18690   0.81310   0.86720   1.000
    C358    C    0.16305   0.83695   0.79820   1.000
    C359    C    0.89012   0.10988   0.30594   1.000
    H266    H    0.90002   0.09998   0.32853   1.000
    C360    C    0.86052   0.13948   0.23821   1.000
    C361    C    0.85357   0.14643   0.20053   1.000
    C362    C    0.82972   0.17028   0.13153   1.000
    C363    C    0.55678   0.44322   0.63928   1.000
    H267    H    0.56668   0.43332   0.66187   1.000
    C364    C    0.52718   0.47282   0.57155   1.000
    C365    C    0.52023   0.47977   0.53387   1.000
    C366    C    0.49638   0.50362   0.46487   1.000
    C367    C    0.55310   0.77655   0.97261   1.000
    H268    H    0.53330   0.76665   0.99520   1.000
    C368    C    0.61230   0.80615   0.90488   1.000
    C369    C    0.62620   0.81310   0.86720   1.000
    C370    C    0.67390   0.83695   0.79820   1.000
    C371    C    0.21977   0.10988   0.30594   1.000
    H269    H    0.19997   0.09998   0.32853   1.000
    C372    C    0.27897   0.13948   0.23821   1.000
    C373    C    0.29287   0.14643   0.20053   1.000
    C374    C    0.34057   0.17028   0.13153   1.000
    C375    C    0.88643   0.44322   0.63928   1.000
    H270    H    0.86663   0.43332   0.66187   1.000
    C376    C    0.94563   0.47282   0.57155   1.000
    C377    C    0.95953   0.47977   0.53387   1.000
    C378    C    0.00723   0.50362   0.46487   1.000
