# CIF file generated by openbabel 2.4.1, see http://openbabel.sf.net
data_I
_chemical_name_common 'image0'
_cell_length_a 18.8605
_cell_length_b 18.8605
_cell_length_c 16.6183
_cell_angle_alpha 90
_cell_angle_beta 90
_cell_angle_gamma 120
_space_group_name_H-M_alt 'P 1'
_space_group_name_Hall 'P 1'
loop_
    _symmetry_equiv_pos_as_xyz
    x,y,z
loop_
    _atom_site_label
    _atom_site_type_symbol
    _atom_site_fract_x
    _atom_site_fract_y
    _atom_site_fract_z
    _atom_site_occupancy
    N1      N    0.63220   0.43480   0.66360   1.000
    N2      N    0.62780   0.49020   0.61390   1.000
    C1      C    0.59450   0.53200   0.55440   1.000
    H1      H    0.64690   0.56630   0.57410   1.000
    O1      O    0.65420   0.46150   0.66190   1.000
    H2      H    0.59250   0.60950   0.47660   1.000
    N3      N    0.56520   0.19740   0.66360   1.000
    N4      N    0.50980   0.13760   0.61390   1.000
    C2      C    0.46800   0.06250   0.55440   1.000
    H3      H    0.43370   0.08060   0.57410   1.000
    O2      O    0.53850   0.19270   0.66190   1.000
    H4      H    0.39050   0.98300   0.47660   1.000
    N5      N    0.80260   0.36780   0.66360   1.000
    N6      N    0.86240   0.37220   0.61390   1.000
    C3      C    0.93750   0.40550   0.55440   1.000
    H5      H    0.91940   0.35310   0.57410   1.000
    O3      O    0.80730   0.34580   0.66190   1.000
    H6      H    0.01700   0.40750   0.47660   1.000
    N7      N    0.36780   0.56520   0.16360   1.000
    N8      N    0.37220   0.50980   0.11390   1.000
    C4      C    0.40550   0.46800   0.05440   1.000
    H7      H    0.35310   0.43370   0.07410   1.000
    O4      O    0.34580   0.53850   0.16190   1.000
    H8      H    0.40750   0.39050   0.97660   1.000
    N9      N    0.43480   0.80260   0.16360   1.000
    N10     N    0.49020   0.86240   0.11390   1.000
    C5      C    0.53200   0.93750   0.05440   1.000
    H9      H    0.56630   0.91940   0.07410   1.000
    O5      O    0.46150   0.80730   0.16190   1.000
    H10     H    0.60950   0.01700   0.97660   1.000
    N11     N    0.19740   0.63220   0.16360   1.000
    N12     N    0.13760   0.62780   0.11390   1.000
    C6      C    0.06250   0.59450   0.05440   1.000
    H11     H    0.08060   0.64690   0.07410   1.000
    O6      O    0.19270   0.65420   0.16190   1.000
    H12     H    0.98300   0.59250   0.97660   1.000
    N13     N    0.43480   0.63220   0.33640   1.000
    N14     N    0.49020   0.62780   0.38610   1.000
    C7      C    0.53200   0.59450   0.44560   1.000
    H13     H    0.56630   0.64690   0.42590   1.000
    O7      O    0.46150   0.65420   0.33810   1.000
    H14     H    0.60950   0.59250   0.52340   1.000
    N15     N    0.19740   0.56520   0.33640   1.000
    N16     N    0.13760   0.50980   0.38610   1.000
    C8      C    0.06250   0.46800   0.44560   1.000
    H15     H    0.08060   0.43370   0.42590   1.000
    O8      O    0.19270   0.53850   0.33810   1.000
    H16     H    0.98300   0.39050   0.52340   1.000
    N17     N    0.36780   0.80260   0.33640   1.000
    N18     N    0.37220   0.86240   0.38610   1.000
    C9      C    0.40550   0.93750   0.44560   1.000
    H17     H    0.35310   0.91940   0.42590   1.000
    O9      O    0.34580   0.80730   0.33810   1.000
    H18     H    0.40750   0.01700   0.52340   1.000
    N19     N    0.56520   0.36780   0.83640   1.000
    N20     N    0.50980   0.37220   0.88610   1.000
    C10     C    0.46800   0.40550   0.94560   1.000
    H19     H    0.43370   0.35310   0.92590   1.000
    O10     O    0.53850   0.34580   0.83810   1.000
    H20     H    0.39050   0.40750   0.02340   1.000
    N21     N    0.80260   0.43480   0.83640   1.000
    N22     N    0.86240   0.49020   0.88610   1.000
    C11     C    0.93750   0.53200   0.94560   1.000
    H21     H    0.91940   0.56630   0.92590   1.000
    O11     O    0.80730   0.46150   0.83810   1.000
    H22     H    0.01700   0.60950   0.02340   1.000
    N23     N    0.63220   0.19740   0.83640   1.000
    N24     N    0.62780   0.13760   0.88610   1.000
    C12     C    0.59450   0.06250   0.94560   1.000
    H23     H    0.64690   0.08060   0.92590   1.000
    O12     O    0.65420   0.19270   0.83810   1.000
    H24     H    0.59250   0.98300   0.02340   1.000
    N25     N    0.36780   0.56520   0.33640   1.000
    N26     N    0.37220   0.50980   0.38610   1.000
    C13     C    0.40550   0.46800   0.44560   1.000
    H25     H    0.35310   0.43370   0.42590   1.000
    O13     O    0.34580   0.53850   0.33810   1.000
    H26     H    0.40750   0.39050   0.52340   1.000
    N27     N    0.43480   0.80260   0.33640   1.000
    N28     N    0.49020   0.86240   0.38610   1.000
    C14     C    0.53200   0.93750   0.44560   1.000
    H27     H    0.56630   0.91940   0.42590   1.000
    O14     O    0.46150   0.80730   0.33810   1.000
    H28     H    0.60950   0.01700   0.52340   1.000
    N29     N    0.19740   0.63220   0.33640   1.000
    N30     N    0.13760   0.62780   0.38610   1.000
    C15     C    0.06250   0.59450   0.44560   1.000
    H29     H    0.08060   0.64690   0.42590   1.000
    O15     O    0.19270   0.65420   0.33810   1.000
    H30     H    0.98300   0.59250   0.52340   1.000
    N31     N    0.63220   0.43480   0.83640   1.000
    N32     N    0.62780   0.49020   0.88610   1.000
    C16     C    0.59450   0.53200   0.94560   1.000
    H31     H    0.64690   0.56630   0.92590   1.000
    O16     O    0.65420   0.46150   0.83810   1.000
    H32     H    0.59250   0.60950   0.02340   1.000
    N33     N    0.56520   0.19740   0.83640   1.000
    N34     N    0.50980   0.13760   0.88610   1.000
    C17     C    0.46800   0.06250   0.94560   1.000
    H33     H    0.43370   0.08060   0.92590   1.000
    O17     O    0.53850   0.19270   0.83810   1.000
    H34     H    0.39050   0.98300   0.02340   1.000
    N35     N    0.80260   0.36780   0.83640   1.000
    N36     N    0.86240   0.37220   0.88610   1.000
    C18     C    0.93750   0.40550   0.94560   1.000
    H35     H    0.91940   0.35310   0.92590   1.000
    O18     O    0.80730   0.34580   0.83810   1.000
    H36     H    0.01700   0.40750   0.02340   1.000
    N37     N    0.56520   0.36780   0.66360   1.000
    N38     N    0.50980   0.37220   0.61390   1.000
    C19     C    0.46800   0.40550   0.55440   1.000
    H37     H    0.43370   0.35310   0.57410   1.000
    O19     O    0.53850   0.34580   0.66190   1.000
    H38     H    0.39050   0.40750   0.47660   1.000
    N39     N    0.80260   0.43480   0.66360   1.000
    N40     N    0.86240   0.49020   0.61390   1.000
    C20     C    0.93750   0.53200   0.55440   1.000
    H39     H    0.91940   0.56630   0.57410   1.000
    O20     O    0.80730   0.46150   0.66190   1.000
    H40     H    0.01700   0.60950   0.47660   1.000
    N41     N    0.63220   0.19740   0.66360   1.000
    N42     N    0.62780   0.13760   0.61390   1.000
    C21     C    0.59450   0.06250   0.55440   1.000
    H41     H    0.64690   0.08060   0.57410   1.000
    O21     O    0.65420   0.19270   0.66190   1.000
    H42     H    0.59250   0.98300   0.47660   1.000
    N43     N    0.43480   0.63220   0.16360   1.000
    N44     N    0.49020   0.62780   0.11390   1.000
    C22     C    0.53200   0.59450   0.05440   1.000
    H43     H    0.56630   0.64690   0.07410   1.000
    O22     O    0.46150   0.65420   0.16190   1.000
    H44     H    0.60950   0.59250   0.97660   1.000
    N45     N    0.19740   0.56520   0.16360   1.000
    N46     N    0.13760   0.50980   0.11390   1.000
    C23     C    0.06250   0.46800   0.05440   1.000
    H45     H    0.08060   0.43370   0.07410   1.000
    O23     O    0.19270   0.53850   0.16190   1.000
    H46     H    0.98300   0.39050   0.97660   1.000
    N47     N    0.36780   0.80260   0.16360   1.000
    N48     N    0.37220   0.86240   0.11390   1.000
    C24     C    0.40550   0.93750   0.05440   1.000
    H47     H    0.35310   0.91940   0.07410   1.000
    O24     O    0.34580   0.80730   0.16190   1.000
    H48     H    0.40750   0.01700   0.97660   1.000
    Co1     Co   0.72820   0.45640   0.75000   1.000
    N49     N    0.79305   0.58610   0.75000   1.000
    C25     C    0.87940   0.75880   0.75000   1.000
    C26     C    0.92585   0.85170   0.75000   1.000
    Co2     Co   0.54360   0.27180   0.75000   1.000
    N50     N    0.41390   0.20695   0.75000   1.000
    C27     C    0.24120   0.12060   0.75000   1.000
    C28     C    0.14830   0.07415   0.75000   1.000
    Co3     Co   0.72820   0.27180   0.75000   1.000
    N51     N    0.79305   0.20695   0.75000   1.000
    C29     C    0.87940   0.12060   0.75000   1.000
    C30     C    0.92585   0.07415   0.75000   1.000
    Co4     Co   0.27180   0.54360   0.25000   1.000
    N52     N    0.20695   0.41390   0.25000   1.000
    C31     C    0.12060   0.24120   0.25000   1.000
    C32     C    0.07415   0.14830   0.25000   1.000
    Co5     Co   0.45640   0.72820   0.25000   1.000
    N53     N    0.58610   0.79305   0.25000   1.000
    C33     C    0.75880   0.87940   0.25000   1.000
    C34     C    0.85170   0.92585   0.25000   1.000
    Co6     Co   0.27180   0.72820   0.25000   1.000
    N54     N    0.20695   0.79305   0.25000   1.000
    C35     C    0.12060   0.87940   0.25000   1.000
    C36     C    0.07415   0.92585   0.25000   1.000
    O25     O    0.66667   0.33333   0.75000   1.000
    O26     O    0.33333   0.66667   0.25000   1.000
    C37     C    0.55056   0.44944   0.58210   1.000
    C38     C    0.51720   0.48280   0.52400   1.000
    C39     C    0.58400   0.41600   0.64050   1.000
    C40     C    0.55056   0.10112   0.58210   1.000
    C41     C    0.51720   0.03440   0.52400   1.000
    C42     C    0.58400   0.16800   0.64050   1.000
    C43     C    0.89888   0.44944   0.58210   1.000
    C44     C    0.96560   0.48280   0.52400   1.000
    C45     C    0.83200   0.41600   0.64050   1.000
    C46     C    0.44944   0.55056   0.08210   1.000
    C47     C    0.48280   0.51720   0.02400   1.000
    C48     C    0.41600   0.58400   0.14050   1.000
    C49     C    0.44944   0.89888   0.08210   1.000
    C50     C    0.48280   0.96560   0.02400   1.000
    C51     C    0.41600   0.83200   0.14050   1.000
    C52     C    0.10112   0.55056   0.08210   1.000
    C53     C    0.03440   0.51720   0.02400   1.000
    C54     C    0.16800   0.58400   0.14050   1.000
    C55     C    0.44944   0.55056   0.41790   1.000
    C56     C    0.48280   0.51720   0.47600   1.000
    C57     C    0.41600   0.58400   0.35950   1.000
    C58     C    0.10112   0.55056   0.41790   1.000
    C59     C    0.03440   0.51720   0.47600   1.000
    C60     C    0.16800   0.58400   0.35950   1.000
    C61     C    0.44944   0.89888   0.41790   1.000
    C62     C    0.48280   0.96560   0.47600   1.000
    C63     C    0.41600   0.83200   0.35950   1.000
    C64     C    0.55056   0.44944   0.91790   1.000
    C65     C    0.51720   0.48280   0.97600   1.000
    C66     C    0.58400   0.41600   0.85950   1.000
    C67     C    0.89888   0.44944   0.91790   1.000
    C68     C    0.96560   0.48280   0.97600   1.000
    C69     C    0.83200   0.41600   0.85950   1.000
    C70     C    0.55056   0.10112   0.91790   1.000
    C71     C    0.51720   0.03440   0.97600   1.000
    C72     C    0.58400   0.16800   0.85950   1.000
    C73     C    0.56260   0.56260   0.50000   1.000
    C74     C    0.43740   0.00000   0.50000   1.000
    C75     C    0.00000   0.43740   0.50000   1.000
    C76     C    0.43740   0.43740   0.00000   1.000
    C77     C    0.56260   0.00000   0.00000   1.000
    C78     C    0.00000   0.56260   0.00000   1.000
    C79     C    0.43740   0.43740   0.50000   1.000
    C80     C    0.56260   0.00000   0.50000   1.000
    C81     C    0.00000   0.56260   0.50000   1.000
    C82     C    0.56260   0.56260   0.00000   1.000
    C83     C    0.43740   0.00000   0.00000   1.000
    C84     C    0.00000   0.43740   0.00000   1.000
    H49     H    0.80115   0.60230   0.63250   1.000
    C85     C    0.81525   0.63050   0.68110   1.000
    O27     O    0.94035   0.88070   0.68220   1.000
    C86     C    0.85705   0.71410   0.67840   1.000
    H50     H    0.87055   0.74110   0.62910   1.000
    H51     H    0.39770   0.19885   0.63250   1.000
    C87     C    0.36950   0.18475   0.68110   1.000
    O28     O    0.11930   0.05965   0.68220   1.000
    C88     C    0.28590   0.14295   0.67840   1.000
    H52     H    0.25890   0.12945   0.62910   1.000
    H53     H    0.80115   0.19885   0.63250   1.000
    C89     C    0.81525   0.18475   0.68110   1.000
    O29     O    0.94035   0.05965   0.68220   1.000
    C90     C    0.85705   0.14295   0.67840   1.000
    H54     H    0.87055   0.12945   0.62910   1.000
    H55     H    0.19885   0.39770   0.13250   1.000
    C91     C    0.18475   0.36950   0.18110   1.000
    O30     O    0.05965   0.11930   0.18220   1.000
    C92     C    0.14295   0.28590   0.17840   1.000
    H56     H    0.12945   0.25890   0.12910   1.000
    H57     H    0.60230   0.80115   0.13250   1.000
    C93     C    0.63050   0.81525   0.18110   1.000
    O31     O    0.88070   0.94035   0.18220   1.000
    C94     C    0.71410   0.85705   0.17840   1.000
    H58     H    0.74110   0.87055   0.12910   1.000
    H59     H    0.19885   0.80115   0.13250   1.000
    C95     C    0.18475   0.81525   0.18110   1.000
    O32     O    0.05965   0.94035   0.18220   1.000
    C96     C    0.14295   0.85705   0.17840   1.000
    H60     H    0.12945   0.87055   0.12910   1.000
    H61     H    0.60230   0.80115   0.36750   1.000
    C97     C    0.63050   0.81525   0.31890   1.000
    O33     O    0.88070   0.94035   0.31780   1.000
    C98     C    0.71410   0.85705   0.32160   1.000
    H62     H    0.74110   0.87055   0.37090   1.000
    H63     H    0.19885   0.39770   0.36750   1.000
    C99     C    0.18475   0.36950   0.31890   1.000
    O34     O    0.05965   0.11930   0.31780   1.000
    C100    C    0.14295   0.28590   0.32160   1.000
    H64     H    0.12945   0.25890   0.37090   1.000
    H65     H    0.19885   0.80115   0.36750   1.000
    C101    C    0.18475   0.81525   0.31890   1.000
    O35     O    0.05965   0.94035   0.31780   1.000
    C102    C    0.14295   0.85705   0.32160   1.000
    H66     H    0.12945   0.87055   0.37090   1.000
    H67     H    0.39770   0.19885   0.86750   1.000
    C103    C    0.36950   0.18475   0.81890   1.000
    O36     O    0.11930   0.05965   0.81780   1.000
    C104    C    0.28590   0.14295   0.82160   1.000
    H68     H    0.25890   0.12945   0.87090   1.000
    H69     H    0.80115   0.60230   0.86750   1.000
    C105    C    0.81525   0.63050   0.81890   1.000
    O37     O    0.94035   0.88070   0.81780   1.000
    C106    C    0.85705   0.71410   0.82160   1.000
    H70     H    0.87055   0.74110   0.87090   1.000
    H71     H    0.80115   0.19885   0.86750   1.000
    C107    C    0.81525   0.18475   0.81890   1.000
    O38     O    0.94035   0.05965   0.81780   1.000
    C108    C    0.85705   0.14295   0.82160   1.000
    H72     H    0.87055   0.12945   0.87090   1.000
    Co7     Co   0.00000   0.00000   0.68150   1.000
    Co8     Co   0.00000   0.00000   0.18150   1.000
    Co9     Co   0.00000   0.00000   0.31850   1.000
    Co10    Co   0.00000   0.00000   0.81850   1.000
    C109    C    0.75240   0.62980   0.75000   1.000
    H73     H    0.69550   0.60180   0.75000   1.000
    C110    C    0.79470   0.71440   0.75000   1.000
    H74     H    0.76560   0.74220   0.75000   1.000
    C111    C    0.37020   0.12260   0.75000   1.000
    H75     H    0.39820   0.09370   0.75000   1.000
    C112    C    0.28560   0.08030   0.75000   1.000
    H76     H    0.25780   0.02340   0.75000   1.000
    C113    C    0.87740   0.24760   0.75000   1.000
    H77     H    0.90630   0.30450   0.75000   1.000
    C114    C    0.91970   0.20530   0.75000   1.000
    H78     H    0.97660   0.23440   0.75000   1.000
    C115    C    0.24760   0.37020   0.25000   1.000
    H79     H    0.30450   0.39820   0.25000   1.000
    C116    C    0.20530   0.28560   0.25000   1.000
    H80     H    0.23440   0.25780   0.25000   1.000
    C117    C    0.62980   0.87740   0.25000   1.000
    H81     H    0.60180   0.90630   0.25000   1.000
    C118    C    0.71440   0.91970   0.25000   1.000
    H82     H    0.74220   0.97660   0.25000   1.000
    C119    C    0.12260   0.75240   0.25000   1.000
    H83     H    0.09370   0.69550   0.25000   1.000
    C120    C    0.08030   0.79470   0.25000   1.000
    H84     H    0.02340   0.76560   0.25000   1.000
    C121    C    0.62980   0.75240   0.25000   1.000
    H85     H    0.60180   0.69550   0.25000   1.000
    C122    C    0.71440   0.79470   0.25000   1.000
    H86     H    0.74220   0.76560   0.25000   1.000
    C123    C    0.12260   0.37020   0.25000   1.000
    H87     H    0.09370   0.39820   0.25000   1.000
    C124    C    0.08030   0.28560   0.25000   1.000
    H88     H    0.02340   0.25780   0.25000   1.000
    C125    C    0.24760   0.87740   0.25000   1.000
    H89     H    0.30450   0.90630   0.25000   1.000
    C126    C    0.20530   0.91970   0.25000   1.000
    H90     H    0.23440   0.97660   0.25000   1.000
    C127    C    0.37020   0.24760   0.75000   1.000
    H91     H    0.39820   0.30450   0.75000   1.000
    C128    C    0.28560   0.20530   0.75000   1.000
    H92     H    0.25780   0.23440   0.75000   1.000
    C129    C    0.87740   0.62980   0.75000   1.000
    H93     H    0.90630   0.60180   0.75000   1.000
    C130    C    0.91970   0.71440   0.75000   1.000
    H94     H    0.97660   0.74220   0.75000   1.000
    C131    C    0.75240   0.12260   0.75000   1.000
    H95     H    0.69550   0.09370   0.75000   1.000
    C132    C    0.79470   0.08030   0.75000   1.000
    H96     H    0.76560   0.02340   0.75000   1.000
