# CIF file generated by openbabel 2.4.1, see http://openbabel.sf.net
data_I
_chemical_name_common 'image0'
_cell_length_a 33.5429
_cell_length_b 34.1738
_cell_length_c 24.3555
_cell_angle_alpha 90
_cell_angle_beta 90
_cell_angle_gamma 90
_space_group_name_H-M_alt 'P 1'
_space_group_name_Hall 'P 1'
loop_
    _symmetry_equiv_pos_as_xyz
    x,y,z
loop_
    _atom_site_label
    _atom_site_type_symbol
    _atom_site_fract_x
    _atom_site_fract_y
    _atom_site_fract_z
    _atom_site_occupancy
    Cd1     Cd   0.50106   0.31729   0.31878   1.000
    Cd2     Cd   0.60792   0.24828   0.53540   1.000
    Mg1     Mg   0.55738   0.28181   0.42334   1.000
    O1      O    0.82349   0.02346   0.70620   1.000
    O2      O    0.57188   0.28986   0.58720   1.000
    O3      O    0.55421   0.30135   0.50120   1.000
    O4      O    0.80656   0.05045   0.78450   1.000
    O5      O    0.71386   0.52783   0.51350   1.000
    O6      O    0.68868   0.51250   0.59470   1.000
    O7      O    0.29860   0.11790   0.58090   1.000
    O8      O    0.29040   0.08980   0.50040   1.000
    O9      O    0.49831   0.26685   0.42770   1.000
    O10     O    0.46114   0.27225   0.35300   1.000
    O11     O    0.62932   0.21976   0.61900   1.000
    O12     O    0.65630   0.19973   0.54150   1.000
    O13     O    0.36583   0.45343   0.67080   1.000
    O14     O    0.39910   0.45859   0.75090   1.000
    O15     O    0.53997   0.33752   0.39350   1.000
    O16     O    0.55085   0.36645   0.31430   1.000
    C1      C    0.42680   0.41890   0.68230   1.000
    C2      C    0.45370   0.40260   0.71910   1.000
    H1      H    0.45170   0.40850   0.75630   1.000
    C3      C    0.46830   0.25930   0.39960   1.000
    C4      C    0.48270   0.37820   0.70150   1.000
    H2      H    0.50020   0.36730   0.72680   1.000
    C5      C    0.30760   0.11530   0.53270   1.000
    C6      C    0.51650   0.34340   0.62600   1.000
    H3      H    0.53420   0.33220   0.65080   1.000
    C7      C    0.55110   0.30660   0.55180   1.000
    C8      C    0.51950   0.33460   0.57130   1.000
    C9      C    0.48700   0.36920   0.64490   1.000
    C10     C    0.42930   0.41060   0.62780   1.000
    H4      H    0.41110   0.42170   0.60350   1.000
    C11     C    0.45940   0.38520   0.60750   1.000
    C12     C    0.46320   0.37620   0.55200   1.000
    H5      H    0.44520   0.38700   0.52720   1.000
    C13     C    0.49270   0.35170   0.53260   1.000
    H6      H    0.49510   0.34650   0.49530   1.000
    C14     C    0.39440   0.44560   0.70220   1.000
    C15     C    0.77640   0.07350   0.69550   1.000
    C16     C    0.77860   0.07250   0.63860   1.000
    H7      H    0.79650   0.05570   0.62160   1.000
    C17     C    0.75060   0.09790   0.72150   1.000
    H8      H    0.74990   0.09870   0.75960   1.000
    C18     C    0.75500   0.09560   0.60790   1.000
    H9      H    0.75620   0.09450   0.56980   1.000
    C19     C    0.72790   0.12190   0.63460   1.000
    C20     C    0.70250   0.14740   0.60290   1.000
    H10     H    0.70370   0.14700   0.56480   1.000
    C21     C    0.67670   0.17200   0.62910   1.000
    C22     C    0.67290   0.17140   0.68630   1.000
    H11     H    0.65440   0.18750   0.70360   1.000
    C23     C    0.69670   0.14700   0.71670   1.000
    H12     H    0.69450   0.14670   0.75480   1.000
    C24     C    0.72460   0.12220   0.69050   1.000
    C25     C    0.80310   0.04800   0.73380   1.000
    C26     C    0.65270   0.19860   0.59300   1.000
    C27     C    0.69090   0.50840   0.54390   1.000
    C28     C    0.66390   0.47860   0.51750   1.000
    C29     C    0.63840   0.45530   0.55140   1.000
    H13     H    0.63800   0.45940   0.58910   1.000
    C30     C    0.61510   0.42760   0.52880   1.000
    H14     H    0.59940   0.41200   0.55140   1.000
    C31     C    0.61410   0.42180   0.47120   1.000
    C32     C    0.58810   0.39380   0.44490   1.000
    H15     H    0.57240   0.37750   0.46650   1.000
    C33     C    0.58600   0.39080   0.39060   1.000
    C34     C    0.55760   0.36300   0.36430   1.000
    C35     C    0.61020   0.41490   0.35720   1.000
    H16     H    0.60850   0.41280   0.31920   1.000
    C36     C    0.63610   0.44130   0.38010   1.000
    H17     H    0.65230   0.45660   0.35770   1.000
    C37     C    0.63810   0.44520   0.43670   1.000
    C38     C    0.66360   0.47320   0.46220   1.000
    H18     H    0.68040   0.48820   0.44030   1.000
    C39     C    0.43620   0.23020   0.41280   1.000
    C40     C    0.37760   0.17750   0.44930   1.000
    C41     C    0.40200   0.19650   0.49020   1.000
    C42     C    0.38210   0.18580   0.39410   1.000
    H19     H    0.36570   0.17370   0.36840   1.000
    C43     C    0.41060   0.21190   0.37720   1.000
    H20     H    0.41270   0.21740   0.33990   1.000
    C44     C    0.34800   0.15040   0.47010   1.000
    H21     H    0.33220   0.13670   0.44520   1.000
    C45     C    0.43280   0.22330   0.46900   1.000
    H22     H    0.45020   0.23560   0.49330   1.000
    C46     C    0.34310   0.14450   0.52110   1.000
    C47     C    0.39560   0.18820   0.54510   1.000
    H23     H    0.41140   0.20050   0.57130   1.000
    C48     C    0.36770   0.16350   0.56160   1.000
    H24     H    0.36420   0.15830   0.59880   1.000
    C49     C    0.44100   0.23310   0.49520   1.000
    H25     H    0.45960   0.24770   0.51470   1.000
    C50     C    0.43920   0.23530   0.43350   1.000
    C51     C    0.41320   0.21380   0.40670   1.000
    H26     H    0.41300   0.21420   0.36850   1.000
    C52     C    0.38500   0.18970   0.43550   1.000
    C53     C    0.38720   0.18730   0.49200   1.000
    C54     C    0.41560   0.21040   0.52070   1.000
    H27     H    0.41630   0.20920   0.55890   1.000
    C55     C    0.35940   0.16230   0.51850   1.000
    H28     H    0.35950   0.16150   0.55660   1.000
    C56     C    0.33240   0.13940   0.49140   1.000
    C57     C    0.33140   0.14220   0.43340   1.000
    H29     H    0.31270   0.12770   0.41390   1.000
    C58     C    0.35740   0.16600   0.40530   1.000
    H30     H    0.35700   0.16670   0.36710   1.000
    C59     C    0.77040   0.07630   0.72300   1.000
    C60     C    0.74680   0.09750   0.76090   1.000
    H31     H    0.75030   0.09390   0.79850   1.000
    C61     C    0.71930   0.12280   0.74240   1.000
    H32     H    0.70270   0.13530   0.76740   1.000
    C62     C    0.76530   0.08150   0.66670   1.000
    H33     H    0.78020   0.06630   0.64250   1.000
    C63     C    0.74000   0.10730   0.64670   1.000
    C64     C    0.71510   0.13050   0.68860   1.000
    C65     C    0.68830   0.15650   0.66230   1.000
    H34     H    0.67190   0.17090   0.68560   1.000
    C66     C    0.68330   0.16310   0.61030   1.000
    C67     C    0.70950   0.14170   0.57220   1.000
    H35     H    0.70800   0.14660   0.53470   1.000
    C68     C    0.73510   0.11520   0.59100   1.000
    H36     H    0.75050   0.10140   0.56580   1.000
    Cd3     Cd   0.50106   0.81729   0.81878   1.000
    Cd4     Cd   0.60792   0.74828   0.03540   1.000
    Mg2     Mg   0.55738   0.78181   0.92334   1.000
    O17     O    0.82349   0.52346   0.20620   1.000
    O18     O    0.57188   0.78986   0.08720   1.000
    O19     O    0.55421   0.80135   0.00120   1.000
    O20     O    0.80656   0.55045   0.28450   1.000
    O21     O    0.71386   0.02783   0.01350   1.000
    O22     O    0.68868   0.01250   0.09470   1.000
    O23     O    0.29860   0.61790   0.08090   1.000
    O24     O    0.29040   0.58980   0.00040   1.000
    O25     O    0.49831   0.76685   0.92770   1.000
    O26     O    0.46114   0.77225   0.85300   1.000
    O27     O    0.62932   0.71976   0.11900   1.000
    O28     O    0.65630   0.69973   0.04150   1.000
    O29     O    0.36583   0.95343   0.17080   1.000
    O30     O    0.39910   0.95859   0.25090   1.000
    O31     O    0.53997   0.83752   0.89350   1.000
    O32     O    0.55085   0.86645   0.81430   1.000
    C69     C    0.42680   0.91890   0.18230   1.000
    C70     C    0.45370   0.90260   0.21910   1.000
    H37     H    0.45170   0.90850   0.25630   1.000
    C71     C    0.46830   0.75930   0.89960   1.000
    C72     C    0.48270   0.87820   0.20150   1.000
    H38     H    0.50020   0.86730   0.22680   1.000
    C73     C    0.30760   0.61530   0.03270   1.000
    C74     C    0.51650   0.84340   0.12600   1.000
    H39     H    0.53420   0.83220   0.15080   1.000
    C75     C    0.55110   0.80660   0.05180   1.000
    C76     C    0.51950   0.83460   0.07130   1.000
    C77     C    0.48700   0.86920   0.14490   1.000
    C78     C    0.42930   0.91060   0.12780   1.000
    H40     H    0.41110   0.92170   0.10350   1.000
    C79     C    0.45940   0.88520   0.10750   1.000
    C80     C    0.46320   0.87620   0.05200   1.000
    H41     H    0.44520   0.88700   0.02720   1.000
    C81     C    0.49270   0.85170   0.03260   1.000
    H42     H    0.49510   0.84650   0.99530   1.000
    C82     C    0.39440   0.94560   0.20220   1.000
    C83     C    0.77640   0.57350   0.19550   1.000
    C84     C    0.77860   0.57250   0.13860   1.000
    H43     H    0.79650   0.55570   0.12160   1.000
    C85     C    0.75060   0.59790   0.22150   1.000
    H44     H    0.74990   0.59870   0.25960   1.000
    C86     C    0.75500   0.59560   0.10790   1.000
    H45     H    0.75620   0.59450   0.06980   1.000
    C87     C    0.72790   0.62190   0.13460   1.000
    C88     C    0.70250   0.64740   0.10290   1.000
    H46     H    0.70370   0.64700   0.06480   1.000
    C89     C    0.67670   0.67200   0.12910   1.000
    C90     C    0.67290   0.67140   0.18630   1.000
    H47     H    0.65440   0.68750   0.20360   1.000
    C91     C    0.69670   0.64700   0.21670   1.000
    H48     H    0.69450   0.64670   0.25480   1.000
    C92     C    0.72460   0.62220   0.19050   1.000
    C93     C    0.80310   0.54800   0.23380   1.000
    C94     C    0.65270   0.69860   0.09300   1.000
    C95     C    0.69090   0.00840   0.04390   1.000
    C96     C    0.66390   0.97860   0.01750   1.000
    C97     C    0.63840   0.95530   0.05140   1.000
    H49     H    0.63800   0.95940   0.08910   1.000
    C98     C    0.61510   0.92760   0.02880   1.000
    H50     H    0.59940   0.91200   0.05140   1.000
    C99     C    0.61410   0.92180   0.97120   1.000
    C100    C    0.58810   0.89380   0.94490   1.000
    H51     H    0.57240   0.87750   0.96650   1.000
    C101    C    0.58600   0.89080   0.89060   1.000
    C102    C    0.55760   0.86300   0.86430   1.000
    C103    C    0.61020   0.91490   0.85720   1.000
    H52     H    0.60850   0.91280   0.81920   1.000
    C104    C    0.63610   0.94130   0.88010   1.000
    H53     H    0.65230   0.95660   0.85770   1.000
    C105    C    0.63810   0.94520   0.93670   1.000
    C106    C    0.66360   0.97320   0.96220   1.000
    H54     H    0.68040   0.98820   0.94030   1.000
    C107    C    0.43620   0.73020   0.91280   1.000
    C108    C    0.37760   0.67750   0.94930   1.000
    C109    C    0.40200   0.69650   0.99020   1.000
    C110    C    0.38210   0.68580   0.89410   1.000
    H55     H    0.36570   0.67370   0.86840   1.000
    C111    C    0.41060   0.71190   0.87720   1.000
    H56     H    0.41270   0.71740   0.83990   1.000
    C112    C    0.34800   0.65040   0.97010   1.000
    H57     H    0.33220   0.63670   0.94520   1.000
    C113    C    0.43280   0.72330   0.96900   1.000
    H58     H    0.45020   0.73560   0.99330   1.000
    C114    C    0.34310   0.64450   0.02110   1.000
    C115    C    0.39560   0.68820   0.04510   1.000
    H59     H    0.41140   0.70050   0.07130   1.000
    C116    C    0.36770   0.66350   0.06160   1.000
    H60     H    0.36420   0.65830   0.09880   1.000
    C117    C    0.44100   0.73310   0.99520   1.000
    H61     H    0.45960   0.74770   0.01470   1.000
    C118    C    0.43920   0.73530   0.93350   1.000
    C119    C    0.41320   0.71380   0.90670   1.000
    H62     H    0.41300   0.71420   0.86850   1.000
    C120    C    0.38500   0.68970   0.93550   1.000
    C121    C    0.38720   0.68730   0.99200   1.000
    C122    C    0.41560   0.71040   0.02070   1.000
    H63     H    0.41630   0.70920   0.05890   1.000
    C123    C    0.35940   0.66230   0.01850   1.000
    H64     H    0.35950   0.66150   0.05660   1.000
    C124    C    0.33240   0.63940   0.99140   1.000
    C125    C    0.33140   0.64220   0.93340   1.000
    H65     H    0.31270   0.62770   0.91390   1.000
    C126    C    0.35740   0.66600   0.90530   1.000
    H66     H    0.35700   0.66670   0.86710   1.000
    C127    C    0.77040   0.57630   0.22300   1.000
    C128    C    0.74680   0.59750   0.26090   1.000
    H67     H    0.75030   0.59390   0.29850   1.000
    C129    C    0.71930   0.62280   0.24240   1.000
    H68     H    0.70270   0.63530   0.26740   1.000
    C130    C    0.76530   0.58150   0.16670   1.000
    H69     H    0.78020   0.56630   0.14250   1.000
    C131    C    0.74000   0.60730   0.14670   1.000
    C132    C    0.71510   0.63050   0.18860   1.000
    C133    C    0.68830   0.65650   0.16230   1.000
    H70     H    0.67190   0.67090   0.18560   1.000
    C134    C    0.68330   0.66310   0.11030   1.000
    C135    C    0.70950   0.64170   0.07220   1.000
    H71     H    0.70800   0.64660   0.03470   1.000
    C136    C    0.73510   0.61520   0.09100   1.000
    H72     H    0.75050   0.60140   0.06580   1.000
    Cd5     Cd   0.00106   0.31729   0.81878   1.000
    Cd6     Cd   0.10792   0.24828   0.03540   1.000
    Mg3     Mg   0.05738   0.28181   0.92334   1.000
    O33     O    0.32349   0.02346   0.20620   1.000
    O34     O    0.07188   0.28986   0.08720   1.000
    O35     O    0.05421   0.30135   0.00120   1.000
    O36     O    0.30656   0.05045   0.28450   1.000
    O37     O    0.21386   0.52783   0.01350   1.000
    O38     O    0.18868   0.51250   0.09470   1.000
    O39     O    0.79860   0.11790   0.08090   1.000
    O40     O    0.79040   0.08980   0.00040   1.000
    O41     O    0.99831   0.26685   0.92770   1.000
    O42     O    0.96114   0.27225   0.85300   1.000
    O43     O    0.12932   0.21976   0.11900   1.000
    O44     O    0.15630   0.19973   0.04150   1.000
    O45     O    0.86583   0.45343   0.17080   1.000
    O46     O    0.89910   0.45859   0.25090   1.000
    O47     O    0.03997   0.33752   0.89350   1.000
    O48     O    0.05085   0.36645   0.81430   1.000
    C137    C    0.92680   0.41890   0.18230   1.000
    C138    C    0.95370   0.40260   0.21910   1.000
    H73     H    0.95170   0.40850   0.25630   1.000
    C139    C    0.96830   0.25930   0.89960   1.000
    C140    C    0.98270   0.37820   0.20150   1.000
    H74     H    0.00020   0.36730   0.22680   1.000
    C141    C    0.80760   0.11530   0.03270   1.000
    C142    C    0.01650   0.34340   0.12600   1.000
    H75     H    0.03420   0.33220   0.15080   1.000
    C143    C    0.05110   0.30660   0.05180   1.000
    C144    C    0.01950   0.33460   0.07130   1.000
    C145    C    0.98700   0.36920   0.14490   1.000
    C146    C    0.92930   0.41060   0.12780   1.000
    H76     H    0.91110   0.42170   0.10350   1.000
    C147    C    0.95940   0.38520   0.10750   1.000
    C148    C    0.96320   0.37620   0.05200   1.000
    H77     H    0.94520   0.38700   0.02720   1.000
    C149    C    0.99270   0.35170   0.03260   1.000
    H78     H    0.99510   0.34650   0.99530   1.000
    C150    C    0.89440   0.44560   0.20220   1.000
    C151    C    0.27640   0.07350   0.19550   1.000
    C152    C    0.27860   0.07250   0.13860   1.000
    H79     H    0.29650   0.05570   0.12160   1.000
    C153    C    0.25060   0.09790   0.22150   1.000
    H80     H    0.24990   0.09870   0.25960   1.000
    C154    C    0.25500   0.09560   0.10790   1.000
    H81     H    0.25620   0.09450   0.06980   1.000
    C155    C    0.22790   0.12190   0.13460   1.000
    C156    C    0.20250   0.14740   0.10290   1.000
    H82     H    0.20370   0.14700   0.06480   1.000
    C157    C    0.17670   0.17200   0.12910   1.000
    C158    C    0.17290   0.17140   0.18630   1.000
    H83     H    0.15440   0.18750   0.20360   1.000
    C159    C    0.19670   0.14700   0.21670   1.000
    H84     H    0.19450   0.14670   0.25480   1.000
    C160    C    0.22460   0.12220   0.19050   1.000
    C161    C    0.30310   0.04800   0.23380   1.000
    C162    C    0.15270   0.19860   0.09300   1.000
    C163    C    0.19090   0.50840   0.04390   1.000
    C164    C    0.16390   0.47860   0.01750   1.000
    C165    C    0.13840   0.45530   0.05140   1.000
    H85     H    0.13800   0.45940   0.08910   1.000
    C166    C    0.11510   0.42760   0.02880   1.000
    H86     H    0.09940   0.41200   0.05140   1.000
    C167    C    0.11410   0.42180   0.97120   1.000
    C168    C    0.08810   0.39380   0.94490   1.000
    H87     H    0.07240   0.37750   0.96650   1.000
    C169    C    0.08600   0.39080   0.89060   1.000
    C170    C    0.05760   0.36300   0.86430   1.000
    C171    C    0.11020   0.41490   0.85720   1.000
    H88     H    0.10850   0.41280   0.81920   1.000
    C172    C    0.13610   0.44130   0.88010   1.000
    H89     H    0.15230   0.45660   0.85770   1.000
    C173    C    0.13810   0.44520   0.93670   1.000
    C174    C    0.16360   0.47320   0.96220   1.000
    H90     H    0.18040   0.48820   0.94030   1.000
    C175    C    0.93620   0.23020   0.91280   1.000
    C176    C    0.87760   0.17750   0.94930   1.000
    C177    C    0.90200   0.19650   0.99020   1.000
    C178    C    0.88210   0.18580   0.89410   1.000
    H91     H    0.86570   0.17370   0.86840   1.000
    C179    C    0.91060   0.21190   0.87720   1.000
    H92     H    0.91270   0.21740   0.83990   1.000
    C180    C    0.84800   0.15040   0.97010   1.000
    H93     H    0.83220   0.13670   0.94520   1.000
    C181    C    0.93280   0.22330   0.96900   1.000
    H94     H    0.95020   0.23560   0.99330   1.000
    C182    C    0.84310   0.14450   0.02110   1.000
    C183    C    0.89560   0.18820   0.04510   1.000
    H95     H    0.91140   0.20050   0.07130   1.000
    C184    C    0.86770   0.16350   0.06160   1.000
    H96     H    0.86420   0.15830   0.09880   1.000
    C185    C    0.94100   0.23310   0.99520   1.000
    H97     H    0.95960   0.24770   0.01470   1.000
    C186    C    0.93920   0.23530   0.93350   1.000
    C187    C    0.91320   0.21380   0.90670   1.000
    H98     H    0.91300   0.21420   0.86850   1.000
    C188    C    0.88500   0.18970   0.93550   1.000
    C189    C    0.88720   0.18730   0.99200   1.000
    C190    C    0.91560   0.21040   0.02070   1.000
    H99     H    0.91630   0.20920   0.05890   1.000
    C191    C    0.85940   0.16230   0.01850   1.000
    H100    H    0.85950   0.16150   0.05660   1.000
    C192    C    0.83240   0.13940   0.99140   1.000
    C193    C    0.83140   0.14220   0.93340   1.000
    H101    H    0.81270   0.12770   0.91390   1.000
    C194    C    0.85740   0.16600   0.90530   1.000
    H102    H    0.85700   0.16670   0.86710   1.000
    C195    C    0.27040   0.07630   0.22300   1.000
    C196    C    0.24680   0.09750   0.26090   1.000
    H103    H    0.25030   0.09390   0.29850   1.000
    C197    C    0.21930   0.12280   0.24240   1.000
    H104    H    0.20270   0.13530   0.26740   1.000
    C198    C    0.26530   0.08150   0.16670   1.000
    H105    H    0.28020   0.06630   0.14250   1.000
    C199    C    0.24000   0.10730   0.14670   1.000
    C200    C    0.21510   0.13050   0.18860   1.000
    C201    C    0.18830   0.15650   0.16230   1.000
    H106    H    0.17190   0.17090   0.18560   1.000
    C202    C    0.18330   0.16310   0.11030   1.000
    C203    C    0.20950   0.14170   0.07220   1.000
    H107    H    0.20800   0.14660   0.03470   1.000
    C204    C    0.23510   0.11520   0.09100   1.000
    H108    H    0.25050   0.10140   0.06580   1.000
    Cd7     Cd   0.00106   0.81729   0.31878   1.000
    Cd8     Cd   0.10792   0.74828   0.53540   1.000
    Mg4     Mg   0.05738   0.78181   0.42334   1.000
    O49     O    0.32349   0.52346   0.70620   1.000
    O50     O    0.07188   0.78986   0.58720   1.000
    O51     O    0.05421   0.80135   0.50120   1.000
    O52     O    0.30656   0.55045   0.78450   1.000
    O53     O    0.21386   0.02783   0.51350   1.000
    O54     O    0.18868   0.01250   0.59470   1.000
    O55     O    0.79860   0.61790   0.58090   1.000
    O56     O    0.79040   0.58980   0.50040   1.000
    O57     O    0.99831   0.76685   0.42770   1.000
    O58     O    0.96114   0.77225   0.35300   1.000
    O59     O    0.12932   0.71976   0.61900   1.000
    O60     O    0.15630   0.69973   0.54150   1.000
    O61     O    0.86583   0.95343   0.67080   1.000
    O62     O    0.89910   0.95859   0.75090   1.000
    O63     O    0.03997   0.83752   0.39350   1.000
    O64     O    0.05085   0.86645   0.31430   1.000
    C205    C    0.92680   0.91890   0.68230   1.000
    C206    C    0.95370   0.90260   0.71910   1.000
    H109    H    0.95170   0.90850   0.75630   1.000
    C207    C    0.96830   0.75930   0.39960   1.000
    C208    C    0.98270   0.87820   0.70150   1.000
    H110    H    0.00020   0.86730   0.72680   1.000
    C209    C    0.80760   0.61530   0.53270   1.000
    C210    C    0.01650   0.84340   0.62600   1.000
    H111    H    0.03420   0.83220   0.65080   1.000
    C211    C    0.05110   0.80660   0.55180   1.000
    C212    C    0.01950   0.83460   0.57130   1.000
    C213    C    0.98700   0.86920   0.64490   1.000
    C214    C    0.92930   0.91060   0.62780   1.000
    H112    H    0.91110   0.92170   0.60350   1.000
    C215    C    0.95940   0.88520   0.60750   1.000
    C216    C    0.96320   0.87620   0.55200   1.000
    H113    H    0.94520   0.88700   0.52720   1.000
    C217    C    0.99270   0.85170   0.53260   1.000
    H114    H    0.99510   0.84650   0.49530   1.000
    C218    C    0.89440   0.94560   0.70220   1.000
    C219    C    0.27640   0.57350   0.69550   1.000
    C220    C    0.27860   0.57250   0.63860   1.000
    H115    H    0.29650   0.55570   0.62160   1.000
    C221    C    0.25060   0.59790   0.72150   1.000
    H116    H    0.24990   0.59870   0.75960   1.000
    C222    C    0.25500   0.59560   0.60790   1.000
    H117    H    0.25620   0.59450   0.56980   1.000
    C223    C    0.22790   0.62190   0.63460   1.000
    C224    C    0.20250   0.64740   0.60290   1.000
    H118    H    0.20370   0.64700   0.56480   1.000
    C225    C    0.17670   0.67200   0.62910   1.000
    C226    C    0.17290   0.67140   0.68630   1.000
    H119    H    0.15440   0.68750   0.70360   1.000
    C227    C    0.19670   0.64700   0.71670   1.000
    H120    H    0.19450   0.64670   0.75480   1.000
    C228    C    0.22460   0.62220   0.69050   1.000
    C229    C    0.30310   0.54800   0.73380   1.000
    C230    C    0.15270   0.69860   0.59300   1.000
    C231    C    0.19090   0.00840   0.54390   1.000
    C232    C    0.16390   0.97860   0.51750   1.000
    C233    C    0.13840   0.95530   0.55140   1.000
    H121    H    0.13800   0.95940   0.58910   1.000
    C234    C    0.11510   0.92760   0.52880   1.000
    H122    H    0.09940   0.91200   0.55140   1.000
    C235    C    0.11410   0.92180   0.47120   1.000
    C236    C    0.08810   0.89380   0.44490   1.000
    H123    H    0.07240   0.87750   0.46650   1.000
    C237    C    0.08600   0.89080   0.39060   1.000
    C238    C    0.05760   0.86300   0.36430   1.000
    C239    C    0.11020   0.91490   0.35720   1.000
    H124    H    0.10850   0.91280   0.31920   1.000
    C240    C    0.13610   0.94130   0.38010   1.000
    H125    H    0.15230   0.95660   0.35770   1.000
    C241    C    0.13810   0.94520   0.43670   1.000
    C242    C    0.16360   0.97320   0.46220   1.000
    H126    H    0.18040   0.98820   0.44030   1.000
    C243    C    0.93620   0.73020   0.41280   1.000
    C244    C    0.87760   0.67750   0.44930   1.000
    C245    C    0.90200   0.69650   0.49020   1.000
    C246    C    0.88210   0.68580   0.39410   1.000
    H127    H    0.86570   0.67370   0.36840   1.000
    C247    C    0.91060   0.71190   0.37720   1.000
    H128    H    0.91270   0.71740   0.33990   1.000
    C248    C    0.84800   0.65040   0.47010   1.000
    H129    H    0.83220   0.63670   0.44520   1.000
    C249    C    0.93280   0.72330   0.46900   1.000
    H130    H    0.95020   0.73560   0.49330   1.000
    C250    C    0.84310   0.64450   0.52110   1.000
    C251    C    0.89560   0.68820   0.54510   1.000
    H131    H    0.91140   0.70050   0.57130   1.000
    C252    C    0.86770   0.66350   0.56160   1.000
    H132    H    0.86420   0.65830   0.59880   1.000
    C253    C    0.94100   0.73310   0.49520   1.000
    H133    H    0.95960   0.74770   0.51470   1.000
    C254    C    0.93920   0.73530   0.43350   1.000
    C255    C    0.91320   0.71380   0.40670   1.000
    H134    H    0.91300   0.71420   0.36850   1.000
    C256    C    0.88500   0.68970   0.43550   1.000
    C257    C    0.88720   0.68730   0.49200   1.000
    C258    C    0.91560   0.71040   0.52070   1.000
    H135    H    0.91630   0.70920   0.55890   1.000
    C259    C    0.85940   0.66230   0.51850   1.000
    H136    H    0.85950   0.66150   0.55660   1.000
    C260    C    0.83240   0.63940   0.49140   1.000
    C261    C    0.83140   0.64220   0.43340   1.000
    H137    H    0.81270   0.62770   0.41390   1.000
    C262    C    0.85740   0.66600   0.40530   1.000
    H138    H    0.85700   0.66670   0.36710   1.000
    C263    C    0.27040   0.57630   0.72300   1.000
    C264    C    0.24680   0.59750   0.76090   1.000
    H139    H    0.25030   0.59390   0.79850   1.000
    C265    C    0.21930   0.62280   0.74240   1.000
    H140    H    0.20270   0.63530   0.76740   1.000
    C266    C    0.26530   0.58150   0.66670   1.000
    H141    H    0.28020   0.56630   0.64250   1.000
    C267    C    0.24000   0.60730   0.64670   1.000
    C268    C    0.21510   0.63050   0.68860   1.000
    C269    C    0.18830   0.65650   0.66230   1.000
    H142    H    0.17190   0.67090   0.68560   1.000
    C270    C    0.18330   0.66310   0.61030   1.000
    C271    C    0.20950   0.64170   0.57220   1.000
    H143    H    0.20800   0.64660   0.53470   1.000
    C272    C    0.23510   0.61520   0.59100   1.000
    H144    H    0.25050   0.60140   0.56580   1.000
    Cd9     Cd   0.49894   0.68271   0.31878   1.000
    Cd10    Cd   0.39208   0.75172   0.53540   1.000
    Mg5     Mg   0.44262   0.71819   0.42334   1.000
    O65     O    0.17651   0.97654   0.70620   1.000
    O66     O    0.42812   0.71014   0.58720   1.000
    O67     O    0.44579   0.69865   0.50120   1.000
    O68     O    0.19344   0.94955   0.78450   1.000
    O69     O    0.28614   0.47217   0.51350   1.000
    O70     O    0.31132   0.48750   0.59470   1.000
    O71     O    0.70140   0.88210   0.58090   1.000
    O72     O    0.70960   0.91020   0.50040   1.000
    O73     O    0.50169   0.73315   0.42770   1.000
    O74     O    0.53886   0.72775   0.35300   1.000
    O75     O    0.37068   0.78024   0.61900   1.000
    O76     O    0.34370   0.80027   0.54150   1.000
    O77     O    0.63417   0.54657   0.67080   1.000
    O78     O    0.60090   0.54141   0.75090   1.000
    O79     O    0.46003   0.66248   0.39350   1.000
    O80     O    0.44915   0.63355   0.31430   1.000
    C273    C    0.57320   0.58110   0.68230   1.000
    C274    C    0.54630   0.59740   0.71910   1.000
    H145    H    0.54830   0.59150   0.75630   1.000
    C275    C    0.53170   0.74070   0.39960   1.000
    C276    C    0.51730   0.62180   0.70150   1.000
    H146    H    0.49980   0.63270   0.72680   1.000
    C277    C    0.69240   0.88470   0.53270   1.000
    C278    C    0.48350   0.65660   0.62600   1.000
    H147    H    0.46580   0.66780   0.65080   1.000
    C279    C    0.44890   0.69340   0.55180   1.000
    C280    C    0.48050   0.66540   0.57130   1.000
    C281    C    0.51300   0.63080   0.64490   1.000
    C282    C    0.57070   0.58940   0.62780   1.000
    H148    H    0.58890   0.57830   0.60350   1.000
    C283    C    0.54060   0.61480   0.60750   1.000
    C284    C    0.53680   0.62380   0.55200   1.000
    H149    H    0.55480   0.61300   0.52720   1.000
    C285    C    0.50730   0.64830   0.53260   1.000
    H150    H    0.50490   0.65350   0.49530   1.000
    C286    C    0.60560   0.55440   0.70220   1.000
    C287    C    0.22360   0.92650   0.69550   1.000
    C288    C    0.22140   0.92750   0.63860   1.000
    H151    H    0.20350   0.94430   0.62160   1.000
    C289    C    0.24940   0.90210   0.72150   1.000
    H152    H    0.25010   0.90130   0.75960   1.000
    C290    C    0.24500   0.90440   0.60790   1.000
    H153    H    0.24380   0.90550   0.56980   1.000
    C291    C    0.27210   0.87810   0.63460   1.000
    C292    C    0.29750   0.85260   0.60290   1.000
    H154    H    0.29630   0.85300   0.56480   1.000
    C293    C    0.32330   0.82800   0.62910   1.000
    C294    C    0.32710   0.82860   0.68630   1.000
    H155    H    0.34560   0.81250   0.70360   1.000
    C295    C    0.30330   0.85300   0.71670   1.000
    H156    H    0.30550   0.85330   0.75480   1.000
    C296    C    0.27540   0.87780   0.69050   1.000
    C297    C    0.19690   0.95200   0.73380   1.000
    C298    C    0.34730   0.80140   0.59300   1.000
    C299    C    0.30910   0.49160   0.54390   1.000
    C300    C    0.33610   0.52140   0.51750   1.000
    C301    C    0.36160   0.54470   0.55140   1.000
    H157    H    0.36200   0.54060   0.58910   1.000
    C302    C    0.38490   0.57240   0.52880   1.000
    H158    H    0.40060   0.58800   0.55140   1.000
    C303    C    0.38590   0.57820   0.47120   1.000
    C304    C    0.41190   0.60620   0.44490   1.000
    H159    H    0.42760   0.62250   0.46650   1.000
    C305    C    0.41400   0.60920   0.39060   1.000
    C306    C    0.44240   0.63700   0.36430   1.000
    C307    C    0.38980   0.58510   0.35720   1.000
    H160    H    0.39150   0.58720   0.31920   1.000
    C308    C    0.36390   0.55870   0.38010   1.000
    H161    H    0.34770   0.54340   0.35770   1.000
    C309    C    0.36190   0.55480   0.43670   1.000
    C310    C    0.33640   0.52680   0.46220   1.000
    H162    H    0.31960   0.51180   0.44030   1.000
    C311    C    0.56380   0.76980   0.41280   1.000
    C312    C    0.62240   0.82250   0.44930   1.000
    C313    C    0.59800   0.80350   0.49020   1.000
    C314    C    0.61790   0.81420   0.39410   1.000
    H163    H    0.63430   0.82630   0.36840   1.000
    C315    C    0.58940   0.78810   0.37720   1.000
    H164    H    0.58730   0.78260   0.33990   1.000
    C316    C    0.65200   0.84960   0.47010   1.000
    H165    H    0.66780   0.86330   0.44520   1.000
    C317    C    0.56720   0.77670   0.46900   1.000
    H166    H    0.54980   0.76440   0.49330   1.000
    C318    C    0.65690   0.85550   0.52110   1.000
    C319    C    0.60440   0.81180   0.54510   1.000
    H167    H    0.58860   0.79950   0.57130   1.000
    C320    C    0.63230   0.83650   0.56160   1.000
    H168    H    0.63580   0.84170   0.59880   1.000
    C321    C    0.55900   0.76690   0.49520   1.000
    H169    H    0.54040   0.75230   0.51470   1.000
    C322    C    0.56080   0.76470   0.43350   1.000
    C323    C    0.58680   0.78620   0.40670   1.000
    H170    H    0.58700   0.78580   0.36850   1.000
    C324    C    0.61500   0.81030   0.43550   1.000
    C325    C    0.61280   0.81270   0.49200   1.000
    C326    C    0.58440   0.78960   0.52070   1.000
    H171    H    0.58370   0.79080   0.55890   1.000
    C327    C    0.64060   0.83770   0.51850   1.000
    H172    H    0.64050   0.83850   0.55660   1.000
    C328    C    0.66760   0.86060   0.49140   1.000
    C329    C    0.66860   0.85780   0.43340   1.000
    H173    H    0.68730   0.87230   0.41390   1.000
    C330    C    0.64260   0.83400   0.40530   1.000
    H174    H    0.64300   0.83330   0.36710   1.000
    C331    C    0.22960   0.92370   0.72300   1.000
    C332    C    0.25320   0.90250   0.76090   1.000
    H175    H    0.24970   0.90610   0.79850   1.000
    C333    C    0.28070   0.87720   0.74240   1.000
    H176    H    0.29730   0.86470   0.76740   1.000
    C334    C    0.23470   0.91850   0.66670   1.000
    H177    H    0.21980   0.93370   0.64250   1.000
    C335    C    0.26000   0.89270   0.64670   1.000
    C336    C    0.28490   0.86950   0.68860   1.000
    C337    C    0.31170   0.84350   0.66230   1.000
    H178    H    0.32810   0.82910   0.68560   1.000
    C338    C    0.31670   0.83690   0.61030   1.000
    C339    C    0.29050   0.85830   0.57220   1.000
    H179    H    0.29200   0.85340   0.53470   1.000
    C340    C    0.26490   0.88480   0.59100   1.000
    H180    H    0.24950   0.89860   0.56580   1.000
    Cd11    Cd   0.49894   0.18271   0.81878   1.000
    Cd12    Cd   0.39208   0.25172   0.03540   1.000
    Mg6     Mg   0.44262   0.21819   0.92334   1.000
    O81     O    0.17651   0.47654   0.20620   1.000
    O82     O    0.42812   0.21014   0.08720   1.000
    O83     O    0.44579   0.19865   0.00120   1.000
    O84     O    0.19344   0.44955   0.28450   1.000
    O85     O    0.28614   0.97217   0.01350   1.000
    O86     O    0.31132   0.98750   0.09470   1.000
    O87     O    0.70140   0.38210   0.08090   1.000
    O88     O    0.70960   0.41020   0.00040   1.000
    O89     O    0.50169   0.23315   0.92770   1.000
    O90     O    0.53886   0.22775   0.85300   1.000
    O91     O    0.37068   0.28024   0.11900   1.000
    O92     O    0.34370   0.30027   0.04150   1.000
    O93     O    0.63417   0.04657   0.17080   1.000
    O94     O    0.60090   0.04141   0.25090   1.000
    O95     O    0.46003   0.16248   0.89350   1.000
    O96     O    0.44915   0.13355   0.81430   1.000
    C341    C    0.57320   0.08110   0.18230   1.000
    C342    C    0.54630   0.09740   0.21910   1.000
    H181    H    0.54830   0.09150   0.25630   1.000
    C343    C    0.53170   0.24070   0.89960   1.000
    C344    C    0.51730   0.12180   0.20150   1.000
    H182    H    0.49980   0.13270   0.22680   1.000
    C345    C    0.69240   0.38470   0.03270   1.000
    C346    C    0.48350   0.15660   0.12600   1.000
    H183    H    0.46580   0.16780   0.15080   1.000
    C347    C    0.44890   0.19340   0.05180   1.000
    C348    C    0.48050   0.16540   0.07130   1.000
    C349    C    0.51300   0.13080   0.14490   1.000
    C350    C    0.57070   0.08940   0.12780   1.000
    H184    H    0.58890   0.07830   0.10350   1.000
    C351    C    0.54060   0.11480   0.10750   1.000
    C352    C    0.53680   0.12380   0.05200   1.000
    H185    H    0.55480   0.11300   0.02720   1.000
    C353    C    0.50730   0.14830   0.03260   1.000
    H186    H    0.50490   0.15350   0.99530   1.000
    C354    C    0.60560   0.05440   0.20220   1.000
    C355    C    0.22360   0.42650   0.19550   1.000
    C356    C    0.22140   0.42750   0.13860   1.000
    H187    H    0.20350   0.44430   0.12160   1.000
    C357    C    0.24940   0.40210   0.22150   1.000
    H188    H    0.25010   0.40130   0.25960   1.000
    C358    C    0.24500   0.40440   0.10790   1.000
    H189    H    0.24380   0.40550   0.06980   1.000
    C359    C    0.27210   0.37810   0.13460   1.000
    C360    C    0.29750   0.35260   0.10290   1.000
    H190    H    0.29630   0.35300   0.06480   1.000
    C361    C    0.32330   0.32800   0.12910   1.000
    C362    C    0.32710   0.32860   0.18630   1.000
    H191    H    0.34560   0.31250   0.20360   1.000
    C363    C    0.30330   0.35300   0.21670   1.000
    H192    H    0.30550   0.35330   0.25480   1.000
    C364    C    0.27540   0.37780   0.19050   1.000
    C365    C    0.19690   0.45200   0.23380   1.000
    C366    C    0.34730   0.30140   0.09300   1.000
    C367    C    0.30910   0.99160   0.04390   1.000
    C368    C    0.33610   0.02140   0.01750   1.000
    C369    C    0.36160   0.04470   0.05140   1.000
    H193    H    0.36200   0.04060   0.08910   1.000
    C370    C    0.38490   0.07240   0.02880   1.000
    H194    H    0.40060   0.08800   0.05140   1.000
    C371    C    0.38590   0.07820   0.97120   1.000
    C372    C    0.41190   0.10620   0.94490   1.000
    H195    H    0.42760   0.12250   0.96650   1.000
    C373    C    0.41400   0.10920   0.89060   1.000
    C374    C    0.44240   0.13700   0.86430   1.000
    C375    C    0.38980   0.08510   0.85720   1.000
    H196    H    0.39150   0.08720   0.81920   1.000
    C376    C    0.36390   0.05870   0.88010   1.000
    H197    H    0.34770   0.04340   0.85770   1.000
    C377    C    0.36190   0.05480   0.93670   1.000
    C378    C    0.33640   0.02680   0.96220   1.000
    H198    H    0.31960   0.01180   0.94030   1.000
    C379    C    0.56380   0.26980   0.91280   1.000
    C380    C    0.62240   0.32250   0.94930   1.000
    C381    C    0.59800   0.30350   0.99020   1.000
    C382    C    0.61790   0.31420   0.89410   1.000
    H199    H    0.63430   0.32630   0.86840   1.000
    C383    C    0.58940   0.28810   0.87720   1.000
    H200    H    0.58730   0.28260   0.83990   1.000
    C384    C    0.65200   0.34960   0.97010   1.000
    H201    H    0.66780   0.36330   0.94520   1.000
    C385    C    0.56720   0.27670   0.96900   1.000
    H202    H    0.54980   0.26440   0.99330   1.000
    C386    C    0.65690   0.35550   0.02110   1.000
    C387    C    0.60440   0.31180   0.04510   1.000
    H203    H    0.58860   0.29950   0.07130   1.000
    C388    C    0.63230   0.33650   0.06160   1.000
    H204    H    0.63580   0.34170   0.09880   1.000
    C389    C    0.55900   0.26690   0.99520   1.000
    H205    H    0.54040   0.25230   0.01470   1.000
    C390    C    0.56080   0.26470   0.93350   1.000
    C391    C    0.58680   0.28620   0.90670   1.000
    H206    H    0.58700   0.28580   0.86850   1.000
    C392    C    0.61500   0.31030   0.93550   1.000
    C393    C    0.61280   0.31270   0.99200   1.000
    C394    C    0.58440   0.28960   0.02070   1.000
    H207    H    0.58370   0.29080   0.05890   1.000
    C395    C    0.64060   0.33770   0.01850   1.000
    H208    H    0.64050   0.33850   0.05660   1.000
    C396    C    0.66760   0.36060   0.99140   1.000
    C397    C    0.66860   0.35780   0.93340   1.000
    H209    H    0.68730   0.37230   0.91390   1.000
    C398    C    0.64260   0.33400   0.90530   1.000
    H210    H    0.64300   0.33330   0.86710   1.000
    C399    C    0.22960   0.42370   0.22300   1.000
    C400    C    0.25320   0.40250   0.26090   1.000
    H211    H    0.24970   0.40610   0.29850   1.000
    C401    C    0.28070   0.37720   0.24240   1.000
    H212    H    0.29730   0.36470   0.26740   1.000
    C402    C    0.23470   0.41850   0.16670   1.000
    H213    H    0.21980   0.43370   0.14250   1.000
    C403    C    0.26000   0.39270   0.14670   1.000
    C404    C    0.28490   0.36950   0.18860   1.000
    C405    C    0.31170   0.34350   0.16230   1.000
    H214    H    0.32810   0.32910   0.18560   1.000
    C406    C    0.31670   0.33690   0.11030   1.000
    C407    C    0.29050   0.35830   0.07220   1.000
    H215    H    0.29200   0.35340   0.03470   1.000
    C408    C    0.26490   0.38480   0.09100   1.000
    H216    H    0.24950   0.39860   0.06580   1.000
    Cd13    Cd   0.99894   0.68271   0.81878   1.000
    Cd14    Cd   0.89208   0.75172   0.03540   1.000
    Mg7     Mg   0.94262   0.71819   0.92334   1.000
    O97     O    0.67651   0.97654   0.20620   1.000
    O98     O    0.92812   0.71014   0.08720   1.000
    O99     O    0.94579   0.69865   0.00120   1.000
    O100    O    0.69344   0.94955   0.28450   1.000
    O101    O    0.78614   0.47217   0.01350   1.000
    O102    O    0.81132   0.48750   0.09470   1.000
    O103    O    0.20140   0.88210   0.08090   1.000
    O104    O    0.20960   0.91020   0.00040   1.000
    O105    O    0.00169   0.73315   0.92770   1.000
    O106    O    0.03886   0.72775   0.85300   1.000
    O107    O    0.87068   0.78024   0.11900   1.000
    O108    O    0.84370   0.80027   0.04150   1.000
    O109    O    0.13417   0.54657   0.17080   1.000
    O110    O    0.10090   0.54141   0.25090   1.000
    O111    O    0.96003   0.66248   0.89350   1.000
    O112    O    0.94915   0.63355   0.81430   1.000
    C409    C    0.07320   0.58110   0.18230   1.000
    C410    C    0.04630   0.59740   0.21910   1.000
    H217    H    0.04830   0.59150   0.25630   1.000
    C411    C    0.03170   0.74070   0.89960   1.000
    C412    C    0.01730   0.62180   0.20150   1.000
    H218    H    0.99980   0.63270   0.22680   1.000
    C413    C    0.19240   0.88470   0.03270   1.000
    C414    C    0.98350   0.65660   0.12600   1.000
    H219    H    0.96580   0.66780   0.15080   1.000
    C415    C    0.94890   0.69340   0.05180   1.000
    C416    C    0.98050   0.66540   0.07130   1.000
    C417    C    0.01300   0.63080   0.14490   1.000
    C418    C    0.07070   0.58940   0.12780   1.000
    H220    H    0.08890   0.57830   0.10350   1.000
    C419    C    0.04060   0.61480   0.10750   1.000
    C420    C    0.03680   0.62380   0.05200   1.000
    H221    H    0.05480   0.61300   0.02720   1.000
    C421    C    0.00730   0.64830   0.03260   1.000
    H222    H    0.00490   0.65350   0.99530   1.000
    C422    C    0.10560   0.55440   0.20220   1.000
    C423    C    0.72360   0.92650   0.19550   1.000
    C424    C    0.72140   0.92750   0.13860   1.000
    H223    H    0.70350   0.94430   0.12160   1.000
    C425    C    0.74940   0.90210   0.22150   1.000
    H224    H    0.75010   0.90130   0.25960   1.000
    C426    C    0.74500   0.90440   0.10790   1.000
    H225    H    0.74380   0.90550   0.06980   1.000
    C427    C    0.77210   0.87810   0.13460   1.000
    C428    C    0.79750   0.85260   0.10290   1.000
    H226    H    0.79630   0.85300   0.06480   1.000
    C429    C    0.82330   0.82800   0.12910   1.000
    C430    C    0.82710   0.82860   0.18630   1.000
    H227    H    0.84560   0.81250   0.20360   1.000
    C431    C    0.80330   0.85300   0.21670   1.000
    H228    H    0.80550   0.85330   0.25480   1.000
    C432    C    0.77540   0.87780   0.19050   1.000
    C433    C    0.69690   0.95200   0.23380   1.000
    C434    C    0.84730   0.80140   0.09300   1.000
    C435    C    0.80910   0.49160   0.04390   1.000
    C436    C    0.83610   0.52140   0.01750   1.000
    C437    C    0.86160   0.54470   0.05140   1.000
    H229    H    0.86200   0.54060   0.08910   1.000
    C438    C    0.88490   0.57240   0.02880   1.000
    H230    H    0.90060   0.58800   0.05140   1.000
    C439    C    0.88590   0.57820   0.97120   1.000
    C440    C    0.91190   0.60620   0.94490   1.000
    H231    H    0.92760   0.62250   0.96650   1.000
    C441    C    0.91400   0.60920   0.89060   1.000
    C442    C    0.94240   0.63700   0.86430   1.000
    C443    C    0.88980   0.58510   0.85720   1.000
    H232    H    0.89150   0.58720   0.81920   1.000
    C444    C    0.86390   0.55870   0.88010   1.000
    H233    H    0.84770   0.54340   0.85770   1.000
    C445    C    0.86190   0.55480   0.93670   1.000
    C446    C    0.83640   0.52680   0.96220   1.000
    H234    H    0.81960   0.51180   0.94030   1.000
    C447    C    0.06380   0.76980   0.91280   1.000
    C448    C    0.12240   0.82250   0.94930   1.000
    C449    C    0.09800   0.80350   0.99020   1.000
    C450    C    0.11790   0.81420   0.89410   1.000
    H235    H    0.13430   0.82630   0.86840   1.000
    C451    C    0.08940   0.78810   0.87720   1.000
    H236    H    0.08730   0.78260   0.83990   1.000
    C452    C    0.15200   0.84960   0.97010   1.000
    H237    H    0.16780   0.86330   0.94520   1.000
    C453    C    0.06720   0.77670   0.96900   1.000
    H238    H    0.04980   0.76440   0.99330   1.000
    C454    C    0.15690   0.85550   0.02110   1.000
    C455    C    0.10440   0.81180   0.04510   1.000
    H239    H    0.08860   0.79950   0.07130   1.000
    C456    C    0.13230   0.83650   0.06160   1.000
    H240    H    0.13580   0.84170   0.09880   1.000
    C457    C    0.05900   0.76690   0.99520   1.000
    H241    H    0.04040   0.75230   0.01470   1.000
    C458    C    0.06080   0.76470   0.93350   1.000
    C459    C    0.08680   0.78620   0.90670   1.000
    H242    H    0.08700   0.78580   0.86850   1.000
    C460    C    0.11500   0.81030   0.93550   1.000
    C461    C    0.11280   0.81270   0.99200   1.000
    C462    C    0.08440   0.78960   0.02070   1.000
    H243    H    0.08370   0.79080   0.05890   1.000
    C463    C    0.14060   0.83770   0.01850   1.000
    H244    H    0.14050   0.83850   0.05660   1.000
    C464    C    0.16760   0.86060   0.99140   1.000
    C465    C    0.16860   0.85780   0.93340   1.000
    H245    H    0.18730   0.87230   0.91390   1.000
    C466    C    0.14260   0.83400   0.90530   1.000
    H246    H    0.14300   0.83330   0.86710   1.000
    C467    C    0.72960   0.92370   0.22300   1.000
    C468    C    0.75320   0.90250   0.26090   1.000
    H247    H    0.74970   0.90610   0.29850   1.000
    C469    C    0.78070   0.87720   0.24240   1.000
    H248    H    0.79730   0.86470   0.26740   1.000
    C470    C    0.73470   0.91850   0.16670   1.000
    H249    H    0.71980   0.93370   0.14250   1.000
    C471    C    0.76000   0.89270   0.14670   1.000
    C472    C    0.78490   0.86950   0.18860   1.000
    C473    C    0.81170   0.84350   0.16230   1.000
    H250    H    0.82810   0.82910   0.18560   1.000
    C474    C    0.81670   0.83690   0.11030   1.000
    C475    C    0.79050   0.85830   0.07220   1.000
    H251    H    0.79200   0.85340   0.03470   1.000
    C476    C    0.76490   0.88480   0.09100   1.000
    H252    H    0.74950   0.89860   0.06580   1.000
    Cd15    Cd   0.99894   0.18271   0.31878   1.000
    Cd16    Cd   0.89208   0.25172   0.53540   1.000
    Mg8     Mg   0.94262   0.21819   0.42334   1.000
    O113    O    0.67651   0.47654   0.70620   1.000
    O114    O    0.92812   0.21014   0.58720   1.000
    O115    O    0.94579   0.19865   0.50120   1.000
    O116    O    0.69344   0.44955   0.78450   1.000
    O117    O    0.78614   0.97217   0.51350   1.000
    O118    O    0.81132   0.98750   0.59470   1.000
    O119    O    0.20140   0.38210   0.58090   1.000
    O120    O    0.20960   0.41020   0.50040   1.000
    O121    O    0.00169   0.23315   0.42770   1.000
    O122    O    0.03886   0.22775   0.35300   1.000
    O123    O    0.87068   0.28024   0.61900   1.000
    O124    O    0.84370   0.30027   0.54150   1.000
    O125    O    0.13417   0.04657   0.67080   1.000
    O126    O    0.10090   0.04141   0.75090   1.000
    O127    O    0.96003   0.16248   0.39350   1.000
    O128    O    0.94915   0.13355   0.31430   1.000
    C477    C    0.07320   0.08110   0.68230   1.000
    C478    C    0.04630   0.09740   0.71910   1.000
    H253    H    0.04830   0.09150   0.75630   1.000
    C479    C    0.03170   0.24070   0.39960   1.000
    C480    C    0.01730   0.12180   0.70150   1.000
    H254    H    0.99980   0.13270   0.72680   1.000
    C481    C    0.19240   0.38470   0.53270   1.000
    C482    C    0.98350   0.15660   0.62600   1.000
    H255    H    0.96580   0.16780   0.65080   1.000
    C483    C    0.94890   0.19340   0.55180   1.000
    C484    C    0.98050   0.16540   0.57130   1.000
    C485    C    0.01300   0.13080   0.64490   1.000
    C486    C    0.07070   0.08940   0.62780   1.000
    H256    H    0.08890   0.07830   0.60350   1.000
    C487    C    0.04060   0.11480   0.60750   1.000
    C488    C    0.03680   0.12380   0.55200   1.000
    H257    H    0.05480   0.11300   0.52720   1.000
    C489    C    0.00730   0.14830   0.53260   1.000
    H258    H    0.00490   0.15350   0.49530   1.000
    C490    C    0.10560   0.05440   0.70220   1.000
    C491    C    0.72360   0.42650   0.69550   1.000
    C492    C    0.72140   0.42750   0.63860   1.000
    H259    H    0.70350   0.44430   0.62160   1.000
    C493    C    0.74940   0.40210   0.72150   1.000
    H260    H    0.75010   0.40130   0.75960   1.000
    C494    C    0.74500   0.40440   0.60790   1.000
    H261    H    0.74380   0.40550   0.56980   1.000
    C495    C    0.77210   0.37810   0.63460   1.000
    C496    C    0.79750   0.35260   0.60290   1.000
    H262    H    0.79630   0.35300   0.56480   1.000
    C497    C    0.82330   0.32800   0.62910   1.000
    C498    C    0.82710   0.32860   0.68630   1.000
    H263    H    0.84560   0.31250   0.70360   1.000
    C499    C    0.80330   0.35300   0.71670   1.000
    H264    H    0.80550   0.35330   0.75480   1.000
    C500    C    0.77540   0.37780   0.69050   1.000
    C501    C    0.69690   0.45200   0.73380   1.000
    C502    C    0.84730   0.30140   0.59300   1.000
    C503    C    0.80910   0.99160   0.54390   1.000
    C504    C    0.83610   0.02140   0.51750   1.000
    C505    C    0.86160   0.04470   0.55140   1.000
    H265    H    0.86200   0.04060   0.58910   1.000
    C506    C    0.88490   0.07240   0.52880   1.000
    H266    H    0.90060   0.08800   0.55140   1.000
    C507    C    0.88590   0.07820   0.47120   1.000
    C508    C    0.91190   0.10620   0.44490   1.000
    H267    H    0.92760   0.12250   0.46650   1.000
    C509    C    0.91400   0.10920   0.39060   1.000
    C510    C    0.94240   0.13700   0.36430   1.000
    C511    C    0.88980   0.08510   0.35720   1.000
    H268    H    0.89150   0.08720   0.31920   1.000
    C512    C    0.86390   0.05870   0.38010   1.000
    H269    H    0.84770   0.04340   0.35770   1.000
    C513    C    0.86190   0.05480   0.43670   1.000
    C514    C    0.83640   0.02680   0.46220   1.000
    H270    H    0.81960   0.01180   0.44030   1.000
    C515    C    0.06380   0.26980   0.41280   1.000
    C516    C    0.12240   0.32250   0.44930   1.000
    C517    C    0.09800   0.30350   0.49020   1.000
    C518    C    0.11790   0.31420   0.39410   1.000
    H271    H    0.13430   0.32630   0.36840   1.000
    C519    C    0.08940   0.28810   0.37720   1.000
    H272    H    0.08730   0.28260   0.33990   1.000
    C520    C    0.15200   0.34960   0.47010   1.000
    H273    H    0.16780   0.36330   0.44520   1.000
    C521    C    0.06720   0.27670   0.46900   1.000
    H274    H    0.04980   0.26440   0.49330   1.000
    C522    C    0.15690   0.35550   0.52110   1.000
    C523    C    0.10440   0.31180   0.54510   1.000
    H275    H    0.08860   0.29950   0.57130   1.000
    C524    C    0.13230   0.33650   0.56160   1.000
    H276    H    0.13580   0.34170   0.59880   1.000
    C525    C    0.05900   0.26690   0.49520   1.000
    H277    H    0.04040   0.25230   0.51470   1.000
    C526    C    0.06080   0.26470   0.43350   1.000
    C527    C    0.08680   0.28620   0.40670   1.000
    H278    H    0.08700   0.28580   0.36850   1.000
    C528    C    0.11500   0.31030   0.43550   1.000
    C529    C    0.11280   0.31270   0.49200   1.000
    C530    C    0.08440   0.28960   0.52070   1.000
    H279    H    0.08370   0.29080   0.55890   1.000
    C531    C    0.14060   0.33770   0.51850   1.000
    H280    H    0.14050   0.33850   0.55660   1.000
    C532    C    0.16760   0.36060   0.49140   1.000
    C533    C    0.16860   0.35780   0.43340   1.000
    H281    H    0.18730   0.37230   0.41390   1.000
    C534    C    0.14260   0.33400   0.40530   1.000
    H282    H    0.14300   0.33330   0.36710   1.000
    C535    C    0.72960   0.42370   0.72300   1.000
    C536    C    0.75320   0.40250   0.76090   1.000
    H283    H    0.74970   0.40610   0.79850   1.000
    C537    C    0.78070   0.37720   0.74240   1.000
    H284    H    0.79730   0.36470   0.76740   1.000
    C538    C    0.73470   0.41850   0.66670   1.000
    H285    H    0.71980   0.43370   0.64250   1.000
    C539    C    0.76000   0.39270   0.64670   1.000
    C540    C    0.78490   0.36950   0.68860   1.000
    C541    C    0.81170   0.34350   0.66230   1.000
    H286    H    0.82810   0.32910   0.68560   1.000
    C542    C    0.81670   0.33690   0.61030   1.000
    C543    C    0.79050   0.35830   0.57220   1.000
    H287    H    0.79200   0.35340   0.53470   1.000
    C544    C    0.76490   0.38480   0.59100   1.000
    H288    H    0.74950   0.39860   0.56580   1.000
    Cd17    Cd   0.75106   0.93271   0.56878   1.000
    Cd18    Cd   0.85792   0.00172   0.78540   1.000
    Mg9     Mg   0.80738   0.96819   0.67334   1.000
    O129    O    0.07349   0.22654   0.95620   1.000
    O130    O    0.82188   0.96014   0.83720   1.000
    O131    O    0.80421   0.94865   0.75120   1.000
    O132    O    0.05656   0.19955   0.03450   1.000
    O133    O    0.96386   0.72217   0.76350   1.000
    O134    O    0.93868   0.73750   0.84470   1.000
    O135    O    0.54860   0.13210   0.83090   1.000
    O136    O    0.54040   0.16020   0.75040   1.000
    O137    O    0.74831   0.98315   0.67770   1.000
    O138    O    0.71114   0.97775   0.60300   1.000
    O139    O    0.87932   0.03024   0.86900   1.000
    O140    O    0.90630   0.05027   0.79150   1.000
    O141    O    0.61583   0.79657   0.92080   1.000
    O142    O    0.64910   0.79141   0.00090   1.000
    O143    O    0.78997   0.91248   0.64350   1.000
    O144    O    0.80085   0.88355   0.56430   1.000
    C545    C    0.67680   0.83110   0.93230   1.000
    C546    C    0.70370   0.84740   0.96910   1.000
    H289    H    0.70170   0.84150   0.00630   1.000
    C547    C    0.71830   0.99070   0.64960   1.000
    C548    C    0.73270   0.87180   0.95150   1.000
    H290    H    0.75020   0.88270   0.97680   1.000
    C549    C    0.55760   0.13470   0.78270   1.000
    C550    C    0.76650   0.90660   0.87600   1.000
    H291    H    0.78420   0.91780   0.90080   1.000
    C551    C    0.80110   0.94340   0.80180   1.000
    C552    C    0.76950   0.91540   0.82130   1.000
    C553    C    0.73700   0.88080   0.89490   1.000
    C554    C    0.67930   0.83940   0.87780   1.000
    H292    H    0.66110   0.82830   0.85350   1.000
    C555    C    0.70940   0.86480   0.85750   1.000
    C556    C    0.71320   0.87380   0.80200   1.000
    H293    H    0.69520   0.86300   0.77720   1.000
    C557    C    0.74270   0.89830   0.78260   1.000
    H294    H    0.74510   0.90350   0.74530   1.000
    C558    C    0.64440   0.80440   0.95220   1.000
    C559    C    0.02640   0.17650   0.94550   1.000
    C560    C    0.02860   0.17750   0.88860   1.000
    H295    H    0.04650   0.19430   0.87160   1.000
    C561    C    0.00060   0.15210   0.97150   1.000
    H296    H    0.99990   0.15130   0.00960   1.000
    C562    C    0.00500   0.15440   0.85790   1.000
    H297    H    0.00620   0.15550   0.81980   1.000
    C563    C    0.97790   0.12810   0.88460   1.000
    C564    C    0.95250   0.10260   0.85290   1.000
    H298    H    0.95370   0.10300   0.81480   1.000
    C565    C    0.92670   0.07800   0.87910   1.000
    C566    C    0.92290   0.07860   0.93630   1.000
    H299    H    0.90440   0.06250   0.95360   1.000
    C567    C    0.94670   0.10300   0.96670   1.000
    H300    H    0.94450   0.10330   0.00480   1.000
    C568    C    0.97460   0.12780   0.94050   1.000
    C569    C    0.05310   0.20200   0.98380   1.000
    C570    C    0.90270   0.05140   0.84300   1.000
    C571    C    0.94090   0.74160   0.79390   1.000
    C572    C    0.91390   0.77140   0.76750   1.000
    C573    C    0.88840   0.79470   0.80140   1.000
    H301    H    0.88800   0.79060   0.83910   1.000
    C574    C    0.86510   0.82240   0.77880   1.000
    H302    H    0.84940   0.83800   0.80140   1.000
    C575    C    0.86410   0.82820   0.72120   1.000
    C576    C    0.83810   0.85620   0.69490   1.000
    H303    H    0.82240   0.87250   0.71650   1.000
    C577    C    0.83600   0.85920   0.64060   1.000
    C578    C    0.80760   0.88700   0.61430   1.000
    C579    C    0.86020   0.83510   0.60720   1.000
    H304    H    0.85850   0.83720   0.56920   1.000
    C580    C    0.88610   0.80870   0.63010   1.000
    H305    H    0.90230   0.79340   0.60770   1.000
    C581    C    0.88810   0.80480   0.68670   1.000
    C582    C    0.91360   0.77680   0.71220   1.000
    H306    H    0.93040   0.76180   0.69030   1.000
    C583    C    0.68620   0.01980   0.66280   1.000
    C584    C    0.62760   0.07250   0.69930   1.000
    C585    C    0.65200   0.05350   0.74020   1.000
    C586    C    0.63210   0.06420   0.64410   1.000
    H307    H    0.61570   0.07630   0.61840   1.000
    C587    C    0.66060   0.03810   0.62720   1.000
    H308    H    0.66270   0.03260   0.58990   1.000
    C588    C    0.59800   0.09960   0.72010   1.000
    H309    H    0.58220   0.11330   0.69520   1.000
    C589    C    0.68280   0.02670   0.71900   1.000
    H310    H    0.70020   0.01440   0.74330   1.000
    C590    C    0.59310   0.10550   0.77110   1.000
    C591    C    0.64560   0.06180   0.79510   1.000
    H311    H    0.66140   0.04950   0.82130   1.000
    C592    C    0.61770   0.08650   0.81160   1.000
    H312    H    0.61420   0.09170   0.84880   1.000
    C593    C    0.69100   0.01690   0.74520   1.000
    H313    H    0.70960   0.00230   0.76470   1.000
    C594    C    0.68920   0.01470   0.68350   1.000
    C595    C    0.66320   0.03620   0.65670   1.000
    H314    H    0.66300   0.03580   0.61850   1.000
    C596    C    0.63500   0.06030   0.68550   1.000
    C597    C    0.63720   0.06270   0.74200   1.000
    C598    C    0.66560   0.03960   0.77070   1.000
    H315    H    0.66630   0.04080   0.80890   1.000
    C599    C    0.60940   0.08770   0.76850   1.000
    H316    H    0.60950   0.08850   0.80660   1.000
    C600    C    0.58240   0.11060   0.74140   1.000
    C601    C    0.58140   0.10780   0.68340   1.000
    H317    H    0.56270   0.12230   0.66390   1.000
    C602    C    0.60740   0.08400   0.65530   1.000
    H318    H    0.60700   0.08330   0.61710   1.000
    C603    C    0.02040   0.17370   0.97300   1.000
    C604    C    0.99680   0.15250   0.01090   1.000
    H319    H    0.00030   0.15610   0.04850   1.000
    C605    C    0.96930   0.12720   0.99240   1.000
    H320    H    0.95270   0.11470   0.01740   1.000
    C606    C    0.01530   0.16850   0.91670   1.000
    H321    H    0.03020   0.18370   0.89250   1.000
    C607    C    0.99000   0.14270   0.89670   1.000
    C608    C    0.96510   0.11950   0.93860   1.000
    C609    C    0.93830   0.09350   0.91230   1.000
    H322    H    0.92190   0.07910   0.93560   1.000
    C610    C    0.93330   0.08690   0.86030   1.000
    C611    C    0.95950   0.10830   0.82220   1.000
    H323    H    0.95800   0.10340   0.78470   1.000
    C612    C    0.98510   0.13480   0.84100   1.000
    H324    H    0.00050   0.14860   0.81580   1.000
    Cd19    Cd   0.75106   0.43271   0.06878   1.000
    Cd20    Cd   0.85792   0.50172   0.28540   1.000
    Mg10    Mg   0.80738   0.46819   0.17334   1.000
    O145    O    0.07349   0.72654   0.45620   1.000
    O146    O    0.82188   0.46014   0.33720   1.000
    O147    O    0.80421   0.44865   0.25120   1.000
    O148    O    0.05656   0.69955   0.53450   1.000
    O149    O    0.96386   0.22217   0.26350   1.000
    O150    O    0.93868   0.23750   0.34470   1.000
    O151    O    0.54860   0.63210   0.33090   1.000
    O152    O    0.54040   0.66020   0.25040   1.000
    O153    O    0.74831   0.48315   0.17770   1.000
    O154    O    0.71114   0.47775   0.10300   1.000
    O155    O    0.87932   0.53024   0.36900   1.000
    O156    O    0.90630   0.55027   0.29150   1.000
    O157    O    0.61583   0.29657   0.42080   1.000
    O158    O    0.64910   0.29141   0.50090   1.000
    O159    O    0.78997   0.41248   0.14350   1.000
    O160    O    0.80085   0.38355   0.06430   1.000
    C613    C    0.67680   0.33110   0.43230   1.000
    C614    C    0.70370   0.34740   0.46910   1.000
    H325    H    0.70170   0.34150   0.50630   1.000
    C615    C    0.71830   0.49070   0.14960   1.000
    C616    C    0.73270   0.37180   0.45150   1.000
    H326    H    0.75020   0.38270   0.47680   1.000
    C617    C    0.55760   0.63470   0.28270   1.000
    C618    C    0.76650   0.40660   0.37600   1.000
    H327    H    0.78420   0.41780   0.40080   1.000
    C619    C    0.80110   0.44340   0.30180   1.000
    C620    C    0.76950   0.41540   0.32130   1.000
    C621    C    0.73700   0.38080   0.39490   1.000
    C622    C    0.67930   0.33940   0.37780   1.000
    H328    H    0.66110   0.32830   0.35350   1.000
    C623    C    0.70940   0.36480   0.35750   1.000
    C624    C    0.71320   0.37380   0.30200   1.000
    H329    H    0.69520   0.36300   0.27720   1.000
    C625    C    0.74270   0.39830   0.28260   1.000
    H330    H    0.74510   0.40350   0.24530   1.000
    C626    C    0.64440   0.30440   0.45220   1.000
    C627    C    0.02640   0.67650   0.44550   1.000
    C628    C    0.02860   0.67750   0.38860   1.000
    H331    H    0.04650   0.69430   0.37160   1.000
    C629    C    0.00060   0.65210   0.47150   1.000
    H332    H    0.99990   0.65130   0.50960   1.000
    C630    C    0.00500   0.65440   0.35790   1.000
    H333    H    0.00620   0.65550   0.31980   1.000
    C631    C    0.97790   0.62810   0.38460   1.000
    C632    C    0.95250   0.60260   0.35290   1.000
    H334    H    0.95370   0.60300   0.31480   1.000
    C633    C    0.92670   0.57800   0.37910   1.000
    C634    C    0.92290   0.57860   0.43630   1.000
    H335    H    0.90440   0.56250   0.45360   1.000
    C635    C    0.94670   0.60300   0.46670   1.000
    H336    H    0.94450   0.60330   0.50480   1.000
    C636    C    0.97460   0.62780   0.44050   1.000
    C637    C    0.05310   0.70200   0.48380   1.000
    C638    C    0.90270   0.55140   0.34300   1.000
    C639    C    0.94090   0.24160   0.29390   1.000
    C640    C    0.91390   0.27140   0.26750   1.000
    C641    C    0.88840   0.29470   0.30140   1.000
    H337    H    0.88800   0.29060   0.33910   1.000
    C642    C    0.86510   0.32240   0.27880   1.000
    H338    H    0.84940   0.33800   0.30140   1.000
    C643    C    0.86410   0.32820   0.22120   1.000
    C644    C    0.83810   0.35620   0.19490   1.000
    H339    H    0.82240   0.37250   0.21650   1.000
    C645    C    0.83600   0.35920   0.14060   1.000
    C646    C    0.80760   0.38700   0.11430   1.000
    C647    C    0.86020   0.33510   0.10720   1.000
    H340    H    0.85850   0.33720   0.06920   1.000
    C648    C    0.88610   0.30870   0.13010   1.000
    H341    H    0.90230   0.29340   0.10770   1.000
    C649    C    0.88810   0.30480   0.18670   1.000
    C650    C    0.91360   0.27680   0.21220   1.000
    H342    H    0.93040   0.26180   0.19030   1.000
    C651    C    0.68620   0.51980   0.16280   1.000
    C652    C    0.62760   0.57250   0.19930   1.000
    C653    C    0.65200   0.55350   0.24020   1.000
    C654    C    0.63210   0.56420   0.14410   1.000
    H343    H    0.61570   0.57630   0.11840   1.000
    C655    C    0.66060   0.53810   0.12720   1.000
    H344    H    0.66270   0.53260   0.08990   1.000
    C656    C    0.59800   0.59960   0.22010   1.000
    H345    H    0.58220   0.61330   0.19520   1.000
    C657    C    0.68280   0.52670   0.21900   1.000
    H346    H    0.70020   0.51440   0.24330   1.000
    C658    C    0.59310   0.60550   0.27110   1.000
    C659    C    0.64560   0.56180   0.29510   1.000
    H347    H    0.66140   0.54950   0.32130   1.000
    C660    C    0.61770   0.58650   0.31160   1.000
    H348    H    0.61420   0.59170   0.34880   1.000
    C661    C    0.69100   0.51690   0.24520   1.000
    H349    H    0.70960   0.50230   0.26470   1.000
    C662    C    0.68920   0.51470   0.18350   1.000
    C663    C    0.66320   0.53620   0.15670   1.000
    H350    H    0.66300   0.53580   0.11850   1.000
    C664    C    0.63500   0.56030   0.18550   1.000
    C665    C    0.63720   0.56270   0.24200   1.000
    C666    C    0.66560   0.53960   0.27070   1.000
    H351    H    0.66630   0.54080   0.30890   1.000
    C667    C    0.60940   0.58770   0.26850   1.000
    H352    H    0.60950   0.58850   0.30660   1.000
    C668    C    0.58240   0.61060   0.24140   1.000
    C669    C    0.58140   0.60780   0.18340   1.000
    H353    H    0.56270   0.62230   0.16390   1.000
    C670    C    0.60740   0.58400   0.15530   1.000
    H354    H    0.60700   0.58330   0.11710   1.000
    C671    C    0.02040   0.67370   0.47300   1.000
    C672    C    0.99680   0.65250   0.51090   1.000
    H355    H    0.00030   0.65610   0.54850   1.000
    C673    C    0.96930   0.62720   0.49240   1.000
    H356    H    0.95270   0.61470   0.51740   1.000
    C674    C    0.01530   0.66850   0.41670   1.000
    H357    H    0.03020   0.68370   0.39250   1.000
    C675    C    0.99000   0.64270   0.39670   1.000
    C676    C    0.96510   0.61950   0.43860   1.000
    C677    C    0.93830   0.59350   0.41230   1.000
    H358    H    0.92190   0.57910   0.43560   1.000
    C678    C    0.93330   0.58690   0.36030   1.000
    C679    C    0.95950   0.60830   0.32220   1.000
    H359    H    0.95800   0.60340   0.28470   1.000
    C680    C    0.98510   0.63480   0.34100   1.000
    H360    H    0.00050   0.64860   0.31580   1.000
    Cd21    Cd   0.25106   0.93271   0.06878   1.000
    Cd22    Cd   0.35792   0.00172   0.28540   1.000
    Mg11    Mg   0.30738   0.96819   0.17334   1.000
    O161    O    0.57349   0.22654   0.45620   1.000
    O162    O    0.32188   0.96014   0.33720   1.000
    O163    O    0.30421   0.94865   0.25120   1.000
    O164    O    0.55656   0.19955   0.53450   1.000
    O165    O    0.46386   0.72217   0.26350   1.000
    O166    O    0.43868   0.73750   0.34470   1.000
    O167    O    0.04860   0.13210   0.33090   1.000
    O168    O    0.04040   0.16020   0.25040   1.000
    O169    O    0.24831   0.98315   0.17770   1.000
    O170    O    0.21114   0.97775   0.10300   1.000
    O171    O    0.37932   0.03024   0.36900   1.000
    O172    O    0.40630   0.05027   0.29150   1.000
    O173    O    0.11583   0.79657   0.42080   1.000
    O174    O    0.14910   0.79141   0.50090   1.000
    O175    O    0.28997   0.91248   0.14350   1.000
    O176    O    0.30085   0.88355   0.06430   1.000
    C681    C    0.17680   0.83110   0.43230   1.000
    C682    C    0.20370   0.84740   0.46910   1.000
    H361    H    0.20170   0.84150   0.50630   1.000
    C683    C    0.21830   0.99070   0.14960   1.000
    C684    C    0.23270   0.87180   0.45150   1.000
    H362    H    0.25020   0.88270   0.47680   1.000
    C685    C    0.05760   0.13470   0.28270   1.000
    C686    C    0.26650   0.90660   0.37600   1.000
    H363    H    0.28420   0.91780   0.40080   1.000
    C687    C    0.30110   0.94340   0.30180   1.000
    C688    C    0.26950   0.91540   0.32130   1.000
    C689    C    0.23700   0.88080   0.39490   1.000
    C690    C    0.17930   0.83940   0.37780   1.000
    H364    H    0.16110   0.82830   0.35350   1.000
    C691    C    0.20940   0.86480   0.35750   1.000
    C692    C    0.21320   0.87380   0.30200   1.000
    H365    H    0.19520   0.86300   0.27720   1.000
    C693    C    0.24270   0.89830   0.28260   1.000
    H366    H    0.24510   0.90350   0.24530   1.000
    C694    C    0.14440   0.80440   0.45220   1.000
    C695    C    0.52640   0.17650   0.44550   1.000
    C696    C    0.52860   0.17750   0.38860   1.000
    H367    H    0.54650   0.19430   0.37160   1.000
    C697    C    0.50060   0.15210   0.47150   1.000
    H368    H    0.49990   0.15130   0.50960   1.000
    C698    C    0.50500   0.15440   0.35790   1.000
    H369    H    0.50620   0.15550   0.31980   1.000
    C699    C    0.47790   0.12810   0.38460   1.000
    C700    C    0.45250   0.10260   0.35290   1.000
    H370    H    0.45370   0.10300   0.31480   1.000
    C701    C    0.42670   0.07800   0.37910   1.000
    C702    C    0.42290   0.07860   0.43630   1.000
    H371    H    0.40440   0.06250   0.45360   1.000
    C703    C    0.44670   0.10300   0.46670   1.000
    H372    H    0.44450   0.10330   0.50480   1.000
    C704    C    0.47460   0.12780   0.44050   1.000
    C705    C    0.55310   0.20200   0.48380   1.000
    C706    C    0.40270   0.05140   0.34300   1.000
    C707    C    0.44090   0.74160   0.29390   1.000
    C708    C    0.41390   0.77140   0.26750   1.000
    C709    C    0.38840   0.79470   0.30140   1.000
    H373    H    0.38800   0.79060   0.33910   1.000
    C710    C    0.36510   0.82240   0.27880   1.000
    H374    H    0.34940   0.83800   0.30140   1.000
    C711    C    0.36410   0.82820   0.22120   1.000
    C712    C    0.33810   0.85620   0.19490   1.000
    H375    H    0.32240   0.87250   0.21650   1.000
    C713    C    0.33600   0.85920   0.14060   1.000
    C714    C    0.30760   0.88700   0.11430   1.000
    C715    C    0.36020   0.83510   0.10720   1.000
    H376    H    0.35850   0.83720   0.06920   1.000
    C716    C    0.38610   0.80870   0.13010   1.000
    H377    H    0.40230   0.79340   0.10770   1.000
    C717    C    0.38810   0.80480   0.18670   1.000
    C718    C    0.41360   0.77680   0.21220   1.000
    H378    H    0.43040   0.76180   0.19030   1.000
    C719    C    0.18620   0.01980   0.16280   1.000
    C720    C    0.12760   0.07250   0.19930   1.000
    C721    C    0.15200   0.05350   0.24020   1.000
    C722    C    0.13210   0.06420   0.14410   1.000
    H379    H    0.11570   0.07630   0.11840   1.000
    C723    C    0.16060   0.03810   0.12720   1.000
    H380    H    0.16270   0.03260   0.08990   1.000
    C724    C    0.09800   0.09960   0.22010   1.000
    H381    H    0.08220   0.11330   0.19520   1.000
    C725    C    0.18280   0.02670   0.21900   1.000
    H382    H    0.20020   0.01440   0.24330   1.000
    C726    C    0.09310   0.10550   0.27110   1.000
    C727    C    0.14560   0.06180   0.29510   1.000
    H383    H    0.16140   0.04950   0.32130   1.000
    C728    C    0.11770   0.08650   0.31160   1.000
    H384    H    0.11420   0.09170   0.34880   1.000
    C729    C    0.19100   0.01690   0.24520   1.000
    H385    H    0.20960   0.00230   0.26470   1.000
    C730    C    0.18920   0.01470   0.18350   1.000
    C731    C    0.16320   0.03620   0.15670   1.000
    H386    H    0.16300   0.03580   0.11850   1.000
    C732    C    0.13500   0.06030   0.18550   1.000
    C733    C    0.13720   0.06270   0.24200   1.000
    C734    C    0.16560   0.03960   0.27070   1.000
    H387    H    0.16630   0.04080   0.30890   1.000
    C735    C    0.10940   0.08770   0.26850   1.000
    H388    H    0.10950   0.08850   0.30660   1.000
    C736    C    0.08240   0.11060   0.24140   1.000
    C737    C    0.08140   0.10780   0.18340   1.000
    H389    H    0.06270   0.12230   0.16390   1.000
    C738    C    0.10740   0.08400   0.15530   1.000
    H390    H    0.10700   0.08330   0.11710   1.000
    C739    C    0.52040   0.17370   0.47300   1.000
    C740    C    0.49680   0.15250   0.51090   1.000
    H391    H    0.50030   0.15610   0.54850   1.000
    C741    C    0.46930   0.12720   0.49240   1.000
    H392    H    0.45270   0.11470   0.51740   1.000
    C742    C    0.51530   0.16850   0.41670   1.000
    H393    H    0.53020   0.18370   0.39250   1.000
    C743    C    0.49000   0.14270   0.39670   1.000
    C744    C    0.46510   0.11950   0.43860   1.000
    C745    C    0.43830   0.09350   0.41230   1.000
    H394    H    0.42190   0.07910   0.43560   1.000
    C746    C    0.43330   0.08690   0.36030   1.000
    C747    C    0.45950   0.10830   0.32220   1.000
    H395    H    0.45800   0.10340   0.28470   1.000
    C748    C    0.48510   0.13480   0.34100   1.000
    H396    H    0.50050   0.14860   0.31580   1.000
    Cd23    Cd   0.25106   0.43271   0.56878   1.000
    Cd24    Cd   0.35792   0.50172   0.78540   1.000
    Mg12    Mg   0.30738   0.46819   0.67334   1.000
    O177    O    0.57349   0.72654   0.95620   1.000
    O178    O    0.32188   0.46014   0.83720   1.000
    O179    O    0.30421   0.44865   0.75120   1.000
    O180    O    0.55656   0.69955   0.03450   1.000
    O181    O    0.46386   0.22217   0.76350   1.000
    O182    O    0.43868   0.23750   0.84470   1.000
    O183    O    0.04860   0.63210   0.83090   1.000
    O184    O    0.04040   0.66020   0.75040   1.000
    O185    O    0.24831   0.48315   0.67770   1.000
    O186    O    0.21114   0.47775   0.60300   1.000
    O187    O    0.37932   0.53024   0.86900   1.000
    O188    O    0.40630   0.55027   0.79150   1.000
    O189    O    0.11583   0.29657   0.92080   1.000
    O190    O    0.14910   0.29141   0.00090   1.000
    O191    O    0.28997   0.41248   0.64350   1.000
    O192    O    0.30085   0.38355   0.56430   1.000
    C749    C    0.17680   0.33110   0.93230   1.000
    C750    C    0.20370   0.34740   0.96910   1.000
    H397    H    0.20170   0.34150   0.00630   1.000
    C751    C    0.21830   0.49070   0.64960   1.000
    C752    C    0.23270   0.37180   0.95150   1.000
    H398    H    0.25020   0.38270   0.97680   1.000
    C753    C    0.05760   0.63470   0.78270   1.000
    C754    C    0.26650   0.40660   0.87600   1.000
    H399    H    0.28420   0.41780   0.90080   1.000
    C755    C    0.30110   0.44340   0.80180   1.000
    C756    C    0.26950   0.41540   0.82130   1.000
    C757    C    0.23700   0.38080   0.89490   1.000
    C758    C    0.17930   0.33940   0.87780   1.000
    H400    H    0.16110   0.32830   0.85350   1.000
    C759    C    0.20940   0.36480   0.85750   1.000
    C760    C    0.21320   0.37380   0.80200   1.000
    H401    H    0.19520   0.36300   0.77720   1.000
    C761    C    0.24270   0.39830   0.78260   1.000
    H402    H    0.24510   0.40350   0.74530   1.000
    C762    C    0.14440   0.30440   0.95220   1.000
    C763    C    0.52640   0.67650   0.94550   1.000
    C764    C    0.52860   0.67750   0.88860   1.000
    H403    H    0.54650   0.69430   0.87160   1.000
    C765    C    0.50060   0.65210   0.97150   1.000
    H404    H    0.49990   0.65130   0.00960   1.000
    C766    C    0.50500   0.65440   0.85790   1.000
    H405    H    0.50620   0.65550   0.81980   1.000
    C767    C    0.47790   0.62810   0.88460   1.000
    C768    C    0.45250   0.60260   0.85290   1.000
    H406    H    0.45370   0.60300   0.81480   1.000
    C769    C    0.42670   0.57800   0.87910   1.000
    C770    C    0.42290   0.57860   0.93630   1.000
    H407    H    0.40440   0.56250   0.95360   1.000
    C771    C    0.44670   0.60300   0.96670   1.000
    H408    H    0.44450   0.60330   0.00480   1.000
    C772    C    0.47460   0.62780   0.94050   1.000
    C773    C    0.55310   0.70200   0.98380   1.000
    C774    C    0.40270   0.55140   0.84300   1.000
    C775    C    0.44090   0.24160   0.79390   1.000
    C776    C    0.41390   0.27140   0.76750   1.000
    C777    C    0.38840   0.29470   0.80140   1.000
    H409    H    0.38800   0.29060   0.83910   1.000
    C778    C    0.36510   0.32240   0.77880   1.000
    H410    H    0.34940   0.33800   0.80140   1.000
    C779    C    0.36410   0.32820   0.72120   1.000
    C780    C    0.33810   0.35620   0.69490   1.000
    H411    H    0.32240   0.37250   0.71650   1.000
    C781    C    0.33600   0.35920   0.64060   1.000
    C782    C    0.30760   0.38700   0.61430   1.000
    C783    C    0.36020   0.33510   0.60720   1.000
    H412    H    0.35850   0.33720   0.56920   1.000
    C784    C    0.38610   0.30870   0.63010   1.000
    H413    H    0.40230   0.29340   0.60770   1.000
    C785    C    0.38810   0.30480   0.68670   1.000
    C786    C    0.41360   0.27680   0.71220   1.000
    H414    H    0.43040   0.26180   0.69030   1.000
    C787    C    0.18620   0.51980   0.66280   1.000
    C788    C    0.12760   0.57250   0.69930   1.000
    C789    C    0.15200   0.55350   0.74020   1.000
    C790    C    0.13210   0.56420   0.64410   1.000
    H415    H    0.11570   0.57630   0.61840   1.000
    C791    C    0.16060   0.53810   0.62720   1.000
    H416    H    0.16270   0.53260   0.58990   1.000
    C792    C    0.09800   0.59960   0.72010   1.000
    H417    H    0.08220   0.61330   0.69520   1.000
    C793    C    0.18280   0.52670   0.71900   1.000
    H418    H    0.20020   0.51440   0.74330   1.000
    C794    C    0.09310   0.60550   0.77110   1.000
    C795    C    0.14560   0.56180   0.79510   1.000
    H419    H    0.16140   0.54950   0.82130   1.000
    C796    C    0.11770   0.58650   0.81160   1.000
    H420    H    0.11420   0.59170   0.84880   1.000
    C797    C    0.19100   0.51690   0.74520   1.000
    H421    H    0.20960   0.50230   0.76470   1.000
    C798    C    0.18920   0.51470   0.68350   1.000
    C799    C    0.16320   0.53620   0.65670   1.000
    H422    H    0.16300   0.53580   0.61850   1.000
    C800    C    0.13500   0.56030   0.68550   1.000
    C801    C    0.13720   0.56270   0.74200   1.000
    C802    C    0.16560   0.53960   0.77070   1.000
    H423    H    0.16630   0.54080   0.80890   1.000
    C803    C    0.10940   0.58770   0.76850   1.000
    H424    H    0.10950   0.58850   0.80660   1.000
    C804    C    0.08240   0.61060   0.74140   1.000
    C805    C    0.08140   0.60780   0.68340   1.000
    H425    H    0.06270   0.62230   0.66390   1.000
    C806    C    0.10740   0.58400   0.65530   1.000
    H426    H    0.10700   0.58330   0.61710   1.000
    C807    C    0.52040   0.67370   0.97300   1.000
    C808    C    0.49680   0.65250   0.01090   1.000
    H427    H    0.50030   0.65610   0.04850   1.000
    C809    C    0.46930   0.62720   0.99240   1.000
    H428    H    0.45270   0.61470   0.01740   1.000
    C810    C    0.51530   0.66850   0.91670   1.000
    H429    H    0.53020   0.68370   0.89250   1.000
    C811    C    0.49000   0.64270   0.89670   1.000
    C812    C    0.46510   0.61950   0.93860   1.000
    C813    C    0.43830   0.59350   0.91230   1.000
    H430    H    0.42190   0.57910   0.93560   1.000
    C814    C    0.43330   0.58690   0.86030   1.000
    C815    C    0.45950   0.60830   0.82220   1.000
    H431    H    0.45800   0.60340   0.78470   1.000
    C816    C    0.48510   0.63480   0.84100   1.000
    H432    H    0.50050   0.64860   0.81580   1.000
    Cd25    Cd   0.74894   0.56729   0.56878   1.000
    Cd26    Cd   0.64208   0.49828   0.78540   1.000
    Mg13    Mg   0.69262   0.53181   0.67334   1.000
    O193    O    0.42651   0.27346   0.95620   1.000
    O194    O    0.67812   0.53986   0.83720   1.000
    O195    O    0.69579   0.55135   0.75120   1.000
    O196    O    0.44344   0.30045   0.03450   1.000
    O197    O    0.53614   0.77783   0.76350   1.000
    O198    O    0.56132   0.76250   0.84470   1.000
    O199    O    0.95140   0.36790   0.83090   1.000
    O200    O    0.95960   0.33980   0.75040   1.000
    O201    O    0.75169   0.51685   0.67770   1.000
    O202    O    0.78886   0.52225   0.60300   1.000
    O203    O    0.62068   0.46976   0.86900   1.000
    O204    O    0.59370   0.44973   0.79150   1.000
    O205    O    0.88417   0.70343   0.92080   1.000
    O206    O    0.85090   0.70859   0.00090   1.000
    O207    O    0.71003   0.58752   0.64350   1.000
    O208    O    0.69915   0.61645   0.56430   1.000
    C817    C    0.82320   0.66890   0.93230   1.000
    C818    C    0.79630   0.65260   0.96910   1.000
    H433    H    0.79830   0.65850   0.00630   1.000
    C819    C    0.78170   0.50930   0.64960   1.000
    C820    C    0.76730   0.62820   0.95150   1.000
    H434    H    0.74980   0.61730   0.97680   1.000
    C821    C    0.94240   0.36530   0.78270   1.000
    C822    C    0.73350   0.59340   0.87600   1.000
    H435    H    0.71580   0.58220   0.90080   1.000
    C823    C    0.69890   0.55660   0.80180   1.000
    C824    C    0.73050   0.58460   0.82130   1.000
    C825    C    0.76300   0.61920   0.89490   1.000
    C826    C    0.82070   0.66060   0.87780   1.000
    H436    H    0.83890   0.67170   0.85350   1.000
    C827    C    0.79060   0.63520   0.85750   1.000
    C828    C    0.78680   0.62620   0.80200   1.000
    H437    H    0.80480   0.63700   0.77720   1.000
    C829    C    0.75730   0.60170   0.78260   1.000
    H438    H    0.75490   0.59650   0.74530   1.000
    C830    C    0.85560   0.69560   0.95220   1.000
    C831    C    0.47360   0.32350   0.94550   1.000
    C832    C    0.47140   0.32250   0.88860   1.000
    H439    H    0.45350   0.30570   0.87160   1.000
    C833    C    0.49940   0.34790   0.97150   1.000
    H440    H    0.50010   0.34870   0.00960   1.000
    C834    C    0.49500   0.34560   0.85790   1.000
    H441    H    0.49380   0.34450   0.81980   1.000
    C835    C    0.52210   0.37190   0.88460   1.000
    C836    C    0.54750   0.39740   0.85290   1.000
    H442    H    0.54630   0.39700   0.81480   1.000
    C837    C    0.57330   0.42200   0.87910   1.000
    C838    C    0.57710   0.42140   0.93630   1.000
    H443    H    0.59560   0.43750   0.95360   1.000
    C839    C    0.55330   0.39700   0.96670   1.000
    H444    H    0.55550   0.39670   0.00480   1.000
    C840    C    0.52540   0.37220   0.94050   1.000
    C841    C    0.44690   0.29800   0.98380   1.000
    C842    C    0.59730   0.44860   0.84300   1.000
    C843    C    0.55910   0.75840   0.79390   1.000
    C844    C    0.58610   0.72860   0.76750   1.000
    C845    C    0.61160   0.70530   0.80140   1.000
    H445    H    0.61200   0.70940   0.83910   1.000
    C846    C    0.63490   0.67760   0.77880   1.000
    H446    H    0.65060   0.66200   0.80140   1.000
    C847    C    0.63590   0.67180   0.72120   1.000
    C848    C    0.66190   0.64380   0.69490   1.000
    H447    H    0.67760   0.62750   0.71650   1.000
    C849    C    0.66400   0.64080   0.64060   1.000
    C850    C    0.69240   0.61300   0.61430   1.000
    C851    C    0.63980   0.66490   0.60720   1.000
    H448    H    0.64150   0.66280   0.56920   1.000
    C852    C    0.61390   0.69130   0.63010   1.000
    H449    H    0.59770   0.70660   0.60770   1.000
    C853    C    0.61190   0.69520   0.68670   1.000
    C854    C    0.58640   0.72320   0.71220   1.000
    H450    H    0.56960   0.73820   0.69030   1.000
    C855    C    0.81380   0.48020   0.66280   1.000
    C856    C    0.87240   0.42750   0.69930   1.000
    C857    C    0.84800   0.44650   0.74020   1.000
    C858    C    0.86790   0.43580   0.64410   1.000
    H451    H    0.88430   0.42370   0.61840   1.000
    C859    C    0.83940   0.46190   0.62720   1.000
    H452    H    0.83730   0.46740   0.58990   1.000
    C860    C    0.90200   0.40040   0.72010   1.000
    H453    H    0.91780   0.38670   0.69520   1.000
    C861    C    0.81720   0.47330   0.71900   1.000
    H454    H    0.79980   0.48560   0.74330   1.000
    C862    C    0.90690   0.39450   0.77110   1.000
    C863    C    0.85440   0.43820   0.79510   1.000
    H455    H    0.83860   0.45050   0.82130   1.000
    C864    C    0.88230   0.41350   0.81160   1.000
    H456    H    0.88580   0.40830   0.84880   1.000
    C865    C    0.80900   0.48310   0.74520   1.000
    H457    H    0.79040   0.49770   0.76470   1.000
    C866    C    0.81080   0.48530   0.68350   1.000
    C867    C    0.83680   0.46380   0.65670   1.000
    H458    H    0.83700   0.46420   0.61850   1.000
    C868    C    0.86500   0.43970   0.68550   1.000
    C869    C    0.86280   0.43730   0.74200   1.000
    C870    C    0.83440   0.46040   0.77070   1.000
    H459    H    0.83370   0.45920   0.80890   1.000
    C871    C    0.89060   0.41230   0.76850   1.000
    H460    H    0.89050   0.41150   0.80660   1.000
    C872    C    0.91760   0.38940   0.74140   1.000
    C873    C    0.91860   0.39220   0.68340   1.000
    H461    H    0.93730   0.37770   0.66390   1.000
    C874    C    0.89260   0.41600   0.65530   1.000
    H462    H    0.89300   0.41670   0.61710   1.000
    C875    C    0.47960   0.32630   0.97300   1.000
    C876    C    0.50320   0.34750   0.01090   1.000
    H463    H    0.49970   0.34390   0.04850   1.000
    C877    C    0.53070   0.37280   0.99240   1.000
    H464    H    0.54730   0.38530   0.01740   1.000
    C878    C    0.48470   0.33150   0.91670   1.000
    H465    H    0.46980   0.31630   0.89250   1.000
    C879    C    0.51000   0.35730   0.89670   1.000
    C880    C    0.53490   0.38050   0.93860   1.000
    C881    C    0.56170   0.40650   0.91230   1.000
    H466    H    0.57810   0.42090   0.93560   1.000
    C882    C    0.56670   0.41310   0.86030   1.000
    C883    C    0.54050   0.39170   0.82220   1.000
    H467    H    0.54200   0.39660   0.78470   1.000
    C884    C    0.51490   0.36520   0.84100   1.000
    H468    H    0.49950   0.35140   0.81580   1.000
    Cd27    Cd   0.74894   0.06729   0.06878   1.000
    Cd28    Cd   0.64208   0.99828   0.28540   1.000
    Mg14    Mg   0.69262   0.03181   0.17334   1.000
    O209    O    0.42651   0.77346   0.45620   1.000
    O210    O    0.67812   0.03986   0.33720   1.000
    O211    O    0.69579   0.05135   0.25120   1.000
    O212    O    0.44344   0.80045   0.53450   1.000
    O213    O    0.53614   0.27783   0.26350   1.000
    O214    O    0.56132   0.26250   0.34470   1.000
    O215    O    0.95140   0.86790   0.33090   1.000
    O216    O    0.95960   0.83980   0.25040   1.000
    O217    O    0.75169   0.01685   0.17770   1.000
    O218    O    0.78886   0.02225   0.10300   1.000
    O219    O    0.62068   0.96976   0.36900   1.000
    O220    O    0.59370   0.94973   0.29150   1.000
    O221    O    0.88417   0.20343   0.42080   1.000
    O222    O    0.85090   0.20859   0.50090   1.000
    O223    O    0.71003   0.08752   0.14350   1.000
    O224    O    0.69915   0.11645   0.06430   1.000
    C885    C    0.82320   0.16890   0.43230   1.000
    C886    C    0.79630   0.15260   0.46910   1.000
    H469    H    0.79830   0.15850   0.50630   1.000
    C887    C    0.78170   0.00930   0.14960   1.000
    C888    C    0.76730   0.12820   0.45150   1.000
    H470    H    0.74980   0.11730   0.47680   1.000
    C889    C    0.94240   0.86530   0.28270   1.000
    C890    C    0.73350   0.09340   0.37600   1.000
    H471    H    0.71580   0.08220   0.40080   1.000
    C891    C    0.69890   0.05660   0.30180   1.000
    C892    C    0.73050   0.08460   0.32130   1.000
    C893    C    0.76300   0.11920   0.39490   1.000
    C894    C    0.82070   0.16060   0.37780   1.000
    H472    H    0.83890   0.17170   0.35350   1.000
    C895    C    0.79060   0.13520   0.35750   1.000
    C896    C    0.78680   0.12620   0.30200   1.000
    H473    H    0.80480   0.13700   0.27720   1.000
    C897    C    0.75730   0.10170   0.28260   1.000
    H474    H    0.75490   0.09650   0.24530   1.000
    C898    C    0.85560   0.19560   0.45220   1.000
    C899    C    0.47360   0.82350   0.44550   1.000
    C900    C    0.47140   0.82250   0.38860   1.000
    H475    H    0.45350   0.80570   0.37160   1.000
    C901    C    0.49940   0.84790   0.47150   1.000
    H476    H    0.50010   0.84870   0.50960   1.000
    C902    C    0.49500   0.84560   0.35790   1.000
    H477    H    0.49380   0.84450   0.31980   1.000
    C903    C    0.52210   0.87190   0.38460   1.000
    C904    C    0.54750   0.89740   0.35290   1.000
    H478    H    0.54630   0.89700   0.31480   1.000
    C905    C    0.57330   0.92200   0.37910   1.000
    C906    C    0.57710   0.92140   0.43630   1.000
    H479    H    0.59560   0.93750   0.45360   1.000
    C907    C    0.55330   0.89700   0.46670   1.000
    H480    H    0.55550   0.89670   0.50480   1.000
    C908    C    0.52540   0.87220   0.44050   1.000
    C909    C    0.44690   0.79800   0.48380   1.000
    C910    C    0.59730   0.94860   0.34300   1.000
    C911    C    0.55910   0.25840   0.29390   1.000
    C912    C    0.58610   0.22860   0.26750   1.000
    C913    C    0.61160   0.20530   0.30140   1.000
    H481    H    0.61200   0.20940   0.33910   1.000
    C914    C    0.63490   0.17760   0.27880   1.000
    H482    H    0.65060   0.16200   0.30140   1.000
    C915    C    0.63590   0.17180   0.22120   1.000
    C916    C    0.66190   0.14380   0.19490   1.000
    H483    H    0.67760   0.12750   0.21650   1.000
    C917    C    0.66400   0.14080   0.14060   1.000
    C918    C    0.69240   0.11300   0.11430   1.000
    C919    C    0.63980   0.16490   0.10720   1.000
    H484    H    0.64150   0.16280   0.06920   1.000
    C920    C    0.61390   0.19130   0.13010   1.000
    H485    H    0.59770   0.20660   0.10770   1.000
    C921    C    0.61190   0.19520   0.18670   1.000
    C922    C    0.58640   0.22320   0.21220   1.000
    H486    H    0.56960   0.23820   0.19030   1.000
    C923    C    0.81380   0.98020   0.16280   1.000
    C924    C    0.87240   0.92750   0.19930   1.000
    C925    C    0.84800   0.94650   0.24020   1.000
    C926    C    0.86790   0.93580   0.14410   1.000
    H487    H    0.88430   0.92370   0.11840   1.000
    C927    C    0.83940   0.96190   0.12720   1.000
    H488    H    0.83730   0.96740   0.08990   1.000
    C928    C    0.90200   0.90040   0.22010   1.000
    H489    H    0.91780   0.88670   0.19520   1.000
    C929    C    0.81720   0.97330   0.21900   1.000
    H490    H    0.79980   0.98560   0.24330   1.000
    C930    C    0.90690   0.89450   0.27110   1.000
    C931    C    0.85440   0.93820   0.29510   1.000
    H491    H    0.83860   0.95050   0.32130   1.000
    C932    C    0.88230   0.91350   0.31160   1.000
    H492    H    0.88580   0.90830   0.34880   1.000
    C933    C    0.80900   0.98310   0.24520   1.000
    H493    H    0.79040   0.99770   0.26470   1.000
    C934    C    0.81080   0.98530   0.18350   1.000
    C935    C    0.83680   0.96380   0.15670   1.000
    H494    H    0.83700   0.96420   0.11850   1.000
    C936    C    0.86500   0.93970   0.18550   1.000
    C937    C    0.86280   0.93730   0.24200   1.000
    C938    C    0.83440   0.96040   0.27070   1.000
    H495    H    0.83370   0.95920   0.30890   1.000
    C939    C    0.89060   0.91230   0.26850   1.000
    H496    H    0.89050   0.91150   0.30660   1.000
    C940    C    0.91760   0.88940   0.24140   1.000
    C941    C    0.91860   0.89220   0.18340   1.000
    H497    H    0.93730   0.87770   0.16390   1.000
    C942    C    0.89260   0.91600   0.15530   1.000
    H498    H    0.89300   0.91670   0.11710   1.000
    C943    C    0.47960   0.82630   0.47300   1.000
    C944    C    0.50320   0.84750   0.51090   1.000
    H499    H    0.49970   0.84390   0.54850   1.000
    C945    C    0.53070   0.87280   0.49240   1.000
    H500    H    0.54730   0.88530   0.51740   1.000
    C946    C    0.48470   0.83150   0.41670   1.000
    H501    H    0.46980   0.81630   0.39250   1.000
    C947    C    0.51000   0.85730   0.39670   1.000
    C948    C    0.53490   0.88050   0.43860   1.000
    C949    C    0.56170   0.90650   0.41230   1.000
    H502    H    0.57810   0.92090   0.43560   1.000
    C950    C    0.56670   0.91310   0.36030   1.000
    C951    C    0.54050   0.89170   0.32220   1.000
    H503    H    0.54200   0.89660   0.28470   1.000
    C952    C    0.51490   0.86520   0.34100   1.000
    H504    H    0.49950   0.85140   0.31580   1.000
    Cd29    Cd   0.24894   0.56729   0.06878   1.000
    Cd30    Cd   0.14208   0.49828   0.28540   1.000
    Mg15    Mg   0.19262   0.53181   0.17334   1.000
    O225    O    0.92651   0.27346   0.45620   1.000
    O226    O    0.17812   0.53986   0.33720   1.000
    O227    O    0.19579   0.55135   0.25120   1.000
    O228    O    0.94344   0.30045   0.53450   1.000
    O229    O    0.03614   0.77783   0.26350   1.000
    O230    O    0.06132   0.76250   0.34470   1.000
    O231    O    0.45140   0.36790   0.33090   1.000
    O232    O    0.45960   0.33980   0.25040   1.000
    O233    O    0.25169   0.51685   0.17770   1.000
    O234    O    0.28886   0.52225   0.10300   1.000
    O235    O    0.12068   0.46976   0.36900   1.000
    O236    O    0.09370   0.44973   0.29150   1.000
    O237    O    0.38417   0.70343   0.42080   1.000
    O238    O    0.35090   0.70859   0.50090   1.000
    O239    O    0.21003   0.58752   0.14350   1.000
    O240    O    0.19915   0.61645   0.06430   1.000
    C953    C    0.32320   0.66890   0.43230   1.000
    C954    C    0.29630   0.65260   0.46910   1.000
    H505    H    0.29830   0.65850   0.50630   1.000
    C955    C    0.28170   0.50930   0.14960   1.000
    C956    C    0.26730   0.62820   0.45150   1.000
    H506    H    0.24980   0.61730   0.47680   1.000
    C957    C    0.44240   0.36530   0.28270   1.000
    C958    C    0.23350   0.59340   0.37600   1.000
    H507    H    0.21580   0.58220   0.40080   1.000
    C959    C    0.19890   0.55660   0.30180   1.000
    C960    C    0.23050   0.58460   0.32130   1.000
    C961    C    0.26300   0.61920   0.39490   1.000
    C962    C    0.32070   0.66060   0.37780   1.000
    H508    H    0.33890   0.67170   0.35350   1.000
    C963    C    0.29060   0.63520   0.35750   1.000
    C964    C    0.28680   0.62620   0.30200   1.000
    H509    H    0.30480   0.63700   0.27720   1.000
    C965    C    0.25730   0.60170   0.28260   1.000
    H510    H    0.25490   0.59650   0.24530   1.000
    C966    C    0.35560   0.69560   0.45220   1.000
    C967    C    0.97360   0.32350   0.44550   1.000
    C968    C    0.97140   0.32250   0.38860   1.000
    H511    H    0.95350   0.30570   0.37160   1.000
    C969    C    0.99940   0.34790   0.47150   1.000
    H512    H    0.00010   0.34870   0.50960   1.000
    C970    C    0.99500   0.34560   0.35790   1.000
    H513    H    0.99380   0.34450   0.31980   1.000
    C971    C    0.02210   0.37190   0.38460   1.000
    C972    C    0.04750   0.39740   0.35290   1.000
    H514    H    0.04630   0.39700   0.31480   1.000
    C973    C    0.07330   0.42200   0.37910   1.000
    C974    C    0.07710   0.42140   0.43630   1.000
    H515    H    0.09560   0.43750   0.45360   1.000
    C975    C    0.05330   0.39700   0.46670   1.000
    H516    H    0.05550   0.39670   0.50480   1.000
    C976    C    0.02540   0.37220   0.44050   1.000
    C977    C    0.94690   0.29800   0.48380   1.000
    C978    C    0.09730   0.44860   0.34300   1.000
    C979    C    0.05910   0.75840   0.29390   1.000
    C980    C    0.08610   0.72860   0.26750   1.000
    C981    C    0.11160   0.70530   0.30140   1.000
    H517    H    0.11200   0.70940   0.33910   1.000
    C982    C    0.13490   0.67760   0.27880   1.000
    H518    H    0.15060   0.66200   0.30140   1.000
    C983    C    0.13590   0.67180   0.22120   1.000
    C984    C    0.16190   0.64380   0.19490   1.000
    H519    H    0.17760   0.62750   0.21650   1.000
    C985    C    0.16400   0.64080   0.14060   1.000
    C986    C    0.19240   0.61300   0.11430   1.000
    C987    C    0.13980   0.66490   0.10720   1.000
    H520    H    0.14150   0.66280   0.06920   1.000
    C988    C    0.11390   0.69130   0.13010   1.000
    H521    H    0.09770   0.70660   0.10770   1.000
    C989    C    0.11190   0.69520   0.18670   1.000
    C990    C    0.08640   0.72320   0.21220   1.000
    H522    H    0.06960   0.73820   0.19030   1.000
    C991    C    0.31380   0.48020   0.16280   1.000
    C992    C    0.37240   0.42750   0.19930   1.000
    C993    C    0.34800   0.44650   0.24020   1.000
    C994    C    0.36790   0.43580   0.14410   1.000
    H523    H    0.38430   0.42370   0.11840   1.000
    C995    C    0.33940   0.46190   0.12720   1.000
    H524    H    0.33730   0.46740   0.08990   1.000
    C996    C    0.40200   0.40040   0.22010   1.000
    H525    H    0.41780   0.38670   0.19520   1.000
    C997    C    0.31720   0.47330   0.21900   1.000
    H526    H    0.29980   0.48560   0.24330   1.000
    C998    C    0.40690   0.39450   0.27110   1.000
    C999    C    0.35440   0.43820   0.29510   1.000
    H527    H    0.33860   0.45050   0.32130   1.000
    C1000   C    0.38230   0.41350   0.31160   1.000
    H528    H    0.38580   0.40830   0.34880   1.000
    C1001   C    0.30900   0.48310   0.24520   1.000
    H529    H    0.29040   0.49770   0.26470   1.000
    C1002   C    0.31080   0.48530   0.18350   1.000
    C1003   C    0.33680   0.46380   0.15670   1.000
    H530    H    0.33700   0.46420   0.11850   1.000
    C1004   C    0.36500   0.43970   0.18550   1.000
    C1005   C    0.36280   0.43730   0.24200   1.000
    C1006   C    0.33440   0.46040   0.27070   1.000
    H531    H    0.33370   0.45920   0.30890   1.000
    C1007   C    0.39060   0.41230   0.26850   1.000
    H532    H    0.39050   0.41150   0.30660   1.000
    C1008   C    0.41760   0.38940   0.24140   1.000
    C1009   C    0.41860   0.39220   0.18340   1.000
    H533    H    0.43730   0.37770   0.16390   1.000
    C1010   C    0.39260   0.41600   0.15530   1.000
    H534    H    0.39300   0.41670   0.11710   1.000
    C1011   C    0.97960   0.32630   0.47300   1.000
    C1012   C    0.00320   0.34750   0.51090   1.000
    H535    H    0.99970   0.34390   0.54850   1.000
    C1013   C    0.03070   0.37280   0.49240   1.000
    H536    H    0.04730   0.38530   0.51740   1.000
    C1014   C    0.98470   0.33150   0.41670   1.000
    H537    H    0.96980   0.31630   0.39250   1.000
    C1015   C    0.01000   0.35730   0.39670   1.000
    C1016   C    0.03490   0.38050   0.43860   1.000
    C1017   C    0.06170   0.40650   0.41230   1.000
    H538    H    0.07810   0.42090   0.43560   1.000
    C1018   C    0.06670   0.41310   0.36030   1.000
    C1019   C    0.04050   0.39170   0.32220   1.000
    H539    H    0.04200   0.39660   0.28470   1.000
    C1020   C    0.01490   0.36520   0.34100   1.000
    H540    H    0.99950   0.35140   0.31580   1.000
    Cd31    Cd   0.24894   0.06729   0.56878   1.000
    Cd32    Cd   0.14208   0.99828   0.78540   1.000
    Mg16    Mg   0.19262   0.03181   0.67334   1.000
    O241    O    0.92651   0.77346   0.95620   1.000
    O242    O    0.17812   0.03986   0.83720   1.000
    O243    O    0.19579   0.05135   0.75120   1.000
    O244    O    0.94344   0.80045   0.03450   1.000
    O245    O    0.03614   0.27783   0.76350   1.000
    O246    O    0.06132   0.26250   0.84470   1.000
    O247    O    0.45140   0.86790   0.83090   1.000
    O248    O    0.45960   0.83980   0.75040   1.000
    O249    O    0.25169   0.01685   0.67770   1.000
    O250    O    0.28886   0.02225   0.60300   1.000
    O251    O    0.12068   0.96976   0.86900   1.000
    O252    O    0.09370   0.94973   0.79150   1.000
    O253    O    0.38417   0.20343   0.92080   1.000
    O254    O    0.35090   0.20859   0.00090   1.000
    O255    O    0.21003   0.08752   0.64350   1.000
    O256    O    0.19915   0.11645   0.56430   1.000
    C1021   C    0.32320   0.16890   0.93230   1.000
    C1022   C    0.29630   0.15260   0.96910   1.000
    H541    H    0.29830   0.15850   0.00630   1.000
    C1023   C    0.28170   0.00930   0.64960   1.000
    C1024   C    0.26730   0.12820   0.95150   1.000
    H542    H    0.24980   0.11730   0.97680   1.000
    C1025   C    0.44240   0.86530   0.78270   1.000
    C1026   C    0.23350   0.09340   0.87600   1.000
    H543    H    0.21580   0.08220   0.90080   1.000
    C1027   C    0.19890   0.05660   0.80180   1.000
    C1028   C    0.23050   0.08460   0.82130   1.000
    C1029   C    0.26300   0.11920   0.89490   1.000
    C1030   C    0.32070   0.16060   0.87780   1.000
    H544    H    0.33890   0.17170   0.85350   1.000
    C1031   C    0.29060   0.13520   0.85750   1.000
    C1032   C    0.28680   0.12620   0.80200   1.000
    H545    H    0.30480   0.13700   0.77720   1.000
    C1033   C    0.25730   0.10170   0.78260   1.000
    H546    H    0.25490   0.09650   0.74530   1.000
    C1034   C    0.35560   0.19560   0.95220   1.000
    C1035   C    0.97360   0.82350   0.94550   1.000
    C1036   C    0.97140   0.82250   0.88860   1.000
    H547    H    0.95350   0.80570   0.87160   1.000
    C1037   C    0.99940   0.84790   0.97150   1.000
    H548    H    0.00010   0.84870   0.00960   1.000
    C1038   C    0.99500   0.84560   0.85790   1.000
    H549    H    0.99380   0.84450   0.81980   1.000
    C1039   C    0.02210   0.87190   0.88460   1.000
    C1040   C    0.04750   0.89740   0.85290   1.000
    H550    H    0.04630   0.89700   0.81480   1.000
    C1041   C    0.07330   0.92200   0.87910   1.000
    C1042   C    0.07710   0.92140   0.93630   1.000
    H551    H    0.09560   0.93750   0.95360   1.000
    C1043   C    0.05330   0.89700   0.96670   1.000
    H552    H    0.05550   0.89670   0.00480   1.000
    C1044   C    0.02540   0.87220   0.94050   1.000
    C1045   C    0.94690   0.79800   0.98380   1.000
    C1046   C    0.09730   0.94860   0.84300   1.000
    C1047   C    0.05910   0.25840   0.79390   1.000
    C1048   C    0.08610   0.22860   0.76750   1.000
    C1049   C    0.11160   0.20530   0.80140   1.000
    H553    H    0.11200   0.20940   0.83910   1.000
    C1050   C    0.13490   0.17760   0.77880   1.000
    H554    H    0.15060   0.16200   0.80140   1.000
    C1051   C    0.13590   0.17180   0.72120   1.000
    C1052   C    0.16190   0.14380   0.69490   1.000
    H555    H    0.17760   0.12750   0.71650   1.000
    C1053   C    0.16400   0.14080   0.64060   1.000
    C1054   C    0.19240   0.11300   0.61430   1.000
    C1055   C    0.13980   0.16490   0.60720   1.000
    H556    H    0.14150   0.16280   0.56920   1.000
    C1056   C    0.11390   0.19130   0.63010   1.000
    H557    H    0.09770   0.20660   0.60770   1.000
    C1057   C    0.11190   0.19520   0.68670   1.000
    C1058   C    0.08640   0.22320   0.71220   1.000
    H558    H    0.06960   0.23820   0.69030   1.000
    C1059   C    0.31380   0.98020   0.66280   1.000
    C1060   C    0.37240   0.92750   0.69930   1.000
    C1061   C    0.34800   0.94650   0.74020   1.000
    C1062   C    0.36790   0.93580   0.64410   1.000
    H559    H    0.38430   0.92370   0.61840   1.000
    C1063   C    0.33940   0.96190   0.62720   1.000
    H560    H    0.33730   0.96740   0.58990   1.000
    C1064   C    0.40200   0.90040   0.72010   1.000
    H561    H    0.41780   0.88670   0.69520   1.000
    C1065   C    0.31720   0.97330   0.71900   1.000
    H562    H    0.29980   0.98560   0.74330   1.000
    C1066   C    0.40690   0.89450   0.77110   1.000
    C1067   C    0.35440   0.93820   0.79510   1.000
    H563    H    0.33860   0.95050   0.82130   1.000
    C1068   C    0.38230   0.91350   0.81160   1.000
    H564    H    0.38580   0.90830   0.84880   1.000
    C1069   C    0.30900   0.98310   0.74520   1.000
    H565    H    0.29040   0.99770   0.76470   1.000
    C1070   C    0.31080   0.98530   0.68350   1.000
    C1071   C    0.33680   0.96380   0.65670   1.000
    H566    H    0.33700   0.96420   0.61850   1.000
    C1072   C    0.36500   0.93970   0.68550   1.000
    C1073   C    0.36280   0.93730   0.74200   1.000
    C1074   C    0.33440   0.96040   0.77070   1.000
    H567    H    0.33370   0.95920   0.80890   1.000
    C1075   C    0.39060   0.91230   0.76850   1.000
    H568    H    0.39050   0.91150   0.80660   1.000
    C1076   C    0.41760   0.88940   0.74140   1.000
    C1077   C    0.41860   0.89220   0.68340   1.000
    H569    H    0.43730   0.87770   0.66390   1.000
    C1078   C    0.39260   0.91600   0.65530   1.000
    H570    H    0.39300   0.91670   0.61710   1.000
    C1079   C    0.97960   0.82630   0.97300   1.000
    C1080   C    0.00320   0.84750   0.01090   1.000
    H571    H    0.99970   0.84390   0.04850   1.000
    C1081   C    0.03070   0.87280   0.99240   1.000
    H572    H    0.04730   0.88530   0.01740   1.000
    C1082   C    0.98470   0.83150   0.91670   1.000
    H573    H    0.96980   0.81630   0.89250   1.000
    C1083   C    0.01000   0.85730   0.89670   1.000
    C1084   C    0.03490   0.88050   0.93860   1.000
    C1085   C    0.06170   0.90650   0.91230   1.000
    H574    H    0.07810   0.92090   0.93560   1.000
    C1086   C    0.06670   0.91310   0.86030   1.000
    C1087   C    0.04050   0.89170   0.82220   1.000
    H575    H    0.04200   0.89660   0.78470   1.000
    C1088   C    0.01490   0.86520   0.84100   1.000
    H576    H    0.99950   0.85140   0.81580   1.000
