# CIF file generated by openbabel 2.4.1, see http://openbabel.sf.net
data_I
_chemical_name_common 'image0'
_cell_length_a 10.952
_cell_length_b 10.952
_cell_length_c 9.627
_cell_angle_alpha 90
_cell_angle_beta 90
_cell_angle_gamma 90
_space_group_name_H-M_alt 'P 1'
_space_group_name_Hall 'P 1'
loop_
    _symmetry_equiv_pos_as_xyz
    x,y,z
loop_
    _atom_site_label
    _atom_site_type_symbol
    _atom_site_fract_x
    _atom_site_fract_y
    _atom_site_fract_z
    _atom_site_occupancy
    C1      C    0.95270   0.88320   0.41860   1.000
    H1      H    0.00420   0.81540   0.38420   1.000
    C2      C    0.04730   0.11680   0.41860   1.000
    H2      H    0.99580   0.18460   0.38420   1.000
    C3      C    0.11680   0.95270   0.41860   1.000
    H3      H    0.18460   0.00420   0.38420   1.000
    C4      C    0.88320   0.04730   0.41860   1.000
    H4      H    0.81540   0.99580   0.38420   1.000
    C5      C    0.04730   0.88320   0.58140   1.000
    H5      H    0.99580   0.81540   0.61580   1.000
    C6      C    0.95270   0.11680   0.58140   1.000
    H6      H    0.00420   0.18460   0.61580   1.000
    C7      C    0.88320   0.95270   0.58140   1.000
    H7      H    0.81540   0.00420   0.61580   1.000
    C8      C    0.11680   0.04730   0.58140   1.000
    H8      H    0.18460   0.99580   0.61580   1.000
    C9      C    0.04730   0.11680   0.58140   1.000
    H9      H    0.99580   0.18460   0.61580   1.000
    C10     C    0.95270   0.88320   0.58140   1.000
    H10     H    0.00420   0.81540   0.61580   1.000
    C11     C    0.88320   0.04730   0.58140   1.000
    H11     H    0.81540   0.99580   0.61580   1.000
    C12     C    0.11680   0.95270   0.58140   1.000
    H12     H    0.18460   0.00420   0.61580   1.000
    C13     C    0.95270   0.11680   0.41860   1.000
    H13     H    0.00420   0.18460   0.38420   1.000
    C14     C    0.04730   0.88320   0.41860   1.000
    H14     H    0.99580   0.81540   0.38420   1.000
    C15     C    0.11680   0.04730   0.41860   1.000
    H15     H    0.18460   0.99580   0.38420   1.000
    C16     C    0.88320   0.95270   0.41860   1.000
    H16     H    0.81540   0.00420   0.38420   1.000
    Zn1     Zn   0.00000   0.00000   0.15090   1.000
    N1      N    0.00000   0.00000   0.36550   1.000
    Zn2     Zn   0.00000   0.00000   0.84910   1.000
    N2      N    0.00000   0.00000   0.63450   1.000
    O1      O    0.81740   0.00000   0.11700   1.000
    C17     C    0.56430   0.00000   0.12510   1.000
    H17     H    0.60730   0.00000   0.21090   1.000
    O2      O    0.18260   0.00000   0.11700   1.000
    C18     C    0.43570   0.00000   0.12510   1.000
    H18     H    0.39270   0.00000   0.21090   1.000
    O3      O    0.00000   0.81740   0.11700   1.000
    C19     C    0.00000   0.56430   0.12510   1.000
    H19     H    0.00000   0.60730   0.21090   1.000
    O4      O    0.00000   0.18260   0.11700   1.000
    C20     C    0.00000   0.43570   0.12510   1.000
    H20     H    0.00000   0.39270   0.21090   1.000
    O5      O    0.18260   0.00000   0.88300   1.000
    C21     C    0.43570   0.00000   0.87490   1.000
    H21     H    0.39270   0.00000   0.78910   1.000
    O6      O    0.81740   0.00000   0.88300   1.000
    C22     C    0.56430   0.00000   0.87490   1.000
    H22     H    0.60730   0.00000   0.78910   1.000
    O7      O    0.00000   0.81740   0.88300   1.000
    C23     C    0.00000   0.56430   0.87490   1.000
    H23     H    0.00000   0.60730   0.78910   1.000
    O8      O    0.00000   0.18260   0.88300   1.000
    C24     C    0.00000   0.43570   0.87490   1.000
    H24     H    0.00000   0.39270   0.78910   1.000
    C25     C    0.76310   0.00000   0.00000   1.000
    C26     C    0.62940   0.00000   0.00000   1.000
    C27     C    0.23690   0.00000   0.00000   1.000
    C28     C    0.37060   0.00000   0.00000   1.000
    C29     C    0.00000   0.76310   0.00000   1.000
    C30     C    0.00000   0.62940   0.00000   1.000
    C31     C    0.00000   0.23690   0.00000   1.000
    C32     C    0.00000   0.37060   0.00000   1.000
    H25     H    0.86945   0.86945   0.38420   1.000
    H26     H    0.13055   0.13055   0.38420   1.000
    H27     H    0.13055   0.86945   0.38420   1.000
    H28     H    0.86945   0.13055   0.38420   1.000
    H29     H    0.13055   0.86945   0.61580   1.000
    H30     H    0.86945   0.13055   0.61580   1.000
    H31     H    0.86945   0.86945   0.61580   1.000
    H32     H    0.13055   0.13055   0.61580   1.000
