# CIF file generated by openbabel 2.4.1, see http://openbabel.sf.net
data_I
_chemical_name_common 'image0'
_cell_length_a 14.9344
_cell_length_b 14.9344
_cell_length_c 19.1332
_cell_angle_alpha 90
_cell_angle_beta 90
_cell_angle_gamma 90
_space_group_name_H-M_alt 'P 1'
_space_group_name_Hall 'P 1'
loop_
    _symmetry_equiv_pos_as_xyz
    x,y,z
loop_
    _atom_site_label
    _atom_site_type_symbol
    _atom_site_fract_x
    _atom_site_fract_y
    _atom_site_fract_z
    _atom_site_occupancy
    O1      O    0.21583   0.12053   0.29456   1.000
    O2      O    0.18176   0.13385   0.18088   1.000
    C1      C    0.30740   0.17560   0.02840   1.000
    H1      H    0.36930   0.18330   0.04580   1.000
    H2      H    0.28430   0.11770   0.04610   1.000
    C2      C    0.30750   0.17480   0.94900   1.000
    H3      H    0.28420   0.11670   0.93190   1.000
    H4      H    0.36960   0.18190   0.93160   1.000
    C3      C    0.33530   0.21400   0.94800   1.000
    H5      H    0.34380   0.15220   0.93050   1.000
    H6      H    0.25100   0.11450   0.93070   1.000
    C4      C    0.28630   0.33560   0.02700   1.000
    H7      H    0.25040   0.11380   0.04420   1.000
    H8      H    0.34420   0.15170   0.04410   1.000
    C5      C    0.15800   0.23600   0.02790   1.000
    H9      H    0.32200   0.13470   0.04520   1.000
    H10     H    0.38160   0.21590   0.04550   1.000
    C6      C    0.26380   0.15750   0.94890   1.000
    H11     H    0.38210   0.21530   0.93190   1.000
    H12     H    0.32150   0.13360   0.93160   1.000
    C7      C    0.17570   0.09630   0.23950   1.000
    C8      C    0.11360   0.01800   0.24460   1.000
    C9      C    0.07740   0.97960   0.18450   1.000
    H13     H    0.09730   0.99870   0.13970   1.000
    C10     C    0.08610   0.98730   0.31010   1.000
    H14     H    0.11280   0.01110   0.35120   1.000
    O3      O    0.28417   0.37947   0.29456   1.000
    O4      O    0.31824   0.36615   0.18088   1.000
    C11     C    0.19260   0.32440   0.02840   1.000
    H15     H    0.13070   0.31670   0.04580   1.000
    H16     H    0.21570   0.38230   0.04610   1.000
    C12     C    0.19250   0.32520   0.94900   1.000
    H17     H    0.21580   0.38330   0.93190   1.000
    H18     H    0.13040   0.31810   0.93160   1.000
    C13     C    0.16470   0.28600   0.94800   1.000
    H19     H    0.15620   0.34780   0.93050   1.000
    H20     H    0.24900   0.38550   0.93070   1.000
    C14     C    0.21370   0.16440   0.02700   1.000
    H21     H    0.24960   0.38620   0.04420   1.000
    H22     H    0.15580   0.34830   0.04410   1.000
    C15     C    0.34200   0.26400   0.02790   1.000
    H23     H    0.17800   0.36530   0.04520   1.000
    H24     H    0.11840   0.28410   0.04550   1.000
    C16     C    0.23620   0.34250   0.94890   1.000
    H25     H    0.11790   0.28470   0.93190   1.000
    H26     H    0.17850   0.36640   0.93160   1.000
    C17     C    0.32430   0.40370   0.23950   1.000
    C18     C    0.38640   0.48200   0.24460   1.000
    C19     C    0.42260   0.52040   0.18450   1.000
    H27     H    0.40270   0.50130   0.13970   1.000
    C20     C    0.41390   0.51270   0.31010   1.000
    H28     H    0.38720   0.48890   0.35120   1.000
    O5      O    0.37947   0.21583   0.29456   1.000
    O6      O    0.36615   0.18176   0.18088   1.000
    C21     C    0.32440   0.30740   0.02840   1.000
    H29     H    0.31670   0.36930   0.04580   1.000
    H30     H    0.38230   0.28430   0.04610   1.000
    C22     C    0.32520   0.30750   0.94900   1.000
    H31     H    0.38330   0.28420   0.93190   1.000
    H32     H    0.31810   0.36960   0.93160   1.000
    C23     C    0.28600   0.33530   0.94800   1.000
    H33     H    0.34780   0.34380   0.93050   1.000
    H34     H    0.38550   0.25100   0.93070   1.000
    C24     C    0.16440   0.28630   0.02700   1.000
    H35     H    0.38620   0.25040   0.04420   1.000
    H36     H    0.34830   0.34420   0.04410   1.000
    C25     C    0.26400   0.15800   0.02790   1.000
    H37     H    0.36530   0.32200   0.04520   1.000
    H38     H    0.28410   0.38160   0.04550   1.000
    C26     C    0.34250   0.26380   0.94890   1.000
    H39     H    0.28470   0.38210   0.93190   1.000
    H40     H    0.36640   0.32150   0.93160   1.000
    C27     C    0.40370   0.17570   0.23950   1.000
    C28     C    0.48200   0.11360   0.24460   1.000
    C29     C    0.52040   0.07740   0.18450   1.000
    H41     H    0.50130   0.09730   0.13970   1.000
    C30     C    0.51270   0.08610   0.31010   1.000
    H42     H    0.48890   0.11280   0.35120   1.000
    O7      O    0.12053   0.28417   0.29456   1.000
    O8      O    0.13385   0.31824   0.18088   1.000
    C31     C    0.17560   0.19260   0.02840   1.000
    H43     H    0.18330   0.13070   0.04580   1.000
    H44     H    0.11770   0.21570   0.04610   1.000
    C32     C    0.17480   0.19250   0.94900   1.000
    H45     H    0.11670   0.21580   0.93190   1.000
    H46     H    0.18190   0.13040   0.93160   1.000
    C33     C    0.21400   0.16470   0.94800   1.000
    H47     H    0.15220   0.15620   0.93050   1.000
    H48     H    0.11450   0.24900   0.93070   1.000
    C34     C    0.33560   0.21370   0.02700   1.000
    H49     H    0.11380   0.24960   0.04420   1.000
    H50     H    0.15170   0.15580   0.04410   1.000
    C35     C    0.23600   0.34200   0.02790   1.000
    H51     H    0.13470   0.17800   0.04520   1.000
    H52     H    0.21590   0.11840   0.04550   1.000
    C36     C    0.15750   0.23620   0.94890   1.000
    H53     H    0.21530   0.11790   0.93190   1.000
    H54     H    0.13360   0.17850   0.93160   1.000
    C37     C    0.09630   0.32430   0.23950   1.000
    C38     C    0.01800   0.38640   0.24460   1.000
    C39     C    0.97960   0.42260   0.18450   1.000
    H55     H    0.99870   0.40270   0.13970   1.000
    C40     C    0.98730   0.41390   0.31010   1.000
    H56     H    0.01110   0.38720   0.35120   1.000
    O9      O    0.78417   0.62053   0.20544   1.000
    O10     O    0.81824   0.63385   0.31912   1.000
    C41     C    0.69260   0.67560   0.47160   1.000
    H57     H    0.63070   0.68330   0.45420   1.000
    H58     H    0.71570   0.61770   0.45390   1.000
    C42     C    0.69250   0.67480   0.55100   1.000
    H59     H    0.71580   0.61670   0.56810   1.000
    H60     H    0.63040   0.68190   0.56840   1.000
    C43     C    0.66470   0.71400   0.55200   1.000
    H61     H    0.65620   0.65220   0.56950   1.000
    H62     H    0.74900   0.61450   0.56930   1.000
    C44     C    0.71370   0.83560   0.47300   1.000
    H63     H    0.74960   0.61380   0.45580   1.000
    H64     H    0.65580   0.65170   0.45590   1.000
    C45     C    0.84200   0.73600   0.47210   1.000
    H65     H    0.67800   0.63470   0.45480   1.000
    H66     H    0.61840   0.71590   0.45450   1.000
    C46     C    0.73620   0.65750   0.55110   1.000
    H67     H    0.61790   0.71530   0.56810   1.000
    H68     H    0.67850   0.63360   0.56840   1.000
    C47     C    0.82430   0.59630   0.26050   1.000
    C48     C    0.88640   0.51800   0.25540   1.000
    C49     C    0.92260   0.47960   0.31550   1.000
    H69     H    0.90270   0.49870   0.36030   1.000
    C50     C    0.91390   0.48730   0.18990   1.000
    H70     H    0.88720   0.51110   0.14880   1.000
    O11     O    0.71583   0.87947   0.20544   1.000
    O12     O    0.68176   0.86615   0.31912   1.000
    C51     C    0.80740   0.82440   0.47160   1.000
    H71     H    0.86930   0.81670   0.45420   1.000
    H72     H    0.78430   0.88230   0.45390   1.000
    C52     C    0.80750   0.82520   0.55100   1.000
    H73     H    0.78420   0.88330   0.56810   1.000
    H74     H    0.86960   0.81810   0.56840   1.000
    C53     C    0.83530   0.78600   0.55200   1.000
    H75     H    0.84380   0.84780   0.56950   1.000
    H76     H    0.75100   0.88550   0.56930   1.000
    C54     C    0.78630   0.66440   0.47300   1.000
    H77     H    0.75040   0.88620   0.45580   1.000
    H78     H    0.84420   0.84830   0.45590   1.000
    C55     C    0.65800   0.76400   0.47210   1.000
    H79     H    0.82200   0.86530   0.45480   1.000
    H80     H    0.88160   0.78410   0.45450   1.000
    C56     C    0.76380   0.84250   0.55110   1.000
    H81     H    0.88210   0.78470   0.56810   1.000
    H82     H    0.82150   0.86640   0.56840   1.000
    C57     C    0.67570   0.90370   0.26050   1.000
    C58     C    0.61360   0.98200   0.25540   1.000
    C59     C    0.57740   0.02040   0.31550   1.000
    H83     H    0.59730   0.00130   0.36030   1.000
    C60     C    0.58610   0.01270   0.18990   1.000
    H84     H    0.61280   0.98890   0.14880   1.000
    O13     O    0.62053   0.71583   0.20544   1.000
    O14     O    0.63385   0.68176   0.31912   1.000
    C61     C    0.67560   0.80740   0.47160   1.000
    H85     H    0.68330   0.86930   0.45420   1.000
    H86     H    0.61770   0.78430   0.45390   1.000
    C62     C    0.67480   0.80750   0.55100   1.000
    H87     H    0.61670   0.78420   0.56810   1.000
    H88     H    0.68190   0.86960   0.56840   1.000
    C63     C    0.71400   0.83530   0.55200   1.000
    H89     H    0.65220   0.84380   0.56950   1.000
    H90     H    0.61450   0.75100   0.56930   1.000
    C64     C    0.83560   0.78630   0.47300   1.000
    H91     H    0.61380   0.75040   0.45580   1.000
    H92     H    0.65170   0.84420   0.45590   1.000
    C65     C    0.73600   0.65800   0.47210   1.000
    H93     H    0.63470   0.82200   0.45480   1.000
    H94     H    0.71590   0.88160   0.45450   1.000
    C66     C    0.65750   0.76380   0.55110   1.000
    H95     H    0.71530   0.88210   0.56810   1.000
    H96     H    0.63360   0.82150   0.56840   1.000
    C67     C    0.59630   0.67570   0.26050   1.000
    C68     C    0.51800   0.61360   0.25540   1.000
    C69     C    0.47960   0.57740   0.31550   1.000
    H97     H    0.49870   0.59730   0.36030   1.000
    C70     C    0.48730   0.58610   0.18990   1.000
    H98     H    0.51110   0.61280   0.14880   1.000
    O15     O    0.87947   0.78417   0.20544   1.000
    O16     O    0.86615   0.81824   0.31912   1.000
    C71     C    0.82440   0.69260   0.47160   1.000
    H99     H    0.81670   0.63070   0.45420   1.000
    H100    H    0.88230   0.71570   0.45390   1.000
    C72     C    0.82520   0.69250   0.55100   1.000
    H101    H    0.88330   0.71580   0.56810   1.000
    H102    H    0.81810   0.63040   0.56840   1.000
    C73     C    0.78600   0.66470   0.55200   1.000
    H103    H    0.84780   0.65620   0.56950   1.000
    H104    H    0.88550   0.74900   0.56930   1.000
    C74     C    0.66440   0.71370   0.47300   1.000
    H105    H    0.88620   0.74960   0.45580   1.000
    H106    H    0.84830   0.65580   0.45590   1.000
    C75     C    0.76400   0.84200   0.47210   1.000
    H107    H    0.86530   0.67800   0.45480   1.000
    H108    H    0.78410   0.61840   0.45450   1.000
    C76     C    0.84250   0.73620   0.55110   1.000
    H109    H    0.78470   0.61790   0.56810   1.000
    H110    H    0.86640   0.67850   0.56840   1.000
    C77     C    0.90370   0.82430   0.26050   1.000
    C78     C    0.98200   0.88640   0.25540   1.000
    C79     C    0.02040   0.92260   0.31550   1.000
    H111    H    0.00130   0.90270   0.36030   1.000
    C80     C    0.01270   0.91390   0.18990   1.000
    H112    H    0.98890   0.88720   0.14880   1.000
    O17     O    0.78417   0.87947   0.70544   1.000
    O18     O    0.81824   0.86615   0.81912   1.000
    C81     C    0.69260   0.82440   0.97160   1.000
    H113    H    0.63070   0.81670   0.95420   1.000
    H114    H    0.71570   0.88230   0.95390   1.000
    C82     C    0.69250   0.82520   0.05100   1.000
    H115    H    0.71580   0.88330   0.06810   1.000
    H116    H    0.63040   0.81810   0.06840   1.000
    C83     C    0.66470   0.78600   0.05200   1.000
    H117    H    0.65620   0.84780   0.06950   1.000
    H118    H    0.74900   0.88550   0.06930   1.000
    C84     C    0.71370   0.66440   0.97300   1.000
    H119    H    0.74960   0.88620   0.95580   1.000
    H120    H    0.65580   0.84830   0.95590   1.000
    C85     C    0.84200   0.76400   0.97210   1.000
    H121    H    0.67800   0.86530   0.95480   1.000
    H122    H    0.61840   0.78410   0.95450   1.000
    C86     C    0.73620   0.84250   0.05110   1.000
    H123    H    0.61790   0.78470   0.06810   1.000
    H124    H    0.67850   0.86640   0.06840   1.000
    C87     C    0.82430   0.90370   0.76050   1.000
    C88     C    0.88640   0.98200   0.75540   1.000
    C89     C    0.92260   0.02040   0.81550   1.000
    H125    H    0.90270   0.00130   0.86030   1.000
    C90     C    0.91390   0.01270   0.68990   1.000
    H126    H    0.88720   0.98890   0.64880   1.000
    O19     O    0.71583   0.62053   0.70544   1.000
    O20     O    0.68176   0.63385   0.81912   1.000
    C91     C    0.80740   0.67560   0.97160   1.000
    H127    H    0.86930   0.68330   0.95420   1.000
    H128    H    0.78430   0.61770   0.95390   1.000
    C92     C    0.80750   0.67480   0.05100   1.000
    H129    H    0.78420   0.61670   0.06810   1.000
    H130    H    0.86960   0.68190   0.06840   1.000
    C93     C    0.83530   0.71400   0.05200   1.000
    H131    H    0.84380   0.65220   0.06950   1.000
    H132    H    0.75100   0.61450   0.06930   1.000
    C94     C    0.78630   0.83560   0.97300   1.000
    H133    H    0.75040   0.61380   0.95580   1.000
    H134    H    0.84420   0.65170   0.95590   1.000
    C95     C    0.65800   0.73600   0.97210   1.000
    H135    H    0.82200   0.63470   0.95480   1.000
    H136    H    0.88160   0.71590   0.95450   1.000
    C96     C    0.76380   0.65750   0.05110   1.000
    H137    H    0.88210   0.71530   0.06810   1.000
    H138    H    0.82150   0.63360   0.06840   1.000
    C97     C    0.67570   0.59630   0.76050   1.000
    C98     C    0.61360   0.51800   0.75540   1.000
    C99     C    0.57740   0.47960   0.81550   1.000
    H139    H    0.59730   0.49870   0.86030   1.000
    C100    C    0.58610   0.48730   0.68990   1.000
    H140    H    0.61280   0.51110   0.64880   1.000
    O21     O    0.62053   0.78417   0.70544   1.000
    O22     O    0.63385   0.81824   0.81912   1.000
    C101    C    0.67560   0.69260   0.97160   1.000
    H141    H    0.68330   0.63070   0.95420   1.000
    H142    H    0.61770   0.71570   0.95390   1.000
    C102    C    0.67480   0.69250   0.05100   1.000
    H143    H    0.61670   0.71580   0.06810   1.000
    H144    H    0.68190   0.63040   0.06840   1.000
    C103    C    0.71400   0.66470   0.05200   1.000
    H145    H    0.65220   0.65620   0.06950   1.000
    H146    H    0.61450   0.74900   0.06930   1.000
    C104    C    0.83560   0.71370   0.97300   1.000
    H147    H    0.61380   0.74960   0.95580   1.000
    H148    H    0.65170   0.65580   0.95590   1.000
    C105    C    0.73600   0.84200   0.97210   1.000
    H149    H    0.63470   0.67800   0.95480   1.000
    H150    H    0.71590   0.61840   0.95450   1.000
    C106    C    0.65750   0.73620   0.05110   1.000
    H151    H    0.71530   0.61790   0.06810   1.000
    H152    H    0.63360   0.67850   0.06840   1.000
    C107    C    0.59630   0.82430   0.76050   1.000
    C108    C    0.51800   0.88640   0.75540   1.000
    C109    C    0.47960   0.92260   0.81550   1.000
    H153    H    0.49870   0.90270   0.86030   1.000
    C110    C    0.48730   0.91390   0.68990   1.000
    H154    H    0.51110   0.88720   0.64880   1.000
    O23     O    0.87947   0.71583   0.70544   1.000
    O24     O    0.86615   0.68176   0.81912   1.000
    C111    C    0.82440   0.80740   0.97160   1.000
    H155    H    0.81670   0.86930   0.95420   1.000
    H156    H    0.88230   0.78430   0.95390   1.000
    C112    C    0.82520   0.80750   0.05100   1.000
    H157    H    0.88330   0.78420   0.06810   1.000
    H158    H    0.81810   0.86960   0.06840   1.000
    C113    C    0.78600   0.83530   0.05200   1.000
    H159    H    0.84780   0.84380   0.06950   1.000
    H160    H    0.88550   0.75100   0.06930   1.000
    C114    C    0.66440   0.78630   0.97300   1.000
    H161    H    0.88620   0.75040   0.95580   1.000
    H162    H    0.84830   0.84420   0.95590   1.000
    C115    C    0.76400   0.65800   0.97210   1.000
    H163    H    0.86530   0.82200   0.95480   1.000
    H164    H    0.78410   0.88160   0.95450   1.000
    C116    C    0.84250   0.76380   0.05110   1.000
    H165    H    0.78470   0.88210   0.06810   1.000
    H166    H    0.86640   0.82150   0.06840   1.000
    C117    C    0.90370   0.67570   0.76050   1.000
    C118    C    0.98200   0.61360   0.75540   1.000
    C119    C    0.02040   0.57740   0.81550   1.000
    H167    H    0.00130   0.59730   0.86030   1.000
    C120    C    0.01270   0.58610   0.68990   1.000
    H168    H    0.98890   0.61280   0.64880   1.000
    O25     O    0.21583   0.37947   0.79456   1.000
    O26     O    0.18176   0.36615   0.68088   1.000
    C121    C    0.30740   0.32440   0.52840   1.000
    H169    H    0.36930   0.31670   0.54580   1.000
    H170    H    0.28430   0.38230   0.54610   1.000
    C122    C    0.30750   0.32520   0.44900   1.000
    H171    H    0.28420   0.38330   0.43190   1.000
    H172    H    0.36960   0.31810   0.43160   1.000
    C123    C    0.33530   0.28600   0.44800   1.000
    H173    H    0.34380   0.34780   0.43050   1.000
    H174    H    0.25100   0.38550   0.43070   1.000
    C124    C    0.28630   0.16440   0.52700   1.000
    H175    H    0.25040   0.38620   0.54420   1.000
    H176    H    0.34420   0.34830   0.54410   1.000
    C125    C    0.15800   0.26400   0.52790   1.000
    H177    H    0.32200   0.36530   0.54520   1.000
    H178    H    0.38160   0.28410   0.54550   1.000
    C126    C    0.26380   0.34250   0.44890   1.000
    H179    H    0.38210   0.28470   0.43190   1.000
    H180    H    0.32150   0.36640   0.43160   1.000
    C127    C    0.17570   0.40370   0.73950   1.000
    C128    C    0.11360   0.48200   0.74460   1.000
    C129    C    0.07740   0.52040   0.68450   1.000
    H181    H    0.09730   0.50130   0.63970   1.000
    C130    C    0.08610   0.51270   0.81010   1.000
    H182    H    0.11280   0.48890   0.85120   1.000
    O27     O    0.28417   0.12053   0.79456   1.000
    O28     O    0.31824   0.13385   0.68088   1.000
    C131    C    0.19260   0.17560   0.52840   1.000
    H183    H    0.13070   0.18330   0.54580   1.000
    H184    H    0.21570   0.11770   0.54610   1.000
    C132    C    0.19250   0.17480   0.44900   1.000
    H185    H    0.21580   0.11670   0.43190   1.000
    H186    H    0.13040   0.18190   0.43160   1.000
    C133    C    0.16470   0.21400   0.44800   1.000
    H187    H    0.15620   0.15220   0.43050   1.000
    H188    H    0.24900   0.11450   0.43070   1.000
    C134    C    0.21370   0.33560   0.52700   1.000
    H189    H    0.24960   0.11380   0.54420   1.000
    H190    H    0.15580   0.15170   0.54410   1.000
    C135    C    0.34200   0.23600   0.52790   1.000
    H191    H    0.17800   0.13470   0.54520   1.000
    H192    H    0.11840   0.21590   0.54550   1.000
    C136    C    0.23620   0.15750   0.44890   1.000
    H193    H    0.11790   0.21530   0.43190   1.000
    H194    H    0.17850   0.13360   0.43160   1.000
    C137    C    0.32430   0.09630   0.73950   1.000
    C138    C    0.38640   0.01800   0.74460   1.000
    C139    C    0.42260   0.97960   0.68450   1.000
    H195    H    0.40270   0.99870   0.63970   1.000
    C140    C    0.41390   0.98730   0.81010   1.000
    H196    H    0.38720   0.01110   0.85120   1.000
    O29     O    0.37947   0.28417   0.79456   1.000
    O30     O    0.36615   0.31824   0.68088   1.000
    C141    C    0.32440   0.19260   0.52840   1.000
    H197    H    0.31670   0.13070   0.54580   1.000
    H198    H    0.38230   0.21570   0.54610   1.000
    C142    C    0.32520   0.19250   0.44900   1.000
    H199    H    0.38330   0.21580   0.43190   1.000
    H200    H    0.31810   0.13040   0.43160   1.000
    C143    C    0.28600   0.16470   0.44800   1.000
    H201    H    0.34780   0.15620   0.43050   1.000
    H202    H    0.38550   0.24900   0.43070   1.000
    C144    C    0.16440   0.21370   0.52700   1.000
    H203    H    0.38620   0.24960   0.54420   1.000
    H204    H    0.34830   0.15580   0.54410   1.000
    C145    C    0.26400   0.34200   0.52790   1.000
    H205    H    0.36530   0.17800   0.54520   1.000
    H206    H    0.28410   0.11840   0.54550   1.000
    C146    C    0.34250   0.23620   0.44890   1.000
    H207    H    0.28470   0.11790   0.43190   1.000
    H208    H    0.36640   0.17850   0.43160   1.000
    C147    C    0.40370   0.32430   0.73950   1.000
    C148    C    0.48200   0.38640   0.74460   1.000
    C149    C    0.52040   0.42260   0.68450   1.000
    H209    H    0.50130   0.40270   0.63970   1.000
    C150    C    0.51270   0.41390   0.81010   1.000
    H210    H    0.48890   0.38720   0.85120   1.000
    O31     O    0.12053   0.21583   0.79456   1.000
    O32     O    0.13385   0.18176   0.68088   1.000
    C151    C    0.17560   0.30740   0.52840   1.000
    H211    H    0.18330   0.36930   0.54580   1.000
    H212    H    0.11770   0.28430   0.54610   1.000
    C152    C    0.17480   0.30750   0.44900   1.000
    H213    H    0.11670   0.28420   0.43190   1.000
    H214    H    0.18190   0.36960   0.43160   1.000
    C153    C    0.21400   0.33530   0.44800   1.000
    H215    H    0.15220   0.34380   0.43050   1.000
    H216    H    0.11450   0.25100   0.43070   1.000
    C154    C    0.33560   0.28630   0.52700   1.000
    H217    H    0.11380   0.25040   0.54420   1.000
    H218    H    0.15170   0.34420   0.54410   1.000
    C155    C    0.23600   0.15800   0.52790   1.000
    H219    H    0.13470   0.32200   0.54520   1.000
    H220    H    0.21590   0.38160   0.54550   1.000
    C156    C    0.15750   0.26380   0.44890   1.000
    H221    H    0.21530   0.38210   0.43190   1.000
    H222    H    0.13360   0.32150   0.43160   1.000
    C157    C    0.09630   0.17570   0.73950   1.000
    C158    C    0.01800   0.11360   0.74460   1.000
    C159    C    0.97960   0.07740   0.68450   1.000
    H223    H    0.99870   0.09730   0.63970   1.000
    C160    C    0.98730   0.08610   0.81010   1.000
    H224    H    0.01110   0.11280   0.85120   1.000
    Cu1     Cu   0.25000   0.25000   0.16175   1.000
    Cu2     Cu   0.25000   0.25000   0.31481   1.000
    N1      N    0.25000   0.25000   0.05480   1.000
    N2      N    0.25000   0.25000   0.92130   1.000
    Zn1     Zn   0.25000   0.25000   0.81481   1.000
    Cu3     Cu   0.75000   0.75000   0.33825   1.000
    Cu4     Cu   0.75000   0.75000   0.18519   1.000
    N3      N    0.75000   0.75000   0.44520   1.000
    N4      N    0.75000   0.75000   0.57870   1.000
    Zn2     Zn   0.75000   0.75000   0.68519   1.000
    Cu5     Cu   0.75000   0.75000   0.83825   1.000
    N5      N    0.75000   0.75000   0.94520   1.000
    N6      N    0.75000   0.75000   0.07870   1.000
    Cu6     Cu   0.25000   0.25000   0.66175   1.000
    N7      N    0.25000   0.25000   0.55480   1.000
    N8      N    0.25000   0.25000   0.42130   1.000
