# CIF file generated by openbabel 2.4.1, see http://openbabel.sf.net
data_I
_chemical_name_common 'image0'
_cell_length_a 52.022
_cell_length_b 52.022
_cell_length_c 42.316
_cell_angle_alpha 90
_cell_angle_beta 90
_cell_angle_gamma 120
_space_group_name_H-M_alt 'P 1'
_space_group_name_Hall 'P 1'
loop_
    _symmetry_equiv_pos_as_xyz
    x,y,z
loop_
    _atom_site_label
    _atom_site_type_symbol
    _atom_site_fract_x
    _atom_site_fract_y
    _atom_site_fract_z
    _atom_site_occupancy
    Zn1     Zn   0.20796   0.35671   0.25799   1.000
    Zn2     Zn   0.14742   0.30703   0.28706   1.000
    Zn3     Zn   0.36516   0.66092   0.72810   1.000
    O1      O    0.17654   0.32442   0.32146   1.000
    O2      O    0.21832   0.35699   0.30295   1.000
    O3      O    0.23388   0.34757   0.23179   1.000
    O4      O    0.11605   0.31443   0.29999   1.000
    O5      O    0.33101   0.62854   0.69092   1.000
    O6      O    0.33910   0.61155   0.73345   1.000
    O7      O    0.22039   0.39862   0.24841   1.000
    O8      O    0.12827   0.26587   0.27560   1.000
    O9      O    0.18239   0.31056   0.26933   1.000
    C1      C    0.28431   0.39102   0.54708   1.000
    C2      C    0.28979   0.37105   0.56337   1.000
    H1      H    0.28680   0.35380   0.55350   1.000
    C3      C    0.29979   0.37688   0.59442   1.000
    C4      C    0.30431   0.40268   0.60919   1.000
    H2      H    0.31100   0.40660   0.63000   1.000
    C5      C    0.29883   0.42265   0.59290   1.000
    C6      C    0.28883   0.41682   0.56185   1.000
    H3      H    0.28520   0.43020   0.55090   1.000
    C7      C    0.24957   0.37122   0.45209   1.000
    C8      C    0.24170   0.34820   0.47351   1.000
    H4      H    0.22910   0.32870   0.46730   1.000
    C9      C    0.25263   0.35439   0.50420   1.000
    H5      H    0.24740   0.33900   0.51850   1.000
    C10     C    0.27143   0.38358   0.51350   1.000
    C11     C    0.27929   0.40658   0.49209   1.000
    H6      H    0.29190   0.42610   0.49830   1.000
    C12     C    0.26837   0.40041   0.46138   1.000
    H7      H    0.27360   0.41580   0.44710   1.000
    C13     C    0.21481   0.35098   0.35695   1.000
    C14     C    0.19745   0.33527   0.38269   1.000
    H8      H    0.17790   0.32040   0.37960   1.000
    C15     C    0.20933   0.34187   0.41300   1.000
    H9      H    0.19770   0.33140   0.43020   1.000
    C16     C    0.23856   0.36418   0.41756   1.000
    C17     C    0.25592   0.37989   0.39182   1.000
    H10     H    0.27550   0.39480   0.39490   1.000
    C18     C    0.24405   0.37329   0.36151   1.000
    H11     H    0.25570   0.38380   0.34430   1.000
    C19     C    0.20020   0.34619   0.32480   1.000
    C20     C    0.30605   0.35645   0.61265   1.000
    C21     C    0.29349   0.32782   0.60060   1.000
    H12     H    0.28270   0.32300   0.58190   1.000
    C22     C    0.29709   0.30646   0.61652   1.000
    H13     H    0.28870   0.28730   0.60850   1.000
    C23     C    0.31324   0.31372   0.64449   1.000
    C24     C    0.32580   0.34235   0.65654   1.000
    H14     H    0.33660   0.34720   0.67530   1.000
    C25     C    0.32220   0.36372   0.64062   1.000
    H15     H    0.33060   0.38290   0.64870   1.000
    C26     C    0.31712   0.28841   0.65852   1.000
    C27     C    0.30435   0.25865   0.65027   1.000
    H16     H    0.29210   0.25140   0.63260   1.000
    C28     C    0.30987   0.23965   0.66839   1.000
    H17     H    0.30130   0.21970   0.66290   1.000
    C29     C    0.32816   0.25040   0.69477   1.000
    C30     C    0.34093   0.28017   0.70302   1.000
    H18     H    0.35320   0.28740   0.72070   1.000
    C31     C    0.33541   0.29917   0.68490   1.000
    H19     H    0.34400   0.31910   0.69040   1.000
    C32     C    0.22500   0.32991   0.21005   1.000
    C33     C    0.30530   0.45231   0.60860   1.000
    C34     C    0.32890   0.46710   0.62940   1.000
    H20     H    0.34160   0.45970   0.63340   1.000
    C35     C    0.33360   0.49290   0.64430   1.000
    H21     H    0.34940   0.50280   0.65820   1.000
    C36     C    0.31460   0.50390   0.63840   1.000
    C37     C    0.29100   0.48910   0.61750   1.000
    H22     H    0.27830   0.49650   0.61350   1.000
    C38     C    0.28640   0.46330   0.60260   1.000
    H23     H    0.27060   0.45350   0.58870   1.000
    C39     C    0.31676   0.52858   0.65497   1.000
    C40     C    0.34114   0.54427   0.67465   1.000
    H24     H    0.35430   0.53740   0.67810   1.000
    C41     C    0.34581   0.57024   0.68914   1.000
    H25     H    0.36210   0.58070   0.70230   1.000
    C42     C    0.32612   0.58053   0.68395   1.000
    C43     C    0.30175   0.56484   0.66427   1.000
    H26     H    0.28860   0.57170   0.66080   1.000
    C44     C    0.29707   0.53886   0.64979   1.000
    H27     H    0.28080   0.52840   0.63660   1.000
    C45     C    0.33040   0.60620   0.70440   1.000
    C46     C    0.25154   0.45922   0.24744   1.000
    H28     H    0.26190   0.44900   0.24560   1.000
    C47     C    0.26733   0.48989   0.24739   1.000
    H29     H    0.28790   0.49960   0.24560   1.000
    C48     C    0.30049   0.55750   0.24500   1.000
    H30     H    0.31060   0.54760   0.23990   1.000
    C49     C    0.31591   0.58787   0.24730   1.000
    H31     H    0.33650   0.59800   0.24690   1.000
    C50     C    0.10700   0.20630   0.22281   1.000
    H32     H    0.11540   0.21670   0.20430   1.000
    C51     C    0.09090   0.17520   0.22279   1.000
    H33     H    0.08760   0.16510   0.20380   1.000
    C52     C    0.03344   0.10950   0.25790   1.000
    H34     H    0.02320   0.11950   0.26200   1.000
    C53     C    0.01900   0.07940   0.25980   1.000
    H35     H    0.99980   0.06900   0.26790   1.000
    O10     O    0.30530   0.60720   0.70460   1.000
    O11     O    0.35290   0.62476   0.70980   1.000
    C54     C    0.30570   0.45520   0.64060   1.000
    H36     H    0.30270   0.43970   0.65390   1.000
    C55     C    0.31090   0.48220   0.65240   1.000
    H37     H    0.31150   0.48370   0.67430   1.000
    C56     C    0.30770   0.49920   0.60870   1.000
    H38     H    0.30190   0.51120   0.59830   1.000
    C57     C    0.30860   0.47660   0.59160   1.000
    H39     H    0.31130   0.47780   0.56990   1.000
    Zn4     Zn   0.64329   0.85126   0.25799   1.000
    Zn5     Zn   0.69297   0.84038   0.28706   1.000
    Zn6     Zn   0.33908   0.70424   0.72810   1.000
    O12     O    0.67558   0.85212   0.32146   1.000
    O13     O    0.64301   0.86133   0.30295   1.000
    O14     O    0.65243   0.88631   0.23179   1.000
    O15     O    0.68557   0.80162   0.29999   1.000
    O16     O    0.37146   0.70247   0.69092   1.000
    O17     O    0.38845   0.72755   0.73345   1.000
    O18     O    0.60138   0.82177   0.24841   1.000
    O19     O    0.73413   0.86240   0.27560   1.000
    O20     O    0.68944   0.87183   0.26933   1.000
    C58     C    0.60898   0.89329   0.54708   1.000
    C59     C    0.62895   0.91874   0.56337   1.000
    H40     H    0.64620   0.93300   0.55350   1.000
    C60     C    0.62312   0.92291   0.59442   1.000
    C61     C    0.59732   0.90163   0.60919   1.000
    H41     H    0.59340   0.90440   0.63000   1.000
    C62     C    0.57735   0.87618   0.59290   1.000
    C63     C    0.58318   0.87201   0.56185   1.000
    H42     H    0.56980   0.85500   0.55090   1.000
    C64     C    0.62878   0.87835   0.45209   1.000
    C65     C    0.65180   0.89350   0.47351   1.000
    H43     H    0.67130   0.90040   0.46730   1.000
    C66     C    0.64561   0.89824   0.50420   1.000
    H44     H    0.66100   0.90840   0.51850   1.000
    C67     C    0.61642   0.88785   0.51350   1.000
    C68     C    0.59342   0.87271   0.49209   1.000
    H45     H    0.57390   0.86580   0.49830   1.000
    C69     C    0.59959   0.86796   0.46138   1.000
    H46     H    0.58420   0.85780   0.44710   1.000
    C70     C    0.64902   0.86383   0.35695   1.000
    C71     C    0.66473   0.86218   0.38269   1.000
    H47     H    0.67960   0.85750   0.37960   1.000
    C72     C    0.65813   0.86746   0.41300   1.000
    H48     H    0.66860   0.86630   0.43020   1.000
    C73     C    0.63582   0.87438   0.41756   1.000
    C74     C    0.62011   0.87603   0.39182   1.000
    H49     H    0.60520   0.88070   0.39490   1.000
    C75     C    0.62671   0.87076   0.36151   1.000
    H50     H    0.61620   0.87190   0.34430   1.000
    C76     C    0.65381   0.85401   0.32480   1.000
    C77     C    0.64355   0.94960   0.61265   1.000
    C78     C    0.67218   0.96567   0.60060   1.000
    H51     H    0.67700   0.95970   0.58190   1.000
    C79     C    0.69354   0.99063   0.61652   1.000
    H52     H    0.71270   0.00140   0.60850   1.000
    C80     C    0.68628   0.99952   0.64449   1.000
    C81     C    0.65765   0.98345   0.65654   1.000
    H53     H    0.65280   0.98940   0.67530   1.000
    C82     C    0.63628   0.95848   0.64062   1.000
    H54     H    0.61710   0.94770   0.64870   1.000
    C83     C    0.71159   0.02871   0.65852   1.000
    C84     C    0.74135   0.04570   0.65027   1.000
    H55     H    0.74860   0.04070   0.63260   1.000
    C85     C    0.76035   0.07022   0.66839   1.000
    H56     H    0.78030   0.08160   0.66290   1.000
    C86     C    0.74960   0.07776   0.69477   1.000
    C87     C    0.71983   0.06076   0.70302   1.000
    H57     H    0.71260   0.06580   0.72070   1.000
    C88     C    0.70083   0.03624   0.68490   1.000
    H58     H    0.68090   0.02490   0.69040   1.000
    C89     C    0.67009   0.89509   0.21005   1.000
    C90     C    0.54769   0.85299   0.60860   1.000
    C91     C    0.53290   0.86180   0.62940   1.000
    H59     H    0.54030   0.88190   0.63340   1.000
    C92     C    0.50710   0.84070   0.64430   1.000
    H60     H    0.49720   0.84660   0.65820   1.000
    C93     C    0.49610   0.81070   0.63840   1.000
    C94     C    0.51090   0.80190   0.61750   1.000
    H61     H    0.50350   0.78180   0.61350   1.000
    C95     C    0.53670   0.82310   0.60260   1.000
    H62     H    0.54650   0.81710   0.58870   1.000
    C96     C    0.47142   0.78818   0.65497   1.000
    C97     C    0.45573   0.79687   0.67465   1.000
    H63     H    0.46260   0.81690   0.67810   1.000
    C98     C    0.42976   0.77557   0.68914   1.000
    H64     H    0.41930   0.78140   0.70230   1.000
    C99     C    0.41947   0.74559   0.68395   1.000
    C100    C    0.43516   0.73691   0.66427   1.000
    H65     H    0.42830   0.71690   0.66080   1.000
    C101    C    0.46114   0.75821   0.64979   1.000
    H66     H    0.47160   0.75240   0.63660   1.000
    C102    C    0.39380   0.72420   0.70440   1.000
    C103    C    0.54078   0.79232   0.24744   1.000
    H67     H    0.55100   0.81290   0.24560   1.000
    C104    C    0.51011   0.77744   0.24739   1.000
    H68     H    0.50040   0.78830   0.24560   1.000
    C105    C    0.44250   0.74299   0.24500   1.000
    H69     H    0.45240   0.76300   0.23990   1.000
    C106    C    0.41213   0.72804   0.24730   1.000
    H70     H    0.40200   0.73850   0.24690   1.000
    C107    C    0.79370   0.90070   0.22281   1.000
    H71     H    0.78330   0.89870   0.20430   1.000
    C108    C    0.82480   0.91570   0.22279   1.000
    H72     H    0.83490   0.92250   0.20380   1.000
    C109    C    0.89050   0.92394   0.25790   1.000
    H73     H    0.88050   0.90370   0.26200   1.000
    C110    C    0.92060   0.93960   0.25980   1.000
    H74     H    0.93100   0.93080   0.26790   1.000
    O21     O    0.39280   0.69810   0.70460   1.000
    O22     O    0.37524   0.72814   0.70980   1.000
    C111    C    0.54480   0.85050   0.64060   1.000
    H75     H    0.56030   0.86300   0.65390   1.000
    C112    C    0.51780   0.82870   0.65240   1.000
    H76     H    0.51630   0.82780   0.67430   1.000
    C113    C    0.50080   0.80850   0.60870   1.000
    H77     H    0.48880   0.79070   0.59830   1.000
    C114    C    0.52340   0.83200   0.59160   1.000
    H78     H    0.52220   0.83350   0.56990   1.000
    Zn7     Zn   0.14874   0.79204   0.25799   1.000
    Zn8     Zn   0.15962   0.85258   0.28706   1.000
    Zn9     Zn   0.29576   0.63484   0.72810   1.000
    O23     O    0.14788   0.82346   0.32146   1.000
    O24     O    0.13867   0.78168   0.30295   1.000
    O25     O    0.11369   0.76612   0.23179   1.000
    O26     O    0.19838   0.88395   0.29999   1.000
    O27     O    0.29753   0.66899   0.69092   1.000
    O28     O    0.27245   0.66090   0.73345   1.000
    O29     O    0.17823   0.77961   0.24841   1.000
    O30     O    0.13760   0.87173   0.27560   1.000
    O31     O    0.12817   0.81761   0.26933   1.000
    C115    C    0.10671   0.71569   0.54708   1.000
    C116    C    0.08126   0.71021   0.56337   1.000
    H79     H    0.06700   0.71320   0.55350   1.000
    C117    C    0.07709   0.70021   0.59442   1.000
    C118    C    0.09837   0.69569   0.60919   1.000
    H80     H    0.09560   0.68900   0.63000   1.000
    C119    C    0.12382   0.70117   0.59290   1.000
    C120    C    0.12799   0.71117   0.56185   1.000
    H81     H    0.14500   0.71480   0.55090   1.000
    C121    C    0.12165   0.75043   0.45209   1.000
    C122    C    0.10650   0.75830   0.47351   1.000
    H82     H    0.09960   0.77090   0.46730   1.000
    C123    C    0.10176   0.74737   0.50420   1.000
    H83     H    0.09160   0.75260   0.51850   1.000
    C124    C    0.11215   0.72857   0.51350   1.000
    C125    C    0.12729   0.72071   0.49209   1.000
    H84     H    0.13420   0.70810   0.49830   1.000
    C126    C    0.13204   0.73163   0.46138   1.000
    H85     H    0.14220   0.72640   0.44710   1.000
    C127    C    0.13617   0.78519   0.35695   1.000
    C128    C    0.13782   0.80255   0.38269   1.000
    H86     H    0.14250   0.82210   0.37960   1.000
    C129    C    0.13254   0.79067   0.41300   1.000
    H87     H    0.13370   0.80230   0.43020   1.000
    C130    C    0.12562   0.76144   0.41756   1.000
    C131    C    0.12397   0.74408   0.39182   1.000
    H88     H    0.11930   0.72450   0.39490   1.000
    C132    C    0.12924   0.75595   0.36151   1.000
    H89     H    0.12810   0.74430   0.34430   1.000
    C133    C    0.14599   0.79980   0.32480   1.000
    C134    C    0.05040   0.69395   0.61265   1.000
    C135    C    0.03433   0.70651   0.60060   1.000
    H90     H    0.04030   0.71730   0.58190   1.000
    C136    C    0.00937   0.70291   0.61652   1.000
    H91     H    0.99860   0.71130   0.60850   1.000
    C137    C    0.00048   0.68676   0.64449   1.000
    C138    C    0.01655   0.67420   0.65654   1.000
    H92     H    0.01060   0.66340   0.67530   1.000
    C139    C    0.04152   0.67780   0.64062   1.000
    H93     H    0.05230   0.66940   0.64870   1.000
    C140    C    0.97129   0.68288   0.65852   1.000
    C141    C    0.95430   0.69565   0.65027   1.000
    H94     H    0.95930   0.70790   0.63260   1.000
    C142    C    0.92978   0.69013   0.66839   1.000
    H95     H    0.91840   0.69870   0.66290   1.000
    C143    C    0.92224   0.67184   0.69477   1.000
    C144    C    0.93924   0.65907   0.70302   1.000
    H96     H    0.93420   0.64680   0.72070   1.000
    C145    C    0.96376   0.66459   0.68490   1.000
    H97     H    0.97510   0.65600   0.69040   1.000
    C146    C    0.10491   0.77500   0.21005   1.000
    C147    C    0.14701   0.69470   0.60860   1.000
    C148    C    0.13820   0.67110   0.62940   1.000
    H98     H    0.11810   0.65840   0.63340   1.000
    C149    C    0.15930   0.66640   0.64430   1.000
    H99     H    0.15340   0.65060   0.65820   1.000
    C150    C    0.18930   0.68540   0.63840   1.000
    C151    C    0.19810   0.70900   0.61750   1.000
    H100    H    0.21820   0.72170   0.61350   1.000
    C152    C    0.17690   0.71360   0.60260   1.000
    H101    H    0.18290   0.72940   0.58870   1.000
    C153    C    0.21182   0.68324   0.65497   1.000
    C154    C    0.20313   0.65886   0.67465   1.000
    H102    H    0.18310   0.64570   0.67810   1.000
    C155    C    0.22443   0.65419   0.68914   1.000
    H103    H    0.21860   0.63790   0.70230   1.000
    C156    C    0.25441   0.67388   0.68395   1.000
    C157    C    0.26309   0.69825   0.66427   1.000
    H104    H    0.28310   0.71140   0.66080   1.000
    C158    C    0.24179   0.70293   0.64979   1.000
    H105    H    0.24760   0.71920   0.63660   1.000
    C159    C    0.27580   0.66960   0.70440   1.000
    C160    C    0.20768   0.74846   0.24744   1.000
    H106    H    0.18710   0.73810   0.24560   1.000
    C161    C    0.22256   0.73267   0.24739   1.000
    H107    H    0.21170   0.71210   0.24560   1.000
    C162    C    0.25701   0.69951   0.24500   1.000
    H108    H    0.23700   0.68940   0.23990   1.000
    C163    C    0.27196   0.68409   0.24730   1.000
    H109    H    0.26150   0.66350   0.24690   1.000
    C164    C    0.09930   0.89300   0.22281   1.000
    H110    H    0.10130   0.88460   0.20430   1.000
    C165    C    0.08430   0.90910   0.22279   1.000
    H111    H    0.07750   0.91240   0.20380   1.000
    C166    C    0.07606   0.96656   0.25790   1.000
    H112    H    0.09630   0.97680   0.26200   1.000
    C167    C    0.06040   0.98100   0.25980   1.000
    H113    H    0.06920   0.00020   0.26790   1.000
    O32     O    0.30190   0.69470   0.70460   1.000
    O33     O    0.27186   0.64710   0.70980   1.000
    C168    C    0.14950   0.69430   0.64060   1.000
    H114    H    0.13700   0.69730   0.65390   1.000
    C169    C    0.17130   0.68910   0.65240   1.000
    H115    H    0.17220   0.68850   0.67430   1.000
    C170    C    0.19150   0.69230   0.60870   1.000
    H116    H    0.20930   0.69810   0.59830   1.000
    C171    C    0.16800   0.69140   0.59160   1.000
    H117    H    0.16650   0.68870   0.56990   1.000
    Zn10    Zn   0.64329   0.79204   0.24201   1.000
    Zn11    Zn   0.69297   0.85258   0.21294   1.000
    Zn12    Zn   0.33908   0.63484   0.77190   1.000
    O34     O    0.67558   0.82346   0.17854   1.000
    O35     O    0.64301   0.78168   0.19705   1.000
    O36     O    0.65243   0.76612   0.26821   1.000
    O37     O    0.68557   0.88395   0.20001   1.000
    O38     O    0.37146   0.66899   0.80908   1.000
    O39     O    0.38845   0.66090   0.76655   1.000
    O40     O    0.60138   0.77961   0.25159   1.000
    O41     O    0.73413   0.87173   0.22440   1.000
    O42     O    0.68944   0.81761   0.23067   1.000
    C172    C    0.60898   0.71569   0.95292   1.000
    C173    C    0.62895   0.71021   0.93663   1.000
    H118    H    0.64620   0.71320   0.94650   1.000
    C174    C    0.62312   0.70021   0.90558   1.000
    C175    C    0.59732   0.69569   0.89081   1.000
    H119    H    0.59340   0.68900   0.87000   1.000
    C176    C    0.57735   0.70117   0.90710   1.000
    C177    C    0.58318   0.71117   0.93815   1.000
    H120    H    0.56980   0.71480   0.94910   1.000
    C178    C    0.62878   0.75043   0.04791   1.000
    C179    C    0.65180   0.75830   0.02649   1.000
    H121    H    0.67130   0.77090   0.03270   1.000
    C180    C    0.64561   0.74737   0.99580   1.000
    H122    H    0.66100   0.75260   0.98150   1.000
    C181    C    0.61642   0.72857   0.98650   1.000
    C182    C    0.59342   0.72071   0.00791   1.000
    H123    H    0.57390   0.70810   0.00170   1.000
    C183    C    0.59959   0.73163   0.03862   1.000
    H124    H    0.58420   0.72640   0.05290   1.000
    C184    C    0.64902   0.78519   0.14305   1.000
    C185    C    0.66473   0.80255   0.11731   1.000
    H125    H    0.67960   0.82210   0.12040   1.000
    C186    C    0.65813   0.79067   0.08700   1.000
    H126    H    0.66860   0.80230   0.06980   1.000
    C187    C    0.63582   0.76144   0.08244   1.000
    C188    C    0.62011   0.74408   0.10818   1.000
    H127    H    0.60520   0.72450   0.10510   1.000
    C189    C    0.62671   0.75595   0.13849   1.000
    H128    H    0.61620   0.74430   0.15570   1.000
    C190    C    0.65381   0.79980   0.17520   1.000
    C191    C    0.64355   0.69395   0.88735   1.000
    C192    C    0.67218   0.70651   0.89940   1.000
    H129    H    0.67700   0.71730   0.91810   1.000
    C193    C    0.69354   0.70291   0.88348   1.000
    H130    H    0.71270   0.71130   0.89150   1.000
    C194    C    0.68628   0.68676   0.85551   1.000
    C195    C    0.65765   0.67420   0.84346   1.000
    H131    H    0.65280   0.66340   0.82470   1.000
    C196    C    0.63628   0.67780   0.85938   1.000
    H132    H    0.61710   0.66940   0.85130   1.000
    C197    C    0.71159   0.68288   0.84148   1.000
    C198    C    0.74135   0.69565   0.84973   1.000
    H133    H    0.74860   0.70790   0.86740   1.000
    C199    C    0.76035   0.69013   0.83161   1.000
    H134    H    0.78030   0.69870   0.83710   1.000
    C200    C    0.74960   0.67184   0.80523   1.000
    C201    C    0.71983   0.65907   0.79698   1.000
    H135    H    0.71260   0.64680   0.77930   1.000
    C202    C    0.70083   0.66459   0.81510   1.000
    H136    H    0.68090   0.65600   0.80960   1.000
    C203    C    0.67009   0.77500   0.28995   1.000
    C204    C    0.54769   0.69470   0.89140   1.000
    C205    C    0.53290   0.67110   0.87060   1.000
    H137    H    0.54030   0.65840   0.86660   1.000
    C206    C    0.50710   0.66640   0.85570   1.000
    H138    H    0.49720   0.65060   0.84180   1.000
    C207    C    0.49610   0.68540   0.86160   1.000
    C208    C    0.51090   0.70900   0.88250   1.000
    H139    H    0.50350   0.72170   0.88650   1.000
    C209    C    0.53670   0.71360   0.89740   1.000
    H140    H    0.54650   0.72940   0.91130   1.000
    C210    C    0.47142   0.68324   0.84503   1.000
    C211    C    0.45573   0.65886   0.82535   1.000
    H141    H    0.46260   0.64570   0.82190   1.000
    C212    C    0.42976   0.65419   0.81086   1.000
    H142    H    0.41930   0.63790   0.79770   1.000
    C213    C    0.41947   0.67388   0.81605   1.000
    C214    C    0.43516   0.69825   0.83573   1.000
    H143    H    0.42830   0.71140   0.83920   1.000
    C215    C    0.46114   0.70293   0.85021   1.000
    H144    H    0.47160   0.71920   0.86340   1.000
    C216    C    0.39380   0.66960   0.79560   1.000
    C217    C    0.54078   0.74846   0.25256   1.000
    H145    H    0.55100   0.73810   0.25440   1.000
    C218    C    0.51011   0.73267   0.25261   1.000
    H146    H    0.50040   0.71210   0.25440   1.000
    C219    C    0.44250   0.69951   0.25500   1.000
    H147    H    0.45240   0.68940   0.26010   1.000
    C220    C    0.41213   0.68409   0.25270   1.000
    H148    H    0.40200   0.66350   0.25310   1.000
    C221    C    0.79370   0.89300   0.27719   1.000
    H149    H    0.78330   0.88460   0.29570   1.000
    C222    C    0.82480   0.90910   0.27721   1.000
    H150    H    0.83490   0.91240   0.29620   1.000
    C223    C    0.89050   0.96656   0.24210   1.000
    H151    H    0.88050   0.97680   0.23800   1.000
    C224    C    0.92060   0.98100   0.24020   1.000
    H152    H    0.93100   0.00020   0.23210   1.000
    O43     O    0.39280   0.69470   0.79540   1.000
    O44     O    0.37524   0.64710   0.79020   1.000
    C225    C    0.54480   0.69430   0.85940   1.000
    H153    H    0.56030   0.69730   0.84610   1.000
    C226    C    0.51780   0.68910   0.84760   1.000
    H154    H    0.51630   0.68850   0.82570   1.000
    C227    C    0.50080   0.69230   0.89130   1.000
    H155    H    0.48880   0.69810   0.90170   1.000
    C228    C    0.52340   0.69140   0.90840   1.000
    H156    H    0.52220   0.68870   0.93010   1.000
    Zn13    Zn   0.14874   0.35671   0.24201   1.000
    Zn14    Zn   0.15962   0.30703   0.21294   1.000
    Zn15    Zn   0.29576   0.66092   0.77190   1.000
    O45     O    0.14788   0.32442   0.17854   1.000
    O46     O    0.13867   0.35699   0.19705   1.000
    O47     O    0.11369   0.34757   0.26821   1.000
    O48     O    0.19838   0.31443   0.20001   1.000
    O49     O    0.29753   0.62854   0.80908   1.000
    O50     O    0.27245   0.61155   0.76655   1.000
    O51     O    0.17823   0.39862   0.25159   1.000
    O52     O    0.13760   0.26587   0.22440   1.000
    O53     O    0.12817   0.31056   0.23067   1.000
    C229    C    0.10671   0.39102   0.95292   1.000
    C230    C    0.08126   0.37105   0.93663   1.000
    H157    H    0.06700   0.35380   0.94650   1.000
    C231    C    0.07709   0.37688   0.90558   1.000
    C232    C    0.09837   0.40268   0.89081   1.000
    H158    H    0.09560   0.40660   0.87000   1.000
    C233    C    0.12382   0.42265   0.90710   1.000
    C234    C    0.12799   0.41682   0.93815   1.000
    H159    H    0.14500   0.43020   0.94910   1.000
    C235    C    0.12165   0.37122   0.04791   1.000
    C236    C    0.10650   0.34820   0.02649   1.000
    H160    H    0.09960   0.32870   0.03270   1.000
    C237    C    0.10176   0.35439   0.99580   1.000
    H161    H    0.09160   0.33900   0.98150   1.000
    C238    C    0.11215   0.38358   0.98650   1.000
    C239    C    0.12729   0.40658   0.00791   1.000
    H162    H    0.13420   0.42610   0.00170   1.000
    C240    C    0.13204   0.40041   0.03862   1.000
    H163    H    0.14220   0.41580   0.05290   1.000
    C241    C    0.13617   0.35098   0.14305   1.000
    C242    C    0.13782   0.33527   0.11731   1.000
    H164    H    0.14250   0.32040   0.12040   1.000
    C243    C    0.13254   0.34187   0.08700   1.000
    H165    H    0.13370   0.33140   0.06980   1.000
    C244    C    0.12562   0.36418   0.08244   1.000
    C245    C    0.12397   0.37989   0.10818   1.000
    H166    H    0.11930   0.39480   0.10510   1.000
    C246    C    0.12924   0.37329   0.13849   1.000
    H167    H    0.12810   0.38380   0.15570   1.000
    C247    C    0.14599   0.34619   0.17520   1.000
    C248    C    0.05040   0.35645   0.88735   1.000
    C249    C    0.03433   0.32782   0.89940   1.000
    H168    H    0.04030   0.32300   0.91810   1.000
    C250    C    0.00937   0.30646   0.88348   1.000
    H169    H    0.99860   0.28730   0.89150   1.000
    C251    C    0.00048   0.31372   0.85551   1.000
    C252    C    0.01655   0.34235   0.84346   1.000
    H170    H    0.01060   0.34720   0.82470   1.000
    C253    C    0.04152   0.36372   0.85938   1.000
    H171    H    0.05230   0.38290   0.85130   1.000
    C254    C    0.97129   0.28841   0.84148   1.000
    C255    C    0.95430   0.25865   0.84973   1.000
    H172    H    0.95930   0.25140   0.86740   1.000
    C256    C    0.92978   0.23965   0.83161   1.000
    H173    H    0.91840   0.21970   0.83710   1.000
    C257    C    0.92224   0.25040   0.80523   1.000
    C258    C    0.93924   0.28017   0.79698   1.000
    H174    H    0.93420   0.28740   0.77930   1.000
    C259    C    0.96376   0.29917   0.81510   1.000
    H175    H    0.97510   0.31910   0.80960   1.000
    C260    C    0.10491   0.32991   0.28995   1.000
    C261    C    0.14701   0.45231   0.89140   1.000
    C262    C    0.13820   0.46710   0.87060   1.000
    H176    H    0.11810   0.45970   0.86660   1.000
    C263    C    0.15930   0.49290   0.85570   1.000
    H177    H    0.15340   0.50280   0.84180   1.000
    C264    C    0.18930   0.50390   0.86160   1.000
    C265    C    0.19810   0.48910   0.88250   1.000
    H178    H    0.21820   0.49650   0.88650   1.000
    C266    C    0.17690   0.46330   0.89740   1.000
    H179    H    0.18290   0.45350   0.91130   1.000
    C267    C    0.21182   0.52858   0.84503   1.000
    C268    C    0.20313   0.54427   0.82535   1.000
    H180    H    0.18310   0.53740   0.82190   1.000
    C269    C    0.22443   0.57024   0.81086   1.000
    H181    H    0.21860   0.58070   0.79770   1.000
    C270    C    0.25441   0.58053   0.81605   1.000
    C271    C    0.26309   0.56484   0.83573   1.000
    H182    H    0.28310   0.57170   0.83920   1.000
    C272    C    0.24179   0.53886   0.85021   1.000
    H183    H    0.24760   0.52840   0.86340   1.000
    C273    C    0.27580   0.60620   0.79560   1.000
    C274    C    0.20768   0.45922   0.25256   1.000
    H184    H    0.18710   0.44900   0.25440   1.000
    C275    C    0.22256   0.48989   0.25261   1.000
    H185    H    0.21170   0.49960   0.25440   1.000
    C276    C    0.25701   0.55750   0.25500   1.000
    H186    H    0.23700   0.54760   0.26010   1.000
    C277    C    0.27196   0.58787   0.25270   1.000
    H187    H    0.26150   0.59800   0.25310   1.000
    C278    C    0.09930   0.20630   0.27719   1.000
    H188    H    0.10130   0.21670   0.29570   1.000
    C279    C    0.08430   0.17520   0.27721   1.000
    H189    H    0.07750   0.16510   0.29620   1.000
    C280    C    0.07606   0.10950   0.24210   1.000
    H190    H    0.09630   0.11950   0.23800   1.000
    C281    C    0.06040   0.07940   0.24020   1.000
    H191    H    0.06920   0.06900   0.23210   1.000
    O54     O    0.30190   0.60720   0.79540   1.000
    O55     O    0.27186   0.62476   0.79020   1.000
    C282    C    0.14950   0.45520   0.85940   1.000
    H192    H    0.13700   0.43970   0.84610   1.000
    C283    C    0.17130   0.48220   0.84760   1.000
    H193    H    0.17220   0.48370   0.82570   1.000
    C284    C    0.19150   0.49920   0.89130   1.000
    H194    H    0.20930   0.51120   0.90170   1.000
    C285    C    0.16800   0.47660   0.90840   1.000
    H195    H    0.16650   0.47780   0.93010   1.000
    Zn16    Zn   0.20796   0.85126   0.24201   1.000
    Zn17    Zn   0.14742   0.84038   0.21294   1.000
    Zn18    Zn   0.36516   0.70424   0.77190   1.000
    O56     O    0.17654   0.85212   0.17854   1.000
    O57     O    0.21832   0.86133   0.19705   1.000
    O58     O    0.23388   0.88631   0.26821   1.000
    O59     O    0.11605   0.80162   0.20001   1.000
    O60     O    0.33101   0.70247   0.80908   1.000
    O61     O    0.33910   0.72755   0.76655   1.000
    O62     O    0.22039   0.82177   0.25159   1.000
    O63     O    0.12827   0.86240   0.22440   1.000
    O64     O    0.18239   0.87183   0.23067   1.000
    C286    C    0.28431   0.89329   0.95292   1.000
    C287    C    0.28979   0.91874   0.93663   1.000
    H196    H    0.28680   0.93300   0.94650   1.000
    C288    C    0.29979   0.92291   0.90558   1.000
    C289    C    0.30431   0.90163   0.89081   1.000
    H197    H    0.31100   0.90440   0.87000   1.000
    C290    C    0.29883   0.87618   0.90710   1.000
    C291    C    0.28883   0.87201   0.93815   1.000
    H198    H    0.28520   0.85500   0.94910   1.000
    C292    C    0.24957   0.87835   0.04791   1.000
    C293    C    0.24170   0.89350   0.02649   1.000
    H199    H    0.22910   0.90040   0.03270   1.000
    C294    C    0.25263   0.89824   0.99580   1.000
    H200    H    0.24740   0.90840   0.98150   1.000
    C295    C    0.27143   0.88785   0.98650   1.000
    C296    C    0.27929   0.87271   0.00791   1.000
    H201    H    0.29190   0.86580   0.00170   1.000
    C297    C    0.26837   0.86796   0.03862   1.000
    H202    H    0.27360   0.85780   0.05290   1.000
    C298    C    0.21481   0.86383   0.14305   1.000
    C299    C    0.19745   0.86218   0.11731   1.000
    H203    H    0.17790   0.85750   0.12040   1.000
    C300    C    0.20933   0.86746   0.08700   1.000
    H204    H    0.19770   0.86630   0.06980   1.000
    C301    C    0.23856   0.87438   0.08244   1.000
    C302    C    0.25592   0.87603   0.10818   1.000
    H205    H    0.27550   0.88070   0.10510   1.000
    C303    C    0.24405   0.87076   0.13849   1.000
    H206    H    0.25570   0.87190   0.15570   1.000
    C304    C    0.20020   0.85401   0.17520   1.000
    C305    C    0.30605   0.94960   0.88735   1.000
    C306    C    0.29349   0.96567   0.89940   1.000
    H207    H    0.28270   0.95970   0.91810   1.000
    C307    C    0.29709   0.99063   0.88348   1.000
    H208    H    0.28870   0.00140   0.89150   1.000
    C308    C    0.31324   0.99952   0.85551   1.000
    C309    C    0.32580   0.98345   0.84346   1.000
    H209    H    0.33660   0.98940   0.82470   1.000
    C310    C    0.32220   0.95848   0.85938   1.000
    H210    H    0.33060   0.94770   0.85130   1.000
    C311    C    0.31712   0.02871   0.84148   1.000
    C312    C    0.30435   0.04570   0.84973   1.000
    H211    H    0.29210   0.04070   0.86740   1.000
    C313    C    0.30987   0.07022   0.83161   1.000
    H212    H    0.30130   0.08160   0.83710   1.000
    C314    C    0.32816   0.07776   0.80523   1.000
    C315    C    0.34093   0.06076   0.79698   1.000
    H213    H    0.35320   0.06580   0.77930   1.000
    C316    C    0.33541   0.03624   0.81510   1.000
    H214    H    0.34400   0.02490   0.80960   1.000
    C317    C    0.22500   0.89509   0.28995   1.000
    C318    C    0.30530   0.85299   0.89140   1.000
    C319    C    0.32890   0.86180   0.87060   1.000
    H215    H    0.34160   0.88190   0.86660   1.000
    C320    C    0.33360   0.84070   0.85570   1.000
    H216    H    0.34940   0.84660   0.84180   1.000
    C321    C    0.31460   0.81070   0.86160   1.000
    C322    C    0.29100   0.80190   0.88250   1.000
    H217    H    0.27830   0.78180   0.88650   1.000
    C323    C    0.28640   0.82310   0.89740   1.000
    H218    H    0.27060   0.81710   0.91130   1.000
    C324    C    0.31676   0.78818   0.84503   1.000
    C325    C    0.34114   0.79687   0.82535   1.000
    H219    H    0.35430   0.81690   0.82190   1.000
    C326    C    0.34581   0.77557   0.81086   1.000
    H220    H    0.36210   0.78140   0.79770   1.000
    C327    C    0.32612   0.74559   0.81605   1.000
    C328    C    0.30175   0.73691   0.83573   1.000
    H221    H    0.28860   0.71690   0.83920   1.000
    C329    C    0.29707   0.75821   0.85021   1.000
    H222    H    0.28080   0.75240   0.86340   1.000
    C330    C    0.33040   0.72420   0.79560   1.000
    C331    C    0.25154   0.79232   0.25256   1.000
    H223    H    0.26190   0.81290   0.25440   1.000
    C332    C    0.26733   0.77744   0.25261   1.000
    H224    H    0.28790   0.78830   0.25440   1.000
    C333    C    0.30049   0.74299   0.25500   1.000
    H225    H    0.31060   0.76300   0.26010   1.000
    C334    C    0.31591   0.72804   0.25270   1.000
    H226    H    0.33650   0.73850   0.25310   1.000
    C335    C    0.10700   0.90070   0.27719   1.000
    H227    H    0.11540   0.89870   0.29570   1.000
    C336    C    0.09090   0.91570   0.27721   1.000
    H228    H    0.08760   0.92250   0.29620   1.000
    C337    C    0.03344   0.92394   0.24210   1.000
    H229    H    0.02320   0.90370   0.23800   1.000
    C338    C    0.01900   0.93960   0.24020   1.000
    H230    H    0.99980   0.93080   0.23210   1.000
    O65     O    0.30530   0.69810   0.79540   1.000
    O66     O    0.35290   0.72814   0.79020   1.000
    C339    C    0.30570   0.85050   0.85940   1.000
    H231    H    0.30270   0.86300   0.84610   1.000
    C340    C    0.31090   0.82870   0.84760   1.000
    H232    H    0.31150   0.82780   0.82570   1.000
    C341    C    0.30770   0.80850   0.89130   1.000
    H233    H    0.30190   0.79070   0.90170   1.000
    C342    C    0.30860   0.83200   0.90840   1.000
    H234    H    0.31130   0.83350   0.93010   1.000
    Zn19    Zn   0.79204   0.64329   0.74201   1.000
    Zn20    Zn   0.85258   0.69297   0.71294   1.000
    Zn21    Zn   0.63484   0.33908   0.27190   1.000
    O67     O    0.82346   0.67558   0.67854   1.000
    O68     O    0.78168   0.64301   0.69705   1.000
    O69     O    0.76612   0.65243   0.76821   1.000
    O70     O    0.88395   0.68557   0.70001   1.000
    O71     O    0.66899   0.37146   0.30908   1.000
    O72     O    0.66090   0.38845   0.26655   1.000
    O73     O    0.77961   0.60138   0.75159   1.000
    O74     O    0.87173   0.73413   0.72440   1.000
    O75     O    0.81761   0.68944   0.73067   1.000
    C343    C    0.71569   0.60898   0.45292   1.000
    C344    C    0.71021   0.62895   0.43663   1.000
    H235    H    0.71320   0.64620   0.44650   1.000
    C345    C    0.70021   0.62312   0.40558   1.000
    C346    C    0.69569   0.59732   0.39081   1.000
    H236    H    0.68900   0.59340   0.37000   1.000
    C347    C    0.70117   0.57735   0.40710   1.000
    C348    C    0.71117   0.58318   0.43815   1.000
    H237    H    0.71480   0.56980   0.44910   1.000
    C349    C    0.75043   0.62878   0.54791   1.000
    C350    C    0.75830   0.65180   0.52649   1.000
    H238    H    0.77090   0.67130   0.53270   1.000
    C351    C    0.74737   0.64561   0.49580   1.000
    H239    H    0.75260   0.66100   0.48150   1.000
    C352    C    0.72857   0.61642   0.48650   1.000
    C353    C    0.72071   0.59342   0.50791   1.000
    H240    H    0.70810   0.57390   0.50170   1.000
    C354    C    0.73163   0.59959   0.53862   1.000
    H241    H    0.72640   0.58420   0.55290   1.000
    C355    C    0.78519   0.64902   0.64305   1.000
    C356    C    0.80255   0.66473   0.61731   1.000
    H242    H    0.82210   0.67960   0.62040   1.000
    C357    C    0.79067   0.65813   0.58700   1.000
    H243    H    0.80230   0.66860   0.56980   1.000
    C358    C    0.76144   0.63582   0.58244   1.000
    C359    C    0.74408   0.62011   0.60818   1.000
    H244    H    0.72450   0.60520   0.60510   1.000
    C360    C    0.75595   0.62671   0.63849   1.000
    H245    H    0.74430   0.61620   0.65570   1.000
    C361    C    0.79980   0.65381   0.67520   1.000
    C362    C    0.69395   0.64355   0.38735   1.000
    C363    C    0.70651   0.67218   0.39940   1.000
    H246    H    0.71730   0.67700   0.41810   1.000
    C364    C    0.70291   0.69354   0.38348   1.000
    H247    H    0.71130   0.71270   0.39150   1.000
    C365    C    0.68676   0.68628   0.35551   1.000
    C366    C    0.67420   0.65765   0.34346   1.000
    H248    H    0.66340   0.65280   0.32470   1.000
    C367    C    0.67780   0.63628   0.35938   1.000
    H249    H    0.66940   0.61710   0.35130   1.000
    C368    C    0.68288   0.71159   0.34148   1.000
    C369    C    0.69565   0.74135   0.34973   1.000
    H250    H    0.70790   0.74860   0.36740   1.000
    C370    C    0.69013   0.76035   0.33161   1.000
    H251    H    0.69870   0.78030   0.33710   1.000
    C371    C    0.67184   0.74960   0.30523   1.000
    C372    C    0.65907   0.71983   0.29698   1.000
    H252    H    0.64680   0.71260   0.27930   1.000
    C373    C    0.66459   0.70083   0.31510   1.000
    H253    H    0.65600   0.68090   0.30960   1.000
    C374    C    0.77500   0.67009   0.78995   1.000
    C375    C    0.69470   0.54769   0.39140   1.000
    C376    C    0.67110   0.53290   0.37060   1.000
    H254    H    0.65840   0.54030   0.36660   1.000
    C377    C    0.66640   0.50710   0.35570   1.000
    H255    H    0.65060   0.49720   0.34180   1.000
    C378    C    0.68540   0.49610   0.36160   1.000
    C379    C    0.70900   0.51090   0.38250   1.000
    H256    H    0.72170   0.50350   0.38650   1.000
    C380    C    0.71360   0.53670   0.39740   1.000
    H257    H    0.72940   0.54650   0.41130   1.000
    C381    C    0.68324   0.47142   0.34503   1.000
    C382    C    0.65886   0.45573   0.32535   1.000
    H258    H    0.64570   0.46260   0.32190   1.000
    C383    C    0.65419   0.42976   0.31086   1.000
    H259    H    0.63790   0.41930   0.29770   1.000
    C384    C    0.67388   0.41947   0.31605   1.000
    C385    C    0.69825   0.43516   0.33573   1.000
    H260    H    0.71140   0.42830   0.33920   1.000
    C386    C    0.70293   0.46114   0.35021   1.000
    H261    H    0.71920   0.47160   0.36340   1.000
    C387    C    0.66960   0.39380   0.29560   1.000
    C388    C    0.74846   0.54078   0.75256   1.000
    H262    H    0.73810   0.55100   0.75440   1.000
    C389    C    0.73267   0.51011   0.75261   1.000
    H263    H    0.71210   0.50040   0.75440   1.000
    C390    C    0.69951   0.44250   0.75500   1.000
    H264    H    0.68940   0.45240   0.76010   1.000
    C391    C    0.68409   0.41213   0.75270   1.000
    H265    H    0.66350   0.40200   0.75310   1.000
    C392    C    0.89300   0.79370   0.77719   1.000
    H266    H    0.88460   0.78330   0.79570   1.000
    C393    C    0.90910   0.82480   0.77721   1.000
    H267    H    0.91240   0.83490   0.79620   1.000
    C394    C    0.96656   0.89050   0.74210   1.000
    H268    H    0.97680   0.88050   0.73800   1.000
    C395    C    0.98100   0.92060   0.74020   1.000
    H269    H    0.00020   0.93100   0.73210   1.000
    O76     O    0.69470   0.39280   0.29540   1.000
    O77     O    0.64710   0.37524   0.29020   1.000
    C396    C    0.69430   0.54480   0.35940   1.000
    H270    H    0.69730   0.56030   0.34610   1.000
    C397    C    0.68910   0.51780   0.34760   1.000
    H271    H    0.68850   0.51630   0.32570   1.000
    C398    C    0.69230   0.50080   0.39130   1.000
    H272    H    0.69810   0.48880   0.40170   1.000
    C399    C    0.69140   0.52340   0.40840   1.000
    H273    H    0.68870   0.52220   0.43010   1.000
    Zn22    Zn   0.35671   0.14874   0.74201   1.000
    Zn23    Zn   0.30703   0.15962   0.71294   1.000
    Zn24    Zn   0.66092   0.29576   0.27190   1.000
    O78     O    0.32442   0.14788   0.67854   1.000
    O79     O    0.35699   0.13867   0.69705   1.000
    O80     O    0.34757   0.11369   0.76821   1.000
    O81     O    0.31443   0.19838   0.70001   1.000
    O82     O    0.62854   0.29753   0.30908   1.000
    O83     O    0.61155   0.27245   0.26655   1.000
    O84     O    0.39862   0.17823   0.75159   1.000
    O85     O    0.26587   0.13760   0.72440   1.000
    O86     O    0.31056   0.12817   0.73067   1.000
    C400    C    0.39102   0.10671   0.45292   1.000
    C401    C    0.37105   0.08126   0.43663   1.000
    H274    H    0.35380   0.06700   0.44650   1.000
    C402    C    0.37688   0.07709   0.40558   1.000
    C403    C    0.40268   0.09837   0.39081   1.000
    H275    H    0.40660   0.09560   0.37000   1.000
    C404    C    0.42265   0.12382   0.40710   1.000
    C405    C    0.41682   0.12799   0.43815   1.000
    H276    H    0.43020   0.14500   0.44910   1.000
    C406    C    0.37122   0.12165   0.54791   1.000
    C407    C    0.34820   0.10650   0.52649   1.000
    H277    H    0.32870   0.09960   0.53270   1.000
    C408    C    0.35439   0.10176   0.49580   1.000
    H278    H    0.33900   0.09160   0.48150   1.000
    C409    C    0.38358   0.11215   0.48650   1.000
    C410    C    0.40658   0.12729   0.50791   1.000
    H279    H    0.42610   0.13420   0.50170   1.000
    C411    C    0.40041   0.13204   0.53862   1.000
    H280    H    0.41580   0.14220   0.55290   1.000
    C412    C    0.35098   0.13617   0.64305   1.000
    C413    C    0.33527   0.13782   0.61731   1.000
    H281    H    0.32040   0.14250   0.62040   1.000
    C414    C    0.34187   0.13254   0.58700   1.000
    H282    H    0.33140   0.13370   0.56980   1.000
    C415    C    0.36418   0.12562   0.58244   1.000
    C416    C    0.37989   0.12397   0.60818   1.000
    H283    H    0.39480   0.11930   0.60510   1.000
    C417    C    0.37329   0.12924   0.63849   1.000
    H284    H    0.38380   0.12810   0.65570   1.000
    C418    C    0.34619   0.14599   0.67520   1.000
    C419    C    0.35645   0.05040   0.38735   1.000
    C420    C    0.32782   0.03433   0.39940   1.000
    H285    H    0.32300   0.04030   0.41810   1.000
    C421    C    0.30646   0.00937   0.38348   1.000
    H286    H    0.28730   0.99860   0.39150   1.000
    C422    C    0.31372   0.00048   0.35551   1.000
    C423    C    0.34235   0.01655   0.34346   1.000
    H287    H    0.34720   0.01060   0.32470   1.000
    C424    C    0.36372   0.04152   0.35938   1.000
    H288    H    0.38290   0.05230   0.35130   1.000
    C425    C    0.28841   0.97129   0.34148   1.000
    C426    C    0.25865   0.95430   0.34973   1.000
    H289    H    0.25140   0.95930   0.36740   1.000
    C427    C    0.23965   0.92978   0.33161   1.000
    H290    H    0.21970   0.91840   0.33710   1.000
    C428    C    0.25040   0.92224   0.30523   1.000
    C429    C    0.28017   0.93924   0.29698   1.000
    H291    H    0.28740   0.93420   0.27930   1.000
    C430    C    0.29917   0.96376   0.31510   1.000
    H292    H    0.31910   0.97510   0.30960   1.000
    C431    C    0.32991   0.10491   0.78995   1.000
    C432    C    0.45231   0.14701   0.39140   1.000
    C433    C    0.46710   0.13820   0.37060   1.000
    H293    H    0.45970   0.11810   0.36660   1.000
    C434    C    0.49290   0.15930   0.35570   1.000
    H294    H    0.50280   0.15340   0.34180   1.000
    C435    C    0.50390   0.18930   0.36160   1.000
    C436    C    0.48910   0.19810   0.38250   1.000
    H295    H    0.49650   0.21820   0.38650   1.000
    C437    C    0.46330   0.17690   0.39740   1.000
    H296    H    0.45350   0.18290   0.41130   1.000
    C438    C    0.52858   0.21182   0.34503   1.000
    C439    C    0.54427   0.20313   0.32535   1.000
    H297    H    0.53740   0.18310   0.32190   1.000
    C440    C    0.57024   0.22443   0.31086   1.000
    H298    H    0.58070   0.21860   0.29770   1.000
    C441    C    0.58053   0.25441   0.31605   1.000
    C442    C    0.56484   0.26309   0.33573   1.000
    H299    H    0.57170   0.28310   0.33920   1.000
    C443    C    0.53886   0.24179   0.35021   1.000
    H300    H    0.52840   0.24760   0.36340   1.000
    C444    C    0.60620   0.27580   0.29560   1.000
    C445    C    0.45922   0.20768   0.75256   1.000
    H301    H    0.44900   0.18710   0.75440   1.000
    C446    C    0.48989   0.22256   0.75261   1.000
    H302    H    0.49960   0.21170   0.75440   1.000
    C447    C    0.55750   0.25701   0.75500   1.000
    H303    H    0.54760   0.23700   0.76010   1.000
    C448    C    0.58787   0.27196   0.75270   1.000
    H304    H    0.59800   0.26150   0.75310   1.000
    C449    C    0.20630   0.09930   0.77719   1.000
    H305    H    0.21670   0.10130   0.79570   1.000
    C450    C    0.17520   0.08430   0.77721   1.000
    H306    H    0.16510   0.07750   0.79620   1.000
    C451    C    0.10950   0.07606   0.74210   1.000
    H307    H    0.11950   0.09630   0.73800   1.000
    C452    C    0.07940   0.06040   0.74020   1.000
    H308    H    0.06900   0.06920   0.73210   1.000
    O87     O    0.60720   0.30190   0.29540   1.000
    O88     O    0.62476   0.27186   0.29020   1.000
    C453    C    0.45520   0.14950   0.35940   1.000
    H309    H    0.43970   0.13700   0.34610   1.000
    C454    C    0.48220   0.17130   0.34760   1.000
    H310    H    0.48370   0.17220   0.32570   1.000
    C455    C    0.49920   0.19150   0.39130   1.000
    H311    H    0.51120   0.20930   0.40170   1.000
    C456    C    0.47660   0.16800   0.40840   1.000
    H312    H    0.47780   0.16650   0.43010   1.000
    Zn25    Zn   0.85126   0.20796   0.74201   1.000
    Zn26    Zn   0.84038   0.14742   0.71294   1.000
    Zn27    Zn   0.70424   0.36516   0.27190   1.000
    O89     O    0.85212   0.17654   0.67854   1.000
    O90     O    0.86133   0.21832   0.69705   1.000
    O91     O    0.88631   0.23388   0.76821   1.000
    O92     O    0.80162   0.11605   0.70001   1.000
    O93     O    0.70247   0.33101   0.30908   1.000
    O94     O    0.72755   0.33910   0.26655   1.000
    O95     O    0.82177   0.22039   0.75159   1.000
    O96     O    0.86240   0.12827   0.72440   1.000
    O97     O    0.87183   0.18239   0.73067   1.000
    C457    C    0.89329   0.28431   0.45292   1.000
    C458    C    0.91874   0.28979   0.43663   1.000
    H313    H    0.93300   0.28680   0.44650   1.000
    C459    C    0.92291   0.29979   0.40558   1.000
    C460    C    0.90163   0.30431   0.39081   1.000
    H314    H    0.90440   0.31100   0.37000   1.000
    C461    C    0.87618   0.29883   0.40710   1.000
    C462    C    0.87201   0.28883   0.43815   1.000
    H315    H    0.85500   0.28520   0.44910   1.000
    C463    C    0.87835   0.24957   0.54791   1.000
    C464    C    0.89350   0.24170   0.52649   1.000
    H316    H    0.90040   0.22910   0.53270   1.000
    C465    C    0.89824   0.25263   0.49580   1.000
    H317    H    0.90840   0.24740   0.48150   1.000
    C466    C    0.88785   0.27143   0.48650   1.000
    C467    C    0.87271   0.27929   0.50791   1.000
    H318    H    0.86580   0.29190   0.50170   1.000
    C468    C    0.86796   0.26837   0.53862   1.000
    H319    H    0.85780   0.27360   0.55290   1.000
    C469    C    0.86383   0.21481   0.64305   1.000
    C470    C    0.86218   0.19745   0.61731   1.000
    H320    H    0.85750   0.17790   0.62040   1.000
    C471    C    0.86746   0.20933   0.58700   1.000
    H321    H    0.86630   0.19770   0.56980   1.000
    C472    C    0.87438   0.23856   0.58244   1.000
    C473    C    0.87603   0.25592   0.60818   1.000
    H322    H    0.88070   0.27550   0.60510   1.000
    C474    C    0.87076   0.24405   0.63849   1.000
    H323    H    0.87190   0.25570   0.65570   1.000
    C475    C    0.85401   0.20020   0.67520   1.000
    C476    C    0.94960   0.30605   0.38735   1.000
    C477    C    0.96567   0.29349   0.39940   1.000
    H324    H    0.95970   0.28270   0.41810   1.000
    C478    C    0.99063   0.29709   0.38348   1.000
    H325    H    0.00140   0.28870   0.39150   1.000
    C479    C    0.99952   0.31324   0.35551   1.000
    C480    C    0.98345   0.32580   0.34346   1.000
    H326    H    0.98940   0.33660   0.32470   1.000
    C481    C    0.95848   0.32220   0.35938   1.000
    H327    H    0.94770   0.33060   0.35130   1.000
    C482    C    0.02871   0.31712   0.34148   1.000
    C483    C    0.04570   0.30435   0.34973   1.000
    H328    H    0.04070   0.29210   0.36740   1.000
    C484    C    0.07022   0.30987   0.33161   1.000
    H329    H    0.08160   0.30130   0.33710   1.000
    C485    C    0.07776   0.32816   0.30523   1.000
    C486    C    0.06076   0.34093   0.29698   1.000
    H330    H    0.06580   0.35320   0.27930   1.000
    C487    C    0.03624   0.33541   0.31510   1.000
    H331    H    0.02490   0.34400   0.30960   1.000
    C488    C    0.89509   0.22500   0.78995   1.000
    C489    C    0.85299   0.30530   0.39140   1.000
    C490    C    0.86180   0.32890   0.37060   1.000
    H332    H    0.88190   0.34160   0.36660   1.000
    C491    C    0.84070   0.33360   0.35570   1.000
    H333    H    0.84660   0.34940   0.34180   1.000
    C492    C    0.81070   0.31460   0.36160   1.000
    C493    C    0.80190   0.29100   0.38250   1.000
    H334    H    0.78180   0.27830   0.38650   1.000
    C494    C    0.82310   0.28640   0.39740   1.000
    H335    H    0.81710   0.27060   0.41130   1.000
    C495    C    0.78818   0.31676   0.34503   1.000
    C496    C    0.79687   0.34114   0.32535   1.000
    H336    H    0.81690   0.35430   0.32190   1.000
    C497    C    0.77557   0.34581   0.31086   1.000
    H337    H    0.78140   0.36210   0.29770   1.000
    C498    C    0.74559   0.32612   0.31605   1.000
    C499    C    0.73691   0.30175   0.33573   1.000
    H338    H    0.71690   0.28860   0.33920   1.000
    C500    C    0.75821   0.29707   0.35021   1.000
    H339    H    0.75240   0.28080   0.36340   1.000
    C501    C    0.72420   0.33040   0.29560   1.000
    C502    C    0.79232   0.25154   0.75256   1.000
    H340    H    0.81290   0.26190   0.75440   1.000
    C503    C    0.77744   0.26733   0.75261   1.000
    H341    H    0.78830   0.28790   0.75440   1.000
    C504    C    0.74299   0.30049   0.75500   1.000
    H342    H    0.76300   0.31060   0.76010   1.000
    C505    C    0.72804   0.31591   0.75270   1.000
    H343    H    0.73850   0.33650   0.75310   1.000
    C506    C    0.90070   0.10700   0.77719   1.000
    H344    H    0.89870   0.11540   0.79570   1.000
    C507    C    0.91570   0.09090   0.77721   1.000
    H345    H    0.92250   0.08760   0.79620   1.000
    C508    C    0.92394   0.03344   0.74210   1.000
    H346    H    0.90370   0.02320   0.73800   1.000
    C509    C    0.93960   0.01900   0.74020   1.000
    H347    H    0.93080   0.99980   0.73210   1.000
    O98     O    0.69810   0.30530   0.29540   1.000
    O99     O    0.72814   0.35290   0.29020   1.000
    C510    C    0.85050   0.30570   0.35940   1.000
    H348    H    0.86300   0.30270   0.34610   1.000
    C511    C    0.82870   0.31090   0.34760   1.000
    H349    H    0.82780   0.31150   0.32570   1.000
    C512    C    0.80850   0.30770   0.39130   1.000
    H350    H    0.79070   0.30190   0.40170   1.000
    C513    C    0.83200   0.30860   0.40840   1.000
    H351    H    0.83350   0.31130   0.43010   1.000
    Zn28    Zn   0.35671   0.20796   0.75799   1.000
    Zn29    Zn   0.30703   0.14742   0.78706   1.000
    Zn30    Zn   0.66092   0.36516   0.22810   1.000
    O100    O    0.32442   0.17654   0.82146   1.000
    O101    O    0.35699   0.21832   0.80295   1.000
    O102    O    0.34757   0.23388   0.73179   1.000
    O103    O    0.31443   0.11605   0.79999   1.000
    O104    O    0.62854   0.33101   0.19092   1.000
    O105    O    0.61155   0.33910   0.23345   1.000
    O106    O    0.39862   0.22039   0.74841   1.000
    O107    O    0.26587   0.12827   0.77560   1.000
    O108    O    0.31056   0.18239   0.76933   1.000
    C514    C    0.39102   0.28431   0.04708   1.000
    C515    C    0.37105   0.28979   0.06337   1.000
    H352    H    0.35380   0.28680   0.05350   1.000
    C516    C    0.37688   0.29979   0.09442   1.000
    C517    C    0.40268   0.30431   0.10919   1.000
    H353    H    0.40660   0.31100   0.13000   1.000
    C518    C    0.42265   0.29883   0.09290   1.000
    C519    C    0.41682   0.28883   0.06185   1.000
    H354    H    0.43020   0.28520   0.05090   1.000
    C520    C    0.37122   0.24957   0.95209   1.000
    C521    C    0.34820   0.24170   0.97351   1.000
    H355    H    0.32870   0.22910   0.96730   1.000
    C522    C    0.35439   0.25263   0.00420   1.000
    H356    H    0.33900   0.24740   0.01850   1.000
    C523    C    0.38358   0.27143   0.01350   1.000
    C524    C    0.40658   0.27929   0.99209   1.000
    H357    H    0.42610   0.29190   0.99830   1.000
    C525    C    0.40041   0.26837   0.96138   1.000
    H358    H    0.41580   0.27360   0.94710   1.000
    C526    C    0.35098   0.21481   0.85695   1.000
    C527    C    0.33527   0.19745   0.88269   1.000
    H359    H    0.32040   0.17790   0.87960   1.000
    C528    C    0.34187   0.20933   0.91300   1.000
    H360    H    0.33140   0.19770   0.93020   1.000
    C529    C    0.36418   0.23856   0.91756   1.000
    C530    C    0.37989   0.25592   0.89182   1.000
    H361    H    0.39480   0.27550   0.89490   1.000
    C531    C    0.37329   0.24405   0.86151   1.000
    H362    H    0.38380   0.25570   0.84430   1.000
    C532    C    0.34619   0.20020   0.82480   1.000
    C533    C    0.35645   0.30605   0.11265   1.000
    C534    C    0.32782   0.29349   0.10060   1.000
    H363    H    0.32300   0.28270   0.08190   1.000
    C535    C    0.30646   0.29709   0.11652   1.000
    H364    H    0.28730   0.28870   0.10850   1.000
    C536    C    0.31372   0.31324   0.14449   1.000
    C537    C    0.34235   0.32580   0.15654   1.000
    H365    H    0.34720   0.33660   0.17530   1.000
    C538    C    0.36372   0.32220   0.14062   1.000
    H366    H    0.38290   0.33060   0.14870   1.000
    C539    C    0.28841   0.31712   0.15852   1.000
    C540    C    0.25865   0.30435   0.15027   1.000
    H367    H    0.25140   0.29210   0.13260   1.000
    C541    C    0.23965   0.30987   0.16839   1.000
    H368    H    0.21970   0.30130   0.16290   1.000
    C542    C    0.25040   0.32816   0.19477   1.000
    C543    C    0.28017   0.34093   0.20302   1.000
    H369    H    0.28740   0.35320   0.22070   1.000
    C544    C    0.29917   0.33541   0.18490   1.000
    H370    H    0.31910   0.34400   0.19040   1.000
    C545    C    0.32991   0.22500   0.71005   1.000
    C546    C    0.45231   0.30530   0.10860   1.000
    C547    C    0.46710   0.32890   0.12940   1.000
    H371    H    0.45970   0.34160   0.13340   1.000
    C548    C    0.49290   0.33360   0.14430   1.000
    H372    H    0.50280   0.34940   0.15820   1.000
    C549    C    0.50390   0.31460   0.13840   1.000
    C550    C    0.48910   0.29100   0.11750   1.000
    H373    H    0.49650   0.27830   0.11350   1.000
    C551    C    0.46330   0.28640   0.10260   1.000
    H374    H    0.45350   0.27060   0.08870   1.000
    C552    C    0.52858   0.31676   0.15497   1.000
    C553    C    0.54427   0.34114   0.17465   1.000
    H375    H    0.53740   0.35430   0.17810   1.000
    C554    C    0.57024   0.34581   0.18914   1.000
    H376    H    0.58070   0.36210   0.20230   1.000
    C555    C    0.58053   0.32612   0.18395   1.000
    C556    C    0.56484   0.30175   0.16427   1.000
    H377    H    0.57170   0.28860   0.16080   1.000
    C557    C    0.53886   0.29707   0.14979   1.000
    H378    H    0.52840   0.28080   0.13660   1.000
    C558    C    0.60620   0.33040   0.20440   1.000
    C559    C    0.45922   0.25154   0.74744   1.000
    H379    H    0.44900   0.26190   0.74560   1.000
    C560    C    0.48989   0.26733   0.74739   1.000
    H380    H    0.49960   0.28790   0.74560   1.000
    C561    C    0.55750   0.30049   0.74500   1.000
    H381    H    0.54760   0.31060   0.73990   1.000
    C562    C    0.58787   0.31591   0.74730   1.000
    H382    H    0.59800   0.33650   0.74690   1.000
    C563    C    0.20630   0.10700   0.72281   1.000
    H383    H    0.21670   0.11540   0.70430   1.000
    C564    C    0.17520   0.09090   0.72279   1.000
    H384    H    0.16510   0.08760   0.70380   1.000
    C565    C    0.10950   0.03344   0.75790   1.000
    H385    H    0.11950   0.02320   0.76200   1.000
    C566    C    0.07940   0.01900   0.75980   1.000
    H386    H    0.06900   0.99980   0.76790   1.000
    O109    O    0.60720   0.30530   0.20460   1.000
    O110    O    0.62476   0.35290   0.20980   1.000
    C567    C    0.45520   0.30570   0.14060   1.000
    H387    H    0.43970   0.30270   0.15390   1.000
    C568    C    0.48220   0.31090   0.15240   1.000
    H388    H    0.48370   0.31150   0.17430   1.000
    C569    C    0.49920   0.30770   0.10870   1.000
    H389    H    0.51120   0.30190   0.09830   1.000
    C570    C    0.47660   0.30860   0.09160   1.000
    H390    H    0.47780   0.31130   0.06990   1.000
    Zn31    Zn   0.85126   0.64329   0.75799   1.000
    Zn32    Zn   0.84038   0.69297   0.78706   1.000
    Zn33    Zn   0.70424   0.33908   0.22810   1.000
    O111    O    0.85212   0.67558   0.82146   1.000
    O112    O    0.86133   0.64301   0.80295   1.000
    O113    O    0.88631   0.65243   0.73179   1.000
    O114    O    0.80162   0.68557   0.79999   1.000
    O115    O    0.70247   0.37146   0.19092   1.000
    O116    O    0.72755   0.38845   0.23345   1.000
    O117    O    0.82177   0.60138   0.74841   1.000
    O118    O    0.86240   0.73413   0.77560   1.000
    O119    O    0.87183   0.68944   0.76933   1.000
    C571    C    0.89329   0.60898   0.04708   1.000
    C572    C    0.91874   0.62895   0.06337   1.000
    H391    H    0.93300   0.64620   0.05350   1.000
    C573    C    0.92291   0.62312   0.09442   1.000
    C574    C    0.90163   0.59732   0.10919   1.000
    H392    H    0.90440   0.59340   0.13000   1.000
    C575    C    0.87618   0.57735   0.09290   1.000
    C576    C    0.87201   0.58318   0.06185   1.000
    H393    H    0.85500   0.56980   0.05090   1.000
    C577    C    0.87835   0.62878   0.95209   1.000
    C578    C    0.89350   0.65180   0.97351   1.000
    H394    H    0.90040   0.67130   0.96730   1.000
    C579    C    0.89824   0.64561   0.00420   1.000
    H395    H    0.90840   0.66100   0.01850   1.000
    C580    C    0.88785   0.61642   0.01350   1.000
    C581    C    0.87271   0.59342   0.99209   1.000
    H396    H    0.86580   0.57390   0.99830   1.000
    C582    C    0.86796   0.59959   0.96138   1.000
    H397    H    0.85780   0.58420   0.94710   1.000
    C583    C    0.86383   0.64902   0.85695   1.000
    C584    C    0.86218   0.66473   0.88269   1.000
    H398    H    0.85750   0.67960   0.87960   1.000
    C585    C    0.86746   0.65813   0.91300   1.000
    H399    H    0.86630   0.66860   0.93020   1.000
    C586    C    0.87438   0.63582   0.91756   1.000
    C587    C    0.87603   0.62011   0.89182   1.000
    H400    H    0.88070   0.60520   0.89490   1.000
    C588    C    0.87076   0.62671   0.86151   1.000
    H401    H    0.87190   0.61620   0.84430   1.000
    C589    C    0.85401   0.65381   0.82480   1.000
    C590    C    0.94960   0.64355   0.11265   1.000
    C591    C    0.96567   0.67218   0.10060   1.000
    H402    H    0.95970   0.67700   0.08190   1.000
    C592    C    0.99063   0.69354   0.11652   1.000
    H403    H    0.00140   0.71270   0.10850   1.000
    C593    C    0.99952   0.68628   0.14449   1.000
    C594    C    0.98345   0.65765   0.15654   1.000
    H404    H    0.98940   0.65280   0.17530   1.000
    C595    C    0.95848   0.63628   0.14062   1.000
    H405    H    0.94770   0.61710   0.14870   1.000
    C596    C    0.02871   0.71159   0.15852   1.000
    C597    C    0.04570   0.74135   0.15027   1.000
    H406    H    0.04070   0.74860   0.13260   1.000
    C598    C    0.07022   0.76035   0.16839   1.000
    H407    H    0.08160   0.78030   0.16290   1.000
    C599    C    0.07776   0.74960   0.19477   1.000
    C600    C    0.06076   0.71983   0.20302   1.000
    H408    H    0.06580   0.71260   0.22070   1.000
    C601    C    0.03624   0.70083   0.18490   1.000
    H409    H    0.02490   0.68090   0.19040   1.000
    C602    C    0.89509   0.67009   0.71005   1.000
    C603    C    0.85299   0.54769   0.10860   1.000
    C604    C    0.86180   0.53290   0.12940   1.000
    H410    H    0.88190   0.54030   0.13340   1.000
    C605    C    0.84070   0.50710   0.14430   1.000
    H411    H    0.84660   0.49720   0.15820   1.000
    C606    C    0.81070   0.49610   0.13840   1.000
    C607    C    0.80190   0.51090   0.11750   1.000
    H412    H    0.78180   0.50350   0.11350   1.000
    C608    C    0.82310   0.53670   0.10260   1.000
    H413    H    0.81710   0.54650   0.08870   1.000
    C609    C    0.78818   0.47142   0.15497   1.000
    C610    C    0.79687   0.45573   0.17465   1.000
    H414    H    0.81690   0.46260   0.17810   1.000
    C611    C    0.77557   0.42976   0.18914   1.000
    H415    H    0.78140   0.41930   0.20230   1.000
    C612    C    0.74559   0.41947   0.18395   1.000
    C613    C    0.73691   0.43516   0.16427   1.000
    H416    H    0.71690   0.42830   0.16080   1.000
    C614    C    0.75821   0.46114   0.14979   1.000
    H417    H    0.75240   0.47160   0.13660   1.000
    C615    C    0.72420   0.39380   0.20440   1.000
    C616    C    0.79232   0.54078   0.74744   1.000
    H418    H    0.81290   0.55100   0.74560   1.000
    C617    C    0.77744   0.51011   0.74739   1.000
    H419    H    0.78830   0.50040   0.74560   1.000
    C618    C    0.74299   0.44250   0.74500   1.000
    H420    H    0.76300   0.45240   0.73990   1.000
    C619    C    0.72804   0.41213   0.74730   1.000
    H421    H    0.73850   0.40200   0.74690   1.000
    C620    C    0.90070   0.79370   0.72281   1.000
    H422    H    0.89870   0.78330   0.70430   1.000
    C621    C    0.91570   0.82480   0.72279   1.000
    H423    H    0.92250   0.83490   0.70380   1.000
    C622    C    0.92394   0.89050   0.75790   1.000
    H424    H    0.90370   0.88050   0.76200   1.000
    C623    C    0.93960   0.92060   0.75980   1.000
    H425    H    0.93080   0.93100   0.76790   1.000
    O120    O    0.69810   0.39280   0.20460   1.000
    O121    O    0.72814   0.37524   0.20980   1.000
    C624    C    0.85050   0.54480   0.14060   1.000
    H426    H    0.86300   0.56030   0.15390   1.000
    C625    C    0.82870   0.51780   0.15240   1.000
    H427    H    0.82780   0.51630   0.17430   1.000
    C626    C    0.80850   0.50080   0.10870   1.000
    H428    H    0.79070   0.48880   0.09830   1.000
    C627    C    0.83200   0.52340   0.09160   1.000
    H429    H    0.83350   0.52220   0.06990   1.000
    Zn34    Zn   0.79204   0.14874   0.75799   1.000
    Zn35    Zn   0.85258   0.15962   0.78706   1.000
    Zn36    Zn   0.63484   0.29576   0.22810   1.000
    O122    O    0.82346   0.14788   0.82146   1.000
    O123    O    0.78168   0.13867   0.80295   1.000
    O124    O    0.76612   0.11369   0.73179   1.000
    O125    O    0.88395   0.19838   0.79999   1.000
    O126    O    0.66899   0.29753   0.19092   1.000
    O127    O    0.66090   0.27245   0.23345   1.000
    O128    O    0.77961   0.17823   0.74841   1.000
    O129    O    0.87173   0.13760   0.77560   1.000
    O130    O    0.81761   0.12817   0.76933   1.000
    C628    C    0.71569   0.10671   0.04708   1.000
    C629    C    0.71021   0.08126   0.06337   1.000
    H430    H    0.71320   0.06700   0.05350   1.000
    C630    C    0.70021   0.07709   0.09442   1.000
    C631    C    0.69569   0.09837   0.10919   1.000
    H431    H    0.68900   0.09560   0.13000   1.000
    C632    C    0.70117   0.12382   0.09290   1.000
    C633    C    0.71117   0.12799   0.06185   1.000
    H432    H    0.71480   0.14500   0.05090   1.000
    C634    C    0.75043   0.12165   0.95209   1.000
    C635    C    0.75830   0.10650   0.97351   1.000
    H433    H    0.77090   0.09960   0.96730   1.000
    C636    C    0.74737   0.10176   0.00420   1.000
    H434    H    0.75260   0.09160   0.01850   1.000
    C637    C    0.72857   0.11215   0.01350   1.000
    C638    C    0.72071   0.12729   0.99209   1.000
    H435    H    0.70810   0.13420   0.99830   1.000
    C639    C    0.73163   0.13204   0.96138   1.000
    H436    H    0.72640   0.14220   0.94710   1.000
    C640    C    0.78519   0.13617   0.85695   1.000
    C641    C    0.80255   0.13782   0.88269   1.000
    H437    H    0.82210   0.14250   0.87960   1.000
    C642    C    0.79067   0.13254   0.91300   1.000
    H438    H    0.80230   0.13370   0.93020   1.000
    C643    C    0.76144   0.12562   0.91756   1.000
    C644    C    0.74408   0.12397   0.89182   1.000
    H439    H    0.72450   0.11930   0.89490   1.000
    C645    C    0.75595   0.12924   0.86151   1.000
    H440    H    0.74430   0.12810   0.84430   1.000
    C646    C    0.79980   0.14599   0.82480   1.000
    C647    C    0.69395   0.05040   0.11265   1.000
    C648    C    0.70651   0.03433   0.10060   1.000
    H441    H    0.71730   0.04030   0.08190   1.000
    C649    C    0.70291   0.00937   0.11652   1.000
    H442    H    0.71130   0.99860   0.10850   1.000
    C650    C    0.68676   0.00048   0.14449   1.000
    C651    C    0.67420   0.01655   0.15654   1.000
    H443    H    0.66340   0.01060   0.17530   1.000
    C652    C    0.67780   0.04152   0.14062   1.000
    H444    H    0.66940   0.05230   0.14870   1.000
    C653    C    0.68288   0.97129   0.15852   1.000
    C654    C    0.69565   0.95430   0.15027   1.000
    H445    H    0.70790   0.95930   0.13260   1.000
    C655    C    0.69013   0.92978   0.16839   1.000
    H446    H    0.69870   0.91840   0.16290   1.000
    C656    C    0.67184   0.92224   0.19477   1.000
    C657    C    0.65907   0.93924   0.20302   1.000
    H447    H    0.64680   0.93420   0.22070   1.000
    C658    C    0.66459   0.96376   0.18490   1.000
    H448    H    0.65600   0.97510   0.19040   1.000
    C659    C    0.77500   0.10491   0.71005   1.000
    C660    C    0.69470   0.14701   0.10860   1.000
    C661    C    0.67110   0.13820   0.12940   1.000
    H449    H    0.65840   0.11810   0.13340   1.000
    C662    C    0.66640   0.15930   0.14430   1.000
    H450    H    0.65060   0.15340   0.15820   1.000
    C663    C    0.68540   0.18930   0.13840   1.000
    C664    C    0.70900   0.19810   0.11750   1.000
    H451    H    0.72170   0.21820   0.11350   1.000
    C665    C    0.71360   0.17690   0.10260   1.000
    H452    H    0.72940   0.18290   0.08870   1.000
    C666    C    0.68324   0.21182   0.15497   1.000
    C667    C    0.65886   0.20313   0.17465   1.000
    H453    H    0.64570   0.18310   0.17810   1.000
    C668    C    0.65419   0.22443   0.18914   1.000
    H454    H    0.63790   0.21860   0.20230   1.000
    C669    C    0.67388   0.25441   0.18395   1.000
    C670    C    0.69825   0.26309   0.16427   1.000
    H455    H    0.71140   0.28310   0.16080   1.000
    C671    C    0.70293   0.24179   0.14979   1.000
    H456    H    0.71920   0.24760   0.13660   1.000
    C672    C    0.66960   0.27580   0.20440   1.000
    C673    C    0.74846   0.20768   0.74744   1.000
    H457    H    0.73810   0.18710   0.74560   1.000
    C674    C    0.73267   0.22256   0.74739   1.000
    H458    H    0.71210   0.21170   0.74560   1.000
    C675    C    0.69951   0.25701   0.74500   1.000
    H459    H    0.68940   0.23700   0.73990   1.000
    C676    C    0.68409   0.27196   0.74730   1.000
    H460    H    0.66350   0.26150   0.74690   1.000
    C677    C    0.89300   0.09930   0.72281   1.000
    H461    H    0.88460   0.10130   0.70430   1.000
    C678    C    0.90910   0.08430   0.72279   1.000
    H462    H    0.91240   0.07750   0.70380   1.000
    C679    C    0.96656   0.07606   0.75790   1.000
    H463    H    0.97680   0.09630   0.76200   1.000
    C680    C    0.98100   0.06040   0.75980   1.000
    H464    H    0.00020   0.06920   0.76790   1.000
    O131    O    0.69470   0.30190   0.20460   1.000
    O132    O    0.64710   0.27186   0.20980   1.000
    C681    C    0.69430   0.14950   0.14060   1.000
    H465    H    0.69730   0.13700   0.15390   1.000
    C682    C    0.68910   0.17130   0.15240   1.000
    H466    H    0.68850   0.17220   0.17430   1.000
    C683    C    0.69230   0.19150   0.10870   1.000
    H467    H    0.69810   0.20930   0.09830   1.000
    C684    C    0.69140   0.16800   0.09160   1.000
    H468    H    0.68870   0.16650   0.06990   1.000
    Zn37    Zn   0.33333   0.66667   0.70985   1.000
    Zn38    Zn   0.33333   0.66667   0.79015   1.000
    Zn39    Zn   0.66667   0.33333   0.29015   1.000
    Zn40    Zn   0.66667   0.33333   0.20985   1.000
    O133    O    0.33333   0.66667   0.75000   1.000
    O134    O    0.66667   0.33333   0.25000   1.000
    O135    O    0.16660   0.33319   0.25000   1.000
    C685    C    0.20515   0.41030   0.25000   1.000
    C686    C    0.22170   0.44340   0.25000   1.000
    C687    C    0.25335   0.50670   0.25000   1.000
    C688    C    0.27095   0.54190   0.25000   1.000
    C689    C    0.30155   0.60310   0.25000   1.000
    C690    C    0.31829   0.63658   0.25000   1.000
    C691    C    0.12695   0.25390   0.25000   1.000
    C692    C    0.11020   0.22040   0.25000   1.000
    C693    C    0.07975   0.15950   0.25000   1.000
    C694    C    0.06250   0.12500   0.25000   1.000
    C695    C    0.03265   0.06530   0.25000   1.000
    C696    C    0.01497   0.02993   0.25000   1.000
    O136    O    0.66681   0.83341   0.25000   1.000
    C697    C    0.58970   0.79485   0.25000   1.000
    C698    C    0.55660   0.77830   0.25000   1.000
    C699    C    0.49330   0.74665   0.25000   1.000
    C700    C    0.45810   0.72905   0.25000   1.000
    C701    C    0.39690   0.69845   0.25000   1.000
    C702    C    0.36342   0.68171   0.25000   1.000
    C703    C    0.74610   0.87305   0.25000   1.000
    C704    C    0.77960   0.88980   0.25000   1.000
    C705    C    0.84050   0.92025   0.25000   1.000
    C706    C    0.87500   0.93750   0.25000   1.000
    C707    C    0.93470   0.96735   0.25000   1.000
    C708    C    0.97007   0.98504   0.25000   1.000
    O137    O    0.16660   0.83341   0.25000   1.000
    C709    C    0.20515   0.79485   0.25000   1.000
    C710    C    0.22170   0.77830   0.25000   1.000
    C711    C    0.25335   0.74665   0.25000   1.000
    C712    C    0.27095   0.72905   0.25000   1.000
    C713    C    0.30155   0.69845   0.25000   1.000
    C714    C    0.31829   0.68171   0.25000   1.000
    C715    C    0.12695   0.87305   0.25000   1.000
    C716    C    0.11020   0.88980   0.25000   1.000
    C717    C    0.07975   0.92025   0.25000   1.000
    C718    C    0.06250   0.93750   0.25000   1.000
    C719    C    0.03265   0.96735   0.25000   1.000
    C720    C    0.01497   0.98504   0.25000   1.000
    O138    O    0.83340   0.66681   0.75000   1.000
    C721    C    0.79485   0.58970   0.75000   1.000
    C722    C    0.77830   0.55660   0.75000   1.000
    C723    C    0.74665   0.49330   0.75000   1.000
    C724    C    0.72905   0.45810   0.75000   1.000
    C725    C    0.69845   0.39690   0.75000   1.000
    C726    C    0.68171   0.36342   0.75000   1.000
    C727    C    0.87305   0.74610   0.75000   1.000
    C728    C    0.88980   0.77960   0.75000   1.000
    C729    C    0.92025   0.84050   0.75000   1.000
    C730    C    0.93750   0.87500   0.75000   1.000
    C731    C    0.96735   0.93470   0.75000   1.000
    C732    C    0.98503   0.97007   0.75000   1.000
    O139    O    0.33319   0.16660   0.75000   1.000
    C733    C    0.41030   0.20515   0.75000   1.000
    C734    C    0.44340   0.22170   0.75000   1.000
    C735    C    0.50670   0.25335   0.75000   1.000
    C736    C    0.54190   0.27095   0.75000   1.000
    C737    C    0.60310   0.30155   0.75000   1.000
    C738    C    0.63658   0.31829   0.75000   1.000
    C739    C    0.25390   0.12695   0.75000   1.000
    C740    C    0.22040   0.11020   0.75000   1.000
    C741    C    0.15950   0.07975   0.75000   1.000
    C742    C    0.12500   0.06250   0.75000   1.000
    C743    C    0.06530   0.03265   0.75000   1.000
    C744    C    0.02993   0.01497   0.75000   1.000
    O140    O    0.83340   0.16660   0.75000   1.000
    C745    C    0.79485   0.20515   0.75000   1.000
    C746    C    0.77830   0.22170   0.75000   1.000
    C747    C    0.74665   0.25335   0.75000   1.000
    C748    C    0.72905   0.27095   0.75000   1.000
    C749    C    0.69845   0.30155   0.75000   1.000
    C750    C    0.68171   0.31829   0.75000   1.000
    C751    C    0.87305   0.12695   0.75000   1.000
    C752    C    0.88980   0.11020   0.75000   1.000
    C753    C    0.92025   0.07975   0.75000   1.000
    C754    C    0.93750   0.06250   0.75000   1.000
    C755    C    0.96735   0.03265   0.75000   1.000
    C756    C    0.98503   0.01496   0.75000   1.000
    C757    C    0.34837   0.65163   0.25000   1.000
    H469    H    0.35870   0.64130   0.25000   1.000
    C758    C    0.34837   0.69674   0.25000   1.000
    H470    H    0.35870   0.71740   0.25000   1.000
    C759    C    0.30326   0.65163   0.25000   1.000
    H471    H    0.28260   0.64130   0.25000   1.000
    C760    C    0.65163   0.34837   0.75000   1.000
    H472    H    0.64130   0.35870   0.75000   1.000
    C761    C    0.65163   0.30326   0.75000   1.000
    H473    H    0.64130   0.28260   0.75000   1.000
    C762    C    0.69674   0.34837   0.75000   1.000
    H474    H    0.71740   0.35870   0.75000   1.000
    C763    C    0.03016   0.01508   0.25000   1.000
    H475    H    0.05080   0.02540   0.25000   1.000
    C764    C    0.98492   0.01508   0.25000   1.000
    H476    H    0.97460   0.02540   0.25000   1.000
    C765    C    0.98492   0.96984   0.25000   1.000
    H477    H    0.97460   0.94920   0.25000   1.000
    C766    C    0.96984   0.98492   0.75000   1.000
    H478    H    0.94920   0.97460   0.75000   1.000
    C767    C    0.01508   0.98492   0.75000   1.000
    H479    H    0.02540   0.97460   0.75000   1.000
    C768    C    0.01508   0.03016   0.75000   1.000
    H480    H    0.02540   0.05080   0.75000   1.000
