# CIF file generated by openbabel 2.4.1, see http://openbabel.sf.net
data_I
_chemical_name_common 'image0'
_cell_length_a 45.846
_cell_length_b 45.846
_cell_length_c 37.11
_cell_angle_alpha 90
_cell_angle_beta 90
_cell_angle_gamma 120
_space_group_name_H-M_alt 'P 1'
_space_group_name_Hall 'P 1'
loop_
    _symmetry_equiv_pos_as_xyz
    x,y,z
loop_
    _atom_site_label
    _atom_site_type_symbol
    _atom_site_fract_x
    _atom_site_fract_y
    _atom_site_fract_z
    _atom_site_occupancy
    Zn1     Zn   0.15630   0.30302   0.21060   1.000
    Zn2     Zn   0.14869   0.36437   0.24100   1.000
    Zn3     Zn   0.29500   0.63270   0.72850   1.000
    O1      O    0.14150   0.36250   0.19640   1.000
    O2      O    0.14830   0.32160   0.17410   1.000
    O3      O    0.89000   0.19590   0.79950   1.000
    O4      O    0.88850   0.23520   0.76650   1.000
    O5      O    0.26930   0.60640   0.76290   1.000
    O6      O    0.29920   0.62940   0.81190   1.000
    O7      O    0.12760   0.26560   0.22110   1.000
    O8      O    0.17760   0.40210   0.25640   1.000
    C1      C    0.10830   0.38900   0.95730   1.000
    C2      C    0.08030   0.36560   0.93720   1.000
    C3      C    0.07590   0.37250   0.90130   1.000
    C4      C    0.09990   0.40310   0.88550   1.000
    C5      C    0.12800   0.42670   0.90530   1.000
    C6      C    0.13210   0.41950   0.94120   1.000
    C7      C    0.11300   0.38150   0.99420   1.000
    C8      C    0.11730   0.37530   0.02490   1.000
    C9      C    0.12280   0.36750   0.06140   1.000
    C10     C    0.12210   0.38640   0.09080   1.000
    C11     C    0.12790   0.37910   0.12600   1.000
    C12     C    0.13480   0.35280   0.13240   1.000
    C13     C    0.13530   0.33380   0.10270   1.000
    C14     C    0.12940   0.34120   0.06760   1.000
    C15     C    0.14190   0.34530   0.16970   1.000
    C16     C    0.04690   0.34800   0.88070   1.000
    C17     C    0.02260   0.32720   0.86380   1.000
    C18     C    0.99330   0.30200   0.84410   1.000
    C19     C    0.97970   0.26770   0.85210   1.000
    C20     C    0.95080   0.24330   0.83400   1.000
    C21     C    0.93490   0.25260   0.80750   1.000
    C22     C    0.94910   0.28710   0.79930   1.000
    C23     C    0.97800   0.31150   0.81740   1.000
    C24     C    0.90290   0.22650   0.78980   1.000
    C25     C    0.15310   0.45810   0.88870   1.000
    C26     C    0.17410   0.48420   0.87470   1.000
    C27     C    0.19930   0.51500   0.85740   1.000
    C28     C    0.19510   0.52180   0.81900   1.000
    C29     C    0.21870   0.55060   0.80000   1.000
    C30     C    0.24870   0.57410   0.82190   1.000
    C31     C    0.25150   0.57220   0.85500   1.000
    C32     C    0.22770   0.54320   0.87300   1.000
    C33     C    0.27480   0.60400   0.80140   1.000
    C34     C    0.10240   0.19340   0.28240   1.000
    C35     C    0.08440   0.15850   0.27940   1.000
    C36     C    0.21120   0.47400   0.25690   1.000
    C37     C    0.22890   0.50940   0.25690   1.000
    H1      H    0.06400   0.34500   0.94800   1.000
    H2      H    0.09700   0.40800   0.86100   1.000
    H3      H    0.15100   0.43600   0.95500   1.000
    H4      H    0.11700   0.40400   0.08700   1.000
    H5      H    0.12700   0.39200   0.14600   1.000
    H6      H    0.14000   0.31600   0.10600   1.000
    H7      H    0.13000   0.32800   0.04800   1.000
    H8      H    0.99000   0.26100   0.87000   1.000
    H9      H    0.94200   0.22000   0.84000   1.000
    H10     H    0.93900   0.29400   0.78100   1.000
    H11     H    0.98700   0.33500   0.81200   1.000
    H12     H    0.17100   0.50200   0.80400   1.000
    H13     H    0.21700   0.55700   0.77100   1.000
    H14     H    0.27300   0.59400   0.87000   1.000
    H15     H    0.23300   0.54300   0.90300   1.000
    H16     H    0.11200   0.20400   0.30500   1.000
    H17     H    0.08200   0.14600   0.30100   1.000
    H18     H    0.18700   0.46200   0.26200   1.000
    H19     H    0.21700   0.52100   0.26200   1.000
    O9      O    0.26980   0.62480   0.79610   1.000
    O10     O    0.30410   0.60430   0.79900   1.000
    C38     C    0.19260   0.53800   0.85000   1.000
    C39     C    0.21770   0.56750   0.83300   1.000
    C40     C    0.25640   0.54610   0.83700   1.000
    C41     C    0.23120   0.51660   0.85300   1.000
    H20     H    0.16700   0.53500   0.85600   1.000
    H21     H    0.21000   0.58700   0.82900   1.000
    H22     H    0.28300   0.55000   0.83400   1.000
    H23     H    0.23500   0.49500   0.86300   1.000
    Zn4     Zn   0.69698   0.85328   0.21060   1.000
    Zn5     Zn   0.63563   0.78432   0.24100   1.000
    Zn6     Zn   0.36730   0.66230   0.72850   1.000
    O11     O    0.63750   0.77900   0.19640   1.000
    O12     O    0.67840   0.82670   0.17410   1.000
    O13     O    0.80410   0.69410   0.79950   1.000
    O14     O    0.76480   0.65330   0.76650   1.000
    O15     O    0.39360   0.66290   0.76290   1.000
    O16     O    0.37060   0.66980   0.81190   1.000
    O17     O    0.73440   0.86200   0.22110   1.000
    O18     O    0.59790   0.77550   0.25640   1.000
    C42     C    0.61100   0.71930   0.95730   1.000
    C43     C    0.63440   0.71470   0.93720   1.000
    C44     C    0.62750   0.70340   0.90130   1.000
    C45     C    0.59690   0.69680   0.88550   1.000
    C46     C    0.57330   0.70130   0.90530   1.000
    C47     C    0.58050   0.71260   0.94120   1.000
    C48     C    0.61850   0.73150   0.99420   1.000
    C49     C    0.62470   0.74200   0.02490   1.000
    C50     C    0.63250   0.75530   0.06140   1.000
    C51     C    0.61360   0.73570   0.09080   1.000
    C52     C    0.62090   0.74880   0.12600   1.000
    C53     C    0.64720   0.78200   0.13240   1.000
    C54     C    0.66620   0.80150   0.10270   1.000
    C55     C    0.65880   0.78820   0.06760   1.000
    C56     C    0.65470   0.79660   0.16970   1.000
    C57     C    0.65200   0.69890   0.88070   1.000
    C58     C    0.67280   0.69540   0.86380   1.000
    C59     C    0.69800   0.69130   0.84410   1.000
    C60     C    0.73230   0.71200   0.85210   1.000
    C61     C    0.75670   0.70750   0.83400   1.000
    C62     C    0.74740   0.68230   0.80750   1.000
    C63     C    0.71290   0.66200   0.79930   1.000
    C64     C    0.68850   0.66650   0.81740   1.000
    C65     C    0.77350   0.67640   0.78980   1.000
    C66     C    0.54190   0.69500   0.88870   1.000
    C67     C    0.51580   0.68990   0.87470   1.000
    C68     C    0.48500   0.68430   0.85740   1.000
    C69     C    0.47820   0.67330   0.81900   1.000
    C70     C    0.44940   0.66810   0.80000   1.000
    C71     C    0.42590   0.67460   0.82190   1.000
    C72     C    0.42780   0.67930   0.85500   1.000
    C73     C    0.45680   0.68450   0.87300   1.000
    C74     C    0.39600   0.67080   0.80140   1.000
    C75     C    0.80660   0.90900   0.28240   1.000
    C76     C    0.84150   0.92590   0.27940   1.000
    C77     C    0.52600   0.73720   0.25690   1.000
    C78     C    0.49060   0.71950   0.25690   1.000
    H24     H    0.65500   0.71900   0.94800   1.000
    H25     H    0.59200   0.68900   0.86100   1.000
    H26     H    0.56400   0.71500   0.95500   1.000
    H27     H    0.59600   0.71300   0.08700   1.000
    H28     H    0.60800   0.73500   0.14600   1.000
    H29     H    0.68400   0.82400   0.10600   1.000
    H30     H    0.67200   0.80200   0.04800   1.000
    H31     H    0.73900   0.72900   0.87000   1.000
    H32     H    0.78000   0.72200   0.84000   1.000
    H33     H    0.70600   0.64500   0.78100   1.000
    H34     H    0.66500   0.65200   0.81200   1.000
    H35     H    0.49800   0.66900   0.80400   1.000
    H36     H    0.44300   0.66000   0.77100   1.000
    H37     H    0.40600   0.67900   0.87000   1.000
    H38     H    0.45700   0.69000   0.90300   1.000
    H39     H    0.79600   0.90800   0.30500   1.000
    H40     H    0.85400   0.93600   0.30100   1.000
    H41     H    0.53800   0.72500   0.26200   1.000
    H42     H    0.47900   0.69600   0.26200   1.000
    O19     O    0.37520   0.64500   0.79610   1.000
    O20     O    0.39570   0.69980   0.79900   1.000
    C79     C    0.46200   0.65460   0.85000   1.000
    C80     C    0.43250   0.65020   0.83300   1.000
    C81     C    0.45390   0.71030   0.83700   1.000
    C82     C    0.48340   0.71460   0.85300   1.000
    H43     H    0.46500   0.63200   0.85600   1.000
    H44     H    0.41300   0.62300   0.82900   1.000
    H45     H    0.45000   0.73300   0.83400   1.000
    H46     H    0.50500   0.74000   0.86300   1.000
    Zn7     Zn   0.14672   0.84370   0.21060   1.000
    Zn8     Zn   0.21568   0.85131   0.24100   1.000
    Zn9     Zn   0.33770   0.70500   0.72850   1.000
    O21     O    0.22100   0.85850   0.19640   1.000
    O22     O    0.17330   0.85170   0.17410   1.000
    O23     O    0.30590   0.11000   0.79950   1.000
    O24     O    0.34670   0.11150   0.76650   1.000
    O25     O    0.33710   0.73070   0.76290   1.000
    O26     O    0.33020   0.70080   0.81190   1.000
    O27     O    0.13800   0.87240   0.22110   1.000
    O28     O    0.22450   0.82240   0.25640   1.000
    C83     C    0.28070   0.89170   0.95730   1.000
    C84     C    0.28530   0.91970   0.93720   1.000
    C85     C    0.29660   0.92410   0.90130   1.000
    C86     C    0.30320   0.90010   0.88550   1.000
    C87     C    0.29870   0.87200   0.90530   1.000
    C88     C    0.28740   0.86790   0.94120   1.000
    C89     C    0.26850   0.88700   0.99420   1.000
    C90     C    0.25800   0.88270   0.02490   1.000
    C91     C    0.24470   0.87720   0.06140   1.000
    C92     C    0.26430   0.87790   0.09080   1.000
    C93     C    0.25120   0.87210   0.12600   1.000
    C94     C    0.21800   0.86520   0.13240   1.000
    C95     C    0.19850   0.86470   0.10270   1.000
    C96     C    0.21180   0.87060   0.06760   1.000
    C97     C    0.20340   0.85810   0.16970   1.000
    C98     C    0.30110   0.95310   0.88070   1.000
    C99     C    0.30460   0.97740   0.86380   1.000
    C100    C    0.30870   0.00670   0.84410   1.000
    C101    C    0.28800   0.02030   0.85210   1.000
    C102    C    0.29250   0.04920   0.83400   1.000
    C103    C    0.31770   0.06510   0.80750   1.000
    C104    C    0.33800   0.05090   0.79930   1.000
    C105    C    0.33350   0.02200   0.81740   1.000
    C106    C    0.32360   0.09710   0.78980   1.000
    C107    C    0.30500   0.84690   0.88870   1.000
    C108    C    0.31010   0.82590   0.87470   1.000
    C109    C    0.31570   0.80070   0.85740   1.000
    C110    C    0.32670   0.80490   0.81900   1.000
    C111    C    0.33190   0.78130   0.80000   1.000
    C112    C    0.32540   0.75130   0.82190   1.000
    C113    C    0.32070   0.74850   0.85500   1.000
    C114    C    0.31550   0.77230   0.87300   1.000
    C115    C    0.32920   0.72520   0.80140   1.000
    C116    C    0.09100   0.89760   0.28240   1.000
    C117    C    0.07410   0.91560   0.27940   1.000
    C118    C    0.26280   0.78880   0.25690   1.000
    C119    C    0.28050   0.77110   0.25690   1.000
    H47     H    0.28100   0.93600   0.94800   1.000
    H48     H    0.31100   0.90300   0.86100   1.000
    H49     H    0.28500   0.84900   0.95500   1.000
    H50     H    0.28700   0.88300   0.08700   1.000
    H51     H    0.26500   0.87300   0.14600   1.000
    H52     H    0.17600   0.86000   0.10600   1.000
    H53     H    0.19800   0.87000   0.04800   1.000
    H54     H    0.27100   0.01000   0.87000   1.000
    H55     H    0.27800   0.05800   0.84000   1.000
    H56     H    0.35500   0.06100   0.78100   1.000
    H57     H    0.34800   0.01300   0.81200   1.000
    H58     H    0.33100   0.82900   0.80400   1.000
    H59     H    0.34000   0.78300   0.77100   1.000
    H60     H    0.32100   0.72700   0.87000   1.000
    H61     H    0.31000   0.76700   0.90300   1.000
    H62     H    0.09200   0.88800   0.30500   1.000
    H63     H    0.06400   0.91800   0.30100   1.000
    H64     H    0.27500   0.81300   0.26200   1.000
    H65     H    0.30400   0.78300   0.26200   1.000
    O29     O    0.35500   0.73020   0.79610   1.000
    O30     O    0.30020   0.69590   0.79900   1.000
    C120    C    0.34540   0.80740   0.85000   1.000
    C121    C    0.34980   0.78230   0.83300   1.000
    C122    C    0.28970   0.74360   0.83700   1.000
    C123    C    0.28540   0.76880   0.85300   1.000
    H66     H    0.36800   0.83300   0.85600   1.000
    H67     H    0.37700   0.79000   0.82900   1.000
    H68     H    0.26700   0.71700   0.83400   1.000
    H69     H    0.26000   0.76500   0.86300   1.000
    Zn10    Zn   0.69698   0.84370   0.28940   1.000
    Zn11    Zn   0.63563   0.85131   0.25900   1.000
    Zn12    Zn   0.36730   0.70500   0.77150   1.000
    O31     O    0.63750   0.85850   0.30360   1.000
    O32     O    0.67840   0.85170   0.32590   1.000
    O33     O    0.80410   0.11000   0.70050   1.000
    O34     O    0.76480   0.11150   0.73350   1.000
    O35     O    0.39360   0.73070   0.73710   1.000
    O36     O    0.37060   0.70080   0.68810   1.000
    O37     O    0.73440   0.87240   0.27890   1.000
    O38     O    0.59790   0.82240   0.24360   1.000
    C124    C    0.61100   0.89170   0.54270   1.000
    C125    C    0.63440   0.91970   0.56280   1.000
    C126    C    0.62750   0.92410   0.59870   1.000
    C127    C    0.59690   0.90010   0.61450   1.000
    C128    C    0.57330   0.87200   0.59470   1.000
    C129    C    0.58050   0.86790   0.55880   1.000
    C130    C    0.61850   0.88700   0.50580   1.000
    C131    C    0.62470   0.88270   0.47510   1.000
    C132    C    0.63250   0.87720   0.43860   1.000
    C133    C    0.61360   0.87790   0.40920   1.000
    C134    C    0.62090   0.87210   0.37400   1.000
    C135    C    0.64720   0.86520   0.36760   1.000
    C136    C    0.66620   0.86470   0.39730   1.000
    C137    C    0.65880   0.87060   0.43240   1.000
    C138    C    0.65470   0.85810   0.33030   1.000
    C139    C    0.65200   0.95310   0.61930   1.000
    C140    C    0.67280   0.97740   0.63620   1.000
    C141    C    0.69800   0.00670   0.65590   1.000
    C142    C    0.73230   0.02030   0.64790   1.000
    C143    C    0.75670   0.04920   0.66600   1.000
    C144    C    0.74740   0.06510   0.69250   1.000
    C145    C    0.71290   0.05090   0.70070   1.000
    C146    C    0.68850   0.02200   0.68260   1.000
    C147    C    0.77350   0.09710   0.71020   1.000
    C148    C    0.54190   0.84690   0.61130   1.000
    C149    C    0.51580   0.82590   0.62530   1.000
    C150    C    0.48500   0.80070   0.64260   1.000
    C151    C    0.47820   0.80490   0.68100   1.000
    C152    C    0.44940   0.78130   0.70000   1.000
    C153    C    0.42590   0.75130   0.67810   1.000
    C154    C    0.42780   0.74850   0.64500   1.000
    C155    C    0.45680   0.77230   0.62700   1.000
    C156    C    0.39600   0.72520   0.69860   1.000
    C157    C    0.80660   0.89760   0.21760   1.000
    C158    C    0.84150   0.91560   0.22060   1.000
    C159    C    0.52600   0.78880   0.24310   1.000
    C160    C    0.49060   0.77110   0.24310   1.000
    H70     H    0.65500   0.93600   0.55200   1.000
    H71     H    0.59200   0.90300   0.63900   1.000
    H72     H    0.56400   0.84900   0.54500   1.000
    H73     H    0.59600   0.88300   0.41300   1.000
    H74     H    0.60800   0.87300   0.35400   1.000
    H75     H    0.68400   0.86000   0.39400   1.000
    H76     H    0.67200   0.87000   0.45200   1.000
    H77     H    0.73900   0.01000   0.63000   1.000
    H78     H    0.78000   0.05800   0.66000   1.000
    H79     H    0.70600   0.06100   0.71900   1.000
    H80     H    0.66500   0.01300   0.68800   1.000
    H81     H    0.49800   0.82900   0.69600   1.000
    H82     H    0.44300   0.78300   0.72900   1.000
    H83     H    0.40600   0.72700   0.63000   1.000
    H84     H    0.45700   0.76700   0.59700   1.000
    H85     H    0.79600   0.88800   0.19500   1.000
    H86     H    0.85400   0.91800   0.19900   1.000
    H87     H    0.53800   0.81300   0.23800   1.000
    H88     H    0.47900   0.78300   0.23800   1.000
    O39     O    0.37520   0.73020   0.70390   1.000
    O40     O    0.39570   0.69590   0.70100   1.000
    C161    C    0.46200   0.80740   0.65000   1.000
    C162    C    0.43250   0.78230   0.66700   1.000
    C163    C    0.45390   0.74360   0.66300   1.000
    C164    C    0.48340   0.76880   0.64700   1.000
    H89     H    0.46500   0.83300   0.64400   1.000
    H90     H    0.41300   0.79000   0.67100   1.000
    H91     H    0.45000   0.71700   0.66600   1.000
    H92     H    0.50500   0.76500   0.63700   1.000
    Zn13    Zn   0.14672   0.30302   0.28940   1.000
    Zn14    Zn   0.21568   0.36437   0.25900   1.000
    Zn15    Zn   0.33770   0.63270   0.77150   1.000
    O41     O    0.22100   0.36250   0.30360   1.000
    O42     O    0.17330   0.32160   0.32590   1.000
    O43     O    0.30590   0.19590   0.70050   1.000
    O44     O    0.34670   0.23520   0.73350   1.000
    O45     O    0.33710   0.60640   0.73710   1.000
    O46     O    0.33020   0.62940   0.68810   1.000
    O47     O    0.13800   0.26560   0.27890   1.000
    O48     O    0.22450   0.40210   0.24360   1.000
    C165    C    0.28070   0.38900   0.54270   1.000
    C166    C    0.28530   0.36560   0.56280   1.000
    C167    C    0.29660   0.37250   0.59870   1.000
    C168    C    0.30320   0.40310   0.61450   1.000
    C169    C    0.29870   0.42670   0.59470   1.000
    C170    C    0.28740   0.41950   0.55880   1.000
    C171    C    0.26850   0.38150   0.50580   1.000
    C172    C    0.25800   0.37530   0.47510   1.000
    C173    C    0.24470   0.36750   0.43860   1.000
    C174    C    0.26430   0.38640   0.40920   1.000
    C175    C    0.25120   0.37910   0.37400   1.000
    C176    C    0.21800   0.35280   0.36760   1.000
    C177    C    0.19850   0.33380   0.39730   1.000
    C178    C    0.21180   0.34120   0.43240   1.000
    C179    C    0.20340   0.34530   0.33030   1.000
    C180    C    0.30110   0.34800   0.61930   1.000
    C181    C    0.30460   0.32720   0.63620   1.000
    C182    C    0.30870   0.30200   0.65590   1.000
    C183    C    0.28800   0.26770   0.64790   1.000
    C184    C    0.29250   0.24330   0.66600   1.000
    C185    C    0.31770   0.25260   0.69250   1.000
    C186    C    0.33800   0.28710   0.70070   1.000
    C187    C    0.33350   0.31150   0.68260   1.000
    C188    C    0.32360   0.22650   0.71020   1.000
    C189    C    0.30500   0.45810   0.61130   1.000
    C190    C    0.31010   0.48420   0.62530   1.000
    C191    C    0.31570   0.51500   0.64260   1.000
    C192    C    0.32670   0.52180   0.68100   1.000
    C193    C    0.33190   0.55060   0.70000   1.000
    C194    C    0.32540   0.57410   0.67810   1.000
    C195    C    0.32070   0.57220   0.64500   1.000
    C196    C    0.31550   0.54320   0.62700   1.000
    C197    C    0.32920   0.60400   0.69860   1.000
    C198    C    0.09100   0.19340   0.21760   1.000
    C199    C    0.07410   0.15850   0.22060   1.000
    C200    C    0.26280   0.47400   0.24310   1.000
    C201    C    0.28050   0.50940   0.24310   1.000
    H93     H    0.28100   0.34500   0.55200   1.000
    H94     H    0.31100   0.40800   0.63900   1.000
    H95     H    0.28500   0.43600   0.54500   1.000
    H96     H    0.28700   0.40400   0.41300   1.000
    H97     H    0.26500   0.39200   0.35400   1.000
    H98     H    0.17600   0.31600   0.39400   1.000
    H99     H    0.19800   0.32800   0.45200   1.000
    H100    H    0.27100   0.26100   0.63000   1.000
    H101    H    0.27800   0.22000   0.66000   1.000
    H102    H    0.35500   0.29400   0.71900   1.000
    H103    H    0.34800   0.33500   0.68800   1.000
    H104    H    0.33100   0.50200   0.69600   1.000
    H105    H    0.34000   0.55700   0.72900   1.000
    H106    H    0.32100   0.59400   0.63000   1.000
    H107    H    0.31000   0.54300   0.59700   1.000
    H108    H    0.09200   0.20400   0.19500   1.000
    H109    H    0.06400   0.14600   0.19900   1.000
    H110    H    0.27500   0.46200   0.23800   1.000
    H111    H    0.30400   0.52100   0.23800   1.000
    O49     O    0.35500   0.62480   0.70390   1.000
    O50     O    0.30020   0.60430   0.70100   1.000
    C202    C    0.34540   0.53800   0.65000   1.000
    C203    C    0.34980   0.56750   0.66700   1.000
    C204    C    0.28970   0.54610   0.66300   1.000
    C205    C    0.28540   0.51660   0.64700   1.000
    H112    H    0.36800   0.53500   0.64400   1.000
    H113    H    0.37700   0.58700   0.67100   1.000
    H114    H    0.26700   0.55000   0.66600   1.000
    H115    H    0.26000   0.49500   0.63700   1.000
    Zn16    Zn   0.15630   0.85328   0.28940   1.000
    Zn17    Zn   0.14869   0.78432   0.25900   1.000
    Zn18    Zn   0.29500   0.66230   0.77150   1.000
    O51     O    0.14150   0.77900   0.30360   1.000
    O52     O    0.14830   0.82670   0.32590   1.000
    O53     O    0.89000   0.69410   0.70050   1.000
    O54     O    0.88850   0.65330   0.73350   1.000
    O55     O    0.26930   0.66290   0.73710   1.000
    O56     O    0.29920   0.66980   0.68810   1.000
    O57     O    0.12760   0.86200   0.27890   1.000
    O58     O    0.17760   0.77550   0.24360   1.000
    C206    C    0.10830   0.71930   0.54270   1.000
    C207    C    0.08030   0.71470   0.56280   1.000
    C208    C    0.07590   0.70340   0.59870   1.000
    C209    C    0.09990   0.69680   0.61450   1.000
    C210    C    0.12800   0.70130   0.59470   1.000
    C211    C    0.13210   0.71260   0.55880   1.000
    C212    C    0.11300   0.73150   0.50580   1.000
    C213    C    0.11730   0.74200   0.47510   1.000
    C214    C    0.12280   0.75530   0.43860   1.000
    C215    C    0.12210   0.73570   0.40920   1.000
    C216    C    0.12790   0.74880   0.37400   1.000
    C217    C    0.13480   0.78200   0.36760   1.000
    C218    C    0.13530   0.80150   0.39730   1.000
    C219    C    0.12940   0.78820   0.43240   1.000
    C220    C    0.14190   0.79660   0.33030   1.000
    C221    C    0.04690   0.69890   0.61930   1.000
    C222    C    0.02260   0.69540   0.63620   1.000
    C223    C    0.99330   0.69130   0.65590   1.000
    C224    C    0.97970   0.71200   0.64790   1.000
    C225    C    0.95080   0.70750   0.66600   1.000
    C226    C    0.93490   0.68230   0.69250   1.000
    C227    C    0.94910   0.66200   0.70070   1.000
    C228    C    0.97800   0.66650   0.68260   1.000
    C229    C    0.90290   0.67640   0.71020   1.000
    C230    C    0.15310   0.69500   0.61130   1.000
    C231    C    0.17410   0.68990   0.62530   1.000
    C232    C    0.19930   0.68430   0.64260   1.000
    C233    C    0.19510   0.67330   0.68100   1.000
    C234    C    0.21870   0.66810   0.70000   1.000
    C235    C    0.24870   0.67460   0.67810   1.000
    C236    C    0.25150   0.67930   0.64500   1.000
    C237    C    0.22770   0.68450   0.62700   1.000
    C238    C    0.27480   0.67080   0.69860   1.000
    C239    C    0.10240   0.90900   0.21760   1.000
    C240    C    0.08440   0.92590   0.22060   1.000
    C241    C    0.21120   0.73720   0.24310   1.000
    C242    C    0.22890   0.71950   0.24310   1.000
    H116    H    0.06400   0.71900   0.55200   1.000
    H117    H    0.09700   0.68900   0.63900   1.000
    H118    H    0.15100   0.71500   0.54500   1.000
    H119    H    0.11700   0.71300   0.41300   1.000
    H120    H    0.12700   0.73500   0.35400   1.000
    H121    H    0.14000   0.82400   0.39400   1.000
    H122    H    0.13000   0.80200   0.45200   1.000
    H123    H    0.99000   0.72900   0.63000   1.000
    H124    H    0.94200   0.72200   0.66000   1.000
    H125    H    0.93900   0.64500   0.71900   1.000
    H126    H    0.98700   0.65200   0.68800   1.000
    H127    H    0.17100   0.66900   0.69600   1.000
    H128    H    0.21700   0.66000   0.72900   1.000
    H129    H    0.27300   0.67900   0.63000   1.000
    H130    H    0.23300   0.69000   0.59700   1.000
    H131    H    0.11200   0.90800   0.19500   1.000
    H132    H    0.08200   0.93600   0.19900   1.000
    H133    H    0.18700   0.72500   0.23800   1.000
    H134    H    0.21700   0.69600   0.23800   1.000
    O59     O    0.26980   0.64500   0.70390   1.000
    O60     O    0.30410   0.69980   0.70100   1.000
    C243    C    0.19260   0.65460   0.65000   1.000
    C244    C    0.21770   0.65020   0.66700   1.000
    C245    C    0.25640   0.71030   0.66300   1.000
    C246    C    0.23120   0.71460   0.64700   1.000
    H135    H    0.16700   0.63200   0.64400   1.000
    H136    H    0.21000   0.62300   0.67100   1.000
    H137    H    0.28300   0.73300   0.66600   1.000
    H138    H    0.23500   0.74000   0.63700   1.000
    Zn19    Zn   0.84370   0.69698   0.78940   1.000
    Zn20    Zn   0.85131   0.63563   0.75900   1.000
    Zn21    Zn   0.70500   0.36730   0.27150   1.000
    O61     O    0.85850   0.63750   0.80360   1.000
    O62     O    0.85170   0.67840   0.82590   1.000
    O63     O    0.11000   0.80410   0.20050   1.000
    O64     O    0.11150   0.76480   0.23350   1.000
    O65     O    0.73070   0.39360   0.23710   1.000
    O66     O    0.70080   0.37060   0.18810   1.000
    O67     O    0.87240   0.73440   0.77890   1.000
    O68     O    0.82240   0.59790   0.74360   1.000
    C247    C    0.89170   0.61100   0.04270   1.000
    C248    C    0.91970   0.63440   0.06280   1.000
    C249    C    0.92410   0.62750   0.09870   1.000
    C250    C    0.90010   0.59690   0.11450   1.000
    C251    C    0.87200   0.57330   0.09470   1.000
    C252    C    0.86790   0.58050   0.05880   1.000
    C253    C    0.88700   0.61850   0.00580   1.000
    C254    C    0.88270   0.62470   0.97510   1.000
    C255    C    0.87720   0.63250   0.93860   1.000
    C256    C    0.87790   0.61360   0.90920   1.000
    C257    C    0.87210   0.62090   0.87400   1.000
    C258    C    0.86520   0.64720   0.86760   1.000
    C259    C    0.86470   0.66620   0.89730   1.000
    C260    C    0.87060   0.65880   0.93240   1.000
    C261    C    0.85810   0.65470   0.83030   1.000
    C262    C    0.95310   0.65200   0.11930   1.000
    C263    C    0.97740   0.67280   0.13620   1.000
    C264    C    0.00670   0.69800   0.15590   1.000
    C265    C    0.02030   0.73230   0.14790   1.000
    C266    C    0.04920   0.75670   0.16600   1.000
    C267    C    0.06510   0.74740   0.19250   1.000
    C268    C    0.05090   0.71290   0.20070   1.000
    C269    C    0.02200   0.68850   0.18260   1.000
    C270    C    0.09710   0.77350   0.21020   1.000
    C271    C    0.84690   0.54190   0.11130   1.000
    C272    C    0.82590   0.51580   0.12530   1.000
    C273    C    0.80070   0.48500   0.14260   1.000
    C274    C    0.80490   0.47820   0.18100   1.000
    C275    C    0.78130   0.44940   0.20000   1.000
    C276    C    0.75130   0.42590   0.17810   1.000
    C277    C    0.74850   0.42780   0.14500   1.000
    C278    C    0.77230   0.45680   0.12700   1.000
    C279    C    0.72520   0.39600   0.19860   1.000
    C280    C    0.89760   0.80660   0.71760   1.000
    C281    C    0.91560   0.84150   0.72060   1.000
    C282    C    0.78880   0.52600   0.74310   1.000
    C283    C    0.77110   0.49060   0.74310   1.000
    H139    H    0.93600   0.65500   0.05200   1.000
    H140    H    0.90300   0.59200   0.13900   1.000
    H141    H    0.84900   0.56400   0.04500   1.000
    H142    H    0.88300   0.59600   0.91300   1.000
    H143    H    0.87300   0.60800   0.85400   1.000
    H144    H    0.86000   0.68400   0.89400   1.000
    H145    H    0.87000   0.67200   0.95200   1.000
    H146    H    0.01000   0.73900   0.13000   1.000
    H147    H    0.05800   0.78000   0.16000   1.000
    H148    H    0.06100   0.70600   0.21900   1.000
    H149    H    0.01300   0.66500   0.18800   1.000
    H150    H    0.82900   0.49800   0.19600   1.000
    H151    H    0.78300   0.44300   0.22900   1.000
    H152    H    0.72700   0.40600   0.13000   1.000
    H153    H    0.76700   0.45700   0.09700   1.000
    H154    H    0.88800   0.79600   0.69500   1.000
    H155    H    0.91800   0.85400   0.69900   1.000
    H156    H    0.81300   0.53800   0.73800   1.000
    H157    H    0.78300   0.47900   0.73800   1.000
    O69     O    0.73020   0.37520   0.20390   1.000
    O70     O    0.69590   0.39570   0.20100   1.000
    C284    C    0.80740   0.46200   0.15000   1.000
    C285    C    0.78230   0.43250   0.16700   1.000
    C286    C    0.74360   0.45390   0.16300   1.000
    C287    C    0.76880   0.48340   0.14700   1.000
    H158    H    0.83300   0.46500   0.14400   1.000
    H159    H    0.79000   0.41300   0.17100   1.000
    H160    H    0.71700   0.45000   0.16600   1.000
    H161    H    0.76500   0.50500   0.13700   1.000
    Zn22    Zn   0.30302   0.14672   0.78940   1.000
    Zn23    Zn   0.36437   0.21568   0.75900   1.000
    Zn24    Zn   0.63270   0.33770   0.27150   1.000
    O71     O    0.36250   0.22100   0.80360   1.000
    O72     O    0.32160   0.17330   0.82590   1.000
    O73     O    0.19590   0.30590   0.20050   1.000
    O74     O    0.23520   0.34670   0.23350   1.000
    O75     O    0.60640   0.33710   0.23710   1.000
    O76     O    0.62940   0.33020   0.18810   1.000
    O77     O    0.26560   0.13800   0.77890   1.000
    O78     O    0.40210   0.22450   0.74360   1.000
    C288    C    0.38900   0.28070   0.04270   1.000
    C289    C    0.36560   0.28530   0.06280   1.000
    C290    C    0.37250   0.29660   0.09870   1.000
    C291    C    0.40310   0.30320   0.11450   1.000
    C292    C    0.42670   0.29870   0.09470   1.000
    C293    C    0.41950   0.28740   0.05880   1.000
    C294    C    0.38150   0.26850   0.00580   1.000
    C295    C    0.37530   0.25800   0.97510   1.000
    C296    C    0.36750   0.24470   0.93860   1.000
    C297    C    0.38640   0.26430   0.90920   1.000
    C298    C    0.37910   0.25120   0.87400   1.000
    C299    C    0.35280   0.21800   0.86760   1.000
    C300    C    0.33380   0.19850   0.89730   1.000
    C301    C    0.34120   0.21180   0.93240   1.000
    C302    C    0.34530   0.20340   0.83030   1.000
    C303    C    0.34800   0.30110   0.11930   1.000
    C304    C    0.32720   0.30460   0.13620   1.000
    C305    C    0.30200   0.30870   0.15590   1.000
    C306    C    0.26770   0.28800   0.14790   1.000
    C307    C    0.24330   0.29250   0.16600   1.000
    C308    C    0.25260   0.31770   0.19250   1.000
    C309    C    0.28710   0.33800   0.20070   1.000
    C310    C    0.31150   0.33350   0.18260   1.000
    C311    C    0.22650   0.32360   0.21020   1.000
    C312    C    0.45810   0.30500   0.11130   1.000
    C313    C    0.48420   0.31010   0.12530   1.000
    C314    C    0.51500   0.31570   0.14260   1.000
    C315    C    0.52180   0.32670   0.18100   1.000
    C316    C    0.55060   0.33190   0.20000   1.000
    C317    C    0.57410   0.32540   0.17810   1.000
    C318    C    0.57220   0.32070   0.14500   1.000
    C319    C    0.54320   0.31550   0.12700   1.000
    C320    C    0.60400   0.32920   0.19860   1.000
    C321    C    0.19340   0.09100   0.71760   1.000
    C322    C    0.15850   0.07410   0.72060   1.000
    C323    C    0.47400   0.26280   0.74310   1.000
    C324    C    0.50940   0.28050   0.74310   1.000
    H162    H    0.34500   0.28100   0.05200   1.000
    H163    H    0.40800   0.31100   0.13900   1.000
    H164    H    0.43600   0.28500   0.04500   1.000
    H165    H    0.40400   0.28700   0.91300   1.000
    H166    H    0.39200   0.26500   0.85400   1.000
    H167    H    0.31600   0.17600   0.89400   1.000
    H168    H    0.32800   0.19800   0.95200   1.000
    H169    H    0.26100   0.27100   0.13000   1.000
    H170    H    0.22000   0.27800   0.16000   1.000
    H171    H    0.29400   0.35500   0.21900   1.000
    H172    H    0.33500   0.34800   0.18800   1.000
    H173    H    0.50200   0.33100   0.19600   1.000
    H174    H    0.55700   0.34000   0.22900   1.000
    H175    H    0.59400   0.32100   0.13000   1.000
    H176    H    0.54300   0.31000   0.09700   1.000
    H177    H    0.20400   0.09200   0.69500   1.000
    H178    H    0.14600   0.06400   0.69900   1.000
    H179    H    0.46200   0.27500   0.73800   1.000
    H180    H    0.52100   0.30400   0.73800   1.000
    O79     O    0.62480   0.35500   0.20390   1.000
    O80     O    0.60430   0.30020   0.20100   1.000
    C325    C    0.53800   0.34540   0.15000   1.000
    C326    C    0.56750   0.34980   0.16700   1.000
    C327    C    0.54610   0.28970   0.16300   1.000
    C328    C    0.51660   0.28540   0.14700   1.000
    H181    H    0.53500   0.36800   0.14400   1.000
    H182    H    0.58700   0.37700   0.17100   1.000
    H183    H    0.55000   0.26700   0.16600   1.000
    H184    H    0.49500   0.26000   0.13700   1.000
    Zn25    Zn   0.85328   0.15630   0.78940   1.000
    Zn26    Zn   0.78432   0.14869   0.75900   1.000
    Zn27    Zn   0.66230   0.29500   0.27150   1.000
    O81     O    0.77900   0.14150   0.80360   1.000
    O82     O    0.82670   0.14830   0.82590   1.000
    O83     O    0.69410   0.89000   0.20050   1.000
    O84     O    0.65330   0.88850   0.23350   1.000
    O85     O    0.66290   0.26930   0.23710   1.000
    O86     O    0.66980   0.29920   0.18810   1.000
    O87     O    0.86200   0.12760   0.77890   1.000
    O88     O    0.77550   0.17760   0.74360   1.000
    C329    C    0.71930   0.10830   0.04270   1.000
    C330    C    0.71470   0.08030   0.06280   1.000
    C331    C    0.70340   0.07590   0.09870   1.000
    C332    C    0.69680   0.09990   0.11450   1.000
    C333    C    0.70130   0.12800   0.09470   1.000
    C334    C    0.71260   0.13210   0.05880   1.000
    C335    C    0.73150   0.11300   0.00580   1.000
    C336    C    0.74200   0.11730   0.97510   1.000
    C337    C    0.75530   0.12280   0.93860   1.000
    C338    C    0.73570   0.12210   0.90920   1.000
    C339    C    0.74880   0.12790   0.87400   1.000
    C340    C    0.78200   0.13480   0.86760   1.000
    C341    C    0.80150   0.13530   0.89730   1.000
    C342    C    0.78820   0.12940   0.93240   1.000
    C343    C    0.79660   0.14190   0.83030   1.000
    C344    C    0.69890   0.04690   0.11930   1.000
    C345    C    0.69540   0.02260   0.13620   1.000
    C346    C    0.69130   0.99330   0.15590   1.000
    C347    C    0.71200   0.97970   0.14790   1.000
    C348    C    0.70750   0.95080   0.16600   1.000
    C349    C    0.68230   0.93490   0.19250   1.000
    C350    C    0.66200   0.94910   0.20070   1.000
    C351    C    0.66650   0.97800   0.18260   1.000
    C352    C    0.67640   0.90290   0.21020   1.000
    C353    C    0.69500   0.15310   0.11130   1.000
    C354    C    0.68990   0.17410   0.12530   1.000
    C355    C    0.68430   0.19930   0.14260   1.000
    C356    C    0.67330   0.19510   0.18100   1.000
    C357    C    0.66810   0.21870   0.20000   1.000
    C358    C    0.67460   0.24870   0.17810   1.000
    C359    C    0.67930   0.25150   0.14500   1.000
    C360    C    0.68450   0.22770   0.12700   1.000
    C361    C    0.67080   0.27480   0.19860   1.000
    C362    C    0.90900   0.10240   0.71760   1.000
    C363    C    0.92590   0.08440   0.72060   1.000
    C364    C    0.73720   0.21120   0.74310   1.000
    C365    C    0.71950   0.22890   0.74310   1.000
    H185    H    0.71900   0.06400   0.05200   1.000
    H186    H    0.68900   0.09700   0.13900   1.000
    H187    H    0.71500   0.15100   0.04500   1.000
    H188    H    0.71300   0.11700   0.91300   1.000
    H189    H    0.73500   0.12700   0.85400   1.000
    H190    H    0.82400   0.14000   0.89400   1.000
    H191    H    0.80200   0.13000   0.95200   1.000
    H192    H    0.72900   0.99000   0.13000   1.000
    H193    H    0.72200   0.94200   0.16000   1.000
    H194    H    0.64500   0.93900   0.21900   1.000
    H195    H    0.65200   0.98700   0.18800   1.000
    H196    H    0.66900   0.17100   0.19600   1.000
    H197    H    0.66000   0.21700   0.22900   1.000
    H198    H    0.67900   0.27300   0.13000   1.000
    H199    H    0.69000   0.23300   0.09700   1.000
    H200    H    0.90800   0.11200   0.69500   1.000
    H201    H    0.93600   0.08200   0.69900   1.000
    H202    H    0.72500   0.18700   0.73800   1.000
    H203    H    0.69600   0.21700   0.73800   1.000
    O89     O    0.64500   0.26980   0.20390   1.000
    O90     O    0.69980   0.30410   0.20100   1.000
    C366    C    0.65460   0.19260   0.15000   1.000
    C367    C    0.65020   0.21770   0.16700   1.000
    C368    C    0.71030   0.25640   0.16300   1.000
    C369    C    0.71460   0.23120   0.14700   1.000
    H204    H    0.63200   0.16700   0.14400   1.000
    H205    H    0.62300   0.21000   0.17100   1.000
    H206    H    0.73300   0.28300   0.16600   1.000
    H207    H    0.74000   0.23500   0.13700   1.000
    Zn28    Zn   0.30302   0.15630   0.71060   1.000
    Zn29    Zn   0.36437   0.14869   0.74100   1.000
    Zn30    Zn   0.63270   0.29500   0.22850   1.000
    O91     O    0.36250   0.14150   0.69640   1.000
    O92     O    0.32160   0.14830   0.67410   1.000
    O93     O    0.19590   0.89000   0.29950   1.000
    O94     O    0.23520   0.88850   0.26650   1.000
    O95     O    0.60640   0.26930   0.26290   1.000
    O96     O    0.62940   0.29920   0.31190   1.000
    O97     O    0.26560   0.12760   0.72110   1.000
    O98     O    0.40210   0.17760   0.75640   1.000
    C370    C    0.38900   0.10830   0.45730   1.000
    C371    C    0.36560   0.08030   0.43720   1.000
    C372    C    0.37250   0.07590   0.40130   1.000
    C373    C    0.40310   0.09990   0.38550   1.000
    C374    C    0.42670   0.12800   0.40530   1.000
    C375    C    0.41950   0.13210   0.44120   1.000
    C376    C    0.38150   0.11300   0.49420   1.000
    C377    C    0.37530   0.11730   0.52490   1.000
    C378    C    0.36750   0.12280   0.56140   1.000
    C379    C    0.38640   0.12210   0.59080   1.000
    C380    C    0.37910   0.12790   0.62600   1.000
    C381    C    0.35280   0.13480   0.63240   1.000
    C382    C    0.33380   0.13530   0.60270   1.000
    C383    C    0.34120   0.12940   0.56760   1.000
    C384    C    0.34530   0.14190   0.66970   1.000
    C385    C    0.34800   0.04690   0.38070   1.000
    C386    C    0.32720   0.02260   0.36380   1.000
    C387    C    0.30200   0.99330   0.34410   1.000
    C388    C    0.26770   0.97970   0.35210   1.000
    C389    C    0.24330   0.95080   0.33400   1.000
    C390    C    0.25260   0.93490   0.30750   1.000
    C391    C    0.28710   0.94910   0.29930   1.000
    C392    C    0.31150   0.97800   0.31740   1.000
    C393    C    0.22650   0.90290   0.28980   1.000
    C394    C    0.45810   0.15310   0.38870   1.000
    C395    C    0.48420   0.17410   0.37470   1.000
    C396    C    0.51500   0.19930   0.35740   1.000
    C397    C    0.52180   0.19510   0.31900   1.000
    C398    C    0.55060   0.21870   0.30000   1.000
    C399    C    0.57410   0.24870   0.32190   1.000
    C400    C    0.57220   0.25150   0.35500   1.000
    C401    C    0.54320   0.22770   0.37300   1.000
    C402    C    0.60400   0.27480   0.30140   1.000
    C403    C    0.19340   0.10240   0.78240   1.000
    C404    C    0.15850   0.08440   0.77940   1.000
    C405    C    0.47400   0.21120   0.75690   1.000
    C406    C    0.50940   0.22890   0.75690   1.000
    H208    H    0.34500   0.06400   0.44800   1.000
    H209    H    0.40800   0.09700   0.36100   1.000
    H210    H    0.43600   0.15100   0.45500   1.000
    H211    H    0.40400   0.11700   0.58700   1.000
    H212    H    0.39200   0.12700   0.64600   1.000
    H213    H    0.31600   0.14000   0.60600   1.000
    H214    H    0.32800   0.13000   0.54800   1.000
    H215    H    0.26100   0.99000   0.37000   1.000
    H216    H    0.22000   0.94200   0.34000   1.000
    H217    H    0.29400   0.93900   0.28100   1.000
    H218    H    0.33500   0.98700   0.31200   1.000
    H219    H    0.50200   0.17100   0.30400   1.000
    H220    H    0.55700   0.21700   0.27100   1.000
    H221    H    0.59400   0.27300   0.37000   1.000
    H222    H    0.54300   0.23300   0.40300   1.000
    H223    H    0.20400   0.11200   0.80500   1.000
    H224    H    0.14600   0.08200   0.80100   1.000
    H225    H    0.46200   0.18700   0.76200   1.000
    H226    H    0.52100   0.21700   0.76200   1.000
    O99     O    0.62480   0.26980   0.29610   1.000
    O100    O    0.60430   0.30410   0.29900   1.000
    C407    C    0.53800   0.19260   0.35000   1.000
    C408    C    0.56750   0.21770   0.33300   1.000
    C409    C    0.54610   0.25640   0.33700   1.000
    C410    C    0.51660   0.23120   0.35300   1.000
    H227    H    0.53500   0.16700   0.35600   1.000
    H228    H    0.58700   0.21000   0.32900   1.000
    H229    H    0.55000   0.28300   0.33400   1.000
    H230    H    0.49500   0.23500   0.36300   1.000
    Zn31    Zn   0.85328   0.69698   0.71060   1.000
    Zn32    Zn   0.78432   0.63563   0.74100   1.000
    Zn33    Zn   0.66230   0.36730   0.22850   1.000
    O101    O    0.77900   0.63750   0.69640   1.000
    O102    O    0.82670   0.67840   0.67410   1.000
    O103    O    0.69410   0.80410   0.29950   1.000
    O104    O    0.65330   0.76480   0.26650   1.000
    O105    O    0.66290   0.39360   0.26290   1.000
    O106    O    0.66980   0.37060   0.31190   1.000
    O107    O    0.86200   0.73440   0.72110   1.000
    O108    O    0.77550   0.59790   0.75640   1.000
    C411    C    0.71930   0.61100   0.45730   1.000
    C412    C    0.71470   0.63440   0.43720   1.000
    C413    C    0.70340   0.62750   0.40130   1.000
    C414    C    0.69680   0.59690   0.38550   1.000
    C415    C    0.70130   0.57330   0.40530   1.000
    C416    C    0.71260   0.58050   0.44120   1.000
    C417    C    0.73150   0.61850   0.49420   1.000
    C418    C    0.74200   0.62470   0.52490   1.000
    C419    C    0.75530   0.63250   0.56140   1.000
    C420    C    0.73570   0.61360   0.59080   1.000
    C421    C    0.74880   0.62090   0.62600   1.000
    C422    C    0.78200   0.64720   0.63240   1.000
    C423    C    0.80150   0.66620   0.60270   1.000
    C424    C    0.78820   0.65880   0.56760   1.000
    C425    C    0.79660   0.65470   0.66970   1.000
    C426    C    0.69890   0.65200   0.38070   1.000
    C427    C    0.69540   0.67280   0.36380   1.000
    C428    C    0.69130   0.69800   0.34410   1.000
    C429    C    0.71200   0.73230   0.35210   1.000
    C430    C    0.70750   0.75670   0.33400   1.000
    C431    C    0.68230   0.74740   0.30750   1.000
    C432    C    0.66200   0.71290   0.29930   1.000
    C433    C    0.66650   0.68850   0.31740   1.000
    C434    C    0.67640   0.77350   0.28980   1.000
    C435    C    0.69500   0.54190   0.38870   1.000
    C436    C    0.68990   0.51580   0.37470   1.000
    C437    C    0.68430   0.48500   0.35740   1.000
    C438    C    0.67330   0.47820   0.31900   1.000
    C439    C    0.66810   0.44940   0.30000   1.000
    C440    C    0.67460   0.42590   0.32190   1.000
    C441    C    0.67930   0.42780   0.35500   1.000
    C442    C    0.68450   0.45680   0.37300   1.000
    C443    C    0.67080   0.39600   0.30140   1.000
    C444    C    0.90900   0.80660   0.78240   1.000
    C445    C    0.92590   0.84150   0.77940   1.000
    C446    C    0.73720   0.52600   0.75690   1.000
    C447    C    0.71950   0.49060   0.75690   1.000
    H231    H    0.71900   0.65500   0.44800   1.000
    H232    H    0.68900   0.59200   0.36100   1.000
    H233    H    0.71500   0.56400   0.45500   1.000
    H234    H    0.71300   0.59600   0.58700   1.000
    H235    H    0.73500   0.60800   0.64600   1.000
    H236    H    0.82400   0.68400   0.60600   1.000
    H237    H    0.80200   0.67200   0.54800   1.000
    H238    H    0.72900   0.73900   0.37000   1.000
    H239    H    0.72200   0.78000   0.34000   1.000
    H240    H    0.64500   0.70600   0.28100   1.000
    H241    H    0.65200   0.66500   0.31200   1.000
    H242    H    0.66900   0.49800   0.30400   1.000
    H243    H    0.66000   0.44300   0.27100   1.000
    H244    H    0.67900   0.40600   0.37000   1.000
    H245    H    0.69000   0.45700   0.40300   1.000
    H246    H    0.90800   0.79600   0.80500   1.000
    H247    H    0.93600   0.85400   0.80100   1.000
    H248    H    0.72500   0.53800   0.76200   1.000
    H249    H    0.69600   0.47900   0.76200   1.000
    O109    O    0.64500   0.37520   0.29610   1.000
    O110    O    0.69980   0.39570   0.29900   1.000
    C448    C    0.65460   0.46200   0.35000   1.000
    C449    C    0.65020   0.43250   0.33300   1.000
    C450    C    0.71030   0.45390   0.33700   1.000
    C451    C    0.71460   0.48340   0.35300   1.000
    H250    H    0.63200   0.46500   0.35600   1.000
    H251    H    0.62300   0.41300   0.32900   1.000
    H252    H    0.73300   0.45000   0.33400   1.000
    H253    H    0.74000   0.50500   0.36300   1.000
    Zn34    Zn   0.84370   0.14672   0.71060   1.000
    Zn35    Zn   0.85131   0.21568   0.74100   1.000
    Zn36    Zn   0.70500   0.33770   0.22850   1.000
    O111    O    0.85850   0.22100   0.69640   1.000
    O112    O    0.85170   0.17330   0.67410   1.000
    O113    O    0.11000   0.30590   0.29950   1.000
    O114    O    0.11150   0.34670   0.26650   1.000
    O115    O    0.73070   0.33710   0.26290   1.000
    O116    O    0.70080   0.33020   0.31190   1.000
    O117    O    0.87240   0.13800   0.72110   1.000
    O118    O    0.82240   0.22450   0.75640   1.000
    C452    C    0.89170   0.28070   0.45730   1.000
    C453    C    0.91970   0.28530   0.43720   1.000
    C454    C    0.92410   0.29660   0.40130   1.000
    C455    C    0.90010   0.30320   0.38550   1.000
    C456    C    0.87200   0.29870   0.40530   1.000
    C457    C    0.86790   0.28740   0.44120   1.000
    C458    C    0.88700   0.26850   0.49420   1.000
    C459    C    0.88270   0.25800   0.52490   1.000
    C460    C    0.87720   0.24470   0.56140   1.000
    C461    C    0.87790   0.26430   0.59080   1.000
    C462    C    0.87210   0.25120   0.62600   1.000
    C463    C    0.86520   0.21800   0.63240   1.000
    C464    C    0.86470   0.19850   0.60270   1.000
    C465    C    0.87060   0.21180   0.56760   1.000
    C466    C    0.85810   0.20340   0.66970   1.000
    C467    C    0.95310   0.30110   0.38070   1.000
    C468    C    0.97740   0.30460   0.36380   1.000
    C469    C    0.00670   0.30870   0.34410   1.000
    C470    C    0.02030   0.28800   0.35210   1.000
    C471    C    0.04920   0.29250   0.33400   1.000
    C472    C    0.06510   0.31770   0.30750   1.000
    C473    C    0.05090   0.33800   0.29930   1.000
    C474    C    0.02200   0.33350   0.31740   1.000
    C475    C    0.09710   0.32360   0.28980   1.000
    C476    C    0.84690   0.30500   0.38870   1.000
    C477    C    0.82590   0.31010   0.37470   1.000
    C478    C    0.80070   0.31570   0.35740   1.000
    C479    C    0.80490   0.32670   0.31900   1.000
    C480    C    0.78130   0.33190   0.30000   1.000
    C481    C    0.75130   0.32540   0.32190   1.000
    C482    C    0.74850   0.32070   0.35500   1.000
    C483    C    0.77230   0.31550   0.37300   1.000
    C484    C    0.72520   0.32920   0.30140   1.000
    C485    C    0.89760   0.09100   0.78240   1.000
    C486    C    0.91560   0.07410   0.77940   1.000
    C487    C    0.78880   0.26280   0.75690   1.000
    C488    C    0.77110   0.28050   0.75690   1.000
    H254    H    0.93600   0.28100   0.44800   1.000
    H255    H    0.90300   0.31100   0.36100   1.000
    H256    H    0.84900   0.28500   0.45500   1.000
    H257    H    0.88300   0.28700   0.58700   1.000
    H258    H    0.87300   0.26500   0.64600   1.000
    H259    H    0.86000   0.17600   0.60600   1.000
    H260    H    0.87000   0.19800   0.54800   1.000
    H261    H    0.01000   0.27100   0.37000   1.000
    H262    H    0.05800   0.27800   0.34000   1.000
    H263    H    0.06100   0.35500   0.28100   1.000
    H264    H    0.01300   0.34800   0.31200   1.000
    H265    H    0.82900   0.33100   0.30400   1.000
    H266    H    0.78300   0.34000   0.27100   1.000
    H267    H    0.72700   0.32100   0.37000   1.000
    H268    H    0.76700   0.31000   0.40300   1.000
    H269    H    0.88800   0.09200   0.80500   1.000
    H270    H    0.91800   0.06400   0.80100   1.000
    H271    H    0.81300   0.27500   0.76200   1.000
    H272    H    0.78300   0.30400   0.76200   1.000
    O119    O    0.73020   0.35500   0.29610   1.000
    O120    O    0.69590   0.30020   0.29900   1.000
    C489    C    0.80740   0.34540   0.35000   1.000
    C490    C    0.78230   0.34980   0.33300   1.000
    C491    C    0.74360   0.28970   0.33700   1.000
    C492    C    0.76880   0.28540   0.35300   1.000
    H273    H    0.83300   0.36800   0.35600   1.000
    H274    H    0.79000   0.37700   0.32900   1.000
    H275    H    0.71700   0.26700   0.33400   1.000
    H276    H    0.76500   0.26000   0.36300   1.000
    O121    O    0.16765   0.33530   0.25000   1.000
    C493    C    0.12485   0.24970   0.25000   1.000
    C494    C    0.10600   0.21200   0.25000   1.000
    C495    C    0.06965   0.13930   0.25000   1.000
    C496    C    0.05140   0.10280   0.25000   1.000
    C497    C    0.03610   0.07220   0.25000   1.000
    C498    C    0.01775   0.03550   0.25000   1.000
    C499    C    0.20900   0.41800   0.25000   1.000
    C500    C    0.22790   0.45580   0.25000   1.000
    C501    C    0.26365   0.52730   0.25000   1.000
    C502    C    0.28195   0.56390   0.25000   1.000
    C503    C    0.29725   0.59450   0.25000   1.000
    C504    C    0.31555   0.63110   0.25000   1.000
    O122    O    0.66470   0.83235   0.25000   1.000
    C505    C    0.75030   0.87515   0.25000   1.000
    C506    C    0.78800   0.89400   0.25000   1.000
    C507    C    0.86070   0.93035   0.25000   1.000
    C508    C    0.89720   0.94860   0.25000   1.000
    C509    C    0.92780   0.96390   0.25000   1.000
    C510    C    0.96450   0.98225   0.25000   1.000
    C511    C    0.58200   0.79100   0.25000   1.000
    C512    C    0.54420   0.77210   0.25000   1.000
    C513    C    0.47270   0.73635   0.25000   1.000
    C514    C    0.43610   0.71805   0.25000   1.000
    C515    C    0.40550   0.70275   0.25000   1.000
    C516    C    0.36890   0.68445   0.25000   1.000
    O123    O    0.16765   0.83235   0.25000   1.000
    C517    C    0.12485   0.87515   0.25000   1.000
    C518    C    0.10600   0.89400   0.25000   1.000
    C519    C    0.06965   0.93035   0.25000   1.000
    C520    C    0.05140   0.94860   0.25000   1.000
    C521    C    0.03610   0.96390   0.25000   1.000
    C522    C    0.01775   0.98225   0.25000   1.000
    C523    C    0.20900   0.79100   0.25000   1.000
    C524    C    0.22790   0.77210   0.25000   1.000
    C525    C    0.26365   0.73635   0.25000   1.000
    C526    C    0.28195   0.71805   0.25000   1.000
    C527    C    0.29725   0.70275   0.25000   1.000
    C528    C    0.31555   0.68445   0.25000   1.000
    O124    O    0.83235   0.66470   0.75000   1.000
    C529    C    0.87515   0.75030   0.75000   1.000
    C530    C    0.89400   0.78800   0.75000   1.000
    C531    C    0.93035   0.86070   0.75000   1.000
    C532    C    0.94860   0.89720   0.75000   1.000
    C533    C    0.96390   0.92780   0.75000   1.000
    C534    C    0.98225   0.96450   0.75000   1.000
    C535    C    0.79100   0.58200   0.75000   1.000
    C536    C    0.77210   0.54420   0.75000   1.000
    C537    C    0.73635   0.47270   0.75000   1.000
    C538    C    0.71805   0.43610   0.75000   1.000
    C539    C    0.70275   0.40550   0.75000   1.000
    C540    C    0.68445   0.36890   0.75000   1.000
    O125    O    0.33530   0.16765   0.75000   1.000
    C541    C    0.24970   0.12485   0.75000   1.000
    C542    C    0.21200   0.10600   0.75000   1.000
    C543    C    0.13930   0.06965   0.75000   1.000
    C544    C    0.10280   0.05140   0.75000   1.000
    C545    C    0.07220   0.03610   0.75000   1.000
    C546    C    0.03550   0.01775   0.75000   1.000
    C547    C    0.41800   0.20900   0.75000   1.000
    C548    C    0.45580   0.22790   0.75000   1.000
    C549    C    0.52730   0.26365   0.75000   1.000
    C550    C    0.56390   0.28195   0.75000   1.000
    C551    C    0.59450   0.29725   0.75000   1.000
    C552    C    0.63110   0.31555   0.75000   1.000
    O126    O    0.83235   0.16765   0.75000   1.000
    C553    C    0.87515   0.12485   0.75000   1.000
    C554    C    0.89400   0.10600   0.75000   1.000
    C555    C    0.93035   0.06965   0.75000   1.000
    C556    C    0.94860   0.05140   0.75000   1.000
    C557    C    0.96390   0.03610   0.75000   1.000
    C558    C    0.98225   0.01775   0.75000   1.000
    C559    C    0.79100   0.20900   0.75000   1.000
    C560    C    0.77210   0.22790   0.75000   1.000
    C561    C    0.73635   0.26365   0.75000   1.000
    C562    C    0.71805   0.28195   0.75000   1.000
    C563    C    0.70275   0.29725   0.75000   1.000
    C564    C    0.68445   0.31555   0.75000   1.000
    Zn37    Zn   0.33333   0.66667   0.79310   1.000
    Zn38    Zn   0.33333   0.66667   0.70690   1.000
    Zn39    Zn   0.66667   0.33333   0.20690   1.000
    Zn40    Zn   0.66667   0.33333   0.29310   1.000
    O127    O    0.33333   0.66667   0.75000   1.000
    O128    O    0.66667   0.33333   0.25000   1.000
    C565    C    0.03530   0.01765   0.25000   1.000
    H277    H    0.06000   0.03000   0.25000   1.000
    C566    C    0.98235   0.01765   0.25000   1.000
    H278    H    0.97000   0.03000   0.25000   1.000
    C567    C    0.98235   0.96470   0.25000   1.000
    H279    H    0.97000   0.94000   0.25000   1.000
    C568    C    0.96470   0.98235   0.75000   1.000
    H280    H    0.94000   0.97000   0.75000   1.000
    C569    C    0.01765   0.98235   0.75000   1.000
    H281    H    0.03000   0.97000   0.75000   1.000
    C570    C    0.01765   0.03530   0.75000   1.000
    H282    H    0.03000   0.06000   0.75000   1.000
    C571    C    0.35100   0.64900   0.25000   1.000
    H283    H    0.36300   0.63700   0.25000   1.000
    C572    C    0.35100   0.70200   0.25000   1.000
    H284    H    0.36300   0.72600   0.25000   1.000
    C573    C    0.29800   0.64900   0.25000   1.000
    H285    H    0.27400   0.63700   0.25000   1.000
    C574    C    0.64900   0.35100   0.75000   1.000
    H286    H    0.63700   0.36300   0.75000   1.000
    C575    C    0.64900   0.29800   0.75000   1.000
    H287    H    0.63700   0.27400   0.75000   1.000
    C576    C    0.70200   0.35100   0.75000   1.000
    H288    H    0.72600   0.36300   0.75000   1.000
