# CIF file generated by openbabel 2.4.1, see http://openbabel.sf.net
data_I
_chemical_name_common 'UVUPOR_clean'
_cell_length_a 15.224
_cell_length_b 15.259
_cell_length_c 18.059
_cell_angle_alpha 91.84
_cell_angle_beta 96.69
_cell_angle_gamma 98.28
_space_group_name_H-M_alt 'P 1'
_space_group_name_Hall 'P 1'
loop_
    _symmetry_equiv_pos_as_xyz
    x,y,z
loop_
    _atom_site_label
    _atom_site_type_symbol
    _atom_site_fract_x
    _atom_site_fract_y
    _atom_site_fract_z
    _atom_site_occupancy
    Zn1     Zn   0.01109   0.00553   0.08225   1.000
    Zn2     Zn   0.98891   0.99447   0.91775   1.000
    H1      H    0.01250   0.28820   0.10950   1.000
    H2      H    0.01420   0.43860   0.11120   1.000
    H3      H    0.98590   0.42720   0.88700   1.000
    H4      H    0.98680   0.27820   0.88640   1.000
    H5      H    0.31050   0.01800   0.11890   1.000
    H6      H    0.45320   0.99900   0.11110   1.000
    H7      H    0.41780   0.02420   0.89490   1.000
    H8      H    0.27310   0.03410   0.90280   1.000
    H9      H    0.02890   0.13650   0.21480   1.000
    H10     H    0.02270   0.13670   0.34110   1.000
    H11     H    0.97410   0.87180   0.32580   1.000
    H12     H    0.97800   0.87890   0.19950   1.000
    H13     H    0.98750   0.71180   0.89050   1.000
    H14     H    0.98580   0.56140   0.88880   1.000
    H15     H    0.01410   0.57280   0.11300   1.000
    H16     H    0.01320   0.72180   0.11360   1.000
    H17     H    0.68950   0.98200   0.88110   1.000
    H18     H    0.54680   0.00100   0.88890   1.000
    H19     H    0.58220   0.97580   0.10510   1.000
    H20     H    0.72690   0.96590   0.09720   1.000
    H21     H    0.97110   0.86350   0.78520   1.000
    H22     H    0.97730   0.86330   0.65890   1.000
    H23     H    0.02590   0.12820   0.67420   1.000
    H24     H    0.02200   0.12110   0.80050   1.000
    C1      C    0.99820   0.26670   0.99820   1.000
    C2      C    0.00710   0.31630   0.06460   1.000
    C3      C    0.00800   0.40680   0.06570   1.000
    C4      C    0.00000   0.45180   0.99940   1.000
    C5      C    0.99150   0.39980   0.93220   1.000
    C6      C    0.99140   0.31030   0.93170   1.000
    C7      C    0.99920   0.16840   0.99900   1.000
    C8      C    0.27260   0.01810   0.00990   1.000
    C9      C    0.33030   0.01430   0.07230   1.000
    C10     C    0.41620   0.00510   0.06740   1.000
    C11     C    0.45130   0.00440   0.00080   1.000
    C12     C    0.39620   0.01850   0.94090   1.000
    C13     C    0.30940   0.02470   0.94610   1.000
    C14     C    0.17380   0.01830   0.01330   1.000
    C15     C    0.01730   0.08270   0.23710   1.000
    C16     C    0.01460   0.08310   0.31330   1.000
    C17     C    0.00000   0.00490   0.34830   1.000
    C18     C    0.98540   0.92640   0.30450   1.000
    C19     C    0.98790   0.93160   0.22860   1.000
    C20     C    0.00030   0.00190   0.42970   1.000
    C21     C    0.00180   0.73330   0.00180   1.000
    C22     C    0.99290   0.68370   0.93540   1.000
    C23     C    0.99200   0.59320   0.93430   1.000
    C24     C    0.00000   0.54820   0.00060   1.000
    C25     C    0.00850   0.60020   0.06780   1.000
    C26     C    0.00860   0.68970   0.06830   1.000
    C27     C    0.00080   0.83160   0.00100   1.000
    C28     C    0.72740   0.98190   0.99010   1.000
    C29     C    0.66970   0.98570   0.92770   1.000
    C30     C    0.58380   0.99490   0.93260   1.000
    C31     C    0.54870   0.99560   0.99920   1.000
    C32     C    0.60380   0.98150   0.05910   1.000
    C33     C    0.69060   0.97530   0.05390   1.000
    C34     C    0.82620   0.98170   0.98670   1.000
    C35     C    0.98270   0.91730   0.76290   1.000
    C36     C    0.98540   0.91690   0.68670   1.000
    C37     C    0.00000   0.99510   0.65170   1.000
    C38     C    0.01460   0.07360   0.69550   1.000
    C39     C    0.01210   0.06840   0.77140   1.000
    C40     C    0.99970   0.99810   0.57030   1.000
    N1      N    0.00380   0.00760   0.19410   1.000
    N2      N    0.01510   0.08020   0.46890   1.000
    N3      N    0.98520   0.92320   0.45810   1.000
    N4      N    0.99620   0.99240   0.80590   1.000
    N5      N    0.98490   0.91980   0.53110   1.000
    N6      N    0.01480   0.07680   0.54190   1.000
    O1      O    0.01060   0.13510   0.06160   1.000
    O2      O    0.98990   0.12690   0.93666   1.000
    O3      O    0.14620   0.02130   0.07550   1.000
    O4      O    0.12500   0.01420   0.95100   1.000
    O5      O    0.98940   0.86490   0.93840   1.000
    O6      O    0.01010   0.87310   0.06334   1.000
    O7      O    0.85380   0.97870   0.92450   1.000
    O8      O    0.87500   0.98580   0.04900   1.000
    Zn3     Zn   0.77314   0.67275   0.75627   1.000
    Zn4     Zn   0.75079   0.66257   0.59186   1.000
    H25     H    0.45860   0.66200   0.55940   1.000
    H26     H    0.30960   0.66380   0.56270   1.000
    H27     H    0.34810   0.65350   0.78190   1.000
    H28     H    0.48900   0.63000   0.77450   1.000
    H29     H    0.06590   0.65290   0.79060   1.000
    H30     H    0.21020   0.63880   0.78190   1.000
    H31     H    0.18390   0.70090   0.57190   1.000
    H32     H    0.03540   0.70760   0.57680   1.000
    H33     H    0.81300   0.39520   0.77730   1.000
    H34     H    0.81690   0.24530   0.77560   1.000
    H35     H    0.69770   0.22030   0.56830   1.000
    H36     H    0.70010   0.37000   0.56810   1.000
    H37     H    0.75820   0.94590   0.56160   1.000
    H38     H    0.75920   0.09600   0.56150   1.000
    H39     H    0.77470   0.10720   0.78340   1.000
    H40     H    0.77380   0.95750   0.78420   1.000
    H41     H    0.75210   0.54550   0.87320   1.000
    H42     H    0.75240   0.53890   0.99910   1.000
    H43     H    0.79210   0.80530   0.01490   1.000
    H44     H    0.78880   0.80280   0.88690   1.000
    H45     H    0.79340   0.78870   0.47750   1.000
    H46     H    0.80030   0.79620   0.35170   1.000
    H47     H    0.73400   0.53410   0.33340   1.000
    H48     H    0.72580   0.53510   0.45980   1.000
    C41     C    0.49270   0.65150   0.66550   1.000
    C42     C    0.43650   0.65870   0.60530   1.000
    C43     C    0.34680   0.66160   0.60700   1.000
    C44     C    0.31260   0.66120   0.67280   1.000
    C45     C    0.36910   0.65260   0.73560   1.000
    C46     C    0.45420   0.64290   0.73160   1.000
    C47     C    0.59030   0.65190   0.66300   1.000
    C48     C    0.03130   0.67880   0.68280   1.000
    C49     C    0.08790   0.66040   0.74490   1.000
    C50     C    0.17560   0.65330   0.73940   1.000
    C51     C    0.21580   0.66570   0.67620   1.000
    C52     C    0.16020   0.68850   0.61620   1.000
    C53     C    0.07010   0.69360   0.61940   1.000
    C54     C    0.93450   0.68020   0.68290   1.000
    C55     C    0.75780   0.40010   0.67170   1.000
    C56     C    0.79120   0.36070   0.73380   1.000
    C57     C    0.79300   0.27010   0.73280   1.000
    C58     C    0.76070   0.21640   0.67120   1.000
    C59     C    0.72360   0.25530   0.61050   1.000
    C60     C    0.72390   0.34540   0.61100   1.000
    C61     C    0.75690   0.49780   0.66970   1.000
    C62     C    0.76570   0.93460   0.67280   1.000
    C63     C    0.76120   0.97800   0.60670   1.000
    C64     C    0.76100   0.06830   0.60670   1.000
    C65     C    0.76330   0.11910   0.67210   1.000
    C66     C    0.77020   0.07490   0.73830   1.000
    C67     C    0.77040   0.98500   0.73890   1.000
    C68     C    0.76610   0.83690   0.67390   1.000
    C69     C    0.75990   0.59810   0.90210   1.000
    C70     C    0.76020   0.59370   0.97770   1.000
    C71     C    0.77210   0.67100   0.02200   1.000
    C72     C    0.78350   0.75160   0.98720   1.000
    C73     C    0.78170   0.74940   0.91040   1.000
    C74     C    0.77150   0.66900   0.10510   1.000
    C75     C    0.76870   0.66640   0.24610   1.000
    C76     C    0.77920   0.73670   0.44750   1.000
    C77     C    0.78400   0.74200   0.37220   1.000
    C78     C    0.76390   0.66440   0.32730   1.000
    C79     C    0.74450   0.58770   0.36120   1.000
    C80     C    0.74020   0.58860   0.43760   1.000
    N7      N    0.77010   0.67380   0.86850   1.000
    N8      N    0.76290   0.58920   0.13560   1.000
    N9      N    0.75970   0.58850   0.20770   1.000
    N10     N    0.78260   0.74440   0.21590   1.000
    N11     N    0.78470   0.74730   0.14330   1.000
    N12     N    0.75570   0.66250   0.47950   1.000
    O9      O    0.63800   0.65090   0.72510   1.000
    O10     O    0.61900   0.65430   0.60100   1.000
    O11     O    0.90770   0.68830   0.74620   1.000
    O12     O    0.88530   0.67250   0.62220   1.000
    O13     O    0.77300   0.54000   0.73217   1.000
    O14     O    0.74260   0.53050   0.60861   1.000
    O15     O    0.77060   0.80160   0.73554   1.000
    O16     O    0.76190   0.79570   0.61154   1.000
    Zn5     Zn   0.22686   0.32725   0.24373   1.000
    Zn6     Zn   0.24921   0.33743   0.40814   1.000
    H49     H    0.54140   0.33800   0.44060   1.000
    H50     H    0.69040   0.33620   0.43730   1.000
    H51     H    0.65190   0.34650   0.21810   1.000
    H52     H    0.51100   0.37000   0.22550   1.000
    H53     H    0.93410   0.34710   0.20940   1.000
    H54     H    0.78980   0.36120   0.21810   1.000
    H55     H    0.81610   0.29910   0.42810   1.000
    H56     H    0.96460   0.29240   0.42320   1.000
    H57     H    0.18700   0.60480   0.22270   1.000
    H58     H    0.18310   0.75470   0.22440   1.000
    H59     H    0.30230   0.77970   0.43170   1.000
    H60     H    0.29990   0.63000   0.43190   1.000
    H61     H    0.24180   0.05410   0.43840   1.000
    H62     H    0.24080   0.90400   0.43850   1.000
    H63     H    0.22530   0.89280   0.21660   1.000
    H64     H    0.22620   0.04250   0.21580   1.000
    H65     H    0.24790   0.45450   0.12680   1.000
    H66     H    0.24760   0.46110   0.00090   1.000
    H67     H    0.20790   0.19470   0.98510   1.000
    H68     H    0.21120   0.19720   0.11310   1.000
    H69     H    0.20660   0.21130   0.52250   1.000
    H70     H    0.19970   0.20380   0.64830   1.000
    H71     H    0.26600   0.46590   0.66660   1.000
    H72     H    0.27420   0.46490   0.54020   1.000
    C81     C    0.50730   0.34850   0.33450   1.000
    C82     C    0.56350   0.34130   0.39470   1.000
    C83     C    0.65320   0.33840   0.39300   1.000
    C84     C    0.68740   0.33880   0.32720   1.000
    C85     C    0.63090   0.34740   0.26440   1.000
    C86     C    0.54580   0.35710   0.26840   1.000
    C87     C    0.40970   0.34810   0.33700   1.000
    C88     C    0.96870   0.32120   0.31720   1.000
    C89     C    0.91210   0.33960   0.25510   1.000
    C90     C    0.82440   0.34670   0.26060   1.000
    C91     C    0.78420   0.33430   0.32380   1.000
    C92     C    0.83980   0.31150   0.38380   1.000
    C93     C    0.92990   0.30640   0.38060   1.000
    C94     C    0.06550   0.31980   0.31710   1.000
    C95     C    0.24220   0.59990   0.32830   1.000
    C96     C    0.20880   0.63930   0.26620   1.000
    C97     C    0.20700   0.72990   0.26720   1.000
    C98     C    0.23930   0.78360   0.32880   1.000
    C99     C    0.27640   0.74470   0.38950   1.000
    C100    C    0.27610   0.65460   0.38900   1.000
    C101    C    0.24310   0.50220   0.33030   1.000
    C102    C    0.23430   0.06540   0.32720   1.000
    C103    C    0.23880   0.02200   0.39330   1.000
    C104    C    0.23900   0.93170   0.39330   1.000
    C105    C    0.23670   0.88090   0.32790   1.000
    C106    C    0.22980   0.92510   0.26170   1.000
    C107    C    0.22960   0.01500   0.26110   1.000
    C108    C    0.23390   0.16310   0.32610   1.000
    C109    C    0.24010   0.40190   0.09790   1.000
    C110    C    0.23980   0.40630   0.02230   1.000
    C111    C    0.22790   0.32900   0.97800   1.000
    C112    C    0.21650   0.24840   0.01280   1.000
    C113    C    0.21830   0.25060   0.08960   1.000
    C114    C    0.22850   0.33100   0.89490   1.000
    C115    C    0.23130   0.33360   0.75390   1.000
    C116    C    0.22080   0.26330   0.55250   1.000
    C117    C    0.21600   0.25800   0.62780   1.000
    C118    C    0.23610   0.33560   0.67270   1.000
    C119    C    0.25550   0.41230   0.63880   1.000
    C120    C    0.25980   0.41140   0.56240   1.000
    N13     N    0.22990   0.32620   0.13150   1.000
    N14     N    0.23710   0.41080   0.86440   1.000
    N15     N    0.24030   0.41150   0.79230   1.000
    N16     N    0.21740   0.25560   0.78410   1.000
    N17     N    0.21530   0.25270   0.85670   1.000
    N18     N    0.24430   0.33750   0.52050   1.000
    O17     O    0.36200   0.34910   0.27490   1.000
    O18     O    0.38100   0.34570   0.39900   1.000
    O19     O    0.09230   0.31170   0.25380   1.000
    O20     O    0.11470   0.32750   0.37780   1.000
    O21     O    0.22700   0.46000   0.26783   1.000
    O22     O    0.25740   0.46950   0.39139   1.000
    O23     O    0.22940   0.19840   0.26446   1.000
    O24     O    0.23810   0.20430   0.38846   1.000
