# CIF file generated by openbabel 2.4.1, see http://openbabel.sf.net
data_I
_chemical_name_common 'image0'
_cell_length_a 17.1243
_cell_length_b 17.1243
_cell_length_c 9.5607
_cell_angle_alpha 90
_cell_angle_beta 90
_cell_angle_gamma 90
_space_group_name_H-M_alt 'P 1'
_space_group_name_Hall 'P 1'
loop_
    _symmetry_equiv_pos_as_xyz
    x,y,z
loop_
    _atom_site_label
    _atom_site_type_symbol
    _atom_site_fract_x
    _atom_site_fract_y
    _atom_site_fract_z
    _atom_site_occupancy
    O1      O    0.48520   0.61578   0.38560   1.000
    H1      H    0.39200   0.45810   0.11380   1.000
    C1      C    0.50400   0.77370   0.35230   1.000
    C2      C    0.49500   0.78140   0.60270   1.000
    H2      H    0.50760   0.74340   0.26930   1.000
    C3      C    0.50400   0.85480   0.34430   1.000
    C4      C    0.50500   0.86250   0.40530   1.000
    H3      H    0.49240   0.75640   0.69130   1.000
    H4      H    0.50740   0.87980   0.25580   1.000
    H5      H    0.50780   0.89280   0.32230   1.000
    C5      C    0.51960   0.41750   0.08060   1.000
    H6      H    0.48040   0.37980   0.11570   1.000
    H7      H    0.40150   0.42840   0.11570   1.000
    O2      O    0.51480   0.38422   0.38560   1.000
    H8      H    0.60800   0.54190   0.11380   1.000
    C6      C    0.49600   0.22630   0.35230   1.000
    C7      C    0.50500   0.21860   0.60270   1.000
    H9      H    0.49240   0.25660   0.26930   1.000
    C8      C    0.49600   0.14520   0.34430   1.000
    C9      C    0.49500   0.13750   0.40530   1.000
    H10     H    0.50760   0.24360   0.69130   1.000
    H11     H    0.49260   0.12020   0.25580   1.000
    H12     H    0.49220   0.10720   0.32230   1.000
    C10     C    0.48040   0.58250   0.08060   1.000
    H13     H    0.51960   0.62020   0.11570   1.000
    H14     H    0.59850   0.57160   0.11570   1.000
    O3      O    0.38422   0.48520   0.38560   1.000
    H15     H    0.54190   0.39200   0.11380   1.000
    C11     C    0.22630   0.50400   0.35230   1.000
    C12     C    0.21860   0.49500   0.60270   1.000
    H16     H    0.25660   0.50760   0.26930   1.000
    C13     C    0.14520   0.50400   0.34430   1.000
    C14     C    0.13750   0.50500   0.40530   1.000
    H17     H    0.24360   0.49240   0.69130   1.000
    H18     H    0.12020   0.50740   0.25580   1.000
    H19     H    0.10720   0.50780   0.32230   1.000
    C15     C    0.58250   0.51960   0.08060   1.000
    H20     H    0.62020   0.48040   0.11570   1.000
    H21     H    0.57160   0.40150   0.11570   1.000
    O4      O    0.61578   0.51480   0.38560   1.000
    H22     H    0.45810   0.60800   0.11380   1.000
    C16     C    0.77370   0.49600   0.35230   1.000
    C17     C    0.78140   0.50500   0.60270   1.000
    H23     H    0.74340   0.49240   0.26930   1.000
    C18     C    0.85480   0.49600   0.34430   1.000
    C19     C    0.86250   0.49500   0.40530   1.000
    H24     H    0.75640   0.50760   0.69130   1.000
    H25     H    0.87980   0.49260   0.25580   1.000
    H26     H    0.89280   0.49220   0.32230   1.000
    C20     C    0.41750   0.48040   0.08060   1.000
    H27     H    0.37980   0.51960   0.11570   1.000
    H28     H    0.42840   0.59850   0.11570   1.000
    O5      O    0.51480   0.61578   0.61440   1.000
    H29     H    0.60800   0.45810   0.88620   1.000
    C21     C    0.49600   0.77370   0.64770   1.000
    C22     C    0.50500   0.78140   0.39730   1.000
    H30     H    0.49240   0.74340   0.73070   1.000
    C23     C    0.49600   0.85480   0.65570   1.000
    C24     C    0.49500   0.86250   0.59470   1.000
    H31     H    0.50760   0.75640   0.30870   1.000
    H32     H    0.49260   0.87980   0.74420   1.000
    H33     H    0.49220   0.89280   0.67770   1.000
    C25     C    0.48040   0.41750   0.91940   1.000
    H34     H    0.51960   0.37980   0.88430   1.000
    H35     H    0.59850   0.42840   0.88430   1.000
    O6      O    0.48520   0.38422   0.61440   1.000
    H36     H    0.39200   0.54190   0.88620   1.000
    C26     C    0.50400   0.22630   0.64770   1.000
    C27     C    0.49500   0.21860   0.39730   1.000
    H37     H    0.50760   0.25660   0.73070   1.000
    C28     C    0.50400   0.14520   0.65570   1.000
    C29     C    0.50500   0.13750   0.59470   1.000
    H38     H    0.49240   0.24360   0.30870   1.000
    H39     H    0.50740   0.12020   0.74420   1.000
    H40     H    0.50780   0.10720   0.67770   1.000
    C30     C    0.51960   0.58250   0.91940   1.000
    H41     H    0.48040   0.62020   0.88430   1.000
    H42     H    0.40150   0.57160   0.88430   1.000
    O7      O    0.61578   0.48520   0.61440   1.000
    H43     H    0.45810   0.39200   0.88620   1.000
    C31     C    0.77370   0.50400   0.64770   1.000
    C32     C    0.78140   0.49500   0.39730   1.000
    H44     H    0.74340   0.50760   0.73070   1.000
    C33     C    0.85480   0.50400   0.65570   1.000
    C34     C    0.86250   0.50500   0.59470   1.000
    H45     H    0.75640   0.49240   0.30870   1.000
    H46     H    0.87980   0.50740   0.74420   1.000
    H47     H    0.89280   0.50780   0.67770   1.000
    C35     C    0.41750   0.51960   0.91940   1.000
    H48     H    0.37980   0.48040   0.88430   1.000
    H49     H    0.42840   0.40150   0.88430   1.000
    O8      O    0.38422   0.51480   0.61440   1.000
    H50     H    0.54190   0.60800   0.88620   1.000
    C36     C    0.22630   0.49600   0.64770   1.000
    C37     C    0.21860   0.50500   0.39730   1.000
    H51     H    0.25660   0.49240   0.73070   1.000
    C38     C    0.14520   0.49600   0.65570   1.000
    C39     C    0.13750   0.49500   0.59470   1.000
    H52     H    0.24360   0.50760   0.30870   1.000
    H53     H    0.12020   0.49260   0.74420   1.000
    H54     H    0.10720   0.49220   0.67770   1.000
    C40     C    0.58250   0.48040   0.91940   1.000
    H55     H    0.62020   0.51960   0.88430   1.000
    H56     H    0.57160   0.59850   0.88430   1.000
    O9      O    0.51480   0.38422   0.61440   1.000
    H57     H    0.60800   0.54190   0.88620   1.000
    C41     C    0.49600   0.22630   0.64770   1.000
    C42     C    0.50500   0.21860   0.39730   1.000
    H58     H    0.49240   0.25660   0.73070   1.000
    C43     C    0.49600   0.14520   0.65570   1.000
    C44     C    0.49500   0.13750   0.59470   1.000
    H59     H    0.50760   0.24360   0.30870   1.000
    H60     H    0.49260   0.12020   0.74420   1.000
    H61     H    0.49220   0.10720   0.67770   1.000
    C45     C    0.48040   0.58250   0.91940   1.000
    H62     H    0.51960   0.62020   0.88430   1.000
    H63     H    0.59850   0.57160   0.88430   1.000
    O10     O    0.48520   0.61578   0.61440   1.000
    H64     H    0.39200   0.45810   0.88620   1.000
    C46     C    0.50400   0.77370   0.64770   1.000
    C47     C    0.49500   0.78140   0.39730   1.000
    H65     H    0.50760   0.74340   0.73070   1.000
    C48     C    0.50400   0.85480   0.65570   1.000
    C49     C    0.50500   0.86250   0.59470   1.000
    H66     H    0.49240   0.75640   0.30870   1.000
    H67     H    0.50740   0.87980   0.74420   1.000
    H68     H    0.50780   0.89280   0.67770   1.000
    C50     C    0.51960   0.41750   0.91940   1.000
    H69     H    0.48040   0.37980   0.88430   1.000
    H70     H    0.40150   0.42840   0.88430   1.000
    O11     O    0.61578   0.51480   0.61440   1.000
    H71     H    0.45810   0.60800   0.88620   1.000
    C51     C    0.77370   0.49600   0.64770   1.000
    C52     C    0.78140   0.50500   0.39730   1.000
    H72     H    0.74340   0.49240   0.73070   1.000
    C53     C    0.85480   0.49600   0.65570   1.000
    C54     C    0.86250   0.49500   0.59470   1.000
    H73     H    0.75640   0.50760   0.30870   1.000
    H74     H    0.87980   0.49260   0.74420   1.000
    H75     H    0.89280   0.49220   0.67770   1.000
    C55     C    0.41750   0.48040   0.91940   1.000
    H76     H    0.37980   0.51960   0.88430   1.000
    H77     H    0.42840   0.59850   0.88430   1.000
    O12     O    0.38422   0.48520   0.61440   1.000
    H78     H    0.54190   0.39200   0.88620   1.000
    C56     C    0.22630   0.50400   0.64770   1.000
    C57     C    0.21860   0.49500   0.39730   1.000
    H79     H    0.25660   0.50760   0.73070   1.000
    C58     C    0.14520   0.50400   0.65570   1.000
    C59     C    0.13750   0.50500   0.59470   1.000
    H80     H    0.24360   0.49240   0.30870   1.000
    H81     H    0.12020   0.50740   0.74420   1.000
    H82     H    0.10720   0.50780   0.67770   1.000
    C60     C    0.58250   0.51960   0.91940   1.000
    H83     H    0.62020   0.48040   0.88430   1.000
    H84     H    0.57160   0.40150   0.88430   1.000
    O13     O    0.48520   0.38422   0.38560   1.000
    H85     H    0.39200   0.54190   0.11380   1.000
    C61     C    0.50400   0.22630   0.35230   1.000
    C62     C    0.49500   0.21860   0.60270   1.000
    H86     H    0.50760   0.25660   0.26930   1.000
    C63     C    0.50400   0.14520   0.34430   1.000
    C64     C    0.50500   0.13750   0.40530   1.000
    H87     H    0.49240   0.24360   0.69130   1.000
    H88     H    0.50740   0.12020   0.25580   1.000
    H89     H    0.50780   0.10720   0.32230   1.000
    C65     C    0.51960   0.58250   0.08060   1.000
    H90     H    0.48040   0.62020   0.11570   1.000
    H91     H    0.40150   0.57160   0.11570   1.000
    O14     O    0.51480   0.61578   0.38560   1.000
    H92     H    0.60800   0.45810   0.11380   1.000
    C66     C    0.49600   0.77370   0.35230   1.000
    C67     C    0.50500   0.78140   0.60270   1.000
    H93     H    0.49240   0.74340   0.26930   1.000
    C68     C    0.49600   0.85480   0.34430   1.000
    C69     C    0.49500   0.86250   0.40530   1.000
    H94     H    0.50760   0.75640   0.69130   1.000
    H95     H    0.49260   0.87980   0.25580   1.000
    H96     H    0.49220   0.89280   0.32230   1.000
    C70     C    0.48040   0.41750   0.08060   1.000
    H97     H    0.51960   0.37980   0.11570   1.000
    H98     H    0.59850   0.42840   0.11570   1.000
    O15     O    0.38422   0.51480   0.38560   1.000
    H99     H    0.54190   0.60800   0.11380   1.000
    C71     C    0.22630   0.49600   0.35230   1.000
    C72     C    0.21860   0.50500   0.60270   1.000
    H100    H    0.25660   0.49240   0.26930   1.000
    C73     C    0.14520   0.49600   0.34430   1.000
    C74     C    0.13750   0.49500   0.40530   1.000
    H101    H    0.24360   0.50760   0.69130   1.000
    H102    H    0.12020   0.49260   0.25580   1.000
    H103    H    0.10720   0.49220   0.32230   1.000
    C75     C    0.58250   0.48040   0.08060   1.000
    H104    H    0.62020   0.51960   0.11570   1.000
    H105    H    0.57160   0.59850   0.11570   1.000
    O16     O    0.61578   0.48520   0.38560   1.000
    H106    H    0.45810   0.39200   0.11380   1.000
    C76     C    0.77370   0.50400   0.35230   1.000
    C77     C    0.78140   0.49500   0.60270   1.000
    H107    H    0.74340   0.50760   0.26930   1.000
    C78     C    0.85480   0.50400   0.34430   1.000
    C79     C    0.86250   0.50500   0.40530   1.000
    H108    H    0.75640   0.49240   0.69130   1.000
    H109    H    0.87980   0.50740   0.25580   1.000
    H110    H    0.89280   0.50780   0.32230   1.000
    C80     C    0.41750   0.51960   0.08060   1.000
    H111    H    0.37980   0.48040   0.11570   1.000
    H112    H    0.42840   0.40150   0.11570   1.000
    Zn1     Zn   0.50000   0.50000   0.34758   1.000
    N1      N    0.50000   0.50000   0.13380   1.000
    Zn2     Zn   0.50000   0.50000   0.65242   1.000
    N2      N    0.50000   0.50000   0.86620   1.000
    C81     C    0.44490   0.44490   0.07940   1.000
    C82     C    0.55510   0.55510   0.07940   1.000
    C83     C    0.55510   0.44490   0.07940   1.000
    C84     C    0.44490   0.55510   0.07940   1.000
    C85     C    0.55510   0.44490   0.92060   1.000
    C86     C    0.44490   0.55510   0.92060   1.000
    C87     C    0.44490   0.44490   0.92060   1.000
    C88     C    0.55510   0.55510   0.92060   1.000
    C89     C    0.50000   0.64930   0.50000   1.000
    C90     C    0.50000   0.35070   0.50000   1.000
    C91     C    0.35070   0.50000   0.50000   1.000
    C92     C    0.64930   0.50000   0.50000   1.000
    C93     C    0.50000   0.73710   0.48160   1.000
    C94     C    0.50000   0.89920   0.46550   1.000
    N3      N    0.50000   0.98100   0.44560   1.000
    C95     C    0.50000   0.26290   0.48160   1.000
    C96     C    0.50000   0.10080   0.46550   1.000
    N4      N    0.50000   0.01900   0.44560   1.000
    C97     C    0.26290   0.50000   0.48160   1.000
    C98     C    0.10080   0.50000   0.46550   1.000
    N5      N    0.01900   0.50000   0.44560   1.000
    C99     C    0.73710   0.50000   0.48160   1.000
    C100    C    0.89920   0.50000   0.46550   1.000
    N6      N    0.98100   0.50000   0.44560   1.000
    C101    C    0.50000   0.73710   0.51840   1.000
    C102    C    0.50000   0.89920   0.53450   1.000
    N7      N    0.50000   0.98100   0.55440   1.000
    C103    C    0.50000   0.26290   0.51840   1.000
    C104    C    0.50000   0.10080   0.53450   1.000
    N8      N    0.50000   0.01900   0.55440   1.000
    C105    C    0.73710   0.50000   0.51840   1.000
    C106    C    0.89920   0.50000   0.53450   1.000
    N9      N    0.98100   0.50000   0.55440   1.000
    C107    C    0.26290   0.50000   0.51840   1.000
    C108    C    0.10080   0.50000   0.53450   1.000
    N10     N    0.01900   0.50000   0.55440   1.000
    O17     O    0.98520   0.11578   0.88560   1.000
    H113    H    0.89200   0.95810   0.61380   1.000
    C109    C    0.00400   0.27370   0.85230   1.000
    C110    C    0.99500   0.28140   0.10270   1.000
    H114    H    0.00760   0.24340   0.76930   1.000
    C111    C    0.00400   0.35480   0.84430   1.000
    C112    C    0.00500   0.36250   0.90530   1.000
    H115    H    0.99240   0.25640   0.19130   1.000
    H116    H    0.00740   0.37980   0.75580   1.000
    H117    H    0.00780   0.39280   0.82230   1.000
    C113    C    0.01960   0.91750   0.58060   1.000
    H118    H    0.98040   0.87980   0.61570   1.000
    H119    H    0.90150   0.92840   0.61570   1.000
    O18     O    0.01480   0.88422   0.88560   1.000
    H120    H    0.10800   0.04190   0.61380   1.000
    C114    C    0.99600   0.72630   0.85230   1.000
    C115    C    0.00500   0.71860   0.10270   1.000
    H121    H    0.99240   0.75660   0.76930   1.000
    C116    C    0.99600   0.64520   0.84430   1.000
    C117    C    0.99500   0.63750   0.90530   1.000
    H122    H    0.00760   0.74360   0.19130   1.000
    H123    H    0.99260   0.62020   0.75580   1.000
    H124    H    0.99220   0.60720   0.82230   1.000
    C118    C    0.98040   0.08250   0.58060   1.000
    H125    H    0.01960   0.12020   0.61570   1.000
    H126    H    0.09850   0.07160   0.61570   1.000
    O19     O    0.88422   0.98520   0.88560   1.000
    H127    H    0.04190   0.89200   0.61380   1.000
    C119    C    0.72630   0.00400   0.85230   1.000
    C120    C    0.71860   0.99500   0.10270   1.000
    H128    H    0.75660   0.00760   0.76930   1.000
    C121    C    0.64520   0.00400   0.84430   1.000
    C122    C    0.63750   0.00500   0.90530   1.000
    H129    H    0.74360   0.99240   0.19130   1.000
    H130    H    0.62020   0.00740   0.75580   1.000
    H131    H    0.60720   0.00780   0.82230   1.000
    C123    C    0.08250   0.01960   0.58060   1.000
    H132    H    0.12020   0.98040   0.61570   1.000
    H133    H    0.07160   0.90150   0.61570   1.000
    O20     O    0.11578   0.01480   0.88560   1.000
    H134    H    0.95810   0.10800   0.61380   1.000
    C124    C    0.27370   0.99600   0.85230   1.000
    C125    C    0.28140   0.00500   0.10270   1.000
    H135    H    0.24340   0.99240   0.76930   1.000
    C126    C    0.35480   0.99600   0.84430   1.000
    C127    C    0.36250   0.99500   0.90530   1.000
    H136    H    0.25640   0.00760   0.19130   1.000
    H137    H    0.37980   0.99260   0.75580   1.000
    H138    H    0.39280   0.99220   0.82230   1.000
    C128    C    0.91750   0.98040   0.58060   1.000
    H139    H    0.87980   0.01960   0.61570   1.000
    H140    H    0.92840   0.09850   0.61570   1.000
    O21     O    0.01480   0.11578   0.11440   1.000
    H141    H    0.10800   0.95810   0.38620   1.000
    C129    C    0.99600   0.27370   0.14770   1.000
    C130    C    0.00500   0.28140   0.89730   1.000
    H142    H    0.99240   0.24340   0.23070   1.000
    C131    C    0.99600   0.35480   0.15570   1.000
    C132    C    0.99500   0.36250   0.09470   1.000
    H143    H    0.00760   0.25640   0.80870   1.000
    H144    H    0.99260   0.37980   0.24420   1.000
    H145    H    0.99220   0.39280   0.17770   1.000
    C133    C    0.98040   0.91750   0.41940   1.000
    H146    H    0.01960   0.87980   0.38430   1.000
    H147    H    0.09850   0.92840   0.38430   1.000
    O22     O    0.98520   0.88422   0.11440   1.000
    H148    H    0.89200   0.04190   0.38620   1.000
    C134    C    0.00400   0.72630   0.14770   1.000
    C135    C    0.99500   0.71860   0.89730   1.000
    H149    H    0.00760   0.75660   0.23070   1.000
    C136    C    0.00400   0.64520   0.15570   1.000
    C137    C    0.00500   0.63750   0.09470   1.000
    H150    H    0.99240   0.74360   0.80870   1.000
    H151    H    0.00740   0.62020   0.24420   1.000
    H152    H    0.00780   0.60720   0.17770   1.000
    C138    C    0.01960   0.08250   0.41940   1.000
    H153    H    0.98040   0.12020   0.38430   1.000
    H154    H    0.90150   0.07160   0.38430   1.000
    O23     O    0.11578   0.98520   0.11440   1.000
    H155    H    0.95810   0.89200   0.38620   1.000
    C139    C    0.27370   0.00400   0.14770   1.000
    C140    C    0.28140   0.99500   0.89730   1.000
    H156    H    0.24340   0.00760   0.23070   1.000
    C141    C    0.35480   0.00400   0.15570   1.000
    C142    C    0.36250   0.00500   0.09470   1.000
    H157    H    0.25640   0.99240   0.80870   1.000
    H158    H    0.37980   0.00740   0.24420   1.000
    H159    H    0.39280   0.00780   0.17770   1.000
    C143    C    0.91750   0.01960   0.41940   1.000
    H160    H    0.87980   0.98040   0.38430   1.000
    H161    H    0.92840   0.90150   0.38430   1.000
    O24     O    0.88422   0.01480   0.11440   1.000
    H162    H    0.04190   0.10800   0.38620   1.000
    C144    C    0.72630   0.99600   0.14770   1.000
    C145    C    0.71860   0.00500   0.89730   1.000
    H163    H    0.75660   0.99240   0.23070   1.000
    C146    C    0.64520   0.99600   0.15570   1.000
    C147    C    0.63750   0.99500   0.09470   1.000
    H164    H    0.74360   0.00760   0.80870   1.000
    H165    H    0.62020   0.99260   0.24420   1.000
    H166    H    0.60720   0.99220   0.17770   1.000
    C148    C    0.08250   0.98040   0.41940   1.000
    H167    H    0.12020   0.01960   0.38430   1.000
    H168    H    0.07160   0.09850   0.38430   1.000
    O25     O    0.01480   0.88422   0.11440   1.000
    H169    H    0.10800   0.04190   0.38620   1.000
    C149    C    0.99600   0.72630   0.14770   1.000
    C150    C    0.00500   0.71860   0.89730   1.000
    H170    H    0.99240   0.75660   0.23070   1.000
    C151    C    0.99600   0.64520   0.15570   1.000
    C152    C    0.99500   0.63750   0.09470   1.000
    H171    H    0.00760   0.74360   0.80870   1.000
    H172    H    0.99260   0.62020   0.24420   1.000
    H173    H    0.99220   0.60720   0.17770   1.000
    C153    C    0.98040   0.08250   0.41940   1.000
    H174    H    0.01960   0.12020   0.38430   1.000
    H175    H    0.09850   0.07160   0.38430   1.000
    O26     O    0.98520   0.11578   0.11440   1.000
    H176    H    0.89200   0.95810   0.38620   1.000
    C154    C    0.00400   0.27370   0.14770   1.000
    C155    C    0.99500   0.28140   0.89730   1.000
    H177    H    0.00760   0.24340   0.23070   1.000
    C156    C    0.00400   0.35480   0.15570   1.000
    C157    C    0.00500   0.36250   0.09470   1.000
    H178    H    0.99240   0.25640   0.80870   1.000
    H179    H    0.00740   0.37980   0.24420   1.000
    H180    H    0.00780   0.39280   0.17770   1.000
    C158    C    0.01960   0.91750   0.41940   1.000
    H181    H    0.98040   0.87980   0.38430   1.000
    H182    H    0.90150   0.92840   0.38430   1.000
    O27     O    0.11578   0.01480   0.11440   1.000
    H183    H    0.95810   0.10800   0.38620   1.000
    C159    C    0.27370   0.99600   0.14770   1.000
    C160    C    0.28140   0.00500   0.89730   1.000
    H184    H    0.24340   0.99240   0.23070   1.000
    C161    C    0.35480   0.99600   0.15570   1.000
    C162    C    0.36250   0.99500   0.09470   1.000
    H185    H    0.25640   0.00760   0.80870   1.000
    H186    H    0.37980   0.99260   0.24420   1.000
    H187    H    0.39280   0.99220   0.17770   1.000
    C163    C    0.91750   0.98040   0.41940   1.000
    H188    H    0.87980   0.01960   0.38430   1.000
    H189    H    0.92840   0.09850   0.38430   1.000
    O28     O    0.88422   0.98520   0.11440   1.000
    H190    H    0.04190   0.89200   0.38620   1.000
    C164    C    0.72630   0.00400   0.14770   1.000
    C165    C    0.71860   0.99500   0.89730   1.000
    H191    H    0.75660   0.00760   0.23070   1.000
    C166    C    0.64520   0.00400   0.15570   1.000
    C167    C    0.63750   0.00500   0.09470   1.000
    H192    H    0.74360   0.99240   0.80870   1.000
    H193    H    0.62020   0.00740   0.24420   1.000
    H194    H    0.60720   0.00780   0.17770   1.000
    C168    C    0.08250   0.01960   0.41940   1.000
    H195    H    0.12020   0.98040   0.38430   1.000
    H196    H    0.07160   0.90150   0.38430   1.000
    O29     O    0.98520   0.88422   0.88560   1.000
    H197    H    0.89200   0.04190   0.61380   1.000
    C169    C    0.00400   0.72630   0.85230   1.000
    C170    C    0.99500   0.71860   0.10270   1.000
    H198    H    0.00760   0.75660   0.76930   1.000
    C171    C    0.00400   0.64520   0.84430   1.000
    C172    C    0.00500   0.63750   0.90530   1.000
    H199    H    0.99240   0.74360   0.19130   1.000
    H200    H    0.00740   0.62020   0.75580   1.000
    H201    H    0.00780   0.60720   0.82230   1.000
    C173    C    0.01960   0.08250   0.58060   1.000
    H202    H    0.98040   0.12020   0.61570   1.000
    H203    H    0.90150   0.07160   0.61570   1.000
    O30     O    0.01480   0.11578   0.88560   1.000
    H204    H    0.10800   0.95810   0.61380   1.000
    C174    C    0.99600   0.27370   0.85230   1.000
    C175    C    0.00500   0.28140   0.10270   1.000
    H205    H    0.99240   0.24340   0.76930   1.000
    C176    C    0.99600   0.35480   0.84430   1.000
    C177    C    0.99500   0.36250   0.90530   1.000
    H206    H    0.00760   0.25640   0.19130   1.000
    H207    H    0.99260   0.37980   0.75580   1.000
    H208    H    0.99220   0.39280   0.82230   1.000
    C178    C    0.98040   0.91750   0.58060   1.000
    H209    H    0.01960   0.87980   0.61570   1.000
    H210    H    0.09850   0.92840   0.61570   1.000
    O31     O    0.88422   0.01480   0.88560   1.000
    H211    H    0.04190   0.10800   0.61380   1.000
    C179    C    0.72630   0.99600   0.85230   1.000
    C180    C    0.71860   0.00500   0.10270   1.000
    H212    H    0.75660   0.99240   0.76930   1.000
    C181    C    0.64520   0.99600   0.84430   1.000
    C182    C    0.63750   0.99500   0.90530   1.000
    H213    H    0.74360   0.00760   0.19130   1.000
    H214    H    0.62020   0.99260   0.75580   1.000
    H215    H    0.60720   0.99220   0.82230   1.000
    C183    C    0.08250   0.98040   0.58060   1.000
    H216    H    0.12020   0.01960   0.61570   1.000
    H217    H    0.07160   0.09850   0.61570   1.000
    O32     O    0.11578   0.98520   0.88560   1.000
    H218    H    0.95810   0.89200   0.61380   1.000
    C184    C    0.27370   0.00400   0.85230   1.000
    C185    C    0.28140   0.99500   0.10270   1.000
    H219    H    0.24340   0.00760   0.76930   1.000
    C186    C    0.35480   0.00400   0.84430   1.000
    C187    C    0.36250   0.00500   0.90530   1.000
    H220    H    0.25640   0.99240   0.19130   1.000
    H221    H    0.37980   0.00740   0.75580   1.000
    H222    H    0.39280   0.00780   0.82230   1.000
    C188    C    0.91750   0.01960   0.58060   1.000
    H223    H    0.87980   0.98040   0.61570   1.000
    H224    H    0.92840   0.90150   0.61570   1.000
    Zn3     Zn   0.00000   0.00000   0.84758   1.000
    N11     N    0.00000   0.00000   0.63380   1.000
    Zn4     Zn   0.00000   0.00000   0.15242   1.000
    N12     N    0.00000   0.00000   0.36620   1.000
    C189    C    0.94490   0.94490   0.57940   1.000
    C190    C    0.05510   0.05510   0.57940   1.000
    C191    C    0.05510   0.94490   0.57940   1.000
    C192    C    0.94490   0.05510   0.57940   1.000
    C193    C    0.05510   0.94490   0.42060   1.000
    C194    C    0.94490   0.05510   0.42060   1.000
    C195    C    0.94490   0.94490   0.42060   1.000
    C196    C    0.05510   0.05510   0.42060   1.000
    C197    C    0.00000   0.14930   0.00000   1.000
    C198    C    0.00000   0.85070   0.00000   1.000
    C199    C    0.85070   0.00000   0.00000   1.000
    C200    C    0.14930   0.00000   0.00000   1.000
    C201    C    0.00000   0.23710   0.98160   1.000
    C202    C    0.00000   0.39920   0.96550   1.000
    N13     N    0.00000   0.48100   0.94560   1.000
    C203    C    0.00000   0.76290   0.98160   1.000
    C204    C    0.00000   0.60080   0.96550   1.000
    N14     N    0.00000   0.51900   0.94560   1.000
    C205    C    0.76290   0.00000   0.98160   1.000
    C206    C    0.60080   0.00000   0.96550   1.000
    N15     N    0.51900   0.00000   0.94560   1.000
    C207    C    0.23710   0.00000   0.98160   1.000
    C208    C    0.39920   0.00000   0.96550   1.000
    N16     N    0.48100   0.00000   0.94560   1.000
    C209    C    0.00000   0.23710   0.01840   1.000
    C210    C    0.00000   0.39920   0.03450   1.000
    N17     N    0.00000   0.48100   0.05440   1.000
    C211    C    0.00000   0.76290   0.01840   1.000
    C212    C    0.00000   0.60080   0.03450   1.000
    N18     N    0.00000   0.51900   0.05440   1.000
    C213    C    0.23710   0.00000   0.01840   1.000
    C214    C    0.39920   0.00000   0.03450   1.000
    N19     N    0.48100   0.00000   0.05440   1.000
    C215    C    0.76290   0.00000   0.01840   1.000
    C216    C    0.60080   0.00000   0.03450   1.000
    N20     N    0.51900   0.00000   0.05440   1.000
