# CIF file generated by openbabel 2.4.1, see http://openbabel.sf.net
data_I
_chemical_name_common 'image0'
_cell_length_a 15.0208
_cell_length_b 15.0208
_cell_length_c 19.217
_cell_angle_alpha 90
_cell_angle_beta 90
_cell_angle_gamma 90
_space_group_name_H-M_alt 'P 1'
_space_group_name_Hall 'P 1'
loop_
    _symmetry_equiv_pos_as_xyz
    x,y,z
loop_
    _atom_site_label
    _atom_site_type_symbol
    _atom_site_fract_x
    _atom_site_fract_y
    _atom_site_fract_z
    _atom_site_occupancy
    O1      O    0.94670   0.87800   0.44282   1.000
    O2      O    0.62170   0.55320   0.55745   1.000
    C1      C    0.82910   0.73520   0.43740   1.000
    C2      C    0.76460   0.66960   0.43750   1.000
    O3      O    0.85660   0.76060   0.37540   1.000
    H1      H    0.86780   0.72130   0.32910   1.000
    H2      H    0.74330   0.64690   0.39400   1.000
    O4      O    0.74530   0.64150   0.37590   1.000
    H3      H    0.79070   0.61170   0.33800   1.000
    H4      H    0.85370   0.75670   0.39530   1.000
    C3      C    0.91210   0.03900   0.28680   1.000
    H5      H    0.09600   0.89940   0.30400   1.000
    H6      H    0.99740   0.86110   0.30270   1.000
    C4      C    0.91730   0.03850   0.20710   1.000
    H7      H    0.08810   0.89970   0.18990   1.000
    H8      H    0.99590   0.86640   0.18850   1.000
    C5      C    0.01290   0.90800   0.29030   1.000
    H9      H    0.07040   0.88340   0.30650   1.000
    H10     H    0.96480   0.86830   0.30700   1.000
    C6      C    0.51200   0.41060   0.71060   1.000
    H11     H    0.96330   0.87210   0.19350   1.000
    H12     H    0.06880   0.88600   0.19300   1.000
    C7      C    0.07460   0.06200   0.28950   1.000
    H13     H    0.04300   0.86720   0.30870   1.000
    H14     H    0.93700   0.87600   0.30450   1.000
    C8      C    0.07560   0.05620   0.21080   1.000
    H15     H    0.02990   0.86750   0.19490   1.000
    H16     H    0.92970   0.88340   0.19050   1.000
    O5      O    0.44670   0.37800   0.94282   1.000
    O6      O    0.12170   0.05320   0.05745   1.000
    C9      C    0.32910   0.23520   0.93740   1.000
    C10     C    0.26460   0.16960   0.93750   1.000
    O7      O    0.35660   0.26060   0.87540   1.000
    H17     H    0.36780   0.22130   0.82910   1.000
    H18     H    0.24330   0.14690   0.89400   1.000
    O8      O    0.24530   0.14150   0.87590   1.000
    H19     H    0.29070   0.11170   0.83800   1.000
    H20     H    0.35370   0.25670   0.89530   1.000
    C11     C    0.41210   0.53900   0.78680   1.000
    H21     H    0.59600   0.39940   0.80400   1.000
    H22     H    0.49740   0.36110   0.80270   1.000
    C12     C    0.41730   0.53850   0.70710   1.000
    H23     H    0.58810   0.39970   0.68990   1.000
    H24     H    0.49590   0.36640   0.68850   1.000
    C13     C    0.51290   0.40800   0.79030   1.000
    H25     H    0.57040   0.38340   0.80650   1.000
    H26     H    0.46480   0.36830   0.80700   1.000
    C14     C    0.01200   0.91060   0.21060   1.000
    H27     H    0.46330   0.37210   0.69350   1.000
    H28     H    0.56880   0.38600   0.69300   1.000
    C15     C    0.57460   0.56200   0.78950   1.000
    H29     H    0.54300   0.36720   0.80870   1.000
    H30     H    0.43700   0.37600   0.80450   1.000
    C16     C    0.57560   0.55620   0.71080   1.000
    H31     H    0.52990   0.36750   0.69490   1.000
    H32     H    0.42970   0.38340   0.69050   1.000
    O9      O    0.05330   0.12200   0.44282   1.000
    O10     O    0.37830   0.44680   0.55745   1.000
    C17     C    0.17090   0.26480   0.43740   1.000
    C18     C    0.23540   0.33040   0.43750   1.000
    O11     O    0.14340   0.23940   0.37540   1.000
    H33     H    0.13220   0.27870   0.32910   1.000
    H34     H    0.25670   0.35310   0.39400   1.000
    O12     O    0.25470   0.35850   0.37590   1.000
    H35     H    0.20930   0.38830   0.33800   1.000
    H36     H    0.14630   0.24330   0.39530   1.000
    C19     C    0.08790   0.96100   0.28680   1.000
    H37     H    0.90400   0.10060   0.30400   1.000
    H38     H    0.00260   0.13890   0.30270   1.000
    C20     C    0.08270   0.96150   0.20710   1.000
    H39     H    0.91190   0.10030   0.18990   1.000
    H40     H    0.00410   0.13360   0.18850   1.000
    C21     C    0.98710   0.09200   0.29030   1.000
    H41     H    0.92960   0.11660   0.30650   1.000
    H42     H    0.03520   0.13170   0.30700   1.000
    C22     C    0.48800   0.58940   0.71060   1.000
    H43     H    0.03670   0.12790   0.19350   1.000
    H44     H    0.93120   0.11400   0.19300   1.000
    C23     C    0.92540   0.93800   0.28950   1.000
    H45     H    0.95700   0.13280   0.30870   1.000
    H46     H    0.06300   0.12400   0.30450   1.000
    C24     C    0.92440   0.94380   0.21080   1.000
    H47     H    0.97010   0.13250   0.19490   1.000
    H48     H    0.07030   0.11660   0.19050   1.000
    O13     O    0.55330   0.62200   0.94282   1.000
    O14     O    0.87830   0.94680   0.05745   1.000
    C25     C    0.67090   0.76480   0.93740   1.000
    C26     C    0.73540   0.83040   0.93750   1.000
    O15     O    0.64340   0.73940   0.87540   1.000
    H49     H    0.63220   0.77870   0.82910   1.000
    H50     H    0.75670   0.85310   0.89400   1.000
    O16     O    0.75470   0.85850   0.87590   1.000
    H51     H    0.70930   0.88830   0.83800   1.000
    H52     H    0.64630   0.74330   0.89530   1.000
    C27     C    0.58790   0.46100   0.78680   1.000
    H53     H    0.40400   0.60060   0.80400   1.000
    H54     H    0.50260   0.63890   0.80270   1.000
    C28     C    0.58270   0.46150   0.70710   1.000
    H55     H    0.41190   0.60030   0.68990   1.000
    H56     H    0.50410   0.63360   0.68850   1.000
    C29     C    0.48710   0.59200   0.79030   1.000
    H57     H    0.42960   0.61660   0.80650   1.000
    H58     H    0.53520   0.63170   0.80700   1.000
    C30     C    0.98800   0.08940   0.21060   1.000
    H59     H    0.53670   0.62790   0.69350   1.000
    H60     H    0.43120   0.61400   0.69300   1.000
    C31     C    0.42540   0.43800   0.78950   1.000
    H61     H    0.45700   0.63280   0.80870   1.000
    H62     H    0.56300   0.62400   0.80450   1.000
    C32     C    0.42440   0.44380   0.71080   1.000
    H63     H    0.47010   0.63250   0.69490   1.000
    H64     H    0.57030   0.61660   0.69050   1.000
    O17     O    0.12200   0.94670   0.44282   1.000
    O18     O    0.44680   0.62170   0.55745   1.000
    C33     C    0.26480   0.82910   0.43740   1.000
    C34     C    0.33040   0.76460   0.43750   1.000
    O19     O    0.23940   0.85660   0.37540   1.000
    H65     H    0.27870   0.86780   0.32910   1.000
    H66     H    0.35310   0.74330   0.39400   1.000
    O20     O    0.35850   0.74530   0.37590   1.000
    H67     H    0.38830   0.79070   0.33800   1.000
    H68     H    0.24330   0.85370   0.39530   1.000
    C35     C    0.96100   0.91210   0.28680   1.000
    H69     H    0.10060   0.09600   0.30400   1.000
    H70     H    0.13890   0.99740   0.30270   1.000
    C36     C    0.96150   0.91730   0.20710   1.000
    H71     H    0.10030   0.08810   0.18990   1.000
    H72     H    0.13360   0.99590   0.18850   1.000
    C37     C    0.09200   0.01290   0.29030   1.000
    H73     H    0.11660   0.07040   0.30650   1.000
    H74     H    0.13170   0.96480   0.30700   1.000
    C38     C    0.58940   0.51200   0.71060   1.000
    H75     H    0.12790   0.96330   0.19350   1.000
    H76     H    0.11400   0.06880   0.19300   1.000
    C39     C    0.93800   0.07460   0.28950   1.000
    H77     H    0.13280   0.04300   0.30870   1.000
    H78     H    0.12400   0.93700   0.30450   1.000
    C40     C    0.94380   0.07560   0.21080   1.000
    H79     H    0.13250   0.02990   0.19490   1.000
    H80     H    0.11660   0.92970   0.19050   1.000
    O21     O    0.62200   0.44670   0.94282   1.000
    O22     O    0.94680   0.12170   0.05745   1.000
    C41     C    0.76480   0.32910   0.93740   1.000
    C42     C    0.83040   0.26460   0.93750   1.000
    O23     O    0.73940   0.35660   0.87540   1.000
    H81     H    0.77870   0.36780   0.82910   1.000
    H82     H    0.85310   0.24330   0.89400   1.000
    O24     O    0.85850   0.24530   0.87590   1.000
    H83     H    0.88830   0.29070   0.83800   1.000
    H84     H    0.74330   0.35370   0.89530   1.000
    C43     C    0.46100   0.41210   0.78680   1.000
    H85     H    0.60060   0.59600   0.80400   1.000
    H86     H    0.63890   0.49740   0.80270   1.000
    C44     C    0.46150   0.41730   0.70710   1.000
    H87     H    0.60030   0.58810   0.68990   1.000
    H88     H    0.63360   0.49590   0.68850   1.000
    C45     C    0.59200   0.51290   0.79030   1.000
    H89     H    0.61660   0.57040   0.80650   1.000
    H90     H    0.63170   0.46480   0.80700   1.000
    C46     C    0.08940   0.01200   0.21060   1.000
    H91     H    0.62790   0.46330   0.69350   1.000
    H92     H    0.61400   0.56880   0.69300   1.000
    C47     C    0.43800   0.57460   0.78950   1.000
    H93     H    0.63280   0.54300   0.80870   1.000
    H94     H    0.62400   0.43700   0.80450   1.000
    C48     C    0.44380   0.57560   0.71080   1.000
    H95     H    0.63250   0.52990   0.69490   1.000
    H96     H    0.61660   0.42970   0.69050   1.000
    O25     O    0.87800   0.05330   0.44282   1.000
    O26     O    0.55320   0.37830   0.55745   1.000
    C49     C    0.73520   0.17090   0.43740   1.000
    C50     C    0.66960   0.23540   0.43750   1.000
    O27     O    0.76060   0.14340   0.37540   1.000
    H97     H    0.72130   0.13220   0.32910   1.000
    H98     H    0.64690   0.25670   0.39400   1.000
    O28     O    0.64150   0.25470   0.37590   1.000
    H99     H    0.61170   0.20930   0.33800   1.000
    H100    H    0.75670   0.14630   0.39530   1.000
    C51     C    0.03900   0.08790   0.28680   1.000
    H101    H    0.89940   0.90400   0.30400   1.000
    H102    H    0.86110   0.00260   0.30270   1.000
    C52     C    0.03850   0.08270   0.20710   1.000
    H103    H    0.89970   0.91190   0.18990   1.000
    H104    H    0.86640   0.00410   0.18850   1.000
    C53     C    0.90800   0.98710   0.29030   1.000
    H105    H    0.88340   0.92960   0.30650   1.000
    H106    H    0.86830   0.03520   0.30700   1.000
    C54     C    0.41060   0.48800   0.71060   1.000
    H107    H    0.87210   0.03670   0.19350   1.000
    H108    H    0.88600   0.93120   0.19300   1.000
    C55     C    0.06200   0.92540   0.28950   1.000
    H109    H    0.86720   0.95700   0.30870   1.000
    H110    H    0.87600   0.06300   0.30450   1.000
    C56     C    0.05620   0.92440   0.21080   1.000
    H111    H    0.86750   0.97010   0.19490   1.000
    H112    H    0.88340   0.07030   0.19050   1.000
    O29     O    0.37800   0.55330   0.94282   1.000
    O30     O    0.05320   0.87830   0.05745   1.000
    C57     C    0.23520   0.67090   0.93740   1.000
    C58     C    0.16960   0.73540   0.93750   1.000
    O31     O    0.26060   0.64340   0.87540   1.000
    H113    H    0.22130   0.63220   0.82910   1.000
    H114    H    0.14690   0.75670   0.89400   1.000
    O32     O    0.14150   0.75470   0.87590   1.000
    H115    H    0.11170   0.70930   0.83800   1.000
    H116    H    0.25670   0.64630   0.89530   1.000
    C59     C    0.53900   0.58790   0.78680   1.000
    H117    H    0.39940   0.40400   0.80400   1.000
    H118    H    0.36110   0.50260   0.80270   1.000
    C60     C    0.53850   0.58270   0.70710   1.000
    H119    H    0.39970   0.41190   0.68990   1.000
    H120    H    0.36640   0.50410   0.68850   1.000
    C61     C    0.40800   0.48710   0.79030   1.000
    H121    H    0.38340   0.42960   0.80650   1.000
    H122    H    0.36830   0.53520   0.80700   1.000
    C62     C    0.91060   0.98800   0.21060   1.000
    H123    H    0.37210   0.53670   0.69350   1.000
    H124    H    0.38600   0.43120   0.69300   1.000
    C63     C    0.56200   0.42540   0.78950   1.000
    H125    H    0.36720   0.45700   0.80870   1.000
    H126    H    0.37600   0.56300   0.80450   1.000
    C64     C    0.55620   0.42440   0.71080   1.000
    H127    H    0.36750   0.47010   0.69490   1.000
    H128    H    0.38340   0.57030   0.69050   1.000
    O33     O    0.05330   0.12200   0.55718   1.000
    O34     O    0.37830   0.44680   0.44255   1.000
    C65     C    0.17090   0.26480   0.56260   1.000
    C66     C    0.23540   0.33040   0.56250   1.000
    O35     O    0.14340   0.23940   0.62460   1.000
    H129    H    0.13220   0.27870   0.67090   1.000
    H130    H    0.25670   0.35310   0.60600   1.000
    O36     O    0.25470   0.35850   0.62410   1.000
    H131    H    0.20930   0.38830   0.66200   1.000
    H132    H    0.14630   0.24330   0.60470   1.000
    C67     C    0.08790   0.96100   0.71320   1.000
    H133    H    0.90400   0.10060   0.69600   1.000
    H134    H    0.00260   0.13890   0.69730   1.000
    C68     C    0.08270   0.96150   0.79290   1.000
    H135    H    0.91190   0.10030   0.81010   1.000
    H136    H    0.00410   0.13360   0.81150   1.000
    C69     C    0.98710   0.09200   0.70970   1.000
    H137    H    0.92960   0.11660   0.69350   1.000
    H138    H    0.03520   0.13170   0.69300   1.000
    C70     C    0.48800   0.58940   0.28940   1.000
    H139    H    0.03670   0.12790   0.80650   1.000
    H140    H    0.93120   0.11400   0.80700   1.000
    C71     C    0.92540   0.93800   0.71050   1.000
    H141    H    0.95700   0.13280   0.69130   1.000
    H142    H    0.06300   0.12400   0.69550   1.000
    C72     C    0.92440   0.94380   0.78920   1.000
    H143    H    0.97010   0.13250   0.80510   1.000
    H144    H    0.07030   0.11660   0.80950   1.000
    O37     O    0.55330   0.62200   0.05718   1.000
    O38     O    0.87830   0.94680   0.94255   1.000
    C73     C    0.67090   0.76480   0.06260   1.000
    C74     C    0.73540   0.83040   0.06250   1.000
    O39     O    0.64340   0.73940   0.12460   1.000
    H145    H    0.63220   0.77870   0.17090   1.000
    H146    H    0.75670   0.85310   0.10600   1.000
    O40     O    0.75470   0.85850   0.12410   1.000
    H147    H    0.70930   0.88830   0.16200   1.000
    H148    H    0.64630   0.74330   0.10470   1.000
    C75     C    0.58790   0.46100   0.21320   1.000
    H149    H    0.40400   0.60060   0.19600   1.000
    H150    H    0.50260   0.63890   0.19730   1.000
    C76     C    0.58270   0.46150   0.29290   1.000
    H151    H    0.41190   0.60030   0.31010   1.000
    H152    H    0.50410   0.63360   0.31150   1.000
    C77     C    0.48710   0.59200   0.20970   1.000
    H153    H    0.42960   0.61660   0.19350   1.000
    H154    H    0.53520   0.63170   0.19300   1.000
    C78     C    0.98800   0.08940   0.78940   1.000
    H155    H    0.53670   0.62790   0.30650   1.000
    H156    H    0.43120   0.61400   0.30700   1.000
    C79     C    0.42540   0.43800   0.21050   1.000
    H157    H    0.45700   0.63280   0.19130   1.000
    H158    H    0.56300   0.62400   0.19550   1.000
    C80     C    0.42440   0.44380   0.28920   1.000
    H159    H    0.47010   0.63250   0.30510   1.000
    H160    H    0.57030   0.61660   0.30950   1.000
    O41     O    0.94670   0.87800   0.55718   1.000
    O42     O    0.62170   0.55320   0.44255   1.000
    C81     C    0.82910   0.73520   0.56260   1.000
    C82     C    0.76460   0.66960   0.56250   1.000
    O43     O    0.85660   0.76060   0.62460   1.000
    H161    H    0.86780   0.72130   0.67090   1.000
    H162    H    0.74330   0.64690   0.60600   1.000
    O44     O    0.74530   0.64150   0.62410   1.000
    H163    H    0.79070   0.61170   0.66200   1.000
    H164    H    0.85370   0.75670   0.60470   1.000
    C83     C    0.91210   0.03900   0.71320   1.000
    H165    H    0.09600   0.89940   0.69600   1.000
    H166    H    0.99740   0.86110   0.69730   1.000
    C84     C    0.91730   0.03850   0.79290   1.000
    H167    H    0.08810   0.89970   0.81010   1.000
    H168    H    0.99590   0.86640   0.81150   1.000
    C85     C    0.01290   0.90800   0.70970   1.000
    H169    H    0.07040   0.88340   0.69350   1.000
    H170    H    0.96480   0.86830   0.69300   1.000
    C86     C    0.51200   0.41060   0.28940   1.000
    H171    H    0.96330   0.87210   0.80650   1.000
    H172    H    0.06880   0.88600   0.80700   1.000
    C87     C    0.07460   0.06200   0.71050   1.000
    H173    H    0.04300   0.86720   0.69130   1.000
    H174    H    0.93700   0.87600   0.69550   1.000
    C88     C    0.07560   0.05620   0.78920   1.000
    H175    H    0.02990   0.86750   0.80510   1.000
    H176    H    0.92970   0.88340   0.80950   1.000
    O45     O    0.44670   0.37800   0.05718   1.000
    O46     O    0.12170   0.05320   0.94255   1.000
    C89     C    0.32910   0.23520   0.06260   1.000
    C90     C    0.26460   0.16960   0.06250   1.000
    O47     O    0.35660   0.26060   0.12460   1.000
    H177    H    0.36780   0.22130   0.17090   1.000
    H178    H    0.24330   0.14690   0.10600   1.000
    O48     O    0.24530   0.14150   0.12410   1.000
    H179    H    0.29070   0.11170   0.16200   1.000
    H180    H    0.35370   0.25670   0.10470   1.000
    C91     C    0.41210   0.53900   0.21320   1.000
    H181    H    0.59600   0.39940   0.19600   1.000
    H182    H    0.49740   0.36110   0.19730   1.000
    C92     C    0.41730   0.53850   0.29290   1.000
    H183    H    0.58810   0.39970   0.31010   1.000
    H184    H    0.49590   0.36640   0.31150   1.000
    C93     C    0.51290   0.40800   0.20970   1.000
    H185    H    0.57040   0.38340   0.19350   1.000
    H186    H    0.46480   0.36830   0.19300   1.000
    C94     C    0.01200   0.91060   0.78940   1.000
    H187    H    0.46330   0.37210   0.30650   1.000
    H188    H    0.56880   0.38600   0.30700   1.000
    C95     C    0.57460   0.56200   0.21050   1.000
    H189    H    0.54300   0.36720   0.19130   1.000
    H190    H    0.43700   0.37600   0.19550   1.000
    C96     C    0.57560   0.55620   0.28920   1.000
    H191    H    0.52990   0.36750   0.30510   1.000
    H192    H    0.42970   0.38340   0.30950   1.000
    O49     O    0.87800   0.05330   0.55718   1.000
    O50     O    0.55320   0.37830   0.44255   1.000
    C97     C    0.73520   0.17090   0.56260   1.000
    C98     C    0.66960   0.23540   0.56250   1.000
    O51     O    0.76060   0.14340   0.62460   1.000
    H193    H    0.72130   0.13220   0.67090   1.000
    H194    H    0.64690   0.25670   0.60600   1.000
    O52     O    0.64150   0.25470   0.62410   1.000
    H195    H    0.61170   0.20930   0.66200   1.000
    H196    H    0.75670   0.14630   0.60470   1.000
    C99     C    0.03900   0.08790   0.71320   1.000
    H197    H    0.89940   0.90400   0.69600   1.000
    H198    H    0.86110   0.00260   0.69730   1.000
    C100    C    0.03850   0.08270   0.79290   1.000
    H199    H    0.89970   0.91190   0.81010   1.000
    H200    H    0.86640   0.00410   0.81150   1.000
    C101    C    0.90800   0.98710   0.70970   1.000
    H201    H    0.88340   0.92960   0.69350   1.000
    H202    H    0.86830   0.03520   0.69300   1.000
    C102    C    0.41060   0.48800   0.28940   1.000
    H203    H    0.87210   0.03670   0.80650   1.000
    H204    H    0.88600   0.93120   0.80700   1.000
    C103    C    0.06200   0.92540   0.71050   1.000
    H205    H    0.86720   0.95700   0.69130   1.000
    H206    H    0.87600   0.06300   0.69550   1.000
    C104    C    0.05620   0.92440   0.78920   1.000
    H207    H    0.86750   0.97010   0.80510   1.000
    H208    H    0.88340   0.07030   0.80950   1.000
    O53     O    0.37800   0.55330   0.05718   1.000
    O54     O    0.05320   0.87830   0.94255   1.000
    C105    C    0.23520   0.67090   0.06260   1.000
    C106    C    0.16960   0.73540   0.06250   1.000
    O55     O    0.26060   0.64340   0.12460   1.000
    H209    H    0.22130   0.63220   0.17090   1.000
    H210    H    0.14690   0.75670   0.10600   1.000
    O56     O    0.14150   0.75470   0.12410   1.000
    H211    H    0.11170   0.70930   0.16200   1.000
    H212    H    0.25670   0.64630   0.10470   1.000
    C107    C    0.53900   0.58790   0.21320   1.000
    H213    H    0.39940   0.40400   0.19600   1.000
    H214    H    0.36110   0.50260   0.19730   1.000
    C108    C    0.53850   0.58270   0.29290   1.000
    H215    H    0.39970   0.41190   0.31010   1.000
    H216    H    0.36640   0.50410   0.31150   1.000
    C109    C    0.40800   0.48710   0.20970   1.000
    H217    H    0.38340   0.42960   0.19350   1.000
    H218    H    0.36830   0.53520   0.19300   1.000
    C110    C    0.91060   0.98800   0.78940   1.000
    H219    H    0.37210   0.53670   0.30650   1.000
    H220    H    0.38600   0.43120   0.30700   1.000
    C111    C    0.56200   0.42540   0.21050   1.000
    H221    H    0.36720   0.45700   0.19130   1.000
    H222    H    0.37600   0.56300   0.19550   1.000
    C112    C    0.55620   0.42440   0.28920   1.000
    H223    H    0.36750   0.47010   0.30510   1.000
    H224    H    0.38340   0.57030   0.30950   1.000
    O57     O    0.12200   0.94670   0.55718   1.000
    O58     O    0.44680   0.62170   0.44255   1.000
    C113    C    0.26480   0.82910   0.56260   1.000
    C114    C    0.33040   0.76460   0.56250   1.000
    O59     O    0.23940   0.85660   0.62460   1.000
    H225    H    0.27870   0.86780   0.67090   1.000
    H226    H    0.35310   0.74330   0.60600   1.000
    O60     O    0.35850   0.74530   0.62410   1.000
    H227    H    0.38830   0.79070   0.66200   1.000
    H228    H    0.24330   0.85370   0.60470   1.000
    C115    C    0.96100   0.91210   0.71320   1.000
    H229    H    0.10060   0.09600   0.69600   1.000
    H230    H    0.13890   0.99740   0.69730   1.000
    C116    C    0.96150   0.91730   0.79290   1.000
    H231    H    0.10030   0.08810   0.81010   1.000
    H232    H    0.13360   0.99590   0.81150   1.000
    C117    C    0.09200   0.01290   0.70970   1.000
    H233    H    0.11660   0.07040   0.69350   1.000
    H234    H    0.13170   0.96480   0.69300   1.000
    C118    C    0.58940   0.51200   0.28940   1.000
    H235    H    0.12790   0.96330   0.80650   1.000
    H236    H    0.11400   0.06880   0.80700   1.000
    C119    C    0.93800   0.07460   0.71050   1.000
    H237    H    0.13280   0.04300   0.69130   1.000
    H238    H    0.12400   0.93700   0.69550   1.000
    C120    C    0.94380   0.07560   0.78920   1.000
    H239    H    0.13250   0.02990   0.80510   1.000
    H240    H    0.11660   0.92970   0.80950   1.000
    O61     O    0.62200   0.44670   0.05718   1.000
    O62     O    0.94680   0.12170   0.94255   1.000
    C121    C    0.76480   0.32910   0.06260   1.000
    C122    C    0.83040   0.26460   0.06250   1.000
    O63     O    0.73940   0.35660   0.12460   1.000
    H241    H    0.77870   0.36780   0.17090   1.000
    H242    H    0.85310   0.24330   0.10600   1.000
    O64     O    0.85850   0.24530   0.12410   1.000
    H243    H    0.88830   0.29070   0.16200   1.000
    H244    H    0.74330   0.35370   0.10470   1.000
    C123    C    0.46100   0.41210   0.21320   1.000
    H245    H    0.60060   0.59600   0.19600   1.000
    H246    H    0.63890   0.49740   0.19730   1.000
    C124    C    0.46150   0.41730   0.29290   1.000
    H247    H    0.60030   0.58810   0.31010   1.000
    H248    H    0.63360   0.49590   0.31150   1.000
    C125    C    0.59200   0.51290   0.20970   1.000
    H249    H    0.61660   0.57040   0.19350   1.000
    H250    H    0.63170   0.46480   0.19300   1.000
    C126    C    0.08940   0.01200   0.78940   1.000
    H251    H    0.62790   0.46330   0.30650   1.000
    H252    H    0.61400   0.56880   0.30700   1.000
    C127    C    0.43800   0.57460   0.21050   1.000
    H253    H    0.63280   0.54300   0.19130   1.000
    H254    H    0.62400   0.43700   0.19550   1.000
    C128    C    0.44380   0.57560   0.28920   1.000
    H255    H    0.63250   0.52990   0.30510   1.000
    H256    H    0.61660   0.42970   0.30950   1.000
    Zn1     Zn   0.00000   0.00000   0.42277   1.000
    N1      N    0.00000   0.00000   0.31430   1.000
    N2      N    0.00000   0.00000   0.32040   1.000
    N3      N    0.00000   0.00000   0.31560   1.000
    N4      N    0.00000   0.00000   0.18730   1.000
    Zn2     Zn   0.50000   0.50000   0.92277   1.000
    N5      N    0.50000   0.50000   0.81430   1.000
    N6      N    0.50000   0.50000   0.82040   1.000
    N7      N    0.50000   0.50000   0.81560   1.000
    N8      N    0.50000   0.50000   0.68730   1.000
    Zn3     Zn   0.00000   0.00000   0.57723   1.000
    N9      N    0.00000   0.00000   0.68570   1.000
    N10     N    0.00000   0.00000   0.67960   1.000
    N11     N    0.00000   0.00000   0.68440   1.000
    N12     N    0.00000   0.00000   0.81270   1.000
    Zn4     Zn   0.50000   0.50000   0.07723   1.000
    N13     N    0.50000   0.50000   0.18570   1.000
    N14     N    0.50000   0.50000   0.17960   1.000
    N15     N    0.50000   0.50000   0.18440   1.000
    N16     N    0.50000   0.50000   0.31270   1.000
    Zn5     Zn   0.50000   0.50000   0.57728   1.000
    N17     N    0.50000   0.50000   0.68080   1.000
    Zn6     Zn   0.00000   0.00000   0.07728   1.000
    N18     N    0.00000   0.00000   0.18080   1.000
    Zn7     Zn   0.50000   0.50000   0.42272   1.000
    N19     N    0.50000   0.50000   0.31920   1.000
    Zn8     Zn   0.00000   0.00000   0.92272   1.000
    N20     N    0.00000   0.00000   0.81920   1.000
    C129    C    0.92290   0.84720   0.50000   1.000
    C130    C    0.86210   0.77040   0.50000   1.000
    C131    C    0.73100   0.63980   0.50000   1.000
    C132    C    0.65180   0.57660   0.50000   1.000
    C133    C    0.42290   0.34720   0.00000   1.000
    C134    C    0.36210   0.27040   0.00000   1.000
    C135    C    0.23100   0.13980   0.00000   1.000
    C136    C    0.15180   0.07660   0.00000   1.000
    C137    C    0.07710   0.15280   0.50000   1.000
    C138    C    0.13790   0.22960   0.50000   1.000
    C139    C    0.26900   0.36020   0.50000   1.000
    C140    C    0.34820   0.42340   0.50000   1.000
    C141    C    0.57710   0.65280   0.00000   1.000
    C142    C    0.63790   0.72960   0.00000   1.000
    C143    C    0.76900   0.86020   0.00000   1.000
    C144    C    0.84820   0.92340   0.00000   1.000
    C145    C    0.15280   0.92290   0.50000   1.000
    C146    C    0.22960   0.86210   0.50000   1.000
    C147    C    0.36020   0.73100   0.50000   1.000
    C148    C    0.42340   0.65180   0.50000   1.000
    C149    C    0.65280   0.42290   0.00000   1.000
    C150    C    0.72960   0.36210   0.00000   1.000
    C151    C    0.86020   0.23100   0.00000   1.000
    C152    C    0.92340   0.15180   0.00000   1.000
    C153    C    0.84720   0.07710   0.50000   1.000
    C154    C    0.77040   0.13790   0.50000   1.000
    C155    C    0.63980   0.26900   0.50000   1.000
    C156    C    0.57660   0.34820   0.50000   1.000
    C157    C    0.34720   0.57710   0.00000   1.000
    C158    C    0.27040   0.63790   0.00000   1.000
    C159    C    0.13980   0.76900   0.00000   1.000
    C160    C    0.07660   0.84820   0.00000   1.000
