data_functionalizedCrystal
_audit_creation_method	'EQeq! by Chris Wilmer'
_symmetry_space_group_name_H-M	'P1'
_symmetry_Int_Tables_number	1
_symmetry_cell_setting	triclinic
loop_
_symmetry_equiv_pos_as_xyz
  x,y,z
_cell_length_a	18.4705
_cell_length_b	18.528
_cell_length_c	49.3489
_cell_angle_alpha	90
_cell_angle_beta	90
_cell_angle_gamma	90
loop_
_atom_site_label
_atom_site_type_symbol
_atom_site_fract_x
_atom_site_fract_y
_atom_site_fract_z
_atom_site_charge
Mof_Lu	Lu	0.29728	0.42714	0.87849	3.777
Mof_Lu	Lu	0.866	0.40154	0.12222	3.781
Mof_Lu	Lu	0.68445	0.51409	0.87533	3.613
Mof_Lu	Lu	0.79728	0.57286	0.62151	3.777
Mof_Lu	Lu	0.366	0.59846	0.37778	3.781
Mof_Lu	Lu	0.18445	0.48591	0.62467	3.613
Mof_Lu	Lu	0.20272	0.92714	0.12151	3.765
Mof_Lu	Lu	0.634	0.90154	0.87778	3.781
Mof_Lu	Lu	0.81555	0.01409	0.12467	3.598
Mof_Lu	Lu	0.70272	0.07287	0.37849	3.769
Mof_Lu	Lu	0.134	0.09846	0.62222	3.779
Mof_Lu	Lu	0.31555	0.98591	0.37533	3.604
Mof_Lu	Lu	0.70272	0.57286	0.12151	3.778
Mof_Lu	Lu	0.134	0.59846	0.87778	3.782
Mof_Lu	Lu	0.31555	0.48591	0.12467	3.614
Mof_Lu	Lu	0.20272	0.42714	0.37849	3.778
Mof_Lu	Lu	0.634	0.40154	0.62222	3.782
Mof_Lu	Lu	0.81555	0.51409	0.37533	3.614
Mof_Lu	Lu	0.79728	0.07287	0.87849	3.766
Mof_Lu	Lu	0.366	0.09846	0.12222	3.782
Mof_Lu	Lu	0.18445	0.98591	0.87533	3.598
Mof_Lu	Lu	0.29728	0.92714	0.62151	3.769
Mof_Lu	Lu	0.866	0.90154	0.37778	3.779
Mof_Lu	Lu	0.68445	0.01409	0.62467	3.604
Mof_Co	Co	0.95533	0.38368	0.75458	1.126
Mof_Co	Co	0.10761	0.24759	0.99786	1.165
Mof_Co	Co	0.45533	0.61632	0.74542	1.128
Mof_Co	Co	0.60761	0.75241	0.50214	1.165
Mof_Co	Co	0.54467	0.88368	0.24542	1.128
Mof_Co	Co	0.39239	0.74759	0.00214	1.165
Mof_Co	Co	0.04467	0.11632	0.25458	1.128
Mof_Co	Co	0.89239	0.25241	0.49786	1.165
Mof_Co	Co	0.04467	0.61632	0.24542	1.126
Mof_Co	Co	0.89239	0.75241	0.00214	1.165
Mof_Co	Co	0.54467	0.38368	0.25458	1.128
Mof_Co	Co	0.39239	0.24759	0.49786	1.165
Mof_Co	Co	0.45533	0.11632	0.75458	1.128
Mof_Co	Co	0.60761	0.25241	0.99786	1.165
Mof_Co	Co	0.95533	0.88368	0.74542	1.128
Mof_Co	Co	0.10761	0.74759	0.50214	1.165
Mof_H 	H 	0.4427	0.4393	0.8867	0.244
Mof_H 	H 	0.4423	0.465	0.8605	0.291
Mof_H 	H 	0.2801	0.2868	0.8949	0.382
Mof_H 	H 	0.2902	0.2886	0.8669	0.345
Mof_H 	H 	0.0014	0.4374	0.0986	0.446
Mof_H 	H 	0.0087	0.4187	0.1258	0.426
Mof_H 	H 	0.7114	0.672	0.8731	0.434
Mof_H 	H 	0.6354	0.6658	0.8743	0.43
Mof_H 	H 	0.5536	0.5588	0.9091	0.276
Mof_H 	H 	0.6116	0.5611	0.8917	-0.252
Mof_H 	H 	0.0358	0.2265	0.055	-0.008
Mof_H 	H 	0.8697	0.3659	0.0572	-0.029
Mof_H 	H 	0.9075	0.41	0.015	0.112
Mof_H 	H 	0.9606	0.4559	0.9761	0.113
Mof_H 	H 	0.0269	0.4984	0.9395	-0.047
Mof_H 	H 	0.1677	0.3355	0.9503	-0.019
Mof_H 	H 	0.8652	0.64	0.9602	-0.001
Mof_H 	H 	0.6503	0.6344	0.9503	0.014
Mof_H 	H 	0.6379	0.7143	0.9868	0.086
Mof_H 	H 	0.6429	0.7932	0.0246	0.069
Mof_H 	H 	0.6588	0.861	0.0646	0.051
Mof_H 	H 	0.8731	0.838	0.055	0.017
Mof_H 	H 	0.5041	0.258	0.9475	-0.002
Mof_H 	H 	0.3736	0.4258	0.963	0.03
Mof_H 	H 	0.4372	0.4469	0.003	0.087
Mof_H 	H 	0.5036	0.4597	0.0406	0.087
Mof_H 	H 	0.5859	0.4747	0.0754	-0.01
Mof_H 	H 	0.7068	0.3158	0.0433	-0.014
Mof_H 	H 	0.8528	0.4198	0.8041	0.009
Mof_H 	H 	0.8613	0.6323	0.8174	0.033
Mof_H 	H 	0.9283	0.6445	0.7772	0.07
Mof_H 	H 	0.9771	0.6461	0.7343	0.074
Mof_H 	H 	0.0403	0.637	0.6933	0.031
Mof_H 	H 	0.0499	0.4236	0.7047	0.011
Mof_H 	H 	0.0313	0.4559	0.8066	-0.019
Mof_H 	H 	0.1829	0.317	0.8324	-0.031
Mof_H 	H 	0.1585	0.245	0.7947	0.099
Mof_H 	H 	0.1483	0.1963	0.7543	0.089
Mof_H 	H 	0.1342	0.1504	0.7102	0.027
Mof_H 	H 	0.9758	0.2956	0.698	-0.01
Mof_H 	H 	0.3806	0.554	0.7989	-0.017
Mof_H 	H 	0.2446	0.706	0.8267	-0.041
Mof_H 	H 	0.267	0.772	0.7868	0.096
Mof_H 	H 	0.2794	0.8197	0.7462	0.094
Mof_H 	H 	0.3009	0.8656	0.7022	0.009
Mof_H 	H 	0.4403	0.7046	0.6896	-0.002
Mof_H 	H 	0.9427	0.5607	0.6133	0.244
Mof_H 	H 	0.9423	0.535	0.6395	0.29
Mof_H 	H 	0.7801	0.7132	0.6051	0.382
Mof_H 	H 	0.7902	0.7114	0.6331	0.346
Mof_H 	H 	0.5014	0.5626	0.4014	0.448
Mof_H 	H 	0.5087	0.5813	0.3742	0.427
Mof_H 	H 	0.2114	0.328	0.6269	0.434
Mof_H 	H 	0.1354	0.3342	0.6257	0.43
Mof_H 	H 	0.0536	0.4412	0.5909	0.276
Mof_H 	H 	0.1116	0.4389	0.6083	-0.252
Mof_H 	H 	0.5358	0.7735	0.445	-0.007
Mof_H 	H 	0.3697	0.6341	0.4428	-0.029
Mof_H 	H 	0.4075	0.59	0.485	0.112
Mof_H 	H 	0.4606	0.5441	0.5239	0.114
Mof_H 	H 	0.5269	0.5016	0.5605	-0.048
Mof_H 	H 	0.6677	0.6645	0.5497	-0.02
Mof_H 	H 	0.3652	0.36	0.5398	-0.001
Mof_H 	H 	0.1503	0.3656	0.5497	0.014
Mof_H 	H 	0.1379	0.2857	0.5132	0.086
Mof_H 	H 	0.1429	0.2068	0.4754	0.07
Mof_H 	H 	0.1588	0.139	0.4354	0.052
Mof_H 	H 	0.3731	0.162	0.445	0.016
Mof_H 	H 	0.0041	0.742	0.5525	-0.007
Mof_H 	H 	0.8736	0.5742	0.537	0.03
Mof_H 	H 	0.9372	0.5531	0.497	0.086
Mof_H 	H 	0.0036	0.5403	0.4594	0.087
Mof_H 	H 	0.0859	0.5253	0.4246	-0.011
Mof_H 	H 	0.2068	0.6842	0.4567	-0.014
Mof_H 	H 	0.3528	0.5802	0.6959	0.009
Mof_H 	H 	0.3613	0.3677	0.6826	0.033
Mof_H 	H 	0.4283	0.3555	0.7228	0.07
Mof_H 	H 	0.4771	0.3539	0.7657	0.073
Mof_H 	H 	0.5403	0.363	0.8067	0.033
Mof_H 	H 	0.5499	0.5764	0.7953	0.012
Mof_H 	H 	0.5313	0.5441	0.6934	-0.02
Mof_H 	H 	0.6829	0.683	0.6676	-0.031
Mof_H 	H 	0.6585	0.755	0.7053	0.099
Mof_H 	H 	0.6483	0.8037	0.7457	0.088
Mof_H 	H 	0.6342	0.8496	0.7898	0.028
Mof_H 	H 	0.4758	0.7044	0.802	-0.001
Mof_H 	H 	0.8806	0.446	0.7011	-0.018
Mof_H 	H 	0.7446	0.294	0.6733	-0.041
Mof_H 	H 	0.767	0.228	0.7132	0.096
Mof_H 	H 	0.7794	0.1803	0.7538	0.094
Mof_H 	H 	0.8009	0.1344	0.7978	0.009
Mof_H 	H 	0.9403	0.2954	0.8104	-0.003
Mof_H 	H 	0.0573	0.9393	0.1133	0.243
Mof_H 	H 	0.0577	0.965	0.1395	0.289
Mof_H 	H 	0.2199	0.7868	0.1051	0.382
Mof_H 	H 	0.2098	0.7886	0.1331	0.345
Mof_H 	H 	0.4986	0.9374	0.9014	0.448
Mof_H 	H 	0.4913	0.9187	0.8742	0.427
Mof_H 	H 	0.7886	0.172	0.1269	0.433
Mof_H 	H 	0.8646	0.1658	0.1257	0.429
Mof_H 	H 	0.9464	0.0588	0.0909	0.275
Mof_H 	H 	0.8884	0.0611	0.1083	-0.25
Mof_H 	H 	0.4642	0.7265	0.945	-0.007
Mof_H 	H 	0.6303	0.8659	0.9428	-0.029
Mof_H 	H 	0.5925	0.91	0.985	0.113
Mof_H 	H 	0.5394	0.9559	0.0239	0.115
Mof_H 	H 	0.4731	0.9984	0.0605	-0.047
Mof_H 	H 	0.3323	0.8355	0.0497	-0.019
Mof_H 	H 	0.6348	0.14	0.0398	-0.001
Mof_H 	H 	0.8497	0.1344	0.0497	0.013
Mof_H 	H 	0.8621	0.2143	0.0132	0.085
Mof_H 	H 	0.8571	0.2932	0.9754	0.069
Mof_H 	H 	0.8412	0.361	0.9354	0.05
Mof_H 	H 	0.6269	0.338	0.945	0.016
Mof_H 	H 	0.9959	0.758	0.0525	0.006
Mof_H 	H 	0.1264	0.9258	0.037	0.028
Mof_H 	H 	0.0628	0.9469	0.997	0.088
Mof_H 	H 	0.9964	0.9597	0.9594	0.088
Mof_H 	H 	0.9141	0.9747	0.9246	-0.007
Mof_H 	H 	0.7932	0.8158	0.9567	-0.013
Mof_H 	H 	0.6472	0.9198	0.1959	0.008
Mof_H 	H 	0.6387	0.1323	0.1826	0.033
Mof_H 	H 	0.5717	0.1445	0.2228	0.07
Mof_H 	H 	0.5229	0.1461	0.2657	0.073
Mof_H 	H 	0.4597	0.137	0.3067	0.033
Mof_H 	H 	0.4501	0.9236	0.2953	0.012
Mof_H 	H 	0.4687	0.9559	0.1934	-0.02
Mof_H 	H 	0.3171	0.817	0.1676	-0.031
Mof_H 	H 	0.3415	0.745	0.2053	0.098
Mof_H 	H 	0.3517	0.6963	0.2457	0.088
Mof_H 	H 	0.3658	0.6504	0.2898	0.028
Mof_H 	H 	0.5242	0.7956	0.302	-0.001
Mof_H 	H 	0.1194	0.054	0.2011	-0.016
Mof_H 	H 	0.2554	0.206	0.1733	-0.041
Mof_H 	H 	0.233	0.272	0.2132	0.096
Mof_H 	H 	0.2206	0.3197	0.2538	0.094
Mof_H 	H 	0.1991	0.3656	0.2978	0.01
Mof_H 	H 	0.0597	0.2046	0.3104	-0.001
Mof_H 	H 	0.5573	0.0607	0.3867	0.244
Mof_H 	H 	0.5577	0.035	0.3605	0.291
Mof_H 	H 	0.7199	0.2132	0.3949	0.382
Mof_H 	H 	0.7098	0.2114	0.3669	0.345
Mof_H 	H 	0.9986	0.0626	0.5986	0.433
Mof_H 	H 	0.9913	0.0813	0.6258	0.412
Mof_H 	H 	0.2886	0.828	0.3731	0.434
Mof_H 	H 	0.3646	0.8342	0.3743	0.429
Mof_H 	H 	0.4464	0.9412	0.4091	0.276
Mof_H 	H 	0.3884	0.9389	0.3917	-0.25
Mof_H 	H 	0.9642	0.2735	0.555	-0.005
Mof_H 	H 	0.1303	0.1341	0.5572	-0.028
Mof_H 	H 	0.0925	0.09	0.515	0.114
Mof_H 	H 	0.0394	0.0441	0.4761	0.124
Mof_H 	H 	0.9731	0.0016	0.4395	-0.051
Mof_H 	H 	0.8323	0.1645	0.4503	-0.02
Mof_H 	H 	0.1348	0.86	0.4602	-0.002
Mof_H 	H 	0.3497	0.8656	0.4503	0.014
Mof_H 	H 	0.3621	0.7857	0.4868	0.086
Mof_H 	H 	0.3571	0.7068	0.5246	0.069
Mof_H 	H 	0.3412	0.639	0.5646	0.05
Mof_H 	H 	0.1269	0.662	0.555	0.015
Mof_H 	H 	0.4959	0.242	0.4475	-0.002
Mof_H 	H 	0.6264	0.0742	0.463	0.03
Mof_H 	H 	0.5628	0.0531	0.503	0.087
Mof_H 	H 	0.4964	0.0403	0.5406	0.087
Mof_H 	H 	0.4141	0.0253	0.5754	-0.01
Mof_H 	H 	0.2932	0.1842	0.5433	-0.014
Mof_H 	H 	0.1472	0.0802	0.3041	0.007
Mof_H 	H 	0.1387	0.8677	0.3174	0.032
Mof_H 	H 	0.0717	0.8555	0.2772	0.069
Mof_H 	H 	0.0229	0.8539	0.2343	0.075
Mof_H 	H 	0.9597	0.863	0.1933	0.03
Mof_H 	H 	0.9501	0.0764	0.2047	0.015
Mof_H 	H 	0.9687	0.0441	0.3066	-0.021
Mof_H 	H 	0.8171	0.183	0.3324	-0.03
Mof_H 	H 	0.8415	0.255	0.2947	0.098
Mof_H 	H 	0.8517	0.3037	0.2543	0.087
Mof_H 	H 	0.8658	0.3496	0.2102	0.029
Mof_H 	H 	0.0242	0.2044	0.198	0.001
Mof_H 	H 	0.6194	0.946	0.2989	-0.017
Mof_H 	H 	0.7554	0.794	0.3267	-0.041
Mof_H 	H 	0.733	0.728	0.2868	0.096
Mof_H 	H 	0.7206	0.6803	0.2462	0.094
Mof_H 	H 	0.6991	0.6344	0.2022	0.01
Mof_H 	H 	0.5597	0.7954	0.1896	-0.002
Mof_H 	H 	0.5573	0.5607	0.1133	0.244
Mof_H 	H 	0.5577	0.535	0.1395	0.291
Mof_H 	H 	0.7199	0.7132	0.1051	0.382
Mof_H 	H 	0.7098	0.7114	0.1331	0.345
Mof_H 	H 	0.9986	0.5626	0.9014	0.446
Mof_H 	H 	0.9913	0.5813	0.8742	0.426
Mof_H 	H 	0.2886	0.328	0.1269	0.434
Mof_H 	H 	0.3646	0.3342	0.1257	0.43
Mof_H 	H 	0.4464	0.4412	0.0909	0.276
Mof_H 	H 	0.3884	0.4389	0.1083	-0.252
Mof_H 	H 	0.9642	0.7735	0.945	-0.008
Mof_H 	H 	0.1303	0.6341	0.9428	-0.029
Mof_H 	H 	0.0925	0.59	0.985	0.112
Mof_H 	H 	0.0394	0.5441	0.0239	0.113
Mof_H 	H 	0.9731	0.5016	0.0605	-0.047
Mof_H 	H 	0.8323	0.6645	0.0497	-0.019
Mof_H 	H 	0.1348	0.36	0.0398	-0.001
Mof_H 	H 	0.3497	0.3656	0.0497	0.014
Mof_H 	H 	0.3621	0.2857	0.0132	0.086
Mof_H 	H 	0.3571	0.2068	0.9754	0.069
Mof_H 	H 	0.3412	0.139	0.9354	0.051
Mof_H 	H 	0.1269	0.162	0.945	0.017
Mof_H 	H 	0.4959	0.742	0.0525	-0.002
Mof_H 	H 	0.6264	0.5742	0.037	0.03
Mof_H 	H 	0.5628	0.5531	0.997	0.087
Mof_H 	H 	0.4964	0.5403	0.9594	0.087
Mof_H 	H 	0.4141	0.5253	0.9246	-0.01
Mof_H 	H 	0.2932	0.6842	0.9567	-0.014
Mof_H 	H 	0.1472	0.5802	0.1959	0.009
Mof_H 	H 	0.1387	0.3677	0.1826	0.033
Mof_H 	H 	0.0717	0.3555	0.2228	0.07
Mof_H 	H 	0.0229	0.3539	0.2657	0.074
Mof_H 	H 	0.9597	0.363	0.3067	0.031
Mof_H 	H 	0.9501	0.5764	0.2953	0.011
Mof_H 	H 	0.9687	0.5441	0.1934	-0.019
Mof_H 	H 	0.8171	0.683	0.1676	-0.031
Mof_H 	H 	0.8415	0.755	0.2053	0.099
Mof_H 	H 	0.8517	0.8037	0.2457	0.089
Mof_H 	H 	0.8658	0.8496	0.2898	0.027
Mof_H 	H 	0.0242	0.7044	0.302	-0.01
Mof_H 	H 	0.6194	0.446	0.2011	-0.017
Mof_H 	H 	0.7554	0.294	0.1733	-0.041
Mof_H 	H 	0.733	0.228	0.2132	0.096
Mof_H 	H 	0.7206	0.1803	0.2538	0.094
Mof_H 	H 	0.6991	0.1344	0.2978	0.009
Mof_H 	H 	0.5597	0.2954	0.3104	-0.002
Mof_H 	H 	0.0573	0.4393	0.3867	0.244
Mof_H 	H 	0.0577	0.465	0.3605	0.29
Mof_H 	H 	0.2199	0.2868	0.3949	0.382
Mof_H 	H 	0.2098	0.2886	0.3669	0.346
Mof_H 	H 	0.4986	0.4374	0.5986	0.448
Mof_H 	H 	0.4913	0.4187	0.6258	0.427
Mof_H 	H 	0.7886	0.672	0.3731	0.434
Mof_H 	H 	0.8646	0.6658	0.3743	0.43
Mof_H 	H 	0.9464	0.5588	0.4091	0.276
Mof_H 	H 	0.8884	0.5611	0.3917	-0.252
Mof_H 	H 	0.4642	0.2265	0.555	-0.007
Mof_H 	H 	0.6303	0.3659	0.5572	-0.029
Mof_H 	H 	0.5925	0.41	0.515	0.112
Mof_H 	H 	0.5394	0.4559	0.4761	0.114
Mof_H 	H 	0.4731	0.4984	0.4395	-0.048
Mof_H 	H 	0.3323	0.3355	0.4503	-0.02
Mof_H 	H 	0.6348	0.64	0.4602	-0.001
Mof_H 	H 	0.8497	0.6344	0.4503	0.014
Mof_H 	H 	0.8621	0.7143	0.4868	0.086
Mof_H 	H 	0.8571	0.7932	0.5246	0.07
Mof_H 	H 	0.8412	0.861	0.5646	0.052
Mof_H 	H 	0.6269	0.838	0.555	0.016
Mof_H 	H 	0.9959	0.258	0.4475	-0.007
Mof_H 	H 	0.1264	0.4258	0.463	0.03
Mof_H 	H 	0.0628	0.4469	0.503	0.086
Mof_H 	H 	0.9964	0.4597	0.5406	0.087
Mof_H 	H 	0.9141	0.4747	0.5754	-0.011
Mof_H 	H 	0.7932	0.3158	0.5433	-0.014
Mof_H 	H 	0.6472	0.4198	0.3041	0.009
Mof_H 	H 	0.6387	0.6323	0.3174	0.033
Mof_H 	H 	0.5717	0.6445	0.2772	0.07
Mof_H 	H 	0.5229	0.6461	0.2343	0.073
Mof_H 	H 	0.4597	0.637	0.1933	0.033
Mof_H 	H 	0.4501	0.4236	0.2047	0.012
Mof_H 	H 	0.4687	0.4559	0.3066	-0.02
Mof_H 	H 	0.3171	0.317	0.3324	-0.031
Mof_H 	H 	0.3415	0.245	0.2947	0.099
Mof_H 	H 	0.3517	0.1963	0.2543	0.088
Mof_H 	H 	0.3658	0.1504	0.2102	0.028
Mof_H 	H 	0.5242	0.2956	0.198	-0.001
Mof_H 	H 	0.1194	0.554	0.2989	-0.018
Mof_H 	H 	0.2554	0.706	0.3267	-0.041
Mof_H 	H 	0.233	0.772	0.2868	0.096
Mof_H 	H 	0.2206	0.8197	0.2462	0.094
Mof_H 	H 	0.1991	0.8656	0.2022	0.009
Mof_H 	H 	0.0597	0.7046	0.1896	-0.003
Mof_H 	H 	0.9427	0.0607	0.8867	0.243
Mof_H 	H 	0.9423	0.035	0.8605	0.289
Mof_H 	H 	0.7801	0.2132	0.8949	0.382
Mof_H 	H 	0.7902	0.2114	0.8669	0.345
Mof_H 	H 	0.5014	0.0626	0.0986	0.448
Mof_H 	H 	0.5087	0.0813	0.1258	0.427
Mof_H 	H 	0.2114	0.828	0.8731	0.433
Mof_H 	H 	0.1354	0.8342	0.8743	0.429
Mof_H 	H 	0.0536	0.9412	0.9091	0.275
Mof_H 	H 	0.1116	0.9389	0.8917	-0.25
Mof_H 	H 	0.5358	0.2735	0.055	-0.007
Mof_H 	H 	0.3697	0.1341	0.0572	-0.029
Mof_H 	H 	0.4075	0.09	0.015	0.113
Mof_H 	H 	0.4606	0.0441	0.9761	0.115
Mof_H 	H 	0.5269	0.0016	0.9395	-0.047
Mof_H 	H 	0.6677	0.1645	0.9503	-0.019
Mof_H 	H 	0.3652	0.86	0.9602	-0.001
Mof_H 	H 	0.1503	0.8656	0.9503	0.013
Mof_H 	H 	0.1379	0.7857	0.9868	0.085
Mof_H 	H 	0.1429	0.7068	0.0246	0.069
Mof_H 	H 	0.1588	0.639	0.0646	0.05
Mof_H 	H 	0.3731	0.662	0.055	0.016
Mof_H 	H 	0.0041	0.242	0.9475	0.006
Mof_H 	H 	0.8736	0.0742	0.963	0.028
Mof_H 	H 	0.9372	0.0531	0.003	0.088
Mof_H 	H 	0.0036	0.0403	0.0406	0.088
Mof_H 	H 	0.0859	0.0253	0.0754	-0.007
Mof_H 	H 	0.2068	0.1842	0.0433	-0.013
Mof_H 	H 	0.3528	0.0802	0.8041	0.008
Mof_H 	H 	0.3613	0.8677	0.8174	0.033
Mof_H 	H 	0.4283	0.8555	0.7772	0.07
Mof_H 	H 	0.4771	0.8539	0.7343	0.073
Mof_H 	H 	0.5403	0.863	0.6933	0.033
Mof_H 	H 	0.5499	0.0764	0.7047	0.012
Mof_H 	H 	0.5313	0.0441	0.8066	-0.02
Mof_H 	H 	0.6829	0.183	0.8324	-0.031
Mof_H 	H 	0.6585	0.255	0.7947	0.098
Mof_H 	H 	0.6483	0.3037	0.7543	0.088
Mof_H 	H 	0.6342	0.3496	0.7102	0.028
Mof_H 	H 	0.4758	0.2044	0.698	-0.001
Mof_H 	H 	0.8806	0.946	0.7989	-0.016
Mof_H 	H 	0.7446	0.794	0.8267	-0.041
Mof_H 	H 	0.767	0.728	0.7868	0.096
Mof_H 	H 	0.7794	0.6803	0.7462	0.094
Mof_H 	H 	0.8009	0.6344	0.7022	0.01
Mof_H 	H 	0.9403	0.7954	0.6896	-0.001
Mof_H 	H 	0.4427	0.9393	0.6133	0.244
Mof_H 	H 	0.4423	0.965	0.6395	0.291
Mof_H 	H 	0.2801	0.7868	0.6051	0.382
Mof_H 	H 	0.2902	0.7886	0.6331	0.345
Mof_H 	H 	0.0014	0.9374	0.4014	0.433
Mof_H 	H 	0.0087	0.9187	0.3742	0.412
Mof_H 	H 	0.7114	0.172	0.6269	0.434
Mof_H 	H 	0.6354	0.1658	0.6257	0.429
Mof_H 	H 	0.5536	0.0588	0.5909	0.276
Mof_H 	H 	0.6116	0.0611	0.6083	-0.25
Mof_H 	H 	0.0358	0.7265	0.445	-0.005
Mof_H 	H 	0.8697	0.8659	0.4428	-0.028
Mof_H 	H 	0.9075	0.91	0.485	0.114
Mof_H 	H 	0.9606	0.9559	0.5239	0.124
Mof_H 	H 	0.0269	0.9984	0.5605	-0.051
Mof_H 	H 	0.1677	0.8355	0.5497	-0.02
Mof_H 	H 	0.8652	0.14	0.5398	-0.002
Mof_H 	H 	0.6503	0.1344	0.5497	0.014
Mof_H 	H 	0.6379	0.2143	0.5132	0.086
Mof_H 	H 	0.6429	0.2932	0.4754	0.069
Mof_H 	H 	0.6588	0.361	0.4354	0.05
Mof_H 	H 	0.8731	0.338	0.445	0.015
Mof_H 	H 	0.5041	0.758	0.5525	-0.002
Mof_H 	H 	0.3736	0.9258	0.537	0.03
Mof_H 	H 	0.4372	0.9469	0.497	0.087
Mof_H 	H 	0.5036	0.9597	0.4594	0.087
Mof_H 	H 	0.5859	0.9747	0.4246	-0.01
Mof_H 	H 	0.7068	0.8158	0.4567	-0.014
Mof_H 	H 	0.8528	0.9198	0.6959	0.007
Mof_H 	H 	0.8613	0.1323	0.6826	0.032
Mof_H 	H 	0.9283	0.1445	0.7228	0.069
Mof_H 	H 	0.9771	0.1461	0.7657	0.075
Mof_H 	H 	0.0403	0.137	0.8067	0.03
Mof_H 	H 	0.0499	0.9236	0.7953	0.015
Mof_H 	H 	0.0313	0.9559	0.6934	-0.021
Mof_H 	H 	0.1829	0.817	0.6676	-0.03
Mof_H 	H 	0.1585	0.745	0.7053	0.098
Mof_H 	H 	0.1483	0.6963	0.7457	0.087
Mof_H 	H 	0.1342	0.6504	0.7898	0.029
Mof_H 	H 	0.9758	0.7956	0.802	0.001
Mof_H 	H 	0.3806	0.054	0.7011	-0.017
Mof_H 	H 	0.2446	0.206	0.6733	-0.041
Mof_H 	H 	0.267	0.272	0.7132	0.096
Mof_H 	H 	0.2794	0.3197	0.7538	0.094
Mof_H 	H 	0.3009	0.3656	0.7978	0.01
Mof_H 	H 	0.4403	0.2046	0.8104	-0.002
Mof_C 	C 	0.9267	0.2561	0.08739	0.517
Mof_C 	C 	0.0097	0.2635	0.04686	0.123
Mof_C 	C 	0.9502	0.2909	0.06038	-0.217
Mof_C 	C 	0.9101	0.3468	0.04859	0.121
Mof_C 	C 	0.933	0.3729	0.0233	-0.158
Mof_C 	C 	0.994	0.3437	0.01054	0.048
Mof_C 	C 	0.0262	0.3712	0.98528	0.082
Mof_C 	C 	0.0029	0.4324	0.97094	-0.189
Mof_C 	C 	0.0426	0.4581	0.9491	0.185
Mof_C 	C 	0.1059	0.423	0.94169	-0.268
Mof_C 	C 	0.1259	0.3598	0.95551	0.172
Mof_C 	C 	0.1542	0.4507	0.91894	0.711
Mof_C 	C 	0.7737	0.573	0.9288	0.481
Mof_C 	C 	0.8191	0.655	0.96532	0.109
Mof_C 	C 	0.7589	0.6264	0.95192	-0.153
Mof_C 	C 	0.6911	0.6505	0.95949	0.1
Mof_C 	C 	0.6835	0.6994	0.98115	-0.136
Mof_C 	C 	0.7458	0.7251	0.99387	0.074
Mof_C 	C 	0.7477	0.7743	0.01792	0.046
Mof_C 	C 	0.6892	0.8016	0.03127	-0.085
Mof_C 	C 	0.6986	0.8428	0.05528	0.031
Mof_C 	C 	0.7684	0.8554	0.06452	-0.074
Mof_C 	C 	0.8262	0.8283	0.04924	0.071
Mof_C 	C 	0.7845	0.8998	0.08995	0.321
Mof_C 	C 	0.3922	0.3288	0.92348	0.494
Mof_C 	C 	0.4914	0.2973	0.95826	0.094
Mof_C 	C 	0.4339	0.341	0.95015	-0.167
Mof_C 	C 	0.4131	0.3969	0.96747	0.082
Mof_C 	C 	0.4513	0.4099	0.99143	-0.132
Mof_C 	C 	0.5101	0.3674	0.99767	0.049
Mof_C 	C 	0.5572	0.3797	0.02122	0.065
Mof_C 	C 	0.545	0.4312	0.04121	-0.163
Mof_C 	C 	0.5945	0.4403	0.06203	0.149
Mof_C 	C 	0.6571	0.3982	0.06314	-0.233
Mof_C 	C 	0.6659	0.3452	0.0428	0.151
Mof_C 	C 	0.714	0.4139	0.08501	0.663
Mof_C 	C 	0.7964	0.5159	0.8385	0.345
Mof_C 	C 	0.8685	0.4654	0.79882	0.08
Mof_C 	C 	0.8471	0.5248	0.81445	-0.098
Mof_C 	C 	0.8718	0.592	0.80685	0.035
Mof_C 	C 	0.9132	0.5991	0.78293	-0.101
Mof_C 	C 	0.9315	0.5378	0.768	0.052
Mof_C 	C 	0.975	0.539	0.7423	0.062
Mof_C 	C 	0.9917	0.6012	0.72783	-0.109
Mof_C 	C 	0.0304	0.5959	0.70352	0.046
Mof_C 	C 	0.0537	0.5288	0.69481	-0.093
Mof_C 	C 	0.0346	0.4688	0.71048	0.088
Mof_C 	C 	0.0958	0.5159	0.66859	0.345
Mof_C 	C 	0.1357	0.4499	0.84434	0.705
Mof_C 	C 	0.058	0.414	0.80393	0.16
Mof_C 	C 	0.1124	0.3964	0.82289	-0.265
Mof_C 	C 	0.1489	0.3317	0.81967	0.174
Mof_C 	C 	0.1344	0.2886	0.79701	-0.18
Mof_C 	C 	0.0833	0.3115	0.77784	0.08
Mof_C 	C 	0.0721	0.2744	0.75091	0.049
Mof_C 	C 	0.1146	0.2166	0.74252	-0.129
Mof_C 	C 	0.1061	0.189	0.71609	0.088
Mof_C 	C 	0.055	0.2203	0.69873	-0.183
Mof_C 	C 	0.0117	0.2762	0.70907	0.11
Mof_C 	C 	0.0431	0.1933	0.6696	0.535
Mof_C 	C 	0.2877	0.5729	0.84039	0.712
Mof_C 	C 	0.3562	0.5973	0.79628	0.164
Mof_C 	C 	0.3067	0.6197	0.81638	-0.266
Mof_C 	C 	0.2746	0.6874	0.81331	0.17
Mof_C 	C 	0.2886	0.7272	0.78936	-0.179
Mof_C 	C 	0.3351	0.699	0.76964	0.077
Mof_C 	C 	0.3484	0.7347	0.74264	0.053
Mof_C 	C 	0.3116	0.7968	0.73458	-0.143
Mof_C 	C 	0.3245	0.8243	0.70813	0.1
Mof_C 	C 	0.3723	0.7889	0.69153	-0.189
Mof_C 	C 	0.4079	0.728	0.7011	0.098
Mof_C 	C 	0.3903	0.815	0.66243	0.504
Mof_C 	C 	0.4267	0.7439	0.41261	0.516
Mof_C 	C 	0.5097	0.7365	0.45314	0.119
Mof_C 	C 	0.4502	0.7091	0.43962	-0.214
Mof_C 	C 	0.4101	0.6532	0.45141	0.121
Mof_C 	C 	0.433	0.6271	0.4767	-0.159
Mof_C 	C 	0.494	0.6563	0.48946	0.053
Mof_C 	C 	0.5262	0.6288	0.51472	0.08
Mof_C 	C 	0.5029	0.5676	0.52906	-0.191
Mof_C 	C 	0.5426	0.5419	0.5509	0.186
Mof_C 	C 	0.6059	0.577	0.55831	-0.269
Mof_C 	C 	0.6259	0.6402	0.54449	0.172
Mof_C 	C 	0.6542	0.5493	0.58106	0.711
Mof_C 	C 	0.2737	0.427	0.5712	0.481
Mof_C 	C 	0.3191	0.345	0.53468	0.109
Mof_C 	C 	0.2589	0.3736	0.54808	-0.153
Mof_C 	C 	0.1911	0.3495	0.54051	0.1
Mof_C 	C 	0.1835	0.3006	0.51885	-0.136
Mof_C 	C 	0.2458	0.2749	0.50613	0.074
Mof_C 	C 	0.2477	0.2257	0.48208	0.046
Mof_C 	C 	0.1892	0.1984	0.46873	-0.085
Mof_C 	C 	0.1986	0.1572	0.44472	0.031
Mof_C 	C 	0.2684	0.1446	0.43548	-0.075
Mof_C 	C 	0.3262	0.1717	0.45076	0.072
Mof_C 	C 	0.2845	0.1002	0.41005	0.321
Mof_C 	C 	0.8922	0.6712	0.57652	0.495
Mof_C 	C 	0.9914	0.7027	0.54174	0.102
Mof_C 	C 	0.9339	0.659	0.54985	-0.169
Mof_C 	C 	0.9131	0.6031	0.53253	0.082
Mof_C 	C 	0.9513	0.5901	0.50857	-0.13
Mof_C 	C 	0.0101	0.6326	0.50233	0.047
Mof_C 	C 	0.0572	0.6203	0.47878	0.065
Mof_C 	C 	0.045	0.5688	0.45879	-0.163
Mof_C 	C 	0.0945	0.5597	0.43797	0.149
Mof_C 	C 	0.1571	0.6018	0.43686	-0.234
Mof_C 	C 	0.1659	0.6548	0.4572	0.151
Mof_C 	C 	0.214	0.5861	0.41499	0.663
Mof_C 	C 	0.2964	0.4841	0.6615	0.346
Mof_C 	C 	0.3685	0.5346	0.70118	0.081
Mof_C 	C 	0.3471	0.4752	0.68555	-0.098
Mof_C 	C 	0.3718	0.408	0.69315	0.035
Mof_C 	C 	0.4132	0.4009	0.71707	-0.102
Mof_C 	C 	0.4315	0.4622	0.732	0.053
Mof_C 	C 	0.475	0.461	0.7577	0.061
Mof_C 	C 	0.4917	0.3988	0.77217	-0.104
Mof_C 	C 	0.5304	0.4041	0.79648	0.041
Mof_C 	C 	0.5537	0.4712	0.80519	-0.09
Mof_C 	C 	0.5346	0.5312	0.78952	0.083
Mof_C 	C 	0.5958	0.4841	0.83141	0.343
Mof_C 	C 	0.6357	0.5501	0.65566	0.705
Mof_C 	C 	0.558	0.586	0.69607	0.16
Mof_C 	C 	0.6124	0.6036	0.67711	-0.265
Mof_C 	C 	0.6489	0.6683	0.68033	0.174
Mof_C 	C 	0.6344	0.7114	0.70299	-0.181
Mof_C 	C 	0.5833	0.6885	0.72216	0.08
Mof_C 	C 	0.5721	0.7256	0.74909	0.046
Mof_C 	C 	0.6146	0.7834	0.75748	-0.126
Mof_C 	C 	0.6061	0.811	0.78391	0.083
Mof_C 	C 	0.555	0.7797	0.80127	-0.176
Mof_C 	C 	0.5117	0.7238	0.79093	0.095
Mof_C 	C 	0.5431	0.8067	0.8304	0.523
Mof_C 	C 	0.7877	0.4271	0.65961	0.712
Mof_C 	C 	0.8562	0.4027	0.70372	0.164
Mof_C 	C 	0.8067	0.3803	0.68362	-0.266
Mof_C 	C 	0.7746	0.3126	0.68669	0.17
Mof_C 	C 	0.7886	0.2728	0.71064	-0.179
Mof_C 	C 	0.8351	0.301	0.73036	0.077
Mof_C 	C 	0.8484	0.2653	0.75736	0.052
Mof_C 	C 	0.8116	0.2032	0.76542	-0.143
Mof_C 	C 	0.8245	0.1757	0.79187	0.1
Mof_C 	C 	0.8723	0.2111	0.80847	-0.19
Mof_C 	C 	0.9079	0.272	0.7989	0.098
Mof_C 	C 	0.8903	0.185	0.83757	0.503
Mof_C 	C 	0.5733	0.7561	0.91261	0.516
Mof_C 	C 	0.4903	0.7635	0.95314	0.12
Mof_C 	C 	0.5498	0.7909	0.93962	-0.214
Mof_C 	C 	0.5899	0.8468	0.95141	0.121
Mof_C 	C 	0.567	0.8729	0.9767	-0.16
Mof_C 	C 	0.506	0.8437	0.98946	0.053
Mof_C 	C 	0.4738	0.8712	0.01472	0.08
Mof_C 	C 	0.4971	0.9324	0.02906	-0.191
Mof_C 	C 	0.4574	0.9581	0.0509	0.185
Mof_C 	C 	0.3941	0.923	0.05831	-0.268
Mof_C 	C 	0.3741	0.8598	0.04449	0.171
Mof_C 	C 	0.3458	0.9507	0.08106	0.708
Mof_C 	C 	0.7263	0.073	0.0712	0.48
Mof_C 	C 	0.6809	0.155	0.03468	0.109
Mof_C 	C 	0.7411	0.1264	0.04808	-0.153
Mof_C 	C 	0.8089	0.1505	0.04051	0.099
Mof_C 	C 	0.8165	0.1994	0.01885	-0.136
Mof_C 	C 	0.7542	0.2251	0.00613	0.074
Mof_C 	C 	0.7523	0.2743	0.98208	0.046
Mof_C 	C 	0.8108	0.3016	0.96873	-0.086
Mof_C 	C 	0.8014	0.3428	0.94472	0.031
Mof_C 	C 	0.7316	0.3554	0.93548	-0.076
Mof_C 	C 	0.6738	0.3283	0.95076	0.072
Mof_C 	C 	0.7155	0.3998	0.91005	0.321
Mof_C 	C 	0.1078	0.8288	0.07652	0.492
Mof_C 	C 	0.0086	0.7973	0.04174	0.079
Mof_C 	C 	0.0661	0.841	0.04985	-0.164
Mof_C 	C 	0.0869	0.8969	0.03253	0.083
Mof_C 	C 	0.0487	0.9099	0.00857	-0.142
Mof_C 	C 	0.9899	0.8674	0.00233	0.057
Mof_C 	C 	0.9428	0.8797	0.97878	0.063
Mof_C 	C 	0.955	0.9312	0.95879	-0.16
Mof_C 	C 	0.9055	0.9403	0.93797	0.148
Mof_C 	C 	0.8429	0.8982	0.93686	-0.232
Mof_C 	C 	0.8341	0.8452	0.9572	0.15
Mof_C 	C 	0.786	0.9139	0.91499	0.661
Mof_C 	C 	0.7036	0.0159	0.1615	0.342
Mof_C 	C 	0.6315	0.9654	0.20118	0.084
Mof_C 	C 	0.6529	0.0248	0.18555	-0.1
Mof_C 	C 	0.6282	0.092	0.19315	0.036
Mof_C 	C 	0.5868	0.0991	0.21707	-0.102
Mof_C 	C 	0.5685	0.0378	0.232	0.052
Mof_C 	C 	0.525	0.039	0.2577	0.061
Mof_C 	C 	0.5083	0.1012	0.27217	-0.104
Mof_C 	C 	0.4696	0.0959	0.29648	0.041
Mof_C 	C 	0.4463	0.0288	0.30519	-0.09
Mof_C 	C 	0.4654	0.9688	0.28952	0.082
Mof_C 	C 	0.4042	0.0159	0.33141	0.345
Mof_C 	C 	0.3643	0.9499	0.15566	0.701
Mof_C 	C 	0.442	0.914	0.19607	0.159
Mof_C 	C 	0.3876	0.8964	0.17711	-0.264
Mof_C 	C 	0.3511	0.8317	0.18033	0.173
Mof_C 	C 	0.3656	0.7886	0.20299	-0.18
Mof_C 	C 	0.4167	0.8115	0.22216	0.08
Mof_C 	C 	0.4279	0.7744	0.24909	0.046
Mof_C 	C 	0.3854	0.7166	0.25748	-0.126
Mof_C 	C 	0.3939	0.689	0.28391	0.083
Mof_C 	C 	0.445	0.7203	0.30127	-0.176
Mof_C 	C 	0.4883	0.7762	0.29093	0.095
Mof_C 	C 	0.4569	0.6933	0.3304	0.523
Mof_C 	C 	0.2123	0.0729	0.15961	0.711
Mof_C 	C 	0.1438	0.0973	0.20372	0.164
Mof_C 	C 	0.1933	0.1197	0.18362	-0.265
Mof_C 	C 	0.2254	0.1874	0.18669	0.169
Mof_C 	C 	0.2114	0.2272	0.21064	-0.178
Mof_C 	C 	0.1649	0.199	0.23036	0.077
Mof_C 	C 	0.1516	0.2347	0.25736	0.053
Mof_C 	C 	0.1884	0.2968	0.26542	-0.143
Mof_C 	C 	0.1755	0.3243	0.29187	0.1
Mof_C 	C 	0.1277	0.2889	0.30847	-0.189
Mof_C 	C 	0.0921	0.228	0.2989	0.098
Mof_C 	C 	0.1097	0.315	0.33757	0.504
Mof_C 	C 	0.0733	0.2439	0.58739	0.515
Mof_C 	C 	0.9903	0.2365	0.54686	0.11
Mof_C 	C 	0.0498	0.2091	0.56038	-0.207
Mof_C 	C 	0.0899	0.1532	0.54859	0.12
Mof_C 	C 	0.067	0.1271	0.5233	-0.16
Mof_C 	C 	0.006	0.1563	0.51054	0.06
Mof_C 	C 	0.9738	0.1288	0.48528	0.079
Mof_C 	C 	0.9971	0.0676	0.47094	-0.205
Mof_C 	C 	0.9574	0.0419	0.4491	0.192
Mof_C 	C 	0.8941	0.077	0.44169	-0.27
Mof_C 	C 	0.8741	0.1402	0.45551	0.173
Mof_C 	C 	0.8458	0.0493	0.41894	0.705
Mof_C 	C 	0.2263	0.927	0.4288	0.48
Mof_C 	C 	0.1809	0.845	0.46532	0.109
Mof_C 	C 	0.2411	0.8736	0.45192	-0.153
Mof_C 	C 	0.3089	0.8495	0.45949	0.099
Mof_C 	C 	0.3165	0.8006	0.48115	-0.136
Mof_C 	C 	0.2542	0.7749	0.49387	0.074
Mof_C 	C 	0.2523	0.7257	0.51792	0.046
Mof_C 	C 	0.3108	0.6984	0.53127	-0.086
Mof_C 	C 	0.3014	0.6572	0.55528	0.031
Mof_C 	C 	0.2316	0.6446	0.56452	-0.075
Mof_C 	C 	0.1738	0.6717	0.54924	0.072
Mof_C 	C 	0.2155	0.6002	0.58995	0.321
Mof_C 	C 	0.6078	0.1712	0.42348	0.494
Mof_C 	C 	0.5086	0.2027	0.45826	0.094
Mof_C 	C 	0.5661	0.159	0.45015	-0.167
Mof_C 	C 	0.5869	0.1031	0.46747	0.082
Mof_C 	C 	0.5487	0.0901	0.49143	-0.132
Mof_C 	C 	0.4899	0.1326	0.49767	0.049
Mof_C 	C 	0.4428	0.1203	0.52122	0.065
Mof_C 	C 	0.455	0.0688	0.54121	-0.162
Mof_C 	C 	0.4055	0.0597	0.56203	0.149
Mof_C 	C 	0.3429	0.1018	0.56314	-0.233
Mof_C 	C 	0.3341	0.1548	0.5428	0.151
Mof_C 	C 	0.286	0.0861	0.58501	0.662
Mof_C 	C 	0.2036	0.9841	0.3385	0.342
Mof_C 	C 	0.1315	0.0346	0.29882	0.089
Mof_C 	C 	0.1529	0.9752	0.31445	-0.104
Mof_C 	C 	0.1282	0.908	0.30685	0.036
Mof_C 	C 	0.0868	0.9009	0.28293	-0.102
Mof_C 	C 	0.0685	0.9622	0.268	0.047
Mof_C 	C 	0.025	0.961	0.2423	0.058
Mof_C 	C 	0.0083	0.8988	0.22783	-0.118
Mof_C 	C 	0.9696	0.9041	0.20352	0.054
Mof_C 	C 	0.9463	0.9712	0.19481	-0.085
Mof_C 	C 	0.9654	0.0312	0.21048	0.071
Mof_C 	C 	0.9042	0.9841	0.16859	0.35
Mof_C 	C 	0.8643	0.0501	0.34434	0.695
Mof_C 	C 	0.942	0.086	0.30393	0.158
Mof_C 	C 	0.8876	0.1036	0.32289	-0.263
Mof_C 	C 	0.8511	0.1683	0.31967	0.172
Mof_C 	C 	0.8656	0.2114	0.29701	-0.18
Mof_C 	C 	0.9167	0.1885	0.27784	0.079
Mof_C 	C 	0.9279	0.2256	0.25091	0.046
Mof_C 	C 	0.8854	0.2834	0.24252	-0.126
Mof_C 	C 	0.8939	0.311	0.21609	0.082
Mof_C 	C 	0.945	0.2797	0.19873	-0.175
Mof_C 	C 	0.9883	0.2238	0.20907	0.092
Mof_C 	C 	0.9569	0.3067	0.1696	0.522
Mof_C 	C 	0.7123	0.9271	0.34039	0.711
Mof_C 	C 	0.6438	0.9027	0.29628	0.164
Mof_C 	C 	0.6933	0.8803	0.31638	-0.265
Mof_C 	C 	0.7254	0.8126	0.31331	0.17
Mof_C 	C 	0.7114	0.7728	0.28936	-0.178
Mof_C 	C 	0.6649	0.801	0.26964	0.077
Mof_C 	C 	0.6516	0.7653	0.24264	0.053
Mof_C 	C 	0.6884	0.7032	0.23458	-0.143
Mof_C 	C 	0.6755	0.6757	0.20813	0.1
Mof_C 	C 	0.6277	0.7111	0.19153	-0.189
Mof_C 	C 	0.5921	0.772	0.2011	0.098
Mof_C 	C 	0.6097	0.685	0.16243	0.504
Mof_C 	C 	0.0733	0.7439	0.91261	0.517
Mof_C 	C 	0.9903	0.7365	0.95314	0.123
Mof_C 	C 	0.0498	0.7091	0.93962	-0.217
Mof_C 	C 	0.0899	0.6532	0.95141	0.121
Mof_C 	C 	0.067	0.6271	0.9767	-0.158
Mof_C 	C 	0.006	0.6563	0.98946	0.048
Mof_C 	C 	0.9738	0.6288	0.01472	0.082
Mof_C 	C 	0.9971	0.5676	0.02906	-0.189
Mof_C 	C 	0.9574	0.5419	0.0509	0.185
Mof_C 	C 	0.8941	0.577	0.05831	-0.268
Mof_C 	C 	0.8741	0.6402	0.04449	0.172
Mof_C 	C 	0.8458	0.5493	0.08106	0.711
Mof_C 	C 	0.2263	0.427	0.0712	0.481
Mof_C 	C 	0.1809	0.345	0.03468	0.109
Mof_C 	C 	0.2411	0.3736	0.04808	-0.153
Mof_C 	C 	0.3089	0.3495	0.04051	0.1
Mof_C 	C 	0.3165	0.3006	0.01885	-0.136
Mof_C 	C 	0.2542	0.2749	0.00613	0.074
Mof_C 	C 	0.2523	0.2257	0.98208	0.046
Mof_C 	C 	0.3108	0.1984	0.96873	-0.085
Mof_C 	C 	0.3014	0.1572	0.94472	0.031
Mof_C 	C 	0.2316	0.1446	0.93548	-0.074
Mof_C 	C 	0.1738	0.1717	0.95076	0.071
Mof_C 	C 	0.2155	0.1002	0.91005	0.321
Mof_C 	C 	0.6078	0.6712	0.07652	0.494
Mof_C 	C 	0.5086	0.7027	0.04174	0.094
Mof_C 	C 	0.5661	0.659	0.04985	-0.167
Mof_C 	C 	0.5869	0.6031	0.03253	0.082
Mof_C 	C 	0.5487	0.5901	0.00857	-0.132
Mof_C 	C 	0.4899	0.6326	0.00233	0.049
Mof_C 	C 	0.4428	0.6203	0.97878	0.065
Mof_C 	C 	0.455	0.5688	0.95879	-0.163
Mof_C 	C 	0.4055	0.5597	0.93797	0.149
Mof_C 	C 	0.3429	0.6018	0.93686	-0.233
Mof_C 	C 	0.3341	0.6548	0.9572	0.151
Mof_C 	C 	0.286	0.5861	0.91499	0.663
Mof_C 	C 	0.2036	0.4841	0.1615	0.345
Mof_C 	C 	0.1315	0.5346	0.20118	0.08
Mof_C 	C 	0.1529	0.4752	0.18555	-0.098
Mof_C 	C 	0.1282	0.408	0.19315	0.035
Mof_C 	C 	0.0868	0.4009	0.21707	-0.101
Mof_C 	C 	0.0685	0.4622	0.232	0.052
Mof_C 	C 	0.025	0.461	0.2577	0.062
Mof_C 	C 	0.0083	0.3988	0.27217	-0.109
Mof_C 	C 	0.9696	0.4041	0.29648	0.046
Mof_C 	C 	0.9463	0.4712	0.30519	-0.093
Mof_C 	C 	0.9654	0.5312	0.28952	0.088
Mof_C 	C 	0.9042	0.4841	0.33141	0.345
Mof_C 	C 	0.8643	0.5501	0.15566	0.705
Mof_C 	C 	0.942	0.586	0.19607	0.16
Mof_C 	C 	0.8876	0.6036	0.17711	-0.265
Mof_C 	C 	0.8511	0.6683	0.18033	0.174
Mof_C 	C 	0.8656	0.7114	0.20299	-0.18
Mof_C 	C 	0.9167	0.6885	0.22216	0.08
Mof_C 	C 	0.9279	0.7256	0.24909	0.049
Mof_C 	C 	0.8854	0.7834	0.25748	-0.129
Mof_C 	C 	0.8939	0.811	0.28391	0.088
Mof_C 	C 	0.945	0.7797	0.30127	-0.183
Mof_C 	C 	0.9883	0.7238	0.29093	0.11
Mof_C 	C 	0.9569	0.8067	0.3304	0.535
Mof_C 	C 	0.7123	0.4271	0.15961	0.712
Mof_C 	C 	0.6438	0.4027	0.20372	0.164
Mof_C 	C 	0.6933	0.3803	0.18362	-0.266
Mof_C 	C 	0.7254	0.3126	0.18669	0.17
Mof_C 	C 	0.7114	0.2728	0.21064	-0.179
Mof_C 	C 	0.6649	0.301	0.23036	0.077
Mof_C 	C 	0.6516	0.2653	0.25736	0.053
Mof_C 	C 	0.6884	0.2032	0.26542	-0.143
Mof_C 	C 	0.6755	0.1757	0.29187	0.1
Mof_C 	C 	0.6277	0.2111	0.30847	-0.189
Mof_C 	C 	0.5921	0.272	0.2989	0.098
Mof_C 	C 	0.6097	0.185	0.33757	0.504
Mof_C 	C 	0.5733	0.2561	0.58739	0.516
Mof_C 	C 	0.4903	0.2635	0.54686	0.119
Mof_C 	C 	0.5498	0.2909	0.56038	-0.214
Mof_C 	C 	0.5899	0.3468	0.54859	0.121
Mof_C 	C 	0.567	0.3729	0.5233	-0.159
Mof_C 	C 	0.506	0.3437	0.51054	0.053
Mof_C 	C 	0.4738	0.3712	0.48528	0.08
Mof_C 	C 	0.4971	0.4324	0.47094	-0.191
Mof_C 	C 	0.4574	0.4581	0.4491	0.186
Mof_C 	C 	0.3941	0.423	0.44169	-0.269
Mof_C 	C 	0.3741	0.3598	0.45551	0.172
Mof_C 	C 	0.3458	0.4507	0.41894	0.711
Mof_C 	C 	0.7263	0.573	0.4288	0.481
Mof_C 	C 	0.6809	0.655	0.46532	0.109
Mof_C 	C 	0.7411	0.6264	0.45192	-0.153
Mof_C 	C 	0.8089	0.6505	0.45949	0.1
Mof_C 	C 	0.8165	0.6994	0.48115	-0.136
Mof_C 	C 	0.7542	0.7251	0.49387	0.074
Mof_C 	C 	0.7523	0.7743	0.51792	0.046
Mof_C 	C 	0.8108	0.8016	0.53127	-0.085
Mof_C 	C 	0.8014	0.8428	0.55528	0.031
Mof_C 	C 	0.7316	0.8554	0.56452	-0.075
Mof_C 	C 	0.6738	0.8283	0.54924	0.072
Mof_C 	C 	0.7155	0.8998	0.58995	0.321
Mof_C 	C 	0.1078	0.3288	0.42348	0.495
Mof_C 	C 	0.0086	0.2973	0.45826	0.102
Mof_C 	C 	0.0661	0.341	0.45015	-0.169
Mof_C 	C 	0.0869	0.3969	0.46747	0.082
Mof_C 	C 	0.0487	0.4099	0.49143	-0.13
Mof_C 	C 	0.9899	0.3674	0.49767	0.047
Mof_C 	C 	0.9428	0.3797	0.52122	0.065
Mof_C 	C 	0.955	0.4312	0.54121	-0.163
Mof_C 	C 	0.9055	0.4403	0.56203	0.149
Mof_C 	C 	0.8429	0.3982	0.56314	-0.234
Mof_C 	C 	0.8341	0.3452	0.5428	0.151
Mof_C 	C 	0.786	0.4139	0.58501	0.663
Mof_C 	C 	0.7036	0.5159	0.3385	0.346
Mof_C 	C 	0.6315	0.4654	0.29882	0.081
Mof_C 	C 	0.6529	0.5248	0.31445	-0.098
Mof_C 	C 	0.6282	0.592	0.30685	0.035
Mof_C 	C 	0.5868	0.5991	0.28293	-0.102
Mof_C 	C 	0.5685	0.5378	0.268	0.053
Mof_C 	C 	0.525	0.539	0.2423	0.061
Mof_C 	C 	0.5083	0.6012	0.22783	-0.104
Mof_C 	C 	0.4696	0.5959	0.20352	0.041
Mof_C 	C 	0.4463	0.5288	0.19481	-0.09
Mof_C 	C 	0.4654	0.4688	0.21048	0.083
Mof_C 	C 	0.4042	0.5159	0.16859	0.343
Mof_C 	C 	0.3643	0.4499	0.34434	0.705
Mof_C 	C 	0.442	0.414	0.30393	0.16
Mof_C 	C 	0.3876	0.3964	0.32289	-0.265
Mof_C 	C 	0.3511	0.3317	0.31967	0.174
Mof_C 	C 	0.3656	0.2886	0.29701	-0.181
Mof_C 	C 	0.4167	0.3115	0.27784	0.08
Mof_C 	C 	0.4279	0.2744	0.25091	0.046
Mof_C 	C 	0.3854	0.2166	0.24252	-0.126
Mof_C 	C 	0.3939	0.189	0.21609	0.083
Mof_C 	C 	0.445	0.2203	0.19873	-0.176
Mof_C 	C 	0.4883	0.2762	0.20907	0.095
Mof_C 	C 	0.4569	0.1933	0.1696	0.523
Mof_C 	C 	0.2123	0.5729	0.34039	0.712
Mof_C 	C 	0.1438	0.5973	0.29628	0.164
Mof_C 	C 	0.1933	0.6197	0.31638	-0.266
Mof_C 	C 	0.2254	0.6874	0.31331	0.17
Mof_C 	C 	0.2114	0.7272	0.28936	-0.179
Mof_C 	C 	0.1649	0.699	0.26964	0.077
Mof_C 	C 	0.1516	0.7347	0.24264	0.052
Mof_C 	C 	0.1884	0.7968	0.23458	-0.143
Mof_C 	C 	0.1755	0.8243	0.20813	0.1
Mof_C 	C 	0.1277	0.7889	0.19153	-0.19
Mof_C 	C 	0.0921	0.728	0.2011	0.098
Mof_C 	C 	0.1097	0.815	0.16243	0.503
Mof_C 	C 	0.4267	0.2439	0.08739	0.516
Mof_C 	C 	0.5097	0.2365	0.04686	0.12
Mof_C 	C 	0.4502	0.2091	0.06038	-0.214
Mof_C 	C 	0.4101	0.1532	0.04859	0.121
Mof_C 	C 	0.433	0.1271	0.0233	-0.16
Mof_C 	C 	0.494	0.1563	0.01054	0.053
Mof_C 	C 	0.5262	0.1288	0.98528	0.08
Mof_C 	C 	0.5029	0.0676	0.97094	-0.191
Mof_C 	C 	0.5426	0.0419	0.9491	0.185
Mof_C 	C 	0.6059	0.077	0.94169	-0.268
Mof_C 	C 	0.6259	0.1402	0.95551	0.171
Mof_C 	C 	0.6542	0.0493	0.91894	0.708
Mof_C 	C 	0.2737	0.927	0.9288	0.48
Mof_C 	C 	0.3191	0.845	0.96532	0.109
Mof_C 	C 	0.2589	0.8736	0.95192	-0.153
Mof_C 	C 	0.1911	0.8495	0.95949	0.099
Mof_C 	C 	0.1835	0.8006	0.98115	-0.136
Mof_C 	C 	0.2458	0.7749	0.99387	0.074
Mof_C 	C 	0.2477	0.7257	0.01792	0.046
Mof_C 	C 	0.1892	0.6984	0.03127	-0.086
Mof_C 	C 	0.1986	0.6572	0.05528	0.031
Mof_C 	C 	0.2684	0.6446	0.06452	-0.076
Mof_C 	C 	0.3262	0.6717	0.04924	0.072
Mof_C 	C 	0.2845	0.6002	0.08995	0.321
Mof_C 	C 	0.8922	0.1712	0.92348	0.492
Mof_C 	C 	0.9914	0.2027	0.95826	0.079
Mof_C 	C 	0.9339	0.159	0.95015	-0.164
Mof_C 	C 	0.9131	0.1031	0.96747	0.083
Mof_C 	C 	0.9513	0.0901	0.99143	-0.142
Mof_C 	C 	0.0101	0.1326	0.99767	0.057
Mof_C 	C 	0.0572	0.1203	0.02122	0.063
Mof_C 	C 	0.045	0.0688	0.04121	-0.16
Mof_C 	C 	0.0945	0.0597	0.06203	0.148
Mof_C 	C 	0.1571	0.1018	0.06314	-0.232
Mof_C 	C 	0.1659	0.1548	0.0428	0.15
Mof_C 	C 	0.214	0.0861	0.08501	0.661
Mof_C 	C 	0.2964	0.9841	0.8385	0.342
Mof_C 	C 	0.3685	0.0346	0.79882	0.084
Mof_C 	C 	0.3471	0.9752	0.81445	-0.1
Mof_C 	C 	0.3718	0.908	0.80685	0.036
Mof_C 	C 	0.4132	0.9009	0.78293	-0.102
Mof_C 	C 	0.4315	0.9622	0.768	0.052
Mof_C 	C 	0.475	0.961	0.7423	0.061
Mof_C 	C 	0.4917	0.8988	0.72783	-0.104
Mof_C 	C 	0.5304	0.9041	0.70352	0.041
Mof_C 	C 	0.5537	0.9712	0.69481	-0.09
Mof_C 	C 	0.5346	0.0312	0.71048	0.082
Mof_C 	C 	0.5958	0.9841	0.66859	0.345
Mof_C 	C 	0.6357	0.0501	0.84434	0.701
Mof_C 	C 	0.558	0.086	0.80393	0.159
Mof_C 	C 	0.6124	0.1036	0.82289	-0.264
Mof_C 	C 	0.6489	0.1683	0.81967	0.173
Mof_C 	C 	0.6344	0.2114	0.79701	-0.18
Mof_C 	C 	0.5833	0.1885	0.77784	0.08
Mof_C 	C 	0.5721	0.2256	0.75091	0.046
Mof_C 	C 	0.6146	0.2834	0.74252	-0.126
Mof_C 	C 	0.6061	0.311	0.71609	0.083
Mof_C 	C 	0.555	0.2797	0.69873	-0.176
Mof_C 	C 	0.5117	0.2238	0.70907	0.095
Mof_C 	C 	0.5431	0.3067	0.6696	0.523
Mof_C 	C 	0.7877	0.9271	0.84039	0.711
Mof_C 	C 	0.8562	0.9027	0.79628	0.164
Mof_C 	C 	0.8067	0.8803	0.81638	-0.265
Mof_C 	C 	0.7746	0.8126	0.81331	0.169
Mof_C 	C 	0.7886	0.7728	0.78936	-0.178
Mof_C 	C 	0.8351	0.801	0.76964	0.077
Mof_C 	C 	0.8484	0.7653	0.74264	0.053
Mof_C 	C 	0.8116	0.7032	0.73458	-0.143
Mof_C 	C 	0.8245	0.6757	0.70813	0.1
Mof_C 	C 	0.8723	0.7111	0.69153	-0.189
Mof_C 	C 	0.9079	0.772	0.7011	0.098
Mof_C 	C 	0.8903	0.685	0.66243	0.504
Mof_C 	C 	0.9267	0.7561	0.41261	0.515
Mof_C 	C 	0.0097	0.7635	0.45314	0.11
Mof_C 	C 	0.9502	0.7909	0.43962	-0.207
Mof_C 	C 	0.9101	0.8468	0.45141	0.12
Mof_C 	C 	0.933	0.8729	0.4767	-0.16
Mof_C 	C 	0.994	0.8437	0.48946	0.06
Mof_C 	C 	0.0262	0.8712	0.51472	0.079
Mof_C 	C 	0.0029	0.9324	0.52906	-0.205
Mof_C 	C 	0.0426	0.9581	0.5509	0.192
Mof_C 	C 	0.1059	0.923	0.55831	-0.27
Mof_C 	C 	0.1259	0.8598	0.54449	0.173
Mof_C 	C 	0.1542	0.9507	0.58106	0.705
Mof_C 	C 	0.7737	0.073	0.5712	0.48
Mof_C 	C 	0.8191	0.155	0.53468	0.109
Mof_C 	C 	0.7589	0.1264	0.54808	-0.153
Mof_C 	C 	0.6911	0.1505	0.54051	0.099
Mof_C 	C 	0.6835	0.1994	0.51885	-0.136
Mof_C 	C 	0.7458	0.2251	0.50613	0.074
Mof_C 	C 	0.7477	0.2743	0.48208	0.046
Mof_C 	C 	0.6892	0.3016	0.46873	-0.086
Mof_C 	C 	0.6986	0.3428	0.44472	0.031
Mof_C 	C 	0.7684	0.3554	0.43548	-0.075
Mof_C 	C 	0.8262	0.3283	0.45076	0.072
Mof_C 	C 	0.7845	0.3998	0.41005	0.321
Mof_C 	C 	0.3922	0.8288	0.57652	0.494
Mof_C 	C 	0.4914	0.7973	0.54174	0.094
Mof_C 	C 	0.4339	0.841	0.54985	-0.167
Mof_C 	C 	0.4131	0.8969	0.53253	0.082
Mof_C 	C 	0.4513	0.9099	0.50857	-0.132
Mof_C 	C 	0.5101	0.8674	0.50233	0.049
Mof_C 	C 	0.5572	0.8797	0.47878	0.065
Mof_C 	C 	0.545	0.9312	0.45879	-0.162
Mof_C 	C 	0.5945	0.9403	0.43797	0.149
Mof_C 	C 	0.6571	0.8982	0.43686	-0.233
Mof_C 	C 	0.6659	0.8452	0.4572	0.151
Mof_C 	C 	0.714	0.9139	0.41499	0.662
Mof_C 	C 	0.7964	0.0159	0.6615	0.342
Mof_C 	C 	0.8685	0.9654	0.70118	0.089
Mof_C 	C 	0.8471	0.0248	0.68555	-0.104
Mof_C 	C 	0.8718	0.092	0.69315	0.036
Mof_C 	C 	0.9132	0.0991	0.71707	-0.102
Mof_C 	C 	0.9315	0.0378	0.732	0.047
Mof_C 	C 	0.975	0.039	0.7577	0.058
Mof_C 	C 	0.9917	0.1012	0.77217	-0.118
Mof_C 	C 	0.0304	0.0959	0.79648	0.054
Mof_C 	C 	0.0537	0.0288	0.80519	-0.085
Mof_C 	C 	0.0346	0.9688	0.78952	0.071
Mof_C 	C 	0.0958	0.0159	0.83141	0.35
Mof_C 	C 	0.1357	0.9499	0.65566	0.695
Mof_C 	C 	0.058	0.914	0.69607	0.158
Mof_C 	C 	0.1124	0.8964	0.67711	-0.263
Mof_C 	C 	0.1489	0.8317	0.68033	0.172
Mof_C 	C 	0.1344	0.7886	0.70299	-0.18
Mof_C 	C 	0.0833	0.8115	0.72216	0.079
Mof_C 	C 	0.0721	0.7744	0.74909	0.046
Mof_C 	C 	0.1146	0.7166	0.75748	-0.126
Mof_C 	C 	0.1061	0.689	0.78391	0.082
Mof_C 	C 	0.055	0.7203	0.80127	-0.175
Mof_C 	C 	0.0117	0.7762	0.79093	0.092
Mof_C 	C 	0.0431	0.6933	0.8304	0.522
Mof_C 	C 	0.2877	0.0729	0.65961	0.711
Mof_C 	C 	0.3562	0.0973	0.70372	0.164
Mof_C 	C 	0.3067	0.1197	0.68362	-0.265
Mof_C 	C 	0.2746	0.1874	0.68669	0.17
Mof_C 	C 	0.2886	0.2272	0.71064	-0.178
Mof_C 	C 	0.3351	0.199	0.73036	0.077
Mof_C 	C 	0.3484	0.2347	0.75736	0.053
Mof_C 	C 	0.3116	0.2968	0.76542	-0.143
Mof_C 	C 	0.3245	0.3243	0.79187	0.1
Mof_C 	C 	0.3723	0.2889	0.80847	-0.189
Mof_C 	C 	0.4079	0.228	0.7989	0.098
Mof_C 	C 	0.3903	0.315	0.83757	0.504
Mof_N 	N 	0.0322	0.2878	0.02213	-0.255
Mof_N 	N 	0.0859	0.3335	0.97631	-0.269
Mof_N 	N 	0.8122	0.7036	0.98539	-0.262
Mof_N 	N 	0.817	0.7889	0.02644	-0.246
Mof_N 	N 	0.5299	0.3102	0.98156	-0.254
Mof_N 	N 	0.6177	0.3354	0.0227	-0.258
Mof_N 	N 	0.9103	0.4707	0.77663	-0.234
Mof_N 	N 	0.9958	0.4727	0.73321	-0.241
Mof_N 	N 	0.043	0.3723	0.78179	-0.249
Mof_N 	N 	0.02	0.3034	0.73451	-0.235
Mof_N 	N 	0.37	0.6353	0.77343	-0.25
Mof_N 	N 	0.3976	0.7009	0.72652	-0.242
Mof_N 	N 	0.5322	0.7122	0.47787	-0.256
Mof_N 	N 	0.5859	0.6665	0.52369	-0.269
Mof_N 	N 	0.3122	0.2964	0.51461	-0.262
Mof_N 	N 	0.317	0.2111	0.47356	-0.246
Mof_N 	N 	0.0299	0.6898	0.51844	-0.255
Mof_N 	N 	0.1177	0.6646	0.4773	-0.258
Mof_N 	N 	0.4103	0.5293	0.72337	-0.234
Mof_N 	N 	0.4958	0.5273	0.76679	-0.238
Mof_N 	N 	0.543	0.6277	0.71821	-0.251
Mof_N 	N 	0.52	0.6966	0.76549	-0.234
Mof_N 	N 	0.87	0.3647	0.72657	-0.25
Mof_N 	N 	0.8976	0.2991	0.77348	-0.243
Mof_N 	N 	0.4678	0.7878	0.97787	-0.256
Mof_N 	N 	0.4141	0.8335	0.02369	-0.269
Mof_N 	N 	0.6878	0.2036	0.01461	-0.262
Mof_N 	N 	0.683	0.2889	0.97356	-0.247
Mof_N 	N 	0.9701	0.8102	0.01844	-0.25
Mof_N 	N 	0.8823	0.8354	0.9773	-0.258
Mof_N 	N 	0.5897	0.9707	0.22337	-0.233
Mof_N 	N 	0.5042	0.9727	0.26679	-0.238
Mof_N 	N 	0.457	0.8723	0.21821	-0.251
Mof_N 	N 	0.48	0.8034	0.26549	-0.234
Mof_N 	N 	0.13	0.1353	0.22657	-0.25
Mof_N 	N 	0.1024	0.2009	0.27348	-0.242
Mof_N 	N 	0.9678	0.2122	0.52213	-0.257
Mof_N 	N 	0.9141	0.1665	0.47631	-0.269
Mof_N 	N 	0.1878	0.7964	0.48539	-0.262
Mof_N 	N 	0.183	0.7111	0.52644	-0.247
Mof_N 	N 	0.4701	0.1898	0.48156	-0.254
Mof_N 	N 	0.3823	0.1646	0.5227	-0.258
Mof_N 	N 	0.0897	0.0293	0.27663	-0.231
Mof_N 	N 	0.0042	0.0273	0.23321	-0.232
Mof_N 	N 	0.957	0.1277	0.28179	-0.251
Mof_N 	N 	0.98	0.1966	0.23451	-0.234
Mof_N 	N 	0.63	0.8647	0.27343	-0.25
Mof_N 	N 	0.6024	0.7991	0.22652	-0.242
Mof_N 	N 	0.9678	0.7122	0.97787	-0.255
Mof_N 	N 	0.9141	0.6665	0.02369	-0.269
Mof_N 	N 	0.1878	0.2964	0.01461	-0.262
Mof_N 	N 	0.183	0.2111	0.97356	-0.246
Mof_N 	N 	0.4701	0.6898	0.01844	-0.254
Mof_N 	N 	0.3823	0.6646	0.9773	-0.258
Mof_N 	N 	0.0897	0.5293	0.22337	-0.234
Mof_N 	N 	0.0042	0.5273	0.26679	-0.241
Mof_N 	N 	0.957	0.6277	0.21821	-0.249
Mof_N 	N 	0.98	0.6966	0.26549	-0.235
Mof_N 	N 	0.63	0.3647	0.22657	-0.25
Mof_N 	N 	0.6024	0.2991	0.27348	-0.242
Mof_N 	N 	0.4678	0.2878	0.52213	-0.256
Mof_N 	N 	0.4141	0.3335	0.47631	-0.269
Mof_N 	N 	0.6878	0.7036	0.48539	-0.262
Mof_N 	N 	0.683	0.7889	0.52644	-0.246
Mof_N 	N 	0.9701	0.3102	0.48156	-0.255
Mof_N 	N 	0.8823	0.3354	0.5227	-0.258
Mof_N 	N 	0.5897	0.4707	0.27663	-0.234
Mof_N 	N 	0.5042	0.4727	0.23321	-0.238
Mof_N 	N 	0.457	0.3723	0.28179	-0.251
Mof_N 	N 	0.48	0.3034	0.23451	-0.234
Mof_N 	N 	0.13	0.6353	0.27343	-0.25
Mof_N 	N 	0.1024	0.7009	0.22652	-0.243
Mof_N 	N 	0.5322	0.2122	0.02213	-0.256
Mof_N 	N 	0.5859	0.1665	0.97631	-0.269
Mof_N 	N 	0.3122	0.7964	0.98539	-0.262
Mof_N 	N 	0.317	0.7111	0.02644	-0.247
Mof_N 	N 	0.0299	0.1898	0.98156	-0.25
Mof_N 	N 	0.1177	0.1646	0.0227	-0.258
Mof_N 	N 	0.4103	0.0293	0.77663	-0.233
Mof_N 	N 	0.4958	0.0273	0.73321	-0.238
Mof_N 	N 	0.543	0.1277	0.78179	-0.251
Mof_N 	N 	0.52	0.1966	0.73451	-0.234
Mof_N 	N 	0.87	0.8647	0.77343	-0.25
Mof_N 	N 	0.8976	0.7991	0.72652	-0.242
Mof_N 	N 	0.0322	0.7878	0.47787	-0.257
Mof_N 	N 	0.0859	0.8335	0.52369	-0.269
Mof_N 	N 	0.8122	0.2036	0.51461	-0.262
Mof_N 	N 	0.817	0.2889	0.47356	-0.247
Mof_N 	N 	0.5299	0.8102	0.51844	-0.254
Mof_N 	N 	0.6177	0.8354	0.4773	-0.258
Mof_N 	N 	0.9103	0.9707	0.72337	-0.231
Mof_N 	N 	0.9958	0.9727	0.76679	-0.232
Mof_N 	N 	0.043	0.8723	0.71821	-0.251
Mof_N 	N 	0.02	0.8034	0.76549	-0.234
Mof_N 	N 	0.37	0.1353	0.72657	-0.25
Mof_N 	N 	0.3976	0.2009	0.77348	-0.242
Mof_O 	O 	0.8863	0.293	0.10306	-0.761
Mof_O 	O 	0.9474	0.1926	0.09148	-0.327
Mof_O 	O 	0.1341	0.5091	0.90805	-0.879
Mof_O 	O 	0.2094	0.4141	0.9131	-0.725
Mof_O 	O 	0.8374	0.5518	0.92555	-0.322
Mof_O 	O 	0.7164	0.554	0.91656	-0.699
Mof_O 	O 	0.8484	0.9209	0.09384	-0.565
Mof_O 	O 	0.7335	0.9163	0.10599	-0.495
Mof_O 	O 	0.3861	0.2664	0.91422	-0.347
Mof_O 	O 	0.3651	0.3856	0.91343	-0.757
Mof_O 	O 	0.7666	0.3716	0.0884	-0.639
Mof_O 	O 	0.7018	0.4704	0.09841	-0.862
Mof_O 	O 	0.7953	0.5604	0.85756	-0.595
Mof_O 	O 	0.753	0.4633	0.83812	-0.557
Mof_O 	O 	0.1038	0.5655	0.65141	-0.531
Mof_O 	O 	0.1231	0.4543	0.66508	-0.57
Mof_O 	O 	0.0982	0.5047	0.84887	-0.771
Mof_O 	O 	0.195	0.4337	0.85631	-0.902
Mof_O 	O 	0.9843	0.2075	0.65877	-0.347
Mof_O 	O 	0.0946	0.1591	0.65937	-0.749
Mof_O 	O 	0.2336	0.5946	0.85408	-0.915
Mof_O 	O 	0.3229	0.5162	0.84439	-0.711
Mof_O 	O 	0.3604	0.8718	0.6547	-0.782
Mof_O 	O 	0.4317	0.7762	0.64847	-0.329
Mof_O 	O 	0.4374	0.4774	0.87706	-0.712
Mof_O 	O 	0.2625	0.3028	0.87981	-1.018
Mof_O 	O 	0.9859	0.4084	0.11117	-1.206
Mof_O 	O 	0.6768	0.6423	0.87198	-1.087
Mof_O 	O 	0.5679	0.5471	0.89337	-0.455
Mof_O 	O 	0.3863	0.707	0.39694	-0.761
Mof_O 	O 	0.4474	0.8074	0.40852	-0.325
Mof_O 	O 	0.6341	0.4909	0.59195	-0.879
Mof_O 	O 	0.7094	0.5859	0.5869	-0.725
Mof_O 	O 	0.3374	0.4482	0.57445	-0.322
Mof_O 	O 	0.2164	0.446	0.58344	-0.699
Mof_O 	O 	0.3484	0.0791	0.40616	-0.568
Mof_O 	O 	0.2335	0.0837	0.39401	-0.495
Mof_O 	O 	0.8861	0.7336	0.58578	-0.346
Mof_O 	O 	0.8651	0.6144	0.58657	-0.757
Mof_O 	O 	0.2666	0.6284	0.4116	-0.639
Mof_O 	O 	0.2018	0.5296	0.40159	-0.862
Mof_O 	O 	0.2953	0.4396	0.64244	-0.595
Mof_O 	O 	0.253	0.5367	0.66188	-0.557
Mof_O 	O 	0.6038	0.4345	0.84859	-0.531
Mof_O 	O 	0.6231	0.5457	0.83492	-0.57
Mof_O 	O 	0.5982	0.4953	0.65113	-0.772
Mof_O 	O 	0.695	0.5663	0.64369	-0.902
Mof_O 	O 	0.4843	0.7925	0.84123	-0.338
Mof_O 	O 	0.5946	0.8409	0.84063	-0.748
Mof_O 	O 	0.7336	0.4054	0.64592	-0.915
Mof_O 	O 	0.8229	0.4838	0.65561	-0.712
Mof_O 	O 	0.8604	0.1282	0.8453	-0.783
Mof_O 	O 	0.9317	0.2238	0.85153	-0.331
Mof_O 	O 	0.9374	0.5226	0.62294	-0.712
Mof_O 	O 	0.7625	0.6972	0.62019	-1.018
Mof_O 	O 	0.4859	0.5916	0.38883	-1.209
Mof_O 	O 	0.1768	0.3577	0.62802	-1.087
Mof_O 	O 	0.0679	0.4529	0.60663	-0.454
Mof_O 	O 	0.6137	0.793	0.89694	-0.761
Mof_O 	O 	0.5526	0.6926	0.90852	-0.325
Mof_O 	O 	0.3659	0.0091	0.09195	-0.877
Mof_O 	O 	0.2906	0.9141	0.0869	-0.723
Mof_O 	O 	0.6626	0.0518	0.07445	-0.323
Mof_O 	O 	0.7836	0.054	0.08344	-0.699
Mof_O 	O 	0.6516	0.4209	0.90616	-0.569
Mof_O 	O 	0.7665	0.4163	0.89401	-0.498
Mof_O 	O 	0.1139	0.7664	0.08578	-0.347
Mof_O 	O 	0.1349	0.8856	0.08657	-0.756
Mof_O 	O 	0.7334	0.8716	0.9116	-0.638
Mof_O 	O 	0.7982	0.9704	0.90159	-0.857
Mof_O 	O 	0.7047	0.0604	0.14244	-0.593
Mof_O 	O 	0.747	0.9633	0.16188	-0.552
Mof_O 	O 	0.3962	0.0655	0.34859	-0.53
Mof_O 	O 	0.3769	0.9543	0.33492	-0.57
Mof_O 	O 	0.4018	0.0047	0.15113	-0.77
Mof_O 	O 	0.305	0.9337	0.14369	-0.9
Mof_O 	O 	0.5157	0.7075	0.34123	-0.338
Mof_O 	O 	0.4054	0.6591	0.34063	-0.748
Mof_O 	O 	0.2664	0.0946	0.14592	-0.914
Mof_O 	O 	0.1771	0.0162	0.15561	-0.707
Mof_O 	O 	0.1396	0.3718	0.3453	-0.783
Mof_O 	O 	0.0683	0.2762	0.35153	-0.329
Mof_O 	O 	0.0626	0.9774	0.12294	-0.714
Mof_O 	O 	0.2375	0.8028	0.12019	-1.017
Mof_O 	O 	0.5141	0.9084	0.88883	-1.209
Mof_O 	O 	0.8232	0.1423	0.12802	-1.085
Mof_O 	O 	0.9321	0.0471	0.10663	-0.457
Mof_O 	O 	0.1137	0.207	0.60306	-0.76
Mof_O 	O 	0.0526	0.3074	0.59148	-0.323
Mof_O 	O 	0.8659	0.9909	0.40805	-0.873
Mof_O 	O 	0.7906	0.0859	0.4131	-0.723
Mof_O 	O 	0.1626	0.9482	0.42555	-0.324
Mof_O 	O 	0.2836	0.946	0.41656	-0.699
Mof_O 	O 	0.1516	0.5791	0.59384	-0.57
Mof_O 	O 	0.2665	0.5837	0.60599	-0.498
Mof_O 	O 	0.6139	0.2336	0.41422	-0.347
Mof_O 	O 	0.6349	0.1144	0.41343	-0.756
Mof_O 	O 	0.2334	0.1284	0.5884	-0.638
Mof_O 	O 	0.2982	0.0296	0.59841	-0.859
Mof_O 	O 	0.2047	0.9396	0.35756	-0.594
Mof_O 	O 	0.247	0.0367	0.33812	-0.552
Mof_O 	O 	0.8962	0.9345	0.15141	-0.529
Mof_O 	O 	0.8769	0.0457	0.16508	-0.573
Mof_O 	O 	0.9018	0.9953	0.34887	-0.763
Mof_O 	O 	0.805	0.0663	0.35631	-0.9
Mof_O 	O 	0.0157	0.2925	0.15877	-0.338
Mof_O 	O 	0.9054	0.3409	0.15937	-0.747
Mof_O 	O 	0.7664	0.9054	0.35408	-0.913
Mof_O 	O 	0.6771	0.9838	0.34439	-0.709
Mof_O 	O 	0.6396	0.6282	0.1547	-0.783
Mof_O 	O 	0.5683	0.7238	0.14847	-0.329
Mof_O 	O 	0.5626	0.0226	0.37706	-0.712
Mof_O 	O 	0.7375	0.1972	0.37981	-1.018
Mof_O 	O 	0.0141	0.0916	0.61117	-1.182
Mof_O 	O 	0.3232	0.8577	0.37198	-1.086
Mof_O 	O 	0.4321	0.9529	0.39337	-0.455
Mof_O 	O 	0.1137	0.707	0.89694	-0.761
Mof_O 	O 	0.0526	0.8074	0.90852	-0.327
Mof_O 	O 	0.8659	0.4909	0.09195	-0.879
Mof_O 	O 	0.7906	0.5859	0.0869	-0.725
Mof_O 	O 	0.1626	0.4482	0.07445	-0.322
Mof_O 	O 	0.2836	0.446	0.08344	-0.699
Mof_O 	O 	0.1516	0.0791	0.90616	-0.565
Mof_O 	O 	0.2665	0.0837	0.89401	-0.495
Mof_O 	O 	0.6139	0.7336	0.08578	-0.347
Mof_O 	O 	0.6349	0.6144	0.08657	-0.757
Mof_O 	O 	0.2334	0.6284	0.9116	-0.639
Mof_O 	O 	0.2982	0.5296	0.90159	-0.862
Mof_O 	O 	0.2047	0.4396	0.14244	-0.595
Mof_O 	O 	0.247	0.5367	0.16188	-0.557
Mof_O 	O 	0.8962	0.4345	0.34859	-0.531
Mof_O 	O 	0.8769	0.5457	0.33492	-0.57
Mof_O 	O 	0.9018	0.4953	0.15113	-0.771
Mof_O 	O 	0.805	0.5663	0.14369	-0.902
Mof_O 	O 	0.0157	0.7925	0.34123	-0.347
Mof_O 	O 	0.9054	0.8409	0.34063	-0.749
Mof_O 	O 	0.7664	0.4054	0.14592	-0.915
Mof_O 	O 	0.6771	0.4838	0.15561	-0.711
Mof_O 	O 	0.6396	0.1282	0.3453	-0.782
Mof_O 	O 	0.5683	0.2238	0.35153	-0.329
Mof_O 	O 	0.5626	0.5226	0.12294	-0.712
Mof_O 	O 	0.7375	0.6972	0.12019	-1.018
Mof_O 	O 	0.0141	0.5916	0.88883	-1.206
Mof_O 	O 	0.3232	0.3577	0.12802	-1.087
Mof_O 	O 	0.4321	0.4529	0.10663	-0.455
Mof_O 	O 	0.6137	0.293	0.60306	-0.761
Mof_O 	O 	0.5526	0.1926	0.59148	-0.325
Mof_O 	O 	0.3659	0.5091	0.40805	-0.879
Mof_O 	O 	0.2906	0.4141	0.4131	-0.725
Mof_O 	O 	0.6626	0.5518	0.42555	-0.322
Mof_O 	O 	0.7836	0.554	0.41656	-0.699
Mof_O 	O 	0.6516	0.9209	0.59384	-0.568
Mof_O 	O 	0.7665	0.9163	0.60599	-0.495
Mof_O 	O 	0.1139	0.2664	0.41422	-0.346
Mof_O 	O 	0.1349	0.3856	0.41343	-0.757
Mof_O 	O 	0.7334	0.3716	0.5884	-0.639
Mof_O 	O 	0.7982	0.4704	0.59841	-0.862
Mof_O 	O 	0.7047	0.5604	0.35756	-0.595
Mof_O 	O 	0.747	0.4633	0.33812	-0.557
Mof_O 	O 	0.3962	0.5655	0.15141	-0.531
Mof_O 	O 	0.3769	0.4543	0.16508	-0.57
Mof_O 	O 	0.4018	0.5047	0.34887	-0.772
Mof_O 	O 	0.305	0.4337	0.35631	-0.902
Mof_O 	O 	0.5157	0.2075	0.15877	-0.338
Mof_O 	O 	0.4054	0.1591	0.15937	-0.748
Mof_O 	O 	0.2664	0.5946	0.35408	-0.915
Mof_O 	O 	0.1771	0.5162	0.34439	-0.712
Mof_O 	O 	0.1396	0.8718	0.1547	-0.783
Mof_O 	O 	0.0683	0.7762	0.14847	-0.331
Mof_O 	O 	0.0626	0.4774	0.37706	-0.712
Mof_O 	O 	0.2375	0.3028	0.37981	-1.018
Mof_O 	O 	0.5141	0.4084	0.61117	-1.209
Mof_O 	O 	0.8232	0.6423	0.37198	-1.087
Mof_O 	O 	0.9321	0.5471	0.39337	-0.454
Mof_O 	O 	0.3863	0.207	0.10306	-0.761
Mof_O 	O 	0.4474	0.3074	0.09148	-0.325
Mof_O 	O 	0.6341	0.9909	0.90805	-0.877
Mof_O 	O 	0.7094	0.0859	0.9131	-0.723
Mof_O 	O 	0.3374	0.9482	0.92555	-0.323
Mof_O 	O 	0.2164	0.946	0.91656	-0.699
Mof_O 	O 	0.3484	0.5791	0.09384	-0.569
Mof_O 	O 	0.2335	0.5837	0.10599	-0.498
Mof_O 	O 	0.8861	0.2336	0.91422	-0.347
Mof_O 	O 	0.8651	0.1144	0.91343	-0.756
Mof_O 	O 	0.2666	0.1284	0.0884	-0.638
Mof_O 	O 	0.2018	0.0296	0.09841	-0.858
Mof_O 	O 	0.2953	0.9396	0.85756	-0.593
Mof_O 	O 	0.253	0.0367	0.83812	-0.552
Mof_O 	O 	0.6038	0.9345	0.65141	-0.53
Mof_O 	O 	0.6231	0.0457	0.66508	-0.57
Mof_O 	O 	0.5982	0.9953	0.84887	-0.77
Mof_O 	O 	0.695	0.0663	0.85631	-0.9
Mof_O 	O 	0.4843	0.2925	0.65877	-0.338
Mof_O 	O 	0.5946	0.3409	0.65937	-0.748
Mof_O 	O 	0.7336	0.9054	0.85408	-0.914
Mof_O 	O 	0.8229	0.9838	0.84439	-0.707
Mof_O 	O 	0.8604	0.6282	0.6547	-0.783
Mof_O 	O 	0.9317	0.7238	0.64847	-0.329
Mof_O 	O 	0.9374	0.0226	0.87706	-0.714
Mof_O 	O 	0.7625	0.1972	0.87981	-1.017
Mof_O 	O 	0.4859	0.0916	0.11117	-1.209
Mof_O 	O 	0.1768	0.8577	0.87198	-1.085
Mof_O 	O 	0.0679	0.9529	0.89337	-0.457
Mof_O 	O 	0.8863	0.793	0.39694	-0.76
Mof_O 	O 	0.9474	0.6926	0.40852	-0.323
Mof_O 	O 	0.1341	0.0091	0.59195	-0.873
Mof_O 	O 	0.2094	0.9141	0.5869	-0.723
Mof_O 	O 	0.8374	0.0518	0.57445	-0.324
Mof_O 	O 	0.7164	0.054	0.58344	-0.699
Mof_O 	O 	0.8484	0.4209	0.40616	-0.57
Mof_O 	O 	0.7335	0.4163	0.39401	-0.498
Mof_O 	O 	0.3861	0.7664	0.58578	-0.347
Mof_O 	O 	0.3651	0.8856	0.58657	-0.756
Mof_O 	O 	0.7666	0.8716	0.4116	-0.638
Mof_O 	O 	0.7018	0.9704	0.40159	-0.859
Mof_O 	O 	0.7953	0.0604	0.64244	-0.594
Mof_O 	O 	0.753	0.9633	0.66188	-0.552
Mof_O 	O 	0.1038	0.0655	0.84859	-0.529
Mof_O 	O 	0.1231	0.9543	0.83492	-0.573
Mof_O 	O 	0.0982	0.0047	0.65113	-0.763
Mof_O 	O 	0.195	0.9337	0.64369	-0.9
Mof_O 	O 	0.9843	0.7075	0.84123	-0.338
Mof_O 	O 	0.0946	0.6591	0.84063	-0.747
Mof_O 	O 	0.2336	0.0946	0.64592	-0.913
Mof_O 	O 	0.3229	0.0162	0.65561	-0.709
Mof_O 	O 	0.3604	0.3718	0.8453	-0.783
Mof_O 	O 	0.4317	0.2762	0.85153	-0.329
Mof_O 	O 	0.4374	0.9774	0.62294	-0.712
Mof_O 	O 	0.2625	0.8028	0.62019	-1.017
Mof_O 	O 	0.9859	0.9084	0.38883	-1.182
Mof_O 	O 	0.6768	0.1423	0.62802	-1.086
Mof_O 	O 	0.5679	0.0471	0.60663	-0.455
Mof_Cl	Cl	0.71003	0.50154	0.73687	-0.241
Mof_O 	O 	0.64261	0.46774	0.74259	-0.033
Mof_O 	O 	0.65469	0.52775	0.7491	-0.004
Mof_O 	O 	0.76213	0.48579	0.75606	-0.034
Mof_O 	O 	0.6955	0.48384	0.70759	-0.063
Mof_Cl	Cl	0.72578	0.99629	0.99188	-0.202
Mof_O 	O 	0.7792	0.9573	0.007	-0.038
Mof_O 	O 	0.7103	0.9562	0.96714	-0.061
Mof_O 	O 	0.7532	0.0662	0.98479	-0.047
Mof_O 	O 	0.6603	0.004	0.00737	-0.052
Mof_Cl	Cl	0.21003	0.49846	0.76313	-0.241
Mof_O 	O 	0.14261	0.53226	0.75741	-0.033
Mof_O 	O 	0.15469	0.47225	0.7509	-0.004
Mof_O 	O 	0.26213	0.51421	0.74394	-0.034
Mof_O 	O 	0.1955	0.51616	0.79241	-0.063
Mof_Cl	Cl	0.22578	0.00371	0.50812	-0.2
Mof_O 	O 	0.2792	0.0427	0.493	-0.039
Mof_O 	O 	0.2103	0.0438	0.53286	-0.061
Mof_O 	O 	0.2532	0.9338	0.51521	-0.047
Mof_O 	O 	0.1603	0.996	0.49263	-0.055
Mof_Cl	Cl	0.78997	0.00154	0.26313	-0.252
Mof_O 	O 	0.85739	0.96774	0.25741	-0.026
Mof_O 	O 	0.84531	0.02775	0.2509	-0.006
Mof_O 	O 	0.73787	0.98579	0.24394	-0.028
Mof_O 	O 	0.8045	0.98384	0.29241	-0.058
Mof_Cl	Cl	0.77422	0.49629	0.00812	-0.208
Mof_O 	O 	0.7208	0.4573	0.993	-0.039
Mof_O 	O 	0.7897	0.4562	0.03286	-0.061
Mof_O 	O 	0.7468	0.5662	0.01521	-0.044
Mof_O 	O 	0.8397	0.504	0.99263	-0.049
Mof_Cl	Cl	0.28997	0.99846	0.23687	-0.249
Mof_O 	O 	0.35739	0.03226	0.24259	-0.03
Mof_O 	O 	0.34531	0.97225	0.2491	-0.004
Mof_O 	O 	0.23787	0.01421	0.25606	-0.029
Mof_O 	O 	0.3045	0.01616	0.20759	-0.059
Mof_Cl	Cl	0.27422	0.50371	0.49188	-0.208
Mof_O 	O 	0.2208	0.5427	0.507	-0.039
Mof_O 	O 	0.2897	0.5438	0.46714	-0.061
Mof_O 	O 	0.2468	0.4338	0.48479	-0.044
Mof_O 	O 	0.3397	0.496	0.50737	-0.049
Mof_Cl	Cl	0.28997	0.49846	0.26313	-0.241
Mof_O 	O 	0.35739	0.53226	0.25741	-0.033
Mof_O 	O 	0.34531	0.47225	0.2509	-0.004
Mof_O 	O 	0.23787	0.51421	0.24394	-0.034
Mof_O 	O 	0.3045	0.51616	0.29241	-0.063
Mof_Cl	Cl	0.27422	0.00371	0.00812	-0.202
Mof_O 	O 	0.2208	0.0427	0.993	-0.038
Mof_O 	O 	0.2897	0.0438	0.03286	-0.061
Mof_O 	O 	0.2468	0.9338	0.01521	-0.047
Mof_O 	O 	0.3397	0.996	0.99263	-0.052
Mof_Cl	Cl	0.78997	0.50154	0.23687	-0.241
Mof_O 	O 	0.85739	0.46774	0.24259	-0.033
Mof_O 	O 	0.84531	0.52775	0.2491	-0.004
Mof_O 	O 	0.73787	0.48579	0.25606	-0.034
Mof_O 	O 	0.8045	0.48384	0.20759	-0.063
Mof_Cl	Cl	0.77422	0.99629	0.49188	-0.2
Mof_O 	O 	0.7208	0.9573	0.507	-0.039
Mof_O 	O 	0.7897	0.9562	0.46714	-0.061
Mof_O 	O 	0.7468	0.0662	0.48479	-0.047
Mof_O 	O 	0.8397	0.004	0.50737	-0.055
Mof_Cl	Cl	0.21003	0.99846	0.73687	-0.252
Mof_O 	O 	0.14261	0.03226	0.74259	-0.026
Mof_O 	O 	0.15469	0.97225	0.7491	-0.006
Mof_O 	O 	0.26213	0.01421	0.75606	-0.028
Mof_O 	O 	0.1955	0.01616	0.70759	-0.058
Mof_Cl	Cl	0.22578	0.50371	0.99188	-0.208
Mof_O 	O 	0.2792	0.5427	0.007	-0.039
Mof_O 	O 	0.2103	0.5438	0.96714	-0.061
Mof_O 	O 	0.2532	0.4338	0.98479	-0.044
Mof_O 	O 	0.1603	0.496	0.00737	-0.049
Mof_Cl	Cl	0.71003	0.00154	0.76313	-0.249
Mof_O 	O 	0.64261	0.96774	0.75741	-0.03
Mof_O 	O 	0.65469	0.02775	0.7509	-0.004
Mof_O 	O 	0.76213	0.98579	0.74394	-0.029
Mof_O 	O 	0.6955	0.98384	0.79241	-0.059
Mof_Cl	Cl	0.72578	0.49629	0.50812	-0.208
Mof_O 	O 	0.7792	0.4573	0.493	-0.039
Mof_O 	O 	0.7103	0.4562	0.53286	-0.061
Mof_O 	O 	0.7532	0.5662	0.51521	-0.044
Mof_O 	O 	0.6603	0.504	0.49263	-0.049
_end
