# CIF file generated by openbabel 3.1.0, see https://openbabel.org
data_I
_chemical_name_common 'image0'
_cell_length_a 32.313
_cell_length_b 8.1801
_cell_length_c 18.4522
_cell_angle_alpha 90
_cell_angle_beta 90
_cell_angle_gamma 90
_space_group_name_H-M_alt 'P 1'
_space_group_name_Hall 'P 1'
loop_
    _symmetry_equiv_pos_as_xyz
    x,y,z
loop_
    _atom_site_label
    _atom_site_type_symbol
    _atom_site_fract_x
    _atom_site_fract_y
    _atom_site_fract_z
    _atom_site_occupancy
    O1       O        0.08244    0.24110    0.97060    1.000
    O2       O        0.06580    0.14780    0.08050    1.000
    O3       O        0.48366    0.12760    0.07659    1.000
    C1       C        0.08425    0.13800    0.02010    1.000
    O4       O        0.46887    0.38270    0.11030    1.000
    O5       O        0.31099    0.51870    0.92181    1.000
    O6       O        0.31687    0.92110    0.92884    1.000
    C2       C        0.46055    0.25360    0.07820    1.000
    C3       C        0.40474    0.38100    0.00470    1.000
    H1       H        0.41780    0.48110    0.01120    1.000
    C4       C        0.40104    0.09120    0.02860    1.000
    H2       H        0.41220    0.99780    0.04980    1.000
    C5       C        0.42109    0.24180    0.03550    1.000
    C6       C        0.34883    0.22130    0.95660    1.000
    H3       H        0.32480    0.21340    0.92920    1.000
    C7       C        0.36443    0.08270    0.98970    1.000
    C8       C        0.36819    0.37150    0.96330    1.000
    C9       C        0.93723    0.40310    0.31380    1.000
    H4       H        0.91040    0.44010    0.30580    1.000
    O7       O        0.37299    0.62610    0.90369    1.000
    O8       O        0.34311    0.82160    0.03191    1.000
    C10      C        0.35024    0.51700    0.92730    1.000
    C11      C        0.33978    0.92720    0.98440    1.000
    H5       H        0.07100    0.20680    0.36900    1.000
    H6       H        0.18180    0.38230    0.13510    1.000
    Zn1      Zn       0.03958    0.34476    0.11639    1.000
    Zn2      Zn       0.28922    0.73028    0.89041    1.000
    N1       N        0.03816    0.31480    0.22480    1.000
    N2       N        0.21239    0.25380    0.28284    1.000
    C12      C        0.21065    0.85070    0.92510    1.000
    O9       O        0.23359    0.72720    0.93261    1.000
    O10      O        0.06769    0.54450    0.09024    1.000
    C13      C        0.17038    0.84750    0.96680    1.000
    O11      O        0.21894    0.97140    0.88715    1.000
    N3       N        0.05500    0.23370    0.33313    1.000
    C14      C        0.18348    0.32100    0.23980    1.000
    C15      C        0.09731    0.84270    0.04520    1.000
    H7       H        0.07280    0.84130    0.07160    1.000
    O12      O        0.13103    0.43730    0.09097    1.000
    C16      C        0.12101    0.70190    0.04010    1.000
    C17      C        0.11101    0.21970    0.24050    1.000
    H8       H        0.12060    0.11850    0.26210    1.000
    H9       H        0.11100    0.20590    0.18830    1.000
    C18      C        0.14041    0.35840    0.26100    1.000
    H10      H        0.13920    0.37640    0.31290    1.000
    H11      H        0.13160    0.45820    0.23710    1.000
    C19      C        0.10627    0.54740    0.07660    1.000
    C20      C        0.15811    0.70540    0.00260    1.000
    H12      H        0.17490    0.61300    0.00140    1.000
    C21      C        0.00403    0.33660    0.27100    1.000
    N4       N        0.19747    0.34840    0.17054    1.000
    C22      C        0.01501    0.28340    0.34010    1.000
    C23      C        0.23959    0.29870    0.17080    1.000
    C24      C        0.28634    0.17160    0.25710    1.000
    H13      H        0.29200    0.12680    0.30230    1.000
    C25      C        0.06765    0.25470    0.26600    1.000
    C26      C        0.14617    0.98670    0.97070    1.000
    H14      H        0.15420    0.08100    0.94620    1.000
    C27      C        0.10979    0.98570    0.01120    1.000
    C28      C        0.94840    0.35280    0.38220    1.000
    H15      H        0.92950    0.36380    0.41980    1.000
    C29      C        0.96497    0.40010    0.25670    1.000
    H16      H        0.95780    0.43860    0.21090    1.000
    C30      C        0.24797    0.23730    0.24020    1.000
    C31      C        0.26995    0.30230    0.11700    1.000
    H17      H        0.26450    0.34380    0.07110    1.000
    C32      C        0.31592    0.17670    0.20220    1.000
    H18      H        0.34210    0.13430    0.21110    1.000
    C33      C        0.98703    0.28630    0.39720    1.000
    H19      H        0.99370    0.24590    0.44280    1.000
    C34      C        0.30751    0.24280    0.13480    1.000
    H20      H        0.32860    0.24640    0.10050    1.000
    O13      O        0.91756    0.75890    0.47060    1.000
    O14      O        0.93420    0.85220    0.58050    1.000
    O15      O        0.51634    0.87240    0.57659    1.000
    C35      C        0.91575    0.86200    0.52010    1.000
    O16      O        0.53113    0.61730    0.61030    1.000
    O17      O        0.68901    0.48130    0.42181    1.000
    O18      O        0.68313    0.07890    0.42884    1.000
    C36      C        0.53945    0.74640    0.57820    1.000
    C37      C        0.59526    0.61900    0.50470    1.000
    H21      H        0.58220    0.51890    0.51120    1.000
    C38      C        0.59896    0.90880    0.52860    1.000
    H22      H        0.58780    0.00220    0.54980    1.000
    C39      C        0.57891    0.75820    0.53550    1.000
    C40      C        0.65117    0.77870    0.45660    1.000
    H23      H        0.67520    0.78660    0.42920    1.000
    C41      C        0.63557    0.91730    0.48970    1.000
    C42      C        0.63181    0.62850    0.46330    1.000
    C43      C        0.06277    0.59690    0.81380    1.000
    H24      H        0.08960    0.55990    0.80580    1.000
    O19      O        0.62701    0.37390    0.40369    1.000
    O20      O        0.65689    0.17840    0.53191    1.000
    C44      C        0.64976    0.48300    0.42730    1.000
    C45      C        0.66022    0.07280    0.48440    1.000
    H25      H        0.92900    0.79320    0.86900    1.000
    H26      H        0.81820    0.61770    0.63510    1.000
    Zn3      Zn       0.96042    0.65524    0.61639    1.000
    Zn4      Zn       0.71078    0.26972    0.39041    1.000
    N5       N        0.96184    0.68520    0.72480    1.000
    N6       N        0.78761    0.74620    0.78284    1.000
    C46      C        0.78935    0.14930    0.42510    1.000
    O21      O        0.76641    0.27280    0.43261    1.000
    O22      O        0.93231    0.45550    0.59024    1.000
    C47      C        0.82962    0.15250    0.46680    1.000
    O23      O        0.78106    0.02860    0.38715    1.000
    N7       N        0.94500    0.76630    0.83313    1.000
    C48      C        0.81652    0.67900    0.73980    1.000
    C49      C        0.90269    0.15730    0.54520    1.000
    H27      H        0.92720    0.15870    0.57160    1.000
    O24      O        0.86897    0.56270    0.59097    1.000
    C50      C        0.87899    0.29810    0.54010    1.000
    C51      C        0.88899    0.78030    0.74050    1.000
    H28      H        0.87940    0.88150    0.76210    1.000
    H29      H        0.88900    0.79410    0.68830    1.000
    C52      C        0.85959    0.64160    0.76100    1.000
    H30      H        0.86080    0.62360    0.81290    1.000
    H31      H        0.86840    0.54180    0.73710    1.000
    C53      C        0.89373    0.45260    0.57660    1.000
    C54      C        0.84189    0.29460    0.50260    1.000
    H32      H        0.82510    0.38700    0.50140    1.000
    C55      C        0.99597    0.66340    0.77100    1.000
    N8       N        0.80253    0.65160    0.67054    1.000
    C56      C        0.98499    0.71660    0.84010    1.000
    C57      C        0.76041    0.70130    0.67080    1.000
    C58      C        0.71366    0.82840    0.75710    1.000
    H33      H        0.70800    0.87320    0.80230    1.000
    C59      C        0.93235    0.74530    0.76600    1.000
    C60      C        0.85383    0.01330    0.47070    1.000
    H34      H        0.84580    0.91900    0.44620    1.000
    C61      C        0.89021    0.01430    0.51120    1.000
    C62      C        0.05160    0.64720    0.88220    1.000
    H35      H        0.07050    0.63620    0.91980    1.000
    C63      C        0.03503    0.59990    0.75670    1.000
    H36      H        0.04220    0.56140    0.71090    1.000
    C64      C        0.75203    0.76270    0.74020    1.000
    C65      C        0.73005    0.69770    0.61700    1.000
    H37      H        0.73550    0.65620    0.57110    1.000
    C66      C        0.68408    0.82330    0.70220    1.000
    H38      H        0.65790    0.86570    0.71110    1.000
    C67      C        0.01297    0.71370    0.89720    1.000
    H39      H        0.00630    0.75410    0.94280    1.000
    C68      C        0.69249    0.75720    0.63480    1.000
    H40      H        0.67140    0.75360    0.60050    1.000
    O25      O        0.58244    0.25890    0.97060    1.000
    O26      O        0.56580    0.35220    0.08050    1.000
    O27      O        0.98366    0.37240    0.07659    1.000
    C69      C        0.58425    0.36200    0.02010    1.000
    O28      O        0.96887    0.11730    0.11030    1.000
    O29      O        0.81099    0.98130    0.92181    1.000
    O30      O        0.81687    0.57890    0.92884    1.000
    C70      C        0.96055    0.24640    0.07820    1.000
    C71      C        0.90474    0.11900    0.00470    1.000
    H41      H        0.91780    0.01890    0.01120    1.000
    C72      C        0.90104    0.40880    0.02860    1.000
    H42      H        0.91220    0.50220    0.04980    1.000
    C73      C        0.92109    0.25820    0.03550    1.000
    C74      C        0.84883    0.27870    0.95660    1.000
    H43      H        0.82480    0.28660    0.92920    1.000
    C75      C        0.86443    0.41730    0.98970    1.000
    C76      C        0.86819    0.12850    0.96330    1.000
    C77      C        0.43723    0.09690    0.31380    1.000
    H44      H        0.41040    0.05990    0.30580    1.000
    O31      O        0.87299    0.87390    0.90369    1.000
    O32      O        0.84311    0.67840    0.03191    1.000
    C78      C        0.85024    0.98300    0.92730    1.000
    C79      C        0.83978    0.57280    0.98440    1.000
    H45      H        0.57100    0.29320    0.36900    1.000
    H46      H        0.68180    0.11770    0.13510    1.000
    Zn5      Zn       0.53958    0.15524    0.11639    1.000
    Zn6      Zn       0.78922    0.76972    0.89041    1.000
    N9       N        0.53816    0.18520    0.22480    1.000
    N10      N        0.71239    0.24620    0.28284    1.000
    C80      C        0.71065    0.64930    0.92510    1.000
    O33      O        0.73359    0.77280    0.93261    1.000
    O34      O        0.56769    0.95550    0.09024    1.000
    C81      C        0.67038    0.65250    0.96680    1.000
    O35      O        0.71894    0.52860    0.88715    1.000
    N11      N        0.55500    0.26630    0.33313    1.000
    C82      C        0.68348    0.17900    0.23980    1.000
    C83      C        0.59731    0.65730    0.04520    1.000
    H47      H        0.57280    0.65870    0.07160    1.000
    O36      O        0.63103    0.06270    0.09097    1.000
    C84      C        0.62101    0.79810    0.04010    1.000
    C85      C        0.61101    0.28030    0.24050    1.000
    H48      H        0.62060    0.38150    0.26210    1.000
    H49      H        0.61100    0.29410    0.18830    1.000
    C86      C        0.64041    0.14160    0.26100    1.000
    H50      H        0.63920    0.12360    0.31290    1.000
    H51      H        0.63160    0.04180    0.23710    1.000
    C87      C        0.60627    0.95260    0.07660    1.000
    C88      C        0.65811    0.79460    0.00260    1.000
    H52      H        0.67490    0.88700    0.00140    1.000
    C89      C        0.50403    0.16340    0.27100    1.000
    N12      N        0.69747    0.15160    0.17054    1.000
    C90      C        0.51501    0.21660    0.34010    1.000
    C91      C        0.73959    0.20130    0.17080    1.000
    C92      C        0.78634    0.32840    0.25710    1.000
    H53      H        0.79200    0.37320    0.30230    1.000
    C93      C        0.56765    0.24530    0.26600    1.000
    C94      C        0.64617    0.51330    0.97070    1.000
    H54      H        0.65420    0.41900    0.94620    1.000
    C95      C        0.60979    0.51430    0.01120    1.000
    C96      C        0.44840    0.14720    0.38220    1.000
    H55      H        0.42950    0.13620    0.41980    1.000
    C97      C        0.46497    0.09990    0.25670    1.000
    H56      H        0.45780    0.06140    0.21090    1.000
    C98      C        0.74797    0.26270    0.24020    1.000
    C99      C        0.76995    0.19770    0.11700    1.000
    H57      H        0.76450    0.15620    0.07110    1.000
    C100     C        0.81592    0.32330    0.20220    1.000
    H58      H        0.84210    0.36570    0.21110    1.000
    C101     C        0.48703    0.21370    0.39720    1.000
    H59      H        0.49370    0.25410    0.44280    1.000
    C102     C        0.80751    0.25720    0.13480    1.000
    H60      H        0.82860    0.25360    0.10050    1.000
    O37      O        0.41756    0.74110    0.47060    1.000
    O38      O        0.43420    0.64780    0.58050    1.000
    O39      O        0.01634    0.62760    0.57659    1.000
    C103     C        0.41575    0.63800    0.52010    1.000
    O40      O        0.03113    0.88270    0.61030    1.000
    O41      O        0.18901    0.01870    0.42181    1.000
    O42      O        0.18313    0.42110    0.42884    1.000
    C104     C        0.03945    0.75360    0.57820    1.000
    C105     C        0.09526    0.88100    0.50470    1.000
    H61      H        0.08220    0.98110    0.51120    1.000
    C106     C        0.09896    0.59120    0.52860    1.000
    H62      H        0.08780    0.49780    0.54980    1.000
    C107     C        0.07891    0.74180    0.53550    1.000
    C108     C        0.15117    0.72130    0.45660    1.000
    H63      H        0.17520    0.71340    0.42920    1.000
    C109     C        0.13557    0.58270    0.48970    1.000
    C110     C        0.13181    0.87150    0.46330    1.000
    C111     C        0.56277    0.90310    0.81380    1.000
    H64      H        0.58960    0.94010    0.80580    1.000
    O43      O        0.12701    0.12610    0.40369    1.000
    O44      O        0.15689    0.32160    0.53191    1.000
    C112     C        0.14976    0.01700    0.42730    1.000
    C113     C        0.16022    0.42720    0.48440    1.000
    H65      H        0.42900    0.70680    0.86900    1.000
    H66      H        0.31820    0.88230    0.63510    1.000
    Zn7      Zn       0.46042    0.84476    0.61639    1.000
    Zn8      Zn       0.21078    0.23028    0.39041    1.000
    N13      N        0.46184    0.81480    0.72480    1.000
    N14      N        0.28761    0.75380    0.78284    1.000
    C114     C        0.28935    0.35070    0.42510    1.000
    O45      O        0.26641    0.22720    0.43261    1.000
    O46      O        0.43231    0.04450    0.59024    1.000
    C115     C        0.32962    0.34750    0.46680    1.000
    O47      O        0.28106    0.47140    0.38715    1.000
    N15      N        0.44500    0.73370    0.83313    1.000
    C116     C        0.31652    0.82100    0.73980    1.000
    C117     C        0.40269    0.34270    0.54520    1.000
    H67      H        0.42720    0.34130    0.57160    1.000
    O48      O        0.36897    0.93730    0.59097    1.000
    C118     C        0.37899    0.20190    0.54010    1.000
    C119     C        0.38899    0.71970    0.74050    1.000
    H68      H        0.37940    0.61850    0.76210    1.000
    H69      H        0.38900    0.70590    0.68830    1.000
    C120     C        0.35959    0.85840    0.76100    1.000
    H70      H        0.36080    0.87640    0.81290    1.000
    H71      H        0.36840    0.95820    0.73710    1.000
    C121     C        0.39373    0.04740    0.57660    1.000
    C122     C        0.34189    0.20540    0.50260    1.000
    H72      H        0.32510    0.11300    0.50140    1.000
    C123     C        0.49597    0.83660    0.77100    1.000
    N16      N        0.30253    0.84840    0.67054    1.000
    C124     C        0.48499    0.78340    0.84010    1.000
    C125     C        0.26041    0.79870    0.67080    1.000
    C126     C        0.21366    0.67160    0.75710    1.000
    H73      H        0.20800    0.62680    0.80230    1.000
    C127     C        0.43235    0.75470    0.76600    1.000
    C128     C        0.35383    0.48670    0.47070    1.000
    H74      H        0.34580    0.58100    0.44620    1.000
    C129     C        0.39021    0.48570    0.51120    1.000
    C130     C        0.55160    0.85280    0.88220    1.000
    H75      H        0.57050    0.86380    0.91980    1.000
    C131     C        0.53503    0.90010    0.75670    1.000
    H76      H        0.54220    0.93860    0.71090    1.000
    C132     C        0.25203    0.73730    0.74020    1.000
    C133     C        0.23005    0.80230    0.61700    1.000
    H77      H        0.23550    0.84380    0.57110    1.000
    C134     C        0.18408    0.67670    0.70220    1.000
    H78      H        0.15790    0.63430    0.71110    1.000
    C135     C        0.51297    0.78630    0.89720    1.000
    H79      H        0.50630    0.74590    0.94280    1.000
    C136     C        0.19249    0.74280    0.63480    1.000
    H80      H        0.17140    0.74640    0.60050    1.000
