data_functionalizedCrystal
_audit_creation_method	'EQeq! by Chris Wilmer'
_symmetry_space_group_name_H-M	'P1'
_symmetry_Int_Tables_number	1
_symmetry_cell_setting	triclinic
loop_
_symmetry_equiv_pos_as_xyz
  x,y,z
_cell_length_a	13.6744
_cell_length_b	13.6744
_cell_length_c	15.0225
_cell_angle_alpha	90
_cell_angle_beta	90
_cell_angle_gamma	120
loop_
_atom_site_label
_atom_site_type_symbol
_atom_site_fract_x
_atom_site_fract_y
_atom_site_fract_z
_atom_site_charge
Mof_N 	N 	0.843	0.6592	0.2839	-0.19
Mof_C 	C 	0.7666	0.6856	0.313	0.012
Mof_H 	H 	0.785	0.7352	0.3606	0.012
Mof_C 	C 	0.6608	0.6411	0.2744	-0.01
Mof_H 	H 	0.6063	0.6542	0.2995	0.056
Mof_C 	C 	0.6373	0.5762	0.1972	-0.125
Mof_H 	H 	0.5692	0.5505	0.1672	0.106
Mof_C 	C 	0.7162	0.5513	0.1668	0.144
Mof_C 	C 	0.8187	0.5914	0.2115	-0.057
Mof_H 	H 	0.8708	0.5715	0.1915	0.082
Mof_N 	N 	0.6923	0.4894	0.0852	-0.244
Mof_H 	H 	0.6274	0.4688	0.0618	0.163
Mof_C 	C 	0.7584	0.4594	0.0405	0.215
Mof_O 	O 	0.8452	0.4667	0.0687	-0.213
Mof_C 	C 	0.7292	0.4416	0.9335	0.017
Mof_C 	C 	0.783	0.5501	0.8772	0.049
Mof_N 	N 	0.7491	0.3436	0.9114	-0.236
Mof_C 	C 	0.7211	0.2694	0.9403	0.4
Mof_O 	O 	0.6637	0.2433	0.0072	-0.286
Mof_C 	C 	0.7432	0.1601	0.9167	-0.092
Mof_C 	C 	0.7442	0.1405	0.8267	0.06
Mof_H 	H 	0.7255	0.1802	0.7865	0.023
Mof_N 	N 	0.7719	0.064	0.7958	-0.216
Mof_C 	C 	0.8059	0.0155	0.8554	0.051
Mof_H 	H 	0.8288	0.9658	0.8352	0.006
Mof_C 	C 	0.809	0.035	0.9447	-0.13
Mof_H 	H 	0.8374	0.002	0.9833	0.072
Mof_C 	C 	0.7707	0.1024	0.9776	0.071
Mof_H 	H 	0.7635	0.1093	0.0385	0.012
Mof_C 	C 	0.4745	0.79	0.3679	0.039
Mof_O 	O 	0.4354	0.8238	0.3118	0.01
Mof_C 	C 	0.3074	0.6068	0.3741	0.018
Mof_C 	C 	0.2537	0.5066	0.4389	-0.017
Mof_N 	N 	0.3408	0.1838	0.95057	-0.201
Mof_C 	C 	0.3144	0.081	0.97967	0.07
Mof_H 	H 	0.2648	0.0498	0.02727	-0.021
Mof_C 	C 	0.3589	0.0197	0.94107	-0.076
Mof_H 	H 	0.3458	0.9521	0.96617	0.094
Mof_C 	C 	0.4238	0.0611	0.86387	-0.088
Mof_H 	H 	0.4495	0.0187	0.83387	0.09
Mof_C 	C 	0.4487	0.1649	0.83347	0.126
Mof_C 	C 	0.4086	0.2273	0.87817	-0.047
Mof_H 	H 	0.4285	0.2993	0.85817	0.075
Mof_N 	N 	0.5106	0.2029	0.75187	-0.244
Mof_H 	H 	0.5312	0.1586	0.72847	0.165
Mof_C 	C 	0.5406	0.299	0.70717	0.23
Mof_O 	O 	0.5333	0.3785	0.73537	-0.217
Mof_C 	C 	0.5584	0.2876	0.60017	0.029
Mof_C 	C 	0.4499	0.2329	0.54387	0.025
Mof_N 	N 	0.6564	0.4055	0.57807	-0.208
Mof_C 	C 	0.7306	0.4517	0.60697	0.324
Mof_O 	O 	0.7567	0.4204	0.67387	-0.271
Mof_C 	C 	0.8399	0.5831	0.58337	-0.098
Mof_C 	C 	0.8595	0.6037	0.49337	0.067
Mof_H 	H 	0.8198	0.5453	0.45317	0.023
Mof_N 	N 	0.936	0.7079	0.46247	-0.222
Mof_C 	C 	0.9845	0.7904	0.52207	0.121
Mof_H 	H 	0.0342	0.863	0.50187	-0.039
Mof_C 	C 	0.965	0.774	0.61137	-0.159
Mof_H 	H 	0.998	0.8354	0.64997	0.088
Mof_C 	C 	0.8976	0.6683	0.64427	0.067
Mof_H 	H 	0.8907	0.6542	0.70517	0.023
Mof_C 	C 	0.21	0.6845	0.03457	0.107
Mof_O 	O 	0.1762	0.6116	0.97847	-0.017
Mof_C 	C 	0.3932	0.7006	0.04077	0.003
Mof_C 	C 	0.4934	0.7471	0.10557	-0.013
Mof_N 	N 	0.8162	0.157	0.61723	-0.189
Mof_C 	C 	0.919	0.2334	0.64633	-0.006
Mof_H 	H 	0.9502	0.215	0.69393	0.02
Mof_C 	C 	0.9803	0.3392	0.60773	0.031
Mof_H 	H 	0.0479	0.3937	0.63283	0.034
Mof_C 	C 	0.9389	0.3627	0.53053	-0.148
Mof_H 	H 	0.9813	0.4308	0.50053	0.119
Mof_C 	C 	0.8351	0.2838	0.50013	0.154
Mof_C 	C 	0.7727	0.1813	0.54483	-0.065
Mof_H 	H 	0.7007	0.1292	0.52483	0.076
Mof_N 	N 	0.7971	0.3077	0.41853	-0.25
Mof_H 	H 	0.8414	0.3726	0.39513	0.171
Mof_C 	C 	0.701	0.2416	0.37383	0.232
Mof_O 	O 	0.6215	0.1548	0.40203	-0.223
Mof_C 	C 	0.7124	0.2708	0.26683	0.028
Mof_C 	C 	0.7671	0.217	0.21053	0.029
Mof_N 	N 	0.5945	0.2509	0.24473	-0.208
Mof_C 	C 	0.5483	0.2789	0.27363	0.318
Mof_O 	O 	0.5796	0.3363	0.34053	-0.268
Mof_C 	C 	0.4169	0.2568	0.25003	-0.092
Mof_C 	C 	0.3963	0.2558	0.16003	0.059
Mof_H 	H 	0.4547	0.2745	0.11983	0.021
Mof_N 	N 	0.2921	0.2281	0.12913	-0.22
Mof_C 	C 	0.2096	0.1941	0.18873	0.078
Mof_H 	H 	0.137	0.1712	0.16853	-0.022
Mof_C 	C 	0.226	0.191	0.27803	-0.134
Mof_H 	H 	0.1646	0.1626	0.31663	0.067
Mof_C 	C 	0.3317	0.2293	0.31093	0.047
Mof_H 	H 	0.3458	0.2365	0.37183	0.027
Mof_C 	C 	0.3155	0.5255	0.70123	0.042
Mof_O 	O 	0.3884	0.5646	0.64513	0.006
Mof_C 	C 	0.2994	0.6926	0.70743	0.021
Mof_C 	C 	0.2529	0.7463	0.77223	-0.019
Mof_N 	N 	0.6592	0.843	0.7161	-0.189
Mof_C 	C 	0.6856	0.7666	0.687	0.013
Mof_H 	H 	0.7352	0.785	0.6394	0.013
Mof_C 	C 	0.6411	0.6608	0.7256	-0.007
Mof_H 	H 	0.6542	0.6063	0.7005	0.056
Mof_C 	C 	0.5762	0.6373	0.8028	-0.128
Mof_H 	H 	0.5505	0.5692	0.8328	0.109
Mof_C 	C 	0.5513	0.7162	0.8332	0.148
Mof_C 	C 	0.5914	0.8187	0.7885	-0.059
Mof_H 	H 	0.5715	0.8708	0.8085	0.083
Mof_N 	N 	0.4894	0.6923	0.9148	-0.25
Mof_H 	H 	0.4688	0.6274	0.9382	0.173
Mof_C 	C 	0.4594	0.7584	0.9595	0.248
Mof_O 	O 	0.4667	0.8452	0.9313	-0.215
Mof_C 	C 	0.4416	0.7292	0.0665	0.025
Mof_C 	C 	0.5501	0.783	0.1228	0.024
Mof_N 	N 	0.3436	0.7491	0.0886	-0.165
Mof_C 	C 	0.2694	0.7211	0.0597	0.209
Mof_O 	O 	0.2433	0.6637	0.9928	-0.243
Mof_C 	C 	0.1601	0.7432	0.0833	-0.067
Mof_C 	C 	0.1405	0.7442	0.1733	0.046
Mof_H 	H 	0.1802	0.7255	0.2135	0.029
Mof_N 	N 	0.064	0.7719	0.2042	-0.207
Mof_C 	C 	0.0155	0.8059	0.1446	0.017
Mof_H 	H 	0.9658	0.8288	0.1648	0.016
Mof_C 	C 	0.035	0.809	0.0553	-0.07
Mof_H 	H 	0.002	0.8374	0.0167	0.042
Mof_C 	C 	0.1024	0.7707	0.0224	-0.023
Mof_H 	H 	0.1093	0.7635	0.9615	0.06
Mof_C 	C 	0.79	0.4745	0.6321	0.04
Mof_O 	O 	0.8238	0.4354	0.6882	0.011
Mof_C 	C 	0.6068	0.3074	0.6259	0.019
Mof_C 	C 	0.5066	0.2537	0.5611	-0.017
Mof_N 	N 	0.1838	0.3408	0.04943	-0.193
Mof_C 	C 	0.081	0.3144	0.02033	-0.005
Mof_H 	H 	0.0498	0.2648	0.97273	0.023
Mof_C 	C 	0.0197	0.3589	0.05893	-0.034
Mof_H 	H 	0.9521	0.3458	0.03383	0.07
Mof_C 	C 	0.0611	0.4238	0.13613	-0.116
Mof_H 	H 	0.0187	0.4495	0.16613	0.098
Mof_C 	C 	0.1649	0.4487	0.16653	0.139
Mof_C 	C 	0.2273	0.4086	0.12183	-0.057
Mof_H 	H 	0.2993	0.4285	0.14183	0.077
Mof_N 	N 	0.2029	0.5106	0.24813	-0.247
Mof_H 	H 	0.1586	0.5312	0.27153	0.166
Mof_C 	C 	0.299	0.5406	0.29283	0.231
Mof_O 	O 	0.3785	0.5333	0.26463	-0.218
Mof_C 	C 	0.2876	0.5584	0.39983	0.029
Mof_C 	C 	0.2329	0.4499	0.45613	0.024
Mof_N 	N 	0.4055	0.6564	0.42193	-0.209
Mof_C 	C 	0.4517	0.7306	0.39303	0.325
Mof_O 	O 	0.4204	0.7567	0.32613	-0.271
Mof_C 	C 	0.5831	0.8399	0.41663	-0.098
Mof_C 	C 	0.6037	0.8595	0.50663	0.067
Mof_H 	H 	0.5453	0.8198	0.54683	0.022
Mof_N 	N 	0.7079	0.936	0.53753	-0.223
Mof_C 	C 	0.7904	0.9845	0.47793	0.122
Mof_H 	H 	0.863	0.0342	0.49813	-0.04
Mof_C 	C 	0.774	0.965	0.38863	-0.16
Mof_H 	H 	0.8354	0.998	0.35003	0.088
Mof_C 	C 	0.6683	0.8976	0.35573	0.068
Mof_H 	H 	0.6542	0.8907	0.29483	0.023
Mof_C 	C 	0.6845	0.21	0.96543	-0.012
Mof_O 	O 	0.6116	0.1762	0.02153	0.019
Mof_C 	C 	0.7006	0.3932	0.95923	0.051
Mof_C 	C 	0.7471	0.4934	0.89443	-0.026
Mof_N 	N 	0.157	0.8162	0.38277	-0.189
Mof_C 	C 	0.2334	0.919	0.35367	-0.007
Mof_H 	H 	0.215	0.9502	0.30607	0.021
Mof_C 	C 	0.3392	0.9803	0.39227	0.034
Mof_H 	H 	0.3937	0.0479	0.36717	0.033
Mof_C 	C 	0.3627	0.9389	0.46947	-0.15
Mof_H 	H 	0.4308	0.9813	0.49947	0.12
Mof_C 	C 	0.2838	0.8351	0.49987	0.155
Mof_C 	C 	0.1813	0.7727	0.45517	-0.065
Mof_H 	H 	0.1292	0.7007	0.47517	0.077
Mof_N 	N 	0.3077	0.7971	0.58147	-0.25
Mof_H 	H 	0.3726	0.8414	0.60487	0.171
Mof_C 	C 	0.2416	0.701	0.62617	0.232
Mof_O 	O 	0.1548	0.6215	0.59797	-0.222
Mof_C 	C 	0.2708	0.7124	0.73317	0.027
Mof_C 	C 	0.217	0.7671	0.78947	0.031
Mof_N 	N 	0.2509	0.5945	0.75527	-0.206
Mof_C 	C 	0.2789	0.5483	0.72637	0.318
Mof_O 	O 	0.3363	0.5796	0.65947	-0.268
Mof_C 	C 	0.2568	0.4169	0.74997	-0.09
Mof_C 	C 	0.2558	0.3963	0.83997	0.059
Mof_H 	H 	0.2745	0.4547	0.88017	0.027
Mof_N 	N 	0.2281	0.2921	0.87087	-0.216
Mof_C 	C 	0.1941	0.2096	0.81127	0.077
Mof_H 	H 	0.1712	0.137	0.83147	-0.019
Mof_C 	C 	0.191	0.226	0.72197	-0.132
Mof_H 	H 	0.1626	0.1646	0.68337	0.067
Mof_C 	C 	0.2293	0.3317	0.68907	0.046
Mof_H 	H 	0.2365	0.3458	0.62817	0.027
Mof_C 	C 	0.5255	0.3155	0.29877	0.041
Mof_O 	O 	0.5646	0.3884	0.35487	0.006
Mof_C 	C 	0.6926	0.2994	0.29257	0.021
Mof_C 	C 	0.7463	0.2529	0.22777	-0.019
Mof_Cu	Cu	1.88716e-18	0.73534	0.33333	0.866
Mof_Br	Br	4.86198e-17	0.53739	0.33333	-0.391
Mof_Cu	Cu	0.26466	0.26466	-0	0.865
Mof_Br	Br	0.46261	0.46261	-0	-0.39
Mof_Cu	Cu	0.73534	0	0.66667	0.866
Mof_Br	Br	0.53739	0	0.66667	-0.391
_end
