data_functionalizedCrystal
_audit_creation_method	'EQeq! by Chris Wilmer'
_symmetry_space_group_name_H-M	'P1'
_symmetry_Int_Tables_number	1
_symmetry_cell_setting	triclinic
loop_
_symmetry_equiv_pos_as_xyz
  x,y,z
_cell_length_a	13.2385
_cell_length_b	13.2385
_cell_length_c	46.3808
_cell_angle_alpha	90
_cell_angle_beta	90
_cell_angle_gamma	120
loop_
_atom_site_label
_atom_site_type_symbol
_atom_site_fract_x
_atom_site_fract_y
_atom_site_fract_z
_atom_site_charge
Mof_P 	P 	0.75777	0.99441	0.03363	1.218
Mof_Mg	Mg	0.99443	0.23291	0.03348	1.493
Mof_O 	O 	0.9677	0.3218	0.05647	-0.625
Mof_O 	O 	0.8958	0.4393	0.07955	-0.651
Mof_O 	O 	0.7435	0.87715	0.04178	-1.541
Mof_O 	O 	0.88459	0.08592	0.03766	-0.794
Mof_O 	O 	0.7193	0.99252	0.00269	-1.596
Mof_O 	O 	0.6797	0.0188	0.0524	-0.687
Mof_Al	Al	0.76709	0.76152	0.03348	5.231
Mof_P 	P 	0.42444	0.32774	0.36696	1.129
Mof_Mg	Mg	0.6611	0.56624	0.36681	1.49
Mof_O 	O 	0.63437	0.65513	0.3898	-0.639
Mof_O 	O 	0.56247	0.77263	0.41288	-0.659
Mof_O 	O 	0.41017	0.21048	0.37511	-1.507
Mof_O 	O 	0.55126	0.41925	0.37099	-0.765
Mof_O 	O 	0.38597	0.32585	0.33602	-1.564
Mof_O 	O 	0.34637	0.35213	0.38573	-0.65
Mof_Al	Al	0.43376	0.09485	0.36681	5.006
Mof_P 	P 	0.0911	0.66108	0.70029	1.131
Mof_Mg	Mg	0.32776	0.89958	0.70014	1.489
Mof_O 	O 	0.30103	0.98847	0.72314	-0.6
Mof_O 	O 	0.22913	0.10597	0.74622	-0.674
Mof_O 	O 	0.07683	0.54382	0.70845	-1.536
Mof_O 	O 	0.21792	0.75259	0.70433	-0.765
Mof_O 	O 	0.05263	0.65919	0.66936	-1.545
Mof_O 	O 	0.01303	0.68547	0.71907	-0.663
Mof_Al	Al	0.10042	0.42819	0.70014	5.151
Mof_P 	P 	0.00559	0.76336	0.03363	1.072
Mof_O 	O 	0.6782	0.6459	0.05647	-1.478
Mof_O 	O 	0.5607	0.4565	0.07955	-0.633
Mof_O 	O 	0.12285	0.86635	0.04178	-1.488
Mof_O 	O 	0.91408	0.79867	0.03766	-1.527
Mof_O 	O 	0.00748	0.72678	0.00269	-0.731
Mof_O 	O 	0.9812	0.6609	0.0524	-0.627
Mof_Al	Al	0.23848	0.00557	0.03348	5.129
Mof_P 	P 	0.67226	0.09669	0.36696	1.114
Mof_O 	O 	0.34487	0.97923	0.3898	-1.401
Mof_O 	O 	0.22737	0.78983	0.41288	-0.63
Mof_O 	O 	0.78952	0.19968	0.37511	-1.589
Mof_O 	O 	0.58075	0.132	0.37099	-1.539
Mof_O 	O 	0.67415	0.06011	0.33602	-0.734
Mof_O 	O 	0.64787	0.99423	0.38573	-0.627
Mof_Al	Al	0.90515	0.3389	0.36681	5.515
Mof_P 	P 	0.33892	0.43003	0.70029	1.152
Mof_O 	O 	0.01153	0.31257	0.72314	-1.477
Mof_O 	O 	0.89403	0.12317	0.74622	-0.606
Mof_O 	O 	0.45618	0.53302	0.70845	-1.566
Mof_O 	O 	0.24741	0.46534	0.70433	-1.563
Mof_O 	O 	0.34081	0.39345	0.66936	-0.731
Mof_O 	O 	0.31453	0.32757	0.71907	-0.681
Mof_Al	Al	0.57181	0.67224	0.70014	5.37
Mof_P 	P 	0.23664	0.24223	0.03363	1.122
Mof_O 	O 	0.3541	0.0323	0.05647	-1.543
Mof_O 	O 	0.5435	0.1042	0.07955	-0.714
Mof_O 	O 	0.13365	0.2565	0.04178	-0.725
Mof_O 	O 	0.20133	0.11541	0.03766	-1.587
Mof_O 	O 	0.27322	0.2807	0.00269	-1.526
Mof_O 	O 	0.3391	0.3203	0.0524	-0.668
Mof_P 	P 	0.90331	0.57556	0.36696	1.179
Mof_O 	O 	0.02077	0.36563	0.3898	-1.639
Mof_O 	O 	0.21017	0.43753	0.41288	-0.707
Mof_O 	O 	0.80032	0.58983	0.37511	-0.693
Mof_O 	O 	0.868	0.44874	0.37099	-1.644
Mof_O 	O 	0.93989	0.61403	0.33602	-1.526
Mof_O 	O 	0.00577	0.65363	0.38573	-0.707
Mof_P 	P 	0.56997	0.9089	0.70029	1.141
Mof_O 	O 	0.68743	0.69897	0.72314	-1.57
Mof_O 	O 	0.87683	0.77087	0.74622	-0.68
Mof_O 	O 	0.46698	0.92317	0.70845	-0.687
Mof_O 	O 	0.53466	0.78208	0.70433	-1.619
Mof_O 	O 	0.60655	0.94737	0.66936	-1.55
Mof_O 	O 	0.67243	0.98697	0.71907	-0.642
Mof_P 	P 	0.99441	0.75777	0.46637	1.217
Mof_Mg	Mg	0.23291	0.99443	0.46652	1.492
Mof_O 	O 	0.3218	0.9677	0.44353	-0.626
Mof_O 	O 	0.4393	0.8958	0.42045	-0.651
Mof_O 	O 	0.87715	0.7435	0.45822	-1.541
Mof_O 	O 	0.08592	0.88459	0.46234	-0.794
Mof_O 	O 	0.99252	0.7193	0.49731	-1.597
Mof_O 	O 	0.0188	0.6797	0.4476	-0.687
Mof_Al	Al	0.76152	0.76709	0.46652	5.23
Mof_P 	P 	0.66108	0.0911	0.79971	1.131
Mof_Mg	Mg	0.89958	0.32776	0.79986	1.489
Mof_O 	O 	0.98847	0.30103	0.77686	-0.6
Mof_O 	O 	0.10597	0.22913	0.75378	-0.673
Mof_O 	O 	0.54382	0.07683	0.79155	-1.536
Mof_O 	O 	0.75259	0.21792	0.79567	-0.765
Mof_O 	O 	0.65919	0.05263	0.83064	-1.545
Mof_O 	O 	0.68547	0.01303	0.78093	-0.663
Mof_Al	Al	0.42819	0.10042	0.79986	5.151
Mof_P 	P 	0.32774	0.42444	0.13304	1.129
Mof_Mg	Mg	0.56624	0.6611	0.13319	1.49
Mof_O 	O 	0.65513	0.63437	0.1102	-0.639
Mof_O 	O 	0.77263	0.56247	0.08712	-0.659
Mof_O 	O 	0.21048	0.41017	0.12489	-1.507
Mof_O 	O 	0.41925	0.55126	0.12901	-0.765
Mof_O 	O 	0.32585	0.38597	0.16398	-1.564
Mof_O 	O 	0.35213	0.34637	0.11427	-0.65
Mof_Al	Al	0.09485	0.43376	0.13319	5.006
Mof_P 	P 	0.76336	0.00559	0.46637	1.072
Mof_O 	O 	0.6459	0.6782	0.44353	-1.478
Mof_O 	O 	0.4565	0.5607	0.42045	-0.633
Mof_O 	O 	0.86635	0.12285	0.45822	-1.488
Mof_O 	O 	0.79867	0.91408	0.46234	-1.527
Mof_O 	O 	0.72678	0.00748	0.49731	-0.731
Mof_O 	O 	0.6609	0.9812	0.4476	-0.627
Mof_Al	Al	0.00557	0.23848	0.46652	5.129
Mof_P 	P 	0.43003	0.33892	0.79971	1.152
Mof_O 	O 	0.31257	0.01153	0.77686	-1.477
Mof_O 	O 	0.12317	0.89403	0.75378	-0.606
Mof_O 	O 	0.53302	0.45618	0.79155	-1.566
Mof_O 	O 	0.46534	0.24741	0.79567	-1.563
Mof_O 	O 	0.39345	0.34081	0.83064	-0.731
Mof_O 	O 	0.32757	0.31453	0.78093	-0.681
Mof_Al	Al	0.67224	0.57181	0.79986	5.37
Mof_P 	P 	0.09669	0.67226	0.13304	1.114
Mof_O 	O 	0.97923	0.34487	0.1102	-1.401
Mof_O 	O 	0.78983	0.22737	0.08712	-0.63
Mof_O 	O 	0.19968	0.78952	0.12489	-1.589
Mof_O 	O 	0.132	0.58075	0.12901	-1.539
Mof_O 	O 	0.06011	0.67415	0.16398	-0.734
Mof_O 	O 	0.99423	0.64787	0.11427	-0.627
Mof_Al	Al	0.3389	0.90515	0.13319	5.515
Mof_P 	P 	0.24223	0.23664	0.46637	1.122
Mof_O 	O 	0.0323	0.3541	0.44353	-1.543
Mof_O 	O 	0.1042	0.5435	0.42045	-0.714
Mof_O 	O 	0.2565	0.13365	0.45822	-0.725
Mof_O 	O 	0.11541	0.20133	0.46234	-1.587
Mof_O 	O 	0.2807	0.27322	0.49731	-1.526
Mof_O 	O 	0.3203	0.3391	0.4476	-0.668
Mof_P 	P 	0.9089	0.56997	0.79971	1.141
Mof_O 	O 	0.69897	0.68743	0.77686	-1.57
Mof_O 	O 	0.77087	0.87683	0.75378	-0.68
Mof_O 	O 	0.92317	0.46698	0.79155	-0.687
Mof_O 	O 	0.78208	0.53466	0.79567	-1.619
Mof_O 	O 	0.94737	0.60655	0.83064	-1.55
Mof_O 	O 	0.98697	0.67243	0.78093	-0.642
Mof_P 	P 	0.57556	0.90331	0.13304	1.179
Mof_O 	O 	0.36563	0.02077	0.1102	-1.639
Mof_O 	O 	0.43753	0.21017	0.08712	-0.707
Mof_O 	O 	0.58983	0.80032	0.12489	-0.692
Mof_O 	O 	0.44874	0.868	0.12901	-1.644
Mof_O 	O 	0.61403	0.93989	0.16398	-1.526
Mof_O 	O 	0.65363	0.00577	0.11427	-0.707
Mof_P 	P 	0.24223	0.00559	0.96637	1.051
Mof_Mg	Mg	0.00557	0.76709	0.96652	1.487
Mof_O 	O 	0.0323	0.6782	0.94353	-0.664
Mof_O 	O 	0.1042	0.5607	0.92045	-0.675
Mof_O 	O 	0.2565	0.12285	0.95822	-1.535
Mof_O 	O 	0.11541	0.91408	0.96234	-0.732
Mof_O 	O 	0.2807	0.00748	0.99731	-1.527
Mof_O 	O 	0.3203	0.9812	0.9476	-0.596
Mof_Al	Al	0.23291	0.23848	0.96652	5.174
Mof_P 	P 	0.9089	0.33892	0.29971	1.146
Mof_Mg	Mg	0.67224	0.10042	0.29986	1.489
Mof_O 	O 	0.69897	0.01153	0.27686	-0.654
Mof_O 	O 	0.77087	0.89403	0.25378	-0.615
Mof_O 	O 	0.92317	0.45618	0.29155	-1.532
Mof_O 	O 	0.78208	0.24741	0.29567	-0.77
Mof_O 	O 	0.94737	0.34081	0.33064	-1.585
Mof_O 	O 	0.98697	0.31453	0.28093	-0.618
Mof_Al	Al	0.89958	0.57181	0.29986	5.226
Mof_P 	P 	0.57556	0.67226	0.63304	1.149
Mof_Mg	Mg	0.3389	0.43376	0.63319	1.489
Mof_O 	O 	0.36563	0.34487	0.6102	-0.653
Mof_O 	O 	0.43753	0.22737	0.58712	-0.668
Mof_O 	O 	0.58983	0.78952	0.62489	-1.565
Mof_O 	O 	0.44874	0.58075	0.62901	-0.771
Mof_O 	O 	0.61403	0.67415	0.66398	-1.566
Mof_O 	O 	0.65363	0.64787	0.61427	-0.64
Mof_Al	Al	0.56624	0.90515	0.63319	5.369
Mof_P 	P 	0.99441	0.23664	0.96637	1.241
Mof_O 	O 	0.3218	0.3541	0.94353	-1.473
Mof_O 	O 	0.4393	0.5435	0.92045	-0.633
Mof_O 	O 	0.87715	0.13365	0.95822	-1.629
Mof_O 	O 	0.08592	0.20133	0.96234	-1.623
Mof_O 	O 	0.99252	0.27322	0.99731	-0.719
Mof_O 	O 	0.0188	0.3391	0.9476	-0.727
Mof_Al	Al	0.76152	0.99443	0.96652	5.552
Mof_P 	P 	0.66108	0.56997	0.29971	1.155
Mof_O 	O 	0.98847	0.68743	0.27686	-1.429
Mof_O 	O 	0.10597	0.87683	0.25378	-0.612
Mof_O 	O 	0.54382	0.46698	0.29155	-1.558
Mof_O 	O 	0.75259	0.53466	0.29567	-1.575
Mof_O 	O 	0.65919	0.60655	0.33064	-0.72
Mof_O 	O 	0.68547	0.67243	0.28093	-0.668
Mof_Al	Al	0.42819	0.32776	0.29986	5.333
Mof_P 	P 	0.32774	0.90331	0.63304	1.193
Mof_O 	O 	0.65513	0.02077	0.6102	-1.536
Mof_O 	O 	0.77263	0.21017	0.58712	-0.633
Mof_O 	O 	0.21048	0.80032	0.62489	-1.538
Mof_O 	O 	0.41925	0.868	0.62901	-1.602
Mof_O 	O 	0.32585	0.93989	0.66398	-0.719
Mof_O 	O 	0.35213	0.00577	0.61427	-0.722
Mof_Al	Al	0.09485	0.6611	0.63319	5.207
Mof_P 	P 	0.76336	0.75777	0.96637	1.145
Mof_O 	O 	0.6459	0.9677	0.94353	-1.598
Mof_O 	O 	0.4565	0.8958	0.92045	-0.696
Mof_O 	O 	0.86635	0.7435	0.95822	-0.673
Mof_O 	O 	0.79867	0.88459	0.96234	-1.641
Mof_O 	O 	0.72678	0.7193	0.99731	-1.536
Mof_O 	O 	0.6609	0.6797	0.9476	-0.67
Mof_P 	P 	0.43003	0.0911	0.29971	1.125
Mof_O 	O 	0.31257	0.30103	0.27686	-1.574
Mof_O 	O 	0.12317	0.22913	0.25378	-0.733
Mof_O 	O 	0.53302	0.07683	0.29155	-0.707
Mof_O 	O 	0.46534	0.21792	0.29567	-1.61
Mof_O 	O 	0.39345	0.05263	0.33064	-1.509
Mof_O 	O 	0.32757	0.01303	0.28093	-0.7
Mof_P 	P 	0.09669	0.42444	0.63304	1.086
Mof_O 	O 	0.97923	0.63437	0.6102	-1.511
Mof_O 	O 	0.78983	0.56247	0.58712	-0.703
Mof_O 	O 	0.19968	0.41017	0.62489	-0.7
Mof_O 	O 	0.132	0.55126	0.62901	-1.589
Mof_O 	O 	0.06011	0.38597	0.66398	-1.531
Mof_O 	O 	0.99423	0.34637	0.61427	-0.627
Mof_P 	P 	0.00559	0.24223	0.53363	1.051
Mof_Mg	Mg	0.76709	0.00557	0.53348	1.487
Mof_O 	O 	0.6782	0.0323	0.55647	-0.664
Mof_O 	O 	0.5607	0.1042	0.57955	-0.675
Mof_O 	O 	0.12285	0.2565	0.54178	-1.535
Mof_O 	O 	0.91408	0.11541	0.53766	-0.732
Mof_O 	O 	0.00748	0.2807	0.50269	-1.527
Mof_O 	O 	0.9812	0.3203	0.5524	-0.596
Mof_Al	Al	0.23848	0.23291	0.53348	5.175
Mof_P 	P 	0.67226	0.57556	0.86696	1.149
Mof_Mg	Mg	0.43376	0.3389	0.86681	1.489
Mof_O 	O 	0.34487	0.36563	0.8898	-0.653
Mof_O 	O 	0.22737	0.43753	0.91288	-0.668
Mof_O 	O 	0.78952	0.58983	0.87511	-1.565
Mof_O 	O 	0.58075	0.44874	0.87099	-0.771
Mof_O 	O 	0.67415	0.61403	0.83602	-1.566
Mof_O 	O 	0.64787	0.65363	0.88573	-0.64
Mof_Al	Al	0.90515	0.56624	0.86681	5.369
Mof_P 	P 	0.33892	0.9089	0.20029	1.146
Mof_Mg	Mg	0.10042	0.67224	0.20014	1.489
Mof_O 	O 	0.01153	0.69897	0.22314	-0.654
Mof_O 	O 	0.89403	0.77087	0.24622	-0.615
Mof_O 	O 	0.45618	0.92317	0.20845	-1.532
Mof_O 	O 	0.24741	0.78208	0.20433	-0.77
Mof_O 	O 	0.34081	0.94737	0.16936	-1.585
Mof_O 	O 	0.31453	0.98697	0.21907	-0.618
Mof_Al	Al	0.57181	0.89958	0.20014	5.226
Mof_P 	P 	0.23664	0.99441	0.53363	1.242
Mof_O 	O 	0.3541	0.3218	0.55647	-1.473
Mof_O 	O 	0.5435	0.4393	0.57955	-0.633
Mof_O 	O 	0.13365	0.87715	0.54178	-1.629
Mof_O 	O 	0.20133	0.08592	0.53766	-1.623
Mof_O 	O 	0.27322	0.99252	0.50269	-0.719
Mof_O 	O 	0.3391	0.0188	0.5524	-0.727
Mof_Al	Al	0.99443	0.76152	0.53348	5.553
Mof_P 	P 	0.90331	0.32774	0.86696	1.193
Mof_O 	O 	0.02077	0.65513	0.8898	-1.536
Mof_O 	O 	0.21017	0.77263	0.91288	-0.633
Mof_O 	O 	0.80032	0.21048	0.87511	-1.538
Mof_O 	O 	0.868	0.41925	0.87099	-1.602
Mof_O 	O 	0.93989	0.32585	0.83602	-0.719
Mof_O 	O 	0.00577	0.35213	0.88573	-0.722
Mof_Al	Al	0.6611	0.09485	0.86681	5.208
Mof_P 	P 	0.56997	0.66108	0.20029	1.155
Mof_O 	O 	0.68743	0.98847	0.22314	-1.429
Mof_O 	O 	0.87683	0.10597	0.24622	-0.612
Mof_O 	O 	0.46698	0.54382	0.20845	-1.558
Mof_O 	O 	0.53466	0.75259	0.20433	-1.575
Mof_O 	O 	0.60655	0.65919	0.16936	-0.72
Mof_O 	O 	0.67243	0.68547	0.21907	-0.668
Mof_Al	Al	0.32776	0.42819	0.20014	5.333
Mof_P 	P 	0.75777	0.76336	0.53363	1.145
Mof_O 	O 	0.9677	0.6459	0.55647	-1.598
Mof_O 	O 	0.8958	0.4565	0.57955	-0.696
Mof_O 	O 	0.7435	0.86635	0.54178	-0.673
Mof_O 	O 	0.88459	0.79867	0.53766	-1.642
Mof_O 	O 	0.7193	0.72678	0.50269	-1.535
Mof_O 	O 	0.6797	0.6609	0.5524	-0.67
Mof_P 	P 	0.42444	0.09669	0.86696	1.086
Mof_O 	O 	0.63437	0.97923	0.8898	-1.511
Mof_O 	O 	0.56247	0.78983	0.91288	-0.703
Mof_O 	O 	0.41017	0.19968	0.87511	-0.7
Mof_O 	O 	0.55126	0.132	0.87099	-1.589
Mof_O 	O 	0.38597	0.06011	0.83602	-1.531
Mof_O 	O 	0.34637	0.99423	0.88573	-0.627
Mof_P 	P 	0.0911	0.43003	0.20029	1.125
Mof_O 	O 	0.30103	0.31257	0.22314	-1.574
Mof_O 	O 	0.22913	0.12317	0.24622	-0.733
Mof_O 	O 	0.07683	0.53302	0.20845	-0.707
Mof_O 	O 	0.21792	0.46534	0.20433	-1.61
Mof_O 	O 	0.05263	0.39345	0.16936	-1.509
Mof_O 	O 	0.01303	0.32757	0.21907	-0.7
Mof_P 	P 	0.90811	0.33333	0.08333	0.942
Mof_P 	P 	0.66667	0.57477	0.08333	0.956
Mof_P 	P 	0.33333	0.90811	0.41667	0.942
Mof_P 	P 	0.42523	0.09189	0.08333	1.184
Mof_P 	P 	0.75856	0.75856	0.75	1.188
Mof_P 	P 	1.73539e-17	0.24144	0.75	0.876
Mof_P 	P 	0.57477	0.66667	0.41667	0.955
Mof_P 	P 	0.24144	0	0.75	0.876
Mof_P 	P 	0.09189	0.42523	0.41667	1.184
Mof_P 	P 	0.09189	0.66667	0.91667	0.963
Mof_P 	P 	0.75856	0	0.25	0.881
Mof_P 	P 	0.42523	0.33333	0.58333	0.951
Mof_P 	P 	0.33333	0.42523	0.91667	0.951
Mof_P 	P 	2.19343e-17	0.75856	0.25	0.881
Mof_P 	P 	0.57477	0.90811	0.91667	1.19
Mof_P 	P 	0.24144	0.24144	0.25	1.187
Mof_P 	P 	0.66667	0.09189	0.58333	0.963
Mof_P 	P 	0.90811	0.57477	0.58333	1.19
Mof_Mg	Mg	0.66667	0.08946	0.08333	1.493
Mof_Mg	Mg	0.91054	0.5772	0.08333	1.492
Mof_Mg	Mg	0.4228	0.33333	0.08333	1.493
Mof_Mg	Mg	0.08946	0.66667	0.41667	1.493
Mof_Mg	Mg	0.75613	0	0.75	1.489
Mof_Mg	Mg	0.5772	0.91054	0.41667	1.492
Mof_Mg	Mg	0.24387	0.24387	0.75	1.491
Mof_Mg	Mg	0.33333	0.4228	0.41667	1.493
Mof_Mg	Mg	1.2042e-18	0.75613	0.75	1.489
Mof_Mg	Mg	0.33333	0.91054	0.91667	1.494
Mof_Mg	Mg	5.78462e-18	0.24387	0.25	1.488
Mof_Mg	Mg	0.08946	0.4228	0.91667	1.492
Mof_Mg	Mg	0.75613	0.75613	0.25	1.492
Mof_Mg	Mg	0.5772	0.66667	0.91667	1.494
Mof_Mg	Mg	0.24387	0	0.25	1.488
Mof_Mg	Mg	0.91054	0.33333	0.58333	1.494
Mof_Mg	Mg	0.4228	0.08946	0.58333	1.492
Mof_Mg	Mg	0.66667	0.5772	0.58333	1.494
_end
