data_functionalizedCrystal
_audit_creation_method	'EQeq! by Chris Wilmer'
_symmetry_space_group_name_H-M	'P1'
_symmetry_Int_Tables_number	1
_symmetry_cell_setting	triclinic
loop_
_symmetry_equiv_pos_as_xyz
  x,y,z
_cell_length_a	8.0491
_cell_length_b	16.7053
_cell_length_c	27.17
_cell_angle_alpha	90
_cell_angle_beta	96.675
_cell_angle_gamma	90
loop_
_atom_site_label
_atom_site_type_symbol
_atom_site_fract_x
_atom_site_fract_y
_atom_site_fract_z
_atom_site_charge
Mof_Tb	Tb	0.26113	0.51245	0.5183	2.131
Mof_O 	O 	0.3955	0.0756	0.08404	-0.461
Mof_O 	O 	0.8372	0.8776	0.99767	-0.477
Mof_O 	O 	0.5098	0.0835	0.01367	-0.596
Mof_O 	O 	0.1163	0.8668	0.00257	-0.553
Mof_O 	O 	0.9666	0.4956	0.43743	-0.587
Mof_C 	C 	0.4863	0.1124	0.0568	0.395
Mof_C 	C 	0.9621	0.759	0.031	-0.191
Mof_C 	C 	0.6373	0.2406	0.0409	0.081
Mof_H 	H 	0.6401	0.2256	0.0081	0.002
Mof_C 	C 	0.8204	0.7129	0.0216	0.094
Mof_H 	H 	0.7348	0.7294	0.9978	0.009
Mof_C 	C 	0.5544	0.2159	0.1214	0.064
Mof_H 	H 	0.5004	0.1844	0.1428	0.019
Mof_C 	C 	0.6251	0.2865	0.1378	-0.129
Mof_H 	H 	0.619	0.3016	0.1705	0.072
Mof_C 	C 	0.0867	0.4983	0.41138	0.481
Mof_C 	C 	0.9732	0.8411	0.0078	0.492
Mof_C 	C 	0.0467	0.4967	0.3555	-0.21
Mof_C 	C 	0.5618	0.1903	0.0726	-0.153
Mof_C 	C 	0.0923	0.7325	0.0656	0.099
Mof_H 	H 	0.1912	0.7616	0.0706	-0.019
Mof_C 	C 	0.9729	0.4904	0.2529	0.09
Mof_C 	C 	0.9294	0.6174	0.0839	0.076
Mof_C 	C 	0.7078	0.3377	0.107	0.058
Mof_C 	C 	0.9055	0.5457	0.1159	0.016
Mof_C 	C 	0.8038	0.6423	0.0471	-0.154
Mof_H 	H 	0.7085	0.611	0.0397	0.082
Mof_C 	C 	0.9272	0.4861	0.1979	0.012
Mof_C 	C 	0.7924	0.4122	0.1267	0.024
Mof_C 	C 	0.821	0.476	0.0961	-0.09
Mof_H 	H 	0.7848	0.4732	0.0624	0.06
Mof_C 	C 	0.7079	0.3123	0.0575	-0.136
Mof_H 	H 	0.7569	0.3448	0.0354	0.079
Mof_C 	C 	0.8516	0.4764	0.2835	-0.178
Mof_H 	H 	0.7437	0.4643	0.2694	0.089
Mof_C 	C 	0.1339	0.5089	0.274	-0.166
Mof_H 	H 	0.2168	0.52	0.2539	0.086
Mof_C 	C 	0.0753	0.6629	0.0925	-0.16
Mof_H 	H 	0.1612	0.6467	0.1163	0.082
Mof_C 	C 	0.8854	0.4795	0.3352	0.128
Mof_H 	H 	0.8014	0.4703	0.3553	-0.036
Mof_C 	C 	0.1716	0.5108	0.3257	0.105
Mof_H 	H 	0.2801	0.5215	0.3399	-0.004
Mof_C 	C 	0.8466	0.4182	0.1778	-0.089
Mof_H 	H 	0.8278	0.3757	0.1985	0.06
Mof_C 	C 	0.9592	0.5496	0.1666	-0.087
Mof_H 	H 	0.0164	0.5946	0.1797	0.059
Mof_O 	O 	0.2387	0.5037	0.42784	-0.21
Mof_O 	O 	0.219	0.467	0.4414	-0.356
Mof_Tb	Tb	0.73887	0.01245	0.9817	2.122
Mof_O 	O 	0.6045	0.5756	0.41596	-0.463
Mof_O 	O 	0.1628	0.3776	0.50233	-0.484
Mof_O 	O 	0.4902	0.5835	0.48633	-0.599
Mof_O 	O 	0.8837	0.3668	0.49743	-0.554
Mof_O 	O 	0.0334	0.9956	0.06257	-0.583
Mof_C 	C 	0.5137	0.6124	0.4432	0.397
Mof_C 	C 	0.0379	0.259	0.469	-0.195
Mof_C 	C 	0.3627	0.7406	0.4591	0.082
Mof_H 	H 	0.3599	0.7256	0.4919	0.001
Mof_C 	C 	0.1796	0.2129	0.4784	0.104
Mof_H 	H 	0.2652	0.2294	0.5022	0.004
Mof_C 	C 	0.4456	0.7159	0.3786	0.065
Mof_H 	H 	0.4996	0.6844	0.3572	0.019
Mof_C 	C 	0.3749	0.7865	0.3622	-0.13
Mof_H 	H 	0.381	0.8016	0.3295	0.072
Mof_C 	C 	0.9133	0.9983	0.08862	0.477
Mof_C 	C 	0.0268	0.3411	0.4922	0.5
Mof_C 	C 	0.9533	0.9967	0.1445	-0.213
Mof_C 	C 	0.4382	0.6903	0.4274	-0.155
Mof_C 	C 	0.9077	0.2325	0.4344	0.104
Mof_H 	H 	0.8088	0.2616	0.4294	-0.02
Mof_C 	C 	0.0271	0.9904	0.2471	0.09
Mof_C 	C 	0.0706	0.1174	0.4161	0.081
Mof_C 	C 	0.2922	0.8377	0.393	0.059
Mof_C 	C 	0.0945	0.0457	0.3841	0.014
Mof_C 	C 	0.1962	0.1423	0.4529	-0.16
Mof_H 	H 	0.2915	0.111	0.4603	0.084
Mof_C 	C 	0.0728	0.9861	0.3021	0.01
Mof_C 	C 	0.2076	0.9122	0.3733	0.022
Mof_C 	C 	0.179	0.976	0.4039	-0.089
Mof_H 	H 	0.2152	0.9732	0.4376	0.059
Mof_C 	C 	0.2921	0.8123	0.4425	-0.137
Mof_H 	H 	0.2431	0.8448	0.4646	0.079
Mof_C 	C 	0.1484	0.9764	0.2165	-0.179
Mof_H 	H 	0.2563	0.9643	0.2306	0.089
Mof_C 	C 	0.8661	0.0089	0.226	-0.165
Mof_H 	H 	0.7832	0.02	0.2461	0.086
Mof_C 	C 	0.9247	0.1629	0.4075	-0.164
Mof_H 	H 	0.8388	0.1467	0.3837	0.083
Mof_C 	C 	0.1146	0.9795	0.1648	0.129
Mof_H 	H 	0.1986	0.9703	0.1447	-0.037
Mof_C 	C 	0.8284	0.0108	0.1743	0.108
Mof_H 	H 	0.7199	0.0215	0.1601	-0.005
Mof_C 	C 	0.1534	0.9182	0.3222	-0.088
Mof_H 	H 	0.1722	0.8757	0.3015	0.059
Mof_C 	C 	0.0408	0.0496	0.3334	-0.082
Mof_H 	H 	0.9836	0.0946	0.3203	0.058
Mof_O 	O 	0.7613	0.0037	0.07216	-0.194
Mof_O 	O 	0.781	0.967	0.0586	-0.368
Mof_Tb	Tb	0.73887	0.48755	0.4817	2.132
Mof_O 	O 	0.6045	0.9244	0.91596	-0.46
Mof_O 	O 	0.1628	0.1224	0.00233	-0.476
Mof_O 	O 	0.4902	0.9165	0.98633	-0.595
Mof_O 	O 	0.8837	0.1332	0.99743	-0.552
Mof_O 	O 	0.0334	0.5044	0.56257	-0.586
Mof_C 	C 	0.5137	0.8876	0.9432	0.396
Mof_C 	C 	0.0379	0.241	0.969	-0.19
Mof_C 	C 	0.3627	0.7594	0.9591	0.081
Mof_H 	H 	0.3599	0.7744	0.9919	0.002
Mof_C 	C 	0.1796	0.2871	0.9784	0.094
Mof_H 	H 	0.2652	0.2706	0.0022	0.009
Mof_C 	C 	0.4456	0.7841	0.8786	0.064
Mof_H 	H 	0.4996	0.8156	0.8572	0.019
Mof_C 	C 	0.3749	0.7135	0.8622	-0.129
Mof_H 	H 	0.381	0.6984	0.8295	0.072
Mof_C 	C 	0.9133	0.5017	0.58862	0.481
Mof_C 	C 	0.0268	0.1589	0.9922	0.492
Mof_C 	C 	0.9533	0.5033	0.6445	-0.21
Mof_C 	C 	0.4382	0.8097	0.9274	-0.153
Mof_C 	C 	0.9077	0.2675	0.9344	0.099
Mof_H 	H 	0.8088	0.2384	0.9294	-0.019
Mof_C 	C 	0.0271	0.5096	0.7471	0.09
Mof_C 	C 	0.0706	0.3826	0.9161	0.076
Mof_C 	C 	0.2922	0.6623	0.893	0.058
Mof_C 	C 	0.0945	0.4543	0.8841	0.016
Mof_C 	C 	0.1962	0.3577	0.9529	-0.154
Mof_H 	H 	0.2915	0.389	0.9603	0.082
Mof_C 	C 	0.0728	0.5139	0.8021	0.012
Mof_C 	C 	0.2076	0.5878	0.8733	0.024
Mof_C 	C 	0.179	0.524	0.9039	-0.09
Mof_H 	H 	0.2152	0.5268	0.9376	0.06
Mof_C 	C 	0.2921	0.6877	0.9425	-0.136
Mof_H 	H 	0.2431	0.6552	0.9646	0.079
Mof_C 	C 	0.1484	0.5236	0.7165	-0.178
Mof_H 	H 	0.2563	0.5357	0.7306	0.089
Mof_C 	C 	0.8661	0.4911	0.726	-0.166
Mof_H 	H 	0.7832	0.48	0.7461	0.086
Mof_C 	C 	0.9247	0.3371	0.9075	-0.16
Mof_H 	H 	0.8388	0.3533	0.8837	0.082
Mof_C 	C 	0.1146	0.5205	0.6648	0.128
Mof_H 	H 	0.1986	0.5297	0.6447	-0.036
Mof_C 	C 	0.8284	0.4892	0.6743	0.105
Mof_H 	H 	0.7199	0.4785	0.6601	-0.004
Mof_C 	C 	0.1534	0.5818	0.8222	-0.089
Mof_H 	H 	0.1722	0.6243	0.8015	0.06
Mof_C 	C 	0.0408	0.4504	0.8334	-0.087
Mof_H 	H 	0.9836	0.4054	0.8203	0.059
Mof_O 	O 	0.7613	0.4963	0.57216	-0.21
Mof_O 	O 	0.781	0.533	0.5586	-0.356
Mof_Tb	Tb	0.26113	0.98755	0.0183	2.122
Mof_O 	O 	0.3955	0.4244	0.58404	-0.463
Mof_O 	O 	0.8372	0.6224	0.49767	-0.484
Mof_O 	O 	0.5098	0.4165	0.51367	-0.599
Mof_O 	O 	0.1163	0.6332	0.50257	-0.554
Mof_O 	O 	0.9666	0.0044	0.93743	-0.583
Mof_C 	C 	0.4863	0.3876	0.5568	0.397
Mof_C 	C 	0.9621	0.741	0.531	-0.195
Mof_C 	C 	0.6373	0.2594	0.5409	0.082
Mof_H 	H 	0.6401	0.2744	0.5081	0.001
Mof_C 	C 	0.8204	0.7871	0.5216	0.104
Mof_H 	H 	0.7348	0.7706	0.4978	0.004
Mof_C 	C 	0.5544	0.2841	0.6214	0.065
Mof_H 	H 	0.5004	0.3156	0.6428	0.019
Mof_C 	C 	0.6251	0.2135	0.6378	-0.13
Mof_H 	H 	0.619	0.1984	0.6705	0.072
Mof_C 	C 	0.0867	0.0017	0.91138	0.477
Mof_C 	C 	0.9732	0.6589	0.5078	0.5
Mof_C 	C 	0.0467	0.0033	0.8555	-0.213
Mof_C 	C 	0.5618	0.3097	0.5726	-0.155
Mof_C 	C 	0.0923	0.7675	0.5656	0.104
Mof_H 	H 	0.1912	0.7384	0.5706	-0.02
Mof_C 	C 	0.9729	0.0096	0.7529	0.09
Mof_C 	C 	0.9294	0.8826	0.5839	0.081
Mof_C 	C 	0.7078	0.1623	0.607	0.059
Mof_C 	C 	0.9055	0.9543	0.6159	0.014
Mof_C 	C 	0.8038	0.8577	0.5471	-0.16
Mof_H 	H 	0.7085	0.889	0.5397	0.084
Mof_C 	C 	0.9272	0.0139	0.6979	0.01
Mof_C 	C 	0.7924	0.0878	0.6267	0.022
Mof_C 	C 	0.821	0.024	0.5961	-0.089
Mof_H 	H 	0.7848	0.0268	0.5624	0.059
Mof_C 	C 	0.7079	0.1877	0.5575	-0.137
Mof_H 	H 	0.7569	0.1552	0.5354	0.079
Mof_C 	C 	0.8516	0.0236	0.7835	-0.179
Mof_H 	H 	0.7437	0.0357	0.7694	0.089
Mof_C 	C 	0.1339	0.9911	0.774	-0.165
Mof_H 	H 	0.2168	0.98	0.7539	0.086
Mof_C 	C 	0.0753	0.8371	0.5925	-0.164
Mof_H 	H 	0.1612	0.8533	0.6163	0.083
Mof_C 	C 	0.8854	0.0205	0.8352	0.129
Mof_H 	H 	0.8014	0.0297	0.8553	-0.037
Mof_C 	C 	0.1716	0.9892	0.8257	0.108
Mof_H 	H 	0.2801	0.9785	0.8399	-0.005
Mof_C 	C 	0.8466	0.0818	0.6778	-0.088
Mof_H 	H 	0.8278	0.1243	0.6985	0.059
Mof_C 	C 	0.9592	0.9504	0.6666	-0.082
Mof_H 	H 	0.0164	0.9054	0.6797	0.058
Mof_O 	O 	0.2387	0.9963	0.92784	-0.194
Mof_O 	O 	0.219	0.033	0.9414	-0.368
_end
