data_functionalizedCrystal
_audit_creation_method	'EQeq! by Chris Wilmer'
_symmetry_space_group_name_H-M	'P1'
_symmetry_Int_Tables_number	1
_symmetry_cell_setting	triclinic
loop_
_symmetry_equiv_pos_as_xyz
  x,y,z
_cell_length_a	14.6814
_cell_length_b	24.2887
_cell_length_c	9.9609
_cell_angle_alpha	90
_cell_angle_beta	98.392
_cell_angle_gamma	90
loop_
_atom_site_label
_atom_site_type_symbol
_atom_site_fract_x
_atom_site_fract_y
_atom_site_fract_z
_atom_site_charge
Mof_Zn	Zn	0.4271	0.12449	0.12505	1.165
Mof_Zn	Zn	0.1994	0.18591	0.5624	1.17
Mof_C 	C 	0.059	0.04948	0.6567	-0.123
Mof_C 	C 	0.9833	0.04932	0.7263	0.079
Mof_H 	H 	0.9578	0.0824	0.7492	0.022
Mof_C 	C 	0.1014	0.10277	0.6215	0.341
Mof_O 	O 	0.1626	0.10219	0.5467	-0.445
Mof_O 	O 	0.0772	0.14715	0.6696	-0.404
Mof_O 	O 	0.8567	0.0502	0.9291	-0.276
Mof_N 	N 	0.5582	0.15048	0.1582	-0.279
Mof_N 	N 	0.62	0.14039	0.0678	-0.294
Mof_N 	N 	0.6991	0.1665	0.2652	-0.281
Mof_C 	C 	0.7028	0.15003	0.1363	0.195
Mof_C 	C 	0.6085	0.16577	0.2716	0.094
Mof_H 	H 	0.5837	0.1752	0.3492	-0.057
Mof_C 	C 	0.3669	0.22106	0.274	0.094
Mof_H 	H 	0.3969	0.2451	0.2224	-0.052
Mof_N 	N 	0.3638	0.16617	0.2552	-0.325
Mof_N 	N 	0.2886	0.18956	0.4238	-0.283
Mof_C 	C 	0.315	0.14845	0.351	0.195
Mof_N 	N 	0.3231	0.23696	0.3728	-0.271
Mof_N 	N 	0.4325	0.04515	0.1617	-0.312
Mof_N 	N 	0.7828	0.1443	0.0811	-0.342
Mof_H 	H 	0.7807	0.134	0.9981	0.146
Mof_H 	H 	0.8351	0.1511	0.1296	0.162
Mof_N 	N 	0.3021	0.0955	0.378	-0.355
Mof_H 	H 	0.2752	0.0864	0.446	0.166
Mof_H 	H 	0.3206	0.0703	0.3275	0.157
Mof_C 	C 	0.4819	0.0262	0.2861	0.033
Mof_N 	N 	0.4819	0.9738	0.2861	-0.105
Mof_Zn	Zn	0.9271	0.62449	0.12505	1.165
Mof_Zn	Zn	0.6994	0.68591	0.5624	1.17
Mof_C 	C 	0.559	0.54948	0.6567	-0.122
Mof_C 	C 	0.4833	0.54932	0.7263	0.075
Mof_H 	H 	0.4578	0.5824	0.7492	0.024
Mof_C 	C 	0.6014	0.60277	0.6215	0.342
Mof_O 	O 	0.6626	0.60219	0.5467	-0.444
Mof_O 	O 	0.5772	0.64715	0.6696	-0.403
Mof_O 	O 	0.3567	0.5502	0.9291	-0.278
Mof_N 	N 	0.0582	0.65048	0.1582	-0.277
Mof_N 	N 	0.12	0.64039	0.0678	-0.292
Mof_N 	N 	0.1991	0.6665	0.2652	-0.281
Mof_C 	C 	0.2028	0.65003	0.1363	0.196
Mof_C 	C 	0.1085	0.66577	0.2716	0.094
Mof_H 	H 	0.0837	0.6752	0.3492	-0.057
Mof_C 	C 	0.8669	0.72106	0.274	0.094
Mof_H 	H 	0.8969	0.7451	0.2224	-0.053
Mof_N 	N 	0.8638	0.66617	0.2552	-0.325
Mof_N 	N 	0.7886	0.68956	0.4238	-0.283
Mof_C 	C 	0.815	0.64845	0.351	0.195
Mof_N 	N 	0.8231	0.73696	0.3728	-0.271
Mof_N 	N 	0.9325	0.54515	0.1617	-0.316
Mof_N 	N 	0.2828	0.6443	0.0811	-0.338
Mof_H 	H 	0.2807	0.634	0.9981	0.142
Mof_H 	H 	0.3351	0.6511	0.1296	0.162
Mof_N 	N 	0.8021	0.5955	0.378	-0.355
Mof_H 	H 	0.7752	0.5864	0.446	0.167
Mof_H 	H 	0.8206	0.5703	0.3275	0.158
Mof_C 	C 	0.9819	0.5262	0.2861	0.046
Mof_N 	N 	0.9819	0.4738	0.2861	-0.116
Mof_Zn	Zn	0.5729	0.12449	0.87495	1.166
Mof_Zn	Zn	0.8006	0.18591	0.4376	1.171
Mof_C 	C 	0.941	0.04948	0.3433	-0.122
Mof_C 	C 	0.0167	0.04932	0.2737	0.08
Mof_H 	H 	0.0422	0.0824	0.2508	0.023
Mof_C 	C 	0.8986	0.10277	0.3785	0.342
Mof_O 	O 	0.8374	0.10219	0.4533	-0.444
Mof_O 	O 	0.9228	0.14715	0.3304	-0.403
Mof_O 	O 	0.1433	0.0502	0.0709	-0.275
Mof_N 	N 	0.4418	0.15048	0.8418	-0.278
Mof_N 	N 	0.38	0.14039	0.9322	-0.294
Mof_N 	N 	0.3009	0.1665	0.7348	-0.281
Mof_C 	C 	0.2972	0.15003	0.8637	0.195
Mof_C 	C 	0.3915	0.16577	0.7284	0.094
Mof_H 	H 	0.4163	0.1752	0.6508	-0.057
Mof_C 	C 	0.6331	0.22106	0.726	0.094
Mof_H 	H 	0.6031	0.2451	0.7776	-0.052
Mof_N 	N 	0.6362	0.16617	0.7448	-0.325
Mof_N 	N 	0.7114	0.18956	0.5762	-0.283
Mof_C 	C 	0.685	0.14845	0.649	0.195
Mof_N 	N 	0.6769	0.23696	0.6272	-0.271
Mof_N 	N 	0.5675	0.04515	0.8383	-0.312
Mof_N 	N 	0.2172	0.1443	0.9189	-0.342
Mof_H 	H 	0.2193	0.134	0.0019	0.146
Mof_H 	H 	0.1649	0.1511	0.8704	0.162
Mof_N 	N 	0.6979	0.0955	0.622	-0.355
Mof_H 	H 	0.7248	0.0864	0.554	0.166
Mof_H 	H 	0.6794	0.0703	0.6725	0.157
Mof_C 	C 	0.5181	0.0262	0.7139	0.033
Mof_N 	N 	0.5181	0.9738	0.7139	-0.105
Mof_Zn	Zn	0.0729	0.62449	0.87495	1.165
Mof_Zn	Zn	0.3006	0.68591	0.4376	1.17
Mof_C 	C 	0.441	0.54948	0.3433	-0.122
Mof_C 	C 	0.5167	0.54932	0.2737	0.075
Mof_H 	H 	0.5422	0.5824	0.2508	0.024
Mof_C 	C 	0.3986	0.60277	0.3785	0.342
Mof_O 	O 	0.3374	0.60219	0.4533	-0.444
Mof_O 	O 	0.4228	0.64715	0.3304	-0.403
Mof_O 	O 	0.6433	0.5502	0.0709	-0.278
Mof_N 	N 	0.9418	0.65048	0.8418	-0.277
Mof_N 	N 	0.88	0.64039	0.9322	-0.292
Mof_N 	N 	0.8009	0.6665	0.7348	-0.281
Mof_C 	C 	0.7972	0.65003	0.8637	0.196
Mof_C 	C 	0.8915	0.66577	0.7284	0.094
Mof_H 	H 	0.9163	0.6752	0.6508	-0.057
Mof_C 	C 	0.1331	0.72106	0.726	0.094
Mof_H 	H 	0.1031	0.7451	0.7776	-0.053
Mof_N 	N 	0.1362	0.66617	0.7448	-0.325
Mof_N 	N 	0.2114	0.68956	0.5762	-0.283
Mof_C 	C 	0.185	0.64845	0.649	0.195
Mof_N 	N 	0.1769	0.73696	0.6272	-0.271
Mof_N 	N 	0.0675	0.54515	0.8383	-0.316
Mof_N 	N 	0.7172	0.6443	0.9189	-0.338
Mof_H 	H 	0.7193	0.634	0.0019	0.142
Mof_H 	H 	0.6649	0.6511	0.8704	0.162
Mof_N 	N 	0.1979	0.5955	0.622	-0.355
Mof_H 	H 	0.2248	0.5864	0.554	0.167
Mof_H 	H 	0.1794	0.5703	0.6725	0.158
Mof_C 	C 	0.0181	0.5262	0.7139	0.046
Mof_N 	N 	0.0181	0.4738	0.7139	-0.116
Mof_Zn	Zn	0.5729	0.87551	0.87495	1.168
Mof_Zn	Zn	0.8006	0.81409	0.4376	1.171
Mof_C 	C 	0.941	0.95052	0.3433	-0.111
Mof_C 	C 	0.0167	0.95068	0.2737	0.094
Mof_H 	H 	0.0422	0.9176	0.2508	0.019
Mof_C 	C 	0.8986	0.89723	0.3785	0.34
Mof_O 	O 	0.8374	0.89781	0.4533	-0.44
Mof_O 	O 	0.9228	0.85285	0.3304	-0.403
Mof_O 	O 	0.1433	0.9498	0.0709	-0.263
Mof_N 	N 	0.4418	0.84952	0.8418	-0.275
Mof_N 	N 	0.38	0.85961	0.9322	-0.292
Mof_N 	N 	0.3009	0.8335	0.7348	-0.281
Mof_C 	C 	0.2972	0.84997	0.8637	0.197
Mof_C 	C 	0.3915	0.83423	0.7284	0.097
Mof_H 	H 	0.4163	0.8248	0.6508	-0.055
Mof_C 	C 	0.6331	0.77894	0.726	0.094
Mof_H 	H 	0.6031	0.7549	0.7776	-0.052
Mof_N 	N 	0.6362	0.83383	0.7448	-0.324
Mof_N 	N 	0.7114	0.81044	0.5762	-0.283
Mof_C 	C 	0.685	0.85155	0.649	0.199
Mof_N 	N 	0.6769	0.76304	0.6272	-0.271
Mof_N 	N 	0.5675	0.95485	0.8383	-0.276
Mof_N 	N 	0.2172	0.8557	0.9189	-0.342
Mof_H 	H 	0.2193	0.866	0.0019	0.147
Mof_H 	H 	0.1649	0.8489	0.8704	0.162
Mof_N 	N 	0.6979	0.9045	0.622	-0.358
Mof_H 	H 	0.7248	0.9136	0.554	0.173
Mof_H 	H 	0.6794	0.9297	0.6725	0.168
Mof_Zn	Zn	0.0729	0.37551	0.87495	1.166
Mof_Zn	Zn	0.3006	0.31409	0.4376	1.171
Mof_C 	C 	0.441	0.45052	0.3433	-0.121
Mof_C 	C 	0.5167	0.45068	0.2737	0.075
Mof_H 	H 	0.5422	0.4176	0.2508	0.024
Mof_C 	C 	0.3986	0.39723	0.3785	0.342
Mof_O 	O 	0.3374	0.39781	0.4533	-0.444
Mof_O 	O 	0.4228	0.35285	0.3304	-0.403
Mof_O 	O 	0.6433	0.4498	0.0709	-0.278
Mof_N 	N 	0.9418	0.34952	0.8418	-0.274
Mof_N 	N 	0.88	0.35961	0.9322	-0.292
Mof_N 	N 	0.8009	0.3335	0.7348	-0.281
Mof_C 	C 	0.7972	0.34997	0.8637	0.196
Mof_C 	C 	0.8915	0.33423	0.7284	0.097
Mof_H 	H 	0.9163	0.3248	0.6508	-0.055
Mof_C 	C 	0.1331	0.27894	0.726	0.094
Mof_H 	H 	0.1031	0.2549	0.7776	-0.053
Mof_N 	N 	0.1362	0.33383	0.7448	-0.324
Mof_N 	N 	0.2114	0.31044	0.5762	-0.283
Mof_C 	C 	0.185	0.35155	0.649	0.198
Mof_N 	N 	0.1769	0.26304	0.6272	-0.271
Mof_N 	N 	0.0675	0.45485	0.8383	-0.286
Mof_N 	N 	0.7172	0.3557	0.9189	-0.338
Mof_H 	H 	0.7193	0.366	0.0019	0.142
Mof_H 	H 	0.6649	0.3489	0.8704	0.162
Mof_N 	N 	0.1979	0.4045	0.622	-0.356
Mof_H 	H 	0.2248	0.4136	0.554	0.169
Mof_H 	H 	0.1794	0.4297	0.6725	0.164
Mof_Zn	Zn	0.4271	0.87551	0.12505	1.168
Mof_Zn	Zn	0.1994	0.81409	0.5624	1.171
Mof_C 	C 	0.059	0.95052	0.6567	-0.111
Mof_C 	C 	0.9833	0.95068	0.7263	0.094
Mof_H 	H 	0.9578	0.9176	0.7492	0.019
Mof_C 	C 	0.1014	0.89723	0.6215	0.34
Mof_O 	O 	0.1626	0.89781	0.5467	-0.44
Mof_O 	O 	0.0772	0.85285	0.6696	-0.403
Mof_O 	O 	0.8567	0.9498	0.9291	-0.263
Mof_N 	N 	0.5582	0.84952	0.1582	-0.275
Mof_N 	N 	0.62	0.85961	0.0678	-0.292
Mof_N 	N 	0.6991	0.8335	0.2652	-0.281
Mof_C 	C 	0.7028	0.84997	0.1363	0.197
Mof_C 	C 	0.6085	0.83423	0.2716	0.097
Mof_H 	H 	0.5837	0.8248	0.3492	-0.055
Mof_C 	C 	0.3669	0.77894	0.274	0.094
Mof_H 	H 	0.3969	0.7549	0.2224	-0.052
Mof_N 	N 	0.3638	0.83383	0.2552	-0.324
Mof_N 	N 	0.2886	0.81044	0.4238	-0.283
Mof_C 	C 	0.315	0.85155	0.351	0.199
Mof_N 	N 	0.3231	0.76304	0.3728	-0.271
Mof_N 	N 	0.4325	0.95485	0.1617	-0.276
Mof_N 	N 	0.7828	0.8557	0.0811	-0.342
Mof_H 	H 	0.7807	0.866	0.9981	0.147
Mof_H 	H 	0.8351	0.8489	0.1296	0.162
Mof_N 	N 	0.3021	0.9045	0.378	-0.358
Mof_H 	H 	0.2752	0.9136	0.446	0.173
Mof_H 	H 	0.3206	0.9297	0.3275	0.168
Mof_Zn	Zn	0.9271	0.37551	0.12505	1.166
Mof_Zn	Zn	0.6994	0.31409	0.5624	1.171
Mof_C 	C 	0.559	0.45052	0.6567	-0.121
Mof_C 	C 	0.4833	0.45068	0.7263	0.075
Mof_H 	H 	0.4578	0.4176	0.7492	0.024
Mof_C 	C 	0.6014	0.39723	0.6215	0.342
Mof_O 	O 	0.6626	0.39781	0.5467	-0.444
Mof_O 	O 	0.5772	0.35285	0.6696	-0.403
Mof_O 	O 	0.3567	0.4498	0.9291	-0.278
Mof_N 	N 	0.0582	0.34952	0.1582	-0.274
Mof_N 	N 	0.12	0.35961	0.0678	-0.292
Mof_N 	N 	0.1991	0.3335	0.2652	-0.281
Mof_C 	C 	0.2028	0.34997	0.1363	0.196
Mof_C 	C 	0.1085	0.33423	0.2716	0.097
Mof_H 	H 	0.0837	0.3248	0.3492	-0.055
Mof_C 	C 	0.8669	0.27894	0.274	0.094
Mof_H 	H 	0.8969	0.2549	0.2224	-0.053
Mof_N 	N 	0.8638	0.33383	0.2552	-0.324
Mof_N 	N 	0.7886	0.31044	0.4238	-0.283
Mof_C 	C 	0.815	0.35155	0.351	0.198
Mof_N 	N 	0.8231	0.26304	0.3728	-0.271
Mof_N 	N 	0.9325	0.45485	0.1617	-0.286
Mof_N 	N 	0.2828	0.3557	0.0811	-0.338
Mof_H 	H 	0.2807	0.366	0.9981	0.142
Mof_H 	H 	0.3351	0.3489	0.1296	0.162
Mof_N 	N 	0.8021	0.4045	0.378	-0.356
Mof_H 	H 	0.7752	0.4136	0.446	0.169
Mof_H 	H 	0.8206	0.4297	0.3275	0.164
Mof_S 	S 	0.85032	0	0.8517	0.515
Mof_C 	C 	0.9462	0	0.7614	-0.134
Mof_C 	C 	0.0962	0	0.621	0.047
Mof_H 	H 	0.1461	0	0.5732	0.041
Mof_O 	O 	0.7702	0	0.7519	-0.301
Mof_C 	C 	0.4086	4.48989e-34	0.0968	0.173
Mof_N 	N 	0.3554	3.59191e-33	0.9684	-0.167
Mof_S 	S 	0.35032	0.5	0.8517	0.531
Mof_C 	C 	0.4462	0.5	0.7614	-0.118
Mof_C 	C 	0.5962	0.5	0.621	0.067
Mof_H 	H 	0.6461	0.5	0.5732	0.039
Mof_O 	O 	0.2702	0.5	0.7519	-0.298
Mof_C 	C 	0.9086	0.5	0.0968	0.183
Mof_N 	N 	0.8554	0.5	0.9684	-0.161
Mof_S 	S 	0.14968	8.97977e-34	0.1483	0.515
Mof_C 	C 	0.0538	0	0.2386	-0.134
Mof_C 	C 	0.9038	0	0.379	0.047
Mof_H 	H 	0.8539	1.79595e-33	0.4268	0.041
Mof_O 	O 	0.2298	8.97977e-34	0.2481	-0.301
Mof_C 	C 	0.5914	-3.59191e-33	0.9032	0.173
Mof_N 	N 	0.6446	0	0.0316	-0.167
Mof_S 	S 	0.64968	0.5	0.1483	0.531
Mof_C 	C 	0.5538	0.5	0.2386	-0.118
Mof_C 	C 	0.4038	0.5	0.379	0.067
Mof_H 	H 	0.3539	0.5	0.4268	0.039
Mof_O 	O 	0.7298	0.5	0.2481	-0.298
Mof_C 	C 	0.0914	0.5	0.9032	0.183
Mof_N 	N 	0.1446	0.5	0.0316	-0.161
_end
