data_functionalizedCrystal
_audit_creation_method	'EQeq! by Chris Wilmer'
_symmetry_space_group_name_H-M	'P1'
_symmetry_Int_Tables_number	1
_symmetry_cell_setting	triclinic
loop_
_symmetry_equiv_pos_as_xyz
  x,y,z
_cell_length_a	8.197
_cell_length_b	8.7136
_cell_length_c	12.1356
_cell_angle_alpha	74.6923
_cell_angle_beta	70.2616
_cell_angle_gamma	61.9424
loop_
_atom_site_label
_atom_site_type_symbol
_atom_site_fract_x
_atom_site_fract_y
_atom_site_fract_z
_atom_site_charge
Mof_Mn	Mn	0.07756	0.75	0.25	0.812
Mof_Mn	Mn	0.92244	0.25	0.75	0.861
Mof_H 	H 	0.494	0.831	0.617	0.16
Mof_H 	H 	0.37	0.025	0.605	0.169
Mof_H 	H 	0.942	0.669	0.883	0.161
Mof_H 	H 	3.9796e-17	0.475	0.895	0.156
Mof_H 	H 	0.506	0.169	0.383	0.159
Mof_H 	H 	0.63	0.975	0.395	0.171
Mof_H 	H 	0.058	0.331	0.117	0.154
Mof_H 	H 	6.21813e-18	0.525	0.105	0.16
Mof_C 	C 	0.30956	0.91838	0.7579	0.329
Mof_C 	C 	0.3634	0.7554	0.8334	-0.24
Mof_C 	C 	0.26789	0.75142	0.9534	0.168
Mof_C 	C 	0.51331	0.59998	0.7914	0.155
Mof_C 	C 	0.98584	0.58162	0.7421	0.354
Mof_C 	C 	0.9522	0.7446	0.6666	-0.245
Mof_C 	C 	0.97271	0.74858	0.5466	0.181
Mof_C 	C 	0.90469	0.90002	0.7086	0.164
Mof_C 	C 	0.69044	0.08162	0.2421	0.329
Mof_C 	C 	0.6366	0.2446	0.1666	-0.236
Mof_C 	C 	0.73211	0.24858	0.0466	0.175
Mof_C 	C 	0.48669	0.40002	0.2086	0.156
Mof_C 	C 	0.01416	0.41838	0.2579	0.305
Mof_C 	C 	0.0478	0.2554	0.3334	-0.231
Mof_C 	C 	0.02729	0.25142	0.4534	0.161
Mof_C 	C 	0.09531	0.09998	0.2914	0.148
Mof_N 	N 	0.3971	0.9242	0.645	-0.375
Mof_N 	N 	0.19149	0.74682	0.0518	-0.216
Mof_N 	N 	0.63571	0.47331	0.75607	-0.22
Mof_N 	N 	0.9663	0.5758	0.855	-0.366
Mof_N 	N 	0.99011	0.75318	0.4482	-0.208
Mof_N 	N 	0.86509	0.02669	0.74393	-0.221
Mof_N 	N 	0.6029	0.0758	0.355	-0.374
Mof_N 	N 	0.80851	0.25318	0.9482	-0.213
Mof_N 	N 	0.36429	0.52669	0.24393	-0.219
Mof_N 	N 	0.0337	0.4242	0.145	-0.366
Mof_N 	N 	0.00989	0.24682	0.5518	-0.22
Mof_N 	N 	0.13491	0.97331	0.25607	-0.22
Mof_O 	O 	0.17969	0.05703	0.80019	-0.363
Mof_O 	O 	0.03691	0.44297	0.69981	-0.38
Mof_O 	O 	0.82031	0.94297	0.19981	-0.344
Mof_O 	O 	0.96309	0.55703	0.30019	-0.331
_end
