data_functionalizedCrystal
_audit_creation_method	'EQeq! by Chris Wilmer'
_symmetry_space_group_name_H-M	'P1'
_symmetry_Int_Tables_number	1
_symmetry_cell_setting	triclinic
loop_
_symmetry_equiv_pos_as_xyz
  x,y,z
_cell_length_a	44.4742
_cell_length_b	44.4742
_cell_length_c	44.4742
_cell_angle_alpha	90
_cell_angle_beta	90
_cell_angle_gamma	90
loop_
_atom_site_label
_atom_site_type_symbol
_atom_site_fract_x
_atom_site_fract_y
_atom_site_fract_z
_atom_site_charge
Mof_O 	O 	0.1518	0.10747	0.0308	-0.412
Mof_O 	O 	0.18716	0.14352	0.03059	-0.433
Mof_N 	N 	0.27094	0.13891	0.10352	-0.135
Mof_N 	N 	0.29256	0.14567	0.12575	-0.189
Mof_C 	C 	0.21645	0.11625	0.07728	0.007
Mof_H 	H 	0.22654	0.13161	0.06731	0.039
Mof_C 	C 	0.19021	0.10528	0.06648	-0.097
Mof_C 	C 	0.17482	0.12091	0.04004	0.377
Mof_O 	O 	0.1518	0.60747	0.5308	-0.412
Mof_O 	O 	0.18716	0.64352	0.53059	-0.433
Mof_N 	N 	0.27094	0.63891	0.60352	-0.135
Mof_N 	N 	0.29256	0.64567	0.62575	-0.189
Mof_C 	C 	0.21645	0.61625	0.57728	0.005
Mof_H 	H 	0.22654	0.63161	0.56731	0.04
Mof_C 	C 	0.19021	0.60528	0.56648	-0.096
Mof_C 	C 	0.17482	0.62091	0.54004	0.376
Mof_O 	O 	0.6518	0.10747	0.5308	-0.412
Mof_O 	O 	0.68716	0.14352	0.53059	-0.433
Mof_N 	N 	0.77094	0.13891	0.60352	-0.135
Mof_N 	N 	0.79256	0.14567	0.62575	-0.189
Mof_C 	C 	0.71645	0.11625	0.57728	0.005
Mof_H 	H 	0.72654	0.13161	0.56731	0.04
Mof_C 	C 	0.69021	0.10528	0.56648	-0.096
Mof_C 	C 	0.67482	0.12091	0.54004	0.376
Mof_O 	O 	0.6518	0.60747	0.0308	-0.413
Mof_O 	O 	0.68716	0.64352	0.03059	-0.434
Mof_N 	N 	0.77094	0.63891	0.10352	-0.135
Mof_N 	N 	0.79256	0.64567	0.12575	-0.189
Mof_C 	C 	0.71645	0.61625	0.07728	0.005
Mof_H 	H 	0.72654	0.63161	0.06731	0.04
Mof_C 	C 	0.69021	0.60528	0.06648	-0.096
Mof_C 	C 	0.67482	0.62091	0.04004	0.376
Mof_O 	O 	0.8482	0.89253	0.0308	-0.412
Mof_O 	O 	0.81284	0.85648	0.03059	-0.434
Mof_N 	N 	0.72906	0.86109	0.10352	-0.135
Mof_N 	N 	0.70744	0.85433	0.12575	-0.189
Mof_C 	C 	0.78355	0.88375	0.07728	0.005
Mof_H 	H 	0.77346	0.86839	0.06731	0.04
Mof_C 	C 	0.80979	0.89472	0.06648	-0.096
Mof_C 	C 	0.82518	0.87909	0.04004	0.376
Mof_O 	O 	0.8482	0.39253	0.5308	-0.412
Mof_O 	O 	0.81284	0.35648	0.53059	-0.433
Mof_N 	N 	0.72906	0.36109	0.60352	-0.135
Mof_N 	N 	0.70744	0.35433	0.62575	-0.189
Mof_C 	C 	0.78355	0.38375	0.57728	0.005
Mof_H 	H 	0.77346	0.36839	0.56731	0.04
Mof_C 	C 	0.80979	0.39472	0.56648	-0.095
Mof_C 	C 	0.82518	0.37909	0.54004	0.376
Mof_O 	O 	0.3482	0.89253	0.5308	-0.411
Mof_O 	O 	0.31284	0.85648	0.53059	-0.433
Mof_N 	N 	0.22906	0.86109	0.60352	-0.135
Mof_N 	N 	0.20744	0.85433	0.62575	-0.189
Mof_C 	C 	0.28355	0.88375	0.57728	0.005
Mof_H 	H 	0.27346	0.86839	0.56731	0.04
Mof_C 	C 	0.30979	0.89472	0.56648	-0.095
Mof_C 	C 	0.32518	0.87909	0.54004	0.376
Mof_O 	O 	0.3482	0.39253	0.0308	-0.413
Mof_O 	O 	0.31284	0.35648	0.03059	-0.434
Mof_N 	N 	0.22906	0.36109	0.10352	-0.136
Mof_N 	N 	0.20744	0.35433	0.12575	-0.189
Mof_C 	C 	0.28355	0.38375	0.07728	0.005
Mof_H 	H 	0.27346	0.36839	0.06731	0.04
Mof_C 	C 	0.30979	0.39472	0.06648	-0.096
Mof_C 	C 	0.32518	0.37909	0.04004	0.376
Mof_O 	O 	0.8482	0.10747	0.9692	-0.41
Mof_O 	O 	0.81284	0.14352	0.96941	-0.431
Mof_N 	N 	0.72906	0.13891	0.89648	-0.135
Mof_N 	N 	0.70744	0.14567	0.87425	-0.189
Mof_C 	C 	0.78355	0.11625	0.92272	0.005
Mof_H 	H 	0.77346	0.13161	0.93269	0.041
Mof_C 	C 	0.80979	0.10528	0.93352	-0.095
Mof_C 	C 	0.82518	0.12091	0.95996	0.376
Mof_O 	O 	0.8482	0.60747	0.4692	-0.412
Mof_O 	O 	0.81284	0.64352	0.46941	-0.433
Mof_N 	N 	0.72906	0.63891	0.39648	-0.135
Mof_N 	N 	0.70744	0.64567	0.37425	-0.189
Mof_C 	C 	0.78355	0.61625	0.42272	0.005
Mof_H 	H 	0.77346	0.63161	0.43269	0.04
Mof_C 	C 	0.80979	0.60528	0.43352	-0.095
Mof_C 	C 	0.82518	0.62091	0.45996	0.376
Mof_O 	O 	0.3482	0.10747	0.4692	-0.412
Mof_O 	O 	0.31284	0.14352	0.46941	-0.433
Mof_N 	N 	0.22906	0.13891	0.39648	-0.135
Mof_N 	N 	0.20744	0.14567	0.37425	-0.189
Mof_C 	C 	0.28355	0.11625	0.42272	0.005
Mof_H 	H 	0.27346	0.13161	0.43269	0.04
Mof_C 	C 	0.30979	0.10528	0.43352	-0.096
Mof_C 	C 	0.32518	0.12091	0.45996	0.376
Mof_O 	O 	0.3482	0.60747	0.9692	-0.409
Mof_O 	O 	0.31284	0.64352	0.96941	-0.431
Mof_N 	N 	0.22906	0.63891	0.89648	-0.135
Mof_N 	N 	0.20744	0.64567	0.87425	-0.189
Mof_C 	C 	0.28355	0.61625	0.92272	0.005
Mof_H 	H 	0.27346	0.63161	0.93269	0.041
Mof_C 	C 	0.30979	0.60528	0.93352	-0.095
Mof_C 	C 	0.32518	0.62091	0.95996	0.376
Mof_O 	O 	0.1518	0.89253	0.9692	-0.409
Mof_O 	O 	0.18716	0.85648	0.96941	-0.431
Mof_N 	N 	0.27094	0.86109	0.89648	-0.135
Mof_N 	N 	0.29256	0.85433	0.87425	-0.189
Mof_C 	C 	0.21645	0.88375	0.92272	0.004
Mof_H 	H 	0.22654	0.86839	0.93269	0.041
Mof_C 	C 	0.19021	0.89472	0.93352	-0.094
Mof_C 	C 	0.17482	0.87909	0.95996	0.376
Mof_O 	O 	0.1518	0.39253	0.4692	-0.412
Mof_O 	O 	0.18716	0.35648	0.46941	-0.433
Mof_N 	N 	0.27094	0.36109	0.39648	-0.135
Mof_N 	N 	0.29256	0.35433	0.37425	-0.189
Mof_C 	C 	0.21645	0.38375	0.42272	0.005
Mof_H 	H 	0.22654	0.36839	0.43269	0.04
Mof_C 	C 	0.19021	0.39472	0.43352	-0.096
Mof_C 	C 	0.17482	0.37909	0.45996	0.376
Mof_O 	O 	0.6518	0.89253	0.4692	-0.411
Mof_O 	O 	0.68716	0.85648	0.46941	-0.433
Mof_N 	N 	0.77094	0.86109	0.39648	-0.135
Mof_N 	N 	0.79256	0.85433	0.37425	-0.189
Mof_C 	C 	0.71645	0.88375	0.42272	0.005
Mof_H 	H 	0.72654	0.86839	0.43269	0.04
Mof_C 	C 	0.69021	0.89472	0.43352	-0.095
Mof_C 	C 	0.67482	0.87909	0.45996	0.376
Mof_O 	O 	0.6518	0.39253	0.9692	-0.409
Mof_O 	O 	0.68716	0.35648	0.96941	-0.431
Mof_N 	N 	0.77094	0.36109	0.89648	-0.135
Mof_N 	N 	0.79256	0.35433	0.87425	-0.189
Mof_C 	C 	0.71645	0.38375	0.92272	0.005
Mof_H 	H 	0.72654	0.36839	0.93269	0.041
Mof_C 	C 	0.69021	0.39472	0.93352	-0.095
Mof_C 	C 	0.67482	0.37909	0.95996	0.376
Mof_O 	O 	0.0308	0.1518	0.10747	-0.413
Mof_O 	O 	0.03059	0.18716	0.14352	-0.434
Mof_N 	N 	0.10352	0.27094	0.13891	-0.136
Mof_N 	N 	0.12575	0.29256	0.14567	-0.19
Mof_C 	C 	0.07728	0.21645	0.11625	0.006
Mof_H 	H 	0.06731	0.22654	0.13161	0.039
Mof_C 	C 	0.06648	0.19021	0.10528	-0.097
Mof_C 	C 	0.04004	0.17482	0.12091	0.377
Mof_O 	O 	0.0308	0.6518	0.60747	-0.413
Mof_O 	O 	0.03059	0.68716	0.64352	-0.434
Mof_N 	N 	0.10352	0.77094	0.63891	-0.135
Mof_N 	N 	0.12575	0.79256	0.64567	-0.189
Mof_C 	C 	0.07728	0.71645	0.61625	0.005
Mof_H 	H 	0.06731	0.72654	0.63161	0.04
Mof_C 	C 	0.06648	0.69021	0.60528	-0.096
Mof_C 	C 	0.04004	0.67482	0.62091	0.376
Mof_O 	O 	0.5308	0.1518	0.60747	-0.412
Mof_O 	O 	0.53059	0.18716	0.64352	-0.433
Mof_N 	N 	0.60352	0.27094	0.63891	-0.135
Mof_N 	N 	0.62575	0.29256	0.64567	-0.189
Mof_C 	C 	0.57728	0.21645	0.61625	0.005
Mof_H 	H 	0.56731	0.22654	0.63161	0.04
Mof_C 	C 	0.56648	0.19021	0.60528	-0.096
Mof_C 	C 	0.54004	0.17482	0.62091	0.376
Mof_O 	O 	0.5308	0.6518	0.10747	-0.412
Mof_O 	O 	0.53059	0.68716	0.14352	-0.433
Mof_N 	N 	0.60352	0.77094	0.13891	-0.135
Mof_N 	N 	0.62575	0.79256	0.14567	-0.189
Mof_C 	C 	0.57728	0.71645	0.11625	0.005
Mof_H 	H 	0.56731	0.72654	0.13161	0.04
Mof_C 	C 	0.56648	0.69021	0.10528	-0.096
Mof_C 	C 	0.54004	0.67482	0.12091	0.376
Mof_O 	O 	0.0308	0.8482	0.89253	-0.412
Mof_O 	O 	0.03059	0.81284	0.85648	-0.434
Mof_N 	N 	0.10352	0.72906	0.86109	-0.135
Mof_N 	N 	0.12575	0.70744	0.85433	-0.189
Mof_C 	C 	0.07728	0.78355	0.88375	0.005
Mof_H 	H 	0.06731	0.77346	0.86839	0.04
Mof_C 	C 	0.06648	0.80979	0.89472	-0.096
Mof_C 	C 	0.04004	0.82518	0.87909	0.376
Mof_O 	O 	0.0308	0.3482	0.39253	-0.413
Mof_O 	O 	0.03059	0.31284	0.35648	-0.434
Mof_N 	N 	0.10352	0.22906	0.36109	-0.136
Mof_N 	N 	0.12575	0.20744	0.35433	-0.189
Mof_C 	C 	0.07728	0.28355	0.38375	0.005
Mof_H 	H 	0.06731	0.27346	0.36839	0.04
Mof_C 	C 	0.06648	0.30979	0.39472	-0.096
Mof_C 	C 	0.04004	0.32518	0.37909	0.376
Mof_O 	O 	0.5308	0.8482	0.39253	-0.412
Mof_O 	O 	0.53059	0.81284	0.35648	-0.433
Mof_N 	N 	0.60352	0.72906	0.36109	-0.135
Mof_N 	N 	0.62575	0.70744	0.35433	-0.189
Mof_C 	C 	0.57728	0.78355	0.38375	0.005
Mof_H 	H 	0.56731	0.77346	0.36839	0.04
Mof_C 	C 	0.56648	0.80979	0.39472	-0.095
Mof_C 	C 	0.54004	0.82518	0.37909	0.376
Mof_O 	O 	0.5308	0.3482	0.89253	-0.411
Mof_O 	O 	0.53059	0.31284	0.85648	-0.433
Mof_N 	N 	0.60352	0.22906	0.86109	-0.135
Mof_N 	N 	0.62575	0.20744	0.85433	-0.189
Mof_C 	C 	0.57728	0.28355	0.88375	0.005
Mof_H 	H 	0.56731	0.27346	0.86839	0.04
Mof_C 	C 	0.56648	0.30979	0.89472	-0.095
Mof_C 	C 	0.54004	0.32518	0.87909	0.376
Mof_O 	O 	0.9692	0.8482	0.10747	-0.41
Mof_O 	O 	0.96941	0.81284	0.14352	-0.431
Mof_N 	N 	0.89648	0.72906	0.13891	-0.135
Mof_N 	N 	0.87425	0.70744	0.14567	-0.189
Mof_C 	C 	0.92272	0.78355	0.11625	0.005
Mof_H 	H 	0.93269	0.77346	0.13161	0.041
Mof_C 	C 	0.93352	0.80979	0.10528	-0.095
Mof_C 	C 	0.95996	0.82518	0.12091	0.376
Mof_O 	O 	0.9692	0.3482	0.60747	-0.409
Mof_O 	O 	0.96941	0.31284	0.64352	-0.431
Mof_N 	N 	0.89648	0.22906	0.63891	-0.135
Mof_N 	N 	0.87425	0.20744	0.64567	-0.189
Mof_C 	C 	0.92272	0.28355	0.61625	0.005
Mof_H 	H 	0.93269	0.27346	0.63161	0.041
Mof_C 	C 	0.93352	0.30979	0.60528	-0.095
Mof_C 	C 	0.95996	0.32518	0.62091	0.376
Mof_O 	O 	0.4692	0.8482	0.60747	-0.412
Mof_O 	O 	0.46941	0.81284	0.64352	-0.433
Mof_N 	N 	0.39648	0.72906	0.63891	-0.135
Mof_N 	N 	0.37425	0.70744	0.64567	-0.189
Mof_C 	C 	0.42272	0.78355	0.61625	0.005
Mof_H 	H 	0.43269	0.77346	0.63161	0.04
Mof_C 	C 	0.43352	0.80979	0.60528	-0.095
Mof_C 	C 	0.45996	0.82518	0.62091	0.376
Mof_O 	O 	0.4692	0.3482	0.10747	-0.412
Mof_O 	O 	0.46941	0.31284	0.14352	-0.433
Mof_N 	N 	0.39648	0.22906	0.13891	-0.135
Mof_N 	N 	0.37425	0.20744	0.14567	-0.189
Mof_C 	C 	0.42272	0.28355	0.11625	0.005
Mof_H 	H 	0.43269	0.27346	0.13161	0.04
Mof_C 	C 	0.43352	0.30979	0.10528	-0.096
Mof_C 	C 	0.45996	0.32518	0.12091	0.376
Mof_O 	O 	0.9692	0.1518	0.89253	-0.409
Mof_O 	O 	0.96941	0.18716	0.85648	-0.431
Mof_N 	N 	0.89648	0.27094	0.86109	-0.135
Mof_N 	N 	0.87425	0.29256	0.85433	-0.189
Mof_C 	C 	0.92272	0.21645	0.88375	0.004
Mof_H 	H 	0.93269	0.22654	0.86839	0.041
Mof_C 	C 	0.93352	0.19021	0.89472	-0.094
Mof_C 	C 	0.95996	0.17482	0.87909	0.376
Mof_O 	O 	0.9692	0.6518	0.39253	-0.409
Mof_O 	O 	0.96941	0.68716	0.35648	-0.431
Mof_N 	N 	0.89648	0.77094	0.36109	-0.135
Mof_N 	N 	0.87425	0.79256	0.35433	-0.189
Mof_C 	C 	0.92272	0.71645	0.38375	0.005
Mof_H 	H 	0.93269	0.72654	0.36839	0.041
Mof_C 	C 	0.93352	0.69021	0.39472	-0.095
Mof_C 	C 	0.95996	0.67482	0.37909	0.376
Mof_O 	O 	0.4692	0.1518	0.39253	-0.412
Mof_O 	O 	0.46941	0.18716	0.35648	-0.433
Mof_N 	N 	0.39648	0.27094	0.36109	-0.135
Mof_N 	N 	0.37425	0.29256	0.35433	-0.189
Mof_C 	C 	0.42272	0.21645	0.38375	0.005
Mof_H 	H 	0.43269	0.22654	0.36839	0.04
Mof_C 	C 	0.43352	0.19021	0.39472	-0.096
Mof_C 	C 	0.45996	0.17482	0.37909	0.376
Mof_O 	O 	0.4692	0.6518	0.89253	-0.411
Mof_O 	O 	0.46941	0.68716	0.85648	-0.433
Mof_N 	N 	0.39648	0.77094	0.86109	-0.135
Mof_N 	N 	0.37425	0.79256	0.85433	-0.189
Mof_C 	C 	0.42272	0.71645	0.88375	0.005
Mof_H 	H 	0.43269	0.72654	0.86839	0.04
Mof_C 	C 	0.43352	0.69021	0.89472	-0.095
Mof_C 	C 	0.45996	0.67482	0.87909	0.376
Mof_O 	O 	0.10747	0.0308	0.1518	-0.413
Mof_O 	O 	0.14352	0.03059	0.18716	-0.434
Mof_N 	N 	0.13891	0.10352	0.27094	-0.136
Mof_N 	N 	0.14567	0.12575	0.29256	-0.19
Mof_C 	C 	0.11625	0.07728	0.21645	0.006
Mof_H 	H 	0.13161	0.06731	0.22654	0.039
Mof_C 	C 	0.10528	0.06648	0.19021	-0.097
Mof_C 	C 	0.12091	0.04004	0.17482	0.377
Mof_O 	O 	0.10747	0.5308	0.6518	-0.412
Mof_O 	O 	0.14352	0.53059	0.68716	-0.433
Mof_N 	N 	0.13891	0.60352	0.77094	-0.135
Mof_N 	N 	0.14567	0.62575	0.79256	-0.189
Mof_C 	C 	0.11625	0.57728	0.71645	0.005
Mof_H 	H 	0.13161	0.56731	0.72654	0.04
Mof_C 	C 	0.10528	0.56648	0.69021	-0.096
Mof_C 	C 	0.12091	0.54004	0.67482	0.376
Mof_O 	O 	0.60747	0.0308	0.6518	-0.413
Mof_O 	O 	0.64352	0.03059	0.68716	-0.434
Mof_N 	N 	0.63891	0.10352	0.77094	-0.135
Mof_N 	N 	0.64567	0.12575	0.79256	-0.189
Mof_C 	C 	0.61625	0.07728	0.71645	0.005
Mof_H 	H 	0.63161	0.06731	0.72654	0.04
Mof_C 	C 	0.60528	0.06648	0.69021	-0.096
Mof_C 	C 	0.62091	0.04004	0.67482	0.376
Mof_O 	O 	0.60747	0.5308	0.1518	-0.412
Mof_O 	O 	0.64352	0.53059	0.18716	-0.433
Mof_N 	N 	0.63891	0.60352	0.27094	-0.135
Mof_N 	N 	0.64567	0.62575	0.29256	-0.189
Mof_C 	C 	0.61625	0.57728	0.21645	0.005
Mof_H 	H 	0.63161	0.56731	0.22654	0.04
Mof_C 	C 	0.60528	0.56648	0.19021	-0.096
Mof_C 	C 	0.62091	0.54004	0.17482	0.376
Mof_O 	O 	0.89253	0.0308	0.8482	-0.412
Mof_O 	O 	0.85648	0.03059	0.81284	-0.434
Mof_N 	N 	0.86109	0.10352	0.72906	-0.135
Mof_N 	N 	0.85433	0.12575	0.70744	-0.189
Mof_C 	C 	0.88375	0.07728	0.78355	0.005
Mof_H 	H 	0.86839	0.06731	0.77346	0.04
Mof_C 	C 	0.89472	0.06648	0.80979	-0.096
Mof_C 	C 	0.87909	0.04004	0.82518	0.376
Mof_O 	O 	0.89253	0.5308	0.3482	-0.411
Mof_O 	O 	0.85648	0.53059	0.31284	-0.433
Mof_N 	N 	0.86109	0.60352	0.22906	-0.135
Mof_N 	N 	0.85433	0.62575	0.20744	-0.189
Mof_C 	C 	0.88375	0.57728	0.28355	0.005
Mof_H 	H 	0.86839	0.56731	0.27346	0.04
Mof_C 	C 	0.89472	0.56648	0.30979	-0.095
Mof_C 	C 	0.87909	0.54004	0.32518	0.376
Mof_O 	O 	0.39253	0.0308	0.3482	-0.413
Mof_O 	O 	0.35648	0.03059	0.31284	-0.434
Mof_N 	N 	0.36109	0.10352	0.22906	-0.136
Mof_N 	N 	0.35433	0.12575	0.20744	-0.189
Mof_C 	C 	0.38375	0.07728	0.28355	0.005
Mof_H 	H 	0.36839	0.06731	0.27346	0.04
Mof_C 	C 	0.39472	0.06648	0.30979	-0.096
Mof_C 	C 	0.37909	0.04004	0.32518	0.376
Mof_O 	O 	0.39253	0.5308	0.8482	-0.412
Mof_O 	O 	0.35648	0.53059	0.81284	-0.433
Mof_N 	N 	0.36109	0.60352	0.72906	-0.135
Mof_N 	N 	0.35433	0.62575	0.70744	-0.189
Mof_C 	C 	0.38375	0.57728	0.78355	0.005
Mof_H 	H 	0.36839	0.56731	0.77346	0.04
Mof_C 	C 	0.39472	0.56648	0.80979	-0.095
Mof_C 	C 	0.37909	0.54004	0.82518	0.376
Mof_O 	O 	0.10747	0.9692	0.8482	-0.41
Mof_O 	O 	0.14352	0.96941	0.81284	-0.431
Mof_N 	N 	0.13891	0.89648	0.72906	-0.135
Mof_N 	N 	0.14567	0.87425	0.70744	-0.189
Mof_C 	C 	0.11625	0.92272	0.78355	0.005
Mof_H 	H 	0.13161	0.93269	0.77346	0.041
Mof_C 	C 	0.10528	0.93352	0.80979	-0.095
Mof_C 	C 	0.12091	0.95996	0.82518	0.376
Mof_O 	O 	0.10747	0.4692	0.3482	-0.412
Mof_O 	O 	0.14352	0.46941	0.31284	-0.433
Mof_N 	N 	0.13891	0.39648	0.22906	-0.135
Mof_N 	N 	0.14567	0.37425	0.20744	-0.189
Mof_C 	C 	0.11625	0.42272	0.28355	0.005
Mof_H 	H 	0.13161	0.43269	0.27346	0.04
Mof_C 	C 	0.10528	0.43352	0.30979	-0.096
Mof_C 	C 	0.12091	0.45996	0.32518	0.376
Mof_O 	O 	0.60747	0.9692	0.3482	-0.409
Mof_O 	O 	0.64352	0.96941	0.31284	-0.431
Mof_N 	N 	0.63891	0.89648	0.22906	-0.135
Mof_N 	N 	0.64567	0.87425	0.20744	-0.189
Mof_C 	C 	0.61625	0.92272	0.28355	0.005
Mof_H 	H 	0.63161	0.93269	0.27346	0.041
Mof_C 	C 	0.60528	0.93352	0.30979	-0.095
Mof_C 	C 	0.62091	0.95996	0.32518	0.376
Mof_O 	O 	0.60747	0.4692	0.8482	-0.412
Mof_O 	O 	0.64352	0.46941	0.81284	-0.433
Mof_N 	N 	0.63891	0.39648	0.72906	-0.135
Mof_N 	N 	0.64567	0.37425	0.70744	-0.189
Mof_C 	C 	0.61625	0.42272	0.78355	0.005
Mof_H 	H 	0.63161	0.43269	0.77346	0.04
Mof_C 	C 	0.60528	0.43352	0.80979	-0.095
Mof_C 	C 	0.62091	0.45996	0.82518	0.376
Mof_O 	O 	0.89253	0.9692	0.1518	-0.409
Mof_O 	O 	0.85648	0.96941	0.18716	-0.431
Mof_N 	N 	0.86109	0.89648	0.27094	-0.135
Mof_N 	N 	0.85433	0.87425	0.29256	-0.189
Mof_C 	C 	0.88375	0.92272	0.21645	0.004
Mof_H 	H 	0.86839	0.93269	0.22654	0.041
Mof_C 	C 	0.89472	0.93352	0.19021	-0.094
Mof_C 	C 	0.87909	0.95996	0.17482	0.376
Mof_O 	O 	0.89253	0.4692	0.6518	-0.411
Mof_O 	O 	0.85648	0.46941	0.68716	-0.433
Mof_N 	N 	0.86109	0.39648	0.77094	-0.135
Mof_N 	N 	0.85433	0.37425	0.79256	-0.189
Mof_C 	C 	0.88375	0.42272	0.71645	0.005
Mof_H 	H 	0.86839	0.43269	0.72654	0.04
Mof_C 	C 	0.89472	0.43352	0.69021	-0.095
Mof_C 	C 	0.87909	0.45996	0.67482	0.376
Mof_O 	O 	0.39253	0.9692	0.6518	-0.409
Mof_O 	O 	0.35648	0.96941	0.68716	-0.431
Mof_N 	N 	0.36109	0.89648	0.77094	-0.135
Mof_N 	N 	0.35433	0.87425	0.79256	-0.189
Mof_C 	C 	0.38375	0.92272	0.71645	0.005
Mof_H 	H 	0.36839	0.93269	0.72654	0.041
Mof_C 	C 	0.39472	0.93352	0.69021	-0.095
Mof_C 	C 	0.37909	0.95996	0.67482	0.376
Mof_O 	O 	0.39253	0.4692	0.1518	-0.412
Mof_O 	O 	0.35648	0.46941	0.18716	-0.433
Mof_N 	N 	0.36109	0.39648	0.27094	-0.135
Mof_N 	N 	0.35433	0.37425	0.29256	-0.189
Mof_C 	C 	0.38375	0.42272	0.21645	0.005
Mof_H 	H 	0.36839	0.43269	0.22654	0.04
Mof_C 	C 	0.39472	0.43352	0.19021	-0.096
Mof_C 	C 	0.37909	0.45996	0.17482	0.376
Mof_O 	O 	0.10747	0.1518	0.9692	-0.41
Mof_O 	O 	0.14352	0.18716	0.96941	-0.431
Mof_N 	N 	0.13891	0.27094	0.89648	-0.135
Mof_N 	N 	0.14567	0.29256	0.87425	-0.189
Mof_C 	C 	0.11625	0.21645	0.92272	0.005
Mof_H 	H 	0.13161	0.22654	0.93269	0.041
Mof_C 	C 	0.10528	0.19021	0.93352	-0.095
Mof_C 	C 	0.12091	0.17482	0.95996	0.376
Mof_O 	O 	0.10747	0.6518	0.4692	-0.412
Mof_O 	O 	0.14352	0.68716	0.46941	-0.433
Mof_N 	N 	0.13891	0.77094	0.39648	-0.135
Mof_N 	N 	0.14567	0.79256	0.37425	-0.189
Mof_C 	C 	0.11625	0.71645	0.42272	0.005
Mof_H 	H 	0.13161	0.72654	0.43269	0.04
Mof_C 	C 	0.10528	0.69021	0.43352	-0.096
Mof_C 	C 	0.12091	0.67482	0.45996	0.376
Mof_O 	O 	0.60747	0.1518	0.4692	-0.412
Mof_O 	O 	0.64352	0.18716	0.46941	-0.433
Mof_N 	N 	0.63891	0.27094	0.39648	-0.135
Mof_N 	N 	0.64567	0.29256	0.37425	-0.189
Mof_C 	C 	0.61625	0.21645	0.42272	0.005
Mof_H 	H 	0.63161	0.22654	0.43269	0.04
Mof_C 	C 	0.60528	0.19021	0.43352	-0.096
Mof_C 	C 	0.62091	0.17482	0.45996	0.376
Mof_O 	O 	0.60747	0.6518	0.9692	-0.409
Mof_O 	O 	0.64352	0.68716	0.96941	-0.431
Mof_N 	N 	0.63891	0.77094	0.89648	-0.135
Mof_N 	N 	0.64567	0.79256	0.87425	-0.189
Mof_C 	C 	0.61625	0.71645	0.92272	0.005
Mof_H 	H 	0.63161	0.72654	0.93269	0.041
Mof_C 	C 	0.60528	0.69021	0.93352	-0.095
Mof_C 	C 	0.62091	0.67482	0.95996	0.376
Mof_O 	O 	0.89253	0.8482	0.9692	-0.409
Mof_O 	O 	0.85648	0.81284	0.96941	-0.431
Mof_N 	N 	0.86109	0.72906	0.89648	-0.135
Mof_N 	N 	0.85433	0.70744	0.87425	-0.189
Mof_C 	C 	0.88375	0.78355	0.92272	0.004
Mof_H 	H 	0.86839	0.77346	0.93269	0.041
Mof_C 	C 	0.89472	0.80979	0.93352	-0.094
Mof_C 	C 	0.87909	0.82518	0.95996	0.376
Mof_O 	O 	0.89253	0.3482	0.4692	-0.411
Mof_O 	O 	0.85648	0.31284	0.46941	-0.433
Mof_N 	N 	0.86109	0.22906	0.39648	-0.135
Mof_N 	N 	0.85433	0.20744	0.37425	-0.189
Mof_C 	C 	0.88375	0.28355	0.42272	0.005
Mof_H 	H 	0.86839	0.27346	0.43269	0.04
Mof_C 	C 	0.89472	0.30979	0.43352	-0.095
Mof_C 	C 	0.87909	0.32518	0.45996	0.376
Mof_O 	O 	0.39253	0.8482	0.4692	-0.412
Mof_O 	O 	0.35648	0.81284	0.46941	-0.433
Mof_N 	N 	0.36109	0.72906	0.39648	-0.135
Mof_N 	N 	0.35433	0.70744	0.37425	-0.189
Mof_C 	C 	0.38375	0.78355	0.42272	0.005
Mof_H 	H 	0.36839	0.77346	0.43269	0.04
Mof_C 	C 	0.39472	0.80979	0.43352	-0.095
Mof_C 	C 	0.37909	0.82518	0.45996	0.376
Mof_O 	O 	0.39253	0.3482	0.9692	-0.409
Mof_O 	O 	0.35648	0.31284	0.96941	-0.431
Mof_N 	N 	0.36109	0.22906	0.89648	-0.135
Mof_N 	N 	0.35433	0.20744	0.87425	-0.189
Mof_C 	C 	0.38375	0.28355	0.92272	0.005
Mof_H 	H 	0.36839	0.27346	0.93269	0.041
Mof_C 	C 	0.39472	0.30979	0.93352	-0.095
Mof_C 	C 	0.37909	0.32518	0.95996	0.376
Mof_O 	O 	0.10747	0.8482	0.0308	-0.413
Mof_O 	O 	0.14352	0.81284	0.03059	-0.434
Mof_N 	N 	0.13891	0.72906	0.10352	-0.136
Mof_N 	N 	0.14567	0.70744	0.12575	-0.19
Mof_C 	C 	0.11625	0.78355	0.07728	0.006
Mof_H 	H 	0.13161	0.77346	0.06731	0.039
Mof_C 	C 	0.10528	0.80979	0.06648	-0.097
Mof_C 	C 	0.12091	0.82518	0.04004	0.377
Mof_O 	O 	0.10747	0.3482	0.5308	-0.412
Mof_O 	O 	0.14352	0.31284	0.53059	-0.433
Mof_N 	N 	0.13891	0.22906	0.60352	-0.135
Mof_N 	N 	0.14567	0.20744	0.62575	-0.189
Mof_C 	C 	0.11625	0.28355	0.57728	0.005
Mof_H 	H 	0.13161	0.27346	0.56731	0.04
Mof_C 	C 	0.10528	0.30979	0.56648	-0.096
Mof_C 	C 	0.12091	0.32518	0.54004	0.376
Mof_O 	O 	0.60747	0.8482	0.5308	-0.412
Mof_O 	O 	0.64352	0.81284	0.53059	-0.433
Mof_N 	N 	0.63891	0.72906	0.60352	-0.135
Mof_N 	N 	0.64567	0.70744	0.62575	-0.189
Mof_C 	C 	0.61625	0.78355	0.57728	0.005
Mof_H 	H 	0.63161	0.77346	0.56731	0.04
Mof_C 	C 	0.60528	0.80979	0.56648	-0.095
Mof_C 	C 	0.62091	0.82518	0.54004	0.376
Mof_O 	O 	0.60747	0.3482	0.0308	-0.413
Mof_O 	O 	0.64352	0.31284	0.03059	-0.434
Mof_N 	N 	0.63891	0.22906	0.10352	-0.136
Mof_N 	N 	0.64567	0.20744	0.12575	-0.19
Mof_C 	C 	0.61625	0.28355	0.07728	0.005
Mof_H 	H 	0.63161	0.27346	0.06731	0.04
Mof_C 	C 	0.60528	0.30979	0.06648	-0.096
Mof_C 	C 	0.62091	0.32518	0.04004	0.376
Mof_O 	O 	0.89253	0.1518	0.0308	-0.413
Mof_O 	O 	0.85648	0.18716	0.03059	-0.434
Mof_N 	N 	0.86109	0.27094	0.10352	-0.135
Mof_N 	N 	0.85433	0.29256	0.12575	-0.189
Mof_C 	C 	0.88375	0.21645	0.07728	0.005
Mof_H 	H 	0.86839	0.22654	0.06731	0.04
Mof_C 	C 	0.89472	0.19021	0.06648	-0.096
Mof_C 	C 	0.87909	0.17482	0.04004	0.376
Mof_O 	O 	0.89253	0.6518	0.5308	-0.411
Mof_O 	O 	0.85648	0.68716	0.53059	-0.433
Mof_N 	N 	0.86109	0.77094	0.60352	-0.135
Mof_N 	N 	0.85433	0.79256	0.62575	-0.189
Mof_C 	C 	0.88375	0.71645	0.57728	0.005
Mof_H 	H 	0.86839	0.72654	0.56731	0.04
Mof_C 	C 	0.89472	0.69021	0.56648	-0.095
Mof_C 	C 	0.87909	0.67482	0.54004	0.376
Mof_O 	O 	0.39253	0.1518	0.5308	-0.412
Mof_O 	O 	0.35648	0.18716	0.53059	-0.433
Mof_N 	N 	0.36109	0.27094	0.60352	-0.135
Mof_N 	N 	0.35433	0.29256	0.62575	-0.189
Mof_C 	C 	0.38375	0.21645	0.57728	0.005
Mof_H 	H 	0.36839	0.22654	0.56731	0.04
Mof_C 	C 	0.39472	0.19021	0.56648	-0.096
Mof_C 	C 	0.37909	0.17482	0.54004	0.376
Mof_O 	O 	0.39253	0.6518	0.0308	-0.413
Mof_O 	O 	0.35648	0.68716	0.03059	-0.434
Mof_N 	N 	0.36109	0.77094	0.10352	-0.135
Mof_N 	N 	0.35433	0.79256	0.12575	-0.189
Mof_C 	C 	0.38375	0.71645	0.07728	0.005
Mof_H 	H 	0.36839	0.72654	0.06731	0.04
Mof_C 	C 	0.39472	0.69021	0.06648	-0.096
Mof_C 	C 	0.37909	0.67482	0.04004	0.376
Mof_O 	O 	0.1518	0.0308	0.89253	-0.413
Mof_O 	O 	0.18716	0.03059	0.85648	-0.434
Mof_N 	N 	0.27094	0.10352	0.86109	-0.135
Mof_N 	N 	0.29256	0.12575	0.85433	-0.189
Mof_C 	C 	0.21645	0.07728	0.88375	0.005
Mof_H 	H 	0.22654	0.06731	0.86839	0.04
Mof_C 	C 	0.19021	0.06648	0.89472	-0.096
Mof_C 	C 	0.17482	0.04004	0.87909	0.376
Mof_O 	O 	0.1518	0.5308	0.39253	-0.412
Mof_O 	O 	0.18716	0.53059	0.35648	-0.433
Mof_N 	N 	0.27094	0.60352	0.36109	-0.135
Mof_N 	N 	0.29256	0.62575	0.35433	-0.189
Mof_C 	C 	0.21645	0.57728	0.38375	0.005
Mof_H 	H 	0.22654	0.56731	0.36839	0.04
Mof_C 	C 	0.19021	0.56648	0.39472	-0.096
Mof_C 	C 	0.17482	0.54004	0.37909	0.376
Mof_O 	O 	0.6518	0.0308	0.39253	-0.413
Mof_O 	O 	0.68716	0.03059	0.35648	-0.434
Mof_N 	N 	0.77094	0.10352	0.36109	-0.135
Mof_N 	N 	0.79256	0.12575	0.35433	-0.189
Mof_C 	C 	0.71645	0.07728	0.38375	0.005
Mof_H 	H 	0.72654	0.06731	0.36839	0.04
Mof_C 	C 	0.69021	0.06648	0.39472	-0.096
Mof_C 	C 	0.67482	0.04004	0.37909	0.376
Mof_O 	O 	0.6518	0.5308	0.89253	-0.411
Mof_O 	O 	0.68716	0.53059	0.85648	-0.433
Mof_N 	N 	0.77094	0.60352	0.86109	-0.135
Mof_N 	N 	0.79256	0.62575	0.85433	-0.189
Mof_C 	C 	0.71645	0.57728	0.88375	0.005
Mof_H 	H 	0.72654	0.56731	0.86839	0.04
Mof_C 	C 	0.69021	0.56648	0.89472	-0.095
Mof_C 	C 	0.67482	0.54004	0.87909	0.376
Mof_O 	O 	0.8482	0.0308	0.10747	-0.413
Mof_O 	O 	0.81284	0.03059	0.14352	-0.434
Mof_N 	N 	0.72906	0.10352	0.13891	-0.136
Mof_N 	N 	0.70744	0.12575	0.14567	-0.19
Mof_C 	C 	0.78355	0.07728	0.11625	0.006
Mof_H 	H 	0.77346	0.06731	0.13161	0.039
Mof_C 	C 	0.80979	0.06648	0.10528	-0.097
Mof_C 	C 	0.82518	0.04004	0.12091	0.377
Mof_O 	O 	0.8482	0.5308	0.60747	-0.412
Mof_O 	O 	0.81284	0.53059	0.64352	-0.433
Mof_N 	N 	0.72906	0.60352	0.63891	-0.135
Mof_N 	N 	0.70744	0.62575	0.64567	-0.189
Mof_C 	C 	0.78355	0.57728	0.61625	0.005
Mof_H 	H 	0.77346	0.56731	0.63161	0.04
Mof_C 	C 	0.80979	0.56648	0.60528	-0.095
Mof_C 	C 	0.82518	0.54004	0.62091	0.376
Mof_O 	O 	0.3482	0.0308	0.60747	-0.413
Mof_O 	O 	0.31284	0.03059	0.64352	-0.434
Mof_N 	N 	0.22906	0.10352	0.63891	-0.136
Mof_N 	N 	0.20744	0.12575	0.64567	-0.19
Mof_C 	C 	0.28355	0.07728	0.61625	0.005
Mof_H 	H 	0.27346	0.06731	0.63161	0.04
Mof_C 	C 	0.30979	0.06648	0.60528	-0.096
Mof_C 	C 	0.32518	0.04004	0.62091	0.376
Mof_O 	O 	0.3482	0.5308	0.10747	-0.412
Mof_O 	O 	0.31284	0.53059	0.14352	-0.433
Mof_N 	N 	0.22906	0.60352	0.13891	-0.135
Mof_N 	N 	0.20744	0.62575	0.14567	-0.189
Mof_C 	C 	0.28355	0.57728	0.11625	0.005
Mof_H 	H 	0.27346	0.56731	0.13161	0.04
Mof_C 	C 	0.30979	0.56648	0.10528	-0.096
Mof_C 	C 	0.32518	0.54004	0.12091	0.376
Mof_O 	O 	0.8482	0.9692	0.89253	-0.409
Mof_O 	O 	0.81284	0.96941	0.85648	-0.431
Mof_N 	N 	0.72906	0.89648	0.86109	-0.135
Mof_N 	N 	0.70744	0.87425	0.85433	-0.189
Mof_C 	C 	0.78355	0.92272	0.88375	0.004
Mof_H 	H 	0.77346	0.93269	0.86839	0.041
Mof_C 	C 	0.80979	0.93352	0.89472	-0.094
Mof_C 	C 	0.82518	0.95996	0.87909	0.376
Mof_O 	O 	0.8482	0.4692	0.39253	-0.412
Mof_O 	O 	0.81284	0.46941	0.35648	-0.433
Mof_N 	N 	0.72906	0.39648	0.36109	-0.135
Mof_N 	N 	0.70744	0.37425	0.35433	-0.189
Mof_C 	C 	0.78355	0.42272	0.38375	0.005
Mof_H 	H 	0.77346	0.43269	0.36839	0.04
Mof_C 	C 	0.80979	0.43352	0.39472	-0.095
Mof_C 	C 	0.82518	0.45996	0.37909	0.376
Mof_O 	O 	0.3482	0.9692	0.39253	-0.409
Mof_O 	O 	0.31284	0.96941	0.35648	-0.431
Mof_N 	N 	0.22906	0.89648	0.36109	-0.135
Mof_N 	N 	0.20744	0.87425	0.35433	-0.189
Mof_C 	C 	0.28355	0.92272	0.38375	0.005
Mof_H 	H 	0.27346	0.93269	0.36839	0.041
Mof_C 	C 	0.30979	0.93352	0.39472	-0.095
Mof_C 	C 	0.32518	0.95996	0.37909	0.376
Mof_O 	O 	0.3482	0.4692	0.89253	-0.411
Mof_O 	O 	0.31284	0.46941	0.85648	-0.433
Mof_N 	N 	0.22906	0.39648	0.86109	-0.135
Mof_N 	N 	0.20744	0.37425	0.85433	-0.189
Mof_C 	C 	0.28355	0.42272	0.88375	0.005
Mof_H 	H 	0.27346	0.43269	0.86839	0.04
Mof_C 	C 	0.30979	0.43352	0.89472	-0.095
Mof_C 	C 	0.32518	0.45996	0.87909	0.376
Mof_O 	O 	0.1518	0.9692	0.10747	-0.41
Mof_O 	O 	0.18716	0.96941	0.14352	-0.431
Mof_N 	N 	0.27094	0.89648	0.13891	-0.135
Mof_N 	N 	0.29256	0.87425	0.14567	-0.189
Mof_C 	C 	0.21645	0.92272	0.11625	0.005
Mof_H 	H 	0.22654	0.93269	0.13161	0.041
Mof_C 	C 	0.19021	0.93352	0.10528	-0.095
Mof_C 	C 	0.17482	0.95996	0.12091	0.376
Mof_O 	O 	0.1518	0.4692	0.60747	-0.412
Mof_O 	O 	0.18716	0.46941	0.64352	-0.433
Mof_N 	N 	0.27094	0.39648	0.63891	-0.135
Mof_N 	N 	0.29256	0.37425	0.64567	-0.189
Mof_C 	C 	0.21645	0.42272	0.61625	0.005
Mof_H 	H 	0.22654	0.43269	0.63161	0.04
Mof_C 	C 	0.19021	0.43352	0.60528	-0.096
Mof_C 	C 	0.17482	0.45996	0.62091	0.376
Mof_O 	O 	0.6518	0.9692	0.60747	-0.409
Mof_O 	O 	0.68716	0.96941	0.64352	-0.431
Mof_N 	N 	0.77094	0.89648	0.63891	-0.135
Mof_N 	N 	0.79256	0.87425	0.64567	-0.189
Mof_C 	C 	0.71645	0.92272	0.61625	0.005
Mof_H 	H 	0.72654	0.93269	0.63161	0.041
Mof_C 	C 	0.69021	0.93352	0.60528	-0.095
Mof_C 	C 	0.67482	0.95996	0.62091	0.376
Mof_O 	O 	0.6518	0.4692	0.10747	-0.412
Mof_O 	O 	0.68716	0.46941	0.14352	-0.433
Mof_N 	N 	0.77094	0.39648	0.13891	-0.135
Mof_N 	N 	0.79256	0.37425	0.14567	-0.189
Mof_C 	C 	0.71645	0.42272	0.11625	0.005
Mof_H 	H 	0.72654	0.43269	0.13161	0.04
Mof_C 	C 	0.69021	0.43352	0.10528	-0.096
Mof_C 	C 	0.67482	0.45996	0.12091	0.376
Mof_O 	O 	0.0308	0.10747	0.8482	-0.413
Mof_O 	O 	0.03059	0.14352	0.81284	-0.434
Mof_N 	N 	0.10352	0.13891	0.72906	-0.136
Mof_N 	N 	0.12575	0.14567	0.70744	-0.19
Mof_C 	C 	0.07728	0.11625	0.78355	0.006
Mof_H 	H 	0.06731	0.13161	0.77346	0.039
Mof_C 	C 	0.06648	0.10528	0.80979	-0.097
Mof_C 	C 	0.04004	0.12091	0.82518	0.377
Mof_O 	O 	0.0308	0.60747	0.3482	-0.413
Mof_O 	O 	0.03059	0.64352	0.31284	-0.434
Mof_N 	N 	0.10352	0.63891	0.22906	-0.136
Mof_N 	N 	0.12575	0.64567	0.20744	-0.19
Mof_C 	C 	0.07728	0.61625	0.28355	0.005
Mof_H 	H 	0.06731	0.63161	0.27346	0.04
Mof_C 	C 	0.06648	0.60528	0.30979	-0.096
Mof_C 	C 	0.04004	0.62091	0.32518	0.376
Mof_O 	O 	0.5308	0.10747	0.3482	-0.412
Mof_O 	O 	0.53059	0.14352	0.31284	-0.433
Mof_N 	N 	0.60352	0.13891	0.22906	-0.135
Mof_N 	N 	0.62575	0.14567	0.20744	-0.189
Mof_C 	C 	0.57728	0.11625	0.28355	0.005
Mof_H 	H 	0.56731	0.13161	0.27346	0.04
Mof_C 	C 	0.56648	0.10528	0.30979	-0.096
Mof_C 	C 	0.54004	0.12091	0.32518	0.376
Mof_O 	O 	0.5308	0.60747	0.8482	-0.412
Mof_O 	O 	0.53059	0.64352	0.81284	-0.433
Mof_N 	N 	0.60352	0.63891	0.72906	-0.135
Mof_N 	N 	0.62575	0.64567	0.70744	-0.189
Mof_C 	C 	0.57728	0.61625	0.78355	0.005
Mof_H 	H 	0.56731	0.63161	0.77346	0.04
Mof_C 	C 	0.56648	0.60528	0.80979	-0.095
Mof_C 	C 	0.54004	0.62091	0.82518	0.376
Mof_O 	O 	0.0308	0.89253	0.1518	-0.413
Mof_O 	O 	0.03059	0.85648	0.18716	-0.434
Mof_N 	N 	0.10352	0.86109	0.27094	-0.135
Mof_N 	N 	0.12575	0.85433	0.29256	-0.189
Mof_C 	C 	0.07728	0.88375	0.21645	0.005
Mof_H 	H 	0.06731	0.86839	0.22654	0.04
Mof_C 	C 	0.06648	0.89472	0.19021	-0.096
Mof_C 	C 	0.04004	0.87909	0.17482	0.376
Mof_O 	O 	0.0308	0.39253	0.6518	-0.413
Mof_O 	O 	0.03059	0.35648	0.68716	-0.434
Mof_N 	N 	0.10352	0.36109	0.77094	-0.135
Mof_N 	N 	0.12575	0.35433	0.79256	-0.189
Mof_C 	C 	0.07728	0.38375	0.71645	0.005
Mof_H 	H 	0.06731	0.36839	0.72654	0.04
Mof_C 	C 	0.06648	0.39472	0.69021	-0.096
Mof_C 	C 	0.04004	0.37909	0.67482	0.376
Mof_O 	O 	0.5308	0.89253	0.6518	-0.411
Mof_O 	O 	0.53059	0.85648	0.68716	-0.433
Mof_N 	N 	0.60352	0.86109	0.77094	-0.135
Mof_N 	N 	0.62575	0.85433	0.79256	-0.189
Mof_C 	C 	0.57728	0.88375	0.71645	0.005
Mof_H 	H 	0.56731	0.86839	0.72654	0.04
Mof_C 	C 	0.56648	0.89472	0.69021	-0.095
Mof_C 	C 	0.54004	0.87909	0.67482	0.376
Mof_O 	O 	0.5308	0.39253	0.1518	-0.412
Mof_O 	O 	0.53059	0.35648	0.18716	-0.433
Mof_N 	N 	0.60352	0.36109	0.27094	-0.135
Mof_N 	N 	0.62575	0.35433	0.29256	-0.189
Mof_C 	C 	0.57728	0.38375	0.21645	0.005
Mof_H 	H 	0.56731	0.36839	0.22654	0.04
Mof_C 	C 	0.56648	0.39472	0.19021	-0.096
Mof_C 	C 	0.54004	0.37909	0.17482	0.376
Mof_O 	O 	0.9692	0.10747	0.1518	-0.41
Mof_O 	O 	0.96941	0.14352	0.18716	-0.431
Mof_N 	N 	0.89648	0.13891	0.27094	-0.135
Mof_N 	N 	0.87425	0.14567	0.29256	-0.189
Mof_C 	C 	0.92272	0.11625	0.21645	0.005
Mof_H 	H 	0.93269	0.13161	0.22654	0.041
Mof_C 	C 	0.93352	0.10528	0.19021	-0.095
Mof_C 	C 	0.95996	0.12091	0.17482	0.376
Mof_O 	O 	0.9692	0.60747	0.6518	-0.409
Mof_O 	O 	0.96941	0.64352	0.68716	-0.431
Mof_N 	N 	0.89648	0.63891	0.77094	-0.135
Mof_N 	N 	0.87425	0.64567	0.79256	-0.189
Mof_C 	C 	0.92272	0.61625	0.71645	0.005
Mof_H 	H 	0.93269	0.63161	0.72654	0.041
Mof_C 	C 	0.93352	0.60528	0.69021	-0.095
Mof_C 	C 	0.95996	0.62091	0.67482	0.376
Mof_O 	O 	0.4692	0.10747	0.6518	-0.412
Mof_O 	O 	0.46941	0.14352	0.68716	-0.433
Mof_N 	N 	0.39648	0.13891	0.77094	-0.135
Mof_N 	N 	0.37425	0.14567	0.79256	-0.189
Mof_C 	C 	0.42272	0.11625	0.71645	0.005
Mof_H 	H 	0.43269	0.13161	0.72654	0.04
Mof_C 	C 	0.43352	0.10528	0.69021	-0.096
Mof_C 	C 	0.45996	0.12091	0.67482	0.376
Mof_O 	O 	0.4692	0.60747	0.1518	-0.412
Mof_O 	O 	0.46941	0.64352	0.18716	-0.433
Mof_N 	N 	0.39648	0.63891	0.27094	-0.135
Mof_N 	N 	0.37425	0.64567	0.29256	-0.189
Mof_C 	C 	0.42272	0.61625	0.21645	0.005
Mof_H 	H 	0.43269	0.63161	0.22654	0.04
Mof_C 	C 	0.43352	0.60528	0.19021	-0.096
Mof_C 	C 	0.45996	0.62091	0.17482	0.376
Mof_O 	O 	0.9692	0.89253	0.8482	-0.409
Mof_O 	O 	0.96941	0.85648	0.81284	-0.431
Mof_N 	N 	0.89648	0.86109	0.72906	-0.135
Mof_N 	N 	0.87425	0.85433	0.70744	-0.189
Mof_C 	C 	0.92272	0.88375	0.78355	0.004
Mof_H 	H 	0.93269	0.86839	0.77346	0.041
Mof_C 	C 	0.93352	0.89472	0.80979	-0.094
Mof_C 	C 	0.95996	0.87909	0.82518	0.376
Mof_O 	O 	0.9692	0.39253	0.3482	-0.409
Mof_O 	O 	0.96941	0.35648	0.31284	-0.431
Mof_N 	N 	0.89648	0.36109	0.22906	-0.135
Mof_N 	N 	0.87425	0.35433	0.20744	-0.189
Mof_C 	C 	0.92272	0.38375	0.28355	0.005
Mof_H 	H 	0.93269	0.36839	0.27346	0.041
Mof_C 	C 	0.93352	0.39472	0.30979	-0.095
Mof_C 	C 	0.95996	0.37909	0.32518	0.376
Mof_O 	O 	0.4692	0.89253	0.3482	-0.411
Mof_O 	O 	0.46941	0.85648	0.31284	-0.433
Mof_N 	N 	0.39648	0.86109	0.22906	-0.135
Mof_N 	N 	0.37425	0.85433	0.20744	-0.189
Mof_C 	C 	0.42272	0.88375	0.28355	0.005
Mof_H 	H 	0.43269	0.86839	0.27346	0.04
Mof_C 	C 	0.43352	0.89472	0.30979	-0.095
Mof_C 	C 	0.45996	0.87909	0.32518	0.376
Mof_O 	O 	0.4692	0.39253	0.8482	-0.412
Mof_O 	O 	0.46941	0.35648	0.81284	-0.433
Mof_N 	N 	0.39648	0.36109	0.72906	-0.135
Mof_N 	N 	0.37425	0.35433	0.70744	-0.189
Mof_C 	C 	0.42272	0.38375	0.78355	0.005
Mof_H 	H 	0.43269	0.36839	0.77346	0.04
Mof_C 	C 	0.43352	0.39472	0.80979	-0.095
Mof_C 	C 	0.45996	0.37909	0.82518	0.376
Mof_O 	O 	0.8482	0.89253	0.9692	-0.409
Mof_O 	O 	0.81284	0.85648	0.96941	-0.431
Mof_N 	N 	0.72906	0.86109	0.89648	-0.135
Mof_N 	N 	0.70744	0.85433	0.87425	-0.189
Mof_C 	C 	0.78355	0.88375	0.92272	0.004
Mof_H 	H 	0.77346	0.86839	0.93269	0.041
Mof_C 	C 	0.80979	0.89472	0.93352	-0.094
Mof_C 	C 	0.82518	0.87909	0.95996	0.376
Mof_O 	O 	0.8482	0.39253	0.4692	-0.412
Mof_O 	O 	0.81284	0.35648	0.46941	-0.433
Mof_N 	N 	0.72906	0.36109	0.39648	-0.135
Mof_N 	N 	0.70744	0.35433	0.37425	-0.189
Mof_C 	C 	0.78355	0.38375	0.42272	0.005
Mof_H 	H 	0.77346	0.36839	0.43269	0.04
Mof_C 	C 	0.80979	0.39472	0.43352	-0.095
Mof_C 	C 	0.82518	0.37909	0.45996	0.376
Mof_O 	O 	0.3482	0.89253	0.4692	-0.411
Mof_O 	O 	0.31284	0.85648	0.46941	-0.433
Mof_N 	N 	0.22906	0.86109	0.39648	-0.135
Mof_N 	N 	0.20744	0.85433	0.37425	-0.189
Mof_C 	C 	0.28355	0.88375	0.42272	0.005
Mof_H 	H 	0.27346	0.86839	0.43269	0.04
Mof_C 	C 	0.30979	0.89472	0.43352	-0.095
Mof_C 	C 	0.32518	0.87909	0.45996	0.376
Mof_O 	O 	0.3482	0.39253	0.9692	-0.409
Mof_O 	O 	0.31284	0.35648	0.96941	-0.431
Mof_N 	N 	0.22906	0.36109	0.89648	-0.135
Mof_N 	N 	0.20744	0.35433	0.87425	-0.189
Mof_C 	C 	0.28355	0.38375	0.92272	0.005
Mof_H 	H 	0.27346	0.36839	0.93269	0.041
Mof_C 	C 	0.30979	0.39472	0.93352	-0.095
Mof_C 	C 	0.32518	0.37909	0.95996	0.376
Mof_O 	O 	0.1518	0.10747	0.9692	-0.41
Mof_O 	O 	0.18716	0.14352	0.96941	-0.431
Mof_N 	N 	0.27094	0.13891	0.89648	-0.135
Mof_N 	N 	0.29256	0.14567	0.87425	-0.189
Mof_C 	C 	0.21645	0.11625	0.92272	0.005
Mof_H 	H 	0.22654	0.13161	0.93269	0.041
Mof_C 	C 	0.19021	0.10528	0.93352	-0.095
Mof_C 	C 	0.17482	0.12091	0.95996	0.376
Mof_O 	O 	0.1518	0.60747	0.4692	-0.412
Mof_O 	O 	0.18716	0.64352	0.46941	-0.433
Mof_N 	N 	0.27094	0.63891	0.39648	-0.135
Mof_N 	N 	0.29256	0.64567	0.37425	-0.189
Mof_C 	C 	0.21645	0.61625	0.42272	0.005
Mof_H 	H 	0.22654	0.63161	0.43269	0.04
Mof_C 	C 	0.19021	0.60528	0.43352	-0.096
Mof_C 	C 	0.17482	0.62091	0.45996	0.376
Mof_O 	O 	0.6518	0.10747	0.4692	-0.412
Mof_O 	O 	0.68716	0.14352	0.46941	-0.433
Mof_N 	N 	0.77094	0.13891	0.39648	-0.135
Mof_N 	N 	0.79256	0.14567	0.37425	-0.189
Mof_C 	C 	0.71645	0.11625	0.42272	0.005
Mof_H 	H 	0.72654	0.13161	0.43269	0.04
Mof_C 	C 	0.69021	0.10528	0.43352	-0.096
Mof_C 	C 	0.67482	0.12091	0.45996	0.376
Mof_O 	O 	0.6518	0.60747	0.9692	-0.409
Mof_O 	O 	0.68716	0.64352	0.96941	-0.431
Mof_N 	N 	0.77094	0.63891	0.89648	-0.135
Mof_N 	N 	0.79256	0.64567	0.87425	-0.189
Mof_C 	C 	0.71645	0.61625	0.92272	0.005
Mof_H 	H 	0.72654	0.63161	0.93269	0.041
Mof_C 	C 	0.69021	0.60528	0.93352	-0.095
Mof_C 	C 	0.67482	0.62091	0.95996	0.376
Mof_O 	O 	0.1518	0.89253	0.0308	-0.413
Mof_O 	O 	0.18716	0.85648	0.03059	-0.434
Mof_N 	N 	0.27094	0.86109	0.10352	-0.135
Mof_N 	N 	0.29256	0.85433	0.12575	-0.189
Mof_C 	C 	0.21645	0.88375	0.07728	0.005
Mof_H 	H 	0.22654	0.86839	0.06731	0.04
Mof_C 	C 	0.19021	0.89472	0.06648	-0.096
Mof_C 	C 	0.17482	0.87909	0.04004	0.376
Mof_O 	O 	0.1518	0.39253	0.5308	-0.412
Mof_O 	O 	0.18716	0.35648	0.53059	-0.433
Mof_N 	N 	0.27094	0.36109	0.60352	-0.135
Mof_N 	N 	0.29256	0.35433	0.62575	-0.189
Mof_C 	C 	0.21645	0.38375	0.57728	0.005
Mof_H 	H 	0.22654	0.36839	0.56731	0.04
Mof_C 	C 	0.19021	0.39472	0.56648	-0.096
Mof_C 	C 	0.17482	0.37909	0.54004	0.376
Mof_O 	O 	0.6518	0.89253	0.5308	-0.411
Mof_O 	O 	0.68716	0.85648	0.53059	-0.433
Mof_N 	N 	0.77094	0.86109	0.60352	-0.135
Mof_N 	N 	0.79256	0.85433	0.62575	-0.189
Mof_C 	C 	0.71645	0.88375	0.57728	0.005
Mof_H 	H 	0.72654	0.86839	0.56731	0.04
Mof_C 	C 	0.69021	0.89472	0.56648	-0.095
Mof_C 	C 	0.67482	0.87909	0.54004	0.376
Mof_O 	O 	0.6518	0.39253	0.0308	-0.413
Mof_O 	O 	0.68716	0.35648	0.03059	-0.434
Mof_N 	N 	0.77094	0.36109	0.10352	-0.135
Mof_N 	N 	0.79256	0.35433	0.12575	-0.189
Mof_C 	C 	0.71645	0.38375	0.07728	0.005
Mof_H 	H 	0.72654	0.36839	0.06731	0.04
Mof_C 	C 	0.69021	0.39472	0.06648	-0.096
Mof_C 	C 	0.67482	0.37909	0.04004	0.376
Mof_O 	O 	0.8482	0.10747	0.0308	-0.413
Mof_O 	O 	0.81284	0.14352	0.03059	-0.434
Mof_N 	N 	0.72906	0.13891	0.10352	-0.136
Mof_N 	N 	0.70744	0.14567	0.12575	-0.19
Mof_C 	C 	0.78355	0.11625	0.07728	0.006
Mof_H 	H 	0.77346	0.13161	0.06731	0.039
Mof_C 	C 	0.80979	0.10528	0.06648	-0.097
Mof_C 	C 	0.82518	0.12091	0.04004	0.377
Mof_O 	O 	0.8482	0.60747	0.5308	-0.412
Mof_O 	O 	0.81284	0.64352	0.53059	-0.433
Mof_N 	N 	0.72906	0.63891	0.60352	-0.135
Mof_N 	N 	0.70744	0.64567	0.62575	-0.189
Mof_C 	C 	0.78355	0.61625	0.57728	0.005
Mof_H 	H 	0.77346	0.63161	0.56731	0.04
Mof_C 	C 	0.80979	0.60528	0.56648	-0.095
Mof_C 	C 	0.82518	0.62091	0.54004	0.376
Mof_O 	O 	0.3482	0.10747	0.5308	-0.412
Mof_O 	O 	0.31284	0.14352	0.53059	-0.433
Mof_N 	N 	0.22906	0.13891	0.60352	-0.135
Mof_N 	N 	0.20744	0.14567	0.62575	-0.189
Mof_C 	C 	0.28355	0.11625	0.57728	0.005
Mof_H 	H 	0.27346	0.13161	0.56731	0.04
Mof_C 	C 	0.30979	0.10528	0.56648	-0.096
Mof_C 	C 	0.32518	0.12091	0.54004	0.376
Mof_O 	O 	0.3482	0.60747	0.0308	-0.413
Mof_O 	O 	0.31284	0.64352	0.03059	-0.434
Mof_N 	N 	0.22906	0.63891	0.10352	-0.136
Mof_N 	N 	0.20744	0.64567	0.12575	-0.19
Mof_C 	C 	0.28355	0.61625	0.07728	0.005
Mof_H 	H 	0.27346	0.63161	0.06731	0.04
Mof_C 	C 	0.30979	0.60528	0.06648	-0.096
Mof_C 	C 	0.32518	0.62091	0.04004	0.376
Mof_O 	O 	0.9692	0.8482	0.89253	-0.409
Mof_O 	O 	0.96941	0.81284	0.85648	-0.431
Mof_N 	N 	0.89648	0.72906	0.86109	-0.135
Mof_N 	N 	0.87425	0.70744	0.85433	-0.189
Mof_C 	C 	0.92272	0.78355	0.88375	0.004
Mof_H 	H 	0.93269	0.77346	0.86839	0.041
Mof_C 	C 	0.93352	0.80979	0.89472	-0.094
Mof_C 	C 	0.95996	0.82518	0.87909	0.376
Mof_O 	O 	0.9692	0.3482	0.39253	-0.409
Mof_O 	O 	0.96941	0.31284	0.35648	-0.431
Mof_N 	N 	0.89648	0.22906	0.36109	-0.135
Mof_N 	N 	0.87425	0.20744	0.35433	-0.189
Mof_C 	C 	0.92272	0.28355	0.38375	0.005
Mof_H 	H 	0.93269	0.27346	0.36839	0.041
Mof_C 	C 	0.93352	0.30979	0.39472	-0.095
Mof_C 	C 	0.95996	0.32518	0.37909	0.376
Mof_O 	O 	0.4692	0.8482	0.39253	-0.412
Mof_O 	O 	0.46941	0.81284	0.35648	-0.433
Mof_N 	N 	0.39648	0.72906	0.36109	-0.135
Mof_N 	N 	0.37425	0.70744	0.35433	-0.189
Mof_C 	C 	0.42272	0.78355	0.38375	0.005
Mof_H 	H 	0.43269	0.77346	0.36839	0.04
Mof_C 	C 	0.43352	0.80979	0.39472	-0.095
Mof_C 	C 	0.45996	0.82518	0.37909	0.376
Mof_O 	O 	0.4692	0.3482	0.89253	-0.411
Mof_O 	O 	0.46941	0.31284	0.85648	-0.433
Mof_N 	N 	0.39648	0.22906	0.86109	-0.135
Mof_N 	N 	0.37425	0.20744	0.85433	-0.189
Mof_C 	C 	0.42272	0.28355	0.88375	0.005
Mof_H 	H 	0.43269	0.27346	0.86839	0.04
Mof_C 	C 	0.43352	0.30979	0.89472	-0.095
Mof_C 	C 	0.45996	0.32518	0.87909	0.376
Mof_O 	O 	0.9692	0.1518	0.10747	-0.41
Mof_O 	O 	0.96941	0.18716	0.14352	-0.431
Mof_N 	N 	0.89648	0.27094	0.13891	-0.135
Mof_N 	N 	0.87425	0.29256	0.14567	-0.189
Mof_C 	C 	0.92272	0.21645	0.11625	0.005
Mof_H 	H 	0.93269	0.22654	0.13161	0.041
Mof_C 	C 	0.93352	0.19021	0.10528	-0.095
Mof_C 	C 	0.95996	0.17482	0.12091	0.376
Mof_O 	O 	0.9692	0.6518	0.60747	-0.409
Mof_O 	O 	0.96941	0.68716	0.64352	-0.431
Mof_N 	N 	0.89648	0.77094	0.63891	-0.135
Mof_N 	N 	0.87425	0.79256	0.64567	-0.189
Mof_C 	C 	0.92272	0.71645	0.61625	0.005
Mof_H 	H 	0.93269	0.72654	0.63161	0.041
Mof_C 	C 	0.93352	0.69021	0.60528	-0.095
Mof_C 	C 	0.95996	0.67482	0.62091	0.376
Mof_O 	O 	0.4692	0.1518	0.60747	-0.412
Mof_O 	O 	0.46941	0.18716	0.64352	-0.433
Mof_N 	N 	0.39648	0.27094	0.63891	-0.135
Mof_N 	N 	0.37425	0.29256	0.64567	-0.189
Mof_C 	C 	0.42272	0.21645	0.61625	0.005
Mof_H 	H 	0.43269	0.22654	0.63161	0.04
Mof_C 	C 	0.43352	0.19021	0.60528	-0.096
Mof_C 	C 	0.45996	0.17482	0.62091	0.376
Mof_O 	O 	0.4692	0.6518	0.10747	-0.412
Mof_O 	O 	0.46941	0.68716	0.14352	-0.433
Mof_N 	N 	0.39648	0.77094	0.13891	-0.135
Mof_N 	N 	0.37425	0.79256	0.14567	-0.189
Mof_C 	C 	0.42272	0.71645	0.11625	0.005
Mof_H 	H 	0.43269	0.72654	0.13161	0.04
Mof_C 	C 	0.43352	0.69021	0.10528	-0.096
Mof_C 	C 	0.45996	0.67482	0.12091	0.376
Mof_O 	O 	0.0308	0.1518	0.89253	-0.413
Mof_O 	O 	0.03059	0.18716	0.85648	-0.434
Mof_N 	N 	0.10352	0.27094	0.86109	-0.135
Mof_N 	N 	0.12575	0.29256	0.85433	-0.189
Mof_C 	C 	0.07728	0.21645	0.88375	0.005
Mof_H 	H 	0.06731	0.22654	0.86839	0.04
Mof_C 	C 	0.06648	0.19021	0.89472	-0.096
Mof_C 	C 	0.04004	0.17482	0.87909	0.376
Mof_O 	O 	0.0308	0.6518	0.39253	-0.413
Mof_O 	O 	0.03059	0.68716	0.35648	-0.434
Mof_N 	N 	0.10352	0.77094	0.36109	-0.135
Mof_N 	N 	0.12575	0.79256	0.35433	-0.189
Mof_C 	C 	0.07728	0.71645	0.38375	0.005
Mof_H 	H 	0.06731	0.72654	0.36839	0.04
Mof_C 	C 	0.06648	0.69021	0.39472	-0.096
Mof_C 	C 	0.04004	0.67482	0.37909	0.376
Mof_O 	O 	0.5308	0.1518	0.39253	-0.412
Mof_O 	O 	0.53059	0.18716	0.35648	-0.433
Mof_N 	N 	0.60352	0.27094	0.36109	-0.135
Mof_N 	N 	0.62575	0.29256	0.35433	-0.189
Mof_C 	C 	0.57728	0.21645	0.38375	0.005
Mof_H 	H 	0.56731	0.22654	0.36839	0.04
Mof_C 	C 	0.56648	0.19021	0.39472	-0.096
Mof_C 	C 	0.54004	0.17482	0.37909	0.376
Mof_O 	O 	0.5308	0.6518	0.89253	-0.411
Mof_O 	O 	0.53059	0.68716	0.85648	-0.433
Mof_N 	N 	0.60352	0.77094	0.86109	-0.135
Mof_N 	N 	0.62575	0.79256	0.85433	-0.189
Mof_C 	C 	0.57728	0.71645	0.88375	0.005
Mof_H 	H 	0.56731	0.72654	0.86839	0.04
Mof_C 	C 	0.56648	0.69021	0.89472	-0.095
Mof_C 	C 	0.54004	0.67482	0.87909	0.376
Mof_O 	O 	0.0308	0.8482	0.10747	-0.413
Mof_O 	O 	0.03059	0.81284	0.14352	-0.434
Mof_N 	N 	0.10352	0.72906	0.13891	-0.136
Mof_N 	N 	0.12575	0.70744	0.14567	-0.19
Mof_C 	C 	0.07728	0.78355	0.11625	0.006
Mof_H 	H 	0.06731	0.77346	0.13161	0.039
Mof_C 	C 	0.06648	0.80979	0.10528	-0.097
Mof_C 	C 	0.04004	0.82518	0.12091	0.377
Mof_O 	O 	0.0308	0.3482	0.60747	-0.413
Mof_O 	O 	0.03059	0.31284	0.64352	-0.434
Mof_N 	N 	0.10352	0.22906	0.63891	-0.136
Mof_N 	N 	0.12575	0.20744	0.64567	-0.19
Mof_C 	C 	0.07728	0.28355	0.61625	0.005
Mof_H 	H 	0.06731	0.27346	0.63161	0.04
Mof_C 	C 	0.06648	0.30979	0.60528	-0.096
Mof_C 	C 	0.04004	0.32518	0.62091	0.376
Mof_O 	O 	0.5308	0.8482	0.60747	-0.412
Mof_O 	O 	0.53059	0.81284	0.64352	-0.433
Mof_N 	N 	0.60352	0.72906	0.63891	-0.135
Mof_N 	N 	0.62575	0.70744	0.64567	-0.189
Mof_C 	C 	0.57728	0.78355	0.61625	0.005
Mof_H 	H 	0.56731	0.77346	0.63161	0.04
Mof_C 	C 	0.56648	0.80979	0.60528	-0.095
Mof_C 	C 	0.54004	0.82518	0.62091	0.376
Mof_O 	O 	0.5308	0.3482	0.10747	-0.412
Mof_O 	O 	0.53059	0.31284	0.14352	-0.433
Mof_N 	N 	0.60352	0.22906	0.13891	-0.135
Mof_N 	N 	0.62575	0.20744	0.14567	-0.189
Mof_C 	C 	0.57728	0.28355	0.11625	0.005
Mof_H 	H 	0.56731	0.27346	0.13161	0.04
Mof_C 	C 	0.56648	0.30979	0.10528	-0.096
Mof_C 	C 	0.54004	0.32518	0.12091	0.376
Mof_O 	O 	0.89253	0.9692	0.8482	-0.409
Mof_O 	O 	0.85648	0.96941	0.81284	-0.431
Mof_N 	N 	0.86109	0.89648	0.72906	-0.135
Mof_N 	N 	0.85433	0.87425	0.70744	-0.189
Mof_C 	C 	0.88375	0.92272	0.78355	0.004
Mof_H 	H 	0.86839	0.93269	0.77346	0.041
Mof_C 	C 	0.89472	0.93352	0.80979	-0.094
Mof_C 	C 	0.87909	0.95996	0.82518	0.376
Mof_O 	O 	0.89253	0.4692	0.3482	-0.411
Mof_O 	O 	0.85648	0.46941	0.31284	-0.433
Mof_N 	N 	0.86109	0.39648	0.22906	-0.135
Mof_N 	N 	0.85433	0.37425	0.20744	-0.189
Mof_C 	C 	0.88375	0.42272	0.28355	0.005
Mof_H 	H 	0.86839	0.43269	0.27346	0.04
Mof_C 	C 	0.89472	0.43352	0.30979	-0.095
Mof_C 	C 	0.87909	0.45996	0.32518	0.376
Mof_O 	O 	0.39253	0.9692	0.3482	-0.409
Mof_O 	O 	0.35648	0.96941	0.31284	-0.431
Mof_N 	N 	0.36109	0.89648	0.22906	-0.135
Mof_N 	N 	0.35433	0.87425	0.20744	-0.189
Mof_C 	C 	0.38375	0.92272	0.28355	0.005
Mof_H 	H 	0.36839	0.93269	0.27346	0.041
Mof_C 	C 	0.39472	0.93352	0.30979	-0.095
Mof_C 	C 	0.37909	0.95996	0.32518	0.376
Mof_O 	O 	0.39253	0.4692	0.8482	-0.412
Mof_O 	O 	0.35648	0.46941	0.81284	-0.433
Mof_N 	N 	0.36109	0.39648	0.72906	-0.135
Mof_N 	N 	0.35433	0.37425	0.70744	-0.189
Mof_C 	C 	0.38375	0.42272	0.78355	0.005
Mof_H 	H 	0.36839	0.43269	0.77346	0.04
Mof_C 	C 	0.39472	0.43352	0.80979	-0.095
Mof_C 	C 	0.37909	0.45996	0.82518	0.376
Mof_O 	O 	0.10747	0.9692	0.1518	-0.41
Mof_O 	O 	0.14352	0.96941	0.18716	-0.431
Mof_N 	N 	0.13891	0.89648	0.27094	-0.135
Mof_N 	N 	0.14567	0.87425	0.29256	-0.189
Mof_C 	C 	0.11625	0.92272	0.21645	0.005
Mof_H 	H 	0.13161	0.93269	0.22654	0.041
Mof_C 	C 	0.10528	0.93352	0.19021	-0.095
Mof_C 	C 	0.12091	0.95996	0.17482	0.376
Mof_O 	O 	0.10747	0.4692	0.6518	-0.412
Mof_O 	O 	0.14352	0.46941	0.68716	-0.433
Mof_N 	N 	0.13891	0.39648	0.77094	-0.135
Mof_N 	N 	0.14567	0.37425	0.79256	-0.189
Mof_C 	C 	0.11625	0.42272	0.71645	0.005
Mof_H 	H 	0.13161	0.43269	0.72654	0.04
Mof_C 	C 	0.10528	0.43352	0.69021	-0.096
Mof_C 	C 	0.12091	0.45996	0.67482	0.376
Mof_O 	O 	0.60747	0.9692	0.6518	-0.409
Mof_O 	O 	0.64352	0.96941	0.68716	-0.431
Mof_N 	N 	0.63891	0.89648	0.77094	-0.135
Mof_N 	N 	0.64567	0.87425	0.79256	-0.189
Mof_C 	C 	0.61625	0.92272	0.71645	0.005
Mof_H 	H 	0.63161	0.93269	0.72654	0.041
Mof_C 	C 	0.60528	0.93352	0.69021	-0.095
Mof_C 	C 	0.62091	0.95996	0.67482	0.376
Mof_O 	O 	0.60747	0.4692	0.1518	-0.412
Mof_O 	O 	0.64352	0.46941	0.18716	-0.433
Mof_N 	N 	0.63891	0.39648	0.27094	-0.135
Mof_N 	N 	0.64567	0.37425	0.29256	-0.189
Mof_C 	C 	0.61625	0.42272	0.21645	0.005
Mof_H 	H 	0.63161	0.43269	0.22654	0.04
Mof_C 	C 	0.60528	0.43352	0.19021	-0.096
Mof_C 	C 	0.62091	0.45996	0.17482	0.376
Mof_O 	O 	0.89253	0.0308	0.1518	-0.413
Mof_O 	O 	0.85648	0.03059	0.18716	-0.434
Mof_N 	N 	0.86109	0.10352	0.27094	-0.135
Mof_N 	N 	0.85433	0.12575	0.29256	-0.189
Mof_C 	C 	0.88375	0.07728	0.21645	0.005
Mof_H 	H 	0.86839	0.06731	0.22654	0.04
Mof_C 	C 	0.89472	0.06648	0.19021	-0.096
Mof_C 	C 	0.87909	0.04004	0.17482	0.376
Mof_O 	O 	0.89253	0.5308	0.6518	-0.411
Mof_O 	O 	0.85648	0.53059	0.68716	-0.433
Mof_N 	N 	0.86109	0.60352	0.77094	-0.135
Mof_N 	N 	0.85433	0.62575	0.79256	-0.189
Mof_C 	C 	0.88375	0.57728	0.71645	0.005
Mof_H 	H 	0.86839	0.56731	0.72654	0.04
Mof_C 	C 	0.89472	0.56648	0.69021	-0.095
Mof_C 	C 	0.87909	0.54004	0.67482	0.376
Mof_O 	O 	0.39253	0.0308	0.6518	-0.413
Mof_O 	O 	0.35648	0.03059	0.68716	-0.434
Mof_N 	N 	0.36109	0.10352	0.77094	-0.135
Mof_N 	N 	0.35433	0.12575	0.79256	-0.189
Mof_C 	C 	0.38375	0.07728	0.71645	0.005
Mof_H 	H 	0.36839	0.06731	0.72654	0.04
Mof_C 	C 	0.39472	0.06648	0.69021	-0.096
Mof_C 	C 	0.37909	0.04004	0.67482	0.376
Mof_O 	O 	0.39253	0.5308	0.1518	-0.412
Mof_O 	O 	0.35648	0.53059	0.18716	-0.433
Mof_N 	N 	0.36109	0.60352	0.27094	-0.135
Mof_N 	N 	0.35433	0.62575	0.29256	-0.189
Mof_C 	C 	0.38375	0.57728	0.21645	0.005
Mof_H 	H 	0.36839	0.56731	0.22654	0.04
Mof_C 	C 	0.39472	0.56648	0.19021	-0.096
Mof_C 	C 	0.37909	0.54004	0.17482	0.376
Mof_O 	O 	0.10747	0.0308	0.8482	-0.413
Mof_O 	O 	0.14352	0.03059	0.81284	-0.434
Mof_N 	N 	0.13891	0.10352	0.72906	-0.136
Mof_N 	N 	0.14567	0.12575	0.70744	-0.19
Mof_C 	C 	0.11625	0.07728	0.78355	0.006
Mof_H 	H 	0.13161	0.06731	0.77346	0.039
Mof_C 	C 	0.10528	0.06648	0.80979	-0.097
Mof_C 	C 	0.12091	0.04004	0.82518	0.377
Mof_O 	O 	0.10747	0.5308	0.3482	-0.412
Mof_O 	O 	0.14352	0.53059	0.31284	-0.433
Mof_N 	N 	0.13891	0.60352	0.22906	-0.135
Mof_N 	N 	0.14567	0.62575	0.20744	-0.189
Mof_C 	C 	0.11625	0.57728	0.28355	0.005
Mof_H 	H 	0.13161	0.56731	0.27346	0.04
Mof_C 	C 	0.10528	0.56648	0.30979	-0.096
Mof_C 	C 	0.12091	0.54004	0.32518	0.376
Mof_O 	O 	0.60747	0.0308	0.3482	-0.413
Mof_O 	O 	0.64352	0.03059	0.31284	-0.434
Mof_N 	N 	0.63891	0.10352	0.22906	-0.136
Mof_N 	N 	0.64567	0.12575	0.20744	-0.19
Mof_C 	C 	0.61625	0.07728	0.28355	0.005
Mof_H 	H 	0.63161	0.06731	0.27346	0.04
Mof_C 	C 	0.60528	0.06648	0.30979	-0.096
Mof_C 	C 	0.62091	0.04004	0.32518	0.376
Mof_O 	O 	0.60747	0.5308	0.8482	-0.412
Mof_O 	O 	0.64352	0.53059	0.81284	-0.433
Mof_N 	N 	0.63891	0.60352	0.72906	-0.135
Mof_N 	N 	0.64567	0.62575	0.70744	-0.189
Mof_C 	C 	0.61625	0.57728	0.78355	0.005
Mof_H 	H 	0.63161	0.56731	0.77346	0.04
Mof_C 	C 	0.60528	0.56648	0.80979	-0.095
Mof_C 	C 	0.62091	0.54004	0.82518	0.376
Mof_O 	O 	0.89253	0.8482	0.0308	-0.412
Mof_O 	O 	0.85648	0.81284	0.03059	-0.434
Mof_N 	N 	0.86109	0.72906	0.10352	-0.135
Mof_N 	N 	0.85433	0.70744	0.12575	-0.189
Mof_C 	C 	0.88375	0.78355	0.07728	0.005
Mof_H 	H 	0.86839	0.77346	0.06731	0.04
Mof_C 	C 	0.89472	0.80979	0.06648	-0.096
Mof_C 	C 	0.87909	0.82518	0.04004	0.376
Mof_O 	O 	0.89253	0.3482	0.5308	-0.411
Mof_O 	O 	0.85648	0.31284	0.53059	-0.433
Mof_N 	N 	0.86109	0.22906	0.60352	-0.135
Mof_N 	N 	0.85433	0.20744	0.62575	-0.189
Mof_C 	C 	0.88375	0.28355	0.57728	0.005
Mof_H 	H 	0.86839	0.27346	0.56731	0.04
Mof_C 	C 	0.89472	0.30979	0.56648	-0.095
Mof_C 	C 	0.87909	0.32518	0.54004	0.376
Mof_O 	O 	0.39253	0.8482	0.5308	-0.412
Mof_O 	O 	0.35648	0.81284	0.53059	-0.433
Mof_N 	N 	0.36109	0.72906	0.60352	-0.135
Mof_N 	N 	0.35433	0.70744	0.62575	-0.189
Mof_C 	C 	0.38375	0.78355	0.57728	0.005
Mof_H 	H 	0.36839	0.77346	0.56731	0.04
Mof_C 	C 	0.39472	0.80979	0.56648	-0.095
Mof_C 	C 	0.37909	0.82518	0.54004	0.376
Mof_O 	O 	0.39253	0.3482	0.0308	-0.413
Mof_O 	O 	0.35648	0.31284	0.03059	-0.434
Mof_N 	N 	0.36109	0.22906	0.10352	-0.136
Mof_N 	N 	0.35433	0.20744	0.12575	-0.189
Mof_C 	C 	0.38375	0.28355	0.07728	0.005
Mof_H 	H 	0.36839	0.27346	0.06731	0.04
Mof_C 	C 	0.39472	0.30979	0.06648	-0.096
Mof_C 	C 	0.37909	0.32518	0.04004	0.376
Mof_O 	O 	0.10747	0.1518	0.0308	-0.413
Mof_O 	O 	0.14352	0.18716	0.03059	-0.434
Mof_N 	N 	0.13891	0.27094	0.10352	-0.136
Mof_N 	N 	0.14567	0.29256	0.12575	-0.19
Mof_C 	C 	0.11625	0.21645	0.07728	0.006
Mof_H 	H 	0.13161	0.22654	0.06731	0.039
Mof_C 	C 	0.10528	0.19021	0.06648	-0.097
Mof_C 	C 	0.12091	0.17482	0.04004	0.377
Mof_O 	O 	0.10747	0.6518	0.5308	-0.412
Mof_O 	O 	0.14352	0.68716	0.53059	-0.433
Mof_N 	N 	0.13891	0.77094	0.60352	-0.135
Mof_N 	N 	0.14567	0.79256	0.62575	-0.189
Mof_C 	C 	0.11625	0.71645	0.57728	0.005
Mof_H 	H 	0.13161	0.72654	0.56731	0.04
Mof_C 	C 	0.10528	0.69021	0.56648	-0.096
Mof_C 	C 	0.12091	0.67482	0.54004	0.376
Mof_O 	O 	0.60747	0.1518	0.5308	-0.412
Mof_O 	O 	0.64352	0.18716	0.53059	-0.433
Mof_N 	N 	0.63891	0.27094	0.60352	-0.135
Mof_N 	N 	0.64567	0.29256	0.62575	-0.189
Mof_C 	C 	0.61625	0.21645	0.57728	0.005
Mof_H 	H 	0.63161	0.22654	0.56731	0.04
Mof_C 	C 	0.60528	0.19021	0.56648	-0.096
Mof_C 	C 	0.62091	0.17482	0.54004	0.376
Mof_O 	O 	0.60747	0.6518	0.0308	-0.413
Mof_O 	O 	0.64352	0.68716	0.03059	-0.434
Mof_N 	N 	0.63891	0.77094	0.10352	-0.135
Mof_N 	N 	0.64567	0.79256	0.12575	-0.189
Mof_C 	C 	0.61625	0.71645	0.07728	0.005
Mof_H 	H 	0.63161	0.72654	0.06731	0.04
Mof_C 	C 	0.60528	0.69021	0.06648	-0.096
Mof_C 	C 	0.62091	0.67482	0.04004	0.376
Mof_O 	O 	0.89253	0.1518	0.9692	-0.409
Mof_O 	O 	0.85648	0.18716	0.96941	-0.431
Mof_N 	N 	0.86109	0.27094	0.89648	-0.135
Mof_N 	N 	0.85433	0.29256	0.87425	-0.189
Mof_C 	C 	0.88375	0.21645	0.92272	0.004
Mof_H 	H 	0.86839	0.22654	0.93269	0.041
Mof_C 	C 	0.89472	0.19021	0.93352	-0.094
Mof_C 	C 	0.87909	0.17482	0.95996	0.376
Mof_O 	O 	0.89253	0.6518	0.4692	-0.411
Mof_O 	O 	0.85648	0.68716	0.46941	-0.433
Mof_N 	N 	0.86109	0.77094	0.39648	-0.135
Mof_N 	N 	0.85433	0.79256	0.37425	-0.189
Mof_C 	C 	0.88375	0.71645	0.42272	0.005
Mof_H 	H 	0.86839	0.72654	0.43269	0.04
Mof_C 	C 	0.89472	0.69021	0.43352	-0.095
Mof_C 	C 	0.87909	0.67482	0.45996	0.376
Mof_O 	O 	0.39253	0.1518	0.4692	-0.412
Mof_O 	O 	0.35648	0.18716	0.46941	-0.433
Mof_N 	N 	0.36109	0.27094	0.39648	-0.135
Mof_N 	N 	0.35433	0.29256	0.37425	-0.189
Mof_C 	C 	0.38375	0.21645	0.42272	0.005
Mof_H 	H 	0.36839	0.22654	0.43269	0.04
Mof_C 	C 	0.39472	0.19021	0.43352	-0.096
Mof_C 	C 	0.37909	0.17482	0.45996	0.376
Mof_O 	O 	0.39253	0.6518	0.9692	-0.409
Mof_O 	O 	0.35648	0.68716	0.96941	-0.431
Mof_N 	N 	0.36109	0.77094	0.89648	-0.135
Mof_N 	N 	0.35433	0.79256	0.87425	-0.189
Mof_C 	C 	0.38375	0.71645	0.92272	0.005
Mof_H 	H 	0.36839	0.72654	0.93269	0.041
Mof_C 	C 	0.39472	0.69021	0.93352	-0.095
Mof_C 	C 	0.37909	0.67482	0.95996	0.376
Mof_O 	O 	0.10747	0.8482	0.9692	-0.41
Mof_O 	O 	0.14352	0.81284	0.96941	-0.431
Mof_N 	N 	0.13891	0.72906	0.89648	-0.135
Mof_N 	N 	0.14567	0.70744	0.87425	-0.189
Mof_C 	C 	0.11625	0.78355	0.92272	0.005
Mof_H 	H 	0.13161	0.77346	0.93269	0.041
Mof_C 	C 	0.10528	0.80979	0.93352	-0.095
Mof_C 	C 	0.12091	0.82518	0.95996	0.376
Mof_O 	O 	0.10747	0.3482	0.4692	-0.412
Mof_O 	O 	0.14352	0.31284	0.46941	-0.433
Mof_N 	N 	0.13891	0.22906	0.39648	-0.135
Mof_N 	N 	0.14567	0.20744	0.37425	-0.189
Mof_C 	C 	0.11625	0.28355	0.42272	0.005
Mof_H 	H 	0.13161	0.27346	0.43269	0.04
Mof_C 	C 	0.10528	0.30979	0.43352	-0.096
Mof_C 	C 	0.12091	0.32518	0.45996	0.376
Mof_O 	O 	0.60747	0.8482	0.4692	-0.412
Mof_O 	O 	0.64352	0.81284	0.46941	-0.433
Mof_N 	N 	0.63891	0.72906	0.39648	-0.135
Mof_N 	N 	0.64567	0.70744	0.37425	-0.189
Mof_C 	C 	0.61625	0.78355	0.42272	0.005
Mof_H 	H 	0.63161	0.77346	0.43269	0.04
Mof_C 	C 	0.60528	0.80979	0.43352	-0.095
Mof_C 	C 	0.62091	0.82518	0.45996	0.376
Mof_O 	O 	0.60747	0.3482	0.9692	-0.409
Mof_O 	O 	0.64352	0.31284	0.96941	-0.431
Mof_N 	N 	0.63891	0.22906	0.89648	-0.135
Mof_N 	N 	0.64567	0.20744	0.87425	-0.189
Mof_C 	C 	0.61625	0.28355	0.92272	0.005
Mof_H 	H 	0.63161	0.27346	0.93269	0.041
Mof_C 	C 	0.60528	0.30979	0.93352	-0.095
Mof_C 	C 	0.62091	0.32518	0.95996	0.376
Mof_O 	O 	0.8482	0.9692	0.10747	-0.41
Mof_O 	O 	0.81284	0.96941	0.14352	-0.431
Mof_N 	N 	0.72906	0.89648	0.13891	-0.135
Mof_N 	N 	0.70744	0.87425	0.14567	-0.189
Mof_C 	C 	0.78355	0.92272	0.11625	0.005
Mof_H 	H 	0.77346	0.93269	0.13161	0.041
Mof_C 	C 	0.80979	0.93352	0.10528	-0.095
Mof_C 	C 	0.82518	0.95996	0.12091	0.376
Mof_O 	O 	0.8482	0.4692	0.60747	-0.412
Mof_O 	O 	0.81284	0.46941	0.64352	-0.433
Mof_N 	N 	0.72906	0.39648	0.63891	-0.135
Mof_N 	N 	0.70744	0.37425	0.64567	-0.189
Mof_C 	C 	0.78355	0.42272	0.61625	0.005
Mof_H 	H 	0.77346	0.43269	0.63161	0.04
Mof_C 	C 	0.80979	0.43352	0.60528	-0.095
Mof_C 	C 	0.82518	0.45996	0.62091	0.376
Mof_O 	O 	0.3482	0.9692	0.60747	-0.409
Mof_O 	O 	0.31284	0.96941	0.64352	-0.431
Mof_N 	N 	0.22906	0.89648	0.63891	-0.135
Mof_N 	N 	0.20744	0.87425	0.64567	-0.189
Mof_C 	C 	0.28355	0.92272	0.61625	0.005
Mof_H 	H 	0.27346	0.93269	0.63161	0.041
Mof_C 	C 	0.30979	0.93352	0.60528	-0.095
Mof_C 	C 	0.32518	0.95996	0.62091	0.376
Mof_O 	O 	0.3482	0.4692	0.10747	-0.412
Mof_O 	O 	0.31284	0.46941	0.14352	-0.433
Mof_N 	N 	0.22906	0.39648	0.13891	-0.135
Mof_N 	N 	0.20744	0.37425	0.14567	-0.189
Mof_C 	C 	0.28355	0.42272	0.11625	0.005
Mof_H 	H 	0.27346	0.43269	0.13161	0.04
Mof_C 	C 	0.30979	0.43352	0.10528	-0.096
Mof_C 	C 	0.32518	0.45996	0.12091	0.376
Mof_O 	O 	0.1518	0.9692	0.89253	-0.409
Mof_O 	O 	0.18716	0.96941	0.85648	-0.431
Mof_N 	N 	0.27094	0.89648	0.86109	-0.135
Mof_N 	N 	0.29256	0.87425	0.85433	-0.189
Mof_C 	C 	0.21645	0.92272	0.88375	0.004
Mof_H 	H 	0.22654	0.93269	0.86839	0.041
Mof_C 	C 	0.19021	0.93352	0.89472	-0.094
Mof_C 	C 	0.17482	0.95996	0.87909	0.376
Mof_O 	O 	0.1518	0.4692	0.39253	-0.412
Mof_O 	O 	0.18716	0.46941	0.35648	-0.433
Mof_N 	N 	0.27094	0.39648	0.36109	-0.135
Mof_N 	N 	0.29256	0.37425	0.35433	-0.189
Mof_C 	C 	0.21645	0.42272	0.38375	0.005
Mof_H 	H 	0.22654	0.43269	0.36839	0.04
Mof_C 	C 	0.19021	0.43352	0.39472	-0.096
Mof_C 	C 	0.17482	0.45996	0.37909	0.376
Mof_O 	O 	0.6518	0.9692	0.39253	-0.409
Mof_O 	O 	0.68716	0.96941	0.35648	-0.431
Mof_N 	N 	0.77094	0.89648	0.36109	-0.135
Mof_N 	N 	0.79256	0.87425	0.35433	-0.189
Mof_C 	C 	0.71645	0.92272	0.38375	0.005
Mof_H 	H 	0.72654	0.93269	0.36839	0.041
Mof_C 	C 	0.69021	0.93352	0.39472	-0.095
Mof_C 	C 	0.67482	0.95996	0.37909	0.376
Mof_O 	O 	0.6518	0.4692	0.89253	-0.411
Mof_O 	O 	0.68716	0.46941	0.85648	-0.433
Mof_N 	N 	0.77094	0.39648	0.86109	-0.135
Mof_N 	N 	0.79256	0.37425	0.85433	-0.189
Mof_C 	C 	0.71645	0.42272	0.88375	0.005
Mof_H 	H 	0.72654	0.43269	0.86839	0.04
Mof_C 	C 	0.69021	0.43352	0.89472	-0.095
Mof_C 	C 	0.67482	0.45996	0.87909	0.376
Mof_O 	O 	0.1518	0.0308	0.10747	-0.413
Mof_O 	O 	0.18716	0.03059	0.14352	-0.434
Mof_N 	N 	0.27094	0.10352	0.13891	-0.136
Mof_N 	N 	0.29256	0.12575	0.14567	-0.19
Mof_C 	C 	0.21645	0.07728	0.11625	0.006
Mof_H 	H 	0.22654	0.06731	0.13161	0.039
Mof_C 	C 	0.19021	0.06648	0.10528	-0.097
Mof_C 	C 	0.17482	0.04004	0.12091	0.377
Mof_O 	O 	0.1518	0.5308	0.60747	-0.412
Mof_O 	O 	0.18716	0.53059	0.64352	-0.433
Mof_N 	N 	0.27094	0.60352	0.63891	-0.135
Mof_N 	N 	0.29256	0.62575	0.64567	-0.189
Mof_C 	C 	0.21645	0.57728	0.61625	0.005
Mof_H 	H 	0.22654	0.56731	0.63161	0.04
Mof_C 	C 	0.19021	0.56648	0.60528	-0.096
Mof_C 	C 	0.17482	0.54004	0.62091	0.376
Mof_O 	O 	0.6518	0.0308	0.60747	-0.413
Mof_O 	O 	0.68716	0.03059	0.64352	-0.434
Mof_N 	N 	0.77094	0.10352	0.63891	-0.135
Mof_N 	N 	0.79256	0.12575	0.64567	-0.189
Mof_C 	C 	0.71645	0.07728	0.61625	0.005
Mof_H 	H 	0.72654	0.06731	0.63161	0.04
Mof_C 	C 	0.69021	0.06648	0.60528	-0.096
Mof_C 	C 	0.67482	0.04004	0.62091	0.376
Mof_O 	O 	0.6518	0.5308	0.10747	-0.412
Mof_O 	O 	0.68716	0.53059	0.14352	-0.433
Mof_N 	N 	0.77094	0.60352	0.13891	-0.135
Mof_N 	N 	0.79256	0.62575	0.14567	-0.189
Mof_C 	C 	0.71645	0.57728	0.11625	0.005
Mof_H 	H 	0.72654	0.56731	0.13161	0.04
Mof_C 	C 	0.69021	0.56648	0.10528	-0.096
Mof_C 	C 	0.67482	0.54004	0.12091	0.376
Mof_O 	O 	0.8482	0.0308	0.89253	-0.412
Mof_O 	O 	0.81284	0.03059	0.85648	-0.434
Mof_N 	N 	0.72906	0.10352	0.86109	-0.135
Mof_N 	N 	0.70744	0.12575	0.85433	-0.189
Mof_C 	C 	0.78355	0.07728	0.88375	0.005
Mof_H 	H 	0.77346	0.06731	0.86839	0.04
Mof_C 	C 	0.80979	0.06648	0.89472	-0.096
Mof_C 	C 	0.82518	0.04004	0.87909	0.376
Mof_O 	O 	0.8482	0.5308	0.39253	-0.412
Mof_O 	O 	0.81284	0.53059	0.35648	-0.433
Mof_N 	N 	0.72906	0.60352	0.36109	-0.135
Mof_N 	N 	0.70744	0.62575	0.35433	-0.189
Mof_C 	C 	0.78355	0.57728	0.38375	0.005
Mof_H 	H 	0.77346	0.56731	0.36839	0.04
Mof_C 	C 	0.80979	0.56648	0.39472	-0.095
Mof_C 	C 	0.82518	0.54004	0.37909	0.376
Mof_O 	O 	0.3482	0.0308	0.39253	-0.413
Mof_O 	O 	0.31284	0.03059	0.35648	-0.434
Mof_N 	N 	0.22906	0.10352	0.36109	-0.136
Mof_N 	N 	0.20744	0.12575	0.35433	-0.189
Mof_C 	C 	0.28355	0.07728	0.38375	0.005
Mof_H 	H 	0.27346	0.06731	0.36839	0.04
Mof_C 	C 	0.30979	0.06648	0.39472	-0.096
Mof_C 	C 	0.32518	0.04004	0.37909	0.376
Mof_O 	O 	0.3482	0.5308	0.89253	-0.411
Mof_O 	O 	0.31284	0.53059	0.85648	-0.433
Mof_N 	N 	0.22906	0.60352	0.86109	-0.135
Mof_N 	N 	0.20744	0.62575	0.85433	-0.189
Mof_C 	C 	0.28355	0.57728	0.88375	0.005
Mof_H 	H 	0.27346	0.56731	0.86839	0.04
Mof_C 	C 	0.30979	0.56648	0.89472	-0.095
Mof_C 	C 	0.32518	0.54004	0.87909	0.376
Mof_O 	O 	0.9692	0.89253	0.1518	-0.409
Mof_O 	O 	0.96941	0.85648	0.18716	-0.431
Mof_N 	N 	0.89648	0.86109	0.27094	-0.135
Mof_N 	N 	0.87425	0.85433	0.29256	-0.189
Mof_C 	C 	0.92272	0.88375	0.21645	0.004
Mof_H 	H 	0.93269	0.86839	0.22654	0.041
Mof_C 	C 	0.93352	0.89472	0.19021	-0.094
Mof_C 	C 	0.95996	0.87909	0.17482	0.376
Mof_O 	O 	0.9692	0.39253	0.6518	-0.409
Mof_O 	O 	0.96941	0.35648	0.68716	-0.431
Mof_N 	N 	0.89648	0.36109	0.77094	-0.135
Mof_N 	N 	0.87425	0.35433	0.79256	-0.189
Mof_C 	C 	0.92272	0.38375	0.71645	0.005
Mof_H 	H 	0.93269	0.36839	0.72654	0.041
Mof_C 	C 	0.93352	0.39472	0.69021	-0.095
Mof_C 	C 	0.95996	0.37909	0.67482	0.376
Mof_O 	O 	0.4692	0.89253	0.6518	-0.411
Mof_O 	O 	0.46941	0.85648	0.68716	-0.433
Mof_N 	N 	0.39648	0.86109	0.77094	-0.135
Mof_N 	N 	0.37425	0.85433	0.79256	-0.189
Mof_C 	C 	0.42272	0.88375	0.71645	0.005
Mof_H 	H 	0.43269	0.86839	0.72654	0.04
Mof_C 	C 	0.43352	0.89472	0.69021	-0.095
Mof_C 	C 	0.45996	0.87909	0.67482	0.376
Mof_O 	O 	0.4692	0.39253	0.1518	-0.412
Mof_O 	O 	0.46941	0.35648	0.18716	-0.433
Mof_N 	N 	0.39648	0.36109	0.27094	-0.135
Mof_N 	N 	0.37425	0.35433	0.29256	-0.189
Mof_C 	C 	0.42272	0.38375	0.21645	0.005
Mof_H 	H 	0.43269	0.36839	0.22654	0.04
Mof_C 	C 	0.43352	0.39472	0.19021	-0.096
Mof_C 	C 	0.45996	0.37909	0.17482	0.376
Mof_O 	O 	0.9692	0.10747	0.8482	-0.41
Mof_O 	O 	0.96941	0.14352	0.81284	-0.431
Mof_N 	N 	0.89648	0.13891	0.72906	-0.135
Mof_N 	N 	0.87425	0.14567	0.70744	-0.189
Mof_C 	C 	0.92272	0.11625	0.78355	0.005
Mof_H 	H 	0.93269	0.13161	0.77346	0.041
Mof_C 	C 	0.93352	0.10528	0.80979	-0.095
Mof_C 	C 	0.95996	0.12091	0.82518	0.376
Mof_O 	O 	0.9692	0.60747	0.3482	-0.409
Mof_O 	O 	0.96941	0.64352	0.31284	-0.431
Mof_N 	N 	0.89648	0.63891	0.22906	-0.135
Mof_N 	N 	0.87425	0.64567	0.20744	-0.189
Mof_C 	C 	0.92272	0.61625	0.28355	0.005
Mof_H 	H 	0.93269	0.63161	0.27346	0.041
Mof_C 	C 	0.93352	0.60528	0.30979	-0.095
Mof_C 	C 	0.95996	0.62091	0.32518	0.376
Mof_O 	O 	0.4692	0.10747	0.3482	-0.412
Mof_O 	O 	0.46941	0.14352	0.31284	-0.433
Mof_N 	N 	0.39648	0.13891	0.22906	-0.135
Mof_N 	N 	0.37425	0.14567	0.20744	-0.189
Mof_C 	C 	0.42272	0.11625	0.28355	0.005
Mof_H 	H 	0.43269	0.13161	0.27346	0.04
Mof_C 	C 	0.43352	0.10528	0.30979	-0.096
Mof_C 	C 	0.45996	0.12091	0.32518	0.376
Mof_O 	O 	0.4692	0.60747	0.8482	-0.412
Mof_O 	O 	0.46941	0.64352	0.81284	-0.433
Mof_N 	N 	0.39648	0.63891	0.72906	-0.135
Mof_N 	N 	0.37425	0.64567	0.70744	-0.189
Mof_C 	C 	0.42272	0.61625	0.78355	0.005
Mof_H 	H 	0.43269	0.63161	0.77346	0.04
Mof_C 	C 	0.43352	0.60528	0.80979	-0.095
Mof_C 	C 	0.45996	0.62091	0.82518	0.376
Mof_O 	O 	0.0308	0.89253	0.8482	-0.412
Mof_O 	O 	0.03059	0.85648	0.81284	-0.434
Mof_N 	N 	0.10352	0.86109	0.72906	-0.135
Mof_N 	N 	0.12575	0.85433	0.70744	-0.189
Mof_C 	C 	0.07728	0.88375	0.78355	0.005
Mof_H 	H 	0.06731	0.86839	0.77346	0.04
Mof_C 	C 	0.06648	0.89472	0.80979	-0.096
Mof_C 	C 	0.04004	0.87909	0.82518	0.376
Mof_O 	O 	0.0308	0.39253	0.3482	-0.413
Mof_O 	O 	0.03059	0.35648	0.31284	-0.434
Mof_N 	N 	0.10352	0.36109	0.22906	-0.136
Mof_N 	N 	0.12575	0.35433	0.20744	-0.189
Mof_C 	C 	0.07728	0.38375	0.28355	0.005
Mof_H 	H 	0.06731	0.36839	0.27346	0.04
Mof_C 	C 	0.06648	0.39472	0.30979	-0.096
Mof_C 	C 	0.04004	0.37909	0.32518	0.376
Mof_O 	O 	0.5308	0.89253	0.3482	-0.411
Mof_O 	O 	0.53059	0.85648	0.31284	-0.433
Mof_N 	N 	0.60352	0.86109	0.22906	-0.135
Mof_N 	N 	0.62575	0.85433	0.20744	-0.189
Mof_C 	C 	0.57728	0.88375	0.28355	0.005
Mof_H 	H 	0.56731	0.86839	0.27346	0.04
Mof_C 	C 	0.56648	0.89472	0.30979	-0.095
Mof_C 	C 	0.54004	0.87909	0.32518	0.376
Mof_O 	O 	0.5308	0.39253	0.8482	-0.412
Mof_O 	O 	0.53059	0.35648	0.81284	-0.433
Mof_N 	N 	0.60352	0.36109	0.72906	-0.135
Mof_N 	N 	0.62575	0.35433	0.70744	-0.189
Mof_C 	C 	0.57728	0.38375	0.78355	0.005
Mof_H 	H 	0.56731	0.36839	0.77346	0.04
Mof_C 	C 	0.56648	0.39472	0.80979	-0.095
Mof_C 	C 	0.54004	0.37909	0.82518	0.376
Mof_O 	O 	0.0308	0.10747	0.1518	-0.413
Mof_O 	O 	0.03059	0.14352	0.18716	-0.434
Mof_N 	N 	0.10352	0.13891	0.27094	-0.136
Mof_N 	N 	0.12575	0.14567	0.29256	-0.19
Mof_C 	C 	0.07728	0.11625	0.21645	0.006
Mof_H 	H 	0.06731	0.13161	0.22654	0.039
Mof_C 	C 	0.06648	0.10528	0.19021	-0.097
Mof_C 	C 	0.04004	0.12091	0.17482	0.377
Mof_O 	O 	0.0308	0.60747	0.6518	-0.413
Mof_O 	O 	0.03059	0.64352	0.68716	-0.434
Mof_N 	N 	0.10352	0.63891	0.77094	-0.135
Mof_N 	N 	0.12575	0.64567	0.79256	-0.189
Mof_C 	C 	0.07728	0.61625	0.71645	0.005
Mof_H 	H 	0.06731	0.63161	0.72654	0.04
Mof_C 	C 	0.06648	0.60528	0.69021	-0.096
Mof_C 	C 	0.04004	0.62091	0.67482	0.376
Mof_O 	O 	0.5308	0.10747	0.6518	-0.412
Mof_O 	O 	0.53059	0.14352	0.68716	-0.433
Mof_N 	N 	0.60352	0.13891	0.77094	-0.135
Mof_N 	N 	0.62575	0.14567	0.79256	-0.189
Mof_C 	C 	0.57728	0.11625	0.71645	0.005
Mof_H 	H 	0.56731	0.13161	0.72654	0.04
Mof_C 	C 	0.56648	0.10528	0.69021	-0.096
Mof_C 	C 	0.54004	0.12091	0.67482	0.376
Mof_O 	O 	0.5308	0.60747	0.1518	-0.412
Mof_O 	O 	0.53059	0.64352	0.18716	-0.433
Mof_N 	N 	0.60352	0.63891	0.27094	-0.135
Mof_N 	N 	0.62575	0.64567	0.29256	-0.189
Mof_C 	C 	0.57728	0.61625	0.21645	0.005
Mof_H 	H 	0.56731	0.63161	0.22654	0.04
Mof_C 	C 	0.56648	0.60528	0.19021	-0.096
Mof_C 	C 	0.54004	0.62091	0.17482	0.376
Mof_Cu	Cu	0.16867	0.16867	-0	0.902
Mof_Cu	Cu	0.12656	0.12656	-0	0.901
Mof_Cu	Cu	0.16867	0.66867	0.5	0.904
Mof_Cu	Cu	0.12656	0.62656	0.5	0.903
Mof_Cu	Cu	0.66867	0.16867	0.5	0.904
Mof_Cu	Cu	0.62656	0.12656	0.5	0.903
Mof_Cu	Cu	0.66867	0.66867	-0	0.902
Mof_Cu	Cu	0.62656	0.62656	-0	0.901
Mof_Cu	Cu	0.83133	0.83133	-0	0.902
Mof_Cu	Cu	0.87344	0.87344	-0	0.901
Mof_Cu	Cu	0.83133	0.33133	0.5	0.904
Mof_Cu	Cu	0.87344	0.37344	0.5	0.903
Mof_Cu	Cu	0.33133	0.83133	0.5	0.904
Mof_Cu	Cu	0.37344	0.87344	0.5	0.903
Mof_Cu	Cu	0.33133	0.33133	-0	0.902
Mof_Cu	Cu	0.37344	0.37344	-0	0.901
Mof_Cu	Cu	0.83133	0.16867	-0	0.902
Mof_Cu	Cu	0.87344	0.12656	-0	0.901
Mof_Cu	Cu	0.83133	0.66867	0.5	0.904
Mof_Cu	Cu	0.87344	0.62656	0.5	0.903
Mof_Cu	Cu	0.33133	0.16867	0.5	0.904
Mof_Cu	Cu	0.37344	0.12656	0.5	0.903
Mof_Cu	Cu	0.33133	0.66867	-0	0.902
Mof_Cu	Cu	0.37344	0.62656	-0	0.901
Mof_Cu	Cu	0.16867	0.83133	-0	0.902
Mof_Cu	Cu	0.12656	0.87344	-0	0.901
Mof_Cu	Cu	0.16867	0.33133	0.5	0.904
Mof_Cu	Cu	0.12656	0.37344	0.5	0.903
Mof_Cu	Cu	0.66867	0.83133	0.5	0.904
Mof_Cu	Cu	0.62656	0.87344	0.5	0.903
Mof_Cu	Cu	0.66867	0.33133	-0	0.902
Mof_Cu	Cu	0.62656	0.37344	-0	0.901
Mof_Cu	Cu	-2.81115e-33	0.16867	0.16867	0.902
Mof_Cu	Cu	-1.82118e-33	0.12656	0.12656	0.901
Mof_Cu	Cu	7.09852e-33	0.66867	0.66867	0.902
Mof_Cu	Cu	2.34922e-33	0.62656	0.62656	0.901
Mof_Cu	Cu	0.5	0.16867	0.66867	0.904
Mof_Cu	Cu	0.5	0.12656	0.62656	0.903
Mof_Cu	Cu	0.5	0.66867	0.16867	0.904
Mof_Cu	Cu	0.5	0.62656	0.12656	0.903
Mof_Cu	Cu	3.11699e-33	0.83133	0.83133	0.902
Mof_Cu	Cu	3.27488e-33	0.87344	0.87344	0.901
Mof_Cu	Cu	-1.05342e-33	0.33133	0.33133	0.902
Mof_Cu	Cu	-7.78264e-33	0.37344	0.37344	0.901
Mof_Cu	Cu	0.5	0.83133	0.33133	0.904
Mof_Cu	Cu	0.5	0.87344	0.37344	0.903
Mof_Cu	Cu	0.5	0.33133	0.83133	0.904
Mof_Cu	Cu	0.5	0.37344	0.87344	0.903
Mof_Cu	Cu	-6.2547e-33	0.83133	0.16867	0.902
Mof_Cu	Cu	-7.56044e-33	0.87344	0.12656	0.901
Mof_Cu	Cu	7.09852e-33	0.33133	0.66867	0.902
Mof_Cu	Cu	-6.83359e-33	0.37344	0.62656	0.901
Mof_Cu	Cu	0.5	0.83133	0.66867	0.904
Mof_Cu	Cu	0.5	0.87344	0.62656	0.903
Mof_Cu	Cu	0.5	0.33133	0.16867	0.904
Mof_Cu	Cu	0.5	0.37344	0.12656	0.903
Mof_Cu	Cu	-6.06583e-33	0.16867	0.83133	0.902
Mof_Cu	Cu	-5.90794e-33	0.12656	0.87344	0.901
Mof_Cu	Cu	5.8337e-33	0.66867	0.33133	0.902
Mof_Cu	Cu	-7.78264e-33	0.62656	0.37344	0.901
Mof_Cu	Cu	0.5	0.16867	0.33133	0.904
Mof_Cu	Cu	0.5	0.12656	0.37344	0.903
Mof_Cu	Cu	0.5	0.66867	0.83133	0.904
Mof_Cu	Cu	0.5	0.62656	0.87344	0.903
Mof_Cu	Cu	0.16867	-1.14785e-33	0.16867	0.902
Mof_Cu	Cu	0.12656	-1.14785e-33	0.12656	0.901
Mof_Cu	Cu	0.16867	0.5	0.66867	0.904
Mof_Cu	Cu	0.12656	0.5	0.62656	0.903
Mof_Cu	Cu	0.66867	4.59141e-33	0.66867	0.902
Mof_Cu	Cu	0.62656	0	0.62656	0.901
Mof_Cu	Cu	0.66867	0.5	0.16867	0.904
Mof_Cu	Cu	0.62656	0.5	0.12656	0.903
Mof_Cu	Cu	0.83133	0	0.83133	0.902
Mof_Cu	Cu	0.87344	0	0.87344	0.901
Mof_Cu	Cu	0.83133	0.5	0.33133	0.904
Mof_Cu	Cu	0.87344	0.5	0.37344	0.903
Mof_Cu	Cu	0.33133	0	0.33133	0.902
Mof_Cu	Cu	0.37344	-4.59141e-33	0.37344	0.901
Mof_Cu	Cu	0.33133	0.5	0.83133	0.904
Mof_Cu	Cu	0.37344	0.5	0.87344	0.903
Mof_Cu	Cu	0.16867	0	0.83133	0.902
Mof_Cu	Cu	0.12656	0	0.87344	0.901
Mof_Cu	Cu	0.16867	0.5	0.33133	0.904
Mof_Cu	Cu	0.12656	0.5	0.37344	0.903
Mof_Cu	Cu	0.66867	0	0.33133	0.902
Mof_Cu	Cu	0.62656	-4.59141e-33	0.37344	0.901
Mof_Cu	Cu	0.66867	0.5	0.83133	0.904
Mof_Cu	Cu	0.62656	0.5	0.87344	0.903
Mof_Cu	Cu	0.83133	-1.14785e-33	0.16867	0.902
Mof_Cu	Cu	0.87344	-1.14785e-33	0.12656	0.901
Mof_Cu	Cu	0.83133	0.5	0.66867	0.904
Mof_Cu	Cu	0.87344	0.5	0.62656	0.903
Mof_Cu	Cu	0.33133	4.59141e-33	0.66867	0.902
Mof_Cu	Cu	0.37344	0	0.62656	0.901
Mof_Cu	Cu	0.33133	0.5	0.16867	0.904
Mof_Cu	Cu	0.37344	0.5	0.12656	0.903
Mof_Cu	Cu	0.32504	0.17496	0.12195	0.821
Mof_Cu	Cu	0.32504	0.67496	0.62195	0.821
Mof_Cu	Cu	0.67496	0.82504	0.12195	0.821
Mof_Cu	Cu	0.67496	0.32504	0.62195	0.821
Mof_Cu	Cu	0.17496	0.32504	0.12195	0.821
Mof_Cu	Cu	0.67496	0.17496	0.87805	0.821
Mof_Cu	Cu	0.67496	0.67496	0.37805	0.821
Mof_Cu	Cu	0.17496	0.17496	0.37805	0.821
Mof_Cu	Cu	0.32504	0.82504	0.87805	0.822
Mof_Cu	Cu	0.32504	0.32504	0.37805	0.821
Mof_Cu	Cu	0.12195	0.32504	0.17496	0.821
Mof_Cu	Cu	0.62195	0.32504	0.67496	0.821
Mof_Cu	Cu	0.12195	0.67496	0.82504	0.821
Mof_Cu	Cu	0.12195	0.17496	0.32504	0.821
Mof_Cu	Cu	0.62195	0.67496	0.32504	0.821
Mof_Cu	Cu	0.87805	0.67496	0.17496	0.821
Mof_Cu	Cu	0.37805	0.67496	0.67496	0.821
Mof_Cu	Cu	0.37805	0.17496	0.17496	0.821
Mof_Cu	Cu	0.87805	0.32504	0.82504	0.822
Mof_Cu	Cu	0.37805	0.32504	0.32504	0.821
Mof_Cu	Cu	0.17496	0.12195	0.32504	0.821
Mof_Cu	Cu	0.17496	0.62195	0.82504	0.821
Mof_Cu	Cu	0.82504	0.12195	0.67496	0.821
Mof_Cu	Cu	0.82504	0.62195	0.17496	0.821
Mof_Cu	Cu	0.32504	0.12195	0.17496	0.821
Mof_Cu	Cu	0.17496	0.87805	0.67496	0.821
Mof_Cu	Cu	0.17496	0.37805	0.17496	0.821
Mof_Cu	Cu	0.82504	0.87805	0.32504	0.822
Mof_Cu	Cu	0.82504	0.37805	0.82504	0.822
Mof_Cu	Cu	0.32504	0.37805	0.32504	0.821
Mof_Cu	Cu	0.17496	0.32504	0.87805	0.822
Mof_Cu	Cu	0.17496	0.82504	0.37805	0.821
Mof_Cu	Cu	0.82504	0.67496	0.87805	0.822
Mof_Cu	Cu	0.82504	0.17496	0.37805	0.821
Mof_Cu	Cu	0.32504	0.17496	0.87805	0.822
Mof_Cu	Cu	0.17496	0.67496	0.12195	0.821
Mof_Cu	Cu	0.17496	0.17496	0.62195	0.821
Mof_Cu	Cu	0.82504	0.32504	0.12195	0.821
Mof_Cu	Cu	0.82504	0.82504	0.62195	0.821
Mof_Cu	Cu	0.32504	0.32504	0.62195	0.821
Mof_Cu	Cu	0.32504	0.12195	0.82504	0.821
Mof_Cu	Cu	0.32504	0.62195	0.32504	0.821
Mof_Cu	Cu	0.67496	0.12195	0.17496	0.821
Mof_Cu	Cu	0.67496	0.62195	0.67496	0.821
Mof_Cu	Cu	0.17496	0.62195	0.17496	0.821
Mof_Cu	Cu	0.67496	0.87805	0.82504	0.822
Mof_Cu	Cu	0.67496	0.37805	0.32504	0.821
Mof_Cu	Cu	0.17496	0.87805	0.32504	0.822
Mof_Cu	Cu	0.32504	0.87805	0.17496	0.822
Mof_Cu	Cu	0.32504	0.37805	0.67496	0.821
Mof_Cu	Cu	0.12195	0.17496	0.67496	0.821
Mof_Cu	Cu	0.62195	0.17496	0.17496	0.821
Mof_Cu	Cu	0.12195	0.82504	0.32504	0.821
Mof_Cu	Cu	0.62195	0.82504	0.82504	0.821
Mof_Cu	Cu	0.62195	0.32504	0.32504	0.821
Mof_Cu	Cu	0.87805	0.17496	0.32504	0.822
Mof_Cu	Cu	0.37805	0.17496	0.82504	0.821
Mof_Cu	Cu	0.87805	0.82504	0.67496	0.822
Mof_Cu	Cu	0.87805	0.32504	0.17496	0.822
Mof_Cu	Cu	0.37805	0.82504	0.17496	0.821
Mof_Cu	Cu	0.67496	0.82504	0.87805	0.822
Mof_Cu	Cu	0.67496	0.32504	0.37805	0.821
Mof_Cu	Cu	0.32504	0.67496	0.37805	0.821
Mof_Cu	Cu	0.32504	0.82504	0.12195	0.821
Mof_Cu	Cu	0.67496	0.17496	0.12195	0.821
Mof_Cu	Cu	0.67496	0.67496	0.62195	0.821
Mof_Cu	Cu	0.87805	0.67496	0.82504	0.822
Mof_Cu	Cu	0.37805	0.67496	0.32504	0.821
Mof_Cu	Cu	0.37805	0.32504	0.67496	0.821
Mof_Cu	Cu	0.12195	0.32504	0.82504	0.821
Mof_Cu	Cu	0.12195	0.67496	0.17496	0.821
Mof_Cu	Cu	0.62195	0.67496	0.67496	0.821
Mof_Cu	Cu	0.82504	0.87805	0.67496	0.822
Mof_Cu	Cu	0.82504	0.37805	0.17496	0.821
Mof_Cu	Cu	0.17496	0.37805	0.82504	0.821
Mof_Cu	Cu	0.82504	0.12195	0.32504	0.821
Mof_Cu	Cu	0.82504	0.62195	0.82504	0.821
Mof_Cu	Cu	0.17496	0.12195	0.67496	0.821
Mof_Cu	Cu	0.82504	0.67496	0.12195	0.821
Mof_Cu	Cu	0.82504	0.17496	0.62195	0.821
Mof_Cu	Cu	0.17496	0.82504	0.62195	0.821
Mof_Cu	Cu	0.82504	0.32504	0.87805	0.822
Mof_Cu	Cu	0.82504	0.82504	0.37805	0.822
Mof_Cu	Cu	0.17496	0.67496	0.87805	0.821
Mof_Cu	Cu	0.67496	0.87805	0.17496	0.821
Mof_Cu	Cu	0.67496	0.37805	0.67496	0.821
Mof_Cu	Cu	0.32504	0.87805	0.82504	0.822
Mof_Cu	Cu	0.32504	0.62195	0.67496	0.821
Mof_Cu	Cu	0.67496	0.12195	0.82504	0.821
Mof_Cu	Cu	0.67496	0.62195	0.32504	0.821
Mof_Cu	Cu	0.87805	0.82504	0.32504	0.822
Mof_Cu	Cu	0.37805	0.82504	0.82504	0.822
Mof_Cu	Cu	0.87805	0.17496	0.67496	0.821
Mof_Cu	Cu	0.12195	0.82504	0.67496	0.821
Mof_Cu	Cu	0.62195	0.82504	0.17496	0.821
Mof_Cu	Cu	0.62195	0.17496	0.82504	0.821
Mof_O 	O 	0.3393	0.1607	0.1607	-0.622
Mof_O 	O 	0.3393	0.6607	0.6607	-0.622
Mof_O 	O 	0.6607	0.8393	0.1607	-0.622
Mof_O 	O 	0.6607	0.3393	0.6607	-0.622
Mof_O 	O 	0.1607	0.3393	0.1607	-0.622
Mof_O 	O 	0.6607	0.1607	0.8393	-0.622
Mof_O 	O 	0.6607	0.6607	0.3393	-0.622
Mof_O 	O 	0.1607	0.1607	0.3393	-0.622
Mof_O 	O 	0.3393	0.8393	0.8393	-0.621
Mof_O 	O 	0.3393	0.3393	0.3393	-0.622
Mof_O 	O 	0.1607	0.6607	0.8393	-0.622
Mof_O 	O 	0.8393	0.6607	0.1607	-0.622
Mof_O 	O 	0.8393	0.3393	0.8393	-0.621
Mof_O 	O 	0.8393	0.1607	0.6607	-0.622
Mof_O 	O 	0.1607	0.8393	0.6607	-0.622
Mof_O 	O 	0.8393	0.8393	0.3393	-0.621
Mof_O 	O 	0.1607	0.3393	0.8393	-0.622
Mof_O 	O 	0.8393	0.6607	0.8393	-0.621
Mof_O 	O 	0.8393	0.1607	0.3393	-0.622
Mof_O 	O 	0.3393	0.1607	0.8393	-0.622
Mof_O 	O 	0.1607	0.6607	0.1607	-0.622
Mof_O 	O 	0.8393	0.3393	0.1607	-0.622
Mof_O 	O 	0.3393	0.3393	0.6607	-0.622
Mof_O 	O 	0.3393	0.6607	0.3393	-0.622
Mof_O 	O 	0.6607	0.1607	0.1607	-0.622
Mof_O 	O 	0.6607	0.6607	0.6607	-0.622
Mof_O 	O 	0.6607	0.8393	0.8393	-0.621
Mof_O 	O 	0.6607	0.3393	0.3393	-0.622
Mof_O 	O 	0.1607	0.8393	0.3393	-0.622
Mof_O 	O 	0.3393	0.8393	0.1607	-0.622
Mof_O 	O 	0.1607	0.1607	0.6607	-0.622
Mof_O 	O 	0.8393	0.8393	0.6607	-0.621
Mof_C 	C 	0.256	0.11874	0.11874	0.128
Mof_C 	C 	0.2281	0.1039	0.1039	-0.046
Mof_C 	C 	0.17745	0.08043	0.08043	0.035
Mof_H 	H 	0.15955	0.07278	0.07278	0.05
Mof_C 	C 	0.256	0.61874	0.61874	0.128
Mof_C 	C 	0.2281	0.6039	0.6039	-0.045
Mof_C 	C 	0.17745	0.58043	0.58043	0.034
Mof_H 	H 	0.15955	0.57278	0.57278	0.051
Mof_C 	C 	0.756	0.11874	0.61874	0.128
Mof_C 	C 	0.7281	0.1039	0.6039	-0.045
Mof_C 	C 	0.67745	0.08043	0.58043	0.034
Mof_H 	H 	0.65955	0.07278	0.57278	0.051
Mof_C 	C 	0.756	0.61874	0.11874	0.128
Mof_C 	C 	0.7281	0.6039	0.1039	-0.045
Mof_C 	C 	0.67745	0.58043	0.08043	0.034
Mof_H 	H 	0.65955	0.57278	0.07278	0.051
Mof_C 	C 	0.744	0.88126	0.11874	0.128
Mof_C 	C 	0.7719	0.8961	0.1039	-0.045
Mof_C 	C 	0.82255	0.91957	0.08043	0.034
Mof_H 	H 	0.84045	0.92722	0.07278	0.052
Mof_C 	C 	0.744	0.38126	0.61874	0.128
Mof_C 	C 	0.7719	0.3961	0.6039	-0.045
Mof_C 	C 	0.82255	0.41957	0.58043	0.034
Mof_H 	H 	0.84045	0.42722	0.57278	0.052
Mof_C 	C 	0.244	0.88126	0.61874	0.128
Mof_C 	C 	0.2719	0.8961	0.6039	-0.044
Mof_C 	C 	0.32255	0.91957	0.58043	0.034
Mof_H 	H 	0.34045	0.92722	0.57278	0.052
Mof_C 	C 	0.244	0.38126	0.11874	0.128
Mof_C 	C 	0.2719	0.3961	0.1039	-0.045
Mof_C 	C 	0.32255	0.41957	0.08043	0.034
Mof_H 	H 	0.34045	0.42722	0.07278	0.051
Mof_C 	C 	0.744	0.11874	0.88126	0.128
Mof_C 	C 	0.7719	0.1039	0.8961	-0.045
Mof_C 	C 	0.82255	0.08043	0.91957	0.034
Mof_H 	H 	0.84045	0.07278	0.92722	0.052
Mof_C 	C 	0.744	0.61874	0.38126	0.128
Mof_C 	C 	0.7719	0.6039	0.3961	-0.045
Mof_C 	C 	0.82255	0.58043	0.41957	0.034
Mof_H 	H 	0.84045	0.57278	0.42722	0.052
Mof_C 	C 	0.244	0.11874	0.38126	0.128
Mof_C 	C 	0.2719	0.1039	0.3961	-0.045
Mof_C 	C 	0.32255	0.08043	0.41957	0.034
Mof_H 	H 	0.34045	0.07278	0.42722	0.051
Mof_C 	C 	0.244	0.61874	0.88126	0.128
Mof_C 	C 	0.2719	0.6039	0.8961	-0.044
Mof_C 	C 	0.32255	0.58043	0.91957	0.034
Mof_H 	H 	0.34045	0.57278	0.92722	0.052
Mof_C 	C 	0.256	0.88126	0.88126	0.128
Mof_C 	C 	0.2281	0.8961	0.8961	-0.044
Mof_C 	C 	0.17745	0.91957	0.91957	0.033
Mof_H 	H 	0.15955	0.92722	0.92722	0.052
Mof_C 	C 	0.256	0.38126	0.38126	0.128
Mof_C 	C 	0.2281	0.3961	0.3961	-0.045
Mof_C 	C 	0.17745	0.41957	0.41957	0.034
Mof_H 	H 	0.15955	0.42722	0.42722	0.051
Mof_C 	C 	0.756	0.88126	0.38126	0.128
Mof_C 	C 	0.7281	0.8961	0.3961	-0.044
Mof_C 	C 	0.67745	0.91957	0.41957	0.034
Mof_H 	H 	0.65955	0.92722	0.42722	0.052
Mof_C 	C 	0.756	0.38126	0.88126	0.128
Mof_C 	C 	0.7281	0.3961	0.8961	-0.044
Mof_C 	C 	0.67745	0.41957	0.91957	0.034
Mof_H 	H 	0.65955	0.42722	0.92722	0.052
Mof_C 	C 	0.11874	0.256	0.11874	0.128
Mof_C 	C 	0.1039	0.2281	0.1039	-0.046
Mof_C 	C 	0.08043	0.17745	0.08043	0.035
Mof_H 	H 	0.07278	0.15955	0.07278	0.05
Mof_C 	C 	0.11874	0.756	0.61874	0.128
Mof_C 	C 	0.1039	0.7281	0.6039	-0.045
Mof_C 	C 	0.08043	0.67745	0.58043	0.034
Mof_H 	H 	0.07278	0.65955	0.57278	0.051
Mof_C 	C 	0.61874	0.256	0.61874	0.128
Mof_C 	C 	0.6039	0.2281	0.6039	-0.045
Mof_C 	C 	0.58043	0.17745	0.58043	0.034
Mof_H 	H 	0.57278	0.15955	0.57278	0.051
Mof_C 	C 	0.61874	0.756	0.11874	0.128
Mof_C 	C 	0.6039	0.7281	0.1039	-0.045
Mof_C 	C 	0.58043	0.67745	0.08043	0.034
Mof_H 	H 	0.57278	0.65955	0.07278	0.051
Mof_C 	C 	0.11874	0.744	0.88126	0.128
Mof_C 	C 	0.1039	0.7719	0.8961	-0.045
Mof_C 	C 	0.08043	0.82255	0.91957	0.034
Mof_H 	H 	0.07278	0.84045	0.92722	0.052
Mof_C 	C 	0.11874	0.244	0.38126	0.128
Mof_C 	C 	0.1039	0.2719	0.3961	-0.045
Mof_C 	C 	0.08043	0.32255	0.41957	0.034
Mof_H 	H 	0.07278	0.34045	0.42722	0.051
Mof_C 	C 	0.61874	0.744	0.38126	0.128
Mof_C 	C 	0.6039	0.7719	0.3961	-0.045
Mof_C 	C 	0.58043	0.82255	0.41957	0.034
Mof_H 	H 	0.57278	0.84045	0.42722	0.052
Mof_C 	C 	0.61874	0.244	0.88126	0.128
Mof_C 	C 	0.6039	0.2719	0.8961	-0.044
Mof_C 	C 	0.58043	0.32255	0.91957	0.034
Mof_H 	H 	0.57278	0.34045	0.92722	0.052
Mof_C 	C 	0.88126	0.744	0.11874	0.128
Mof_C 	C 	0.8961	0.7719	0.1039	-0.045
Mof_C 	C 	0.91957	0.82255	0.08043	0.034
Mof_H 	H 	0.92722	0.84045	0.07278	0.052
Mof_C 	C 	0.88126	0.244	0.61874	0.128
Mof_C 	C 	0.8961	0.2719	0.6039	-0.044
Mof_C 	C 	0.91957	0.32255	0.58043	0.034
Mof_H 	H 	0.92722	0.34045	0.57278	0.052
Mof_C 	C 	0.38126	0.744	0.61874	0.128
Mof_C 	C 	0.3961	0.7719	0.6039	-0.045
Mof_C 	C 	0.41957	0.82255	0.58043	0.034
Mof_H 	H 	0.42722	0.84045	0.57278	0.052
Mof_C 	C 	0.38126	0.244	0.11874	0.128
Mof_C 	C 	0.3961	0.2719	0.1039	-0.045
Mof_C 	C 	0.41957	0.32255	0.08043	0.034
Mof_H 	H 	0.42722	0.34045	0.07278	0.051
Mof_C 	C 	0.88126	0.256	0.88126	0.128
Mof_C 	C 	0.8961	0.2281	0.8961	-0.044
Mof_C 	C 	0.91957	0.17745	0.91957	0.033
Mof_H 	H 	0.92722	0.15955	0.92722	0.052
Mof_C 	C 	0.88126	0.756	0.38126	0.128
Mof_C 	C 	0.8961	0.7281	0.3961	-0.044
Mof_C 	C 	0.91957	0.67745	0.41957	0.034
Mof_H 	H 	0.92722	0.65955	0.42722	0.052
Mof_C 	C 	0.38126	0.256	0.38126	0.128
Mof_C 	C 	0.3961	0.2281	0.3961	-0.045
Mof_C 	C 	0.41957	0.17745	0.41957	0.034
Mof_H 	H 	0.42722	0.15955	0.42722	0.051
Mof_C 	C 	0.38126	0.756	0.88126	0.128
Mof_C 	C 	0.3961	0.7281	0.8961	-0.044
Mof_C 	C 	0.41957	0.67745	0.91957	0.034
Mof_H 	H 	0.42722	0.65955	0.92722	0.052
Mof_C 	C 	0.11874	0.11874	0.256	0.128
Mof_C 	C 	0.1039	0.1039	0.2281	-0.046
Mof_C 	C 	0.08043	0.08043	0.17745	0.035
Mof_H 	H 	0.07278	0.07278	0.15955	0.05
Mof_C 	C 	0.11874	0.61874	0.756	0.128
Mof_C 	C 	0.1039	0.6039	0.7281	-0.045
Mof_C 	C 	0.08043	0.58043	0.67745	0.034
Mof_H 	H 	0.07278	0.57278	0.65955	0.051
Mof_C 	C 	0.61874	0.11874	0.756	0.128
Mof_C 	C 	0.6039	0.1039	0.7281	-0.045
Mof_C 	C 	0.58043	0.08043	0.67745	0.034
Mof_H 	H 	0.57278	0.07278	0.65955	0.051
Mof_C 	C 	0.61874	0.61874	0.256	0.128
Mof_C 	C 	0.6039	0.6039	0.2281	-0.045
Mof_C 	C 	0.58043	0.58043	0.17745	0.034
Mof_H 	H 	0.57278	0.57278	0.15955	0.051
Mof_C 	C 	0.88126	0.11874	0.744	0.128
Mof_C 	C 	0.8961	0.1039	0.7719	-0.045
Mof_C 	C 	0.91957	0.08043	0.82255	0.034
Mof_H 	H 	0.92722	0.07278	0.84045	0.052
Mof_C 	C 	0.88126	0.61874	0.244	0.128
Mof_C 	C 	0.8961	0.6039	0.2719	-0.044
Mof_C 	C 	0.91957	0.58043	0.32255	0.034
Mof_H 	H 	0.92722	0.57278	0.34045	0.052
Mof_C 	C 	0.38126	0.11874	0.244	0.128
Mof_C 	C 	0.3961	0.1039	0.2719	-0.045
Mof_C 	C 	0.41957	0.08043	0.32255	0.034
Mof_H 	H 	0.42722	0.07278	0.34045	0.051
Mof_C 	C 	0.38126	0.61874	0.744	0.128
Mof_C 	C 	0.3961	0.6039	0.7719	-0.045
Mof_C 	C 	0.41957	0.58043	0.82255	0.034
Mof_H 	H 	0.42722	0.57278	0.84045	0.052
Mof_C 	C 	0.11874	0.88126	0.744	0.128
Mof_C 	C 	0.1039	0.8961	0.7719	-0.045
Mof_C 	C 	0.08043	0.91957	0.82255	0.034
Mof_H 	H 	0.07278	0.92722	0.84045	0.052
Mof_C 	C 	0.11874	0.38126	0.244	0.128
Mof_C 	C 	0.1039	0.3961	0.2719	-0.045
Mof_C 	C 	0.08043	0.41957	0.32255	0.034
Mof_H 	H 	0.07278	0.42722	0.34045	0.051
Mof_C 	C 	0.61874	0.88126	0.244	0.128
Mof_C 	C 	0.6039	0.8961	0.2719	-0.044
Mof_C 	C 	0.58043	0.91957	0.32255	0.034
Mof_H 	H 	0.57278	0.92722	0.34045	0.052
Mof_C 	C 	0.61874	0.38126	0.744	0.128
Mof_C 	C 	0.6039	0.3961	0.7719	-0.045
Mof_C 	C 	0.58043	0.41957	0.82255	0.034
Mof_H 	H 	0.57278	0.42722	0.84045	0.052
Mof_C 	C 	0.88126	0.88126	0.256	0.128
Mof_C 	C 	0.8961	0.8961	0.2281	-0.044
Mof_C 	C 	0.91957	0.91957	0.17745	0.033
Mof_H 	H 	0.92722	0.92722	0.15955	0.052
Mof_C 	C 	0.88126	0.38126	0.756	0.128
Mof_C 	C 	0.8961	0.3961	0.7281	-0.044
Mof_C 	C 	0.91957	0.41957	0.67745	0.034
Mof_H 	H 	0.92722	0.42722	0.65955	0.052
Mof_C 	C 	0.38126	0.88126	0.756	0.128
Mof_C 	C 	0.3961	0.8961	0.7281	-0.044
Mof_C 	C 	0.41957	0.91957	0.67745	0.034
Mof_H 	H 	0.42722	0.92722	0.65955	0.052
Mof_C 	C 	0.38126	0.38126	0.256	0.128
Mof_C 	C 	0.3961	0.3961	0.2281	-0.045
Mof_C 	C 	0.41957	0.41957	0.17745	0.034
Mof_H 	H 	0.42722	0.42722	0.15955	0.051
Mof_C 	C 	0.11874	0.256	0.88126	0.128
Mof_C 	C 	0.1039	0.2281	0.8961	-0.045
Mof_C 	C 	0.08043	0.17745	0.91957	0.034
Mof_H 	H 	0.07278	0.15955	0.92722	0.051
Mof_C 	C 	0.11874	0.756	0.38126	0.128
Mof_C 	C 	0.1039	0.7281	0.3961	-0.045
Mof_C 	C 	0.08043	0.67745	0.41957	0.034
Mof_H 	H 	0.07278	0.65955	0.42722	0.051
Mof_C 	C 	0.61874	0.256	0.38126	0.128
Mof_C 	C 	0.6039	0.2281	0.3961	-0.045
Mof_C 	C 	0.58043	0.17745	0.41957	0.034
Mof_H 	H 	0.57278	0.15955	0.42722	0.051
Mof_C 	C 	0.61874	0.756	0.88126	0.128
Mof_C 	C 	0.6039	0.7281	0.8961	-0.044
Mof_C 	C 	0.58043	0.67745	0.91957	0.034
Mof_H 	H 	0.57278	0.65955	0.92722	0.052
Mof_C 	C 	0.88126	0.744	0.88126	0.128
Mof_C 	C 	0.8961	0.7719	0.8961	-0.044
Mof_C 	C 	0.91957	0.82255	0.91957	0.033
Mof_H 	H 	0.92722	0.84045	0.92722	0.053
Mof_C 	C 	0.88126	0.244	0.38126	0.128
Mof_C 	C 	0.8961	0.2719	0.3961	-0.044
Mof_C 	C 	0.91957	0.32255	0.41957	0.034
Mof_H 	H 	0.92722	0.34045	0.42722	0.052
Mof_C 	C 	0.38126	0.744	0.38126	0.128
Mof_C 	C 	0.3961	0.7719	0.3961	-0.045
Mof_C 	C 	0.41957	0.82255	0.41957	0.034
Mof_H 	H 	0.42722	0.84045	0.42722	0.052
Mof_C 	C 	0.38126	0.244	0.88126	0.128
Mof_C 	C 	0.3961	0.2719	0.8961	-0.044
Mof_C 	C 	0.41957	0.32255	0.91957	0.034
Mof_H 	H 	0.42722	0.34045	0.92722	0.052
Mof_C 	C 	0.11874	0.744	0.11874	0.128
Mof_C 	C 	0.1039	0.7719	0.1039	-0.046
Mof_C 	C 	0.08043	0.82255	0.08043	0.035
Mof_H 	H 	0.07278	0.84045	0.07278	0.051
Mof_C 	C 	0.11874	0.244	0.61874	0.128
Mof_C 	C 	0.1039	0.2719	0.6039	-0.045
Mof_C 	C 	0.08043	0.32255	0.58043	0.034
Mof_H 	H 	0.07278	0.34045	0.57278	0.051
Mof_C 	C 	0.61874	0.744	0.61874	0.128
Mof_C 	C 	0.6039	0.7719	0.6039	-0.045
Mof_C 	C 	0.58043	0.82255	0.58043	0.034
Mof_H 	H 	0.57278	0.84045	0.57278	0.052
Mof_C 	C 	0.61874	0.244	0.11874	0.128
Mof_C 	C 	0.6039	0.2719	0.1039	-0.045
Mof_C 	C 	0.58043	0.32255	0.08043	0.034
Mof_H 	H 	0.57278	0.34045	0.07278	0.051
Mof_C 	C 	0.88126	0.256	0.11874	0.128
Mof_C 	C 	0.8961	0.2281	0.1039	-0.045
Mof_C 	C 	0.91957	0.17745	0.08043	0.034
Mof_H 	H 	0.92722	0.15955	0.07278	0.051
Mof_C 	C 	0.88126	0.756	0.61874	0.128
Mof_C 	C 	0.8961	0.7281	0.6039	-0.044
Mof_C 	C 	0.91957	0.67745	0.58043	0.034
Mof_H 	H 	0.92722	0.65955	0.57278	0.052
Mof_C 	C 	0.38126	0.256	0.61874	0.128
Mof_C 	C 	0.3961	0.2281	0.6039	-0.045
Mof_C 	C 	0.41957	0.17745	0.58043	0.034
Mof_H 	H 	0.42722	0.15955	0.57278	0.051
Mof_C 	C 	0.38126	0.756	0.11874	0.128
Mof_C 	C 	0.3961	0.7281	0.1039	-0.045
Mof_C 	C 	0.41957	0.67745	0.08043	0.034
Mof_H 	H 	0.42722	0.65955	0.07278	0.051
Mof_C 	C 	0.256	0.11874	0.88126	0.128
Mof_C 	C 	0.2281	0.1039	0.8961	-0.045
Mof_C 	C 	0.17745	0.08043	0.91957	0.034
Mof_H 	H 	0.15955	0.07278	0.92722	0.051
Mof_C 	C 	0.256	0.61874	0.38126	0.128
Mof_C 	C 	0.2281	0.6039	0.3961	-0.045
Mof_C 	C 	0.17745	0.58043	0.41957	0.034
Mof_H 	H 	0.15955	0.57278	0.42722	0.051
Mof_C 	C 	0.756	0.11874	0.38126	0.128
Mof_C 	C 	0.7281	0.1039	0.3961	-0.045
Mof_C 	C 	0.67745	0.08043	0.41957	0.034
Mof_H 	H 	0.65955	0.07278	0.42722	0.051
Mof_C 	C 	0.756	0.61874	0.88126	0.128
Mof_C 	C 	0.7281	0.6039	0.8961	-0.044
Mof_C 	C 	0.67745	0.58043	0.91957	0.034
Mof_H 	H 	0.65955	0.57278	0.92722	0.052
Mof_C 	C 	0.744	0.11874	0.11874	0.128
Mof_C 	C 	0.7719	0.1039	0.1039	-0.046
Mof_C 	C 	0.82255	0.08043	0.08043	0.035
Mof_H 	H 	0.84045	0.07278	0.07278	0.051
Mof_C 	C 	0.744	0.61874	0.61874	0.128
Mof_C 	C 	0.7719	0.6039	0.6039	-0.045
Mof_C 	C 	0.82255	0.58043	0.58043	0.034
Mof_H 	H 	0.84045	0.57278	0.57278	0.052
Mof_C 	C 	0.244	0.11874	0.61874	0.128
Mof_C 	C 	0.2719	0.1039	0.6039	-0.045
Mof_C 	C 	0.32255	0.08043	0.58043	0.034
Mof_H 	H 	0.34045	0.07278	0.57278	0.051
Mof_C 	C 	0.244	0.61874	0.11874	0.128
Mof_C 	C 	0.2719	0.6039	0.1039	-0.045
Mof_C 	C 	0.32255	0.58043	0.08043	0.034
Mof_H 	H 	0.34045	0.57278	0.07278	0.051
Mof_C 	C 	0.744	0.88126	0.88126	0.128
Mof_C 	C 	0.7719	0.8961	0.8961	-0.044
Mof_C 	C 	0.82255	0.91957	0.91957	0.033
Mof_H 	H 	0.84045	0.92722	0.92722	0.053
Mof_C 	C 	0.744	0.38126	0.38126	0.128
Mof_C 	C 	0.7719	0.3961	0.3961	-0.045
Mof_C 	C 	0.82255	0.41957	0.41957	0.034
Mof_H 	H 	0.84045	0.42722	0.42722	0.052
Mof_C 	C 	0.244	0.88126	0.38126	0.128
Mof_C 	C 	0.2719	0.8961	0.3961	-0.044
Mof_C 	C 	0.32255	0.91957	0.41957	0.034
Mof_H 	H 	0.34045	0.92722	0.42722	0.052
Mof_C 	C 	0.244	0.38126	0.88126	0.128
Mof_C 	C 	0.2719	0.3961	0.8961	-0.044
Mof_C 	C 	0.32255	0.41957	0.91957	0.034
Mof_H 	H 	0.34045	0.42722	0.92722	0.052
Mof_C 	C 	0.256	0.88126	0.11874	0.128
Mof_C 	C 	0.2281	0.8961	0.1039	-0.045
Mof_C 	C 	0.17745	0.91957	0.08043	0.034
Mof_H 	H 	0.15955	0.92722	0.07278	0.051
Mof_C 	C 	0.256	0.38126	0.61874	0.128
Mof_C 	C 	0.2281	0.3961	0.6039	-0.045
Mof_C 	C 	0.17745	0.41957	0.58043	0.034
Mof_H 	H 	0.15955	0.42722	0.57278	0.051
Mof_C 	C 	0.756	0.88126	0.61874	0.128
Mof_C 	C 	0.7281	0.8961	0.6039	-0.044
Mof_C 	C 	0.67745	0.91957	0.58043	0.034
Mof_H 	H 	0.65955	0.92722	0.57278	0.052
Mof_C 	C 	0.756	0.38126	0.11874	0.128
Mof_C 	C 	0.7281	0.3961	0.1039	-0.045
Mof_C 	C 	0.67745	0.41957	0.08043	0.034
Mof_H 	H 	0.65955	0.42722	0.07278	0.051
Mof_C 	C 	0.11874	0.11874	0.744	0.128
Mof_C 	C 	0.1039	0.1039	0.7719	-0.046
Mof_C 	C 	0.08043	0.08043	0.82255	0.035
Mof_H 	H 	0.07278	0.07278	0.84045	0.051
Mof_C 	C 	0.11874	0.61874	0.244	0.128
Mof_C 	C 	0.1039	0.6039	0.2719	-0.045
Mof_C 	C 	0.08043	0.58043	0.32255	0.034
Mof_H 	H 	0.07278	0.57278	0.34045	0.051
Mof_C 	C 	0.61874	0.11874	0.244	0.128
Mof_C 	C 	0.6039	0.1039	0.2719	-0.045
Mof_C 	C 	0.58043	0.08043	0.32255	0.034
Mof_H 	H 	0.57278	0.07278	0.34045	0.051
Mof_C 	C 	0.61874	0.61874	0.744	0.128
Mof_C 	C 	0.6039	0.6039	0.7719	-0.045
Mof_C 	C 	0.58043	0.58043	0.82255	0.034
Mof_H 	H 	0.57278	0.57278	0.84045	0.052
Mof_C 	C 	0.11874	0.88126	0.256	0.128
Mof_C 	C 	0.1039	0.8961	0.2281	-0.045
Mof_C 	C 	0.08043	0.91957	0.17745	0.034
Mof_H 	H 	0.07278	0.92722	0.15955	0.051
Mof_C 	C 	0.11874	0.38126	0.756	0.128
Mof_C 	C 	0.1039	0.3961	0.7281	-0.045
Mof_C 	C 	0.08043	0.41957	0.67745	0.034
Mof_H 	H 	0.07278	0.42722	0.65955	0.051
Mof_C 	C 	0.61874	0.88126	0.756	0.128
Mof_C 	C 	0.6039	0.8961	0.7281	-0.044
Mof_C 	C 	0.58043	0.91957	0.67745	0.034
Mof_H 	H 	0.57278	0.92722	0.65955	0.052
Mof_C 	C 	0.61874	0.38126	0.256	0.128
Mof_C 	C 	0.6039	0.3961	0.2281	-0.045
Mof_C 	C 	0.58043	0.41957	0.17745	0.034
Mof_H 	H 	0.57278	0.42722	0.15955	0.051
Mof_C 	C 	0.88126	0.11874	0.256	0.128
Mof_C 	C 	0.8961	0.1039	0.2281	-0.045
Mof_C 	C 	0.91957	0.08043	0.17745	0.034
Mof_H 	H 	0.92722	0.07278	0.15955	0.051
Mof_C 	C 	0.88126	0.61874	0.756	0.128
Mof_C 	C 	0.8961	0.6039	0.7281	-0.044
Mof_C 	C 	0.91957	0.58043	0.67745	0.034
Mof_H 	H 	0.92722	0.57278	0.65955	0.052
Mof_C 	C 	0.38126	0.11874	0.756	0.128
Mof_C 	C 	0.3961	0.1039	0.7281	-0.045
Mof_C 	C 	0.41957	0.08043	0.67745	0.034
Mof_H 	H 	0.42722	0.07278	0.65955	0.051
Mof_C 	C 	0.38126	0.61874	0.256	0.128
Mof_C 	C 	0.3961	0.6039	0.2281	-0.045
Mof_C 	C 	0.41957	0.58043	0.17745	0.034
Mof_H 	H 	0.42722	0.57278	0.15955	0.051
Mof_C 	C 	0.88126	0.88126	0.744	0.128
Mof_C 	C 	0.8961	0.8961	0.7719	-0.044
Mof_C 	C 	0.91957	0.91957	0.82255	0.033
Mof_H 	H 	0.92722	0.92722	0.84045	0.053
Mof_C 	C 	0.88126	0.38126	0.244	0.128
Mof_C 	C 	0.8961	0.3961	0.2719	-0.044
Mof_C 	C 	0.91957	0.41957	0.32255	0.034
Mof_H 	H 	0.92722	0.42722	0.34045	0.052
Mof_C 	C 	0.38126	0.88126	0.244	0.128
Mof_C 	C 	0.3961	0.8961	0.2719	-0.044
Mof_C 	C 	0.41957	0.91957	0.32255	0.034
Mof_H 	H 	0.42722	0.92722	0.34045	0.052
Mof_C 	C 	0.38126	0.38126	0.744	0.128
Mof_C 	C 	0.3961	0.3961	0.7719	-0.045
Mof_C 	C 	0.41957	0.41957	0.82255	0.034
Mof_H 	H 	0.42722	0.42722	0.84045	0.052
_end
