data_functionalizedCrystal
_audit_creation_method	'EQeq! by Chris Wilmer'
_symmetry_space_group_name_H-M	'P1'
_symmetry_Int_Tables_number	1
_symmetry_cell_setting	triclinic
loop_
_symmetry_equiv_pos_as_xyz
  x,y,z
_cell_length_a	41.982
_cell_length_b	21.5588
_cell_length_c	43.755
_cell_angle_alpha	90
_cell_angle_beta	92.635
_cell_angle_gamma	90
loop_
_atom_site_label
_atom_site_type_symbol
_atom_site_fract_x
_atom_site_fract_y
_atom_site_fract_z
_atom_site_charge
Mof_In	In	0.70749	0.05183	0.50499	2.523
Mof_In	In	0.4602	0.74095	0.25595	1.702
Mof_O 	O 	0.247	0.4344	0.0442	-0.46
Mof_O 	O 	0.6713	0.9535	0.0397	-0.544
Mof_N 	N 	0.4625	0.7304	0.2095	-0.366
Mof_O 	O 	0.6679	0.0656	0.4661	-0.499
Mof_N 	N 	0.46	0.7539	0.3031	-0.362
Mof_C 	C 	0.6657	0.8947	0.0396	0.326
Mof_N 	N 	0.4144	0.7064	0.2558	-0.368
Mof_O 	O 	0.2461	0.5448	0.4733	-0.627
Mof_O 	O 	0.681	0.8578	0.026	-0.447
Mof_C 	C 	0.5238	0.7854	0.229	0.09
Mof_C 	C 	0.249	0.5992	0.4693	0.522
Mof_C 	C 	0.5504	0.8227	0.2395	-0.077
Mof_H 	H 	0.5651	0.8416	0.2265	0.055
Mof_C 	C 	0.3968	0.6842	0.2314	0.093
Mof_C 	C 	0.4857	0.7445	0.1903	0.142
Mof_C 	C 	0.4044	0.6853	0.2006	-0.133
Mof_C 	C 	0.6241	0.8822	0.4173	-0.111
Mof_H 	H 	0.6243	0.8383	0.4158	0.058
Mof_C 	C 	0.64508	0.9121	0.43798	0.021
Mof_H 	H 	0.6596	0.8886	0.4506	0.038
Mof_C 	C 	0.64477	0.9764	0.44021	-0.083
Mof_C 	C 	0.6235	0.0108	0.4218	0.02
Mof_H 	H 	0.6233	0.0548	0.4233	0.04
Mof_C 	C 	0.6025	0.981	0.40115	-0.104
Mof_H 	H 	0.588	0.0045	0.3886	0.072
Mof_C 	C 	0.6028	0.9167	0.39892	0.059
Mof_C 	C 	0.4351	0.7059	0.1906	0.047
Mof_C 	C 	0.382	0.6588	0.17723	0.092
Mof_C 	C 	0.3526	0.6866	0.1706	-0.132
Mof_H 	H 	0.347	0.7238	0.1807	0.063
Mof_C 	C 	0.3313	0.66	0.1491	0.011
Mof_H 	H 	0.3112	0.679	0.1446	-0.011
Mof_C 	C 	0.3394	0.6057	0.13428	-0.048
Mof_C 	C 	0.3688	0.5778	0.1409	0.011
Mof_H 	H 	0.3743	0.5407	0.1308	0.036
Mof_C 	C 	0.39005	0.6044	0.1624	-0.114
Mof_H 	H 	0.4101	0.5854	0.1669	0.084
Mof_C 	C 	0.3158	0.5761	0.1112	0.056
Mof_C 	C 	0.295	0.6138	0.0939	-0.105
Mof_H 	H 	0.2959	0.6576	0.0963	0.056
Mof_C 	C 	0.2729	0.5875	0.0732	0.009
Mof_H 	H 	0.2587	0.6132	0.0613	0.039
Mof_C 	C 	0.2716	0.5234	0.0697	-0.067
Mof_C 	C 	0.2923	0.4857	0.0869	0.011
Mof_H 	H 	0.2914	0.4419	0.0846	0.043
Mof_C 	C 	0.3145	0.512	0.1077	-0.101
Mof_H 	H 	0.3287	0.4863	0.1195	0.066
Mof_O 	O 	0.6845	0.9756	0.4811	-0.559
Mof_O 	O 	0.2311	0.6333	0.4796	-0.562
Mof_N 	N 	0.5059	0.7725	0.2566	-0.382
Mof_C 	C 	0.3667	0.6677	0.272	-0.081
Mof_H 	H 	0.3502	0.656	0.285	0.053
Mof_C 	C 	0.4837	0.7838	0.3196	0.084
Mof_C 	C 	0.6667	0.0112	0.4638	0.352
Mof_C 	C 	0.3664	0.6605	0.2411	-0.082
Mof_H 	H 	0.3497	0.6433	0.2284	0.049
Mof_C 	C 	0.4746	0.7772	0.3517	-0.065
Mof_H 	H 	0.4871	0.7906	0.3691	0.057
Mof_C 	C 	0.5132	0.7717	0.2002	-0.172
Mof_C 	C 	0.4363	0.7367	0.3221	0.11
Mof_C 	C 	0.3819	0.6977	0.3342	0.089
Mof_C 	C 	0.3557	0.7347	0.34	-0.118
Mof_H 	H 	0.3516	0.771	0.3282	0.07
Mof_C 	C 	0.3356	0.7185	0.3631	0
Mof_H 	H 	0.3177	0.7438	0.367	0.027
Mof_C 	C 	0.3416	0.6654	0.3804	-0.041
Mof_C 	C 	0.3678	0.6284	0.3746	-0.004
Mof_H 	H 	0.3719	0.5921	0.3864	0.025
Mof_C 	C 	0.3879	0.6445	0.3515	-0.113
Mof_H 	H 	0.4058	0.6192	0.3475	0.059
Mof_C 	C 	0.4076	0.7114	0.3111	-0.163
Mof_C 	C 	0.5216	0.7972	0.2788	0.122
Mof_C 	C 	0.5763	0.8238	0.1305	-0.03
Mof_C 	C 	0.5506	0.8619	0.1367	-0.007
Mof_H 	H 	0.5472	0.8993	0.1256	0.03
Mof_C 	C 	0.53	0.8452	0.1592	-0.116
Mof_H 	H 	0.5124	0.8712	0.1634	0.062
Mof_C 	C 	0.5349	0.7904	0.1755	0.096
Mof_C 	C 	0.5605	0.7523	0.1693	-0.115
Mof_H 	H 	0.5639	0.7149	0.1804	0.072
Mof_C 	C 	0.5812	0.7691	0.1468	-0.005
Mof_H 	H 	0.5987	0.743	0.1425	0.033
Mof_C 	C 	0.5517	0.8272	0.2713	-0.096
Mof_H 	H 	0.5677	0.845	0.2846	0.059
Mof_C 	C 	0.3973	0.6972	0.2818	0.094
Mof_C 	C 	0.4454	0.7093	0.1593	-0.029
Mof_H 	H 	0.4334	0.6959	0.1416	0.046
Mof_C 	C 	0.4453	0.749	0.3527	-0.099
Mof_H 	H 	0.4337	0.7398	0.3703	0.065
Mof_C 	C 	0.5793	0.8831	0.37647	-0.038
Mof_C 	C 	0.5494	0.909	0.3704	0.011
Mof_H 	H 	0.5435	0.946	0.3805	0.041
Mof_C 	C 	0.52809	0.881	0.3494	-0.116
Mof_H 	H 	0.5076	0.8987	0.3453	0.074
Mof_C 	C 	0.5367	0.8269	0.33456	0.093
Mof_C 	C 	0.5666	0.801	0.3407	-0.121
Mof_H 	H 	0.5725	0.7641	0.3305	0.068
Mof_C 	C 	0.58795	0.8291	0.3616	-0.001
Mof_H 	H 	0.6084	0.8113	0.3658	0.017
Mof_C 	C 	0.5147	0.7975	0.3105	-0.156
Mof_C 	C 	0.6272	0.9199	0.0806	0.023
Mof_H 	H 	0.6307	0.9628	0.077	0.038
Mof_C 	C 	0.6438	0.8756	0.0648	-0.077
Mof_C 	C 	0.6387	0.8129	0.0701	0.02
Mof_H 	H 	0.6501	0.7826	0.0592	0.043
Mof_C 	C 	0.6169	0.7945	0.0912	-0.105
Mof_H 	H 	0.6134	0.7517	0.0948	0.07
Mof_C 	C 	0.6002	0.8389	0.1071	0.061
Mof_C 	C 	0.6053	0.9016	0.1018	-0.107
Mof_H 	H 	0.5939	0.9319	0.1126	0.065
Mof_C 	C 	0.2975	0.697	0.4165	-0.149
Mof_H 	H 	0.2985	0.7385	0.4095	0.08
Mof_C 	C 	0.3175	0.6522	0.405	0.09
Mof_C 	C 	0.316	0.5913	0.4153	-0.147
Mof_H 	H 	0.3297	0.5607	0.4075	0.077
Mof_C 	C 	0.2944	0.5752	0.4371	0.085
Mof_H 	H 	0.2934	0.5336	0.4442	0.017
Mof_C 	C 	0.2744	0.62	0.4486	-0.176
Mof_C 	C 	0.2759	0.6809	0.4383	0.086
Mof_H 	H 	0.2622	0.7115	0.4462	0.018
Mof_C 	C 	0.4741	0.734	0.1597	-0.119
Mof_H 	H 	0.4854	0.7434	0.142	0.074
Mof_C 	C 	0.2476	0.4946	0.0477	0.274
Mof_O 	O 	0.2297	0.5306	0.0323	-0.476
Mof_In	In	0.20749	0.55183	0.50499	2.523
Mof_In	In	0.9602	0.24095	0.25595	1.692
Mof_O 	O 	0.747	0.9344	0.0442	-0.461
Mof_O 	O 	0.1713	0.4535	0.0397	-0.545
Mof_N 	N 	0.9625	0.2304	0.2095	-0.366
Mof_O 	O 	0.1679	0.5656	0.4661	-0.5
Mof_N 	N 	0.96	0.2539	0.3031	-0.362
Mof_C 	C 	0.1657	0.3947	0.0396	0.325
Mof_N 	N 	0.9144	0.2064	0.2558	-0.368
Mof_O 	O 	0.7461	0.0448	0.4733	-0.628
Mof_O 	O 	0.181	0.3578	0.026	-0.448
Mof_C 	C 	0.0238	0.2854	0.229	0.086
Mof_C 	C 	0.749	0.0992	0.4693	0.521
Mof_C 	C 	0.0504	0.3227	0.2395	-0.077
Mof_H 	H 	0.0651	0.3416	0.2265	0.053
Mof_C 	C 	0.8968	0.1842	0.2314	0.092
Mof_C 	C 	0.9857	0.2445	0.1903	0.132
Mof_C 	C 	0.9044	0.1853	0.2006	-0.134
Mof_C 	C 	0.1241	0.3822	0.4173	-0.114
Mof_H 	H 	0.1243	0.3383	0.4158	0.058
Mof_C 	C 	0.14508	0.4121	0.43798	0.022
Mof_H 	H 	0.1596	0.3886	0.4506	0.036
Mof_C 	C 	0.14477	0.4764	0.44021	-0.086
Mof_C 	C 	0.1235	0.5108	0.4218	0.024
Mof_H 	H 	0.1233	0.5548	0.4233	0.039
Mof_C 	C 	0.1025	0.481	0.40115	-0.108
Mof_H 	H 	0.088	0.5045	0.3886	0.073
Mof_C 	C 	0.1028	0.4167	0.39892	0.061
Mof_C 	C 	0.9351	0.2059	0.1906	0.047
Mof_C 	C 	0.882	0.1588	0.17723	0.092
Mof_C 	C 	0.8526	0.1866	0.1706	-0.131
Mof_H 	H 	0.847	0.2238	0.1807	0.063
Mof_C 	C 	0.8313	0.16	0.1491	0.01
Mof_H 	H 	0.8112	0.179	0.1446	-0.011
Mof_C 	C 	0.8394	0.1057	0.13428	-0.047
Mof_C 	C 	0.8688	0.0778	0.1409	0.01
Mof_H 	H 	0.8743	0.0407	0.1308	0.037
Mof_C 	C 	0.89005	0.1044	0.1624	-0.113
Mof_H 	H 	0.9101	0.0854	0.1669	0.084
Mof_C 	C 	0.8158	0.0761	0.1112	0.053
Mof_C 	C 	0.795	0.1138	0.0939	-0.102
Mof_H 	H 	0.7959	0.1576	0.0963	0.055
Mof_C 	C 	0.7729	0.0875	0.0732	0.006
Mof_H 	H 	0.7587	0.1132	0.0613	0.04
Mof_C 	C 	0.7716	0.0234	0.0697	-0.062
Mof_C 	C 	0.7923	0.9857	0.0869	0.005
Mof_H 	H 	0.7914	0.9419	0.0846	0.045
Mof_C 	C 	0.8145	0.012	0.1077	-0.095
Mof_H 	H 	0.8287	0.9863	0.1195	0.064
Mof_O 	O 	0.1845	0.4756	0.4811	-0.561
Mof_O 	O 	0.7311	0.1333	0.4796	-0.562
Mof_N 	N 	0.0059	0.2725	0.2566	-0.378
Mof_C 	C 	0.8667	0.1677	0.272	-0.081
Mof_H 	H 	0.8502	0.156	0.285	0.053
Mof_C 	C 	0.9837	0.2838	0.3196	0.077
Mof_C 	C 	0.1667	0.5112	0.4638	0.355
Mof_C 	C 	0.8664	0.1605	0.2411	-0.082
Mof_H 	H 	0.8497	0.1433	0.2284	0.049
Mof_C 	C 	0.9746	0.2772	0.3517	-0.063
Mof_H 	H 	0.9871	0.2906	0.3691	0.054
Mof_C 	C 	0.0132	0.2717	0.2002	-0.163
Mof_C 	C 	0.9363	0.2367	0.3221	0.11
Mof_C 	C 	0.8819	0.1977	0.3342	0.089
Mof_C 	C 	0.8557	0.2347	0.34	-0.118
Mof_H 	H 	0.8516	0.271	0.3282	0.07
Mof_C 	C 	0.8356	0.2185	0.3631	-0
Mof_H 	H 	0.8177	0.2438	0.367	0.027
Mof_C 	C 	0.8416	0.1654	0.3804	-0.041
Mof_C 	C 	0.8678	0.1284	0.3746	-0.004
Mof_H 	H 	0.8719	0.0921	0.3864	0.025
Mof_C 	C 	0.8879	0.1445	0.3515	-0.113
Mof_H 	H 	0.9058	0.1192	0.3475	0.058
Mof_C 	C 	0.9076	0.2114	0.3111	-0.163
Mof_C 	C 	0.0216	0.2972	0.2788	0.121
Mof_C 	C 	0.0763	0.3238	0.1305	-0.029
Mof_C 	C 	0.0506	0.3619	0.1367	-0.008
Mof_H 	H 	0.0472	0.3993	0.1256	0.031
Mof_C 	C 	0.03	0.3452	0.1592	-0.113
Mof_H 	H 	0.0124	0.3712	0.1634	0.062
Mof_C 	C 	0.0349	0.2904	0.1755	0.093
Mof_C 	C 	0.0605	0.2523	0.1693	-0.113
Mof_H 	H 	0.0639	0.2149	0.1804	0.071
Mof_C 	C 	0.0812	0.2691	0.1468	-0.007
Mof_H 	H 	0.0987	0.243	0.1425	0.034
Mof_C 	C 	0.0517	0.3272	0.2713	-0.096
Mof_H 	H 	0.0677	0.345	0.2846	0.059
Mof_C 	C 	0.8973	0.1972	0.2818	0.094
Mof_C 	C 	0.9454	0.2093	0.1593	-0.032
Mof_H 	H 	0.9334	0.1959	0.1416	0.046
Mof_C 	C 	0.9453	0.249	0.3527	-0.1
Mof_H 	H 	0.9337	0.2398	0.3703	0.065
Mof_C 	C 	0.0793	0.3831	0.37647	-0.039
Mof_C 	C 	0.0494	0.409	0.3704	0.011
Mof_H 	H 	0.0435	0.446	0.3805	0.042
Mof_C 	C 	0.02809	0.381	0.3494	-0.115
Mof_H 	H 	0.0076	0.3987	0.3453	0.075
Mof_C 	C 	0.0367	0.3269	0.33456	0.092
Mof_C 	C 	0.0666	0.301	0.3407	-0.12
Mof_H 	H 	0.0725	0.2641	0.3305	0.068
Mof_C 	C 	0.08795	0.3291	0.3616	-0.001
Mof_H 	H 	0.1084	0.3113	0.3658	0.017
Mof_C 	C 	0.0147	0.2975	0.3105	-0.15
Mof_C 	C 	0.1272	0.4199	0.0806	0.023
Mof_H 	H 	0.1307	0.4628	0.077	0.038
Mof_C 	C 	0.1438	0.3756	0.0648	-0.076
Mof_C 	C 	0.1387	0.3129	0.0701	0.02
Mof_H 	H 	0.1501	0.2826	0.0592	0.043
Mof_C 	C 	0.1169	0.2945	0.0912	-0.105
Mof_H 	H 	0.1134	0.2517	0.0948	0.07
Mof_C 	C 	0.1002	0.3389	0.1071	0.061
Mof_C 	C 	0.1053	0.4016	0.1018	-0.106
Mof_H 	H 	0.0939	0.4319	0.1126	0.065
Mof_C 	C 	0.7975	0.197	0.4165	-0.149
Mof_H 	H 	0.7985	0.2385	0.4095	0.08
Mof_C 	C 	0.8175	0.1522	0.405	0.09
Mof_C 	C 	0.816	0.0913	0.4153	-0.148
Mof_H 	H 	0.8297	0.0607	0.4075	0.077
Mof_C 	C 	0.7944	0.0752	0.4371	0.085
Mof_H 	H 	0.7934	0.0336	0.4442	0.016
Mof_C 	C 	0.7744	0.12	0.4486	-0.176
Mof_C 	C 	0.7759	0.1809	0.4383	0.086
Mof_H 	H 	0.7622	0.2115	0.4462	0.018
Mof_C 	C 	0.9741	0.234	0.1597	-0.114
Mof_H 	H 	0.9854	0.2434	0.142	0.071
Mof_C 	C 	0.7476	0.9946	0.0477	0.271
Mof_O 	O 	0.7297	0.0306	0.0323	-0.475
Mof_In	In	0.70749	0.94817	0.00499	2.511
Mof_In	In	0.4602	0.25905	0.75595	1.701
Mof_O 	O 	0.247	0.5656	0.5442	-0.462
Mof_O 	O 	0.6713	0.0465	0.5397	-0.546
Mof_N 	N 	0.4625	0.2696	0.7095	-0.367
Mof_O 	O 	0.6679	0.9344	0.9661	-0.498
Mof_N 	N 	0.46	0.2461	0.8031	-0.363
Mof_C 	C 	0.6657	0.1053	0.5396	0.325
Mof_N 	N 	0.4144	0.2936	0.7558	-0.369
Mof_O 	O 	0.2461	0.4552	0.9733	-0.626
Mof_O 	O 	0.681	0.1422	0.526	-0.448
Mof_C 	C 	0.5238	0.2146	0.729	0.089
Mof_C 	C 	0.249	0.4008	0.9693	0.52
Mof_C 	C 	0.5504	0.1773	0.7395	-0.078
Mof_H 	H 	0.5651	0.1584	0.7265	0.054
Mof_C 	C 	0.3968	0.3158	0.7314	0.092
Mof_C 	C 	0.4857	0.2555	0.6903	0.141
Mof_C 	C 	0.4044	0.3147	0.7006	-0.134
Mof_C 	C 	0.6241	0.1178	0.9173	-0.112
Mof_H 	H 	0.6243	0.1617	0.9158	0.057
Mof_C 	C 	0.64508	0.0879	0.93798	0.02
Mof_H 	H 	0.6596	0.1114	0.9506	0.037
Mof_C 	C 	0.64477	0.0236	0.94021	-0.083
Mof_C 	C 	0.6235	0.9892	0.9218	0.02
Mof_H 	H 	0.6233	0.9452	0.9233	0.04
Mof_C 	C 	0.6025	0.019	0.90115	-0.104
Mof_H 	H 	0.588	0.9955	0.8886	0.072
Mof_C 	C 	0.6028	0.0833	0.89892	0.059
Mof_C 	C 	0.4351	0.2941	0.6906	0.047
Mof_C 	C 	0.382	0.3412	0.67723	0.092
Mof_C 	C 	0.3526	0.3134	0.6706	-0.132
Mof_H 	H 	0.347	0.2762	0.6807	0.063
Mof_C 	C 	0.3313	0.34	0.6491	0.011
Mof_H 	H 	0.3112	0.321	0.6446	-0.011
Mof_C 	C 	0.3394	0.3943	0.63428	-0.048
Mof_C 	C 	0.3688	0.4222	0.6409	0.011
Mof_H 	H 	0.3743	0.4593	0.6308	0.036
Mof_C 	C 	0.39005	0.3956	0.6624	-0.114
Mof_H 	H 	0.4101	0.4146	0.6669	0.084
Mof_C 	C 	0.3158	0.4239	0.6112	0.056
Mof_C 	C 	0.295	0.3862	0.5939	-0.105
Mof_H 	H 	0.2959	0.3424	0.5963	0.056
Mof_C 	C 	0.2729	0.4125	0.5732	0.009
Mof_H 	H 	0.2587	0.3868	0.5613	0.04
Mof_C 	C 	0.2716	0.4766	0.5697	-0.067
Mof_C 	C 	0.2923	0.5143	0.5869	0.011
Mof_H 	H 	0.2914	0.5581	0.5846	0.043
Mof_C 	C 	0.3145	0.488	0.6077	-0.101
Mof_H 	H 	0.3287	0.5137	0.6195	0.066
Mof_O 	O 	0.6845	0.0244	0.9811	-0.557
Mof_O 	O 	0.2311	0.3667	0.9796	-0.559
Mof_N 	N 	0.5059	0.2275	0.7566	-0.382
Mof_C 	C 	0.3667	0.3323	0.772	-0.081
Mof_H 	H 	0.3502	0.344	0.785	0.053
Mof_C 	C 	0.4837	0.2162	0.8196	0.084
Mof_C 	C 	0.6667	0.9888	0.9638	0.352
Mof_C 	C 	0.3664	0.3395	0.7411	-0.082
Mof_H 	H 	0.3497	0.3567	0.7284	0.049
Mof_C 	C 	0.4746	0.2228	0.8517	-0.065
Mof_H 	H 	0.4871	0.2094	0.8691	0.057
Mof_C 	C 	0.5132	0.2283	0.7002	-0.172
Mof_C 	C 	0.4363	0.2633	0.8221	0.11
Mof_C 	C 	0.3819	0.3023	0.8342	0.089
Mof_C 	C 	0.3557	0.2653	0.84	-0.118
Mof_H 	H 	0.3516	0.229	0.8282	0.07
Mof_C 	C 	0.3356	0.2815	0.8631	-0
Mof_H 	H 	0.3177	0.2562	0.867	0.027
Mof_C 	C 	0.3416	0.3346	0.8804	-0.041
Mof_C 	C 	0.3678	0.3716	0.8746	-0.004
Mof_H 	H 	0.3719	0.4079	0.8864	0.026
Mof_C 	C 	0.3879	0.3555	0.8515	-0.113
Mof_H 	H 	0.4058	0.3808	0.8475	0.059
Mof_C 	C 	0.4076	0.2886	0.8111	-0.163
Mof_C 	C 	0.5216	0.2028	0.7788	0.122
Mof_C 	C 	0.5763	0.1762	0.6305	-0.03
Mof_C 	C 	0.5506	0.1381	0.6367	-0.007
Mof_H 	H 	0.5472	0.1007	0.6256	0.03
Mof_C 	C 	0.53	0.1548	0.6592	-0.116
Mof_H 	H 	0.5124	0.1288	0.6634	0.062
Mof_C 	C 	0.5349	0.2096	0.6755	0.096
Mof_C 	C 	0.5605	0.2477	0.6693	-0.115
Mof_H 	H 	0.5639	0.2851	0.6804	0.072
Mof_C 	C 	0.5812	0.2309	0.6468	-0.005
Mof_H 	H 	0.5987	0.257	0.6425	0.034
Mof_C 	C 	0.5517	0.1728	0.7713	-0.096
Mof_H 	H 	0.5677	0.155	0.7846	0.059
Mof_C 	C 	0.3973	0.3028	0.7818	0.094
Mof_C 	C 	0.4454	0.2907	0.6593	-0.029
Mof_H 	H 	0.4334	0.3041	0.6416	0.046
Mof_C 	C 	0.4453	0.251	0.8527	-0.099
Mof_H 	H 	0.4337	0.2602	0.8703	0.065
Mof_C 	C 	0.5793	0.1169	0.87647	-0.038
Mof_C 	C 	0.5494	0.091	0.8704	0.011
Mof_H 	H 	0.5435	0.054	0.8805	0.041
Mof_C 	C 	0.52809	0.119	0.8494	-0.116
Mof_H 	H 	0.5076	0.1013	0.8453	0.074
Mof_C 	C 	0.5367	0.1731	0.83456	0.093
Mof_C 	C 	0.5666	0.199	0.8407	-0.121
Mof_H 	H 	0.5725	0.2359	0.8305	0.068
Mof_C 	C 	0.58795	0.1709	0.8616	-0.001
Mof_H 	H 	0.6084	0.1887	0.8658	0.017
Mof_C 	C 	0.5147	0.2025	0.8105	-0.156
Mof_C 	C 	0.6272	0.0801	0.5806	0.023
Mof_H 	H 	0.6307	0.0372	0.577	0.038
Mof_C 	C 	0.6438	0.1244	0.5648	-0.076
Mof_C 	C 	0.6387	0.1871	0.5701	0.02
Mof_H 	H 	0.6501	0.2174	0.5592	0.044
Mof_C 	C 	0.6169	0.2055	0.5912	-0.105
Mof_H 	H 	0.6134	0.2483	0.5948	0.07
Mof_C 	C 	0.6002	0.1611	0.6071	0.061
Mof_C 	C 	0.6053	0.0984	0.6018	-0.107
Mof_H 	H 	0.5939	0.0681	0.6126	0.065
Mof_C 	C 	0.2975	0.303	0.9165	-0.148
Mof_H 	H 	0.2985	0.2615	0.9095	0.08
Mof_C 	C 	0.3175	0.3478	0.905	0.09
Mof_C 	C 	0.316	0.4087	0.9153	-0.147
Mof_H 	H 	0.3297	0.4393	0.9075	0.077
Mof_C 	C 	0.2944	0.4248	0.9371	0.085
Mof_H 	H 	0.2934	0.4664	0.9442	0.017
Mof_C 	C 	0.2744	0.38	0.9486	-0.175
Mof_C 	C 	0.2759	0.3191	0.9383	0.086
Mof_H 	H 	0.2622	0.2885	0.9462	0.018
Mof_C 	C 	0.4741	0.266	0.6597	-0.119
Mof_H 	H 	0.4854	0.2566	0.642	0.075
Mof_C 	C 	0.2476	0.5054	0.5477	0.273
Mof_O 	O 	0.2297	0.4694	0.5323	-0.476
Mof_In	In	0.20749	0.44817	0.00499	2.513
Mof_In	In	0.9602	0.75905	0.75595	1.692
Mof_O 	O 	0.747	0.0656	0.5442	-0.461
Mof_O 	O 	0.1713	0.5465	0.5397	-0.546
Mof_N 	N 	0.9625	0.7696	0.7095	-0.366
Mof_O 	O 	0.1679	0.4344	0.9661	-0.498
Mof_N 	N 	0.96	0.7461	0.8031	-0.362
Mof_C 	C 	0.1657	0.6053	0.5396	0.325
Mof_N 	N 	0.9144	0.7936	0.7558	-0.368
Mof_O 	O 	0.7461	0.9552	0.9733	-0.626
Mof_O 	O 	0.181	0.6422	0.526	-0.448
Mof_C 	C 	0.0238	0.7146	0.729	0.086
Mof_C 	C 	0.749	0.9008	0.9693	0.52
Mof_C 	C 	0.0504	0.6773	0.7395	-0.077
Mof_H 	H 	0.0651	0.6584	0.7265	0.053
Mof_C 	C 	0.8968	0.8158	0.7314	0.092
Mof_C 	C 	0.9857	0.7555	0.6903	0.132
Mof_C 	C 	0.9044	0.8147	0.7006	-0.134
Mof_C 	C 	0.1241	0.6178	0.9173	-0.114
Mof_H 	H 	0.1243	0.6617	0.9158	0.058
Mof_C 	C 	0.14508	0.5879	0.93798	0.022
Mof_H 	H 	0.1596	0.6114	0.9506	0.036
Mof_C 	C 	0.14477	0.5236	0.94021	-0.086
Mof_C 	C 	0.1235	0.4892	0.9218	0.024
Mof_H 	H 	0.1233	0.4452	0.9233	0.039
Mof_C 	C 	0.1025	0.519	0.90115	-0.108
Mof_H 	H 	0.088	0.4955	0.8886	0.073
Mof_C 	C 	0.1028	0.5833	0.89892	0.061
Mof_C 	C 	0.9351	0.7941	0.6906	0.047
Mof_C 	C 	0.882	0.8412	0.67723	0.092
Mof_C 	C 	0.8526	0.8134	0.6706	-0.131
Mof_H 	H 	0.847	0.7762	0.6807	0.063
Mof_C 	C 	0.8313	0.84	0.6491	0.01
Mof_H 	H 	0.8112	0.821	0.6446	-0.011
Mof_C 	C 	0.8394	0.8943	0.63428	-0.047
Mof_C 	C 	0.8688	0.9222	0.6409	0.01
Mof_H 	H 	0.8743	0.9593	0.6308	0.037
Mof_C 	C 	0.89005	0.8956	0.6624	-0.113
Mof_H 	H 	0.9101	0.9146	0.6669	0.084
Mof_C 	C 	0.8158	0.9239	0.6112	0.053
Mof_C 	C 	0.795	0.8862	0.5939	-0.102
Mof_H 	H 	0.7959	0.8424	0.5963	0.055
Mof_C 	C 	0.7729	0.9125	0.5732	0.006
Mof_H 	H 	0.7587	0.8868	0.5613	0.041
Mof_C 	C 	0.7716	0.9766	0.5697	-0.062
Mof_C 	C 	0.7923	0.0143	0.5869	0.005
Mof_H 	H 	0.7914	0.0581	0.5846	0.045
Mof_C 	C 	0.8145	0.988	0.6077	-0.095
Mof_H 	H 	0.8287	0.0137	0.6195	0.064
Mof_O 	O 	0.1845	0.5244	0.9811	-0.558
Mof_O 	O 	0.7311	0.8667	0.9796	-0.559
Mof_N 	N 	0.0059	0.7275	0.7566	-0.378
Mof_C 	C 	0.8667	0.8323	0.772	-0.081
Mof_H 	H 	0.8502	0.844	0.785	0.053
Mof_C 	C 	0.9837	0.7162	0.8196	0.077
Mof_C 	C 	0.1667	0.4888	0.9638	0.354
Mof_C 	C 	0.8664	0.8395	0.7411	-0.082
Mof_H 	H 	0.8497	0.8567	0.7284	0.049
Mof_C 	C 	0.9746	0.7228	0.8517	-0.063
Mof_H 	H 	0.9871	0.7094	0.8691	0.054
Mof_C 	C 	0.0132	0.7283	0.7002	-0.163
Mof_C 	C 	0.9363	0.7633	0.8221	0.11
Mof_C 	C 	0.8819	0.8023	0.8342	0.089
Mof_C 	C 	0.8557	0.7653	0.84	-0.118
Mof_H 	H 	0.8516	0.729	0.8282	0.07
Mof_C 	C 	0.8356	0.7815	0.8631	-0
Mof_H 	H 	0.8177	0.7562	0.867	0.027
Mof_C 	C 	0.8416	0.8346	0.8804	-0.041
Mof_C 	C 	0.8678	0.8716	0.8746	-0.004
Mof_H 	H 	0.8719	0.9079	0.8864	0.025
Mof_C 	C 	0.8879	0.8555	0.8515	-0.113
Mof_H 	H 	0.9058	0.8808	0.8475	0.058
Mof_C 	C 	0.9076	0.7886	0.8111	-0.163
Mof_C 	C 	0.0216	0.7028	0.7788	0.121
Mof_C 	C 	0.0763	0.6762	0.6305	-0.029
Mof_C 	C 	0.0506	0.6381	0.6367	-0.008
Mof_H 	H 	0.0472	0.6007	0.6256	0.031
Mof_C 	C 	0.03	0.6548	0.6592	-0.113
Mof_H 	H 	0.0124	0.6288	0.6634	0.062
Mof_C 	C 	0.0349	0.7096	0.6755	0.093
Mof_C 	C 	0.0605	0.7477	0.6693	-0.113
Mof_H 	H 	0.0639	0.7851	0.6804	0.071
Mof_C 	C 	0.0812	0.7309	0.6468	-0.007
Mof_H 	H 	0.0987	0.757	0.6425	0.034
Mof_C 	C 	0.0517	0.6728	0.7713	-0.096
Mof_H 	H 	0.0677	0.655	0.7846	0.059
Mof_C 	C 	0.8973	0.8028	0.7818	0.094
Mof_C 	C 	0.9454	0.7907	0.6593	-0.032
Mof_H 	H 	0.9334	0.8041	0.6416	0.046
Mof_C 	C 	0.9453	0.751	0.8527	-0.1
Mof_H 	H 	0.9337	0.7602	0.8703	0.066
Mof_C 	C 	0.0793	0.6169	0.87647	-0.039
Mof_C 	C 	0.0494	0.591	0.8704	0.011
Mof_H 	H 	0.0435	0.554	0.8805	0.042
Mof_C 	C 	0.02809	0.619	0.8494	-0.115
Mof_H 	H 	0.0076	0.6013	0.8453	0.075
Mof_C 	C 	0.0367	0.6731	0.83456	0.092
Mof_C 	C 	0.0666	0.699	0.8407	-0.12
Mof_H 	H 	0.0725	0.7359	0.8305	0.068
Mof_C 	C 	0.08795	0.6709	0.8616	-0.001
Mof_H 	H 	0.1084	0.6887	0.8658	0.017
Mof_C 	C 	0.0147	0.7025	0.8105	-0.15
Mof_C 	C 	0.1272	0.5801	0.5806	0.023
Mof_H 	H 	0.1307	0.5372	0.577	0.038
Mof_C 	C 	0.1438	0.6244	0.5648	-0.076
Mof_C 	C 	0.1387	0.6871	0.5701	0.02
Mof_H 	H 	0.1501	0.7174	0.5592	0.044
Mof_C 	C 	0.1169	0.7055	0.5912	-0.104
Mof_H 	H 	0.1134	0.7483	0.5948	0.071
Mof_C 	C 	0.1002	0.6611	0.6071	0.061
Mof_C 	C 	0.1053	0.5984	0.6018	-0.106
Mof_H 	H 	0.0939	0.5681	0.6126	0.065
Mof_C 	C 	0.7975	0.803	0.9165	-0.148
Mof_H 	H 	0.7985	0.7615	0.9095	0.08
Mof_C 	C 	0.8175	0.8478	0.905	0.09
Mof_C 	C 	0.816	0.9087	0.9153	-0.147
Mof_H 	H 	0.8297	0.9393	0.9075	0.077
Mof_C 	C 	0.7944	0.9248	0.9371	0.085
Mof_H 	H 	0.7934	0.9664	0.9442	0.017
Mof_C 	C 	0.7744	0.88	0.9486	-0.175
Mof_C 	C 	0.7759	0.8191	0.9383	0.086
Mof_H 	H 	0.7622	0.7885	0.9462	0.018
Mof_C 	C 	0.9741	0.766	0.6597	-0.114
Mof_H 	H 	0.9854	0.7566	0.642	0.071
Mof_C 	C 	0.7476	0.0054	0.5477	0.271
Mof_O 	O 	0.7297	0.9694	0.5323	-0.475
Mof_In	In	0.45741	0.54375	0.63047	2.472
Mof_In	In	0.20736	0.24726	0.3816	1.64
Mof_O 	O 	0.4181	0.5596	0.5913	-0.5
Mof_N 	N 	0.161	0.216	0.3827	-0.355
Mof_O 	O 	0.9976	0.0304	0.5979	-0.533
Mof_O 	O 	0.4186	0.4704	0.1623	-0.544
Mof_C 	C 	0.2269	0.3051	0.4457	0.121
Mof_O 	O 	0.9783	0.044	0.1569	-0.484
Mof_O 	O 	0.4338	0.4689	0.6038	-0.548
Mof_C 	C 	0.23	0.2607	0.3152	0.093
Mof_O 	O 	0.9823	0.1237	0.6076	-0.516
Mof_C 	C 	0.12875	0.2103	0.46121	0.086
Mof_C 	C 	0.13888	0.1769	0.4871	-0.11
Mof_H 	H 	0.1605	0.1643	0.4897	0.076
Mof_C 	C 	0.1173	0.162	0.50909	0.01
Mof_H 	H 	0.1243	0.1392	0.5268	0.043
Mof_C 	C 	0.0857	0.1803	0.50528	-0.037
Mof_C 	C 	0.07554	0.2137	0.4794	-0.009
Mof_H 	H 	0.0539	0.2263	0.4768	0.032
Mof_C 	C 	0.0971	0.2286	0.4574	-0.112
Mof_H 	H 	0.0902	0.2514	0.4397	0.068
Mof_N 	N 	0.2055	0.274	0.4291	-0.336
Mof_C 	C 	0.1802	0.2576	0.4469	0.076
Mof_N 	N 	0.2482	0.299	0.3806	-0.359
Mof_N 	N 	0.2054	0.2457	0.334	-0.351
Mof_O 	O 	0.9943	0.9517	0.1689	-0.545
Mof_O 	O 	0.4342	0.3706	0.159	-0.42
Mof_C 	C 	0.9953	0.0101	0.1721	0.363
Mof_C 	C 	0.1512	0.2267	0.4369	-0.14
Mof_C 	C 	0.2669	0.325	0.4051	0.101
Mof_C 	C 	0.2939	0.3503	0.3638	-0.072
Mof_H 	H 	0.3097	0.3645	0.3506	0.046
Mof_C 	C 	0.2936	0.359	0.3945	-0.09
Mof_H 	H 	0.3082	0.3832	0.4066	0.059
Mof_C 	C 	0.1424	0.2022	0.4071	0.098
Mof_C 	C 	0.2659	0.3155	0.3549	0.076
Mof_C 	C 	0.3735	0.5172	0.5478	0.061
Mof_H 	H 	0.3763	0.5608	0.5496	0.027
Mof_C 	C 	0.3509	0.4933	0.5268	-0.133
Mof_H 	H 	0.3383	0.5205	0.5142	0.078
Mof_C 	C 	0.3468	0.4295	0.52413	0.087
Mof_C 	C 	0.3653	0.3896	0.5426	-0.135
Mof_H 	H 	0.3625	0.346	0.5408	0.076
Mof_C 	C 	0.3878	0.4135	0.56363	0.063
Mof_H 	H 	0.4004	0.3863	0.5762	0.025
Mof_C 	C 	0.39193	0.4773	0.56627	-0.136
Mof_C 	C 	0.1152	0.1604	0.3682	-0.058
Mof_H 	H 	0.0993	0.14	0.3557	0.045
Mof_C 	C 	0.2562	0.324	0.4353	-0.157
Mof_C 	C 	0.1438	0.1882	0.3571	0.057
Mof_C 	C 	0.2157	0.3124	0.4767	-0.09
Mof_H 	H 	0.2268	0.3307	0.4938	0.068
Mof_C 	C 	0.1861	0.2873	0.4756	-0.064
Mof_H 	H 	0.1716	0.2893	0.4916	0.058
Mof_C 	C 	0.0645	0.019	0.2301	-0.118
Mof_H 	H 	0.0806	0.9934	0.2393	0.066
Mof_C 	C 	0.0634	0.0818	0.2372	0.06
Mof_C 	C 	0.0397	0.1192	0.2237	-0.121
Mof_H 	H 	0.039	0.1621	0.2286	0.05
Mof_C 	C 	0.0172	0.094	0.2031	0.027
Mof_H 	H 	0.0011	0.1196	0.1938	0.024
Mof_C 	C 	0.0183	0.0312	0.1959	-0.111
Mof_C 	C 	0.0419	0.9937	0.2094	0.038
Mof_H 	H 	0.0427	0.9509	0.2045	0.031
Mof_C 	C 	0.0655	0.1564	0.52981	0.069
Mof_C 	C 	0.0423	0.1961	0.5404	-0.115
Mof_H 	H 	0.0412	0.2378	0.5335	0.069
Mof_C 	C 	0.02084	0.1747	0.5613	0.036
Mof_H 	H 	0.005	0.2018	0.5685	0.036
Mof_C 	C 	0.0225	0.1137	0.57144	-0.091
Mof_C 	C 	0.0456	0.074	0.5608	0.03
Mof_H 	H 	0.0467	0.0323	0.5678	0.04
Mof_C 	C 	0.0671	0.0954	0.54	-0.108
Mof_H 	H 	0.0829	0.0683	0.5327	0.077
Mof_C 	C 	0.1815	0.2184	0.3153	0.078
Mof_C 	C 	0.2584	0.2902	0.3238	-0.139
Mof_C 	C 	0.32388	0.4029	0.50116	-0.047
Mof_C 	C 	0.2955	0.4344	0.49434	0.013
Mof_H 	H 	0.2915	0.4728	0.5041	0.032
Mof_C 	C 	0.2732	0.4097	0.47329	-0.111
Mof_H 	H 	0.2538	0.4312	0.4686	0.08
Mof_C 	C 	0.27919	0.3535	0.45907	0.091
Mof_C 	C 	0.3075	0.322	0.46589	-0.119
Mof_H 	H 	0.3116	0.2836	0.4562	0.069
Mof_C 	C 	0.32987	0.3467	0.4869	0.003
Mof_H 	H 	0.3492	0.3252	0.4916	0.028
Mof_C 	C 	0.33245	0.2995	0.2787	0.005
Mof_H 	H 	0.3531	0.2816	0.2794	-0.003
Mof_C 	C 	0.3108	0.2834	0.30042	-0.125
Mof_H 	H 	0.3167	0.2545	0.316	0.064
Mof_C 	C 	0.2805	0.3096	0.29933	0.087
Mof_C 	C 	0.2719	0.352	0.2765	-0.117
Mof_H 	H 	0.2512	0.3699	0.2757	0.064
Mof_C 	C 	0.2935	0.3681	0.25472	-0.005
Mof_H 	H 	0.2876	0.3971	0.2391	0.027
Mof_C 	C 	0.3238	0.3419	0.2558	-0.041
Mof_C 	C 	0.1142	0.1675	0.3985	-0.097
Mof_H 	H 	0.0983	0.1529	0.4115	0.06
Mof_C 	C 	0.154	0.1857	0.3256	-0.129
Mof_C 	C 	0.1906	0.2187	0.2845	-0.075
Mof_H 	H 	0.1785	0.204	0.2671	0.054
Mof_C 	C 	0.3485	0.3628	0.23507	0.047
Mof_C 	C 	0.3733	0.323	0.2285	-0.1
Mof_H 	H 	0.375	0.2836	0.2382	0.045
Mof_C 	C 	0.3957	0.3407	0.2078	-0.004
Mof_H 	H 	0.4127	0.3135	0.2033	0.039
Mof_C 	C 	0.3933	0.3983	0.19359	-0.058
Mof_C 	C 	0.3684	0.4381	0.2001	0.002
Mof_H 	H 	0.3668	0.4775	0.1904	0.04
Mof_C 	C 	0.3461	0.4204	0.2209	-0.098
Mof_H 	H 	0.3291	0.4476	0.2253	0.057
Mof_C 	C 	0.1306	0.1549	0.304	0.078
Mof_C 	C 	0.1243	0.0917	0.3031	-0.11
Mof_H 	H 	0.1344	0.0647	0.3177	0.059
Mof_C 	C 	0.1031	0.0678	0.2808	-0.012
Mof_H 	H 	0.0987	0.0245	0.2801	0.027
Mof_C 	C 	0.0882	0.1071	0.25938	-0.034
Mof_C 	C 	0.0946	0.1704	0.2603	-0.014
Mof_H 	H 	0.0844	0.1973	0.2457	0.031
Mof_C 	C 	0.1158	0.1943	0.2826	-0.107
Mof_H 	H 	0.1201	0.2375	0.2833	0.062
Mof_C 	C 	0.2204	0.2443	0.2851	-0.087
Mof_H 	H 	0.2328	0.2502	0.2677	0.058
Mof_C 	C 	0.417	0.4176	0.1693	0.286
Mof_C 	C 	0.4165	0.5031	0.5872	0.394
Mof_C 	C 	0.0001	0.0848	0.5943	0.366
Mof_In	In	0.95741	0.04375	0.63047	2.47
Mof_In	In	0.70736	0.74726	0.3816	1.641
Mof_O 	O 	0.9181	0.0596	0.5913	-0.5
Mof_N 	N 	0.661	0.716	0.3827	-0.355
Mof_O 	O 	0.4976	0.5304	0.5979	-0.525
Mof_O 	O 	0.9186	0.9704	0.1623	-0.544
Mof_C 	C 	0.7269	0.8051	0.4457	0.121
Mof_O 	O 	0.4783	0.544	0.1569	-0.485
Mof_O 	O 	0.9338	0.9689	0.6038	-0.546
Mof_C 	C 	0.73	0.7607	0.3152	0.093
Mof_O 	O 	0.4823	0.6237	0.6076	-0.509
Mof_C 	C 	0.62875	0.7103	0.46121	0.086
Mof_C 	C 	0.63888	0.6769	0.4871	-0.109
Mof_H 	H 	0.6605	0.6643	0.4897	0.076
Mof_C 	C 	0.6173	0.662	0.50909	0.01
Mof_H 	H 	0.6243	0.6392	0.5268	0.043
Mof_C 	C 	0.5857	0.6803	0.50528	-0.037
Mof_C 	C 	0.57554	0.7137	0.4794	-0.009
Mof_H 	H 	0.5539	0.7263	0.4768	0.032
Mof_C 	C 	0.5971	0.7286	0.4574	-0.112
Mof_H 	H 	0.5902	0.7514	0.4397	0.068
Mof_N 	N 	0.7055	0.774	0.4291	-0.336
Mof_C 	C 	0.6802	0.7576	0.4469	0.076
Mof_N 	N 	0.7482	0.799	0.3806	-0.359
Mof_N 	N 	0.7054	0.7457	0.334	-0.351
Mof_O 	O 	0.4943	0.4517	0.1689	-0.544
Mof_O 	O 	0.9342	0.8706	0.159	-0.42
Mof_C 	C 	0.4953	0.5101	0.1721	0.37
Mof_C 	C 	0.6512	0.7267	0.4369	-0.14
Mof_C 	C 	0.7669	0.825	0.4051	0.101
Mof_C 	C 	0.7939	0.8503	0.3638	-0.072
Mof_H 	H 	0.8097	0.8645	0.3506	0.046
Mof_C 	C 	0.7936	0.859	0.3945	-0.09
Mof_H 	H 	0.8082	0.8832	0.4066	0.059
Mof_C 	C 	0.6424	0.7022	0.4071	0.098
Mof_C 	C 	0.7659	0.8155	0.3549	0.076
Mof_C 	C 	0.8735	0.0172	0.5478	0.055
Mof_H 	H 	0.8763	0.0608	0.5496	0.029
Mof_C 	C 	0.8509	0.9933	0.5268	-0.127
Mof_H 	H 	0.8383	0.0205	0.5142	0.075
Mof_C 	C 	0.8468	0.9295	0.52413	0.084
Mof_C 	C 	0.8653	0.8896	0.5426	-0.132
Mof_H 	H 	0.8625	0.846	0.5408	0.075
Mof_C 	C 	0.8878	0.9135	0.56363	0.06
Mof_H 	H 	0.9004	0.8863	0.5762	0.026
Mof_C 	C 	0.89193	0.9773	0.56627	-0.132
Mof_C 	C 	0.6152	0.6604	0.3682	-0.058
Mof_H 	H 	0.5993	0.64	0.3557	0.045
Mof_C 	C 	0.7562	0.824	0.4353	-0.157
Mof_C 	C 	0.6438	0.6882	0.3571	0.057
Mof_C 	C 	0.7157	0.8124	0.4767	-0.09
Mof_H 	H 	0.7268	0.8307	0.4938	0.068
Mof_C 	C 	0.6861	0.7873	0.4756	-0.064
Mof_H 	H 	0.6716	0.7893	0.4916	0.058
Mof_C 	C 	0.5645	0.519	0.2301	-0.124
Mof_H 	H 	0.5806	0.4934	0.2393	0.068
Mof_C 	C 	0.5634	0.5818	0.2372	0.064
Mof_C 	C 	0.5397	0.6192	0.2237	-0.127
Mof_H 	H 	0.539	0.6621	0.2286	0.051
Mof_C 	C 	0.5172	0.594	0.2031	0.032
Mof_H 	H 	0.5011	0.6196	0.1938	0.02
Mof_C 	C 	0.5183	0.5312	0.1959	-0.121
Mof_C 	C 	0.5419	0.4937	0.2094	0.045
Mof_H 	H 	0.5427	0.4509	0.2045	0.028
Mof_C 	C 	0.5655	0.6564	0.52981	0.067
Mof_C 	C 	0.5423	0.6961	0.5404	-0.113
Mof_H 	H 	0.5412	0.7378	0.5335	0.068
Mof_C 	C 	0.52084	0.6747	0.5613	0.032
Mof_H 	H 	0.505	0.7018	0.5685	0.036
Mof_C 	C 	0.5225	0.6137	0.57144	-0.087
Mof_C 	C 	0.5456	0.574	0.5608	0.027
Mof_H 	H 	0.5467	0.5323	0.5678	0.04
Mof_C 	C 	0.5671	0.5954	0.54	-0.106
Mof_H 	H 	0.5829	0.5683	0.5327	0.077
Mof_C 	C 	0.6815	0.7184	0.3153	0.078
Mof_C 	C 	0.7584	0.7902	0.3238	-0.139
Mof_C 	C 	0.82388	0.9029	0.50116	-0.045
Mof_C 	C 	0.7955	0.9344	0.49434	0.012
Mof_H 	H 	0.7915	0.9728	0.5041	0.032
Mof_C 	C 	0.7732	0.9097	0.47329	-0.111
Mof_H 	H 	0.7538	0.9312	0.4686	0.08
Mof_C 	C 	0.77919	0.8535	0.45907	0.09
Mof_C 	C 	0.8075	0.822	0.46589	-0.118
Mof_H 	H 	0.8116	0.7836	0.4562	0.069
Mof_C 	C 	0.82987	0.8467	0.4869	0.002
Mof_H 	H 	0.8492	0.8252	0.4916	0.028
Mof_C 	C 	0.83245	0.7995	0.2787	0.005
Mof_H 	H 	0.8531	0.7816	0.2794	-0.003
Mof_C 	C 	0.8108	0.7834	0.30042	-0.125
Mof_H 	H 	0.8167	0.7545	0.316	0.064
Mof_C 	C 	0.7805	0.8096	0.29933	0.088
Mof_C 	C 	0.7719	0.852	0.2765	-0.117
Mof_H 	H 	0.7512	0.8699	0.2757	0.064
Mof_C 	C 	0.7935	0.8681	0.25472	-0.005
Mof_H 	H 	0.7876	0.8971	0.2391	0.027
Mof_C 	C 	0.8238	0.8419	0.2558	-0.041
Mof_C 	C 	0.6142	0.6675	0.3985	-0.097
Mof_H 	H 	0.5983	0.6529	0.4115	0.06
Mof_C 	C 	0.654	0.6857	0.3256	-0.129
Mof_C 	C 	0.6906	0.7187	0.2845	-0.075
Mof_H 	H 	0.6785	0.704	0.2671	0.054
Mof_C 	C 	0.8485	0.8628	0.23507	0.047
Mof_C 	C 	0.8733	0.823	0.2285	-0.1
Mof_H 	H 	0.875	0.7836	0.2382	0.045
Mof_C 	C 	0.8957	0.8407	0.2078	-0.004
Mof_H 	H 	0.9127	0.8135	0.2033	0.038
Mof_C 	C 	0.8933	0.8983	0.19359	-0.058
Mof_C 	C 	0.8684	0.9381	0.2001	0.002
Mof_H 	H 	0.8668	0.9775	0.1904	0.04
Mof_C 	C 	0.8461	0.9204	0.2209	-0.099
Mof_H 	H 	0.8291	0.9476	0.2253	0.057
Mof_C 	C 	0.6306	0.6549	0.304	0.079
Mof_C 	C 	0.6243	0.5917	0.3031	-0.111
Mof_H 	H 	0.6344	0.5647	0.3177	0.059
Mof_C 	C 	0.6031	0.5678	0.2808	-0.011
Mof_H 	H 	0.5987	0.5245	0.2801	0.026
Mof_C 	C 	0.5882	0.6071	0.25938	-0.036
Mof_C 	C 	0.5946	0.6704	0.2603	-0.013
Mof_H 	H 	0.5844	0.6973	0.2457	0.031
Mof_C 	C 	0.6158	0.6943	0.2826	-0.108
Mof_H 	H 	0.6201	0.7375	0.2833	0.062
Mof_C 	C 	0.7204	0.7443	0.2851	-0.087
Mof_H 	H 	0.7328	0.7502	0.2677	0.058
Mof_C 	C 	0.917	0.9176	0.1693	0.286
Mof_C 	C 	0.9165	0.0031	0.5872	0.39
Mof_C 	C 	0.5001	0.5848	0.5943	0.352
Mof_In	In	0.45741	0.45625	0.13047	2.472
Mof_In	In	0.20736	0.75274	0.8816	1.641
Mof_O 	O 	0.4181	0.4404	0.0913	-0.5
Mof_N 	N 	0.161	0.784	0.8827	-0.355
Mof_O 	O 	0.9976	0.9696	0.0979	-0.533
Mof_O 	O 	0.4186	0.5296	0.6623	-0.544
Mof_C 	C 	0.2269	0.6949	0.9457	0.122
Mof_O 	O 	0.9783	0.956	0.6569	-0.484
Mof_O 	O 	0.4338	0.5311	0.1038	-0.548
Mof_C 	C 	0.23	0.7393	0.8152	0.093
Mof_O 	O 	0.9823	0.8763	0.1076	-0.517
Mof_C 	C 	0.12875	0.7897	0.96121	0.085
Mof_C 	C 	0.13888	0.8231	0.9871	-0.105
Mof_H 	H 	0.1605	0.8357	0.9897	0.076
Mof_C 	C 	0.1173	0.838	0.00909	0.006
Mof_H 	H 	0.1243	0.8608	0.0268	0.044
Mof_C 	C 	0.0857	0.8197	0.00528	-0.04
Mof_C 	C 	0.07554	0.7863	0.9794	-0.004
Mof_H 	H 	0.0539	0.7737	0.9768	0.032
Mof_C 	C 	0.0971	0.7714	0.9574	-0.113
Mof_H 	H 	0.0902	0.7486	0.9397	0.068
Mof_N 	N 	0.2055	0.726	0.9291	-0.336
Mof_C 	C 	0.1802	0.7424	0.9469	0.076
Mof_N 	N 	0.2482	0.701	0.8806	-0.359
Mof_N 	N 	0.2054	0.7543	0.834	-0.351
Mof_O 	O 	0.9943	0.0483	0.6689	-0.545
Mof_O 	O 	0.4342	0.6294	0.659	-0.42
Mof_C 	C 	0.9953	0.9899	0.6721	0.363
Mof_C 	C 	0.1512	0.7733	0.9369	-0.14
Mof_C 	C 	0.2669	0.675	0.9051	0.102
Mof_C 	C 	0.2939	0.6497	0.8638	-0.072
Mof_H 	H 	0.3097	0.6355	0.8506	0.046
Mof_C 	C 	0.2936	0.641	0.8945	-0.091
Mof_H 	H 	0.3082	0.6168	0.9066	0.059
Mof_C 	C 	0.1424	0.7978	0.9071	0.098
Mof_C 	C 	0.2659	0.6845	0.8549	0.076
Mof_C 	C 	0.3735	0.4828	0.0478	0.065
Mof_H 	H 	0.3763	0.4392	0.0496	0.026
Mof_C 	C 	0.3509	0.5067	0.0268	-0.139
Mof_H 	H 	0.3383	0.4795	0.0142	0.079
Mof_C 	C 	0.3468	0.5705	0.02413	0.095
Mof_C 	C 	0.3653	0.6104	0.0426	-0.14
Mof_H 	H 	0.3625	0.654	0.0408	0.078
Mof_C 	C 	0.3878	0.5865	0.06363	0.067
Mof_H 	H 	0.4004	0.6137	0.0762	0.023
Mof_C 	C 	0.39193	0.5227	0.06627	-0.139
Mof_C 	C 	0.1152	0.8396	0.8682	-0.058
Mof_H 	H 	0.0993	0.86	0.8557	0.045
Mof_C 	C 	0.2562	0.676	0.9353	-0.16
Mof_C 	C 	0.1438	0.8118	0.8571	0.057
Mof_C 	C 	0.2157	0.6876	0.9767	-0.091
Mof_H 	H 	0.2268	0.6693	0.9938	0.069
Mof_C 	C 	0.1861	0.7127	0.9756	-0.063
Mof_H 	H 	0.1716	0.7107	0.9916	0.059
Mof_C 	C 	0.0645	0.981	0.7301	-0.118
Mof_H 	H 	0.0806	0.0066	0.7393	0.066
Mof_C 	C 	0.0634	0.9182	0.7372	0.06
Mof_C 	C 	0.0397	0.8808	0.7237	-0.121
Mof_H 	H 	0.039	0.8379	0.7286	0.05
Mof_C 	C 	0.0172	0.906	0.7031	0.027
Mof_H 	H 	0.0011	0.8804	0.6938	0.024
Mof_C 	C 	0.0183	0.9688	0.6959	-0.111
Mof_C 	C 	0.0419	0.0063	0.7094	0.038
Mof_H 	H 	0.0427	0.0491	0.7045	0.031
Mof_C 	C 	0.0655	0.8436	0.02981	0.069
Mof_C 	C 	0.0423	0.8039	0.0404	-0.115
Mof_H 	H 	0.0412	0.7622	0.0335	0.069
Mof_C 	C 	0.02084	0.8253	0.0613	0.036
Mof_H 	H 	0.005	0.7982	0.0685	0.036
Mof_C 	C 	0.0225	0.8863	0.07144	-0.092
Mof_C 	C 	0.0456	0.926	0.0608	0.03
Mof_H 	H 	0.0467	0.9677	0.0678	0.04
Mof_C 	C 	0.0671	0.9046	0.04	-0.109
Mof_H 	H 	0.0829	0.9317	0.0327	0.077
Mof_C 	C 	0.1815	0.7816	0.8153	0.078
Mof_C 	C 	0.2584	0.7098	0.8238	-0.139
Mof_C 	C 	0.32388	0.5971	0.00116	-0.065
Mof_C 	C 	0.2955	0.5656	0.99434	0.034
Mof_H 	H 	0.2915	0.5272	0.0041	0.023
Mof_C 	C 	0.2732	0.5903	0.97329	-0.124
Mof_H 	H 	0.2538	0.5688	0.9686	0.085
Mof_C 	C 	0.27919	0.6465	0.95907	0.099
Mof_C 	C 	0.3075	0.678	0.96589	-0.129
Mof_H 	H 	0.3116	0.7164	0.9562	0.073
Mof_C 	C 	0.32987	0.6533	0.9869	0.018
Mof_H 	H 	0.3492	0.6748	0.9916	0.024
Mof_C 	C 	0.33245	0.7005	0.7787	0.005
Mof_H 	H 	0.3531	0.7184	0.7794	-0.003
Mof_C 	C 	0.3108	0.7166	0.80042	-0.125
Mof_H 	H 	0.3167	0.7455	0.816	0.064
Mof_C 	C 	0.2805	0.6904	0.79933	0.087
Mof_C 	C 	0.2719	0.648	0.7765	-0.117
Mof_H 	H 	0.2512	0.6301	0.7757	0.064
Mof_C 	C 	0.2935	0.6319	0.75472	-0.005
Mof_H 	H 	0.2876	0.6029	0.7391	0.027
Mof_C 	C 	0.3238	0.6581	0.7558	-0.041
Mof_C 	C 	0.1142	0.8325	0.8985	-0.097
Mof_H 	H 	0.0983	0.8471	0.9115	0.06
Mof_C 	C 	0.154	0.8143	0.8256	-0.129
Mof_C 	C 	0.1906	0.7813	0.7845	-0.075
Mof_H 	H 	0.1785	0.796	0.7671	0.054
Mof_C 	C 	0.3485	0.6372	0.73507	0.047
Mof_C 	C 	0.3733	0.677	0.7285	-0.1
Mof_H 	H 	0.375	0.7164	0.7382	0.045
Mof_C 	C 	0.3957	0.6593	0.7078	-0.004
Mof_H 	H 	0.4127	0.6865	0.7033	0.039
Mof_C 	C 	0.3933	0.6017	0.69359	-0.058
Mof_C 	C 	0.3684	0.5619	0.7001	0.002
Mof_H 	H 	0.3668	0.5225	0.6904	0.04
Mof_C 	C 	0.3461	0.5796	0.7209	-0.098
Mof_H 	H 	0.3291	0.5524	0.7253	0.057
Mof_C 	C 	0.1306	0.8451	0.804	0.078
Mof_C 	C 	0.1243	0.9083	0.8031	-0.11
Mof_H 	H 	0.1344	0.9353	0.8177	0.059
Mof_C 	C 	0.1031	0.9322	0.7808	-0.012
Mof_H 	H 	0.0987	0.9755	0.7801	0.027
Mof_C 	C 	0.0882	0.8929	0.75938	-0.034
Mof_C 	C 	0.0946	0.8296	0.7603	-0.014
Mof_H 	H 	0.0844	0.8027	0.7457	0.031
Mof_C 	C 	0.1158	0.8057	0.7826	-0.107
Mof_H 	H 	0.1201	0.7625	0.7833	0.062
Mof_C 	C 	0.2204	0.7557	0.7851	-0.087
Mof_H 	H 	0.2328	0.7498	0.7677	0.058
Mof_C 	C 	0.417	0.5824	0.6693	0.286
Mof_C 	C 	0.4165	0.4969	0.0872	0.395
Mof_C 	C 	0.0001	0.9152	0.0943	0.366
Mof_In	In	0.95741	0.95625	0.13047	2.47
Mof_In	In	0.70736	0.25274	0.8816	1.641
Mof_O 	O 	0.9181	0.9404	0.0913	-0.5
Mof_N 	N 	0.661	0.284	0.8827	-0.355
Mof_O 	O 	0.4976	0.4696	0.0979	-0.525
Mof_O 	O 	0.9186	0.0296	0.6623	-0.544
Mof_C 	C 	0.7269	0.1949	0.9457	0.122
Mof_O 	O 	0.4783	0.456	0.6569	-0.485
Mof_O 	O 	0.9338	0.0311	0.1038	-0.547
Mof_C 	C 	0.73	0.2393	0.8152	0.093
Mof_O 	O 	0.4823	0.3763	0.1076	-0.509
Mof_C 	C 	0.62875	0.2897	0.96121	0.085
Mof_C 	C 	0.63888	0.3231	0.9871	-0.105
Mof_H 	H 	0.6605	0.3357	0.9897	0.076
Mof_C 	C 	0.6173	0.338	0.00909	0.006
Mof_H 	H 	0.6243	0.3608	0.0268	0.044
Mof_C 	C 	0.5857	0.3197	0.00528	-0.04
Mof_C 	C 	0.57554	0.2863	0.9794	-0.005
Mof_H 	H 	0.5539	0.2737	0.9768	0.031
Mof_C 	C 	0.5971	0.2714	0.9574	-0.113
Mof_H 	H 	0.5902	0.2486	0.9397	0.068
Mof_N 	N 	0.7055	0.226	0.9291	-0.336
Mof_C 	C 	0.6802	0.2424	0.9469	0.076
Mof_N 	N 	0.7482	0.201	0.8806	-0.359
Mof_N 	N 	0.7054	0.2543	0.834	-0.351
Mof_O 	O 	0.4943	0.5483	0.6689	-0.544
Mof_O 	O 	0.9342	0.1294	0.659	-0.42
Mof_C 	C 	0.4953	0.4899	0.6721	0.37
Mof_C 	C 	0.6512	0.2733	0.9369	-0.14
Mof_C 	C 	0.7669	0.175	0.9051	0.102
Mof_C 	C 	0.7939	0.1497	0.8638	-0.072
Mof_H 	H 	0.8097	0.1355	0.8506	0.046
Mof_C 	C 	0.7936	0.141	0.8945	-0.091
Mof_H 	H 	0.8082	0.1168	0.9066	0.059
Mof_C 	C 	0.6424	0.2978	0.9071	0.098
Mof_C 	C 	0.7659	0.1845	0.8549	0.076
Mof_C 	C 	0.8735	0.9828	0.0478	0.058
Mof_H 	H 	0.8763	0.9392	0.0496	0.028
Mof_C 	C 	0.8509	0.0067	0.0268	-0.132
Mof_H 	H 	0.8383	0.9795	0.0142	0.076
Mof_C 	C 	0.8468	0.0705	0.02413	0.091
Mof_C 	C 	0.8653	0.1104	0.0426	-0.137
Mof_H 	H 	0.8625	0.154	0.0408	0.076
Mof_C 	C 	0.8878	0.0865	0.06363	0.063
Mof_H 	H 	0.9004	0.1137	0.0762	0.024
Mof_C 	C 	0.89193	0.0227	0.06627	-0.134
Mof_C 	C 	0.6152	0.3396	0.8682	-0.058
Mof_H 	H 	0.5993	0.36	0.8557	0.045
Mof_C 	C 	0.7562	0.176	0.9353	-0.16
Mof_C 	C 	0.6438	0.3118	0.8571	0.057
Mof_C 	C 	0.7157	0.1876	0.9767	-0.091
Mof_H 	H 	0.7268	0.1693	0.9938	0.069
Mof_C 	C 	0.6861	0.2127	0.9756	-0.063
Mof_H 	H 	0.6716	0.2107	0.9916	0.059
Mof_C 	C 	0.5645	0.481	0.7301	-0.124
Mof_H 	H 	0.5806	0.5066	0.7393	0.068
Mof_C 	C 	0.5634	0.4182	0.7372	0.064
Mof_C 	C 	0.5397	0.3808	0.7237	-0.127
Mof_H 	H 	0.539	0.3379	0.7286	0.051
Mof_C 	C 	0.5172	0.406	0.7031	0.032
Mof_H 	H 	0.5011	0.3804	0.6938	0.02
Mof_C 	C 	0.5183	0.4688	0.6959	-0.121
Mof_C 	C 	0.5419	0.5063	0.7094	0.045
Mof_H 	H 	0.5427	0.5491	0.7045	0.028
Mof_C 	C 	0.5655	0.3436	0.02981	0.068
Mof_C 	C 	0.5423	0.3039	0.0404	-0.114
Mof_H 	H 	0.5412	0.2622	0.0335	0.068
Mof_C 	C 	0.52084	0.3253	0.0613	0.033
Mof_H 	H 	0.505	0.2982	0.0685	0.035
Mof_C 	C 	0.5225	0.3863	0.07144	-0.088
Mof_C 	C 	0.5456	0.426	0.0608	0.027
Mof_H 	H 	0.5467	0.4677	0.0678	0.04
Mof_C 	C 	0.5671	0.4046	0.04	-0.107
Mof_H 	H 	0.5829	0.4317	0.0327	0.076
Mof_C 	C 	0.6815	0.2816	0.8153	0.078
Mof_C 	C 	0.7584	0.2098	0.8238	-0.139
Mof_C 	C 	0.82388	0.0971	0.00116	-0.062
Mof_C 	C 	0.7955	0.0656	0.99434	0.032
Mof_H 	H 	0.7915	0.0272	0.0041	0.024
Mof_C 	C 	0.7732	0.0903	0.97329	-0.122
Mof_H 	H 	0.7538	0.0688	0.9686	0.085
Mof_C 	C 	0.77919	0.1465	0.95907	0.098
Mof_C 	C 	0.8075	0.178	0.96589	-0.127
Mof_H 	H 	0.8116	0.2164	0.9562	0.072
Mof_C 	C 	0.82987	0.1533	0.9869	0.016
Mof_H 	H 	0.8492	0.1748	0.9916	0.025
Mof_C 	C 	0.83245	0.2005	0.7787	0.005
Mof_H 	H 	0.8531	0.2184	0.7794	-0.003
Mof_C 	C 	0.8108	0.2166	0.80042	-0.125
Mof_H 	H 	0.8167	0.2455	0.816	0.064
Mof_C 	C 	0.7805	0.1904	0.79933	0.087
Mof_C 	C 	0.7719	0.148	0.7765	-0.117
Mof_H 	H 	0.7512	0.1301	0.7757	0.064
Mof_C 	C 	0.7935	0.1319	0.75472	-0.005
Mof_H 	H 	0.7876	0.1029	0.7391	0.027
Mof_C 	C 	0.8238	0.1581	0.7558	-0.041
Mof_C 	C 	0.6142	0.3325	0.8985	-0.097
Mof_H 	H 	0.5983	0.3471	0.9115	0.06
Mof_C 	C 	0.654	0.3143	0.8256	-0.129
Mof_C 	C 	0.6906	0.2813	0.7845	-0.075
Mof_H 	H 	0.6785	0.296	0.7671	0.054
Mof_C 	C 	0.8485	0.1372	0.73507	0.047
Mof_C 	C 	0.8733	0.177	0.7285	-0.1
Mof_H 	H 	0.875	0.2164	0.7382	0.045
Mof_C 	C 	0.8957	0.1593	0.7078	-0.004
Mof_H 	H 	0.9127	0.1865	0.7033	0.038
Mof_C 	C 	0.8933	0.1017	0.69359	-0.058
Mof_C 	C 	0.8684	0.0619	0.7001	0.002
Mof_H 	H 	0.8668	0.0225	0.6904	0.04
Mof_C 	C 	0.8461	0.0796	0.7209	-0.099
Mof_H 	H 	0.8291	0.0524	0.7253	0.057
Mof_C 	C 	0.6306	0.3451	0.804	0.079
Mof_C 	C 	0.6243	0.4083	0.8031	-0.111
Mof_H 	H 	0.6344	0.4353	0.8177	0.059
Mof_C 	C 	0.6031	0.4322	0.7808	-0.01
Mof_H 	H 	0.5987	0.4755	0.7801	0.026
Mof_C 	C 	0.5882	0.3929	0.75938	-0.036
Mof_C 	C 	0.5946	0.3296	0.7603	-0.013
Mof_H 	H 	0.5844	0.3027	0.7457	0.031
Mof_C 	C 	0.6158	0.3057	0.7826	-0.108
Mof_H 	H 	0.6201	0.2625	0.7833	0.062
Mof_C 	C 	0.7204	0.2557	0.7851	-0.087
Mof_H 	H 	0.7328	0.2498	0.7677	0.058
Mof_C 	C 	0.917	0.0824	0.6693	0.286
Mof_C 	C 	0.9165	0.9969	0.0872	0.391
Mof_C 	C 	0.5001	0.4152	0.0943	0.352
Mof_In	In	0.18052	0.95588	0.06147	2.762
Mof_In	In	0.9347	0.73104	0.31204	1.611
Mof_C 	C 	0.9871	0.766	0.2541	-0.185
Mof_C 	C 	0.9131	0.7163	0.3792	0.083
Mof_N 	N 	0.9385	0.7141	0.2644	-0.346
Mof_O 	O 	0.704	0.5327	0.0881	-0.524
Mof_C 	C 	0.961	0.7319	0.2461	0.151
Mof_N 	N 	0.9371	0.7358	0.3595	-0.357
Mof_O 	O 	0.1415	0.964	0.0956	-0.545
Mof_N 	N 	0.9804	0.769	0.3109	-0.343
Mof_C 	C 	0.1392	0.9062	0.1004	0.469
Mof_O 	O 	0.1548	0.8799	0.0816	-0.636
Mof_C 	C 	0.9981	0.7801	0.2851	0.104
Mof_C 	C 	0.9163	0.6757	0.2482	0.05
Mof_C 	C 	0.8446	0.6429	0.3284	-0.079
Mof_H 	H 	0.8283	0.6277	0.3407	0.048
Mof_C 	C 	0.8464	0.6388	0.298	-0.073
Mof_H 	H 	0.8291	0.6226	0.2858	0.05
Mof_C 	C 	0.724	0.4953	0.0998	0.289
Mof_C 	C 	0.0249	0.8153	0.2938	-0.096
Mof_H 	H 	0.0429	0.8246	0.2822	0.058
Mof_C 	C 	0.0713	0.8393	0.1615	0.118
Mof_C 	C 	0.0671	0.8975	0.1483	-0.17
Mof_H 	H 	0.0492	0.922	0.153	0.096
Mof_C 	C 	0.0892	0.92	0.1283	0.108
Mof_H 	H 	0.0863	0.9598	0.1193	0.011
Mof_C 	C 	0.1154	0.8842	0.1215	-0.199
Mof_C 	C 	0.1197	0.8259	0.1347	0.099
Mof_H 	H 	0.1376	0.8015	0.13	-0.009
Mof_C 	C 	0.0976	0.8035	0.1547	-0.171
Mof_H 	H 	0.1005	0.7637	0.1637	0.089
Mof_C 	C 	0.9947	0.8001	0.3373	0.066
Mof_C 	C 	0.8837	0.6887	0.368	-0.14
Mof_C 	C 	0.9598	0.7609	0.378	0.131
Mof_C 	C 	0.8665	0.6285	0.2294	0.079
Mof_C 	C 	0.8535	0.6678	0.2069	-0.105
Mof_H 	H 	0.8599	0.71	0.2064	0.067
Mof_C 	C 	0.8312	0.6452	0.1853	-0.012
Mof_H 	H 	0.8223	0.672	0.1699	0.036
Mof_C 	C 	0.8219	0.5833	0.1861	-0.027
Mof_C 	C 	0.8349	0.5441	0.2086	-0.015
Mof_H 	H 	0.8286	0.5018	0.2091	0.032
Mof_C 	C 	0.8572	0.5667	0.2302	-0.106
Mof_H 	H 	0.8661	0.5399	0.2456	0.061
Mof_C 	C 	0.9301	0.676	0.2187	-0.033
Mof_H 	H 	0.9201	0.6563	0.2014	0.041
Mof_O 	O 	0.7214	0.4364	0.0958	-0.544
Mof_C 	C 	0.8739	0.6586	0.2848	0.079
Mof_N 	N 	0.889	0.6833	0.3114	-0.321
Mof_C 	C 	0.9575	0.7054	0.2173	-0.136
Mof_H 	H 	0.9713	0.7078	0.2008	0.077
Mof_C 	C 	0.947	0.7662	0.4073	-0.098
Mof_H 	H 	0.956	0.7918	0.4231	0.064
Mof_C 	C 	0.8853	0.6554	0.2557	-0.129
Mof_C 	C 	0.0628	0.7795	0.2101	0.03
Mof_H 	H 	0.0848	0.7691	0.2122	0.019
Mof_C 	C 	0.0513	0.8126	0.1847	-0.077
Mof_C 	C 	0.0191	0.8278	0.1816	0.053
Mof_H 	H 	0.0112	0.8505	0.1643	0.024
Mof_C 	C 	0.9985	0.8099	0.204	-0.16
Mof_H 	H 	0.9765	0.8203	0.2019	0.09
Mof_C 	C 	0.0101	0.7767	0.2294	0.132
Mof_C 	C 	0.0422	0.7615	0.2324	-0.15
Mof_H 	H 	0.0501	0.7389	0.2498	0.079
Mof_C 	C 	0.9216	0.7322	0.4102	-0.056
Mof_H 	H 	0.9114	0.721	0.4283	0.053
Mof_C 	C 	0.9845	0.7941	0.3669	-0.16
Mof_C 	C 	0.8609	0.67	0.3921	0.092
Mof_C 	C 	0.831	0.6976	0.3921	-0.129
Mof_H 	H 	0.8251	0.728	0.3772	0.063
Mof_C 	C 	0.8096	0.6806	0.4139	0.006
Mof_H 	H 	0.7892	0.6995	0.414	-0.008
Mof_C 	C 	0.8182	0.6361	0.4358	-0.045
Mof_C 	C 	0.8481	0.6085	0.4358	-0
Mof_H 	H 	0.8539	0.5781	0.4507	0.032
Mof_C 	C 	0.8694	0.6254	0.4139	-0.115
Mof_H 	H 	0.8899	0.6066	0.4139	0.076
Mof_C 	C 	0.7469	0.5777	0.135	0.016
Mof_H 	H 	0.7296	0.6037	0.1284	0.044
Mof_C 	C 	0.7701	0.5998	0.1559	-0.105
Mof_H 	H 	0.7687	0.6408	0.1636	0.066
Mof_C 	C 	0.7954	0.5617	0.1655	0.058
Mof_C 	C 	0.7973	0.5016	0.1542	-0.11
Mof_H 	H 	0.8146	0.4756	0.1608	0.066
Mof_C 	C 	0.7741	0.4796	0.1333	0.017
Mof_H 	H 	0.7755	0.4385	0.1256	0.021
Mof_C 	C 	0.7489	0.5176	0.1237	-0.073
Mof_C 	C 	0.8728	0.6753	0.3379	0.083
Mof_C 	C 	0.0513	0.8768	0.4331	-0.062
Mof_C 	C 	0.0305	0.9131	0.4151	0.008
Mof_H 	H 	0.0308	0.957	0.4173	0.023
Mof_C 	C 	0.0093	0.8853	0.3939	-0.116
Mof_H 	H 	0.9951	0.9101	0.3816	0.056
Mof_C 	C 	0.0089	0.8212	0.3908	0.103
Mof_C 	C 	0.0297	0.7848	0.4088	-0.132
Mof_H 	H 	0.0295	0.741	0.4066	0.096
Mof_C 	C 	0.0509	0.8127	0.4299	0.021
Mof_H 	H 	0.0651	0.7878	0.4422	0.026
Mof_C 	C 	0.7956	0.6196	0.4596	0.054
Mof_C 	C 	0.7739	0.6647	0.4676	-0.11
Mof_H 	H 	0.775	0.7052	0.4591	0.053
Mof_C 	C 	0.7507	0.6507	0.4882	0.005
Mof_H 	H 	0.7359	0.6816	0.4937	0.036
Mof_C 	C 	0.7492	0.5916	0.5007	-0.069
Mof_C 	C 	0.7709	0.5464	0.4926	0.005
Mof_H 	H 	0.7698	0.506	0.5011	0.045
Mof_C 	C 	0.7941	0.5604	0.472	-0.106
Mof_H 	H 	0.8089	0.5296	0.4665	0.064
Mof_O 	O 	0.1447	0.0418	0.5233	-0.666
Mof_C 	C 	0.1377	0.9878	0.5216	0.65
Mof_O 	O 	0.7223	0.5137	0.5306	-0.465
Mof_O 	O 	0.1508	0.963	0.5419	-0.619
Mof_O 	O 	0.7034	0.6103	0.5322	-0.556
Mof_C 	C 	0.7249	0.5717	0.523	0.274
Mof_C 	C 	0.1038	0.8997	0.503	0.164
Mof_H 	H 	0.1114	0.8749	0.5197	-0.008
Mof_C 	C 	0.1139	0.9609	0.5006	-0.289
Mof_C 	C 	0.1029	0.9972	0.4761	0.156
Mof_H 	H 	0.1098	0.0389	0.4744	-0.013
Mof_C 	C 	0.0818	0.9723	0.454	-0.198
Mof_H 	H 	0.0742	0.9971	0.4372	0.093
Mof_C 	C 	0.0717	0.9112	0.4564	0.132
Mof_C 	C 	0.0827	0.8749	0.4809	-0.199
Mof_H 	H 	0.0758	0.8331	0.4825	0.101
Mof_C 	C 	0.0193	0.8327	0.3223	-0.055
Mof_H 	H 	0.0311	0.8652	0.3321	0.044
Mof_In	In	0.68052	0.45588	0.06147	2.763
Mof_In	In	0.4347	0.23104	0.31204	1.612
Mof_C 	C 	0.4871	0.266	0.2541	-0.175
Mof_C 	C 	0.4131	0.2163	0.3792	0.083
Mof_N 	N 	0.4385	0.2141	0.2644	-0.345
Mof_O 	O 	0.204	0.0327	0.0881	-0.523
Mof_C 	C 	0.461	0.2319	0.2461	0.148
Mof_N 	N 	0.4371	0.2358	0.3595	-0.357
Mof_O 	O 	0.6415	0.464	0.0956	-0.545
Mof_N 	N 	0.4804	0.269	0.3109	-0.343
Mof_C 	C 	0.6392	0.4062	0.1004	0.468
Mof_O 	O 	0.6548	0.3799	0.0816	-0.636
Mof_C 	C 	0.4981	0.2801	0.2851	0.106
Mof_C 	C 	0.4163	0.1757	0.2482	0.051
Mof_C 	C 	0.3446	0.1429	0.3284	-0.079
Mof_H 	H 	0.3283	0.1277	0.3407	0.048
Mof_C 	C 	0.3464	0.1388	0.298	-0.073
Mof_H 	H 	0.3291	0.1226	0.2858	0.05
Mof_C 	C 	0.224	0.9953	0.0998	0.287
Mof_C 	C 	0.5249	0.3153	0.2938	-0.098
Mof_H 	H 	0.5429	0.3246	0.2822	0.059
Mof_C 	C 	0.5713	0.3393	0.1615	0.112
Mof_C 	C 	0.5671	0.3975	0.1483	-0.165
Mof_H 	H 	0.5492	0.422	0.153	0.094
Mof_C 	C 	0.5892	0.42	0.1283	0.105
Mof_H 	H 	0.5863	0.4598	0.1193	0.012
Mof_C 	C 	0.6154	0.3842	0.1215	-0.197
Mof_C 	C 	0.6197	0.3259	0.1347	0.096
Mof_H 	H 	0.6376	0.3015	0.13	-0.008
Mof_C 	C 	0.5976	0.3035	0.1547	-0.166
Mof_H 	H 	0.6005	0.2637	0.1637	0.087
Mof_C 	C 	0.4947	0.3001	0.3373	0.072
Mof_C 	C 	0.3837	0.1887	0.368	-0.14
Mof_C 	C 	0.4598	0.2609	0.378	0.132
Mof_C 	C 	0.3665	0.1285	0.2294	0.079
Mof_C 	C 	0.3535	0.1678	0.2069	-0.105
Mof_H 	H 	0.3599	0.21	0.2064	0.067
Mof_C 	C 	0.3312	0.1452	0.1853	-0.013
Mof_H 	H 	0.3223	0.172	0.1699	0.036
Mof_C 	C 	0.3219	0.0833	0.1861	-0.026
Mof_C 	C 	0.3349	0.0441	0.2086	-0.016
Mof_H 	H 	0.3286	0.0018	0.2091	0.032
Mof_C 	C 	0.3572	0.0667	0.2302	-0.106
Mof_H 	H 	0.3661	0.0399	0.2456	0.061
Mof_C 	C 	0.4301	0.176	0.2187	-0.034
Mof_H 	H 	0.4201	0.1563	0.2014	0.042
Mof_O 	O 	0.2214	0.9364	0.0958	-0.543
Mof_C 	C 	0.3739	0.1586	0.2848	0.079
Mof_N 	N 	0.389	0.1833	0.3114	-0.322
Mof_C 	C 	0.4575	0.2054	0.2173	-0.133
Mof_H 	H 	0.4713	0.2078	0.2008	0.078
Mof_C 	C 	0.447	0.2662	0.4073	-0.099
Mof_H 	H 	0.456	0.2918	0.4231	0.066
Mof_C 	C 	0.3853	0.1554	0.2557	-0.129
Mof_C 	C 	0.5628	0.2795	0.2101	0.016
Mof_H 	H 	0.5848	0.2691	0.2122	0.024
Mof_C 	C 	0.5513	0.3126	0.1847	-0.064
Mof_C 	C 	0.5191	0.3278	0.1816	0.031
Mof_H 	H 	0.5112	0.3505	0.1643	0.03
Mof_C 	C 	0.4985	0.3099	0.204	-0.132
Mof_H 	H 	0.4765	0.3203	0.2019	0.081
Mof_C 	C 	0.5101	0.2767	0.2294	0.109
Mof_C 	C 	0.5422	0.2615	0.2324	-0.135
Mof_H 	H 	0.5501	0.2389	0.2498	0.073
Mof_C 	C 	0.4216	0.2322	0.4102	-0.056
Mof_H 	H 	0.4114	0.221	0.4283	0.053
Mof_C 	C 	0.4845	0.2941	0.3669	-0.159
Mof_C 	C 	0.3609	0.17	0.3921	0.092
Mof_C 	C 	0.331	0.1976	0.3921	-0.129
Mof_H 	H 	0.3251	0.228	0.3772	0.063
Mof_C 	C 	0.3096	0.1806	0.4139	0.006
Mof_H 	H 	0.2892	0.1995	0.414	-0.008
Mof_C 	C 	0.3182	0.1361	0.4358	-0.045
Mof_C 	C 	0.3481	0.1085	0.4358	-0
Mof_H 	H 	0.3539	0.0781	0.4507	0.032
Mof_C 	C 	0.3694	0.1254	0.4139	-0.115
Mof_H 	H 	0.3899	0.1066	0.4139	0.075
Mof_C 	C 	0.2469	0.0777	0.135	0.013
Mof_H 	H 	0.2296	0.1037	0.1284	0.044
Mof_C 	C 	0.2701	0.0998	0.1559	-0.102
Mof_H 	H 	0.2687	0.1408	0.1636	0.065
Mof_C 	C 	0.2954	0.0617	0.1655	0.056
Mof_C 	C 	0.2973	0.0016	0.1542	-0.105
Mof_H 	H 	0.3146	0.9756	0.1608	0.064
Mof_C 	C 	0.2741	0.9796	0.1333	0.012
Mof_H 	H 	0.2755	0.9385	0.1256	0.023
Mof_C 	C 	0.2489	0.0176	0.1237	-0.069
Mof_C 	C 	0.3728	0.1753	0.3379	0.083
Mof_C 	C 	0.5513	0.3768	0.4331	-0.065
Mof_C 	C 	0.5305	0.4131	0.4151	0.014
Mof_H 	H 	0.5308	0.457	0.4173	0.02
Mof_C 	C 	0.5093	0.3853	0.3939	-0.128
Mof_H 	H 	0.4951	0.4101	0.3816	0.063
Mof_C 	C 	0.5089	0.3212	0.3908	0.103
Mof_C 	C 	0.5297	0.2848	0.4088	-0.133
Mof_H 	H 	0.5295	0.241	0.4066	0.096
Mof_C 	C 	0.5509	0.3127	0.4299	0.022
Mof_H 	H 	0.5651	0.2878	0.4422	0.025
Mof_C 	C 	0.2956	0.1196	0.4596	0.054
Mof_C 	C 	0.2739	0.1647	0.4676	-0.11
Mof_H 	H 	0.275	0.2052	0.4591	0.053
Mof_C 	C 	0.2507	0.1507	0.4882	0.005
Mof_H 	H 	0.2359	0.1816	0.4937	0.036
Mof_C 	C 	0.2492	0.0916	0.5007	-0.069
Mof_C 	C 	0.2709	0.0464	0.4926	0.005
Mof_H 	H 	0.2698	0.006	0.5011	0.045
Mof_C 	C 	0.2941	0.0604	0.472	-0.106
Mof_H 	H 	0.3089	0.0296	0.4665	0.064
Mof_O 	O 	0.6447	0.5418	0.5233	-0.665
Mof_C 	C 	0.6377	0.4878	0.5216	0.649
Mof_O 	O 	0.2223	0.0137	0.5306	-0.465
Mof_O 	O 	0.6508	0.463	0.5419	-0.619
Mof_O 	O 	0.2034	0.1103	0.5322	-0.556
Mof_C 	C 	0.2249	0.0717	0.523	0.274
Mof_C 	C 	0.6038	0.3997	0.503	0.163
Mof_H 	H 	0.6114	0.3749	0.5197	-0.008
Mof_C 	C 	0.6139	0.4609	0.5006	-0.288
Mof_C 	C 	0.6029	0.4972	0.4761	0.154
Mof_H 	H 	0.6098	0.5389	0.4744	-0.012
Mof_C 	C 	0.5818	0.4723	0.454	-0.198
Mof_H 	H 	0.5742	0.4971	0.4372	0.093
Mof_C 	C 	0.5717	0.4112	0.4564	0.132
Mof_C 	C 	0.5827	0.3749	0.4809	-0.199
Mof_H 	H 	0.5758	0.3331	0.4825	0.101
Mof_C 	C 	0.5193	0.3327	0.3223	-0.062
Mof_H 	H 	0.5311	0.3652	0.3321	0.045
Mof_In	In	0.18052	0.04412	0.56147	2.762
Mof_In	In	0.9347	0.26896	0.81204	1.611
Mof_C 	C 	0.9871	0.234	0.7541	-0.185
Mof_C 	C 	0.9131	0.2837	0.8792	0.083
Mof_N 	N 	0.9385	0.2859	0.7644	-0.346
Mof_O 	O 	0.704	0.4673	0.5881	-0.524
Mof_C 	C 	0.961	0.2681	0.7461	0.151
Mof_N 	N 	0.9371	0.2642	0.8595	-0.357
Mof_O 	O 	0.1415	0.036	0.5956	-0.545
Mof_N 	N 	0.9804	0.231	0.8109	-0.343
Mof_C 	C 	0.1392	0.0938	0.6004	0.469
Mof_O 	O 	0.1548	0.1201	0.5816	-0.636
Mof_C 	C 	0.9981	0.2199	0.7851	0.104
Mof_C 	C 	0.9163	0.3243	0.7482	0.05
Mof_C 	C 	0.8446	0.3571	0.8284	-0.079
Mof_H 	H 	0.8283	0.3723	0.8407	0.048
Mof_C 	C 	0.8464	0.3612	0.798	-0.073
Mof_H 	H 	0.8291	0.3774	0.7858	0.05
Mof_C 	C 	0.724	0.5047	0.5998	0.289
Mof_C 	C 	0.0249	0.1847	0.7938	-0.096
Mof_H 	H 	0.0429	0.1754	0.7822	0.058
Mof_C 	C 	0.0713	0.1607	0.6615	0.118
Mof_C 	C 	0.0671	0.1025	0.6483	-0.17
Mof_H 	H 	0.0492	0.078	0.653	0.096
Mof_C 	C 	0.0892	0.08	0.6283	0.108
Mof_H 	H 	0.0863	0.0402	0.6193	0.011
Mof_C 	C 	0.1154	0.1158	0.6215	-0.199
Mof_C 	C 	0.1197	0.1741	0.6347	0.099
Mof_H 	H 	0.1376	0.1985	0.63	-0.009
Mof_C 	C 	0.0976	0.1965	0.6547	-0.171
Mof_H 	H 	0.1005	0.2363	0.6637	0.089
Mof_C 	C 	0.9947	0.1999	0.8373	0.066
Mof_C 	C 	0.8837	0.3113	0.868	-0.14
Mof_C 	C 	0.9598	0.2391	0.878	0.131
Mof_C 	C 	0.8665	0.3715	0.7294	0.079
Mof_C 	C 	0.8535	0.3322	0.7069	-0.105
Mof_H 	H 	0.8599	0.29	0.7064	0.067
Mof_C 	C 	0.8312	0.3548	0.6853	-0.012
Mof_H 	H 	0.8223	0.328	0.6699	0.036
Mof_C 	C 	0.8219	0.4167	0.6861	-0.027
Mof_C 	C 	0.8349	0.4559	0.7086	-0.015
Mof_H 	H 	0.8286	0.4982	0.7091	0.032
Mof_C 	C 	0.8572	0.4333	0.7302	-0.106
Mof_H 	H 	0.8661	0.4601	0.7456	0.061
Mof_C 	C 	0.9301	0.324	0.7187	-0.033
Mof_H 	H 	0.9201	0.3437	0.7014	0.041
Mof_O 	O 	0.7214	0.5636	0.5958	-0.544
Mof_C 	C 	0.8739	0.3414	0.7848	0.079
Mof_N 	N 	0.889	0.3167	0.8114	-0.321
Mof_C 	C 	0.9575	0.2946	0.7173	-0.136
Mof_H 	H 	0.9713	0.2922	0.7008	0.077
Mof_C 	C 	0.947	0.2338	0.9073	-0.098
Mof_H 	H 	0.956	0.2082	0.9231	0.065
Mof_C 	C 	0.8853	0.3446	0.7557	-0.129
Mof_C 	C 	0.0628	0.2205	0.7101	0.03
Mof_H 	H 	0.0848	0.2309	0.7122	0.019
Mof_C 	C 	0.0513	0.1874	0.6847	-0.077
Mof_C 	C 	0.0191	0.1722	0.6816	0.053
Mof_H 	H 	0.0112	0.1495	0.6643	0.024
Mof_C 	C 	0.9985	0.1901	0.704	-0.16
Mof_H 	H 	0.9765	0.1797	0.7019	0.09
Mof_C 	C 	0.0101	0.2233	0.7294	0.132
Mof_C 	C 	0.0422	0.2385	0.7324	-0.15
Mof_H 	H 	0.0501	0.2611	0.7498	0.079
Mof_C 	C 	0.9216	0.2678	0.9102	-0.056
Mof_H 	H 	0.9114	0.279	0.9283	0.053
Mof_C 	C 	0.9845	0.2059	0.8669	-0.16
Mof_C 	C 	0.8609	0.33	0.8921	0.093
Mof_C 	C 	0.831	0.3024	0.8921	-0.131
Mof_H 	H 	0.8251	0.272	0.8772	0.063
Mof_C 	C 	0.8096	0.3194	0.9139	0.009
Mof_H 	H 	0.7892	0.3005	0.914	-0.009
Mof_C 	C 	0.8182	0.3639	0.9358	-0.049
Mof_C 	C 	0.8481	0.3915	0.9358	0.003
Mof_H 	H 	0.8539	0.4219	0.9507	0.032
Mof_C 	C 	0.8694	0.3746	0.9139	-0.117
Mof_H 	H 	0.8899	0.3934	0.9139	0.076
Mof_C 	C 	0.7469	0.4223	0.635	0.016
Mof_H 	H 	0.7296	0.3963	0.6284	0.044
Mof_C 	C 	0.7701	0.4002	0.6559	-0.105
Mof_H 	H 	0.7687	0.3592	0.6636	0.066
Mof_C 	C 	0.7954	0.4383	0.6655	0.058
Mof_C 	C 	0.7973	0.4984	0.6542	-0.11
Mof_H 	H 	0.8146	0.5244	0.6608	0.066
Mof_C 	C 	0.7741	0.5204	0.6333	0.017
Mof_H 	H 	0.7755	0.5615	0.6256	0.021
Mof_C 	C 	0.7489	0.4824	0.6237	-0.073
Mof_C 	C 	0.8728	0.3247	0.8379	0.084
Mof_C 	C 	0.0513	0.1232	0.9331	-0.061
Mof_C 	C 	0.0305	0.0869	0.9151	0.008
Mof_H 	H 	0.0308	0.043	0.9173	0.023
Mof_C 	C 	0.0093	0.1147	0.8939	-0.116
Mof_H 	H 	0.9951	0.0899	0.8816	0.056
Mof_C 	C 	0.0089	0.1788	0.8908	0.103
Mof_C 	C 	0.0297	0.2152	0.9088	-0.131
Mof_H 	H 	0.0295	0.259	0.9066	0.096
Mof_C 	C 	0.0509	0.1873	0.9299	0.02
Mof_H 	H 	0.0651	0.2122	0.9422	0.026
Mof_C 	C 	0.7956	0.3804	0.9596	0.063
Mof_C 	C 	0.7739	0.3353	0.9676	-0.119
Mof_H 	H 	0.775	0.2948	0.9591	0.057
Mof_C 	C 	0.7507	0.3493	0.9882	0.02
Mof_H 	H 	0.7359	0.3184	0.9937	0.032
Mof_C 	C 	0.7492	0.4084	0.0007	-0.085
Mof_C 	C 	0.7709	0.4536	0.9926	0.026
Mof_H 	H 	0.7698	0.494	0.0011	0.036
Mof_C 	C 	0.7941	0.4396	0.972	-0.118
Mof_H 	H 	0.8089	0.4704	0.9665	0.068
Mof_O 	O 	0.1447	0.9582	0.0233	-0.667
Mof_C 	C 	0.1377	0.0122	0.0216	0.651
Mof_O 	O 	0.7223	0.4863	0.0306	-0.467
Mof_O 	O 	0.1508	0.037	0.0419	-0.619
Mof_O 	O 	0.7034	0.3897	0.0322	-0.558
Mof_C 	C 	0.7249	0.4283	0.023	0.279
Mof_C 	C 	0.1038	0.1003	0.003	0.16
Mof_H 	H 	0.1114	0.1251	0.0197	-0.007
Mof_C 	C 	0.1139	0.0391	0.0006	-0.292
Mof_C 	C 	0.1029	0.0028	0.9761	0.16
Mof_H 	H 	0.1098	0.9611	0.9744	-0.013
Mof_C 	C 	0.0818	0.0277	0.954	-0.198
Mof_H 	H 	0.0742	0.0029	0.9372	0.094
Mof_C 	C 	0.0717	0.0888	0.9564	0.131
Mof_C 	C 	0.0827	0.1251	0.9809	-0.194
Mof_H 	H 	0.0758	0.1669	0.9825	0.1
Mof_C 	C 	0.0193	0.1673	0.8223	-0.055
Mof_H 	H 	0.0311	0.1348	0.8321	0.044
Mof_In	In	0.68052	0.54412	0.56147	2.763
Mof_In	In	0.4347	0.76896	0.81204	1.612
Mof_C 	C 	0.4871	0.734	0.7541	-0.175
Mof_C 	C 	0.4131	0.7837	0.8792	0.083
Mof_N 	N 	0.4385	0.7859	0.7644	-0.345
Mof_O 	O 	0.204	0.9673	0.5881	-0.523
Mof_C 	C 	0.461	0.7681	0.7461	0.148
Mof_N 	N 	0.4371	0.7642	0.8595	-0.357
Mof_O 	O 	0.6415	0.536	0.5956	-0.545
Mof_N 	N 	0.4804	0.731	0.8109	-0.343
Mof_C 	C 	0.6392	0.5938	0.6004	0.468
Mof_O 	O 	0.6548	0.6201	0.5816	-0.636
Mof_C 	C 	0.4981	0.7199	0.7851	0.106
Mof_C 	C 	0.4163	0.8243	0.7482	0.051
Mof_C 	C 	0.3446	0.8571	0.8284	-0.079
Mof_H 	H 	0.3283	0.8723	0.8407	0.048
Mof_C 	C 	0.3464	0.8612	0.798	-0.073
Mof_H 	H 	0.3291	0.8774	0.7858	0.05
Mof_C 	C 	0.224	0.0047	0.5998	0.287
Mof_C 	C 	0.5249	0.6847	0.7938	-0.098
Mof_H 	H 	0.5429	0.6754	0.7822	0.059
Mof_C 	C 	0.5713	0.6607	0.6615	0.111
Mof_C 	C 	0.5671	0.6025	0.6483	-0.165
Mof_H 	H 	0.5492	0.578	0.653	0.094
Mof_C 	C 	0.5892	0.58	0.6283	0.105
Mof_H 	H 	0.5863	0.5402	0.6193	0.012
Mof_C 	C 	0.6154	0.6158	0.6215	-0.197
Mof_C 	C 	0.6197	0.6741	0.6347	0.096
Mof_H 	H 	0.6376	0.6985	0.63	-0.008
Mof_C 	C 	0.5976	0.6965	0.6547	-0.166
Mof_H 	H 	0.6005	0.7363	0.6637	0.087
Mof_C 	C 	0.4947	0.6999	0.8373	0.072
Mof_C 	C 	0.3837	0.8113	0.868	-0.14
Mof_C 	C 	0.4598	0.7391	0.878	0.132
Mof_C 	C 	0.3665	0.8715	0.7294	0.079
Mof_C 	C 	0.3535	0.8322	0.7069	-0.105
Mof_H 	H 	0.3599	0.79	0.7064	0.067
Mof_C 	C 	0.3312	0.8548	0.6853	-0.012
Mof_H 	H 	0.3223	0.828	0.6699	0.036
Mof_C 	C 	0.3219	0.9167	0.6861	-0.026
Mof_C 	C 	0.3349	0.9559	0.7086	-0.016
Mof_H 	H 	0.3286	0.9982	0.7091	0.032
Mof_C 	C 	0.3572	0.9333	0.7302	-0.106
Mof_H 	H 	0.3661	0.9601	0.7456	0.061
Mof_C 	C 	0.4301	0.824	0.7187	-0.034
Mof_H 	H 	0.4201	0.8437	0.7014	0.042
Mof_O 	O 	0.2214	0.0636	0.5958	-0.543
Mof_C 	C 	0.3739	0.8414	0.7848	0.079
Mof_N 	N 	0.389	0.8167	0.8114	-0.322
Mof_C 	C 	0.4575	0.7946	0.7173	-0.133
Mof_H 	H 	0.4713	0.7922	0.7008	0.078
Mof_C 	C 	0.447	0.7338	0.9073	-0.098
Mof_H 	H 	0.456	0.7082	0.9231	0.066
Mof_C 	C 	0.3853	0.8446	0.7557	-0.129
Mof_C 	C 	0.5628	0.7205	0.7101	0.016
Mof_H 	H 	0.5848	0.7309	0.7122	0.024
Mof_C 	C 	0.5513	0.6874	0.6847	-0.064
Mof_C 	C 	0.5191	0.6722	0.6816	0.031
Mof_H 	H 	0.5112	0.6495	0.6643	0.03
Mof_C 	C 	0.4985	0.6901	0.704	-0.132
Mof_H 	H 	0.4765	0.6797	0.7019	0.081
Mof_C 	C 	0.5101	0.7233	0.7294	0.109
Mof_C 	C 	0.5422	0.7385	0.7324	-0.135
Mof_H 	H 	0.5501	0.7611	0.7498	0.073
Mof_C 	C 	0.4216	0.7678	0.9102	-0.056
Mof_H 	H 	0.4114	0.779	0.9283	0.053
Mof_C 	C 	0.4845	0.7059	0.8669	-0.159
Mof_C 	C 	0.3609	0.83	0.8921	0.093
Mof_C 	C 	0.331	0.8024	0.8921	-0.131
Mof_H 	H 	0.3251	0.772	0.8772	0.063
Mof_C 	C 	0.3096	0.8194	0.9139	0.009
Mof_H 	H 	0.2892	0.8005	0.914	-0.009
Mof_C 	C 	0.3182	0.8639	0.9358	-0.049
Mof_C 	C 	0.3481	0.8915	0.9358	0.003
Mof_H 	H 	0.3539	0.9219	0.9507	0.032
Mof_C 	C 	0.3694	0.8746	0.9139	-0.117
Mof_H 	H 	0.3899	0.8934	0.9139	0.076
Mof_C 	C 	0.2469	0.9223	0.635	0.014
Mof_H 	H 	0.2296	0.8963	0.6284	0.044
Mof_C 	C 	0.2701	0.9002	0.6559	-0.103
Mof_H 	H 	0.2687	0.8592	0.6636	0.065
Mof_C 	C 	0.2954	0.9383	0.6655	0.056
Mof_C 	C 	0.2973	0.9984	0.6542	-0.106
Mof_H 	H 	0.3146	0.0244	0.6608	0.064
Mof_C 	C 	0.2741	0.0204	0.6333	0.012
Mof_H 	H 	0.2755	0.0615	0.6256	0.023
Mof_C 	C 	0.2489	0.9824	0.6237	-0.069
Mof_C 	C 	0.3728	0.8247	0.8379	0.083
Mof_C 	C 	0.5513	0.6232	0.9331	-0.064
Mof_C 	C 	0.5305	0.5869	0.9151	0.014
Mof_H 	H 	0.5308	0.543	0.9173	0.02
Mof_C 	C 	0.5093	0.6147	0.8939	-0.128
Mof_H 	H 	0.4951	0.5899	0.8816	0.063
Mof_C 	C 	0.5089	0.6788	0.8908	0.103
Mof_C 	C 	0.5297	0.7152	0.9088	-0.133
Mof_H 	H 	0.5295	0.759	0.9066	0.096
Mof_C 	C 	0.5509	0.6873	0.9299	0.022
Mof_H 	H 	0.5651	0.7122	0.9422	0.025
Mof_C 	C 	0.2956	0.8804	0.9596	0.063
Mof_C 	C 	0.2739	0.8353	0.9676	-0.12
Mof_H 	H 	0.275	0.7948	0.9591	0.057
Mof_C 	C 	0.2507	0.8493	0.9882	0.02
Mof_H 	H 	0.2359	0.8184	0.9937	0.032
Mof_C 	C 	0.2492	0.9084	0.0007	-0.085
Mof_C 	C 	0.2709	0.9536	0.9926	0.026
Mof_H 	H 	0.2698	0.994	0.0011	0.036
Mof_C 	C 	0.2941	0.9396	0.972	-0.118
Mof_H 	H 	0.3089	0.9704	0.9665	0.069
Mof_O 	O 	0.6447	0.4582	0.0233	-0.666
Mof_C 	C 	0.6377	0.5122	0.0216	0.649
Mof_O 	O 	0.2223	0.9863	0.0306	-0.467
Mof_O 	O 	0.6508	0.537	0.0419	-0.62
Mof_O 	O 	0.2034	0.8897	0.0322	-0.558
Mof_C 	C 	0.2249	0.9283	0.023	0.279
Mof_C 	C 	0.6038	0.6003	0.003	0.159
Mof_H 	H 	0.6114	0.6251	0.0197	-0.007
Mof_C 	C 	0.6139	0.5391	0.0006	-0.291
Mof_C 	C 	0.6029	0.5028	0.9761	0.158
Mof_H 	H 	0.6098	0.4611	0.9744	-0.012
Mof_C 	C 	0.5818	0.5277	0.954	-0.198
Mof_H 	H 	0.5742	0.5029	0.9372	0.093
Mof_C 	C 	0.5717	0.5888	0.9564	0.132
Mof_C 	C 	0.5827	0.6251	0.9809	-0.194
Mof_H 	H 	0.5758	0.6669	0.9825	0.1
Mof_C 	C 	0.5193	0.6673	0.8223	-0.062
Mof_H 	H 	0.5311	0.6348	0.8321	0.045
Mof_In	In	0.73933	0.27178	0.15932	1.638
Mof_In	In	0.99522	0.44839	0.91132	2.408
Mof_O 	O 	0.5375	0.9438	0.9472	-0.479
Mof_O 	O 	0.9706	0.4697	0.3853	-0.454
Mof_O 	O 	0.5181	0.1378	0.3885	-0.521
Mof_N 	N 	0.7413	0.2591	0.1125	-0.364
Mof_O 	O 	0.9731	0.3732	0.9403	-0.497
Mof_N 	N 	0.7863	0.3103	0.16	-0.349
Mof_O 	O 	0.9564	0.4702	0.9445	-0.486
Mof_N 	N 	0.6947	0.2338	0.1597	-0.366
Mof_O 	O 	0.5193	0.0374	0.9326	-0.45
Mof_C 	C 	0.7135	0.2774	0.2246	0.082
Mof_C 	C 	0.92761	0.4836	0.34832	-0.116
Mof_C 	C 	0.92752	0.4202	0.34239	0.036
Mof_H 	H 	0.9429	0.3941	0.3524	0.031
Mof_C 	C 	0.9049	0.3951	0.3217	-0.126
Mof_H 	H 	0.9049	0.3518	0.3177	0.06
Mof_C 	C 	0.88238	0.4333	0.30702	0.068
Mof_C 	C 	0.8825	0.4967	0.313	-0.13
Mof_H 	H 	0.8671	0.5228	0.3029	0.069
Mof_C 	C 	0.9051	0.5218	0.3336	0.043
Mof_H 	H 	0.9051	0.5651	0.3377	0.009
Mof_N 	N 	0.7387	0.2907	0.2083	-0.343
Mof_C 	C 	0.5373	0.0012	0.9489	0.277
Mof_C 	C 	0.7188	0.2351	0.0948	0.099
Mof_C 	C 	0.8309	0.3587	0.1767	-0.097
Mof_H 	H 	0.8458	0.3812	0.1894	0.055
Mof_C 	C 	0.7652	0.2731	0.0941	0.108
Mof_C 	C 	0.7618	0.3114	0.2256	0.131
Mof_C 	C 	0.65	0.1839	0.1746	-0.095
Mof_H 	H 	0.6349	0.1668	0.1878	0.057
Mof_C 	C 	0.6022	0.0927	0.01394	0.054
Mof_C 	C 	0.581	0.1276	0.9956	-0.091
Mof_H 	H 	0.5807	0.1715	0.9975	0.064
Mof_C 	C 	0.5603	0.0983	0.9745	0.005
Mof_H 	H 	0.5459	0.1221	0.962	0.047
Mof_C 	C 	0.5608	0.0341	0.9717	-0.05
Mof_C 	C 	0.582	0.9992	0.9901	0.008
Mof_H 	H 	0.5823	0.9553	0.9882	0.046
Mof_C 	C 	0.6026	0.0285	0.01117	-0.094
Mof_H 	H 	0.6171	0.0047	0.0237	0.069
Mof_C 	C 	0.9571	0.4136	0.952	0.299
Mof_C 	C 	0.85882	0.407	0.28244	-0.054
Mof_C 	C 	0.86541	0.3521	0.26728	0.014
Mof_H 	H 	0.8851	0.3313	0.2715	-0.008
Mof_C 	C 	0.8432	0.3277	0.24597	-0.136
Mof_H 	H 	0.8478	0.2902	0.2356	0.067
Mof_C 	C 	0.81449	0.3582	0.23981	0.1
Mof_C 	C 	0.80789	0.4131	0.255	-0.128
Mof_H 	H 	0.7882	0.4339	0.2508	0.067
Mof_C 	C 	0.8301	0.4374	0.27628	0.004
Mof_H 	H 	0.8256	0.4749	0.2866	0.023
Mof_C 	C 	0.93306	0.3962	0.9752	-0.072
Mof_C 	C 	0.9127	0.4399	0.9871	0.023
Mof_H 	H 	0.9138	0.482	0.9807	0.041
Mof_C 	C 	0.8907	0.4222	0.0082	-0.113
Mof_H 	H 	0.8768	0.4521	0.0163	0.067
Mof_C 	C 	0.88911	0.3606	0.01749	0.062
Mof_C 	C 	0.9095	0.3169	0.0056	-0.11
Mof_H 	H 	0.9084	0.2748	0.0119	0.065
Mof_C 	C 	0.9314	0.3346	0.9845	0.021
Mof_H 	H 	0.9453	0.3047	0.9763	0.038
Mof_C 	C 	0.86369	0.3388	0.03818	-0.031
Mof_C 	C 	0.87048	0.2946	0.06064	-0.008
Mof_H 	H 	0.8904	0.2738	0.0614	0.03
Mof_C 	C 	0.8481	0.2808	0.08204	-0.116
Mof_H 	H 	0.8527	0.2505	0.0974	0.069
Mof_C 	C 	0.81885	0.3112	0.08097	0.093
Mof_C 	C 	0.81206	0.3555	0.0585	-0.112
Mof_H 	H 	0.7921	0.3763	0.0578	0.072
Mof_C 	C 	0.8345	0.3693	0.03711	-0.007
Mof_H 	H 	0.8298	0.3995	0.0218	0.035
Mof_C 	C 	0.8023	0.3313	0.1844	0.113
Mof_C 	C 	0.6778	0.2183	0.1843	0.102
Mof_C 	C 	0.7574	0.255	0.0625	-0.086
Mof_H 	H 	0.7712	0.2553	0.0458	0.062
Mof_C 	C 	0.832	0.3452	0.1464	-0.082
Mof_H 	H 	0.8496	0.3544	0.1343	0.056
Mof_C 	C 	0.7908	0.3315	0.2155	-0.174
Mof_C 	C 	0.726	0.2373	0.062	-0.069
Mof_H 	H 	0.7121	0.2286	0.0447	0.058
Mof_C 	C 	0.6872	0.2168	0.1026	-0.131
Mof_C 	C 	0.804	0.3163	0.1354	0.103
Mof_C 	C 	0.6777	0.2087	0.1346	0.078
Mof_C 	C 	0.7955	0.2978	0.1047	-0.151
Mof_C 	C 	0.7232	0.2875	0.2569	-0.064
Mof_H 	H 	0.7111	0.2786	0.2742	0.049
Mof_C 	C 	0.5988	0.1646	0.3068	0.065
Mof_C 	C 	0.5981	0.1023	0.3149	-0.121
Mof_H 	H 	0.6116	0.0734	0.3054	0.066
Mof_C 	C 	0.5775	0.0822	0.33688	0.043
Mof_H 	H 	0.577	0.0396	0.3424	0.025
Mof_C 	C 	0.5577	0.1244	0.3507	-0.118
Mof_C 	C 	0.5585	0.1867	0.3426	0.038
Mof_H 	H 	0.545	0.2156	0.3521	0.025
Mof_C 	C 	0.5791	0.2068	0.3207	-0.119
Mof_H 	H 	0.5796	0.2494	0.3151	0.068
Mof_C 	C 	0.7523	0.3116	0.257	-0.106
Mof_H 	H 	0.7646	0.3261	0.2743	0.063
Mof_C 	C 	0.6847	0.2453	0.2129	-0.15
Mof_O 	O 	0.9535	0.5653	0.37567	-0.522
Mof_C 	C 	0.9509	0.5111	0.3702	0.32
Mof_C 	C 	0.6485	0.1795	0.1431	-0.072
Mof_H 	H 	0.6322	0.1616	0.1302	0.054
Mof_O 	O 	0.5303	0.0465	0.3753	-0.568
Mof_C 	C 	0.5341	0.103	0.3743	0.393
Mof_C 	C 	0.66045	0.2265	0.23635	0.082
Mof_C 	C 	0.6458	0.2697	0.2546	-0.11
Mof_H 	H 	0.649	0.3128	0.2514	0.062
Mof_C 	C 	0.6263	0.25	0.27753	-0.01
Mof_H 	H 	0.6163	0.2796	0.29	0.028
Mof_C 	C 	0.6215	0.187	0.28225	-0.032
Mof_C 	C 	0.6362	0.1437	0.264	-0.011
Mof_H 	H 	0.6329	0.1007	0.2672	0.027
Mof_C 	C 	0.6557	0.1635	0.24107	-0.11
Mof_H 	H 	0.6657	0.1339	0.2286	0.058
Mof_C 	C 	0.6665	0.182	0.07795	0.081
Mof_C 	C 	0.67578	0.1272	0.0642	-0.11
Mof_H 	H 	0.6959	0.1092	0.0697	0.074
Mof_C 	C 	0.6557	0.0988	0.0422	0.006
Mof_H 	H 	0.662	0.0614	0.0328	0.04
Mof_C 	C 	0.6263	0.1252	0.03408	-0.03
Mof_C 	C 	0.61702	0.18	0.0479	-0.008
Mof_H 	H 	0.5969	0.1981	0.0423	0.033
Mof_C 	C 	0.6371	0.2084	0.0698	-0.108
Mof_H 	H 	0.6308	0.2458	0.0792	0.078
Mof_In	In	0.23933	0.77178	0.15932	1.637
Mof_In	In	0.49522	0.94839	0.91132	2.423
Mof_O 	O 	0.0375	0.4438	0.9472	-0.475
Mof_O 	O 	0.4706	0.9697	0.3853	-0.453
Mof_O 	O 	0.0181	0.6378	0.3885	-0.517
Mof_N 	N 	0.2413	0.7591	0.1125	-0.364
Mof_O 	O 	0.4731	0.8732	0.9403	-0.497
Mof_N 	N 	0.2863	0.8103	0.16	-0.349
Mof_O 	O 	0.4564	0.9702	0.9445	-0.487
Mof_N 	N 	0.1947	0.7338	0.1597	-0.366
Mof_O 	O 	0.0193	0.5374	0.9326	-0.447
Mof_C 	C 	0.2135	0.7774	0.2246	0.082
Mof_C 	C 	0.42761	0.9836	0.34832	-0.113
Mof_C 	C 	0.42752	0.9202	0.34239	0.034
Mof_H 	H 	0.4429	0.8941	0.3524	0.032
Mof_C 	C 	0.4049	0.8951	0.3217	-0.124
Mof_H 	H 	0.4049	0.8518	0.3177	0.059
Mof_C 	C 	0.38238	0.9333	0.30702	0.066
Mof_C 	C 	0.3825	0.9967	0.313	-0.128
Mof_H 	H 	0.3671	0.0228	0.3029	0.069
Mof_C 	C 	0.4051	0.0218	0.3336	0.041
Mof_H 	H 	0.4051	0.0651	0.3377	0.01
Mof_N 	N 	0.2387	0.7907	0.2083	-0.343
Mof_C 	C 	0.0373	0.5012	0.9489	0.277
Mof_C 	C 	0.2188	0.7351	0.0948	0.099
Mof_C 	C 	0.3309	0.8587	0.1767	-0.097
Mof_H 	H 	0.3458	0.8812	0.1894	0.055
Mof_C 	C 	0.2652	0.7731	0.0941	0.108
Mof_C 	C 	0.2618	0.8114	0.2256	0.131
Mof_C 	C 	0.15	0.6839	0.1746	-0.095
Mof_H 	H 	0.1349	0.6668	0.1878	0.057
Mof_C 	C 	0.1022	0.5927	0.01394	0.054
Mof_C 	C 	0.081	0.6276	0.9956	-0.092
Mof_H 	H 	0.0807	0.6715	0.9975	0.064
Mof_C 	C 	0.0603	0.5983	0.9745	0.006
Mof_H 	H 	0.0459	0.6221	0.962	0.047
Mof_C 	C 	0.0608	0.5341	0.9717	-0.051
Mof_C 	C 	0.082	0.4992	0.9901	0.011
Mof_H 	H 	0.0823	0.4553	0.9882	0.046
Mof_C 	C 	0.1026	0.5285	0.01117	-0.096
Mof_H 	H 	0.1171	0.5047	0.0237	0.07
Mof_C 	C 	0.4571	0.9136	0.952	0.299
Mof_C 	C 	0.35882	0.907	0.28244	-0.053
Mof_C 	C 	0.36541	0.8521	0.26728	0.014
Mof_H 	H 	0.3851	0.8313	0.2715	-0.008
Mof_C 	C 	0.3432	0.8277	0.24597	-0.136
Mof_H 	H 	0.3478	0.7902	0.2356	0.067
Mof_C 	C 	0.31449	0.8582	0.23981	0.099
Mof_C 	C 	0.30789	0.9131	0.255	-0.127
Mof_H 	H 	0.2882	0.9339	0.2508	0.067
Mof_C 	C 	0.3301	0.9374	0.27628	0.003
Mof_H 	H 	0.3256	0.9749	0.2866	0.023
Mof_C 	C 	0.43306	0.8962	0.9752	-0.071
Mof_C 	C 	0.4127	0.9399	0.9871	0.023
Mof_H 	H 	0.4138	0.982	0.9807	0.041
Mof_C 	C 	0.3907	0.9222	0.0082	-0.112
Mof_H 	H 	0.3768	0.9521	0.0163	0.067
Mof_C 	C 	0.38911	0.8606	0.01749	0.062
Mof_C 	C 	0.4095	0.8169	0.0056	-0.11
Mof_H 	H 	0.4084	0.7748	0.0119	0.065
Mof_C 	C 	0.4314	0.8346	0.9845	0.021
Mof_H 	H 	0.4453	0.8047	0.9763	0.039
Mof_C 	C 	0.36369	0.8388	0.03818	-0.031
Mof_C 	C 	0.37048	0.7946	0.06064	-0.008
Mof_H 	H 	0.3904	0.7738	0.0614	0.031
Mof_C 	C 	0.3481	0.7808	0.08204	-0.116
Mof_H 	H 	0.3527	0.7505	0.0974	0.069
Mof_C 	C 	0.31885	0.8112	0.08097	0.093
Mof_C 	C 	0.31206	0.8555	0.0585	-0.112
Mof_H 	H 	0.2921	0.8763	0.0578	0.072
Mof_C 	C 	0.3345	0.8693	0.03711	-0.007
Mof_H 	H 	0.3298	0.8995	0.0218	0.035
Mof_C 	C 	0.3023	0.8313	0.1844	0.113
Mof_C 	C 	0.1778	0.7183	0.1843	0.102
Mof_C 	C 	0.2574	0.755	0.0625	-0.086
Mof_H 	H 	0.2712	0.7553	0.0458	0.062
Mof_C 	C 	0.332	0.8452	0.1464	-0.082
Mof_H 	H 	0.3496	0.8544	0.1343	0.056
Mof_C 	C 	0.2908	0.8315	0.2155	-0.174
Mof_C 	C 	0.226	0.7373	0.062	-0.069
Mof_H 	H 	0.2121	0.7286	0.0447	0.058
Mof_C 	C 	0.1872	0.7168	0.1026	-0.131
Mof_C 	C 	0.304	0.8163	0.1354	0.103
Mof_C 	C 	0.1777	0.7087	0.1346	0.078
Mof_C 	C 	0.2955	0.7978	0.1047	-0.151
Mof_C 	C 	0.2232	0.7875	0.2569	-0.064
Mof_H 	H 	0.2111	0.7786	0.2742	0.049
Mof_C 	C 	0.0988	0.6646	0.3068	0.065
Mof_C 	C 	0.0981	0.6023	0.3149	-0.12
Mof_H 	H 	0.1116	0.5734	0.3054	0.066
Mof_C 	C 	0.0775	0.5822	0.33688	0.043
Mof_H 	H 	0.077	0.5396	0.3424	0.025
Mof_C 	C 	0.0577	0.6244	0.3507	-0.116
Mof_C 	C 	0.0585	0.6867	0.3426	0.038
Mof_H 	H 	0.045	0.7156	0.3521	0.026
Mof_C 	C 	0.0791	0.7068	0.3207	-0.119
Mof_H 	H 	0.0796	0.7494	0.3151	0.067
Mof_C 	C 	0.2523	0.8116	0.257	-0.106
Mof_H 	H 	0.2646	0.8261	0.2743	0.063
Mof_C 	C 	0.1847	0.7453	0.2129	-0.15
Mof_O 	O 	0.4535	0.0653	0.37567	-0.522
Mof_C 	C 	0.4509	0.0111	0.3702	0.319
Mof_C 	C 	0.1485	0.6795	0.1431	-0.072
Mof_H 	H 	0.1322	0.6616	0.1302	0.054
Mof_O 	O 	0.0303	0.5465	0.3753	-0.564
Mof_C 	C 	0.0341	0.603	0.3743	0.391
Mof_C 	C 	0.16045	0.7265	0.23635	0.082
Mof_C 	C 	0.1458	0.7697	0.2546	-0.11
Mof_H 	H 	0.149	0.8128	0.2514	0.062
Mof_C 	C 	0.1263	0.75	0.27753	-0.01
Mof_H 	H 	0.1163	0.7796	0.29	0.028
Mof_C 	C 	0.1215	0.687	0.28225	-0.031
Mof_C 	C 	0.1362	0.6437	0.264	-0.011
Mof_H 	H 	0.1329	0.6007	0.2672	0.027
Mof_C 	C 	0.1557	0.6635	0.24107	-0.11
Mof_H 	H 	0.1657	0.6339	0.2286	0.058
Mof_C 	C 	0.1665	0.682	0.07795	0.082
Mof_C 	C 	0.17578	0.6272	0.0642	-0.111
Mof_H 	H 	0.1959	0.6092	0.0697	0.074
Mof_C 	C 	0.1557	0.5988	0.0422	0.006
Mof_H 	H 	0.162	0.5614	0.0328	0.04
Mof_C 	C 	0.1263	0.6252	0.03408	-0.03
Mof_C 	C 	0.11702	0.68	0.0479	-0.008
Mof_H 	H 	0.0969	0.6981	0.0423	0.033
Mof_C 	C 	0.1371	0.7084	0.0698	-0.108
Mof_H 	H 	0.1308	0.7458	0.0792	0.078
Mof_In	In	0.73933	0.72822	0.65932	1.638
Mof_In	In	0.99522	0.55161	0.41132	2.408
Mof_O 	O 	0.5375	0.0562	0.4472	-0.479
Mof_O 	O 	0.9706	0.5303	0.8853	-0.454
Mof_O 	O 	0.5181	0.8622	0.8885	-0.521
Mof_N 	N 	0.7413	0.7409	0.6125	-0.364
Mof_O 	O 	0.9731	0.6268	0.4403	-0.497
Mof_N 	N 	0.7863	0.6897	0.66	-0.349
Mof_O 	O 	0.9564	0.5298	0.4445	-0.486
Mof_N 	N 	0.6947	0.7662	0.6597	-0.366
Mof_O 	O 	0.5193	0.9626	0.4326	-0.45
Mof_C 	C 	0.7135	0.7226	0.7246	0.082
Mof_C 	C 	0.92761	0.5164	0.84832	-0.115
Mof_C 	C 	0.92752	0.5798	0.84239	0.036
Mof_H 	H 	0.9429	0.6059	0.8524	0.031
Mof_C 	C 	0.9049	0.6049	0.8217	-0.126
Mof_H 	H 	0.9049	0.6482	0.8177	0.06
Mof_C 	C 	0.88238	0.5667	0.80702	0.068
Mof_C 	C 	0.8825	0.5033	0.813	-0.13
Mof_H 	H 	0.8671	0.4772	0.8029	0.069
Mof_C 	C 	0.9051	0.4782	0.8336	0.043
Mof_H 	H 	0.9051	0.4349	0.8377	0.009
Mof_N 	N 	0.7387	0.7093	0.7083	-0.343
Mof_C 	C 	0.5373	0.9988	0.4489	0.277
Mof_C 	C 	0.7188	0.7649	0.5948	0.099
Mof_C 	C 	0.8309	0.6413	0.6767	-0.097
Mof_H 	H 	0.8458	0.6188	0.6894	0.055
Mof_C 	C 	0.7652	0.7269	0.5941	0.108
Mof_C 	C 	0.7618	0.6886	0.7256	0.131
Mof_C 	C 	0.65	0.8161	0.6746	-0.095
Mof_H 	H 	0.6349	0.8332	0.6878	0.057
Mof_C 	C 	0.6022	0.9073	0.51394	0.056
Mof_C 	C 	0.581	0.8724	0.4956	-0.095
Mof_H 	H 	0.5807	0.8285	0.4975	0.064
Mof_C 	C 	0.5603	0.9017	0.4745	0.005
Mof_H 	H 	0.5459	0.8779	0.462	0.046
Mof_C 	C 	0.5608	0.9659	0.4717	-0.049
Mof_C 	C 	0.582	0.0008	0.4901	0.003
Mof_H 	H 	0.5823	0.0447	0.4882	0.047
Mof_C 	C 	0.6026	0.9715	0.51117	-0.09
Mof_H 	H 	0.6171	0.9953	0.5237	0.068
Mof_C 	C 	0.9571	0.5864	0.452	0.297
Mof_C 	C 	0.85882	0.593	0.78244	-0.054
Mof_C 	C 	0.86541	0.6479	0.76728	0.014
Mof_H 	H 	0.8851	0.6687	0.7715	-0.008
Mof_C 	C 	0.8432	0.6723	0.74597	-0.136
Mof_H 	H 	0.8478	0.7098	0.7356	0.067
Mof_C 	C 	0.81449	0.6418	0.73981	0.1
Mof_C 	C 	0.80789	0.5869	0.755	-0.128
Mof_H 	H 	0.7882	0.5661	0.7508	0.067
Mof_C 	C 	0.8301	0.5626	0.77628	0.004
Mof_H 	H 	0.8256	0.5251	0.7866	0.023
Mof_C 	C 	0.93306	0.6038	0.4752	-0.065
Mof_C 	C 	0.9127	0.5601	0.4871	0.012
Mof_H 	H 	0.9138	0.518	0.4807	0.044
Mof_C 	C 	0.8907	0.5778	0.5082	-0.101
Mof_H 	H 	0.8768	0.5479	0.5163	0.064
Mof_C 	C 	0.88911	0.6394	0.51749	0.055
Mof_C 	C 	0.9095	0.6831	0.5056	-0.099
Mof_H 	H 	0.9084	0.7252	0.5119	0.062
Mof_C 	C 	0.9314	0.6654	0.4845	0.01
Mof_H 	H 	0.9453	0.6953	0.4763	0.041
Mof_C 	C 	0.86369	0.6612	0.53818	-0.027
Mof_C 	C 	0.87048	0.7054	0.56064	-0.011
Mof_H 	H 	0.8904	0.7262	0.5614	0.031
Mof_C 	C 	0.8481	0.7192	0.58204	-0.114
Mof_H 	H 	0.8527	0.7495	0.5974	0.068
Mof_C 	C 	0.81885	0.6888	0.58097	0.091
Mof_C 	C 	0.81206	0.6445	0.5585	-0.11
Mof_H 	H 	0.7921	0.6237	0.5578	0.072
Mof_C 	C 	0.8345	0.6307	0.53711	-0.009
Mof_H 	H 	0.8298	0.6005	0.5218	0.037
Mof_C 	C 	0.8023	0.6687	0.6844	0.113
Mof_C 	C 	0.6778	0.7817	0.6843	0.102
Mof_C 	C 	0.7574	0.745	0.5625	-0.086
Mof_H 	H 	0.7712	0.7447	0.5458	0.062
Mof_C 	C 	0.832	0.6548	0.6464	-0.082
Mof_H 	H 	0.8496	0.6456	0.6343	0.056
Mof_C 	C 	0.7908	0.6685	0.7155	-0.174
Mof_C 	C 	0.726	0.7627	0.562	-0.069
Mof_H 	H 	0.7121	0.7714	0.5447	0.059
Mof_C 	C 	0.6872	0.7832	0.6026	-0.131
Mof_C 	C 	0.804	0.6837	0.6354	0.103
Mof_C 	C 	0.6777	0.7913	0.6346	0.078
Mof_C 	C 	0.7955	0.7022	0.6047	-0.15
Mof_C 	C 	0.7232	0.7125	0.7569	-0.064
Mof_H 	H 	0.7111	0.7214	0.7742	0.049
Mof_C 	C 	0.5988	0.8354	0.8068	0.065
Mof_C 	C 	0.5981	0.8977	0.8149	-0.121
Mof_H 	H 	0.6116	0.9266	0.8054	0.066
Mof_C 	C 	0.5775	0.9178	0.83688	0.043
Mof_H 	H 	0.577	0.9604	0.8424	0.025
Mof_C 	C 	0.5577	0.8756	0.8507	-0.118
Mof_C 	C 	0.5585	0.8133	0.8426	0.038
Mof_H 	H 	0.545	0.7844	0.8521	0.025
Mof_C 	C 	0.5791	0.7932	0.8207	-0.119
Mof_H 	H 	0.5796	0.7506	0.8151	0.068
Mof_C 	C 	0.7523	0.6884	0.757	-0.106
Mof_H 	H 	0.7646	0.6739	0.7743	0.063
Mof_C 	C 	0.6847	0.7547	0.7129	-0.15
Mof_O 	O 	0.9535	0.4347	0.87567	-0.522
Mof_C 	C 	0.9509	0.4889	0.8702	0.32
Mof_C 	C 	0.6485	0.8205	0.6431	-0.072
Mof_H 	H 	0.6322	0.8384	0.6302	0.054
Mof_O 	O 	0.5303	0.9535	0.8753	-0.568
Mof_C 	C 	0.5341	0.897	0.8743	0.392
Mof_C 	C 	0.66045	0.7735	0.73635	0.082
Mof_C 	C 	0.6458	0.7303	0.7546	-0.11
Mof_H 	H 	0.649	0.6872	0.7514	0.062
Mof_C 	C 	0.6263	0.75	0.77753	-0.01
Mof_H 	H 	0.6163	0.7204	0.79	0.028
Mof_C 	C 	0.6215	0.813	0.78225	-0.032
Mof_C 	C 	0.6362	0.8563	0.764	-0.011
Mof_H 	H 	0.6329	0.8993	0.7672	0.027
Mof_C 	C 	0.6557	0.8365	0.74107	-0.11
Mof_H 	H 	0.6657	0.8661	0.7286	0.058
Mof_C 	C 	0.6665	0.818	0.57795	0.082
Mof_C 	C 	0.67578	0.8728	0.5642	-0.11
Mof_H 	H 	0.6959	0.8908	0.5697	0.074
Mof_C 	C 	0.6557	0.9012	0.5422	0.006
Mof_H 	H 	0.662	0.9386	0.5328	0.041
Mof_C 	C 	0.6263	0.8748	0.53408	-0.03
Mof_C 	C 	0.61702	0.82	0.5479	-0.007
Mof_H 	H 	0.5969	0.8019	0.5423	0.033
Mof_C 	C 	0.6371	0.7916	0.5698	-0.108
Mof_H 	H 	0.6308	0.7542	0.5792	0.078
Mof_In	In	0.23933	0.22822	0.65932	1.637
Mof_In	In	0.49522	0.05161	0.41132	2.423
Mof_O 	O 	0.0375	0.5562	0.4472	-0.476
Mof_O 	O 	0.4706	0.0303	0.8853	-0.453
Mof_O 	O 	0.0181	0.3622	0.8885	-0.517
Mof_N 	N 	0.2413	0.2409	0.6125	-0.364
Mof_O 	O 	0.4731	0.1268	0.4403	-0.497
Mof_N 	N 	0.2863	0.1897	0.66	-0.349
Mof_O 	O 	0.4564	0.0298	0.4445	-0.486
Mof_N 	N 	0.1947	0.2662	0.6597	-0.366
Mof_O 	O 	0.0193	0.4626	0.4326	-0.447
Mof_C 	C 	0.2135	0.2226	0.7246	0.082
Mof_C 	C 	0.42761	0.0164	0.84832	-0.113
Mof_C 	C 	0.42752	0.0798	0.84239	0.034
Mof_H 	H 	0.4429	0.1059	0.8524	0.032
Mof_C 	C 	0.4049	0.1049	0.8217	-0.124
Mof_H 	H 	0.4049	0.1482	0.8177	0.059
Mof_C 	C 	0.38238	0.0667	0.80702	0.066
Mof_C 	C 	0.3825	0.0033	0.813	-0.128
Mof_H 	H 	0.3671	0.9772	0.8029	0.069
Mof_C 	C 	0.4051	0.9782	0.8336	0.041
Mof_H 	H 	0.4051	0.9349	0.8377	0.01
Mof_N 	N 	0.2387	0.2093	0.7083	-0.343
Mof_C 	C 	0.0373	0.4988	0.4489	0.276
Mof_C 	C 	0.2188	0.2649	0.5948	0.099
Mof_C 	C 	0.3309	0.1413	0.6767	-0.097
Mof_H 	H 	0.3458	0.1188	0.6894	0.055
Mof_C 	C 	0.2652	0.2269	0.5941	0.108
Mof_C 	C 	0.2618	0.1886	0.7256	0.131
Mof_C 	C 	0.15	0.3161	0.6746	-0.095
Mof_H 	H 	0.1349	0.3332	0.6878	0.057
Mof_C 	C 	0.1022	0.4073	0.51394	0.057
Mof_C 	C 	0.081	0.3724	0.4956	-0.096
Mof_H 	H 	0.0807	0.3285	0.4975	0.064
Mof_C 	C 	0.0603	0.4017	0.4745	0.006
Mof_H 	H 	0.0459	0.3779	0.462	0.046
Mof_C 	C 	0.0608	0.4659	0.4717	-0.05
Mof_C 	C 	0.082	0.5008	0.4901	0.006
Mof_H 	H 	0.0823	0.5447	0.4882	0.047
Mof_C 	C 	0.1026	0.4715	0.51117	-0.092
Mof_H 	H 	0.1171	0.4953	0.5237	0.069
Mof_C 	C 	0.4571	0.0864	0.452	0.296
Mof_C 	C 	0.35882	0.093	0.78244	-0.053
Mof_C 	C 	0.36541	0.1479	0.76728	0.014
Mof_H 	H 	0.3851	0.1687	0.7715	-0.008
Mof_C 	C 	0.3432	0.1723	0.74597	-0.136
Mof_H 	H 	0.3478	0.2098	0.7356	0.067
Mof_C 	C 	0.31449	0.1418	0.73981	0.099
Mof_C 	C 	0.30789	0.0869	0.755	-0.127
Mof_H 	H 	0.2882	0.0661	0.7508	0.067
Mof_C 	C 	0.3301	0.0626	0.77628	0.003
Mof_H 	H 	0.3256	0.0251	0.7866	0.023
Mof_C 	C 	0.43306	0.1038	0.4752	-0.064
Mof_C 	C 	0.4127	0.0601	0.4871	0.012
Mof_H 	H 	0.4138	0.018	0.4807	0.044
Mof_C 	C 	0.3907	0.0778	0.5082	-0.101
Mof_H 	H 	0.3768	0.0479	0.5163	0.064
Mof_C 	C 	0.38911	0.1394	0.51749	0.055
Mof_C 	C 	0.4095	0.1831	0.5056	-0.099
Mof_H 	H 	0.4084	0.2252	0.5119	0.062
Mof_C 	C 	0.4314	0.1654	0.4845	0.01
Mof_H 	H 	0.4453	0.1953	0.4763	0.042
Mof_C 	C 	0.36369	0.1612	0.53818	-0.027
Mof_C 	C 	0.37048	0.2054	0.56064	-0.011
Mof_H 	H 	0.3904	0.2262	0.5614	0.032
Mof_C 	C 	0.3481	0.2192	0.58204	-0.114
Mof_H 	H 	0.3527	0.2495	0.5974	0.068
Mof_C 	C 	0.31885	0.1888	0.58097	0.091
Mof_C 	C 	0.31206	0.1445	0.5585	-0.11
Mof_H 	H 	0.2921	0.1237	0.5578	0.072
Mof_C 	C 	0.3345	0.1307	0.53711	-0.009
Mof_H 	H 	0.3298	0.1005	0.5218	0.037
Mof_C 	C 	0.3023	0.1687	0.6844	0.113
Mof_C 	C 	0.1778	0.2817	0.6843	0.102
Mof_C 	C 	0.2574	0.245	0.5625	-0.086
Mof_H 	H 	0.2712	0.2447	0.5458	0.062
Mof_C 	C 	0.332	0.1548	0.6464	-0.082
Mof_H 	H 	0.3496	0.1456	0.6343	0.056
Mof_C 	C 	0.2908	0.1685	0.7155	-0.174
Mof_C 	C 	0.226	0.2627	0.562	-0.069
Mof_H 	H 	0.2121	0.2714	0.5447	0.059
Mof_C 	C 	0.1872	0.2832	0.6026	-0.131
Mof_C 	C 	0.304	0.1837	0.6354	0.103
Mof_C 	C 	0.1777	0.2913	0.6346	0.078
Mof_C 	C 	0.2955	0.2022	0.6047	-0.15
Mof_C 	C 	0.2232	0.2125	0.7569	-0.064
Mof_H 	H 	0.2111	0.2214	0.7742	0.049
Mof_C 	C 	0.0988	0.3354	0.8068	0.065
Mof_C 	C 	0.0981	0.3977	0.8149	-0.12
Mof_H 	H 	0.1116	0.4266	0.8054	0.066
Mof_C 	C 	0.0775	0.4178	0.83688	0.043
Mof_H 	H 	0.077	0.4604	0.8424	0.025
Mof_C 	C 	0.0577	0.3756	0.8507	-0.116
Mof_C 	C 	0.0585	0.3133	0.8426	0.038
Mof_H 	H 	0.045	0.2844	0.8521	0.026
Mof_C 	C 	0.0791	0.2932	0.8207	-0.119
Mof_H 	H 	0.0796	0.2506	0.8151	0.067
Mof_C 	C 	0.2523	0.1884	0.757	-0.106
Mof_H 	H 	0.2646	0.1739	0.7743	0.063
Mof_C 	C 	0.1847	0.2547	0.7129	-0.15
Mof_O 	O 	0.4535	0.9347	0.87567	-0.522
Mof_C 	C 	0.4509	0.9889	0.8702	0.319
Mof_C 	C 	0.1485	0.3205	0.6431	-0.072
Mof_H 	H 	0.1322	0.3384	0.6302	0.054
Mof_O 	O 	0.0303	0.4535	0.8753	-0.564
Mof_C 	C 	0.0341	0.397	0.8743	0.391
Mof_C 	C 	0.16045	0.2735	0.73635	0.082
Mof_C 	C 	0.1458	0.2303	0.7546	-0.11
Mof_H 	H 	0.149	0.1872	0.7514	0.062
Mof_C 	C 	0.1263	0.25	0.77753	-0.01
Mof_H 	H 	0.1163	0.2204	0.79	0.028
Mof_C 	C 	0.1215	0.313	0.78225	-0.031
Mof_C 	C 	0.1362	0.3563	0.764	-0.011
Mof_H 	H 	0.1329	0.3993	0.7672	0.027
Mof_C 	C 	0.1557	0.3365	0.74107	-0.11
Mof_H 	H 	0.1657	0.3661	0.7286	0.058
Mof_C 	C 	0.1665	0.318	0.57795	0.082
Mof_C 	C 	0.17578	0.3728	0.5642	-0.111
Mof_H 	H 	0.1959	0.3908	0.5697	0.074
Mof_C 	C 	0.1557	0.4012	0.5422	0.007
Mof_H 	H 	0.162	0.4386	0.5328	0.04
Mof_C 	C 	0.1263	0.3748	0.53408	-0.03
Mof_C 	C 	0.11702	0.32	0.5479	-0.007
Mof_H 	H 	0.0969	0.3019	0.5423	0.033
Mof_C 	C 	0.1371	0.2916	0.5698	-0.108
Mof_H 	H 	0.1308	0.2542	0.5792	0.078
_end
