# CIF file generated by openbabel 3.1.0, see https://openbabel.org
data_I
_chemical_name_common 'image0'
_cell_length_a 3.8083
_cell_length_b 12.476
_cell_length_c 13.09
_cell_angle_alpha 76.757
_cell_angle_beta 84.649
_cell_angle_gamma 86.809
_space_group_name_H-M_alt 'P 1'
_space_group_name_Hall 'P 1'
loop_
    _symmetry_equiv_pos_as_xyz
    x,y,z
loop_
    _atom_site_label
    _atom_site_type_symbol
    _atom_site_fract_x
    _atom_site_fract_y
    _atom_site_fract_z
    _atom_site_occupancy
    Ag1      Ag       0.16161    0.91878    0.59541    1.000
    O1       O        0.39790    0.95120    0.41330    1.000
    O2       O        0.33480    0.77180    0.47070    1.000
    N1       N        0.92670    0.00760    0.04250    1.000
    N2       N        0.88500    0.78750    0.71780    1.000
    C1       C        0.63710    0.83510    0.30180    1.000
    C2       C        0.69790    0.92430    0.21670    1.000
    H1       H        0.61550    0.99450    0.22230    1.000
    C3       C        0.88010    0.90940    0.12390    1.000
    C4       C        0.00950    0.80460    0.11560    1.000
    H2       H        0.13630    0.79440    0.05410    1.000
    C5       C        0.94790    0.71710    0.19870    1.000
    H3       H        0.03150    0.64700    0.19290    1.000
    C6       C        0.76150    0.73090    0.29220    1.000
    H4       H        0.72080    0.67040    0.34790    1.000
    C7       C        0.44320    0.85190    0.40250    1.000
    C8       C        0.85530    0.78660    0.82140    1.000
    H5       H        0.92480    0.84820    0.84200    1.000
    C9       C        0.72870    0.70030    0.89790    1.000
    H6       H        0.71180    0.70450    0.96830    1.000
    C10      C        0.62510    0.60590    0.87030    1.000
    C11      C        0.64870    0.60750    0.76340    1.000
    H7       H        0.57620    0.54770    0.74050    1.000
    C12      C        0.78090    0.69860    0.69100    1.000
    H8       H        0.79740    0.69730    0.62000    1.000
    C13      C        0.49660    0.50870    0.94840    1.000
    H9       H        0.40120    0.45420    0.92260    1.000
    Ag2      Ag       0.83839    0.08122    0.40459    1.000
    O3       O        0.60210    0.04880    0.58670    1.000
    O4       O        0.66520    0.22820    0.52930    1.000
    N3       N        0.07330    0.99240    0.95750    1.000
    N4       N        0.11500    0.21250    0.28220    1.000
    C14      C        0.36290    0.16490    0.69820    1.000
    C15      C        0.30210    0.07570    0.78330    1.000
    H10      H        0.38450    0.00550    0.77770    1.000
    C16      C        0.11990    0.09060    0.87610    1.000
    C17      C        0.99050    0.19540    0.88440    1.000
    H11      H        0.86370    0.20560    0.94590    1.000
    C18      C        0.05210    0.28290    0.80130    1.000
    H12      H        0.96850    0.35300    0.80710    1.000
    C19      C        0.23850    0.26910    0.70780    1.000
    H13      H        0.27920    0.32960    0.65210    1.000
    C20      C        0.55680    0.14810    0.59750    1.000
    C21      C        0.14470    0.21340    0.17860    1.000
    H14      H        0.07520    0.15180    0.15800    1.000
    C22      C        0.27130    0.29970    0.10210    1.000
    H15      H        0.28820    0.29550    0.03170    1.000
    C23      C        0.37490    0.39410    0.12970    1.000
    C24      C        0.35130    0.39250    0.23660    1.000
    H16      H        0.42380    0.45230    0.25950    1.000
    C25      C        0.21910    0.30140    0.30900    1.000
    H17      H        0.20260    0.30270    0.38000    1.000
    C26      C        0.50340    0.49130    0.05160    1.000
    H18      H        0.59880    0.54580    0.07740    1.000
