data_functionalizedCrystal
_audit_creation_method	'EQeq! by Chris Wilmer'
_symmetry_space_group_name_H-M	'P1'
_symmetry_Int_Tables_number	1
_symmetry_cell_setting	triclinic
loop_
_symmetry_equiv_pos_as_xyz
  x,y,z
_cell_length_a	27.108
_cell_length_b	10.673
_cell_length_c	16.641
_cell_angle_alpha	90
_cell_angle_beta	104.241
_cell_angle_gamma	90
loop_
_atom_site_label
_atom_site_type_symbol
_atom_site_fract_x
_atom_site_fract_y
_atom_site_fract_z
_atom_site_charge
Mof_Cd	Cd	0.28708	0.79005	0.16713	0.431
Mof_O 	O 	0.2295	0.4136	0.4575	-0.269
Mof_O 	O 	0.2183	0.5092	0.3381	-0.262
Mof_O 	O 	0.2707	0.79	0.2943	-0.262
Mof_O 	O 	0.3186	0.6283	0.3518	-0.231
Mof_N 	N 	0.1227	0.7168	0.0607	-0.087
Mof_N 	N 	0.1297	0.6382	0.1275	-0.094
Mof_N 	N 	0.2019	0.7401	0.1273	-0.146
Mof_N 	N 	0.9342	0.6938	0.839	-0.081
Mof_N 	N 	0.9472	0.7879	0.7946	-0.087
Mof_N 	N 	0.8723	0.7109	0.7289	-0.155
Mof_C 	C 	0.0614	0.6077	0.9483	0.03
Mof_C 	C 	0.0111	0.577	0.9099	0.038
Mof_C 	C 	0.0017	0.4672	0.8654	-0.081
Mof_H 	H 	0.9682	0.4451	0.8408	0.072
Mof_C 	C 	0.0405	0.3886	0.8561	-0.022
Mof_H 	H 	0.0331	0.3149	0.8257	0.041
Mof_C 	C 	0.0901	0.4204	0.8922	-0.031
Mof_H 	H 	0.1166	0.3691	0.8859	0.052
Mof_C 	C 	0.1002	0.5299	0.9383	-0.069
Mof_H 	H 	0.1338	0.5514	0.9629	0.076
Mof_C 	C 	0.0736	0.7222	0.0017	-0.103
Mof_H 	H 	0.0729	0.7947	0.9663	0.072
Mof_H 	H 	0.0475	0.7335	0.0316	0.072
Mof_C 	C 	0.967	0.6572	0.9202	-0.11
Mof_H 	H 	0.947	0.6111	0.9512	0.076
Mof_H 	H 	0.9801	0.7319	0.9515	0.075
Mof_C 	C 	0.1781	0.6581	0.1641	0.098
Mof_H 	H 	0.1944	0.6171	0.2127	0.036
Mof_C 	C 	0.1658	0.7735	0.0628	0.106
Mof_H 	H 	0.1703	0.8308	0.0231	0.016
Mof_C 	C 	0.9086	0.7952	0.728	0.106
Mof_H 	H 	0.907	0.8526	0.6854	0.008
Mof_C 	C 	0.8898	0.65	0.7997	0.102
Mof_H 	H 	0.8728	0.5851	0.8188	0.019
Mof_C 	C 	0.2415	0.6342	0.459	-0.045
Mof_C 	C 	0.2664	0.7305	0.4275	-0.034
Mof_C 	C 	0.2736	0.8428	0.4686	-0.012
Mof_H 	H 	0.2895	0.9071	0.4468	0.055
Mof_C 	C 	0.2291	0.5126	0.4151	0.289
Mof_C 	C 	0.2867	0.7114	0.3519	0.297
Mof_Cd	Cd	0.78708	0.29005	0.16713	0.432
Mof_O 	O 	0.7295	0.9136	0.4575	-0.268
Mof_O 	O 	0.7183	0.0092	0.3381	-0.261
Mof_O 	O 	0.7707	0.29	0.2943	-0.261
Mof_O 	O 	0.8186	0.1283	0.3518	-0.23
Mof_N 	N 	0.6227	0.2168	0.0607	-0.086
Mof_N 	N 	0.6297	0.1382	0.1275	-0.093
Mof_N 	N 	0.7019	0.2401	0.1273	-0.145
Mof_N 	N 	0.4342	0.1938	0.839	-0.08
Mof_N 	N 	0.4472	0.2879	0.7946	-0.086
Mof_N 	N 	0.3723	0.2109	0.7289	-0.154
Mof_C 	C 	0.5614	0.1077	0.9483	0.031
Mof_C 	C 	0.5111	0.077	0.9099	0.039
Mof_C 	C 	0.5017	0.9672	0.8654	-0.079
Mof_H 	H 	0.4682	0.9451	0.8408	0.073
Mof_C 	C 	0.5405	0.8886	0.8561	-0.022
Mof_H 	H 	0.5331	0.8149	0.8257	0.042
Mof_C 	C 	0.5901	0.9204	0.8922	-0.03
Mof_H 	H 	0.6166	0.8691	0.8859	0.052
Mof_C 	C 	0.6002	0.0299	0.9383	-0.07
Mof_H 	H 	0.6338	0.0514	0.9629	0.076
Mof_C 	C 	0.5736	0.2222	0.0017	-0.103
Mof_H 	H 	0.5729	0.2947	0.9663	0.072
Mof_H 	H 	0.5475	0.2335	0.0316	0.072
Mof_C 	C 	0.467	0.1572	0.9202	-0.11
Mof_H 	H 	0.447	0.1111	0.9512	0.076
Mof_H 	H 	0.4801	0.2319	0.9515	0.075
Mof_C 	C 	0.6781	0.1581	0.1641	0.098
Mof_H 	H 	0.6944	0.1171	0.2127	0.036
Mof_C 	C 	0.6658	0.2735	0.0628	0.106
Mof_H 	H 	0.6703	0.3308	0.0231	0.016
Mof_C 	C 	0.4086	0.2952	0.728	0.106
Mof_H 	H 	0.407	0.3526	0.6854	0.008
Mof_C 	C 	0.3898	0.15	0.7997	0.102
Mof_H 	H 	0.3728	0.0851	0.8188	0.018
Mof_C 	C 	0.7415	0.1342	0.459	-0.045
Mof_C 	C 	0.7664	0.2305	0.4275	-0.034
Mof_C 	C 	0.7736	0.3428	0.4686	-0.012
Mof_H 	H 	0.7895	0.4071	0.4468	0.055
Mof_C 	C 	0.7291	0.0126	0.4151	0.289
Mof_C 	C 	0.7867	0.2114	0.3519	0.297
Mof_Cd	Cd	0.71292	0.79005	0.33287	0.432
Mof_O 	O 	0.7705	0.4136	0.0425	-0.268
Mof_O 	O 	0.7817	0.5092	0.1619	-0.261
Mof_O 	O 	0.7293	0.79	0.2057	-0.261
Mof_O 	O 	0.6814	0.6283	0.1482	-0.23
Mof_N 	N 	0.8773	0.7168	0.4393	-0.086
Mof_N 	N 	0.8703	0.6382	0.3725	-0.093
Mof_N 	N 	0.7981	0.7401	0.3727	-0.145
Mof_N 	N 	0.0658	0.6938	0.661	-0.08
Mof_N 	N 	0.0528	0.7879	0.7054	-0.086
Mof_N 	N 	0.1277	0.7109	0.7711	-0.154
Mof_C 	C 	0.9386	0.6077	0.5517	0.031
Mof_C 	C 	0.9889	0.577	0.5901	0.039
Mof_C 	C 	0.9983	0.4672	0.6346	-0.079
Mof_H 	H 	0.0318	0.4451	0.6592	0.073
Mof_C 	C 	0.9595	0.3886	0.6439	-0.022
Mof_H 	H 	0.9669	0.3149	0.6743	0.042
Mof_C 	C 	0.9099	0.4204	0.6078	-0.03
Mof_H 	H 	0.8834	0.3691	0.6141	0.052
Mof_C 	C 	0.8998	0.5299	0.5617	-0.07
Mof_H 	H 	0.8662	0.5514	0.5371	0.076
Mof_C 	C 	0.9264	0.7222	0.4983	-0.103
Mof_H 	H 	0.9271	0.7947	0.5337	0.072
Mof_H 	H 	0.9525	0.7335	0.4684	0.072
Mof_C 	C 	0.033	0.6572	0.5798	-0.11
Mof_H 	H 	0.053	0.6111	0.5488	0.076
Mof_H 	H 	0.0199	0.7319	0.5485	0.075
Mof_C 	C 	0.8219	0.6581	0.3359	0.098
Mof_H 	H 	0.8056	0.6171	0.2873	0.036
Mof_C 	C 	0.8342	0.7735	0.4372	0.106
Mof_H 	H 	0.8297	0.8308	0.4769	0.016
Mof_C 	C 	0.0914	0.7952	0.772	0.106
Mof_H 	H 	0.093	0.8526	0.8146	0.008
Mof_C 	C 	0.1102	0.65	0.7003	0.102
Mof_H 	H 	0.1272	0.5851	0.6812	0.019
Mof_C 	C 	0.7585	0.6342	0.041	-0.046
Mof_C 	C 	0.7336	0.7305	0.0725	-0.034
Mof_C 	C 	0.7264	0.8428	0.0314	-0.013
Mof_H 	H 	0.7105	0.9071	0.0532	0.055
Mof_C 	C 	0.7709	0.5126	0.0849	0.289
Mof_C 	C 	0.7133	0.7114	0.1481	0.297
Mof_Cd	Cd	0.21292	0.29005	0.33287	0.432
Mof_O 	O 	0.2705	0.9136	0.0425	-0.268
Mof_O 	O 	0.2817	0.0092	0.1619	-0.261
Mof_O 	O 	0.2293	0.29	0.2057	-0.261
Mof_O 	O 	0.1814	0.1283	0.1482	-0.23
Mof_N 	N 	0.3773	0.2168	0.4393	-0.086
Mof_N 	N 	0.3703	0.1382	0.3725	-0.093
Mof_N 	N 	0.2981	0.2401	0.3727	-0.145
Mof_N 	N 	0.5658	0.1938	0.661	-0.08
Mof_N 	N 	0.5528	0.2879	0.7054	-0.086
Mof_N 	N 	0.6277	0.2109	0.7711	-0.154
Mof_C 	C 	0.4386	0.1077	0.5517	0.031
Mof_C 	C 	0.4889	0.077	0.5901	0.039
Mof_C 	C 	0.4983	0.9672	0.6346	-0.079
Mof_H 	H 	0.5318	0.9451	0.6592	0.073
Mof_C 	C 	0.4595	0.8886	0.6439	-0.022
Mof_H 	H 	0.4669	0.8149	0.6743	0.042
Mof_C 	C 	0.4099	0.9204	0.6078	-0.03
Mof_H 	H 	0.3834	0.8691	0.6141	0.052
Mof_C 	C 	0.3998	0.0299	0.5617	-0.07
Mof_H 	H 	0.3662	0.0514	0.5371	0.076
Mof_C 	C 	0.4264	0.2222	0.4983	-0.103
Mof_H 	H 	0.4271	0.2947	0.5337	0.072
Mof_H 	H 	0.4525	0.2335	0.4684	0.072
Mof_C 	C 	0.533	0.1572	0.5798	-0.11
Mof_H 	H 	0.553	0.1111	0.5488	0.076
Mof_H 	H 	0.5199	0.2319	0.5485	0.075
Mof_C 	C 	0.3219	0.1581	0.3359	0.098
Mof_H 	H 	0.3056	0.1171	0.2873	0.036
Mof_C 	C 	0.3342	0.2735	0.4372	0.106
Mof_H 	H 	0.3297	0.3308	0.4769	0.016
Mof_C 	C 	0.5914	0.2952	0.772	0.106
Mof_H 	H 	0.593	0.3526	0.8146	0.008
Mof_C 	C 	0.6102	0.15	0.7003	0.102
Mof_H 	H 	0.6272	0.0851	0.6812	0.018
Mof_C 	C 	0.2585	0.1342	0.041	-0.045
Mof_C 	C 	0.2336	0.2305	0.0725	-0.034
Mof_C 	C 	0.2264	0.3428	0.0314	-0.012
Mof_H 	H 	0.2105	0.4071	0.0532	0.055
Mof_C 	C 	0.2709	0.0126	0.0849	0.289
Mof_C 	C 	0.2133	0.2114	0.1481	0.297
Mof_Cd	Cd	0.71292	0.20995	0.83287	0.432
Mof_O 	O 	0.7705	0.5864	0.5425	-0.268
Mof_O 	O 	0.7817	0.4908	0.6619	-0.261
Mof_O 	O 	0.7293	0.21	0.7057	-0.261
Mof_O 	O 	0.6814	0.3717	0.6482	-0.23
Mof_N 	N 	0.8773	0.2832	0.9393	-0.086
Mof_N 	N 	0.8703	0.3618	0.8725	-0.093
Mof_N 	N 	0.7981	0.2599	0.8727	-0.145
Mof_N 	N 	0.0658	0.3062	0.161	-0.08
Mof_N 	N 	0.0528	0.2121	0.2054	-0.086
Mof_N 	N 	0.1277	0.2891	0.2711	-0.154
Mof_C 	C 	0.9386	0.3923	0.0517	0.031
Mof_C 	C 	0.9889	0.423	0.0901	0.039
Mof_C 	C 	0.9983	0.5328	0.1346	-0.08
Mof_H 	H 	0.0318	0.5549	0.1592	0.073
Mof_C 	C 	0.9595	0.6114	0.1439	-0.021
Mof_H 	H 	0.9669	0.6851	0.1743	0.042
Mof_C 	C 	0.9099	0.5796	0.1078	-0.03
Mof_H 	H 	0.8834	0.6309	0.1141	0.052
Mof_C 	C 	0.8998	0.4701	0.0617	-0.069
Mof_H 	H 	0.8662	0.4486	0.0371	0.076
Mof_C 	C 	0.9264	0.2778	0.9983	-0.103
Mof_H 	H 	0.9271	0.2053	0.0337	0.072
Mof_H 	H 	0.9525	0.2665	0.9684	0.072
Mof_C 	C 	0.033	0.3428	0.0798	-0.11
Mof_H 	H 	0.053	0.3889	0.0488	0.076
Mof_H 	H 	0.0199	0.2681	0.0485	0.075
Mof_C 	C 	0.8219	0.3419	0.8359	0.098
Mof_H 	H 	0.8056	0.3829	0.7873	0.036
Mof_C 	C 	0.8342	0.2265	0.9372	0.106
Mof_H 	H 	0.8297	0.1692	0.9769	0.016
Mof_C 	C 	0.0914	0.2048	0.272	0.106
Mof_H 	H 	0.093	0.1474	0.3146	0.008
Mof_C 	C 	0.1102	0.35	0.2003	0.102
Mof_H 	H 	0.1272	0.4149	0.1812	0.019
Mof_C 	C 	0.7585	0.3658	0.541	-0.045
Mof_C 	C 	0.7336	0.2695	0.5725	-0.034
Mof_C 	C 	0.7264	0.1572	0.5314	-0.012
Mof_H 	H 	0.7105	0.0929	0.5532	0.055
Mof_C 	C 	0.7709	0.4874	0.5849	0.289
Mof_C 	C 	0.7133	0.2886	0.6481	0.297
Mof_Cd	Cd	0.21292	0.70995	0.83287	0.432
Mof_O 	O 	0.2705	0.0864	0.5425	-0.268
Mof_O 	O 	0.2817	0.9908	0.6619	-0.261
Mof_O 	O 	0.2293	0.71	0.7057	-0.261
Mof_O 	O 	0.1814	0.8717	0.6482	-0.23
Mof_N 	N 	0.3773	0.7832	0.9393	-0.086
Mof_N 	N 	0.3703	0.8618	0.8725	-0.093
Mof_N 	N 	0.2981	0.7599	0.8727	-0.145
Mof_N 	N 	0.5658	0.8062	0.161	-0.08
Mof_N 	N 	0.5528	0.7121	0.2054	-0.086
Mof_N 	N 	0.6277	0.7891	0.2711	-0.154
Mof_C 	C 	0.4386	0.8923	0.0517	0.031
Mof_C 	C 	0.4889	0.923	0.0901	0.039
Mof_C 	C 	0.4983	0.0328	0.1346	-0.079
Mof_H 	H 	0.5318	0.0549	0.1592	0.073
Mof_C 	C 	0.4595	0.1114	0.1439	-0.022
Mof_H 	H 	0.4669	0.1851	0.1743	0.042
Mof_C 	C 	0.4099	0.0796	0.1078	-0.03
Mof_H 	H 	0.3834	0.1309	0.1141	0.052
Mof_C 	C 	0.3998	0.9701	0.0617	-0.07
Mof_H 	H 	0.3662	0.9486	0.0371	0.076
Mof_C 	C 	0.4264	0.7778	0.9983	-0.103
Mof_H 	H 	0.4271	0.7053	0.0337	0.072
Mof_H 	H 	0.4525	0.7665	0.9684	0.072
Mof_C 	C 	0.533	0.8428	0.0798	-0.11
Mof_H 	H 	0.553	0.8889	0.0488	0.076
Mof_H 	H 	0.5199	0.7681	0.0485	0.075
Mof_C 	C 	0.3219	0.8419	0.8359	0.098
Mof_H 	H 	0.3056	0.8829	0.7873	0.036
Mof_C 	C 	0.3342	0.7265	0.9372	0.106
Mof_H 	H 	0.3297	0.6692	0.9769	0.016
Mof_C 	C 	0.5914	0.7048	0.272	0.106
Mof_H 	H 	0.593	0.6474	0.3146	0.008
Mof_C 	C 	0.6102	0.85	0.2003	0.102
Mof_H 	H 	0.6272	0.9149	0.1812	0.018
Mof_C 	C 	0.2585	0.8658	0.541	-0.045
Mof_C 	C 	0.2336	0.7695	0.5725	-0.034
Mof_C 	C 	0.2264	0.6572	0.5314	-0.012
Mof_H 	H 	0.2105	0.5929	0.5532	0.055
Mof_C 	C 	0.2709	0.9874	0.5849	0.289
Mof_C 	C 	0.2133	0.7886	0.6481	0.297
Mof_Cd	Cd	0.28708	0.20995	0.66713	0.432
Mof_O 	O 	0.2295	0.5864	0.9575	-0.268
Mof_O 	O 	0.2183	0.4908	0.8381	-0.261
Mof_O 	O 	0.2707	0.21	0.7943	-0.261
Mof_O 	O 	0.3186	0.3717	0.8518	-0.23
Mof_N 	N 	0.1227	0.2832	0.5607	-0.086
Mof_N 	N 	0.1297	0.3618	0.6275	-0.093
Mof_N 	N 	0.2019	0.2599	0.6273	-0.145
Mof_N 	N 	0.9342	0.3062	0.339	-0.08
Mof_N 	N 	0.9472	0.2121	0.2946	-0.086
Mof_N 	N 	0.8723	0.2891	0.2289	-0.154
Mof_C 	C 	0.0614	0.3923	0.4483	0.031
Mof_C 	C 	0.0111	0.423	0.4099	0.039
Mof_C 	C 	0.0017	0.5328	0.3654	-0.079
Mof_H 	H 	0.9682	0.5549	0.3408	0.073
Mof_C 	C 	0.0405	0.6114	0.3561	-0.022
Mof_H 	H 	0.0331	0.6851	0.3257	0.042
Mof_C 	C 	0.0901	0.5796	0.3922	-0.03
Mof_H 	H 	0.1166	0.6309	0.3859	0.052
Mof_C 	C 	0.1002	0.4701	0.4383	-0.07
Mof_H 	H 	0.1338	0.4486	0.4629	0.076
Mof_C 	C 	0.0736	0.2778	0.5017	-0.103
Mof_H 	H 	0.0729	0.2053	0.4663	0.072
Mof_H 	H 	0.0475	0.2665	0.5316	0.072
Mof_C 	C 	0.967	0.3428	0.4202	-0.11
Mof_H 	H 	0.947	0.3889	0.4512	0.076
Mof_H 	H 	0.9801	0.2681	0.4515	0.075
Mof_C 	C 	0.1781	0.3419	0.6641	0.098
Mof_H 	H 	0.1944	0.3829	0.7127	0.036
Mof_C 	C 	0.1658	0.2265	0.5628	0.106
Mof_H 	H 	0.1703	0.1692	0.5231	0.016
Mof_C 	C 	0.9086	0.2048	0.228	0.106
Mof_H 	H 	0.907	0.1474	0.1854	0.008
Mof_C 	C 	0.8898	0.35	0.2997	0.102
Mof_H 	H 	0.8728	0.4149	0.3188	0.019
Mof_C 	C 	0.2415	0.3658	0.959	-0.046
Mof_C 	C 	0.2664	0.2695	0.9275	-0.034
Mof_C 	C 	0.2736	0.1572	0.9686	-0.013
Mof_H 	H 	0.2895	0.0929	0.9468	0.055
Mof_C 	C 	0.2291	0.4874	0.9151	0.289
Mof_C 	C 	0.2867	0.2886	0.8519	0.297
Mof_Cd	Cd	0.78708	0.70995	0.66713	0.432
Mof_O 	O 	0.7295	0.0864	0.9575	-0.268
Mof_O 	O 	0.7183	0.9908	0.8381	-0.261
Mof_O 	O 	0.7707	0.71	0.7943	-0.261
Mof_O 	O 	0.8186	0.8717	0.8518	-0.23
Mof_N 	N 	0.6227	0.7832	0.5607	-0.086
Mof_N 	N 	0.6297	0.8618	0.6275	-0.093
Mof_N 	N 	0.7019	0.7599	0.6273	-0.145
Mof_N 	N 	0.4342	0.8062	0.339	-0.08
Mof_N 	N 	0.4472	0.7121	0.2946	-0.086
Mof_N 	N 	0.3723	0.7891	0.2289	-0.154
Mof_C 	C 	0.5614	0.8923	0.4483	0.031
Mof_C 	C 	0.5111	0.923	0.4099	0.039
Mof_C 	C 	0.5017	0.0328	0.3654	-0.079
Mof_H 	H 	0.4682	0.0549	0.3408	0.073
Mof_C 	C 	0.5405	0.1114	0.3561	-0.022
Mof_H 	H 	0.5331	0.1851	0.3257	0.042
Mof_C 	C 	0.5901	0.0796	0.3922	-0.03
Mof_H 	H 	0.6166	0.1309	0.3859	0.052
Mof_C 	C 	0.6002	0.9701	0.4383	-0.07
Mof_H 	H 	0.6338	0.9486	0.4629	0.076
Mof_C 	C 	0.5736	0.7778	0.5017	-0.103
Mof_H 	H 	0.5729	0.7053	0.4663	0.072
Mof_H 	H 	0.5475	0.7665	0.5316	0.072
Mof_C 	C 	0.467	0.8428	0.4202	-0.11
Mof_H 	H 	0.447	0.8889	0.4512	0.076
Mof_H 	H 	0.4801	0.7681	0.4515	0.075
Mof_C 	C 	0.6781	0.8419	0.6641	0.098
Mof_H 	H 	0.6944	0.8829	0.7127	0.036
Mof_C 	C 	0.6658	0.7265	0.5628	0.106
Mof_H 	H 	0.6703	0.6692	0.5231	0.016
Mof_C 	C 	0.4086	0.7048	0.228	0.106
Mof_H 	H 	0.407	0.6474	0.1854	0.008
Mof_C 	C 	0.3898	0.85	0.2997	0.102
Mof_H 	H 	0.3728	0.9149	0.3188	0.018
Mof_C 	C 	0.7415	0.8658	0.959	-0.045
Mof_C 	C 	0.7664	0.7695	0.9275	-0.034
Mof_C 	C 	0.7736	0.6572	0.9686	-0.012
Mof_H 	H 	0.7895	0.5929	0.9468	0.055
Mof_C 	C 	0.7291	0.9874	0.9151	0.289
Mof_C 	C 	0.7867	0.7886	0.8519	0.297
_end
