# CIF file generated by openbabel 3.1.0, see https://openbabel.org
data_I
_chemical_name_common 'image0'
_cell_length_a 30.142
_cell_length_b 30.142
_cell_length_c 16.4696
_cell_angle_alpha 90
_cell_angle_beta 90
_cell_angle_gamma 90
_space_group_name_H-M_alt 'P 1'
_space_group_name_Hall 'P 1'
loop_
    _symmetry_equiv_pos_as_xyz
    x,y,z
loop_
    _atom_site_label
    _atom_site_type_symbol
    _atom_site_fract_x
    _atom_site_fract_y
    _atom_site_fract_z
    _atom_site_occupancy
    In1      In       0.47637    0.25719    0.38406    1.000
    O1       O        0.31324    0.46944    0.39779    1.000
    O2       O        0.27085    0.47218    0.29050    1.000
    O3       O        0.42909    0.29697    0.32285    1.000
    O4       O        0.44016    0.36018    0.39265    1.000
    C1       C        0.37763    0.35533    0.30560    1.000
    C2       C        0.31646    0.34760    0.21240    1.000
    C3       C        0.35499    0.33174    0.24600    1.000
    H1       H        0.36650    0.30410    0.22810    1.000
    C4       C        0.25975    0.29098    0.17360    1.000
    C5       C        0.30302    0.33093    0.06710    1.000
    C6       C        0.29205    0.32227    0.14690    1.000
    C7       C        0.32133    0.41151    0.29940    1.000
    C8       C        0.36026    0.39538    0.33250    1.000
    H2       H        0.37510    0.41170    0.37370    1.000
    C9       C        0.30121    0.45350    0.33020    1.000
    C10      C        0.29985    0.38829    0.23870    1.000
    H3       H        0.27370    0.40010    0.21480    1.000
    C11      C        0.41891    0.33689    0.34390    1.000
    C12      C        0.24839    0.28233    0.25680    1.000
    H4       H        0.26090    0.29630    0.30330    1.000
    C13      C        0.33546    0.36339    0.04080    1.000
    H5       H        0.35340    0.38140    0.07500    1.000
    O5       O        0.52540    0.21150    0.43200    1.000
    O6       O        0.46367    0.20349    0.29700    1.000
    O7       O        0.41955    0.20144    0.40190    1.000
    C14      C        0.43561    0.12096    0.24190    1.000
    H6       H        0.46240    0.13270    0.22050    1.000
    C15      C        0.41329    0.14322    0.30470    1.000
    C16      C        0.43263    0.18467    0.33720    1.000
    H7       H        0.44700    0.25720    0.52700    1.000
    In2      In       0.52363    0.74281    0.38406    1.000
    O8       O        0.68676    0.53056    0.39779    1.000
    O9       O        0.72915    0.52782    0.29050    1.000
    O10      O        0.57091    0.70303    0.32285    1.000
    O11      O        0.55984    0.63982    0.39265    1.000
    C17      C        0.62237    0.64467    0.30560    1.000
    C18      C        0.68354    0.65240    0.21240    1.000
    C19      C        0.64501    0.66826    0.24600    1.000
    H8       H        0.63350    0.69590    0.22810    1.000
    C20      C        0.74025    0.70902    0.17360    1.000
    C21      C        0.69698    0.66907    0.06710    1.000
    C22      C        0.70795    0.67773    0.14690    1.000
    C23      C        0.67867    0.58849    0.29940    1.000
    C24      C        0.63974    0.60462    0.33250    1.000
    H9       H        0.62490    0.58830    0.37370    1.000
    C25      C        0.69879    0.54650    0.33020    1.000
    C26      C        0.70015    0.61171    0.23870    1.000
    H10      H        0.72630    0.59990    0.21480    1.000
    C27      C        0.58109    0.66311    0.34390    1.000
    C28      C        0.75161    0.71767    0.25680    1.000
    H11      H        0.73910    0.70370    0.30330    1.000
    C29      C        0.66454    0.63661    0.04080    1.000
    H12      H        0.64660    0.61860    0.07500    1.000
    O12      O        0.47460    0.78850    0.43200    1.000
    O13      O        0.53633    0.79651    0.29700    1.000
    O14      O        0.58045    0.79856    0.40190    1.000
    C30      C        0.56439    0.87904    0.24190    1.000
    H13      H        0.53760    0.86730    0.22050    1.000
    C31      C        0.58671    0.85678    0.30470    1.000
    C32      C        0.56737    0.81533    0.33720    1.000
    H14      H        0.55300    0.74280    0.52700    1.000
    In3      In       0.74281    0.47637    0.38406    1.000
    O15      O        0.53056    0.31324    0.39779    1.000
    O16      O        0.52782    0.27085    0.29050    1.000
    O17      O        0.70303    0.42909    0.32285    1.000
    O18      O        0.63982    0.44016    0.39265    1.000
    C33      C        0.64467    0.37763    0.30560    1.000
    C34      C        0.65240    0.31646    0.21240    1.000
    C35      C        0.66826    0.35499    0.24600    1.000
    H15      H        0.69590    0.36650    0.22810    1.000
    C36      C        0.70902    0.25975    0.17360    1.000
    C37      C        0.66907    0.30302    0.06710    1.000
    C38      C        0.67773    0.29205    0.14690    1.000
    C39      C        0.58849    0.32133    0.29940    1.000
    C40      C        0.60462    0.36026    0.33250    1.000
    H16      H        0.58830    0.37510    0.37370    1.000
    C41      C        0.54650    0.30121    0.33020    1.000
    C42      C        0.61171    0.29985    0.23870    1.000
    H17      H        0.59990    0.27370    0.21480    1.000
    C43      C        0.66311    0.41891    0.34390    1.000
    C44      C        0.71767    0.24839    0.25680    1.000
    H18      H        0.70370    0.26090    0.30330    1.000
    C45      C        0.63661    0.33546    0.04080    1.000
    H19      H        0.61860    0.35340    0.07500    1.000
    O19      O        0.78850    0.52540    0.43200    1.000
    O20      O        0.79651    0.46367    0.29700    1.000
    O21      O        0.79856    0.41955    0.40190    1.000
    C46      C        0.87904    0.43561    0.24190    1.000
    H20      H        0.86730    0.46240    0.22050    1.000
    C47      C        0.85678    0.41329    0.30470    1.000
    C48      C        0.81533    0.43263    0.33720    1.000
    H21      H        0.74280    0.44700    0.52700    1.000
    In4      In       0.25719    0.52363    0.38406    1.000
    O22      O        0.46944    0.68676    0.39779    1.000
    O23      O        0.47218    0.72915    0.29050    1.000
    O24      O        0.29697    0.57091    0.32285    1.000
    O25      O        0.36018    0.55984    0.39265    1.000
    C49      C        0.35533    0.62237    0.30560    1.000
    C50      C        0.34760    0.68354    0.21240    1.000
    C51      C        0.33174    0.64501    0.24600    1.000
    H22      H        0.30410    0.63350    0.22810    1.000
    C52      C        0.29098    0.74025    0.17360    1.000
    C53      C        0.33093    0.69698    0.06710    1.000
    C54      C        0.32227    0.70795    0.14690    1.000
    C55      C        0.41151    0.67867    0.29940    1.000
    C56      C        0.39538    0.63974    0.33250    1.000
    H23      H        0.41170    0.62490    0.37370    1.000
    C57      C        0.45350    0.69879    0.33020    1.000
    C58      C        0.38829    0.70015    0.23870    1.000
    H24      H        0.40010    0.72630    0.21480    1.000
    C59      C        0.33689    0.58109    0.34390    1.000
    C60      C        0.28233    0.75161    0.25680    1.000
    H25      H        0.29630    0.73910    0.30330    1.000
    C61      C        0.36339    0.66454    0.04080    1.000
    H26      H        0.38140    0.64660    0.07500    1.000
    O26      O        0.21150    0.47460    0.43200    1.000
    O27      O        0.20349    0.53633    0.29700    1.000
    O28      O        0.20144    0.58045    0.40190    1.000
    C62      C        0.12096    0.56439    0.24190    1.000
    H27      H        0.13270    0.53760    0.22050    1.000
    C63      C        0.14322    0.58671    0.30470    1.000
    C64      C        0.18467    0.56737    0.33720    1.000
    H28      H        0.25720    0.55300    0.52700    1.000
    In5      In       0.02363    0.75719    0.61594    1.000
    O29      O        0.18676    0.96944    0.60221    1.000
    O30      O        0.22915    0.97218    0.70950    1.000
    O31      O        0.07091    0.79697    0.67715    1.000
    O32      O        0.05984    0.86018    0.60735    1.000
    C65      C        0.12237    0.85533    0.69440    1.000
    C66      C        0.18354    0.84760    0.78760    1.000
    C67      C        0.14501    0.83174    0.75400    1.000
    H29      H        0.13350    0.80410    0.77190    1.000
    C68      C        0.24025    0.79098    0.82640    1.000
    C69      C        0.19698    0.83093    0.93290    1.000
    C70      C        0.20795    0.82227    0.85310    1.000
    C71      C        0.17867    0.91151    0.70060    1.000
    C72      C        0.13974    0.89538    0.66750    1.000
    H30      H        0.12490    0.91170    0.62630    1.000
    C73      C        0.19879    0.95350    0.66980    1.000
    C74      C        0.20015    0.88829    0.76130    1.000
    H31      H        0.22630    0.90010    0.78520    1.000
    C75      C        0.08109    0.83689    0.65610    1.000
    C76      C        0.25161    0.78233    0.74320    1.000
    H32      H        0.23910    0.79630    0.69670    1.000
    C77      C        0.16454    0.86339    0.95920    1.000
    H33      H        0.14660    0.88140    0.92500    1.000
    O33      O        0.97460    0.71150    0.56800    1.000
    O34      O        0.03633    0.70349    0.70300    1.000
    O35      O        0.08045    0.70144    0.59810    1.000
    C78      C        0.06439    0.62096    0.75810    1.000
    H34      H        0.03760    0.63270    0.77950    1.000
    C79      C        0.08671    0.64322    0.69530    1.000
    C80      C        0.06737    0.68467    0.66280    1.000
    H35      H        0.05300    0.75720    0.47300    1.000
    In6      In       0.97637    0.24281    0.61594    1.000
    O36      O        0.81324    0.03056    0.60221    1.000
    O37      O        0.77085    0.02782    0.70950    1.000
    O38      O        0.92909    0.20303    0.67715    1.000
    O39      O        0.94016    0.13982    0.60735    1.000
    C81      C        0.87763    0.14467    0.69440    1.000
    C82      C        0.81646    0.15240    0.78760    1.000
    C83      C        0.85499    0.16826    0.75400    1.000
    H36      H        0.86650    0.19590    0.77190    1.000
    C84      C        0.75975    0.20902    0.82640    1.000
    C85      C        0.80302    0.16907    0.93290    1.000
    C86      C        0.79205    0.17773    0.85310    1.000
    C87      C        0.82133    0.08849    0.70060    1.000
    C88      C        0.86026    0.10462    0.66750    1.000
    H37      H        0.87510    0.08830    0.62630    1.000
    C89      C        0.80121    0.04650    0.66980    1.000
    C90      C        0.79985    0.11171    0.76130    1.000
    H38      H        0.77370    0.09990    0.78520    1.000
    C91      C        0.91891    0.16311    0.65610    1.000
    C92      C        0.74839    0.21767    0.74320    1.000
    H39      H        0.76090    0.20370    0.69670    1.000
    C93      C        0.83546    0.13661    0.95920    1.000
    H40      H        0.85340    0.11860    0.92500    1.000
    O40      O        0.02540    0.28850    0.56800    1.000
    O41      O        0.96367    0.29651    0.70300    1.000
    O42      O        0.91955    0.29856    0.59810    1.000
    C94      C        0.93561    0.37904    0.75810    1.000
    H41      H        0.96240    0.36730    0.77950    1.000
    C95      C        0.91329    0.35678    0.69530    1.000
    C96      C        0.93263    0.31533    0.66280    1.000
    H42      H        0.94700    0.24280    0.47300    1.000
    In7      In       0.75719    0.97637    0.61594    1.000
    O43      O        0.96944    0.81324    0.60221    1.000
    O44      O        0.97218    0.77085    0.70950    1.000
    O45      O        0.79697    0.92909    0.67715    1.000
    O46      O        0.86018    0.94016    0.60735    1.000
    C97      C        0.85533    0.87763    0.69440    1.000
    C98      C        0.84760    0.81646    0.78760    1.000
    C99      C        0.83174    0.85499    0.75400    1.000
    H43      H        0.80410    0.86650    0.77190    1.000
    C100     C        0.79098    0.75975    0.82640    1.000
    C101     C        0.83093    0.80302    0.93290    1.000
    C102     C        0.82227    0.79205    0.85310    1.000
    C103     C        0.91151    0.82133    0.70060    1.000
    C104     C        0.89538    0.86026    0.66750    1.000
    H44      H        0.91170    0.87510    0.62630    1.000
    C105     C        0.95350    0.80121    0.66980    1.000
    C106     C        0.88829    0.79985    0.76130    1.000
    H45      H        0.90010    0.77370    0.78520    1.000
    C107     C        0.83689    0.91891    0.65610    1.000
    C108     C        0.78233    0.74839    0.74320    1.000
    H46      H        0.79630    0.76090    0.69670    1.000
    C109     C        0.86339    0.83546    0.95920    1.000
    H47      H        0.88140    0.85340    0.92500    1.000
    O47      O        0.71150    0.02540    0.56800    1.000
    O48      O        0.70349    0.96367    0.70300    1.000
    O49      O        0.70144    0.91955    0.59810    1.000
    C110     C        0.62096    0.93561    0.75810    1.000
    H48      H        0.63270    0.96240    0.77950    1.000
    C111     C        0.64322    0.91329    0.69530    1.000
    C112     C        0.68467    0.93263    0.66280    1.000
    H49      H        0.75720    0.94700    0.47300    1.000
    In8      In       0.24281    0.02363    0.61594    1.000
    O50      O        0.03056    0.18676    0.60221    1.000
    O51      O        0.02782    0.22915    0.70950    1.000
    O52      O        0.20303    0.07091    0.67715    1.000
    O53      O        0.13982    0.05984    0.60735    1.000
    C113     C        0.14467    0.12237    0.69440    1.000
    C114     C        0.15240    0.18354    0.78760    1.000
    C115     C        0.16826    0.14501    0.75400    1.000
    H50      H        0.19590    0.13350    0.77190    1.000
    C116     C        0.20902    0.24025    0.82640    1.000
    C117     C        0.16907    0.19698    0.93290    1.000
    C118     C        0.17773    0.20795    0.85310    1.000
    C119     C        0.08849    0.17867    0.70060    1.000
    C120     C        0.10462    0.13974    0.66750    1.000
    H51      H        0.08830    0.12490    0.62630    1.000
    C121     C        0.04650    0.19879    0.66980    1.000
    C122     C        0.11171    0.20015    0.76130    1.000
    H52      H        0.09990    0.22630    0.78520    1.000
    C123     C        0.16311    0.08109    0.65610    1.000
    C124     C        0.21767    0.25161    0.74320    1.000
    H53      H        0.20370    0.23910    0.69670    1.000
    C125     C        0.13661    0.16454    0.95920    1.000
    H54      H        0.11860    0.14660    0.92500    1.000
    O54      O        0.28850    0.97460    0.56800    1.000
    O55      O        0.29651    0.03633    0.70300    1.000
    O56      O        0.29856    0.08045    0.59810    1.000
    C126     C        0.37904    0.06439    0.75810    1.000
    H55      H        0.36730    0.03760    0.77950    1.000
    C127     C        0.35678    0.08671    0.69530    1.000
    C128     C        0.31533    0.06737    0.66280    1.000
    H56      H        0.24280    0.05300    0.47300    1.000
    In9      In       0.52363    0.74281    0.61594    1.000
    O57      O        0.68676    0.53056    0.60221    1.000
    O58      O        0.72915    0.52782    0.70950    1.000
    O59      O        0.57091    0.70303    0.67715    1.000
    O60      O        0.55984    0.63982    0.60735    1.000
    C129     C        0.62237    0.64467    0.69440    1.000
    C130     C        0.68354    0.65240    0.78760    1.000
    C131     C        0.64501    0.66826    0.75400    1.000
    H57      H        0.63350    0.69590    0.77190    1.000
    C132     C        0.74025    0.70902    0.82640    1.000
    C133     C        0.69698    0.66907    0.93290    1.000
    C134     C        0.70795    0.67773    0.85310    1.000
    C135     C        0.67867    0.58849    0.70060    1.000
    C136     C        0.63974    0.60462    0.66750    1.000
    H58      H        0.62490    0.58830    0.62630    1.000
    C137     C        0.69879    0.54650    0.66980    1.000
    C138     C        0.70015    0.61171    0.76130    1.000
    H59      H        0.72630    0.59990    0.78520    1.000
    C139     C        0.58109    0.66311    0.65610    1.000
    C140     C        0.75161    0.71767    0.74320    1.000
    H60      H        0.73910    0.70370    0.69670    1.000
    C141     C        0.66454    0.63661    0.95920    1.000
    H61      H        0.64660    0.61860    0.92500    1.000
    O61      O        0.47460    0.78850    0.56800    1.000
    O62      O        0.53633    0.79651    0.70300    1.000
    O63      O        0.58045    0.79856    0.59810    1.000
    C142     C        0.56439    0.87904    0.75810    1.000
    H62      H        0.53760    0.86730    0.77950    1.000
    C143     C        0.58671    0.85678    0.69530    1.000
    C144     C        0.56737    0.81533    0.66280    1.000
    H63      H        0.55300    0.74280    0.47300    1.000
    In10     In       0.47637    0.25719    0.61594    1.000
    O64      O        0.31324    0.46944    0.60221    1.000
    O65      O        0.27085    0.47218    0.70950    1.000
    O66      O        0.42909    0.29697    0.67715    1.000
    O67      O        0.44016    0.36018    0.60735    1.000
    C145     C        0.37763    0.35533    0.69440    1.000
    C146     C        0.31646    0.34760    0.78760    1.000
    C147     C        0.35499    0.33174    0.75400    1.000
    H64      H        0.36650    0.30410    0.77190    1.000
    C148     C        0.25975    0.29098    0.82640    1.000
    C149     C        0.30302    0.33093    0.93290    1.000
    C150     C        0.29205    0.32227    0.85310    1.000
    C151     C        0.32133    0.41151    0.70060    1.000
    C152     C        0.36026    0.39538    0.66750    1.000
    H65      H        0.37510    0.41170    0.62630    1.000
    C153     C        0.30121    0.45350    0.66980    1.000
    C154     C        0.29985    0.38829    0.76130    1.000
    H66      H        0.27370    0.40010    0.78520    1.000
    C155     C        0.41891    0.33689    0.65610    1.000
    C156     C        0.24839    0.28233    0.74320    1.000
    H67      H        0.26090    0.29630    0.69670    1.000
    C157     C        0.33546    0.36339    0.95920    1.000
    H68      H        0.35340    0.38140    0.92500    1.000
    O68      O        0.52540    0.21150    0.56800    1.000
    O69      O        0.46367    0.20349    0.70300    1.000
    O70      O        0.41955    0.20144    0.59810    1.000
    C158     C        0.43561    0.12096    0.75810    1.000
    H69      H        0.46240    0.13270    0.77950    1.000
    C159     C        0.41329    0.14322    0.69530    1.000
    C160     C        0.43263    0.18467    0.66280    1.000
    H70      H        0.44700    0.25720    0.47300    1.000
    In11     In       0.25719    0.52363    0.61594    1.000
    O71      O        0.46944    0.68676    0.60221    1.000
    O72      O        0.47218    0.72915    0.70950    1.000
    O73      O        0.29697    0.57091    0.67715    1.000
    O74      O        0.36018    0.55984    0.60735    1.000
    C161     C        0.35533    0.62237    0.69440    1.000
    C162     C        0.34760    0.68354    0.78760    1.000
    C163     C        0.33174    0.64501    0.75400    1.000
    H71      H        0.30410    0.63350    0.77190    1.000
    C164     C        0.29098    0.74025    0.82640    1.000
    C165     C        0.33093    0.69698    0.93290    1.000
    C166     C        0.32227    0.70795    0.85310    1.000
    C167     C        0.41151    0.67867    0.70060    1.000
    C168     C        0.39538    0.63974    0.66750    1.000
    H72      H        0.41170    0.62490    0.62630    1.000
    C169     C        0.45350    0.69879    0.66980    1.000
    C170     C        0.38829    0.70015    0.76130    1.000
    H73      H        0.40010    0.72630    0.78520    1.000
    C171     C        0.33689    0.58109    0.65610    1.000
    C172     C        0.28233    0.75161    0.74320    1.000
    H74      H        0.29630    0.73910    0.69670    1.000
    C173     C        0.36339    0.66454    0.95920    1.000
    H75      H        0.38140    0.64660    0.92500    1.000
    O75      O        0.21150    0.47460    0.56800    1.000
    O76      O        0.20349    0.53633    0.70300    1.000
    O77      O        0.20144    0.58045    0.59810    1.000
    C174     C        0.12096    0.56439    0.75810    1.000
    H76      H        0.13270    0.53760    0.77950    1.000
    C175     C        0.14322    0.58671    0.69530    1.000
    C176     C        0.18467    0.56737    0.66280    1.000
    H77      H        0.25720    0.55300    0.47300    1.000
    In12     In       0.74281    0.47637    0.61594    1.000
    O78      O        0.53056    0.31324    0.60221    1.000
    O79      O        0.52782    0.27085    0.70950    1.000
    O80      O        0.70303    0.42909    0.67715    1.000
    O81      O        0.63982    0.44016    0.60735    1.000
    C177     C        0.64467    0.37763    0.69440    1.000
    C178     C        0.65240    0.31646    0.78760    1.000
    C179     C        0.66826    0.35499    0.75400    1.000
    H78      H        0.69590    0.36650    0.77190    1.000
    C180     C        0.70902    0.25975    0.82640    1.000
    C181     C        0.66907    0.30302    0.93290    1.000
    C182     C        0.67773    0.29205    0.85310    1.000
    C183     C        0.58849    0.32133    0.70060    1.000
    C184     C        0.60462    0.36026    0.66750    1.000
    H79      H        0.58830    0.37510    0.62630    1.000
    C185     C        0.54650    0.30121    0.66980    1.000
    C186     C        0.61171    0.29985    0.76130    1.000
    H80      H        0.59990    0.27370    0.78520    1.000
    C187     C        0.66311    0.41891    0.65610    1.000
    C188     C        0.71767    0.24839    0.74320    1.000
    H81      H        0.70370    0.26090    0.69670    1.000
    C189     C        0.63661    0.33546    0.95920    1.000
    H82      H        0.61860    0.35340    0.92500    1.000
    O82      O        0.78850    0.52540    0.56800    1.000
    O83      O        0.79651    0.46367    0.70300    1.000
    O84      O        0.79856    0.41955    0.59810    1.000
    C190     C        0.87904    0.43561    0.75810    1.000
    H83      H        0.86730    0.46240    0.77950    1.000
    C191     C        0.85678    0.41329    0.69530    1.000
    C192     C        0.81533    0.43263    0.66280    1.000
    H84      H        0.74280    0.44700    0.47300    1.000
    In13     In       0.97637    0.24281    0.38406    1.000
    O85      O        0.81324    0.03056    0.39779    1.000
    O86      O        0.77085    0.02782    0.29050    1.000
    O87      O        0.92909    0.20303    0.32285    1.000
    O88      O        0.94016    0.13982    0.39265    1.000
    C193     C        0.87763    0.14467    0.30560    1.000
    C194     C        0.81646    0.15240    0.21240    1.000
    C195     C        0.85499    0.16826    0.24600    1.000
    H85      H        0.86650    0.19590    0.22810    1.000
    C196     C        0.75975    0.20902    0.17360    1.000
    C197     C        0.80302    0.16907    0.06710    1.000
    C198     C        0.79205    0.17773    0.14690    1.000
    C199     C        0.82133    0.08849    0.29940    1.000
    C200     C        0.86026    0.10462    0.33250    1.000
    H86      H        0.87510    0.08830    0.37370    1.000
    C201     C        0.80121    0.04650    0.33020    1.000
    C202     C        0.79985    0.11171    0.23870    1.000
    H87      H        0.77370    0.09990    0.21480    1.000
    C203     C        0.91891    0.16311    0.34390    1.000
    C204     C        0.74839    0.21767    0.25680    1.000
    H88      H        0.76090    0.20370    0.30330    1.000
    C205     C        0.83546    0.13661    0.04080    1.000
    H89      H        0.85340    0.11860    0.07500    1.000
    O89      O        0.02540    0.28850    0.43200    1.000
    O90      O        0.96367    0.29651    0.29700    1.000
    O91      O        0.91955    0.29856    0.40190    1.000
    C206     C        0.93561    0.37904    0.24190    1.000
    H90      H        0.96240    0.36730    0.22050    1.000
    C207     C        0.91329    0.35678    0.30470    1.000
    C208     C        0.93263    0.31533    0.33720    1.000
    H91      H        0.94700    0.24280    0.52700    1.000
    In14     In       0.02363    0.75719    0.38406    1.000
    O92      O        0.18676    0.96944    0.39779    1.000
    O93      O        0.22915    0.97218    0.29050    1.000
    O94      O        0.07091    0.79697    0.32285    1.000
    O95      O        0.05984    0.86018    0.39265    1.000
    C209     C        0.12237    0.85533    0.30560    1.000
    C210     C        0.18354    0.84760    0.21240    1.000
    C211     C        0.14501    0.83174    0.24600    1.000
    H92      H        0.13350    0.80410    0.22810    1.000
    C212     C        0.24025    0.79098    0.17360    1.000
    C213     C        0.19698    0.83093    0.06710    1.000
    C214     C        0.20795    0.82227    0.14690    1.000
    C215     C        0.17867    0.91151    0.29940    1.000
    C216     C        0.13974    0.89538    0.33250    1.000
    H93      H        0.12490    0.91170    0.37370    1.000
    C217     C        0.19879    0.95350    0.33020    1.000
    C218     C        0.20015    0.88829    0.23870    1.000
    H94      H        0.22630    0.90010    0.21480    1.000
    C219     C        0.08109    0.83689    0.34390    1.000
    C220     C        0.25161    0.78233    0.25680    1.000
    H95      H        0.23910    0.79630    0.30330    1.000
    C221     C        0.16454    0.86339    0.04080    1.000
    H96      H        0.14660    0.88140    0.07500    1.000
    O96      O        0.97460    0.71150    0.43200    1.000
    O97      O        0.03633    0.70349    0.29700    1.000
    O98      O        0.08045    0.70144    0.40190    1.000
    C222     C        0.06439    0.62096    0.24190    1.000
    H97      H        0.03760    0.63270    0.22050    1.000
    C223     C        0.08671    0.64322    0.30470    1.000
    C224     C        0.06737    0.68467    0.33720    1.000
    H98      H        0.05300    0.75720    0.52700    1.000
    In15     In       0.24281    0.02363    0.38406    1.000
    O99      O        0.03056    0.18676    0.39779    1.000
    O100     O        0.02782    0.22915    0.29050    1.000
    O101     O        0.20303    0.07091    0.32285    1.000
    O102     O        0.13982    0.05984    0.39265    1.000
    C225     C        0.14467    0.12237    0.30560    1.000
    C226     C        0.15240    0.18354    0.21240    1.000
    C227     C        0.16826    0.14501    0.24600    1.000
    H99      H        0.19590    0.13350    0.22810    1.000
    C228     C        0.20902    0.24025    0.17360    1.000
    C229     C        0.16907    0.19698    0.06710    1.000
    C230     C        0.17773    0.20795    0.14690    1.000
    C231     C        0.08849    0.17867    0.29940    1.000
    C232     C        0.10462    0.13974    0.33250    1.000
    H100     H        0.08830    0.12490    0.37370    1.000
    C233     C        0.04650    0.19879    0.33020    1.000
    C234     C        0.11171    0.20015    0.23870    1.000
    H101     H        0.09990    0.22630    0.21480    1.000
    C235     C        0.16311    0.08109    0.34390    1.000
    C236     C        0.21767    0.25161    0.25680    1.000
    H102     H        0.20370    0.23910    0.30330    1.000
    C237     C        0.13661    0.16454    0.04080    1.000
    H103     H        0.11860    0.14660    0.07500    1.000
    O103     O        0.28850    0.97460    0.43200    1.000
    O104     O        0.29651    0.03633    0.29700    1.000
    O105     O        0.29856    0.08045    0.40190    1.000
    C238     C        0.37904    0.06439    0.24190    1.000
    H104     H        0.36730    0.03760    0.22050    1.000
    C239     C        0.35678    0.08671    0.30470    1.000
    C240     C        0.31533    0.06737    0.33720    1.000
    H105     H        0.24280    0.05300    0.52700    1.000
    In16     In       0.75719    0.97637    0.38406    1.000
    O106     O        0.96944    0.81324    0.39779    1.000
    O107     O        0.97218    0.77085    0.29050    1.000
    O108     O        0.79697    0.92909    0.32285    1.000
    O109     O        0.86018    0.94016    0.39265    1.000
    C241     C        0.85533    0.87763    0.30560    1.000
    C242     C        0.84760    0.81646    0.21240    1.000
    C243     C        0.83174    0.85499    0.24600    1.000
    H106     H        0.80410    0.86650    0.22810    1.000
    C244     C        0.79098    0.75975    0.17360    1.000
    C245     C        0.83093    0.80302    0.06710    1.000
    C246     C        0.82227    0.79205    0.14690    1.000
    C247     C        0.91151    0.82133    0.29940    1.000
    C248     C        0.89538    0.86026    0.33250    1.000
    H107     H        0.91170    0.87510    0.37370    1.000
    C249     C        0.95350    0.80121    0.33020    1.000
    C250     C        0.88829    0.79985    0.23870    1.000
    H108     H        0.90010    0.77370    0.21480    1.000
    C251     C        0.83689    0.91891    0.34390    1.000
    C252     C        0.78233    0.74839    0.25680    1.000
    H109     H        0.79630    0.76090    0.30330    1.000
    C253     C        0.86339    0.83546    0.04080    1.000
    H110     H        0.88140    0.85340    0.07500    1.000
    O110     O        0.71150    0.02540    0.43200    1.000
    O111     O        0.70349    0.96367    0.29700    1.000
    O112     O        0.70144    0.91955    0.40190    1.000
    C254     C        0.62096    0.93561    0.24190    1.000
    H111     H        0.63270    0.96240    0.22050    1.000
    C255     C        0.64322    0.91329    0.30470    1.000
    C256     C        0.68467    0.93263    0.33720    1.000
    H112     H        0.75720    0.94700    0.52700    1.000
    Zn1      Zn       0.22694    0.27306    0.00000    1.000
    N1       N        0.45172    0.04828    0.00000    1.000
    Zn2      Zn       0.24453    0.25547    0.00000    1.000
    Zn3      Zn       0.77306    0.72694    0.00000    1.000
    N2       N        0.54828    0.95172    0.00000    1.000
    Zn4      Zn       0.75547    0.74453    0.00000    1.000
    Zn5      Zn       0.72694    0.22694    0.00000    1.000
    N3       N        0.95172    0.45172    0.00000    1.000
    Zn6      Zn       0.74453    0.24453    0.00000    1.000
    Zn7      Zn       0.27306    0.77306    0.00000    1.000
    N4       N        0.04828    0.54828    0.00000    1.000
    Zn8      Zn       0.25547    0.75547    0.00000    1.000
    N5       N        0.23476    0.26524    0.12270    1.000
    C257     C        0.41826    0.08174    0.21120    1.000
    C258     C        0.43278    0.06722    0.06610    1.000
    C259     C        0.47429    0.02571    0.17400    1.000
    C260     C        0.44300    0.05700    0.14660    1.000
    C261     C        0.40087    0.09913    0.04170    1.000
    H113     H        0.38300    0.11700    0.07620    1.000
    C262     C        0.48415    0.01585    0.25580    1.000
    H114     H        0.47090    0.02910    0.30220    1.000
    C263     C        0.37519    0.12481    0.33670    1.000
    H115     H        0.36130    0.13870    0.38180    1.000
    N6       N        0.76524    0.73476    0.12270    1.000
    C264     C        0.58174    0.91826    0.21120    1.000
    C265     C        0.56722    0.93278    0.06610    1.000
    C266     C        0.52571    0.97429    0.17400    1.000
    C267     C        0.55700    0.94300    0.14660    1.000
    C268     C        0.59913    0.90087    0.04170    1.000
    H116     H        0.61700    0.88300    0.07620    1.000
    C269     C        0.51585    0.98415    0.25580    1.000
    H117     H        0.52910    0.97090    0.30220    1.000
    C270     C        0.62481    0.87519    0.33670    1.000
    H118     H        0.63870    0.86130    0.38180    1.000
    N7       N        0.73476    0.23476    0.12270    1.000
    C271     C        0.91826    0.41826    0.21120    1.000
    C272     C        0.93278    0.43278    0.06610    1.000
    C273     C        0.97429    0.47429    0.17400    1.000
    C274     C        0.94300    0.44300    0.14660    1.000
    C275     C        0.90087    0.40087    0.04170    1.000
    H119     H        0.88300    0.38300    0.07620    1.000
    C276     C        0.98415    0.48415    0.25580    1.000
    H120     H        0.97090    0.47090    0.30220    1.000
    C277     C        0.87519    0.37519    0.33670    1.000
    H121     H        0.86130    0.36130    0.38180    1.000
    N8       N        0.26524    0.76524    0.12270    1.000
    C278     C        0.08174    0.58174    0.21120    1.000
    C279     C        0.06722    0.56722    0.06610    1.000
    C280     C        0.02571    0.52571    0.17400    1.000
    C281     C        0.05700    0.55700    0.14660    1.000
    C282     C        0.09913    0.59913    0.04170    1.000
    H122     H        0.11700    0.61700    0.07620    1.000
    C283     C        0.01585    0.51585    0.25580    1.000
    H123     H        0.02910    0.52910    0.30220    1.000
    C284     C        0.12481    0.62481    0.33670    1.000
    H124     H        0.13870    0.63870    0.38180    1.000
    N9       N        0.26524    0.76524    0.87730    1.000
    C285     C        0.08174    0.58174    0.78880    1.000
    C286     C        0.06722    0.56722    0.93390    1.000
    C287     C        0.02571    0.52571    0.82600    1.000
    C288     C        0.05700    0.55700    0.85340    1.000
    C289     C        0.09913    0.59913    0.95830    1.000
    H125     H        0.11700    0.61700    0.92380    1.000
    C290     C        0.01585    0.51585    0.74420    1.000
    H126     H        0.02910    0.52910    0.69780    1.000
    C291     C        0.12481    0.62481    0.66330    1.000
    H127     H        0.13870    0.63870    0.61820    1.000
    N10      N        0.73476    0.23476    0.87730    1.000
    C292     C        0.91826    0.41826    0.78880    1.000
    C293     C        0.93278    0.43278    0.93390    1.000
    C294     C        0.97429    0.47429    0.82600    1.000
    C295     C        0.94300    0.44300    0.85340    1.000
    C296     C        0.90087    0.40087    0.95830    1.000
    H128     H        0.88300    0.38300    0.92380    1.000
    C297     C        0.98415    0.48415    0.74420    1.000
    H129     H        0.97090    0.47090    0.69780    1.000
    C298     C        0.87519    0.37519    0.66330    1.000
    H130     H        0.86130    0.36130    0.61820    1.000
    N11      N        0.76524    0.73476    0.87730    1.000
    C299     C        0.58174    0.91826    0.78880    1.000
    C300     C        0.56722    0.93278    0.93390    1.000
    C301     C        0.52571    0.97429    0.82600    1.000
    C302     C        0.55700    0.94300    0.85340    1.000
    C303     C        0.59913    0.90087    0.95830    1.000
    H131     H        0.61700    0.88300    0.92380    1.000
    C304     C        0.51585    0.98415    0.74420    1.000
    H132     H        0.52910    0.97090    0.69780    1.000
    C305     C        0.62481    0.87519    0.66330    1.000
    H133     H        0.63870    0.86130    0.61820    1.000
    N12      N        0.23476    0.26524    0.87730    1.000
    C306     C        0.41826    0.08174    0.78880    1.000
    C307     C        0.43278    0.06722    0.93390    1.000
    C308     C        0.47429    0.02571    0.82600    1.000
    C309     C        0.44300    0.05700    0.85340    1.000
    C310     C        0.40087    0.09913    0.95830    1.000
    H134     H        0.38300    0.11700    0.92380    1.000
    C311     C        0.48415    0.01585    0.74420    1.000
    H135     H        0.47090    0.02910    0.69780    1.000
    C312     C        0.37519    0.12481    0.66330    1.000
    H136     H        0.36130    0.13870    0.61820    1.000
    O113     O        0.45737    0.27844    0.50000    1.000
    H137     H        0.42970    0.28200    0.50000    1.000
    C313     C        0.53820    0.19920    0.50000    1.000
    H138     H        0.56100    0.17740    0.50000    1.000
    Na1      Na       0.49144    0.35309    0.50000    1.000
    O114     O        0.54263    0.72156    0.50000    1.000
    H139     H        0.57030    0.71800    0.50000    1.000
    C314     C        0.46180    0.80080    0.50000    1.000
    H140     H        0.43900    0.82260    0.50000    1.000
    Na2      Na       0.50856    0.64691    0.50000    1.000
    O115     O        0.72156    0.45737    0.50000    1.000
    H141     H        0.71800    0.42970    0.50000    1.000
    C315     C        0.80080    0.53820    0.50000    1.000
    H142     H        0.82260    0.56100    0.50000    1.000
    Na3      Na       0.64691    0.49144    0.50000    1.000
    O116     O        0.27844    0.54263    0.50000    1.000
    H143     H        0.28200    0.57030    0.50000    1.000
    C316     C        0.19920    0.46180    0.50000    1.000
    H144     H        0.17740    0.43900    0.50000    1.000
    Na4      Na       0.35309    0.50856    0.50000    1.000
    O117     O        0.04263    0.77844    0.50000    1.000
    H145     H        0.07030    0.78200    0.50000    1.000
    C317     C        0.96180    0.69920    0.50000    1.000
    H146     H        0.93900    0.67740    0.50000    1.000
    Na5      Na       0.00856    0.85309    0.50000    1.000
    O118     O        0.95737    0.22156    0.50000    1.000
    H147     H        0.92970    0.21800    0.50000    1.000
    C318     C        0.03820    0.30080    0.50000    1.000
    H148     H        0.06100    0.32260    0.50000    1.000
    Na6      Na       0.99144    0.14691    0.50000    1.000
    O119     O        0.77844    0.95737    0.50000    1.000
    H149     H        0.78200    0.92970    0.50000    1.000
    C319     C        0.69920    0.03820    0.50000    1.000
    H150     H        0.67740    0.06100    0.50000    1.000
    Na7      Na       0.85309    0.99144    0.50000    1.000
    O120     O        0.22156    0.04263    0.50000    1.000
    H151     H        0.21800    0.07030    0.50000    1.000
    C320     C        0.30080    0.96180    0.50000    1.000
    H152     H        0.32260    0.93900    0.50000    1.000
    Na8      Na       0.14691    0.00856    0.50000    1.000
    N13      N        0.28382    0.31228    0.00000    1.000
    N14      N        0.71618    0.68772    0.00000    1.000
    N15      N        0.68772    0.28382    0.00000    1.000
    N16      N        0.31228    0.71618    0.00000    1.000
    N17      N        0.21618    0.81228    0.00000    1.000
    N18      N        0.78382    0.18772    0.00000    1.000
    N19      N        0.81228    0.78382    0.00000    1.000
    N20      N        0.18772    0.21618    0.00000    1.000
    N21      N        0.50000    0.00000    0.12380    1.000
    N22      N        0.00000    0.50000    0.12380    1.000
    N23      N        0.00000    0.50000    0.87620    1.000
    N24      N        0.50000    0.00000    0.87620    1.000
    Zn9      Zn       0.50927    0.00927    0.00000    1.000
    Zn10     Zn       0.49073    0.99073    0.00000    1.000
    Zn11     Zn       0.99073    0.50927    0.00000    1.000
    Zn12     Zn       0.00927    0.49073    0.00000    1.000
