data_functionalizedCrystal
_audit_creation_method	'EQeq! by Chris Wilmer'
_symmetry_space_group_name_H-M	'P1'
_symmetry_Int_Tables_number	1
_symmetry_cell_setting	triclinic
loop_
_symmetry_equiv_pos_as_xyz
  x,y,z
_cell_length_a	45.1983
_cell_length_b	45.1983
_cell_length_c	45.1983
_cell_angle_alpha	60
_cell_angle_beta	60
_cell_angle_gamma	60
loop_
_atom_site_label
_atom_site_type_symbol
_atom_site_fract_x
_atom_site_fract_y
_atom_site_fract_z
_atom_site_charge
Mof_S 	S 	0.20341	0.87929	0.46641	-0.063
Mof_C 	C 	0.22699	0.83611	0.47629	0.096
Mof_N 	N 	0.24233	0.80511	0.48441	-0.26
Mof_N 	N 	0.29036	0.7393	0.53056	-0.226
Mof_C 	C 	0.314	0.70758	0.54266	0.065
Mof_H 	H 	0.3131	0.6863	0.5441	-0.003
Mof_C 	C 	0.33987	0.70371	0.55331	-0.103
Mof_H 	H 	0.3557	0.6803	0.5623	0.065
Mof_C 	C 	0.34268	0.73402	0.55078	0.007
Mof_H 	H 	0.3605	0.7321	0.5575	0.036
Mof_C 	C 	0.31807	0.76767	0.53777	-0.048
Mof_C 	C 	0.29201	0.76867	0.52885	0.036
Mof_H 	H 	0.2747	0.7915	0.5211	0.01
Mof_N 	N 	0.23965	0.96045	0.50653	-0.228
Mof_C 	C 	0.26596	0.92784	0.51188	0.037
Mof_H 	H 	0.2873	0.9267	0.5123	0.014
Mof_C 	C 	0.26425	0.89645	0.51677	-0.05
Mof_C 	C 	0.23288	0.89782	0.516	0.007
Mof_H 	H 	0.2309	0.8767	0.5183	0.036
Mof_C 	C 	0.20549	0.93001	0.51191	-0.097
Mof_H 	H 	0.1836	0.9314	0.5124	0.063
Mof_C 	C 	0.20928	0.96106	0.50702	0.053
Mof_H 	H 	0.1899	0.9833	0.5039	-0.001
Mof_C 	C 	0.29532	0.86226	0.51988	0.132
Mof_N 	N 	0.29073	0.83163	0.52881	-0.151
Mof_C 	C 	0.32049	0.80195	0.53087	0.131
Mof_N 	N 	0.35304	0.80178	0.52426	-0.152
Mof_C 	C 	0.35487	0.83381	0.51431	0.133
Mof_N 	N 	0.327	0.86548	0.51158	-0.149
Mof_C 	C 	0.39084	0.83584	0.50356	-0.051
Mof_C 	C 	0.42066	0.8045	0.50322	0.041
Mof_H 	H 	0.4172	0.7826	0.5098	0.01
Mof_N 	N 	0.45372	0.80366	0.49412	-0.228
Mof_C 	C 	0.45834	0.83478	0.48492	0.054
Mof_H 	H 	0.4819	0.8345	0.4787	0.003
Mof_C 	C 	0.42994	0.86716	0.48422	-0.096
Mof_H 	H 	0.4341	0.8885	0.4779	0.065
Mof_C 	C 	0.39546	0.86824	0.49282	0.006
Mof_H 	H 	0.3758	0.8904	0.4914	0.038
Mof_N 	N 	0.4643	0.72058	0.534	-0.264
Mof_C 	C 	0.44592	0.7042	0.55684	0.104
Mof_S 	S 	0.41915	0.68119	0.59081	-0.062
Mof_N 	N 	0.49344	0.7567	0.54578	-0.227
Mof_C 	C 	0.52127	0.75853	0.54769	0.036
Mof_H 	H 	0.5436	0.756	0.5284	0.012
Mof_C 	C 	0.51853	0.76401	0.57659	-0.052
Mof_C 	C 	0.48473	0.76835	0.60473	0.008
Mof_H 	H 	0.4819	0.7719	0.6251	0.036
Mof_C 	C 	0.45663	0.76741	0.60251	-0.097
Mof_H 	H 	0.4335	0.7713	0.6209	0.065
Mof_C 	C 	0.46153	0.76071	0.57341	0.052
Mof_H 	H 	0.4418	0.7588	0.5728	0.002
Mof_C 	C 	0.55045	0.76439	0.57779	0.138
Mof_N 	N 	0.57916	0.76518	0.54786	-0.156
Mof_S 	S 	0.87929	0.20341	0.95089	-0.063
Mof_C 	C 	0.83611	0.22699	0.96061	0.096
Mof_N 	N 	0.80511	0.24233	0.96815	-0.26
Mof_N 	N 	0.7393	0.29036	0.93978	-0.226
Mof_C 	C 	0.70758	0.314	0.93576	0.065
Mof_H 	H 	0.6863	0.3131	0.9565	-0.003
Mof_C 	C 	0.70371	0.33987	0.90311	-0.103
Mof_H 	H 	0.6803	0.3557	0.9017	0.065
Mof_C 	C 	0.73402	0.34268	0.87252	0.007
Mof_H 	H 	0.7321	0.3605	0.8499	0.036
Mof_C 	C 	0.76767	0.31807	0.87649	-0.048
Mof_C 	C 	0.76867	0.29201	0.91047	0.036
Mof_H 	H 	0.7915	0.2747	0.9127	0.01
Mof_N 	N 	0.96045	0.23965	0.79337	-0.228
Mof_C 	C 	0.92784	0.26596	0.79432	0.037
Mof_H 	H 	0.9267	0.2873	0.7737	0.014
Mof_C 	C 	0.89645	0.26425	0.82253	-0.05
Mof_C 	C 	0.89782	0.23288	0.8533	0.007
Mof_H 	H 	0.8767	0.2309	0.8741	0.036
Mof_C 	C 	0.93001	0.20549	0.85259	-0.097
Mof_H 	H 	0.9314	0.1836	0.8726	0.063
Mof_C 	C 	0.96106	0.20928	0.82264	0.053
Mof_H 	H 	0.9833	0.1899	0.8229	-0.001
Mof_C 	C 	0.86226	0.29532	0.82254	0.132
Mof_N 	N 	0.83163	0.29073	0.84883	-0.151
Mof_C 	C 	0.80195	0.32049	0.84669	0.131
Mof_N 	N 	0.80178	0.35304	0.82092	-0.152
Mof_C 	C 	0.83381	0.35487	0.79701	0.133
Mof_N 	N 	0.86548	0.327	0.79594	-0.149
Mof_C 	C 	0.83584	0.39084	0.76976	-0.051
Mof_C 	C 	0.8045	0.42066	0.77162	0.041
Mof_H 	H 	0.7826	0.4172	0.7904	0.01
Mof_N 	N 	0.80366	0.45372	0.7485	-0.228
Mof_C 	C 	0.83478	0.45834	0.72196	0.054
Mof_H 	H 	0.8345	0.4819	0.7049	0.003
Mof_C 	C 	0.86716	0.42994	0.71868	-0.096
Mof_H 	H 	0.8885	0.4341	0.6995	0.065
Mof_C 	C 	0.86824	0.39546	0.74348	0.006
Mof_H 	H 	0.8904	0.3758	0.7424	0.038
Mof_N 	N 	0.72058	0.4643	0.78112	-0.264
Mof_C 	C 	0.7042	0.44592	0.79304	0.104
Mof_S 	S 	0.68119	0.41915	0.80885	-0.062
Mof_N 	N 	0.7567	0.49344	0.70408	-0.227
Mof_C 	C 	0.75853	0.52127	0.67251	0.036
Mof_H 	H 	0.756	0.5436	0.672	0.012
Mof_C 	C 	0.76401	0.51853	0.64087	-0.052
Mof_C 	C 	0.76835	0.48473	0.64219	0.008
Mof_H 	H 	0.7719	0.4819	0.6211	0.036
Mof_C 	C 	0.76741	0.45663	0.67345	-0.097
Mof_H 	H 	0.7713	0.4335	0.6743	0.065
Mof_C 	C 	0.76071	0.46153	0.70435	0.052
Mof_H 	H 	0.7588	0.4418	0.7266	0.002
Mof_C 	C 	0.76439	0.55045	0.60737	0.138
Mof_N 	N 	0.76518	0.57916	0.6078	-0.156
Mof_S 	S 	0.46641	0.95089	0.20341	-0.063
Mof_C 	C 	0.47629	0.96061	0.22699	0.096
Mof_N 	N 	0.48441	0.96815	0.24233	-0.26
Mof_N 	N 	0.53056	0.93978	0.29036	-0.226
Mof_C 	C 	0.54266	0.93576	0.314	0.065
Mof_H 	H 	0.5441	0.9565	0.3131	-0.003
Mof_C 	C 	0.55331	0.90311	0.33987	-0.103
Mof_H 	H 	0.5623	0.9017	0.3557	0.065
Mof_C 	C 	0.55078	0.87252	0.34268	0.007
Mof_H 	H 	0.5575	0.8499	0.3605	0.036
Mof_C 	C 	0.53777	0.87649	0.31807	-0.048
Mof_C 	C 	0.52885	0.91047	0.29201	0.036
Mof_H 	H 	0.5211	0.9127	0.2747	0.011
Mof_N 	N 	0.50653	0.79337	0.23965	-0.227
Mof_C 	C 	0.51188	0.79432	0.26596	0.038
Mof_H 	H 	0.5123	0.7737	0.2873	0.015
Mof_C 	C 	0.51677	0.82253	0.26425	-0.049
Mof_C 	C 	0.516	0.8533	0.23288	0.008
Mof_H 	H 	0.5183	0.8741	0.2309	0.037
Mof_C 	C 	0.51191	0.85259	0.20549	-0.096
Mof_H 	H 	0.5124	0.8726	0.1836	0.064
Mof_C 	C 	0.50702	0.82264	0.20928	0.054
Mof_H 	H 	0.5039	0.8229	0.1899	0
Mof_C 	C 	0.51988	0.82254	0.29532	0.133
Mof_N 	N 	0.52881	0.84883	0.29073	-0.15
Mof_C 	C 	0.53087	0.84669	0.32049	0.132
Mof_N 	N 	0.52426	0.82092	0.35304	-0.151
Mof_C 	C 	0.51431	0.79701	0.35487	0.134
Mof_N 	N 	0.51158	0.79594	0.327	-0.148
Mof_C 	C 	0.50356	0.76976	0.39084	-0.05
Mof_C 	C 	0.50322	0.77162	0.42066	0.042
Mof_H 	H 	0.5098	0.7904	0.4172	0.011
Mof_N 	N 	0.49412	0.7485	0.45372	-0.227
Mof_C 	C 	0.48492	0.72196	0.45834	0.055
Mof_H 	H 	0.4787	0.7049	0.4819	0.004
Mof_C 	C 	0.48422	0.71868	0.42994	-0.095
Mof_H 	H 	0.4779	0.6995	0.4341	0.066
Mof_C 	C 	0.49282	0.74348	0.39546	0.007
Mof_H 	H 	0.4914	0.7424	0.3758	0.039
Mof_N 	N 	0.534	0.78112	0.4643	-0.263
Mof_C 	C 	0.55684	0.79304	0.44592	0.105
Mof_S 	S 	0.59081	0.80885	0.41915	-0.061
Mof_N 	N 	0.54578	0.70408	0.49344	-0.226
Mof_C 	C 	0.54769	0.67251	0.52127	0.037
Mof_H 	H 	0.5284	0.672	0.5436	0.013
Mof_C 	C 	0.57659	0.64087	0.51853	-0.051
Mof_C 	C 	0.60473	0.64219	0.48473	0.009
Mof_H 	H 	0.6251	0.6211	0.4819	0.037
Mof_C 	C 	0.60251	0.67345	0.45663	-0.096
Mof_H 	H 	0.6209	0.6743	0.4335	0.066
Mof_C 	C 	0.57341	0.70435	0.46153	0.053
Mof_H 	H 	0.5728	0.7266	0.4418	0.003
Mof_C 	C 	0.57779	0.60737	0.55045	0.139
Mof_N 	N 	0.54786	0.6078	0.57916	-0.155
Mof_S 	S 	0.95089	0.46641	0.87929	-0.062
Mof_C 	C 	0.96061	0.47629	0.83611	0.097
Mof_N 	N 	0.96815	0.48441	0.80511	-0.259
Mof_N 	N 	0.93978	0.53056	0.7393	-0.225
Mof_C 	C 	0.93576	0.54266	0.70758	0.066
Mof_H 	H 	0.9565	0.5441	0.6863	-0.002
Mof_C 	C 	0.90311	0.55331	0.70371	-0.102
Mof_H 	H 	0.9017	0.5623	0.6803	0.066
Mof_C 	C 	0.87252	0.55078	0.73402	0.008
Mof_H 	H 	0.8499	0.5575	0.7321	0.037
Mof_C 	C 	0.87649	0.53777	0.76767	-0.047
Mof_C 	C 	0.91047	0.52885	0.76867	0.037
Mof_H 	H 	0.9127	0.5211	0.7915	0.011
Mof_N 	N 	0.79337	0.50653	0.96045	-0.227
Mof_C 	C 	0.79432	0.51188	0.92784	0.038
Mof_H 	H 	0.7737	0.5123	0.9267	0.015
Mof_C 	C 	0.82253	0.51677	0.89645	-0.049
Mof_C 	C 	0.8533	0.516	0.89782	0.008
Mof_H 	H 	0.8741	0.5183	0.8767	0.037
Mof_C 	C 	0.85259	0.51191	0.93001	-0.096
Mof_H 	H 	0.8726	0.5124	0.9314	0.064
Mof_C 	C 	0.82264	0.50702	0.96106	0.054
Mof_H 	H 	0.8229	0.5039	0.9833	0
Mof_C 	C 	0.82254	0.51988	0.86226	0.133
Mof_N 	N 	0.84883	0.52881	0.83163	-0.15
Mof_C 	C 	0.84669	0.53087	0.80195	0.132
Mof_N 	N 	0.82092	0.52426	0.80178	-0.151
Mof_C 	C 	0.79701	0.51431	0.83381	0.134
Mof_N 	N 	0.79594	0.51158	0.86548	-0.148
Mof_C 	C 	0.76976	0.50356	0.83584	-0.05
Mof_C 	C 	0.77162	0.50322	0.8045	0.042
Mof_H 	H 	0.7904	0.5098	0.7826	0.011
Mof_N 	N 	0.7485	0.49412	0.80366	-0.227
Mof_C 	C 	0.72196	0.48492	0.83478	0.055
Mof_H 	H 	0.7049	0.4787	0.8345	0.004
Mof_C 	C 	0.71868	0.48422	0.86716	-0.095
Mof_H 	H 	0.6995	0.4779	0.8885	0.066
Mof_C 	C 	0.74348	0.49282	0.86824	0.007
Mof_H 	H 	0.7424	0.4914	0.8904	0.039
Mof_N 	N 	0.78112	0.534	0.72058	-0.263
Mof_C 	C 	0.79304	0.55684	0.7042	0.105
Mof_S 	S 	0.80885	0.59081	0.68119	-0.061
Mof_N 	N 	0.70408	0.54578	0.7567	-0.226
Mof_C 	C 	0.67251	0.54769	0.75853	0.037
Mof_H 	H 	0.672	0.5284	0.756	0.013
Mof_C 	C 	0.64087	0.57659	0.76401	-0.051
Mof_C 	C 	0.64219	0.60473	0.76835	0.009
Mof_H 	H 	0.6211	0.6251	0.7719	0.037
Mof_C 	C 	0.67345	0.60251	0.76741	-0.096
Mof_H 	H 	0.6743	0.6209	0.7713	0.066
Mof_C 	C 	0.70435	0.57341	0.76071	0.053
Mof_H 	H 	0.7266	0.5728	0.7588	0.003
Mof_C 	C 	0.60737	0.57779	0.76439	0.139
Mof_N 	N 	0.6078	0.54786	0.76518	-0.155
Mof_S 	S 	0.46641	0.20341	0.87929	-0.062
Mof_C 	C 	0.47629	0.22699	0.83611	0.097
Mof_N 	N 	0.48441	0.24233	0.80511	-0.259
Mof_N 	N 	0.53056	0.29036	0.7393	-0.225
Mof_C 	C 	0.54266	0.314	0.70758	0.066
Mof_H 	H 	0.5441	0.3131	0.6863	-0.002
Mof_C 	C 	0.55331	0.33987	0.70371	-0.102
Mof_H 	H 	0.5623	0.3557	0.6803	0.066
Mof_C 	C 	0.55078	0.34268	0.73402	0.008
Mof_H 	H 	0.5575	0.3605	0.7321	0.037
Mof_C 	C 	0.53777	0.31807	0.76767	-0.047
Mof_C 	C 	0.52885	0.29201	0.76867	0.037
Mof_H 	H 	0.5211	0.2747	0.7915	0.011
Mof_N 	N 	0.50653	0.23965	0.96045	-0.227
Mof_C 	C 	0.51188	0.26596	0.92784	0.038
Mof_H 	H 	0.5123	0.2873	0.9267	0.015
Mof_C 	C 	0.51677	0.26425	0.89645	-0.049
Mof_C 	C 	0.516	0.23288	0.89782	0.008
Mof_H 	H 	0.5183	0.2309	0.8767	0.037
Mof_C 	C 	0.51191	0.20549	0.93001	-0.096
Mof_H 	H 	0.5124	0.1836	0.9314	0.064
Mof_C 	C 	0.50702	0.20928	0.96106	0.054
Mof_H 	H 	0.5039	0.1899	0.9833	0
Mof_C 	C 	0.51988	0.29532	0.86226	0.133
Mof_N 	N 	0.52881	0.29073	0.83163	-0.15
Mof_C 	C 	0.53087	0.32049	0.80195	0.132
Mof_N 	N 	0.52426	0.35304	0.80178	-0.151
Mof_C 	C 	0.51431	0.35487	0.83381	0.134
Mof_N 	N 	0.51158	0.327	0.86548	-0.148
Mof_C 	C 	0.50356	0.39084	0.83584	-0.05
Mof_C 	C 	0.50322	0.42066	0.8045	0.042
Mof_H 	H 	0.5098	0.4172	0.7826	0.011
Mof_N 	N 	0.49412	0.45372	0.80366	-0.227
Mof_C 	C 	0.48492	0.45834	0.83478	0.055
Mof_H 	H 	0.4787	0.4819	0.8345	0.004
Mof_C 	C 	0.48422	0.42994	0.86716	-0.095
Mof_H 	H 	0.4779	0.4341	0.8885	0.066
Mof_C 	C 	0.49282	0.39546	0.86824	0.007
Mof_H 	H 	0.4914	0.3758	0.8904	0.039
Mof_N 	N 	0.534	0.4643	0.72058	-0.263
Mof_C 	C 	0.55684	0.44592	0.7042	0.105
Mof_S 	S 	0.59081	0.41915	0.68119	-0.061
Mof_N 	N 	0.54578	0.49344	0.7567	-0.226
Mof_C 	C 	0.54769	0.52127	0.75853	0.037
Mof_H 	H 	0.5284	0.5436	0.756	0.013
Mof_C 	C 	0.57659	0.51853	0.76401	-0.051
Mof_C 	C 	0.60473	0.48473	0.76835	0.009
Mof_H 	H 	0.6251	0.4819	0.7719	0.037
Mof_C 	C 	0.60251	0.45663	0.76741	-0.096
Mof_H 	H 	0.6209	0.4335	0.7713	0.066
Mof_C 	C 	0.57341	0.46153	0.76071	0.053
Mof_H 	H 	0.5728	0.4418	0.7588	0.003
Mof_C 	C 	0.57779	0.55045	0.76439	0.139
Mof_N 	N 	0.54786	0.57916	0.76518	-0.155
Mof_S 	S 	0.95089	0.87929	0.20341	-0.062
Mof_C 	C 	0.96061	0.83611	0.22699	0.097
Mof_N 	N 	0.96815	0.80511	0.24233	-0.259
Mof_N 	N 	0.93978	0.7393	0.29036	-0.225
Mof_C 	C 	0.93576	0.70758	0.314	0.066
Mof_H 	H 	0.9565	0.6863	0.3131	-0.002
Mof_C 	C 	0.90311	0.70371	0.33987	-0.102
Mof_H 	H 	0.9017	0.6803	0.3557	0.066
Mof_C 	C 	0.87252	0.73402	0.34268	0.008
Mof_H 	H 	0.8499	0.7321	0.3605	0.037
Mof_C 	C 	0.87649	0.76767	0.31807	-0.047
Mof_C 	C 	0.91047	0.76867	0.29201	0.037
Mof_H 	H 	0.9127	0.7915	0.2747	0.011
Mof_N 	N 	0.79337	0.96045	0.23965	-0.227
Mof_C 	C 	0.79432	0.92784	0.26596	0.038
Mof_H 	H 	0.7737	0.9267	0.2873	0.015
Mof_C 	C 	0.82253	0.89645	0.26425	-0.049
Mof_C 	C 	0.8533	0.89782	0.23288	0.008
Mof_H 	H 	0.8741	0.8767	0.2309	0.037
Mof_C 	C 	0.85259	0.93001	0.20549	-0.096
Mof_H 	H 	0.8726	0.9314	0.1836	0.064
Mof_C 	C 	0.82264	0.96106	0.20928	0.054
Mof_H 	H 	0.8229	0.9833	0.1899	0
Mof_C 	C 	0.82254	0.86226	0.29532	0.133
Mof_N 	N 	0.84883	0.83163	0.29073	-0.15
Mof_C 	C 	0.84669	0.80195	0.32049	0.132
Mof_N 	N 	0.82092	0.80178	0.35304	-0.151
Mof_C 	C 	0.79701	0.83381	0.35487	0.134
Mof_N 	N 	0.79594	0.86548	0.327	-0.148
Mof_C 	C 	0.76976	0.83584	0.39084	-0.05
Mof_C 	C 	0.77162	0.8045	0.42066	0.042
Mof_H 	H 	0.7904	0.7826	0.4172	0.011
Mof_N 	N 	0.7485	0.80366	0.45372	-0.227
Mof_C 	C 	0.72196	0.83478	0.45834	0.055
Mof_H 	H 	0.7049	0.8345	0.4819	0.004
Mof_C 	C 	0.71868	0.86716	0.42994	-0.095
Mof_H 	H 	0.6995	0.8885	0.4341	0.066
Mof_C 	C 	0.74348	0.86824	0.39546	0.007
Mof_H 	H 	0.7424	0.8904	0.3758	0.039
Mof_N 	N 	0.78112	0.72058	0.4643	-0.263
Mof_C 	C 	0.79304	0.7042	0.44592	0.105
Mof_S 	S 	0.80885	0.68119	0.41915	-0.061
Mof_N 	N 	0.70408	0.7567	0.49344	-0.226
Mof_C 	C 	0.67251	0.75853	0.52127	0.037
Mof_H 	H 	0.672	0.756	0.5436	0.013
Mof_C 	C 	0.64087	0.76401	0.51853	-0.051
Mof_C 	C 	0.64219	0.76835	0.48473	0.009
Mof_H 	H 	0.6211	0.7719	0.4819	0.037
Mof_C 	C 	0.67345	0.76741	0.45663	-0.096
Mof_H 	H 	0.6743	0.7713	0.4335	0.066
Mof_C 	C 	0.70435	0.76071	0.46153	0.053
Mof_H 	H 	0.7266	0.7588	0.4418	0.003
Mof_C 	C 	0.60737	0.76439	0.55045	0.139
Mof_N 	N 	0.6078	0.76518	0.57916	-0.155
Mof_S 	S 	0.20341	0.46641	0.95089	-0.062
Mof_C 	C 	0.22699	0.47629	0.96061	0.097
Mof_N 	N 	0.24233	0.48441	0.96815	-0.259
Mof_N 	N 	0.29036	0.53056	0.93978	-0.225
Mof_C 	C 	0.314	0.54266	0.93576	0.066
Mof_H 	H 	0.3131	0.5441	0.9565	-0.002
Mof_C 	C 	0.33987	0.55331	0.90311	-0.102
Mof_H 	H 	0.3557	0.5623	0.9017	0.066
Mof_C 	C 	0.34268	0.55078	0.87252	0.008
Mof_H 	H 	0.3605	0.5575	0.8499	0.037
Mof_C 	C 	0.31807	0.53777	0.87649	-0.047
Mof_C 	C 	0.29201	0.52885	0.91047	0.037
Mof_H 	H 	0.2747	0.5211	0.9127	0.011
Mof_N 	N 	0.23965	0.50653	0.79337	-0.227
Mof_C 	C 	0.26596	0.51188	0.79432	0.038
Mof_H 	H 	0.2873	0.5123	0.7737	0.015
Mof_C 	C 	0.26425	0.51677	0.82253	-0.049
Mof_C 	C 	0.23288	0.516	0.8533	0.008
Mof_H 	H 	0.2309	0.5183	0.8741	0.037
Mof_C 	C 	0.20549	0.51191	0.85259	-0.096
Mof_H 	H 	0.1836	0.5124	0.8726	0.064
Mof_C 	C 	0.20928	0.50702	0.82264	0.054
Mof_H 	H 	0.1899	0.5039	0.8229	0
Mof_C 	C 	0.29532	0.51988	0.82254	0.133
Mof_N 	N 	0.29073	0.52881	0.84883	-0.15
Mof_C 	C 	0.32049	0.53087	0.84669	0.132
Mof_N 	N 	0.35304	0.52426	0.82092	-0.151
Mof_C 	C 	0.35487	0.51431	0.79701	0.134
Mof_N 	N 	0.327	0.51158	0.79594	-0.148
Mof_C 	C 	0.39084	0.50356	0.76976	-0.05
Mof_C 	C 	0.42066	0.50322	0.77162	0.042
Mof_H 	H 	0.4172	0.5098	0.7904	0.011
Mof_N 	N 	0.45372	0.49412	0.7485	-0.227
Mof_C 	C 	0.45834	0.48492	0.72196	0.055
Mof_H 	H 	0.4819	0.4787	0.7049	0.004
Mof_C 	C 	0.42994	0.48422	0.71868	-0.095
Mof_H 	H 	0.4341	0.4779	0.6995	0.066
Mof_C 	C 	0.39546	0.49282	0.74348	0.007
Mof_H 	H 	0.3758	0.4914	0.7424	0.039
Mof_N 	N 	0.4643	0.534	0.78112	-0.263
Mof_C 	C 	0.44592	0.55684	0.79304	0.105
Mof_S 	S 	0.41915	0.59081	0.80885	-0.061
Mof_N 	N 	0.49344	0.54578	0.70408	-0.226
Mof_C 	C 	0.52127	0.54769	0.67251	0.037
Mof_H 	H 	0.5436	0.5284	0.672	0.013
Mof_C 	C 	0.51853	0.57659	0.64087	-0.051
Mof_C 	C 	0.48473	0.60473	0.64219	0.009
Mof_H 	H 	0.4819	0.6251	0.6211	0.037
Mof_C 	C 	0.45663	0.60251	0.67345	-0.096
Mof_H 	H 	0.4335	0.6209	0.6743	0.066
Mof_C 	C 	0.46153	0.57341	0.70435	0.053
Mof_H 	H 	0.4418	0.5728	0.7266	0.003
Mof_C 	C 	0.55045	0.57779	0.60737	0.139
Mof_N 	N 	0.57916	0.54786	0.6078	-0.155
Mof_S 	S 	0.87929	0.95089	0.46641	-0.062
Mof_C 	C 	0.83611	0.96061	0.47629	0.097
Mof_N 	N 	0.80511	0.96815	0.48441	-0.259
Mof_N 	N 	0.7393	0.93978	0.53056	-0.225
Mof_C 	C 	0.70758	0.93576	0.54266	0.066
Mof_H 	H 	0.6863	0.9565	0.5441	-0.002
Mof_C 	C 	0.70371	0.90311	0.55331	-0.102
Mof_H 	H 	0.6803	0.9017	0.5623	0.066
Mof_C 	C 	0.73402	0.87252	0.55078	0.008
Mof_H 	H 	0.7321	0.8499	0.5575	0.037
Mof_C 	C 	0.76767	0.87649	0.53777	-0.047
Mof_C 	C 	0.76867	0.91047	0.52885	0.037
Mof_H 	H 	0.7915	0.9127	0.5211	0.011
Mof_N 	N 	0.96045	0.79337	0.50653	-0.227
Mof_C 	C 	0.92784	0.79432	0.51188	0.038
Mof_H 	H 	0.9267	0.7737	0.5123	0.015
Mof_C 	C 	0.89645	0.82253	0.51677	-0.049
Mof_C 	C 	0.89782	0.8533	0.516	0.008
Mof_H 	H 	0.8767	0.8741	0.5183	0.037
Mof_C 	C 	0.93001	0.85259	0.51191	-0.096
Mof_H 	H 	0.9314	0.8726	0.5124	0.064
Mof_C 	C 	0.96106	0.82264	0.50702	0.054
Mof_H 	H 	0.9833	0.8229	0.5039	0
Mof_C 	C 	0.86226	0.82254	0.51988	0.133
Mof_N 	N 	0.83163	0.84883	0.52881	-0.15
Mof_C 	C 	0.80195	0.84669	0.53087	0.132
Mof_N 	N 	0.80178	0.82092	0.52426	-0.151
Mof_C 	C 	0.83381	0.79701	0.51431	0.134
Mof_N 	N 	0.86548	0.79594	0.51158	-0.148
Mof_C 	C 	0.83584	0.76976	0.50356	-0.05
Mof_C 	C 	0.8045	0.77162	0.50322	0.042
Mof_H 	H 	0.7826	0.7904	0.5098	0.011
Mof_N 	N 	0.80366	0.7485	0.49412	-0.227
Mof_C 	C 	0.83478	0.72196	0.48492	0.055
Mof_H 	H 	0.8345	0.7049	0.4787	0.004
Mof_C 	C 	0.86716	0.71868	0.48422	-0.095
Mof_H 	H 	0.8885	0.6995	0.4779	0.066
Mof_C 	C 	0.86824	0.74348	0.49282	0.007
Mof_H 	H 	0.8904	0.7424	0.4914	0.039
Mof_N 	N 	0.72058	0.78112	0.534	-0.263
Mof_C 	C 	0.7042	0.79304	0.55684	0.105
Mof_S 	S 	0.68119	0.80885	0.59081	-0.061
Mof_N 	N 	0.7567	0.70408	0.54578	-0.226
Mof_C 	C 	0.75853	0.67251	0.54769	0.037
Mof_H 	H 	0.756	0.672	0.5284	0.013
Mof_C 	C 	0.76401	0.64087	0.57659	-0.051
Mof_C 	C 	0.76835	0.64219	0.60473	0.009
Mof_H 	H 	0.7719	0.6211	0.6251	0.037
Mof_C 	C 	0.76741	0.67345	0.60251	-0.096
Mof_H 	H 	0.7713	0.6743	0.6209	0.066
Mof_C 	C 	0.76071	0.70435	0.57341	0.053
Mof_H 	H 	0.7588	0.7266	0.5728	0.003
Mof_C 	C 	0.76439	0.60737	0.57779	0.139
Mof_N 	N 	0.76518	0.6078	0.54786	-0.155
Mof_S 	S 	0.87929	0.46641	0.20341	-0.062
Mof_C 	C 	0.83611	0.47629	0.22699	0.097
Mof_N 	N 	0.80511	0.48441	0.24233	-0.259
Mof_N 	N 	0.7393	0.53056	0.29036	-0.225
Mof_C 	C 	0.70758	0.54266	0.314	0.066
Mof_H 	H 	0.6863	0.5441	0.3131	-0.002
Mof_C 	C 	0.70371	0.55331	0.33987	-0.102
Mof_H 	H 	0.6803	0.5623	0.3557	0.066
Mof_C 	C 	0.73402	0.55078	0.34268	0.008
Mof_H 	H 	0.7321	0.5575	0.3605	0.037
Mof_C 	C 	0.76767	0.53777	0.31807	-0.047
Mof_C 	C 	0.76867	0.52885	0.29201	0.037
Mof_H 	H 	0.7915	0.5211	0.2747	0.011
Mof_N 	N 	0.96045	0.50653	0.23965	-0.227
Mof_C 	C 	0.92784	0.51188	0.26596	0.038
Mof_H 	H 	0.9267	0.5123	0.2873	0.015
Mof_C 	C 	0.89645	0.51677	0.26425	-0.049
Mof_C 	C 	0.89782	0.516	0.23288	0.008
Mof_H 	H 	0.8767	0.5183	0.2309	0.037
Mof_C 	C 	0.93001	0.51191	0.20549	-0.096
Mof_H 	H 	0.9314	0.5124	0.1836	0.064
Mof_C 	C 	0.96106	0.50702	0.20928	0.054
Mof_H 	H 	0.9833	0.5039	0.1899	0
Mof_C 	C 	0.86226	0.51988	0.29532	0.133
Mof_N 	N 	0.83163	0.52881	0.29073	-0.15
Mof_C 	C 	0.80195	0.53087	0.32049	0.132
Mof_N 	N 	0.80178	0.52426	0.35304	-0.151
Mof_C 	C 	0.83381	0.51431	0.35487	0.134
Mof_N 	N 	0.86548	0.51158	0.327	-0.148
Mof_C 	C 	0.83584	0.50356	0.39084	-0.05
Mof_C 	C 	0.8045	0.50322	0.42066	0.042
Mof_H 	H 	0.7826	0.5098	0.4172	0.011
Mof_N 	N 	0.80366	0.49412	0.45372	-0.227
Mof_C 	C 	0.83478	0.48492	0.45834	0.055
Mof_H 	H 	0.8345	0.4787	0.4819	0.004
Mof_C 	C 	0.86716	0.48422	0.42994	-0.095
Mof_H 	H 	0.8885	0.4779	0.4341	0.066
Mof_C 	C 	0.86824	0.49282	0.39546	0.007
Mof_H 	H 	0.8904	0.4914	0.3758	0.039
Mof_N 	N 	0.72058	0.534	0.4643	-0.263
Mof_C 	C 	0.7042	0.55684	0.44592	0.105
Mof_S 	S 	0.68119	0.59081	0.41915	-0.061
Mof_N 	N 	0.7567	0.54578	0.49344	-0.226
Mof_C 	C 	0.75853	0.54769	0.52127	0.037
Mof_H 	H 	0.756	0.5284	0.5436	0.013
Mof_C 	C 	0.76401	0.57659	0.51853	-0.051
Mof_C 	C 	0.76835	0.60473	0.48473	0.009
Mof_H 	H 	0.7719	0.6251	0.4819	0.037
Mof_C 	C 	0.76741	0.60251	0.45663	-0.096
Mof_H 	H 	0.7713	0.6209	0.4335	0.066
Mof_C 	C 	0.76071	0.57341	0.46153	0.053
Mof_H 	H 	0.7588	0.5728	0.4418	0.003
Mof_C 	C 	0.76439	0.57779	0.55045	0.139
Mof_N 	N 	0.76518	0.54786	0.57916	-0.155
Mof_S 	S 	0.20341	0.95089	0.87929	-0.062
Mof_C 	C 	0.22699	0.96061	0.83611	0.097
Mof_N 	N 	0.24233	0.96815	0.80511	-0.259
Mof_N 	N 	0.29036	0.93978	0.7393	-0.225
Mof_C 	C 	0.314	0.93576	0.70758	0.066
Mof_H 	H 	0.3131	0.9565	0.6863	-0.002
Mof_C 	C 	0.33987	0.90311	0.70371	-0.102
Mof_H 	H 	0.3557	0.9017	0.6803	0.066
Mof_C 	C 	0.34268	0.87252	0.73402	0.008
Mof_H 	H 	0.3605	0.8499	0.7321	0.037
Mof_C 	C 	0.31807	0.87649	0.76767	-0.047
Mof_C 	C 	0.29201	0.91047	0.76867	0.037
Mof_H 	H 	0.2747	0.9127	0.7915	0.011
Mof_N 	N 	0.23965	0.79337	0.96045	-0.227
Mof_C 	C 	0.26596	0.79432	0.92784	0.038
Mof_H 	H 	0.2873	0.7737	0.9267	0.015
Mof_C 	C 	0.26425	0.82253	0.89645	-0.049
Mof_C 	C 	0.23288	0.8533	0.89782	0.008
Mof_H 	H 	0.2309	0.8741	0.8767	0.037
Mof_C 	C 	0.20549	0.85259	0.93001	-0.096
Mof_H 	H 	0.1836	0.8726	0.9314	0.064
Mof_C 	C 	0.20928	0.82264	0.96106	0.054
Mof_H 	H 	0.1899	0.8229	0.9833	0
Mof_C 	C 	0.29532	0.82254	0.86226	0.133
Mof_N 	N 	0.29073	0.84883	0.83163	-0.15
Mof_C 	C 	0.32049	0.84669	0.80195	0.132
Mof_N 	N 	0.35304	0.82092	0.80178	-0.151
Mof_C 	C 	0.35487	0.79701	0.83381	0.134
Mof_N 	N 	0.327	0.79594	0.86548	-0.148
Mof_C 	C 	0.39084	0.76976	0.83584	-0.05
Mof_C 	C 	0.42066	0.77162	0.8045	0.042
Mof_H 	H 	0.4172	0.7904	0.7826	0.011
Mof_N 	N 	0.45372	0.7485	0.80366	-0.227
Mof_C 	C 	0.45834	0.72196	0.83478	0.055
Mof_H 	H 	0.4819	0.7049	0.8345	0.004
Mof_C 	C 	0.42994	0.71868	0.86716	-0.095
Mof_H 	H 	0.4341	0.6995	0.8885	0.066
Mof_C 	C 	0.39546	0.74348	0.86824	0.007
Mof_H 	H 	0.3758	0.7424	0.8904	0.039
Mof_N 	N 	0.4643	0.78112	0.72058	-0.263
Mof_C 	C 	0.44592	0.79304	0.7042	0.105
Mof_S 	S 	0.41915	0.80885	0.68119	-0.061
Mof_N 	N 	0.49344	0.70408	0.7567	-0.226
Mof_C 	C 	0.52127	0.67251	0.75853	0.037
Mof_H 	H 	0.5436	0.672	0.756	0.013
Mof_C 	C 	0.51853	0.64087	0.76401	-0.051
Mof_C 	C 	0.48473	0.64219	0.76835	0.009
Mof_H 	H 	0.4819	0.6211	0.7719	0.037
Mof_C 	C 	0.45663	0.67345	0.76741	-0.096
Mof_H 	H 	0.4335	0.6743	0.7713	0.066
Mof_C 	C 	0.46153	0.70435	0.76071	0.053
Mof_H 	H 	0.4418	0.7266	0.7588	0.003
Mof_C 	C 	0.55045	0.60737	0.76439	0.139
Mof_N 	N 	0.57916	0.6078	0.76518	-0.155
Mof_S 	S 	0.95089	0.20341	0.46641	-0.062
Mof_C 	C 	0.96061	0.22699	0.47629	0.097
Mof_N 	N 	0.96815	0.24233	0.48441	-0.259
Mof_N 	N 	0.93978	0.29036	0.53056	-0.225
Mof_C 	C 	0.93576	0.314	0.54266	0.066
Mof_H 	H 	0.9565	0.3131	0.5441	-0.002
Mof_C 	C 	0.90311	0.33987	0.55331	-0.102
Mof_H 	H 	0.9017	0.3557	0.5623	0.066
Mof_C 	C 	0.87252	0.34268	0.55078	0.008
Mof_H 	H 	0.8499	0.3605	0.5575	0.037
Mof_C 	C 	0.87649	0.31807	0.53777	-0.047
Mof_C 	C 	0.91047	0.29201	0.52885	0.037
Mof_H 	H 	0.9127	0.2747	0.5211	0.011
Mof_N 	N 	0.79337	0.23965	0.50653	-0.227
Mof_C 	C 	0.79432	0.26596	0.51188	0.038
Mof_H 	H 	0.7737	0.2873	0.5123	0.015
Mof_C 	C 	0.82253	0.26425	0.51677	-0.049
Mof_C 	C 	0.8533	0.23288	0.516	0.008
Mof_H 	H 	0.8741	0.2309	0.5183	0.037
Mof_C 	C 	0.85259	0.20549	0.51191	-0.096
Mof_H 	H 	0.8726	0.1836	0.5124	0.064
Mof_C 	C 	0.82264	0.20928	0.50702	0.054
Mof_H 	H 	0.8229	0.1899	0.5039	0
Mof_C 	C 	0.82254	0.29532	0.51988	0.133
Mof_N 	N 	0.84883	0.29073	0.52881	-0.15
Mof_C 	C 	0.84669	0.32049	0.53087	0.132
Mof_N 	N 	0.82092	0.35304	0.52426	-0.151
Mof_C 	C 	0.79701	0.35487	0.51431	0.134
Mof_N 	N 	0.79594	0.327	0.51158	-0.148
Mof_C 	C 	0.76976	0.39084	0.50356	-0.05
Mof_C 	C 	0.77162	0.42066	0.50322	0.042
Mof_H 	H 	0.7904	0.4172	0.5098	0.011
Mof_N 	N 	0.7485	0.45372	0.49412	-0.227
Mof_C 	C 	0.72196	0.45834	0.48492	0.055
Mof_H 	H 	0.7049	0.4819	0.4787	0.004
Mof_C 	C 	0.71868	0.42994	0.48422	-0.095
Mof_H 	H 	0.6995	0.4341	0.4779	0.066
Mof_C 	C 	0.74348	0.39546	0.49282	0.007
Mof_H 	H 	0.7424	0.3758	0.4914	0.039
Mof_N 	N 	0.78112	0.4643	0.534	-0.263
Mof_C 	C 	0.79304	0.44592	0.55684	0.105
Mof_S 	S 	0.80885	0.41915	0.59081	-0.061
Mof_N 	N 	0.70408	0.49344	0.54578	-0.226
Mof_C 	C 	0.67251	0.52127	0.54769	0.037
Mof_H 	H 	0.672	0.5436	0.5284	0.013
Mof_C 	C 	0.64087	0.51853	0.57659	-0.051
Mof_C 	C 	0.64219	0.48473	0.60473	0.009
Mof_H 	H 	0.6211	0.4819	0.6251	0.037
Mof_C 	C 	0.67345	0.45663	0.60251	-0.096
Mof_H 	H 	0.6743	0.4335	0.6209	0.066
Mof_C 	C 	0.70435	0.46153	0.57341	0.053
Mof_H 	H 	0.7266	0.4418	0.5728	0.003
Mof_C 	C 	0.60737	0.55045	0.57779	0.139
Mof_N 	N 	0.6078	0.57916	0.54786	-0.155
Mof_S 	S 	0.46641	0.87929	0.95089	-0.062
Mof_C 	C 	0.47629	0.83611	0.96061	0.097
Mof_N 	N 	0.48441	0.80511	0.96815	-0.259
Mof_N 	N 	0.53056	0.7393	0.93978	-0.225
Mof_C 	C 	0.54266	0.70758	0.93576	0.066
Mof_H 	H 	0.5441	0.6863	0.9565	-0.002
Mof_C 	C 	0.55331	0.70371	0.90311	-0.102
Mof_H 	H 	0.5623	0.6803	0.9017	0.066
Mof_C 	C 	0.55078	0.73402	0.87252	0.008
Mof_H 	H 	0.5575	0.7321	0.8499	0.037
Mof_C 	C 	0.53777	0.76767	0.87649	-0.047
Mof_C 	C 	0.52885	0.76867	0.91047	0.037
Mof_H 	H 	0.5211	0.7915	0.9127	0.011
Mof_N 	N 	0.50653	0.96045	0.79337	-0.227
Mof_C 	C 	0.51188	0.92784	0.79432	0.038
Mof_H 	H 	0.5123	0.9267	0.7737	0.015
Mof_C 	C 	0.51677	0.89645	0.82253	-0.049
Mof_C 	C 	0.516	0.89782	0.8533	0.008
Mof_H 	H 	0.5183	0.8767	0.8741	0.037
Mof_C 	C 	0.51191	0.93001	0.85259	-0.096
Mof_H 	H 	0.5124	0.9314	0.8726	0.064
Mof_C 	C 	0.50702	0.96106	0.82264	0.054
Mof_H 	H 	0.5039	0.9833	0.8229	0
Mof_C 	C 	0.51988	0.86226	0.82254	0.133
Mof_N 	N 	0.52881	0.83163	0.84883	-0.15
Mof_C 	C 	0.53087	0.80195	0.84669	0.132
Mof_N 	N 	0.52426	0.80178	0.82092	-0.151
Mof_C 	C 	0.51431	0.83381	0.79701	0.134
Mof_N 	N 	0.51158	0.86548	0.79594	-0.148
Mof_C 	C 	0.50356	0.83584	0.76976	-0.05
Mof_C 	C 	0.50322	0.8045	0.77162	0.042
Mof_H 	H 	0.5098	0.7826	0.7904	0.011
Mof_N 	N 	0.49412	0.80366	0.7485	-0.227
Mof_C 	C 	0.48492	0.83478	0.72196	0.055
Mof_H 	H 	0.4787	0.8345	0.7049	0.004
Mof_C 	C 	0.48422	0.86716	0.71868	-0.095
Mof_H 	H 	0.4779	0.8885	0.6995	0.066
Mof_C 	C 	0.49282	0.86824	0.74348	0.007
Mof_H 	H 	0.4914	0.8904	0.7424	0.039
Mof_N 	N 	0.534	0.72058	0.78112	-0.263
Mof_C 	C 	0.55684	0.7042	0.79304	0.105
Mof_S 	S 	0.59081	0.68119	0.80885	-0.061
Mof_N 	N 	0.54578	0.7567	0.70408	-0.226
Mof_C 	C 	0.54769	0.75853	0.67251	0.037
Mof_H 	H 	0.5284	0.756	0.672	0.013
Mof_C 	C 	0.57659	0.76401	0.64087	-0.051
Mof_C 	C 	0.60473	0.76835	0.64219	0.009
Mof_H 	H 	0.6251	0.7719	0.6211	0.037
Mof_C 	C 	0.60251	0.76741	0.67345	-0.096
Mof_H 	H 	0.6209	0.7713	0.6743	0.066
Mof_C 	C 	0.57341	0.76071	0.70435	0.053
Mof_H 	H 	0.5728	0.7588	0.7266	0.003
Mof_C 	C 	0.57779	0.76439	0.60737	0.139
Mof_N 	N 	0.54786	0.76518	0.6078	-0.155
Mof_S 	S 	0.29659	0.62071	0.54911	-0.063
Mof_C 	C 	0.27301	0.66389	0.53939	0.097
Mof_N 	N 	0.25767	0.69489	0.53185	-0.259
Mof_N 	N 	0.20964	0.7607	0.56022	-0.225
Mof_C 	C 	0.186	0.79242	0.56424	0.066
Mof_H 	H 	0.1869	0.8137	0.5435	-0.002
Mof_C 	C 	0.16013	0.79629	0.59689	-0.102
Mof_H 	H 	0.1443	0.8197	0.5983	0.066
Mof_C 	C 	0.15732	0.76598	0.62748	0.008
Mof_H 	H 	0.1395	0.7679	0.6501	0.037
Mof_C 	C 	0.18193	0.73233	0.62351	-0.047
Mof_C 	C 	0.20799	0.73133	0.58953	0.037
Mof_H 	H 	0.2253	0.7085	0.5873	0.011
Mof_N 	N 	0.26035	0.53955	0.70663	-0.227
Mof_C 	C 	0.23404	0.57216	0.70568	0.038
Mof_H 	H 	0.2127	0.5733	0.7263	0.015
Mof_C 	C 	0.23575	0.60355	0.67747	-0.049
Mof_C 	C 	0.26712	0.60218	0.6467	0.008
Mof_H 	H 	0.2691	0.6233	0.6259	0.037
Mof_C 	C 	0.29451	0.56999	0.64741	-0.096
Mof_H 	H 	0.3164	0.5686	0.6274	0.064
Mof_C 	C 	0.29072	0.53894	0.67736	0.054
Mof_H 	H 	0.3101	0.5167	0.6771	0
Mof_C 	C 	0.20468	0.63774	0.67746	0.133
Mof_N 	N 	0.20927	0.66837	0.65117	-0.15
Mof_C 	C 	0.17951	0.69805	0.65331	0.132
Mof_N 	N 	0.14696	0.69822	0.67908	-0.151
Mof_C 	C 	0.14513	0.66619	0.70299	0.134
Mof_N 	N 	0.173	0.63452	0.70406	-0.148
Mof_C 	C 	0.10916	0.66416	0.73024	-0.05
Mof_C 	C 	0.07934	0.6955	0.72838	0.042
Mof_H 	H 	0.0828	0.7174	0.7096	0.011
Mof_N 	N 	0.04628	0.69634	0.7515	-0.227
Mof_C 	C 	0.04166	0.66522	0.77804	0.055
Mof_H 	H 	0.0181	0.6655	0.7951	0.004
Mof_C 	C 	0.07006	0.63284	0.78132	-0.095
Mof_H 	H 	0.0659	0.6115	0.8005	0.066
Mof_C 	C 	0.10454	0.63176	0.75652	0.007
Mof_H 	H 	0.1242	0.6096	0.7576	0.039
Mof_N 	N 	0.0357	0.77942	0.71888	-0.263
Mof_C 	C 	0.05408	0.7958	0.70696	0.105
Mof_S 	S 	0.08085	0.81881	0.69115	-0.061
Mof_N 	N 	0.00656	0.7433	0.79592	-0.226
Mof_C 	C 	0.97873	0.74147	0.82749	0.037
Mof_H 	H 	0.9564	0.744	0.828	0.013
Mof_C 	C 	0.98147	0.73599	0.85913	-0.051
Mof_C 	C 	0.01527	0.73165	0.85781	0.009
Mof_H 	H 	0.0181	0.7281	0.8789	0.037
Mof_C 	C 	0.04337	0.73259	0.82655	-0.096
Mof_H 	H 	0.0665	0.7287	0.8257	0.066
Mof_C 	C 	0.03847	0.73929	0.79565	0.053
Mof_H 	H 	0.0582	0.7412	0.7734	0.003
Mof_C 	C 	0.94955	0.73561	0.89263	0.139
Mof_N 	N 	0.92084	0.73482	0.8922	-0.155
Mof_S 	S 	0.62071	0.29659	0.03359	-0.062
Mof_C 	C 	0.66389	0.27301	0.02371	0.097
Mof_N 	N 	0.69489	0.25767	0.01559	-0.259
Mof_N 	N 	0.7607	0.20964	0.96944	-0.225
Mof_C 	C 	0.79242	0.186	0.95734	0.066
Mof_H 	H 	0.8137	0.1869	0.9559	-0.002
Mof_C 	C 	0.79629	0.16013	0.94669	-0.102
Mof_H 	H 	0.8197	0.1443	0.9377	0.066
Mof_C 	C 	0.76598	0.15732	0.94922	0.008
Mof_H 	H 	0.7679	0.1395	0.9425	0.037
Mof_C 	C 	0.73233	0.18193	0.96223	-0.047
Mof_C 	C 	0.73133	0.20799	0.97115	0.037
Mof_H 	H 	0.7085	0.2253	0.9789	0.011
Mof_N 	N 	0.53955	0.26035	0.99347	-0.227
Mof_C 	C 	0.57216	0.23404	0.98812	0.038
Mof_H 	H 	0.5733	0.2127	0.9877	0.015
Mof_C 	C 	0.60355	0.23575	0.98323	-0.049
Mof_C 	C 	0.60218	0.26712	0.984	0.008
Mof_H 	H 	0.6233	0.2691	0.9817	0.037
Mof_C 	C 	0.56999	0.29451	0.98809	-0.096
Mof_H 	H 	0.5686	0.3164	0.9876	0.064
Mof_C 	C 	0.53894	0.29072	0.99298	0.054
Mof_H 	H 	0.5167	0.3101	0.9961	0
Mof_C 	C 	0.63774	0.20468	0.98012	0.133
Mof_N 	N 	0.66837	0.20927	0.97119	-0.15
Mof_C 	C 	0.69805	0.17951	0.96913	0.132
Mof_N 	N 	0.69822	0.14696	0.97574	-0.151
Mof_C 	C 	0.66619	0.14513	0.98569	0.134
Mof_N 	N 	0.63452	0.173	0.98842	-0.148
Mof_C 	C 	0.66416	0.10916	0.99644	-0.05
Mof_C 	C 	0.6955	0.07934	0.99678	0.042
Mof_H 	H 	0.7174	0.0828	0.9902	0.011
Mof_N 	N 	0.69634	0.04628	0.00588	-0.227
Mof_C 	C 	0.66522	0.04166	0.01508	0.055
Mof_H 	H 	0.6655	0.0181	0.0213	0.004
Mof_C 	C 	0.63284	0.07006	0.01578	-0.095
Mof_H 	H 	0.6115	0.0659	0.0221	0.066
Mof_C 	C 	0.63176	0.10454	0.00718	0.007
Mof_H 	H 	0.6096	0.1242	0.0086	0.039
Mof_N 	N 	0.77942	0.0357	0.966	-0.263
Mof_C 	C 	0.7958	0.05408	0.94316	0.105
Mof_S 	S 	0.81881	0.08085	0.90919	-0.061
Mof_N 	N 	0.7433	0.00656	0.95422	-0.226
Mof_C 	C 	0.74147	0.97873	0.95231	0.037
Mof_H 	H 	0.744	0.9564	0.9716	0.013
Mof_C 	C 	0.73599	0.98147	0.92341	-0.051
Mof_C 	C 	0.73165	0.01527	0.89527	0.009
Mof_H 	H 	0.7281	0.0181	0.8749	0.037
Mof_C 	C 	0.73259	0.04337	0.89749	-0.096
Mof_H 	H 	0.7287	0.0665	0.8791	0.066
Mof_C 	C 	0.73929	0.03847	0.92659	0.053
Mof_H 	H 	0.7412	0.0582	0.9272	0.003
Mof_C 	C 	0.73561	0.94955	0.92221	0.139
Mof_N 	N 	0.73482	0.92084	0.95214	-0.155
Mof_S 	S 	0.03359	0.54911	0.62071	-0.062
Mof_C 	C 	0.02371	0.53939	0.66389	0.097
Mof_N 	N 	0.01559	0.53185	0.69489	-0.259
Mof_N 	N 	0.96944	0.56022	0.7607	-0.225
Mof_C 	C 	0.95734	0.56424	0.79242	0.066
Mof_H 	H 	0.9559	0.5435	0.8137	-0.002
Mof_C 	C 	0.94669	0.59689	0.79629	-0.102
Mof_H 	H 	0.9377	0.5983	0.8197	0.066
Mof_C 	C 	0.94922	0.62748	0.76598	0.008
Mof_H 	H 	0.9425	0.6501	0.7679	0.037
Mof_C 	C 	0.96223	0.62351	0.73233	-0.047
Mof_C 	C 	0.97115	0.58953	0.73133	0.037
Mof_H 	H 	0.9789	0.5873	0.7085	0.011
Mof_N 	N 	0.99347	0.70663	0.53955	-0.227
Mof_C 	C 	0.98812	0.70568	0.57216	0.038
Mof_H 	H 	0.9877	0.7263	0.5733	0.015
Mof_C 	C 	0.98323	0.67747	0.60355	-0.049
Mof_C 	C 	0.984	0.6467	0.60218	0.008
Mof_H 	H 	0.9817	0.6259	0.6233	0.037
Mof_C 	C 	0.98809	0.64741	0.56999	-0.096
Mof_H 	H 	0.9876	0.6274	0.5686	0.064
Mof_C 	C 	0.99298	0.67736	0.53894	0.054
Mof_H 	H 	0.9961	0.6771	0.5167	0
Mof_C 	C 	0.98012	0.67746	0.63774	0.133
Mof_N 	N 	0.97119	0.65117	0.66837	-0.15
Mof_C 	C 	0.96913	0.65331	0.69805	0.132
Mof_N 	N 	0.97574	0.67908	0.69822	-0.151
Mof_C 	C 	0.98569	0.70299	0.66619	0.134
Mof_N 	N 	0.98842	0.70406	0.63452	-0.148
Mof_C 	C 	0.99644	0.73024	0.66416	-0.049
Mof_C 	C 	0.99678	0.72838	0.6955	0.042
Mof_H 	H 	0.9902	0.7096	0.7174	0.011
Mof_N 	N 	0.00588	0.7515	0.69634	-0.227
Mof_C 	C 	0.01508	0.77804	0.66522	0.055
Mof_H 	H 	0.0213	0.7951	0.6655	0.004
Mof_C 	C 	0.01578	0.78132	0.63284	-0.095
Mof_H 	H 	0.0221	0.8005	0.6115	0.066
Mof_C 	C 	0.00718	0.75652	0.63176	0.007
Mof_H 	H 	0.0086	0.7576	0.6096	0.039
Mof_N 	N 	0.966	0.71888	0.77942	-0.263
Mof_C 	C 	0.94316	0.70696	0.7958	0.105
Mof_S 	S 	0.90919	0.69115	0.81881	-0.061
Mof_N 	N 	0.95422	0.79592	0.7433	-0.226
Mof_C 	C 	0.95231	0.82749	0.74147	0.037
Mof_H 	H 	0.9716	0.828	0.744	0.013
Mof_C 	C 	0.92341	0.85913	0.73599	-0.051
Mof_C 	C 	0.89527	0.85781	0.73165	0.009
Mof_H 	H 	0.8749	0.8789	0.7281	0.037
Mof_C 	C 	0.89749	0.82655	0.73259	-0.096
Mof_H 	H 	0.8791	0.8257	0.7287	0.066
Mof_C 	C 	0.92659	0.79565	0.73929	0.053
Mof_H 	H 	0.9272	0.7734	0.7412	0.003
Mof_C 	C 	0.92221	0.89263	0.73561	0.139
Mof_N 	N 	0.95214	0.8922	0.73482	-0.155
Mof_S 	S 	0.54911	0.03359	0.29659	-0.062
Mof_C 	C 	0.53939	0.02371	0.27301	0.097
Mof_N 	N 	0.53185	0.01559	0.25767	-0.259
Mof_N 	N 	0.56022	0.96944	0.20964	-0.225
Mof_C 	C 	0.56424	0.95734	0.186	0.066
Mof_H 	H 	0.5435	0.9559	0.1869	-0.002
Mof_C 	C 	0.59689	0.94669	0.16013	-0.102
Mof_H 	H 	0.5983	0.9377	0.1443	0.066
Mof_C 	C 	0.62748	0.94922	0.15732	0.008
Mof_H 	H 	0.6501	0.9425	0.1395	0.037
Mof_C 	C 	0.62351	0.96223	0.18193	-0.047
Mof_C 	C 	0.58953	0.97115	0.20799	0.037
Mof_H 	H 	0.5873	0.9789	0.2253	0.011
Mof_N 	N 	0.70663	0.99347	0.26035	-0.227
Mof_C 	C 	0.70568	0.98812	0.23404	0.038
Mof_H 	H 	0.7263	0.9877	0.2127	0.015
Mof_C 	C 	0.67747	0.98323	0.23575	-0.049
Mof_C 	C 	0.6467	0.984	0.26712	0.008
Mof_H 	H 	0.6259	0.9817	0.2691	0.037
Mof_C 	C 	0.64741	0.98809	0.29451	-0.096
Mof_H 	H 	0.6274	0.9876	0.3164	0.064
Mof_C 	C 	0.67736	0.99298	0.29072	0.054
Mof_H 	H 	0.6771	0.9961	0.3101	0
Mof_C 	C 	0.67746	0.98012	0.20468	0.133
Mof_N 	N 	0.65117	0.97119	0.20927	-0.15
Mof_C 	C 	0.65331	0.96913	0.17951	0.132
Mof_N 	N 	0.67908	0.97574	0.14696	-0.151
Mof_C 	C 	0.70299	0.98569	0.14513	0.134
Mof_N 	N 	0.70406	0.98842	0.173	-0.148
Mof_C 	C 	0.73024	0.99644	0.10916	-0.05
Mof_C 	C 	0.72838	0.99678	0.07934	0.042
Mof_H 	H 	0.7096	0.9902	0.0828	0.011
Mof_N 	N 	0.7515	0.00588	0.04628	-0.227
Mof_C 	C 	0.77804	0.01508	0.04166	0.055
Mof_H 	H 	0.7951	0.0213	0.0181	0.004
Mof_C 	C 	0.78132	0.01578	0.07006	-0.095
Mof_H 	H 	0.8005	0.0221	0.0659	0.066
Mof_C 	C 	0.75652	0.00718	0.10454	0.007
Mof_H 	H 	0.7576	0.0086	0.1242	0.039
Mof_N 	N 	0.71888	0.966	0.0357	-0.263
Mof_C 	C 	0.70696	0.94316	0.05408	0.105
Mof_S 	S 	0.69115	0.90919	0.08085	-0.061
Mof_N 	N 	0.79592	0.95422	0.00656	-0.226
Mof_C 	C 	0.82749	0.95231	0.97873	0.037
Mof_H 	H 	0.828	0.9716	0.9564	0.013
Mof_C 	C 	0.85913	0.92341	0.98147	-0.051
Mof_C 	C 	0.85781	0.89527	0.01527	0.009
Mof_H 	H 	0.8789	0.8749	0.0181	0.037
Mof_C 	C 	0.82655	0.89749	0.04337	-0.096
Mof_H 	H 	0.8257	0.8791	0.0665	0.066
Mof_C 	C 	0.79565	0.92659	0.03847	0.053
Mof_H 	H 	0.7734	0.9272	0.0582	0.003
Mof_C 	C 	0.89263	0.92221	0.94955	0.139
Mof_N 	N 	0.8922	0.95214	0.92084	-0.155
Mof_S 	S 	0.03359	0.29659	0.54911	-0.062
Mof_C 	C 	0.02371	0.27301	0.53939	0.097
Mof_N 	N 	0.01559	0.25767	0.53185	-0.259
Mof_N 	N 	0.96944	0.20964	0.56022	-0.225
Mof_C 	C 	0.95734	0.186	0.56424	0.066
Mof_H 	H 	0.9559	0.1869	0.5435	-0.002
Mof_C 	C 	0.94669	0.16013	0.59689	-0.102
Mof_H 	H 	0.9377	0.1443	0.5983	0.066
Mof_C 	C 	0.94922	0.15732	0.62748	0.008
Mof_H 	H 	0.9425	0.1395	0.6501	0.037
Mof_C 	C 	0.96223	0.18193	0.62351	-0.047
Mof_C 	C 	0.97115	0.20799	0.58953	0.037
Mof_H 	H 	0.9789	0.2253	0.5873	0.011
Mof_N 	N 	0.99347	0.26035	0.70663	-0.227
Mof_C 	C 	0.98812	0.23404	0.70568	0.038
Mof_H 	H 	0.9877	0.2127	0.7263	0.015
Mof_C 	C 	0.98323	0.23575	0.67747	-0.049
Mof_C 	C 	0.984	0.26712	0.6467	0.008
Mof_H 	H 	0.9817	0.2691	0.6259	0.037
Mof_C 	C 	0.98809	0.29451	0.64741	-0.096
Mof_H 	H 	0.9876	0.3164	0.6274	0.064
Mof_C 	C 	0.99298	0.29072	0.67736	0.054
Mof_H 	H 	0.9961	0.3101	0.6771	0
Mof_C 	C 	0.98012	0.20468	0.67746	0.133
Mof_N 	N 	0.97119	0.20927	0.65117	-0.15
Mof_C 	C 	0.96913	0.17951	0.65331	0.132
Mof_N 	N 	0.97574	0.14696	0.67908	-0.151
Mof_C 	C 	0.98569	0.14513	0.70299	0.134
Mof_N 	N 	0.98842	0.173	0.70406	-0.148
Mof_C 	C 	0.99644	0.10916	0.73024	-0.05
Mof_C 	C 	0.99678	0.07934	0.72838	0.042
Mof_H 	H 	0.9902	0.0828	0.7096	0.011
Mof_N 	N 	0.00588	0.04628	0.7515	-0.227
Mof_C 	C 	0.01508	0.04166	0.77804	0.055
Mof_H 	H 	0.0213	0.0181	0.7951	0.004
Mof_C 	C 	0.01578	0.07006	0.78132	-0.095
Mof_H 	H 	0.0221	0.0659	0.8005	0.066
Mof_C 	C 	0.00718	0.10454	0.75652	0.007
Mof_H 	H 	0.0086	0.1242	0.7576	0.039
Mof_N 	N 	0.966	0.0357	0.71888	-0.263
Mof_C 	C 	0.94316	0.05408	0.70696	0.105
Mof_S 	S 	0.90919	0.08085	0.69115	-0.061
Mof_N 	N 	0.95422	0.00656	0.79592	-0.226
Mof_C 	C 	0.95231	0.97873	0.82749	0.037
Mof_H 	H 	0.9716	0.9564	0.828	0.013
Mof_C 	C 	0.92341	0.98147	0.85913	-0.051
Mof_C 	C 	0.89527	0.01527	0.85781	0.009
Mof_H 	H 	0.8749	0.0181	0.8789	0.037
Mof_C 	C 	0.89749	0.04337	0.82655	-0.096
Mof_H 	H 	0.8791	0.0665	0.8257	0.066
Mof_C 	C 	0.92659	0.03847	0.79565	0.053
Mof_H 	H 	0.9272	0.0582	0.7734	0.003
Mof_C 	C 	0.92221	0.94955	0.89263	0.139
Mof_N 	N 	0.95214	0.92084	0.8922	-0.155
Mof_S 	S 	0.54911	0.62071	0.03359	-0.062
Mof_C 	C 	0.53939	0.66389	0.02371	0.097
Mof_N 	N 	0.53185	0.69489	0.01559	-0.259
Mof_N 	N 	0.56022	0.7607	0.96944	-0.225
Mof_C 	C 	0.56424	0.79242	0.95734	0.066
Mof_H 	H 	0.5435	0.8137	0.9559	-0.002
Mof_C 	C 	0.59689	0.79629	0.94669	-0.102
Mof_H 	H 	0.5983	0.8197	0.9377	0.066
Mof_C 	C 	0.62748	0.76598	0.94922	0.008
Mof_H 	H 	0.6501	0.7679	0.9425	0.037
Mof_C 	C 	0.62351	0.73233	0.96223	-0.047
Mof_C 	C 	0.58953	0.73133	0.97115	0.037
Mof_H 	H 	0.5873	0.7085	0.9789	0.011
Mof_N 	N 	0.70663	0.53955	0.99347	-0.227
Mof_C 	C 	0.70568	0.57216	0.98812	0.038
Mof_H 	H 	0.7263	0.5733	0.9877	0.015
Mof_C 	C 	0.67747	0.60355	0.98323	-0.049
Mof_C 	C 	0.6467	0.60218	0.984	0.008
Mof_H 	H 	0.6259	0.6233	0.9817	0.037
Mof_C 	C 	0.64741	0.56999	0.98809	-0.096
Mof_H 	H 	0.6274	0.5686	0.9876	0.064
Mof_C 	C 	0.67736	0.53894	0.99298	0.054
Mof_H 	H 	0.6771	0.5167	0.9961	0
Mof_C 	C 	0.67746	0.63774	0.98012	0.133
Mof_N 	N 	0.65117	0.66837	0.97119	-0.15
Mof_C 	C 	0.65331	0.69805	0.96913	0.132
Mof_N 	N 	0.67908	0.69822	0.97574	-0.151
Mof_C 	C 	0.70299	0.66619	0.98569	0.134
Mof_N 	N 	0.70406	0.63452	0.98842	-0.148
Mof_C 	C 	0.73024	0.66416	0.99644	-0.049
Mof_C 	C 	0.72838	0.6955	0.99678	0.042
Mof_H 	H 	0.7096	0.7174	0.9902	0.011
Mof_N 	N 	0.7515	0.69634	0.00588	-0.227
Mof_C 	C 	0.77804	0.66522	0.01508	0.055
Mof_H 	H 	0.7951	0.6655	0.0213	0.004
Mof_C 	C 	0.78132	0.63284	0.01578	-0.095
Mof_H 	H 	0.8005	0.6115	0.0221	0.066
Mof_C 	C 	0.75652	0.63176	0.00718	0.007
Mof_H 	H 	0.7576	0.6096	0.0086	0.039
Mof_N 	N 	0.71888	0.77942	0.966	-0.263
Mof_C 	C 	0.70696	0.7958	0.94316	0.105
Mof_S 	S 	0.69115	0.81881	0.90919	-0.061
Mof_N 	N 	0.79592	0.7433	0.95422	-0.226
Mof_C 	C 	0.82749	0.74147	0.95231	0.037
Mof_H 	H 	0.828	0.744	0.9716	0.013
Mof_C 	C 	0.85913	0.73599	0.92341	-0.051
Mof_C 	C 	0.85781	0.73165	0.89527	0.009
Mof_H 	H 	0.8789	0.7281	0.8749	0.037
Mof_C 	C 	0.82655	0.73259	0.89749	-0.096
Mof_H 	H 	0.8257	0.7287	0.8791	0.066
Mof_C 	C 	0.79565	0.73929	0.92659	0.053
Mof_H 	H 	0.7734	0.7412	0.9272	0.003
Mof_C 	C 	0.89263	0.73561	0.92221	0.139
Mof_N 	N 	0.8922	0.73482	0.95214	-0.155
Mof_S 	S 	0.29659	0.03359	0.62071	-0.062
Mof_C 	C 	0.27301	0.02371	0.66389	0.097
Mof_N 	N 	0.25767	0.01559	0.69489	-0.259
Mof_N 	N 	0.20964	0.96944	0.7607	-0.225
Mof_C 	C 	0.186	0.95734	0.79242	0.066
Mof_H 	H 	0.1869	0.9559	0.8137	-0.002
Mof_C 	C 	0.16013	0.94669	0.79629	-0.102
Mof_H 	H 	0.1443	0.9377	0.8197	0.066
Mof_C 	C 	0.15732	0.94922	0.76598	0.008
Mof_H 	H 	0.1395	0.9425	0.7679	0.037
Mof_C 	C 	0.18193	0.96223	0.73233	-0.047
Mof_C 	C 	0.20799	0.97115	0.73133	0.037
Mof_H 	H 	0.2253	0.9789	0.7085	0.011
Mof_N 	N 	0.26035	0.99347	0.53955	-0.227
Mof_C 	C 	0.23404	0.98812	0.57216	0.038
Mof_H 	H 	0.2127	0.9877	0.5733	0.015
Mof_C 	C 	0.23575	0.98323	0.60355	-0.049
Mof_C 	C 	0.26712	0.984	0.60218	0.008
Mof_H 	H 	0.2691	0.9817	0.6233	0.037
Mof_C 	C 	0.29451	0.98809	0.56999	-0.096
Mof_H 	H 	0.3164	0.9876	0.5686	0.064
Mof_C 	C 	0.29072	0.99298	0.53894	0.054
Mof_H 	H 	0.3101	0.9961	0.5167	0
Mof_C 	C 	0.20468	0.98012	0.63774	0.133
Mof_N 	N 	0.20927	0.97119	0.66837	-0.15
Mof_C 	C 	0.17951	0.96913	0.69805	0.132
Mof_N 	N 	0.14696	0.97574	0.69822	-0.151
Mof_C 	C 	0.14513	0.98569	0.66619	0.134
Mof_N 	N 	0.173	0.98842	0.63452	-0.148
Mof_C 	C 	0.10916	0.99644	0.66416	-0.05
Mof_C 	C 	0.07934	0.99678	0.6955	0.042
Mof_H 	H 	0.0828	0.9902	0.7174	0.011
Mof_N 	N 	0.04628	0.00588	0.69634	-0.227
Mof_C 	C 	0.04166	0.01508	0.66522	0.055
Mof_H 	H 	0.0181	0.0213	0.6655	0.004
Mof_C 	C 	0.07006	0.01578	0.63284	-0.095
Mof_H 	H 	0.0659	0.0221	0.6115	0.066
Mof_C 	C 	0.10454	0.00718	0.63176	0.007
Mof_H 	H 	0.1242	0.0086	0.6096	0.039
Mof_N 	N 	0.0357	0.966	0.77942	-0.263
Mof_C 	C 	0.05408	0.94316	0.7958	0.105
Mof_S 	S 	0.08085	0.90919	0.81881	-0.061
Mof_N 	N 	0.00656	0.95422	0.7433	-0.226
Mof_C 	C 	0.97873	0.95231	0.74147	0.037
Mof_H 	H 	0.9564	0.9716	0.744	0.013
Mof_C 	C 	0.98147	0.92341	0.73599	-0.051
Mof_C 	C 	0.01527	0.89527	0.73165	0.009
Mof_H 	H 	0.0181	0.8749	0.7281	0.037
Mof_C 	C 	0.04337	0.89749	0.73259	-0.096
Mof_H 	H 	0.0665	0.8791	0.7287	0.066
Mof_C 	C 	0.03847	0.92659	0.73929	0.053
Mof_H 	H 	0.0582	0.9272	0.7412	0.003
Mof_C 	C 	0.94955	0.92221	0.73561	0.139
Mof_N 	N 	0.92084	0.95214	0.73482	-0.155
Mof_S 	S 	0.62071	0.54911	0.29659	-0.063
Mof_C 	C 	0.66389	0.53939	0.27301	0.097
Mof_N 	N 	0.69489	0.53185	0.25767	-0.259
Mof_N 	N 	0.7607	0.56022	0.20964	-0.225
Mof_C 	C 	0.79242	0.56424	0.186	0.066
Mof_H 	H 	0.8137	0.5435	0.1869	-0.002
Mof_C 	C 	0.79629	0.59689	0.16013	-0.102
Mof_H 	H 	0.8197	0.5983	0.1443	0.066
Mof_C 	C 	0.76598	0.62748	0.15732	0.008
Mof_H 	H 	0.7679	0.6501	0.1395	0.037
Mof_C 	C 	0.73233	0.62351	0.18193	-0.047
Mof_C 	C 	0.73133	0.58953	0.20799	0.037
Mof_H 	H 	0.7085	0.5873	0.2253	0.011
Mof_N 	N 	0.53955	0.70663	0.26035	-0.227
Mof_C 	C 	0.57216	0.70568	0.23404	0.038
Mof_H 	H 	0.5733	0.7263	0.2127	0.015
Mof_C 	C 	0.60355	0.67747	0.23575	-0.049
Mof_C 	C 	0.60218	0.6467	0.26712	0.008
Mof_H 	H 	0.6233	0.6259	0.2691	0.037
Mof_C 	C 	0.56999	0.64741	0.29451	-0.096
Mof_H 	H 	0.5686	0.6274	0.3164	0.064
Mof_C 	C 	0.53894	0.67736	0.29072	0.054
Mof_H 	H 	0.5167	0.6771	0.3101	0
Mof_C 	C 	0.63774	0.67746	0.20468	0.133
Mof_N 	N 	0.66837	0.65117	0.20927	-0.15
Mof_C 	C 	0.69805	0.65331	0.17951	0.132
Mof_N 	N 	0.69822	0.67908	0.14696	-0.151
Mof_C 	C 	0.66619	0.70299	0.14513	0.134
Mof_N 	N 	0.63452	0.70406	0.173	-0.148
Mof_C 	C 	0.66416	0.73024	0.10916	-0.05
Mof_C 	C 	0.6955	0.72838	0.07934	0.042
Mof_H 	H 	0.7174	0.7096	0.0828	0.011
Mof_N 	N 	0.69634	0.7515	0.04628	-0.227
Mof_C 	C 	0.66522	0.77804	0.04166	0.055
Mof_H 	H 	0.6655	0.7951	0.0181	0.004
Mof_C 	C 	0.63284	0.78132	0.07006	-0.095
Mof_H 	H 	0.6115	0.8005	0.0659	0.066
Mof_C 	C 	0.63176	0.75652	0.10454	0.007
Mof_H 	H 	0.6096	0.7576	0.1242	0.039
Mof_N 	N 	0.77942	0.71888	0.0357	-0.263
Mof_C 	C 	0.7958	0.70696	0.05408	0.105
Mof_S 	S 	0.81881	0.69115	0.08085	-0.061
Mof_N 	N 	0.7433	0.79592	0.00656	-0.226
Mof_C 	C 	0.74147	0.82749	0.97873	0.037
Mof_H 	H 	0.744	0.828	0.9564	0.013
Mof_C 	C 	0.73599	0.85913	0.98147	-0.051
Mof_C 	C 	0.73165	0.85781	0.01527	0.009
Mof_H 	H 	0.7281	0.8789	0.0181	0.037
Mof_C 	C 	0.73259	0.82655	0.04337	-0.096
Mof_H 	H 	0.7287	0.8257	0.0665	0.066
Mof_C 	C 	0.73929	0.79565	0.03847	0.053
Mof_H 	H 	0.7412	0.7734	0.0582	0.003
Mof_C 	C 	0.73561	0.89263	0.94955	0.139
Mof_N 	N 	0.73482	0.8922	0.92084	-0.155
Mof_S 	S 	0.62071	0.03359	0.54911	-0.062
Mof_C 	C 	0.66389	0.02371	0.53939	0.097
Mof_N 	N 	0.69489	0.01559	0.53185	-0.259
Mof_N 	N 	0.7607	0.96944	0.56022	-0.225
Mof_C 	C 	0.79242	0.95734	0.56424	0.066
Mof_H 	H 	0.8137	0.9559	0.5435	-0.002
Mof_C 	C 	0.79629	0.94669	0.59689	-0.102
Mof_H 	H 	0.8197	0.9377	0.5983	0.066
Mof_C 	C 	0.76598	0.94922	0.62748	0.008
Mof_H 	H 	0.7679	0.9425	0.6501	0.037
Mof_C 	C 	0.73233	0.96223	0.62351	-0.047
Mof_C 	C 	0.73133	0.97115	0.58953	0.037
Mof_H 	H 	0.7085	0.9789	0.5873	0.011
Mof_N 	N 	0.53955	0.99347	0.70663	-0.227
Mof_C 	C 	0.57216	0.98812	0.70568	0.038
Mof_H 	H 	0.5733	0.9877	0.7263	0.015
Mof_C 	C 	0.60355	0.98323	0.67747	-0.049
Mof_C 	C 	0.60218	0.984	0.6467	0.008
Mof_H 	H 	0.6233	0.9817	0.6259	0.037
Mof_C 	C 	0.56999	0.98809	0.64741	-0.096
Mof_H 	H 	0.5686	0.9876	0.6274	0.064
Mof_C 	C 	0.53894	0.99298	0.67736	0.054
Mof_H 	H 	0.5167	0.9961	0.6771	0
Mof_C 	C 	0.63774	0.98012	0.67746	0.133
Mof_N 	N 	0.66837	0.97119	0.65117	-0.15
Mof_C 	C 	0.69805	0.96913	0.65331	0.132
Mof_N 	N 	0.69822	0.97574	0.67908	-0.151
Mof_C 	C 	0.66619	0.98569	0.70299	0.134
Mof_N 	N 	0.63452	0.98842	0.70406	-0.148
Mof_C 	C 	0.66416	0.99644	0.73024	-0.049
Mof_C 	C 	0.6955	0.99678	0.72838	0.042
Mof_H 	H 	0.7174	0.9902	0.7096	0.011
Mof_N 	N 	0.69634	0.00588	0.7515	-0.227
Mof_C 	C 	0.66522	0.01508	0.77804	0.055
Mof_H 	H 	0.6655	0.0213	0.7951	0.004
Mof_C 	C 	0.63284	0.01578	0.78132	-0.095
Mof_H 	H 	0.6115	0.0221	0.8005	0.066
Mof_C 	C 	0.63176	0.00718	0.75652	0.007
Mof_H 	H 	0.6096	0.0086	0.7576	0.039
Mof_N 	N 	0.77942	0.966	0.71888	-0.263
Mof_C 	C 	0.7958	0.94316	0.70696	0.105
Mof_S 	S 	0.81881	0.90919	0.69115	-0.061
Mof_N 	N 	0.7433	0.95422	0.79592	-0.226
Mof_C 	C 	0.74147	0.95231	0.82749	0.037
Mof_H 	H 	0.744	0.9716	0.828	0.013
Mof_C 	C 	0.73599	0.92341	0.85913	-0.051
Mof_C 	C 	0.73165	0.89527	0.85781	0.009
Mof_H 	H 	0.7281	0.8749	0.8789	0.037
Mof_C 	C 	0.73259	0.89749	0.82655	-0.096
Mof_H 	H 	0.7287	0.8791	0.8257	0.066
Mof_C 	C 	0.73929	0.92659	0.79565	0.053
Mof_H 	H 	0.7412	0.9272	0.7734	0.003
Mof_C 	C 	0.73561	0.92221	0.89263	0.139
Mof_N 	N 	0.73482	0.95214	0.8922	-0.155
Mof_S 	S 	0.29659	0.54911	0.03359	-0.062
Mof_C 	C 	0.27301	0.53939	0.02371	0.097
Mof_N 	N 	0.25767	0.53185	0.01559	-0.259
Mof_N 	N 	0.20964	0.56022	0.96944	-0.225
Mof_C 	C 	0.186	0.56424	0.95734	0.066
Mof_H 	H 	0.1869	0.5435	0.9559	-0.002
Mof_C 	C 	0.16013	0.59689	0.94669	-0.102
Mof_H 	H 	0.1443	0.5983	0.9377	0.066
Mof_C 	C 	0.15732	0.62748	0.94922	0.008
Mof_H 	H 	0.1395	0.6501	0.9425	0.037
Mof_C 	C 	0.18193	0.62351	0.96223	-0.047
Mof_C 	C 	0.20799	0.58953	0.97115	0.037
Mof_H 	H 	0.2253	0.5873	0.9789	0.011
Mof_N 	N 	0.26035	0.70663	0.99347	-0.227
Mof_C 	C 	0.23404	0.70568	0.98812	0.038
Mof_H 	H 	0.2127	0.7263	0.9877	0.015
Mof_C 	C 	0.23575	0.67747	0.98323	-0.049
Mof_C 	C 	0.26712	0.6467	0.984	0.008
Mof_H 	H 	0.2691	0.6259	0.9817	0.037
Mof_C 	C 	0.29451	0.64741	0.98809	-0.096
Mof_H 	H 	0.3164	0.6274	0.9876	0.064
Mof_C 	C 	0.29072	0.67736	0.99298	0.054
Mof_H 	H 	0.3101	0.6771	0.9961	0
Mof_C 	C 	0.20468	0.67746	0.98012	0.133
Mof_N 	N 	0.20927	0.65117	0.97119	-0.15
Mof_C 	C 	0.17951	0.65331	0.96913	0.132
Mof_N 	N 	0.14696	0.67908	0.97574	-0.151
Mof_C 	C 	0.14513	0.70299	0.98569	0.134
Mof_N 	N 	0.173	0.70406	0.98842	-0.148
Mof_C 	C 	0.10916	0.73024	0.99644	-0.05
Mof_C 	C 	0.07934	0.72838	0.99678	0.042
Mof_H 	H 	0.0828	0.7096	0.9902	0.011
Mof_N 	N 	0.04628	0.7515	0.00588	-0.227
Mof_C 	C 	0.04166	0.77804	0.01508	0.055
Mof_H 	H 	0.0181	0.7951	0.0213	0.004
Mof_C 	C 	0.07006	0.78132	0.01578	-0.095
Mof_H 	H 	0.0659	0.8005	0.0221	0.066
Mof_C 	C 	0.10454	0.75652	0.00718	0.007
Mof_H 	H 	0.1242	0.7576	0.0086	0.039
Mof_N 	N 	0.0357	0.71888	0.966	-0.263
Mof_C 	C 	0.05408	0.70696	0.94316	0.105
Mof_S 	S 	0.08085	0.69115	0.90919	-0.061
Mof_N 	N 	0.00656	0.79592	0.95422	-0.226
Mof_C 	C 	0.97873	0.82749	0.95231	0.037
Mof_H 	H 	0.9564	0.828	0.9716	0.013
Mof_C 	C 	0.98147	0.85913	0.92341	-0.051
Mof_C 	C 	0.01527	0.85781	0.89527	0.009
Mof_H 	H 	0.0181	0.8789	0.8749	0.037
Mof_C 	C 	0.04337	0.82655	0.89749	-0.096
Mof_H 	H 	0.0665	0.8257	0.8791	0.066
Mof_C 	C 	0.03847	0.79565	0.92659	0.053
Mof_H 	H 	0.0582	0.7734	0.9272	0.003
Mof_C 	C 	0.94955	0.89263	0.92221	0.139
Mof_N 	N 	0.92084	0.8922	0.95214	-0.155
Mof_S 	S 	0.54911	0.29659	0.62071	-0.063
Mof_C 	C 	0.53939	0.27301	0.66389	0.097
Mof_N 	N 	0.53185	0.25767	0.69489	-0.259
Mof_N 	N 	0.56022	0.20964	0.7607	-0.225
Mof_C 	C 	0.56424	0.186	0.79242	0.066
Mof_H 	H 	0.5435	0.1869	0.8137	-0.002
Mof_C 	C 	0.59689	0.16013	0.79629	-0.102
Mof_H 	H 	0.5983	0.1443	0.8197	0.066
Mof_C 	C 	0.62748	0.15732	0.76598	0.008
Mof_H 	H 	0.6501	0.1395	0.7679	0.037
Mof_C 	C 	0.62351	0.18193	0.73233	-0.047
Mof_C 	C 	0.58953	0.20799	0.73133	0.037
Mof_H 	H 	0.5873	0.2253	0.7085	0.011
Mof_N 	N 	0.70663	0.26035	0.53955	-0.227
Mof_C 	C 	0.70568	0.23404	0.57216	0.038
Mof_H 	H 	0.7263	0.2127	0.5733	0.015
Mof_C 	C 	0.67747	0.23575	0.60355	-0.049
Mof_C 	C 	0.6467	0.26712	0.60218	0.008
Mof_H 	H 	0.6259	0.2691	0.6233	0.037
Mof_C 	C 	0.64741	0.29451	0.56999	-0.096
Mof_H 	H 	0.6274	0.3164	0.5686	0.064
Mof_C 	C 	0.67736	0.29072	0.53894	0.054
Mof_H 	H 	0.6771	0.3101	0.5167	0
Mof_C 	C 	0.67746	0.20468	0.63774	0.133
Mof_N 	N 	0.65117	0.20927	0.66837	-0.15
Mof_C 	C 	0.65331	0.17951	0.69805	0.132
Mof_N 	N 	0.67908	0.14696	0.69822	-0.151
Mof_C 	C 	0.70299	0.14513	0.66619	0.134
Mof_N 	N 	0.70406	0.173	0.63452	-0.148
Mof_C 	C 	0.73024	0.10916	0.66416	-0.05
Mof_C 	C 	0.72838	0.07934	0.6955	0.042
Mof_H 	H 	0.7096	0.0828	0.7174	0.011
Mof_N 	N 	0.7515	0.04628	0.69634	-0.227
Mof_C 	C 	0.77804	0.04166	0.66522	0.055
Mof_H 	H 	0.7951	0.0181	0.6655	0.004
Mof_C 	C 	0.78132	0.07006	0.63284	-0.095
Mof_H 	H 	0.8005	0.0659	0.6115	0.066
Mof_C 	C 	0.75652	0.10454	0.63176	0.007
Mof_H 	H 	0.7576	0.1242	0.6096	0.039
Mof_N 	N 	0.71888	0.0357	0.77942	-0.263
Mof_C 	C 	0.70696	0.05408	0.7958	0.105
Mof_S 	S 	0.69115	0.08085	0.81881	-0.061
Mof_N 	N 	0.79592	0.00656	0.7433	-0.226
Mof_C 	C 	0.82749	0.97873	0.74147	0.037
Mof_H 	H 	0.828	0.9564	0.744	0.013
Mof_C 	C 	0.85913	0.98147	0.73599	-0.051
Mof_C 	C 	0.85781	0.01527	0.73165	0.009
Mof_H 	H 	0.8789	0.0181	0.7281	0.037
Mof_C 	C 	0.82655	0.04337	0.73259	-0.096
Mof_H 	H 	0.8257	0.0665	0.7287	0.066
Mof_C 	C 	0.79565	0.03847	0.73929	0.053
Mof_H 	H 	0.7734	0.0582	0.7412	0.003
Mof_C 	C 	0.89263	0.94955	0.73561	0.139
Mof_N 	N 	0.8922	0.92084	0.73482	-0.155
Mof_S 	S 	0.03359	0.62071	0.29659	-0.062
Mof_C 	C 	0.02371	0.66389	0.27301	0.097
Mof_N 	N 	0.01559	0.69489	0.25767	-0.259
Mof_N 	N 	0.96944	0.7607	0.20964	-0.225
Mof_C 	C 	0.95734	0.79242	0.186	0.066
Mof_H 	H 	0.9559	0.8137	0.1869	-0.002
Mof_C 	C 	0.94669	0.79629	0.16013	-0.102
Mof_H 	H 	0.9377	0.8197	0.1443	0.066
Mof_C 	C 	0.94922	0.76598	0.15732	0.008
Mof_H 	H 	0.9425	0.7679	0.1395	0.037
Mof_C 	C 	0.96223	0.73233	0.18193	-0.047
Mof_C 	C 	0.97115	0.73133	0.20799	0.037
Mof_H 	H 	0.9789	0.7085	0.2253	0.011
Mof_N 	N 	0.99347	0.53955	0.26035	-0.227
Mof_C 	C 	0.98812	0.57216	0.23404	0.038
Mof_H 	H 	0.9877	0.5733	0.2127	0.015
Mof_C 	C 	0.98323	0.60355	0.23575	-0.049
Mof_C 	C 	0.984	0.60218	0.26712	0.008
Mof_H 	H 	0.9817	0.6233	0.2691	0.037
Mof_C 	C 	0.98809	0.56999	0.29451	-0.096
Mof_H 	H 	0.9876	0.5686	0.3164	0.064
Mof_C 	C 	0.99298	0.53894	0.29072	0.054
Mof_H 	H 	0.9961	0.5167	0.3101	0
Mof_C 	C 	0.98012	0.63774	0.20468	0.133
Mof_N 	N 	0.97119	0.66837	0.20927	-0.15
Mof_C 	C 	0.96913	0.69805	0.17951	0.132
Mof_N 	N 	0.97574	0.69822	0.14696	-0.151
Mof_C 	C 	0.98569	0.66619	0.14513	0.134
Mof_N 	N 	0.98842	0.63452	0.173	-0.148
Mof_C 	C 	0.99644	0.66416	0.10916	-0.05
Mof_C 	C 	0.99678	0.6955	0.07934	0.042
Mof_H 	H 	0.9902	0.7174	0.0828	0.011
Mof_N 	N 	0.00588	0.69634	0.04628	-0.227
Mof_C 	C 	0.01508	0.66522	0.04166	0.055
Mof_H 	H 	0.0213	0.6655	0.0181	0.004
Mof_C 	C 	0.01578	0.63284	0.07006	-0.095
Mof_H 	H 	0.0221	0.6115	0.0659	0.066
Mof_C 	C 	0.00718	0.63176	0.10454	0.007
Mof_H 	H 	0.0086	0.6096	0.1242	0.039
Mof_N 	N 	0.966	0.77942	0.0357	-0.263
Mof_C 	C 	0.94316	0.7958	0.05408	0.105
Mof_S 	S 	0.90919	0.81881	0.08085	-0.061
Mof_N 	N 	0.95422	0.7433	0.00656	-0.226
Mof_C 	C 	0.95231	0.74147	0.97873	0.037
Mof_H 	H 	0.9716	0.744	0.9564	0.013
Mof_C 	C 	0.92341	0.73599	0.98147	-0.051
Mof_C 	C 	0.89527	0.73165	0.01527	0.009
Mof_H 	H 	0.8749	0.7281	0.0181	0.037
Mof_C 	C 	0.89749	0.73259	0.04337	-0.096
Mof_H 	H 	0.8791	0.7287	0.0665	0.066
Mof_C 	C 	0.92659	0.73929	0.03847	0.053
Mof_H 	H 	0.9272	0.7412	0.0582	0.003
Mof_C 	C 	0.92221	0.73561	0.94955	0.139
Mof_N 	N 	0.95214	0.73482	0.92084	-0.155
Mof_S 	S 	0.79659	0.12071	0.53359	-0.062
Mof_C 	C 	0.77301	0.16389	0.52371	0.097
Mof_N 	N 	0.75767	0.19489	0.51559	-0.259
Mof_N 	N 	0.70964	0.2607	0.46944	-0.225
Mof_C 	C 	0.686	0.29242	0.45734	0.066
Mof_H 	H 	0.6869	0.3137	0.4559	-0.002
Mof_C 	C 	0.66013	0.29629	0.44669	-0.102
Mof_H 	H 	0.6443	0.3197	0.4377	0.066
Mof_C 	C 	0.65732	0.26598	0.44922	0.008
Mof_H 	H 	0.6395	0.2679	0.4425	0.037
Mof_C 	C 	0.68193	0.23233	0.46223	-0.047
Mof_C 	C 	0.70799	0.23133	0.47115	0.037
Mof_H 	H 	0.7253	0.2085	0.4789	0.011
Mof_N 	N 	0.76035	0.03955	0.49347	-0.227
Mof_C 	C 	0.73404	0.07216	0.48812	0.038
Mof_H 	H 	0.7127	0.0733	0.4877	0.015
Mof_C 	C 	0.73575	0.10355	0.48323	-0.049
Mof_C 	C 	0.76712	0.10218	0.484	0.008
Mof_H 	H 	0.7691	0.1233	0.4817	0.037
Mof_C 	C 	0.79451	0.06999	0.48809	-0.096
Mof_H 	H 	0.8164	0.0686	0.4876	0.064
Mof_C 	C 	0.79072	0.03894	0.49298	0.054
Mof_H 	H 	0.8101	0.0167	0.4961	0
Mof_C 	C 	0.70468	0.13774	0.48012	0.133
Mof_N 	N 	0.70927	0.16837	0.47119	-0.15
Mof_C 	C 	0.67951	0.19805	0.46913	0.132
Mof_N 	N 	0.64696	0.19822	0.47574	-0.151
Mof_C 	C 	0.64513	0.16619	0.48569	0.134
Mof_N 	N 	0.673	0.13452	0.48842	-0.148
Mof_C 	C 	0.60916	0.16416	0.49644	-0.05
Mof_C 	C 	0.57934	0.1955	0.49678	0.042
Mof_H 	H 	0.5828	0.2174	0.4902	0.011
Mof_N 	N 	0.54628	0.19634	0.50588	-0.227
Mof_C 	C 	0.54166	0.16522	0.51508	0.055
Mof_H 	H 	0.5181	0.1655	0.5213	0.004
Mof_C 	C 	0.57006	0.13284	0.51578	-0.095
Mof_H 	H 	0.5659	0.1115	0.5221	0.066
Mof_C 	C 	0.60454	0.13176	0.50718	0.007
Mof_H 	H 	0.6242	0.1096	0.5086	0.039
Mof_N 	N 	0.5357	0.27942	0.466	-0.263
Mof_C 	C 	0.55408	0.2958	0.44316	0.105
Mof_S 	S 	0.58085	0.31881	0.40919	-0.061
Mof_N 	N 	0.50656	0.2433	0.45422	-0.226
Mof_C 	C 	0.47873	0.24147	0.45231	0.037
Mof_H 	H 	0.4564	0.244	0.4716	0.013
Mof_C 	C 	0.48147	0.23599	0.42341	-0.051
Mof_C 	C 	0.51527	0.23165	0.39527	0.009
Mof_H 	H 	0.5181	0.2281	0.3749	0.037
Mof_C 	C 	0.54337	0.23259	0.39749	-0.096
Mof_H 	H 	0.5665	0.2287	0.3791	0.066
Mof_C 	C 	0.53847	0.23929	0.42659	0.053
Mof_H 	H 	0.5582	0.2412	0.4272	0.003
Mof_C 	C 	0.44955	0.23561	0.42221	0.139
Mof_N 	N 	0.42084	0.23482	0.45214	-0.155
Mof_S 	S 	0.12071	0.79659	0.04911	-0.062
Mof_C 	C 	0.16389	0.77301	0.03939	0.097
Mof_N 	N 	0.19489	0.75767	0.03185	-0.259
Mof_N 	N 	0.2607	0.70964	0.06022	-0.225
Mof_C 	C 	0.29242	0.686	0.06424	0.066
Mof_H 	H 	0.3137	0.6869	0.0435	-0.002
Mof_C 	C 	0.29629	0.66013	0.09689	-0.102
Mof_H 	H 	0.3197	0.6443	0.0983	0.066
Mof_C 	C 	0.26598	0.65732	0.12748	0.008
Mof_H 	H 	0.2679	0.6395	0.1501	0.037
Mof_C 	C 	0.23233	0.68193	0.12351	-0.047
Mof_C 	C 	0.23133	0.70799	0.08953	0.037
Mof_H 	H 	0.2085	0.7253	0.0873	0.011
Mof_N 	N 	0.03955	0.76035	0.20663	-0.227
Mof_C 	C 	0.07216	0.73404	0.20568	0.038
Mof_H 	H 	0.0733	0.7127	0.2263	0.015
Mof_C 	C 	0.10355	0.73575	0.17747	-0.049
Mof_C 	C 	0.10218	0.76712	0.1467	0.008
Mof_H 	H 	0.1233	0.7691	0.1259	0.037
Mof_C 	C 	0.06999	0.79451	0.14741	-0.096
Mof_H 	H 	0.0686	0.8164	0.1274	0.064
Mof_C 	C 	0.03894	0.79072	0.17736	0.054
Mof_H 	H 	0.0167	0.8101	0.1771	0
Mof_C 	C 	0.13774	0.70468	0.17746	0.133
Mof_N 	N 	0.16837	0.70927	0.15117	-0.15
Mof_C 	C 	0.19805	0.67951	0.15331	0.132
Mof_N 	N 	0.19822	0.64696	0.17908	-0.151
Mof_C 	C 	0.16619	0.64513	0.20299	0.134
Mof_N 	N 	0.13452	0.673	0.20406	-0.148
Mof_C 	C 	0.16416	0.60916	0.23024	-0.05
Mof_C 	C 	0.1955	0.57934	0.22838	0.042
Mof_H 	H 	0.2174	0.5828	0.2096	0.011
Mof_N 	N 	0.19634	0.54628	0.2515	-0.227
Mof_C 	C 	0.16522	0.54166	0.27804	0.055
Mof_H 	H 	0.1655	0.5181	0.2951	0.004
Mof_C 	C 	0.13284	0.57006	0.28132	-0.095
Mof_H 	H 	0.1115	0.5659	0.3005	0.066
Mof_C 	C 	0.13176	0.60454	0.25652	0.007
Mof_H 	H 	0.1096	0.6242	0.2576	0.039
Mof_N 	N 	0.27942	0.5357	0.21888	-0.263
Mof_C 	C 	0.2958	0.55408	0.20696	0.105
Mof_S 	S 	0.31881	0.58085	0.19115	-0.061
Mof_N 	N 	0.2433	0.50656	0.29592	-0.226
Mof_C 	C 	0.24147	0.47873	0.32749	0.037
Mof_H 	H 	0.244	0.4564	0.328	0.013
Mof_C 	C 	0.23599	0.48147	0.35913	-0.051
Mof_C 	C 	0.23165	0.51527	0.35781	0.009
Mof_H 	H 	0.2281	0.5181	0.3789	0.037
Mof_C 	C 	0.23259	0.54337	0.32655	-0.096
Mof_H 	H 	0.2287	0.5665	0.3257	0.066
Mof_C 	C 	0.23929	0.53847	0.29565	0.053
Mof_H 	H 	0.2412	0.5582	0.2734	0.003
Mof_C 	C 	0.23561	0.44955	0.39263	0.139
Mof_N 	N 	0.23482	0.42084	0.3922	-0.155
Mof_S 	S 	0.53359	0.04911	0.79659	-0.062
Mof_C 	C 	0.52371	0.03939	0.77301	0.097
Mof_N 	N 	0.51559	0.03185	0.75767	-0.259
Mof_N 	N 	0.46944	0.06022	0.70964	-0.225
Mof_C 	C 	0.45734	0.06424	0.686	0.066
Mof_H 	H 	0.4559	0.0435	0.6869	-0.002
Mof_C 	C 	0.44669	0.09689	0.66013	-0.102
Mof_H 	H 	0.4377	0.0983	0.6443	0.066
Mof_C 	C 	0.44922	0.12748	0.65732	0.008
Mof_H 	H 	0.4425	0.1501	0.6395	0.037
Mof_C 	C 	0.46223	0.12351	0.68193	-0.047
Mof_C 	C 	0.47115	0.08953	0.70799	0.037
Mof_H 	H 	0.4789	0.0873	0.7253	0.011
Mof_N 	N 	0.49347	0.20663	0.76035	-0.227
Mof_C 	C 	0.48812	0.20568	0.73404	0.038
Mof_H 	H 	0.4877	0.2263	0.7127	0.015
Mof_C 	C 	0.48323	0.17747	0.73575	-0.049
Mof_C 	C 	0.484	0.1467	0.76712	0.008
Mof_H 	H 	0.4817	0.1259	0.7691	0.037
Mof_C 	C 	0.48809	0.14741	0.79451	-0.096
Mof_H 	H 	0.4876	0.1274	0.8164	0.064
Mof_C 	C 	0.49298	0.17736	0.79072	0.054
Mof_H 	H 	0.4961	0.1771	0.8101	0
Mof_C 	C 	0.48012	0.17746	0.70468	0.133
Mof_N 	N 	0.47119	0.15117	0.70927	-0.15
Mof_C 	C 	0.46913	0.15331	0.67951	0.132
Mof_N 	N 	0.47574	0.17908	0.64696	-0.151
Mof_C 	C 	0.48569	0.20299	0.64513	0.134
Mof_N 	N 	0.48842	0.20406	0.673	-0.148
Mof_C 	C 	0.49644	0.23024	0.60916	-0.05
Mof_C 	C 	0.49678	0.22838	0.57934	0.042
Mof_H 	H 	0.4902	0.2096	0.5828	0.011
Mof_N 	N 	0.50588	0.2515	0.54628	-0.227
Mof_C 	C 	0.51508	0.27804	0.54166	0.055
Mof_H 	H 	0.5213	0.2951	0.5181	0.004
Mof_C 	C 	0.51578	0.28132	0.57006	-0.095
Mof_H 	H 	0.5221	0.3005	0.5659	0.066
Mof_C 	C 	0.50718	0.25652	0.60454	0.007
Mof_H 	H 	0.5086	0.2576	0.6242	0.039
Mof_N 	N 	0.466	0.21888	0.5357	-0.263
Mof_C 	C 	0.44316	0.20696	0.55408	0.105
Mof_S 	S 	0.40919	0.19115	0.58085	-0.061
Mof_N 	N 	0.45422	0.29592	0.50656	-0.226
Mof_C 	C 	0.45231	0.32749	0.47873	0.037
Mof_H 	H 	0.4716	0.328	0.4564	0.013
Mof_C 	C 	0.42341	0.35913	0.48147	-0.051
Mof_C 	C 	0.39527	0.35781	0.51527	0.009
Mof_H 	H 	0.3749	0.3789	0.5181	0.037
Mof_C 	C 	0.39749	0.32655	0.54337	-0.096
Mof_H 	H 	0.3791	0.3257	0.5665	0.066
Mof_C 	C 	0.42659	0.29565	0.53847	0.053
Mof_H 	H 	0.4272	0.2734	0.5582	0.003
Mof_C 	C 	0.42221	0.39263	0.44955	0.139
Mof_N 	N 	0.45214	0.3922	0.42084	-0.155
Mof_S 	S 	0.04911	0.53359	0.12071	-0.062
Mof_C 	C 	0.03939	0.52371	0.16389	0.097
Mof_N 	N 	0.03185	0.51559	0.19489	-0.259
Mof_N 	N 	0.06022	0.46944	0.2607	-0.225
Mof_C 	C 	0.06424	0.45734	0.29242	0.066
Mof_H 	H 	0.0435	0.4559	0.3137	-0.002
Mof_C 	C 	0.09689	0.44669	0.29629	-0.102
Mof_H 	H 	0.0983	0.4377	0.3197	0.066
Mof_C 	C 	0.12748	0.44922	0.26598	0.008
Mof_H 	H 	0.1501	0.4425	0.2679	0.037
Mof_C 	C 	0.12351	0.46223	0.23233	-0.047
Mof_C 	C 	0.08953	0.47115	0.23133	0.037
Mof_H 	H 	0.0873	0.4789	0.2085	0.011
Mof_N 	N 	0.20663	0.49347	0.03955	-0.227
Mof_C 	C 	0.20568	0.48812	0.07216	0.038
Mof_H 	H 	0.2263	0.4877	0.0733	0.015
Mof_C 	C 	0.17747	0.48323	0.10355	-0.049
Mof_C 	C 	0.1467	0.484	0.10218	0.008
Mof_H 	H 	0.1259	0.4817	0.1233	0.037
Mof_C 	C 	0.14741	0.48809	0.06999	-0.096
Mof_H 	H 	0.1274	0.4876	0.0686	0.064
Mof_C 	C 	0.17736	0.49298	0.03894	0.054
Mof_H 	H 	0.1771	0.4961	0.0167	0
Mof_C 	C 	0.17746	0.48012	0.13774	0.133
Mof_N 	N 	0.15117	0.47119	0.16837	-0.15
Mof_C 	C 	0.15331	0.46913	0.19805	0.132
Mof_N 	N 	0.17908	0.47574	0.19822	-0.151
Mof_C 	C 	0.20299	0.48569	0.16619	0.134
Mof_N 	N 	0.20406	0.48842	0.13452	-0.148
Mof_C 	C 	0.23024	0.49644	0.16416	-0.05
Mof_C 	C 	0.22838	0.49678	0.1955	0.042
Mof_H 	H 	0.2096	0.4902	0.2174	0.011
Mof_N 	N 	0.2515	0.50588	0.19634	-0.227
Mof_C 	C 	0.27804	0.51508	0.16522	0.055
Mof_H 	H 	0.2951	0.5213	0.1655	0.004
Mof_C 	C 	0.28132	0.51578	0.13284	-0.095
Mof_H 	H 	0.3005	0.5221	0.1115	0.066
Mof_C 	C 	0.25652	0.50718	0.13176	0.007
Mof_H 	H 	0.2576	0.5086	0.1096	0.039
Mof_N 	N 	0.21888	0.466	0.27942	-0.263
Mof_C 	C 	0.20696	0.44316	0.2958	0.105
Mof_S 	S 	0.19115	0.40919	0.31881	-0.061
Mof_N 	N 	0.29592	0.45422	0.2433	-0.226
Mof_C 	C 	0.32749	0.45231	0.24147	0.037
Mof_H 	H 	0.328	0.4716	0.244	0.013
Mof_C 	C 	0.35913	0.42341	0.23599	-0.051
Mof_C 	C 	0.35781	0.39527	0.23165	0.009
Mof_H 	H 	0.3789	0.3749	0.2281	0.037
Mof_C 	C 	0.32655	0.39749	0.23259	-0.096
Mof_H 	H 	0.3257	0.3791	0.2287	0.066
Mof_C 	C 	0.29565	0.42659	0.23929	0.053
Mof_H 	H 	0.2734	0.4272	0.2412	0.003
Mof_C 	C 	0.39263	0.42221	0.23561	0.139
Mof_N 	N 	0.3922	0.45214	0.23482	-0.155
Mof_S 	S 	0.53359	0.79659	0.12071	-0.062
Mof_C 	C 	0.52371	0.77301	0.16389	0.097
Mof_N 	N 	0.51559	0.75767	0.19489	-0.259
Mof_N 	N 	0.46944	0.70964	0.2607	-0.225
Mof_C 	C 	0.45734	0.686	0.29242	0.066
Mof_H 	H 	0.4559	0.6869	0.3137	-0.002
Mof_C 	C 	0.44669	0.66013	0.29629	-0.102
Mof_H 	H 	0.4377	0.6443	0.3197	0.066
Mof_C 	C 	0.44922	0.65732	0.26598	0.008
Mof_H 	H 	0.4425	0.6395	0.2679	0.037
Mof_C 	C 	0.46223	0.68193	0.23233	-0.047
Mof_C 	C 	0.47115	0.70799	0.23133	0.037
Mof_H 	H 	0.4789	0.7253	0.2085	0.011
Mof_N 	N 	0.49347	0.76035	0.03955	-0.227
Mof_C 	C 	0.48812	0.73404	0.07216	0.038
Mof_H 	H 	0.4877	0.7127	0.0733	0.015
Mof_C 	C 	0.48323	0.73575	0.10355	-0.049
Mof_C 	C 	0.484	0.76712	0.10218	0.008
Mof_H 	H 	0.4817	0.7691	0.1233	0.037
Mof_C 	C 	0.48809	0.79451	0.06999	-0.096
Mof_H 	H 	0.4876	0.8164	0.0686	0.064
Mof_C 	C 	0.49298	0.79072	0.03894	0.054
Mof_H 	H 	0.4961	0.8101	0.0167	0
Mof_C 	C 	0.48012	0.70468	0.13774	0.133
Mof_N 	N 	0.47119	0.70927	0.16837	-0.15
Mof_C 	C 	0.46913	0.67951	0.19805	0.132
Mof_N 	N 	0.47574	0.64696	0.19822	-0.151
Mof_C 	C 	0.48569	0.64513	0.16619	0.134
Mof_N 	N 	0.48842	0.673	0.13452	-0.148
Mof_C 	C 	0.49644	0.60916	0.16416	-0.05
Mof_C 	C 	0.49678	0.57934	0.1955	0.042
Mof_H 	H 	0.4902	0.5828	0.2174	0.011
Mof_N 	N 	0.50588	0.54628	0.19634	-0.227
Mof_C 	C 	0.51508	0.54166	0.16522	0.055
Mof_H 	H 	0.5213	0.5181	0.1655	0.004
Mof_C 	C 	0.51578	0.57006	0.13284	-0.095
Mof_H 	H 	0.5221	0.5659	0.1115	0.066
Mof_C 	C 	0.50718	0.60454	0.13176	0.007
Mof_H 	H 	0.5086	0.6242	0.1096	0.039
Mof_N 	N 	0.466	0.5357	0.27942	-0.263
Mof_C 	C 	0.44316	0.55408	0.2958	0.105
Mof_S 	S 	0.40919	0.58085	0.31881	-0.061
Mof_N 	N 	0.45422	0.50656	0.2433	-0.226
Mof_C 	C 	0.45231	0.47873	0.24147	0.037
Mof_H 	H 	0.4716	0.4564	0.244	0.013
Mof_C 	C 	0.42341	0.48147	0.23599	-0.051
Mof_C 	C 	0.39527	0.51527	0.23165	0.009
Mof_H 	H 	0.3749	0.5181	0.2281	0.037
Mof_C 	C 	0.39749	0.54337	0.23259	-0.096
Mof_H 	H 	0.3791	0.5665	0.2287	0.066
Mof_C 	C 	0.42659	0.53847	0.23929	0.053
Mof_H 	H 	0.4272	0.5582	0.2412	0.003
Mof_C 	C 	0.42221	0.44955	0.23561	0.139
Mof_N 	N 	0.45214	0.42084	0.23482	-0.155
Mof_S 	S 	0.04911	0.12071	0.79659	-0.062
Mof_C 	C 	0.03939	0.16389	0.77301	0.097
Mof_N 	N 	0.03185	0.19489	0.75767	-0.259
Mof_N 	N 	0.06022	0.2607	0.70964	-0.225
Mof_C 	C 	0.06424	0.29242	0.686	0.066
Mof_H 	H 	0.0435	0.3137	0.6869	-0.002
Mof_C 	C 	0.09689	0.29629	0.66013	-0.102
Mof_H 	H 	0.0983	0.3197	0.6443	0.066
Mof_C 	C 	0.12748	0.26598	0.65732	0.008
Mof_H 	H 	0.1501	0.2679	0.6395	0.037
Mof_C 	C 	0.12351	0.23233	0.68193	-0.047
Mof_C 	C 	0.08953	0.23133	0.70799	0.037
Mof_H 	H 	0.0873	0.2085	0.7253	0.011
Mof_N 	N 	0.20663	0.03955	0.76035	-0.227
Mof_C 	C 	0.20568	0.07216	0.73404	0.038
Mof_H 	H 	0.2263	0.0733	0.7127	0.015
Mof_C 	C 	0.17747	0.10355	0.73575	-0.049
Mof_C 	C 	0.1467	0.10218	0.76712	0.008
Mof_H 	H 	0.1259	0.1233	0.7691	0.037
Mof_C 	C 	0.14741	0.06999	0.79451	-0.096
Mof_H 	H 	0.1274	0.0686	0.8164	0.064
Mof_C 	C 	0.17736	0.03894	0.79072	0.054
Mof_H 	H 	0.1771	0.0167	0.8101	0
Mof_C 	C 	0.17746	0.13774	0.70468	0.133
Mof_N 	N 	0.15117	0.16837	0.70927	-0.15
Mof_C 	C 	0.15331	0.19805	0.67951	0.132
Mof_N 	N 	0.17908	0.19822	0.64696	-0.151
Mof_C 	C 	0.20299	0.16619	0.64513	0.134
Mof_N 	N 	0.20406	0.13452	0.673	-0.148
Mof_C 	C 	0.23024	0.16416	0.60916	-0.05
Mof_C 	C 	0.22838	0.1955	0.57934	0.042
Mof_H 	H 	0.2096	0.2174	0.5828	0.011
Mof_N 	N 	0.2515	0.19634	0.54628	-0.227
Mof_C 	C 	0.27804	0.16522	0.54166	0.055
Mof_H 	H 	0.2951	0.1655	0.5181	0.004
Mof_C 	C 	0.28132	0.13284	0.57006	-0.095
Mof_H 	H 	0.3005	0.1115	0.5659	0.066
Mof_C 	C 	0.25652	0.13176	0.60454	0.007
Mof_H 	H 	0.2576	0.1096	0.6242	0.039
Mof_N 	N 	0.21888	0.27942	0.5357	-0.263
Mof_C 	C 	0.20696	0.2958	0.55408	0.105
Mof_S 	S 	0.19115	0.31881	0.58085	-0.061
Mof_N 	N 	0.29592	0.2433	0.50656	-0.226
Mof_C 	C 	0.32749	0.24147	0.47873	0.037
Mof_H 	H 	0.328	0.244	0.4564	0.013
Mof_C 	C 	0.35913	0.23599	0.48147	-0.051
Mof_C 	C 	0.35781	0.23165	0.51527	0.009
Mof_H 	H 	0.3789	0.2281	0.5181	0.037
Mof_C 	C 	0.32655	0.23259	0.54337	-0.096
Mof_H 	H 	0.3257	0.2287	0.5665	0.066
Mof_C 	C 	0.29565	0.23929	0.53847	0.053
Mof_H 	H 	0.2734	0.2412	0.5582	0.003
Mof_C 	C 	0.39263	0.23561	0.44955	0.139
Mof_N 	N 	0.3922	0.23482	0.42084	-0.155
Mof_S 	S 	0.79659	0.53359	0.04911	-0.062
Mof_C 	C 	0.77301	0.52371	0.03939	0.097
Mof_N 	N 	0.75767	0.51559	0.03185	-0.259
Mof_N 	N 	0.70964	0.46944	0.06022	-0.225
Mof_C 	C 	0.686	0.45734	0.06424	0.066
Mof_H 	H 	0.6869	0.4559	0.0435	-0.002
Mof_C 	C 	0.66013	0.44669	0.09689	-0.102
Mof_H 	H 	0.6443	0.4377	0.0983	0.066
Mof_C 	C 	0.65732	0.44922	0.12748	0.008
Mof_H 	H 	0.6395	0.4425	0.1501	0.037
Mof_C 	C 	0.68193	0.46223	0.12351	-0.047
Mof_C 	C 	0.70799	0.47115	0.08953	0.037
Mof_H 	H 	0.7253	0.4789	0.0873	0.011
Mof_N 	N 	0.76035	0.49347	0.20663	-0.227
Mof_C 	C 	0.73404	0.48812	0.20568	0.038
Mof_H 	H 	0.7127	0.4877	0.2263	0.015
Mof_C 	C 	0.73575	0.48323	0.17747	-0.049
Mof_C 	C 	0.76712	0.484	0.1467	0.008
Mof_H 	H 	0.7691	0.4817	0.1259	0.037
Mof_C 	C 	0.79451	0.48809	0.14741	-0.096
Mof_H 	H 	0.8164	0.4876	0.1274	0.064
Mof_C 	C 	0.79072	0.49298	0.17736	0.054
Mof_H 	H 	0.8101	0.4961	0.1771	0
Mof_C 	C 	0.70468	0.48012	0.17746	0.133
Mof_N 	N 	0.70927	0.47119	0.15117	-0.15
Mof_C 	C 	0.67951	0.46913	0.15331	0.132
Mof_N 	N 	0.64696	0.47574	0.17908	-0.151
Mof_C 	C 	0.64513	0.48569	0.20299	0.134
Mof_N 	N 	0.673	0.48842	0.20406	-0.148
Mof_C 	C 	0.60916	0.49644	0.23024	-0.05
Mof_C 	C 	0.57934	0.49678	0.22838	0.042
Mof_H 	H 	0.5828	0.4902	0.2096	0.011
Mof_N 	N 	0.54628	0.50588	0.2515	-0.227
Mof_C 	C 	0.54166	0.51508	0.27804	0.055
Mof_H 	H 	0.5181	0.5213	0.2951	0.004
Mof_C 	C 	0.57006	0.51578	0.28132	-0.095
Mof_H 	H 	0.5659	0.5221	0.3005	0.066
Mof_C 	C 	0.60454	0.50718	0.25652	0.007
Mof_H 	H 	0.6242	0.5086	0.2576	0.039
Mof_N 	N 	0.5357	0.466	0.21888	-0.263
Mof_C 	C 	0.55408	0.44316	0.20696	0.105
Mof_S 	S 	0.58085	0.40919	0.19115	-0.061
Mof_N 	N 	0.50656	0.45422	0.29592	-0.226
Mof_C 	C 	0.47873	0.45231	0.32749	0.037
Mof_H 	H 	0.4564	0.4716	0.328	0.013
Mof_C 	C 	0.48147	0.42341	0.35913	-0.051
Mof_C 	C 	0.51527	0.39527	0.35781	0.009
Mof_H 	H 	0.5181	0.3749	0.3789	0.037
Mof_C 	C 	0.54337	0.39749	0.32655	-0.096
Mof_H 	H 	0.5665	0.3791	0.3257	0.066
Mof_C 	C 	0.53847	0.42659	0.29565	0.053
Mof_H 	H 	0.5582	0.4272	0.2734	0.003
Mof_C 	C 	0.44955	0.42221	0.39263	0.139
Mof_N 	N 	0.42084	0.45214	0.3922	-0.155
Mof_S 	S 	0.12071	0.04911	0.53359	-0.062
Mof_C 	C 	0.16389	0.03939	0.52371	0.097
Mof_N 	N 	0.19489	0.03185	0.51559	-0.259
Mof_N 	N 	0.2607	0.06022	0.46944	-0.225
Mof_C 	C 	0.29242	0.06424	0.45734	0.066
Mof_H 	H 	0.3137	0.0435	0.4559	-0.002
Mof_C 	C 	0.29629	0.09689	0.44669	-0.102
Mof_H 	H 	0.3197	0.0983	0.4377	0.066
Mof_C 	C 	0.26598	0.12748	0.44922	0.008
Mof_H 	H 	0.2679	0.1501	0.4425	0.037
Mof_C 	C 	0.23233	0.12351	0.46223	-0.047
Mof_C 	C 	0.23133	0.08953	0.47115	0.037
Mof_H 	H 	0.2085	0.0873	0.4789	0.011
Mof_N 	N 	0.03955	0.20663	0.49347	-0.227
Mof_C 	C 	0.07216	0.20568	0.48812	0.038
Mof_H 	H 	0.0733	0.2263	0.4877	0.015
Mof_C 	C 	0.10355	0.17747	0.48323	-0.049
Mof_C 	C 	0.10218	0.1467	0.484	0.008
Mof_H 	H 	0.1233	0.1259	0.4817	0.037
Mof_C 	C 	0.06999	0.14741	0.48809	-0.096
Mof_H 	H 	0.0686	0.1274	0.4876	0.064
Mof_C 	C 	0.03894	0.17736	0.49298	0.054
Mof_H 	H 	0.0167	0.1771	0.4961	0
Mof_C 	C 	0.13774	0.17746	0.48012	0.133
Mof_N 	N 	0.16837	0.15117	0.47119	-0.15
Mof_C 	C 	0.19805	0.15331	0.46913	0.132
Mof_N 	N 	0.19822	0.17908	0.47574	-0.151
Mof_C 	C 	0.16619	0.20299	0.48569	0.134
Mof_N 	N 	0.13452	0.20406	0.48842	-0.148
Mof_C 	C 	0.16416	0.23024	0.49644	-0.05
Mof_C 	C 	0.1955	0.22838	0.49678	0.042
Mof_H 	H 	0.2174	0.2096	0.4902	0.011
Mof_N 	N 	0.19634	0.2515	0.50588	-0.227
Mof_C 	C 	0.16522	0.27804	0.51508	0.055
Mof_H 	H 	0.1655	0.2951	0.5213	0.004
Mof_C 	C 	0.13284	0.28132	0.51578	-0.095
Mof_H 	H 	0.1115	0.3005	0.5221	0.066
Mof_C 	C 	0.13176	0.25652	0.50718	0.007
Mof_H 	H 	0.1096	0.2576	0.5086	0.039
Mof_N 	N 	0.27942	0.21888	0.466	-0.263
Mof_C 	C 	0.2958	0.20696	0.44316	0.105
Mof_S 	S 	0.31881	0.19115	0.40919	-0.061
Mof_N 	N 	0.2433	0.29592	0.45422	-0.226
Mof_C 	C 	0.24147	0.32749	0.45231	0.037
Mof_H 	H 	0.244	0.328	0.4716	0.013
Mof_C 	C 	0.23599	0.35913	0.42341	-0.051
Mof_C 	C 	0.23165	0.35781	0.39527	0.009
Mof_H 	H 	0.2281	0.3789	0.3749	0.037
Mof_C 	C 	0.23259	0.32655	0.39749	-0.096
Mof_H 	H 	0.2287	0.3257	0.3791	0.066
Mof_C 	C 	0.23929	0.29565	0.42659	0.053
Mof_H 	H 	0.2412	0.2734	0.4272	0.003
Mof_C 	C 	0.23561	0.39263	0.42221	0.139
Mof_N 	N 	0.23482	0.3922	0.45214	-0.155
Mof_S 	S 	0.12071	0.53359	0.79659	-0.062
Mof_C 	C 	0.16389	0.52371	0.77301	0.097
Mof_N 	N 	0.19489	0.51559	0.75767	-0.259
Mof_N 	N 	0.2607	0.46944	0.70964	-0.225
Mof_C 	C 	0.29242	0.45734	0.686	0.066
Mof_H 	H 	0.3137	0.4559	0.6869	-0.002
Mof_C 	C 	0.29629	0.44669	0.66013	-0.102
Mof_H 	H 	0.3197	0.4377	0.6443	0.066
Mof_C 	C 	0.26598	0.44922	0.65732	0.008
Mof_H 	H 	0.2679	0.4425	0.6395	0.037
Mof_C 	C 	0.23233	0.46223	0.68193	-0.047
Mof_C 	C 	0.23133	0.47115	0.70799	0.037
Mof_H 	H 	0.2085	0.4789	0.7253	0.011
Mof_N 	N 	0.03955	0.49347	0.76035	-0.227
Mof_C 	C 	0.07216	0.48812	0.73404	0.038
Mof_H 	H 	0.0733	0.4877	0.7127	0.015
Mof_C 	C 	0.10355	0.48323	0.73575	-0.049
Mof_C 	C 	0.10218	0.484	0.76712	0.008
Mof_H 	H 	0.1233	0.4817	0.7691	0.037
Mof_C 	C 	0.06999	0.48809	0.79451	-0.096
Mof_H 	H 	0.0686	0.4876	0.8164	0.064
Mof_C 	C 	0.03894	0.49298	0.79072	0.054
Mof_H 	H 	0.0167	0.4961	0.8101	0
Mof_C 	C 	0.13774	0.48012	0.70468	0.133
Mof_N 	N 	0.16837	0.47119	0.70927	-0.15
Mof_C 	C 	0.19805	0.46913	0.67951	0.132
Mof_N 	N 	0.19822	0.47574	0.64696	-0.151
Mof_C 	C 	0.16619	0.48569	0.64513	0.134
Mof_N 	N 	0.13452	0.48842	0.673	-0.148
Mof_C 	C 	0.16416	0.49644	0.60916	-0.05
Mof_C 	C 	0.1955	0.49678	0.57934	0.042
Mof_H 	H 	0.2174	0.4902	0.5828	0.011
Mof_N 	N 	0.19634	0.50588	0.54628	-0.227
Mof_C 	C 	0.16522	0.51508	0.54166	0.055
Mof_H 	H 	0.1655	0.5213	0.5181	0.004
Mof_C 	C 	0.13284	0.51578	0.57006	-0.095
Mof_H 	H 	0.1115	0.5221	0.5659	0.066
Mof_C 	C 	0.13176	0.50718	0.60454	0.007
Mof_H 	H 	0.1096	0.5086	0.6242	0.039
Mof_N 	N 	0.27942	0.466	0.5357	-0.263
Mof_C 	C 	0.2958	0.44316	0.55408	0.105
Mof_S 	S 	0.31881	0.40919	0.58085	-0.061
Mof_N 	N 	0.2433	0.45422	0.50656	-0.226
Mof_C 	C 	0.24147	0.45231	0.47873	0.037
Mof_H 	H 	0.244	0.4716	0.4564	0.013
Mof_C 	C 	0.23599	0.42341	0.48147	-0.051
Mof_C 	C 	0.23165	0.39527	0.51527	0.009
Mof_H 	H 	0.2281	0.3749	0.5181	0.037
Mof_C 	C 	0.23259	0.39749	0.54337	-0.096
Mof_H 	H 	0.2287	0.3791	0.5665	0.066
Mof_C 	C 	0.23929	0.42659	0.53847	0.053
Mof_H 	H 	0.2412	0.4272	0.5582	0.003
Mof_C 	C 	0.23561	0.42221	0.44955	0.139
Mof_N 	N 	0.23482	0.45214	0.42084	-0.155
Mof_S 	S 	0.79659	0.04911	0.12071	-0.062
Mof_C 	C 	0.77301	0.03939	0.16389	0.097
Mof_N 	N 	0.75767	0.03185	0.19489	-0.259
Mof_N 	N 	0.70964	0.06022	0.2607	-0.225
Mof_C 	C 	0.686	0.06424	0.29242	0.066
Mof_H 	H 	0.6869	0.0435	0.3137	-0.002
Mof_C 	C 	0.66013	0.09689	0.29629	-0.102
Mof_H 	H 	0.6443	0.0983	0.3197	0.066
Mof_C 	C 	0.65732	0.12748	0.26598	0.008
Mof_H 	H 	0.6395	0.1501	0.2679	0.037
Mof_C 	C 	0.68193	0.12351	0.23233	-0.047
Mof_C 	C 	0.70799	0.08953	0.23133	0.037
Mof_H 	H 	0.7253	0.0873	0.2085	0.011
Mof_N 	N 	0.76035	0.20663	0.03955	-0.227
Mof_C 	C 	0.73404	0.20568	0.07216	0.038
Mof_H 	H 	0.7127	0.2263	0.0733	0.015
Mof_C 	C 	0.73575	0.17747	0.10355	-0.049
Mof_C 	C 	0.76712	0.1467	0.10218	0.008
Mof_H 	H 	0.7691	0.1259	0.1233	0.037
Mof_C 	C 	0.79451	0.14741	0.06999	-0.096
Mof_H 	H 	0.8164	0.1274	0.0686	0.064
Mof_C 	C 	0.79072	0.17736	0.03894	0.054
Mof_H 	H 	0.8101	0.1771	0.0167	0
Mof_C 	C 	0.70468	0.17746	0.13774	0.133
Mof_N 	N 	0.70927	0.15117	0.16837	-0.15
Mof_C 	C 	0.67951	0.15331	0.19805	0.132
Mof_N 	N 	0.64696	0.17908	0.19822	-0.151
Mof_C 	C 	0.64513	0.20299	0.16619	0.134
Mof_N 	N 	0.673	0.20406	0.13452	-0.148
Mof_C 	C 	0.60916	0.23024	0.16416	-0.05
Mof_C 	C 	0.57934	0.22838	0.1955	0.042
Mof_H 	H 	0.5828	0.2096	0.2174	0.011
Mof_N 	N 	0.54628	0.2515	0.19634	-0.227
Mof_C 	C 	0.54166	0.27804	0.16522	0.055
Mof_H 	H 	0.5181	0.2951	0.1655	0.004
Mof_C 	C 	0.57006	0.28132	0.13284	-0.095
Mof_H 	H 	0.5659	0.3005	0.1115	0.066
Mof_C 	C 	0.60454	0.25652	0.13176	0.007
Mof_H 	H 	0.6242	0.2576	0.1096	0.039
Mof_N 	N 	0.5357	0.21888	0.27942	-0.263
Mof_C 	C 	0.55408	0.20696	0.2958	0.105
Mof_S 	S 	0.58085	0.19115	0.31881	-0.061
Mof_N 	N 	0.50656	0.29592	0.2433	-0.226
Mof_C 	C 	0.47873	0.32749	0.24147	0.037
Mof_H 	H 	0.4564	0.328	0.244	0.013
Mof_C 	C 	0.48147	0.35913	0.23599	-0.051
Mof_C 	C 	0.51527	0.35781	0.23165	0.009
Mof_H 	H 	0.5181	0.3789	0.2281	0.037
Mof_C 	C 	0.54337	0.32655	0.23259	-0.096
Mof_H 	H 	0.5665	0.3257	0.2287	0.066
Mof_C 	C 	0.53847	0.29565	0.23929	0.053
Mof_H 	H 	0.5582	0.2734	0.2412	0.003
Mof_C 	C 	0.44955	0.39263	0.23561	0.139
Mof_N 	N 	0.42084	0.3922	0.23482	-0.155
Mof_S 	S 	0.04911	0.79659	0.53359	-0.062
Mof_C 	C 	0.03939	0.77301	0.52371	0.097
Mof_N 	N 	0.03185	0.75767	0.51559	-0.259
Mof_N 	N 	0.06022	0.70964	0.46944	-0.225
Mof_C 	C 	0.06424	0.686	0.45734	0.066
Mof_H 	H 	0.0435	0.6869	0.4559	-0.002
Mof_C 	C 	0.09689	0.66013	0.44669	-0.102
Mof_H 	H 	0.0983	0.6443	0.4377	0.066
Mof_C 	C 	0.12748	0.65732	0.44922	0.008
Mof_H 	H 	0.1501	0.6395	0.4425	0.037
Mof_C 	C 	0.12351	0.68193	0.46223	-0.047
Mof_C 	C 	0.08953	0.70799	0.47115	0.037
Mof_H 	H 	0.0873	0.7253	0.4789	0.011
Mof_N 	N 	0.20663	0.76035	0.49347	-0.227
Mof_C 	C 	0.20568	0.73404	0.48812	0.038
Mof_H 	H 	0.2263	0.7127	0.4877	0.015
Mof_C 	C 	0.17747	0.73575	0.48323	-0.049
Mof_C 	C 	0.1467	0.76712	0.484	0.008
Mof_H 	H 	0.1259	0.7691	0.4817	0.037
Mof_C 	C 	0.14741	0.79451	0.48809	-0.096
Mof_H 	H 	0.1274	0.8164	0.4876	0.064
Mof_C 	C 	0.17736	0.79072	0.49298	0.054
Mof_H 	H 	0.1771	0.8101	0.4961	0
Mof_C 	C 	0.17746	0.70468	0.48012	0.133
Mof_N 	N 	0.15117	0.70927	0.47119	-0.15
Mof_C 	C 	0.15331	0.67951	0.46913	0.132
Mof_N 	N 	0.17908	0.64696	0.47574	-0.151
Mof_C 	C 	0.20299	0.64513	0.48569	0.134
Mof_N 	N 	0.20406	0.673	0.48842	-0.148
Mof_C 	C 	0.23024	0.60916	0.49644	-0.05
Mof_C 	C 	0.22838	0.57934	0.49678	0.042
Mof_H 	H 	0.2096	0.5828	0.4902	0.011
Mof_N 	N 	0.2515	0.54628	0.50588	-0.227
Mof_C 	C 	0.27804	0.54166	0.51508	0.055
Mof_H 	H 	0.2951	0.5181	0.5213	0.004
Mof_C 	C 	0.28132	0.57006	0.51578	-0.095
Mof_H 	H 	0.3005	0.5659	0.5221	0.066
Mof_C 	C 	0.25652	0.60454	0.50718	0.007
Mof_H 	H 	0.2576	0.6242	0.5086	0.039
Mof_N 	N 	0.21888	0.5357	0.466	-0.263
Mof_C 	C 	0.20696	0.55408	0.44316	0.105
Mof_S 	S 	0.19115	0.58085	0.40919	-0.061
Mof_N 	N 	0.29592	0.50656	0.45422	-0.226
Mof_C 	C 	0.32749	0.47873	0.45231	0.037
Mof_H 	H 	0.328	0.4564	0.4716	0.013
Mof_C 	C 	0.35913	0.48147	0.42341	-0.051
Mof_C 	C 	0.35781	0.51527	0.39527	0.009
Mof_H 	H 	0.3789	0.5181	0.3749	0.037
Mof_C 	C 	0.32655	0.54337	0.39749	-0.096
Mof_H 	H 	0.3257	0.5665	0.3791	0.066
Mof_C 	C 	0.29565	0.53847	0.42659	0.053
Mof_H 	H 	0.2734	0.5582	0.4272	0.003
Mof_C 	C 	0.39263	0.44955	0.42221	0.139
Mof_N 	N 	0.3922	0.42084	0.45214	-0.155
Mof_S 	S 	0.53359	0.12071	0.04911	-0.062
Mof_C 	C 	0.52371	0.16389	0.03939	0.097
Mof_N 	N 	0.51559	0.19489	0.03185	-0.259
Mof_N 	N 	0.46944	0.2607	0.06022	-0.225
Mof_C 	C 	0.45734	0.29242	0.06424	0.066
Mof_H 	H 	0.4559	0.3137	0.0435	-0.002
Mof_C 	C 	0.44669	0.29629	0.09689	-0.102
Mof_H 	H 	0.4377	0.3197	0.0983	0.066
Mof_C 	C 	0.44922	0.26598	0.12748	0.008
Mof_H 	H 	0.4425	0.2679	0.1501	0.037
Mof_C 	C 	0.46223	0.23233	0.12351	-0.047
Mof_C 	C 	0.47115	0.23133	0.08953	0.037
Mof_H 	H 	0.4789	0.2085	0.0873	0.011
Mof_N 	N 	0.49347	0.03955	0.20663	-0.227
Mof_C 	C 	0.48812	0.07216	0.20568	0.038
Mof_H 	H 	0.4877	0.0733	0.2263	0.015
Mof_C 	C 	0.48323	0.10355	0.17747	-0.049
Mof_C 	C 	0.484	0.10218	0.1467	0.008
Mof_H 	H 	0.4817	0.1233	0.1259	0.037
Mof_C 	C 	0.48809	0.06999	0.14741	-0.096
Mof_H 	H 	0.4876	0.0686	0.1274	0.064
Mof_C 	C 	0.49298	0.03894	0.17736	0.054
Mof_H 	H 	0.4961	0.0167	0.1771	0
Mof_C 	C 	0.48012	0.13774	0.17746	0.133
Mof_N 	N 	0.47119	0.16837	0.15117	-0.15
Mof_C 	C 	0.46913	0.19805	0.15331	0.132
Mof_N 	N 	0.47574	0.19822	0.17908	-0.151
Mof_C 	C 	0.48569	0.16619	0.20299	0.134
Mof_N 	N 	0.48842	0.13452	0.20406	-0.148
Mof_C 	C 	0.49644	0.16416	0.23024	-0.05
Mof_C 	C 	0.49678	0.1955	0.22838	0.042
Mof_H 	H 	0.4902	0.2174	0.2096	0.011
Mof_N 	N 	0.50588	0.19634	0.2515	-0.227
Mof_C 	C 	0.51508	0.16522	0.27804	0.055
Mof_H 	H 	0.5213	0.1655	0.2951	0.004
Mof_C 	C 	0.51578	0.13284	0.28132	-0.095
Mof_H 	H 	0.5221	0.1115	0.3005	0.066
Mof_C 	C 	0.50718	0.13176	0.25652	0.007
Mof_H 	H 	0.5086	0.1096	0.2576	0.039
Mof_N 	N 	0.466	0.27942	0.21888	-0.263
Mof_C 	C 	0.44316	0.2958	0.20696	0.105
Mof_S 	S 	0.40919	0.31881	0.19115	-0.061
Mof_N 	N 	0.45422	0.2433	0.29592	-0.226
Mof_C 	C 	0.45231	0.24147	0.32749	0.037
Mof_H 	H 	0.4716	0.244	0.328	0.013
Mof_C 	C 	0.42341	0.23599	0.35913	-0.051
Mof_C 	C 	0.39527	0.23165	0.35781	0.009
Mof_H 	H 	0.3749	0.2281	0.3789	0.037
Mof_C 	C 	0.39749	0.23259	0.32655	-0.096
Mof_H 	H 	0.3791	0.2287	0.3257	0.066
Mof_C 	C 	0.42659	0.23929	0.29565	0.053
Mof_H 	H 	0.4272	0.2412	0.2734	0.003
Mof_C 	C 	0.42221	0.23561	0.39263	0.139
Mof_N 	N 	0.45214	0.23482	0.3922	-0.155
Mof_S 	S 	0.70341	0.37929	0.45089	-0.063
Mof_C 	C 	0.72699	0.33611	0.46061	0.097
Mof_N 	N 	0.74233	0.30511	0.46815	-0.259
Mof_N 	N 	0.79036	0.2393	0.43978	-0.225
Mof_C 	C 	0.814	0.20758	0.43576	0.066
Mof_H 	H 	0.8131	0.1863	0.4565	-0.002
Mof_C 	C 	0.83987	0.20371	0.40311	-0.102
Mof_H 	H 	0.8557	0.1803	0.4017	0.066
Mof_C 	C 	0.84268	0.23402	0.37252	0.008
Mof_H 	H 	0.8605	0.2321	0.3499	0.037
Mof_C 	C 	0.81807	0.26767	0.37649	-0.047
Mof_C 	C 	0.79201	0.26867	0.41047	0.037
Mof_H 	H 	0.7747	0.2915	0.4127	0.011
Mof_N 	N 	0.73965	0.46045	0.29337	-0.227
Mof_C 	C 	0.76596	0.42784	0.29432	0.038
Mof_H 	H 	0.7873	0.4267	0.2737	0.015
Mof_C 	C 	0.76425	0.39645	0.32253	-0.049
Mof_C 	C 	0.73288	0.39782	0.3533	0.008
Mof_H 	H 	0.7309	0.3767	0.3741	0.037
Mof_C 	C 	0.70549	0.43001	0.35259	-0.096
Mof_H 	H 	0.6836	0.4314	0.3726	0.064
Mof_C 	C 	0.70928	0.46106	0.32264	0.054
Mof_H 	H 	0.6899	0.4833	0.3229	0
Mof_C 	C 	0.79532	0.36226	0.32254	0.133
Mof_N 	N 	0.79073	0.33163	0.34883	-0.15
Mof_C 	C 	0.82049	0.30195	0.34669	0.132
Mof_N 	N 	0.85304	0.30178	0.32092	-0.151
Mof_C 	C 	0.85487	0.33381	0.29701	0.134
Mof_N 	N 	0.827	0.36548	0.29594	-0.148
Mof_C 	C 	0.89084	0.33584	0.26976	-0.05
Mof_C 	C 	0.92066	0.3045	0.27162	0.042
Mof_H 	H 	0.9172	0.2826	0.2904	0.011
Mof_N 	N 	0.95372	0.30366	0.2485	-0.227
Mof_C 	C 	0.95834	0.33478	0.22196	0.055
Mof_H 	H 	0.9819	0.3345	0.2049	0.004
Mof_C 	C 	0.92994	0.36716	0.21868	-0.095
Mof_H 	H 	0.9341	0.3885	0.1995	0.066
Mof_C 	C 	0.89546	0.36824	0.24348	0.007
Mof_H 	H 	0.8758	0.3904	0.2424	0.039
Mof_N 	N 	0.9643	0.22058	0.28112	-0.263
Mof_C 	C 	0.94592	0.2042	0.29304	0.105
Mof_S 	S 	0.91915	0.18119	0.30885	-0.061
Mof_N 	N 	0.99344	0.2567	0.20408	-0.226
Mof_C 	C 	0.02127	0.25853	0.17251	0.037
Mof_H 	H 	0.0436	0.256	0.172	0.013
Mof_C 	C 	0.01853	0.26401	0.14087	-0.051
Mof_C 	C 	0.98473	0.26835	0.14219	0.009
Mof_H 	H 	0.9819	0.2719	0.1211	0.037
Mof_C 	C 	0.95663	0.26741	0.17345	-0.096
Mof_H 	H 	0.9335	0.2713	0.1743	0.066
Mof_C 	C 	0.96153	0.26071	0.20435	0.053
Mof_H 	H 	0.9418	0.2588	0.2266	0.003
Mof_C 	C 	0.05045	0.26439	0.10737	0.139
Mof_N 	N 	0.07916	0.26518	0.1078	-0.155
Mof_S 	S 	0.37929	0.70341	0.96641	-0.062
Mof_C 	C 	0.33611	0.72699	0.97629	0.097
Mof_N 	N 	0.30511	0.74233	0.98441	-0.259
Mof_N 	N 	0.2393	0.79036	0.03056	-0.225
Mof_C 	C 	0.20758	0.814	0.04266	0.066
Mof_H 	H 	0.1863	0.8131	0.0441	-0.002
Mof_C 	C 	0.20371	0.83987	0.05331	-0.102
Mof_H 	H 	0.1803	0.8557	0.0623	0.066
Mof_C 	C 	0.23402	0.84268	0.05078	0.008
Mof_H 	H 	0.2321	0.8605	0.0575	0.037
Mof_C 	C 	0.26767	0.81807	0.03777	-0.047
Mof_C 	C 	0.26867	0.79201	0.02885	0.037
Mof_H 	H 	0.2915	0.7747	0.0211	0.011
Mof_N 	N 	0.46045	0.73965	0.00653	-0.227
Mof_C 	C 	0.42784	0.76596	0.01188	0.038
Mof_H 	H 	0.4267	0.7873	0.0123	0.015
Mof_C 	C 	0.39645	0.76425	0.01677	-0.049
Mof_C 	C 	0.39782	0.73288	0.016	0.008
Mof_H 	H 	0.3767	0.7309	0.0183	0.037
Mof_C 	C 	0.43001	0.70549	0.01191	-0.096
Mof_H 	H 	0.4314	0.6836	0.0124	0.064
Mof_C 	C 	0.46106	0.70928	0.00702	0.054
Mof_H 	H 	0.4833	0.6899	0.0039	0
Mof_C 	C 	0.36226	0.79532	0.01988	0.133
Mof_N 	N 	0.33163	0.79073	0.02881	-0.15
Mof_C 	C 	0.30195	0.82049	0.03087	0.132
Mof_N 	N 	0.30178	0.85304	0.02426	-0.151
Mof_C 	C 	0.33381	0.85487	0.01431	0.134
Mof_N 	N 	0.36548	0.827	0.01158	-0.148
Mof_C 	C 	0.33584	0.89084	0.00356	-0.05
Mof_C 	C 	0.3045	0.92066	0.00322	0.042
Mof_H 	H 	0.2826	0.9172	0.0098	0.011
Mof_N 	N 	0.30366	0.95372	0.99412	-0.227
Mof_C 	C 	0.33478	0.95834	0.98492	0.055
Mof_H 	H 	0.3345	0.9819	0.9787	0.004
Mof_C 	C 	0.36716	0.92994	0.98422	-0.095
Mof_H 	H 	0.3885	0.9341	0.9779	0.066
Mof_C 	C 	0.36824	0.89546	0.99282	0.007
Mof_H 	H 	0.3904	0.8758	0.9914	0.039
Mof_N 	N 	0.22058	0.9643	0.034	-0.263
Mof_C 	C 	0.2042	0.94592	0.05684	0.105
Mof_S 	S 	0.18119	0.91915	0.09081	-0.061
Mof_N 	N 	0.2567	0.99344	0.04578	-0.226
Mof_C 	C 	0.25853	0.02127	0.04769	0.037
Mof_H 	H 	0.256	0.0436	0.0284	0.013
Mof_C 	C 	0.26401	0.01853	0.07659	-0.051
Mof_C 	C 	0.26835	0.98473	0.10473	0.009
Mof_H 	H 	0.2719	0.9819	0.1251	0.037
Mof_C 	C 	0.26741	0.95663	0.10251	-0.096
Mof_H 	H 	0.2713	0.9335	0.1209	0.066
Mof_C 	C 	0.26071	0.96153	0.07341	0.053
Mof_H 	H 	0.2588	0.9418	0.0728	0.003
Mof_C 	C 	0.26439	0.05045	0.07779	0.139
Mof_N 	N 	0.26518	0.07916	0.04786	-0.155
Mof_S 	S 	0.96641	0.45089	0.37929	-0.062
Mof_C 	C 	0.97629	0.46061	0.33611	0.097
Mof_N 	N 	0.98441	0.46815	0.30511	-0.259
Mof_N 	N 	0.03056	0.43978	0.2393	-0.225
Mof_C 	C 	0.04266	0.43576	0.20758	0.066
Mof_H 	H 	0.0441	0.4565	0.1863	-0.002
Mof_C 	C 	0.05331	0.40311	0.20371	-0.102
Mof_H 	H 	0.0623	0.4017	0.1803	0.066
Mof_C 	C 	0.05078	0.37252	0.23402	0.008
Mof_H 	H 	0.0575	0.3499	0.2321	0.037
Mof_C 	C 	0.03777	0.37649	0.26767	-0.047
Mof_C 	C 	0.02885	0.41047	0.26867	0.037
Mof_H 	H 	0.0211	0.4127	0.2915	0.011
Mof_N 	N 	0.00653	0.29337	0.46045	-0.227
Mof_C 	C 	0.01188	0.29432	0.42784	0.038
Mof_H 	H 	0.0123	0.2737	0.4267	0.015
Mof_C 	C 	0.01677	0.32253	0.39645	-0.049
Mof_C 	C 	0.016	0.3533	0.39782	0.008
Mof_H 	H 	0.0183	0.3741	0.3767	0.037
Mof_C 	C 	0.01191	0.35259	0.43001	-0.096
Mof_H 	H 	0.0124	0.3726	0.4314	0.064
Mof_C 	C 	0.00702	0.32264	0.46106	0.054
Mof_H 	H 	0.0039	0.3229	0.4833	0
Mof_C 	C 	0.01988	0.32254	0.36226	0.133
Mof_N 	N 	0.02881	0.34883	0.33163	-0.15
Mof_C 	C 	0.03087	0.34669	0.30195	0.132
Mof_N 	N 	0.02426	0.32092	0.30178	-0.151
Mof_C 	C 	0.01431	0.29701	0.33381	0.134
Mof_N 	N 	0.01158	0.29594	0.36548	-0.148
Mof_C 	C 	0.00356	0.26976	0.33584	-0.049
Mof_C 	C 	0.00322	0.27162	0.3045	0.042
Mof_H 	H 	0.0098	0.2904	0.2826	0.011
Mof_N 	N 	0.99412	0.2485	0.30366	-0.227
Mof_C 	C 	0.98492	0.22196	0.33478	0.055
Mof_H 	H 	0.9787	0.2049	0.3345	0.004
Mof_C 	C 	0.98422	0.21868	0.36716	-0.095
Mof_H 	H 	0.9779	0.1995	0.3885	0.066
Mof_C 	C 	0.99282	0.24348	0.36824	0.007
Mof_H 	H 	0.9914	0.2424	0.3904	0.039
Mof_N 	N 	0.034	0.28112	0.22058	-0.263
Mof_C 	C 	0.05684	0.29304	0.2042	0.105
Mof_S 	S 	0.09081	0.30885	0.18119	-0.061
Mof_N 	N 	0.04578	0.20408	0.2567	-0.226
Mof_C 	C 	0.04769	0.17251	0.25853	0.037
Mof_H 	H 	0.0284	0.172	0.256	0.013
Mof_C 	C 	0.07659	0.14087	0.26401	-0.051
Mof_C 	C 	0.10473	0.14219	0.26835	0.009
Mof_H 	H 	0.1251	0.1211	0.2719	0.037
Mof_C 	C 	0.10251	0.17345	0.26741	-0.096
Mof_H 	H 	0.1209	0.1743	0.2713	0.066
Mof_C 	C 	0.07341	0.20435	0.26071	0.053
Mof_H 	H 	0.0728	0.2266	0.2588	0.003
Mof_C 	C 	0.07779	0.10737	0.26439	0.139
Mof_N 	N 	0.04786	0.1078	0.26518	-0.155
Mof_S 	S 	0.45089	0.96641	0.70341	-0.062
Mof_C 	C 	0.46061	0.97629	0.72699	0.097
Mof_N 	N 	0.46815	0.98441	0.74233	-0.259
Mof_N 	N 	0.43978	0.03056	0.79036	-0.225
Mof_C 	C 	0.43576	0.04266	0.814	0.066
Mof_H 	H 	0.4565	0.0441	0.8131	-0.002
Mof_C 	C 	0.40311	0.05331	0.83987	-0.102
Mof_H 	H 	0.4017	0.0623	0.8557	0.066
Mof_C 	C 	0.37252	0.05078	0.84268	0.008
Mof_H 	H 	0.3499	0.0575	0.8605	0.037
Mof_C 	C 	0.37649	0.03777	0.81807	-0.047
Mof_C 	C 	0.41047	0.02885	0.79201	0.037
Mof_H 	H 	0.4127	0.0211	0.7747	0.011
Mof_N 	N 	0.29337	0.00653	0.73965	-0.227
Mof_C 	C 	0.29432	0.01188	0.76596	0.038
Mof_H 	H 	0.2737	0.0123	0.7873	0.015
Mof_C 	C 	0.32253	0.01677	0.76425	-0.049
Mof_C 	C 	0.3533	0.016	0.73288	0.008
Mof_H 	H 	0.3741	0.0183	0.7309	0.037
Mof_C 	C 	0.35259	0.01191	0.70549	-0.096
Mof_H 	H 	0.3726	0.0124	0.6836	0.064
Mof_C 	C 	0.32264	0.00702	0.70928	0.054
Mof_H 	H 	0.3229	0.0039	0.6899	0
Mof_C 	C 	0.32254	0.01988	0.79532	0.133
Mof_N 	N 	0.34883	0.02881	0.79073	-0.15
Mof_C 	C 	0.34669	0.03087	0.82049	0.132
Mof_N 	N 	0.32092	0.02426	0.85304	-0.151
Mof_C 	C 	0.29701	0.01431	0.85487	0.134
Mof_N 	N 	0.29594	0.01158	0.827	-0.148
Mof_C 	C 	0.26976	0.00356	0.89084	-0.05
Mof_C 	C 	0.27162	0.00322	0.92066	0.042
Mof_H 	H 	0.2904	0.0098	0.9172	0.011
Mof_N 	N 	0.2485	0.99412	0.95372	-0.227
Mof_C 	C 	0.22196	0.98492	0.95834	0.055
Mof_H 	H 	0.2049	0.9787	0.9819	0.004
Mof_C 	C 	0.21868	0.98422	0.92994	-0.095
Mof_H 	H 	0.1995	0.9779	0.9341	0.066
Mof_C 	C 	0.24348	0.99282	0.89546	0.007
Mof_H 	H 	0.2424	0.9914	0.8758	0.039
Mof_N 	N 	0.28112	0.034	0.9643	-0.263
Mof_C 	C 	0.29304	0.05684	0.94592	0.105
Mof_S 	S 	0.30885	0.09081	0.91915	-0.061
Mof_N 	N 	0.20408	0.04578	0.99344	-0.226
Mof_C 	C 	0.17251	0.04769	0.02127	0.037
Mof_H 	H 	0.172	0.0284	0.0436	0.013
Mof_C 	C 	0.14087	0.07659	0.01853	-0.051
Mof_C 	C 	0.14219	0.10473	0.98473	0.009
Mof_H 	H 	0.1211	0.1251	0.9819	0.037
Mof_C 	C 	0.17345	0.10251	0.95663	-0.096
Mof_H 	H 	0.1743	0.1209	0.9335	0.066
Mof_C 	C 	0.20435	0.07341	0.96153	0.053
Mof_H 	H 	0.2266	0.0728	0.9418	0.003
Mof_C 	C 	0.10737	0.07779	0.05045	0.139
Mof_N 	N 	0.1078	0.04786	0.07916	-0.155
Mof_S 	S 	0.96641	0.70341	0.45089	-0.062
Mof_C 	C 	0.97629	0.72699	0.46061	0.097
Mof_N 	N 	0.98441	0.74233	0.46815	-0.259
Mof_N 	N 	0.03056	0.79036	0.43978	-0.225
Mof_C 	C 	0.04266	0.814	0.43576	0.066
Mof_H 	H 	0.0441	0.8131	0.4565	-0.002
Mof_C 	C 	0.05331	0.83987	0.40311	-0.102
Mof_H 	H 	0.0623	0.8557	0.4017	0.066
Mof_C 	C 	0.05078	0.84268	0.37252	0.008
Mof_H 	H 	0.0575	0.8605	0.3499	0.037
Mof_C 	C 	0.03777	0.81807	0.37649	-0.047
Mof_C 	C 	0.02885	0.79201	0.41047	0.037
Mof_H 	H 	0.0211	0.7747	0.4127	0.011
Mof_N 	N 	0.00653	0.73965	0.29337	-0.227
Mof_C 	C 	0.01188	0.76596	0.29432	0.038
Mof_H 	H 	0.0123	0.7873	0.2737	0.015
Mof_C 	C 	0.01677	0.76425	0.32253	-0.049
Mof_C 	C 	0.016	0.73288	0.3533	0.008
Mof_H 	H 	0.0183	0.7309	0.3741	0.037
Mof_C 	C 	0.01191	0.70549	0.35259	-0.096
Mof_H 	H 	0.0124	0.6836	0.3726	0.064
Mof_C 	C 	0.00702	0.70928	0.32264	0.054
Mof_H 	H 	0.0039	0.6899	0.3229	0
Mof_C 	C 	0.01988	0.79532	0.32254	0.133
Mof_N 	N 	0.02881	0.79073	0.34883	-0.15
Mof_C 	C 	0.03087	0.82049	0.34669	0.132
Mof_N 	N 	0.02426	0.85304	0.32092	-0.151
Mof_C 	C 	0.01431	0.85487	0.29701	0.134
Mof_N 	N 	0.01158	0.827	0.29594	-0.148
Mof_C 	C 	0.00356	0.89084	0.26976	-0.05
Mof_C 	C 	0.00322	0.92066	0.27162	0.042
Mof_H 	H 	0.0098	0.9172	0.2904	0.011
Mof_N 	N 	0.99412	0.95372	0.2485	-0.227
Mof_C 	C 	0.98492	0.95834	0.22196	0.055
Mof_H 	H 	0.9787	0.9819	0.2049	0.004
Mof_C 	C 	0.98422	0.92994	0.21868	-0.095
Mof_H 	H 	0.9779	0.9341	0.1995	0.066
Mof_C 	C 	0.99282	0.89546	0.24348	0.007
Mof_H 	H 	0.9914	0.8758	0.2424	0.039
Mof_N 	N 	0.034	0.9643	0.28112	-0.263
Mof_C 	C 	0.05684	0.94592	0.29304	0.105
Mof_S 	S 	0.09081	0.91915	0.30885	-0.061
Mof_N 	N 	0.04578	0.99344	0.20408	-0.226
Mof_C 	C 	0.04769	0.02127	0.17251	0.037
Mof_H 	H 	0.0284	0.0436	0.172	0.013
Mof_C 	C 	0.07659	0.01853	0.14087	-0.051
Mof_C 	C 	0.10473	0.98473	0.14219	0.009
Mof_H 	H 	0.1251	0.9819	0.1211	0.037
Mof_C 	C 	0.10251	0.95663	0.17345	-0.096
Mof_H 	H 	0.1209	0.9335	0.1743	0.066
Mof_C 	C 	0.07341	0.96153	0.20435	0.053
Mof_H 	H 	0.0728	0.9418	0.2266	0.003
Mof_C 	C 	0.07779	0.05045	0.10737	0.139
Mof_N 	N 	0.04786	0.07916	0.1078	-0.155
Mof_S 	S 	0.45089	0.37929	0.96641	-0.062
Mof_C 	C 	0.46061	0.33611	0.97629	0.097
Mof_N 	N 	0.46815	0.30511	0.98441	-0.259
Mof_N 	N 	0.43978	0.2393	0.03056	-0.225
Mof_C 	C 	0.43576	0.20758	0.04266	0.066
Mof_H 	H 	0.4565	0.1863	0.0441	-0.002
Mof_C 	C 	0.40311	0.20371	0.05331	-0.102
Mof_H 	H 	0.4017	0.1803	0.0623	0.066
Mof_C 	C 	0.37252	0.23402	0.05078	0.008
Mof_H 	H 	0.3499	0.2321	0.0575	0.037
Mof_C 	C 	0.37649	0.26767	0.03777	-0.047
Mof_C 	C 	0.41047	0.26867	0.02885	0.037
Mof_H 	H 	0.4127	0.2915	0.0211	0.011
Mof_N 	N 	0.29337	0.46045	0.00653	-0.227
Mof_C 	C 	0.29432	0.42784	0.01188	0.038
Mof_H 	H 	0.2737	0.4267	0.0123	0.015
Mof_C 	C 	0.32253	0.39645	0.01677	-0.049
Mof_C 	C 	0.3533	0.39782	0.016	0.008
Mof_H 	H 	0.3741	0.3767	0.0183	0.037
Mof_C 	C 	0.35259	0.43001	0.01191	-0.096
Mof_H 	H 	0.3726	0.4314	0.0124	0.064
Mof_C 	C 	0.32264	0.46106	0.00702	0.054
Mof_H 	H 	0.3229	0.4833	0.0039	0
Mof_C 	C 	0.32254	0.36226	0.01988	0.133
Mof_N 	N 	0.34883	0.33163	0.02881	-0.15
Mof_C 	C 	0.34669	0.30195	0.03087	0.132
Mof_N 	N 	0.32092	0.30178	0.02426	-0.151
Mof_C 	C 	0.29701	0.33381	0.01431	0.134
Mof_N 	N 	0.29594	0.36548	0.01158	-0.148
Mof_C 	C 	0.26976	0.33584	0.00356	-0.049
Mof_C 	C 	0.27162	0.3045	0.00322	0.042
Mof_H 	H 	0.2904	0.2826	0.0098	0.011
Mof_N 	N 	0.2485	0.30366	0.99412	-0.227
Mof_C 	C 	0.22196	0.33478	0.98492	0.055
Mof_H 	H 	0.2049	0.3345	0.9787	0.004
Mof_C 	C 	0.21868	0.36716	0.98422	-0.095
Mof_H 	H 	0.1995	0.3885	0.9779	0.066
Mof_C 	C 	0.24348	0.36824	0.99282	0.007
Mof_H 	H 	0.2424	0.3904	0.9914	0.039
Mof_N 	N 	0.28112	0.22058	0.034	-0.263
Mof_C 	C 	0.29304	0.2042	0.05684	0.105
Mof_S 	S 	0.30885	0.18119	0.09081	-0.061
Mof_N 	N 	0.20408	0.2567	0.04578	-0.226
Mof_C 	C 	0.17251	0.25853	0.04769	0.037
Mof_H 	H 	0.172	0.256	0.0284	0.013
Mof_C 	C 	0.14087	0.26401	0.07659	-0.051
Mof_C 	C 	0.14219	0.26835	0.10473	0.009
Mof_H 	H 	0.1211	0.2719	0.1251	0.037
Mof_C 	C 	0.17345	0.26741	0.10251	-0.096
Mof_H 	H 	0.1743	0.2713	0.1209	0.066
Mof_C 	C 	0.20435	0.26071	0.07341	0.053
Mof_H 	H 	0.2266	0.2588	0.0728	0.003
Mof_C 	C 	0.10737	0.26439	0.07779	0.139
Mof_N 	N 	0.1078	0.26518	0.04786	-0.155
Mof_S 	S 	0.70341	0.96641	0.37929	-0.062
Mof_C 	C 	0.72699	0.97629	0.33611	0.097
Mof_N 	N 	0.74233	0.98441	0.30511	-0.259
Mof_N 	N 	0.79036	0.03056	0.2393	-0.225
Mof_C 	C 	0.814	0.04266	0.20758	0.066
Mof_H 	H 	0.8131	0.0441	0.1863	-0.002
Mof_C 	C 	0.83987	0.05331	0.20371	-0.102
Mof_H 	H 	0.8557	0.0623	0.1803	0.066
Mof_C 	C 	0.84268	0.05078	0.23402	0.008
Mof_H 	H 	0.8605	0.0575	0.2321	0.037
Mof_C 	C 	0.81807	0.03777	0.26767	-0.047
Mof_C 	C 	0.79201	0.02885	0.26867	0.037
Mof_H 	H 	0.7747	0.0211	0.2915	0.011
Mof_N 	N 	0.73965	0.00653	0.46045	-0.227
Mof_C 	C 	0.76596	0.01188	0.42784	0.038
Mof_H 	H 	0.7873	0.0123	0.4267	0.015
Mof_C 	C 	0.76425	0.01677	0.39645	-0.049
Mof_C 	C 	0.73288	0.016	0.39782	0.008
Mof_H 	H 	0.7309	0.0183	0.3767	0.037
Mof_C 	C 	0.70549	0.01191	0.43001	-0.096
Mof_H 	H 	0.6836	0.0124	0.4314	0.064
Mof_C 	C 	0.70928	0.00702	0.46106	0.054
Mof_H 	H 	0.6899	0.0039	0.4833	0
Mof_C 	C 	0.79532	0.01988	0.36226	0.133
Mof_N 	N 	0.79073	0.02881	0.33163	-0.15
Mof_C 	C 	0.82049	0.03087	0.30195	0.132
Mof_N 	N 	0.85304	0.02426	0.30178	-0.151
Mof_C 	C 	0.85487	0.01431	0.33381	0.134
Mof_N 	N 	0.827	0.01158	0.36548	-0.148
Mof_C 	C 	0.89084	0.00356	0.33584	-0.05
Mof_C 	C 	0.92066	0.00322	0.3045	0.042
Mof_H 	H 	0.9172	0.0098	0.2826	0.011
Mof_N 	N 	0.95372	0.99412	0.30366	-0.227
Mof_C 	C 	0.95834	0.98492	0.33478	0.055
Mof_H 	H 	0.9819	0.9787	0.3345	0.004
Mof_C 	C 	0.92994	0.98422	0.36716	-0.095
Mof_H 	H 	0.9341	0.9779	0.3885	0.066
Mof_C 	C 	0.89546	0.99282	0.36824	0.007
Mof_H 	H 	0.8758	0.9914	0.3904	0.039
Mof_N 	N 	0.9643	0.034	0.22058	-0.263
Mof_C 	C 	0.94592	0.05684	0.2042	0.105
Mof_S 	S 	0.91915	0.09081	0.18119	-0.061
Mof_N 	N 	0.99344	0.04578	0.2567	-0.226
Mof_C 	C 	0.02127	0.04769	0.25853	0.037
Mof_H 	H 	0.0436	0.0284	0.256	0.013
Mof_C 	C 	0.01853	0.07659	0.26401	-0.051
Mof_C 	C 	0.98473	0.10473	0.26835	0.009
Mof_H 	H 	0.9819	0.1251	0.2719	0.037
Mof_C 	C 	0.95663	0.10251	0.26741	-0.096
Mof_H 	H 	0.9335	0.1209	0.2713	0.066
Mof_C 	C 	0.96153	0.07341	0.26071	0.053
Mof_H 	H 	0.9418	0.0728	0.2588	0.003
Mof_C 	C 	0.05045	0.07779	0.26439	0.139
Mof_N 	N 	0.07916	0.04786	0.26518	-0.155
Mof_S 	S 	0.37929	0.45089	0.70341	-0.063
Mof_C 	C 	0.33611	0.46061	0.72699	0.097
Mof_N 	N 	0.30511	0.46815	0.74233	-0.259
Mof_N 	N 	0.2393	0.43978	0.79036	-0.225
Mof_C 	C 	0.20758	0.43576	0.814	0.066
Mof_H 	H 	0.1863	0.4565	0.8131	-0.002
Mof_C 	C 	0.20371	0.40311	0.83987	-0.102
Mof_H 	H 	0.1803	0.4017	0.8557	0.066
Mof_C 	C 	0.23402	0.37252	0.84268	0.008
Mof_H 	H 	0.2321	0.3499	0.8605	0.037
Mof_C 	C 	0.26767	0.37649	0.81807	-0.047
Mof_C 	C 	0.26867	0.41047	0.79201	0.037
Mof_H 	H 	0.2915	0.4127	0.7747	0.011
Mof_N 	N 	0.46045	0.29337	0.73965	-0.227
Mof_C 	C 	0.42784	0.29432	0.76596	0.038
Mof_H 	H 	0.4267	0.2737	0.7873	0.015
Mof_C 	C 	0.39645	0.32253	0.76425	-0.049
Mof_C 	C 	0.39782	0.3533	0.73288	0.008
Mof_H 	H 	0.3767	0.3741	0.7309	0.037
Mof_C 	C 	0.43001	0.35259	0.70549	-0.096
Mof_H 	H 	0.4314	0.3726	0.6836	0.064
Mof_C 	C 	0.46106	0.32264	0.70928	0.054
Mof_H 	H 	0.4833	0.3229	0.6899	0
Mof_C 	C 	0.36226	0.32254	0.79532	0.133
Mof_N 	N 	0.33163	0.34883	0.79073	-0.15
Mof_C 	C 	0.30195	0.34669	0.82049	0.132
Mof_N 	N 	0.30178	0.32092	0.85304	-0.151
Mof_C 	C 	0.33381	0.29701	0.85487	0.134
Mof_N 	N 	0.36548	0.29594	0.827	-0.148
Mof_C 	C 	0.33584	0.26976	0.89084	-0.05
Mof_C 	C 	0.3045	0.27162	0.92066	0.042
Mof_H 	H 	0.2826	0.2904	0.9172	0.011
Mof_N 	N 	0.30366	0.2485	0.95372	-0.227
Mof_C 	C 	0.33478	0.22196	0.95834	0.055
Mof_H 	H 	0.3345	0.2049	0.9819	0.004
Mof_C 	C 	0.36716	0.21868	0.92994	-0.095
Mof_H 	H 	0.3885	0.1995	0.9341	0.066
Mof_C 	C 	0.36824	0.24348	0.89546	0.007
Mof_H 	H 	0.3904	0.2424	0.8758	0.039
Mof_N 	N 	0.22058	0.28112	0.9643	-0.263
Mof_C 	C 	0.2042	0.29304	0.94592	0.105
Mof_S 	S 	0.18119	0.30885	0.91915	-0.061
Mof_N 	N 	0.2567	0.20408	0.99344	-0.226
Mof_C 	C 	0.25853	0.17251	0.02127	0.037
Mof_H 	H 	0.256	0.172	0.0436	0.013
Mof_C 	C 	0.26401	0.14087	0.01853	-0.051
Mof_C 	C 	0.26835	0.14219	0.98473	0.009
Mof_H 	H 	0.2719	0.1211	0.9819	0.037
Mof_C 	C 	0.26741	0.17345	0.95663	-0.096
Mof_H 	H 	0.2713	0.1743	0.9335	0.066
Mof_C 	C 	0.26071	0.20435	0.96153	0.053
Mof_H 	H 	0.2588	0.2266	0.9418	0.003
Mof_C 	C 	0.26439	0.10737	0.05045	0.139
Mof_N 	N 	0.26518	0.1078	0.07916	-0.155
Mof_S 	S 	0.37929	0.96641	0.45089	-0.062
Mof_C 	C 	0.33611	0.97629	0.46061	0.097
Mof_N 	N 	0.30511	0.98441	0.46815	-0.259
Mof_N 	N 	0.2393	0.03056	0.43978	-0.225
Mof_C 	C 	0.20758	0.04266	0.43576	0.066
Mof_H 	H 	0.1863	0.0441	0.4565	-0.002
Mof_C 	C 	0.20371	0.05331	0.40311	-0.102
Mof_H 	H 	0.1803	0.0623	0.4017	0.066
Mof_C 	C 	0.23402	0.05078	0.37252	0.008
Mof_H 	H 	0.2321	0.0575	0.3499	0.037
Mof_C 	C 	0.26767	0.03777	0.37649	-0.047
Mof_C 	C 	0.26867	0.02885	0.41047	0.037
Mof_H 	H 	0.2915	0.0211	0.4127	0.011
Mof_N 	N 	0.46045	0.00653	0.29337	-0.227
Mof_C 	C 	0.42784	0.01188	0.29432	0.038
Mof_H 	H 	0.4267	0.0123	0.2737	0.015
Mof_C 	C 	0.39645	0.01677	0.32253	-0.049
Mof_C 	C 	0.39782	0.016	0.3533	0.008
Mof_H 	H 	0.3767	0.0183	0.3741	0.037
Mof_C 	C 	0.43001	0.01191	0.35259	-0.096
Mof_H 	H 	0.4314	0.0124	0.3726	0.064
Mof_C 	C 	0.46106	0.00702	0.32264	0.054
Mof_H 	H 	0.4833	0.0039	0.3229	0
Mof_C 	C 	0.36226	0.01988	0.32254	0.133
Mof_N 	N 	0.33163	0.02881	0.34883	-0.15
Mof_C 	C 	0.30195	0.03087	0.34669	0.132
Mof_N 	N 	0.30178	0.02426	0.32092	-0.151
Mof_C 	C 	0.33381	0.01431	0.29701	0.134
Mof_N 	N 	0.36548	0.01158	0.29594	-0.148
Mof_C 	C 	0.33584	0.00356	0.26976	-0.049
Mof_C 	C 	0.3045	0.00322	0.27162	0.042
Mof_H 	H 	0.2826	0.0098	0.2904	0.011
Mof_N 	N 	0.30366	0.99412	0.2485	-0.227
Mof_C 	C 	0.33478	0.98492	0.22196	0.055
Mof_H 	H 	0.3345	0.9787	0.2049	0.004
Mof_C 	C 	0.36716	0.98422	0.21868	-0.095
Mof_H 	H 	0.3885	0.9779	0.1995	0.066
Mof_C 	C 	0.36824	0.99282	0.24348	0.007
Mof_H 	H 	0.3904	0.9914	0.2424	0.039
Mof_N 	N 	0.22058	0.034	0.28112	-0.263
Mof_C 	C 	0.2042	0.05684	0.29304	0.105
Mof_S 	S 	0.18119	0.09081	0.30885	-0.061
Mof_N 	N 	0.2567	0.04578	0.20408	-0.226
Mof_C 	C 	0.25853	0.04769	0.17251	0.037
Mof_H 	H 	0.256	0.0284	0.172	0.013
Mof_C 	C 	0.26401	0.07659	0.14087	-0.051
Mof_C 	C 	0.26835	0.10473	0.14219	0.009
Mof_H 	H 	0.2719	0.1251	0.1211	0.037
Mof_C 	C 	0.26741	0.10251	0.17345	-0.096
Mof_H 	H 	0.2713	0.1209	0.1743	0.066
Mof_C 	C 	0.26071	0.07341	0.20435	0.053
Mof_H 	H 	0.2588	0.0728	0.2266	0.003
Mof_C 	C 	0.26439	0.07779	0.10737	0.139
Mof_N 	N 	0.26518	0.04786	0.1078	-0.155
Mof_S 	S 	0.70341	0.45089	0.96641	-0.062
Mof_C 	C 	0.72699	0.46061	0.97629	0.097
Mof_N 	N 	0.74233	0.46815	0.98441	-0.259
Mof_N 	N 	0.79036	0.43978	0.03056	-0.225
Mof_C 	C 	0.814	0.43576	0.04266	0.066
Mof_H 	H 	0.8131	0.4565	0.0441	-0.002
Mof_C 	C 	0.83987	0.40311	0.05331	-0.102
Mof_H 	H 	0.8557	0.4017	0.0623	0.066
Mof_C 	C 	0.84268	0.37252	0.05078	0.008
Mof_H 	H 	0.8605	0.3499	0.0575	0.037
Mof_C 	C 	0.81807	0.37649	0.03777	-0.047
Mof_C 	C 	0.79201	0.41047	0.02885	0.037
Mof_H 	H 	0.7747	0.4127	0.0211	0.011
Mof_N 	N 	0.73965	0.29337	0.00653	-0.227
Mof_C 	C 	0.76596	0.29432	0.01188	0.038
Mof_H 	H 	0.7873	0.2737	0.0123	0.015
Mof_C 	C 	0.76425	0.32253	0.01677	-0.049
Mof_C 	C 	0.73288	0.3533	0.016	0.008
Mof_H 	H 	0.7309	0.3741	0.0183	0.037
Mof_C 	C 	0.70549	0.35259	0.01191	-0.096
Mof_H 	H 	0.6836	0.3726	0.0124	0.064
Mof_C 	C 	0.70928	0.32264	0.00702	0.054
Mof_H 	H 	0.6899	0.3229	0.0039	0
Mof_C 	C 	0.79532	0.32254	0.01988	0.133
Mof_N 	N 	0.79073	0.34883	0.02881	-0.15
Mof_C 	C 	0.82049	0.34669	0.03087	0.132
Mof_N 	N 	0.85304	0.32092	0.02426	-0.151
Mof_C 	C 	0.85487	0.29701	0.01431	0.134
Mof_N 	N 	0.827	0.29594	0.01158	-0.148
Mof_C 	C 	0.89084	0.26976	0.00356	-0.05
Mof_C 	C 	0.92066	0.27162	0.00322	0.042
Mof_H 	H 	0.9172	0.2904	0.0098	0.011
Mof_N 	N 	0.95372	0.2485	0.99412	-0.227
Mof_C 	C 	0.95834	0.22196	0.98492	0.055
Mof_H 	H 	0.9819	0.2049	0.9787	0.004
Mof_C 	C 	0.92994	0.21868	0.98422	-0.095
Mof_H 	H 	0.9341	0.1995	0.9779	0.066
Mof_C 	C 	0.89546	0.24348	0.99282	0.007
Mof_H 	H 	0.8758	0.2424	0.9914	0.039
Mof_N 	N 	0.9643	0.28112	0.034	-0.263
Mof_C 	C 	0.94592	0.29304	0.05684	0.105
Mof_S 	S 	0.91915	0.30885	0.09081	-0.061
Mof_N 	N 	0.99344	0.20408	0.04578	-0.226
Mof_C 	C 	0.02127	0.17251	0.04769	0.037
Mof_H 	H 	0.0436	0.172	0.0284	0.013
Mof_C 	C 	0.01853	0.14087	0.07659	-0.051
Mof_C 	C 	0.98473	0.14219	0.10473	0.009
Mof_H 	H 	0.9819	0.1211	0.1251	0.037
Mof_C 	C 	0.95663	0.17345	0.10251	-0.096
Mof_H 	H 	0.9335	0.1743	0.1209	0.066
Mof_C 	C 	0.96153	0.20435	0.07341	0.053
Mof_H 	H 	0.9418	0.2266	0.0728	0.003
Mof_C 	C 	0.05045	0.10737	0.07779	0.139
Mof_N 	N 	0.07916	0.1078	0.04786	-0.155
Mof_S 	S 	0.45089	0.70341	0.37929	-0.063
Mof_C 	C 	0.46061	0.72699	0.33611	0.097
Mof_N 	N 	0.46815	0.74233	0.30511	-0.259
Mof_N 	N 	0.43978	0.79036	0.2393	-0.225
Mof_C 	C 	0.43576	0.814	0.20758	0.066
Mof_H 	H 	0.4565	0.8131	0.1863	-0.002
Mof_C 	C 	0.40311	0.83987	0.20371	-0.102
Mof_H 	H 	0.4017	0.8557	0.1803	0.066
Mof_C 	C 	0.37252	0.84268	0.23402	0.008
Mof_H 	H 	0.3499	0.8605	0.2321	0.037
Mof_C 	C 	0.37649	0.81807	0.26767	-0.047
Mof_C 	C 	0.41047	0.79201	0.26867	0.037
Mof_H 	H 	0.4127	0.7747	0.2915	0.011
Mof_N 	N 	0.29337	0.73965	0.46045	-0.227
Mof_C 	C 	0.29432	0.76596	0.42784	0.038
Mof_H 	H 	0.2737	0.7873	0.4267	0.015
Mof_C 	C 	0.32253	0.76425	0.39645	-0.049
Mof_C 	C 	0.3533	0.73288	0.39782	0.008
Mof_H 	H 	0.3741	0.7309	0.3767	0.037
Mof_C 	C 	0.35259	0.70549	0.43001	-0.096
Mof_H 	H 	0.3726	0.6836	0.4314	0.064
Mof_C 	C 	0.32264	0.70928	0.46106	0.054
Mof_H 	H 	0.3229	0.6899	0.4833	0
Mof_C 	C 	0.32254	0.79532	0.36226	0.133
Mof_N 	N 	0.34883	0.79073	0.33163	-0.15
Mof_C 	C 	0.34669	0.82049	0.30195	0.132
Mof_N 	N 	0.32092	0.85304	0.30178	-0.151
Mof_C 	C 	0.29701	0.85487	0.33381	0.134
Mof_N 	N 	0.29594	0.827	0.36548	-0.148
Mof_C 	C 	0.26976	0.89084	0.33584	-0.05
Mof_C 	C 	0.27162	0.92066	0.3045	0.042
Mof_H 	H 	0.2904	0.9172	0.2826	0.011
Mof_N 	N 	0.2485	0.95372	0.30366	-0.227
Mof_C 	C 	0.22196	0.95834	0.33478	0.055
Mof_H 	H 	0.2049	0.9819	0.3345	0.004
Mof_C 	C 	0.21868	0.92994	0.36716	-0.095
Mof_H 	H 	0.1995	0.9341	0.3885	0.066
Mof_C 	C 	0.24348	0.89546	0.36824	0.007
Mof_H 	H 	0.2424	0.8758	0.3904	0.039
Mof_N 	N 	0.28112	0.9643	0.22058	-0.263
Mof_C 	C 	0.29304	0.94592	0.2042	0.105
Mof_S 	S 	0.30885	0.91915	0.18119	-0.061
Mof_N 	N 	0.20408	0.99344	0.2567	-0.226
Mof_C 	C 	0.17251	0.02127	0.25853	0.037
Mof_H 	H 	0.172	0.0436	0.256	0.013
Mof_C 	C 	0.14087	0.01853	0.26401	-0.051
Mof_C 	C 	0.14219	0.98473	0.26835	0.009
Mof_H 	H 	0.1211	0.9819	0.2719	0.037
Mof_C 	C 	0.17345	0.95663	0.26741	-0.096
Mof_H 	H 	0.1743	0.9335	0.2713	0.066
Mof_C 	C 	0.20435	0.96153	0.26071	0.053
Mof_H 	H 	0.2266	0.9418	0.2588	0.003
Mof_C 	C 	0.10737	0.05045	0.26439	0.139
Mof_N 	N 	0.1078	0.07916	0.26518	-0.155
Mof_S 	S 	0.96641	0.37929	0.70341	-0.062
Mof_C 	C 	0.97629	0.33611	0.72699	0.097
Mof_N 	N 	0.98441	0.30511	0.74233	-0.259
Mof_N 	N 	0.03056	0.2393	0.79036	-0.225
Mof_C 	C 	0.04266	0.20758	0.814	0.066
Mof_H 	H 	0.0441	0.1863	0.8131	-0.002
Mof_C 	C 	0.05331	0.20371	0.83987	-0.102
Mof_H 	H 	0.0623	0.1803	0.8557	0.066
Mof_C 	C 	0.05078	0.23402	0.84268	0.008
Mof_H 	H 	0.0575	0.2321	0.8605	0.037
Mof_C 	C 	0.03777	0.26767	0.81807	-0.047
Mof_C 	C 	0.02885	0.26867	0.79201	0.037
Mof_H 	H 	0.0211	0.2915	0.7747	0.011
Mof_N 	N 	0.00653	0.46045	0.73965	-0.227
Mof_C 	C 	0.01188	0.42784	0.76596	0.038
Mof_H 	H 	0.0123	0.4267	0.7873	0.015
Mof_C 	C 	0.01677	0.39645	0.76425	-0.049
Mof_C 	C 	0.016	0.39782	0.73288	0.008
Mof_H 	H 	0.0183	0.3767	0.7309	0.037
Mof_C 	C 	0.01191	0.43001	0.70549	-0.096
Mof_H 	H 	0.0124	0.4314	0.6836	0.064
Mof_C 	C 	0.00702	0.46106	0.70928	0.054
Mof_H 	H 	0.0039	0.4833	0.6899	0
Mof_C 	C 	0.01988	0.36226	0.79532	0.133
Mof_N 	N 	0.02881	0.33163	0.79073	-0.15
Mof_C 	C 	0.03087	0.30195	0.82049	0.132
Mof_N 	N 	0.02426	0.30178	0.85304	-0.151
Mof_C 	C 	0.01431	0.33381	0.85487	0.134
Mof_N 	N 	0.01158	0.36548	0.827	-0.148
Mof_C 	C 	0.00356	0.33584	0.89084	-0.05
Mof_C 	C 	0.00322	0.3045	0.92066	0.042
Mof_H 	H 	0.0098	0.2826	0.9172	0.011
Mof_N 	N 	0.99412	0.30366	0.95372	-0.227
Mof_C 	C 	0.98492	0.33478	0.95834	0.055
Mof_H 	H 	0.9787	0.3345	0.9819	0.004
Mof_C 	C 	0.98422	0.36716	0.92994	-0.095
Mof_H 	H 	0.9779	0.3885	0.9341	0.066
Mof_C 	C 	0.99282	0.36824	0.89546	0.007
Mof_H 	H 	0.9914	0.3904	0.8758	0.039
Mof_N 	N 	0.034	0.22058	0.9643	-0.263
Mof_C 	C 	0.05684	0.2042	0.94592	0.105
Mof_S 	S 	0.09081	0.18119	0.91915	-0.061
Mof_N 	N 	0.04578	0.2567	0.99344	-0.226
Mof_C 	C 	0.04769	0.25853	0.02127	0.037
Mof_H 	H 	0.0284	0.256	0.0436	0.013
Mof_C 	C 	0.07659	0.26401	0.01853	-0.051
Mof_C 	C 	0.10473	0.26835	0.98473	0.009
Mof_H 	H 	0.1251	0.2719	0.9819	0.037
Mof_C 	C 	0.10251	0.26741	0.95663	-0.096
Mof_H 	H 	0.1209	0.2713	0.9335	0.066
Mof_C 	C 	0.07341	0.26071	0.96153	0.053
Mof_H 	H 	0.0728	0.2588	0.9418	0.003
Mof_C 	C 	0.07779	0.26439	0.05045	0.139
Mof_N 	N 	0.04786	0.26518	0.07916	-0.155
Mof_Co	Co	0.25	0.75	0.50944	1.121
Mof_Co	Co	0.75	0.25	0.99056	1.121
Mof_Co	Co	0.50944	0.99056	0.25	1.121
Mof_Co	Co	0.99056	0.50944	0.75	1.121
Mof_Co	Co	0.50944	0.25	0.75	1.121
Mof_Co	Co	0.99056	0.75	0.25	1.121
Mof_Co	Co	0.25	0.50944	0.99056	1.121
Mof_Co	Co	0.75	0.99056	0.50944	1.121
Mof_Co	Co	0.75	0.50944	0.25	1.121
Mof_Co	Co	0.25	0.99056	0.75	1.121
Mof_Co	Co	0.99056	0.25	0.50944	1.121
Mof_Co	Co	0.50944	0.75	0.99056	1.121
Mof_Co	Co	0.75	0.25	0.49056	1.121
Mof_Co	Co	0.25	0.75	0.00944	1.121
Mof_Co	Co	0.49056	0.00944	0.75	1.121
Mof_Co	Co	0.00944	0.49056	0.25	1.121
Mof_Co	Co	0.49056	0.75	0.25	1.121
Mof_Co	Co	0.00944	0.25	0.75	1.121
Mof_Co	Co	0.75	0.49056	0.00944	1.121
Mof_Co	Co	0.25	0.00944	0.49056	1.121
Mof_Co	Co	0.25	0.49056	0.75	1.121
Mof_Co	Co	0.75	0.00944	0.25	1.121
Mof_Co	Co	0.00944	0.75	0.49056	1.121
Mof_Co	Co	0.49056	0.25	0.00944	1.121
Mof_Co	Co	0.4979	0.7521	0.4979	1.122
Mof_Co	Co	0.7521	0.4979	0.7521	1.122
Mof_Co	Co	0.4979	0.4979	0.7521	1.122
Mof_Co	Co	0.7521	0.7521	0.4979	1.122
Mof_Co	Co	0.7521	0.4979	0.4979	1.122
Mof_Co	Co	0.4979	0.7521	0.7521	1.122
Mof_Co	Co	0.0021	0.7479	0.7479	1.122
Mof_Co	Co	0.7479	0.0021	0.0021	1.122
Mof_Co	Co	0.0021	0.0021	0.7479	1.122
Mof_Co	Co	0.7479	0.7479	0.0021	1.122
Mof_Co	Co	0.7479	0.0021	0.7479	1.122
Mof_Co	Co	0.0021	0.7479	0.0021	1.122
Mof_Co	Co	0.5021	0.2479	0.5021	1.122
Mof_Co	Co	0.2479	0.5021	0.2479	1.122
Mof_Co	Co	0.5021	0.5021	0.2479	1.122
Mof_Co	Co	0.2479	0.2479	0.5021	1.122
Mof_Co	Co	0.2479	0.5021	0.5021	1.122
Mof_Co	Co	0.5021	0.2479	0.2479	1.122
Mof_Co	Co	0.9979	0.2521	0.2521	1.122
Mof_Co	Co	0.2521	0.9979	0.9979	1.122
Mof_Co	Co	0.9979	0.9979	0.2521	1.122
Mof_Co	Co	0.2521	0.2521	0.9979	1.122
Mof_Co	Co	0.2521	0.9979	0.2521	1.122
Mof_Co	Co	0.9979	0.2521	0.9979	1.122
_end
