data_functionalizedCrystal
_audit_creation_method	'EQeq! by Chris Wilmer'
_symmetry_space_group_name_H-M	'P1'
_symmetry_Int_Tables_number	1
_symmetry_cell_setting	triclinic
loop_
_symmetry_equiv_pos_as_xyz
  x,y,z
_cell_length_a	13.368
_cell_length_b	23.922
_cell_length_c	13.092
_cell_angle_alpha	90
_cell_angle_beta	90
_cell_angle_gamma	90
loop_
_atom_site_label
_atom_site_type_symbol
_atom_site_fract_x
_atom_site_fract_y
_atom_site_fract_z
_atom_site_charge
Mof_O 	O 	0.0706	0.4247	0.9972	-0.402
Mof_O 	O 	0.1964	0.3643	0.9933	-0.306
Mof_C 	C 	0.1578	0.4108	0.965	0.291
Mof_O 	O 	0.8693	0.5334	0.5841	-0.485
Mof_O 	O 	0.645	0.7595	0.6092	-0.452
Mof_O 	O 	0.4839	0.7399	0.6182	-0.38
Mof_C 	C 	0.5732	0.725	0.6111	0.295
Mof_C 	C 	0.6015	0.6635	0.6011	-0.039
Mof_Tb	Tb	0.05756	0.6565	0.61083	1.803
Mof_O 	O 	0.0657	0.5617	0.7063	-0.548
Mof_C 	C 	0.6628	0.5523	0.582	-0.047
Mof_H 	H 	0.6837	0.5156	0.572	0.075
Mof_C 	C 	0.732	0.5945	0.5939	-0.097
Mof_C 	C 	0.7003	0.6503	0.6003	0.009
Mof_H 	H 	0.7476	0.6787	0.604	0.053
Mof_C 	C 	0.8436	0.583	0.5956	0.466
Mof_C 	C 	0.5606	0.5652	0.5851	0.095
Mof_O 	O 	0.1959	0.616	0.7047	-0.429
Mof_C 	C 	0.3198	0.5273	0.7825	-0.064
Mof_H 	H 	0.3549	0.5555	0.7491	0.089
Mof_C 	C 	0.1634	0.4892	0.8451	-0.006
Mof_H 	H 	0.094	0.4912	0.8485	0.034
Mof_O 	O 	0.8991	0.6239	0.6049	-0.548
Mof_C 	C 	0.5295	0.6208	0.5992	-0.079
Mof_H 	H 	0.462	0.6291	0.6071	0.086
Mof_N 	N 	0.4767	0.4778	0.8306	-0.069
Mof_N 	N 	0.4831	0.524	0.5811	-0.083
Mof_C 	C 	0.2162	0.5276	0.7843	-0.054
Mof_C 	C 	0.2131	0.4485	0.8999	-0.023
Mof_C 	C 	0.371	0.4835	0.8321	0.125
Mof_C 	C 	0.3177	0.4438	0.8865	-0.077
Mof_H 	H 	0.3513	0.4135	0.9148	0.113
Mof_C 	C 	0.1559	0.5717	0.7261	0.368
Mof_O 	O 	0.5706	0.9247	0.4972	-0.479
Mof_O 	O 	0.6964	0.8643	0.4933	-0.396
Mof_C 	C 	0.6578	0.9108	0.465	0.307
Mof_O 	O 	0.3693	0.0334	0.0841	-0.558
Mof_O 	O 	0.145	0.2595	0.1092	-0.446
Mof_O 	O 	0.9839	0.2399	0.1182	-0.337
Mof_C 	C 	0.0732	0.225	0.1111	0.223
Mof_C 	C 	0.1015	0.1635	0.1011	-0.029
Mof_Tb	Tb	0.55756	0.1565	0.11083	1.685
Mof_O 	O 	0.5657	0.0617	0.2063	-0.556
Mof_C 	C 	0.1628	0.0523	0.082	-0.042
Mof_H 	H 	0.1837	0.0156	0.072	0.027
Mof_C 	C 	0.232	0.0945	0.0939	-0.125
Mof_C 	C 	0.2003	0.1503	0.1003	-0.007
Mof_H 	H 	0.2476	0.1787	0.104	0.041
Mof_C 	C 	0.3436	0.083	0.0956	0.466
Mof_C 	C 	0.0606	0.0652	0.0851	0.052
Mof_O 	O 	0.6959	0.116	0.2047	-0.45
Mof_C 	C 	0.8198	0.0273	0.2825	-0.114
Mof_H 	H 	0.8549	0.0555	0.2491	0.094
Mof_C 	C 	0.6634	0.9892	0.3451	0.06
Mof_H 	H 	0.594	0.9912	0.3485	0.028
Mof_O 	O 	0.3991	0.1239	0.1049	-0.583
Mof_C 	C 	0.0295	0.1208	0.0992	-0.167
Mof_H 	H 	0.962	0.1291	0.1071	0.118
Mof_N 	N 	0.9767	0.9778	0.3306	-0.04
Mof_N 	N 	0.9831	0.024	0.0811	-0.09
Mof_C 	C 	0.7162	0.0276	0.2843	-0.114
Mof_C 	C 	0.7131	0.9485	0.3999	-0.061
Mof_C 	C 	0.871	0.9835	0.3321	0.158
Mof_C 	C 	0.8177	0.9438	0.3865	-0.081
Mof_H 	H 	0.8513	0.9135	0.4148	0.09
Mof_C 	C 	0.6559	0.0717	0.2261	0.365
Mof_O 	O 	0.9294	0.5753	0.9972	-0.383
Mof_O 	O 	0.8036	0.6357	0.9933	-0.311
Mof_C 	C 	0.8422	0.5892	0.965	0.286
Mof_O 	O 	0.1307	0.4666	0.5841	-0.51
Mof_O 	O 	0.355	0.2405	0.6092	-0.455
Mof_O 	O 	0.5161	0.2601	0.6182	-0.379
Mof_C 	C 	0.4268	0.275	0.6111	0.296
Mof_C 	C 	0.3985	0.3365	0.6011	-0.044
Mof_Tb	Tb	0.94244	0.3435	0.61083	1.965
Mof_O 	O 	0.9343	0.4383	0.7063	-0.523
Mof_C 	C 	0.3372	0.4477	0.582	-0.041
Mof_H 	H 	0.3163	0.4844	0.572	0.073
Mof_C 	C 	0.268	0.4055	0.5939	-0.108
Mof_C 	C 	0.2997	0.3497	0.6003	0.016
Mof_H 	H 	0.2524	0.3213	0.604	0.046
Mof_C 	C 	0.1564	0.417	0.5956	0.481
Mof_C 	C 	0.4394	0.4348	0.5851	0.092
Mof_O 	O 	0.8041	0.384	0.7047	-0.435
Mof_C 	C 	0.6802	0.4727	0.7825	-0.073
Mof_H 	H 	0.6451	0.4445	0.7491	0.093
Mof_C 	C 	0.8366	0.5108	0.8451	-0.019
Mof_H 	H 	0.906	0.5088	0.8485	0.059
Mof_O 	O 	0.1009	0.3761	0.6049	-0.608
Mof_C 	C 	0.4705	0.3792	0.5992	-0.076
Mof_H 	H 	0.538	0.3709	0.6071	0.085
Mof_N 	N 	0.5233	0.5222	0.8306	-0.07
Mof_N 	N 	0.5169	0.476	0.5811	-0.083
Mof_C 	C 	0.7838	0.4724	0.7843	-0.038
Mof_C 	C 	0.7869	0.5515	0.8999	-0.007
Mof_C 	C 	0.629	0.5165	0.8321	0.132
Mof_C 	C 	0.6823	0.5562	0.8865	-0.086
Mof_H 	H 	0.6487	0.5865	0.9148	0.117
Mof_C 	C 	0.8441	0.4283	0.7261	0.36
Mof_O 	O 	0.4294	0.0753	0.4972	-0.494
Mof_O 	O 	0.3036	0.1357	0.4933	-0.399
Mof_C 	C 	0.3422	0.0892	0.465	0.297
Mof_O 	O 	0.6307	0.9666	0.0841	-0.515
Mof_O 	O 	0.855	0.7405	0.1092	-0.487
Mof_O 	O 	0.0161	0.7601	0.1182	-0.452
Mof_C 	C 	0.9268	0.775	0.1111	0.364
Mof_C 	C 	0.8985	0.8365	0.1011	-0.119
Mof_Tb	Tb	0.44244	0.8435	0.11083	1.689
Mof_O 	O 	0.4343	0.9383	0.2063	-0.525
Mof_C 	C 	0.8372	0.9477	0.082	-0.027
Mof_H 	H 	0.8163	0.9844	0.072	0.063
Mof_C 	C 	0.768	0.9055	0.0939	-0.137
Mof_C 	C 	0.7997	0.8497	0.1003	0.047
Mof_H 	H 	0.7524	0.8213	0.104	0.024
Mof_C 	C 	0.6564	0.917	0.0956	0.467
Mof_C 	C 	0.9394	0.9348	0.0851	0.066
Mof_O 	O 	0.3041	0.884	0.2047	-0.448
Mof_C 	C 	0.1802	0.9727	0.2825	-0.011
Mof_H 	H 	0.1451	0.9445	0.2491	0.059
Mof_C 	C 	0.3366	0.0108	0.3451	-0.064
Mof_H 	H 	0.406	0.0088	0.3485	0.037
Mof_O 	O 	0.6009	0.8761	0.1049	-0.579
Mof_C 	C 	0.9705	0.8792	0.0992	0.027
Mof_H 	H 	0.038	0.8709	0.1071	0.004
Mof_N 	N 	0.0233	0.0222	0.3306	-0.122
Mof_N 	N 	0.0169	0.976	0.0811	-0.103
Mof_C 	C 	0.2838	0.9724	0.2843	-0.028
Mof_C 	C 	0.2869	0.0515	0.3999	-0.055
Mof_C 	C 	0.129	0.0165	0.3321	0.039
Mof_C 	C 	0.1823	0.0562	0.3865	-0.065
Mof_H 	H 	0.1487	0.0865	0.4148	0.071
Mof_C 	C 	0.3441	0.9283	0.2261	0.353
Mof_O 	O 	0.5706	0.0753	0.9972	-0.398
Mof_O 	O 	0.6964	0.1357	0.9933	-0.305
Mof_C 	C 	0.6578	0.0892	0.965	0.282
Mof_O 	O 	0.3693	0.9666	0.5841	-0.473
Mof_O 	O 	0.145	0.7405	0.6092	-0.433
Mof_O 	O 	0.9839	0.7601	0.6182	-0.32
Mof_C 	C 	0.0732	0.775	0.6111	0.222
Mof_C 	C 	0.1015	0.8365	0.6011	0.013
Mof_Tb	Tb	0.55756	0.8435	0.61083	1.884
Mof_O 	O 	0.5657	0.9383	0.7063	-0.52
Mof_C 	C 	0.1628	0.9477	0.582	-0.062
Mof_H 	H 	0.1837	0.9844	0.572	0.097
Mof_C 	C 	0.232	0.9055	0.5939	-0.076
Mof_C 	C 	0.2003	0.8497	0.6003	-0.026
Mof_H 	H 	0.2476	0.8213	0.604	0.062
Mof_C 	C 	0.3436	0.917	0.5956	0.462
Mof_C 	C 	0.0606	0.9348	0.5851	0.107
Mof_O 	O 	0.6959	0.884	0.7047	-0.428
Mof_C 	C 	0.8198	0.9727	0.7825	-0.019
Mof_H 	H 	0.8549	0.9445	0.7491	0.087
Mof_C 	C 	0.6634	0.0108	0.8451	-0.076
Mof_H 	H 	0.594	0.0088	0.8485	0.052
Mof_O 	O 	0.3991	0.8761	0.6049	-0.574
Mof_C 	C 	0.0295	0.8792	0.5992	-0.185
Mof_H 	H 	0.962	0.8709	0.6071	0.149
Mof_N 	N 	0.9767	0.0222	0.8306	-0.059
Mof_N 	N 	0.9831	0.976	0.5811	-0.027
Mof_C 	C 	0.7162	0.9724	0.7843	-0
Mof_C 	C 	0.7131	0.0515	0.8999	-0.007
Mof_C 	C 	0.871	0.0165	0.8321	0.082
Mof_C 	C 	0.8177	0.0562	0.8865	-0.079
Mof_H 	H 	0.8513	0.0865	0.9148	0.117
Mof_C 	C 	0.6559	0.9283	0.7261	0.357
Mof_O 	O 	0.0706	0.5753	0.4972	-0.496
Mof_O 	O 	0.1964	0.6357	0.4933	-0.396
Mof_C 	C 	0.1578	0.5892	0.465	0.305
Mof_O 	O 	0.8693	0.4666	0.0841	-0.524
Mof_O 	O 	0.645	0.2405	0.1092	-0.465
Mof_O 	O 	0.4839	0.2601	0.1182	-0.395
Mof_C 	C 	0.5732	0.275	0.1111	0.292
Mof_C 	C 	0.6015	0.3365	0.1011	-0.071
Mof_Tb	Tb	0.05756	0.3435	0.11083	1.609
Mof_O 	O 	0.0657	0.4383	0.2063	-0.553
Mof_C 	C 	0.6628	0.4477	0.082	-0.037
Mof_H 	H 	0.6837	0.4844	0.072	0.046
Mof_C 	C 	0.732	0.4055	0.0939	-0.125
Mof_C 	C 	0.7003	0.3497	0.1003	0.017
Mof_H 	H 	0.7476	0.3213	0.104	0.036
Mof_C 	C 	0.8436	0.417	0.0956	0.459
Mof_C 	C 	0.5606	0.4348	0.0851	0.06
Mof_O 	O 	0.1959	0.384	0.2047	-0.446
Mof_C 	C 	0.3198	0.4727	0.2825	-0.057
Mof_H 	H 	0.3549	0.4445	0.2491	0.075
Mof_C 	C 	0.1634	0.5108	0.3451	0.005
Mof_H 	H 	0.094	0.5088	0.3485	0.019
Mof_O 	O 	0.8991	0.3761	0.1049	-0.551
Mof_C 	C 	0.5295	0.3792	0.0992	-0.073
Mof_H 	H 	0.462	0.3709	0.1071	0.061
Mof_N 	N 	0.4767	0.5222	0.3306	-0.081
Mof_N 	N 	0.4831	0.476	0.0811	-0.097
Mof_C 	C 	0.2162	0.4724	0.2843	-0.079
Mof_C 	C 	0.2131	0.5515	0.3999	-0.066
Mof_C 	C 	0.371	0.5165	0.3321	0.095
Mof_C 	C 	0.3177	0.5562	0.3865	-0.068
Mof_H 	H 	0.3513	0.5865	0.4148	0.079
Mof_C 	C 	0.1559	0.4283	0.2261	0.363
Mof_O 	O 	0.4294	0.9247	0.9972	-0.385
Mof_O 	O 	0.3036	0.8643	0.9933	-0.31
Mof_C 	C 	0.3422	0.9108	0.965	0.295
Mof_O 	O 	0.6307	0.0334	0.5841	-0.521
Mof_O 	O 	0.855	0.2595	0.6092	-0.475
Mof_O 	O 	0.0161	0.2399	0.6182	-0.437
Mof_C 	C 	0.9268	0.225	0.6111	0.369
Mof_C 	C 	0.8985	0.1635	0.6011	-0.096
Mof_Tb	Tb	0.44244	0.1565	0.61083	1.882
Mof_O 	O 	0.4343	0.0617	0.7063	-0.551
Mof_C 	C 	0.8372	0.0523	0.582	-0.026
Mof_H 	H 	0.8163	0.0156	0.572	0.051
Mof_C 	C 	0.768	0.0945	0.5939	-0.128
Mof_C 	C 	0.7997	0.1503	0.6003	0.052
Mof_H 	H 	0.7524	0.1787	0.604	0.037
Mof_C 	C 	0.6564	0.083	0.5956	0.485
Mof_C 	C 	0.9394	0.0652	0.5851	0.079
Mof_O 	O 	0.3041	0.116	0.7047	-0.437
Mof_C 	C 	0.1802	0.0273	0.7825	-0.117
Mof_H 	H 	0.1451	0.0555	0.7491	0.095
Mof_C 	C 	0.3366	0.9892	0.8451	0.051
Mof_H 	H 	0.406	0.9912	0.8485	0.041
Mof_O 	O 	0.6009	0.1239	0.6049	-0.582
Mof_C 	C 	0.9705	0.1208	0.5992	0.03
Mof_H 	H 	0.038	0.1291	0.6071	0.023
Mof_N 	N 	0.0233	0.9778	0.8306	-0.08
Mof_N 	N 	0.0169	0.024	0.5811	-0.138
Mof_C 	C 	0.2838	0.0276	0.7843	-0.091
Mof_C 	C 	0.2869	0.9485	0.8999	-0.023
Mof_C 	C 	0.129	0.9835	0.8321	0.174
Mof_C 	C 	0.1823	0.9438	0.8865	-0.085
Mof_H 	H 	0.1487	0.9135	0.9148	0.113
Mof_C 	C 	0.3441	0.0717	0.7261	0.371
Mof_O 	O 	0.9294	0.4247	0.4972	-0.477
Mof_O 	O 	0.8036	0.3643	0.4933	-0.4
Mof_C 	C 	0.8422	0.4108	0.465	0.299
Mof_O 	O 	0.1307	0.5334	0.0841	-0.55
Mof_O 	O 	0.355	0.7595	0.1092	-0.468
Mof_O 	O 	0.5161	0.7399	0.1182	-0.395
Mof_C 	C 	0.4268	0.725	0.1111	0.294
Mof_C 	C 	0.3985	0.6635	0.1011	-0.076
Mof_Tb	Tb	0.94244	0.6565	0.11083	1.771
Mof_O 	O 	0.9343	0.5617	0.2063	-0.528
Mof_C 	C 	0.3372	0.5523	0.082	-0.031
Mof_H 	H 	0.3163	0.5156	0.072	0.044
Mof_C 	C 	0.268	0.5945	0.0939	-0.137
Mof_C 	C 	0.2997	0.6503	0.1003	0.023
Mof_H 	H 	0.2524	0.6787	0.104	0.029
Mof_C 	C 	0.1564	0.583	0.0956	0.474
Mof_C 	C 	0.4394	0.5652	0.0851	0.056
Mof_O 	O 	0.8041	0.616	0.2047	-0.452
Mof_C 	C 	0.6802	0.5273	0.2825	-0.067
Mof_H 	H 	0.6451	0.5555	0.2491	0.078
Mof_C 	C 	0.8366	0.4892	0.3451	-0.009
Mof_H 	H 	0.906	0.4912	0.3485	0.046
Mof_O 	O 	0.1009	0.6239	0.1049	-0.611
Mof_C 	C 	0.4705	0.6208	0.0992	-0.069
Mof_H 	H 	0.538	0.6291	0.1071	0.06
Mof_N 	N 	0.5233	0.4778	0.3306	-0.082
Mof_N 	N 	0.5169	0.524	0.0811	-0.097
Mof_C 	C 	0.7838	0.5276	0.2843	-0.063
Mof_C 	C 	0.7869	0.4485	0.3999	-0.05
Mof_C 	C 	0.629	0.4835	0.3321	0.102
Mof_C 	C 	0.6823	0.4438	0.3865	-0.077
Mof_H 	H 	0.6487	0.4135	0.4148	0.083
Mof_C 	C 	0.8441	0.5717	0.2261	0.355
Mof_Zn	Zn	8.2672e-33	0.5	0.6094	1.217
Mof_Zn	Zn	0.5	7.53686e-34	0.1094	1.198
Mof_Zn	Zn	0.5	3.01474e-33	0.6094	1.215
Mof_Zn	Zn	-7.13515e-33	0.5	0.1094	1.2
_end
