data_functionalizedCrystal
_audit_creation_method	'EQeq! by Chris Wilmer'
_symmetry_space_group_name_H-M	'P1'
_symmetry_Int_Tables_number	1
_symmetry_cell_setting	triclinic
loop_
_symmetry_equiv_pos_as_xyz
  x,y,z
_cell_length_a	14.178
_cell_length_b	14.178
_cell_length_c	25.7508
_cell_angle_alpha	83.3906
_cell_angle_beta	83.3906
_cell_angle_gamma	87.3374
loop_
_atom_site_label
_atom_site_type_symbol
_atom_site_fract_x
_atom_site_fract_y
_atom_site_fract_z
_atom_site_charge
Mof_Zn	Zn	0.1818	0.87564	0.07944	1.285
Mof_Zn	Zn	0.84657	0.40813	0.55841	1.252
Mof_Zn	Zn	0.87564	0.1818	0.57944	1.285
Mof_Zn	Zn	0.40813	0.84657	0.05841	1.252
Mof_H 	H 	0.30558	0.00618	0.23091	0.043
Mof_H 	H 	0.77019	0.01441	0.64341	0.009
Mof_H 	H 	0.44607	0.43003	0.67728	0.076
Mof_H 	H 	0.74815	0.83933	0.98709	0.074
Mof_H 	H 	0.88542	0.88936	0.49638	0.116
Mof_H 	H 	0.58624	0.85984	0.98691	-0.008
Mof_H 	H 	0.60491	0.42375	0.6395	0.042
Mof_H 	H 	0.36965	0.84835	0.8114	0.114
Mof_H 	H 	0.98022	0.12156	0.72302	0.055
Mof_H 	H 	0.85984	0.58624	0.48691	-0.009
Mof_H 	H 	0.17647	0.55007	0.07958	0.033
Mof_H 	H 	0.15567	0.03337	0.84012	0.084
Mof_H 	H 	0.17437	0.99873	0.92722	0.017
Mof_H 	H 	0.38513	0.80947	0.89874	0.009
Mof_H 	H 	0.70185	0.80111	0.14677	0.08
Mof_H 	H 	0.12156	0.98022	0.22302	0.054
Mof_H 	H 	0.80111	0.70185	0.64677	0.08
Mof_H 	H 	0.54222	0.8268	0.14175	0.005
Mof_H 	H 	0.42375	0.60491	0.1395	0.042
Mof_H 	H 	0.06293	0.09615	0.27623	0.064
Mof_H 	H 	0.15937	0.03855	0.60078	0.048
Mof_H 	H 	0.24324	0.30128	0.59736	0.07
Mof_H 	H 	0.04592	0.90384	0.00248	0.003
Mof_H 	H 	0.29056	0.15992	0.25371	0.074
Mof_H 	H 	0.55007	0.17647	0.57958	0.033
Mof_H 	H 	0.99873	0.17437	0.42722	0.016
Mof_H 	H 	0.80947	0.38513	0.39874	0.009
Mof_H 	H 	0.88936	0.88542	0.99638	0.117
Mof_H 	H 	0.97755	0.27359	0.15383	0.072
Mof_H 	H 	0.83933	0.74815	0.48709	0.074
Mof_H 	H 	0.08821	0.30993	0.57569	0.02
Mof_H 	H 	0.01441	0.77019	0.14341	0.01
Mof_H 	H 	0.03337	0.15567	0.34012	0.086
Mof_H 	H 	0.43003	0.44607	0.17728	0.077
Mof_H 	H 	0.09615	0.06293	0.77623	0.063
Mof_H 	H 	0.90384	0.04592	0.50248	0.004
Mof_H 	H 	0.30993	0.08821	0.07569	0.02
Mof_H 	H 	0.17977	0.39429	0.12122	0.064
Mof_H 	H 	0.30128	0.24324	0.09736	0.07
Mof_H 	H 	0.03855	0.15937	0.10078	0.048
Mof_H 	H 	0.85601	0.75429	0.14325	0.086
Mof_H 	H 	0.15992	0.29056	0.75371	0.075
Mof_H 	H 	0.27359	0.97755	0.65383	0.072
Mof_H 	H 	0.00618	0.30558	0.73091	0.043
Mof_H 	H 	0.8268	0.54222	0.64175	0.005
Mof_H 	H 	0.75429	0.85601	0.64325	0.086
Mof_H 	H 	0.84835	0.36965	0.3114	0.114
Mof_H 	H 	0.39429	0.17977	0.62122	0.064
Mof_C 	C 	0.20259	0.98917	0.85186	-0.15
Mof_C 	C 	0.74479	0.82125	0.06715	0.042
Mof_C 	C 	0.56252	0.37484	0.6356	0.027
Mof_C 	C 	0.28211	0.90089	0.92232	-0.166
Mof_C 	C 	0.79368	0.98892	0.61346	0.099
Mof_C 	C 	0.81512	0.68024	0.61372	-0.116
Mof_C 	C 	0.26659	0.96539	0.75661	0.076
Mof_C 	C 	0.10275	0.30759	0.61129	0.042
Mof_C 	C 	0.09401	0.03971	0.2091	0.004
Mof_C 	C 	0.93196	0.32458	0.6383	0.359
Mof_C 	C 	0.86161	0.91279	0.52698	-0.171
Mof_C 	C 	0.14697	0.04387	0.63595	-0.008
Mof_C 	C 	0.37769	0.46805	0.1589	-0.075
Mof_C 	C 	0.21329	0.96807	0.90405	0.09
Mof_C 	C 	0.83727	0.70783	0.51904	-0.114
Mof_C 	C 	0.98892	0.79368	0.11346	0.099
Mof_C 	C 	0.53008	0.22648	0.60024	0.029
Mof_C 	C 	0.37484	0.56252	0.1356	0.027
Mof_C 	C 	0.5938	0.29806	0.60626	-0.096
Mof_C 	C 	0.98917	0.20259	0.35186	-0.153
Mof_C 	C 	0.21789	0.29495	0.67773	0.036
Mof_C 	C 	0.19679	0.01423	0.72071	0.032
Mof_C 	C 	0.10879	0.05787	0.74106	-0.081
Mof_C 	C 	0.31017	0.31333	0.18929	0.098
Mof_C 	C 	0.88756	0.29648	0.47868	0.432
Mof_C 	C 	0.19566	0.3013	0.62435	-0.104
Mof_C 	C 	0.70783	0.83727	0.01904	-0.115
Mof_C 	C 	0.89373	0.78347	0.11356	-0.154
Mof_C 	C 	0.40568	0.30362	0.65504	0.028
Mof_C 	C 	0.26104	0.94532	0.81648	0.086
Mof_C 	C 	0.21518	0.00716	0.66768	-0.067
Mof_C 	C 	0.8554	0.33978	0.38695	0.103
Mof_C 	C 	0.31333	0.31017	0.68929	0.098
Mof_C 	C 	0.03119	0.31037	0.65118	-0.121
Mof_C 	C 	0.3041	0.05372	0.20414	0.031
Mof_C 	C 	0.96539	0.26659	0.25661	0.075
Mof_C 	C 	0.81689	0.85427	0.569	0.086
Mof_C 	C 	0.82125	0.74479	0.56715	0.042
Mof_C 	C 	0.32458	0.93196	0.1383	0.358
Mof_C 	C 	0.33978	0.8554	0.88695	0.102
Mof_C 	C 	0.32994	0.87802	0.8347	-0.159
Mof_C 	C 	0.14606	0.29566	0.71795	-0.083
Mof_C 	C 	0.85006	0.61022	0.51928	0.06
Mof_C 	C 	0.00716	0.21518	0.16768	-0.066
Mof_C 	C 	0.29806	0.5938	0.10626	-0.096
Mof_C 	C 	0.31037	0.03119	0.15118	-0.119
Mof_C 	C 	0.08902	0.05976	0.15624	-0.048
Mof_C 	C 	0.43648	0.22876	0.62492	-0.082
Mof_C 	C 	0.05372	0.3041	0.70414	0.032
Mof_C 	C 	0.96807	0.21329	0.40405	0.092
Mof_C 	C 	0.05787	0.10879	0.24106	-0.081
Mof_C 	C 	0.98335	0.11965	0.62284	0.239
Mof_C 	C 	0.03971	0.09401	0.7091	0.003
Mof_C 	C 	0.91279	0.86161	0.02698	-0.173
Mof_C 	C 	0.00786	0.87094	0.0308	0.11
Mof_C 	C 	0.11965	0.98335	0.12284	0.237
Mof_C 	C 	0.68024	0.81512	0.11372	-0.116
Mof_C 	C 	0.01423	0.19679	0.22071	0.032
Mof_C 	C 	0.82997	0.58431	0.61037	0.072
Mof_C 	C 	0.85427	0.81689	0.069	0.087
Mof_C 	C 	0.22648	0.53008	0.10024	0.029
Mof_C 	C 	0.87094	0.00786	0.5308	0.109
Mof_C 	C 	0.46805	0.37769	0.6589	-0.075
Mof_C 	C 	0.69891	0.29705	0.58862	0.391
Mof_C 	C 	0.29648	0.88756	0.97868	0.433
Mof_C 	C 	0.61022	0.85006	0.01928	0.059
Mof_C 	C 	0.05976	0.08902	0.65624	-0.049
Mof_C 	C 	0.22876	0.43648	0.12492	-0.082
Mof_C 	C 	0.58431	0.82997	0.11037	0.072
Mof_C 	C 	0.87802	0.32994	0.3347	-0.16
Mof_C 	C 	0.30759	0.10275	0.11129	0.041
Mof_C 	C 	0.90089	0.28211	0.42232	-0.167
Mof_C 	C 	0.3013	0.19566	0.12435	-0.103
Mof_C 	C 	0.78347	0.89373	0.61356	-0.154
Mof_C 	C 	0.30362	0.40568	0.15504	0.028
Mof_C 	C 	0.29495	0.21789	0.17773	0.035
Mof_C 	C 	0.29566	0.14606	0.21795	-0.082
Mof_C 	C 	0.29705	0.69891	0.08862	0.391
Mof_C 	C 	0.04387	0.14697	0.13595	-0.009
Mof_C 	C 	0.94532	0.26104	0.31648	0.087
Mof_N 	N 	0.04685	0.83601	0.07204	-0.232
Mof_N 	N 	0.83601	0.04685	0.57204	-0.232
Mof_N 	N 	0.84898	0.54894	0.56412	-0.259
Mof_N 	N 	0.54894	0.84898	0.06412	-0.259
Mof_O 	O 	0.21956	0.89046	0.00973	-0.498
Mof_O 	O 	0.93933	0.34271	0.23264	-0.184
Mof_O 	O 	0.89803	0.13457	0.64575	-0.4
Mof_O 	O 	0.38003	0.87467	0.9914	-0.518
Mof_O 	O 	0.31036	0.91126	0.09358	-0.614
Mof_O 	O 	0.21926	0.7498	0.09478	-0.463
Mof_O 	O 	0.13457	0.89803	0.14575	-0.399
Mof_O 	O 	0.34271	0.93933	0.73264	-0.184
Mof_O 	O 	0.34038	0.31618	0.23151	-0.193
Mof_O 	O 	0.7498	0.21926	0.59478	-0.463
Mof_O 	O 	0.73027	0.37991	0.57225	-0.525
Mof_O 	O 	0.89046	0.21956	0.50973	-0.497
Mof_O 	O 	0.31618	0.34038	0.73151	-0.193
Mof_O 	O 	0.87019	0.35175	0.67303	-0.279
Mof_O 	O 	0.13661	0.00217	0.07394	-0.398
Mof_O 	O 	0.35175	0.87019	0.17303	-0.279
Mof_O 	O 	0.37991	0.73027	0.07225	-0.526
Mof_O 	O 	0.87467	0.38003	0.4914	-0.518
Mof_O 	O 	0.00217	0.13661	0.57394	-0.399
Mof_O 	O 	0.91126	0.31036	0.59358	-0.614
Mof_Zn	Zn	0.12436	0.8182	0.42056	1.286
Mof_Zn	Zn	0.8182	0.12436	0.92056	1.286
Mof_Zn	Zn	0.15343	0.59187	0.44159	1.253
Mof_Zn	Zn	0.59187	0.15343	0.94159	1.253
Mof_H 	H 	0.82563	0.00127	0.07278	0.017
Mof_H 	H 	0.91179	0.69007	0.42431	0.02
Mof_H 	H 	0.16067	0.25185	0.51291	0.074
Mof_H 	H 	0.02245	0.72641	0.84617	0.072
Mof_H 	H 	0.57625	0.39509	0.8605	0.042
Mof_H 	H 	0.84008	0.70944	0.24629	0.075
Mof_H 	H 	0.82353	0.44993	0.92042	0.033
Mof_H 	H 	0.55393	0.56997	0.32272	0.077
Mof_H 	H 	0.96145	0.84063	0.89922	0.048
Mof_H 	H 	0.87844	0.01978	0.77698	0.054
Mof_H 	H 	0.63035	0.15165	0.1886	0.114
Mof_H 	H 	0.14016	0.41376	0.51309	-0.009
Mof_H 	H 	0.69442	0.99382	0.76909	0.044
Mof_H 	H 	0.39509	0.57625	0.3605	0.042
Mof_H 	H 	0.25185	0.16067	0.01291	0.075
Mof_H 	H 	0.82023	0.60571	0.87878	0.064
Mof_H 	H 	0.60571	0.82023	0.37878	0.064
Mof_H 	H 	0.72641	0.02245	0.34617	0.072
Mof_H 	H 	0.14399	0.24571	0.85675	0.086
Mof_H 	H 	0.84433	0.96663	0.15988	0.084
Mof_H 	H 	0.99382	0.69442	0.26909	0.043
Mof_H 	H 	0.96663	0.84433	0.65988	0.086
Mof_H 	H 	0.44993	0.82353	0.42042	0.033
Mof_H 	H 	0.75676	0.69872	0.40264	0.07
Mof_H 	H 	0.56997	0.55393	0.82272	0.077
Mof_H 	H 	0.84063	0.96145	0.39922	0.048
Mof_H 	H 	0.61487	0.19053	0.10126	0.009
Mof_H 	H 	0.19053	0.61487	0.60126	0.009
Mof_H 	H 	0.93707	0.90385	0.72377	0.064
Mof_H 	H 	0.11458	0.11064	0.50362	0.116
Mof_H 	H 	0.19889	0.29815	0.35323	0.08
Mof_H 	H 	0.11064	0.11458	0.00362	0.117
Mof_H 	H 	0.29815	0.19889	0.85323	0.08
Mof_H 	H 	0.09616	0.95408	0.49752	0.004
Mof_H 	H 	0.15165	0.63035	0.6886	0.114
Mof_H 	H 	0.98559	0.22981	0.85659	0.01
Mof_H 	H 	0.90385	0.93707	0.22377	0.063
Mof_H 	H 	0.22981	0.98559	0.35659	0.01
Mof_H 	H 	0.69007	0.91179	0.92431	0.02
Mof_H 	H 	0.1732	0.45778	0.35825	0.005
Mof_H 	H 	0.45778	0.1732	0.85825	0.005
Mof_H 	H 	0.00127	0.82563	0.57278	0.016
Mof_H 	H 	0.95408	0.09616	0.99752	0.003
Mof_H 	H 	0.69872	0.75676	0.90264	0.07
Mof_H 	H 	0.01978	0.87844	0.27698	0.055
Mof_H 	H 	0.70944	0.84008	0.74629	0.074
Mof_H 	H 	0.24571	0.14399	0.35675	0.086
Mof_H 	H 	0.41376	0.14016	0.01309	-0.008
Mof_C 	C 	0.12198	0.67006	0.6653	-0.16
Mof_C 	C 	0.56352	0.77124	0.37508	-0.082
Mof_C 	C 	0.59432	0.69638	0.34496	0.028
Mof_C 	C 	0.85394	0.70434	0.28205	-0.083
Mof_C 	C 	0.85303	0.95613	0.36405	-0.008
Mof_C 	C 	0.08721	0.13839	0.97302	-0.173
Mof_C 	C 	0.11244	0.70352	0.52132	0.432
Mof_C 	C 	0.71789	0.09911	0.07768	-0.166
Mof_C 	C 	0.66022	0.1446	0.11305	0.102
Mof_C 	C 	0.25521	0.17875	0.93285	0.042
Mof_C 	C 	0.12906	0.99214	0.4692	0.109
Mof_C 	C 	0.14994	0.38978	0.48072	0.06
Mof_C 	C 	0.21653	0.10627	0.38644	-0.154
Mof_C 	C 	0.70505	0.78211	0.82227	0.035
Mof_C 	C 	0.62231	0.53195	0.8411	-0.075
Mof_C 	C 	0.91098	0.94024	0.84376	-0.048
Mof_C 	C 	0.80321	0.98577	0.27929	0.032
Mof_C 	C 	0.95613	0.85303	0.86405	-0.009
Mof_C 	C 	0.99214	0.12906	0.9692	0.11
Mof_C 	C 	0.73341	0.03461	0.24339	0.076
Mof_C 	C 	0.94628	0.6959	0.29586	0.032
Mof_C 	C 	0.68667	0.68983	0.31071	0.098
Mof_C 	C 	0.01108	0.20632	0.88654	0.099
Mof_C 	C 	0.67542	0.06804	0.8617	0.358
Mof_C 	C 	0.6959	0.94628	0.79586	0.031
Mof_C 	C 	0.80434	0.6987	0.37565	-0.104
Mof_C 	C 	0.69241	0.89725	0.88871	0.041
Mof_C 	C 	0.70295	0.30109	0.91138	0.391
Mof_C 	C 	0.62516	0.43748	0.8644	0.027
Mof_C 	C 	0.38978	0.14994	0.98072	0.059
Mof_C 	C 	0.78671	0.03193	0.09595	0.09
Mof_C 	C 	0.18311	0.14573	0.431	0.086
Mof_C 	C 	0.88035	0.01665	0.87716	0.237
Mof_C 	C 	0.4062	0.70194	0.39374	-0.096
Mof_C 	C 	0.03193	0.78671	0.59595	0.092
Mof_C 	C 	0.67006	0.12198	0.1653	-0.159
Mof_C 	C 	0.06804	0.67542	0.3617	0.359
Mof_C 	C 	0.69638	0.59432	0.84496	0.028
Mof_C 	C 	0.53195	0.62231	0.3411	-0.075
Mof_C 	C 	0.43748	0.62516	0.3644	0.027
Mof_C 	C 	0.16273	0.29217	0.48096	-0.114
Mof_C 	C 	0.96881	0.68963	0.34882	-0.121
Mof_C 	C 	0.78211	0.70505	0.32227	0.036
Mof_C 	C 	0.1446	0.66022	0.61305	0.103
Mof_C 	C 	0.98577	0.80321	0.77929	0.032
Mof_C 	C 	0.46992	0.77352	0.39976	0.029
Mof_C 	C 	0.17875	0.25521	0.43285	0.042
Mof_C 	C 	0.77352	0.46992	0.89976	0.029
Mof_C 	C 	0.13839	0.08721	0.47302	-0.171
Mof_C 	C 	0.01665	0.88035	0.37716	0.239
Mof_C 	C 	0.68983	0.68667	0.81071	0.098
Mof_C 	C 	0.94213	0.89121	0.75894	-0.081
Mof_C 	C 	0.70352	0.11244	0.02132	0.433
Mof_C 	C 	0.89121	0.94213	0.25894	-0.081
Mof_C 	C 	0.96029	0.90599	0.2909	0.003
Mof_C 	C 	0.17003	0.41569	0.38963	0.072
Mof_C 	C 	0.78482	0.99284	0.33232	-0.067
Mof_C 	C 	0.73896	0.05468	0.18352	0.086
Mof_C 	C 	0.70434	0.85394	0.78205	-0.082
Mof_C 	C 	0.70194	0.4062	0.89374	-0.096
Mof_C 	C 	0.09911	0.71789	0.57768	-0.167
Mof_C 	C 	0.77124	0.56352	0.87508	-0.082
Mof_C 	C 	0.18488	0.31976	0.38628	-0.116
Mof_C 	C 	0.14573	0.18311	0.931	0.087
Mof_C 	C 	0.79741	0.01083	0.14814	-0.15
Mof_C 	C 	0.6987	0.80434	0.87565	-0.103
Mof_C 	C 	0.89725	0.69241	0.38871	0.042
Mof_C 	C 	0.20632	0.01108	0.38654	0.099
Mof_C 	C 	0.05468	0.73896	0.68352	0.087
Mof_C 	C 	0.99284	0.78482	0.83232	-0.066
Mof_C 	C 	0.30109	0.70295	0.41138	0.391
Mof_C 	C 	0.90599	0.96029	0.7909	0.004
Mof_C 	C 	0.94024	0.91098	0.34376	-0.049
Mof_C 	C 	0.29217	0.16273	0.98096	-0.115
Mof_C 	C 	0.31976	0.18488	0.88628	-0.116
Mof_C 	C 	0.10627	0.21653	0.88644	-0.154
Mof_C 	C 	0.03461	0.73341	0.74339	0.075
Mof_C 	C 	0.68963	0.96881	0.84882	-0.119
Mof_C 	C 	0.01083	0.79741	0.64814	-0.153
Mof_C 	C 	0.41569	0.17003	0.88963	0.072
Mof_N 	N 	0.45106	0.15102	0.93588	-0.259
Mof_N 	N 	0.95315	0.16399	0.92796	-0.232
Mof_N 	N 	0.15102	0.45106	0.43588	-0.259
Mof_N 	N 	0.16399	0.95315	0.42796	-0.232
Mof_O 	O 	0.61997	0.12533	0.0086	-0.518
Mof_O 	O 	0.64825	0.12981	0.82697	-0.279
Mof_O 	O 	0.06067	0.65729	0.76736	-0.184
Mof_O 	O 	0.99783	0.86339	0.42606	-0.399
Mof_O 	O 	0.12533	0.61997	0.5086	-0.518
Mof_O 	O 	0.86543	0.10197	0.85425	-0.399
Mof_O 	O 	0.78074	0.2502	0.90522	-0.463
Mof_O 	O 	0.65962	0.68382	0.76849	-0.193
Mof_O 	O 	0.65729	0.06067	0.26736	-0.184
Mof_O 	O 	0.62009	0.26973	0.92775	-0.526
Mof_O 	O 	0.10197	0.86543	0.35425	-0.4
Mof_O 	O 	0.08874	0.68964	0.40642	-0.614
Mof_O 	O 	0.68964	0.08874	0.90642	-0.614
Mof_O 	O 	0.2502	0.78074	0.40522	-0.463
Mof_O 	O 	0.12981	0.64825	0.32697	-0.279
Mof_O 	O 	0.86339	0.99783	0.92606	-0.398
Mof_O 	O 	0.68382	0.65962	0.26849	-0.193
Mof_O 	O 	0.10954	0.78044	0.49027	-0.497
Mof_O 	O 	0.26973	0.62009	0.42775	-0.525
Mof_O 	O 	0.78044	0.10954	0.99027	-0.498
_end
