data_functionalizedCrystal
_audit_creation_method	'EQeq! by Chris Wilmer'
_symmetry_space_group_name_H-M	'P1'
_symmetry_Int_Tables_number	1
_symmetry_cell_setting	triclinic
loop_
_symmetry_equiv_pos_as_xyz
  x,y,z
_cell_length_a	15.4519
_cell_length_b	15.4519
_cell_length_c	15.4519
_cell_angle_alpha	90
_cell_angle_beta	90
_cell_angle_gamma	90
loop_
_atom_site_label
_atom_site_type_symbol
_atom_site_fract_x
_atom_site_fract_y
_atom_site_fract_z
_atom_site_charge
Mof_O 	O 	0.1241	0.01038	0.36166	-0.321
Mof_O 	O 	0.6241	0.51038	0.86166	-0.321
Mof_O 	O 	0.3759	0.98962	0.86166	-0.321
Mof_O 	O 	0.8759	0.48962	0.36166	-0.321
Mof_O 	O 	0.8759	0.51038	0.13834	-0.321
Mof_O 	O 	0.3759	0.01038	0.63834	-0.321
Mof_O 	O 	0.6241	0.48962	0.63834	-0.32
Mof_O 	O 	0.1241	0.98962	0.13834	-0.32
Mof_O 	O 	0.36166	0.1241	0.01038	-0.32
Mof_O 	O 	0.86166	0.6241	0.51038	-0.32
Mof_O 	O 	0.86166	0.3759	0.98962	-0.32
Mof_O 	O 	0.36166	0.8759	0.48962	-0.32
Mof_O 	O 	0.13834	0.8759	0.51038	-0.32
Mof_O 	O 	0.63834	0.3759	0.01038	-0.32
Mof_O 	O 	0.63834	0.6241	0.48962	-0.32
Mof_O 	O 	0.13834	0.1241	0.98962	-0.32
Mof_O 	O 	0.01038	0.36166	0.1241	-0.32
Mof_O 	O 	0.51038	0.86166	0.6241	-0.32
Mof_O 	O 	0.98962	0.86166	0.3759	-0.32
Mof_O 	O 	0.48962	0.36166	0.8759	-0.32
Mof_O 	O 	0.51038	0.13834	0.8759	-0.32
Mof_O 	O 	0.01038	0.63834	0.3759	-0.32
Mof_O 	O 	0.48962	0.63834	0.6241	-0.32
Mof_O 	O 	0.98962	0.13834	0.1241	-0.32
Mof_O 	O 	0.76038	0.3741	0.88834	-0.32
Mof_O 	O 	0.26038	0.8741	0.38834	-0.32
Mof_O 	O 	0.73962	0.6259	0.38834	-0.32
Mof_O 	O 	0.23962	0.1259	0.88834	-0.32
Mof_O 	O 	0.26038	0.1259	0.11166	-0.32
Mof_O 	O 	0.76038	0.6259	0.61166	-0.32
Mof_O 	O 	0.23962	0.8741	0.61166	-0.32
Mof_O 	O 	0.73962	0.3741	0.11166	-0.32
Mof_O 	O 	0.8741	0.61166	0.23962	-0.32
Mof_O 	O 	0.3741	0.11166	0.73962	-0.32
Mof_O 	O 	0.1259	0.11166	0.26038	-0.32
Mof_O 	O 	0.6259	0.61166	0.76038	-0.32
Mof_O 	O 	0.6259	0.38834	0.73962	-0.32
Mof_O 	O 	0.1259	0.88834	0.23962	-0.32
Mof_O 	O 	0.3741	0.88834	0.76038	-0.32
Mof_O 	O 	0.8741	0.38834	0.26038	-0.32
Mof_O 	O 	0.11166	0.26038	0.1259	-0.32
Mof_O 	O 	0.61166	0.76038	0.6259	-0.32
Mof_O 	O 	0.61166	0.23962	0.8741	-0.32
Mof_O 	O 	0.11166	0.73962	0.3741	-0.32
Mof_O 	O 	0.88834	0.76038	0.3741	-0.32
Mof_O 	O 	0.38834	0.26038	0.8741	-0.32
Mof_O 	O 	0.38834	0.73962	0.6259	-0.32
Mof_O 	O 	0.88834	0.23962	0.1259	-0.32
Mof_Co	Co	0.125	0.875	0.375	1.194
Mof_Co	Co	0.375	0.125	0.875	1.194
Mof_Co	Co	0.875	0.375	0.125	1.194
Mof_Co	Co	0.375	0.875	0.625	1.194
Mof_Co	Co	0.625	0.625	0.625	1.194
Mof_Co	Co	0.875	0.625	0.375	1.194
Mof_Co	Co	0.625	0.375	0.875	1.194
Mof_Co	Co	0.125	0.125	0.125	1.194
Mof_C 	C 	0.125	0.03589	0.28589	0.243
Mof_C 	C 	0.625	0.53589	0.78589	0.242
Mof_C 	C 	0.375	0.96411	0.78589	0.242
Mof_C 	C 	0.875	0.46411	0.28589	0.242
Mof_C 	C 	0.875	0.53589	0.21411	0.242
Mof_C 	C 	0.375	0.03589	0.71411	0.243
Mof_C 	C 	0.625	0.46411	0.71411	0.242
Mof_C 	C 	0.125	0.96411	0.21411	0.242
Mof_C 	C 	0.28589	0.125	0.03589	0.243
Mof_C 	C 	0.78589	0.625	0.53589	0.242
Mof_C 	C 	0.78589	0.375	0.96411	0.242
Mof_C 	C 	0.28589	0.875	0.46411	0.242
Mof_C 	C 	0.21411	0.875	0.53589	0.242
Mof_C 	C 	0.71411	0.375	0.03589	0.243
Mof_C 	C 	0.71411	0.625	0.46411	0.242
Mof_C 	C 	0.21411	0.125	0.96411	0.242
Mof_C 	C 	0.03589	0.28589	0.125	0.243
Mof_C 	C 	0.53589	0.78589	0.625	0.242
Mof_C 	C 	0.96411	0.78589	0.375	0.242
Mof_C 	C 	0.46411	0.28589	0.875	0.242
Mof_C 	C 	0.53589	0.21411	0.875	0.242
Mof_C 	C 	0.03589	0.71411	0.375	0.243
Mof_C 	C 	0.46411	0.71411	0.625	0.242
Mof_C 	C 	0.96411	0.21411	0.125	0.242
_end
