# CIF file generated by openbabel 3.1.0, see https://openbabel.org
data_I
_chemical_name_common 'image0'
_cell_length_a 17.0192
_cell_length_b 27.796
_cell_length_c 9.3238
_cell_angle_alpha 90
_cell_angle_beta 90
_cell_angle_gamma 90
_space_group_name_H-M_alt 'P 1'
_space_group_name_Hall 'P 1'
loop_
    _symmetry_equiv_pos_as_xyz
    x,y,z
loop_
    _atom_site_label
    _atom_site_type_symbol
    _atom_site_fract_x
    _atom_site_fract_y
    _atom_site_fract_z
    _atom_site_occupancy
    O1       O        0.51180    0.23014    0.13400    1.000
    O2       O        0.90330    0.82450    0.13180    1.000
    C1       C        0.70060    0.90900    0.12970    1.000
    H1       H        0.68800    0.93070    0.05720    1.000
    C2       C        0.77000    0.88340    0.12450    1.000
    H2       H        0.80120    0.88380    0.04270    1.000
    C3       C        0.74020    0.84750    0.15750    1.000
    H3       H        0.74990    0.82370    0.08970    1.000
    C4       C        0.67100    0.87080    0.15140    1.000
    H4       H        0.63820    0.86480    0.07370    1.000
    O3       O        0.01180    0.73014    0.13400    1.000
    O4       O        0.40330    0.32450    0.13180    1.000
    C5       C        0.20060    0.40900    0.12970    1.000
    H5       H        0.18800    0.43070    0.05720    1.000
    C6       C        0.27000    0.38340    0.12450    1.000
    H6       H        0.30120    0.38380    0.04270    1.000
    C7       C        0.24020    0.34750    0.15750    1.000
    H7       H        0.24990    0.32370    0.08970    1.000
    C8       C        0.17100    0.37080    0.15140    1.000
    H8       H        0.13820    0.36480    0.07370    1.000
    O5       O        0.48820    0.23014    0.36600    1.000
    O6       O        0.09670    0.82450    0.36820    1.000
    C9       C        0.29940    0.90900    0.37030    1.000
    H9       H        0.31200    0.93070    0.44280    1.000
    C10      C        0.23000    0.88340    0.37550    1.000
    H10      H        0.19880    0.88380    0.45730    1.000
    C11      C        0.25980    0.84750    0.34250    1.000
    H11      H        0.25010    0.82370    0.41030    1.000
    C12      C        0.32900    0.87080    0.34860    1.000
    H12      H        0.36180    0.86480    0.42630    1.000
    O7       O        0.98820    0.73014    0.36600    1.000
    O8       O        0.59670    0.32450    0.36820    1.000
    C13      C        0.79940    0.40900    0.37030    1.000
    H13      H        0.81200    0.43070    0.44280    1.000
    C14      C        0.73000    0.38340    0.37550    1.000
    H14      H        0.69880    0.38380    0.45730    1.000
    C15      C        0.75980    0.34750    0.34250    1.000
    H15      H        0.75010    0.32370    0.41030    1.000
    C16      C        0.82900    0.37080    0.34860    1.000
    H16      H        0.86180    0.36480    0.42630    1.000
    O9       O        0.51180    0.23014    0.36600    1.000
    O10      O        0.90330    0.82450    0.36820    1.000
    C17      C        0.70060    0.90900    0.37030    1.000
    H17      H        0.68800    0.93070    0.44280    1.000
    C18      C        0.77000    0.88340    0.37550    1.000
    H18      H        0.80120    0.88380    0.45730    1.000
    C19      C        0.74020    0.84750    0.34250    1.000
    H19      H        0.74990    0.82370    0.41030    1.000
    C20      C        0.67100    0.87080    0.34860    1.000
    H20      H        0.63820    0.86480    0.42630    1.000
    O11      O        0.01180    0.73014    0.36600    1.000
    O12      O        0.40330    0.32450    0.36820    1.000
    C21      C        0.20060    0.40900    0.37030    1.000
    H21      H        0.18800    0.43070    0.44280    1.000
    C22      C        0.27000    0.38340    0.37550    1.000
    H22      H        0.30120    0.38380    0.45730    1.000
    C23      C        0.24020    0.34750    0.34250    1.000
    H23      H        0.24990    0.32370    0.41030    1.000
    C24      C        0.17100    0.37080    0.34860    1.000
    H24      H        0.13820    0.36480    0.42630    1.000
    O13      O        0.48820    0.23014    0.13400    1.000
    O14      O        0.09670    0.82450    0.13180    1.000
    C25      C        0.29940    0.90900    0.12970    1.000
    H25      H        0.31200    0.93070    0.05720    1.000
    C26      C        0.23000    0.88340    0.12450    1.000
    H26      H        0.19880    0.88380    0.04270    1.000
    C27      C        0.25980    0.84750    0.15750    1.000
    H27      H        0.25010    0.82370    0.08970    1.000
    C28      C        0.32900    0.87080    0.15140    1.000
    H28      H        0.36180    0.86480    0.07370    1.000
    O15      O        0.98820    0.73014    0.13400    1.000
    O16      O        0.59670    0.32450    0.13180    1.000
    C29      C        0.79940    0.40900    0.12970    1.000
    H29      H        0.81200    0.43070    0.05720    1.000
    C30      C        0.73000    0.38340    0.12450    1.000
    H30      H        0.69880    0.38380    0.04270    1.000
    C31      C        0.75980    0.34750    0.15750    1.000
    H31      H        0.75010    0.32370    0.08970    1.000
    C32      C        0.82900    0.37080    0.15140    1.000
    H32      H        0.86180    0.36480    0.07370    1.000
    Zn1      Zn       0.00000    0.79807    0.07129    1.000
    N1       N        0.00000    0.78850    0.87110    1.000
    Zn2      Zn       0.50000    0.29807    0.07129    1.000
    N2       N        0.50000    0.28850    0.87110    1.000
    Zn3      Zn       0.00000    0.79807    0.42871    1.000
    N3       N        0.00000    0.78850    0.62890    1.000
    Zn4      Zn       0.50000    0.29807    0.42871    1.000
    N4       N        0.50000    0.28850    0.62890    1.000
    C33      C        0.00000    0.80190    0.75000    1.000
    C34      C        0.50000    0.30190    0.75000    1.000
    C35      C        0.50000    0.90270    0.25000    1.000
    C36      C        0.50000    0.00250    0.25000    1.000
    C37      C        0.50000    0.05570    0.25000    1.000
    C38      C        0.50000    0.20980    0.25000    1.000
    C39      C        0.50000    0.15610    0.25000    1.000
    N5       N        0.50000    0.85850    0.25000    1.000
    C40      C        0.00000    0.40270    0.25000    1.000
    C41      C        0.00000    0.50250    0.25000    1.000
    C42      C        0.00000    0.55570    0.25000    1.000
    C43      C        0.00000    0.70980    0.25000    1.000
    C44      C        0.00000    0.65610    0.25000    1.000
    N6       N        0.00000    0.35850    0.25000    1.000
    C45      C        0.50000    0.08060    0.12310    1.000
    H33      H        0.50000    0.06400    0.03650    1.000
    C46      C        0.50000    0.13030    0.12380    1.000
    H34      H        0.50000    0.14680    0.03690    1.000
    C47      C        0.00000    0.58060    0.12310    1.000
    H35      H        0.00000    0.56400    0.03650    1.000
    C48      C        0.00000    0.63030    0.12380    1.000
    H36      H        0.00000    0.64680    0.03690    1.000
    C49      C        0.50000    0.08060    0.37690    1.000
    H37      H        0.50000    0.06400    0.46350    1.000
    C50      C        0.50000    0.13030    0.37620    1.000
    H38      H        0.50000    0.14680    0.46310    1.000
    C51      C        0.00000    0.58060    0.37690    1.000
    H39      H        0.00000    0.56400    0.46350    1.000
    C52      C        0.00000    0.63030    0.37620    1.000
    H40      H        0.00000    0.64680    0.46310    1.000
    C53      C        0.57040    0.92730    0.25000    1.000
    C54      C        0.57160    0.97730    0.25000    1.000
    C55      C        0.64700    0.90180    0.25000    1.000
    C56      C        0.79300    0.85600    0.25000    1.000
    C57      C        0.87080    0.83210    0.25000    1.000
    N7       N        0.64310    0.00410    0.25000    1.000
    C58      C        0.07040    0.42730    0.25000    1.000
    C59      C        0.07160    0.47730    0.25000    1.000
    C60      C        0.14700    0.40180    0.25000    1.000
    C61      C        0.29300    0.35600    0.25000    1.000
    C62      C        0.37080    0.33210    0.25000    1.000
    N8       N        0.14310    0.50410    0.25000    1.000
    C63      C        0.42960    0.92730    0.25000    1.000
    C64      C        0.42840    0.97730    0.25000    1.000
    C65      C        0.35300    0.90180    0.25000    1.000
    C66      C        0.20700    0.85600    0.25000    1.000
    C67      C        0.12920    0.83210    0.25000    1.000
    N9       N        0.35690    0.00410    0.25000    1.000
    C68      C        0.92960    0.42730    0.25000    1.000
    C69      C        0.92840    0.47730    0.25000    1.000
    C70      C        0.85300    0.40180    0.25000    1.000
    C71      C        0.70700    0.35600    0.25000    1.000
    C72      C        0.62920    0.33210    0.25000    1.000
    N10      N        0.85690    0.50410    0.25000    1.000
    O17      O        0.48820    0.76986    0.63400    1.000
    O18      O        0.09670    0.17550    0.63180    1.000
    C73      C        0.29940    0.09100    0.62970    1.000
    H41      H        0.31200    0.06930    0.55720    1.000
    C74      C        0.23000    0.11660    0.62450    1.000
    H42      H        0.19880    0.11620    0.54270    1.000
    C75      C        0.25980    0.15250    0.65750    1.000
    H43      H        0.25010    0.17630    0.58970    1.000
    C76      C        0.32900    0.12920    0.65140    1.000
    H44      H        0.36180    0.13520    0.57370    1.000
    O19      O        0.98820    0.26986    0.63400    1.000
    O20      O        0.59670    0.67550    0.63180    1.000
    C77      C        0.79940    0.59100    0.62970    1.000
    H45      H        0.81200    0.56930    0.55720    1.000
    C78      C        0.73000    0.61660    0.62450    1.000
    H46      H        0.69880    0.61620    0.54270    1.000
    C79      C        0.75980    0.65250    0.65750    1.000
    H47      H        0.75010    0.67630    0.58970    1.000
    C80      C        0.82900    0.62920    0.65140    1.000
    H48      H        0.86180    0.63520    0.57370    1.000
    O21      O        0.51180    0.76986    0.86600    1.000
    O22      O        0.90330    0.17550    0.86820    1.000
    C81      C        0.70060    0.09100    0.87030    1.000
    H49      H        0.68800    0.06930    0.94280    1.000
    C82      C        0.77000    0.11660    0.87550    1.000
    H50      H        0.80120    0.11620    0.95730    1.000
    C83      C        0.74020    0.15250    0.84250    1.000
    H51      H        0.74990    0.17630    0.91030    1.000
    C84      C        0.67100    0.12920    0.84860    1.000
    H52      H        0.63820    0.13520    0.92630    1.000
    O23      O        0.01180    0.26986    0.86600    1.000
    O24      O        0.40330    0.67550    0.86820    1.000
    C85      C        0.20060    0.59100    0.87030    1.000
    H53      H        0.18800    0.56930    0.94280    1.000
    C86      C        0.27000    0.61660    0.87550    1.000
    H54      H        0.30120    0.61620    0.95730    1.000
    C87      C        0.24020    0.65250    0.84250    1.000
    H55      H        0.24990    0.67630    0.91030    1.000
    C88      C        0.17100    0.62920    0.84860    1.000
    H56      H        0.13820    0.63520    0.92630    1.000
    O25      O        0.48820    0.76986    0.86600    1.000
    O26      O        0.09670    0.17550    0.86820    1.000
    C89      C        0.29940    0.09100    0.87030    1.000
    H57      H        0.31200    0.06930    0.94280    1.000
    C90      C        0.23000    0.11660    0.87550    1.000
    H58      H        0.19880    0.11620    0.95730    1.000
    C91      C        0.25980    0.15250    0.84250    1.000
    H59      H        0.25010    0.17630    0.91030    1.000
    C92      C        0.32900    0.12920    0.84860    1.000
    H60      H        0.36180    0.13520    0.92630    1.000
    O27      O        0.98820    0.26986    0.86600    1.000
    O28      O        0.59670    0.67550    0.86820    1.000
    C93      C        0.79940    0.59100    0.87030    1.000
    H61      H        0.81200    0.56930    0.94280    1.000
    C94      C        0.73000    0.61660    0.87550    1.000
    H62      H        0.69880    0.61620    0.95730    1.000
    C95      C        0.75980    0.65250    0.84250    1.000
    H63      H        0.75010    0.67630    0.91030    1.000
    C96      C        0.82900    0.62920    0.84860    1.000
    H64      H        0.86180    0.63520    0.92630    1.000
    O29      O        0.51180    0.76986    0.63400    1.000
    O30      O        0.90330    0.17550    0.63180    1.000
    C97      C        0.70060    0.09100    0.62970    1.000
    H65      H        0.68800    0.06930    0.55720    1.000
    C98      C        0.77000    0.11660    0.62450    1.000
    H66      H        0.80120    0.11620    0.54270    1.000
    C99      C        0.74020    0.15250    0.65750    1.000
    H67      H        0.74990    0.17630    0.58970    1.000
    C100     C        0.67100    0.12920    0.65140    1.000
    H68      H        0.63820    0.13520    0.57370    1.000
    O31      O        0.01180    0.26986    0.63400    1.000
    O32      O        0.40330    0.67550    0.63180    1.000
    C101     C        0.20060    0.59100    0.62970    1.000
    H69      H        0.18800    0.56930    0.55720    1.000
    C102     C        0.27000    0.61660    0.62450    1.000
    H70      H        0.30120    0.61620    0.54270    1.000
    C103     C        0.24020    0.65250    0.65750    1.000
    H71      H        0.24990    0.67630    0.58970    1.000
    C104     C        0.17100    0.62920    0.65140    1.000
    H72      H        0.13820    0.63520    0.57370    1.000
    Zn5      Zn       0.00000    0.20193    0.57129    1.000
    N11      N        0.00000    0.21150    0.37110    1.000
    Zn6      Zn       0.50000    0.70193    0.57129    1.000
    N12      N        0.50000    0.71150    0.37110    1.000
    Zn7      Zn       0.00000    0.20193    0.92871    1.000
    N13      N        0.00000    0.21150    0.12890    1.000
    Zn8      Zn       0.50000    0.70193    0.92871    1.000
    N14      N        0.50000    0.71150    0.12890    1.000
    C105     C        0.00000    0.19810    0.25000    1.000
    C106     C        0.50000    0.69810    0.25000    1.000
    C107     C        0.50000    0.09730    0.75000    1.000
    C108     C        0.50000    0.99750    0.75000    1.000
    C109     C        0.50000    0.94430    0.75000    1.000
    C110     C        0.50000    0.79020    0.75000    1.000
    C111     C        0.50000    0.84390    0.75000    1.000
    N15      N        0.50000    0.14150    0.75000    1.000
    C112     C        0.00000    0.59730    0.75000    1.000
    C113     C        0.00000    0.49750    0.75000    1.000
    C114     C        0.00000    0.44430    0.75000    1.000
    C115     C        0.00000    0.29020    0.75000    1.000
    C116     C        0.00000    0.34390    0.75000    1.000
    N16      N        0.00000    0.64150    0.75000    1.000
    C117     C        0.50000    0.91940    0.62310    1.000
    H73      H        0.50000    0.93600    0.53650    1.000
    C118     C        0.50000    0.86970    0.62380    1.000
    H74      H        0.50000    0.85320    0.53690    1.000
    C119     C        0.00000    0.41940    0.62310    1.000
    H75      H        0.00000    0.43600    0.53650    1.000
    C120     C        0.00000    0.36970    0.62380    1.000
    H76      H        0.00000    0.35320    0.53690    1.000
    C121     C        0.50000    0.91940    0.87690    1.000
    H77      H        0.50000    0.93600    0.96350    1.000
    C122     C        0.50000    0.86970    0.87620    1.000
    H78      H        0.50000    0.85320    0.96310    1.000
    C123     C        0.00000    0.41940    0.87690    1.000
    H79      H        0.00000    0.43600    0.96350    1.000
    C124     C        0.00000    0.36970    0.87620    1.000
    H80      H        0.00000    0.35320    0.96310    1.000
    C125     C        0.42960    0.07270    0.75000    1.000
    C126     C        0.42840    0.02270    0.75000    1.000
    C127     C        0.35300    0.09820    0.75000    1.000
    C128     C        0.20700    0.14400    0.75000    1.000
    C129     C        0.12920    0.16790    0.75000    1.000
    N17      N        0.35690    0.99590    0.75000    1.000
    C130     C        0.92960    0.57270    0.75000    1.000
    C131     C        0.92840    0.52270    0.75000    1.000
    C132     C        0.85300    0.59820    0.75000    1.000
    C133     C        0.70700    0.64400    0.75000    1.000
    C134     C        0.62920    0.66790    0.75000    1.000
    N18      N        0.85690    0.49590    0.75000    1.000
    C135     C        0.57040    0.07270    0.75000    1.000
    C136     C        0.57160    0.02270    0.75000    1.000
    C137     C        0.64700    0.09820    0.75000    1.000
    C138     C        0.79300    0.14400    0.75000    1.000
    C139     C        0.87080    0.16790    0.75000    1.000
    N19      N        0.64310    0.99590    0.75000    1.000
    C140     C        0.07040    0.57270    0.75000    1.000
    C141     C        0.07160    0.52270    0.75000    1.000
    C142     C        0.14700    0.59820    0.75000    1.000
    C143     C        0.29300    0.64400    0.75000    1.000
    C144     C        0.37080    0.66790    0.75000    1.000
    N20      N        0.14310    0.49590    0.75000    1.000
