# CIF file generated by openbabel 3.1.0, see https://openbabel.org
data_I
_chemical_name_common 'ALUJUN_clean'
_cell_length_a 8.613
_cell_length_b 10.122
_cell_length_c 11.095
_cell_angle_alpha 65.205
_cell_angle_beta 71.609
_cell_angle_gamma 78.617
_space_group_name_H-M_alt 'P 1'
_space_group_name_Hall 'P 1'
loop_
    _symmetry_equiv_pos_as_xyz
    x,y,z
loop_
    _atom_site_label
    _atom_site_type_symbol
    _atom_site_fract_x
    _atom_site_fract_y
    _atom_site_fract_z
    _atom_site_occupancy
    Y1       Y        0.36688    0.06328    0.33869    1.000
    Y2       Y        0.63312    0.93672    0.66131    1.000
    H1       H        0.55380    0.72270    0.31400    1.000
    H2       H        0.49480    0.47520    0.71840    1.000
    H3       H        0.95840    0.15110    0.11580    1.000
    H4       H        0.78100    0.88430    0.01320    1.000
    H5       H        0.27580    0.44800    0.91610    1.000
    H6       H        0.86580    0.37080    0.22920    1.000
    H7       H        0.44620    0.27730    0.68600    1.000
    H8       H        0.50520    0.52480    0.28160    1.000
    H9       H        0.04160    0.84890    0.88420    1.000
    H10      H        0.21900    0.11570    0.98680    1.000
    H11      H        0.72420    0.55200    0.08390    1.000
    H12      H        0.13420    0.62920    0.77080    1.000
    C1       C        0.55690    0.74500    0.54370    1.000
    C2       C        0.52840    0.61880    0.51960    1.000
    C3       C        0.53220    0.63410    0.38800    1.000
    C4       C        0.49660    0.48440    0.63100    1.000
    C5       C        0.67410    0.04580    0.16100    1.000
    C6       C        0.84340    0.02080    0.07870    1.000
    C7       C        0.97670    0.08990    0.06860    1.000
    C8       C        0.86750    0.93020    0.00840    1.000
    C9       C        0.17690    0.27050    0.17980    1.000
    C10      C        0.08340    0.39130    0.08840    1.000
    C11      C        0.16440    0.46990    0.94900    1.000
    C12      C        0.91960    0.42200    0.13810    1.000
    C13      C        0.44310    0.25500    0.45630    1.000
    C14      C        0.47160    0.38120    0.48040    1.000
    C15      C        0.46780    0.36590    0.61200    1.000
    C16      C        0.50340    0.51560    0.36900    1.000
    C17      C        0.32590    0.95420    0.83900    1.000
    C18      C        0.15660    0.97920    0.92130    1.000
    C19      C        0.02330    0.91010    0.93140    1.000
    C20      C        0.13250    0.06980    0.99160    1.000
    C21      C        0.82310    0.72950    0.82020    1.000
    C22      C        0.91660    0.60870    0.91160    1.000
    C23      C        0.83560    0.53010    0.05100    1.000
    C24      C        0.08040    0.57800    0.86190    1.000
    O1       O        0.51840    0.87220    0.46840    1.000
    O2       O        0.62230    0.72030    0.63860    1.000
    O3       O        0.65540    0.12250    0.22970    1.000
    O4       O        0.55260    0.98850    0.16440    1.000
    O5       O        0.10500    0.19680    0.30580    1.000
    O6       O        0.32630    0.24490    0.12680    1.000
    O7       O        0.48160    0.12780    0.53160    1.000
    O8       O        0.37770    0.27970    0.36140    1.000
    O9       O        0.34460    0.87750    0.77030    1.000
    O10      O        0.44740    0.01150    0.83560    1.000
    O11      O        0.89500    0.80320    0.69420    1.000
    O12      O        0.67370    0.75510    0.87320    1.000
