data_functionalizedCrystal
_audit_creation_method	'EQeq! by Chris Wilmer'
_symmetry_space_group_name_H-M	'P1'
_symmetry_Int_Tables_number	1
_symmetry_cell_setting	triclinic
loop_
_symmetry_equiv_pos_as_xyz
  x,y,z
_cell_length_a	12.4895
_cell_length_b	12.4895
_cell_length_c	18.254
_cell_angle_alpha	98.7567
_cell_angle_beta	98.7567
_cell_angle_gamma	116.378
loop_
_atom_site_label
_atom_site_type_symbol
_atom_site_fract_x
_atom_site_fract_y
_atom_site_fract_z
_atom_site_charge
Mof_Zn	Zn	0.20223	0.33625	0.95948	1.21
Mof_Zn	Zn	0.66375	0.79777	0.54052	1.21
Mof_Zn	Zn	0.79777	0.66375	0.04052	1.209
Mof_Zn	Zn	0.33625	0.20223	0.45948	1.209
Mof_Zn	Zn	0.76376	0.23624	0.25	1.152
Mof_Zn	Zn	0.23624	0.76376	0.75	1.152
Mof_B 	B 	0.7115	0.0343	0.9453	0.916
Mof_B 	B 	0.9657	0.2885	0.5547	0.933
Mof_B 	B 	0.2885	0.9657	0.0547	0.918
Mof_B 	B 	0.0343	0.7115	0.4453	0.929
Mof_H 	H 	0.805	0.977	0.819	0.031
Mof_H 	H 	0.02	0.108	0.812	0.028
Mof_H 	H 	0.947	0.233	0.005	-0.02
Mof_H 	H 	0.584	0.712	0.064	0.025
Mof_H 	H 	0.55	0.88	0.026	-0.005
Mof_H 	H 	0.824	0.876	0.954	-0.037
Mof_H 	H 	0.768	0.082	0.103	-0.066
Mof_H 	H 	0.756	0.378	0.098	0.044
Mof_H 	H 	0.698	0.256	0.963	-0.004
Mof_H 	H 	0.671	0.113	0.82	0.011
Mof_H 	H 	0.464	0	0.722	0.018
Mof_H 	H 	0.472	0.844	0.884	-0.067
Mof_H 	H 	0.193	0.419	0.246	0.034
Mof_H 	H 	0.42	0.67	0.142	0.054
Mof_H 	H 	0.271	0.363	0.676	0.035
Mof_H 	H 	0.497	0.597	0.881	0.052
Mof_H 	H 	0.023	0.195	0.681	0.02
Mof_H 	H 	0.892	0.98	0.688	0.033
Mof_H 	H 	0.767	0.053	0.495	-0.026
Mof_H 	H 	0.288	0.416	0.436	0.026
Mof_H 	H 	0.12	0.45	0.474	-0.007
Mof_H 	H 	0.124	0.176	0.546	-0.039
Mof_H 	H 	0.918	0.232	0.397	-0.068
Mof_H 	H 	0.622	0.244	0.402	0.041
Mof_H 	H 	0.744	0.302	0.537	0.001
Mof_H 	H 	0.887	0.329	0.68	0.002
Mof_H 	H 	4.65505e-17	0.536	0.778	0.027
Mof_H 	H 	0.156	0.528	0.616	-0.069
Mof_H 	H 	0.581	0.807	0.254	0.034
Mof_H 	H 	0.33	0.58	0.358	0.054
Mof_H 	H 	0.637	0.729	0.824	0.036
Mof_H 	H 	0.403	0.503	0.619	0.051
Mof_H 	H 	0.195	0.023	0.181	0.028
Mof_H 	H 	0.98	0.892	0.188	0.031
Mof_H 	H 	0.053	0.767	0.995	-0.02
Mof_H 	H 	0.416	0.288	0.936	0.025
Mof_H 	H 	0.45	0.12	0.974	-0.006
Mof_H 	H 	0.176	0.124	0.046	-0.038
Mof_H 	H 	0.232	0.918	0.897	-0.066
Mof_H 	H 	0.244	0.622	0.902	0.044
Mof_H 	H 	0.302	0.744	0.037	-0.004
Mof_H 	H 	0.329	0.887	0.18	0.007
Mof_H 	H 	0.536	0	0.278	0.024
Mof_H 	H 	0.528	0.156	0.116	-0.067
Mof_H 	H 	0.807	0.581	0.754	0.035
Mof_H 	H 	0.58	0.33	0.858	0.055
Mof_H 	H 	0.729	0.637	0.324	0.036
Mof_H 	H 	0.503	0.403	0.119	0.052
Mof_H 	H 	0.977	0.805	0.319	0.024
Mof_H 	H 	0.108	0.02	0.312	0.031
Mof_H 	H 	0.233	0.947	0.505	-0.026
Mof_H 	H 	0.712	0.584	0.564	0.026
Mof_H 	H 	0.88	0.55	0.526	-0.007
Mof_H 	H 	0.876	0.824	0.454	-0.038
Mof_H 	H 	0.082	0.768	0.603	-0.068
Mof_H 	H 	0.378	0.756	0.598	0.041
Mof_H 	H 	0.256	0.698	0.463	0.001
Mof_H 	H 	0.113	0.671	0.32	0.006
Mof_H 	H 	3.49129e-17	0.464	0.222	0.023
Mof_H 	H 	0.844	0.472	0.384	-0.069
Mof_H 	H 	0.419	0.193	0.746	0.034
Mof_H 	H 	0.67	0.42	0.642	0.054
Mof_H 	H 	0.363	0.271	0.176	0.036
Mof_H 	H 	0.597	0.497	0.381	0.051
Mof_C 	C 	0.8582	0.041	0.8541	0.021
Mof_C 	C 	0.9746	0.115	0.8542	-0.018
Mof_C 	C 	0.9381	0.1887	0.9558	0.12
Mof_C 	C 	0.6205	0.7705	0.036	-0.026
Mof_C 	C 	0.606	0.863	0.0158	0.045
Mof_C 	C 	0.7603	0.8603	0.9786	0.144
Mof_C 	C 	0.761	0.1438	0.0869	0.139
Mof_C 	C 	0.7483	0.3061	0.0811	-0.047
Mof_C 	C 	0.7171	0.2397	0.0092	0.068
Mof_C 	C 	0.5983	0.0519	0.8172	0.028
Mof_C 	C 	0.4893	0.9849	0.7672	-0.02
Mof_C 	C 	0.4931	0.8931	0.8553	0.179
Mof_C 	C 	0.2171	0.4439	0.1089	0.323
Mof_C 	C 	0.2721	0.5181	0.2521	-0.001
Mof_C 	C 	0.2958	0.5394	0.1813	-0.072
Mof_C 	C 	0.3984	0.645	0.1815	-0.04
Mof_C 	C 	0.2877	0.3887	0.8285	0.325
Mof_C 	C 	0.3712	0.4714	0.7869	-0.077
Mof_C 	C 	0.3462	0.4434	0.7089	-0.008
Mof_C 	C 	0.4762	0.5782	0.8284	-0.039
Mof_C 	C 	0.959	0.1418	0.6459	0.039
Mof_C 	C 	0.885	0.0254	0.6458	-0.029
Mof_C 	C 	0.8113	0.0619	0.5442	0.128
Mof_C 	C 	0.2295	0.3795	0.464	-0.028
Mof_C 	C 	0.137	0.394	0.4842	0.052
Mof_C 	C 	0.1397	0.2397	0.5214	0.141
Mof_C 	C 	0.8562	0.239	0.4131	0.14
Mof_C 	C 	0.6939	0.2517	0.4189	-0.042
Mof_C 	C 	0.7603	0.2829	0.4908	0.059
Mof_C 	C 	0.9481	0.4017	0.6828	0.05
Mof_C 	C 	0.0151	0.5107	0.7328	-0.041
Mof_C 	C 	0.1069	0.5069	0.6447	0.179
Mof_C 	C 	0.5561	0.7829	0.3911	0.323
Mof_C 	C 	0.4819	0.7279	0.2479	-0.001
Mof_C 	C 	0.4606	0.7042	0.3187	-0.072
Mof_C 	C 	0.355	0.6016	0.3185	-0.04
Mof_C 	C 	0.6113	0.7123	0.6715	0.326
Mof_C 	C 	0.5286	0.6288	0.7131	-0.077
Mof_C 	C 	0.5566	0.6538	0.7911	-0.008
Mof_C 	C 	0.4218	0.5238	0.6716	-0.039
Mof_C 	C 	0.1418	0.959	0.1459	0.027
Mof_C 	C 	0.0254	0.885	0.1458	-0.024
Mof_C 	C 	0.0619	0.8113	0.0442	0.118
Mof_C 	C 	0.3795	0.2295	0.964	-0.026
Mof_C 	C 	0.394	0.137	0.9842	0.045
Mof_C 	C 	0.2397	0.1397	0.0214	0.144
Mof_C 	C 	0.239	0.8562	0.9131	0.139
Mof_C 	C 	0.2517	0.6939	0.9189	-0.047
Mof_C 	C 	0.2829	0.7603	0.9908	0.068
Mof_C 	C 	0.4017	0.9481	0.1828	0.037
Mof_C 	C 	0.5107	0.0151	0.2328	-0.03
Mof_C 	C 	0.5069	0.1069	0.1447	0.179
Mof_C 	C 	0.7829	0.5561	0.8911	0.323
Mof_C 	C 	0.7279	0.4819	0.7479	-0.001
Mof_C 	C 	0.7042	0.4606	0.8187	-0.072
Mof_C 	C 	0.6016	0.355	0.8185	-0.04
Mof_C 	C 	0.7123	0.6113	0.1715	0.325
Mof_C 	C 	0.6288	0.5286	0.2131	-0.077
Mof_C 	C 	0.6538	0.5566	0.2911	-0.008
Mof_C 	C 	0.5238	0.4218	0.1716	-0.039
Mof_C 	C 	0.041	0.8582	0.3541	0.032
Mof_C 	C 	0.115	0.9746	0.3542	-0.024
Mof_C 	C 	0.1887	0.9381	0.4558	0.128
Mof_C 	C 	0.7705	0.6205	0.536	-0.028
Mof_C 	C 	0.863	0.606	0.5158	0.052
Mof_C 	C 	0.8603	0.7603	0.4786	0.141
Mof_C 	C 	0.1438	0.761	0.5869	0.14
Mof_C 	C 	0.3061	0.7483	0.5811	-0.042
Mof_C 	C 	0.2397	0.7171	0.5092	0.059
Mof_C 	C 	0.0519	0.5983	0.3172	0.042
Mof_C 	C 	0.9849	0.4893	0.2672	-0.032
Mof_C 	C 	0.8931	0.4931	0.3553	0.179
Mof_C 	C 	0.4439	0.2171	0.6089	0.323
Mof_C 	C 	0.5181	0.2721	0.7521	-0.001
Mof_C 	C 	0.5394	0.2958	0.6813	-0.072
Mof_C 	C 	0.645	0.3984	0.6815	-0.04
Mof_C 	C 	0.3887	0.2877	0.3285	0.326
Mof_C 	C 	0.4714	0.3712	0.2869	-0.077
Mof_C 	C 	0.4434	0.3462	0.2089	-0.008
Mof_C 	C 	0.5782	0.4762	0.3284	-0.039
Mof_N 	N 	0.0257	0.2113	0.919	-0.274
Mof_N 	N 	0.833	0.0864	0.919	-0.302
Mof_N 	N 	0.7208	0.7698	0.0132	-0.27
Mof_N 	N 	0.6932	0.9198	0.9775	-0.301
Mof_N 	N 	0.7773	0.2445	0.1318	-0.255
Mof_N 	N 	0.7232	0.1326	0.0113	-0.319
Mof_N 	N 	0.6042	0.9936	0.8755	-0.314
Mof_N 	N 	0.421	0.882	0.7916	-0.294
Mof_N 	N 	0.7887	0.9743	0.581	-0.273
Mof_N 	N 	0.9136	0.167	0.581	-0.308
Mof_N 	N 	0.2302	0.2792	0.4868	-0.268
Mof_N 	N 	0.0802	0.3068	0.5225	-0.307
Mof_N 	N 	0.7555	0.2227	0.3682	-0.256
Mof_N 	N 	0.8674	0.2768	0.4887	-0.322
Mof_N 	N 	0.0064	0.3958	0.6245	-0.324
Mof_N 	N 	0.118	0.579	0.7084	-0.291
Mof_N 	N 	0.9743	0.7887	0.081	-0.272
Mof_N 	N 	0.167	0.9136	0.081	-0.303
Mof_N 	N 	0.2792	0.2302	0.9868	-0.27
Mof_N 	N 	0.3068	0.0802	0.0225	-0.302
Mof_N 	N 	0.2227	0.7555	0.8682	-0.255
Mof_N 	N 	0.2768	0.8674	0.9887	-0.319
Mof_N 	N 	0.3958	0.0064	0.1245	-0.317
Mof_N 	N 	0.579	0.118	0.2084	-0.292
Mof_N 	N 	0.2113	0.0257	0.419	-0.275
Mof_N 	N 	0.0864	0.833	0.419	-0.306
Mof_N 	N 	0.7698	0.7208	0.5132	-0.268
Mof_N 	N 	0.9198	0.6932	0.4775	-0.306
Mof_N 	N 	0.2445	0.7773	0.6318	-0.256
Mof_N 	N 	0.1326	0.7232	0.5113	-0.322
Mof_N 	N 	0.9936	0.6042	0.3755	-0.321
Mof_N 	N 	0.882	0.421	0.2916	-0.292
Mof_O 	O 	0.133	0.3434	0.1088	-0.317
Mof_O 	O 	0.2471	0.4711	0.0473	-0.455
Mof_O 	O 	0.2131	0.2783	0.7942	-0.309
Mof_O 	O 	0.2973	0.4343	0.8973	-0.467
Mof_O 	O 	0.6566	0.867	0.3912	-0.317
Mof_O 	O 	0.5289	0.7529	0.4527	-0.455
Mof_O 	O 	0.7217	0.7869	0.7058	-0.309
Mof_O 	O 	0.5657	0.7027	0.6027	-0.467
Mof_O 	O 	0.867	0.6566	0.8912	-0.316
Mof_O 	O 	0.7529	0.5289	0.9527	-0.455
Mof_O 	O 	0.7869	0.7217	0.2058	-0.309
Mof_O 	O 	0.7027	0.5657	0.1027	-0.467
Mof_O 	O 	0.3434	0.133	0.6088	-0.317
Mof_O 	O 	0.4711	0.2471	0.5473	-0.455
Mof_O 	O 	0.2783	0.2131	0.2942	-0.309
Mof_O 	O 	0.4343	0.2973	0.3973	-0.468
_end
