data_functionalizedCrystal
_audit_creation_method	'EQeq! by Chris Wilmer'
_symmetry_space_group_name_H-M	'P1'
_symmetry_Int_Tables_number	1
_symmetry_cell_setting	triclinic
loop_
_symmetry_equiv_pos_as_xyz
  x,y,z
_cell_length_a	17.1031
_cell_length_b	17.1031
_cell_length_c	17.1031
_cell_angle_alpha	87.6667
_cell_angle_beta	87.6667
_cell_angle_gamma	87.6667
loop_
_atom_site_label
_atom_site_type_symbol
_atom_site_fract_x
_atom_site_fract_y
_atom_site_fract_z
_atom_site_charge
Mof_Zn	Zn	0.88425	0.88428	0.75374	1.211
Mof_Zn	Zn	0.75374	0.88425	0.88428	1.211
Mof_Zn	Zn	0.88428	0.75374	0.88425	1.211
Mof_Zn	Zn	0.75347	0.75347	0.75347	1.212
Mof_H 	H 	0.9086	0.914	0.5033	0.065
Mof_H 	H 	0.7621	0.7317	0.3863	0.062
Mof_H 	H 	0.7702	0.729	0.5216	0.027
Mof_H 	H 	0.9901	0.0143	0.3428	0.072
Mof_H 	H 	0.9491	0.0007	0.4277	0.066
Mof_H 	H 	0.0161	0.9401	0.397	0.067
Mof_H 	H 	0.7178	0.8841	0.1342	0.074
Mof_H 	H 	0.9238	0.7516	0.2581	0.059
Mof_H 	H 	0.9162	0.7495	0.1226	0.053
Mof_H 	H 	0.6087	0.963	0.2814	0.089
Mof_H 	H 	0.6603	0.9722	0.2017	0.088
Mof_H 	H 	0.613	0.8943	0.2204	0.083
Mof_H 	H 	0.5033	0.9086	0.914	0.064
Mof_H 	H 	0.3863	0.7621	0.7317	0.061
Mof_H 	H 	0.5216	0.7702	0.729	0.026
Mof_H 	H 	0.3428	0.9901	0.0143	0.071
Mof_H 	H 	0.4277	0.9491	0.0007	0.066
Mof_H 	H 	0.397	0.0161	0.9401	0.067
Mof_H 	H 	0.1342	0.7178	0.8841	0.074
Mof_H 	H 	0.2581	0.9238	0.7516	0.059
Mof_H 	H 	0.1226	0.9162	0.7495	0.053
Mof_H 	H 	0.2814	0.6087	0.963	0.089
Mof_H 	H 	0.2017	0.6603	0.9722	0.088
Mof_H 	H 	0.2204	0.613	0.8943	0.083
Mof_H 	H 	0.914	0.5033	0.9086	0.064
Mof_H 	H 	0.7317	0.3863	0.7621	0.061
Mof_H 	H 	0.729	0.5216	0.7702	0.026
Mof_H 	H 	0.0143	0.3428	0.9901	0.071
Mof_H 	H 	0.0007	0.4277	0.9491	0.066
Mof_H 	H 	0.9401	0.397	0.0161	0.067
Mof_H 	H 	0.8841	0.1342	0.7178	0.074
Mof_H 	H 	0.7516	0.2581	0.9238	0.059
Mof_H 	H 	0.7495	0.1226	0.9162	0.053
Mof_H 	H 	0.963	0.2814	0.6087	0.089
Mof_H 	H 	0.9722	0.2017	0.6603	0.088
Mof_H 	H 	0.8943	0.2204	0.613	0.083
Mof_C 	C 	0.8429	0.8205	0.6124	0.433
Mof_C 	C 	0.8392	0.8214	0.5249	-0.106
Mof_C 	C 	0.8789	0.8766	0.4792	-0.058
Mof_C 	C 	0.8756	0.8772	0.3988	0.103
Mof_C 	C 	0.8322	0.8222	0.3637	0.008
Mof_C 	C 	0.7928	0.7686	0.4099	-0.078
Mof_C 	C 	0.7969	0.7675	0.4903	0.021
Mof_C 	C 	0.972	0.974	0.382	-0.123
Mof_C 	C 	0.8108	0.8195	0.0284	0.364
Mof_C 	C 	0.8169	0.819	0.1152	-0.062
Mof_C 	C 	0.7606	0.8578	0.1591	-0.084
Mof_C 	C 	0.7654	0.8595	0.2399	0.128
Mof_C 	C 	0.8274	0.8218	0.2765	-0.017
Mof_C 	C 	0.8824	0.7799	0.2328	-0.049
Mof_C 	C 	0.8778	0.7784	0.1525	-0.011
Mof_C 	C 	0.6425	0.9352	0.2433	-0.171
Mof_C 	C 	0.6124	0.8429	0.8205	0.433
Mof_C 	C 	0.5249	0.8392	0.8214	-0.106
Mof_C 	C 	0.4792	0.8789	0.8766	-0.058
Mof_C 	C 	0.3988	0.8756	0.8772	0.103
Mof_C 	C 	0.3637	0.8322	0.8222	0.008
Mof_C 	C 	0.4099	0.7928	0.7686	-0.078
Mof_C 	C 	0.4903	0.7969	0.7675	0.021
Mof_C 	C 	0.382	0.972	0.974	-0.123
Mof_C 	C 	0.0284	0.8108	0.8195	0.364
Mof_C 	C 	0.1152	0.8169	0.819	-0.062
Mof_C 	C 	0.1591	0.7606	0.8578	-0.084
Mof_C 	C 	0.2399	0.7654	0.8595	0.128
Mof_C 	C 	0.2765	0.8274	0.8218	-0.017
Mof_C 	C 	0.2328	0.8824	0.7799	-0.049
Mof_C 	C 	0.1525	0.8778	0.7784	-0.011
Mof_C 	C 	0.2433	0.6425	0.9352	-0.171
Mof_C 	C 	0.8205	0.6124	0.8429	0.433
Mof_C 	C 	0.8214	0.5249	0.8392	-0.106
Mof_C 	C 	0.8766	0.4792	0.8789	-0.058
Mof_C 	C 	0.8772	0.3988	0.8756	0.103
Mof_C 	C 	0.8222	0.3637	0.8322	0.008
Mof_C 	C 	0.7686	0.4099	0.7928	-0.078
Mof_C 	C 	0.7675	0.4903	0.7969	0.021
Mof_C 	C 	0.974	0.382	0.972	-0.123
Mof_C 	C 	0.8195	0.0284	0.8108	0.364
Mof_C 	C 	0.819	0.1152	0.8169	-0.062
Mof_C 	C 	0.8578	0.1591	0.7606	-0.084
Mof_C 	C 	0.8595	0.2399	0.7654	0.128
Mof_C 	C 	0.8218	0.2765	0.8274	-0.017
Mof_C 	C 	0.7799	0.2328	0.8824	-0.049
Mof_C 	C 	0.7784	0.1525	0.8778	-0.011
Mof_C 	C 	0.9352	0.2433	0.6425	-0.171
Mof_O 	O 	0.8106	0.7693	0.6521	-0.548
Mof_O 	O 	0.881	0.8719	0.6411	-0.502
Mof_O 	O 	0.913	0.929	0.348	-0.176
Mof_O 	O 	0.7651	0.8686	0.9947	-0.503
Mof_O 	O 	0.8511	0.7668	0.9964	-0.49
Mof_O 	O 	0.7103	0.8993	0.2822	-0.175
Mof_O 	O 	0.6521	0.8106	0.7693	-0.548
Mof_O 	O 	0.6411	0.881	0.8719	-0.502
Mof_O 	O 	0.348	0.913	0.929	-0.176
Mof_O 	O 	0.9947	0.7651	0.8686	-0.503
Mof_O 	O 	0.9964	0.8511	0.7668	-0.49
Mof_O 	O 	0.2822	0.7103	0.8993	-0.175
Mof_O 	O 	0.7693	0.6521	0.8106	-0.548
Mof_O 	O 	0.8719	0.6411	0.881	-0.502
Mof_O 	O 	0.929	0.348	0.913	-0.176
Mof_O 	O 	0.8686	0.9947	0.7651	-0.503
Mof_O 	O 	0.7668	0.9964	0.8511	-0.49
Mof_O 	O 	0.8993	0.2822	0.7103	-0.175
Mof_O 	O 	0.8181	0.8181	0.8181	-0.96
Mof_Zn	Zn	0.11575	0.11572	0.24626	1.21
Mof_Zn	Zn	0.24626	0.11575	0.11572	1.21
Mof_Zn	Zn	0.11572	0.24626	0.11575	1.21
Mof_Zn	Zn	0.24653	0.24653	0.24653	1.211
Mof_H 	H 	0.0914	0.086	0.4967	0.064
Mof_H 	H 	0.2379	0.2683	0.6137	0.061
Mof_H 	H 	0.2298	0.271	0.4784	0.026
Mof_H 	H 	0.0099	0.9857	0.6572	0.071
Mof_H 	H 	0.0509	0.9993	0.5723	0.066
Mof_H 	H 	0.9839	0.0599	0.603	0.067
Mof_H 	H 	0.2822	0.1159	0.8658	0.074
Mof_H 	H 	0.0762	0.2484	0.7419	0.059
Mof_H 	H 	0.0838	0.2505	0.8774	0.053
Mof_H 	H 	0.3913	0.037	0.7186	0.089
Mof_H 	H 	0.3397	0.0278	0.7983	0.088
Mof_H 	H 	0.387	0.1057	0.7796	0.083
Mof_H 	H 	0.4967	0.0914	0.086	0.064
Mof_H 	H 	0.6137	0.2379	0.2683	0.061
Mof_H 	H 	0.4784	0.2298	0.271	0.026
Mof_H 	H 	0.6572	0.0099	0.9857	0.071
Mof_H 	H 	0.5723	0.0509	0.9993	0.066
Mof_H 	H 	0.603	0.9839	0.0599	0.067
Mof_H 	H 	0.8658	0.2822	0.1159	0.074
Mof_H 	H 	0.7419	0.0762	0.2484	0.059
Mof_H 	H 	0.8774	0.0838	0.2505	0.053
Mof_H 	H 	0.7186	0.3913	0.037	0.089
Mof_H 	H 	0.7983	0.3397	0.0278	0.088
Mof_H 	H 	0.7796	0.387	0.1057	0.083
Mof_H 	H 	0.086	0.4967	0.0914	0.064
Mof_H 	H 	0.2683	0.6137	0.2379	0.061
Mof_H 	H 	0.271	0.4784	0.2298	0.026
Mof_H 	H 	0.9857	0.6572	0.0099	0.071
Mof_H 	H 	0.9993	0.5723	0.0509	0.066
Mof_H 	H 	0.0599	0.603	0.9839	0.067
Mof_H 	H 	0.1159	0.8658	0.2822	0.074
Mof_H 	H 	0.2484	0.7419	0.0762	0.059
Mof_H 	H 	0.2505	0.8774	0.0838	0.053
Mof_H 	H 	0.037	0.7186	0.3913	0.089
Mof_H 	H 	0.0278	0.7983	0.3397	0.088
Mof_H 	H 	0.1057	0.7796	0.387	0.083
Mof_C 	C 	0.1571	0.1795	0.3876	0.433
Mof_C 	C 	0.1608	0.1786	0.4751	-0.106
Mof_C 	C 	0.1211	0.1234	0.5208	-0.058
Mof_C 	C 	0.1244	0.1228	0.6012	0.103
Mof_C 	C 	0.1678	0.1778	0.6363	0.008
Mof_C 	C 	0.2072	0.2314	0.5901	-0.078
Mof_C 	C 	0.2031	0.2325	0.5097	0.021
Mof_C 	C 	0.028	0.026	0.618	-0.123
Mof_C 	C 	0.1892	0.1805	0.9716	0.364
Mof_C 	C 	0.1831	0.181	0.8848	-0.062
Mof_C 	C 	0.2394	0.1422	0.8409	-0.084
Mof_C 	C 	0.2346	0.1405	0.7601	0.128
Mof_C 	C 	0.1726	0.1782	0.7235	-0.017
Mof_C 	C 	0.1176	0.2201	0.7672	-0.049
Mof_C 	C 	0.1222	0.2216	0.8475	-0.011
Mof_C 	C 	0.3575	0.0648	0.7567	-0.171
Mof_C 	C 	0.3876	0.1571	0.1795	0.433
Mof_C 	C 	0.4751	0.1608	0.1786	-0.106
Mof_C 	C 	0.5208	0.1211	0.1234	-0.058
Mof_C 	C 	0.6012	0.1244	0.1228	0.103
Mof_C 	C 	0.6363	0.1678	0.1778	0.008
Mof_C 	C 	0.5901	0.2072	0.2314	-0.078
Mof_C 	C 	0.5097	0.2031	0.2325	0.021
Mof_C 	C 	0.618	0.028	0.026	-0.123
Mof_C 	C 	0.9716	0.1892	0.1805	0.364
Mof_C 	C 	0.8848	0.1831	0.181	-0.062
Mof_C 	C 	0.8409	0.2394	0.1422	-0.084
Mof_C 	C 	0.7601	0.2346	0.1405	0.128
Mof_C 	C 	0.7235	0.1726	0.1782	-0.017
Mof_C 	C 	0.7672	0.1176	0.2201	-0.049
Mof_C 	C 	0.8475	0.1222	0.2216	-0.011
Mof_C 	C 	0.7567	0.3575	0.0648	-0.171
Mof_C 	C 	0.1795	0.3876	0.1571	0.433
Mof_C 	C 	0.1786	0.4751	0.1608	-0.106
Mof_C 	C 	0.1234	0.5208	0.1211	-0.058
Mof_C 	C 	0.1228	0.6012	0.1244	0.103
Mof_C 	C 	0.1778	0.6363	0.1678	0.008
Mof_C 	C 	0.2314	0.5901	0.2072	-0.078
Mof_C 	C 	0.2325	0.5097	0.2031	0.021
Mof_C 	C 	0.026	0.618	0.028	-0.123
Mof_C 	C 	0.1805	0.9716	0.1892	0.364
Mof_C 	C 	0.181	0.8848	0.1831	-0.062
Mof_C 	C 	0.1422	0.8409	0.2394	-0.084
Mof_C 	C 	0.1405	0.7601	0.2346	0.128
Mof_C 	C 	0.1782	0.7235	0.1726	-0.017
Mof_C 	C 	0.2201	0.7672	0.1176	-0.049
Mof_C 	C 	0.2216	0.8475	0.1222	-0.011
Mof_C 	C 	0.0648	0.7567	0.3575	-0.171
Mof_O 	O 	0.1894	0.2307	0.3479	-0.548
Mof_O 	O 	0.119	0.1281	0.3589	-0.502
Mof_O 	O 	0.087	0.071	0.652	-0.176
Mof_O 	O 	0.2349	0.1314	0.0053	-0.503
Mof_O 	O 	0.1489	0.2332	0.0036	-0.49
Mof_O 	O 	0.2897	0.1007	0.7178	-0.175
Mof_O 	O 	0.3479	0.1894	0.2307	-0.548
Mof_O 	O 	0.3589	0.119	0.1281	-0.502
Mof_O 	O 	0.652	0.087	0.071	-0.176
Mof_O 	O 	0.0053	0.2349	0.1314	-0.503
Mof_O 	O 	0.0036	0.1489	0.2332	-0.49
Mof_O 	O 	0.7178	0.2897	0.1007	-0.175
Mof_O 	O 	0.2307	0.3479	0.1894	-0.548
Mof_O 	O 	0.1281	0.3589	0.119	-0.502
Mof_O 	O 	0.071	0.652	0.087	-0.176
Mof_O 	O 	0.1314	0.0053	0.2349	-0.503
Mof_O 	O 	0.2332	0.0036	0.1489	-0.49
Mof_O 	O 	0.1007	0.7178	0.2897	-0.175
Mof_O 	O 	0.1819	0.1819	0.1819	-0.96
_end
