# CIF file generated by openbabel 3.1.0, see https://openbabel.org
data_I
_chemical_name_common 'image0'
_cell_length_a 16.6995
_cell_length_b 16.7106
_cell_length_c 9.7907
_cell_angle_alpha 90
_cell_angle_beta 90
_cell_angle_gamma 90
_space_group_name_H-M_alt 'P 1'
_space_group_name_Hall 'P 1'
loop_
    _symmetry_equiv_pos_as_xyz
    x,y,z
loop_
    _atom_site_label
    _atom_site_type_symbol
    _atom_site_fract_x
    _atom_site_fract_y
    _atom_site_fract_z
    _atom_site_occupancy
    Na1      Na       0.86190    0.68650    0.82830    1.000
    O1       O        0.92580    0.79600    0.70160    1.000
    Na2      Na       0.36190    0.18650    0.32830    1.000
    O2       O        0.42580    0.29600    0.20160    1.000
    Na3      Na       0.13810    0.81350    0.82830    1.000
    O3       O        0.07420    0.70400    0.70160    1.000
    Na4      Na       0.63810    0.31350    0.32830    1.000
    O4       O        0.57420    0.20400    0.20160    1.000
    Na5      Na       0.13810    0.18650    0.17170    1.000
    O5       O        0.07420    0.29600    0.29840    1.000
    Na6      Na       0.63810    0.68650    0.67170    1.000
    O6       O        0.57420    0.79600    0.79840    1.000
    Na7      Na       0.86190    0.31350    0.17170    1.000
    O7       O        0.92580    0.20400    0.29840    1.000
    Na8      Na       0.36190    0.81350    0.67170    1.000
    O8       O        0.42580    0.70400    0.79840    1.000
    Na9      Na       0.13810    0.31350    0.17170    1.000
    O9       O        0.07420    0.20400    0.29840    1.000
    Na10     Na       0.63810    0.81350    0.67170    1.000
    O10      O        0.57420    0.70400    0.79840    1.000
    Na11     Na       0.86190    0.18650    0.17170    1.000
    O11      O        0.92580    0.29600    0.29840    1.000
    Na12     Na       0.36190    0.68650    0.67170    1.000
    O12      O        0.42580    0.79600    0.79840    1.000
    Na13     Na       0.86190    0.81350    0.82830    1.000
    O13      O        0.92580    0.70400    0.70160    1.000
    Na14     Na       0.36190    0.31350    0.32830    1.000
    O14      O        0.42580    0.20400    0.20160    1.000
    Na15     Na       0.13810    0.68650    0.82830    1.000
    O15      O        0.07420    0.79600    0.70160    1.000
    Na16     Na       0.63810    0.18650    0.32830    1.000
    O16      O        0.57420    0.29600    0.20160    1.000
    Ho1      Ho       0.00000    0.75000    0.11987    1.000
    Na17     Na       0.00000    0.75000    0.50710    1.000
    Ho2      Ho       0.50000    0.25000    0.61987    1.000
    Na18     Na       0.50000    0.25000    0.00710    1.000
    Ho3      Ho       0.00000    0.25000    0.88013    1.000
    Na19     Na       0.00000    0.25000    0.49290    1.000
    Ho4      Ho       0.50000    0.75000    0.38013    1.000
    Na20     Na       0.50000    0.75000    0.99290    1.000
    O17      O        0.09020    0.75000    0.31000    1.000
    O18      O        0.13600    0.75000    0.05130    1.000
    C1       C        0.16760    0.75000    0.28780    1.000
    C2       C        0.19280    0.75000    0.14220    1.000
    C3       C        0.22530    0.75000    0.39000    1.000
    H1       H        0.20910    0.75000    0.48300    1.000
    O19      O        0.59020    0.25000    0.81000    1.000
    O20      O        0.63600    0.25000    0.55130    1.000
    C4       C        0.66760    0.25000    0.78780    1.000
    C5       C        0.69280    0.25000    0.64220    1.000
    C6       C        0.72530    0.25000    0.89000    1.000
    H2       H        0.70910    0.25000    0.98300    1.000
    O21      O        0.90980    0.75000    0.31000    1.000
    O22      O        0.86400    0.75000    0.05130    1.000
    C7       C        0.83240    0.75000    0.28780    1.000
    C8       C        0.80720    0.75000    0.14220    1.000
    C9       C        0.77470    0.75000    0.39000    1.000
    H3       H        0.79090    0.75000    0.48300    1.000
    O23      O        0.40980    0.25000    0.81000    1.000
    O24      O        0.36400    0.25000    0.55130    1.000
    C10      C        0.33240    0.25000    0.78780    1.000
    C11      C        0.30720    0.25000    0.64220    1.000
    C12      C        0.27470    0.25000    0.89000    1.000
    H4       H        0.29090    0.25000    0.98300    1.000
    O25      O        0.90980    0.25000    0.69000    1.000
    O26      O        0.86400    0.25000    0.94870    1.000
    C13      C        0.83240    0.25000    0.71220    1.000
    C14      C        0.80720    0.25000    0.85780    1.000
    C15      C        0.77470    0.25000    0.61000    1.000
    H5       H        0.79090    0.25000    0.51700    1.000
    O27      O        0.40980    0.75000    0.19000    1.000
    O28      O        0.36400    0.75000    0.44870    1.000
    C16      C        0.33240    0.75000    0.21220    1.000
    C17      C        0.30720    0.75000    0.35780    1.000
    C18      C        0.27470    0.75000    0.11000    1.000
    H6       H        0.29090    0.75000    0.01700    1.000
    O29      O        0.09020    0.25000    0.69000    1.000
    O30      O        0.13600    0.25000    0.94870    1.000
    C19      C        0.16760    0.25000    0.71220    1.000
    C20      C        0.19280    0.25000    0.85780    1.000
    C21      C        0.22530    0.25000    0.61000    1.000
    H7       H        0.20910    0.25000    0.51700    1.000
    O31      O        0.59020    0.75000    0.19000    1.000
    O32      O        0.63600    0.75000    0.44870    1.000
    C22      C        0.66760    0.75000    0.21220    1.000
    C23      C        0.69280    0.75000    0.35780    1.000
    C24      C        0.72530    0.75000    0.11000    1.000
    H8       H        0.70910    0.75000    0.01700    1.000
    O33      O        0.00000    0.61700    0.19560    1.000
    O34      O        0.00000    0.66030    0.93360    1.000
    C25      C        0.00000    0.47800    0.13840    1.000
    C26      C        0.00000    0.58310    0.96110    1.000
    C27      C        0.00000    0.55850    0.10460    1.000
    H9       H        0.00000    0.46340    0.23220    1.000
    O35      O        0.50000    0.11700    0.69560    1.000
    O36      O        0.50000    0.16030    0.43360    1.000
    C28      C        0.50000    0.97800    0.63840    1.000
    C29      C        0.50000    0.08310    0.46110    1.000
    C30      C        0.50000    0.05850    0.60460    1.000
    H10      H        0.50000    0.96340    0.73220    1.000
    O37      O        0.00000    0.88300    0.19560    1.000
    O38      O        0.00000    0.83970    0.93360    1.000
    C31      C        0.00000    0.02200    0.13840    1.000
    C32      C        0.00000    0.91690    0.96110    1.000
    C33      C        0.00000    0.94150    0.10460    1.000
    H11      H        0.00000    0.03660    0.23220    1.000
    O39      O        0.50000    0.38300    0.69560    1.000
    O40      O        0.50000    0.33970    0.43360    1.000
    C34      C        0.50000    0.52200    0.63840    1.000
    C35      C        0.50000    0.41690    0.46110    1.000
    C36      C        0.50000    0.44150    0.60460    1.000
    H12      H        0.50000    0.53660    0.73220    1.000
    O41      O        0.00000    0.11700    0.80440    1.000
    O42      O        0.00000    0.16030    0.06640    1.000
    C37      C        0.00000    0.97800    0.86160    1.000
    C38      C        0.00000    0.08310    0.03890    1.000
    C39      C        0.00000    0.05850    0.89540    1.000
    H13      H        0.00000    0.96340    0.76780    1.000
    O43      O        0.50000    0.61700    0.30440    1.000
    O44      O        0.50000    0.66030    0.56640    1.000
    C40      C        0.50000    0.47800    0.36160    1.000
    C41      C        0.50000    0.58310    0.53890    1.000
    C42      C        0.50000    0.55850    0.39540    1.000
    H14      H        0.50000    0.46340    0.26780    1.000
    O45      O        0.00000    0.38300    0.80440    1.000
    O46      O        0.00000    0.33970    0.06640    1.000
    C43      C        0.00000    0.52200    0.86160    1.000
    C44      C        0.00000    0.41690    0.03890    1.000
    C45      C        0.00000    0.44150    0.89540    1.000
    H15      H        0.00000    0.53660    0.76780    1.000
    O47      O        0.50000    0.88300    0.30440    1.000
    O48      O        0.50000    0.83970    0.56640    1.000
    C46      C        0.50000    0.02200    0.36160    1.000
    C47      C        0.50000    0.91690    0.53890    1.000
    C48      C        0.50000    0.94150    0.39540    1.000
    H16      H        0.50000    0.03660    0.26780    1.000
    O49      O        0.75000    0.75000    0.75000    1.000
    O50      O        0.25000    0.25000    0.25000    1.000
    O51      O        0.25000    0.75000    0.75000    1.000
    O52      O        0.75000    0.25000    0.25000    1.000
