data_functionalizedCrystal
_audit_creation_method	'EQeq! by Chris Wilmer'
_symmetry_space_group_name_H-M	'P1'
_symmetry_Int_Tables_number	1
_symmetry_cell_setting	triclinic
loop_
_symmetry_equiv_pos_as_xyz
  x,y,z
_cell_length_a	20.9098
_cell_length_b	17.8855
_cell_length_c	14.7913
_cell_angle_alpha	90
_cell_angle_beta	134.842
_cell_angle_gamma	90
loop_
_atom_site_label
_atom_site_type_symbol
_atom_site_fract_x
_atom_site_fract_y
_atom_site_fract_z
_atom_site_charge
Mof_Mg	Mg	0.6337	0.5791	0.8697	1.473
Mof_Mg	Mg	0.8661	0.4172	0.1202	1.472
Mof_Mg	Mg	0.4866	0.6686	0.1062	1.473
Mof_Mg	Mg	0.5011	0.8299	0.8846	1.474
Mof_P 	P 	0.512	0.645	0.9141	0.611
Mof_P 	P 	0.8503	0.6002	0.1141	0.597
Mof_P 	P 	0.6496	0.3955	0.8964	0.586
Mof_P 	P 	0.0044	0.3496	0.4039	0.593
Mof_O 	O 	0.5787	0.5965	0.9299	-0.538
Mof_O 	O 	0.5369	0.7265	0.9253	-0.553
Mof_O 	O 	0.4149	0.6279	0.7857	-0.523
Mof_O 	O 	0.5197	0.6232	0.0229	-0.472
Mof_O 	O 	0.9112	0.6126	0.0934	-0.549
Mof_O 	O 	0.8792	0.651	0.2222	-0.506
Mof_O 	O 	0.8516	0.5192	0.1478	-0.535
Mof_O 	O 	0.7528	0.6233	0.9898	-0.482
Mof_O 	O 	0.6387	0.4745	0.8498	-0.552
Mof_O 	O 	0.5918	0.3403	0.785	-0.551
Mof_O 	O 	0.7491	0.3707	0.9848	-0.473
Mof_O 	O 	0.6227	0.3894	0.9709	-0.496
Mof_O 	O 	0.9148	0.3526	0.2629	-0.518
Mof_O 	O 	0.0463	0.2717	0.4446	-0.539
Mof_O 	O 	0.0703	0.4079	0.429	-0.522
Mof_O 	O 	0.986	0.3746	0.4839	-0.474
Mof_Mg	Mg	0.1337	0.0791	0.8697	1.474
Mof_Mg	Mg	0.3661	0.9172	0.1202	1.473
Mof_Mg	Mg	0.9866	0.1686	0.1062	1.473
Mof_Mg	Mg	0.0011	0.3299	0.8846	1.473
Mof_P 	P 	0.012	0.145	0.9141	0.603
Mof_P 	P 	0.3503	0.1002	0.1141	0.603
Mof_P 	P 	0.1496	0.8955	0.8964	0.586
Mof_P 	P 	0.5044	0.8496	0.4039	0.588
Mof_O 	O 	0.0787	0.0965	0.9299	-0.541
Mof_O 	O 	0.0369	0.2265	0.9253	-0.555
Mof_O 	O 	0.9149	0.1279	0.7857	-0.518
Mof_O 	O 	0.0197	0.1232	0.0229	-0.461
Mof_O 	O 	0.4112	0.1126	0.0934	-0.546
Mof_O 	O 	0.3792	0.151	0.2222	-0.506
Mof_O 	O 	0.3516	0.0192	0.1478	-0.534
Mof_O 	O 	0.2528	0.1233	0.9898	-0.491
Mof_O 	O 	0.1387	0.9745	0.8498	-0.551
Mof_O 	O 	0.0918	0.8403	0.785	-0.55
Mof_O 	O 	0.2491	0.8707	0.9848	-0.473
Mof_O 	O 	0.1227	0.8894	0.9709	-0.496
Mof_O 	O 	0.4148	0.8526	0.2629	-0.518
Mof_O 	O 	0.5463	0.7717	0.4446	-0.54
Mof_O 	O 	0.5703	0.9079	0.429	-0.524
Mof_O 	O 	0.486	0.8746	0.4839	-0.476
Mof_Mg	Mg	0.3663	0.5791	0.6303	1.474
Mof_Mg	Mg	0.1339	0.4172	0.3798	1.473
Mof_Mg	Mg	0.5134	0.6686	0.3938	1.473
Mof_Mg	Mg	0.4989	0.8299	0.6154	1.474
Mof_P 	P 	0.488	0.645	0.5859	0.61
Mof_P 	P 	0.1497	0.6002	0.3859	0.599
Mof_P 	P 	0.3504	0.3955	0.6036	0.586
Mof_P 	P 	0.9956	0.3496	0.0961	0.585
Mof_O 	O 	0.4213	0.5965	0.5701	-0.537
Mof_O 	O 	0.4631	0.7265	0.5747	-0.553
Mof_O 	O 	0.5851	0.6279	0.7143	-0.523
Mof_O 	O 	0.4803	0.6232	0.4771	-0.469
Mof_O 	O 	0.0888	0.6126	0.4066	-0.544
Mof_O 	O 	0.1208	0.651	0.2778	-0.504
Mof_O 	O 	0.1484	0.5192	0.3522	-0.533
Mof_O 	O 	0.2472	0.6233	0.5102	-0.484
Mof_O 	O 	0.3613	0.4745	0.6502	-0.552
Mof_O 	O 	0.4082	0.3403	0.715	-0.551
Mof_O 	O 	0.2509	0.3707	0.5152	-0.472
Mof_O 	O 	0.3773	0.3894	0.5291	-0.495
Mof_O 	O 	0.0852	0.3526	0.2371	-0.513
Mof_O 	O 	0.9537	0.2717	0.0554	-0.541
Mof_O 	O 	0.9297	0.4079	0.071	-0.525
Mof_O 	O 	0.014	0.3746	0.0161	-0.47
Mof_Mg	Mg	0.8663	0.0791	0.6303	1.474
Mof_Mg	Mg	0.6339	0.9172	0.3798	1.473
Mof_Mg	Mg	0.0134	0.1686	0.3938	1.474
Mof_Mg	Mg	0.9989	0.3299	0.6154	1.474
Mof_P 	P 	0.988	0.145	0.5859	0.616
Mof_P 	P 	0.6497	0.1002	0.3859	0.599
Mof_P 	P 	0.8504	0.8955	0.6036	0.586
Mof_P 	P 	0.4956	0.8496	0.0961	0.588
Mof_O 	O 	0.9213	0.0965	0.5701	-0.536
Mof_O 	O 	0.9631	0.2265	0.5747	-0.551
Mof_O 	O 	0.0851	0.1279	0.7143	-0.526
Mof_O 	O 	0.9803	0.1232	0.4771	-0.467
Mof_O 	O 	0.5888	0.1126	0.4066	-0.547
Mof_O 	O 	0.6208	0.151	0.2778	-0.506
Mof_O 	O 	0.6484	0.0192	0.3522	-0.534
Mof_O 	O 	0.7472	0.1233	0.5102	-0.483
Mof_O 	O 	0.8613	0.9745	0.6502	-0.551
Mof_O 	O 	0.9082	0.8403	0.715	-0.548
Mof_O 	O 	0.7509	0.8707	0.5152	-0.472
Mof_O 	O 	0.8773	0.8894	0.5291	-0.495
Mof_O 	O 	0.5852	0.8526	0.2371	-0.518
Mof_O 	O 	0.4537	0.7717	0.0554	-0.542
Mof_O 	O 	0.4297	0.9079	0.071	-0.526
Mof_O 	O 	0.514	0.8746	0.0161	-0.48
Mof_Mg	Mg	0.3663	0.4209	0.1303	1.474
Mof_Mg	Mg	0.1339	0.5828	0.8798	1.473
Mof_Mg	Mg	0.5134	0.3314	0.8938	1.473
Mof_Mg	Mg	0.4989	0.1701	0.1154	1.474
Mof_P 	P 	0.488	0.355	0.0859	0.611
Mof_P 	P 	0.1497	0.3998	0.8859	0.597
Mof_P 	P 	0.3504	0.6045	0.1036	0.586
Mof_P 	P 	0.9956	0.6504	0.5961	0.593
Mof_O 	O 	0.4213	0.4035	0.0701	-0.538
Mof_O 	O 	0.4631	0.2735	0.0747	-0.553
Mof_O 	O 	0.5851	0.3721	0.2143	-0.523
Mof_O 	O 	0.4803	0.3768	0.9771	-0.472
Mof_O 	O 	0.0888	0.3874	0.9066	-0.549
Mof_O 	O 	0.1208	0.349	0.7778	-0.506
Mof_O 	O 	0.1484	0.4808	0.8522	-0.535
Mof_O 	O 	0.2472	0.3767	0.0102	-0.482
Mof_O 	O 	0.3613	0.5255	0.1502	-0.552
Mof_O 	O 	0.4082	0.6597	0.215	-0.551
Mof_O 	O 	0.2509	0.6293	0.0152	-0.473
Mof_O 	O 	0.3773	0.6106	0.0291	-0.496
Mof_O 	O 	0.0852	0.6474	0.7371	-0.518
Mof_O 	O 	0.9537	0.7283	0.5554	-0.539
Mof_O 	O 	0.9297	0.5921	0.571	-0.522
Mof_O 	O 	0.014	0.6254	0.5161	-0.474
Mof_Mg	Mg	0.8663	0.9209	0.1303	1.474
Mof_Mg	Mg	0.6339	0.0828	0.8798	1.473
Mof_Mg	Mg	0.0134	0.8314	0.8938	1.473
Mof_Mg	Mg	0.9989	0.6701	0.1154	1.473
Mof_P 	P 	0.988	0.855	0.0859	0.603
Mof_P 	P 	0.6497	0.8998	0.8859	0.603
Mof_P 	P 	0.8504	0.1045	0.1036	0.586
Mof_P 	P 	0.4956	0.1504	0.5961	0.588
Mof_O 	O 	0.9213	0.9035	0.0701	-0.541
Mof_O 	O 	0.9631	0.7735	0.0747	-0.555
Mof_O 	O 	0.0851	0.8721	0.2143	-0.518
Mof_O 	O 	0.9803	0.8768	0.9771	-0.461
Mof_O 	O 	0.5888	0.8874	0.9066	-0.546
Mof_O 	O 	0.6208	0.849	0.7778	-0.506
Mof_O 	O 	0.6484	0.9808	0.8522	-0.534
Mof_O 	O 	0.7472	0.8767	0.0102	-0.491
Mof_O 	O 	0.8613	0.0255	0.1502	-0.551
Mof_O 	O 	0.9082	0.1597	0.215	-0.55
Mof_O 	O 	0.7509	0.1293	0.0152	-0.473
Mof_O 	O 	0.8773	0.1106	0.0291	-0.496
Mof_O 	O 	0.5852	0.1474	0.7371	-0.518
Mof_O 	O 	0.4537	0.2283	0.5554	-0.54
Mof_O 	O 	0.4297	0.0921	0.571	-0.524
Mof_O 	O 	0.514	0.1254	0.5161	-0.476
Mof_Mg	Mg	0.6337	0.4209	0.3697	1.474
Mof_Mg	Mg	0.8661	0.5828	0.6202	1.473
Mof_Mg	Mg	0.4866	0.3314	0.6062	1.473
Mof_Mg	Mg	0.5011	0.1701	0.3846	1.474
Mof_P 	P 	0.512	0.355	0.4141	0.61
Mof_P 	P 	0.8503	0.3998	0.6141	0.599
Mof_P 	P 	0.6496	0.6045	0.3964	0.586
Mof_P 	P 	0.0044	0.6504	0.9039	0.585
Mof_O 	O 	0.5787	0.4035	0.4299	-0.537
Mof_O 	O 	0.5369	0.2735	0.4253	-0.553
Mof_O 	O 	0.4149	0.3721	0.2857	-0.523
Mof_O 	O 	0.5197	0.3768	0.5229	-0.469
Mof_O 	O 	0.9112	0.3874	0.5934	-0.544
Mof_O 	O 	0.8792	0.349	0.7222	-0.504
Mof_O 	O 	0.8516	0.4808	0.6478	-0.533
Mof_O 	O 	0.7528	0.3767	0.4898	-0.484
Mof_O 	O 	0.6387	0.5255	0.3498	-0.552
Mof_O 	O 	0.5918	0.6597	0.285	-0.551
Mof_O 	O 	0.7491	0.6293	0.4848	-0.472
Mof_O 	O 	0.6227	0.6106	0.4709	-0.495
Mof_O 	O 	0.9148	0.6474	0.7629	-0.513
Mof_O 	O 	0.0463	0.7283	0.9446	-0.541
Mof_O 	O 	0.0703	0.5921	0.929	-0.525
Mof_O 	O 	0.986	0.6254	0.9839	-0.47
Mof_Mg	Mg	0.1337	0.9209	0.3697	1.474
Mof_Mg	Mg	0.3661	0.0828	0.6202	1.473
Mof_Mg	Mg	0.9866	0.8314	0.6062	1.474
Mof_Mg	Mg	0.0011	0.6701	0.3846	1.474
Mof_P 	P 	0.012	0.855	0.4141	0.616
Mof_P 	P 	0.3503	0.8998	0.6141	0.599
Mof_P 	P 	0.1496	0.1045	0.3964	0.586
Mof_P 	P 	0.5044	0.1504	0.9039	0.588
Mof_O 	O 	0.0787	0.9035	0.4299	-0.536
Mof_O 	O 	0.0369	0.7735	0.4253	-0.551
Mof_O 	O 	0.9149	0.8721	0.2857	-0.526
Mof_O 	O 	0.0197	0.8768	0.5229	-0.467
Mof_O 	O 	0.4112	0.8874	0.5934	-0.547
Mof_O 	O 	0.3792	0.849	0.7222	-0.506
Mof_O 	O 	0.3516	0.9808	0.6478	-0.534
Mof_O 	O 	0.2528	0.8767	0.4898	-0.483
Mof_O 	O 	0.1387	0.0255	0.3498	-0.551
Mof_O 	O 	0.0918	0.1597	0.285	-0.548
Mof_O 	O 	0.2491	0.1293	0.4848	-0.472
Mof_O 	O 	0.1227	0.1106	0.4709	-0.495
Mof_O 	O 	0.4148	0.1474	0.7629	-0.518
Mof_O 	O 	0.5463	0.2283	0.9446	-0.542
Mof_O 	O 	0.5703	0.0921	0.929	-0.526
Mof_O 	O 	0.486	0.1254	0.9839	-0.48
_end
