data_functionalizedCrystal
_audit_creation_method	'EQeq! by Chris Wilmer'
_symmetry_space_group_name_H-M	'P1'
_symmetry_Int_Tables_number	1
_symmetry_cell_setting	triclinic
loop_
_symmetry_equiv_pos_as_xyz
  x,y,z
_cell_length_a	19.889
_cell_length_b	19.889
_cell_length_c	19.788
_cell_angle_alpha	90
_cell_angle_beta	90
_cell_angle_gamma	120
loop_
_atom_site_label
_atom_site_type_symbol
_atom_site_fract_x
_atom_site_fract_y
_atom_site_fract_z
_atom_site_charge
Mof_C 	C 	0.167	0.3009	0.1084	0.066
Mof_H 	H 	0.1451	0.323	0.0128	0.048
Mof_C 	C 	0.2264	0.4246	0.0564	0.071
Mof_C 	C 	0.2624	0.4594	0.1136	-0.078
Mof_H 	H 	0.297	0.5146	0.1137	0.046
Mof_C 	C 	0.2521	0.4173	0.1719	0.003
Mof_H 	H 	0.276	0.4417	0.2139	0.026
Mof_C 	C 	0.2065	0.3329	0.1652	-0.083
Mof_H 	H 	0.2065	0.2998	0.2005	0.058
Mof_C 	C 	0.83367	0.63423	0.44173	0.083
Mof_H 	H 	0.81177	0.65633	0.34613	0.06
Mof_C 	C 	0.89307	0.75793	0.38973	0.084
Mof_C 	C 	0.92907	0.79273	0.44693	-0.075
Mof_H 	H 	0.96367	0.84793	0.44703	0.066
Mof_C 	C 	0.91877	0.75063	0.50523	0.014
Mof_H 	H 	0.94267	0.77503	0.54723	0.039
Mof_C 	C 	0.87317	0.66623	0.49853	-0.088
Mof_H 	H 	0.87317	0.63313	0.53383	0.068
Mof_C 	C 	0.50033	0.96757	0.77507	0.128
Mof_H 	H 	0.47843	0.98967	0.67947	0.124
Mof_C 	C 	0.55973	0.09127	0.72307	0.112
Mof_C 	C 	0.59573	0.12607	0.78027	-0.097
Mof_H 	H 	0.63033	0.18127	0.78037	0.054
Mof_C 	C 	0.58543	0.08397	0.83857	-0.019
Mof_H 	H 	0.60933	0.10837	0.88057	0.028
Mof_C 	C 	0.53983	0.99957	0.83187	-0.067
Mof_H 	H 	0.53983	0.96647	0.86717	0.068
Mof_C 	C 	0.6991	0.8661	0.1084	0.073
Mof_H 	H 	0.677	0.8221	0.0128	0.055
Mof_C 	C 	0.5754	0.8018	0.0564	0.077
Mof_C 	C 	0.5406	0.803	0.1136	-0.078
Mof_H 	H 	0.4854	0.7824	0.1137	0.047
Mof_C 	C 	0.5827	0.8348	0.1719	0.008
Mof_H 	H 	0.5583	0.8343	0.2139	0.028
Mof_C 	C 	0.6671	0.8736	0.1652	-0.084
Mof_H 	H 	0.7002	0.9067	0.2005	0.07
Mof_C 	C 	0.36577	0.19943	0.44173	0.08
Mof_H 	H 	0.34367	0.15543	0.34613	0.056
Mof_C 	C 	0.24207	0.13513	0.38973	0.076
Mof_C 	C 	0.20727	0.13633	0.44693	-0.071
Mof_H 	H 	0.15207	0.11573	0.44703	0.038
Mof_C 	C 	0.24937	0.16813	0.50523	0.003
Mof_H 	H 	0.22497	0.16763	0.54723	0.023
Mof_C 	C 	0.33377	0.20693	0.49853	-0.088
Mof_H 	H 	0.36687	0.24003	0.53383	0.061
Mof_C 	C 	0.03243	0.53277	0.77507	0.039
Mof_H 	H 	0.01033	0.48877	0.67947	0.002
Mof_C 	C 	0.90873	0.46847	0.72307	0.054
Mof_C 	C 	0.87393	0.46967	0.78027	-0.081
Mof_H 	H 	0.81873	0.44907	0.78037	0.049
Mof_C 	C 	0.91603	0.50147	0.83857	0.048
Mof_H 	H 	0.89163	0.50097	0.88057	0.021
Mof_C 	C 	0.00043	0.54027	0.83187	-0.126
Mof_H 	H 	0.03353	0.57337	0.86717	0.065
Mof_C 	C 	0.1339	0.833	0.1084	0.103
Mof_H 	H 	0.1779	0.8549	0.0128	0.069
Mof_C 	C 	0.1982	0.7736	0.0564	0.075
Mof_C 	C 	0.197	0.7376	0.1136	-0.105
Mof_H 	H 	0.2176	0.703	0.1137	0.054
Mof_C 	C 	0.1652	0.7479	0.1719	0.026
Mof_H 	H 	0.1657	0.724	0.2139	0.016
Mof_C 	C 	0.1264	0.7935	0.1652	-0.119
Mof_H 	H 	0.0933	0.7935	0.2005	0.063
Mof_C 	C 	0.80057	0.16633	0.44173	0.087
Mof_H 	H 	0.84457	0.18823	0.34613	0.071
Mof_C 	C 	0.86487	0.10693	0.38973	0.088
Mof_C 	C 	0.86367	0.07093	0.44693	-0.123
Mof_H 	H 	0.88427	0.03633	0.44703	0.05
Mof_C 	C 	0.83187	0.08123	0.50523	0.027
Mof_H 	H 	0.83237	0.05733	0.54723	0.004
Mof_C 	C 	0.79307	0.12683	0.49853	-0.115
Mof_H 	H 	0.75997	0.12683	0.53383	0.064
Mof_C 	C 	0.46723	0.49967	0.77507	0.084
Mof_H 	H 	0.51123	0.52157	0.67947	0.063
Mof_C 	C 	0.53153	0.44027	0.72307	0.083
Mof_C 	C 	0.53033	0.40427	0.78027	-0.091
Mof_H 	H 	0.55093	0.36967	0.78037	0.052
Mof_C 	C 	0.49853	0.41457	0.83857	0.016
Mof_H 	H 	0.49903	0.39067	0.88057	0.024
Mof_C 	C 	0.45973	0.46017	0.83187	-0.097
Mof_H 	H 	0.42663	0.46017	0.86717	0.066
Mof_C 	C 	0.3009	0.167	0.8916	0.072
Mof_H 	H 	0.323	0.1451	0.9872	0.06
Mof_C 	C 	0.4246	0.2264	0.9436	0.09
Mof_C 	C 	0.4594	0.2624	0.8864	-0.084
Mof_H 	H 	0.5146	0.297	0.8863	0.051
Mof_C 	C 	0.4173	0.2521	0.8281	0.009
Mof_H 	H 	0.4417	0.276	0.7861	0.024
Mof_C 	C 	0.3329	0.2065	0.8348	-0.087
Mof_H 	H 	0.2998	0.2065	0.7995	0.06
Mof_C 	C 	0.96757	0.50033	0.22493	0.128
Mof_H 	H 	0.98967	0.47843	0.32053	0.124
Mof_C 	C 	0.09127	0.55973	0.27693	0.112
Mof_C 	C 	0.12607	0.59573	0.21973	-0.097
Mof_H 	H 	0.18127	0.63033	0.21963	0.054
Mof_C 	C 	0.08397	0.58543	0.16143	-0.02
Mof_H 	H 	0.10837	0.60933	0.11943	0.024
Mof_C 	C 	0.99957	0.53983	0.16813	-0.067
Mof_H 	H 	0.96647	0.53983	0.13283	0.064
Mof_C 	C 	0.63423	0.83367	0.55827	0.083
Mof_H 	H 	0.65633	0.81177	0.65387	0.06
Mof_C 	C 	0.75793	0.89307	0.61027	0.084
Mof_C 	C 	0.79273	0.92907	0.55307	-0.075
Mof_H 	H 	0.84793	0.96367	0.55297	0.067
Mof_C 	C 	0.75063	0.91877	0.49477	0.014
Mof_H 	H 	0.77503	0.94267	0.45277	0.04
Mof_C 	C 	0.66623	0.87317	0.50147	-0.087
Mof_H 	H 	0.63313	0.87317	0.46617	0.068
Mof_C 	C 	0.8661	0.6991	0.8916	0.079
Mof_H 	H 	0.8221	0.677	0.9872	0.065
Mof_C 	C 	0.8018	0.5754	0.9436	0.092
Mof_C 	C 	0.803	0.5406	0.8864	-0.085
Mof_H 	H 	0.7824	0.4854	0.8863	0.052
Mof_C 	C 	0.8348	0.5827	0.8281	0.014
Mof_H 	H 	0.8343	0.5583	0.7861	0.026
Mof_C 	C 	0.8736	0.6671	0.8348	-0.087
Mof_H 	H 	0.9067	0.7002	0.7995	0.071
Mof_C 	C 	0.53277	0.03243	0.22493	0.037
Mof_H 	H 	0.48877	0.01033	0.32053	-0
Mof_C 	C 	0.46847	0.90873	0.27693	0.053
Mof_C 	C 	0.46967	0.87393	0.21973	-0.082
Mof_H 	H 	0.44907	0.81873	0.21963	0.049
Mof_C 	C 	0.50147	0.91603	0.16143	0.05
Mof_H 	H 	0.50097	0.89163	0.11943	0.016
Mof_C 	C 	0.54027	0.00043	0.16813	-0.128
Mof_H 	H 	0.57337	0.03353	0.13283	0.061
Mof_C 	C 	0.19943	0.36577	0.55827	0.08
Mof_H 	H 	0.15543	0.34367	0.65387	0.056
Mof_C 	C 	0.13513	0.24207	0.61027	0.076
Mof_C 	C 	0.13633	0.20727	0.55307	-0.072
Mof_H 	H 	0.11573	0.15207	0.55297	0.038
Mof_C 	C 	0.16813	0.24937	0.49477	0.003
Mof_H 	H 	0.16763	0.22497	0.45277	0.023
Mof_C 	C 	0.20693	0.33377	0.50147	-0.088
Mof_H 	H 	0.24003	0.36687	0.46617	0.061
Mof_C 	C 	0.833	0.1339	0.8916	0.108
Mof_H 	H 	0.8549	0.1779	0.9872	0.079
Mof_C 	C 	0.7736	0.1982	0.9436	0.091
Mof_C 	C 	0.7376	0.197	0.8864	-0.111
Mof_H 	H 	0.703	0.2176	0.8863	0.059
Mof_C 	C 	0.7479	0.1652	0.8281	0.03
Mof_H 	H 	0.724	0.1657	0.7861	0.015
Mof_C 	C 	0.7935	0.1264	0.8348	-0.122
Mof_H 	H 	0.7935	0.0933	0.7995	0.064
Mof_C 	C 	0.49967	0.46723	0.22493	0.084
Mof_H 	H 	0.52157	0.51123	0.32053	0.063
Mof_C 	C 	0.44027	0.53153	0.27693	0.083
Mof_C 	C 	0.40427	0.53033	0.21973	-0.091
Mof_H 	H 	0.36967	0.55093	0.21963	0.052
Mof_C 	C 	0.41457	0.49853	0.16143	0.016
Mof_H 	H 	0.39067	0.49903	0.11943	0.02
Mof_C 	C 	0.46017	0.45973	0.16813	-0.098
Mof_H 	H 	0.46017	0.42663	0.13283	0.063
Mof_C 	C 	0.16633	0.80057	0.55827	0.087
Mof_H 	H 	0.18823	0.84457	0.65387	0.071
Mof_C 	C 	0.10693	0.86487	0.61027	0.088
Mof_C 	C 	0.07093	0.86367	0.55307	-0.123
Mof_H 	H 	0.03633	0.88427	0.55297	0.05
Mof_C 	C 	0.08123	0.83187	0.49477	0.027
Mof_H 	H 	0.05733	0.83237	0.45277	0.005
Mof_C 	C 	0.12683	0.79307	0.50147	-0.115
Mof_H 	H 	0.12683	0.75997	0.46617	0.064
Mof_C 	C 	0.833	0.6991	0.8916	0.099
Mof_H 	H 	0.8549	0.677	0.9872	0.075
Mof_C 	C 	0.7736	0.5754	0.9436	0.092
Mof_C 	C 	0.7376	0.5406	0.8864	-0.102
Mof_H 	H 	0.703	0.4854	0.8863	0.057
Mof_C 	C 	0.7479	0.5827	0.8281	0.026
Mof_H 	H 	0.724	0.5583	0.7861	0.019
Mof_C 	C 	0.7935	0.6671	0.8348	-0.109
Mof_H 	H 	0.7935	0.7002	0.7995	0.07
Mof_C 	C 	0.49967	0.03243	0.22493	0.037
Mof_H 	H 	0.52157	0.01033	0.32053	0
Mof_C 	C 	0.44027	0.90873	0.27693	0.051
Mof_C 	C 	0.40427	0.87393	0.21973	-0.082
Mof_H 	H 	0.36967	0.81873	0.21963	0.049
Mof_C 	C 	0.41457	0.91603	0.16143	0.052
Mof_H 	H 	0.39067	0.89163	0.11943	0.016
Mof_C 	C 	0.46017	0.00043	0.16813	-0.13
Mof_H 	H 	0.46017	0.03353	0.13283	0.061
Mof_C 	C 	0.16633	0.36577	0.55827	0.083
Mof_H 	H 	0.18823	0.34367	0.65387	0.065
Mof_C 	C 	0.10693	0.24207	0.61027	0.081
Mof_C 	C 	0.07093	0.20727	0.55307	-0.106
Mof_H 	H 	0.03633	0.15207	0.55297	0.035
Mof_C 	C 	0.08123	0.24937	0.49477	0.015
Mof_H 	H 	0.05733	0.22497	0.45277	0.004
Mof_C 	C 	0.12683	0.33377	0.50147	-0.107
Mof_H 	H 	0.12683	0.36687	0.46617	0.061
Mof_C 	C 	0.3009	0.1339	0.8916	0.094
Mof_H 	H 	0.323	0.1779	0.9872	0.071
Mof_C 	C 	0.4246	0.1982	0.9436	0.089
Mof_C 	C 	0.4594	0.197	0.8864	-0.102
Mof_H 	H 	0.5146	0.2176	0.8863	0.056
Mof_C 	C 	0.4173	0.1652	0.8281	0.022
Mof_H 	H 	0.4417	0.1657	0.7861	0.017
Mof_C 	C 	0.3329	0.1264	0.8348	-0.11
Mof_H 	H 	0.2998	0.0933	0.7995	0.059
Mof_C 	C 	0.96757	0.46723	0.22493	0.129
Mof_H 	H 	0.98967	0.51123	0.32053	0.123
Mof_C 	C 	0.09127	0.53153	0.27693	0.113
Mof_C 	C 	0.12607	0.53033	0.21973	-0.099
Mof_H 	H 	0.18127	0.55093	0.21963	0.054
Mof_C 	C 	0.08397	0.49853	0.16143	-0.02
Mof_H 	H 	0.10837	0.49903	0.11943	0.024
Mof_C 	C 	0.99957	0.45973	0.16813	-0.066
Mof_H 	H 	0.96647	0.42663	0.13283	0.064
Mof_C 	C 	0.63423	0.80057	0.55827	0.087
Mof_H 	H 	0.65633	0.84457	0.65387	0.069
Mof_C 	C 	0.75793	0.86487	0.61027	0.089
Mof_C 	C 	0.79273	0.86367	0.55307	-0.107
Mof_H 	H 	0.84793	0.88427	0.55297	0.064
Mof_C 	C 	0.75063	0.83187	0.49477	0.026
Mof_H 	H 	0.77503	0.83237	0.45277	0.022
Mof_C 	C 	0.66623	0.79307	0.50147	-0.105
Mof_H 	H 	0.63313	0.75997	0.46617	0.068
Mof_C 	C 	0.8661	0.167	0.8916	0.065
Mof_H 	H 	0.8221	0.1451	0.9872	0.058
Mof_C 	C 	0.8018	0.2264	0.9436	0.091
Mof_C 	C 	0.803	0.2624	0.8864	-0.075
Mof_H 	H 	0.7824	0.297	0.8863	0.049
Mof_C 	C 	0.8348	0.2521	0.8281	0.005
Mof_H 	H 	0.8343	0.276	0.7861	0.028
Mof_C 	C 	0.8736	0.2065	0.8348	-0.075
Mof_H 	H 	0.9067	0.2065	0.7995	0.067
Mof_C 	C 	0.53277	0.50033	0.22493	0.083
Mof_H 	H 	0.48877	0.47843	0.32053	0.062
Mof_C 	C 	0.46847	0.55973	0.27693	0.083
Mof_C 	C 	0.46967	0.59573	0.21973	-0.089
Mof_H 	H 	0.44907	0.63033	0.21963	0.051
Mof_C 	C 	0.50147	0.58543	0.16143	0.014
Mof_H 	H 	0.50097	0.60933	0.11943	0.021
Mof_C 	C 	0.54027	0.53983	0.16813	-0.096
Mof_H 	H 	0.57337	0.53983	0.13283	0.063
Mof_C 	C 	0.19943	0.83367	0.55827	0.08
Mof_H 	H 	0.15543	0.81177	0.65387	0.054
Mof_C 	C 	0.13513	0.89307	0.61027	0.078
Mof_C 	C 	0.13633	0.92907	0.55307	-0.056
Mof_H 	H 	0.11573	0.96367	0.55297	0.056
Mof_C 	C 	0.16813	0.91877	0.49477	0.003
Mof_H 	H 	0.16763	0.94267	0.45277	0.042
Mof_C 	C 	0.20693	0.87317	0.50147	-0.079
Mof_H 	H 	0.24003	0.87317	0.46617	0.065
Mof_C 	C 	0.6991	0.833	0.1084	0.094
Mof_H 	H 	0.677	0.8549	0.0128	0.065
Mof_C 	C 	0.5754	0.7736	0.0564	0.077
Mof_C 	C 	0.5406	0.7376	0.1136	-0.096
Mof_H 	H 	0.4854	0.703	0.1137	0.052
Mof_C 	C 	0.5827	0.7479	0.1719	0.021
Mof_H 	H 	0.5583	0.724	0.2139	0.021
Mof_C 	C 	0.6671	0.7935	0.1652	-0.107
Mof_H 	H 	0.7002	0.7935	0.2005	0.068
Mof_C 	C 	0.36577	0.16633	0.44173	0.083
Mof_H 	H 	0.34367	0.18823	0.34613	0.065
Mof_C 	C 	0.24207	0.10693	0.38973	0.081
Mof_C 	C 	0.20727	0.07093	0.44693	-0.106
Mof_H 	H 	0.15207	0.03633	0.44703	0.035
Mof_C 	C 	0.24937	0.08123	0.50523	0.016
Mof_H 	H 	0.22497	0.05733	0.54723	0.003
Mof_C 	C 	0.33377	0.12683	0.49853	-0.107
Mof_H 	H 	0.36687	0.12683	0.53383	0.06
Mof_C 	C 	0.03243	0.49967	0.77507	0.039
Mof_H 	H 	0.01033	0.52157	0.67947	0.003
Mof_C 	C 	0.90873	0.44027	0.72307	0.053
Mof_C 	C 	0.87393	0.40427	0.78027	-0.082
Mof_H 	H 	0.81873	0.36967	0.78037	0.049
Mof_C 	C 	0.91603	0.41457	0.83857	0.05
Mof_H 	H 	0.89163	0.39067	0.88057	0.02
Mof_C 	C 	0.00043	0.46017	0.83187	-0.127
Mof_H 	H 	0.03353	0.46017	0.86717	0.065
Mof_C 	C 	0.1339	0.3009	0.1084	0.088
Mof_H 	H 	0.1779	0.323	0.0128	0.06
Mof_C 	C 	0.1982	0.4246	0.0564	0.072
Mof_C 	C 	0.197	0.4594	0.1136	-0.095
Mof_H 	H 	0.2176	0.5146	0.1137	0.051
Mof_C 	C 	0.1652	0.4173	0.1719	0.016
Mof_H 	H 	0.1657	0.4417	0.2139	0.019
Mof_C 	C 	0.1264	0.3329	0.1652	-0.107
Mof_H 	H 	0.0933	0.2998	0.2005	0.057
Mof_C 	C 	0.80057	0.63423	0.44173	0.087
Mof_H 	H 	0.84457	0.65633	0.34613	0.068
Mof_C 	C 	0.86487	0.75793	0.38973	0.089
Mof_C 	C 	0.86367	0.79273	0.44693	-0.107
Mof_H 	H 	0.88427	0.84793	0.44703	0.064
Mof_C 	C 	0.83187	0.75063	0.50523	0.026
Mof_H 	H 	0.83237	0.77503	0.54723	0.022
Mof_C 	C 	0.79307	0.66623	0.49853	-0.105
Mof_H 	H 	0.75997	0.63313	0.53383	0.068
Mof_C 	C 	0.46723	0.96757	0.77507	0.129
Mof_H 	H 	0.51123	0.98967	0.67947	0.124
Mof_C 	C 	0.53153	0.09127	0.72307	0.113
Mof_C 	C 	0.53033	0.12607	0.78027	-0.099
Mof_H 	H 	0.55093	0.18127	0.78037	0.054
Mof_C 	C 	0.49853	0.08397	0.83857	-0.02
Mof_H 	H 	0.49903	0.10837	0.88057	0.028
Mof_C 	C 	0.45973	0.99957	0.83187	-0.066
Mof_H 	H 	0.42663	0.96647	0.86717	0.068
Mof_C 	C 	0.167	0.8661	0.1084	0.059
Mof_H 	H 	0.1451	0.8221	0.0128	0.047
Mof_C 	C 	0.2264	0.8018	0.0564	0.075
Mof_C 	C 	0.2624	0.803	0.1136	-0.068
Mof_H 	H 	0.297	0.7824	0.1137	0.044
Mof_C 	C 	0.2521	0.8348	0.1719	-0.001
Mof_H 	H 	0.276	0.8343	0.2139	0.03
Mof_C 	C 	0.2065	0.8736	0.1652	-0.072
Mof_H 	H 	0.2065	0.9067	0.2005	0.066
Mof_C 	C 	0.83367	0.19943	0.44173	0.08
Mof_H 	H 	0.81177	0.15543	0.34613	0.054
Mof_C 	C 	0.89307	0.13513	0.38973	0.078
Mof_C 	C 	0.92907	0.13633	0.44693	-0.056
Mof_H 	H 	0.96367	0.11573	0.44703	0.055
Mof_C 	C 	0.91877	0.16813	0.50523	0.003
Mof_H 	H 	0.94267	0.16763	0.54723	0.042
Mof_C 	C 	0.87317	0.20693	0.49853	-0.079
Mof_H 	H 	0.87317	0.24003	0.53383	0.065
Mof_C 	C 	0.50033	0.53277	0.77507	0.083
Mof_H 	H 	0.47843	0.48877	0.67947	0.062
Mof_C 	C 	0.55973	0.46847	0.72307	0.082
Mof_C 	C 	0.59573	0.46967	0.78027	-0.089
Mof_H 	H 	0.63033	0.44907	0.78037	0.051
Mof_C 	C 	0.58543	0.50147	0.83857	0.014
Mof_H 	H 	0.60933	0.50097	0.88057	0.025
Mof_C 	C 	0.53983	0.54027	0.83187	-0.096
Mof_H 	H 	0.53983	0.57337	0.86717	0.066
Mof_Zn	Zn	-0	0	-0	1.135
Mof_Zn	Zn	0.66667	0.33333	0.33333	1.173
Mof_Zn	Zn	0.33333	0.66667	0.66667	1.173
Mof_Zn	Zn	-1.86192e-33	0	0.19904	1.156
Mof_Zn	Zn	0.66667	0.33333	0.53237	1.189
Mof_Zn	Zn	0.33333	0.66667	0.86571	1.19
Mof_Zn	Zn	-7.4477e-33	0	0.80096	1.157
Mof_Zn	Zn	0.66667	0.33333	0.13429	1.188
Mof_Zn	Zn	0.33333	0.66667	0.46763	1.189
Mof_C 	C 	0.17355	0.3471	0.0535	-0.212
Mof_N 	N 	0.1109	0.2218	0.1044	-0.167
Mof_C 	C 	0.08535	0.1707	0.1565	0.103
Mof_H 	H 	0.0925	0.185	0.2029	-0.024
Mof_N 	N 	0.0497	0.0994	0.1348	-0.239
Mof_N 	N 	0.05065	0.1013	0.06459	-0.246
Mof_C 	C 	0.08735	0.1747	0.0485	0.095
Mof_H 	H 	0.0967	0.1934	0.0034	-0.031
Mof_N 	N 	0.2347	0.4694	0.9993	-0.175
Mof_C 	C 	0.21915	0.4383	0.9352	0.079
Mof_H 	H 	0.1921	0.3842	0.9257	0.007
Mof_N 	N 	0.2475	0.495	0.8872	-0.111
Mof_N 	N 	0.2827	0.5654	0.9258	-0.259
Mof_C 	C 	0.27175	0.5435	0.9829	0.21
Mof_H 	H 	0.2905	0.581	0.018	-0.067
Mof_C 	C 	0.84022	0.68043	0.38683	-0.223
Mof_N 	N 	0.77757	0.55513	0.43773	-0.166
Mof_C 	C 	0.75202	0.50403	0.48983	0.113
Mof_H 	H 	0.75917	0.51833	0.53623	-0.016
Mof_N 	N 	0.71637	0.43273	0.46813	-0.221
Mof_N 	N 	0.71732	0.43463	0.39792	-0.225
Mof_C 	C 	0.75402	0.50803	0.38183	0.107
Mof_H 	H 	0.76337	0.52673	0.33673	-0.017
Mof_N 	N 	0.90137	0.80273	0.33263	-0.179
Mof_C 	C 	0.88582	0.77163	0.26853	0.087
Mof_H 	H 	0.85877	0.71753	0.25903	0.007
Mof_N 	N 	0.91417	0.82833	0.22053	-0.103
Mof_N 	N 	0.94937	0.89873	0.25913	-0.228
Mof_C 	C 	0.93842	0.87683	0.31623	0.179
Mof_H 	H 	0.95717	0.91433	0.35133	-0.02
Mof_C 	C 	0.50688	0.01377	0.72017	-0.435
Mof_N 	N 	0.44423	0.88847	0.77107	-0.18
Mof_C 	C 	0.41868	0.83737	0.82317	0.116
Mof_H 	H 	0.42583	0.85167	0.86957	-0.016
Mof_N 	N 	0.38303	0.76607	0.80147	-0.221
Mof_N 	N 	0.38398	0.76797	0.73126	-0.226
Mof_C 	C 	0.42068	0.84137	0.71517	0.113
Mof_H 	H 	0.43003	0.86007	0.67007	-0.018
Mof_N 	N 	0.56803	0.13607	0.66597	-0.196
Mof_C 	C 	0.55248	0.10497	0.60187	0.081
Mof_H 	H 	0.52543	0.05087	0.59237	-0.017
Mof_N 	N 	0.58083	0.16167	0.55387	-0.115
Mof_N 	N 	0.61603	0.23207	0.59247	-0.255
Mof_C 	C 	0.60508	0.21017	0.64957	0.18
Mof_H 	H 	0.62383	0.24767	0.68467	-0.047
Mof_C 	C 	0.6529	0.82645	0.0535	-0.216
Mof_N 	N 	0.7782	0.8891	0.1044	-0.165
Mof_C 	C 	0.8293	0.91465	0.1565	0.116
Mof_H 	H 	0.815	0.9075	0.2029	-0.009
Mof_N 	N 	0.9006	0.9503	0.1348	-0.197
Mof_N 	N 	0.8987	0.94935	0.06459	-0.204
Mof_C 	C 	0.8253	0.91265	0.0485	0.109
Mof_H 	H 	0.8066	0.9033	0.0034	-0.016
Mof_N 	N 	0.5306	0.7653	0.9993	-0.176
Mof_C 	C 	0.5617	0.78085	0.9352	0.083
Mof_H 	H 	0.6158	0.8079	0.9257	0.013
Mof_N 	N 	0.505	0.7525	0.8872	-0.109
Mof_N 	N 	0.4346	0.7173	0.9258	-0.259
Mof_C 	C 	0.4565	0.72825	0.9829	0.212
Mof_H 	H 	0.419	0.7095	0.018	-0.066
Mof_C 	C 	0.31957	0.15978	0.38683	-0.221
Mof_N 	N 	0.44487	0.22243	0.43773	-0.166
Mof_C 	C 	0.49597	0.24798	0.48983	0.11
Mof_H 	H 	0.48167	0.24083	0.53623	-0.018
Mof_N 	N 	0.56727	0.28363	0.46813	-0.221
Mof_N 	N 	0.56537	0.28268	0.39792	-0.226
Mof_C 	C 	0.49197	0.24598	0.38183	0.104
Mof_H 	H 	0.47327	0.23663	0.33673	-0.02
Mof_N 	N 	0.19727	0.09863	0.33263	-0.183
Mof_C 	C 	0.22837	0.11418	0.26853	0.072
Mof_H 	H 	0.28247	0.14123	0.25903	0.002
Mof_N 	N 	0.17167	0.08583	0.22053	-0.12
Mof_N 	N 	0.10127	0.05063	0.25913	-0.273
Mof_C 	C 	0.12317	0.06158	0.31623	0.172
Mof_H 	H 	0.08567	0.04283	0.35133	-0.07
Mof_C 	C 	0.98623	0.49312	0.72017	-0.012
Mof_N 	N 	0.11153	0.55577	0.77107	-0.152
Mof_C 	C 	0.16263	0.58132	0.82317	0.106
Mof_H 	H 	0.14833	0.57417	0.86957	-0.015
Mof_N 	N 	0.23393	0.61697	0.80147	-0.22
Mof_N 	N 	0.23203	0.61602	0.73126	-0.225
Mof_C 	C 	0.15863	0.57932	0.71517	0.098
Mof_H 	H 	0.13993	0.56997	0.67007	-0.018
Mof_N 	N 	0.86393	0.43197	0.66597	-0.167
Mof_C 	C 	0.89503	0.44752	0.60187	0.08
Mof_H 	H 	0.94913	0.47457	0.59237	0.027
Mof_N 	N 	0.83833	0.41917	0.55387	-0.107
Mof_N 	N 	0.76793	0.38397	0.59247	-0.253
Mof_C 	C 	0.78983	0.39492	0.64957	0.174
Mof_H 	H 	0.75233	0.37617	0.68467	-0.043
Mof_C 	C 	0.17355	0.82645	0.0535	-0.215
Mof_N 	N 	0.1109	0.8891	0.1044	-0.166
Mof_C 	C 	0.08535	0.91465	0.1565	0.111
Mof_H 	H 	0.0925	0.9075	0.2029	-0.015
Mof_N 	N 	0.0497	0.9503	0.1348	-0.215
Mof_N 	N 	0.05065	0.94935	0.06459	-0.222
Mof_C 	C 	0.08735	0.91265	0.0485	0.103
Mof_H 	H 	0.0967	0.9033	0.0034	-0.022
Mof_N 	N 	0.2347	0.7653	0.9993	-0.176
Mof_C 	C 	0.21915	0.78085	0.9352	0.081
Mof_H 	H 	0.1921	0.8079	0.9257	0.01
Mof_N 	N 	0.2475	0.7525	0.8872	-0.11
Mof_N 	N 	0.2827	0.7173	0.9258	-0.259
Mof_C 	C 	0.27175	0.72825	0.9829	0.21
Mof_H 	H 	0.2905	0.7095	0.018	-0.066
Mof_C 	C 	0.84022	0.15978	0.38683	-0.222
Mof_N 	N 	0.77757	0.22243	0.43773	-0.166
Mof_C 	C 	0.75202	0.24798	0.48983	0.111
Mof_H 	H 	0.75917	0.24083	0.53623	-0.017
Mof_N 	N 	0.71637	0.28363	0.46813	-0.221
Mof_N 	N 	0.71732	0.28268	0.39792	-0.225
Mof_C 	C 	0.75402	0.24598	0.38183	0.106
Mof_H 	H 	0.76337	0.23663	0.33673	-0.018
Mof_N 	N 	0.90137	0.09863	0.33263	-0.181
Mof_C 	C 	0.88582	0.11418	0.26853	0.081
Mof_H 	H 	0.85877	0.14123	0.25903	0.005
Mof_N 	N 	0.91417	0.08583	0.22053	-0.11
Mof_N 	N 	0.94937	0.05063	0.25913	-0.248
Mof_C 	C 	0.93842	0.06158	0.31623	0.176
Mof_H 	H 	0.95717	0.04283	0.35133	-0.043
Mof_C 	C 	0.50688	0.49312	0.72017	-0.222
Mof_N 	N 	0.44423	0.55577	0.77107	-0.166
Mof_C 	C 	0.41868	0.58132	0.82317	0.111
Mof_H 	H 	0.42583	0.57417	0.86957	-0.015
Mof_N 	N 	0.38303	0.61697	0.80147	-0.221
Mof_N 	N 	0.38398	0.61602	0.73126	-0.225
Mof_C 	C 	0.42068	0.57932	0.71517	0.106
Mof_H 	H 	0.43003	0.56997	0.67007	-0.018
Mof_N 	N 	0.56803	0.43197	0.66597	-0.181
Mof_C 	C 	0.55248	0.44752	0.60187	0.08
Mof_H 	H 	0.52543	0.47457	0.59237	0.005
Mof_N 	N 	0.58083	0.41917	0.55387	-0.111
Mof_N 	N 	0.61603	0.38397	0.59247	-0.254
Mof_C 	C 	0.60508	0.39492	0.64957	0.177
Mof_H 	H 	0.62383	0.37617	0.68467	-0.045
Mof_C 	C 	0.3471	0.17355	0.9465	-0.229
Mof_N 	N 	0.2218	0.1109	0.8956	-0.168
Mof_C 	C 	0.1707	0.08535	0.8435	0.106
Mof_H 	H 	0.185	0.0925	0.7971	-0.024
Mof_N 	N 	0.0994	0.0497	0.8652	-0.237
Mof_N 	N 	0.1013	0.05065	0.93541	-0.237
Mof_C 	C 	0.1747	0.08735	0.9515	0.101
Mof_H 	H 	0.1934	0.0967	0.9966	-0.018
Mof_N 	N 	0.4694	0.2347	0.0007	-0.188
Mof_C 	C 	0.4383	0.21915	0.0648	0.078
Mof_H 	H 	0.3842	0.1921	0.0743	-0.004
Mof_N 	N 	0.495	0.2475	0.1128	-0.113
Mof_N 	N 	0.5654	0.2827	0.0742	-0.249
Mof_C 	C 	0.5435	0.27175	0.0171	0.14
Mof_H 	H 	0.581	0.2905	0.982	-0.022
Mof_C 	C 	0.01377	0.50688	0.27983	-0.434
Mof_N 	N 	0.88847	0.44423	0.22893	-0.18
Mof_C 	C 	0.83737	0.41868	0.17683	0.116
Mof_H 	H 	0.85167	0.42583	0.13043	-0.019
Mof_N 	N 	0.76607	0.38303	0.19853	-0.222
Mof_N 	N 	0.76797	0.38398	0.26874	-0.226
Mof_C 	C 	0.84137	0.42068	0.28483	0.113
Mof_H 	H 	0.86007	0.43003	0.32993	-0.018
Mof_N 	N 	0.13607	0.56803	0.33403	-0.196
Mof_C 	C 	0.10497	0.55248	0.39813	0.081
Mof_H 	H 	0.05087	0.52543	0.40763	-0.016
Mof_N 	N 	0.16167	0.58083	0.44613	-0.115
Mof_N 	N 	0.23207	0.61603	0.40753	-0.255
Mof_C 	C 	0.21017	0.60508	0.35043	0.18
Mof_H 	H 	0.24767	0.62383	0.31533	-0.047
Mof_C 	C 	0.68043	0.84022	0.61317	-0.223
Mof_N 	N 	0.55513	0.77757	0.56227	-0.166
Mof_C 	C 	0.50403	0.75202	0.51017	0.113
Mof_H 	H 	0.51833	0.75917	0.46377	-0.016
Mof_N 	N 	0.43273	0.71637	0.53187	-0.221
Mof_N 	N 	0.43463	0.71732	0.60208	-0.225
Mof_C 	C 	0.50803	0.75402	0.61817	0.107
Mof_H 	H 	0.52673	0.76337	0.66327	-0.017
Mof_N 	N 	0.80273	0.90137	0.66737	-0.179
Mof_C 	C 	0.77163	0.88582	0.73147	0.088
Mof_H 	H 	0.71753	0.85877	0.74097	0.008
Mof_N 	N 	0.82833	0.91417	0.77947	-0.101
Mof_N 	N 	0.89873	0.94937	0.74087	-0.229
Mof_C 	C 	0.87683	0.93842	0.68377	0.179
Mof_H 	H 	0.91433	0.95717	0.64867	-0.02
Mof_C 	C 	0.82645	0.6529	0.9465	-0.231
Mof_N 	N 	0.8891	0.7782	0.8956	-0.165
Mof_C 	C 	0.91465	0.8293	0.8435	0.119
Mof_H 	H 	0.9075	0.815	0.7971	-0.01
Mof_N 	N 	0.9503	0.9006	0.8652	-0.196
Mof_N 	N 	0.94935	0.8987	0.93541	-0.197
Mof_C 	C 	0.91265	0.8253	0.9515	0.114
Mof_H 	H 	0.9033	0.8066	0.9966	-0.006
Mof_N 	N 	0.7653	0.5306	0.0007	-0.187
Mof_C 	C 	0.78085	0.5617	0.0648	0.082
Mof_H 	H 	0.8079	0.6158	0.0743	0.003
Mof_N 	N 	0.7525	0.505	0.1128	-0.11
Mof_N 	N 	0.7173	0.4346	0.0742	-0.249
Mof_C 	C 	0.72825	0.4565	0.0171	0.145
Mof_H 	H 	0.7095	0.419	0.982	-0.023
Mof_C 	C 	0.49312	0.98623	0.27983	-0.004
Mof_N 	N 	0.55577	0.11153	0.22893	-0.152
Mof_C 	C 	0.58132	0.16263	0.17683	0.106
Mof_H 	H 	0.57417	0.14833	0.13043	-0.019
Mof_N 	N 	0.61697	0.23393	0.19853	-0.221
Mof_N 	N 	0.61602	0.23203	0.26874	-0.225
Mof_C 	C 	0.57932	0.15863	0.28483	0.098
Mof_H 	H 	0.56997	0.13993	0.32993	-0.018
Mof_N 	N 	0.43197	0.86393	0.33403	-0.166
Mof_C 	C 	0.44752	0.89503	0.39813	0.08
Mof_H 	H 	0.47457	0.94913	0.40763	0.027
Mof_N 	N 	0.41917	0.83833	0.44613	-0.106
Mof_N 	N 	0.38397	0.76793	0.40753	-0.253
Mof_C 	C 	0.39492	0.78983	0.35043	0.174
Mof_H 	H 	0.37617	0.75233	0.31533	-0.043
Mof_C 	C 	0.15978	0.31957	0.61317	-0.221
Mof_N 	N 	0.22243	0.44487	0.56227	-0.166
Mof_C 	C 	0.24798	0.49597	0.51017	0.11
Mof_H 	H 	0.24083	0.48167	0.46377	-0.018
Mof_N 	N 	0.28363	0.56727	0.53187	-0.221
Mof_N 	N 	0.28268	0.56537	0.60208	-0.226
Mof_C 	C 	0.24598	0.49197	0.61817	0.104
Mof_H 	H 	0.23663	0.47327	0.66327	-0.019
Mof_N 	N 	0.09863	0.19727	0.66737	-0.183
Mof_C 	C 	0.11418	0.22837	0.73147	0.073
Mof_H 	H 	0.14123	0.28247	0.74097	0.004
Mof_N 	N 	0.08583	0.17167	0.77947	-0.118
Mof_N 	N 	0.05063	0.10127	0.74087	-0.272
Mof_C 	C 	0.06158	0.12317	0.68377	0.172
Mof_H 	H 	0.04283	0.08567	0.64867	-0.07
Mof_C 	C 	0.82645	0.17355	0.9465	-0.231
Mof_N 	N 	0.8891	0.1109	0.8956	-0.166
Mof_C 	C 	0.91465	0.08535	0.8435	0.113
Mof_H 	H 	0.9075	0.0925	0.7971	-0.016
Mof_N 	N 	0.9503	0.0497	0.8652	-0.215
Mof_N 	N 	0.94935	0.05065	0.93541	-0.215
Mof_C 	C 	0.91265	0.08735	0.9515	0.109
Mof_H 	H 	0.9033	0.0967	0.9966	-0.011
Mof_N 	N 	0.7653	0.2347	0.0007	-0.187
Mof_C 	C 	0.78085	0.21915	0.0648	0.08
Mof_H 	H 	0.8079	0.1921	0.0743	0
Mof_N 	N 	0.7525	0.2475	0.1128	-0.112
Mof_N 	N 	0.7173	0.2827	0.0742	-0.249
Mof_C 	C 	0.72825	0.27175	0.0171	0.143
Mof_H 	H 	0.7095	0.2905	0.982	-0.023
Mof_C 	C 	0.49312	0.50688	0.27983	-0.222
Mof_N 	N 	0.55577	0.44423	0.22893	-0.166
Mof_C 	C 	0.58132	0.41868	0.17683	0.111
Mof_H 	H 	0.57417	0.42583	0.13043	-0.019
Mof_N 	N 	0.61697	0.38303	0.19853	-0.221
Mof_N 	N 	0.61602	0.38398	0.26874	-0.225
Mof_C 	C 	0.57932	0.42068	0.28483	0.105
Mof_H 	H 	0.56997	0.43003	0.32993	-0.018
Mof_N 	N 	0.43197	0.56803	0.33403	-0.181
Mof_C 	C 	0.44752	0.55248	0.39813	0.08
Mof_H 	H 	0.47457	0.52543	0.40763	0.005
Mof_N 	N 	0.41917	0.58083	0.44613	-0.111
Mof_N 	N 	0.38397	0.61603	0.40753	-0.254
Mof_C 	C 	0.39492	0.60508	0.35043	0.177
Mof_H 	H 	0.37617	0.62383	0.31533	-0.045
Mof_C 	C 	0.15978	0.84022	0.61317	-0.222
Mof_N 	N 	0.22243	0.77757	0.56227	-0.166
Mof_C 	C 	0.24798	0.75202	0.51017	0.111
Mof_H 	H 	0.24083	0.75917	0.46377	-0.017
Mof_N 	N 	0.28363	0.71637	0.53187	-0.221
Mof_N 	N 	0.28268	0.71732	0.60208	-0.225
Mof_C 	C 	0.24598	0.75402	0.61817	0.106
Mof_H 	H 	0.23663	0.76337	0.66327	-0.018
Mof_N 	N 	0.09863	0.90137	0.66737	-0.181
Mof_C 	C 	0.11418	0.88582	0.73147	0.081
Mof_H 	H 	0.14123	0.85877	0.74097	0.006
Mof_N 	N 	0.08583	0.91417	0.77947	-0.108
Mof_N 	N 	0.05063	0.94937	0.74087	-0.248
Mof_C 	C 	0.06158	0.93842	0.68377	0.176
Mof_H 	H 	0.04283	0.95717	0.64867	-0.042
_end
