# CIF file generated by openbabel 3.1.0, see https://openbabel.org
data_I
_chemical_name_common 'image0'
_cell_length_a 16.1705
_cell_length_b 8.6943
_cell_length_c 20.8797
_cell_angle_alpha 90
_cell_angle_beta 94.633
_cell_angle_gamma 90
_space_group_name_H-M_alt 'P 1'
_space_group_name_Hall 'P 1'
loop_
    _symmetry_equiv_pos_as_xyz
    x,y,z
loop_
    _atom_site_label
    _atom_site_type_symbol
    _atom_site_fract_x
    _atom_site_fract_y
    _atom_site_fract_z
    _atom_site_occupancy
    Er1      Er       0.24319    0.22305    0.71312    1.000
    O1       O        0.13030    0.36000    0.66340    1.000
    O2       O        0.36670    0.32440    0.74940    1.000
    O3       O        0.17770    0.54260    0.83710    1.000
    O4       O        0.17850    0.30230    0.79990    1.000
    O5       O        0.36080    0.54900    0.80030    1.000
    O6       O        0.21440    0.53970    0.70520    1.000
    N1       N        0.98570    0.93300    0.49940    1.000
    N2       N        0.75380    0.45690    0.84020    1.000
    N3       N        0.78370    0.36100    0.81180    1.000
    C1       C        0.15430    0.49690    0.66660    1.000
    C2       C        0.11280    0.61170    0.62100    1.000
    C3       C        0.15040    0.75200    0.60970    1.000
    H1       H        0.20280    0.77320    0.62950    1.000
    C4       C        0.11090    0.86050    0.56950    1.000
    H2       H        0.13610    0.95470    0.56290    1.000
    C5       C        0.03300    0.82730    0.53920    1.000
    C6       C        0.99760    0.68360    0.54680    1.000
    H3       H        0.94730    0.65940    0.52440    1.000
    C7       C        0.03710    0.57600    0.58770    1.000
    H4       H        0.01310    0.48020    0.59290    1.000
    C8       C        0.39890    0.43520    0.78110    1.000
    C9       C        0.49090    0.42840    0.79810    1.000
    C10      C        0.53030    0.54090    0.83750    1.000
    H5       H        0.49890    0.61770    0.85480    1.000
    C11      C        0.61460    0.53930    0.85100    1.000
    H6       H        0.64000    0.61380    0.87780    1.000
    C12      C        0.66010    0.43180    0.82580    1.000
    C13      C        0.62360    0.31510    0.78670    1.000
    H7       H        0.65640    0.24000    0.76960    1.000
    C14      C        0.53750    0.31300    0.77380    1.000
    H8       H        0.51200    0.23470    0.74900    1.000
    C15      C        0.14320    0.41870    0.82080    1.000
    C16      C        0.05060    0.40800    0.82530    1.000
    C17      C        0.00720    0.51590    0.85810    1.000
    H9       H        0.03560    0.59460    0.88060    1.000
    C18      C        0.92140    0.50680    0.85740    1.000
    H10      H        0.89260    0.57820    0.88020    1.000
    C19      C        0.87890    0.39260    0.82310    1.000
    C20      C        0.92110    0.28490    0.79110    1.000
    H11      H        0.89220    0.20680    0.76860    1.000
    C21      C        0.00670    0.29130    0.79190    1.000
    H12      H        0.03510    0.21730    0.77010    1.000
    Er2      Er       0.25681    0.72305    0.78688    1.000
    O7       O        0.36970    0.86000    0.83660    1.000
    O8       O        0.13330    0.82440    0.75060    1.000
    O9       O        0.32230    0.04260    0.66290    1.000
    O10      O        0.32150    0.80230    0.70010    1.000
    O11      O        0.13920    0.04900    0.69970    1.000
    O12      O        0.28560    0.03970    0.79480    1.000
    N4       N        0.51430    0.43300    0.00060    1.000
    N5       N        0.74620    0.95690    0.65980    1.000
    N6       N        0.71630    0.86100    0.68820    1.000
    C22      C        0.34570    0.99690    0.83340    1.000
    C23      C        0.38720    0.11170    0.87900    1.000
    C24      C        0.34960    0.25200    0.89030    1.000
    H13      H        0.29720    0.27320    0.87050    1.000
    C25      C        0.38910    0.36050    0.93050    1.000
    H14      H        0.36390    0.45470    0.93710    1.000
    C26      C        0.46700    0.32730    0.96080    1.000
    C27      C        0.50240    0.18360    0.95320    1.000
    H15      H        0.55270    0.15940    0.97560    1.000
    C28      C        0.46290    0.07600    0.91230    1.000
    H16      H        0.48690    0.98020    0.90710    1.000
    C29      C        0.10110    0.93520    0.71890    1.000
    C30      C        0.00910    0.92840    0.70190    1.000
    C31      C        0.96970    0.04090    0.66250    1.000
    H17      H        0.00110    0.11770    0.64520    1.000
    C32      C        0.88540    0.03930    0.64900    1.000
    H18      H        0.86000    0.11380    0.62220    1.000
    C33      C        0.83990    0.93180    0.67420    1.000
    C34      C        0.87640    0.81510    0.71330    1.000
    H19      H        0.84360    0.74000    0.73040    1.000
    C35      C        0.96250    0.81300    0.72620    1.000
    H20      H        0.98800    0.73470    0.75100    1.000
    C36      C        0.35680    0.91870    0.67920    1.000
    C37      C        0.44940    0.90800    0.67470    1.000
    C38      C        0.49280    0.01590    0.64190    1.000
    H21      H        0.46440    0.09460    0.61940    1.000
    C39      C        0.57860    0.00680    0.64260    1.000
    H22      H        0.60740    0.07820    0.61980    1.000
    C40      C        0.62110    0.89260    0.67690    1.000
    C41      C        0.57890    0.78490    0.70890    1.000
    H23      H        0.60780    0.70680    0.73140    1.000
    C42      C        0.49330    0.79130    0.70810    1.000
    H24      H        0.46490    0.71730    0.72990    1.000
    Er3      Er       0.75681    0.77695    0.28688    1.000
    O13      O        0.86970    0.64000    0.33660    1.000
    O14      O        0.63330    0.67560    0.25060    1.000
    O15      O        0.82230    0.45740    0.16290    1.000
    O16      O        0.82150    0.69770    0.20010    1.000
    O17      O        0.63920    0.45100    0.19970    1.000
    O18      O        0.78560    0.46030    0.29480    1.000
    N7       N        0.01430    0.06700    0.50060    1.000
    N8       N        0.24620    0.54310    0.15980    1.000
    N9       N        0.21630    0.63900    0.18820    1.000
    C43      C        0.84570    0.50310    0.33340    1.000
    C44      C        0.88720    0.38830    0.37900    1.000
    C45      C        0.84960    0.24800    0.39030    1.000
    H25      H        0.79720    0.22680    0.37050    1.000
    C46      C        0.88910    0.13950    0.43050    1.000
    H26      H        0.86390    0.04530    0.43710    1.000
    C47      C        0.96700    0.17270    0.46080    1.000
    C48      C        0.00240    0.31640    0.45320    1.000
    H27      H        0.05270    0.34060    0.47560    1.000
    C49      C        0.96290    0.42400    0.41230    1.000
    H28      H        0.98690    0.51980    0.40710    1.000
    C50      C        0.60110    0.56480    0.21890    1.000
    C51      C        0.50910    0.57160    0.20190    1.000
    C52      C        0.46970    0.45910    0.16250    1.000
    H29      H        0.50110    0.38230    0.14520    1.000
    C53      C        0.38540    0.46070    0.14900    1.000
    H30      H        0.36000    0.38620    0.12220    1.000
    C54      C        0.33990    0.56820    0.17420    1.000
    C55      C        0.37640    0.68490    0.21330    1.000
    H31      H        0.34360    0.76000    0.23040    1.000
    C56      C        0.46250    0.68700    0.22620    1.000
    H32      H        0.48800    0.76530    0.25100    1.000
    C57      C        0.85680    0.58130    0.17920    1.000
    C58      C        0.94940    0.59200    0.17470    1.000
    C59      C        0.99280    0.48410    0.14190    1.000
    H33      H        0.96440    0.40540    0.11940    1.000
    C60      C        0.07860    0.49320    0.14260    1.000
    H34      H        0.10740    0.42180    0.11980    1.000
    C61      C        0.12110    0.60740    0.17690    1.000
    C62      C        0.07890    0.71510    0.20890    1.000
    H35      H        0.10780    0.79320    0.23140    1.000
    C63      C        0.99330    0.70870    0.20810    1.000
    H36      H        0.96490    0.78270    0.22990    1.000
    Er4      Er       0.74319    0.27695    0.21312    1.000
    O19      O        0.63030    0.14000    0.16340    1.000
    O20      O        0.86670    0.17560    0.24940    1.000
    O21      O        0.67770    0.95740    0.33710    1.000
    O22      O        0.67850    0.19770    0.29990    1.000
    O23      O        0.86080    0.95100    0.30030    1.000
    O24      O        0.71440    0.96030    0.20520    1.000
    N10      N        0.48570    0.56700    0.99940    1.000
    N11      N        0.25380    0.04310    0.34020    1.000
    N12      N        0.28370    0.13900    0.31180    1.000
    C64      C        0.65430    0.00310    0.16660    1.000
    C65      C        0.61280    0.88830    0.12100    1.000
    C66      C        0.65040    0.74800    0.10970    1.000
    H37      H        0.70280    0.72680    0.12950    1.000
    C67      C        0.61090    0.63950    0.06950    1.000
    H38      H        0.63610    0.54530    0.06290    1.000
    C68      C        0.53300    0.67270    0.03920    1.000
    C69      C        0.49760    0.81640    0.04680    1.000
    H39      H        0.44730    0.84060    0.02440    1.000
    C70      C        0.53710    0.92400    0.08770    1.000
    H40      H        0.51310    0.01980    0.09290    1.000
    C71      C        0.89890    0.06480    0.28110    1.000
    C72      C        0.99090    0.07160    0.29810    1.000
    C73      C        0.03030    0.95910    0.33750    1.000
    H41      H        0.99890    0.88230    0.35480    1.000
    C74      C        0.11460    0.96070    0.35100    1.000
    H42      H        0.14000    0.88620    0.37780    1.000
    C75      C        0.16010    0.06820    0.32580    1.000
    C76      C        0.12360    0.18490    0.28670    1.000
    H43      H        0.15640    0.26000    0.26960    1.000
    C77      C        0.03750    0.18700    0.27380    1.000
    H44      H        0.01200    0.26530    0.24900    1.000
    C78      C        0.64320    0.08130    0.32080    1.000
    C79      C        0.55060    0.09200    0.32530    1.000
    C80      C        0.50720    0.98410    0.35810    1.000
    H45      H        0.53560    0.90540    0.38060    1.000
    C81      C        0.42140    0.99320    0.35740    1.000
    H46      H        0.39260    0.92180    0.38020    1.000
    C82      C        0.37890    0.10740    0.32310    1.000
    C83      C        0.42110    0.21510    0.29110    1.000
    H47      H        0.39220    0.29320    0.26860    1.000
    C84      C        0.50670    0.20870    0.29190    1.000
    H48      H        0.53510    0.28270    0.27010    1.000
