# CIF file generated by openbabel 3.1.0, see https://openbabel.org
data_I
_chemical_name_common 'SIVVAW_clean'
_cell_length_a 9.86
_cell_length_b 11.65
_cell_length_c 13.113
_cell_angle_alpha 90
_cell_angle_beta 90
_cell_angle_gamma 101.99
_space_group_name_H-M_alt 'P 1'
_space_group_name_Hall 'P 1'
loop_
    _symmetry_equiv_pos_as_xyz
    x,y,z
loop_
    _atom_site_label
    _atom_site_type_symbol
    _atom_site_fract_x
    _atom_site_fract_y
    _atom_site_fract_z
    _atom_site_occupancy
    Cd1      Cd       0.25672    0.49402    0.50469    1.000
    Cd2      Cd       0.74328    0.50598    0.49531    1.000
    Cd3      Cd       0.74328    0.00598    0.00469    1.000
    Cd4      Cd       0.25672    0.99402    0.99531    1.000
    H1       H        0.27660    0.00260    0.23940    1.000
    H2       H        0.66320    0.37550    0.87750    1.000
    H3       H        0.02110    0.60880    0.36720    1.000
    H4       H        0.33680    0.12450    0.37750    1.000
    H5       H        0.66320    0.87550    0.62250    1.000
    H6       H        0.40550    0.25920    0.04950    1.000
    H7       H        0.72340    0.49740    0.73940    1.000
    H8       H        0.48720    0.88730    0.31730    1.000
    H9       H        0.10650    0.74300    0.24160    1.000
    H10      H        0.33680    0.62450    0.12250    1.000
    H11      H        0.48720    0.38730    0.18270    1.000
    H12      H        0.40550    0.75920    0.45050    1.000
    H13      H        0.71420    0.26380    0.32460    1.000
    H14      H        0.64480    0.64310    0.31330    1.000
    H15      H        0.64480    0.14310    0.18670    1.000
    H16      H        0.51280    0.61270    0.81730    1.000
    H17      H        0.89350    0.75700    0.74160    1.000
    H18      H        0.97890    0.39120    0.63280    1.000
    H19      H        0.28580    0.73620    0.67540    1.000
    H20      H        0.27660    0.50260    0.26060    1.000
    H21      H        0.59450    0.74080    0.95050    1.000
    H22      H        0.28580    0.23620    0.82460    1.000
    H23      H        0.35520    0.35690    0.68670    1.000
    H24      H        0.10650    0.24300    0.25840    1.000
    H25      H        0.59450    0.24080    0.54950    1.000
    H26      H        0.72340    0.99740    0.76060    1.000
    H27      H        0.02110    0.10880    0.13280    1.000
    H28      H        0.97890    0.89120    0.86720    1.000
    H29      H        0.89350    0.25700    0.75840    1.000
    H30      H        0.35520    0.85690    0.81330    1.000
    H31      H        0.71420    0.76380    0.17540    1.000
    H32      H        0.51280    0.11270    0.68270    1.000
    C1       C        0.91930    0.26880    0.30470    1.000
    C2       C        0.53670    0.64630    0.61520    1.000
    C3       C        0.31520    0.08150    0.22840    1.000
    C4       C        0.03970    0.85460    0.83170    1.000
    C5       C        0.68480    0.91850    0.77160    1.000
    C6       C        0.41840    0.77120    0.20400    1.000
    C7       C        0.46330    0.85370    0.11520    1.000
    C8       C        0.22100    0.76300    0.71550    1.000
    C9       C        0.03040    0.64710    0.60920    1.000
    C10      C        0.98830    0.27740    0.74590    1.000
    C11      C        0.58160    0.72880    0.70400    1.000
    C12      C        0.01170    0.72260    0.25410    1.000
    C13      C        0.98830    0.77740    0.75410    1.000
    C14      C        0.64630    0.34620    0.81170    1.000
    C15      C        0.26100    0.83600    0.79840    1.000
    C16      C        0.41840    0.27120    0.29600    1.000
    C17      C        0.91930    0.76880    0.19530    1.000
    C18      C        0.35370    0.65380    0.18830    1.000
    C19      C        0.96960    0.85290    0.10920    1.000
    C20      C        0.64630    0.84620    0.68830    1.000
    C21      C        0.53670    0.14630    0.88480    1.000
    C22      C        0.73900    0.16400    0.20160    1.000
    C23      C        0.46330    0.35370    0.38480    1.000
    C24      C        0.96030    0.14540    0.16830    1.000
    C25      C        0.44120    0.31070    0.19630    1.000
    C26      C        0.55880    0.68930    0.80370    1.000
    C27      C        0.39340    0.23230    0.11630    1.000
    C28      C        0.26100    0.33600    0.70160    1.000
    C29      C        0.01170    0.22260    0.24590    1.000
    C30      C        0.68480    0.41850    0.72840    1.000
    C31      C        0.60660    0.26770    0.61630    1.000
    C32      C        0.35370    0.15380    0.31170    1.000
    C33      C        0.73900    0.66400    0.29840    1.000
    C34      C        0.55880    0.18930    0.69630    1.000
    C35      C        0.77900    0.73700    0.21550    1.000
    C36      C        0.31520    0.58150    0.27160    1.000
    C37      C        0.44120    0.81070    0.30370    1.000
    C38      C        0.22100    0.26300    0.78450    1.000
    C39      C        0.08070    0.73120    0.69530    1.000
    C40      C        0.77900    0.23700    0.28450    1.000
    C41      C        0.96960    0.35290    0.39080    1.000
    C42      C        0.96030    0.64540    0.33170    1.000
    C43      C        0.03040    0.14710    0.89080    1.000
    C44      C        0.39340    0.73230    0.38370    1.000
    C45      C        0.08070    0.23120    0.80470    1.000
    C46      C        0.58160    0.22880    0.79600    1.000
    C47      C        0.60660    0.76770    0.88370    1.000
    C48      C        0.03970    0.35460    0.66830    1.000
    N1       N        0.33170    0.12160    0.13240    1.000
    N2       N        0.66830    0.37840    0.63240    1.000
    N3       N        0.17460    0.87870    0.85770    1.000
    N4       N        0.82540    0.62130    0.35770    1.000
    N5       N        0.17460    0.37870    0.64230    1.000
    N6       N        0.66830    0.87840    0.86760    1.000
    N7       N        0.82540    0.12130    0.14230    1.000
    N8       N        0.33170    0.62160    0.36760    1.000
    O1       O        0.58370    0.41260    0.37950    1.000
    O2       O        0.90360    0.10580    0.89220    1.000
    O3       O        0.38080    0.85270    0.04380    1.000
    O4       O        0.88210    0.87280    0.04640    1.000
    O5       O        0.58370    0.91260    0.12050    1.000
    O6       O        0.61920    0.14730    0.95620    1.000
    O7       O        0.41630    0.08740    0.87950    1.000
    O8       O        0.38080    0.35270    0.45620    1.000
    O9       O        0.61920    0.64730    0.54380    1.000
    O10      O        0.90360    0.60580    0.60780    1.000
    O11      O        0.09640    0.39420    0.39220    1.000
    O12      O        0.11790    0.12720    0.95360    1.000
    O13      O        0.41630    0.58740    0.62050    1.000
    O14      O        0.88210    0.37280    0.45360    1.000
    O15      O        0.11790    0.62720    0.54640    1.000
    O16      O        0.09640    0.89420    0.10780    1.000
