# CIF file generated by openbabel 3.1.0, see https://openbabel.org
data_I
_chemical_name_common 'image0'
_cell_length_a 6.7875
_cell_length_b 10.5615
_cell_length_c 14.2118
_cell_angle_alpha 90
_cell_angle_beta 97.567
_cell_angle_gamma 90
_space_group_name_H-M_alt 'P 1'
_space_group_name_Hall 'P 1'
loop_
    _symmetry_equiv_pos_as_xyz
    x,y,z
loop_
    _atom_site_label
    _atom_site_type_symbol
    _atom_site_fract_x
    _atom_site_fract_y
    _atom_site_fract_z
    _atom_site_occupancy
    O1       O        0.74750    0.58977    0.49363    1.000
    H1       H        0.74560    0.67840    0.48730    1.000
    N1       N        0.66990    0.35930    0.39243    1.000
    N2       N        0.86600    0.38660    0.38737    1.000
    N3       N        0.64980    0.10840    0.11073    1.000
    N4       N        0.84910    0.12910    0.10904    1.000
    C1       C        0.57120    0.28650    0.32750    1.000
    H2       H        0.43700    0.26850    0.33170    1.000
    C2       C        0.66030    0.23410    0.25120    1.000
    C3       C        0.55810    0.15750    0.17780    1.000
    H3       H        0.42180    0.14170    0.17760    1.000
    C4       C        0.95800    0.34100    0.31930    1.000
    H4       H        0.09250    0.36120    0.31790    1.000
    C5       C        0.85800    0.26120    0.24700    1.000
    C6       C        0.94900    0.20340    0.17230    1.000
    H5       H        0.08400    0.21930    0.16840    1.000
    O2       O        0.25250    0.08977    0.00637    1.000
    H6       H        0.25440    0.17840    0.01270    1.000
    N5       N        0.33010    0.85930    0.10757    1.000
    N6       N        0.13400    0.88660    0.11263    1.000
    N7       N        0.35020    0.60840    0.38927    1.000
    N8       N        0.15090    0.62910    0.39096    1.000
    C7       C        0.42880    0.78650    0.17250    1.000
    H7       H        0.56300    0.76850    0.16830    1.000
    C8       C        0.33970    0.73410    0.24880    1.000
    C9       C        0.44190    0.65750    0.32220    1.000
    H8       H        0.57820    0.64170    0.32240    1.000
    C10      C        0.04200    0.84100    0.18070    1.000
    H9       H        0.90750    0.86120    0.18210    1.000
    C11      C        0.14200    0.76120    0.25300    1.000
    C12      C        0.05100    0.70340    0.32770    1.000
    H10      H        0.91600    0.71930    0.33160    1.000
    O3       O        0.25250    0.41023    0.50637    1.000
    H11      H        0.25440    0.32160    0.51270    1.000
    N9       N        0.33010    0.64070    0.60757    1.000
    N10      N        0.13400    0.61340    0.61263    1.000
    N11      N        0.35020    0.89160    0.88927    1.000
    N12      N        0.15090    0.87090    0.89096    1.000
    C13      C        0.42880    0.71350    0.67250    1.000
    H12      H        0.56300    0.73150    0.66830    1.000
    C14      C        0.33970    0.76590    0.74880    1.000
    C15      C        0.44190    0.84250    0.82220    1.000
    H13      H        0.57820    0.85830    0.82240    1.000
    C16      C        0.04200    0.65900    0.68070    1.000
    H14      H        0.90750    0.63880    0.68210    1.000
    C17      C        0.14200    0.73880    0.75300    1.000
    C18      C        0.05100    0.79660    0.82770    1.000
    H15      H        0.91600    0.78070    0.83160    1.000
    O4       O        0.74750    0.91023    0.99363    1.000
    H16      H        0.74560    0.82160    0.98730    1.000
    N13      N        0.66990    0.14070    0.89243    1.000
    N14      N        0.86600    0.11340    0.88737    1.000
    N15      N        0.64980    0.39160    0.61073    1.000
    N16      N        0.84910    0.37090    0.60904    1.000
    C19      C        0.57120    0.21350    0.82750    1.000
    H17      H        0.43700    0.23150    0.83170    1.000
    C20      C        0.66030    0.26590    0.75120    1.000
    C21      C        0.55810    0.34250    0.67780    1.000
    H18      H        0.42180    0.35830    0.67760    1.000
    C22      C        0.95800    0.15900    0.81930    1.000
    H19      H        0.09250    0.13880    0.81790    1.000
    C23      C        0.85800    0.23880    0.74700    1.000
    C24      C        0.94900    0.29660    0.67230    1.000
    H20      H        0.08400    0.28070    0.66840    1.000
    Cu1      Cu       0.50000    0.50000    0.50000    1.000
    Cu2      Cu       0.50000    0.00000    0.00000    1.000
    Cu3      Cu       0.00000    0.50000    0.50000    1.000
    Cu4      Cu       0.00000    0.00000    0.00000    1.000
