# CIF file generated by openbabel 3.1.0, see https://openbabel.org
data_I
_chemical_name_common 'image0'
_cell_length_a 40.9064
_cell_length_b 40.9064
_cell_length_c 17.4574
_cell_angle_alpha 90
_cell_angle_beta 90
_cell_angle_gamma 90
_space_group_name_H-M_alt 'P 1'
_space_group_name_Hall 'P 1'
loop_
    _symmetry_equiv_pos_as_xyz
    x,y,z
loop_
    _atom_site_label
    _atom_site_type_symbol
    _atom_site_fract_x
    _atom_site_fract_y
    _atom_site_fract_z
    _atom_site_occupancy
    Mn1      Mn       0.07662    0.04019    0.18411    1.000
    O1       O        0.09454    0.01303    0.25969    1.000
    O2       O        0.99453    0.02522    0.31964    1.000
    O3       O        0.05125    0.06634    0.11309    1.000
    N1       N        0.03399    0.03611    0.23084    1.000
    N2       N        0.00835    0.05137    0.18890    1.000
    C1       C        0.08075    0.00016    0.32213    1.000
    C2       C        0.10029    0.98021    0.36810    1.000
    H1       H        0.12210    0.97560    0.35290    1.000
    C3       C        0.08840    0.96708    0.43550    1.000
    H2       H        0.10210    0.95340    0.46560    1.000
    C4       C        0.05689    0.97343    0.46010    1.000
    H3       H        0.04910    0.96510    0.50750    1.000
    C5       C        0.03685    0.99234    0.41340    1.000
    H4       H        0.01500    0.99640    0.42890    1.000
    C6       C        0.04811    0.00557    0.34406    1.000
    C7       C        0.02440    0.02321    0.29661    1.000
    C8       C        0.01991    0.06594    0.12827    1.000
    C9       C        0.99763    0.08313    0.07333    1.000
    H5       H        0.97480    0.08060    0.09100    1.000
    H6       H        0.99950    0.07270    0.02240    1.000
    C10      C        0.00533    0.11932    0.06550    1.000
    H7       H        0.99140    0.12880    0.02480    1.000
    H8       H        0.02840    0.12190    0.04980    1.000
    C11      C        0.99962    0.13814    0.14040    1.000
    H9       H        0.01430    0.12930    0.18040    1.000
    H10      H        0.97680    0.13460    0.15740    1.000
    C12      C        0.00571    0.17504    0.13240    1.000
    H11      H        0.99120    0.18400    0.09210    1.000
    H12      H        0.02860    0.17880    0.11640    1.000
    C13      C        0.99921    0.19319    0.20870    1.000
    H13      H        0.97760    0.18710    0.22830    1.000
    H14      H        0.00000    0.21680    0.20000    1.000
    H15      H        0.01600    0.18710    0.24630    1.000
    Mn2      Mn       0.96017    0.03785    0.24507    1.000
    N3       N        0.92616    0.04355    0.16866    1.000
    N4       N        0.92170    0.01632    0.11937    1.000
    N5       N        0.92618    0.01159    0.32875    1.000
    O4       O        0.95153    0.07909    0.28429    1.000
    O5       O        0.88506    0.06698    0.09968    1.000
    O6       O        0.96312    0.99617    0.19315    1.000
    C14      C        0.92774    0.10008    0.26819    1.000
    C15      C        0.92513    0.12811    0.31450    1.000
    H16      H        0.94030    0.13150    0.35490    1.000
    C16      C        0.90074    0.15082    0.30200    1.000
    H17      H        0.89940    0.16960    0.33390    1.000
    C17      C        0.87843    0.14669    0.24420    1.000
    H18      H        0.86140    0.16220    0.23670    1.000
    C18      C        0.88095    0.11986    0.19721    1.000
    H19      H        0.86580    0.11730    0.15650    1.000
    C19      C        0.90533    0.09616    0.20783    1.000
    C20      C        0.90548    0.06771    0.15578    1.000
    C21      C        0.94181    0.99297    0.13822    1.000
    C22      C        0.93984    0.96032    0.09880    1.000
    H20      H        0.96200    0.95340    0.08290    1.000
    H21      H        0.92610    0.96230    0.05230    1.000
    C23      C        0.92504    0.93451    0.15280    1.000
    H22      H        0.92760    0.91270    0.12910    1.000
    H23      H        0.93750    0.93450    0.20140    1.000
    C24      C        0.88929    0.94011    0.17030    1.000
    H24      H        0.87700    0.94050    0.12150    1.000
    H25      H        0.88680    0.96190    0.19450    1.000
    C25      C        0.87416    0.91455    0.22260    1.000
    H26      H        0.88660    0.91380    0.27120    1.000
    H27      H        0.87600    0.89280    0.19800    1.000
    C26      C        0.83800    0.92152    0.24030    1.000
    H28      H        0.83570    0.94400    0.25900    1.000
    H29      H        0.83030    0.90620    0.27950    1.000
    H30      H        0.82500    0.91880    0.19360    1.000
    C27      C        0.89615    0.02134    0.34550    1.000
    H31      H        0.88940    0.04250    0.32940    1.000
    C28      C        0.87425    0.00193    0.38540    1.000
    H32      H        0.85300    0.01000    0.39670    1.000
    C29      C        0.88310    0.97109    0.40870    1.000
    C30      C        0.91400    0.96137    0.39240    1.000
    H33      H        0.92130    0.94040    0.40850    1.000
    C31      C        0.93483    0.98161    0.35270    1.000
    H34      H        0.95630    0.97400    0.34170    1.000
    C32      C        0.86023    0.94918    0.45400    1.000
    H35      H        0.83730    0.95530    0.44280    1.000
    H36      H        0.86350    0.92620    0.43810    1.000
    Mn3      Mn       0.11288    0.97001    0.97416    1.000
    O7       O        0.14867    0.99195    0.93405    1.000
    O8       O        0.11813    0.04746    0.12779    1.000
    O9       O        0.07537    0.95244    0.02720    1.000
    N6       N        0.10629    0.00439    0.05004    1.000
    N7       N        0.07849    0.99969    0.09708    1.000
    N8       N        0.80875    0.89500    0.69200    1.000
    C33      C        0.16570    0.01652    0.96427    1.000
    C34      C        0.19556    0.02420    0.92879    1.000
    H37      H        0.20240    0.01200    0.88530    1.000
    C35      C        0.21499    0.04911    0.95610    1.000
    H38      H        0.23510    0.05380    0.93120    1.000
    C36      C        0.20575    0.06739    0.01943    1.000
    H39      H        0.21930    0.08450    0.03820    1.000
    C37      C        0.17651    0.06012    0.05434    1.000
    H40      H        0.17000    0.07260    0.09760    1.000
    C38      C        0.15592    0.03507    0.02880    1.000
    C39      C        0.12541    0.02880    0.07019    1.000
    C40      C        0.06475    0.97192    0.08098    1.000
    C41      C        0.03628    0.96002    0.12780    1.000
    H41      H        0.02790    0.97820    0.15970    1.000
    H42      H        0.01850    0.95290    0.09310    1.000
    C42      C        0.04635    0.93102    0.18040    1.000
    H43      H        0.06280    0.93880    0.21770    1.000
    H44      H        0.05680    0.91390    0.14860    1.000
    C43      C        0.01803    0.91610    0.22350    1.000
    H45      H        0.02010    0.89210    0.21760    1.000
    H46      H        0.99790    0.92260    0.19570    1.000
    C44      C        0.01300    0.92100    0.28830    1.000
    H47      H        0.03390    0.91770    0.31590    1.000
    H48      H        0.00740    0.94440    0.29360    1.000
    C45      C        0.98652    0.90120    0.33120    1.000
    H49      H        0.98130    0.88140    0.30220    1.000
    H50      H        0.99460    0.89520    0.38210    1.000
    H51      H        0.96680    0.91460    0.33660    1.000
    C46      C        0.80683    0.89009    0.61681    1.000
    H52      H        0.79240    0.87360    0.59870    1.000
    C47      C        0.82471    0.90764    0.56360    1.000
    H53      H        0.82260    0.90310    0.51040    1.000
    C48      C        0.84563    0.93179    0.58890    1.000
    C49      C        0.84718    0.93741    0.66670    1.000
    H54      H        0.86090    0.95420    0.68650    1.000
    C50      C        0.82864    0.91850    0.71560    1.000
    H55      H        0.83020    0.92250    0.76910    1.000
    C51      C        0.86620    0.95219    0.53450    1.000
    H56      H        0.86320    0.97550    0.54860    1.000
    H57      H        0.88940    0.94670    0.54380    1.000
    Mn4      Mn       0.57662    0.54019    0.68411    1.000
    O10      O        0.59454    0.51303    0.75969    1.000
    O11      O        0.49453    0.52522    0.81964    1.000
    O12      O        0.55125    0.56634    0.61309    1.000
    N9       N        0.53399    0.53611    0.73084    1.000
    N10      N        0.50835    0.55137    0.68890    1.000
    C52      C        0.58075    0.50016    0.82213    1.000
    C53      C        0.60029    0.48021    0.86810    1.000
    H58      H        0.62210    0.47560    0.85290    1.000
    C54      C        0.58840    0.46708    0.93550    1.000
    H59      H        0.60210    0.45340    0.96560    1.000
    C55      C        0.55689    0.47343    0.96010    1.000
    H60      H        0.54910    0.46510    0.00750    1.000
    C56      C        0.53685    0.49234    0.91340    1.000
    H61      H        0.51500    0.49640    0.92890    1.000
    C57      C        0.54811    0.50557    0.84406    1.000
    C58      C        0.52440    0.52321    0.79661    1.000
    C59      C        0.51991    0.56594    0.62827    1.000
    C60      C        0.49763    0.58313    0.57333    1.000
    H62      H        0.47480    0.58060    0.59100    1.000
    H63      H        0.49950    0.57270    0.52240    1.000
    C61      C        0.50533    0.61932    0.56550    1.000
    H64      H        0.49140    0.62880    0.52480    1.000
    H65      H        0.52840    0.62190    0.54980    1.000
    C62      C        0.49962    0.63814    0.64040    1.000
    H66      H        0.51430    0.62930    0.68040    1.000
    H67      H        0.47680    0.63460    0.65740    1.000
    C63      C        0.50571    0.67504    0.63240    1.000
    H68      H        0.49120    0.68400    0.59210    1.000
    H69      H        0.52860    0.67880    0.61640    1.000
    C64      C        0.49921    0.69319    0.70870    1.000
    H70      H        0.47760    0.68710    0.72830    1.000
    H71      H        0.50000    0.71680    0.70000    1.000
    H72      H        0.51600    0.68710    0.74630    1.000
    Mn5      Mn       0.46017    0.53785    0.74507    1.000
    N11      N        0.42616    0.54355    0.66866    1.000
    N12      N        0.42170    0.51632    0.61937    1.000
    N13      N        0.42618    0.51159    0.82875    1.000
    O13      O        0.45153    0.57909    0.78429    1.000
    O14      O        0.38506    0.56698    0.59968    1.000
    O15      O        0.46312    0.49617    0.69315    1.000
    C65      C        0.42774    0.60008    0.76819    1.000
    C66      C        0.42513    0.62811    0.81450    1.000
    H73      H        0.44030    0.63150    0.85490    1.000
    C67      C        0.40074    0.65082    0.80200    1.000
    H74      H        0.39940    0.66960    0.83390    1.000
    C68      C        0.37843    0.64669    0.74420    1.000
    H75      H        0.36140    0.66220    0.73670    1.000
    C69      C        0.38095    0.61986    0.69721    1.000
    H76      H        0.36580    0.61730    0.65650    1.000
    C70      C        0.40533    0.59616    0.70783    1.000
    C71      C        0.40548    0.56771    0.65578    1.000
    C72      C        0.44181    0.49297    0.63822    1.000
    C73      C        0.43984    0.46032    0.59880    1.000
    H77      H        0.46200    0.45340    0.58290    1.000
    H78      H        0.42610    0.46230    0.55230    1.000
    C74      C        0.42504    0.43451    0.65280    1.000
    H79      H        0.42760    0.41270    0.62910    1.000
    H80      H        0.43750    0.43450    0.70140    1.000
    C75      C        0.38929    0.44011    0.67030    1.000
    H81      H        0.37700    0.44050    0.62150    1.000
    H82      H        0.38680    0.46190    0.69450    1.000
    C76      C        0.37416    0.41455    0.72260    1.000
    H83      H        0.38660    0.41380    0.77120    1.000
    H84      H        0.37600    0.39280    0.69800    1.000
    C77      C        0.33800    0.42152    0.74030    1.000
    H85      H        0.33570    0.44400    0.75900    1.000
    H86      H        0.33030    0.40620    0.77950    1.000
    H87      H        0.32500    0.41880    0.69360    1.000
    C78      C        0.39615    0.52134    0.84550    1.000
    H88      H        0.38940    0.54250    0.82940    1.000
    C79      C        0.37425    0.50193    0.88540    1.000
    H89      H        0.35300    0.51000    0.89670    1.000
    C80      C        0.38310    0.47109    0.90870    1.000
    C81      C        0.41400    0.46137    0.89240    1.000
    H90      H        0.42130    0.44040    0.90850    1.000
    C82      C        0.43483    0.48161    0.85270    1.000
    H91      H        0.45630    0.47400    0.84170    1.000
    C83      C        0.36023    0.44918    0.95400    1.000
    H92      H        0.33730    0.45530    0.94280    1.000
    H93      H        0.36350    0.42620    0.93810    1.000
    Mn6      Mn       0.61288    0.47001    0.47416    1.000
    O16      O        0.64867    0.49195    0.43405    1.000
    O17      O        0.61813    0.54746    0.62779    1.000
    O18      O        0.57537    0.45244    0.52720    1.000
    N14      N        0.60629    0.50439    0.55004    1.000
    N15      N        0.57849    0.49969    0.59708    1.000
    N16      N        0.30875    0.39500    0.19200    1.000
    C84      C        0.66570    0.51652    0.46427    1.000
    C85      C        0.69556    0.52420    0.42879    1.000
    H94      H        0.70240    0.51200    0.38530    1.000
    C86      C        0.71499    0.54911    0.45610    1.000
    H95      H        0.73510    0.55380    0.43120    1.000
    C87      C        0.70575    0.56739    0.51943    1.000
    H96      H        0.71930    0.58450    0.53820    1.000
    C88      C        0.67651    0.56012    0.55434    1.000
    H97      H        0.67000    0.57260    0.59760    1.000
    C89      C        0.65592    0.53507    0.52880    1.000
    C90      C        0.62541    0.52880    0.57019    1.000
    C91      C        0.56475    0.47192    0.58098    1.000
    C92      C        0.53628    0.46002    0.62780    1.000
    H98      H        0.52790    0.47820    0.65970    1.000
    H99      H        0.51850    0.45290    0.59310    1.000
    C93      C        0.54635    0.43102    0.68040    1.000
    H100     H        0.56280    0.43880    0.71770    1.000
    H101     H        0.55680    0.41390    0.64860    1.000
    C94      C        0.51803    0.41610    0.72350    1.000
    H102     H        0.52010    0.39210    0.71760    1.000
    H103     H        0.49790    0.42260    0.69570    1.000
    C95      C        0.51300    0.42100    0.78830    1.000
    H104     H        0.53390    0.41770    0.81590    1.000
    H105     H        0.50740    0.44440    0.79360    1.000
    C96      C        0.48652    0.40120    0.83120    1.000
    H106     H        0.48130    0.38140    0.80220    1.000
    H107     H        0.49460    0.39520    0.88210    1.000
    H108     H        0.46680    0.41460    0.83660    1.000
    C97      C        0.30683    0.39009    0.11681    1.000
    H109     H        0.29240    0.37360    0.09870    1.000
    C98      C        0.32471    0.40764    0.06360    1.000
    H110     H        0.32260    0.40310    0.01040    1.000
    C99      C        0.34563    0.43179    0.08890    1.000
    C100     C        0.34718    0.43741    0.16670    1.000
    H111     H        0.36090    0.45420    0.18650    1.000
    C101     C        0.32864    0.41850    0.21560    1.000
    H112     H        0.33020    0.42250    0.26910    1.000
    C102     C        0.36620    0.45219    0.03450    1.000
    H113     H        0.36320    0.47550    0.04860    1.000
    H114     H        0.38940    0.44670    0.04380    1.000
    Mn7      Mn       0.42338    0.95981    0.68411    1.000
    O19      O        0.40546    0.98697    0.75969    1.000
    O20      O        0.50547    0.97478    0.81964    1.000
    O21      O        0.44875    0.93366    0.61309    1.000
    N17      N        0.46601    0.96389    0.73084    1.000
    N18      N        0.49165    0.94863    0.68890    1.000
    C103     C        0.41925    0.99984    0.82213    1.000
    C104     C        0.39971    0.01979    0.86810    1.000
    H115     H        0.37790    0.02440    0.85290    1.000
    C105     C        0.41160    0.03292    0.93550    1.000
    H116     H        0.39790    0.04660    0.96560    1.000
    C106     C        0.44311    0.02657    0.96010    1.000
    H117     H        0.45090    0.03490    0.00750    1.000
    C107     C        0.46315    0.00766    0.91340    1.000
    H118     H        0.48500    0.00360    0.92890    1.000
    C108     C        0.45189    0.99443    0.84406    1.000
    C109     C        0.47560    0.97679    0.79661    1.000
    C110     C        0.48009    0.93406    0.62827    1.000
    C111     C        0.50237    0.91687    0.57333    1.000
    H119     H        0.52520    0.91940    0.59100    1.000
    H120     H        0.50050    0.92730    0.52240    1.000
    C112     C        0.49467    0.88068    0.56550    1.000
    H121     H        0.50860    0.87120    0.52480    1.000
    H122     H        0.47160    0.87810    0.54980    1.000
    C113     C        0.50038    0.86186    0.64040    1.000
    H123     H        0.48570    0.87070    0.68040    1.000
    H124     H        0.52320    0.86540    0.65740    1.000
    C114     C        0.49429    0.82496    0.63240    1.000
    H125     H        0.50880    0.81600    0.59210    1.000
    H126     H        0.47140    0.82120    0.61640    1.000
    C115     C        0.50079    0.80681    0.70870    1.000
    H127     H        0.52240    0.81290    0.72830    1.000
    H128     H        0.50000    0.78320    0.70000    1.000
    H129     H        0.48400    0.81290    0.74630    1.000
    Mn8      Mn       0.53983    0.96215    0.74507    1.000
    N19      N        0.57384    0.95645    0.66866    1.000
    N20      N        0.57830    0.98368    0.61937    1.000
    N21      N        0.57382    0.98841    0.82875    1.000
    O22      O        0.54847    0.92091    0.78429    1.000
    O23      O        0.61494    0.93302    0.59968    1.000
    O24      O        0.53688    0.00383    0.69315    1.000
    C116     C        0.57226    0.89992    0.76819    1.000
    C117     C        0.57487    0.87189    0.81450    1.000
    H130     H        0.55970    0.86850    0.85490    1.000
    C118     C        0.59926    0.84918    0.80200    1.000
    H131     H        0.60060    0.83040    0.83390    1.000
    C119     C        0.62157    0.85331    0.74420    1.000
    H132     H        0.63860    0.83780    0.73670    1.000
    C120     C        0.61905    0.88014    0.69721    1.000
    H133     H        0.63420    0.88270    0.65650    1.000
    C121     C        0.59467    0.90384    0.70783    1.000
    C122     C        0.59452    0.93229    0.65578    1.000
    C123     C        0.55819    0.00703    0.63822    1.000
    C124     C        0.56016    0.03968    0.59880    1.000
    H134     H        0.53800    0.04660    0.58290    1.000
    H135     H        0.57390    0.03770    0.55230    1.000
    C125     C        0.57496    0.06549    0.65280    1.000
    H136     H        0.57240    0.08730    0.62910    1.000
    H137     H        0.56250    0.06550    0.70140    1.000
    C126     C        0.61071    0.05989    0.67030    1.000
    H138     H        0.62300    0.05950    0.62150    1.000
    H139     H        0.61320    0.03810    0.69450    1.000
    C127     C        0.62584    0.08545    0.72260    1.000
    H140     H        0.61340    0.08620    0.77120    1.000
    H141     H        0.62400    0.10720    0.69800    1.000
    C128     C        0.66200    0.07848    0.74030    1.000
    H142     H        0.66430    0.05600    0.75900    1.000
    H143     H        0.66970    0.09380    0.77950    1.000
    H144     H        0.67500    0.08120    0.69360    1.000
    C129     C        0.60385    0.97866    0.84550    1.000
    H145     H        0.61060    0.95750    0.82940    1.000
    C130     C        0.62575    0.99807    0.88540    1.000
    H146     H        0.64700    0.99000    0.89670    1.000
    C131     C        0.61690    0.02891    0.90870    1.000
    C132     C        0.58600    0.03863    0.89240    1.000
    H147     H        0.57870    0.05960    0.90850    1.000
    C133     C        0.56517    0.01839    0.85270    1.000
    H148     H        0.54370    0.02600    0.84170    1.000
    C134     C        0.63977    0.05082    0.95400    1.000
    H149     H        0.66270    0.04470    0.94280    1.000
    H150     H        0.63650    0.07380    0.93810    1.000
    Mn9      Mn       0.38712    0.02999    0.47416    1.000
    O25      O        0.35133    0.00805    0.43405    1.000
    O26      O        0.38187    0.95254    0.62779    1.000
    O27      O        0.42463    0.04756    0.52720    1.000
    N22      N        0.39371    0.99561    0.55004    1.000
    N23      N        0.42151    0.00031    0.59708    1.000
    N24      N        0.69125    0.10500    0.19200    1.000
    C135     C        0.33430    0.98348    0.46427    1.000
    C136     C        0.30444    0.97580    0.42879    1.000
    H151     H        0.29760    0.98800    0.38530    1.000
    C137     C        0.28501    0.95089    0.45610    1.000
    H152     H        0.26490    0.94620    0.43120    1.000
    C138     C        0.29425    0.93261    0.51943    1.000
    H153     H        0.28070    0.91550    0.53820    1.000
    C139     C        0.32349    0.93988    0.55434    1.000
    H154     H        0.33000    0.92740    0.59760    1.000
    C140     C        0.34408    0.96493    0.52880    1.000
    C141     C        0.37459    0.97120    0.57019    1.000
    C142     C        0.43525    0.02808    0.58098    1.000
    C143     C        0.46372    0.03998    0.62780    1.000
    H155     H        0.47210    0.02180    0.65970    1.000
    H156     H        0.48150    0.04710    0.59310    1.000
    C144     C        0.45365    0.06898    0.68040    1.000
    H157     H        0.43720    0.06120    0.71770    1.000
    H158     H        0.44320    0.08610    0.64860    1.000
    C145     C        0.48197    0.08390    0.72350    1.000
    H159     H        0.47990    0.10790    0.71760    1.000
    H160     H        0.50210    0.07740    0.69570    1.000
    C146     C        0.48700    0.07900    0.78830    1.000
    H161     H        0.46610    0.08230    0.81590    1.000
    H162     H        0.49260    0.05560    0.79360    1.000
    C147     C        0.51348    0.09880    0.83120    1.000
    H163     H        0.51870    0.11860    0.80220    1.000
    H164     H        0.50540    0.10480    0.88210    1.000
    H165     H        0.53320    0.08540    0.83660    1.000
    C148     C        0.69317    0.10991    0.11681    1.000
    H166     H        0.70760    0.12640    0.09870    1.000
    C149     C        0.67529    0.09236    0.06360    1.000
    H167     H        0.67740    0.09690    0.01040    1.000
    C150     C        0.65437    0.06821    0.08890    1.000
    C151     C        0.65282    0.06259    0.16670    1.000
    H168     H        0.63910    0.04580    0.18650    1.000
    C152     C        0.67136    0.08150    0.21560    1.000
    H169     H        0.66980    0.07750    0.26910    1.000
    C153     C        0.63380    0.04781    0.03450    1.000
    H170     H        0.63680    0.02450    0.04860    1.000
    H171     H        0.61060    0.05330    0.04380    1.000
    Mn10     Mn       0.92338    0.45981    0.18411    1.000
    O28      O        0.90546    0.48697    0.25969    1.000
    O29      O        0.00547    0.47478    0.31964    1.000
    O30      O        0.94875    0.43366    0.11309    1.000
    N25      N        0.96601    0.46389    0.23084    1.000
    N26      N        0.99165    0.44863    0.18890    1.000
    C154     C        0.91925    0.49984    0.32213    1.000
    C155     C        0.89971    0.51979    0.36810    1.000
    H172     H        0.87790    0.52440    0.35290    1.000
    C156     C        0.91160    0.53292    0.43550    1.000
    H173     H        0.89790    0.54660    0.46560    1.000
    C157     C        0.94311    0.52657    0.46010    1.000
    H174     H        0.95090    0.53490    0.50750    1.000
    C158     C        0.96315    0.50766    0.41340    1.000
    H175     H        0.98500    0.50360    0.42890    1.000
    C159     C        0.95189    0.49443    0.34406    1.000
    C160     C        0.97560    0.47679    0.29661    1.000
    C161     C        0.98009    0.43406    0.12827    1.000
    C162     C        0.00237    0.41687    0.07333    1.000
    H176     H        0.02520    0.41940    0.09100    1.000
    H177     H        0.00050    0.42730    0.02240    1.000
    C163     C        0.99467    0.38068    0.06550    1.000
    H178     H        0.00860    0.37120    0.02480    1.000
    H179     H        0.97160    0.37810    0.04980    1.000
    C164     C        0.00038    0.36186    0.14040    1.000
    H180     H        0.98570    0.37070    0.18040    1.000
    H181     H        0.02320    0.36540    0.15740    1.000
    C165     C        0.99429    0.32496    0.13240    1.000
    H182     H        0.00880    0.31600    0.09210    1.000
    H183     H        0.97140    0.32120    0.11640    1.000
    C166     C        0.00079    0.30681    0.20870    1.000
    H184     H        0.02240    0.31290    0.22830    1.000
    H185     H        0.00000    0.28320    0.20000    1.000
    H186     H        0.98400    0.31290    0.24630    1.000
    Mn11     Mn       0.03983    0.46215    0.24507    1.000
    N27      N        0.07384    0.45645    0.16866    1.000
    N28      N        0.07830    0.48368    0.11937    1.000
    N29      N        0.07382    0.48841    0.32875    1.000
    O31      O        0.04847    0.42091    0.28429    1.000
    O32      O        0.11494    0.43302    0.09968    1.000
    O33      O        0.03688    0.50383    0.19315    1.000
    C167     C        0.07226    0.39992    0.26819    1.000
    C168     C        0.07487    0.37189    0.31450    1.000
    H187     H        0.05970    0.36850    0.35490    1.000
    C169     C        0.09926    0.34918    0.30200    1.000
    H188     H        0.10060    0.33040    0.33390    1.000
    C170     C        0.12157    0.35331    0.24420    1.000
    H189     H        0.13860    0.33780    0.23670    1.000
    C171     C        0.11905    0.38014    0.19721    1.000
    H190     H        0.13420    0.38270    0.15650    1.000
    C172     C        0.09467    0.40384    0.20783    1.000
    C173     C        0.09452    0.43229    0.15578    1.000
    C174     C        0.05819    0.50703    0.13822    1.000
    C175     C        0.06016    0.53968    0.09880    1.000
    H191     H        0.03800    0.54660    0.08290    1.000
    H192     H        0.07390    0.53770    0.05230    1.000
    C176     C        0.07496    0.56549    0.15280    1.000
    H193     H        0.07240    0.58730    0.12910    1.000
    H194     H        0.06250    0.56550    0.20140    1.000
    C177     C        0.11071    0.55989    0.17030    1.000
    H195     H        0.12300    0.55950    0.12150    1.000
    H196     H        0.11320    0.53810    0.19450    1.000
    C178     C        0.12584    0.58545    0.22260    1.000
    H197     H        0.11340    0.58620    0.27120    1.000
    H198     H        0.12400    0.60720    0.19800    1.000
    C179     C        0.16200    0.57848    0.24030    1.000
    H199     H        0.16430    0.55600    0.25900    1.000
    H200     H        0.16970    0.59380    0.27950    1.000
    H201     H        0.17500    0.58120    0.19360    1.000
    C180     C        0.10385    0.47866    0.34550    1.000
    H202     H        0.11060    0.45750    0.32940    1.000
    C181     C        0.12575    0.49807    0.38540    1.000
    H203     H        0.14700    0.49000    0.39670    1.000
    C182     C        0.11690    0.52891    0.40870    1.000
    C183     C        0.08600    0.53863    0.39240    1.000
    H204     H        0.07870    0.55960    0.40850    1.000
    C184     C        0.06517    0.51839    0.35270    1.000
    H205     H        0.04370    0.52600    0.34170    1.000
    C185     C        0.13977    0.55082    0.45400    1.000
    H206     H        0.16270    0.54470    0.44280    1.000
    H207     H        0.13650    0.57380    0.43810    1.000
    Mn12     Mn       0.88712    0.52999    0.97416    1.000
    O34      O        0.85133    0.50805    0.93405    1.000
    O35      O        0.88187    0.45254    0.12779    1.000
    O36      O        0.92463    0.54756    0.02720    1.000
    N30      N        0.89371    0.49561    0.05004    1.000
    N31      N        0.92151    0.50031    0.09708    1.000
    N32      N        0.19125    0.60500    0.69200    1.000
    C186     C        0.83430    0.48348    0.96427    1.000
    C187     C        0.80444    0.47580    0.92879    1.000
    H208     H        0.79760    0.48800    0.88530    1.000
    C188     C        0.78501    0.45089    0.95610    1.000
    H209     H        0.76490    0.44620    0.93120    1.000
    C189     C        0.79425    0.43261    0.01943    1.000
    H210     H        0.78070    0.41550    0.03820    1.000
    C190     C        0.82349    0.43988    0.05434    1.000
    H211     H        0.83000    0.42740    0.09760    1.000
    C191     C        0.84408    0.46493    0.02880    1.000
    C192     C        0.87459    0.47120    0.07019    1.000
    C193     C        0.93525    0.52808    0.08098    1.000
    C194     C        0.96372    0.53998    0.12780    1.000
    H212     H        0.97210    0.52180    0.15970    1.000
    H213     H        0.98150    0.54710    0.09310    1.000
    C195     C        0.95365    0.56898    0.18040    1.000
    H214     H        0.93720    0.56120    0.21770    1.000
    H215     H        0.94320    0.58610    0.14860    1.000
    C196     C        0.98197    0.58390    0.22350    1.000
    H216     H        0.97990    0.60790    0.21760    1.000
    H217     H        0.00210    0.57740    0.19570    1.000
    C197     C        0.98700    0.57900    0.28830    1.000
    H218     H        0.96610    0.58230    0.31590    1.000
    H219     H        0.99260    0.55560    0.29360    1.000
    C198     C        0.01348    0.59880    0.33120    1.000
    H220     H        0.01870    0.61860    0.30220    1.000
    H221     H        0.00540    0.60480    0.38210    1.000
    H222     H        0.03320    0.58540    0.33660    1.000
    C199     C        0.19317    0.60991    0.61681    1.000
    H223     H        0.20760    0.62640    0.59870    1.000
    C200     C        0.17529    0.59236    0.56360    1.000
    H224     H        0.17740    0.59690    0.51040    1.000
    C201     C        0.15437    0.56821    0.58890    1.000
    C202     C        0.15282    0.56259    0.66670    1.000
    H225     H        0.13910    0.54580    0.68650    1.000
    C203     C        0.17136    0.58150    0.71560    1.000
    H226     H        0.16980    0.57750    0.76910    1.000
    C204     C        0.13380    0.54781    0.53450    1.000
    H227     H        0.13680    0.52450    0.54860    1.000
    H228     H        0.11060    0.55330    0.54380    1.000
    Mn13     Mn       0.70981    0.32662    0.43411    1.000
    O37      O        0.73697    0.34454    0.50969    1.000
    O38      O        0.72478    0.24453    0.56964    1.000
    O39      O        0.68366    0.30125    0.36309    1.000
    N33      N        0.71389    0.28399    0.48084    1.000
    N34      N        0.69863    0.25835    0.43890    1.000
    C205     C        0.74984    0.33075    0.57213    1.000
    C206     C        0.76979    0.35029    0.61810    1.000
    H229     H        0.77440    0.37210    0.60290    1.000
    C207     C        0.78292    0.33840    0.68550    1.000
    H230     H        0.79660    0.35210    0.71560    1.000
    C208     C        0.77657    0.30689    0.71010    1.000
    H231     H        0.78490    0.29910    0.75750    1.000
    C209     C        0.75766    0.28685    0.66340    1.000
    H232     H        0.75360    0.26500    0.67890    1.000
    C210     C        0.74443    0.29811    0.59406    1.000
    C211     C        0.72679    0.27440    0.54661    1.000
    C212     C        0.68406    0.26991    0.37827    1.000
    C213     C        0.66687    0.24763    0.32333    1.000
    H233     H        0.66940    0.22480    0.34100    1.000
    H234     H        0.67730    0.24950    0.27240    1.000
    C214     C        0.63068    0.25533    0.31550    1.000
    H235     H        0.62120    0.24140    0.27480    1.000
    H236     H        0.62810    0.27840    0.29980    1.000
    C215     C        0.61186    0.24962    0.39040    1.000
    H237     H        0.62070    0.26430    0.43040    1.000
    H238     H        0.61540    0.22680    0.40740    1.000
    C216     C        0.57496    0.25571    0.38240    1.000
    H239     H        0.56600    0.24120    0.34210    1.000
    H240     H        0.57120    0.27860    0.36640    1.000
    C217     C        0.55681    0.24921    0.45870    1.000
    H241     H        0.56290    0.22760    0.47830    1.000
    H242     H        0.53320    0.25000    0.45000    1.000
    H243     H        0.56290    0.26600    0.49630    1.000
    Mn14     Mn       0.71215    0.21017    0.49507    1.000
    N35      N        0.70645    0.17616    0.41866    1.000
    N36      N        0.73368    0.17170    0.36937    1.000
    N37      N        0.73841    0.17618    0.57875    1.000
    O40      O        0.67091    0.20153    0.53429    1.000
    O41      O        0.68302    0.13506    0.34968    1.000
    O42      O        0.75383    0.21312    0.44315    1.000
    C218     C        0.64992    0.17774    0.51819    1.000
    C219     C        0.62189    0.17513    0.56450    1.000
    H244     H        0.61850    0.19030    0.60490    1.000
    C220     C        0.59918    0.15074    0.55200    1.000
    H245     H        0.58040    0.14940    0.58390    1.000
    C221     C        0.60331    0.12843    0.49420    1.000
    H246     H        0.58780    0.11140    0.48670    1.000
    C222     C        0.63014    0.13095    0.44721    1.000
    H247     H        0.63270    0.11580    0.40650    1.000
    C223     C        0.65384    0.15533    0.45783    1.000
    C224     C        0.68229    0.15548    0.40578    1.000
    C225     C        0.75703    0.19181    0.38822    1.000
    C226     C        0.78968    0.18984    0.34880    1.000
    H248     H        0.79660    0.21200    0.33290    1.000
    H249     H        0.78770    0.17610    0.30230    1.000
    C227     C        0.81549    0.17504    0.40280    1.000
    H250     H        0.83730    0.17760    0.37910    1.000
    H251     H        0.81550    0.18750    0.45140    1.000
    C228     C        0.80989    0.13929    0.42030    1.000
    H252     H        0.80950    0.12700    0.37150    1.000
    H253     H        0.78810    0.13680    0.44450    1.000
    C229     C        0.83545    0.12416    0.47260    1.000
    H254     H        0.83620    0.13660    0.52120    1.000
    H255     H        0.85720    0.12600    0.44800    1.000
    C230     C        0.82848    0.08800    0.49030    1.000
    H256     H        0.80600    0.08570    0.50900    1.000
    H257     H        0.84380    0.08030    0.52950    1.000
    H258     H        0.83120    0.07500    0.44360    1.000
    C231     C        0.72866    0.14615    0.59550    1.000
    H259     H        0.70750    0.13940    0.57940    1.000
    C232     C        0.74807    0.12425    0.63540    1.000
    H260     H        0.74000    0.10300    0.64670    1.000
    C233     C        0.77891    0.13310    0.65870    1.000
    C234     C        0.78863    0.16400    0.64240    1.000
    H261     H        0.80960    0.17130    0.65850    1.000
    C235     C        0.76839    0.18483    0.60270    1.000
    H262     H        0.77600    0.20630    0.59170    1.000
    C236     C        0.80082    0.11023    0.70400    1.000
    H263     H        0.79470    0.08730    0.69280    1.000
    H264     H        0.82380    0.11350    0.68810    1.000
    Mn15     Mn       0.77999    0.36288    0.22416    1.000
    O43      O        0.75805    0.39867    0.18405    1.000
    O44      O        0.70254    0.36813    0.37779    1.000
    O45      O        0.79756    0.32537    0.27720    1.000
    N38      N        0.74561    0.35629    0.30004    1.000
    N39      N        0.75031    0.32849    0.34708    1.000
    N40      N        0.85500    0.05875    0.94200    1.000
    C237     C        0.73348    0.41570    0.21427    1.000
    C238     C        0.72580    0.44556    0.17879    1.000
    H265     H        0.73800    0.45240    0.13530    1.000
    C239     C        0.70089    0.46499    0.20610    1.000
    H266     H        0.69620    0.48510    0.18120    1.000
    C240     C        0.68261    0.45575    0.26943    1.000
    H267     H        0.66550    0.46930    0.28820    1.000
    C241     C        0.68988    0.42651    0.30434    1.000
    H268     H        0.67740    0.42000    0.34760    1.000
    C242     C        0.71493    0.40592    0.27880    1.000
    C243     C        0.72120    0.37541    0.32019    1.000
    C244     C        0.77808    0.31475    0.33098    1.000
    C245     C        0.78998    0.28628    0.37780    1.000
    H269     H        0.77180    0.27790    0.40970    1.000
    H270     H        0.79710    0.26850    0.34310    1.000
    C246     C        0.81898    0.29635    0.43040    1.000
    H271     H        0.81120    0.31280    0.46770    1.000
    H272     H        0.83610    0.30680    0.39860    1.000
    C247     C        0.83390    0.26803    0.47350    1.000
    H273     H        0.85790    0.27010    0.46760    1.000
    H274     H        0.82740    0.24790    0.44570    1.000
    C248     C        0.82900    0.26300    0.53830    1.000
    H275     H        0.83230    0.28390    0.56590    1.000
    H276     H        0.80560    0.25740    0.54360    1.000
    C249     C        0.84880    0.23652    0.58120    1.000
    H277     H        0.86860    0.23130    0.55220    1.000
    H278     H        0.85480    0.24460    0.63210    1.000
    H279     H        0.83540    0.21680    0.58660    1.000
    C250     C        0.85991    0.05683    0.86681    1.000
    H280     H        0.87640    0.04240    0.84870    1.000
    C251     C        0.84236    0.07471    0.81360    1.000
    H281     H        0.84690    0.07260    0.76040    1.000
    C252     C        0.81821    0.09563    0.83890    1.000
    C253     C        0.81259    0.09718    0.91670    1.000
    H282     H        0.79580    0.11090    0.93650    1.000
    C254     C        0.83150    0.07864    0.96560    1.000
    H283     H        0.82750    0.08020    0.01910    1.000
    C255     C        0.79781    0.11620    0.78450    1.000
    H284     H        0.77450    0.11320    0.79860    1.000
    H285     H        0.80330    0.13940    0.79380    1.000
    Mn16     Mn       0.20981    0.82662    0.93411    1.000
    O46      O        0.23697    0.84454    0.00969    1.000
    O47      O        0.22478    0.74453    0.06964    1.000
    O48      O        0.18366    0.80125    0.86309    1.000
    N41      N        0.21389    0.78399    0.98084    1.000
    N42      N        0.19863    0.75835    0.93890    1.000
    C256     C        0.24984    0.83075    0.07213    1.000
    C257     C        0.26979    0.85029    0.11810    1.000
    H286     H        0.27440    0.87210    0.10290    1.000
    C258     C        0.28292    0.83840    0.18550    1.000
    H287     H        0.29660    0.85210    0.21560    1.000
    C259     C        0.27657    0.80689    0.21010    1.000
    H288     H        0.28490    0.79910    0.25750    1.000
    C260     C        0.25766    0.78685    0.16340    1.000
    H289     H        0.25360    0.76500    0.17890    1.000
    C261     C        0.24443    0.79811    0.09406    1.000
    C262     C        0.22679    0.77440    0.04661    1.000
    C263     C        0.18406    0.76991    0.87827    1.000
    C264     C        0.16687    0.74763    0.82333    1.000
    H290     H        0.16940    0.72480    0.84100    1.000
    H291     H        0.17730    0.74950    0.77240    1.000
    C265     C        0.13068    0.75533    0.81550    1.000
    H292     H        0.12120    0.74140    0.77480    1.000
    H293     H        0.12810    0.77840    0.79980    1.000
    C266     C        0.11186    0.74962    0.89040    1.000
    H294     H        0.12070    0.76430    0.93040    1.000
    H295     H        0.11540    0.72680    0.90740    1.000
    C267     C        0.07496    0.75571    0.88240    1.000
    H296     H        0.06600    0.74120    0.84210    1.000
    H297     H        0.07120    0.77860    0.86640    1.000
    C268     C        0.05681    0.74921    0.95870    1.000
    H298     H        0.06290    0.72760    0.97830    1.000
    H299     H        0.03320    0.75000    0.95000    1.000
    H300     H        0.06290    0.76600    0.99630    1.000
    Mn17     Mn       0.21215    0.71017    0.99507    1.000
    N43      N        0.20645    0.67616    0.91866    1.000
    N44      N        0.23368    0.67170    0.86937    1.000
    N45      N        0.23841    0.67618    0.07875    1.000
    O49      O        0.17091    0.70153    0.03429    1.000
    O50      O        0.18302    0.63506    0.84968    1.000
    O51      O        0.25383    0.71312    0.94315    1.000
    C269     C        0.14992    0.67774    0.01819    1.000
    C270     C        0.12189    0.67513    0.06450    1.000
    H301     H        0.11850    0.69030    0.10490    1.000
    C271     C        0.09918    0.65074    0.05200    1.000
    H302     H        0.08040    0.64940    0.08390    1.000
    C272     C        0.10331    0.62843    0.99420    1.000
    H303     H        0.08780    0.61140    0.98670    1.000
    C273     C        0.13014    0.63095    0.94721    1.000
    H304     H        0.13270    0.61580    0.90650    1.000
    C274     C        0.15384    0.65533    0.95783    1.000
    C275     C        0.18229    0.65548    0.90578    1.000
    C276     C        0.25703    0.69181    0.88822    1.000
    C277     C        0.28968    0.68984    0.84880    1.000
    H305     H        0.29660    0.71200    0.83290    1.000
    H306     H        0.28770    0.67610    0.80230    1.000
    C278     C        0.31549    0.67504    0.90280    1.000
    H307     H        0.33730    0.67760    0.87910    1.000
    H308     H        0.31550    0.68750    0.95140    1.000
    C279     C        0.30989    0.63929    0.92030    1.000
    H309     H        0.30950    0.62700    0.87150    1.000
    H310     H        0.28810    0.63680    0.94450    1.000
    C280     C        0.33545    0.62416    0.97260    1.000
    H311     H        0.33620    0.63660    0.02120    1.000
    H312     H        0.35720    0.62600    0.94800    1.000
    C281     C        0.32848    0.58800    0.99030    1.000
    H313     H        0.30600    0.58570    0.00900    1.000
    H314     H        0.34380    0.58030    0.02950    1.000
    H315     H        0.33120    0.57500    0.94360    1.000
    C282     C        0.22866    0.64615    0.09550    1.000
    H316     H        0.20750    0.63940    0.07940    1.000
    C283     C        0.24807    0.62425    0.13540    1.000
    H317     H        0.24000    0.60300    0.14670    1.000
    C284     C        0.27891    0.63310    0.15870    1.000
    C285     C        0.28863    0.66400    0.14240    1.000
    H318     H        0.30960    0.67130    0.15850    1.000
    C286     C        0.26839    0.68483    0.10270    1.000
    H319     H        0.27600    0.70630    0.09170    1.000
    C287     C        0.30082    0.61023    0.20400    1.000
    H320     H        0.29470    0.58730    0.19280    1.000
    H321     H        0.32380    0.61350    0.18810    1.000
    Mn18     Mn       0.27999    0.86288    0.72416    1.000
    O52      O        0.25805    0.89867    0.68405    1.000
    O53      O        0.20254    0.86813    0.87779    1.000
    O54      O        0.29756    0.82537    0.77720    1.000
    N46      N        0.24561    0.85629    0.80004    1.000
    N47      N        0.25031    0.82849    0.84708    1.000
    N48      N        0.35500    0.55875    0.44200    1.000
    C288     C        0.23348    0.91570    0.71427    1.000
    C289     C        0.22580    0.94556    0.67879    1.000
    H322     H        0.23800    0.95240    0.63530    1.000
    C290     C        0.20089    0.96499    0.70610    1.000
    H323     H        0.19620    0.98510    0.68120    1.000
    C291     C        0.18261    0.95575    0.76943    1.000
    H324     H        0.16550    0.96930    0.78820    1.000
    C292     C        0.18988    0.92651    0.80434    1.000
    H325     H        0.17740    0.92000    0.84760    1.000
    C293     C        0.21493    0.90592    0.77880    1.000
    C294     C        0.22120    0.87541    0.82019    1.000
    C295     C        0.27808    0.81475    0.83098    1.000
    C296     C        0.28998    0.78628    0.87780    1.000
    H326     H        0.27180    0.77790    0.90970    1.000
    H327     H        0.29710    0.76850    0.84310    1.000
    C297     C        0.31898    0.79635    0.93040    1.000
    H328     H        0.31120    0.81280    0.96770    1.000
    H329     H        0.33610    0.80680    0.89860    1.000
    C298     C        0.33390    0.76803    0.97350    1.000
    H330     H        0.35790    0.77010    0.96760    1.000
    H331     H        0.32740    0.74790    0.94570    1.000
    C299     C        0.32900    0.76300    0.03830    1.000
    H332     H        0.33230    0.78390    0.06590    1.000
    H333     H        0.30560    0.75740    0.04360    1.000
    C300     C        0.34880    0.73652    0.08120    1.000
    H334     H        0.36860    0.73130    0.05220    1.000
    H335     H        0.35480    0.74460    0.13210    1.000
    H336     H        0.33540    0.71680    0.08660    1.000
    C301     C        0.35991    0.55683    0.36681    1.000
    H337     H        0.37640    0.54240    0.34870    1.000
    C302     C        0.34236    0.57471    0.31360    1.000
    H338     H        0.34690    0.57260    0.26040    1.000
    C303     C        0.31821    0.59563    0.33890    1.000
    C304     C        0.31259    0.59718    0.41670    1.000
    H339     H        0.29580    0.61090    0.43650    1.000
    C305     C        0.33150    0.57864    0.46560    1.000
    H340     H        0.32750    0.58020    0.51910    1.000
    C306     C        0.29781    0.61620    0.28450    1.000
    H341     H        0.27450    0.61320    0.29860    1.000
    H342     H        0.30330    0.63940    0.29380    1.000
    Mn19     Mn       0.79019    0.67338    0.93411    1.000
    O55      O        0.76303    0.65546    0.00969    1.000
    O56      O        0.77522    0.75547    0.06964    1.000
    O57      O        0.81634    0.69875    0.86309    1.000
    N49      N        0.78611    0.71601    0.98084    1.000
    N50      N        0.80137    0.74165    0.93890    1.000
    C307     C        0.75016    0.66925    0.07213    1.000
    C308     C        0.73021    0.64971    0.11810    1.000
    H343     H        0.72560    0.62790    0.10290    1.000
    C309     C        0.71708    0.66160    0.18550    1.000
    H344     H        0.70340    0.64790    0.21560    1.000
    C310     C        0.72343    0.69311    0.21010    1.000
    H345     H        0.71510    0.70090    0.25750    1.000
    C311     C        0.74234    0.71315    0.16340    1.000
    H346     H        0.74640    0.73500    0.17890    1.000
    C312     C        0.75557    0.70189    0.09406    1.000
    C313     C        0.77321    0.72560    0.04661    1.000
    C314     C        0.81594    0.73009    0.87827    1.000
    C315     C        0.83313    0.75237    0.82333    1.000
    H347     H        0.83060    0.77520    0.84100    1.000
    H348     H        0.82270    0.75050    0.77240    1.000
    C316     C        0.86932    0.74467    0.81550    1.000
    H349     H        0.87880    0.75860    0.77480    1.000
    H350     H        0.87190    0.72160    0.79980    1.000
    C317     C        0.88814    0.75038    0.89040    1.000
    H351     H        0.87930    0.73570    0.93040    1.000
    H352     H        0.88460    0.77320    0.90740    1.000
    C318     C        0.92504    0.74429    0.88240    1.000
    H353     H        0.93400    0.75880    0.84210    1.000
    H354     H        0.92880    0.72140    0.86640    1.000
    C319     C        0.94319    0.75079    0.95870    1.000
    H355     H        0.93710    0.77240    0.97830    1.000
    H356     H        0.96680    0.75000    0.95000    1.000
    H357     H        0.93710    0.73400    0.99630    1.000
    Mn20     Mn       0.78785    0.78983    0.99507    1.000
    N51      N        0.79355    0.82384    0.91866    1.000
    N52      N        0.76632    0.82830    0.86937    1.000
    N53      N        0.76159    0.82382    0.07875    1.000
    O58      O        0.82909    0.79847    0.03429    1.000
    O59      O        0.81698    0.86494    0.84968    1.000
    O60      O        0.74617    0.78688    0.94315    1.000
    C320     C        0.85008    0.82226    0.01819    1.000
    C321     C        0.87811    0.82487    0.06450    1.000
    H358     H        0.88150    0.80970    0.10490    1.000
    C322     C        0.90082    0.84926    0.05200    1.000
    H359     H        0.91960    0.85060    0.08390    1.000
    C323     C        0.89669    0.87157    0.99420    1.000
    H360     H        0.91220    0.88860    0.98670    1.000
    C324     C        0.86986    0.86905    0.94721    1.000
    H361     H        0.86730    0.88420    0.90650    1.000
    C325     C        0.84616    0.84467    0.95783    1.000
    C326     C        0.81771    0.84452    0.90578    1.000
    C327     C        0.74297    0.80819    0.88822    1.000
    C328     C        0.71032    0.81016    0.84880    1.000
    H362     H        0.70340    0.78800    0.83290    1.000
    H363     H        0.71230    0.82390    0.80230    1.000
    C329     C        0.68451    0.82496    0.90280    1.000
    H364     H        0.66270    0.82240    0.87910    1.000
    H365     H        0.68450    0.81250    0.95140    1.000
    C330     C        0.69011    0.86071    0.92030    1.000
    H366     H        0.69050    0.87300    0.87150    1.000
    H367     H        0.71190    0.86320    0.94450    1.000
    C331     C        0.66455    0.87584    0.97260    1.000
    H368     H        0.66380    0.86340    0.02120    1.000
    H369     H        0.64280    0.87400    0.94800    1.000
    C332     C        0.67152    0.91200    0.99030    1.000
    H370     H        0.69400    0.91430    0.00900    1.000
    H371     H        0.65620    0.91970    0.02950    1.000
    H372     H        0.66880    0.92500    0.94360    1.000
    C333     C        0.77134    0.85385    0.09550    1.000
    H373     H        0.79250    0.86060    0.07940    1.000
    C334     C        0.75193    0.87575    0.13540    1.000
    H374     H        0.76000    0.89700    0.14670    1.000
    C335     C        0.72109    0.86690    0.15870    1.000
    C336     C        0.71137    0.83600    0.14240    1.000
    H375     H        0.69040    0.82870    0.15850    1.000
    C337     C        0.73161    0.81517    0.10270    1.000
    H376     H        0.72400    0.79370    0.09170    1.000
    C338     C        0.69918    0.88977    0.20400    1.000
    H377     H        0.70530    0.91270    0.19280    1.000
    H378     H        0.67620    0.88650    0.18810    1.000
    Mn21     Mn       0.72001    0.63712    0.72416    1.000
    O61      O        0.74195    0.60133    0.68405    1.000
    O62      O        0.79746    0.63187    0.87779    1.000
    O63      O        0.70244    0.67463    0.77720    1.000
    N54      N        0.75439    0.64371    0.80004    1.000
    N55      N        0.74969    0.67151    0.84708    1.000
    N56      N        0.64500    0.94125    0.44200    1.000
    C339     C        0.76652    0.58430    0.71427    1.000
    C340     C        0.77420    0.55444    0.67879    1.000
    H379     H        0.76200    0.54760    0.63530    1.000
    C341     C        0.79911    0.53501    0.70610    1.000
    H380     H        0.80380    0.51490    0.68120    1.000
    C342     C        0.81739    0.54425    0.76943    1.000
    H381     H        0.83450    0.53070    0.78820    1.000
    C343     C        0.81012    0.57349    0.80434    1.000
    H382     H        0.82260    0.58000    0.84760    1.000
    C344     C        0.78507    0.59408    0.77880    1.000
    C345     C        0.77880    0.62459    0.82019    1.000
    C346     C        0.72192    0.68525    0.83098    1.000
    C347     C        0.71002    0.71372    0.87780    1.000
    H383     H        0.72820    0.72210    0.90970    1.000
    H384     H        0.70290    0.73150    0.84310    1.000
    C348     C        0.68102    0.70365    0.93040    1.000
    H385     H        0.68880    0.68720    0.96770    1.000
    H386     H        0.66390    0.69320    0.89860    1.000
    C349     C        0.66610    0.73197    0.97350    1.000
    H387     H        0.64210    0.72990    0.96760    1.000
    H388     H        0.67260    0.75210    0.94570    1.000
    C350     C        0.67100    0.73700    0.03830    1.000
    H389     H        0.66770    0.71610    0.06590    1.000
    H390     H        0.69440    0.74260    0.04360    1.000
    C351     C        0.65120    0.76348    0.08120    1.000
    H391     H        0.63140    0.76870    0.05220    1.000
    H392     H        0.64520    0.75540    0.13210    1.000
    H393     H        0.66460    0.78320    0.08660    1.000
    C352     C        0.64009    0.94317    0.36681    1.000
    H394     H        0.62360    0.95760    0.34870    1.000
    C353     C        0.65764    0.92529    0.31360    1.000
    H395     H        0.65310    0.92740    0.26040    1.000
    C354     C        0.68179    0.90437    0.33890    1.000
    C355     C        0.68741    0.90282    0.41670    1.000
    H396     H        0.70420    0.88910    0.43650    1.000
    C356     C        0.66850    0.92136    0.46560    1.000
    H397     H        0.67250    0.91980    0.51910    1.000
    C357     C        0.70219    0.88380    0.28450    1.000
    H398     H        0.72550    0.88680    0.29860    1.000
    H399     H        0.69670    0.86060    0.29380    1.000
    Mn22     Mn       0.29019    0.17338    0.43411    1.000
    O64      O        0.26303    0.15546    0.50969    1.000
    O65      O        0.27522    0.25547    0.56964    1.000
    O66      O        0.31634    0.19875    0.36309    1.000
    N57      N        0.28611    0.21601    0.48084    1.000
    N58      N        0.30137    0.24165    0.43890    1.000
    C358     C        0.25016    0.16925    0.57213    1.000
    C359     C        0.23021    0.14971    0.61810    1.000
    H400     H        0.22560    0.12790    0.60290    1.000
    C360     C        0.21708    0.16160    0.68550    1.000
    H401     H        0.20340    0.14790    0.71560    1.000
    C361     C        0.22343    0.19311    0.71010    1.000
    H402     H        0.21510    0.20090    0.75750    1.000
    C362     C        0.24234    0.21315    0.66340    1.000
    H403     H        0.24640    0.23500    0.67890    1.000
    C363     C        0.25557    0.20189    0.59406    1.000
    C364     C        0.27321    0.22560    0.54661    1.000
    C365     C        0.31594    0.23009    0.37827    1.000
    C366     C        0.33313    0.25237    0.32333    1.000
    H404     H        0.33060    0.27520    0.34100    1.000
    H405     H        0.32270    0.25050    0.27240    1.000
    C367     C        0.36932    0.24467    0.31550    1.000
    H406     H        0.37880    0.25860    0.27480    1.000
    H407     H        0.37190    0.22160    0.29980    1.000
    C368     C        0.38814    0.25038    0.39040    1.000
    H408     H        0.37930    0.23570    0.43040    1.000
    H409     H        0.38460    0.27320    0.40740    1.000
    C369     C        0.42504    0.24429    0.38240    1.000
    H410     H        0.43400    0.25880    0.34210    1.000
    H411     H        0.42880    0.22140    0.36640    1.000
    C370     C        0.44319    0.25079    0.45870    1.000
    H412     H        0.43710    0.27240    0.47830    1.000
    H413     H        0.46680    0.25000    0.45000    1.000
    H414     H        0.43710    0.23400    0.49630    1.000
    Mn23     Mn       0.28785    0.28983    0.49507    1.000
    N59      N        0.29355    0.32384    0.41866    1.000
    N60      N        0.26632    0.32830    0.36937    1.000
    N61      N        0.26159    0.32382    0.57875    1.000
    O67      O        0.32909    0.29847    0.53429    1.000
    O68      O        0.31698    0.36494    0.34968    1.000
    O69      O        0.24617    0.28688    0.44315    1.000
    C371     C        0.35008    0.32226    0.51819    1.000
    C372     C        0.37811    0.32487    0.56450    1.000
    H415     H        0.38150    0.30970    0.60490    1.000
    C373     C        0.40082    0.34926    0.55200    1.000
    H416     H        0.41960    0.35060    0.58390    1.000
    C374     C        0.39669    0.37157    0.49420    1.000
    H417     H        0.41220    0.38860    0.48670    1.000
    C375     C        0.36986    0.36905    0.44721    1.000
    H418     H        0.36730    0.38420    0.40650    1.000
    C376     C        0.34616    0.34467    0.45783    1.000
    C377     C        0.31771    0.34452    0.40578    1.000
    C378     C        0.24297    0.30819    0.38822    1.000
    C379     C        0.21032    0.31016    0.34880    1.000
    H419     H        0.20340    0.28800    0.33290    1.000
    H420     H        0.21230    0.32390    0.30230    1.000
    C380     C        0.18451    0.32496    0.40280    1.000
    H421     H        0.16270    0.32240    0.37910    1.000
    H422     H        0.18450    0.31250    0.45140    1.000
    C381     C        0.19011    0.36071    0.42030    1.000
    H423     H        0.19050    0.37300    0.37150    1.000
    H424     H        0.21190    0.36320    0.44450    1.000
    C382     C        0.16455    0.37584    0.47260    1.000
    H425     H        0.16380    0.36340    0.52120    1.000
    H426     H        0.14280    0.37400    0.44800    1.000
    C383     C        0.17152    0.41200    0.49030    1.000
    H427     H        0.19400    0.41430    0.50900    1.000
    H428     H        0.15620    0.41970    0.52950    1.000
    H429     H        0.16880    0.42500    0.44360    1.000
    C384     C        0.27134    0.35385    0.59550    1.000
    H430     H        0.29250    0.36060    0.57940    1.000
    C385     C        0.25193    0.37575    0.63540    1.000
    H431     H        0.26000    0.39700    0.64670    1.000
    C386     C        0.22109    0.36690    0.65870    1.000
    C387     C        0.21137    0.33600    0.64240    1.000
    H432     H        0.19040    0.32870    0.65850    1.000
    C388     C        0.23161    0.31517    0.60270    1.000
    H433     H        0.22400    0.29370    0.59170    1.000
    C389     C        0.19918    0.38977    0.70400    1.000
    H434     H        0.20530    0.41270    0.69280    1.000
    H435     H        0.17620    0.38650    0.68810    1.000
    Mn24     Mn       0.22001    0.13712    0.22416    1.000
    O70      O        0.24195    0.10133    0.18405    1.000
    O71      O        0.29746    0.13187    0.37779    1.000
    O72      O        0.20244    0.17463    0.27720    1.000
    N62      N        0.25439    0.14371    0.30004    1.000
    N63      N        0.24969    0.17151    0.34708    1.000
    N64      N        0.14500    0.44125    0.94200    1.000
    C390     C        0.26652    0.08430    0.21427    1.000
    C391     C        0.27420    0.05444    0.17879    1.000
    H436     H        0.26200    0.04760    0.13530    1.000
    C392     C        0.29911    0.03501    0.20610    1.000
    H437     H        0.30380    0.01490    0.18120    1.000
    C393     C        0.31739    0.04425    0.26943    1.000
    H438     H        0.33450    0.03070    0.28820    1.000
    C394     C        0.31012    0.07349    0.30434    1.000
    H439     H        0.32260    0.08000    0.34760    1.000
    C395     C        0.28507    0.09408    0.27880    1.000
    C396     C        0.27880    0.12459    0.32019    1.000
    C397     C        0.22192    0.18525    0.33098    1.000
    C398     C        0.21002    0.21372    0.37780    1.000
    H440     H        0.22820    0.22210    0.40970    1.000
    H441     H        0.20290    0.23150    0.34310    1.000
    C399     C        0.18102    0.20365    0.43040    1.000
    H442     H        0.18880    0.18720    0.46770    1.000
    H443     H        0.16390    0.19320    0.39860    1.000
    C400     C        0.16610    0.23197    0.47350    1.000
    H444     H        0.14210    0.22990    0.46760    1.000
    H445     H        0.17260    0.25210    0.44570    1.000
    C401     C        0.17100    0.23700    0.53830    1.000
    H446     H        0.16770    0.21610    0.56590    1.000
    H447     H        0.19440    0.24260    0.54360    1.000
    C402     C        0.15120    0.26348    0.58120    1.000
    H448     H        0.13140    0.26870    0.55220    1.000
    H449     H        0.14520    0.25540    0.63210    1.000
    H450     H        0.16460    0.28320    0.58660    1.000
    C403     C        0.14009    0.44317    0.86681    1.000
    H451     H        0.12360    0.45760    0.84870    1.000
    C404     C        0.15764    0.42529    0.81360    1.000
    H452     H        0.15310    0.42740    0.76040    1.000
    C405     C        0.18179    0.40437    0.83890    1.000
    C406     C        0.18741    0.40282    0.91670    1.000
    H453     H        0.20420    0.38910    0.93650    1.000
    C407     C        0.16850    0.42136    0.96560    1.000
    H454     H        0.17250    0.41980    0.01910    1.000
    C408     C        0.20219    0.38380    0.78450    1.000
    H455     H        0.22550    0.38680    0.79860    1.000
    H456     H        0.19670    0.36060    0.79380    1.000
    Mn25     Mn       0.92338    0.95981    0.81589    1.000
    O73      O        0.90546    0.98697    0.74031    1.000
    O74      O        0.00547    0.97478    0.68036    1.000
    O75      O        0.94875    0.93366    0.88691    1.000
    N65      N        0.96601    0.96389    0.76916    1.000
    N66      N        0.99165    0.94863    0.81110    1.000
    C409     C        0.91925    0.99984    0.67787    1.000
    C410     C        0.89971    0.01979    0.63190    1.000
    H457     H        0.87790    0.02440    0.64710    1.000
    C411     C        0.91160    0.03292    0.56450    1.000
    H458     H        0.89790    0.04660    0.53440    1.000
    C412     C        0.94311    0.02657    0.53990    1.000
    H459     H        0.95090    0.03490    0.49250    1.000
    C413     C        0.96315    0.00766    0.58660    1.000
    H460     H        0.98500    0.00360    0.57110    1.000
    C414     C        0.95189    0.99443    0.65594    1.000
    C415     C        0.97560    0.97679    0.70339    1.000
    C416     C        0.98009    0.93406    0.87173    1.000
    C417     C        0.00237    0.91687    0.92667    1.000
    H461     H        0.02520    0.91940    0.90900    1.000
    H462     H        0.00050    0.92730    0.97760    1.000
    C418     C        0.99467    0.88068    0.93450    1.000
    H463     H        0.00860    0.87120    0.97520    1.000
    H464     H        0.97160    0.87810    0.95020    1.000
    C419     C        0.00038    0.86186    0.85960    1.000
    H465     H        0.98570    0.87070    0.81960    1.000
    H466     H        0.02320    0.86540    0.84260    1.000
    C420     C        0.99429    0.82496    0.86760    1.000
    H467     H        0.00880    0.81600    0.90790    1.000
    H468     H        0.97140    0.82120    0.88360    1.000
    C421     C        0.00079    0.80681    0.79130    1.000
    H469     H        0.02240    0.81290    0.77170    1.000
    H470     H        0.00000    0.78320    0.80000    1.000
    H471     H        0.98400    0.81290    0.75370    1.000
    Mn26     Mn       0.03983    0.96215    0.75493    1.000
    N67      N        0.07384    0.95645    0.83134    1.000
    N68      N        0.07830    0.98368    0.88063    1.000
    N69      N        0.07382    0.98841    0.67125    1.000
    O76      O        0.04847    0.92091    0.71571    1.000
    O77      O        0.11494    0.93302    0.90032    1.000
    O78      O        0.03688    0.00383    0.80685    1.000
    C422     C        0.07226    0.89992    0.73181    1.000
    C423     C        0.07487    0.87189    0.68550    1.000
    H472     H        0.05970    0.86850    0.64510    1.000
    C424     C        0.09926    0.84918    0.69800    1.000
    H473     H        0.10060    0.83040    0.66610    1.000
    C425     C        0.12157    0.85331    0.75580    1.000
    H474     H        0.13860    0.83780    0.76330    1.000
    C426     C        0.11905    0.88014    0.80279    1.000
    H475     H        0.13420    0.88270    0.84350    1.000
    C427     C        0.09467    0.90384    0.79217    1.000
    C428     C        0.09452    0.93229    0.84422    1.000
    C429     C        0.05819    0.00703    0.86178    1.000
    C430     C        0.06016    0.03968    0.90120    1.000
    H476     H        0.03800    0.04660    0.91710    1.000
    H477     H        0.07390    0.03770    0.94770    1.000
    C431     C        0.07496    0.06549    0.84720    1.000
    H478     H        0.07240    0.08730    0.87090    1.000
    H479     H        0.06250    0.06550    0.79860    1.000
    C432     C        0.11071    0.05989    0.82970    1.000
    H480     H        0.12300    0.05950    0.87850    1.000
    H481     H        0.11320    0.03810    0.80550    1.000
    C433     C        0.12584    0.08545    0.77740    1.000
    H482     H        0.11340    0.08620    0.72880    1.000
    H483     H        0.12400    0.10720    0.80200    1.000
    C434     C        0.16200    0.07848    0.75970    1.000
    H484     H        0.16430    0.05600    0.74100    1.000
    H485     H        0.16970    0.09380    0.72050    1.000
    H486     H        0.17500    0.08120    0.80640    1.000
    C435     C        0.10385    0.97866    0.65450    1.000
    H487     H        0.11060    0.95750    0.67060    1.000
    C436     C        0.12575    0.99807    0.61460    1.000
    H488     H        0.14700    0.99000    0.60330    1.000
    C437     C        0.11690    0.02891    0.59130    1.000
    C438     C        0.08600    0.03863    0.60760    1.000
    H489     H        0.07870    0.05960    0.59150    1.000
    C439     C        0.06517    0.01839    0.64730    1.000
    H490     H        0.04370    0.02600    0.65830    1.000
    C440     C        0.13977    0.05082    0.54600    1.000
    H491     H        0.16270    0.04470    0.55720    1.000
    H492     H        0.13650    0.07380    0.56190    1.000
    Mn27     Mn       0.88712    0.02999    0.02584    1.000
    O79      O        0.85133    0.00805    0.06595    1.000
    O80      O        0.88187    0.95254    0.87221    1.000
    O81      O        0.92463    0.04756    0.97280    1.000
    N70      N        0.89371    0.99561    0.94996    1.000
    N71      N        0.92151    0.00031    0.90292    1.000
    N72      N        0.19125    0.10500    0.30800    1.000
    C441     C        0.83430    0.98348    0.03573    1.000
    C442     C        0.80444    0.97580    0.07121    1.000
    H493     H        0.79760    0.98800    0.11470    1.000
    C443     C        0.78501    0.95089    0.04390    1.000
    H494     H        0.76490    0.94620    0.06880    1.000
    C444     C        0.79425    0.93261    0.98057    1.000
    H495     H        0.78070    0.91550    0.96180    1.000
    C445     C        0.82349    0.93988    0.94566    1.000
    H496     H        0.83000    0.92740    0.90240    1.000
    C446     C        0.84408    0.96493    0.97120    1.000
    C447     C        0.87459    0.97120    0.92981    1.000
    C448     C        0.93525    0.02808    0.91902    1.000
    C449     C        0.96372    0.03998    0.87220    1.000
    H497     H        0.97210    0.02180    0.84030    1.000
    H498     H        0.98150    0.04710    0.90690    1.000
    C450     C        0.95365    0.06898    0.81960    1.000
    H499     H        0.93720    0.06120    0.78230    1.000
    H500     H        0.94320    0.08610    0.85140    1.000
    C451     C        0.98197    0.08390    0.77650    1.000
    H501     H        0.97990    0.10790    0.78240    1.000
    H502     H        0.00210    0.07740    0.80430    1.000
    C452     C        0.98700    0.07900    0.71170    1.000
    H503     H        0.96610    0.08230    0.68410    1.000
    H504     H        0.99260    0.05560    0.70640    1.000
    C453     C        0.01348    0.09880    0.66880    1.000
    H505     H        0.01870    0.11860    0.69780    1.000
    H506     H        0.00540    0.10480    0.61790    1.000
    H507     H        0.03320    0.08540    0.66340    1.000
    C454     C        0.19317    0.10991    0.38319    1.000
    H508     H        0.20760    0.12640    0.40130    1.000
    C455     C        0.17529    0.09236    0.43640    1.000
    H509     H        0.17740    0.09690    0.48960    1.000
    C456     C        0.15437    0.06821    0.41110    1.000
    C457     C        0.15282    0.06259    0.33330    1.000
    H510     H        0.13910    0.04580    0.31350    1.000
    C458     C        0.17136    0.08150    0.28440    1.000
    H511     H        0.16980    0.07750    0.23090    1.000
    C459     C        0.13380    0.04781    0.46550    1.000
    H512     H        0.13680    0.02450    0.45140    1.000
    H513     H        0.11060    0.05330    0.45620    1.000
    Mn28     Mn       0.42338    0.45981    0.31589    1.000
    O82      O        0.40546    0.48697    0.24031    1.000
    O83      O        0.50547    0.47478    0.18036    1.000
    O84      O        0.44875    0.43366    0.38691    1.000
    N73      N        0.46601    0.46389    0.26916    1.000
    N74      N        0.49165    0.44863    0.31110    1.000
    C460     C        0.41925    0.49984    0.17787    1.000
    C461     C        0.39971    0.51979    0.13190    1.000
    H514     H        0.37790    0.52440    0.14710    1.000
    C462     C        0.41160    0.53292    0.06450    1.000
    H515     H        0.39790    0.54660    0.03440    1.000
    C463     C        0.44311    0.52657    0.03990    1.000
    H516     H        0.45090    0.53490    0.99250    1.000
    C464     C        0.46315    0.50766    0.08660    1.000
    H517     H        0.48500    0.50360    0.07110    1.000
    C465     C        0.45189    0.49443    0.15594    1.000
    C466     C        0.47560    0.47679    0.20339    1.000
    C467     C        0.48009    0.43406    0.37173    1.000
    C468     C        0.50237    0.41687    0.42667    1.000
    H518     H        0.52520    0.41940    0.40900    1.000
    H519     H        0.50050    0.42730    0.47760    1.000
    C469     C        0.49467    0.38068    0.43450    1.000
    H520     H        0.50860    0.37120    0.47520    1.000
    H521     H        0.47160    0.37810    0.45020    1.000
    C470     C        0.50038    0.36186    0.35960    1.000
    H522     H        0.48570    0.37070    0.31960    1.000
    H523     H        0.52320    0.36540    0.34260    1.000
    C471     C        0.49429    0.32496    0.36760    1.000
    H524     H        0.50880    0.31600    0.40790    1.000
    H525     H        0.47140    0.32120    0.38360    1.000
    C472     C        0.50079    0.30681    0.29130    1.000
    H526     H        0.52240    0.31290    0.27170    1.000
    H527     H        0.50000    0.28320    0.30000    1.000
    H528     H        0.48400    0.31290    0.25370    1.000
    Mn29     Mn       0.53983    0.46215    0.25493    1.000
    N75      N        0.57384    0.45645    0.33134    1.000
    N76      N        0.57830    0.48368    0.38063    1.000
    N77      N        0.57382    0.48841    0.17125    1.000
    O85      O        0.54847    0.42091    0.21571    1.000
    O86      O        0.61494    0.43302    0.40032    1.000
    O87      O        0.53688    0.50383    0.30685    1.000
    C473     C        0.57226    0.39992    0.23181    1.000
    C474     C        0.57487    0.37189    0.18550    1.000
    H529     H        0.55970    0.36850    0.14510    1.000
    C475     C        0.59926    0.34918    0.19800    1.000
    H530     H        0.60060    0.33040    0.16610    1.000
    C476     C        0.62157    0.35331    0.25580    1.000
    H531     H        0.63860    0.33780    0.26330    1.000
    C477     C        0.61905    0.38014    0.30279    1.000
    H532     H        0.63420    0.38270    0.34350    1.000
    C478     C        0.59467    0.40384    0.29217    1.000
    C479     C        0.59452    0.43229    0.34422    1.000
    C480     C        0.55819    0.50703    0.36178    1.000
    C481     C        0.56016    0.53968    0.40120    1.000
    H533     H        0.53800    0.54660    0.41710    1.000
    H534     H        0.57390    0.53770    0.44770    1.000
    C482     C        0.57496    0.56549    0.34720    1.000
    H535     H        0.57240    0.58730    0.37090    1.000
    H536     H        0.56250    0.56550    0.29860    1.000
    C483     C        0.61071    0.55989    0.32970    1.000
    H537     H        0.62300    0.55950    0.37850    1.000
    H538     H        0.61320    0.53810    0.30550    1.000
    C484     C        0.62584    0.58545    0.27740    1.000
    H539     H        0.61340    0.58620    0.22880    1.000
    H540     H        0.62400    0.60720    0.30200    1.000
    C485     C        0.66200    0.57848    0.25970    1.000
    H541     H        0.66430    0.55600    0.24100    1.000
    H542     H        0.66970    0.59380    0.22050    1.000
    H543     H        0.67500    0.58120    0.30640    1.000
    C486     C        0.60385    0.47866    0.15450    1.000
    H544     H        0.61060    0.45750    0.17060    1.000
    C487     C        0.62575    0.49807    0.11460    1.000
    H545     H        0.64700    0.49000    0.10330    1.000
    C488     C        0.61690    0.52891    0.09130    1.000
    C489     C        0.58600    0.53863    0.10760    1.000
    H546     H        0.57870    0.55960    0.09150    1.000
    C490     C        0.56517    0.51839    0.14730    1.000
    H547     H        0.54370    0.52600    0.15830    1.000
    C491     C        0.63977    0.55082    0.04600    1.000
    H548     H        0.66270    0.54470    0.05720    1.000
    H549     H        0.63650    0.57380    0.06190    1.000
    Mn30     Mn       0.38712    0.52999    0.52584    1.000
    O88      O        0.35133    0.50805    0.56595    1.000
    O89      O        0.38187    0.45254    0.37221    1.000
    O90      O        0.42463    0.54756    0.47280    1.000
    N78      N        0.39371    0.49561    0.44996    1.000
    N79      N        0.42151    0.50031    0.40292    1.000
    N80      N        0.69125    0.60500    0.80800    1.000
    C492     C        0.33430    0.48348    0.53573    1.000
    C493     C        0.30444    0.47580    0.57121    1.000
    H550     H        0.29760    0.48800    0.61470    1.000
    C494     C        0.28501    0.45089    0.54390    1.000
    H551     H        0.26490    0.44620    0.56880    1.000
    C495     C        0.29425    0.43261    0.48057    1.000
    H552     H        0.28070    0.41550    0.46180    1.000
    C496     C        0.32349    0.43988    0.44566    1.000
    H553     H        0.33000    0.42740    0.40240    1.000
    C497     C        0.34408    0.46493    0.47120    1.000
    C498     C        0.37459    0.47120    0.42981    1.000
    C499     C        0.43525    0.52808    0.41902    1.000
    C500     C        0.46372    0.53998    0.37220    1.000
    H554     H        0.47210    0.52180    0.34030    1.000
    H555     H        0.48150    0.54710    0.40690    1.000
    C501     C        0.45365    0.56898    0.31960    1.000
    H556     H        0.43720    0.56120    0.28230    1.000
    H557     H        0.44320    0.58610    0.35140    1.000
    C502     C        0.48197    0.58390    0.27650    1.000
    H558     H        0.47990    0.60790    0.28240    1.000
    H559     H        0.50210    0.57740    0.30430    1.000
    C503     C        0.48700    0.57900    0.21170    1.000
    H560     H        0.46610    0.58230    0.18410    1.000
    H561     H        0.49260    0.55560    0.20640    1.000
    C504     C        0.51348    0.59880    0.16880    1.000
    H562     H        0.51870    0.61860    0.19780    1.000
    H563     H        0.50540    0.60480    0.11790    1.000
    H564     H        0.53320    0.58540    0.16340    1.000
    C505     C        0.69317    0.60991    0.88319    1.000
    H565     H        0.70760    0.62640    0.90130    1.000
    C506     C        0.67529    0.59236    0.93640    1.000
    H566     H        0.67740    0.59690    0.98960    1.000
    C507     C        0.65437    0.56821    0.91110    1.000
    C508     C        0.65282    0.56259    0.83330    1.000
    H567     H        0.63910    0.54580    0.81350    1.000
    C509     C        0.67136    0.58150    0.78440    1.000
    H568     H        0.66980    0.57750    0.73090    1.000
    C510     C        0.63380    0.54781    0.96550    1.000
    H569     H        0.63680    0.52450    0.95140    1.000
    H570     H        0.61060    0.55330    0.95620    1.000
    Mn31     Mn       0.57662    0.04019    0.31589    1.000
    O91      O        0.59454    0.01303    0.24031    1.000
    O92      O        0.49453    0.02522    0.18036    1.000
    O93      O        0.55125    0.06634    0.38691    1.000
    N81      N        0.53399    0.03611    0.26916    1.000
    N82      N        0.50835    0.05137    0.31110    1.000
    C511     C        0.58075    0.00016    0.17787    1.000
    C512     C        0.60029    0.98021    0.13190    1.000
    H571     H        0.62210    0.97560    0.14710    1.000
    C513     C        0.58840    0.96708    0.06450    1.000
    H572     H        0.60210    0.95340    0.03440    1.000
    C514     C        0.55689    0.97343    0.03990    1.000
    H573     H        0.54910    0.96510    0.99250    1.000
    C515     C        0.53685    0.99234    0.08660    1.000
    H574     H        0.51500    0.99640    0.07110    1.000
    C516     C        0.54811    0.00557    0.15594    1.000
    C517     C        0.52440    0.02321    0.20339    1.000
    C518     C        0.51991    0.06594    0.37173    1.000
    C519     C        0.49763    0.08313    0.42667    1.000
    H575     H        0.47480    0.08060    0.40900    1.000
    H576     H        0.49950    0.07270    0.47760    1.000
    C520     C        0.50533    0.11932    0.43450    1.000
    H577     H        0.49140    0.12880    0.47520    1.000
    H578     H        0.52840    0.12190    0.45020    1.000
    C521     C        0.49962    0.13814    0.35960    1.000
    H579     H        0.51430    0.12930    0.31960    1.000
    H580     H        0.47680    0.13460    0.34260    1.000
    C522     C        0.50571    0.17504    0.36760    1.000
    H581     H        0.49120    0.18400    0.40790    1.000
    H582     H        0.52860    0.17880    0.38360    1.000
    C523     C        0.49921    0.19319    0.29130    1.000
    H583     H        0.47760    0.18710    0.27170    1.000
    H584     H        0.50000    0.21680    0.30000    1.000
    H585     H        0.51600    0.18710    0.25370    1.000
    Mn32     Mn       0.46017    0.03785    0.25493    1.000
    N83      N        0.42616    0.04355    0.33134    1.000
    N84      N        0.42170    0.01632    0.38063    1.000
    N85      N        0.42618    0.01159    0.17125    1.000
    O94      O        0.45153    0.07909    0.21571    1.000
    O95      O        0.38506    0.06698    0.40032    1.000
    O96      O        0.46312    0.99617    0.30685    1.000
    C524     C        0.42774    0.10008    0.23181    1.000
    C525     C        0.42513    0.12811    0.18550    1.000
    H586     H        0.44030    0.13150    0.14510    1.000
    C526     C        0.40074    0.15082    0.19800    1.000
    H587     H        0.39940    0.16960    0.16610    1.000
    C527     C        0.37843    0.14669    0.25580    1.000
    H588     H        0.36140    0.16220    0.26330    1.000
    C528     C        0.38095    0.11986    0.30279    1.000
    H589     H        0.36580    0.11730    0.34350    1.000
    C529     C        0.40533    0.09616    0.29217    1.000
    C530     C        0.40548    0.06771    0.34422    1.000
    C531     C        0.44181    0.99297    0.36178    1.000
    C532     C        0.43984    0.96032    0.40120    1.000
    H590     H        0.46200    0.95340    0.41710    1.000
    H591     H        0.42610    0.96230    0.44770    1.000
    C533     C        0.42504    0.93451    0.34720    1.000
    H592     H        0.42760    0.91270    0.37090    1.000
    H593     H        0.43750    0.93450    0.29860    1.000
    C534     C        0.38929    0.94011    0.32970    1.000
    H594     H        0.37700    0.94050    0.37850    1.000
    H595     H        0.38680    0.96190    0.30550    1.000
    C535     C        0.37416    0.91455    0.27740    1.000
    H596     H        0.38660    0.91380    0.22880    1.000
    H597     H        0.37600    0.89280    0.30200    1.000
    C536     C        0.33800    0.92152    0.25970    1.000
    H598     H        0.33570    0.94400    0.24100    1.000
    H599     H        0.33030    0.90620    0.22050    1.000
    H600     H        0.32500    0.91880    0.30640    1.000
    C537     C        0.39615    0.02134    0.15450    1.000
    H601     H        0.38940    0.04250    0.17060    1.000
    C538     C        0.37425    0.00193    0.11460    1.000
    H602     H        0.35300    0.01000    0.10330    1.000
    C539     C        0.38310    0.97109    0.09130    1.000
    C540     C        0.41400    0.96137    0.10760    1.000
    H603     H        0.42130    0.94040    0.09150    1.000
    C541     C        0.43483    0.98161    0.14730    1.000
    H604     H        0.45630    0.97400    0.15830    1.000
    C542     C        0.36023    0.94918    0.04600    1.000
    H605     H        0.33730    0.95530    0.05720    1.000
    H606     H        0.36350    0.92620    0.06190    1.000
    Mn33     Mn       0.61288    0.97001    0.52584    1.000
    O97      O        0.64867    0.99195    0.56595    1.000
    O98      O        0.61813    0.04746    0.37221    1.000
    O99      O        0.57537    0.95244    0.47280    1.000
    N86      N        0.60629    0.00439    0.44996    1.000
    N87      N        0.57849    0.99969    0.40292    1.000
    N88      N        0.30875    0.89500    0.80800    1.000
    C543     C        0.66570    0.01652    0.53573    1.000
    C544     C        0.69556    0.02420    0.57121    1.000
    H607     H        0.70240    0.01200    0.61470    1.000
    C545     C        0.71499    0.04911    0.54390    1.000
    H608     H        0.73510    0.05380    0.56880    1.000
    C546     C        0.70575    0.06739    0.48057    1.000
    H609     H        0.71930    0.08450    0.46180    1.000
    C547     C        0.67651    0.06012    0.44566    1.000
    H610     H        0.67000    0.07260    0.40240    1.000
    C548     C        0.65592    0.03507    0.47120    1.000
    C549     C        0.62541    0.02880    0.42981    1.000
    C550     C        0.56475    0.97192    0.41902    1.000
    C551     C        0.53628    0.96002    0.37220    1.000
    H611     H        0.52790    0.97820    0.34030    1.000
    H612     H        0.51850    0.95290    0.40690    1.000
    C552     C        0.54635    0.93102    0.31960    1.000
    H613     H        0.56280    0.93880    0.28230    1.000
    H614     H        0.55680    0.91390    0.35140    1.000
    C553     C        0.51803    0.91610    0.27650    1.000
    H615     H        0.52010    0.89210    0.28240    1.000
    H616     H        0.49790    0.92260    0.30430    1.000
    C554     C        0.51300    0.92100    0.21170    1.000
    H617     H        0.53390    0.91770    0.18410    1.000
    H618     H        0.50740    0.94440    0.20640    1.000
    C555     C        0.48652    0.90120    0.16880    1.000
    H619     H        0.48130    0.88140    0.19780    1.000
    H620     H        0.49460    0.89520    0.11790    1.000
    H621     H        0.46680    0.91460    0.16340    1.000
    C556     C        0.30683    0.89009    0.88319    1.000
    H622     H        0.29240    0.87360    0.90130    1.000
    C557     C        0.32471    0.90764    0.93640    1.000
    H623     H        0.32260    0.90310    0.98960    1.000
    C558     C        0.34563    0.93179    0.91110    1.000
    C559     C        0.34718    0.93741    0.83330    1.000
    H624     H        0.36090    0.95420    0.81350    1.000
    C560     C        0.32864    0.91850    0.78440    1.000
    H625     H        0.33020    0.92250    0.73090    1.000
    C561     C        0.36620    0.95219    0.96550    1.000
    H626     H        0.36320    0.97550    0.95140    1.000
    H627     H        0.38940    0.94670    0.95620    1.000
    Mn34     Mn       0.07662    0.54019    0.81589    1.000
    O100     O        0.09454    0.51303    0.74031    1.000
    O101     O        0.99453    0.52522    0.68036    1.000
    O102     O        0.05125    0.56634    0.88691    1.000
    N89      N        0.03399    0.53611    0.76916    1.000
    N90      N        0.00835    0.55137    0.81110    1.000
    C562     C        0.08075    0.50016    0.67787    1.000
    C563     C        0.10029    0.48021    0.63190    1.000
    H628     H        0.12210    0.47560    0.64710    1.000
    C564     C        0.08840    0.46708    0.56450    1.000
    H629     H        0.10210    0.45340    0.53440    1.000
    C565     C        0.05689    0.47343    0.53990    1.000
    H630     H        0.04910    0.46510    0.49250    1.000
    C566     C        0.03685    0.49234    0.58660    1.000
    H631     H        0.01500    0.49640    0.57110    1.000
    C567     C        0.04811    0.50557    0.65594    1.000
    C568     C        0.02440    0.52321    0.70339    1.000
    C569     C        0.01991    0.56594    0.87173    1.000
    C570     C        0.99763    0.58313    0.92667    1.000
    H632     H        0.97480    0.58060    0.90900    1.000
    H633     H        0.99950    0.57270    0.97760    1.000
    C571     C        0.00533    0.61932    0.93450    1.000
    H634     H        0.99140    0.62880    0.97520    1.000
    H635     H        0.02840    0.62190    0.95020    1.000
    C572     C        0.99962    0.63814    0.85960    1.000
    H636     H        0.01430    0.62930    0.81960    1.000
    H637     H        0.97680    0.63460    0.84260    1.000
    C573     C        0.00571    0.67504    0.86760    1.000
    H638     H        0.99120    0.68400    0.90790    1.000
    H639     H        0.02860    0.67880    0.88360    1.000
    C574     C        0.99921    0.69319    0.79130    1.000
    H640     H        0.97760    0.68710    0.77170    1.000
    H641     H        0.00000    0.71680    0.80000    1.000
    H642     H        0.01600    0.68710    0.75370    1.000
    Mn35     Mn       0.96017    0.53785    0.75493    1.000
    N91      N        0.92616    0.54355    0.83134    1.000
    N92      N        0.92170    0.51632    0.88063    1.000
    N93      N        0.92618    0.51159    0.67125    1.000
    O103     O        0.95153    0.57909    0.71571    1.000
    O104     O        0.88506    0.56698    0.90032    1.000
    O105     O        0.96312    0.49617    0.80685    1.000
    C575     C        0.92774    0.60008    0.73181    1.000
    C576     C        0.92513    0.62811    0.68550    1.000
    H643     H        0.94030    0.63150    0.64510    1.000
    C577     C        0.90074    0.65082    0.69800    1.000
    H644     H        0.89940    0.66960    0.66610    1.000
    C578     C        0.87843    0.64669    0.75580    1.000
    H645     H        0.86140    0.66220    0.76330    1.000
    C579     C        0.88095    0.61986    0.80279    1.000
    H646     H        0.86580    0.61730    0.84350    1.000
    C580     C        0.90533    0.59616    0.79217    1.000
    C581     C        0.90548    0.56771    0.84422    1.000
    C582     C        0.94181    0.49297    0.86178    1.000
    C583     C        0.93984    0.46032    0.90120    1.000
    H647     H        0.96200    0.45340    0.91710    1.000
    H648     H        0.92610    0.46230    0.94770    1.000
    C584     C        0.92504    0.43451    0.84720    1.000
    H649     H        0.92760    0.41270    0.87090    1.000
    H650     H        0.93750    0.43450    0.79860    1.000
    C585     C        0.88929    0.44011    0.82970    1.000
    H651     H        0.87700    0.44050    0.87850    1.000
    H652     H        0.88680    0.46190    0.80550    1.000
    C586     C        0.87416    0.41455    0.77740    1.000
    H653     H        0.88660    0.41380    0.72880    1.000
    H654     H        0.87600    0.39280    0.80200    1.000
    C587     C        0.83800    0.42152    0.75970    1.000
    H655     H        0.83570    0.44400    0.74100    1.000
    H656     H        0.83030    0.40620    0.72050    1.000
    H657     H        0.82500    0.41880    0.80640    1.000
    C588     C        0.89615    0.52134    0.65450    1.000
    H658     H        0.88940    0.54250    0.67060    1.000
    C589     C        0.87425    0.50193    0.61460    1.000
    H659     H        0.85300    0.51000    0.60330    1.000
    C590     C        0.88310    0.47109    0.59130    1.000
    C591     C        0.91400    0.46137    0.60760    1.000
    H660     H        0.92130    0.44040    0.59150    1.000
    C592     C        0.93483    0.48161    0.64730    1.000
    H661     H        0.95630    0.47400    0.65830    1.000
    C593     C        0.86023    0.44918    0.54600    1.000
    H662     H        0.83730    0.45530    0.55720    1.000
    H663     H        0.86350    0.42620    0.56190    1.000
    Mn36     Mn       0.11288    0.47001    0.02584    1.000
    O106     O        0.14867    0.49195    0.06595    1.000
    O107     O        0.11813    0.54746    0.87221    1.000
    O108     O        0.07537    0.45244    0.97280    1.000
    N94      N        0.10629    0.50439    0.94996    1.000
    N95      N        0.07849    0.49969    0.90292    1.000
    N96      N        0.80875    0.39500    0.30800    1.000
    C594     C        0.16570    0.51652    0.03573    1.000
    C595     C        0.19556    0.52420    0.07121    1.000
    H664     H        0.20240    0.51200    0.11470    1.000
    C596     C        0.21499    0.54911    0.04390    1.000
    H665     H        0.23510    0.55380    0.06880    1.000
    C597     C        0.20575    0.56739    0.98057    1.000
    H666     H        0.21930    0.58450    0.96180    1.000
    C598     C        0.17651    0.56012    0.94566    1.000
    H667     H        0.17000    0.57260    0.90240    1.000
    C599     C        0.15592    0.53507    0.97120    1.000
    C600     C        0.12541    0.52880    0.92981    1.000
    C601     C        0.06475    0.47192    0.91902    1.000
    C602     C        0.03628    0.46002    0.87220    1.000
    H668     H        0.02790    0.47820    0.84030    1.000
    H669     H        0.01850    0.45290    0.90690    1.000
    C603     C        0.04635    0.43102    0.81960    1.000
    H670     H        0.06280    0.43880    0.78230    1.000
    H671     H        0.05680    0.41390    0.85140    1.000
    C604     C        0.01803    0.41610    0.77650    1.000
    H672     H        0.02010    0.39210    0.78240    1.000
    H673     H        0.99790    0.42260    0.80430    1.000
    C605     C        0.01300    0.42100    0.71170    1.000
    H674     H        0.03390    0.41770    0.68410    1.000
    H675     H        0.00740    0.44440    0.70640    1.000
    C606     C        0.98652    0.40120    0.66880    1.000
    H676     H        0.98130    0.38140    0.69780    1.000
    H677     H        0.99460    0.39520    0.61790    1.000
    H678     H        0.96680    0.41460    0.66340    1.000
    C607     C        0.80683    0.39009    0.38319    1.000
    H679     H        0.79240    0.37360    0.40130    1.000
    C608     C        0.82471    0.40764    0.43640    1.000
    H680     H        0.82260    0.40310    0.48960    1.000
    C609     C        0.84563    0.43179    0.41110    1.000
    C610     C        0.84718    0.43741    0.33330    1.000
    H681     H        0.86090    0.45420    0.31350    1.000
    C611     C        0.82864    0.41850    0.28440    1.000
    H682     H        0.83020    0.42250    0.23090    1.000
    C612     C        0.86620    0.45219    0.46550    1.000
    H683     H        0.86320    0.47550    0.45140    1.000
    H684     H        0.88940    0.44670    0.45620    1.000
    Mn37     Mn       0.29019    0.67338    0.56589    1.000
    O109     O        0.26303    0.65546    0.49031    1.000
    O110     O        0.27522    0.75547    0.43036    1.000
    O111     O        0.31634    0.69875    0.63691    1.000
    N97      N        0.28611    0.71601    0.51916    1.000
    N98      N        0.30137    0.74165    0.56110    1.000
    C613     C        0.25016    0.66925    0.42787    1.000
    C614     C        0.23021    0.64971    0.38190    1.000
    H685     H        0.22560    0.62790    0.39710    1.000
    C615     C        0.21708    0.66160    0.31450    1.000
    H686     H        0.20340    0.64790    0.28440    1.000
    C616     C        0.22343    0.69311    0.28990    1.000
    H687     H        0.21510    0.70090    0.24250    1.000
    C617     C        0.24234    0.71315    0.33660    1.000
    H688     H        0.24640    0.73500    0.32110    1.000
    C618     C        0.25557    0.70189    0.40594    1.000
    C619     C        0.27321    0.72560    0.45339    1.000
    C620     C        0.31594    0.73009    0.62173    1.000
    C621     C        0.33313    0.75237    0.67667    1.000
    H689     H        0.33060    0.77520    0.65900    1.000
    H690     H        0.32270    0.75050    0.72760    1.000
    C622     C        0.36932    0.74467    0.68450    1.000
    H691     H        0.37880    0.75860    0.72520    1.000
    H692     H        0.37190    0.72160    0.70020    1.000
    C623     C        0.38814    0.75038    0.60960    1.000
    H693     H        0.37930    0.73570    0.56960    1.000
    H694     H        0.38460    0.77320    0.59260    1.000
    C624     C        0.42504    0.74429    0.61760    1.000
    H695     H        0.43400    0.75880    0.65790    1.000
    H696     H        0.42880    0.72140    0.63360    1.000
    C625     C        0.44319    0.75079    0.54130    1.000
    H697     H        0.43710    0.77240    0.52170    1.000
    H698     H        0.46680    0.75000    0.55000    1.000
    H699     H        0.43710    0.73400    0.50370    1.000
    Mn38     Mn       0.28785    0.78983    0.50493    1.000
    N99      N        0.29355    0.82384    0.58134    1.000
    N100     N        0.26632    0.82830    0.63063    1.000
    N101     N        0.26159    0.82382    0.42125    1.000
    O112     O        0.32909    0.79847    0.46571    1.000
    O113     O        0.31698    0.86494    0.65032    1.000
    O114     O        0.24617    0.78688    0.55685    1.000
    C626     C        0.35008    0.82226    0.48181    1.000
    C627     C        0.37811    0.82487    0.43550    1.000
    H700     H        0.38150    0.80970    0.39510    1.000
    C628     C        0.40082    0.84926    0.44800    1.000
    H701     H        0.41960    0.85060    0.41610    1.000
    C629     C        0.39669    0.87157    0.50580    1.000
    H702     H        0.41220    0.88860    0.51330    1.000
    C630     C        0.36986    0.86905    0.55279    1.000
    H703     H        0.36730    0.88420    0.59350    1.000
    C631     C        0.34616    0.84467    0.54217    1.000
    C632     C        0.31771    0.84452    0.59422    1.000
    C633     C        0.24297    0.80819    0.61178    1.000
    C634     C        0.21032    0.81016    0.65120    1.000
    H704     H        0.20340    0.78800    0.66710    1.000
    H705     H        0.21230    0.82390    0.69770    1.000
    C635     C        0.18451    0.82496    0.59720    1.000
    H706     H        0.16270    0.82240    0.62090    1.000
    H707     H        0.18450    0.81250    0.54860    1.000
    C636     C        0.19011    0.86071    0.57970    1.000
    H708     H        0.19050    0.87300    0.62850    1.000
    H709     H        0.21190    0.86320    0.55550    1.000
    C637     C        0.16455    0.87584    0.52740    1.000
    H710     H        0.16380    0.86340    0.47880    1.000
    H711     H        0.14280    0.87400    0.55200    1.000
    C638     C        0.17152    0.91200    0.50970    1.000
    H712     H        0.19400    0.91430    0.49100    1.000
    H713     H        0.15620    0.91970    0.47050    1.000
    H714     H        0.16880    0.92500    0.55640    1.000
    C639     C        0.27134    0.85385    0.40450    1.000
    H715     H        0.29250    0.86060    0.42060    1.000
    C640     C        0.25193    0.87575    0.36460    1.000
    H716     H        0.26000    0.89700    0.35330    1.000
    C641     C        0.22109    0.86690    0.34130    1.000
    C642     C        0.21137    0.83600    0.35760    1.000
    H717     H        0.19040    0.82870    0.34150    1.000
    C643     C        0.23161    0.81517    0.39730    1.000
    H718     H        0.22400    0.79370    0.40830    1.000
    C644     C        0.19918    0.88977    0.29600    1.000
    H719     H        0.20530    0.91270    0.30720    1.000
    H720     H        0.17620    0.88650    0.31190    1.000
    Mn39     Mn       0.22001    0.63712    0.77584    1.000
    O115     O        0.24195    0.60133    0.81595    1.000
    O116     O        0.29746    0.63187    0.62221    1.000
    O117     O        0.20244    0.67463    0.72280    1.000
    N102     N        0.25439    0.64371    0.69996    1.000
    N103     N        0.24969    0.67151    0.65292    1.000
    N104     N        0.14500    0.94125    0.05800    1.000
    C645     C        0.26652    0.58430    0.78573    1.000
    C646     C        0.27420    0.55444    0.82121    1.000
    H721     H        0.26200    0.54760    0.86470    1.000
    C647     C        0.29911    0.53501    0.79390    1.000
    H722     H        0.30380    0.51490    0.81880    1.000
    C648     C        0.31739    0.54425    0.73057    1.000
    H723     H        0.33450    0.53070    0.71180    1.000
    C649     C        0.31012    0.57349    0.69566    1.000
    H724     H        0.32260    0.58000    0.65240    1.000
    C650     C        0.28507    0.59408    0.72120    1.000
    C651     C        0.27880    0.62459    0.67981    1.000
    C652     C        0.22192    0.68525    0.66902    1.000
    C653     C        0.21002    0.71372    0.62220    1.000
    H725     H        0.22820    0.72210    0.59030    1.000
    H726     H        0.20290    0.73150    0.65690    1.000
    C654     C        0.18102    0.70365    0.56960    1.000
    H727     H        0.18880    0.68720    0.53230    1.000
    H728     H        0.16390    0.69320    0.60140    1.000
    C655     C        0.16610    0.73197    0.52650    1.000
    H729     H        0.14210    0.72990    0.53240    1.000
    H730     H        0.17260    0.75210    0.55430    1.000
    C656     C        0.17100    0.73700    0.46170    1.000
    H731     H        0.16770    0.71610    0.43410    1.000
    H732     H        0.19440    0.74260    0.45640    1.000
    C657     C        0.15120    0.76348    0.41880    1.000
    H733     H        0.13140    0.76870    0.44780    1.000
    H734     H        0.14520    0.75540    0.36790    1.000
    H735     H        0.16460    0.78320    0.41340    1.000
    C658     C        0.14009    0.94317    0.13319    1.000
    H736     H        0.12360    0.95760    0.15130    1.000
    C659     C        0.15764    0.92529    0.18640    1.000
    H737     H        0.15310    0.92740    0.23960    1.000
    C660     C        0.18179    0.90437    0.16110    1.000
    C661     C        0.18741    0.90282    0.08330    1.000
    H738     H        0.20420    0.88910    0.06350    1.000
    C662     C        0.16850    0.92136    0.03440    1.000
    H739     H        0.17250    0.91980    0.98090    1.000
    C663     C        0.20219    0.88380    0.21550    1.000
    H740     H        0.22550    0.88680    0.20140    1.000
    H741     H        0.19670    0.86060    0.20620    1.000
    Mn40     Mn       0.79019    0.17338    0.06589    1.000
    O118     O        0.76303    0.15546    0.99031    1.000
    O119     O        0.77522    0.25547    0.93036    1.000
    O120     O        0.81634    0.19875    0.13691    1.000
    N105     N        0.78611    0.21601    0.01916    1.000
    N106     N        0.80137    0.24165    0.06110    1.000
    C664     C        0.75016    0.16925    0.92787    1.000
    C665     C        0.73021    0.14971    0.88190    1.000
    H742     H        0.72560    0.12790    0.89710    1.000
    C666     C        0.71708    0.16160    0.81450    1.000
    H743     H        0.70340    0.14790    0.78440    1.000
    C667     C        0.72343    0.19311    0.78990    1.000
    H744     H        0.71510    0.20090    0.74250    1.000
    C668     C        0.74234    0.21315    0.83660    1.000
    H745     H        0.74640    0.23500    0.82110    1.000
    C669     C        0.75557    0.20189    0.90594    1.000
    C670     C        0.77321    0.22560    0.95339    1.000
    C671     C        0.81594    0.23009    0.12173    1.000
    C672     C        0.83313    0.25237    0.17667    1.000
    H746     H        0.83060    0.27520    0.15900    1.000
    H747     H        0.82270    0.25050    0.22760    1.000
    C673     C        0.86932    0.24467    0.18450    1.000
    H748     H        0.87880    0.25860    0.22520    1.000
    H749     H        0.87190    0.22160    0.20020    1.000
    C674     C        0.88814    0.25038    0.10960    1.000
    H750     H        0.87930    0.23570    0.06960    1.000
    H751     H        0.88460    0.27320    0.09260    1.000
    C675     C        0.92504    0.24429    0.11760    1.000
    H752     H        0.93400    0.25880    0.15790    1.000
    H753     H        0.92880    0.22140    0.13360    1.000
    C676     C        0.94319    0.25079    0.04130    1.000
    H754     H        0.93710    0.27240    0.02170    1.000
    H755     H        0.96680    0.25000    0.05000    1.000
    H756     H        0.93710    0.23400    0.00370    1.000
    Mn41     Mn       0.78785    0.28983    0.00493    1.000
    N107     N        0.79355    0.32384    0.08134    1.000
    N108     N        0.76632    0.32830    0.13063    1.000
    N109     N        0.76159    0.32382    0.92125    1.000
    O121     O        0.82909    0.29847    0.96571    1.000
    O122     O        0.81698    0.36494    0.15032    1.000
    O123     O        0.74617    0.28688    0.05685    1.000
    C677     C        0.85008    0.32226    0.98181    1.000
    C678     C        0.87811    0.32487    0.93550    1.000
    H757     H        0.88150    0.30970    0.89510    1.000
    C679     C        0.90082    0.34926    0.94800    1.000
    H758     H        0.91960    0.35060    0.91610    1.000
    C680     C        0.89669    0.37157    0.00580    1.000
    H759     H        0.91220    0.38860    0.01330    1.000
    C681     C        0.86986    0.36905    0.05279    1.000
    H760     H        0.86730    0.38420    0.09350    1.000
    C682     C        0.84616    0.34467    0.04217    1.000
    C683     C        0.81771    0.34452    0.09422    1.000
    C684     C        0.74297    0.30819    0.11178    1.000
    C685     C        0.71032    0.31016    0.15120    1.000
    H761     H        0.70340    0.28800    0.16710    1.000
    H762     H        0.71230    0.32390    0.19770    1.000
    C686     C        0.68451    0.32496    0.09720    1.000
    H763     H        0.66270    0.32240    0.12090    1.000
    H764     H        0.68450    0.31250    0.04860    1.000
    C687     C        0.69011    0.36071    0.07970    1.000
    H765     H        0.69050    0.37300    0.12850    1.000
    H766     H        0.71190    0.36320    0.05550    1.000
    C688     C        0.66455    0.37584    0.02740    1.000
    H767     H        0.66380    0.36340    0.97880    1.000
    H768     H        0.64280    0.37400    0.05200    1.000
    C689     C        0.67152    0.41200    0.00970    1.000
    H769     H        0.69400    0.41430    0.99100    1.000
    H770     H        0.65620    0.41970    0.97050    1.000
    H771     H        0.66880    0.42500    0.05640    1.000
    C690     C        0.77134    0.35385    0.90450    1.000
    H772     H        0.79250    0.36060    0.92060    1.000
    C691     C        0.75193    0.37575    0.86460    1.000
    H773     H        0.76000    0.39700    0.85330    1.000
    C692     C        0.72109    0.36690    0.84130    1.000
    C693     C        0.71137    0.33600    0.85760    1.000
    H774     H        0.69040    0.32870    0.84150    1.000
    C694     C        0.73161    0.31517    0.89730    1.000
    H775     H        0.72400    0.29370    0.90830    1.000
    C695     C        0.69918    0.38977    0.79600    1.000
    H776     H        0.70530    0.41270    0.80720    1.000
    H777     H        0.67620    0.38650    0.81190    1.000
    Mn42     Mn       0.72001    0.13712    0.27584    1.000
    O124     O        0.74195    0.10133    0.31595    1.000
    O125     O        0.79746    0.13187    0.12221    1.000
    O126     O        0.70244    0.17463    0.22280    1.000
    N110     N        0.75439    0.14371    0.19996    1.000
    N111     N        0.74969    0.17151    0.15292    1.000
    N112     N        0.64500    0.44125    0.55800    1.000
    C696     C        0.76652    0.08430    0.28573    1.000
    C697     C        0.77420    0.05444    0.32121    1.000
    H778     H        0.76200    0.04760    0.36470    1.000
    C698     C        0.79911    0.03501    0.29390    1.000
    H779     H        0.80380    0.01490    0.31880    1.000
    C699     C        0.81739    0.04425    0.23057    1.000
    H780     H        0.83450    0.03070    0.21180    1.000
    C700     C        0.81012    0.07349    0.19566    1.000
    H781     H        0.82260    0.08000    0.15240    1.000
    C701     C        0.78507    0.09408    0.22120    1.000
    C702     C        0.77880    0.12459    0.17981    1.000
    C703     C        0.72192    0.18525    0.16902    1.000
    C704     C        0.71002    0.21372    0.12220    1.000
    H782     H        0.72820    0.22210    0.09030    1.000
    H783     H        0.70290    0.23150    0.15690    1.000
    C705     C        0.68102    0.20365    0.06960    1.000
    H784     H        0.68880    0.18720    0.03230    1.000
    H785     H        0.66390    0.19320    0.10140    1.000
    C706     C        0.66610    0.23197    0.02650    1.000
    H786     H        0.64210    0.22990    0.03240    1.000
    H787     H        0.67260    0.25210    0.05430    1.000
    C707     C        0.67100    0.23700    0.96170    1.000
    H788     H        0.66770    0.21610    0.93410    1.000
    H789     H        0.69440    0.24260    0.95640    1.000
    C708     C        0.65120    0.26348    0.91880    1.000
    H790     H        0.63140    0.26870    0.94780    1.000
    H791     H        0.64520    0.25540    0.86790    1.000
    H792     H        0.66460    0.28320    0.91340    1.000
    C709     C        0.64009    0.44317    0.63319    1.000
    H793     H        0.62360    0.45760    0.65130    1.000
    C710     C        0.65764    0.42529    0.68640    1.000
    H794     H        0.65310    0.42740    0.73960    1.000
    C711     C        0.68179    0.40437    0.66110    1.000
    C712     C        0.68741    0.40282    0.58330    1.000
    H795     H        0.70420    0.38910    0.56350    1.000
    C713     C        0.66850    0.42136    0.53440    1.000
    H796     H        0.67250    0.41980    0.48090    1.000
    C714     C        0.70219    0.38380    0.71550    1.000
    H797     H        0.72550    0.38680    0.70140    1.000
    H798     H        0.69670    0.36060    0.70620    1.000
    Mn43     Mn       0.20981    0.32662    0.06589    1.000
    O127     O        0.23697    0.34454    0.99031    1.000
    O128     O        0.22478    0.24453    0.93036    1.000
    O129     O        0.18366    0.30125    0.13691    1.000
    N113     N        0.21389    0.28399    0.01916    1.000
    N114     N        0.19863    0.25835    0.06110    1.000
    C715     C        0.24984    0.33075    0.92787    1.000
    C716     C        0.26979    0.35029    0.88190    1.000
    H799     H        0.27440    0.37210    0.89710    1.000
    C717     C        0.28292    0.33840    0.81450    1.000
    H800     H        0.29660    0.35210    0.78440    1.000
    C718     C        0.27657    0.30689    0.78990    1.000
    H801     H        0.28490    0.29910    0.74250    1.000
    C719     C        0.25766    0.28685    0.83660    1.000
    H802     H        0.25360    0.26500    0.82110    1.000
    C720     C        0.24443    0.29811    0.90594    1.000
    C721     C        0.22679    0.27440    0.95339    1.000
    C722     C        0.18406    0.26991    0.12173    1.000
    C723     C        0.16687    0.24763    0.17667    1.000
    H803     H        0.16940    0.22480    0.15900    1.000
    H804     H        0.17730    0.24950    0.22760    1.000
    C724     C        0.13068    0.25533    0.18450    1.000
    H805     H        0.12120    0.24140    0.22520    1.000
    H806     H        0.12810    0.27840    0.20020    1.000
    C725     C        0.11186    0.24962    0.10960    1.000
    H807     H        0.12070    0.26430    0.06960    1.000
    H808     H        0.11540    0.22680    0.09260    1.000
    C726     C        0.07496    0.25571    0.11760    1.000
    H809     H        0.06600    0.24120    0.15790    1.000
    H810     H        0.07120    0.27860    0.13360    1.000
    C727     C        0.05681    0.24921    0.04130    1.000
    H811     H        0.06290    0.22760    0.02170    1.000
    H812     H        0.03320    0.25000    0.05000    1.000
    H813     H        0.06290    0.26600    0.00370    1.000
    Mn44     Mn       0.21215    0.21017    0.00493    1.000
    N115     N        0.20645    0.17616    0.08134    1.000
    N116     N        0.23368    0.17170    0.13063    1.000
    N117     N        0.23841    0.17618    0.92125    1.000
    O130     O        0.17091    0.20153    0.96571    1.000
    O131     O        0.18302    0.13506    0.15032    1.000
    O132     O        0.25383    0.21312    0.05685    1.000
    C728     C        0.14992    0.17774    0.98181    1.000
    C729     C        0.12189    0.17513    0.93550    1.000
    H814     H        0.11850    0.19030    0.89510    1.000
    C730     C        0.09918    0.15074    0.94800    1.000
    H815     H        0.08040    0.14940    0.91610    1.000
    C731     C        0.10331    0.12843    0.00580    1.000
    H816     H        0.08780    0.11140    0.01330    1.000
    C732     C        0.13014    0.13095    0.05279    1.000
    H817     H        0.13270    0.11580    0.09350    1.000
    C733     C        0.15384    0.15533    0.04217    1.000
    C734     C        0.18229    0.15548    0.09422    1.000
    C735     C        0.25703    0.19181    0.11178    1.000
    C736     C        0.28968    0.18984    0.15120    1.000
    H818     H        0.29660    0.21200    0.16710    1.000
    H819     H        0.28770    0.17610    0.19770    1.000
    C737     C        0.31549    0.17504    0.09720    1.000
    H820     H        0.33730    0.17760    0.12090    1.000
    H821     H        0.31550    0.18750    0.04860    1.000
    C738     C        0.30989    0.13929    0.07970    1.000
    H822     H        0.30950    0.12700    0.12850    1.000
    H823     H        0.28810    0.13680    0.05550    1.000
    C739     C        0.33545    0.12416    0.02740    1.000
    H824     H        0.33620    0.13660    0.97880    1.000
    H825     H        0.35720    0.12600    0.05200    1.000
    C740     C        0.32848    0.08800    0.00970    1.000
    H826     H        0.30600    0.08570    0.99100    1.000
    H827     H        0.34380    0.08030    0.97050    1.000
    H828     H        0.33120    0.07500    0.05640    1.000
    C741     C        0.22866    0.14615    0.90450    1.000
    H829     H        0.20750    0.13940    0.92060    1.000
    C742     C        0.24807    0.12425    0.86460    1.000
    H830     H        0.24000    0.10300    0.85330    1.000
    C743     C        0.27891    0.13310    0.84130    1.000
    C744     C        0.28863    0.16400    0.85760    1.000
    H831     H        0.30960    0.17130    0.84150    1.000
    C745     C        0.26839    0.18483    0.89730    1.000
    H832     H        0.27600    0.20630    0.90830    1.000
    C746     C        0.30082    0.11023    0.79600    1.000
    H833     H        0.29470    0.08730    0.80720    1.000
    H834     H        0.32380    0.11350    0.81190    1.000
    Mn45     Mn       0.27999    0.36288    0.27584    1.000
    O133     O        0.25805    0.39867    0.31595    1.000
    O134     O        0.20254    0.36813    0.12221    1.000
    O135     O        0.29756    0.32537    0.22280    1.000
    N118     N        0.24561    0.35629    0.19996    1.000
    N119     N        0.25031    0.32849    0.15292    1.000
    N120     N        0.35500    0.05875    0.55800    1.000
    C747     C        0.23348    0.41570    0.28573    1.000
    C748     C        0.22580    0.44556    0.32121    1.000
    H835     H        0.23800    0.45240    0.36470    1.000
    C749     C        0.20089    0.46499    0.29390    1.000
    H836     H        0.19620    0.48510    0.31880    1.000
    C750     C        0.18261    0.45575    0.23057    1.000
    H837     H        0.16550    0.46930    0.21180    1.000
    C751     C        0.18988    0.42651    0.19566    1.000
    H838     H        0.17740    0.42000    0.15240    1.000
    C752     C        0.21493    0.40592    0.22120    1.000
    C753     C        0.22120    0.37541    0.17981    1.000
    C754     C        0.27808    0.31475    0.16902    1.000
    C755     C        0.28998    0.28628    0.12220    1.000
    H839     H        0.27180    0.27790    0.09030    1.000
    H840     H        0.29710    0.26850    0.15690    1.000
    C756     C        0.31898    0.29635    0.06960    1.000
    H841     H        0.31120    0.31280    0.03230    1.000
    H842     H        0.33610    0.30680    0.10140    1.000
    C757     C        0.33390    0.26803    0.02650    1.000
    H843     H        0.35790    0.27010    0.03240    1.000
    H844     H        0.32740    0.24790    0.05430    1.000
    C758     C        0.32900    0.26300    0.96170    1.000
    H845     H        0.33230    0.28390    0.93410    1.000
    H846     H        0.30560    0.25740    0.95640    1.000
    C759     C        0.34880    0.23652    0.91880    1.000
    H847     H        0.36860    0.23130    0.94780    1.000
    H848     H        0.35480    0.24460    0.86790    1.000
    H849     H        0.33540    0.21680    0.91340    1.000
    C760     C        0.35991    0.05683    0.63319    1.000
    H850     H        0.37640    0.04240    0.65130    1.000
    C761     C        0.34236    0.07471    0.68640    1.000
    H851     H        0.34690    0.07260    0.73960    1.000
    C762     C        0.31821    0.09563    0.66110    1.000
    C763     C        0.31259    0.09718    0.58330    1.000
    H852     H        0.29580    0.11090    0.56350    1.000
    C764     C        0.33150    0.07864    0.53440    1.000
    H853     H        0.32750    0.08020    0.48090    1.000
    C765     C        0.29781    0.11620    0.71550    1.000
    H854     H        0.27450    0.11320    0.70140    1.000
    H855     H        0.30330    0.13940    0.70620    1.000
    Mn46     Mn       0.70981    0.82662    0.56589    1.000
    O136     O        0.73697    0.84454    0.49031    1.000
    O137     O        0.72478    0.74453    0.43036    1.000
    O138     O        0.68366    0.80125    0.63691    1.000
    N121     N        0.71389    0.78399    0.51916    1.000
    N122     N        0.69863    0.75835    0.56110    1.000
    C766     C        0.74984    0.83075    0.42787    1.000
    C767     C        0.76979    0.85029    0.38190    1.000
    H856     H        0.77440    0.87210    0.39710    1.000
    C768     C        0.78292    0.83840    0.31450    1.000
    H857     H        0.79660    0.85210    0.28440    1.000
    C769     C        0.77657    0.80689    0.28990    1.000
    H858     H        0.78490    0.79910    0.24250    1.000
    C770     C        0.75766    0.78685    0.33660    1.000
    H859     H        0.75360    0.76500    0.32110    1.000
    C771     C        0.74443    0.79811    0.40594    1.000
    C772     C        0.72679    0.77440    0.45339    1.000
    C773     C        0.68406    0.76991    0.62173    1.000
    C774     C        0.66687    0.74763    0.67667    1.000
    H860     H        0.66940    0.72480    0.65900    1.000
    H861     H        0.67730    0.74950    0.72760    1.000
    C775     C        0.63068    0.75533    0.68450    1.000
    H862     H        0.62120    0.74140    0.72520    1.000
    H863     H        0.62810    0.77840    0.70020    1.000
    C776     C        0.61186    0.74962    0.60960    1.000
    H864     H        0.62070    0.76430    0.56960    1.000
    H865     H        0.61540    0.72680    0.59260    1.000
    C777     C        0.57496    0.75571    0.61760    1.000
    H866     H        0.56600    0.74120    0.65790    1.000
    H867     H        0.57120    0.77860    0.63360    1.000
    C778     C        0.55681    0.74921    0.54130    1.000
    H868     H        0.56290    0.72760    0.52170    1.000
    H869     H        0.53320    0.75000    0.55000    1.000
    H870     H        0.56290    0.76600    0.50370    1.000
    Mn47     Mn       0.71215    0.71017    0.50493    1.000
    N123     N        0.70645    0.67616    0.58134    1.000
    N124     N        0.73368    0.67170    0.63063    1.000
    N125     N        0.73841    0.67618    0.42125    1.000
    O139     O        0.67091    0.70153    0.46571    1.000
    O140     O        0.68302    0.63506    0.65032    1.000
    O141     O        0.75383    0.71312    0.55685    1.000
    C779     C        0.64992    0.67774    0.48181    1.000
    C780     C        0.62189    0.67513    0.43550    1.000
    H871     H        0.61850    0.69030    0.39510    1.000
    C781     C        0.59918    0.65074    0.44800    1.000
    H872     H        0.58040    0.64940    0.41610    1.000
    C782     C        0.60331    0.62843    0.50580    1.000
    H873     H        0.58780    0.61140    0.51330    1.000
    C783     C        0.63014    0.63095    0.55279    1.000
    H874     H        0.63270    0.61580    0.59350    1.000
    C784     C        0.65384    0.65533    0.54217    1.000
    C785     C        0.68229    0.65548    0.59422    1.000
    C786     C        0.75703    0.69181    0.61178    1.000
    C787     C        0.78968    0.68984    0.65120    1.000
    H875     H        0.79660    0.71200    0.66710    1.000
    H876     H        0.78770    0.67610    0.69770    1.000
    C788     C        0.81549    0.67504    0.59720    1.000
    H877     H        0.83730    0.67760    0.62090    1.000
    H878     H        0.81550    0.68750    0.54860    1.000
    C789     C        0.80989    0.63929    0.57970    1.000
    H879     H        0.80950    0.62700    0.62850    1.000
    H880     H        0.78810    0.63680    0.55550    1.000
    C790     C        0.83545    0.62416    0.52740    1.000
    H881     H        0.83620    0.63660    0.47880    1.000
    H882     H        0.85720    0.62600    0.55200    1.000
    C791     C        0.82848    0.58800    0.50970    1.000
    H883     H        0.80600    0.58570    0.49100    1.000
    H884     H        0.84380    0.58030    0.47050    1.000
    H885     H        0.83120    0.57500    0.55640    1.000
    C792     C        0.72866    0.64615    0.40450    1.000
    H886     H        0.70750    0.63940    0.42060    1.000
    C793     C        0.74807    0.62425    0.36460    1.000
    H887     H        0.74000    0.60300    0.35330    1.000
    C794     C        0.77891    0.63310    0.34130    1.000
    C795     C        0.78863    0.66400    0.35760    1.000
    H888     H        0.80960    0.67130    0.34150    1.000
    C796     C        0.76839    0.68483    0.39730    1.000
    H889     H        0.77600    0.70630    0.40830    1.000
    C797     C        0.80082    0.61023    0.29600    1.000
    H890     H        0.79470    0.58730    0.30720    1.000
    H891     H        0.82380    0.61350    0.31190    1.000
    Mn48     Mn       0.77999    0.86288    0.77584    1.000
    O142     O        0.75805    0.89867    0.81595    1.000
    O143     O        0.70254    0.86813    0.62221    1.000
    O144     O        0.79756    0.82537    0.72280    1.000
    N126     N        0.74561    0.85629    0.69996    1.000
    N127     N        0.75031    0.82849    0.65292    1.000
    N128     N        0.85500    0.55875    0.05800    1.000
    C798     C        0.73348    0.91570    0.78573    1.000
    C799     C        0.72580    0.94556    0.82121    1.000
    H892     H        0.73800    0.95240    0.86470    1.000
    C800     C        0.70089    0.96499    0.79390    1.000
    H893     H        0.69620    0.98510    0.81880    1.000
    C801     C        0.68261    0.95575    0.73057    1.000
    H894     H        0.66550    0.96930    0.71180    1.000
    C802     C        0.68988    0.92651    0.69566    1.000
    H895     H        0.67740    0.92000    0.65240    1.000
    C803     C        0.71493    0.90592    0.72120    1.000
    C804     C        0.72120    0.87541    0.67981    1.000
    C805     C        0.77808    0.81475    0.66902    1.000
    C806     C        0.78998    0.78628    0.62220    1.000
    H896     H        0.77180    0.77790    0.59030    1.000
    H897     H        0.79710    0.76850    0.65690    1.000
    C807     C        0.81898    0.79635    0.56960    1.000
    H898     H        0.81120    0.81280    0.53230    1.000
    H899     H        0.83610    0.80680    0.60140    1.000
    C808     C        0.83390    0.76803    0.52650    1.000
    H900     H        0.85790    0.77010    0.53240    1.000
    H901     H        0.82740    0.74790    0.55430    1.000
    C809     C        0.82900    0.76300    0.46170    1.000
    H902     H        0.83230    0.78390    0.43410    1.000
    H903     H        0.80560    0.75740    0.45640    1.000
    C810     C        0.84880    0.73652    0.41880    1.000
    H904     H        0.86860    0.73130    0.44780    1.000
    H905     H        0.85480    0.74460    0.36790    1.000
    H906     H        0.83540    0.71680    0.41340    1.000
    C811     C        0.85991    0.55683    0.13319    1.000
    H907     H        0.87640    0.54240    0.15130    1.000
    C812     C        0.84236    0.57471    0.18640    1.000
    H908     H        0.84690    0.57260    0.23960    1.000
    C813     C        0.81821    0.59563    0.16110    1.000
    C814     C        0.81259    0.59718    0.08330    1.000
    H909     H        0.79580    0.61090    0.06350    1.000
    C815     C        0.83150    0.57864    0.03440    1.000
    H910     H        0.82750    0.58020    0.98090    1.000
    C816     C        0.79781    0.61620    0.21550    1.000
    H911     H        0.77450    0.61320    0.20140    1.000
    H912     H        0.80330    0.63940    0.20620    1.000
