data_functionalizedCrystal
_audit_creation_method	'EQeq! by Chris Wilmer'
_symmetry_space_group_name_H-M	'P1'
_symmetry_Int_Tables_number	1
_symmetry_cell_setting	triclinic
loop_
_symmetry_equiv_pos_as_xyz
  x,y,z
_cell_length_a	12.6539
_cell_length_b	12.6539
_cell_length_c	15.1151
_cell_angle_alpha	90
_cell_angle_beta	90
_cell_angle_gamma	120
loop_
_atom_site_label
_atom_site_type_symbol
_atom_site_fract_x
_atom_site_fract_y
_atom_site_fract_z
_atom_site_charge
Mof_Ti	Ti	0.5275	0.2123	0.35853	1.781
Mof_Ti	Ti	0.49026	0.75639	0.81731	1.957
Mof_O 	O 	0.43225	0.6887	0.70891	-0.538
Mof_O 	O 	0.48479	0.31651	0.41903	-0.519
Mof_O 	O 	0.6132	0.4832	0.46866	-0.504
Mof_O 	O 	0.49798	0.62502	0.86057	-0.653
Mof_O 	O 	0.56028	0.3181	0.25412	-0.527
Mof_O 	O 	0.3319	0.49407	0.92108	-0.625
Mof_O 	O 	0.52705	0.41053	0.32778	-0.592
Mof_O 	O 	0.3944	0.50384	0.7678	-0.568
Mof_C 	C 	0.503	0.3962	0.47915	0.47
Mof_C 	C 	0.4374	0.5961	0.72361	0.342
Mof_C 	C 	0.40254	0.42	0.52076	-0.114
Mof_C 	C 	0.54032	0.60331	0.66622	-0.075
Mof_C 	C 	0.41218	0.54752	0.52254	0.034
Mof_C 	C 	0.53781	0.48142	0.65561	0.037
Mof_C 	C 	0.52183	0.64615	0.57513	0.022
Mof_C 	C 	0.4205	0.38448	0.61224	-0.001
Mof_C 	C 	0.49477	0.43394	0.99883	-0.01
Mof_C 	C 	0.4705	0.41238	0.16183	-0.13
Mof_C 	C 	0.53724	0.40007	0.08186	0.044
Mof_C 	C 	0.49814	0.54358	0.17193	-0.013
Mof_C 	C 	0.4771	0.59594	0.08916	0.018
Mof_C 	C 	0.52466	0.56616	0.00562	-0.097
Mof_C 	C 	0.44351	0.56912	0.93002	0.521
Mof_C 	C 	0.51332	0.3886	0.24951	0.412
Mof_Ti	Ti	0.7877	0.3152	0.35853	1.776
Mof_Ti	Ti	0.24361	0.73387	0.81731	1.962
Mof_O 	O 	0.3113	0.74355	0.70891	-0.536
Mof_O 	O 	0.68349	0.16828	0.41903	-0.517
Mof_O 	O 	0.5168	0.13	0.46866	-0.504
Mof_O 	O 	0.37498	0.87296	0.86057	-0.649
Mof_O 	O 	0.6819	0.24218	0.25412	-0.528
Mof_O 	O 	0.50593	0.83783	0.92108	-0.621
Mof_O 	O 	0.58947	0.11652	0.32778	-0.597
Mof_O 	O 	0.49616	0.89056	0.7678	-0.562
Mof_C 	C 	0.6038	0.1068	0.47915	0.454
Mof_C 	C 	0.4039	0.8413	0.72361	0.338
Mof_C 	C 	0.58	0.98254	0.52076	-0.089
Mof_C 	C 	0.39669	0.93701	0.66622	-0.06
Mof_C 	C 	0.45248	0.86466	0.52254	0.032
Mof_C 	C 	0.51858	0.05639	0.65561	0.025
Mof_C 	C 	0.35385	0.87568	0.57513	0.026
Mof_C 	C 	0.61552	0.03602	0.61224	-0.019
Mof_C 	C 	0.56606	0.06083	0.99883	-0.029
Mof_C 	C 	0.58762	0.05812	0.16183	-0.15
Mof_C 	C 	0.59993	0.13717	0.08186	0.047
Mof_C 	C 	0.45642	0.95456	0.17193	0.008
Mof_C 	C 	0.40406	0.88116	0.08916	0.014
Mof_C 	C 	0.43384	0.9585	0.00562	-0.078
Mof_C 	C 	0.43088	0.87439	0.93002	0.518
Mof_C 	C 	0.6114	0.12472	0.24951	0.412
Mof_Ti	Ti	0.6848	0.4725	0.35853	1.784
Mof_Ti	Ti	0.26613	0.50974	0.81731	1.958
Mof_O 	O 	0.25645	0.56775	0.70891	-0.536
Mof_O 	O 	0.83172	0.51521	0.41903	-0.516
Mof_O 	O 	0.87	0.3868	0.46866	-0.504
Mof_O 	O 	0.12704	0.50202	0.86057	-0.65
Mof_O 	O 	0.75782	0.43972	0.25412	-0.527
Mof_O 	O 	0.16217	0.6681	0.92108	-0.62
Mof_O 	O 	0.88348	0.47295	0.32778	-0.596
Mof_O 	O 	0.10944	0.6056	0.7678	-0.562
Mof_C 	C 	0.8932	0.497	0.47915	0.455
Mof_C 	C 	0.1587	0.5626	0.72361	0.338
Mof_C 	C 	0.01746	0.59746	0.52076	-0.087
Mof_C 	C 	0.06299	0.45968	0.66622	-0.061
Mof_C 	C 	0.13534	0.58782	0.52254	0.033
Mof_C 	C 	0.94361	0.46219	0.65561	0.025
Mof_C 	C 	0.12432	0.47817	0.57513	0.023
Mof_C 	C 	0.96398	0.5795	0.61224	-0.016
Mof_C 	C 	0.93917	0.50523	0.99883	-0.027
Mof_C 	C 	0.94188	0.5295	0.16183	-0.147
Mof_C 	C 	0.86283	0.46276	0.08186	0.047
Mof_C 	C 	0.04544	0.50186	0.17193	0.006
Mof_C 	C 	0.11884	0.5229	0.08916	0.013
Mof_C 	C 	0.0415	0.47534	0.00562	-0.08
Mof_C 	C 	0.12561	0.55649	0.93002	0.519
Mof_C 	C 	0.87528	0.48668	0.24951	0.412
Mof_O 	O 	0.66667	0.33333	0.40397	-0.943
Mof_O 	O 	0.33333	0.66667	0.84779	-1.086
_end
