data_functionalizedCrystal
_audit_creation_method	'EQeq! by Chris Wilmer'
_symmetry_space_group_name_H-M	'P1'
_symmetry_Int_Tables_number	1
_symmetry_cell_setting	triclinic
loop_
_symmetry_equiv_pos_as_xyz
  x,y,z
_cell_length_a	10.782
_cell_length_b	8.781
_cell_length_c	25.017
_cell_angle_alpha	90
_cell_angle_beta	98.139
_cell_angle_gamma	90
loop_
_atom_site_label
_atom_site_type_symbol
_atom_site_fract_x
_atom_site_fract_y
_atom_site_fract_z
_atom_site_charge
Mof_Cu	Cu	0.16107	0.2206	0.7365	0.926
Mof_N 	N 	0.2252	0.1828	0.81467	-0.224
Mof_O 	O 	0.9897	0.1801	0.74837	-0.363
Mof_O 	O 	0.968	0.9973	0.68564	-0.275
Mof_N 	N 	0.6021	0.2336	0.15807	-0.227
Mof_O 	O 	0.3952	0.9733	0.6261	-0.113
Mof_N 	N 	0.3668	0.1364	0.979	-0.094
Mof_N 	N 	0.5019	0.9291	0.63975	-0.016
Mof_C 	C 	0.5806	0.0119	0.6824	0.141
Mof_C 	C 	0.7878	0.0857	0.71995	0.008
Mof_C 	C 	0.3739	0.2567	0.88939	-0.21
Mof_H 	H 	0.4419	0.317	0.9032	0.129
Mof_O 	O 	0.546	0.8167	0.62045	-0.114
Mof_C 	C 	0.2235	0.0651	0.90017	-0.209
Mof_H 	H 	0.1881	0.9948	0.9214	0.128
Mof_C 	C 	0.5269	0.0908	0.72158	-0.13
Mof_C 	C 	0.3225	0.2674	0.83633	0.137
Mof_H 	H 	0.3568	0.3366	0.8144	-0
Mof_C 	C 	0.3227	0.1545	0.92214	0.199
Mof_C 	C 	0.4992	0.2146	0.05074	0.201
Mof_C 	C 	0.7372	0.1626	0.76006	-0.08
Mof_H 	H 	0.7902	0.2124	0.7871	0.088
Mof_C 	C 	0.7076	0.0086	0.68094	-0.125
Mof_H 	H 	0.7395	0.9548	0.6539	0.107
Mof_C 	C 	0.1777	0.0816	0.84618	0.142
Mof_H 	H 	0.1115	0.0202	0.8312	0.001
Mof_N 	N 	0.4524	0.2212	0.99438	-0.099
Mof_C 	C 	0.9267	0.0838	0.71719	0.292
Mof_C 	C 	0.6086	0.1668	0.76075	0.041
Mof_H 	H 	0.5768	0.221	0.7877	0.037
Mof_C 	C 	0.4504	0.1288	0.08894	-0.212
Mof_H 	H 	0.3829	0.0639	0.0791	0.126
Mof_C 	C 	0.5041	0.1415	0.14223	0.132
Mof_H 	H 	0.4712	0.0843	0.1682	-0.007
Mof_C 	C 	0.6485	0.3136	0.12042	0.134
Mof_H 	H 	0.717	0.3766	0.1309	0.004
Mof_C 	C 	0.6002	0.3075	0.06678	-0.217
Mof_H 	H 	0.6352	0.3654	0.0416	0.127
Mof_C 	C 	0.389	0.0916	0.7269	0.378
Mof_O 	O 	0.33562	0.22	0.71968	-0.384
Mof_O 	O 	0.3399	0.9736	0.74016	-0.375
Mof_Cu	Cu	0.66107	0.2794	0.2365	0.926
Mof_N 	N 	0.7252	0.3172	0.31467	-0.224
Mof_O 	O 	0.4897	0.3199	0.24837	-0.364
Mof_O 	O 	0.468	0.5027	0.18564	-0.278
Mof_N 	N 	0.1021	0.2664	0.65807	-0.226
Mof_O 	O 	0.8952	0.5267	0.1261	-0.115
Mof_N 	N 	0.8668	0.3636	0.479	-0.094
Mof_N 	N 	0.0019	0.5709	0.13975	-0.016
Mof_C 	C 	0.0806	0.4881	0.1824	0.141
Mof_C 	C 	0.2878	0.4143	0.21995	0.005
Mof_C 	C 	0.8739	0.2433	0.38939	-0.209
Mof_H 	H 	0.9419	0.183	0.4032	0.129
Mof_O 	O 	0.046	0.6833	0.12045	-0.114
Mof_C 	C 	0.7235	0.4349	0.40017	-0.205
Mof_H 	H 	0.6881	0.5052	0.4214	0.125
Mof_C 	C 	0.0269	0.4092	0.22158	-0.129
Mof_C 	C 	0.8225	0.2326	0.33633	0.136
Mof_H 	H 	0.8568	0.1634	0.3144	0
Mof_C 	C 	0.8227	0.3455	0.42214	0.198
Mof_C 	C 	0.9992	0.2854	0.55074	0.2
Mof_C 	C 	0.2372	0.3374	0.26006	-0.078
Mof_H 	H 	0.2902	0.2876	0.2871	0.087
Mof_C 	C 	0.2076	0.4914	0.18094	-0.12
Mof_H 	H 	0.2395	0.5452	0.1539	0.104
Mof_C 	C 	0.6777	0.4184	0.34618	0.14
Mof_H 	H 	0.6115	0.4798	0.3312	0.002
Mof_N 	N 	0.9524	0.2788	0.49438	-0.099
Mof_C 	C 	0.4267	0.4162	0.21719	0.295
Mof_C 	C 	0.1086	0.3332	0.26075	0.04
Mof_H 	H 	0.0768	0.279	0.2877	0.038
Mof_C 	C 	0.9504	0.3712	0.58894	-0.21
Mof_H 	H 	0.8829	0.4361	0.5791	0.125
Mof_C 	C 	0.0041	0.3585	0.64223	0.128
Mof_H 	H 	0.9712	0.4157	0.6682	-0.006
Mof_C 	C 	0.1485	0.1864	0.62042	0.134
Mof_H 	H 	0.217	0.1234	0.6309	0.003
Mof_C 	C 	0.1002	0.1925	0.56678	-0.218
Mof_H 	H 	0.1352	0.1346	0.5416	0.127
Mof_C 	C 	0.889	0.4084	0.2269	0.38
Mof_O 	O 	0.83562	0.28	0.21968	-0.384
Mof_O 	O 	0.8399	0.5264	0.24016	-0.377
Mof_Cu	Cu	0.33893	0.7206	0.7635	0.926
Mof_N 	N 	0.2748	0.6828	0.68533	-0.224
Mof_O 	O 	0.5103	0.6801	0.75163	-0.364
Mof_O 	O 	0.532	0.4973	0.81436	-0.278
Mof_N 	N 	0.8979	0.7336	0.34193	-0.226
Mof_O 	O 	0.1048	0.4733	0.8739	-0.115
Mof_N 	N 	0.1332	0.6364	0.521	-0.094
Mof_N 	N 	0.9981	0.4291	0.86025	-0.016
Mof_C 	C 	0.9194	0.5119	0.8176	0.141
Mof_C 	C 	0.7122	0.5857	0.78005	0.005
Mof_C 	C 	0.1261	0.7567	0.61061	-0.209
Mof_H 	H 	0.0581	0.817	0.5968	0.129
Mof_O 	O 	0.954	0.3167	0.87955	-0.114
Mof_C 	C 	0.2765	0.5651	0.59983	-0.205
Mof_H 	H 	0.3119	0.4948	0.5786	0.125
Mof_C 	C 	0.9731	0.5908	0.77842	-0.129
Mof_C 	C 	0.1775	0.7674	0.66367	0.136
Mof_H 	H 	0.1432	0.8366	0.6856	0
Mof_C 	C 	0.1773	0.6545	0.57786	0.198
Mof_C 	C 	0.0008	0.7146	0.44926	0.2
Mof_C 	C 	0.7628	0.6626	0.73994	-0.078
Mof_H 	H 	0.7098	0.7124	0.7129	0.087
Mof_C 	C 	0.7924	0.5086	0.81906	-0.12
Mof_H 	H 	0.7605	0.4548	0.8461	0.104
Mof_C 	C 	0.3223	0.5816	0.65382	0.14
Mof_H 	H 	0.3885	0.5202	0.6688	0.002
Mof_N 	N 	0.0476	0.7212	0.50562	-0.099
Mof_C 	C 	0.5733	0.5838	0.78281	0.295
Mof_C 	C 	0.8914	0.6668	0.73925	0.04
Mof_H 	H 	0.9232	0.721	0.7123	0.038
Mof_C 	C 	0.0496	0.6288	0.41106	-0.21
Mof_H 	H 	0.1171	0.5639	0.4209	0.125
Mof_C 	C 	0.9959	0.6415	0.35777	0.128
Mof_H 	H 	0.0288	0.5843	0.3318	-0.006
Mof_C 	C 	0.8515	0.8136	0.37958	0.134
Mof_H 	H 	0.783	0.8766	0.3691	0.003
Mof_C 	C 	0.8998	0.8075	0.43322	-0.218
Mof_H 	H 	0.8648	0.8654	0.4584	0.127
Mof_C 	C 	0.111	0.5916	0.7731	0.38
Mof_O 	O 	0.16438	0.72	0.78032	-0.384
Mof_O 	O 	0.1601	0.4736	0.75984	-0.377
Mof_Cu	Cu	0.83893	0.7794	0.2635	0.925
Mof_N 	N 	0.7748	0.8172	0.18533	-0.225
Mof_O 	O 	0.0103	0.8199	0.25163	-0.363
Mof_O 	O 	0.032	0.0027	0.31436	-0.275
Mof_N 	N 	0.3979	0.7664	0.84193	-0.227
Mof_O 	O 	0.6048	0.0267	0.3739	-0.113
Mof_N 	N 	0.6332	0.8636	0.021	-0.094
Mof_N 	N 	0.4981	0.0709	0.36025	-0.016
Mof_C 	C 	0.4194	0.9881	0.3176	0.141
Mof_C 	C 	0.2122	0.9143	0.28005	0.008
Mof_C 	C 	0.6261	0.7433	0.11061	-0.21
Mof_H 	H 	0.5581	0.683	0.0968	0.129
Mof_O 	O 	0.454	0.1833	0.37955	-0.114
Mof_C 	C 	0.7765	0.9349	0.09983	-0.209
Mof_H 	H 	0.8119	0.0052	0.0786	0.128
Mof_C 	C 	0.4731	0.9092	0.27842	-0.13
Mof_C 	C 	0.6775	0.7326	0.16367	0.137
Mof_H 	H 	0.6432	0.6634	0.1856	-0
Mof_C 	C 	0.6773	0.8455	0.07786	0.199
Mof_C 	C 	0.5008	0.7854	0.94926	0.201
Mof_C 	C 	0.2628	0.8374	0.23994	-0.08
Mof_H 	H 	0.2098	0.7876	0.2129	0.088
Mof_C 	C 	0.2924	0.9914	0.31906	-0.125
Mof_H 	H 	0.2605	0.0452	0.3461	0.107
Mof_C 	C 	0.8223	0.9184	0.15382	0.142
Mof_H 	H 	0.8885	0.9798	0.1688	0.001
Mof_N 	N 	0.5476	0.7788	0.00562	-0.099
Mof_C 	C 	0.0733	0.9162	0.28281	0.292
Mof_C 	C 	0.3914	0.8332	0.23925	0.041
Mof_H 	H 	0.4232	0.779	0.2123	0.037
Mof_C 	C 	0.5496	0.8712	0.91106	-0.212
Mof_H 	H 	0.6171	0.9361	0.9209	0.126
Mof_C 	C 	0.4959	0.8585	0.85777	0.132
Mof_H 	H 	0.5288	0.9157	0.8318	-0.007
Mof_C 	C 	0.3515	0.6864	0.87958	0.134
Mof_H 	H 	0.283	0.6234	0.8691	0.004
Mof_C 	C 	0.3998	0.6925	0.93322	-0.217
Mof_H 	H 	0.3648	0.6346	0.9584	0.127
Mof_C 	C 	0.611	0.9084	0.2731	0.378
Mof_O 	O 	0.66438	0.78	0.28032	-0.384
Mof_O 	O 	0.6601	0.0264	0.25984	-0.375
_end
