# CIF file generated by openbabel 3.1.0, see https://openbabel.org
data_I
_chemical_name_common 'image0'
_cell_length_a 16.134
_cell_length_b 16.134
_cell_length_c 4.5489
_cell_angle_alpha 90
_cell_angle_beta 90
_cell_angle_gamma 90
_space_group_name_H-M_alt 'P 1'
_space_group_name_Hall 'P 1'
loop_
    _symmetry_equiv_pos_as_xyz
    x,y,z
loop_
    _atom_site_label
    _atom_site_type_symbol
    _atom_site_fract_x
    _atom_site_fract_y
    _atom_site_fract_z
    _atom_site_occupancy
    Cu1      Cu       0.19906    0.53858    0.50160    1.000
    O1       O        0.07860    0.69330    0.17300    1.000
    H1       H        0.04550    0.65490    0.18080    1.000
    O2       O        0.13190    0.61840    0.75400    1.000
    O3       O        0.21970    0.62130    0.20500    1.000
    O4       O        0.42400    0.96370    0.78100    1.000
    O5       O        0.47650    0.90230    0.27200    1.000
    O6       O        0.45490    0.81000    0.82600    1.000
    P1       P        0.15928    0.66462    0.99800    1.000
    P2       P        0.42488    0.88450    0.99950    1.000
    C1       C        0.20720    0.76060    0.89400    1.000
    C2       C        0.28390    0.78400    0.00700    1.000
    H2       H        0.31060    0.75230    0.14940    1.000
    C3       C        0.32000    0.85860    0.89700    1.000
    C4       C        0.27860    0.90880    0.69500    1.000
    H3       H        0.30250    0.95820    0.63200    1.000
    C5       C        0.20060    0.88440    0.58700    1.000
    C6       C        0.16670    0.81200    0.68100    1.000
    H4       H        0.11590    0.79530    0.60470    1.000
    C7       C        0.15300    0.93880    0.38100    1.000
    H5       H        0.10100    0.91300    0.33390    1.000
    H6       H        0.18440    0.94670    0.20370    1.000
    H7       H        0.14310    0.99150    0.47200    1.000
    O7       O        0.22100    0.62100    0.78200    1.000
    O8       O        0.13400    0.60920    0.28300    1.000
    O9       O        0.08100    0.69400    0.85200    1.000
    O10      O        0.45730    0.80510    0.17200    1.000
    O11      O        0.47700    0.90400    0.75800    1.000
    O12      O        0.41620    0.96150    0.20700    1.000
    Cu2      Cu       0.80094    0.46142    0.50160    1.000
    O13      O        0.92140    0.30670    0.17300    1.000
    H8       H        0.95450    0.34510    0.18080    1.000
    O14      O        0.86810    0.38160    0.75400    1.000
    O15      O        0.78030    0.37870    0.20500    1.000
    O16      O        0.57600    0.03630    0.78100    1.000
    O17      O        0.52350    0.09770    0.27200    1.000
    O18      O        0.54510    0.19000    0.82600    1.000
    P3       P        0.84072    0.33538    0.99800    1.000
    P4       P        0.57512    0.11550    0.99950    1.000
    C8       C        0.79280    0.23940    0.89400    1.000
    C9       C        0.71610    0.21600    0.00700    1.000
    H9       H        0.68940    0.24770    0.14940    1.000
    C10      C        0.68000    0.14140    0.89700    1.000
    C11      C        0.72140    0.09120    0.69500    1.000
    H10      H        0.69750    0.04180    0.63200    1.000
    C12      C        0.79940    0.11560    0.58700    1.000
    C13      C        0.83330    0.18800    0.68100    1.000
    H11      H        0.88410    0.20470    0.60470    1.000
    C14      C        0.84700    0.06120    0.38100    1.000
    H12      H        0.89900    0.08700    0.33390    1.000
    H13      H        0.81560    0.05330    0.20370    1.000
    H14      H        0.85690    0.00850    0.47200    1.000
    O19      O        0.77900    0.37900    0.78200    1.000
    O20      O        0.86600    0.39080    0.28300    1.000
    O21      O        0.91900    0.30600    0.85200    1.000
    O22      O        0.54270    0.19490    0.17200    1.000
    O23      O        0.52300    0.09600    0.75800    1.000
    O24      O        0.58380    0.03850    0.20700    1.000
    Cu3      Cu       0.53858    0.80094    0.49840    1.000
    O25      O        0.69330    0.92140    0.82700    1.000
    H15      H        0.65490    0.95450    0.81920    1.000
    O26      O        0.61840    0.86810    0.24600    1.000
    O27      O        0.62130    0.78030    0.79500    1.000
    O28      O        0.96370    0.57600    0.21900    1.000
    O29      O        0.90230    0.52350    0.72800    1.000
    O30      O        0.81000    0.54510    0.17400    1.000
    P5       P        0.66462    0.84072    0.00200    1.000
    P6       P        0.88450    0.57512    0.00050    1.000
    C15      C        0.76060    0.79280    0.10600    1.000
    C16      C        0.78400    0.71610    0.99300    1.000
    H16      H        0.75230    0.68940    0.85060    1.000
    C17      C        0.85860    0.68000    0.10300    1.000
    C18      C        0.90880    0.72140    0.30500    1.000
    H17      H        0.95820    0.69750    0.36800    1.000
    C19      C        0.88440    0.79940    0.41300    1.000
    C20      C        0.81200    0.83330    0.31900    1.000
    H18      H        0.79530    0.88410    0.39530    1.000
    C21      C        0.93880    0.84700    0.61900    1.000
    H19      H        0.91300    0.89900    0.66610    1.000
    H20      H        0.94670    0.81560    0.79630    1.000
    H21      H        0.99150    0.85690    0.52800    1.000
    O31      O        0.62100    0.77900    0.21800    1.000
    O32      O        0.60920    0.86600    0.71700    1.000
    O33      O        0.69400    0.91900    0.14800    1.000
    O34      O        0.80510    0.54270    0.82800    1.000
    O35      O        0.90400    0.52300    0.24200    1.000
    O36      O        0.96150    0.58380    0.79300    1.000
    Cu4      Cu       0.46142    0.19906    0.49840    1.000
    O37      O        0.30670    0.07860    0.82700    1.000
    H22      H        0.34510    0.04550    0.81920    1.000
    O38      O        0.38160    0.13190    0.24600    1.000
    O39      O        0.37870    0.21970    0.79500    1.000
    O40      O        0.03630    0.42400    0.21900    1.000
    O41      O        0.09770    0.47650    0.72800    1.000
    O42      O        0.19000    0.45490    0.17400    1.000
    P7       P        0.33538    0.15928    0.00200    1.000
    P8       P        0.11550    0.42488    0.00050    1.000
    C22      C        0.23940    0.20720    0.10600    1.000
    C23      C        0.21600    0.28390    0.99300    1.000
    H23      H        0.24770    0.31060    0.85060    1.000
    C24      C        0.14140    0.32000    0.10300    1.000
    C25      C        0.09120    0.27860    0.30500    1.000
    H24      H        0.04180    0.30250    0.36800    1.000
    C26      C        0.11560    0.20060    0.41300    1.000
    C27      C        0.18800    0.16670    0.31900    1.000
    H25      H        0.20470    0.11590    0.39530    1.000
    C28      C        0.06120    0.15300    0.61900    1.000
    H26      H        0.08700    0.10100    0.66610    1.000
    H27      H        0.05330    0.18440    0.79630    1.000
    H28      H        0.00850    0.14310    0.52800    1.000
    O43      O        0.37900    0.22100    0.21800    1.000
    O44      O        0.39080    0.13400    0.71700    1.000
    O45      O        0.30600    0.08100    0.14800    1.000
    O46      O        0.19490    0.45730    0.82800    1.000
    O47      O        0.09600    0.47700    0.24200    1.000
    O48      O        0.03850    0.41620    0.79300    1.000
    Cu5      Cu       0.50000    0.00000    0.50050    1.000
    Cu6      Cu       0.00000    0.50000    0.49950    1.000
