# CIF file generated by openbabel 3.1.0, see https://openbabel.org
data_I
_chemical_name_common 'image0'
_cell_length_a 10.4511
_cell_length_b 11.5252
_cell_length_c 12.9767
_cell_angle_alpha 106.487
_cell_angle_beta 90.202
_cell_angle_gamma 93.46
_space_group_name_H-M_alt 'P 1'
_space_group_name_Hall 'P 1'
loop_
    _symmetry_equiv_pos_as_xyz
    x,y,z
loop_
    _atom_site_label
    _atom_site_type_symbol
    _atom_site_fract_x
    _atom_site_fract_y
    _atom_site_fract_z
    _atom_site_occupancy
    Ce1      Ce       0.52662    0.54629    0.66503    1.000
    O1       O        0.61480    0.72386    0.81689    1.000
    O2       O        0.40563    0.71658    0.78693    1.000
    O3       O        0.64595    0.49083    0.49178    1.000
    O4       O        0.71564    0.52709    0.34353    1.000
    O5       O        0.51180    0.32731    0.58558    1.000
    O6       O        0.46141    0.27339    0.41021    1.000
    C1       C        0.50690    0.76850    0.83490    1.000
    C2       C        0.50060    0.88840    0.91880    1.000
    C3       C        0.55340    0.99490    0.89840    1.000
    C4       C        0.60390    0.99500    0.79570    1.000
    H1       H        0.60320    0.92120    0.73960    1.000
    C5       C        0.65260    0.09900    0.77770    1.000
    H2       H        0.68500    0.09730    0.70900    1.000
    C6       C        0.65570    0.21080    0.86040    1.000
    H3       H        0.69120    0.28280    0.84690    1.000
    C7       C        0.60810    0.21510    0.95850    1.000
    H4       H        0.61070    0.29040    0.01290    1.000
    C8       C        0.55410    0.10810    0.98180    1.000
    C9       C        0.73670    0.51100    0.43240    1.000
    C10      C        0.87250    0.50600    0.46790    1.000
    C11      C        0.92540    0.59530    0.55680    1.000
    C12      C        0.85390    0.69400    0.61560    1.000
    H5       H        0.76830    0.69990    0.59350    1.000
    C13      C        0.90680    0.77950    0.70270    1.000
    H6       H        0.85760    0.84370    0.74140    1.000
    C14      C        0.03540    0.77330    0.73610    1.000
    H7       H        0.07140    0.83360    0.79690    1.000
    C15      C        0.10710    0.68220    0.68200    1.000
    H8       H        0.19300    0.67990    0.70500    1.000
    C16      C        0.05540    0.58970    0.59080    1.000
    C17      C        0.48850    0.25130    0.49600    1.000
    C18      C        0.49360    0.12030    0.49563    1.000
    C19      C        0.38380    0.06060    0.52630    1.000
    C20      C        0.26910    0.11950    0.55180    1.000
    H9       H        0.26550    0.20140    0.55110    1.000
    C21      C        0.16420    0.06010    0.57740    1.000
    H10      H        0.08630    0.09960    0.59200    1.000
    C22      C        0.16910    0.93910    0.58270    1.000
    H11      H        0.09500    0.89880    0.60210    1.000
    C23      C        0.27950    0.88020    0.55990    1.000
    H12      H        0.28100    0.79930    0.56390    1.000
    C24      C        0.39300    0.93730    0.53030    1.000
    C25      C        0.38800    0.05400    0.50500    1.000
    C26      C        0.25500    0.09830    0.51140    1.000
    H13      H        0.24430    0.17850    0.50810    1.000
    C27      C        0.14900    0.02730    0.52180    1.000
    H14      H        0.06670    0.05900    0.52640    1.000
    C28      C        0.16090    0.90570    0.52580    1.000
    H15      H        0.08590    0.85870    0.53400    1.000
    C29      C        0.27250    0.85650    0.51840    1.000
    H16      H        0.27900    0.77490    0.51910    1.000
    C30      C        0.38600    0.93400    0.50900    1.000
    Ce2      Ce       0.47338    0.45371    0.33497    1.000
    O7       O        0.38520    0.27614    0.18311    1.000
    O8       O        0.59437    0.28342    0.21307    1.000
    O9       O        0.35405    0.50917    0.50822    1.000
    O10      O        0.28436    0.47291    0.65647    1.000
    O11      O        0.48820    0.67269    0.41442    1.000
    O12      O        0.53859    0.72661    0.58979    1.000
    C31      C        0.49310    0.23150    0.16510    1.000
    C32      C        0.49940    0.11160    0.08120    1.000
    C33      C        0.44660    0.00510    0.10160    1.000
    C34      C        0.39610    0.00500    0.20430    1.000
    H17      H        0.39680    0.07880    0.26040    1.000
    C35      C        0.34740    0.90100    0.22230    1.000
    H18      H        0.31500    0.90270    0.29100    1.000
    C36      C        0.34430    0.78920    0.13960    1.000
    H19      H        0.30880    0.71720    0.15310    1.000
    C37      C        0.39190    0.78490    0.04150    1.000
    H20      H        0.38930    0.70960    0.98710    1.000
    C38      C        0.44590    0.89190    0.01820    1.000
    C39      C        0.26330    0.48900    0.56760    1.000
    C40      C        0.12750    0.49400    0.53210    1.000
    C41      C        0.07460    0.40470    0.44320    1.000
    C42      C        0.14610    0.30600    0.38440    1.000
    H21      H        0.23170    0.30010    0.40650    1.000
    C43      C        0.09320    0.22050    0.29730    1.000
    H22      H        0.14240    0.15630    0.25860    1.000
    C44      C        0.96460    0.22670    0.26390    1.000
    H23      H        0.92860    0.16640    0.20310    1.000
    C45      C        0.89290    0.31780    0.31800    1.000
    H24      H        0.80700    0.32010    0.29500    1.000
    C46      C        0.94460    0.41030    0.40920    1.000
    C47      C        0.51150    0.74870    0.50400    1.000
    C48      C        0.50640    0.87970    0.50437    1.000
    C49      C        0.61620    0.93940    0.47370    1.000
    C50      C        0.73090    0.88050    0.44820    1.000
    H25      H        0.73450    0.79860    0.44890    1.000
    C51      C        0.83580    0.93990    0.42260    1.000
    H26      H        0.91370    0.90040    0.40800    1.000
    C52      C        0.83090    0.06090    0.41730    1.000
    H27      H        0.90500    0.10120    0.39790    1.000
    C53      C        0.72050    0.11980    0.44010    1.000
    H28      H        0.71900    0.20070    0.43610    1.000
    C54      C        0.60700    0.06270    0.46970    1.000
    C55      C        0.61200    0.94600    0.49500    1.000
    C56      C        0.74500    0.90170    0.48860    1.000
    H29      H        0.75570    0.82150    0.49190    1.000
    C57      C        0.85100    0.97270    0.47820    1.000
    H30      H        0.93330    0.94100    0.47360    1.000
    C58      C        0.83910    0.09430    0.47420    1.000
    H31      H        0.91410    0.14130    0.46600    1.000
    C59      C        0.72750    0.14350    0.48160    1.000
    H32      H        0.72100    0.22510    0.48090    1.000
    C60      C        0.61400    0.06600    0.49100    1.000
