data_functionalizedCrystal
_audit_creation_method	'EQeq! by Chris Wilmer'
_symmetry_space_group_name_H-M	'P1'
_symmetry_Int_Tables_number	1
_symmetry_cell_setting	triclinic
loop_
_symmetry_equiv_pos_as_xyz
  x,y,z
_cell_length_a	11.994
_cell_length_b	12.367
_cell_length_c	12.552
_cell_angle_alpha	90
_cell_angle_beta	116.36
_cell_angle_gamma	90
loop_
_atom_site_label
_atom_site_type_symbol
_atom_site_fract_x
_atom_site_fract_y
_atom_site_fract_z
_atom_site_charge
Mof_C 	C 	0.3786	0.8148	0.1386	-0.147
Mof_C 	C 	0.2539	0.8462	0.0745	0.113
Mof_N 	N 	0.1534	0.877	0.0305	-0.173
Mof_C 	C 	0.4464	0.8657	0.2494	0.122
Mof_N 	N 	0.4952	0.9123	0.3372	-0.158
Mof_C 	C 	0.4312	0.7311	0.1021	0.117
Mof_N 	N 	0.4751	0.6623	0.0718	-0.172
Mof_N 	N 	0.0877	0.0399	0.2134	-0.136
Mof_C 	C 	0.2224	0.0167	0.2753	-0.023
Mof_C 	C 	0.0254	0.9692	0.2692	0.012
Mof_C 	C 	0.0694	0.1555	0.2382	-0.011
Mof_N 	N 	0.2781	0.0362	0.4059	-0.134
Mof_C 	C 	0.2087	0.9653	0.4543	0.035
Mof_C 	C 	0.2517	0.1511	0.424	0.012
Mof_N 	N 	0.0747	0.9894	0.3975	-0.099
Mof_N 	N 	0.1178	0.1757	0.3664	-0.11
Mof_C 	C 	0.0556	0.1031	0.4164	-0.025
Mof_H 	H 	0.2367	0.9329	0.2605	0.052
Mof_H 	H 	0.2692	0.0677	0.238	0.028
Mof_H 	H 	0.041	0.8854	0.2554	0.025
Mof_H 	H 	0.9267	0.9857	0.2271	0.046
Mof_H 	H 	0.9712	0.174	0.1952	0.04
Mof_H 	H 	0.1176	0.2073	0.2031	0.027
Mof_H 	H 	0.2453	0.9788	0.5489	0.038
Mof_H 	H 	0.2221	0.8817	0.4381	0.028
Mof_H 	H 	0.2978	0.2035	0.3871	0.033
Mof_H 	H 	0.2878	0.1662	0.5182	0.03
Mof_H 	H 	0.957	0.1201	0.3742	0.044
Mof_H 	H 	0.0927	0.1179	0.5108	0.032
Mof_C 	C 	0.6214	0.3148	0.3614	-0.15
Mof_C 	C 	0.7461	0.3462	0.4255	0.116
Mof_N 	N 	0.8466	0.377	0.4695	-0.171
Mof_C 	C 	0.5536	0.3657	0.2506	0.115
Mof_N 	N 	0.5048	0.4123	0.1628	-0.17
Mof_C 	C 	0.5688	0.2311	0.3979	0.118
Mof_N 	N 	0.5249	0.1623	0.4282	-0.171
Mof_N 	N 	0.9123	0.5399	0.2866	-0.13
Mof_C 	C 	0.7776	0.5167	0.2247	0.016
Mof_C 	C 	0.9746	0.4692	0.2308	0.036
Mof_C 	C 	0.9306	0.6555	0.2618	0.037
Mof_N 	N 	0.7219	0.5362	0.0941	-0.122
Mof_C 	C 	0.7913	0.4653	0.0457	-0.02
Mof_C 	C 	0.7483	0.6511	0.076	-0.019
Mof_N 	N 	0.9253	0.4894	0.1025	-0.11
Mof_N 	N 	0.8822	0.6757	0.1336	-0.11
Mof_C 	C 	0.9444	0.6031	0.0836	0.01
Mof_H 	H 	0.7633	0.4329	0.2395	0.027
Mof_H 	H 	0.7308	0.5677	0.262	0.027
Mof_H 	H 	0.959	0.3854	0.2446	0.025
Mof_H 	H 	0.0733	0.4857	0.2729	0.012
Mof_H 	H 	0.0288	0.674	0.3048	0.016
Mof_H 	H 	0.8824	0.7073	0.2969	0.025
Mof_H 	H 	0.7547	0.4788	0.9511	0.054
Mof_H 	H 	0.7779	0.3817	0.0619	0.031
Mof_H 	H 	0.7022	0.7035	0.1129	0.04
Mof_H 	H 	0.7122	0.6662	0.9818	0.059
Mof_H 	H 	0.043	0.6201	0.1258	0.02
Mof_H 	H 	0.9073	0.6179	0.9892	0.053
Mof_C 	C 	0.6214	0.1852	0.8614	-0.149
Mof_C 	C 	0.7461	0.1538	0.9255	0.12
Mof_N 	N 	0.8466	0.123	0.9695	-0.162
Mof_C 	C 	0.5536	0.1343	0.7506	0.116
Mof_N 	N 	0.5048	0.0877	0.6628	-0.172
Mof_C 	C 	0.5688	0.2689	0.8979	0.126
Mof_N 	N 	0.5249	0.3377	0.9282	-0.161
Mof_N 	N 	0.9123	0.9601	0.7866	-0.113
Mof_C 	C 	0.7776	0.9833	0.7247	0.052
Mof_C 	C 	0.9746	0.0308	0.7308	0.012
Mof_C 	C 	0.9306	0.8445	0.7618	0.036
Mof_N 	N 	0.7219	0.9638	0.5941	-0.114
Mof_C 	C 	0.7913	0.0347	0.5457	-0.008
Mof_C 	C 	0.7483	0.8489	0.576	0.015
Mof_N 	N 	0.9253	0.0106	0.6025	-0.123
Mof_N 	N 	0.8822	0.8243	0.6336	-0.117
Mof_C 	C 	0.9444	0.8969	0.5836	0.06
Mof_H 	H 	0.7633	0.0671	0.7395	0.008
Mof_H 	H 	0.7308	0.9323	0.762	0.028
Mof_H 	H 	0.959	0.1146	0.7446	0.032
Mof_H 	H 	0.0733	0.0143	0.7729	0.013
Mof_H 	H 	0.0288	0.826	0.8048	0.025
Mof_H 	H 	0.8824	0.7927	0.7969	0.029
Mof_H 	H 	0.7547	0.0212	0.4511	0.026
Mof_H 	H 	0.7779	0.1183	0.5619	0.034
Mof_H 	H 	0.7022	0.7965	0.6129	0.034
Mof_H 	H 	0.7122	0.8338	0.4818	0.037
Mof_H 	H 	0.043	0.8799	0.6258	0.018
Mof_H 	H 	0.9073	0.8821	0.4892	0.031
Mof_C 	C 	0.3786	0.6852	0.6386	-0.149
Mof_C 	C 	0.2539	0.6538	0.5745	0.118
Mof_N 	N 	0.1534	0.623	0.5305	-0.177
Mof_C 	C 	0.4464	0.6343	0.7494	0.122
Mof_N 	N 	0.4952	0.5877	0.8372	-0.161
Mof_C 	C 	0.4312	0.7689	0.6021	0.125
Mof_N 	N 	0.4751	0.8377	0.5718	-0.162
Mof_N 	N 	0.0877	0.4601	0.7134	-0.128
Mof_C 	C 	0.2224	0.4833	0.7753	0.015
Mof_C 	C 	0.0254	0.5308	0.7692	-0.01
Mof_C 	C 	0.0694	0.3445	0.7382	-0.008
Mof_N 	N 	0.2781	0.4638	0.9059	-0.126
Mof_C 	C 	0.2087	0.5347	0.9543	0.048
Mof_C 	C 	0.2517	0.3489	0.924	0.05
Mof_N 	N 	0.0747	0.5106	0.8975	-0.113
Mof_N 	N 	0.1178	0.3243	0.8664	-0.116
Mof_C 	C 	0.0556	0.3969	0.9164	0.033
Mof_H 	H 	0.2367	0.5671	0.7605	0.029
Mof_H 	H 	0.2692	0.4323	0.738	0.026
Mof_H 	H 	0.041	0.6146	0.7554	0.029
Mof_H 	H 	0.9267	0.5143	0.7271	0.042
Mof_H 	H 	0.9712	0.326	0.6952	0.045
Mof_H 	H 	0.1176	0.2927	0.7031	0.028
Mof_H 	H 	0.2453	0.5212	0.0489	0.009
Mof_H 	H 	0.2221	0.6183	0.9381	0.031
Mof_H 	H 	0.2978	0.2965	0.8871	0.028
Mof_H 	H 	0.2878	0.3338	0.0182	0.007
Mof_H 	H 	0.957	0.3799	0.8742	0.041
Mof_H 	H 	0.0927	0.3821	0.0108	0.007
Mof_Cd	Cd	0.5	7.5659e-33	0.5	0.354
Mof_Cd	Cd	0.5	0.5	-0	0.356
Mof_Cd	Cd	-0	0	-0	0.257
Mof_Cd	Cd	2.83303e-33	0.5	0.5	0.307
_end
