data_functionalizedCrystal
_audit_creation_method	'EQeq! by Chris Wilmer'
_symmetry_space_group_name_H-M	'P1'
_symmetry_Int_Tables_number	1
_symmetry_cell_setting	triclinic
loop_
_symmetry_equiv_pos_as_xyz
  x,y,z
_cell_length_a	29.9537
_cell_length_b	21.1398
_cell_length_c	19.4385
_cell_angle_alpha	90
_cell_angle_beta	93.98
_cell_angle_gamma	90
loop_
_atom_site_label
_atom_site_type_symbol
_atom_site_fract_x
_atom_site_fract_y
_atom_site_fract_z
_atom_site_charge
Mof_Dy	Dy	0.27653	0.17457	0.05885	1.896
Mof_Dy	Dy	0.18123	0.8303	0.96348	1.835
Mof_O 	O 	0.3403	0.1014	0.073	-0.422
Mof_O 	O 	0.28	0.069	0.0155	-0.446
Mof_O 	O 	0.2573	0.8401	0.9689	-0.557
Mof_O 	O 	0.3092	0.7718	0.0016	-0.588
Mof_O 	O 	0.6278	0.7229	0.3813	-0.421
Mof_O 	O 	0.69592	0.7085	0.3515	-0.428
Mof_O 	O 	0.68886	0.8088	0.0447	-0.486
Mof_O 	O 	0.73127	0.7455	0.1132	-0.556
Mof_O 	O 	0.1462	0.9097	0.893	-0.452
Mof_O 	O 	0.191	0.9449	0.9737	-0.451
Mof_O 	O 	0.2156	0.1841	0.9814	-0.564
Mof_O 	O 	0.17115	0.2439	0.9122	-0.485
Mof_C 	C 	0.3172	0.0575	0.0438	0.33
Mof_C 	C 	0.3342	0.9909	0.0464	-0.102
Mof_C 	C 	0.3767	0.9779	0.0781	-0.011
Mof_H 	H 	0.3941	0.0108	0.097	0.049
Mof_C 	C 	0.3931	0.9162	0.0817	-0.019
Mof_C 	C 	0.3648	0.867	0.0552	0.038
Mof_H 	H 	0.3747	0.8254	0.0587	0.022
Mof_C 	C 	0.3239	0.8792	0.0251	-0.19
Mof_C 	C 	0.3075	0.9411	0.0185	0.065
Mof_H 	H 	0.2795	0.9491	0.9962	0.027
Mof_C 	C 	0.2945	0.8257	0.9956	0.556
Mof_C 	C 	0.436	0.9024	0.112	-0.007
Mof_C 	C 	0.4725	0.8855	0.1334	-0.011
Mof_C 	C 	0.5143	0.8636	0.1574	-0.003
Mof_C 	C 	0.5502	0.8415	0.1753	-0.014
Mof_C 	C 	0.5921	0.8153	0.1933	-0.002
Mof_C 	C 	0.6038	0.7877	0.2565	-0.02
Mof_H 	H 	0.5839	0.7897	0.2912	0.055
Mof_C 	C 	0.6445	0.7571	0.2693	-0.093
Mof_C 	C 	0.6751	0.7553	0.2179	0.055
Mof_H 	H 	0.7024	0.7349	0.2267	0.017
Mof_C 	C 	0.6654	0.7838	0.1534	-0.161
Mof_C 	C 	0.6237	0.8125	0.1407	0.011
Mof_H 	H 	0.6161	0.8301	0.0976	0.044
Mof_C 	C 	0.6569	0.7275	0.3387	0.34
Mof_C 	C 	0.6983	0.7794	0.1007	0.496
Mof_C 	C 	0.162	0.9553	0.927	0.356
Mof_C 	C 	0.1477	0.0196	0.9072	-0.116
Mof_C 	C 	0.1723	0.0732	0.9327	0.058
Mof_H 	H 	0.1979	0.0677	0.9621	0.02
Mof_C 	C 	0.158	0.1348	0.9132	-0.158
Mof_C 	C 	0.1177	0.1429	0.8733	0.006
Mof_H 	H 	0.1069	0.1834	0.8633	0.039
Mof_C 	C 	0.0932	0.0894	0.8481	-0.012
Mof_C 	C 	0.1087	0.0287	0.8664	-0.01
Mof_H 	H 	0.0923	0.9936	0.8506	0.045
Mof_C 	C 	0.0545	0.0965	0.8036	-0.02
Mof_C 	C 	0.019	0.0981	0.7718	-0.016
Mof_C 	C 	0.1835	0.1903	0.9378	0.467
Mof_Dy	Dy	0.77653	0.67457	0.05885	1.898
Mof_Dy	Dy	0.68123	0.3303	0.96348	1.835
Mof_O 	O 	0.8403	0.6014	0.073	-0.423
Mof_O 	O 	0.78	0.569	0.0155	-0.446
Mof_O 	O 	0.7573	0.3401	0.9689	-0.559
Mof_O 	O 	0.8092	0.2718	0.0016	-0.591
Mof_O 	O 	0.1278	0.2229	0.3813	-0.421
Mof_O 	O 	0.19592	0.2085	0.3515	-0.428
Mof_O 	O 	0.18886	0.3088	0.0447	-0.487
Mof_O 	O 	0.23127	0.2455	0.1132	-0.556
Mof_O 	O 	0.6462	0.4097	0.893	-0.453
Mof_O 	O 	0.691	0.4449	0.9737	-0.451
Mof_O 	O 	0.7156	0.6841	0.9814	-0.565
Mof_O 	O 	0.67115	0.7439	0.9122	-0.485
Mof_C 	C 	0.8172	0.5575	0.0438	0.331
Mof_C 	C 	0.8342	0.4909	0.0464	-0.101
Mof_C 	C 	0.8767	0.4779	0.0781	-0.014
Mof_H 	H 	0.8941	0.5108	0.097	0.051
Mof_C 	C 	0.8931	0.4162	0.0817	-0.018
Mof_C 	C 	0.8648	0.367	0.0552	0.038
Mof_H 	H 	0.8747	0.3254	0.0587	0.022
Mof_C 	C 	0.8239	0.3792	0.0251	-0.19
Mof_C 	C 	0.8075	0.4411	0.0185	0.062
Mof_H 	H 	0.7795	0.4491	0.9962	0.029
Mof_C 	C 	0.7945	0.3257	0.9956	0.559
Mof_C 	C 	0.936	0.4024	0.112	-0.008
Mof_C 	C 	0.9725	0.3855	0.1334	-0.01
Mof_C 	C 	0.0143	0.3636	0.1574	-0.004
Mof_C 	C 	0.0502	0.3415	0.1753	-0.014
Mof_C 	C 	0.0921	0.3153	0.1933	-0.002
Mof_C 	C 	0.1038	0.2877	0.2565	-0.02
Mof_H 	H 	0.0839	0.2897	0.2912	0.055
Mof_C 	C 	0.1445	0.2571	0.2693	-0.093
Mof_C 	C 	0.1751	0.2553	0.2179	0.055
Mof_H 	H 	0.2024	0.2349	0.2267	0.017
Mof_C 	C 	0.1654	0.2838	0.1534	-0.162
Mof_C 	C 	0.1237	0.3125	0.1407	0.011
Mof_H 	H 	0.1161	0.3301	0.0976	0.044
Mof_C 	C 	0.1569	0.2275	0.3387	0.34
Mof_C 	C 	0.1983	0.2794	0.1007	0.497
Mof_C 	C 	0.662	0.4553	0.927	0.357
Mof_C 	C 	0.6477	0.5196	0.9072	-0.116
Mof_C 	C 	0.6723	0.5732	0.9327	0.059
Mof_H 	H 	0.6979	0.5677	0.9621	0.02
Mof_C 	C 	0.658	0.6348	0.9132	-0.158
Mof_C 	C 	0.6177	0.6429	0.8733	0.006
Mof_H 	H 	0.6069	0.6834	0.8633	0.039
Mof_C 	C 	0.5932	0.5894	0.8481	-0.011
Mof_C 	C 	0.6087	0.5287	0.8664	-0.012
Mof_H 	H 	0.5923	0.4936	0.8506	0.046
Mof_C 	C 	0.5545	0.5965	0.8036	-0.021
Mof_C 	C 	0.519	0.5981	0.7718	-0.016
Mof_C 	C 	0.6835	0.6903	0.9378	0.467
Mof_Dy	Dy	0.72347	0.17457	0.44115	1.897
Mof_Dy	Dy	0.81877	0.8303	0.53652	1.834
Mof_O 	O 	0.6597	0.1014	0.427	-0.423
Mof_O 	O 	0.72	0.069	0.4845	-0.447
Mof_O 	O 	0.7427	0.8401	0.5311	-0.559
Mof_O 	O 	0.6908	0.7718	0.4984	-0.59
Mof_O 	O 	0.3722	0.7229	0.1187	-0.421
Mof_O 	O 	0.30408	0.7085	0.1485	-0.428
Mof_O 	O 	0.31114	0.8088	0.4553	-0.487
Mof_O 	O 	0.26873	0.7455	0.3868	-0.556
Mof_O 	O 	0.8538	0.9097	0.607	-0.453
Mof_O 	O 	0.809	0.9449	0.5263	-0.451
Mof_O 	O 	0.7844	0.1841	0.5186	-0.565
Mof_O 	O 	0.82885	0.2439	0.5878	-0.485
Mof_C 	C 	0.6828	0.0575	0.4562	0.331
Mof_C 	C 	0.6658	0.9909	0.4536	-0.101
Mof_C 	C 	0.6233	0.9779	0.4219	-0.013
Mof_H 	H 	0.6059	0.0108	0.403	0.05
Mof_C 	C 	0.6069	0.9162	0.4183	-0.018
Mof_C 	C 	0.6352	0.867	0.4448	0.037
Mof_H 	H 	0.6253	0.8254	0.4413	0.022
Mof_C 	C 	0.6761	0.8792	0.4749	-0.19
Mof_C 	C 	0.6925	0.9411	0.4815	0.062
Mof_H 	H 	0.7205	0.9491	0.5038	0.029
Mof_C 	C 	0.7055	0.8257	0.5044	0.557
Mof_C 	C 	0.564	0.9024	0.388	-0.008
Mof_C 	C 	0.5275	0.8855	0.3666	-0.011
Mof_C 	C 	0.4857	0.8636	0.3426	-0.004
Mof_C 	C 	0.4498	0.8415	0.3247	-0.014
Mof_C 	C 	0.4079	0.8153	0.3067	-0.002
Mof_C 	C 	0.3962	0.7877	0.2435	-0.02
Mof_H 	H 	0.4161	0.7897	0.2088	0.055
Mof_C 	C 	0.3555	0.7571	0.2307	-0.093
Mof_C 	C 	0.3249	0.7553	0.2821	0.055
Mof_H 	H 	0.2976	0.7349	0.2733	0.017
Mof_C 	C 	0.3346	0.7838	0.3466	-0.161
Mof_C 	C 	0.3763	0.8125	0.3593	0.011
Mof_H 	H 	0.3839	0.8301	0.4024	0.044
Mof_C 	C 	0.3431	0.7275	0.1613	0.34
Mof_C 	C 	0.3017	0.7794	0.3993	0.497
Mof_C 	C 	0.838	0.9553	0.573	0.357
Mof_C 	C 	0.8523	0.0196	0.5928	-0.117
Mof_C 	C 	0.8277	0.0732	0.5673	0.059
Mof_H 	H 	0.8021	0.0677	0.5379	0.02
Mof_C 	C 	0.842	0.1348	0.5868	-0.158
Mof_C 	C 	0.8823	0.1429	0.6267	0.006
Mof_H 	H 	0.8931	0.1834	0.6367	0.039
Mof_C 	C 	0.9068	0.0894	0.6519	-0.012
Mof_C 	C 	0.8913	0.0287	0.6336	-0.011
Mof_H 	H 	0.9077	0.9936	0.6494	0.045
Mof_C 	C 	0.9455	0.0965	0.6964	-0.021
Mof_C 	C 	0.981	0.0981	0.7282	-0.016
Mof_C 	C 	0.8165	0.1903	0.5622	0.467
Mof_Dy	Dy	0.22347	0.67457	0.44115	1.897
Mof_Dy	Dy	0.31877	0.3303	0.53652	1.834
Mof_O 	O 	0.1597	0.6014	0.427	-0.423
Mof_O 	O 	0.22	0.569	0.4845	-0.447
Mof_O 	O 	0.2427	0.3401	0.5311	-0.559
Mof_O 	O 	0.1908	0.2718	0.4984	-0.59
Mof_O 	O 	0.8722	0.2229	0.1187	-0.421
Mof_O 	O 	0.80408	0.2085	0.1485	-0.428
Mof_O 	O 	0.81114	0.3088	0.4553	-0.487
Mof_O 	O 	0.76873	0.2455	0.3868	-0.556
Mof_O 	O 	0.3538	0.4097	0.607	-0.453
Mof_O 	O 	0.309	0.4449	0.5263	-0.451
Mof_O 	O 	0.2844	0.6841	0.5186	-0.565
Mof_O 	O 	0.32885	0.7439	0.5878	-0.485
Mof_C 	C 	0.1828	0.5575	0.4562	0.331
Mof_C 	C 	0.1658	0.4909	0.4536	-0.101
Mof_C 	C 	0.1233	0.4779	0.4219	-0.014
Mof_H 	H 	0.1059	0.5108	0.403	0.051
Mof_C 	C 	0.1069	0.4162	0.4183	-0.017
Mof_C 	C 	0.1352	0.367	0.4448	0.037
Mof_H 	H 	0.1253	0.3254	0.4413	0.022
Mof_C 	C 	0.1761	0.3792	0.4749	-0.19
Mof_C 	C 	0.1925	0.4411	0.4815	0.062
Mof_H 	H 	0.2205	0.4491	0.5038	0.029
Mof_C 	C 	0.2055	0.3257	0.5044	0.557
Mof_C 	C 	0.064	0.4024	0.388	-0.008
Mof_C 	C 	0.0275	0.3855	0.3666	-0.01
Mof_C 	C 	0.9857	0.3636	0.3426	-0.004
Mof_C 	C 	0.9498	0.3415	0.3247	-0.014
Mof_C 	C 	0.9079	0.3153	0.3067	-0.003
Mof_C 	C 	0.8962	0.2877	0.2435	-0.02
Mof_H 	H 	0.9161	0.2897	0.2088	0.055
Mof_C 	C 	0.8555	0.2571	0.2307	-0.093
Mof_C 	C 	0.8249	0.2553	0.2821	0.055
Mof_H 	H 	0.7976	0.2349	0.2733	0.017
Mof_C 	C 	0.8346	0.2838	0.3466	-0.162
Mof_C 	C 	0.8763	0.3125	0.3593	0.011
Mof_H 	H 	0.8839	0.3301	0.4024	0.044
Mof_C 	C 	0.8431	0.2275	0.1613	0.34
Mof_C 	C 	0.8017	0.2794	0.3993	0.497
Mof_C 	C 	0.338	0.4553	0.573	0.357
Mof_C 	C 	0.3523	0.5196	0.5928	-0.116
Mof_C 	C 	0.3277	0.5732	0.5673	0.059
Mof_H 	H 	0.3021	0.5677	0.5379	0.02
Mof_C 	C 	0.342	0.6348	0.5868	-0.158
Mof_C 	C 	0.3823	0.6429	0.6267	0.006
Mof_H 	H 	0.3931	0.6834	0.6367	0.039
Mof_C 	C 	0.4068	0.5894	0.6519	-0.011
Mof_C 	C 	0.3913	0.5287	0.6336	-0.012
Mof_H 	H 	0.4077	0.4936	0.6494	0.046
Mof_C 	C 	0.4455	0.5965	0.6964	-0.021
Mof_C 	C 	0.481	0.5981	0.7282	-0.016
Mof_C 	C 	0.3165	0.6903	0.5622	0.467
Mof_Dy	Dy	0.72347	0.82543	0.94115	1.895
Mof_Dy	Dy	0.81877	0.1697	0.03652	1.834
Mof_O 	O 	0.6597	0.8986	0.927	-0.423
Mof_O 	O 	0.72	0.931	0.9845	-0.447
Mof_O 	O 	0.7427	0.1599	0.0311	-0.558
Mof_O 	O 	0.6908	0.2282	0.9984	-0.589
Mof_O 	O 	0.3722	0.2771	0.6187	-0.421
Mof_O 	O 	0.30408	0.2915	0.6485	-0.428
Mof_O 	O 	0.31114	0.1912	0.9553	-0.486
Mof_O 	O 	0.26873	0.2545	0.8868	-0.556
Mof_O 	O 	0.8538	0.0903	0.107	-0.452
Mof_O 	O 	0.809	0.0551	0.0263	-0.451
Mof_O 	O 	0.7844	0.8159	0.0186	-0.564
Mof_O 	O 	0.82885	0.7561	0.0878	-0.485
Mof_C 	C 	0.6828	0.9425	0.9562	0.33
Mof_C 	C 	0.6658	0.0091	0.9536	-0.102
Mof_C 	C 	0.6233	0.0221	0.9219	-0.011
Mof_H 	H 	0.6059	0.9892	0.903	0.049
Mof_C 	C 	0.6069	0.0838	0.9183	-0.019
Mof_C 	C 	0.6352	0.133	0.9448	0.038
Mof_H 	H 	0.6253	0.1746	0.9413	0.022
Mof_C 	C 	0.6761	0.1208	0.9749	-0.19
Mof_C 	C 	0.6925	0.0589	0.9815	0.065
Mof_H 	H 	0.7205	0.0509	0.0038	0.027
Mof_C 	C 	0.7055	0.1743	0.0044	0.556
Mof_C 	C 	0.564	0.0976	0.888	-0.007
Mof_C 	C 	0.5275	0.1145	0.8666	-0.011
Mof_C 	C 	0.4857	0.1364	0.8426	-0.003
Mof_C 	C 	0.4498	0.1585	0.8247	-0.014
Mof_C 	C 	0.4079	0.1847	0.8067	-0.002
Mof_C 	C 	0.3962	0.2123	0.7435	-0.02
Mof_H 	H 	0.4161	0.2103	0.7088	0.055
Mof_C 	C 	0.3555	0.2429	0.7307	-0.093
Mof_C 	C 	0.3249	0.2447	0.7821	0.055
Mof_H 	H 	0.2976	0.2651	0.7733	0.017
Mof_C 	C 	0.3346	0.2162	0.8466	-0.161
Mof_C 	C 	0.3763	0.1875	0.8593	0.011
Mof_H 	H 	0.3839	0.1699	0.9024	0.044
Mof_C 	C 	0.3431	0.2725	0.6613	0.34
Mof_C 	C 	0.3017	0.2206	0.8993	0.496
Mof_C 	C 	0.838	0.0447	0.073	0.356
Mof_C 	C 	0.8523	0.9804	0.0928	-0.116
Mof_C 	C 	0.8277	0.9268	0.0673	0.058
Mof_H 	H 	0.8021	0.9323	0.0379	0.02
Mof_C 	C 	0.842	0.8652	0.0868	-0.158
Mof_C 	C 	0.8823	0.8571	0.1267	0.006
Mof_H 	H 	0.8931	0.8166	0.1367	0.039
Mof_C 	C 	0.9068	0.9106	0.1519	-0.012
Mof_C 	C 	0.8913	0.9713	0.1336	-0.01
Mof_H 	H 	0.9077	0.0064	0.1494	0.045
Mof_C 	C 	0.9455	0.9035	0.1964	-0.02
Mof_C 	C 	0.981	0.9019	0.2282	-0.016
Mof_C 	C 	0.8165	0.8097	0.0622	0.467
Mof_Dy	Dy	0.22347	0.32543	0.94115	1.898
Mof_Dy	Dy	0.31877	0.6697	0.03652	1.835
Mof_O 	O 	0.1597	0.3986	0.927	-0.423
Mof_O 	O 	0.22	0.431	0.9845	-0.446
Mof_O 	O 	0.2427	0.6599	0.0311	-0.559
Mof_O 	O 	0.1908	0.7282	0.9984	-0.591
Mof_O 	O 	0.8722	0.7771	0.6187	-0.421
Mof_O 	O 	0.80408	0.7915	0.6485	-0.428
Mof_O 	O 	0.81114	0.6912	0.9553	-0.487
Mof_O 	O 	0.76873	0.7545	0.8868	-0.556
Mof_O 	O 	0.3538	0.5903	0.107	-0.453
Mof_O 	O 	0.309	0.5551	0.0263	-0.451
Mof_O 	O 	0.2844	0.3159	0.0186	-0.565
Mof_O 	O 	0.32885	0.2561	0.0878	-0.485
Mof_C 	C 	0.1828	0.4425	0.9562	0.331
Mof_C 	C 	0.1658	0.5091	0.9536	-0.101
Mof_C 	C 	0.1233	0.5221	0.9219	-0.014
Mof_H 	H 	0.1059	0.4892	0.903	0.051
Mof_C 	C 	0.1069	0.5838	0.9183	-0.018
Mof_C 	C 	0.1352	0.633	0.9448	0.038
Mof_H 	H 	0.1253	0.6746	0.9413	0.022
Mof_C 	C 	0.1761	0.6208	0.9749	-0.19
Mof_C 	C 	0.1925	0.5589	0.9815	0.062
Mof_H 	H 	0.2205	0.5509	0.0038	0.029
Mof_C 	C 	0.2055	0.6743	0.0044	0.559
Mof_C 	C 	0.064	0.5976	0.888	-0.008
Mof_C 	C 	0.0275	0.6145	0.8666	-0.01
Mof_C 	C 	0.9857	0.6364	0.8426	-0.004
Mof_C 	C 	0.9498	0.6585	0.8247	-0.014
Mof_C 	C 	0.9079	0.6847	0.8067	-0.002
Mof_C 	C 	0.8962	0.7123	0.7435	-0.02
Mof_H 	H 	0.9161	0.7103	0.7088	0.055
Mof_C 	C 	0.8555	0.7429	0.7307	-0.093
Mof_C 	C 	0.8249	0.7447	0.7821	0.055
Mof_H 	H 	0.7976	0.7651	0.7733	0.017
Mof_C 	C 	0.8346	0.7162	0.8466	-0.162
Mof_C 	C 	0.8763	0.6875	0.8593	0.011
Mof_H 	H 	0.8839	0.6699	0.9024	0.044
Mof_C 	C 	0.8431	0.7725	0.6613	0.34
Mof_C 	C 	0.8017	0.7206	0.8993	0.497
Mof_C 	C 	0.338	0.5447	0.073	0.357
Mof_C 	C 	0.3523	0.4804	0.0928	-0.116
Mof_C 	C 	0.3277	0.4268	0.0673	0.059
Mof_H 	H 	0.3021	0.4323	0.0379	0.02
Mof_C 	C 	0.342	0.3652	0.0868	-0.158
Mof_C 	C 	0.3823	0.3571	0.1267	0.006
Mof_H 	H 	0.3931	0.3166	0.1367	0.039
Mof_C 	C 	0.4068	0.4106	0.1519	-0.011
Mof_C 	C 	0.3913	0.4713	0.1336	-0.012
Mof_H 	H 	0.4077	0.5064	0.1494	0.046
Mof_C 	C 	0.4455	0.4035	0.1964	-0.021
Mof_C 	C 	0.481	0.4019	0.2282	-0.016
Mof_C 	C 	0.3165	0.3097	0.0622	0.467
Mof_Dy	Dy	0.27653	0.82543	0.55885	1.897
Mof_Dy	Dy	0.18123	0.1697	0.46348	1.834
Mof_O 	O 	0.3403	0.8986	0.573	-0.423
Mof_O 	O 	0.28	0.931	0.5155	-0.447
Mof_O 	O 	0.2573	0.1599	0.4689	-0.559
Mof_O 	O 	0.3092	0.2282	0.5016	-0.59
Mof_O 	O 	0.6278	0.2771	0.8813	-0.421
Mof_O 	O 	0.69592	0.2915	0.8515	-0.428
Mof_O 	O 	0.68886	0.1912	0.5447	-0.487
Mof_O 	O 	0.73127	0.2545	0.6132	-0.556
Mof_O 	O 	0.1462	0.0903	0.393	-0.453
Mof_O 	O 	0.191	0.0551	0.4737	-0.451
Mof_O 	O 	0.2156	0.8159	0.4814	-0.565
Mof_O 	O 	0.17115	0.7561	0.4122	-0.485
Mof_C 	C 	0.3172	0.9425	0.5438	0.331
Mof_C 	C 	0.3342	0.0091	0.5464	-0.101
Mof_C 	C 	0.3767	0.0221	0.5781	-0.013
Mof_H 	H 	0.3941	0.9892	0.597	0.05
Mof_C 	C 	0.3931	0.0838	0.5817	-0.018
Mof_C 	C 	0.3648	0.133	0.5552	0.037
Mof_H 	H 	0.3747	0.1746	0.5587	0.022
Mof_C 	C 	0.3239	0.1208	0.5251	-0.19
Mof_C 	C 	0.3075	0.0589	0.5185	0.062
Mof_H 	H 	0.2795	0.0509	0.4962	0.029
Mof_C 	C 	0.2945	0.1743	0.4956	0.557
Mof_C 	C 	0.436	0.0976	0.612	-0.008
Mof_C 	C 	0.4725	0.1145	0.6334	-0.011
Mof_C 	C 	0.5143	0.1364	0.6574	-0.004
Mof_C 	C 	0.5502	0.1585	0.6753	-0.014
Mof_C 	C 	0.5921	0.1847	0.6933	-0.002
Mof_C 	C 	0.6038	0.2123	0.7565	-0.02
Mof_H 	H 	0.5839	0.2103	0.7912	0.055
Mof_C 	C 	0.6445	0.2429	0.7693	-0.093
Mof_C 	C 	0.6751	0.2447	0.7179	0.055
Mof_H 	H 	0.7024	0.2651	0.7267	0.017
Mof_C 	C 	0.6654	0.2162	0.6534	-0.161
Mof_C 	C 	0.6237	0.1875	0.6407	0.011
Mof_H 	H 	0.6161	0.1699	0.5976	0.044
Mof_C 	C 	0.6569	0.2725	0.8387	0.34
Mof_C 	C 	0.6983	0.2206	0.6007	0.497
Mof_C 	C 	0.162	0.0447	0.427	0.357
Mof_C 	C 	0.1477	0.9804	0.4072	-0.117
Mof_C 	C 	0.1723	0.9268	0.4327	0.059
Mof_H 	H 	0.1979	0.9323	0.4621	0.02
Mof_C 	C 	0.158	0.8652	0.4132	-0.158
Mof_C 	C 	0.1177	0.8571	0.3733	0.006
Mof_H 	H 	0.1069	0.8166	0.3633	0.039
Mof_C 	C 	0.0932	0.9106	0.3481	-0.012
Mof_C 	C 	0.1087	0.9713	0.3664	-0.011
Mof_H 	H 	0.0923	0.0064	0.3506	0.045
Mof_C 	C 	0.0545	0.9035	0.3036	-0.021
Mof_C 	C 	0.019	0.9019	0.2718	-0.016
Mof_C 	C 	0.1835	0.8097	0.4378	0.467
Mof_Dy	Dy	0.77653	0.32543	0.55885	1.897
Mof_Dy	Dy	0.68123	0.6697	0.46348	1.834
Mof_O 	O 	0.8403	0.3986	0.573	-0.423
Mof_O 	O 	0.78	0.431	0.5155	-0.447
Mof_O 	O 	0.7573	0.6599	0.4689	-0.559
Mof_O 	O 	0.8092	0.7282	0.5016	-0.59
Mof_O 	O 	0.1278	0.7771	0.8813	-0.421
Mof_O 	O 	0.19592	0.7915	0.8515	-0.428
Mof_O 	O 	0.18886	0.6912	0.5447	-0.487
Mof_O 	O 	0.23127	0.7545	0.6132	-0.556
Mof_O 	O 	0.6462	0.5903	0.393	-0.453
Mof_O 	O 	0.691	0.5551	0.4737	-0.451
Mof_O 	O 	0.7156	0.3159	0.4814	-0.565
Mof_O 	O 	0.67115	0.2561	0.4122	-0.485
Mof_C 	C 	0.8172	0.4425	0.5438	0.331
Mof_C 	C 	0.8342	0.5091	0.5464	-0.101
Mof_C 	C 	0.8767	0.5221	0.5781	-0.014
Mof_H 	H 	0.8941	0.4892	0.597	0.051
Mof_C 	C 	0.8931	0.5838	0.5817	-0.017
Mof_C 	C 	0.8648	0.633	0.5552	0.037
Mof_H 	H 	0.8747	0.6746	0.5587	0.022
Mof_C 	C 	0.8239	0.6208	0.5251	-0.19
Mof_C 	C 	0.8075	0.5589	0.5185	0.062
Mof_H 	H 	0.7795	0.5509	0.4962	0.029
Mof_C 	C 	0.7945	0.6743	0.4956	0.557
Mof_C 	C 	0.936	0.5976	0.612	-0.008
Mof_C 	C 	0.9725	0.6145	0.6334	-0.01
Mof_C 	C 	0.0143	0.6364	0.6574	-0.004
Mof_C 	C 	0.0502	0.6585	0.6753	-0.014
Mof_C 	C 	0.0921	0.6847	0.6933	-0.003
Mof_C 	C 	0.1038	0.7123	0.7565	-0.02
Mof_H 	H 	0.0839	0.7103	0.7912	0.055
Mof_C 	C 	0.1445	0.7429	0.7693	-0.093
Mof_C 	C 	0.1751	0.7447	0.7179	0.055
Mof_H 	H 	0.2024	0.7651	0.7267	0.017
Mof_C 	C 	0.1654	0.7162	0.6534	-0.162
Mof_C 	C 	0.1237	0.6875	0.6407	0.011
Mof_H 	H 	0.1161	0.6699	0.5976	0.044
Mof_C 	C 	0.1569	0.7725	0.8387	0.34
Mof_C 	C 	0.1983	0.7206	0.6007	0.497
Mof_C 	C 	0.662	0.5447	0.427	0.357
Mof_C 	C 	0.6477	0.4804	0.4072	-0.116
Mof_C 	C 	0.6723	0.4268	0.4327	0.059
Mof_H 	H 	0.6979	0.4323	0.4621	0.02
Mof_C 	C 	0.658	0.3652	0.4132	-0.158
Mof_C 	C 	0.6177	0.3571	0.3733	0.006
Mof_H 	H 	0.6069	0.3166	0.3633	0.039
Mof_C 	C 	0.5932	0.4106	0.3481	-0.011
Mof_C 	C 	0.6087	0.4713	0.3664	-0.012
Mof_H 	H 	0.5923	0.5064	0.3506	0.046
Mof_C 	C 	0.5545	0.4035	0.3036	-0.021
Mof_C 	C 	0.519	0.4019	0.2718	-0.016
Mof_C 	C 	0.6835	0.3097	0.4378	0.467
_end
