# CIF file generated by openbabel 3.1.0, see https://openbabel.org
data_I
_chemical_name_common 'image0'
_cell_length_a 18.6843
_cell_length_b 18.6843
_cell_length_c 38.6052
_cell_angle_alpha 90
_cell_angle_beta 90
_cell_angle_gamma 120
_space_group_name_H-M_alt 'P 1'
_space_group_name_Hall 'P 1'
loop_
    _symmetry_equiv_pos_as_xyz
    x,y,z
loop_
    _atom_site_label
    _atom_site_type_symbol
    _atom_site_fract_x
    _atom_site_fract_y
    _atom_site_fract_z
    _atom_site_occupancy
    O1       O        0.96190    0.18490    0.16312    1.000
    O2       O        0.92264    0.22492    0.21064    1.000
    C1       C        0.97310    0.21390    0.19338    1.000
    C2       C        0.05300    0.23450    0.21053    1.000
    C3       C        0.06800    0.26450    0.24441    1.000
    H1       H        0.03000    0.27480    0.25560    1.000
    C4       C        0.09740    0.25210    0.32573    1.000
    C5       C        0.03320    0.17420    0.31670    1.000
    C6       C        0.98340    0.11970    0.34240    1.000
    C7       C        0.99790    0.14320    0.37700    1.000
    C8       C        0.06210    0.22100    0.38597    1.000
    C9       C        0.11190    0.27550    0.36030    1.000
    H2       H        0.02140    0.15590    0.29290    1.000
    H3       H        0.96550    0.10280    0.39500    1.000
    H4       H        0.07210    0.23690    0.40980    1.000
    O3       O        0.62857    0.51823    0.49645    1.000
    O4       O        0.58931    0.55825    0.54397    1.000
    C10      C        0.63977    0.54723    0.52671    1.000
    C11      C        0.71967    0.56783    0.54386    1.000
    C12      C        0.73467    0.59783    0.57774    1.000
    H5       H        0.69667    0.60813    0.58893    1.000
    C13      C        0.76407    0.58543    0.65906    1.000
    C14      C        0.69987    0.50753    0.65003    1.000
    C15      C        0.65007    0.45303    0.67573    1.000
    C16      C        0.66457    0.47653    0.71033    1.000
    C17      C        0.72877    0.55433    0.71930    1.000
    C18      C        0.77857    0.60883    0.69363    1.000
    H6       H        0.68807    0.48923    0.62623    1.000
    H7       H        0.63217    0.43613    0.72833    1.000
    H8       H        0.73877    0.57023    0.74313    1.000
    O5       O        0.29523    0.85157    0.82979    1.000
    O6       O        0.25597    0.89159    0.87731    1.000
    C19      C        0.30643    0.88057    0.86005    1.000
    C20      C        0.38633    0.90117    0.87720    1.000
    C21      C        0.40133    0.93117    0.91108    1.000
    H9       H        0.36333    0.94147    0.92227    1.000
    C22      C        0.43073    0.91877    0.99240    1.000
    C23      C        0.36653    0.84087    0.98337    1.000
    C24      C        0.31673    0.78637    0.00907    1.000
    C25      C        0.33123    0.80987    0.04367    1.000
    C26      C        0.39543    0.88767    0.05264    1.000
    C27      C        0.44523    0.94217    0.02697    1.000
    H10      H        0.35473    0.82257    0.95957    1.000
    H11      H        0.29883    0.76947    0.06167    1.000
    H12      H        0.40543    0.90357    0.07647    1.000
    O7       O        0.81510    0.77700    0.16312    1.000
    O8       O        0.77508    0.69772    0.21064    1.000
    C28      C        0.78610    0.75920    0.19338    1.000
    C29      C        0.76550    0.81850    0.21053    1.000
    C30      C        0.73550    0.80350    0.24441    1.000
    H13      H        0.72520    0.75520    0.25560    1.000
    C31      C        0.74790    0.84530    0.32573    1.000
    C32      C        0.82580    0.85900    0.31670    1.000
    C33      C        0.88030    0.86370    0.34240    1.000
    C34      C        0.85680    0.85470    0.37700    1.000
    C35      C        0.77900    0.84110    0.38597    1.000
    C36      C        0.72450    0.83640    0.36030    1.000
    H14      H        0.84410    0.86550    0.29290    1.000
    H15      H        0.89720    0.86270    0.39500    1.000
    H16      H        0.76310    0.83520    0.40980    1.000
    O9       O        0.48177    0.11033    0.49645    1.000
    O10      O        0.44175    0.03105    0.54397    1.000
    C37      C        0.45277    0.09253    0.52671    1.000
    C38      C        0.43217    0.15183    0.54386    1.000
    C39      C        0.40217    0.13683    0.57774    1.000
    H17      H        0.39187    0.08853    0.58893    1.000
    C40      C        0.41457    0.17863    0.65906    1.000
    C41      C        0.49247    0.19233    0.65003    1.000
    C42      C        0.54697    0.19703    0.67573    1.000
    C43      C        0.52347    0.18803    0.71033    1.000
    C44      C        0.44567    0.17443    0.71930    1.000
    C45      C        0.39117    0.16973    0.69363    1.000
    H18      H        0.51077    0.19883    0.62623    1.000
    H19      H        0.56387    0.19603    0.72833    1.000
    H20      H        0.42977    0.16853    0.74313    1.000
    O11      O        0.14843    0.44367    0.82979    1.000
    O12      O        0.10841    0.36439    0.87731    1.000
    C46      C        0.11943    0.42587    0.86005    1.000
    C47      C        0.09883    0.48517    0.87720    1.000
    C48      C        0.06883    0.47017    0.91108    1.000
    H21      H        0.05853    0.42187    0.92227    1.000
    C49      C        0.08123    0.51197    0.99240    1.000
    C50      C        0.15913    0.52567    0.98337    1.000
    C51      C        0.21363    0.53037    0.00907    1.000
    C52      C        0.19013    0.52137    0.04367    1.000
    C53      C        0.11233    0.50777    0.05264    1.000
    C54      C        0.05783    0.50307    0.02697    1.000
    H22      H        0.17743    0.53217    0.95957    1.000
    H23      H        0.23053    0.52937    0.06167    1.000
    H24      H        0.09643    0.50187    0.07647    1.000
    O13      O        0.22300    0.03810    0.16312    1.000
    O14      O        0.30228    0.07736    0.21064    1.000
    C55      C        0.24080    0.02690    0.19338    1.000
    C56      C        0.18150    0.94700    0.21053    1.000
    C57      C        0.19650    0.93200    0.24441    1.000
    H25      H        0.24480    0.97000    0.25560    1.000
    C58      C        0.15470    0.90260    0.32573    1.000
    C59      C        0.14100    0.96680    0.31670    1.000
    C60      C        0.13630    0.01660    0.34240    1.000
    C61      C        0.14530    0.00210    0.37700    1.000
    C62      C        0.15890    0.93790    0.38597    1.000
    C63      C        0.16360    0.88810    0.36030    1.000
    H26      H        0.13450    0.97860    0.29290    1.000
    H27      H        0.13730    0.03450    0.39500    1.000
    H28      H        0.16480    0.92790    0.40980    1.000
    O15      O        0.88967    0.37143    0.49645    1.000
    O16      O        0.96895    0.41069    0.54397    1.000
    C64      C        0.90747    0.36023    0.52671    1.000
    C65      C        0.84817    0.28033    0.54386    1.000
    C66      C        0.86317    0.26533    0.57774    1.000
    H29      H        0.91147    0.30333    0.58893    1.000
    C67      C        0.82137    0.23593    0.65906    1.000
    C68      C        0.80767    0.30013    0.65003    1.000
    C69      C        0.80297    0.34993    0.67573    1.000
    C70      C        0.81197    0.33543    0.71033    1.000
    C71      C        0.82557    0.27123    0.71930    1.000
    C72      C        0.83027    0.22143    0.69363    1.000
    H30      H        0.80117    0.31193    0.62623    1.000
    H31      H        0.80397    0.36783    0.72833    1.000
    H32      H        0.83147    0.26123    0.74313    1.000
    O17      O        0.55633    0.70477    0.82979    1.000
    O18      O        0.63561    0.74403    0.87731    1.000
    C73      C        0.57413    0.69357    0.86005    1.000
    C74      C        0.51483    0.61367    0.87720    1.000
    C75      C        0.52983    0.59867    0.91108    1.000
    H33      H        0.57813    0.63667    0.92227    1.000
    C76      C        0.48803    0.56927    0.99240    1.000
    C77      C        0.47433    0.63347    0.98337    1.000
    C78      C        0.46963    0.68327    0.00907    1.000
    C79      C        0.47863    0.66877    0.04367    1.000
    C80      C        0.49223    0.60457    0.05264    1.000
    C81      C        0.49693    0.55477    0.02697    1.000
    H34      H        0.46783    0.64527    0.95957    1.000
    H35      H        0.47063    0.70117    0.06167    1.000
    H36      H        0.49813    0.59457    0.07647    1.000
    O19      O        0.18490    0.96190    0.83688    1.000
    O20      O        0.22492    0.92264    0.78936    1.000
    C82      C        0.21390    0.97310    0.80662    1.000
    C83      C        0.23450    0.05300    0.78947    1.000
    C84      C        0.26450    0.06800    0.75559    1.000
    H37      H        0.27480    0.03000    0.74440    1.000
    C85      C        0.25210    0.09740    0.67427    1.000
    C86      C        0.17420    0.03320    0.68330    1.000
    C87      C        0.11970    0.98340    0.65760    1.000
    C88      C        0.14320    0.99790    0.62300    1.000
    C89      C        0.22100    0.06210    0.61403    1.000
    C90      C        0.27550    0.11190    0.63970    1.000
    H38      H        0.15590    0.02140    0.70710    1.000
    H39      H        0.10280    0.96550    0.60500    1.000
    H40      H        0.23690    0.07210    0.59020    1.000
    O21      O        0.85157    0.29523    0.17021    1.000
    O22      O        0.89159    0.25597    0.12269    1.000
    C91      C        0.88057    0.30643    0.13995    1.000
    C92      C        0.90117    0.38633    0.12280    1.000
    C93      C        0.93117    0.40133    0.08892    1.000
    H41      H        0.94147    0.36333    0.07773    1.000
    C94      C        0.91877    0.43073    0.00760    1.000
    C95      C        0.84087    0.36653    0.01663    1.000
    C96      C        0.78637    0.31673    0.99093    1.000
    C97      C        0.80987    0.33123    0.95633    1.000
    C98      C        0.88767    0.39543    0.94736    1.000
    C99      C        0.94217    0.44523    0.97303    1.000
    H42      H        0.82257    0.35473    0.04043    1.000
    H43      H        0.76947    0.29883    0.93833    1.000
    H44      H        0.90357    0.40543    0.92353    1.000
    O23      O        0.51823    0.62857    0.50355    1.000
    O24      O        0.55825    0.58931    0.45603    1.000
    C100     C        0.54723    0.63977    0.47329    1.000
    C101     C        0.56783    0.71967    0.45614    1.000
    C102     C        0.59783    0.73467    0.42226    1.000
    H45      H        0.60813    0.69667    0.41107    1.000
    C103     C        0.58543    0.76407    0.34094    1.000
    C104     C        0.50753    0.69987    0.34997    1.000
    C105     C        0.45303    0.65007    0.32427    1.000
    C106     C        0.47653    0.66457    0.28967    1.000
    C107     C        0.55433    0.72877    0.28070    1.000
    C108     C        0.60883    0.77857    0.30637    1.000
    H46      H        0.48923    0.68807    0.37377    1.000
    H47      H        0.43613    0.63217    0.27167    1.000
    H48      H        0.57023    0.73877    0.25687    1.000
    O25      O        0.77700    0.81510    0.83688    1.000
    O26      O        0.69772    0.77508    0.78936    1.000
    C109     C        0.75920    0.78610    0.80662    1.000
    C110     C        0.81850    0.76550    0.78947    1.000
    C111     C        0.80350    0.73550    0.75559    1.000
    H49      H        0.75520    0.72520    0.74440    1.000
    C112     C        0.84530    0.74790    0.67427    1.000
    C113     C        0.85900    0.82580    0.68330    1.000
    C114     C        0.86370    0.88030    0.65760    1.000
    C115     C        0.85470    0.85680    0.62300    1.000
    C116     C        0.84110    0.77900    0.61403    1.000
    C117     C        0.83640    0.72450    0.63970    1.000
    H50      H        0.86550    0.84410    0.70710    1.000
    H51      H        0.86270    0.89720    0.60500    1.000
    H52      H        0.83520    0.76310    0.59020    1.000
    O27      O        0.44367    0.14843    0.17021    1.000
    O28      O        0.36439    0.10841    0.12269    1.000
    C118     C        0.42587    0.11943    0.13995    1.000
    C119     C        0.48517    0.09883    0.12280    1.000
    C120     C        0.47017    0.06883    0.08892    1.000
    H53      H        0.42187    0.05853    0.07773    1.000
    C121     C        0.51197    0.08123    0.00760    1.000
    C122     C        0.52567    0.15913    0.01663    1.000
    C123     C        0.53037    0.21363    0.99093    1.000
    C124     C        0.52137    0.19013    0.95633    1.000
    C125     C        0.50777    0.11233    0.94736    1.000
    C126     C        0.50307    0.05783    0.97303    1.000
    H54      H        0.53217    0.17743    0.04043    1.000
    H55      H        0.52937    0.23053    0.93833    1.000
    H56      H        0.50187    0.09643    0.92353    1.000
    O29      O        0.11033    0.48177    0.50355    1.000
    O30      O        0.03105    0.44175    0.45603    1.000
    C127     C        0.09253    0.45277    0.47329    1.000
    C128     C        0.15183    0.43217    0.45614    1.000
    C129     C        0.13683    0.40217    0.42226    1.000
    H57      H        0.08853    0.39187    0.41107    1.000
    C130     C        0.17863    0.41457    0.34094    1.000
    C131     C        0.19233    0.49247    0.34997    1.000
    C132     C        0.19703    0.54697    0.32427    1.000
    C133     C        0.18803    0.52347    0.28967    1.000
    C134     C        0.17443    0.44567    0.28070    1.000
    C135     C        0.16973    0.39117    0.30637    1.000
    H58      H        0.19883    0.51077    0.37377    1.000
    H59      H        0.19603    0.56387    0.27167    1.000
    H60      H        0.16853    0.42977    0.25687    1.000
    O31      O        0.03810    0.22300    0.83688    1.000
    O32      O        0.07736    0.30228    0.78936    1.000
    C136     C        0.02690    0.24080    0.80662    1.000
    C137     C        0.94700    0.18150    0.78947    1.000
    C138     C        0.93200    0.19650    0.75559    1.000
    H61      H        0.97000    0.24480    0.74440    1.000
    C139     C        0.90260    0.15470    0.67427    1.000
    C140     C        0.96680    0.14100    0.68330    1.000
    C141     C        0.01660    0.13630    0.65760    1.000
    C142     C        0.00210    0.14530    0.62300    1.000
    C143     C        0.93790    0.15890    0.61403    1.000
    C144     C        0.88810    0.16360    0.63970    1.000
    H62      H        0.97860    0.13450    0.70710    1.000
    H63      H        0.03450    0.13730    0.60500    1.000
    H64      H        0.92790    0.16480    0.59020    1.000
    O33      O        0.70477    0.55633    0.17021    1.000
    O34      O        0.74403    0.63561    0.12269    1.000
    C145     C        0.69357    0.57413    0.13995    1.000
    C146     C        0.61367    0.51483    0.12280    1.000
    C147     C        0.59867    0.52983    0.08892    1.000
    H65      H        0.63667    0.57813    0.07773    1.000
    C148     C        0.56927    0.48803    0.00760    1.000
    C149     C        0.63347    0.47433    0.01663    1.000
    C150     C        0.68327    0.46963    0.99093    1.000
    C151     C        0.66877    0.47863    0.95633    1.000
    C152     C        0.60457    0.49223    0.94736    1.000
    C153     C        0.55477    0.49693    0.97303    1.000
    H66      H        0.64527    0.46783    0.04043    1.000
    H67      H        0.70117    0.47063    0.93833    1.000
    H68      H        0.59457    0.49813    0.92353    1.000
    O35      O        0.37143    0.88967    0.50355    1.000
    O36      O        0.41069    0.96895    0.45603    1.000
    C154     C        0.36023    0.90747    0.47329    1.000
    C155     C        0.28033    0.84817    0.45614    1.000
    C156     C        0.26533    0.86317    0.42226    1.000
    H69      H        0.30333    0.91147    0.41107    1.000
    C157     C        0.23593    0.82137    0.34094    1.000
    C158     C        0.30013    0.80767    0.34997    1.000
    C159     C        0.34993    0.80297    0.32427    1.000
    C160     C        0.33543    0.81197    0.28967    1.000
    C161     C        0.27123    0.82557    0.28070    1.000
    C162     C        0.22143    0.83027    0.30637    1.000
    H70      H        0.31193    0.80117    0.37377    1.000
    H71      H        0.36783    0.80397    0.27167    1.000
    H72      H        0.26123    0.83147    0.25687    1.000
    O37      O        0.03810    0.81510    0.83688    1.000
    O38      O        0.07736    0.77508    0.78936    1.000
    C163     C        0.02690    0.78610    0.80662    1.000
    C164     C        0.94700    0.76550    0.78947    1.000
    C165     C        0.93200    0.73550    0.75559    1.000
    H73      H        0.97000    0.72520    0.74440    1.000
    C166     C        0.90260    0.74790    0.67427    1.000
    C167     C        0.96680    0.82580    0.68330    1.000
    C168     C        0.01660    0.88030    0.65760    1.000
    C169     C        0.00210    0.85680    0.62300    1.000
    C170     C        0.93790    0.77900    0.61403    1.000
    C171     C        0.88810    0.72450    0.63970    1.000
    H74      H        0.97860    0.84410    0.70710    1.000
    H75      H        0.03450    0.89720    0.60500    1.000
    H76      H        0.92790    0.76310    0.59020    1.000
    O39      O        0.70477    0.14843    0.17021    1.000
    O40      O        0.74403    0.10841    0.12269    1.000
    C172     C        0.69357    0.11943    0.13995    1.000
    C173     C        0.61367    0.09883    0.12280    1.000
    C174     C        0.59867    0.06883    0.08892    1.000
    H77      H        0.63667    0.05853    0.07773    1.000
    C175     C        0.56927    0.08123    0.00760    1.000
    C176     C        0.63347    0.15913    0.01663    1.000
    C177     C        0.68327    0.21363    0.99093    1.000
    C178     C        0.66877    0.19013    0.95633    1.000
    C179     C        0.60457    0.11233    0.94736    1.000
    C180     C        0.55477    0.05783    0.97303    1.000
    H78      H        0.64527    0.17743    0.04043    1.000
    H79      H        0.70117    0.23053    0.93833    1.000
    H80      H        0.59457    0.09643    0.92353    1.000
    O41      O        0.37143    0.48177    0.50355    1.000
    O42      O        0.41069    0.44175    0.45603    1.000
    C181     C        0.36023    0.45277    0.47329    1.000
    C182     C        0.28033    0.43217    0.45614    1.000
    C183     C        0.26533    0.40217    0.42226    1.000
    H81      H        0.30333    0.39187    0.41107    1.000
    C184     C        0.23593    0.41457    0.34094    1.000
    C185     C        0.30013    0.49247    0.34997    1.000
    C186     C        0.34993    0.54697    0.32427    1.000
    C187     C        0.33543    0.52347    0.28967    1.000
    C188     C        0.27123    0.44567    0.28070    1.000
    C189     C        0.22143    0.39117    0.30637    1.000
    H82      H        0.31193    0.51077    0.37377    1.000
    H83      H        0.36783    0.56387    0.27167    1.000
    H84      H        0.26123    0.42977    0.25687    1.000
    O43      O        0.18490    0.22300    0.83688    1.000
    O44      O        0.22492    0.30228    0.78936    1.000
    C190     C        0.21390    0.24080    0.80662    1.000
    C191     C        0.23450    0.18150    0.78947    1.000
    C192     C        0.26450    0.19650    0.75559    1.000
    H85      H        0.27480    0.24480    0.74440    1.000
    C193     C        0.25210    0.15470    0.67427    1.000
    C194     C        0.17420    0.14100    0.68330    1.000
    C195     C        0.11970    0.13630    0.65760    1.000
    C196     C        0.14320    0.14530    0.62300    1.000
    C197     C        0.22100    0.15890    0.61403    1.000
    C198     C        0.27550    0.16360    0.63970    1.000
    H86      H        0.15590    0.13450    0.70710    1.000
    H87      H        0.10280    0.13730    0.60500    1.000
    H88      H        0.23690    0.16480    0.59020    1.000
    O45      O        0.85157    0.55633    0.17021    1.000
    O46      O        0.89159    0.63561    0.12269    1.000
    C199     C        0.88057    0.57413    0.13995    1.000
    C200     C        0.90117    0.51483    0.12280    1.000
    C201     C        0.93117    0.52983    0.08892    1.000
    H89      H        0.94147    0.57813    0.07773    1.000
    C202     C        0.91877    0.48803    0.00760    1.000
    C203     C        0.84087    0.47433    0.01663    1.000
    C204     C        0.78637    0.46963    0.99093    1.000
    C205     C        0.80987    0.47863    0.95633    1.000
    C206     C        0.88767    0.49223    0.94736    1.000
    C207     C        0.94217    0.49693    0.97303    1.000
    H90      H        0.82257    0.46783    0.04043    1.000
    H91      H        0.76947    0.47063    0.93833    1.000
    H92      H        0.90357    0.49813    0.92353    1.000
    O47      O        0.51823    0.88967    0.50355    1.000
    O48      O        0.55825    0.96895    0.45603    1.000
    C208     C        0.54723    0.90747    0.47329    1.000
    C209     C        0.56783    0.84817    0.45614    1.000
    C210     C        0.59783    0.86317    0.42226    1.000
    H93      H        0.60813    0.91147    0.41107    1.000
    C211     C        0.58543    0.82137    0.34094    1.000
    C212     C        0.50753    0.80767    0.34997    1.000
    C213     C        0.45303    0.80297    0.32427    1.000
    C214     C        0.47653    0.81197    0.28967    1.000
    C215     C        0.55433    0.82557    0.28070    1.000
    C216     C        0.60883    0.83027    0.30637    1.000
    H94      H        0.48923    0.80117    0.37377    1.000
    H95      H        0.43613    0.80397    0.27167    1.000
    H96      H        0.57023    0.83147    0.25687    1.000
    O49      O        0.77700    0.96190    0.83688    1.000
    O50      O        0.69772    0.92264    0.78936    1.000
    C217     C        0.75920    0.97310    0.80662    1.000
    C218     C        0.81850    0.05300    0.78947    1.000
    C219     C        0.80350    0.06800    0.75559    1.000
    H97      H        0.75520    0.03000    0.74440    1.000
    C220     C        0.84530    0.09740    0.67427    1.000
    C221     C        0.85900    0.03320    0.68330    1.000
    C222     C        0.86370    0.98340    0.65760    1.000
    C223     C        0.85470    0.99790    0.62300    1.000
    C224     C        0.84110    0.06210    0.61403    1.000
    C225     C        0.83640    0.11190    0.63970    1.000
    H98      H        0.86550    0.02140    0.70710    1.000
    H99      H        0.86270    0.96550    0.60500    1.000
    H100     H        0.83520    0.07210    0.59020    1.000
    O51      O        0.44367    0.29523    0.17021    1.000
    O52      O        0.36439    0.25597    0.12269    1.000
    C226     C        0.42587    0.30643    0.13995    1.000
    C227     C        0.48517    0.38633    0.12280    1.000
    C228     C        0.47017    0.40133    0.08892    1.000
    H101     H        0.42187    0.36333    0.07773    1.000
    C229     C        0.51197    0.43073    0.00760    1.000
    C230     C        0.52567    0.36653    0.01663    1.000
    C231     C        0.53037    0.31673    0.99093    1.000
    C232     C        0.52137    0.33123    0.95633    1.000
    C233     C        0.50777    0.39543    0.94736    1.000
    C234     C        0.50307    0.44523    0.97303    1.000
    H102     H        0.53217    0.35473    0.04043    1.000
    H103     H        0.52937    0.29883    0.93833    1.000
    H104     H        0.50187    0.40543    0.92353    1.000
    O53      O        0.11033    0.62857    0.50355    1.000
    O54      O        0.03105    0.58931    0.45603    1.000
    C235     C        0.09253    0.63977    0.47329    1.000
    C236     C        0.15183    0.71967    0.45614    1.000
    C237     C        0.13683    0.73467    0.42226    1.000
    H105     H        0.08853    0.69667    0.41107    1.000
    C238     C        0.17863    0.76407    0.34094    1.000
    C239     C        0.19233    0.69987    0.34997    1.000
    C240     C        0.19703    0.65007    0.32427    1.000
    C241     C        0.18803    0.66457    0.28967    1.000
    C242     C        0.17443    0.72877    0.28070    1.000
    C243     C        0.16973    0.77857    0.30637    1.000
    H106     H        0.19883    0.68807    0.37377    1.000
    H107     H        0.19603    0.63217    0.27167    1.000
    H108     H        0.16853    0.73877    0.25687    1.000
    O55      O        0.81510    0.03810    0.16312    1.000
    O56      O        0.77508    0.07736    0.21064    1.000
    C244     C        0.78610    0.02690    0.19338    1.000
    C245     C        0.76550    0.94700    0.21053    1.000
    C246     C        0.73550    0.93200    0.24441    1.000
    H109     H        0.72520    0.97000    0.25560    1.000
    C247     C        0.74790    0.90260    0.32573    1.000
    C248     C        0.82580    0.96680    0.31670    1.000
    C249     C        0.88030    0.01660    0.34240    1.000
    C250     C        0.85680    0.00210    0.37700    1.000
    C251     C        0.77900    0.93790    0.38597    1.000
    C252     C        0.72450    0.88810    0.36030    1.000
    H110     H        0.84410    0.97860    0.29290    1.000
    H111     H        0.89720    0.03450    0.39500    1.000
    H112     H        0.76310    0.92790    0.40980    1.000
    O57      O        0.48177    0.37143    0.49645    1.000
    O58      O        0.44175    0.41069    0.54397    1.000
    C253     C        0.45277    0.36023    0.52671    1.000
    C254     C        0.43217    0.28033    0.54386    1.000
    C255     C        0.40217    0.26533    0.57774    1.000
    H113     H        0.39187    0.30333    0.58893    1.000
    C256     C        0.41457    0.23593    0.65906    1.000
    C257     C        0.49247    0.30013    0.65003    1.000
    C258     C        0.54697    0.34993    0.67573    1.000
    C259     C        0.52347    0.33543    0.71033    1.000
    C260     C        0.44567    0.27123    0.71930    1.000
    C261     C        0.39117    0.22143    0.69363    1.000
    H114     H        0.51077    0.31193    0.62623    1.000
    H115     H        0.56387    0.36783    0.72833    1.000
    H116     H        0.42977    0.26123    0.74313    1.000
    O59      O        0.14843    0.70477    0.82979    1.000
    O60      O        0.10841    0.74403    0.87731    1.000
    C262     C        0.11943    0.69357    0.86005    1.000
    C263     C        0.09883    0.61367    0.87720    1.000
    C264     C        0.06883    0.59867    0.91108    1.000
    H117     H        0.05853    0.63667    0.92227    1.000
    C265     C        0.08123    0.56927    0.99240    1.000
    C266     C        0.15913    0.63347    0.98337    1.000
    C267     C        0.21363    0.68327    0.00907    1.000
    C268     C        0.19013    0.66877    0.04367    1.000
    C269     C        0.11233    0.60457    0.05264    1.000
    C270     C        0.05783    0.55477    0.02697    1.000
    H118     H        0.17743    0.64527    0.95957    1.000
    H119     H        0.23053    0.70117    0.06167    1.000
    H120     H        0.09643    0.59457    0.07647    1.000
    O61      O        0.22300    0.18490    0.16312    1.000
    O62      O        0.30228    0.22492    0.21064    1.000
    C271     C        0.24080    0.21390    0.19338    1.000
    C272     C        0.18150    0.23450    0.21053    1.000
    C273     C        0.19650    0.26450    0.24441    1.000
    H121     H        0.24480    0.27480    0.25560    1.000
    C274     C        0.15470    0.25210    0.32573    1.000
    C275     C        0.14100    0.17420    0.31670    1.000
    C276     C        0.13630    0.11970    0.34240    1.000
    C277     C        0.14530    0.14320    0.37700    1.000
    C278     C        0.15890    0.22100    0.38597    1.000
    C279     C        0.16360    0.27550    0.36030    1.000
    H122     H        0.13450    0.15590    0.29290    1.000
    H123     H        0.13730    0.10280    0.39500    1.000
    H124     H        0.16480    0.23690    0.40980    1.000
    O63      O        0.88967    0.51823    0.49645    1.000
    O64      O        0.96895    0.55825    0.54397    1.000
    C280     C        0.90747    0.54723    0.52671    1.000
    C281     C        0.84817    0.56783    0.54386    1.000
    C282     C        0.86317    0.59783    0.57774    1.000
    H125     H        0.91147    0.60813    0.58893    1.000
    C283     C        0.82137    0.58543    0.65906    1.000
    C284     C        0.80767    0.50753    0.65003    1.000
    C285     C        0.80297    0.45303    0.67573    1.000
    C286     C        0.81197    0.47653    0.71033    1.000
    C287     C        0.82557    0.55433    0.71930    1.000
    C288     C        0.83027    0.60883    0.69363    1.000
    H126     H        0.80117    0.48923    0.62623    1.000
    H127     H        0.80397    0.43613    0.72833    1.000
    H128     H        0.83147    0.57023    0.74313    1.000
    O65      O        0.55633    0.85157    0.82979    1.000
    O66      O        0.63561    0.89159    0.87731    1.000
    C289     C        0.57413    0.88057    0.86005    1.000
    C290     C        0.51483    0.90117    0.87720    1.000
    C291     C        0.52983    0.93117    0.91108    1.000
    H129     H        0.57813    0.94147    0.92227    1.000
    C292     C        0.48803    0.91877    0.99240    1.000
    C293     C        0.47433    0.84087    0.98337    1.000
    C294     C        0.46963    0.78637    0.00907    1.000
    C295     C        0.47863    0.80987    0.04367    1.000
    C296     C        0.49223    0.88767    0.05264    1.000
    C297     C        0.49693    0.94217    0.02697    1.000
    H130     H        0.46783    0.82257    0.95957    1.000
    H131     H        0.47063    0.76947    0.06167    1.000
    H132     H        0.49813    0.90357    0.07647    1.000
    O67      O        0.96190    0.77700    0.16312    1.000
    O68      O        0.92264    0.69772    0.21064    1.000
    C298     C        0.97310    0.75920    0.19338    1.000
    C299     C        0.05300    0.81850    0.21053    1.000
    C300     C        0.06800    0.80350    0.24441    1.000
    H133     H        0.03000    0.75520    0.25560    1.000
    C301     C        0.09740    0.84530    0.32573    1.000
    C302     C        0.03320    0.85900    0.31670    1.000
    C303     C        0.98340    0.86370    0.34240    1.000
    C304     C        0.99790    0.85470    0.37700    1.000
    C305     C        0.06210    0.84110    0.38597    1.000
    C306     C        0.11190    0.83640    0.36030    1.000
    H134     H        0.02140    0.86550    0.29290    1.000
    H135     H        0.96550    0.86270    0.39500    1.000
    H136     H        0.07210    0.83520    0.40980    1.000
    O69      O        0.62857    0.11033    0.49645    1.000
    O70      O        0.58931    0.03105    0.54397    1.000
    C307     C        0.63977    0.09253    0.52671    1.000
    C308     C        0.71967    0.15183    0.54386    1.000
    C309     C        0.73467    0.13683    0.57774    1.000
    H137     H        0.69667    0.08853    0.58893    1.000
    C310     C        0.76407    0.17863    0.65906    1.000
    C311     C        0.69987    0.19233    0.65003    1.000
    C312     C        0.65007    0.19703    0.67573    1.000
    C313     C        0.66457    0.18803    0.71033    1.000
    C314     C        0.72877    0.17443    0.71930    1.000
    C315     C        0.77857    0.16973    0.69363    1.000
    H138     H        0.68807    0.19883    0.62623    1.000
    H139     H        0.63217    0.19603    0.72833    1.000
    H140     H        0.73877    0.16853    0.74313    1.000
    O71      O        0.29523    0.44367    0.82979    1.000
    O72      O        0.25597    0.36439    0.87731    1.000
    C316     C        0.30643    0.42587    0.86005    1.000
    C317     C        0.38633    0.48517    0.87720    1.000
    C318     C        0.40133    0.47017    0.91108    1.000
    H141     H        0.36333    0.42187    0.92227    1.000
    C319     C        0.43073    0.51197    0.99240    1.000
    C320     C        0.36653    0.52567    0.98337    1.000
    C321     C        0.31673    0.53037    0.00907    1.000
    C322     C        0.33123    0.52137    0.04367    1.000
    C323     C        0.39543    0.50777    0.05264    1.000
    C324     C        0.44523    0.50307    0.02697    1.000
    H142     H        0.35473    0.53217    0.95957    1.000
    H143     H        0.29883    0.52937    0.06167    1.000
    H144     H        0.40543    0.50187    0.07647    1.000
    Cu1      Cu       0.85678    0.14322    0.13842    1.000
    H145     H        0.94010    0.05990    0.33660    1.000
    Cu2      Cu       0.52345    0.47655    0.47176    1.000
    H146     H        0.60677    0.39323    0.66993    1.000
    Cu3      Cu       0.19011    0.80989    0.80509    1.000
    H147     H        0.27343    0.72657    0.00327    1.000
    Cu4      Cu       0.85678    0.71356    0.13842    1.000
    H148     H        0.94010    0.88020    0.33660    1.000
    Cu5      Cu       0.52345    0.04690    0.47176    1.000
    H149     H        0.60677    0.21353    0.66993    1.000
    Cu6      Cu       0.19011    0.38023    0.80509    1.000
    H150     H        0.27343    0.54687    0.00327    1.000
    Cu7      Cu       0.28644    0.14322    0.13842    1.000
    H151     H        0.11980    0.05990    0.33660    1.000
    Cu8      Cu       0.95310    0.47655    0.47176    1.000
    H152     H        0.78647    0.39323    0.66993    1.000
    Cu9      Cu       0.61977    0.80989    0.80509    1.000
    H153     H        0.45313    0.72657    0.00327    1.000
    Cu10     Cu       0.14322    0.85678    0.86158    1.000
    H154     H        0.05990    0.94010    0.66340    1.000
    Cu11     Cu       0.80989    0.19011    0.19491    1.000
    H155     H        0.72657    0.27343    0.99673    1.000
    Cu12     Cu       0.47655    0.52345    0.52824    1.000
    H156     H        0.39323    0.60677    0.33007    1.000
    Cu13     Cu       0.71356    0.85678    0.86158    1.000
    H157     H        0.88020    0.94010    0.66340    1.000
    Cu14     Cu       0.38023    0.19011    0.19491    1.000
    H158     H        0.54687    0.27343    0.99673    1.000
    Cu15     Cu       0.04690    0.52345    0.52824    1.000
    H159     H        0.21353    0.60677    0.33007    1.000
    Cu16     Cu       0.14322    0.28644    0.86158    1.000
    H160     H        0.05990    0.11980    0.66340    1.000
    Cu17     Cu       0.80989    0.61977    0.19491    1.000
    H161     H        0.72657    0.45313    0.99673    1.000
    Cu18     Cu       0.47655    0.95310    0.52824    1.000
    H162     H        0.39323    0.78647    0.33007    1.000
    C325     C        0.10995    0.21990    0.19394    1.000
    H163     H        0.10005    0.20010    0.17130    1.000
    C326     C        0.13950    0.27900    0.26151    1.000
    C327     C        0.15355    0.30710    0.29884    1.000
    C328     C        0.77662    0.55323    0.52727    1.000
    H164     H        0.76672    0.53343    0.50463    1.000
    C329     C        0.80617    0.61233    0.59484    1.000
    C330     C        0.82022    0.64043    0.63217    1.000
    C331     C        0.44328    0.88657    0.86061    1.000
    H165     H        0.43338    0.86677    0.83797    1.000
    C332     C        0.47283    0.94567    0.92818    1.000
    C333     C        0.48688    0.97377    0.96551    1.000
    C334     C        0.78010    0.89005    0.19394    1.000
    H166     H        0.79990    0.89995    0.17130    1.000
    C335     C        0.72100    0.86050    0.26151    1.000
    C336     C        0.69290    0.84645    0.29884    1.000
    C337     C        0.44677    0.22338    0.52727    1.000
    H167     H        0.46657    0.23328    0.50463    1.000
    C338     C        0.38767    0.19383    0.59484    1.000
    C339     C        0.35957    0.17978    0.63217    1.000
    C340     C        0.11343    0.55672    0.86061    1.000
    H168     H        0.13323    0.56662    0.83797    1.000
    C341     C        0.05433    0.52717    0.92818    1.000
    C342     C        0.02623    0.51312    0.96551    1.000
    C343     C        0.10995    0.89005    0.19394    1.000
    H169     H        0.10005    0.89995    0.17130    1.000
    C344     C        0.13950    0.86050    0.26151    1.000
    C345     C        0.15355    0.84645    0.29884    1.000
    C346     C        0.77662    0.22338    0.52727    1.000
    H170     H        0.76672    0.23328    0.50463    1.000
    C347     C        0.80617    0.19383    0.59484    1.000
    C348     C        0.82022    0.17978    0.63217    1.000
    C349     C        0.44328    0.55672    0.86061    1.000
    H171     H        0.43338    0.56662    0.83797    1.000
    C350     C        0.47283    0.52717    0.92818    1.000
    C351     C        0.48688    0.51312    0.96551    1.000
    C352     C        0.21990    0.10995    0.80606    1.000
    H172     H        0.20010    0.10005    0.82870    1.000
    C353     C        0.27900    0.13950    0.73849    1.000
    C354     C        0.30710    0.15355    0.70116    1.000
    C355     C        0.88657    0.44328    0.13939    1.000
    H173     H        0.86677    0.43338    0.16203    1.000
    C356     C        0.94567    0.47283    0.07182    1.000
    C357     C        0.97377    0.48688    0.03449    1.000
    C358     C        0.55323    0.77662    0.47273    1.000
    H174     H        0.53343    0.76672    0.49537    1.000
    C359     C        0.61233    0.80617    0.40516    1.000
    C360     C        0.64043    0.82022    0.36783    1.000
    C361     C        0.89005    0.78010    0.80606    1.000
    H175     H        0.89995    0.79990    0.82870    1.000
    C362     C        0.86050    0.72100    0.73849    1.000
    C363     C        0.84645    0.69290    0.70116    1.000
    C364     C        0.55672    0.11343    0.13939    1.000
    H176     H        0.56662    0.13323    0.16203    1.000
    C365     C        0.52717    0.05433    0.07182    1.000
    C366     C        0.51312    0.02623    0.03449    1.000
    C367     C        0.22338    0.44677    0.47273    1.000
    H177     H        0.23328    0.46657    0.49537    1.000
    C368     C        0.19383    0.38767    0.40516    1.000
    C369     C        0.17978    0.35957    0.36783    1.000
    C370     C        0.89005    0.10995    0.80606    1.000
    H178     H        0.89995    0.10005    0.82870    1.000
    C371     C        0.86050    0.13950    0.73849    1.000
    C372     C        0.84645    0.15355    0.70116    1.000
    C373     C        0.55672    0.44328    0.13939    1.000
    H179     H        0.56662    0.43338    0.16203    1.000
    C374     C        0.52717    0.47283    0.07182    1.000
    C375     C        0.51312    0.48688    0.03449    1.000
    C376     C        0.22338    0.77662    0.47273    1.000
    H180     H        0.23328    0.76672    0.49537    1.000
    C377     C        0.19383    0.80617    0.40516    1.000
    C378     C        0.17978    0.82022    0.36783    1.000
