# CIF file generated by openbabel 3.1.0, see https://openbabel.org
data_I
_chemical_name_common 'HAPVAX_clean'
_cell_length_a 11.6182
_cell_length_b 15.5887
_cell_length_c 13.1134
_cell_angle_alpha 90
_cell_angle_beta 90
_cell_angle_gamma 90
_space_group_name_H-M_alt 'P 1'
_space_group_name_Hall 'P 1'
loop_
    _symmetry_equiv_pos_as_xyz
    x,y,z
loop_
    _atom_site_label
    _atom_site_type_symbol
    _atom_site_fract_x
    _atom_site_fract_y
    _atom_site_fract_z
    _atom_site_occupancy
    Ce1      Ce       0.75000    0.71365    0.06121    1.000
    Ce2      Ce       0.25000    0.78635    0.56121    1.000
    Ce3      Ce       0.25000    0.28635    0.93879    1.000
    Ce4      Ce       0.75000    0.21365    0.43879    1.000
    U1       U        0.75000    0.75300    0.34295    1.000
    U2       U        0.25000    0.74700    0.84295    1.000
    U3       U        0.25000    0.24700    0.65705    1.000
    U4       U        0.75000    0.25300    0.15705    1.000
    U5       U        0.00000    0.00000    0.00000    1.000
    U6       U        0.00000    0.50000    0.50000    1.000
    U7       U        0.50000    0.00000    0.00000    1.000
    U8       U        0.50000    0.50000    0.50000    1.000
    C1       C        0.87020    0.76860    0.71890    1.000
    C2       C        0.00080    0.76610    0.71950    1.000
    C3       C        0.81020    0.80920    0.79710    1.000
    C4       C        0.87340    0.85500    0.88120    1.000
    C5       C        0.87410    0.67280    0.56630    1.000
    C6       C        0.80980    0.72770    0.64040    1.000
    C7       C        0.12980    0.73140    0.21890    1.000
    C8       C        0.99920    0.73390    0.21950    1.000
    C9       C        0.18980    0.69080    0.29710    1.000
    C10      C        0.12660    0.64500    0.38120    1.000
    C11      C        0.12590    0.82720    0.06630    1.000
    C12      C        0.19020    0.77230    0.14040    1.000
    C13      C        0.37020    0.23140    0.28110    1.000
    C14      C        0.50080    0.23390    0.28050    1.000
    C15      C        0.31020    0.19080    0.20290    1.000
    C16      C        0.37340    0.14500    0.11880    1.000
    C17      C        0.37410    0.32720    0.43370    1.000
    C18      C        0.30980    0.27230    0.35960    1.000
    C19      C        0.62980    0.26860    0.78110    1.000
    C20      C        0.49920    0.26610    0.78050    1.000
    C21      C        0.68980    0.30920    0.70290    1.000
    C22      C        0.62660    0.35500    0.61880    1.000
    C23      C        0.62590    0.17280    0.93370    1.000
    C24      C        0.69020    0.22770    0.85960    1.000
    C25      C        0.12980    0.23140    0.28110    1.000
    C26      C        0.99920    0.23390    0.28050    1.000
    C27      C        0.18980    0.19080    0.20290    1.000
    C28      C        0.12660    0.14500    0.11880    1.000
    C29      C        0.12590    0.32720    0.43370    1.000
    C30      C        0.19020    0.27230    0.35960    1.000
    C31      C        0.87020    0.26860    0.78110    1.000
    C32      C        0.00080    0.26610    0.78050    1.000
    C33      C        0.81020    0.30920    0.70290    1.000
    C34      C        0.87340    0.35500    0.61880    1.000
    C35      C        0.87410    0.17280    0.93370    1.000
    C36      C        0.80980    0.22770    0.85960    1.000
    C37      C        0.62980    0.76860    0.71890    1.000
    C38      C        0.49920    0.76610    0.71950    1.000
    C39      C        0.68980    0.80920    0.79710    1.000
    C40      C        0.62660    0.85500    0.88120    1.000
    C41      C        0.62590    0.67280    0.56630    1.000
    C42      C        0.69020    0.72770    0.64040    1.000
    C43      C        0.37020    0.73140    0.21890    1.000
    C44      C        0.50080    0.73390    0.21950    1.000
    C45      C        0.31020    0.69080    0.29710    1.000
    C46      C        0.37340    0.64500    0.38120    1.000
    C47      C        0.37410    0.82720    0.06630    1.000
    C48      C        0.30980    0.77230    0.14040    1.000
    O1       O        0.92530    0.92320    0.85740    1.000
    O2       O        0.87080    0.82620    0.96970    1.000
    O3       O        0.93110    0.61230    0.60480    1.000
    O4       O        0.86810    0.68550    0.47240    1.000
    O5       O        0.04700    0.73860    0.80070    1.000
    O6       O        0.05140    0.79100    0.64100    1.000
    O7       O        0.07470    0.57680    0.35740    1.000
    O8       O        0.12920    0.67380    0.46970    1.000
    O9       O        0.06890    0.88770    0.10480    1.000
    O10      O        0.13190    0.81450    0.97240    1.000
    O11      O        0.95300    0.76140    0.30070    1.000
    O12      O        0.94860    0.70900    0.14100    1.000
    O13      O        0.42530    0.07680    0.14260    1.000
    O14      O        0.37080    0.17380    0.03030    1.000
    O15      O        0.43110    0.38770    0.39520    1.000
    O16      O        0.36810    0.31450    0.52760    1.000
    O17      O        0.54700    0.26140    0.19930    1.000
    O18      O        0.55140    0.20900    0.35900    1.000
    O19      O        0.57470    0.42320    0.64260    1.000
    O20      O        0.62920    0.32620    0.53030    1.000
    O21      O        0.56890    0.11230    0.89520    1.000
    O22      O        0.63190    0.18550    0.02760    1.000
    O23      O        0.45300    0.23860    0.69930    1.000
    O24      O        0.44860    0.29100    0.85900    1.000
    O25      O        0.07470    0.07680    0.14260    1.000
    O26      O        0.12920    0.17380    0.03030    1.000
    O27      O        0.06890    0.38770    0.39520    1.000
    O28      O        0.13190    0.31450    0.52760    1.000
    O29      O        0.95300    0.26140    0.19930    1.000
    O30      O        0.94860    0.20900    0.35900    1.000
    O31      O        0.92530    0.42320    0.64260    1.000
    O32      O        0.87080    0.32620    0.53030    1.000
    O33      O        0.93110    0.11230    0.89520    1.000
    O34      O        0.86810    0.18550    0.02760    1.000
    O35      O        0.04700    0.23860    0.69930    1.000
    O36      O        0.05140    0.29100    0.85900    1.000
    O37      O        0.57470    0.92320    0.85740    1.000
    O38      O        0.62920    0.82620    0.96970    1.000
    O39      O        0.56890    0.61230    0.60480    1.000
    O40      O        0.63190    0.68550    0.47240    1.000
    O41      O        0.45300    0.73860    0.80070    1.000
    O42      O        0.44860    0.79100    0.64100    1.000
    O43      O        0.42530    0.57680    0.35740    1.000
    O44      O        0.37080    0.67380    0.46970    1.000
    O45      O        0.43110    0.88770    0.10480    1.000
    O46      O        0.36810    0.81450    0.97240    1.000
    O47      O        0.54700    0.76140    0.30070    1.000
    O48      O        0.55140    0.70900    0.14100    1.000
    O49      O        0.75000    0.65890    0.26640    1.000
    O50      O        0.75000    0.82210    0.19230    1.000
    O51      O        0.25000    0.84110    0.76640    1.000
    O52      O        0.25000    0.67790    0.69230    1.000
    O53      O        0.25000    0.34110    0.73360    1.000
    O54      O        0.25000    0.17790    0.80770    1.000
    O55      O        0.75000    0.15890    0.23360    1.000
    O56      O        0.75000    0.32210    0.30770    1.000
