data_functionalizedCrystal
_audit_creation_method	'EQeq! by Chris Wilmer'
_symmetry_space_group_name_H-M	'P1'
_symmetry_Int_Tables_number	1
_symmetry_cell_setting	triclinic
loop_
_symmetry_equiv_pos_as_xyz
  x,y,z
_cell_length_a	12.5382
_cell_length_b	16.2052
_cell_length_c	20.0829
_cell_angle_alpha	90
_cell_angle_beta	94.732
_cell_angle_gamma	90
loop_
_atom_site_label
_atom_site_type_symbol
_atom_site_fract_x
_atom_site_fract_y
_atom_site_fract_z
_atom_site_charge
Mof_Zn	Zn	0.28847	0.40981	0.41205	1.166
Mof_C 	C 	0.4148	0.54191	0.34332	0.312
Mof_C 	C 	0.5183	0.5315	0.38416	-0.886
Mof_H 	H 	0.5108	0.4899	0.4175	0.26
Mof_H 	H 	0.5384	0.5828	0.4056	0.269
Mof_H 	H 	0.5725	0.515	0.3558	0.263
Mof_C 	C 	0.1573	0.2961	0.314	0.331
Mof_C 	C 	0.2184	0.3076	0.2548	-0.92
Mof_H 	H 	0.19	0.2721	0.2194	0.265
Mof_H 	H 	0.2923	0.2942	0.2662	0.301
Mof_H 	H 	0.2128	0.364	0.2403	0.276
Mof_C 	C 	0.4648	0.3216	0.41628	0.329
Mof_C 	C 	0.5734	0.288	0.43841	-0.107
Mof_C 	C 	0.6303	0.2416	0.39366	0.024
Mof_H 	H 	0.5993	0.2308	0.3509	0.02
Mof_C 	C 	0.7296	0.2124	0.41223	-0.136
Mof_H 	H 	0.7665	0.1827	0.3819	0.063
Mof_C 	C 	0.7775	0.2269	0.47739	0.055
Mof_C 	C 	0.8815	0.1967	0.49839	-0.105
Mof_H 	H 	0.9192	0.1663	0.4689	0.076
Mof_N 	N 	0.3252	0.50074	0.35097	-0.308
Mof_N 	N 	0.2515	0.52915	0.30191	-0.094
Mof_N 	N 	0.2953	0.58484	0.26776	-0.088
Mof_N 	N 	0.399	0.59538	0.2926	-0.306
Mof_N 	N 	0.1735	0.33469	0.37221	-0.31
Mof_N 	N 	0.0994	0.30536	0.41162	-0.097
Mof_N 	N 	0.0409	0.25118	0.37839	-0.101
Mof_N 	N 	0.0761	0.24399	0.31629	-0.317
Mof_O 	O 	0.41666	0.3626	0.45873	-0.512
Mof_O 	O 	0.4269	0.31107	0.35815	-0.368
Mof_Zn	Zn	0.78847	0.90981	0.41205	1.169
Mof_C 	C 	0.9148	0.04191	0.34332	0.387
Mof_C 	C 	0.0183	0.0315	0.38416	-1.015
Mof_H 	H 	0.0108	0.9899	0.4175	0.276
Mof_H 	H 	0.0384	0.0828	0.4056	0.291
Mof_H 	H 	0.0725	0.015	0.3558	0.289
Mof_C 	C 	0.6573	0.7961	0.314	0.349
Mof_C 	C 	0.7184	0.8076	0.2548	-0.955
Mof_H 	H 	0.69	0.7721	0.2194	0.283
Mof_H 	H 	0.7923	0.7942	0.2662	0.318
Mof_H 	H 	0.7128	0.864	0.2403	0.295
Mof_C 	C 	0.9648	0.8216	0.41628	0.398
Mof_C 	C 	0.0734	0.788	0.43841	-0.19
Mof_C 	C 	0.1303	0.7416	0.39366	0.061
Mof_H 	H 	0.0993	0.7308	0.3509	-0.008
Mof_C 	C 	0.2296	0.7124	0.41223	-0.159
Mof_H 	H 	0.2665	0.6827	0.3819	0.066
Mof_C 	C 	0.2775	0.7269	0.47739	0.046
Mof_C 	C 	0.3815	0.6967	0.49839	-0.074
Mof_H 	H 	0.4192	0.6663	0.4689	0.047
Mof_N 	N 	0.8252	0.00074	0.35097	-0.315
Mof_N 	N 	0.7515	0.02915	0.30191	-0.087
Mof_N 	N 	0.7953	0.08484	0.26776	-0.082
Mof_N 	N 	0.899	0.09538	0.2926	-0.302
Mof_N 	N 	0.6735	0.83469	0.37221	-0.309
Mof_N 	N 	0.5994	0.80536	0.41162	-0.087
Mof_N 	N 	0.5409	0.75118	0.37839	-0.084
Mof_N 	N 	0.5761	0.74399	0.31629	-0.31
Mof_O 	O 	0.91666	0.8626	0.45873	-0.509
Mof_O 	O 	0.9269	0.81107	0.35815	-0.366
Mof_Zn	Zn	0.71153	0.40981	0.08795	1.169
Mof_C 	C 	0.5852	0.54191	0.15668	0.31
Mof_C 	C 	0.4817	0.5315	0.11584	-0.875
Mof_H 	H 	0.4892	0.4899	0.0825	0.256
Mof_H 	H 	0.4616	0.5828	0.0944	0.264
Mof_H 	H 	0.4275	0.515	0.1442	0.256
Mof_C 	C 	0.8427	0.2961	0.186	0.355
Mof_C 	C 	0.7816	0.3076	0.2452	-0.959
Mof_H 	H 	0.81	0.2721	0.2806	0.291
Mof_H 	H 	0.7077	0.2942	0.2338	0.314
Mof_H 	H 	0.7872	0.364	0.2597	0.301
Mof_C 	C 	0.5352	0.3216	0.08372	0.316
Mof_C 	C 	0.4266	0.288	0.06159	-0.075
Mof_C 	C 	0.3697	0.2416	0.10634	-0.022
Mof_H 	H 	0.4007	0.2308	0.1491	0.036
Mof_C 	C 	0.2704	0.2124	0.08777	-0.08
Mof_H 	H 	0.2335	0.1827	0.1181	0.038
Mof_C 	C 	0.2225	0.2269	0.02261	-0.031
Mof_C 	C 	0.1185	0.1967	0.00161	0.008
Mof_H 	H 	0.0808	0.1663	0.0311	0.003
Mof_N 	N 	0.6748	0.50074	0.14903	-0.304
Mof_N 	N 	0.7485	0.52915	0.19809	-0.083
Mof_N 	N 	0.7047	0.58484	0.23224	-0.081
Mof_N 	N 	0.601	0.59538	0.2074	-0.305
Mof_N 	N 	0.8265	0.33469	0.12779	-0.307
Mof_N 	N 	0.9006	0.30536	0.08838	-0.078
Mof_N 	N 	0.9591	0.25118	0.12161	-0.067
Mof_N 	N 	0.9239	0.24399	0.18371	-0.296
Mof_O 	O 	0.58334	0.3626	0.04127	-0.506
Mof_O 	O 	0.5731	0.31107	0.14185	-0.364
Mof_Zn	Zn	0.21153	0.90981	0.08795	1.164
Mof_C 	C 	0.0852	0.04191	0.15668	0.231
Mof_C 	C 	0.9817	0.0315	0.11584	-0.726
Mof_H 	H 	0.9892	0.9899	0.0825	0.232
Mof_H 	H 	0.9616	0.0828	0.0944	0.238
Mof_H 	H 	0.9275	0.015	0.1442	0.227
Mof_C 	C 	0.3427	0.7961	0.186	0.336
Mof_C 	C 	0.2816	0.8076	0.2452	-0.922
Mof_H 	H 	0.31	0.7721	0.2806	0.27
Mof_H 	H 	0.2077	0.7942	0.2338	0.296
Mof_H 	H 	0.2872	0.864	0.2597	0.28
Mof_C 	C 	0.0352	0.8216	0.08372	0.248
Mof_C 	C 	0.9266	0.788	0.06159	0.001
Mof_C 	C 	0.8697	0.7416	0.10634	-0.056
Mof_H 	H 	0.9007	0.7308	0.1491	0.062
Mof_C 	C 	0.7704	0.7124	0.08777	-0.06
Mof_H 	H 	0.7335	0.6827	0.1181	0.035
Mof_C 	C 	0.7225	0.7269	0.02261	-0.022
Mof_C 	C 	0.6185	0.6967	0.00161	-0.03
Mof_H 	H 	0.5808	0.6663	0.0311	0.032
Mof_N 	N 	0.1748	0.00074	0.14903	-0.295
Mof_N 	N 	0.2485	0.02915	0.19809	-0.089
Mof_N 	N 	0.2047	0.08484	0.23224	-0.086
Mof_N 	N 	0.101	0.09538	0.2074	-0.303
Mof_N 	N 	0.3265	0.83469	0.12779	-0.309
Mof_N 	N 	0.4006	0.80536	0.08838	-0.089
Mof_N 	N 	0.4591	0.75118	0.12161	-0.085
Mof_N 	N 	0.4239	0.74399	0.18371	-0.309
Mof_O 	O 	0.08334	0.8626	0.04127	-0.511
Mof_O 	O 	0.0731	0.81107	0.14185	-0.368
Mof_Zn	Zn	0.71153	0.59019	0.58795	1.169
Mof_C 	C 	0.5852	0.45809	0.65668	0.31
Mof_C 	C 	0.4817	0.4685	0.61584	-0.876
Mof_H 	H 	0.4892	0.5101	0.5825	0.257
Mof_H 	H 	0.4616	0.4172	0.5944	0.265
Mof_H 	H 	0.4275	0.485	0.6442	0.256
Mof_C 	C 	0.8427	0.7039	0.686	0.355
Mof_C 	C 	0.7816	0.6924	0.7452	-0.958
Mof_H 	H 	0.81	0.7279	0.7806	0.291
Mof_H 	H 	0.7077	0.7058	0.7338	0.314
Mof_H 	H 	0.7872	0.636	0.7597	0.3
Mof_C 	C 	0.5352	0.6784	0.58372	0.316
Mof_C 	C 	0.4266	0.712	0.56159	-0.075
Mof_C 	C 	0.3697	0.7584	0.60634	-0.022
Mof_H 	H 	0.4007	0.7692	0.6491	0.036
Mof_C 	C 	0.2704	0.7876	0.58777	-0.08
Mof_H 	H 	0.2335	0.8173	0.6181	0.037
Mof_C 	C 	0.2225	0.7731	0.52261	-0.031
Mof_C 	C 	0.1185	0.8033	0.50161	0.007
Mof_H 	H 	0.0808	0.8337	0.5311	0.002
Mof_N 	N 	0.6748	0.49926	0.64903	-0.304
Mof_N 	N 	0.7485	0.47085	0.69809	-0.083
Mof_N 	N 	0.7047	0.41516	0.73224	-0.081
Mof_N 	N 	0.601	0.40462	0.7074	-0.305
Mof_N 	N 	0.8265	0.66531	0.62779	-0.307
Mof_N 	N 	0.9006	0.69464	0.58838	-0.079
Mof_N 	N 	0.9591	0.74882	0.62161	-0.067
Mof_N 	N 	0.9239	0.75601	0.68371	-0.296
Mof_O 	O 	0.58334	0.6374	0.54127	-0.506
Mof_O 	O 	0.5731	0.68893	0.64185	-0.365
Mof_Zn	Zn	0.21153	0.09019	0.58795	1.165
Mof_C 	C 	0.0852	0.95809	0.65668	0.235
Mof_C 	C 	0.9817	0.9685	0.61584	-0.742
Mof_H 	H 	0.9892	0.0101	0.5825	0.238
Mof_H 	H 	0.9616	0.9172	0.5944	0.242
Mof_H 	H 	0.9275	0.985	0.6442	0.231
Mof_C 	C 	0.3427	0.2039	0.686	0.336
Mof_C 	C 	0.2816	0.1924	0.7452	-0.922
Mof_H 	H 	0.31	0.2279	0.7806	0.27
Mof_H 	H 	0.2077	0.2058	0.7338	0.296
Mof_H 	H 	0.2872	0.136	0.7597	0.28
Mof_C 	C 	0.0352	0.1784	0.58372	0.246
Mof_C 	C 	0.9266	0.212	0.56159	0.007
Mof_C 	C 	0.8697	0.2584	0.60634	-0.059
Mof_H 	H 	0.9007	0.2692	0.6491	0.063
Mof_C 	C 	0.7704	0.2876	0.58777	-0.057
Mof_H 	H 	0.7335	0.3173	0.6181	0.034
Mof_C 	C 	0.7225	0.2731	0.52261	-0.022
Mof_C 	C 	0.6185	0.3033	0.50161	-0.024
Mof_H 	H 	0.5808	0.3337	0.5311	0.031
Mof_N 	N 	0.1748	0.99926	0.64903	-0.297
Mof_N 	N 	0.2485	0.97085	0.69809	-0.089
Mof_N 	N 	0.2047	0.91516	0.73224	-0.086
Mof_N 	N 	0.101	0.90462	0.7074	-0.303
Mof_N 	N 	0.3265	0.16531	0.62779	-0.309
Mof_N 	N 	0.4006	0.19464	0.58838	-0.089
Mof_N 	N 	0.4591	0.24882	0.62161	-0.085
Mof_N 	N 	0.4239	0.25601	0.68371	-0.309
Mof_O 	O 	0.08334	0.1374	0.54127	-0.509
Mof_O 	O 	0.0731	0.18893	0.64185	-0.367
Mof_Zn	Zn	0.28847	0.59019	0.91205	1.165
Mof_C 	C 	0.4148	0.45809	0.84332	0.312
Mof_C 	C 	0.5183	0.4685	0.88416	-0.886
Mof_H 	H 	0.5108	0.5101	0.9175	0.261
Mof_H 	H 	0.5384	0.4172	0.9056	0.269
Mof_H 	H 	0.5725	0.485	0.8558	0.263
Mof_C 	C 	0.1573	0.7039	0.814	0.332
Mof_C 	C 	0.2184	0.6924	0.7548	-0.921
Mof_H 	H 	0.19	0.7279	0.7194	0.265
Mof_H 	H 	0.2923	0.7058	0.7662	0.301
Mof_H 	H 	0.2128	0.636	0.7403	0.277
Mof_C 	C 	0.4648	0.6784	0.91628	0.327
Mof_C 	C 	0.5734	0.712	0.93841	-0.102
Mof_C 	C 	0.6303	0.7584	0.89366	0.021
Mof_H 	H 	0.5993	0.7692	0.8509	0.021
Mof_C 	C 	0.7296	0.7876	0.91223	-0.133
Mof_H 	H 	0.7665	0.8173	0.8819	0.062
Mof_C 	C 	0.7775	0.7731	0.97739	0.055
Mof_C 	C 	0.8815	0.8033	0.99839	-0.099
Mof_H 	H 	0.9192	0.8337	0.9689	0.075
Mof_N 	N 	0.3252	0.49926	0.85097	-0.308
Mof_N 	N 	0.2515	0.47085	0.80191	-0.094
Mof_N 	N 	0.2953	0.41516	0.76776	-0.088
Mof_N 	N 	0.399	0.40462	0.7926	-0.306
Mof_N 	N 	0.1735	0.66531	0.87221	-0.31
Mof_N 	N 	0.0994	0.69464	0.91162	-0.096
Mof_N 	N 	0.0409	0.74882	0.87839	-0.1
Mof_N 	N 	0.0761	0.75601	0.81629	-0.317
Mof_O 	O 	0.41666	0.6374	0.95873	-0.511
Mof_O 	O 	0.4269	0.68893	0.85815	-0.368
Mof_Zn	Zn	0.78847	0.09019	0.91205	1.169
Mof_C 	C 	0.9148	0.95809	0.84332	0.383
Mof_C 	C 	0.0183	0.9685	0.88416	-1
Mof_H 	H 	0.0108	0.0101	0.9175	0.27
Mof_H 	H 	0.0384	0.9172	0.9056	0.288
Mof_H 	H 	0.0725	0.985	0.8558	0.285
Mof_C 	C 	0.6573	0.2039	0.814	0.349
Mof_C 	C 	0.7184	0.1924	0.7548	-0.955
Mof_H 	H 	0.69	0.2279	0.7194	0.284
Mof_H 	H 	0.7923	0.2058	0.7662	0.318
Mof_H 	H 	0.7128	0.136	0.7403	0.295
Mof_C 	C 	0.9648	0.1784	0.91628	0.398
Mof_C 	C 	0.0734	0.212	0.93841	-0.189
Mof_C 	C 	0.1303	0.2584	0.89366	0.06
Mof_H 	H 	0.0993	0.2692	0.8509	-0.007
Mof_C 	C 	0.2296	0.2876	0.91223	-0.159
Mof_H 	H 	0.2665	0.3173	0.8819	0.066
Mof_C 	C 	0.2775	0.2731	0.97739	0.045
Mof_C 	C 	0.3815	0.3033	0.99839	-0.074
Mof_H 	H 	0.4192	0.3337	0.9689	0.047
Mof_N 	N 	0.8252	0.99926	0.85097	-0.313
Mof_N 	N 	0.7515	0.97085	0.80191	-0.087
Mof_N 	N 	0.7953	0.91516	0.76776	-0.082
Mof_N 	N 	0.899	0.90462	0.7926	-0.302
Mof_N 	N 	0.6735	0.16531	0.87221	-0.309
Mof_N 	N 	0.5994	0.19464	0.91162	-0.087
Mof_N 	N 	0.5409	0.24882	0.87839	-0.084
Mof_N 	N 	0.5761	0.25601	0.81629	-0.31
Mof_O 	O 	0.91666	0.1374	0.95873	-0.51
Mof_O 	O 	0.9269	0.18893	0.85815	-0.367
Mof_Zn	Zn	0.5	0.66848	0.25	1.177
Mof_Zn	Zn	-6.98903e-18	0.16848	0.25	1.159
Mof_Zn	Zn	0.5	0.33152	0.75	1.177
Mof_Zn	Zn	4.87574e-33	0.83152	0.75	1.159
_end
