data_functionalizedCrystal
_audit_creation_method	'EQeq! by Chris Wilmer'
_symmetry_space_group_name_H-M	'P1'
_symmetry_Int_Tables_number	1
_symmetry_cell_setting	triclinic
loop_
_symmetry_equiv_pos_as_xyz
  x,y,z
_cell_length_a	10.092
_cell_length_b	21.818
_cell_length_c	6.523
_cell_angle_alpha	90
_cell_angle_beta	90
_cell_angle_gamma	90
loop_
_atom_site_label
_atom_site_type_symbol
_atom_site_fract_x
_atom_site_fract_y
_atom_site_fract_z
_atom_site_charge
Mof_N 	N 	0.9871	0.71649	0.6892	-0.141
Mof_H 	H 	0.7663	0.6149	0.6204	0.026
Mof_C 	C 	0.842	0.72725	0.6838	-0.001
Mof_H 	H 	0.802	0.7093	0.805	0.018
Mof_H 	H 	0.8252	0.771	0.6871	0.032
Mof_C 	C 	0.0091	0.64909	0.6837	-0.01
Mof_H 	H 	0.1036	0.6408	0.6854	0.04
Mof_H 	H 	0.9704	0.6306	0.8049	0.029
Mof_O 	O 	0.384	0.6507	0.551	-0.339
Mof_O 	O 	0.469	0.6272	0.741	-0.101
Mof_O 	O 	0.589	0.3551	0.434	0.091
Mof_O 	O 	0.519	0.3687	0.744	-0.134
Mof_C 	C 	0.405	0.6133	0.413	0.125
Mof_C 	C 	0.3573	0.5466	0.413	-0.22
Mof_H 	H 	0.3095	0.5393	0.5393	0.307
Mof_H 	H 	0.2958	0.5407	0.3001	0.075
Mof_C 	C 	0.4676	0.4999	0.396	0.052
Mof_H 	H 	0.5164	0.5079	0.2704	-0.003
Mof_H 	H 	0.4289	0.4593	0.3839	0.036
Mof_C 	C 	0.5645	0.4999	0.575	-0.047
Mof_H 	H 	0.5152	0.4988	0.7029	0.023
Mof_H 	H 	0.6156	0.5376	0.5728	0.018
Mof_C 	C 	0.6589	0.4454	0.567	-0.175
Mof_H 	H 	0.7235	0.4484	0.6765	0.061
Mof_H 	H 	0.7061	0.4452	0.4372	-0.114
Mof_C 	C 	0.58	0.3856	0.591	0.21
Mof_N 	N 	0.0129	0.28351	0.6892	-0.14
Mof_H 	H 	0.2337	0.3851	0.6204	0.027
Mof_C 	C 	0.158	0.27275	0.6838	-0.001
Mof_H 	H 	0.198	0.2907	0.805	0.018
Mof_H 	H 	0.1748	0.229	0.6871	0.032
Mof_C 	C 	0.9909	0.35091	0.6837	-0.01
Mof_H 	H 	0.8964	0.3592	0.6854	0.04
Mof_H 	H 	0.0296	0.3694	0.8049	0.029
Mof_O 	O 	0.616	0.3493	0.551	-0.339
Mof_O 	O 	0.531	0.3728	0.741	-0.101
Mof_O 	O 	0.411	0.6449	0.434	0.091
Mof_O 	O 	0.481	0.6313	0.744	-0.134
Mof_C 	C 	0.595	0.3867	0.413	0.125
Mof_C 	C 	0.6427	0.4534	0.413	-0.22
Mof_H 	H 	0.6905	0.4607	0.5393	0.307
Mof_H 	H 	0.7042	0.4593	0.3001	0.075
Mof_C 	C 	0.5324	0.5001	0.396	0.052
Mof_H 	H 	0.4836	0.4921	0.2704	-0.003
Mof_H 	H 	0.5711	0.5407	0.3839	0.036
Mof_C 	C 	0.4355	0.5001	0.575	-0.047
Mof_H 	H 	0.4848	0.5012	0.7029	0.023
Mof_H 	H 	0.3844	0.4624	0.5728	0.018
Mof_C 	C 	0.3411	0.5546	0.567	-0.175
Mof_H 	H 	0.2765	0.5516	0.6765	0.061
Mof_H 	H 	0.2939	0.5548	0.4372	-0.114
Mof_C 	C 	0.42	0.6144	0.591	0.21
Mof_N 	N 	0.5129	0.21649	0.8108	-0.144
Mof_H 	H 	0.7337	0.1149	0.8796	0.047
Mof_C 	C 	0.658	0.22725	0.8162	0.02
Mof_H 	H 	0.698	0.2093	0.695	0.008
Mof_H 	H 	0.6748	0.271	0.8129	0.03
Mof_C 	C 	0.4909	0.14909	0.8163	0.019
Mof_H 	H 	0.3964	0.1408	0.8146	0.034
Mof_H 	H 	0.5296	0.1306	0.6951	0.015
Mof_O 	O 	0.116	0.1507	0.949	-0.306
Mof_O 	O 	0.031	0.1272	0.759	-0.101
Mof_O 	O 	0.911	0.8551	0.066	0.052
Mof_O 	O 	0.981	0.8687	0.756	-0.131
Mof_C 	C 	0.095	0.1133	0.087	0.145
Mof_C 	C 	0.1427	0.0466	0.087	-0.253
Mof_H 	H 	0.1905	0.0393	0.9607	0.311
Mof_H 	H 	0.2042	0.0407	0.1999	0.067
Mof_C 	C 	0.0324	0.9999	0.104	0.055
Mof_H 	H 	0.9836	0.0079	0.2296	0.009
Mof_H 	H 	0.0711	0.9593	0.1161	0.086
Mof_C 	C 	0.9355	0.9999	0.925	-0.035
Mof_H 	H 	0.9848	0.9988	0.7971	0.02
Mof_H 	H 	0.8844	0.0376	0.9272	0.086
Mof_C 	C 	0.8411	0.9454	0.933	-0.169
Mof_H 	H 	0.7765	0.9484	0.8235	0.04
Mof_H 	H 	0.7939	0.9452	0.0628	-0.113
Mof_C 	C 	0.92	0.8856	0.909	0.187
Mof_N 	N 	0.4871	0.78351	0.8108	-0.144
Mof_H 	H 	0.2663	0.8851	0.8796	0.047
Mof_C 	C 	0.342	0.77275	0.8162	0.02
Mof_H 	H 	0.302	0.7907	0.695	0.008
Mof_H 	H 	0.3252	0.729	0.8129	0.03
Mof_C 	C 	0.5091	0.85091	0.8163	0.019
Mof_H 	H 	0.6036	0.8592	0.8146	0.034
Mof_H 	H 	0.4704	0.8694	0.6951	0.015
Mof_O 	O 	0.884	0.8493	0.949	-0.306
Mof_O 	O 	0.969	0.8728	0.759	-0.101
Mof_O 	O 	0.089	0.1449	0.066	0.052
Mof_O 	O 	0.019	0.1313	0.756	-0.131
Mof_C 	C 	0.905	0.8867	0.087	0.145
Mof_C 	C 	0.8573	0.9534	0.087	-0.253
Mof_H 	H 	0.8095	0.9607	0.9607	0.311
Mof_H 	H 	0.7958	0.9593	0.1999	0.067
Mof_C 	C 	0.9676	0.0001	0.104	0.055
Mof_H 	H 	0.0164	0.9921	0.2296	0.009
Mof_H 	H 	0.9289	0.0407	0.1161	0.086
Mof_C 	C 	0.0645	0.0001	0.925	-0.035
Mof_H 	H 	0.0152	0.0012	0.7971	0.02
Mof_H 	H 	0.1156	0.9624	0.9272	0.086
Mof_C 	C 	0.1589	0.0546	0.933	-0.169
Mof_H 	H 	0.2235	0.0516	0.8235	0.04
Mof_H 	H 	0.2061	0.0548	0.0628	-0.113
Mof_C 	C 	0.08	0.1144	0.909	0.187
Mof_N 	N 	0.0129	0.28351	0.3108	-0.145
Mof_H 	H 	0.2337	0.3851	0.3796	0.023
Mof_C 	C 	0.158	0.27275	0.3162	0.002
Mof_H 	H 	0.198	0.2907	0.195	0.008
Mof_H 	H 	0.1748	0.229	0.3129	0.03
Mof_C 	C 	0.9909	0.35091	0.3163	-0.005
Mof_H 	H 	0.8964	0.3592	0.3146	0.035
Mof_H 	H 	0.0296	0.3694	0.1951	0.018
Mof_O 	O 	0.616	0.3493	0.449	-0.32
Mof_O 	O 	0.531	0.3728	0.259	-0.106
Mof_O 	O 	0.411	0.6449	0.566	0.078
Mof_O 	O 	0.481	0.6313	0.256	-0.134
Mof_C 	C 	0.595	0.3867	0.587	0.142
Mof_C 	C 	0.6427	0.4534	0.587	-0.262
Mof_H 	H 	0.6905	0.4607	0.4607	0.316
Mof_H 	H 	0.7042	0.4593	0.6999	0.05
Mof_C 	C 	0.5324	0.5001	0.604	0.066
Mof_H 	H 	0.4836	0.4921	0.7296	-0.015
Mof_H 	H 	0.5711	0.5407	0.6161	0.007
Mof_C 	C 	0.4355	0.5001	0.425	-0.053
Mof_H 	H 	0.4848	0.5012	0.2971	0.011
Mof_H 	H 	0.3844	0.4624	0.4272	-0.014
Mof_C 	C 	0.3411	0.5546	0.433	-0.162
Mof_H 	H 	0.2765	0.5516	0.3235	0.024
Mof_H 	H 	0.2939	0.5548	0.5628	-0.086
Mof_C 	C 	0.42	0.6144	0.409	0.19
Mof_N 	N 	0.9871	0.71649	0.3108	-0.145
Mof_H 	H 	0.7663	0.6149	0.3796	0.023
Mof_C 	C 	0.842	0.72725	0.3162	0.002
Mof_H 	H 	0.802	0.7093	0.195	0.008
Mof_H 	H 	0.8252	0.771	0.3129	0.03
Mof_C 	C 	0.0091	0.64909	0.3163	-0.005
Mof_H 	H 	0.1036	0.6408	0.3146	0.035
Mof_H 	H 	0.9704	0.6306	0.1951	0.018
Mof_O 	O 	0.384	0.6507	0.449	-0.32
Mof_O 	O 	0.469	0.6272	0.259	-0.106
Mof_O 	O 	0.589	0.3551	0.566	0.078
Mof_O 	O 	0.519	0.3687	0.256	-0.134
Mof_C 	C 	0.405	0.6133	0.587	0.142
Mof_C 	C 	0.3573	0.5466	0.587	-0.262
Mof_H 	H 	0.3095	0.5393	0.4607	0.316
Mof_H 	H 	0.2958	0.5407	0.6999	0.05
Mof_C 	C 	0.4676	0.4999	0.604	0.066
Mof_H 	H 	0.5164	0.5079	0.7296	-0.015
Mof_H 	H 	0.4289	0.4593	0.6161	0.007
Mof_C 	C 	0.5645	0.4999	0.425	-0.053
Mof_H 	H 	0.5152	0.4988	0.2971	0.011
Mof_H 	H 	0.6156	0.5376	0.4272	-0.014
Mof_C 	C 	0.6589	0.4454	0.433	-0.162
Mof_H 	H 	0.7235	0.4484	0.3235	0.024
Mof_H 	H 	0.7061	0.4452	0.5628	-0.086
Mof_C 	C 	0.58	0.3856	0.409	0.19
Mof_N 	N 	0.4871	0.78351	0.1892	-0.148
Mof_H 	H 	0.2663	0.8851	0.1204	0.034
Mof_C 	C 	0.342	0.77275	0.1838	0
Mof_H 	H 	0.302	0.7907	0.305	0.012
Mof_H 	H 	0.3252	0.729	0.1871	0.027
Mof_C 	C 	0.5091	0.85091	0.1837	-0
Mof_H 	H 	0.6036	0.8592	0.1854	0.032
Mof_H 	H 	0.4704	0.8694	0.3049	0.02
Mof_O 	O 	0.884	0.8493	0.051	-0.346
Mof_O 	O 	0.969	0.8728	0.241	-0.103
Mof_O 	O 	0.089	0.1449	0.934	0.115
Mof_O 	O 	0.019	0.1313	0.244	-0.135
Mof_C 	C 	0.905	0.8867	0.913	0.122
Mof_C 	C 	0.8573	0.9534	0.913	-0.227
Mof_H 	H 	0.8095	0.9607	0.0393	0.312
Mof_H 	H 	0.7958	0.9593	0.8001	0.059
Mof_C 	C 	0.9676	0.0001	0.896	0.079
Mof_H 	H 	0.0164	0.9921	0.7704	-0.016
Mof_H 	H 	0.9289	0.0407	0.8839	-0.052
Mof_C 	C 	0.0645	0.0001	0.075	-0.075
Mof_H 	H 	0.0152	0.0012	0.2029	-0
Mof_H 	H 	0.1156	0.9624	0.0728	-0.077
Mof_C 	C 	0.1589	0.0546	0.067	-0.166
Mof_H 	H 	0.2235	0.0516	0.1765	0.044
Mof_H 	H 	0.2061	0.0548	0.9372	-0.088
Mof_C 	C 	0.08	0.1144	0.091	0.21
Mof_N 	N 	0.5129	0.21649	0.1892	-0.148
Mof_H 	H 	0.7337	0.1149	0.1204	0.034
Mof_C 	C 	0.658	0.22725	0.1838	0
Mof_H 	H 	0.698	0.2093	0.305	0.012
Mof_H 	H 	0.6748	0.271	0.1871	0.027
Mof_C 	C 	0.4909	0.14909	0.1837	-0
Mof_H 	H 	0.3964	0.1408	0.1854	0.032
Mof_H 	H 	0.5296	0.1306	0.3049	0.02
Mof_O 	O 	0.116	0.1507	0.051	-0.346
Mof_O 	O 	0.031	0.1272	0.241	-0.103
Mof_O 	O 	0.911	0.8551	0.934	0.115
Mof_O 	O 	0.981	0.8687	0.244	-0.135
Mof_C 	C 	0.095	0.1133	0.913	0.122
Mof_C 	C 	0.1427	0.0466	0.913	-0.227
Mof_H 	H 	0.1905	0.0393	0.0393	0.312
Mof_H 	H 	0.2042	0.0407	0.8001	0.059
Mof_C 	C 	0.0324	0.9999	0.896	0.079
Mof_H 	H 	0.9836	0.0079	0.7704	-0.016
Mof_H 	H 	0.0711	0.9593	0.8839	-0.052
Mof_C 	C 	0.9355	0.9999	0.075	-0.075
Mof_H 	H 	0.9848	0.9988	0.2029	-0
Mof_H 	H 	0.8844	0.0376	0.0728	-0.077
Mof_C 	C 	0.8411	0.9454	0.067	-0.166
Mof_H 	H 	0.7765	0.9484	0.1765	0.044
Mof_H 	H 	0.7939	0.9452	0.9372	-0.088
Mof_C 	C 	0.92	0.8856	0.091	0.21
Mof_Ag	Ag	0.55524	0.72995	0.5	0.668
Mof_N 	N 	0.7794	0.7007	0.5	-0.158
Mof_N 	N 	0.95	0.6215	0.5	-0.105
Mof_C 	C 	0.8061	0.6334	0.5	0.002
Mof_C 	C 	0.0444	0.7435	0.5	-0.005
Mof_H 	H 	0.0282	0.7873	0.5	0.041
Mof_H 	H 	0.1396	0.7372	0.5	0.025
Mof_Ag	Ag	0.44476	0.27005	0.5	0.668
Mof_N 	N 	0.2206	0.2993	0.5	-0.158
Mof_N 	N 	0.05	0.3785	0.5	-0.105
Mof_C 	C 	0.1939	0.3666	0.5	0.002
Mof_C 	C 	0.9556	0.2565	0.5	-0.005
Mof_H 	H 	0.9718	0.2127	0.5	0.041
Mof_H 	H 	0.8604	0.2628	0.5	0.025
Mof_Ag	Ag	0.94476	0.22995	-0	0.631
Mof_N 	N 	0.7206	0.2007	-0	-0.162
Mof_N 	N 	0.55	0.1215	-0	-0.114
Mof_C 	C 	0.6939	0.1334	-0	-0.035
Mof_C 	C 	0.4556	0.2435	-0	-0.013
Mof_H 	H 	0.4718	0.2873	-0	0.036
Mof_H 	H 	0.3604	0.2372	-0	0.02
Mof_Ag	Ag	0.05524	0.77005	-0	0.631
Mof_N 	N 	0.2794	0.7993	-0	-0.162
Mof_N 	N 	0.45	0.8785	-0	-0.114
Mof_C 	C 	0.3061	0.8666	-0	-0.035
Mof_C 	C 	0.5444	0.7565	-0	-0.013
Mof_H 	H 	0.5282	0.7127	-0	0.036
Mof_H 	H 	0.6396	0.7628	-0	0.02
_end
