data_functionalizedCrystal
_audit_creation_method	'EQeq! by Chris Wilmer'
_symmetry_space_group_name_H-M	'P1'
_symmetry_Int_Tables_number	1
_symmetry_cell_setting	triclinic
loop_
_symmetry_equiv_pos_as_xyz
  x,y,z
_cell_length_a	21.6854
_cell_length_b	29.7276
_cell_length_c	34.8286
_cell_angle_alpha	90
_cell_angle_beta	96.342
_cell_angle_gamma	90
loop_
_atom_site_label
_atom_site_type_symbol
_atom_site_fract_x
_atom_site_fract_y
_atom_site_fract_z
_atom_site_charge
Mof_Mo	Mo	0.07166	0.9172	0.03051	1.007
Mof_Mo	Mo	0.98584	0.92903	0.93985	1
Mof_Mo	Mo	0.22927	0.04081	0.98665	1.303
Mof_Mo	Mo	0.14997	0.05207	0.90438	1.305
Mof_Mo	Mo	0.01962	0.98603	0.88904	1.013
Mof_Mo	Mo	0.17295	0.96412	0.04786	1.011
Mof_Mo	Mo	0.30894	0.94157	0.00033	1.033
Mof_Mo	Mo	0.06175	0.83074	0.96494	1.309
Mof_Mo	Mo	0.18108	0.81127	0.92153	1.309
Mof_Mo	Mo	0.30746	0.87758	0.94893	1.036
Mof_Mo	Mo	0.21815	0.89054	0.8562	1.055
Mof_Mo	Mo	0.15478	0.96407	0.84097	1.04
Mof_Zn	Zn	0.06743	0.02877	0.9832	1.199
Mof_Zn	Zn	0.0603	0.86935	0.86955	1.225
Mof_Zn	Zn	0.20399	0.84881	0.01832	1.223
Mof_Zn	Zn	0.28811	0.99119	0.90655	1.222
Mof_O 	O 	0.00928	0.07116	0.00228	-0.715
Mof_O 	O 	0.09197	0.98026	0.02131	-0.765
Mof_O 	O 	0.0182	0.99019	0.94474	-0.769
Mof_O 	O 	0.1425	0.04847	0.96142	-0.798
Mof_O 	O 	0.016	0.92047	0.88942	-0.728
Mof_O 	O 	0.994	0.86128	0.943	-0.647
Mof_O 	O 	0.1537	0.82198	0.97424	-0.783
Mof_O 	O 	0.0928	0.83044	0.91217	-0.781
Mof_O 	O 	0.2341	0.03336	0.92956	-0.783
Mof_O 	O 	0.0618	0.85231	0.01343	-0.655
Mof_O 	O 	0.1987	0.02522	0.03094	-0.673
Mof_O 	O 	0.2612	0.81951	0.94261	-0.648
Mof_O 	O 	0.3134	0.94336	0.9446	-0.725
Mof_O 	O 	0.2749	0.88075	0.99876	-0.728
Mof_O 	O 	0.0665	0.04389	0.89509	-0.671
Mof_O 	O 	0.1289	0.90185	0.848	-0.726
Mof_O 	O 	0.2664	0.94696	0.05023	-0.474
Mof_O 	O 	0.2376	0.95363	0.867	-0.723
Mof_O 	O 	0.3015	0.00835	0.99521	-0.649
Mof_O 	O 	0.301	0.87913	0.88961	-0.478
Mof_O 	O 	0.0601	0.97665	0.83794	-0.473
Mof_O 	O 	0.15954	0.89989	0.03889	-0.723
Mof_O 	O 	0.1694	0.02699	0.85932	-0.648
Mof_O 	O 	0.193	0.82957	0.87259	-0.645
Mof_C 	C 	0.4896	0.6358	0.3001	0.338
Mof_C 	C 	0.4547	0.6622	0.2672	-0.124
Mof_C 	C 	0.4563	0.7075	0.2673	0.03
Mof_H 	H 	0.4783	0.7225	0.2879	0.014
Mof_C 	C 	0.4254	0.7325	0.2371	-0.114
Mof_H 	H 	0.4262	0.7637	0.2384	0.053
Mof_C 	C 	0.394	0.712	0.2056	0.022
Mof_C 	C 	0.3921	0.6663	0.206	-0.11
Mof_H 	H 	0.3706	0.6512	0.1853	0.032
Mof_C 	C 	0.4219	0.6418	0.2367	0.023
Mof_H 	H 	0.4193	0.6106	0.2362	0.007
Mof_C 	C 	0.3626	0.7404	0.1737	0.05
Mof_C 	C 	0.3747	0.7847	0.1726	-0.136
Mof_H 	H 	0.4033	0.7971	0.1915	0.061
Mof_C 	C 	0.3457	0.8127	0.1437	0.045
Mof_H 	H 	0.3551	0.8432	0.1437	0.01
Mof_C 	C 	0.304	0.7956	0.1157	-0.146
Mof_C 	C 	0.2932	0.7507	0.1159	0.047
Mof_H 	H 	0.2663	0.7379	0.0963	-0.006
Mof_C 	C 	0.3223	0.7237	0.1453	-0.139
Mof_H 	H 	0.3135	0.693	0.1452	0.044
Mof_C 	C 	0.2724	0.8271	0.0853	0.355
Mof_O 	O 	0.4967	0.59541	0.29683	-0.332
Mof_O 	O 	0.5094	0.66042	0.32916	-0.49
Mof_O 	O 	0.2375	0.80832	0.05839	-0.501
Mof_O 	O 	0.2816	0.8672	0.08878	-0.34
Mof_C 	C 	0.6181	0.0459	0.6348	0.328
Mof_C 	C 	0.5824	0.0363	0.6684	-0.131
Mof_C 	C 	0.5987	0.0017	0.6934	0.041
Mof_H 	H 	0.6315	0.9829	0.689	0.006
Mof_C 	C 	0.567	0.9944	0.7253	-0.126
Mof_H 	H 	0.5794	0.9711	0.7422	0.058
Mof_C 	C 	0.5179	0.0207	0.7325	0.043
Mof_C 	C 	0.5022	0.0554	0.7073	-0.126
Mof_H 	H 	0.4687	0.0737	0.7113	0.056
Mof_C 	C 	0.5343	0.0639	0.6763	0.041
Mof_H 	H 	0.5235	0.0885	0.6604	0.005
Mof_C 	C 	0.4827	0.0113	0.7659	0.032
Mof_C 	C 	0.479	0.9684	0.7803	-0.112
Mof_H 	H 	0.4996	0.9451	0.7691	0.055
Mof_C 	C 	0.4453	0.9587	0.811	0.024
Mof_H 	H 	0.442	0.9292	0.8195	0.018
Mof_C 	C 	0.4171	0.9927	0.8287	-0.121
Mof_C 	C 	0.4204	0.0351	0.8154	0.032
Mof_H 	H 	0.401	0.0584	0.8273	0.01
Mof_C 	C 	0.4528	0.0439	0.7841	-0.118
Mof_H 	H 	0.4541	0.0733	0.7752	0.055
Mof_C 	C 	0.3805	0.9805	0.8621	0.323
Mof_O 	O 	0.6175	0.0843	0.62169	-0.322
Mof_O 	O 	0.353	0.013	0.87736	-0.484
Mof_O 	O 	0.6475	0.01172	0.62242	-0.479
Mof_O 	O 	0.3794	0.9406	0.8715	-0.325
Mof_Mo	Mo	0.9225	0.07002	0.45573	1.017
Mof_Mo	Mo	0.00845	0.08406	0.54601	1.002
Mof_Mo	Mo	0.97789	0.04146	0.60666	1.016
Mof_Mo	Mo	0.82519	0.01709	0.44754	1.01
Mof_Mo	Mo	0.85336	0.96974	0.60553	1.318
Mof_Mo	Mo	0.92633	0.17198	0.50277	1.295
Mof_Mo	Mo	0.80347	0.19942	0.53982	1.317
Mof_Mo	Mo	0.77443	0.95796	0.5231	1.307
Mof_Mo	Mo	0.68684	0.04881	0.48992	1.028
Mof_Mo	Mo	0.83997	0.07241	0.64873	1.065
Mof_Mo	Mo	0.77169	0.13875	0.61886	1.053
Mof_Mo	Mo	0.68166	0.12503	0.52673	1.028
Mof_Zn	Zn	0.93444	0.97418	0.52336	1.202
Mof_Zn	Zn	0.92808	0.15945	0.60283	1.224
Mof_Zn	Zn	0.78634	0.13614	0.45497	1.226
Mof_Zn	Zn	0.71119	0.02648	0.59029	1.223
Mof_O 	O 	0.90728	0.01068	0.47678	-0.766
Mof_O 	O 	0.83354	0.08222	0.44384	-0.727
Mof_O 	O 	0.99616	0.93048	0.51047	-0.715
Mof_O 	O 	0.9277	0.13775	0.45967	-0.649
Mof_O 	O 	0.98002	0.02263	0.55319	-0.769
Mof_O 	O 	0.977	0.10534	0.59337	-0.726
Mof_O 	O 	0.9957	0.14905	0.52966	-0.65
Mof_O 	O 	0.9358	0.98205	0.6126	-0.667
Mof_O 	O 	0.9341	0.06208	0.65335	-0.48
Mof_O 	O 	0.8043	0.96202	0.47673	-0.675
Mof_O 	O 	0.7309	0.03113	0.44225	-0.474
Mof_O 	O 	0.8308	0.00596	0.64406	-0.648
Mof_O 	O 	0.8615	0.95885	0.54912	-0.797
Mof_O 	O 	0.7678	0.9795	0.57736	-0.779
Mof_O 	O 	0.7165	0.10904	0.47929	-0.725
Mof_O 	O 	0.6802	0.06213	0.54428	-0.726
Mof_O 	O 	0.6998	0.98548	0.50861	-0.65
Mof_O 	O 	0.757	0.07416	0.62144	-0.731
Mof_O 	O 	0.8611	0.13156	0.62921	-0.728
Mof_O 	O 	0.7928	0.19461	0.5909	-0.65
Mof_O 	O 	0.6872	0.13981	0.58486	-0.478
Mof_O 	O 	0.8932	0.18533	0.55386	-0.782
Mof_O 	O 	0.8333	0.17547	0.49167	-0.789
Mof_O 	O 	0.7245	0.18375	0.52141	-0.655
Mof_C 	C 	0.9878	0.1779	0.6736	0.351
Mof_C 	C 	0.0156	0.2073	0.7061	-0.144
Mof_C 	C 	0.0616	0.1907	0.731	0.05
Mof_H 	H 	0.0752	0.1613	0.7282	0
Mof_C 	C 	0.0891	0.2176	0.7609	-0.135
Mof_H 	H 	0.1217	0.2058	0.7775	0.055
Mof_C 	C 	0.0703	0.26	0.7665	0.047
Mof_C 	C 	0.0234	0.2769	0.7413	-0.133
Mof_H 	H 	0.0095	0.3062	0.7445	0.061
Mof_C 	C 	0.996	0.2509	0.7106	0.048
Mof_H 	H 	0.9646	0.263	0.6932	0.003
Mof_C 	C 	0.1021	0.288	0.7981	0.035
Mof_C 	C 	0.1253	0.2674	0.8323	-0.127
Mof_H 	H 	0.1183	0.2369	0.8359	0.046
Mof_C 	C 	0.1591	0.2922	0.8613	0.044
Mof_H 	H 	0.1725	0.2786	0.8848	-0.005
Mof_C 	C 	0.1726	0.336	0.8557	-0.14
Mof_C 	C 	0.1486	0.357	0.8225	0.044
Mof_H 	H 	0.1555	0.3876	0.8192	0.009
Mof_C 	C 	0.1142	0.3327	0.794	-0.126
Mof_H 	H 	0.0988	0.3472	0.7712	0.06
Mof_C 	C 	0.2129	0.361	0.8868	0.351
Mof_O 	O 	0.9882	0.1375	0.67881	-0.337
Mof_O 	O 	0.9677	0.19827	0.64245	-0.491
Mof_O 	O 	0.21	0.402	0.88827	-0.332
Mof_O 	O 	0.2482	0.336	0.90917	-0.499
Mof_Mo	Mo	0.42834	0.4172	0.46949	1.009
Mof_Mo	Mo	0.51416	0.42903	0.56015	1.001
Mof_Mo	Mo	0.27073	0.54081	0.51335	1.303
Mof_Mo	Mo	0.35003	0.55207	0.59562	1.306
Mof_Mo	Mo	0.48038	0.48603	0.61096	1.015
Mof_Mo	Mo	0.32705	0.46412	0.45214	1.012
Mof_Mo	Mo	0.19106	0.44157	0.49967	1.034
Mof_Mo	Mo	0.43825	0.33074	0.53506	1.31
Mof_Mo	Mo	0.31892	0.31127	0.57847	1.31
Mof_Mo	Mo	0.19254	0.37758	0.55107	1.037
Mof_Mo	Mo	0.28185	0.39054	0.6438	1.056
Mof_Mo	Mo	0.34522	0.46407	0.65903	1.041
Mof_Zn	Zn	0.43257	0.52877	0.5168	1.2
Mof_Zn	Zn	0.4397	0.36935	0.63045	1.225
Mof_Zn	Zn	0.29601	0.34881	0.48168	1.223
Mof_Zn	Zn	0.21189	0.49119	0.59345	1.222
Mof_O 	O 	0.49072	0.57116	0.49772	-0.715
Mof_O 	O 	0.40803	0.48026	0.47869	-0.765
Mof_O 	O 	0.4818	0.49019	0.55526	-0.769
Mof_O 	O 	0.3575	0.54847	0.53858	-0.798
Mof_O 	O 	0.484	0.42047	0.61058	-0.728
Mof_O 	O 	0.506	0.36128	0.557	-0.647
Mof_O 	O 	0.3463	0.32198	0.52576	-0.784
Mof_O 	O 	0.4072	0.33044	0.58783	-0.781
Mof_O 	O 	0.2659	0.53336	0.57044	-0.783
Mof_O 	O 	0.4382	0.35231	0.48657	-0.655
Mof_O 	O 	0.3013	0.52522	0.46906	-0.674
Mof_O 	O 	0.2388	0.31951	0.55739	-0.648
Mof_O 	O 	0.1866	0.44336	0.5554	-0.725
Mof_O 	O 	0.2251	0.38075	0.50124	-0.728
Mof_O 	O 	0.4335	0.54389	0.60491	-0.671
Mof_O 	O 	0.3711	0.40185	0.652	-0.726
Mof_O 	O 	0.2336	0.44696	0.44977	-0.474
Mof_O 	O 	0.2624	0.45363	0.633	-0.723
Mof_O 	O 	0.1985	0.50835	0.50479	-0.649
Mof_O 	O 	0.199	0.37913	0.61039	-0.478
Mof_O 	O 	0.4399	0.47665	0.66206	-0.473
Mof_O 	O 	0.34046	0.39989	0.46111	-0.723
Mof_O 	O 	0.3306	0.52699	0.64068	-0.648
Mof_O 	O 	0.307	0.32957	0.62741	-0.645
Mof_C 	C 	0.0104	0.1358	0.1999	0.338
Mof_C 	C 	0.0453	0.1622	0.2328	-0.125
Mof_C 	C 	0.0437	0.2075	0.2327	0.03
Mof_H 	H 	0.0217	0.2225	0.2121	0.014
Mof_C 	C 	0.0746	0.2325	0.2629	-0.114
Mof_H 	H 	0.0738	0.2637	0.2616	0.053
Mof_C 	C 	0.106	0.212	0.2944	0.022
Mof_C 	C 	0.1079	0.1663	0.294	-0.11
Mof_H 	H 	0.1294	0.1512	0.3147	0.032
Mof_C 	C 	0.0781	0.1418	0.2633	0.023
Mof_H 	H 	0.0807	0.1106	0.2638	0.007
Mof_C 	C 	0.1374	0.2404	0.3263	0.05
Mof_C 	C 	0.1253	0.2847	0.3274	-0.136
Mof_H 	H 	0.0967	0.2971	0.3085	0.061
Mof_C 	C 	0.1543	0.3127	0.3563	0.045
Mof_H 	H 	0.1449	0.3432	0.3563	0.01
Mof_C 	C 	0.196	0.2956	0.3843	-0.146
Mof_C 	C 	0.2068	0.2507	0.3841	0.047
Mof_H 	H 	0.2337	0.2379	0.4037	-0.006
Mof_C 	C 	0.1777	0.2237	0.3547	-0.139
Mof_H 	H 	0.1865	0.193	0.3548	0.044
Mof_C 	C 	0.2276	0.3271	0.4147	0.355
Mof_O 	O 	0.0033	0.09541	0.20317	-0.333
Mof_O 	O 	0.9906	0.16042	0.17084	-0.49
Mof_O 	O 	0.2625	0.30832	0.44161	-0.501
Mof_O 	O 	0.2184	0.3672	0.41122	-0.34
Mof_C 	C 	0.8819	0.5459	0.8652	0.328
Mof_C 	C 	0.9176	0.5363	0.8316	-0.132
Mof_C 	C 	0.9013	0.5017	0.8066	0.042
Mof_H 	H 	0.8685	0.4829	0.811	0.006
Mof_C 	C 	0.933	0.4944	0.7747	-0.127
Mof_H 	H 	0.9206	0.4711	0.7578	0.058
Mof_C 	C 	0.9821	0.5207	0.7675	0.044
Mof_C 	C 	0.9978	0.5554	0.7927	-0.126
Mof_H 	H 	0.0313	0.5737	0.7887	0.056
Mof_C 	C 	0.9657	0.5639	0.8237	0.041
Mof_H 	H 	0.9765	0.5885	0.8396	0.005
Mof_C 	C 	0.0173	0.5113	0.7341	0.032
Mof_C 	C 	0.021	0.4684	0.7197	-0.112
Mof_H 	H 	0.0004	0.4451	0.7309	0.055
Mof_C 	C 	0.0547	0.4587	0.689	0.024
Mof_H 	H 	0.058	0.4292	0.6805	0.018
Mof_C 	C 	0.0829	0.4927	0.6713	-0.121
Mof_C 	C 	0.0796	0.5351	0.6846	0.032
Mof_H 	H 	0.099	0.5584	0.6727	0.009
Mof_C 	C 	0.0472	0.5439	0.7159	-0.118
Mof_H 	H 	0.0459	0.5733	0.7248	0.055
Mof_C 	C 	0.1195	0.4805	0.6379	0.323
Mof_O 	O 	0.8825	0.5843	0.87831	-0.322
Mof_O 	O 	0.147	0.513	0.62264	-0.484
Mof_O 	O 	0.8525	0.51172	0.87758	-0.479
Mof_O 	O 	0.1206	0.4406	0.6285	-0.325
Mof_Mo	Mo	0.5775	0.57002	0.04427	1.018
Mof_Mo	Mo	0.49155	0.58406	0.95399	1.002
Mof_Mo	Mo	0.52211	0.54146	0.89334	1.017
Mof_Mo	Mo	0.67481	0.51709	0.05246	1.011
Mof_Mo	Mo	0.64664	0.46974	0.89447	1.318
Mof_Mo	Mo	0.57367	0.67198	0.99723	1.297
Mof_Mo	Mo	0.69653	0.69942	0.96018	1.317
Mof_Mo	Mo	0.72557	0.45796	0.9769	1.307
Mof_Mo	Mo	0.81316	0.54881	0.01008	1.028
Mof_Mo	Mo	0.66003	0.57241	0.85127	1.065
Mof_Mo	Mo	0.72831	0.63875	0.88114	1.053
Mof_Mo	Mo	0.81834	0.62503	0.97327	1.028
Mof_Zn	Zn	0.56556	0.47418	0.97664	1.202
Mof_Zn	Zn	0.57192	0.65945	0.89717	1.224
Mof_Zn	Zn	0.71366	0.63614	0.04503	1.226
Mof_Zn	Zn	0.78881	0.52648	0.90971	1.223
Mof_O 	O 	0.59272	0.51068	0.02322	-0.766
Mof_O 	O 	0.66646	0.58222	0.05616	-0.728
Mof_O 	O 	0.50384	0.43048	0.98953	-0.714
Mof_O 	O 	0.5723	0.63775	0.04033	-0.649
Mof_O 	O 	0.51998	0.52263	0.94681	-0.769
Mof_O 	O 	0.523	0.60534	0.90663	-0.726
Mof_O 	O 	0.5043	0.64905	0.97034	-0.649
Mof_O 	O 	0.5642	0.48205	0.8874	-0.667
Mof_O 	O 	0.5659	0.56208	0.84665	-0.48
Mof_O 	O 	0.6957	0.46202	0.02327	-0.675
Mof_O 	O 	0.7691	0.53113	0.05775	-0.474
Mof_O 	O 	0.6692	0.50596	0.85594	-0.647
Mof_O 	O 	0.6385	0.45885	0.95088	-0.797
Mof_O 	O 	0.7322	0.4795	0.92264	-0.779
Mof_O 	O 	0.7835	0.60904	0.02071	-0.725
Mof_O 	O 	0.8198	0.56213	0.95572	-0.726
Mof_O 	O 	0.8002	0.48548	0.99139	-0.65
Mof_O 	O 	0.743	0.57416	0.87856	-0.731
Mof_O 	O 	0.6389	0.63156	0.87079	-0.728
Mof_O 	O 	0.7072	0.69461	0.9091	-0.65
Mof_O 	O 	0.8128	0.63981	0.91514	-0.478
Mof_O 	O 	0.6068	0.68533	0.94614	-0.782
Mof_O 	O 	0.6667	0.67547	0.00833	-0.79
Mof_O 	O 	0.7755	0.68375	0.97859	-0.655
Mof_C 	C 	0.5122	0.6779	0.8264	0.351
Mof_C 	C 	0.4844	0.7073	0.7939	-0.144
Mof_C 	C 	0.4384	0.6907	0.769	0.05
Mof_H 	H 	0.4248	0.6613	0.7718	0
Mof_C 	C 	0.4109	0.7176	0.7391	-0.136
Mof_H 	H 	0.3783	0.7058	0.7225	0.055
Mof_C 	C 	0.4297	0.76	0.7335	0.047
Mof_C 	C 	0.4766	0.7769	0.7587	-0.133
Mof_H 	H 	0.4905	0.8062	0.7555	0.062
Mof_C 	C 	0.504	0.7509	0.7894	0.049
Mof_H 	H 	0.5354	0.763	0.8068	0.003
Mof_C 	C 	0.3979	0.788	0.7019	0.035
Mof_C 	C 	0.3747	0.7674	0.6677	-0.127
Mof_H 	H 	0.3817	0.7369	0.6641	0.046
Mof_C 	C 	0.3409	0.7922	0.6387	0.044
Mof_H 	H 	0.3275	0.7786	0.6152	-0.005
Mof_C 	C 	0.3274	0.836	0.6443	-0.14
Mof_C 	C 	0.3514	0.857	0.6775	0.044
Mof_H 	H 	0.3445	0.8876	0.6808	0.009
Mof_C 	C 	0.3858	0.8327	0.706	-0.126
Mof_H 	H 	0.4012	0.8472	0.7288	0.06
Mof_C 	C 	0.2871	0.861	0.6132	0.351
Mof_O 	O 	0.5118	0.6375	0.82119	-0.336
Mof_O 	O 	0.5323	0.69827	0.85755	-0.491
Mof_O 	O 	0.29	0.902	0.61173	-0.332
Mof_O 	O 	0.2518	0.836	0.59083	-0.499
Mof_Mo	Mo	0.92834	0.0828	0.96949	1.008
Mof_Mo	Mo	0.01416	0.07097	0.06015	1.001
Mof_Mo	Mo	0.77073	0.95919	0.01335	1.304
Mof_Mo	Mo	0.85003	0.94793	0.09562	1.306
Mof_Mo	Mo	0.98038	0.01397	0.11096	1.014
Mof_Mo	Mo	0.82705	0.03588	0.95214	1.012
Mof_Mo	Mo	0.69106	0.05843	0.99967	1.034
Mof_Mo	Mo	0.93825	0.16926	0.03506	1.31
Mof_Mo	Mo	0.81892	0.18873	0.07847	1.31
Mof_Mo	Mo	0.69254	0.12242	0.05108	1.037
Mof_Mo	Mo	0.78185	0.10946	0.1438	1.056
Mof_Mo	Mo	0.84522	0.03593	0.15903	1.041
Mof_Zn	Zn	0.93257	0.97123	0.0168	1.2
Mof_Zn	Zn	0.9397	0.13065	0.13045	1.225
Mof_Zn	Zn	0.79601	0.15119	0.98168	1.223
Mof_Zn	Zn	0.71189	0.00881	0.09345	1.222
Mof_O 	O 	0.99072	0.92884	0.99772	-0.715
Mof_O 	O 	0.90803	0.01974	0.97869	-0.765
Mof_O 	O 	0.9818	0.00981	0.05526	-0.769
Mof_O 	O 	0.8575	0.95153	0.03858	-0.798
Mof_O 	O 	0.984	0.07953	0.11058	-0.728
Mof_O 	O 	0.006	0.13872	0.057	-0.647
Mof_O 	O 	0.8463	0.17802	0.02576	-0.783
Mof_O 	O 	0.9072	0.16956	0.08783	-0.781
Mof_O 	O 	0.7659	0.96664	0.07044	-0.783
Mof_O 	O 	0.9382	0.14769	0.98657	-0.655
Mof_O 	O 	0.8013	0.97478	0.96906	-0.673
Mof_O 	O 	0.7388	0.18049	0.05739	-0.648
Mof_O 	O 	0.6866	0.05664	0.0554	-0.725
Mof_O 	O 	0.7251	0.11925	0.00124	-0.728
Mof_O 	O 	0.9335	0.95611	0.10491	-0.671
Mof_O 	O 	0.8711	0.09815	0.152	-0.726
Mof_O 	O 	0.7336	0.05304	0.94977	-0.474
Mof_O 	O 	0.7624	0.04637	0.133	-0.723
Mof_O 	O 	0.6985	0.99165	0.00479	-0.649
Mof_O 	O 	0.699	0.12087	0.11039	-0.478
Mof_O 	O 	0.9399	0.02335	0.16206	-0.473
Mof_O 	O 	0.84046	0.10011	0.96111	-0.723
Mof_O 	O 	0.8306	0.97301	0.14068	-0.648
Mof_O 	O 	0.807	0.17043	0.12741	-0.645
Mof_C 	C 	0.5104	0.3642	0.6999	0.338
Mof_C 	C 	0.5453	0.3378	0.7328	-0.124
Mof_C 	C 	0.5437	0.2925	0.7327	0.03
Mof_H 	H 	0.5217	0.2775	0.7121	0.014
Mof_C 	C 	0.5746	0.2675	0.7629	-0.114
Mof_H 	H 	0.5738	0.2363	0.7616	0.053
Mof_C 	C 	0.606	0.288	0.7944	0.022
Mof_C 	C 	0.6079	0.3337	0.794	-0.11
Mof_H 	H 	0.6294	0.3488	0.8147	0.032
Mof_C 	C 	0.5781	0.3582	0.7633	0.023
Mof_H 	H 	0.5807	0.3894	0.7638	0.007
Mof_C 	C 	0.6374	0.2596	0.8263	0.05
Mof_C 	C 	0.6253	0.2153	0.8274	-0.136
Mof_H 	H 	0.5967	0.2029	0.8085	0.061
Mof_C 	C 	0.6543	0.1873	0.8563	0.045
Mof_H 	H 	0.6449	0.1568	0.8563	0.01
Mof_C 	C 	0.696	0.2044	0.8843	-0.146
Mof_C 	C 	0.7068	0.2493	0.8841	0.047
Mof_H 	H 	0.7337	0.2621	0.9037	-0.006
Mof_C 	C 	0.6777	0.2763	0.8547	-0.139
Mof_H 	H 	0.6865	0.307	0.8548	0.044
Mof_C 	C 	0.7276	0.1729	0.9147	0.355
Mof_O 	O 	0.5033	0.40459	0.70317	-0.332
Mof_O 	O 	0.4906	0.33958	0.67084	-0.49
Mof_O 	O 	0.7625	0.19168	0.94161	-0.501
Mof_O 	O 	0.7184	0.1328	0.91122	-0.34
Mof_C 	C 	0.3819	0.9541	0.3652	0.328
Mof_C 	C 	0.4176	0.9637	0.3316	-0.131
Mof_C 	C 	0.4013	0.9983	0.3066	0.041
Mof_H 	H 	0.3685	0.0171	0.311	0.006
Mof_C 	C 	0.433	0.0056	0.2747	-0.126
Mof_H 	H 	0.4206	0.0289	0.2578	0.058
Mof_C 	C 	0.4821	0.9793	0.2675	0.043
Mof_C 	C 	0.4978	0.9446	0.2927	-0.126
Mof_H 	H 	0.5313	0.9263	0.2887	0.056
Mof_C 	C 	0.4657	0.9361	0.3237	0.041
Mof_H 	H 	0.4765	0.9115	0.3396	0.005
Mof_C 	C 	0.5173	0.9887	0.2341	0.032
Mof_C 	C 	0.521	0.0316	0.2197	-0.112
Mof_H 	H 	0.5004	0.0549	0.2309	0.055
Mof_C 	C 	0.5547	0.0413	0.189	0.024
Mof_H 	H 	0.558	0.0708	0.1805	0.018
Mof_C 	C 	0.5829	0.0073	0.1713	-0.121
Mof_C 	C 	0.5796	0.9649	0.1846	0.032
Mof_H 	H 	0.599	0.9416	0.1727	0.01
Mof_C 	C 	0.5472	0.9561	0.2159	-0.118
Mof_H 	H 	0.5459	0.9267	0.2248	0.055
Mof_C 	C 	0.6195	0.0195	0.1379	0.323
Mof_O 	O 	0.3825	0.9157	0.37831	-0.322
Mof_O 	O 	0.647	0.987	0.12264	-0.484
Mof_O 	O 	0.3525	0.98828	0.37758	-0.479
Mof_O 	O 	0.6206	0.0594	0.1285	-0.325
Mof_Mo	Mo	0.0775	0.92998	0.54427	1.017
Mof_Mo	Mo	0.99155	0.91594	0.45399	1.002
Mof_Mo	Mo	0.02211	0.95854	0.39334	1.016
Mof_Mo	Mo	0.17481	0.98291	0.55246	1.01
Mof_Mo	Mo	0.14664	0.03026	0.39447	1.318
Mof_Mo	Mo	0.07367	0.82802	0.49724	1.295
Mof_Mo	Mo	0.19653	0.80058	0.46018	1.317
Mof_Mo	Mo	0.22557	0.04204	0.4769	1.307
Mof_Mo	Mo	0.31316	0.95119	0.51008	1.028
Mof_Mo	Mo	0.16003	0.92759	0.35127	1.065
Mof_Mo	Mo	0.22831	0.86125	0.38114	1.053
Mof_Mo	Mo	0.31834	0.87497	0.47327	1.028
Mof_Zn	Zn	0.06556	0.02582	0.47664	1.202
Mof_Zn	Zn	0.07192	0.84055	0.39717	1.224
Mof_Zn	Zn	0.21366	0.86386	0.54503	1.226
Mof_Zn	Zn	0.28881	0.97352	0.40971	1.223
Mof_O 	O 	0.09272	0.98932	0.52322	-0.766
Mof_O 	O 	0.16646	0.91778	0.55616	-0.727
Mof_O 	O 	0.00384	0.06952	0.48953	-0.715
Mof_O 	O 	0.0723	0.86225	0.54033	-0.649
Mof_O 	O 	0.01998	0.97737	0.44681	-0.769
Mof_O 	O 	0.023	0.89466	0.40663	-0.726
Mof_O 	O 	0.0043	0.85095	0.47034	-0.65
Mof_O 	O 	0.0642	0.01795	0.3874	-0.667
Mof_O 	O 	0.0659	0.93792	0.34665	-0.48
Mof_O 	O 	0.1957	0.03798	0.52327	-0.675
Mof_O 	O 	0.2691	0.96887	0.55775	-0.474
Mof_O 	O 	0.1692	0.99404	0.35594	-0.648
Mof_O 	O 	0.1385	0.04115	0.45088	-0.797
Mof_O 	O 	0.2322	0.0205	0.42264	-0.779
Mof_O 	O 	0.2835	0.89096	0.52071	-0.725
Mof_O 	O 	0.3198	0.93787	0.45572	-0.726
Mof_O 	O 	0.3002	0.01452	0.49139	-0.65
Mof_O 	O 	0.243	0.92584	0.37856	-0.731
Mof_O 	O 	0.1389	0.86844	0.37079	-0.728
Mof_O 	O 	0.2072	0.80539	0.4091	-0.65
Mof_O 	O 	0.3128	0.86019	0.41514	-0.478
Mof_O 	O 	0.1068	0.81467	0.44614	-0.781
Mof_O 	O 	0.1667	0.82453	0.50833	-0.789
Mof_O 	O 	0.2755	0.81625	0.47859	-0.655
Mof_C 	C 	0.0122	0.8221	0.3264	0.351
Mof_C 	C 	0.9844	0.7927	0.2939	-0.144
Mof_C 	C 	0.9384	0.8093	0.269	0.05
Mof_H 	H 	0.9248	0.8387	0.2718	0
Mof_C 	C 	0.9109	0.7824	0.2391	-0.135
Mof_H 	H 	0.8783	0.7942	0.2225	0.055
Mof_C 	C 	0.9297	0.74	0.2335	0.047
Mof_C 	C 	0.9766	0.7231	0.2587	-0.133
Mof_H 	H 	0.9905	0.6938	0.2555	0.061
Mof_C 	C 	0.004	0.7491	0.2894	0.048
Mof_H 	H 	0.0354	0.737	0.3068	0.003
Mof_C 	C 	0.8979	0.712	0.2019	0.035
Mof_C 	C 	0.8747	0.7326	0.1677	-0.127
Mof_H 	H 	0.8817	0.7631	0.1641	0.046
Mof_C 	C 	0.8409	0.7078	0.1387	0.044
Mof_H 	H 	0.8275	0.7214	0.1152	-0.005
Mof_C 	C 	0.8274	0.664	0.1443	-0.14
Mof_C 	C 	0.8514	0.643	0.1775	0.044
Mof_H 	H 	0.8445	0.6124	0.1808	0.009
Mof_C 	C 	0.8858	0.6673	0.206	-0.126
Mof_H 	H 	0.9012	0.6528	0.2288	0.06
Mof_C 	C 	0.7871	0.639	0.1132	0.351
Mof_O 	O 	0.0118	0.8625	0.32119	-0.337
Mof_O 	O 	0.0323	0.80173	0.35755	-0.491
Mof_O 	O 	0.79	0.598	0.11173	-0.332
Mof_O 	O 	0.7518	0.664	0.09083	-0.499
Mof_Mo	Mo	0.57166	0.5828	0.53051	1.009
Mof_Mo	Mo	0.48584	0.57097	0.43985	1.001
Mof_Mo	Mo	0.72927	0.45919	0.48665	1.303
Mof_Mo	Mo	0.64997	0.44793	0.40438	1.306
Mof_Mo	Mo	0.51962	0.51397	0.38904	1.015
Mof_Mo	Mo	0.67295	0.53588	0.54786	1.012
Mof_Mo	Mo	0.80894	0.55843	0.50033	1.034
Mof_Mo	Mo	0.56175	0.66926	0.46494	1.31
Mof_Mo	Mo	0.68108	0.68873	0.42153	1.31
Mof_Mo	Mo	0.80746	0.62242	0.44892	1.037
Mof_Mo	Mo	0.71815	0.60946	0.3562	1.056
Mof_Mo	Mo	0.65478	0.53593	0.34097	1.041
Mof_Zn	Zn	0.56743	0.47123	0.4832	1.2
Mof_Zn	Zn	0.5603	0.63065	0.36955	1.225
Mof_Zn	Zn	0.70399	0.65119	0.51832	1.223
Mof_Zn	Zn	0.78811	0.50881	0.40655	1.222
Mof_O 	O 	0.50928	0.42884	0.50228	-0.715
Mof_O 	O 	0.59197	0.51974	0.52131	-0.765
Mof_O 	O 	0.5182	0.50981	0.44474	-0.769
Mof_O 	O 	0.6425	0.45153	0.46142	-0.798
Mof_O 	O 	0.516	0.57953	0.38942	-0.728
Mof_O 	O 	0.494	0.63872	0.443	-0.647
Mof_O 	O 	0.6537	0.67802	0.47424	-0.784
Mof_O 	O 	0.5928	0.66956	0.41217	-0.781
Mof_O 	O 	0.7341	0.46664	0.42956	-0.783
Mof_O 	O 	0.5618	0.64769	0.51343	-0.655
Mof_O 	O 	0.6987	0.47478	0.53094	-0.674
Mof_O 	O 	0.7612	0.68049	0.44261	-0.648
Mof_O 	O 	0.8134	0.55664	0.4446	-0.725
Mof_O 	O 	0.7749	0.61925	0.49876	-0.728
Mof_O 	O 	0.5665	0.45611	0.39509	-0.671
Mof_O 	O 	0.6289	0.59815	0.348	-0.726
Mof_O 	O 	0.7664	0.55304	0.55023	-0.474
Mof_O 	O 	0.7376	0.54637	0.367	-0.723
Mof_O 	O 	0.8015	0.49165	0.49521	-0.649
Mof_O 	O 	0.801	0.62087	0.38961	-0.478
Mof_O 	O 	0.5601	0.52335	0.33794	-0.473
Mof_O 	O 	0.65954	0.60011	0.53889	-0.723
Mof_O 	O 	0.6694	0.47301	0.35932	-0.648
Mof_O 	O 	0.693	0.67043	0.37259	-0.645
Mof_C 	C 	0.9896	0.8642	0.8001	0.338
Mof_C 	C 	0.9547	0.8378	0.7672	-0.125
Mof_C 	C 	0.9563	0.7925	0.7673	0.03
Mof_H 	H 	0.9783	0.7775	0.7879	0.014
Mof_C 	C 	0.9254	0.7675	0.7371	-0.114
Mof_H 	H 	0.9262	0.7363	0.7384	0.053
Mof_C 	C 	0.894	0.788	0.7056	0.022
Mof_C 	C 	0.8921	0.8337	0.706	-0.11
Mof_H 	H 	0.8706	0.8488	0.6853	0.032
Mof_C 	C 	0.9219	0.8582	0.7367	0.023
Mof_H 	H 	0.9193	0.8894	0.7362	0.007
Mof_C 	C 	0.8626	0.7596	0.6737	0.05
Mof_C 	C 	0.8747	0.7153	0.6726	-0.136
Mof_H 	H 	0.9033	0.7029	0.6915	0.061
Mof_C 	C 	0.8457	0.6873	0.6437	0.045
Mof_H 	H 	0.8551	0.6568	0.6437	0.01
Mof_C 	C 	0.804	0.7044	0.6157	-0.146
Mof_C 	C 	0.7932	0.7493	0.6159	0.047
Mof_H 	H 	0.7663	0.7621	0.5963	-0.006
Mof_C 	C 	0.8223	0.7763	0.6453	-0.139
Mof_H 	H 	0.8135	0.807	0.6452	0.044
Mof_C 	C 	0.7724	0.6729	0.5853	0.355
Mof_O 	O 	0.9967	0.90459	0.79683	-0.333
Mof_O 	O 	0.0094	0.83958	0.82916	-0.49
Mof_O 	O 	0.7375	0.69168	0.55839	-0.501
Mof_O 	O 	0.7816	0.6328	0.58878	-0.34
Mof_C 	C 	0.1181	0.4541	0.1348	0.328
Mof_C 	C 	0.0824	0.4637	0.1684	-0.132
Mof_C 	C 	0.0987	0.4983	0.1934	0.042
Mof_H 	H 	0.1315	0.5171	0.189	0.006
Mof_C 	C 	0.067	0.5056	0.2253	-0.127
Mof_H 	H 	0.0794	0.5289	0.2422	0.058
Mof_C 	C 	0.0179	0.4793	0.2325	0.044
Mof_C 	C 	0.0022	0.4446	0.2073	-0.126
Mof_H 	H 	0.9687	0.4263	0.2113	0.056
Mof_C 	C 	0.0343	0.4361	0.1763	0.041
Mof_H 	H 	0.0235	0.4115	0.1604	0.005
Mof_C 	C 	0.9827	0.4887	0.2659	0.032
Mof_C 	C 	0.979	0.5316	0.2803	-0.112
Mof_H 	H 	0.9996	0.5549	0.2691	0.055
Mof_C 	C 	0.9453	0.5413	0.311	0.024
Mof_H 	H 	0.942	0.5708	0.3195	0.018
Mof_C 	C 	0.9171	0.5073	0.3287	-0.121
Mof_C 	C 	0.9204	0.4649	0.3154	0.032
Mof_H 	H 	0.901	0.4416	0.3273	0.009
Mof_C 	C 	0.9528	0.4561	0.2841	-0.118
Mof_H 	H 	0.9541	0.4267	0.2752	0.055
Mof_C 	C 	0.8805	0.5195	0.3621	0.323
Mof_O 	O 	0.1175	0.4157	0.12169	-0.322
Mof_O 	O 	0.853	0.487	0.37736	-0.484
Mof_O 	O 	0.1475	0.48828	0.12242	-0.479
Mof_O 	O 	0.8794	0.5594	0.3715	-0.325
Mof_Mo	Mo	0.4225	0.42998	0.95573	1.018
Mof_Mo	Mo	0.50845	0.41594	0.04601	1.002
Mof_Mo	Mo	0.47789	0.45854	0.10666	1.017
Mof_Mo	Mo	0.32519	0.48291	0.94754	1.011
Mof_Mo	Mo	0.35336	0.53026	0.10553	1.318
Mof_Mo	Mo	0.42633	0.32802	0.00277	1.297
Mof_Mo	Mo	0.30347	0.30058	0.03982	1.317
Mof_Mo	Mo	0.27443	0.54204	0.0231	1.307
Mof_Mo	Mo	0.18684	0.45119	0.98992	1.028
Mof_Mo	Mo	0.33997	0.42759	0.14873	1.065
Mof_Mo	Mo	0.27169	0.36125	0.11886	1.053
Mof_Mo	Mo	0.18166	0.37497	0.02673	1.028
Mof_Zn	Zn	0.43444	0.52582	0.02336	1.202
Mof_Zn	Zn	0.42808	0.34055	0.10283	1.224
Mof_Zn	Zn	0.28634	0.36386	0.95497	1.226
Mof_Zn	Zn	0.21119	0.47352	0.09029	1.223
Mof_O 	O 	0.40728	0.48932	0.97678	-0.766
Mof_O 	O 	0.33354	0.41778	0.94384	-0.728
Mof_O 	O 	0.49616	0.56952	0.01047	-0.714
Mof_O 	O 	0.4277	0.36225	0.95967	-0.649
Mof_O 	O 	0.48002	0.47737	0.05319	-0.769
Mof_O 	O 	0.477	0.39466	0.09337	-0.726
Mof_O 	O 	0.4957	0.35095	0.02966	-0.649
Mof_O 	O 	0.4358	0.51795	0.1126	-0.667
Mof_O 	O 	0.4341	0.43792	0.15335	-0.48
Mof_O 	O 	0.3043	0.53798	0.97673	-0.675
Mof_O 	O 	0.2309	0.46887	0.94225	-0.474
Mof_O 	O 	0.3308	0.49404	0.14406	-0.647
Mof_O 	O 	0.3615	0.54115	0.04912	-0.797
Mof_O 	O 	0.2678	0.5205	0.07736	-0.779
Mof_O 	O 	0.2165	0.39096	0.97929	-0.725
Mof_O 	O 	0.1802	0.43787	0.04428	-0.726
Mof_O 	O 	0.1998	0.51452	0.00861	-0.65
Mof_O 	O 	0.257	0.42584	0.12144	-0.731
Mof_O 	O 	0.3611	0.36844	0.12921	-0.728
Mof_O 	O 	0.2928	0.30539	0.0909	-0.65
Mof_O 	O 	0.1872	0.36019	0.08486	-0.478
Mof_O 	O 	0.3932	0.31467	0.05386	-0.782
Mof_O 	O 	0.3333	0.32453	0.99167	-0.79
Mof_O 	O 	0.2245	0.31625	0.02141	-0.655
Mof_C 	C 	0.4878	0.3221	0.1736	0.351
Mof_C 	C 	0.5156	0.2927	0.2061	-0.144
Mof_C 	C 	0.5616	0.3093	0.231	0.05
Mof_H 	H 	0.5752	0.3387	0.2282	0
Mof_C 	C 	0.5891	0.2824	0.2609	-0.136
Mof_H 	H 	0.6217	0.2942	0.2775	0.055
Mof_C 	C 	0.5703	0.24	0.2665	0.047
Mof_C 	C 	0.5234	0.2231	0.2413	-0.133
Mof_H 	H 	0.5095	0.1938	0.2445	0.062
Mof_C 	C 	0.496	0.2491	0.2106	0.049
Mof_H 	H 	0.4646	0.237	0.1932	0.003
Mof_C 	C 	0.6021	0.212	0.2981	0.035
Mof_C 	C 	0.6253	0.2326	0.3323	-0.127
Mof_H 	H 	0.6183	0.2631	0.3359	0.046
Mof_C 	C 	0.6591	0.2078	0.3613	0.044
Mof_H 	H 	0.6725	0.2214	0.3848	-0.005
Mof_C 	C 	0.6726	0.164	0.3557	-0.14
Mof_C 	C 	0.6486	0.143	0.3225	0.044
Mof_H 	H 	0.6555	0.1124	0.3192	0.009
Mof_C 	C 	0.6142	0.1673	0.294	-0.126
Mof_H 	H 	0.5988	0.1528	0.2712	0.06
Mof_C 	C 	0.7129	0.139	0.3868	0.351
Mof_O 	O 	0.4882	0.3625	0.17881	-0.336
Mof_O 	O 	0.4677	0.30173	0.14245	-0.491
Mof_O 	O 	0.71	0.098	0.38827	-0.332
Mof_O 	O 	0.7482	0.164	0.40917	-0.499
_end
