# CIF file generated by openbabel 3.1.0, see https://openbabel.org
data_I
_chemical_name_common 'image0'
_cell_length_a 20.812
_cell_length_b 6.6495
_cell_length_c 20.865
_cell_angle_alpha 90
_cell_angle_beta 90
_cell_angle_gamma 90
_space_group_name_H-M_alt 'P 1'
_space_group_name_Hall 'P 1'
loop_
    _symmetry_equiv_pos_as_xyz
    x,y,z
loop_
    _atom_site_label
    _atom_site_type_symbol
    _atom_site_fract_x
    _atom_site_fract_y
    _atom_site_fract_z
    _atom_site_occupancy
    Ba1      Ba       0.13996    0.39394    0.11495    1.000
    O1       O        0.09872    0.24350    0.33854    1.000
    O2       O        0.13074    0.26270    0.23789    1.000
    O3       O        0.36610    0.25660    0.48943    1.000
    O4       O        0.26650    0.16800    0.51095    1.000
    O5       O        0.35963    0.25180    0.18230    1.000
    O6       O        0.43290    0.28790    0.25900    1.000
    O7       O        0.05530    0.04920    0.12580    1.000
    O8       O        0.22157    0.03430    0.12414    1.000
    O9       O        0.01660    0.49480    0.16750    1.000
    C1       C        0.14310    0.25220    0.29710    1.000
    C2       C        0.21150    0.25000    0.31820    1.000
    C3       C        0.22820    0.23930    0.38310    1.000
    H1       H        0.19600    0.23360    0.41400    1.000
    C4       C        0.29240    0.23700    0.40220    1.000
    C5       C        0.34010    0.24800    0.35630    1.000
    H2       H        0.38300    0.25100    0.36870    1.000
    C6       C        0.32430    0.25460    0.29090    1.000
    C7       C        0.26060    0.25400    0.27270    1.000
    H3       H        0.25020    0.25620    0.22940    1.000
    C8       C        0.30870    0.22040    0.47200    1.000
    C9       C        0.37590    0.26540    0.24050    1.000
    Ba2      Ba       0.36004    0.10606    0.61495    1.000
    O10      O        0.40128    0.25650    0.83854    1.000
    O11      O        0.36926    0.23730    0.73789    1.000
    O12      O        0.13390    0.24340    0.98943    1.000
    O13      O        0.23350    0.33200    0.01095    1.000
    O14      O        0.14037    0.24820    0.68230    1.000
    O15      O        0.06710    0.21210    0.75900    1.000
    O16      O        0.44470    0.45080    0.62580    1.000
    O17      O        0.27843    0.46570    0.62414    1.000
    O18      O        0.48340    0.00520    0.66750    1.000
    C10      C        0.35690    0.24780    0.79710    1.000
    C11      C        0.28850    0.25000    0.81820    1.000
    C12      C        0.27180    0.26070    0.88310    1.000
    H4       H        0.30400    0.26640    0.91400    1.000
    C13      C        0.20760    0.26300    0.90220    1.000
    C14      C        0.15990    0.25200    0.85630    1.000
    H5       H        0.11700    0.24900    0.86870    1.000
    C15      C        0.17570    0.24540    0.79090    1.000
    C16      C        0.23940    0.24600    0.77270    1.000
    H6       H        0.24980    0.24380    0.72940    1.000
    C17      C        0.19130    0.27960    0.97200    1.000
    C18      C        0.12410    0.23460    0.74050    1.000
    Ba3      Ba       0.86004    0.39394    0.38505    1.000
    O19      O        0.90128    0.24350    0.16146    1.000
    O20      O        0.86926    0.26270    0.26211    1.000
    O21      O        0.63390    0.25660    0.01057    1.000
    O22      O        0.73350    0.16800    0.98905    1.000
    O23      O        0.64037    0.25180    0.31770    1.000
    O24      O        0.56710    0.28790    0.24100    1.000
    O25      O        0.94470    0.04920    0.37420    1.000
    O26      O        0.77843    0.03430    0.37586    1.000
    O27      O        0.98340    0.49480    0.33250    1.000
    C19      C        0.85690    0.25220    0.20290    1.000
    C20      C        0.78850    0.25000    0.18180    1.000
    C21      C        0.77180    0.23930    0.11690    1.000
    H7       H        0.80400    0.23360    0.08600    1.000
    C22      C        0.70760    0.23700    0.09780    1.000
    C23      C        0.65990    0.24800    0.14370    1.000
    H8       H        0.61700    0.25100    0.13130    1.000
    C24      C        0.67570    0.25460    0.20910    1.000
    C25      C        0.73940    0.25400    0.22730    1.000
    H9       H        0.74980    0.25620    0.27060    1.000
    C26      C        0.69130    0.22040    0.02800    1.000
    C27      C        0.62410    0.26540    0.25950    1.000
    Ba4      Ba       0.63996    0.10606    0.88505    1.000
    O28      O        0.59872    0.25650    0.66146    1.000
    O29      O        0.63074    0.23730    0.76211    1.000
    O30      O        0.86610    0.24340    0.51057    1.000
    O31      O        0.76650    0.33200    0.48905    1.000
    O32      O        0.85963    0.24820    0.81770    1.000
    O33      O        0.93290    0.21210    0.74100    1.000
    O34      O        0.55530    0.45080    0.87420    1.000
    O35      O        0.72157    0.46570    0.87586    1.000
    O36      O        0.51660    0.00520    0.83250    1.000
    C28      C        0.64310    0.24780    0.70290    1.000
    C29      C        0.71150    0.25000    0.68180    1.000
    C30      C        0.72820    0.26070    0.61690    1.000
    H10      H        0.69600    0.26640    0.58600    1.000
    C31      C        0.79240    0.26300    0.59780    1.000
    C32      C        0.84010    0.25200    0.64370    1.000
    H11      H        0.88300    0.24900    0.63130    1.000
    C33      C        0.82430    0.24540    0.70910    1.000
    C34      C        0.76060    0.24600    0.72730    1.000
    H12      H        0.75020    0.24380    0.77060    1.000
    C35      C        0.80870    0.27960    0.52800    1.000
    C36      C        0.87590    0.23460    0.75950    1.000
    Ba5      Ba       0.86004    0.60606    0.88505    1.000
    O37      O        0.90128    0.75650    0.66146    1.000
    O38      O        0.86926    0.73730    0.76211    1.000
    O39      O        0.63390    0.74340    0.51057    1.000
    O40      O        0.73350    0.83200    0.48905    1.000
    O41      O        0.64037    0.74820    0.81770    1.000
    O42      O        0.56710    0.71210    0.74100    1.000
    O43      O        0.94470    0.95080    0.87420    1.000
    O44      O        0.77843    0.96570    0.87586    1.000
    O45      O        0.98340    0.50520    0.83250    1.000
    C37      C        0.85690    0.74780    0.70290    1.000
    C38      C        0.78850    0.75000    0.68180    1.000
    C39      C        0.77180    0.76070    0.61690    1.000
    H13      H        0.80400    0.76640    0.58600    1.000
    C40      C        0.70760    0.76300    0.59780    1.000
    C41      C        0.65990    0.75200    0.64370    1.000
    H14      H        0.61700    0.74900    0.63130    1.000
    C42      C        0.67570    0.74540    0.70910    1.000
    C43      C        0.73940    0.74600    0.72730    1.000
    H15      H        0.74980    0.74380    0.77060    1.000
    C44      C        0.69130    0.77960    0.52800    1.000
    C45      C        0.62410    0.73460    0.75950    1.000
    Ba6      Ba       0.63996    0.89394    0.38505    1.000
    O46      O        0.59872    0.74350    0.16146    1.000
    O47      O        0.63074    0.76270    0.26211    1.000
    O48      O        0.86610    0.75660    0.01057    1.000
    O49      O        0.76650    0.66800    0.98905    1.000
    O50      O        0.85963    0.75180    0.31770    1.000
    O51      O        0.93290    0.78790    0.24100    1.000
    O52      O        0.55530    0.54920    0.37420    1.000
    O53      O        0.72157    0.53430    0.37586    1.000
    O54      O        0.51660    0.99480    0.33250    1.000
    C46      C        0.64310    0.75220    0.20290    1.000
    C47      C        0.71150    0.75000    0.18180    1.000
    C48      C        0.72820    0.73930    0.11690    1.000
    H16      H        0.69600    0.73360    0.08600    1.000
    C49      C        0.79240    0.73700    0.09780    1.000
    C50      C        0.84010    0.74800    0.14370    1.000
    H17      H        0.88300    0.75100    0.13130    1.000
    C51      C        0.82430    0.75460    0.20910    1.000
    C52      C        0.76060    0.75400    0.22730    1.000
    H18      H        0.75020    0.75620    0.27060    1.000
    C53      C        0.80870    0.72040    0.02800    1.000
    C54      C        0.87590    0.76540    0.25950    1.000
    Ba7      Ba       0.13996    0.60606    0.61495    1.000
    O55      O        0.09872    0.75650    0.83854    1.000
    O56      O        0.13074    0.73730    0.73789    1.000
    O57      O        0.36610    0.74340    0.98943    1.000
    O58      O        0.26650    0.83200    0.01095    1.000
    O59      O        0.35963    0.74820    0.68230    1.000
    O60      O        0.43290    0.71210    0.75900    1.000
    O61      O        0.05530    0.95080    0.62580    1.000
    O62      O        0.22157    0.96570    0.62414    1.000
    O63      O        0.01660    0.50520    0.66750    1.000
    C55      C        0.14310    0.74780    0.79710    1.000
    C56      C        0.21150    0.75000    0.81820    1.000
    C57      C        0.22820    0.76070    0.88310    1.000
    H19      H        0.19600    0.76640    0.91400    1.000
    C58      C        0.29240    0.76300    0.90220    1.000
    C59      C        0.34010    0.75200    0.85630    1.000
    H20      H        0.38300    0.74900    0.86870    1.000
    C60      C        0.32430    0.74540    0.79090    1.000
    C61      C        0.26060    0.74600    0.77270    1.000
    H21      H        0.25020    0.74380    0.72940    1.000
    C62      C        0.30870    0.77960    0.97200    1.000
    C63      C        0.37590    0.73460    0.74050    1.000
    Ba8      Ba       0.36004    0.89394    0.11495    1.000
    O64      O        0.40128    0.74350    0.33854    1.000
    O65      O        0.36926    0.76270    0.23789    1.000
    O66      O        0.13390    0.75660    0.48943    1.000
    O67      O        0.23350    0.66800    0.51095    1.000
    O68      O        0.14037    0.75180    0.18230    1.000
    O69      O        0.06710    0.78790    0.25900    1.000
    O70      O        0.44470    0.54920    0.12580    1.000
    O71      O        0.27843    0.53430    0.12414    1.000
    O72      O        0.48340    0.99480    0.16750    1.000
    C64      C        0.35690    0.75220    0.29710    1.000
    C65      C        0.28850    0.75000    0.31820    1.000
    C66      C        0.27180    0.73930    0.38310    1.000
    H22      H        0.30400    0.73360    0.41400    1.000
    C67      C        0.20760    0.73700    0.40220    1.000
    C68      C        0.15990    0.74800    0.35630    1.000
    H23      H        0.11700    0.75100    0.36870    1.000
    C69      C        0.17570    0.75460    0.29090    1.000
    C70      C        0.23940    0.75400    0.27270    1.000
    H24      H        0.24980    0.75620    0.22940    1.000
    C71      C        0.19130    0.72040    0.47200    1.000
    C72      C        0.12410    0.76540    0.24050    1.000
    Ba9      Ba       0.00000    0.13785    0.25000    1.000
    Ba10     Ba       0.50000    0.36215    0.75000    1.000
    Ba11     Ba       0.00000    0.86215    0.75000    1.000
    Ba12     Ba       0.50000    0.63785    0.25000    1.000
