# CIF file generated by openbabel 3.1.0, see https://openbabel.org
data_I
_chemical_name_common 'image0'
_cell_length_a 14.4681
_cell_length_b 17.8162
_cell_length_c 6.8047
_cell_angle_alpha 90
_cell_angle_beta 90.868
_cell_angle_gamma 90
_space_group_name_H-M_alt 'P 1'
_space_group_name_Hall 'P 1'
loop_
    _symmetry_equiv_pos_as_xyz
    x,y,z
loop_
    _atom_site_label
    _atom_site_type_symbol
    _atom_site_fract_x
    _atom_site_fract_y
    _atom_site_fract_z
    _atom_site_occupancy
    C1       C        0.25329    0.69968    0.31420    1.000
    C2       C        0.18640    0.64628    0.26110    1.000
    H1       H        0.20020    0.59540    0.26930    1.000
    C3       C        0.09904    0.66949    0.19580    1.000
    C4       C        0.07826    0.74507    0.18020    1.000
    H2       H        0.02040    0.76030    0.13440    1.000
    C5       C        0.14436    0.79799    0.23340    1.000
    C6       C        0.23090    0.77512    0.30110    1.000
    H3       H        0.27450    0.81100    0.33810    1.000
    C7       C        0.02712    0.61299    0.14440    1.000
    C8       C        0.12040    0.87984    0.22450    1.000
    C9       C        0.36040    0.60310    0.43850    1.000
    H4       H        0.36250    0.57150    0.32240    1.000
    H5       H        0.31110    0.58470    0.52080    1.000
    C10      C        0.45090    0.59740    0.54910    1.000
    C11      C        0.53320    0.60580    0.45470    1.000
    H6       H        0.53280    0.61790    0.32170    1.000
    C12      C        0.61670    0.59690    0.55340    1.000
    H7       H        0.67170    0.60000    0.48470    1.000
    C13      C        0.61900    0.58330    0.75200    1.000
    C14      C        0.53650    0.57760    0.84730    1.000
    H8       H        0.53660    0.56930    0.98230    1.000
    C15      C        0.45310    0.58400    0.74650    1.000
    H9       H        0.39810    0.57910    0.81400    1.000
    C16      C        0.70870    0.57047    0.86000    1.000
    Cd1      Cd       0.13579    0.03195    0.44281    1.000
    N1       N        0.34058    0.67842    0.38080    1.000
    H10      H        0.38380    0.71150    0.38740    1.000
    O1       O        0.17337    0.92524    0.31270    1.000
    O2       O        0.04744    0.89685    0.13340    1.000
    O3       O        0.95233    0.63451    0.06690    1.000
    O4       O        0.04087    0.54314    0.18100    1.000
    O5       O        0.77977    0.55182    0.76730    1.000
    O6       O        0.71111    0.57481    0.04270    1.000
    C17      C        0.41800    0.72400    0.43300    1.000
    H11      H        0.39820    0.76290    0.52230    1.000
    H12      H        0.44080    0.74810    0.31530    1.000
    C18      C        0.49290    0.68030    0.52600    1.000
    C19      C        0.56500    0.64800    0.42100    1.000
    H13      H        0.56490    0.65140    0.28480    1.000
    C20      C        0.63600    0.61100    0.52100    1.000
    H14      H        0.68360    0.58950    0.45070    1.000
    C21      C        0.63510    0.60600    0.72400    1.000
    C22      C        0.56340    0.63830    0.82900    1.000
    H15      H        0.56300    0.63500    0.96520    1.000
    C23      C        0.49230    0.67540    0.72900    1.000
    H16      H        0.44430    0.69690    0.79930    1.000
    H17      H        0.34310    0.63490    0.43590    1.000
    C24      C        0.74671    0.19968    0.18580    1.000
    C25      C        0.81360    0.14628    0.23890    1.000
    H18      H        0.79980    0.09540    0.23070    1.000
    C26      C        0.90096    0.16949    0.30420    1.000
    C27      C        0.92174    0.24507    0.31980    1.000
    H19      H        0.97960    0.26030    0.36560    1.000
    C28      C        0.85564    0.29799    0.26660    1.000
    C29      C        0.76910    0.27512    0.19890    1.000
    H20      H        0.72550    0.31100    0.16190    1.000
    C30      C        0.97288    0.11299    0.35560    1.000
    C31      C        0.87960    0.37984    0.27550    1.000
    C32      C        0.63960    0.10310    0.06150    1.000
    H21      H        0.63750    0.07150    0.17760    1.000
    H22      H        0.68890    0.08470    0.97920    1.000
    C33      C        0.54910    0.09740    0.95090    1.000
    C34      C        0.46680    0.10580    0.04530    1.000
    H23      H        0.46720    0.11790    0.17830    1.000
    C35      C        0.38330    0.09690    0.94660    1.000
    H24      H        0.32830    0.10000    0.01530    1.000
    C36      C        0.38100    0.08330    0.74800    1.000
    C37      C        0.46350    0.07760    0.65270    1.000
    H25      H        0.46340    0.06930    0.51770    1.000
    C38      C        0.54690    0.08400    0.75350    1.000
    H26      H        0.60190    0.07910    0.68600    1.000
    C39      C        0.29130    0.07047    0.64000    1.000
    Cd2      Cd       0.86421    0.53195    0.05719    1.000
    N2       N        0.65942    0.17842    0.11920    1.000
    H27      H        0.61620    0.21150    0.11260    1.000
    O7       O        0.82663    0.42524    0.18730    1.000
    O8       O        0.95256    0.39685    0.36660    1.000
    O9       O        0.04767    0.13451    0.43310    1.000
    O10      O        0.95913    0.04314    0.31900    1.000
    O11      O        0.22023    0.05182    0.73270    1.000
    O12      O        0.28889    0.07481    0.45730    1.000
    C40      C        0.58200    0.22400    0.06700    1.000
    H28      H        0.60180    0.26290    0.97770    1.000
    H29      H        0.55920    0.24810    0.18470    1.000
    C41      C        0.50710    0.18030    0.97400    1.000
    C42      C        0.43500    0.14800    0.07900    1.000
    H30      H        0.43510    0.15140    0.21520    1.000
    C43      C        0.36400    0.11100    0.97900    1.000
    H31      H        0.31640    0.08950    0.04930    1.000
    C44      C        0.36490    0.10600    0.77600    1.000
    C45      C        0.43660    0.13830    0.67100    1.000
    H32      H        0.43700    0.13500    0.53480    1.000
    C46      C        0.50770    0.17540    0.77100    1.000
    H33      H        0.55570    0.19690    0.70070    1.000
    H34      H        0.65690    0.13490    0.06410    1.000
    C47      C        0.74671    0.30032    0.68580    1.000
    C48      C        0.81360    0.35372    0.73890    1.000
    H35      H        0.79980    0.40460    0.73070    1.000
    C49      C        0.90096    0.33051    0.80420    1.000
    C50      C        0.92174    0.25493    0.81980    1.000
    H36      H        0.97960    0.23970    0.86560    1.000
    C51      C        0.85564    0.20201    0.76660    1.000
    C52      C        0.76910    0.22488    0.69890    1.000
    H37      H        0.72550    0.18900    0.66190    1.000
    C53      C        0.97288    0.38701    0.85560    1.000
    C54      C        0.87960    0.12016    0.77550    1.000
    C55      C        0.63960    0.39690    0.56150    1.000
    H38      H        0.63750    0.42850    0.67760    1.000
    H39      H        0.68890    0.41530    0.47920    1.000
    C56      C        0.54910    0.40260    0.45090    1.000
    C57      C        0.46680    0.39420    0.54530    1.000
    H40      H        0.46720    0.38210    0.67830    1.000
    C58      C        0.38330    0.40310    0.44660    1.000
    H41      H        0.32830    0.40000    0.51530    1.000
    C59      C        0.38100    0.41670    0.24800    1.000
    C60      C        0.46350    0.42240    0.15270    1.000
    H42      H        0.46340    0.43070    0.01770    1.000
    C61      C        0.54690    0.41600    0.25350    1.000
    H43      H        0.60190    0.42090    0.18600    1.000
    C62      C        0.29130    0.42953    0.14000    1.000
    Cd3      Cd       0.86421    0.96805    0.55719    1.000
    N3       N        0.65942    0.32158    0.61920    1.000
    H44      H        0.61620    0.28850    0.61260    1.000
    O13      O        0.82663    0.07476    0.68730    1.000
    O14      O        0.95256    0.10315    0.86660    1.000
    O15      O        0.04767    0.36549    0.93310    1.000
    O16      O        0.95913    0.45686    0.81900    1.000
    O17      O        0.22023    0.44818    0.23270    1.000
    O18      O        0.28889    0.42519    0.95730    1.000
    C63      C        0.58200    0.27600    0.56700    1.000
    H45      H        0.60180    0.23710    0.47770    1.000
    H46      H        0.55920    0.25190    0.68470    1.000
    C64      C        0.50710    0.31970    0.47400    1.000
    C65      C        0.43500    0.35200    0.57900    1.000
    H47      H        0.43510    0.34860    0.71520    1.000
    C66      C        0.36400    0.38900    0.47900    1.000
    H48      H        0.31640    0.41050    0.54930    1.000
    C67      C        0.36490    0.39400    0.27600    1.000
    C68      C        0.43660    0.36170    0.17100    1.000
    H49      H        0.43700    0.36500    0.03480    1.000
    C69      C        0.50770    0.32460    0.27100    1.000
    H50      H        0.55570    0.30310    0.20070    1.000
    H51      H        0.65690    0.36510    0.56410    1.000
    C70      C        0.25329    0.80032    0.81420    1.000
    C71      C        0.18640    0.85372    0.76110    1.000
    H52      H        0.20020    0.90460    0.76930    1.000
    C72      C        0.09904    0.83051    0.69580    1.000
    C73      C        0.07826    0.75493    0.68020    1.000
    H53      H        0.02040    0.73970    0.63440    1.000
    C74      C        0.14436    0.70201    0.73340    1.000
    C75      C        0.23090    0.72488    0.80110    1.000
    H54      H        0.27450    0.68900    0.83810    1.000
    C76      C        0.02712    0.88701    0.64440    1.000
    C77      C        0.12040    0.62016    0.72450    1.000
    C78      C        0.36040    0.89690    0.93850    1.000
    H55      H        0.36250    0.92850    0.82240    1.000
    H56      H        0.31110    0.91530    0.02080    1.000
    C79      C        0.45090    0.90260    0.04910    1.000
    C80      C        0.53320    0.89420    0.95470    1.000
    H57      H        0.53280    0.88210    0.82170    1.000
    C81      C        0.61670    0.90310    0.05340    1.000
    H58      H        0.67170    0.90000    0.98470    1.000
    C82      C        0.61900    0.91670    0.25200    1.000
    C83      C        0.53650    0.92240    0.34730    1.000
    H59      H        0.53660    0.93070    0.48230    1.000
    C84      C        0.45310    0.91600    0.24650    1.000
    H60      H        0.39810    0.92090    0.31400    1.000
    C85      C        0.70870    0.92953    0.36000    1.000
    Cd4      Cd       0.13579    0.46805    0.94281    1.000
    N4       N        0.34058    0.82158    0.88080    1.000
    H61      H        0.38380    0.78850    0.88740    1.000
    O19      O        0.17337    0.57476    0.81270    1.000
    O20      O        0.04744    0.60315    0.63340    1.000
    O21      O        0.95233    0.86549    0.56690    1.000
    O22      O        0.04087    0.95686    0.68100    1.000
    O23      O        0.77977    0.94818    0.26730    1.000
    O24      O        0.71111    0.92519    0.54270    1.000
    C86      C        0.41800    0.77600    0.93300    1.000
    H62      H        0.39820    0.73710    0.02230    1.000
    H63      H        0.44080    0.75190    0.81530    1.000
    C87      C        0.49290    0.81970    0.02600    1.000
    C88      C        0.56500    0.85200    0.92100    1.000
    H64      H        0.56490    0.84860    0.78480    1.000
    C89      C        0.63600    0.88900    0.02100    1.000
    H65      H        0.68360    0.91050    0.95070    1.000
    C90      C        0.63510    0.89400    0.22400    1.000
    C91      C        0.56340    0.86170    0.32900    1.000
    H66      H        0.56300    0.86500    0.46520    1.000
    C92      C        0.49230    0.82460    0.22900    1.000
    H67      H        0.44430    0.80310    0.29930    1.000
    H68      H        0.34310    0.86510    0.93590    1.000
    Cd5      Cd       0.00000    0.00000    0.00000    1.000
    Cd6      Cd       0.00000    0.50000    0.50000    1.000
