# CIF file generated by openbabel 3.1.0, see https://openbabel.org
data_I
_chemical_name_common 'image0'
_cell_length_a 24.601
_cell_length_b 16.546
_cell_length_c 65.775
_cell_angle_alpha 90
_cell_angle_beta 90
_cell_angle_gamma 90
_space_group_name_H-M_alt 'P 1'
_space_group_name_Hall 'P 1'
loop_
    _symmetry_equiv_pos_as_xyz
    x,y,z
loop_
    _atom_site_label
    _atom_site_type_symbol
    _atom_site_fract_x
    _atom_site_fract_y
    _atom_site_fract_z
    _atom_site_occupancy
    C1       C        0.51365    0.15210    0.98190    1.000
    H1       H        0.52080    0.12460    0.96950    1.000
    C2       C        0.46271    0.18360    0.98743    1.000
    H2       H        0.43010    0.18050    0.97980    1.000
    C3       C        0.46927    0.22040    0.00638    1.000
    H3       H        0.44210    0.24760    0.01400    1.000
    C4       C        0.52397    0.20910    0.01185    1.000
    C5       C        0.55170    0.23820    0.02907    1.000
    C6       C        0.60724    0.23710    0.03215    1.000
    C7       C        0.63634    0.27520    0.04797    1.000
    H4       H        0.62130    0.30260    0.05930    1.000
    C8       C        0.68980    0.26510    0.04386    1.000
    H5       H        0.71940    0.28520    0.05170    1.000
    C9       C        0.69366    0.21890    0.02562    1.000
    H6       H        0.72680    0.20340    0.01930    1.000
    C10      C        0.51564    0.27310    0.04540    1.000
    C11      C        0.49080    0.34550    0.04334    1.000
    H7       H        0.49860    0.37850    0.03190    1.000
    C12      C        0.45340    0.37200    0.05807    1.000
    H8       H        0.43610    0.42270    0.05620    1.000
    C13      C        0.46510    0.25660    0.07689    1.000
    C14      C        0.45090    0.20650    0.09466    1.000
    H9       H        0.42250    0.22250    0.10360    1.000
    C15      C        0.48190    0.12990    0.09841    1.000
    H10      H        0.47640    0.09930    0.11050    1.000
    C16      C        0.51590    0.10680    0.08502    1.000
    H11      H        0.53310    0.05610    0.08700    1.000
    C17      C        0.52940    0.15020    0.06789    1.000
    H12      H        0.55620    0.12860    0.05900    1.000
    C18      C        0.50430    0.22900    0.06259    1.000
    C19      C        0.40343    0.21770    0.22863    1.000
    H13      H        0.40710    0.19460    0.24180    1.000
    C20      C        0.41000    0.17250    0.21031    1.000
    H14      H        0.41900    0.11690    0.20890    1.000
    C21      C        0.40017    0.22820    0.19508    1.000
    H15      H        0.40140    0.21770    0.18090    1.000
    C22      C        0.38813    0.30210    0.20401    1.000
    C23      C        0.32710    0.36720    0.16120    1.000
    H16      H        0.29350    0.36020    0.16810    1.000
    C24      C        0.33020    0.36990    0.13950    1.000
    H17      H        0.29710    0.36780    0.13210    1.000
    C25      C        0.27650    0.35940    0.12880    1.000
    H18      H        0.27580    0.35990    0.11430    1.000
    C26      C        0.22810    0.34900    0.13930    1.000
    H19      H        0.19550    0.34660    0.13150    1.000
    C27      C        0.22400    0.34210    0.15980    1.000
    H20      H        0.19040    0.33260    0.16660    1.000
    C28      C        0.27570    0.35040    0.17070    1.000
    H21      H        0.27520    0.34430    0.18500    1.000
    N1       N        0.55080    0.16590    0.99639    1.000
    N2       N        0.64382    0.20020    0.01853    1.000
    N3       N        0.44164    0.33040    0.07410    1.000
    N4       N        0.39188    0.29400    0.22560    1.000
    C29      C        0.51365    0.65210    0.48190    1.000
    H22      H        0.52080    0.62460    0.46950    1.000
    C30      C        0.46271    0.68360    0.48743    1.000
    H23      H        0.43010    0.68050    0.47980    1.000
    C31      C        0.46927    0.72040    0.50638    1.000
    H24      H        0.44210    0.74760    0.51400    1.000
    C32      C        0.52397    0.70910    0.51185    1.000
    C33      C        0.55170    0.73820    0.52907    1.000
    C34      C        0.60724    0.73710    0.53215    1.000
    C35      C        0.63634    0.77520    0.54797    1.000
    H25      H        0.62130    0.80260    0.55930    1.000
    C36      C        0.68980    0.76510    0.54386    1.000
    H26      H        0.71940    0.78520    0.55170    1.000
    C37      C        0.69366    0.71890    0.52562    1.000
    H27      H        0.72680    0.70340    0.51930    1.000
    C38      C        0.51564    0.77310    0.54540    1.000
    C39      C        0.49080    0.84550    0.54334    1.000
    H28      H        0.49860    0.87850    0.53190    1.000
    C40      C        0.45340    0.87200    0.55807    1.000
    H29      H        0.43610    0.92270    0.55620    1.000
    C41      C        0.46510    0.75660    0.57689    1.000
    C42      C        0.45090    0.70650    0.59466    1.000
    H30      H        0.42250    0.72250    0.60360    1.000
    C43      C        0.48190    0.62990    0.59841    1.000
    H31      H        0.47640    0.59930    0.61050    1.000
    C44      C        0.51590    0.60680    0.58502    1.000
    H32      H        0.53310    0.55610    0.58700    1.000
    C45      C        0.52940    0.65020    0.56789    1.000
    H33      H        0.55620    0.62860    0.55900    1.000
    C46      C        0.50430    0.72900    0.56259    1.000
    C47      C        0.40343    0.71770    0.72863    1.000
    H34      H        0.40710    0.69460    0.74180    1.000
    C48      C        0.41000    0.67250    0.71031    1.000
    H35      H        0.41900    0.61690    0.70890    1.000
    C49      C        0.40017    0.72820    0.69508    1.000
    H36      H        0.40140    0.71770    0.68090    1.000
    C50      C        0.38813    0.80210    0.70401    1.000
    C51      C        0.32710    0.86720    0.66120    1.000
    H37      H        0.29350    0.86020    0.66810    1.000
    C52      C        0.33020    0.86990    0.63950    1.000
    H38      H        0.29710    0.86780    0.63210    1.000
    C53      C        0.27650    0.85940    0.62880    1.000
    H39      H        0.27580    0.85990    0.61430    1.000
    C54      C        0.22810    0.84900    0.63930    1.000
    H40      H        0.19550    0.84660    0.63150    1.000
    C55      C        0.22400    0.84210    0.65980    1.000
    H41      H        0.19040    0.83260    0.66660    1.000
    C56      C        0.27570    0.85040    0.67070    1.000
    H42      H        0.27520    0.84430    0.68500    1.000
    N5       N        0.55080    0.66590    0.49639    1.000
    N6       N        0.64382    0.70020    0.51853    1.000
    N7       N        0.44164    0.83040    0.57410    1.000
    N8       N        0.39188    0.79400    0.72560    1.000
    C57      C        0.01365    0.15210    0.48190    1.000
    H43      H        0.02080    0.12460    0.46950    1.000
    C58      C        0.96271    0.18360    0.48743    1.000
    H44      H        0.93010    0.18050    0.47980    1.000
    C59      C        0.96927    0.22040    0.50638    1.000
    H45      H        0.94210    0.24760    0.51400    1.000
    C60      C        0.02397    0.20910    0.51185    1.000
    C61      C        0.05170    0.23820    0.52907    1.000
    C62      C        0.10724    0.23710    0.53215    1.000
    C63      C        0.13634    0.27520    0.54797    1.000
    H46      H        0.12130    0.30260    0.55930    1.000
    C64      C        0.18980    0.26510    0.54386    1.000
    H47      H        0.21940    0.28520    0.55170    1.000
    C65      C        0.19366    0.21890    0.52562    1.000
    H48      H        0.22680    0.20340    0.51930    1.000
    C66      C        0.01564    0.27310    0.54540    1.000
    C67      C        0.99080    0.34550    0.54334    1.000
    H49      H        0.99860    0.37850    0.53190    1.000
    C68      C        0.95340    0.37200    0.55807    1.000
    H50      H        0.93610    0.42270    0.55620    1.000
    C69      C        0.96510    0.25660    0.57689    1.000
    C70      C        0.95090    0.20650    0.59466    1.000
    H51      H        0.92250    0.22250    0.60360    1.000
    C71      C        0.98190    0.12990    0.59841    1.000
    H52      H        0.97640    0.09930    0.61050    1.000
    C72      C        0.01590    0.10680    0.58502    1.000
    H53      H        0.03310    0.05610    0.58700    1.000
    C73      C        0.02940    0.15020    0.56789    1.000
    H54      H        0.05620    0.12860    0.55900    1.000
    C74      C        0.00430    0.22900    0.56259    1.000
    C75      C        0.90343    0.21770    0.72863    1.000
    H55      H        0.90710    0.19460    0.74180    1.000
    C76      C        0.91000    0.17250    0.71031    1.000
    H56      H        0.91900    0.11690    0.70890    1.000
    C77      C        0.90017    0.22820    0.69508    1.000
    H57      H        0.90140    0.21770    0.68090    1.000
    C78      C        0.88813    0.30210    0.70401    1.000
    C79      C        0.82710    0.36720    0.66120    1.000
    H58      H        0.79350    0.36020    0.66810    1.000
    C80      C        0.83020    0.36990    0.63950    1.000
    H59      H        0.79710    0.36780    0.63210    1.000
    C81      C        0.77650    0.35940    0.62880    1.000
    H60      H        0.77580    0.35990    0.61430    1.000
    C82      C        0.72810    0.34900    0.63930    1.000
    H61      H        0.69550    0.34660    0.63150    1.000
    C83      C        0.72400    0.34210    0.65980    1.000
    H62      H        0.69040    0.33260    0.66660    1.000
    C84      C        0.77570    0.35040    0.67070    1.000
    H63      H        0.77520    0.34430    0.68500    1.000
    N9       N        0.05080    0.16590    0.49639    1.000
    N10      N        0.14382    0.20020    0.51853    1.000
    N11      N        0.94164    0.33040    0.57410    1.000
    N12      N        0.89188    0.29400    0.72560    1.000
    C85      C        0.01365    0.65210    0.98190    1.000
    H64      H        0.02080    0.62460    0.96950    1.000
    C86      C        0.96271    0.68360    0.98743    1.000
    H65      H        0.93010    0.68050    0.97980    1.000
    C87      C        0.96927    0.72040    0.00638    1.000
    H66      H        0.94210    0.74760    0.01400    1.000
    C88      C        0.02397    0.70910    0.01185    1.000
    C89      C        0.05170    0.73820    0.02907    1.000
    C90      C        0.10724    0.73710    0.03215    1.000
    C91      C        0.13634    0.77520    0.04797    1.000
    H67      H        0.12130    0.80260    0.05930    1.000
    C92      C        0.18980    0.76510    0.04386    1.000
    H68      H        0.21940    0.78520    0.05170    1.000
    C93      C        0.19366    0.71890    0.02562    1.000
    H69      H        0.22680    0.70340    0.01930    1.000
    C94      C        0.01564    0.77310    0.04540    1.000
    C95      C        0.99080    0.84550    0.04334    1.000
    H70      H        0.99860    0.87850    0.03190    1.000
    C96      C        0.95340    0.87200    0.05807    1.000
    H71      H        0.93610    0.92270    0.05620    1.000
    C97      C        0.96510    0.75660    0.07689    1.000
    C98      C        0.95090    0.70650    0.09466    1.000
    H72      H        0.92250    0.72250    0.10360    1.000
    C99      C        0.98190    0.62990    0.09841    1.000
    H73      H        0.97640    0.59930    0.11050    1.000
    C100     C        0.01590    0.60680    0.08502    1.000
    H74      H        0.03310    0.55610    0.08700    1.000
    C101     C        0.02940    0.65020    0.06789    1.000
    H75      H        0.05620    0.62860    0.05900    1.000
    C102     C        0.00430    0.72900    0.06259    1.000
    C103     C        0.90343    0.71770    0.22863    1.000
    H76      H        0.90710    0.69460    0.24180    1.000
    C104     C        0.91000    0.67250    0.21031    1.000
    H77      H        0.91900    0.61690    0.20890    1.000
    C105     C        0.90017    0.72820    0.19508    1.000
    H78      H        0.90140    0.71770    0.18090    1.000
    C106     C        0.88813    0.80210    0.20401    1.000
    C107     C        0.82710    0.86720    0.16120    1.000
    H79      H        0.79350    0.86020    0.16810    1.000
    C108     C        0.83020    0.86990    0.13950    1.000
    H80      H        0.79710    0.86780    0.13210    1.000
    C109     C        0.77650    0.85940    0.12880    1.000
    H81      H        0.77580    0.85990    0.11430    1.000
    C110     C        0.72810    0.84900    0.13930    1.000
    H82      H        0.69550    0.84660    0.13150    1.000
    C111     C        0.72400    0.84210    0.15980    1.000
    H83      H        0.69040    0.83260    0.16660    1.000
    C112     C        0.77570    0.85040    0.17070    1.000
    H84      H        0.77520    0.84430    0.18500    1.000
    N13      N        0.05080    0.66590    0.99639    1.000
    N14      N        0.14382    0.70020    0.01853    1.000
    N15      N        0.94164    0.83040    0.07410    1.000
    N16      N        0.89188    0.79400    0.22560    1.000
    C113     C        0.23635    0.59790    0.98190    1.000
    H85      H        0.22920    0.62540    0.96950    1.000
    C114     C        0.28729    0.56640    0.98743    1.000
    H86      H        0.31990    0.56950    0.97980    1.000
    C115     C        0.28073    0.52960    0.00638    1.000
    H87      H        0.30790    0.50240    0.01400    1.000
    C116     C        0.22603    0.54090    0.01185    1.000
    C117     C        0.19830    0.51180    0.02907    1.000
    C118     C        0.14276    0.51290    0.03215    1.000
    C119     C        0.11366    0.47480    0.04797    1.000
    H88      H        0.12870    0.44740    0.05930    1.000
    C120     C        0.06020    0.48490    0.04386    1.000
    H89      H        0.03060    0.46480    0.05170    1.000
    C121     C        0.05634    0.53110    0.02562    1.000
    H90      H        0.02320    0.54660    0.01930    1.000
    C122     C        0.23436    0.47690    0.04540    1.000
    C123     C        0.25920    0.40450    0.04334    1.000
    H91      H        0.25140    0.37150    0.03190    1.000
    C124     C        0.29660    0.37800    0.05807    1.000
    H92      H        0.31390    0.32730    0.05620    1.000
    C125     C        0.28490    0.49340    0.07689    1.000
    C126     C        0.29910    0.54350    0.09466    1.000
    H93      H        0.32750    0.52750    0.10360    1.000
    C127     C        0.26810    0.62010    0.09841    1.000
    H94      H        0.27360    0.65070    0.11050    1.000
    C128     C        0.23410    0.64320    0.08502    1.000
    H95      H        0.21690    0.69390    0.08700    1.000
    C129     C        0.22060    0.59980    0.06789    1.000
    H96      H        0.19380    0.62140    0.05900    1.000
    C130     C        0.24570    0.52100    0.06259    1.000
    C131     C        0.34657    0.53230    0.22863    1.000
    H97      H        0.34290    0.55540    0.24180    1.000
    C132     C        0.34000    0.57750    0.21031    1.000
    H98      H        0.33100    0.63310    0.20890    1.000
    C133     C        0.34983    0.52180    0.19508    1.000
    H99      H        0.34860    0.53230    0.18090    1.000
    C134     C        0.36187    0.44790    0.20401    1.000
    C135     C        0.42290    0.38280    0.16120    1.000
    H100     H        0.45650    0.38980    0.16810    1.000
    C136     C        0.41980    0.38010    0.13950    1.000
    H101     H        0.45290    0.38220    0.13210    1.000
    C137     C        0.47350    0.39060    0.12880    1.000
    H102     H        0.47420    0.39010    0.11430    1.000
    C138     C        0.52190    0.40100    0.13930    1.000
    H103     H        0.55450    0.40340    0.13150    1.000
    C139     C        0.52600    0.40790    0.15980    1.000
    H104     H        0.55960    0.41740    0.16660    1.000
    C140     C        0.47430    0.39960    0.17070    1.000
    H105     H        0.47480    0.40570    0.18500    1.000
    N17      N        0.19920    0.58410    0.99639    1.000
    N18      N        0.10618    0.54980    0.01853    1.000
    N19      N        0.30836    0.41960    0.07410    1.000
    N20      N        0.35812    0.45600    0.22560    1.000
    C141     C        0.23635    0.09790    0.48190    1.000
    H106     H        0.22920    0.12540    0.46950    1.000
    C142     C        0.28729    0.06640    0.48743    1.000
    H107     H        0.31990    0.06950    0.47980    1.000
    C143     C        0.28073    0.02960    0.50638    1.000
    H108     H        0.30790    0.00240    0.51400    1.000
    C144     C        0.22603    0.04090    0.51185    1.000
    C145     C        0.19830    0.01180    0.52907    1.000
    C146     C        0.14276    0.01290    0.53215    1.000
    C147     C        0.11366    0.97480    0.54797    1.000
    H109     H        0.12870    0.94740    0.55930    1.000
    C148     C        0.06020    0.98490    0.54386    1.000
    H110     H        0.03060    0.96480    0.55170    1.000
    C149     C        0.05634    0.03110    0.52562    1.000
    H111     H        0.02320    0.04660    0.51930    1.000
    C150     C        0.23436    0.97690    0.54540    1.000
    C151     C        0.25920    0.90450    0.54334    1.000
    H112     H        0.25140    0.87150    0.53190    1.000
    C152     C        0.29660    0.87800    0.55807    1.000
    H113     H        0.31390    0.82730    0.55620    1.000
    C153     C        0.28490    0.99340    0.57689    1.000
    C154     C        0.29910    0.04350    0.59466    1.000
    H114     H        0.32750    0.02750    0.60360    1.000
    C155     C        0.26810    0.12010    0.59841    1.000
    H115     H        0.27360    0.15070    0.61050    1.000
    C156     C        0.23410    0.14320    0.58502    1.000
    H116     H        0.21690    0.19390    0.58700    1.000
    C157     C        0.22060    0.09980    0.56789    1.000
    H117     H        0.19380    0.12140    0.55900    1.000
    C158     C        0.24570    0.02100    0.56259    1.000
    C159     C        0.34657    0.03230    0.72863    1.000
    H118     H        0.34290    0.05540    0.74180    1.000
    C160     C        0.34000    0.07750    0.71031    1.000
    H119     H        0.33100    0.13310    0.70890    1.000
    C161     C        0.34983    0.02180    0.69508    1.000
    H120     H        0.34860    0.03230    0.68090    1.000
    C162     C        0.36187    0.94790    0.70401    1.000
    C163     C        0.42290    0.88280    0.66120    1.000
    H121     H        0.45650    0.88980    0.66810    1.000
    C164     C        0.41980    0.88010    0.63950    1.000
    H122     H        0.45290    0.88220    0.63210    1.000
    C165     C        0.47350    0.89060    0.62880    1.000
    H123     H        0.47420    0.89010    0.61430    1.000
    C166     C        0.52190    0.90100    0.63930    1.000
    H124     H        0.55450    0.90340    0.63150    1.000
    C167     C        0.52600    0.90790    0.65980    1.000
    H125     H        0.55960    0.91740    0.66660    1.000
    C168     C        0.47430    0.89960    0.67070    1.000
    H126     H        0.47480    0.90570    0.68500    1.000
    N21      N        0.19920    0.08410    0.49639    1.000
    N22      N        0.10618    0.04980    0.51853    1.000
    N23      N        0.30836    0.91960    0.57410    1.000
    N24      N        0.35812    0.95600    0.72560    1.000
    C169     C        0.73635    0.59790    0.48190    1.000
    H127     H        0.72920    0.62540    0.46950    1.000
    C170     C        0.78729    0.56640    0.48743    1.000
    H128     H        0.81990    0.56950    0.47980    1.000
    C171     C        0.78073    0.52960    0.50638    1.000
    H129     H        0.80790    0.50240    0.51400    1.000
    C172     C        0.72603    0.54090    0.51185    1.000
    C173     C        0.69830    0.51180    0.52907    1.000
    C174     C        0.64276    0.51290    0.53215    1.000
    C175     C        0.61366    0.47480    0.54797    1.000
    H130     H        0.62870    0.44740    0.55930    1.000
    C176     C        0.56020    0.48490    0.54386    1.000
    H131     H        0.53060    0.46480    0.55170    1.000
    C177     C        0.55634    0.53110    0.52562    1.000
    H132     H        0.52320    0.54660    0.51930    1.000
    C178     C        0.73436    0.47690    0.54540    1.000
    C179     C        0.75920    0.40450    0.54334    1.000
    H133     H        0.75140    0.37150    0.53190    1.000
    C180     C        0.79660    0.37800    0.55807    1.000
    H134     H        0.81390    0.32730    0.55620    1.000
    C181     C        0.78490    0.49340    0.57689    1.000
    C182     C        0.79910    0.54350    0.59466    1.000
    H135     H        0.82750    0.52750    0.60360    1.000
    C183     C        0.76810    0.62010    0.59841    1.000
    H136     H        0.77360    0.65070    0.61050    1.000
    C184     C        0.73410    0.64320    0.58502    1.000
    H137     H        0.71690    0.69390    0.58700    1.000
    C185     C        0.72060    0.59980    0.56789    1.000
    H138     H        0.69380    0.62140    0.55900    1.000
    C186     C        0.74570    0.52100    0.56259    1.000
    C187     C        0.84657    0.53230    0.72863    1.000
    H139     H        0.84290    0.55540    0.74180    1.000
    C188     C        0.84000    0.57750    0.71031    1.000
    H140     H        0.83100    0.63310    0.70890    1.000
    C189     C        0.84983    0.52180    0.69508    1.000
    H141     H        0.84860    0.53230    0.68090    1.000
    C190     C        0.86187    0.44790    0.70401    1.000
    C191     C        0.92290    0.38280    0.66120    1.000
    H142     H        0.95650    0.38980    0.66810    1.000
    C192     C        0.91980    0.38010    0.63950    1.000
    H143     H        0.95290    0.38220    0.63210    1.000
    C193     C        0.97350    0.39060    0.62880    1.000
    H144     H        0.97420    0.39010    0.61430    1.000
    C194     C        0.02190    0.40100    0.63930    1.000
    H145     H        0.05450    0.40340    0.63150    1.000
    C195     C        0.02600    0.40790    0.65980    1.000
    H146     H        0.05960    0.41740    0.66660    1.000
    C196     C        0.97430    0.39960    0.67070    1.000
    H147     H        0.97480    0.40570    0.68500    1.000
    N25      N        0.69920    0.58410    0.49639    1.000
    N26      N        0.60618    0.54980    0.51853    1.000
    N27      N        0.80836    0.41960    0.57410    1.000
    N28      N        0.85812    0.45600    0.72560    1.000
    C197     C        0.73635    0.09790    0.98190    1.000
    H148     H        0.72920    0.12540    0.96950    1.000
    C198     C        0.78729    0.06640    0.98743    1.000
    H149     H        0.81990    0.06950    0.97980    1.000
    C199     C        0.78073    0.02960    0.00638    1.000
    H150     H        0.80790    0.00240    0.01400    1.000
    C200     C        0.72603    0.04090    0.01185    1.000
    C201     C        0.69830    0.01180    0.02907    1.000
    C202     C        0.64276    0.01290    0.03215    1.000
    C203     C        0.61366    0.97480    0.04797    1.000
    H151     H        0.62870    0.94740    0.05930    1.000
    C204     C        0.56020    0.98490    0.04386    1.000
    H152     H        0.53060    0.96480    0.05170    1.000
    C205     C        0.55634    0.03110    0.02562    1.000
    H153     H        0.52320    0.04660    0.01930    1.000
    C206     C        0.73436    0.97690    0.04540    1.000
    C207     C        0.75920    0.90450    0.04334    1.000
    H154     H        0.75140    0.87150    0.03190    1.000
    C208     C        0.79660    0.87800    0.05807    1.000
    H155     H        0.81390    0.82730    0.05620    1.000
    C209     C        0.78490    0.99340    0.07689    1.000
    C210     C        0.79910    0.04350    0.09466    1.000
    H156     H        0.82750    0.02750    0.10360    1.000
    C211     C        0.76810    0.12010    0.09841    1.000
    H157     H        0.77360    0.15070    0.11050    1.000
    C212     C        0.73410    0.14320    0.08502    1.000
    H158     H        0.71690    0.19390    0.08700    1.000
    C213     C        0.72060    0.09980    0.06789    1.000
    H159     H        0.69380    0.12140    0.05900    1.000
    C214     C        0.74570    0.02100    0.06259    1.000
    C215     C        0.84657    0.03230    0.22863    1.000
    H160     H        0.84290    0.05540    0.24180    1.000
    C216     C        0.84000    0.07750    0.21031    1.000
    H161     H        0.83100    0.13310    0.20890    1.000
    C217     C        0.84983    0.02180    0.19508    1.000
    H162     H        0.84860    0.03230    0.18090    1.000
    C218     C        0.86187    0.94790    0.20401    1.000
    C219     C        0.92290    0.88280    0.16120    1.000
    H163     H        0.95650    0.88980    0.16810    1.000
    C220     C        0.91980    0.88010    0.13950    1.000
    H164     H        0.95290    0.88220    0.13210    1.000
    C221     C        0.97350    0.89060    0.12880    1.000
    H165     H        0.97420    0.89010    0.11430    1.000
    C222     C        0.02190    0.90100    0.13930    1.000
    H166     H        0.05450    0.90340    0.13150    1.000
    C223     C        0.02600    0.90790    0.15980    1.000
    H167     H        0.05960    0.91740    0.16660    1.000
    C224     C        0.97430    0.89960    0.17070    1.000
    H168     H        0.97480    0.90570    0.18500    1.000
    N29      N        0.69920    0.08410    0.99639    1.000
    N30      N        0.60618    0.04980    0.01853    1.000
    N31      N        0.80836    0.91960    0.07410    1.000
    N32      N        0.85812    0.95600    0.22560    1.000
    C225     C        0.76365    0.84790    0.23190    1.000
    H169     H        0.77080    0.87540    0.21950    1.000
    C226     C        0.71271    0.81640    0.23743    1.000
    H170     H        0.68010    0.81950    0.22980    1.000
    C227     C        0.71927    0.77960    0.25638    1.000
    H171     H        0.69210    0.75240    0.26400    1.000
    C228     C        0.77397    0.79090    0.26185    1.000
    C229     C        0.80170    0.76180    0.27907    1.000
    C230     C        0.85724    0.76290    0.28215    1.000
    C231     C        0.88634    0.72480    0.29797    1.000
    H172     H        0.87130    0.69740    0.30930    1.000
    C232     C        0.93980    0.73490    0.29386    1.000
    H173     H        0.96940    0.71480    0.30170    1.000
    C233     C        0.94366    0.78110    0.27562    1.000
    H174     H        0.97680    0.79660    0.26930    1.000
    C234     C        0.76564    0.72690    0.29540    1.000
    C235     C        0.74080    0.65450    0.29334    1.000
    H175     H        0.74860    0.62150    0.28190    1.000
    C236     C        0.70340    0.62800    0.30807    1.000
    H176     H        0.68610    0.57730    0.30620    1.000
    C237     C        0.71510    0.74340    0.32689    1.000
    C238     C        0.70090    0.79350    0.34466    1.000
    H177     H        0.67250    0.77750    0.35360    1.000
    C239     C        0.73190    0.87010    0.34841    1.000
    H178     H        0.72640    0.90070    0.36050    1.000
    C240     C        0.76590    0.89320    0.33502    1.000
    H179     H        0.78310    0.94390    0.33700    1.000
    C241     C        0.77940    0.84980    0.31789    1.000
    H180     H        0.80620    0.87140    0.30900    1.000
    C242     C        0.75430    0.77100    0.31259    1.000
    C243     C        0.65343    0.78230    0.47863    1.000
    H181     H        0.65710    0.80540    0.49180    1.000
    C244     C        0.66000    0.82750    0.46031    1.000
    H182     H        0.66900    0.88310    0.45890    1.000
    C245     C        0.65017    0.77180    0.44508    1.000
    H183     H        0.65140    0.78230    0.43090    1.000
    C246     C        0.63813    0.69790    0.45401    1.000
    C247     C        0.57710    0.63280    0.41120    1.000
    H184     H        0.54350    0.63980    0.41810    1.000
    C248     C        0.58020    0.63010    0.38950    1.000
    H185     H        0.54710    0.63220    0.38210    1.000
    C249     C        0.52650    0.64060    0.37880    1.000
    H186     H        0.52580    0.64010    0.36430    1.000
    C250     C        0.47810    0.65100    0.38930    1.000
    H187     H        0.44550    0.65340    0.38150    1.000
    C251     C        0.47400    0.65790    0.40980    1.000
    H188     H        0.44040    0.66740    0.41660    1.000
    C252     C        0.52570    0.64960    0.42070    1.000
    H189     H        0.52520    0.65570    0.43500    1.000
    N33      N        0.80080    0.83410    0.24639    1.000
    N34      N        0.89382    0.79980    0.26853    1.000
    N35      N        0.69164    0.66960    0.32410    1.000
    N36      N        0.64188    0.70600    0.47560    1.000
    C253     C        0.76365    0.34790    0.73190    1.000
    H190     H        0.77080    0.37540    0.71950    1.000
    C254     C        0.71271    0.31640    0.73743    1.000
    H191     H        0.68010    0.31950    0.72980    1.000
    C255     C        0.71927    0.27960    0.75638    1.000
    H192     H        0.69210    0.25240    0.76400    1.000
    C256     C        0.77397    0.29090    0.76185    1.000
    C257     C        0.80170    0.26180    0.77907    1.000
    C258     C        0.85724    0.26290    0.78215    1.000
    C259     C        0.88634    0.22480    0.79797    1.000
    H193     H        0.87130    0.19740    0.80930    1.000
    C260     C        0.93980    0.23490    0.79386    1.000
    H194     H        0.96940    0.21480    0.80170    1.000
    C261     C        0.94366    0.28110    0.77562    1.000
    H195     H        0.97680    0.29660    0.76930    1.000
    C262     C        0.76564    0.22690    0.79540    1.000
    C263     C        0.74080    0.15450    0.79334    1.000
    H196     H        0.74860    0.12150    0.78190    1.000
    C264     C        0.70340    0.12800    0.80807    1.000
    H197     H        0.68610    0.07730    0.80620    1.000
    C265     C        0.71510    0.24340    0.82689    1.000
    C266     C        0.70090    0.29350    0.84466    1.000
    H198     H        0.67250    0.27750    0.85360    1.000
    C267     C        0.73190    0.37010    0.84841    1.000
    H199     H        0.72640    0.40070    0.86050    1.000
    C268     C        0.76590    0.39320    0.83502    1.000
    H200     H        0.78310    0.44390    0.83700    1.000
    C269     C        0.77940    0.34980    0.81789    1.000
    H201     H        0.80620    0.37140    0.80900    1.000
    C270     C        0.75430    0.27100    0.81259    1.000
    C271     C        0.65343    0.28230    0.97863    1.000
    H202     H        0.65710    0.30540    0.99180    1.000
    C272     C        0.66000    0.32750    0.96031    1.000
    H203     H        0.66900    0.38310    0.95890    1.000
    C273     C        0.65017    0.27180    0.94508    1.000
    H204     H        0.65140    0.28230    0.93090    1.000
    C274     C        0.63813    0.19790    0.95401    1.000
    C275     C        0.57710    0.13280    0.91120    1.000
    H205     H        0.54350    0.13980    0.91810    1.000
    C276     C        0.58020    0.13010    0.88950    1.000
    H206     H        0.54710    0.13220    0.88210    1.000
    C277     C        0.52650    0.14060    0.87880    1.000
    H207     H        0.52580    0.14010    0.86430    1.000
    C278     C        0.47810    0.15100    0.88930    1.000
    H208     H        0.44550    0.15340    0.88150    1.000
    C279     C        0.47400    0.15790    0.90980    1.000
    H209     H        0.44040    0.16740    0.91660    1.000
    C280     C        0.52570    0.14960    0.92070    1.000
    H210     H        0.52520    0.15570    0.93500    1.000
    N37      N        0.80080    0.33410    0.74639    1.000
    N38      N        0.89382    0.29980    0.76853    1.000
    N39      N        0.69164    0.16960    0.82410    1.000
    N40      N        0.64188    0.20600    0.97560    1.000
    C281     C        0.26365    0.84790    0.73190    1.000
    H211     H        0.27080    0.87540    0.71950    1.000
    C282     C        0.21271    0.81640    0.73743    1.000
    H212     H        0.18010    0.81950    0.72980    1.000
    C283     C        0.21927    0.77960    0.75638    1.000
    H213     H        0.19210    0.75240    0.76400    1.000
    C284     C        0.27397    0.79090    0.76185    1.000
    C285     C        0.30170    0.76180    0.77907    1.000
    C286     C        0.35724    0.76290    0.78215    1.000
    C287     C        0.38634    0.72480    0.79797    1.000
    H214     H        0.37130    0.69740    0.80930    1.000
    C288     C        0.43980    0.73490    0.79386    1.000
    H215     H        0.46940    0.71480    0.80170    1.000
    C289     C        0.44366    0.78110    0.77562    1.000
    H216     H        0.47680    0.79660    0.76930    1.000
    C290     C        0.26564    0.72690    0.79540    1.000
    C291     C        0.24080    0.65450    0.79334    1.000
    H217     H        0.24860    0.62150    0.78190    1.000
    C292     C        0.20340    0.62800    0.80807    1.000
    H218     H        0.18610    0.57730    0.80620    1.000
    C293     C        0.21510    0.74340    0.82689    1.000
    C294     C        0.20090    0.79350    0.84466    1.000
    H219     H        0.17250    0.77750    0.85360    1.000
    C295     C        0.23190    0.87010    0.84841    1.000
    H220     H        0.22640    0.90070    0.86050    1.000
    C296     C        0.26590    0.89320    0.83502    1.000
    H221     H        0.28310    0.94390    0.83700    1.000
    C297     C        0.27940    0.84980    0.81789    1.000
    H222     H        0.30620    0.87140    0.80900    1.000
    C298     C        0.25430    0.77100    0.81259    1.000
    C299     C        0.15343    0.78230    0.97863    1.000
    H223     H        0.15710    0.80540    0.99180    1.000
    C300     C        0.16000    0.82750    0.96031    1.000
    H224     H        0.16900    0.88310    0.95890    1.000
    C301     C        0.15017    0.77180    0.94508    1.000
    H225     H        0.15140    0.78230    0.93090    1.000
    C302     C        0.13813    0.69790    0.95401    1.000
    C303     C        0.07710    0.63280    0.91120    1.000
    H226     H        0.04350    0.63980    0.91810    1.000
    C304     C        0.08020    0.63010    0.88950    1.000
    H227     H        0.04710    0.63220    0.88210    1.000
    C305     C        0.02650    0.64060    0.87880    1.000
    H228     H        0.02580    0.64010    0.86430    1.000
    C306     C        0.97810    0.65100    0.88930    1.000
    H229     H        0.94550    0.65340    0.88150    1.000
    C307     C        0.97400    0.65790    0.90980    1.000
    H230     H        0.94040    0.66740    0.91660    1.000
    C308     C        0.02570    0.64960    0.92070    1.000
    H231     H        0.02520    0.65570    0.93500    1.000
    N41      N        0.30080    0.83410    0.74639    1.000
    N42      N        0.39382    0.79980    0.76853    1.000
    N43      N        0.19164    0.66960    0.82410    1.000
    N44      N        0.14188    0.70600    0.97560    1.000
    C309     C        0.26365    0.34790    0.23190    1.000
    H232     H        0.27080    0.37540    0.21950    1.000
    C310     C        0.21271    0.31640    0.23743    1.000
    H233     H        0.18010    0.31950    0.22980    1.000
    C311     C        0.21927    0.27960    0.25638    1.000
    H234     H        0.19210    0.25240    0.26400    1.000
    C312     C        0.27397    0.29090    0.26185    1.000
    C313     C        0.30170    0.26180    0.27907    1.000
    C314     C        0.35724    0.26290    0.28215    1.000
    C315     C        0.38634    0.22480    0.29797    1.000
    H235     H        0.37130    0.19740    0.30930    1.000
    C316     C        0.43980    0.23490    0.29386    1.000
    H236     H        0.46940    0.21480    0.30170    1.000
    C317     C        0.44366    0.28110    0.27562    1.000
    H237     H        0.47680    0.29660    0.26930    1.000
    C318     C        0.26564    0.22690    0.29540    1.000
    C319     C        0.24080    0.15450    0.29334    1.000
    H238     H        0.24860    0.12150    0.28190    1.000
    C320     C        0.20340    0.12800    0.30807    1.000
    H239     H        0.18610    0.07730    0.30620    1.000
    C321     C        0.21510    0.24340    0.32689    1.000
    C322     C        0.20090    0.29350    0.34466    1.000
    H240     H        0.17250    0.27750    0.35360    1.000
    C323     C        0.23190    0.37010    0.34841    1.000
    H241     H        0.22640    0.40070    0.36050    1.000
    C324     C        0.26590    0.39320    0.33502    1.000
    H242     H        0.28310    0.44390    0.33700    1.000
    C325     C        0.27940    0.34980    0.31789    1.000
    H243     H        0.30620    0.37140    0.30900    1.000
    C326     C        0.25430    0.27100    0.31259    1.000
    C327     C        0.15343    0.28230    0.47863    1.000
    H244     H        0.15710    0.30540    0.49180    1.000
    C328     C        0.16000    0.32750    0.46031    1.000
    H245     H        0.16900    0.38310    0.45890    1.000
    C329     C        0.15017    0.27180    0.44508    1.000
    H246     H        0.15140    0.28230    0.43090    1.000
    C330     C        0.13813    0.19790    0.45401    1.000
    C331     C        0.07710    0.13280    0.41120    1.000
    H247     H        0.04350    0.13980    0.41810    1.000
    C332     C        0.08020    0.13010    0.38950    1.000
    H248     H        0.04710    0.13220    0.38210    1.000
    C333     C        0.02650    0.14060    0.37880    1.000
    H249     H        0.02580    0.14010    0.36430    1.000
    C334     C        0.97810    0.15100    0.38930    1.000
    H250     H        0.94550    0.15340    0.38150    1.000
    C335     C        0.97400    0.15790    0.40980    1.000
    H251     H        0.94040    0.16740    0.41660    1.000
    C336     C        0.02570    0.14960    0.42070    1.000
    H252     H        0.02520    0.15570    0.43500    1.000
    N45      N        0.30080    0.33410    0.24639    1.000
    N46      N        0.39382    0.29980    0.26853    1.000
    N47      N        0.19164    0.16960    0.32410    1.000
    N48      N        0.14188    0.20600    0.47560    1.000
    C337     C        0.48635    0.40210    0.23190    1.000
    H253     H        0.47920    0.37460    0.21950    1.000
    C338     C        0.53729    0.43360    0.23743    1.000
    H254     H        0.56990    0.43050    0.22980    1.000
    C339     C        0.53073    0.47040    0.25638    1.000
    H255     H        0.55790    0.49760    0.26400    1.000
    C340     C        0.47603    0.45910    0.26185    1.000
    C341     C        0.44830    0.48820    0.27907    1.000
    C342     C        0.39276    0.48710    0.28215    1.000
    C343     C        0.36366    0.52520    0.29797    1.000
    H256     H        0.37870    0.55260    0.30930    1.000
    C344     C        0.31020    0.51510    0.29386    1.000
    H257     H        0.28060    0.53520    0.30170    1.000
    C345     C        0.30634    0.46890    0.27562    1.000
    H258     H        0.27320    0.45340    0.26930    1.000
    C346     C        0.48436    0.52310    0.29540    1.000
    C347     C        0.50920    0.59550    0.29334    1.000
    H259     H        0.50140    0.62850    0.28190    1.000
    C348     C        0.54660    0.62200    0.30807    1.000
    H260     H        0.56390    0.67270    0.30620    1.000
    C349     C        0.53490    0.50660    0.32689    1.000
    C350     C        0.54910    0.45650    0.34466    1.000
    H261     H        0.57750    0.47250    0.35360    1.000
    C351     C        0.51810    0.37990    0.34841    1.000
    H262     H        0.52360    0.34930    0.36050    1.000
    C352     C        0.48410    0.35680    0.33502    1.000
    H263     H        0.46690    0.30610    0.33700    1.000
    C353     C        0.47060    0.40020    0.31789    1.000
    H264     H        0.44380    0.37860    0.30900    1.000
    C354     C        0.49570    0.47900    0.31259    1.000
    C355     C        0.59657    0.46770    0.47863    1.000
    H265     H        0.59290    0.44460    0.49180    1.000
    C356     C        0.59000    0.42250    0.46031    1.000
    H266     H        0.58100    0.36690    0.45890    1.000
    C357     C        0.59983    0.47820    0.44508    1.000
    H267     H        0.59860    0.46770    0.43090    1.000
    C358     C        0.61187    0.55210    0.45401    1.000
    C359     C        0.67290    0.61720    0.41120    1.000
    H268     H        0.70650    0.61020    0.41810    1.000
    C360     C        0.66980    0.61990    0.38950    1.000
    H269     H        0.70290    0.61780    0.38210    1.000
    C361     C        0.72350    0.60940    0.37880    1.000
    H270     H        0.72420    0.60990    0.36430    1.000
    C362     C        0.77190    0.59900    0.38930    1.000
    H271     H        0.80450    0.59660    0.38150    1.000
    C363     C        0.77600    0.59210    0.40980    1.000
    H272     H        0.80960    0.58260    0.41660    1.000
    C364     C        0.72430    0.60040    0.42070    1.000
    H273     H        0.72480    0.59430    0.43500    1.000
    N49      N        0.44920    0.41590    0.24639    1.000
    N50      N        0.35618    0.45020    0.26853    1.000
    N51      N        0.55836    0.58040    0.32410    1.000
    N52      N        0.60812    0.54400    0.47560    1.000
    C365     C        0.48635    0.90210    0.73190    1.000
    H274     H        0.47920    0.87460    0.71950    1.000
    C366     C        0.53729    0.93360    0.73743    1.000
    H275     H        0.56990    0.93050    0.72980    1.000
    C367     C        0.53073    0.97040    0.75638    1.000
    H276     H        0.55790    0.99760    0.76400    1.000
    C368     C        0.47603    0.95910    0.76185    1.000
    C369     C        0.44830    0.98820    0.77907    1.000
    C370     C        0.39276    0.98710    0.78215    1.000
    C371     C        0.36366    0.02520    0.79797    1.000
    H277     H        0.37870    0.05260    0.80930    1.000
    C372     C        0.31020    0.01510    0.79386    1.000
    H278     H        0.28060    0.03520    0.80170    1.000
    C373     C        0.30634    0.96890    0.77562    1.000
    H279     H        0.27320    0.95340    0.76930    1.000
    C374     C        0.48436    0.02310    0.79540    1.000
    C375     C        0.50920    0.09550    0.79334    1.000
    H280     H        0.50140    0.12850    0.78190    1.000
    C376     C        0.54660    0.12200    0.80807    1.000
    H281     H        0.56390    0.17270    0.80620    1.000
    C377     C        0.53490    0.00660    0.82689    1.000
    C378     C        0.54910    0.95650    0.84466    1.000
    H282     H        0.57750    0.97250    0.85360    1.000
    C379     C        0.51810    0.87990    0.84841    1.000
    H283     H        0.52360    0.84930    0.86050    1.000
    C380     C        0.48410    0.85680    0.83502    1.000
    H284     H        0.46690    0.80610    0.83700    1.000
    C381     C        0.47060    0.90020    0.81789    1.000
    H285     H        0.44380    0.87860    0.80900    1.000
    C382     C        0.49570    0.97900    0.81259    1.000
    C383     C        0.59657    0.96770    0.97863    1.000
    H286     H        0.59290    0.94460    0.99180    1.000
    C384     C        0.59000    0.92250    0.96031    1.000
    H287     H        0.58100    0.86690    0.95890    1.000
    C385     C        0.59983    0.97820    0.94508    1.000
    H288     H        0.59860    0.96770    0.93090    1.000
    C386     C        0.61187    0.05210    0.95401    1.000
    C387     C        0.67290    0.11720    0.91120    1.000
    H289     H        0.70650    0.11020    0.91810    1.000
    C388     C        0.66980    0.11990    0.88950    1.000
    H290     H        0.70290    0.11780    0.88210    1.000
    C389     C        0.72350    0.10940    0.87880    1.000
    H291     H        0.72420    0.10990    0.86430    1.000
    C390     C        0.77190    0.09900    0.88930    1.000
    H292     H        0.80450    0.09660    0.88150    1.000
    C391     C        0.77600    0.09210    0.90980    1.000
    H293     H        0.80960    0.08260    0.91660    1.000
    C392     C        0.72430    0.10040    0.92070    1.000
    H294     H        0.72480    0.09430    0.93500    1.000
    N53      N        0.44920    0.91590    0.74639    1.000
    N54      N        0.35618    0.95020    0.76853    1.000
    N55      N        0.55836    0.08040    0.82410    1.000
    N56      N        0.60812    0.04400    0.97560    1.000
    C393     C        0.98635    0.40210    0.73190    1.000
    H295     H        0.97920    0.37460    0.71950    1.000
    C394     C        0.03729    0.43360    0.73743    1.000
    H296     H        0.06990    0.43050    0.72980    1.000
    C395     C        0.03073    0.47040    0.75638    1.000
    H297     H        0.05790    0.49760    0.76400    1.000
    C396     C        0.97603    0.45910    0.76185    1.000
    C397     C        0.94830    0.48820    0.77907    1.000
    C398     C        0.89276    0.48710    0.78215    1.000
    C399     C        0.86366    0.52520    0.79797    1.000
    H298     H        0.87870    0.55260    0.80930    1.000
    C400     C        0.81020    0.51510    0.79386    1.000
    H299     H        0.78060    0.53520    0.80170    1.000
    C401     C        0.80634    0.46890    0.77562    1.000
    H300     H        0.77320    0.45340    0.76930    1.000
    C402     C        0.98436    0.52310    0.79540    1.000
    C403     C        0.00920    0.59550    0.79334    1.000
    H301     H        0.00140    0.62850    0.78190    1.000
    C404     C        0.04660    0.62200    0.80807    1.000
    H302     H        0.06390    0.67270    0.80620    1.000
    C405     C        0.03490    0.50660    0.82689    1.000
    C406     C        0.04910    0.45650    0.84466    1.000
    H303     H        0.07750    0.47250    0.85360    1.000
    C407     C        0.01810    0.37990    0.84841    1.000
    H304     H        0.02360    0.34930    0.86050    1.000
    C408     C        0.98410    0.35680    0.83502    1.000
    H305     H        0.96690    0.30610    0.83700    1.000
    C409     C        0.97060    0.40020    0.81789    1.000
    H306     H        0.94380    0.37860    0.80900    1.000
    C410     C        0.99570    0.47900    0.81259    1.000
    C411     C        0.09657    0.46770    0.97863    1.000
    H307     H        0.09290    0.44460    0.99180    1.000
    C412     C        0.09000    0.42250    0.96031    1.000
    H308     H        0.08100    0.36690    0.95890    1.000
    C413     C        0.09983    0.47820    0.94508    1.000
    H309     H        0.09860    0.46770    0.93090    1.000
    C414     C        0.11187    0.55210    0.95401    1.000
    C415     C        0.17290    0.61720    0.91120    1.000
    H310     H        0.20650    0.61020    0.91810    1.000
    C416     C        0.16980    0.61990    0.88950    1.000
    H311     H        0.20290    0.61780    0.88210    1.000
    C417     C        0.22350    0.60940    0.87880    1.000
    H312     H        0.22420    0.60990    0.86430    1.000
    C418     C        0.27190    0.59900    0.88930    1.000
    H313     H        0.30450    0.59660    0.88150    1.000
    C419     C        0.27600    0.59210    0.90980    1.000
    H314     H        0.30960    0.58260    0.91660    1.000
    C420     C        0.22430    0.60040    0.92070    1.000
    H315     H        0.22480    0.59430    0.93500    1.000
    N57      N        0.94920    0.41590    0.74639    1.000
    N58      N        0.85618    0.45020    0.76853    1.000
    N59      N        0.05836    0.58040    0.82410    1.000
    N60      N        0.10812    0.54400    0.97560    1.000
    C421     C        0.98635    0.90210    0.23190    1.000
    H316     H        0.97920    0.87460    0.21950    1.000
    C422     C        0.03729    0.93360    0.23743    1.000
    H317     H        0.06990    0.93050    0.22980    1.000
    C423     C        0.03073    0.97040    0.25638    1.000
    H318     H        0.05790    0.99760    0.26400    1.000
    C424     C        0.97603    0.95910    0.26185    1.000
    C425     C        0.94830    0.98820    0.27907    1.000
    C426     C        0.89276    0.98710    0.28215    1.000
    C427     C        0.86366    0.02520    0.29797    1.000
    H319     H        0.87870    0.05260    0.30930    1.000
    C428     C        0.81020    0.01510    0.29386    1.000
    H320     H        0.78060    0.03520    0.30170    1.000
    C429     C        0.80634    0.96890    0.27562    1.000
    H321     H        0.77320    0.95340    0.26930    1.000
    C430     C        0.98436    0.02310    0.29540    1.000
    C431     C        0.00920    0.09550    0.29334    1.000
    H322     H        0.00140    0.12850    0.28190    1.000
    C432     C        0.04660    0.12200    0.30807    1.000
    H323     H        0.06390    0.17270    0.30620    1.000
    C433     C        0.03490    0.00660    0.32689    1.000
    C434     C        0.04910    0.95650    0.34466    1.000
    H324     H        0.07750    0.97250    0.35360    1.000
    C435     C        0.01810    0.87990    0.34841    1.000
    H325     H        0.02360    0.84930    0.36050    1.000
    C436     C        0.98410    0.85680    0.33502    1.000
    H326     H        0.96690    0.80610    0.33700    1.000
    C437     C        0.97060    0.90020    0.31789    1.000
    H327     H        0.94380    0.87860    0.30900    1.000
    C438     C        0.99570    0.97900    0.31259    1.000
    C439     C        0.09657    0.96770    0.47863    1.000
    H328     H        0.09290    0.94460    0.49180    1.000
    C440     C        0.09000    0.92250    0.46031    1.000
    H329     H        0.08100    0.86690    0.45890    1.000
    C441     C        0.09983    0.97820    0.44508    1.000
    H330     H        0.09860    0.96770    0.43090    1.000
    C442     C        0.11187    0.05210    0.45401    1.000
    C443     C        0.17290    0.11720    0.41120    1.000
    H331     H        0.20650    0.11020    0.41810    1.000
    C444     C        0.16980    0.11990    0.38950    1.000
    H332     H        0.20290    0.11780    0.38210    1.000
    C445     C        0.22350    0.10940    0.37880    1.000
    H333     H        0.22420    0.10990    0.36430    1.000
    C446     C        0.27190    0.09900    0.38930    1.000
    H334     H        0.30450    0.09660    0.38150    1.000
    C447     C        0.27600    0.09210    0.40980    1.000
    H335     H        0.30960    0.08260    0.41660    1.000
    C448     C        0.22430    0.10040    0.42070    1.000
    H336     H        0.22480    0.09430    0.43500    1.000
    N61      N        0.94920    0.91590    0.24639    1.000
    N62      N        0.85618    0.95020    0.26853    1.000
    N63      N        0.05836    0.08040    0.32410    1.000
    N64      N        0.10812    0.04400    0.47560    1.000
    Ag1      Ag       0.37500    0.37500    0.09567    1.000
    C449     C        0.37500    0.37500    0.19477    1.000
    C450     C        0.37500    0.37500    0.17153    1.000
    N65      N        0.37500    0.37500    0.12934    1.000
    Ag2      Ag       0.37500    0.87500    0.59567    1.000
    C451     C        0.37500    0.87500    0.69477    1.000
    C452     C        0.37500    0.87500    0.67153    1.000
    N66      N        0.37500    0.87500    0.62934    1.000
    Ag3      Ag       0.87500    0.37500    0.59567    1.000
    C453     C        0.87500    0.37500    0.69477    1.000
    C454     C        0.87500    0.37500    0.67153    1.000
    N67      N        0.87500    0.37500    0.62934    1.000
    Ag4      Ag       0.87500    0.87500    0.09567    1.000
    C455     C        0.87500    0.87500    0.19477    1.000
    C456     C        0.87500    0.87500    0.17153    1.000
    N68      N        0.87500    0.87500    0.12934    1.000
    Ag5      Ag       0.62500    0.62500    0.34567    1.000
    C457     C        0.62500    0.62500    0.44477    1.000
    C458     C        0.62500    0.62500    0.42153    1.000
    N69      N        0.62500    0.62500    0.37934    1.000
    Ag6      Ag       0.62500    0.12500    0.84567    1.000
    C459     C        0.62500    0.12500    0.94477    1.000
    C460     C        0.62500    0.12500    0.92153    1.000
    N70      N        0.62500    0.12500    0.87934    1.000
    Ag7      Ag       0.12500    0.62500    0.84567    1.000
    C461     C        0.12500    0.62500    0.94477    1.000
    C462     C        0.12500    0.62500    0.92153    1.000
    N71      N        0.12500    0.62500    0.87934    1.000
    Ag8      Ag       0.12500    0.12500    0.34567    1.000
    C463     C        0.12500    0.12500    0.44477    1.000
    C464     C        0.12500    0.12500    0.42153    1.000
    N72      N        0.12500    0.12500    0.37934    1.000
    Fe1      Fe       0.62500    0.12500    0.99639    1.000
    Fe2      Fe       0.62500    0.62500    0.49639    1.000
    Fe3      Fe       0.12500    0.62500    0.99639    1.000
    Fe4      Fe       0.12500    0.12500    0.49639    1.000
    Fe5      Fe       0.87500    0.87500    0.24639    1.000
    Fe6      Fe       0.87500    0.37500    0.74639    1.000
    Fe7      Fe       0.37500    0.37500    0.24639    1.000
    Fe8      Fe       0.37500    0.87500    0.74639    1.000
    C465     C        0.23635    0.15210    0.76810    1.000
    H337     H        0.22920    0.12460    0.78050    1.000
    C466     C        0.28729    0.18360    0.76257    1.000
    H338     H        0.31990    0.18050    0.77020    1.000
    C467     C        0.28073    0.22040    0.74362    1.000
    H339     H        0.30790    0.24760    0.73600    1.000
    C468     C        0.22603    0.20910    0.73815    1.000
    C469     C        0.19830    0.23820    0.72093    1.000
    C470     C        0.14276    0.23710    0.71785    1.000
    C471     C        0.11366    0.27520    0.70203    1.000
    H340     H        0.12870    0.30260    0.69070    1.000
    C472     C        0.06020    0.26510    0.70614    1.000
    H341     H        0.03060    0.28520    0.69830    1.000
    C473     C        0.05634    0.21890    0.72438    1.000
    H342     H        0.02320    0.20340    0.73070    1.000
    C474     C        0.23436    0.27310    0.70460    1.000
    C475     C        0.25920    0.34550    0.70666    1.000
    H343     H        0.25140    0.37850    0.71810    1.000
    C476     C        0.29660    0.37200    0.69193    1.000
    H344     H        0.31390    0.42270    0.69380    1.000
    C477     C        0.28490    0.25660    0.67311    1.000
    C478     C        0.29910    0.20650    0.65534    1.000
    H345     H        0.32750    0.22250    0.64640    1.000
    C479     C        0.26810    0.12990    0.65159    1.000
    H346     H        0.27360    0.09930    0.63950    1.000
    C480     C        0.23410    0.10680    0.66498    1.000
    H347     H        0.21690    0.05610    0.66300    1.000
    C481     C        0.22060    0.15020    0.68211    1.000
    H348     H        0.19380    0.12860    0.69100    1.000
    C482     C        0.24570    0.22900    0.68741    1.000
    C483     C        0.34657    0.21770    0.52137    1.000
    H349     H        0.34290    0.19460    0.50820    1.000
    C484     C        0.34000    0.17250    0.53969    1.000
    H350     H        0.33100    0.11690    0.54110    1.000
    C485     C        0.34983    0.22820    0.55492    1.000
    H351     H        0.34860    0.21770    0.56910    1.000
    C486     C        0.36187    0.30210    0.54599    1.000
    C487     C        0.42290    0.36720    0.58880    1.000
    H352     H        0.45650    0.36020    0.58190    1.000
    C488     C        0.41980    0.36990    0.61050    1.000
    H353     H        0.45290    0.36780    0.61790    1.000
    C489     C        0.47350    0.35940    0.62120    1.000
    H354     H        0.47420    0.35990    0.63570    1.000
    C490     C        0.52190    0.34900    0.61070    1.000
    H355     H        0.55450    0.34660    0.61850    1.000
    C491     C        0.52600    0.34210    0.59020    1.000
    H356     H        0.55960    0.33260    0.58340    1.000
    C492     C        0.47430    0.35040    0.57930    1.000
    H357     H        0.47480    0.34430    0.56500    1.000
    N73      N        0.19920    0.16590    0.75361    1.000
    N74      N        0.10618    0.20020    0.73147    1.000
    N75      N        0.30836    0.33040    0.67590    1.000
    N76      N        0.35812    0.29400    0.52440    1.000
    C493     C        0.23635    0.65210    0.26810    1.000
    H358     H        0.22920    0.62460    0.28050    1.000
    C494     C        0.28729    0.68360    0.26257    1.000
    H359     H        0.31990    0.68050    0.27020    1.000
    C495     C        0.28073    0.72040    0.24362    1.000
    H360     H        0.30790    0.74760    0.23600    1.000
    C496     C        0.22603    0.70910    0.23815    1.000
    C497     C        0.19830    0.73820    0.22093    1.000
    C498     C        0.14276    0.73710    0.21785    1.000
    C499     C        0.11366    0.77520    0.20203    1.000
    H361     H        0.12870    0.80260    0.19070    1.000
    C500     C        0.06020    0.76510    0.20614    1.000
    H362     H        0.03060    0.78520    0.19830    1.000
    C501     C        0.05634    0.71890    0.22438    1.000
    H363     H        0.02320    0.70340    0.23070    1.000
    C502     C        0.23436    0.77310    0.20460    1.000
    C503     C        0.25920    0.84550    0.20666    1.000
    H364     H        0.25140    0.87850    0.21810    1.000
    C504     C        0.29660    0.87200    0.19193    1.000
    H365     H        0.31390    0.92270    0.19380    1.000
    C505     C        0.28490    0.75660    0.17311    1.000
    C506     C        0.29910    0.70650    0.15534    1.000
    H366     H        0.32750    0.72250    0.14640    1.000
    C507     C        0.26810    0.62990    0.15159    1.000
    H367     H        0.27360    0.59930    0.13950    1.000
    C508     C        0.23410    0.60680    0.16498    1.000
    H368     H        0.21690    0.55610    0.16300    1.000
    C509     C        0.22060    0.65020    0.18211    1.000
    H369     H        0.19380    0.62860    0.19100    1.000
    C510     C        0.24570    0.72900    0.18741    1.000
    C511     C        0.34657    0.71770    0.02137    1.000
    H370     H        0.34290    0.69460    0.00820    1.000
    C512     C        0.34000    0.67250    0.03969    1.000
    H371     H        0.33100    0.61690    0.04110    1.000
    C513     C        0.34983    0.72820    0.05492    1.000
    H372     H        0.34860    0.71770    0.06910    1.000
    C514     C        0.36187    0.80210    0.04599    1.000
    C515     C        0.42290    0.86720    0.08880    1.000
    H373     H        0.45650    0.86020    0.08190    1.000
    C516     C        0.41980    0.86990    0.11050    1.000
    H374     H        0.45290    0.86780    0.11790    1.000
    C517     C        0.47350    0.85940    0.12120    1.000
    H375     H        0.47420    0.85990    0.13570    1.000
    C518     C        0.52190    0.84900    0.11070    1.000
    H376     H        0.55450    0.84660    0.11850    1.000
    C519     C        0.52600    0.84210    0.09020    1.000
    H377     H        0.55960    0.83260    0.08340    1.000
    C520     C        0.47430    0.85040    0.07930    1.000
    H378     H        0.47480    0.84430    0.06500    1.000
    N77      N        0.19920    0.66590    0.25361    1.000
    N78      N        0.10618    0.70020    0.23147    1.000
    N79      N        0.30836    0.83040    0.17590    1.000
    N80      N        0.35812    0.79400    0.02440    1.000
    C521     C        0.73635    0.15210    0.26810    1.000
    H379     H        0.72920    0.12460    0.28050    1.000
    C522     C        0.78729    0.18360    0.26257    1.000
    H380     H        0.81990    0.18050    0.27020    1.000
    C523     C        0.78073    0.22040    0.24362    1.000
    H381     H        0.80790    0.24760    0.23600    1.000
    C524     C        0.72603    0.20910    0.23815    1.000
    C525     C        0.69830    0.23820    0.22093    1.000
    C526     C        0.64276    0.23710    0.21785    1.000
    C527     C        0.61366    0.27520    0.20203    1.000
    H382     H        0.62870    0.30260    0.19070    1.000
    C528     C        0.56020    0.26510    0.20614    1.000
    H383     H        0.53060    0.28520    0.19830    1.000
    C529     C        0.55634    0.21890    0.22438    1.000
    H384     H        0.52320    0.20340    0.23070    1.000
    C530     C        0.73436    0.27310    0.20460    1.000
    C531     C        0.75920    0.34550    0.20666    1.000
    H385     H        0.75140    0.37850    0.21810    1.000
    C532     C        0.79660    0.37200    0.19193    1.000
    H386     H        0.81390    0.42270    0.19380    1.000
    C533     C        0.78490    0.25660    0.17311    1.000
    C534     C        0.79910    0.20650    0.15534    1.000
    H387     H        0.82750    0.22250    0.14640    1.000
    C535     C        0.76810    0.12990    0.15159    1.000
    H388     H        0.77360    0.09930    0.13950    1.000
    C536     C        0.73410    0.10680    0.16498    1.000
    H389     H        0.71690    0.05610    0.16300    1.000
    C537     C        0.72060    0.15020    0.18211    1.000
    H390     H        0.69380    0.12860    0.19100    1.000
    C538     C        0.74570    0.22900    0.18741    1.000
    C539     C        0.84657    0.21770    0.02137    1.000
    H391     H        0.84290    0.19460    0.00820    1.000
    C540     C        0.84000    0.17250    0.03969    1.000
    H392     H        0.83100    0.11690    0.04110    1.000
    C541     C        0.84983    0.22820    0.05492    1.000
    H393     H        0.84860    0.21770    0.06910    1.000
    C542     C        0.86187    0.30210    0.04599    1.000
    C543     C        0.92290    0.36720    0.08880    1.000
    H394     H        0.95650    0.36020    0.08190    1.000
    C544     C        0.91980    0.36990    0.11050    1.000
    H395     H        0.95290    0.36780    0.11790    1.000
    C545     C        0.97350    0.35940    0.12120    1.000
    H396     H        0.97420    0.35990    0.13570    1.000
    C546     C        0.02190    0.34900    0.11070    1.000
    H397     H        0.05450    0.34660    0.11850    1.000
    C547     C        0.02600    0.34210    0.09020    1.000
    H398     H        0.05960    0.33260    0.08340    1.000
    C548     C        0.97430    0.35040    0.07930    1.000
    H399     H        0.97480    0.34430    0.06500    1.000
    N81      N        0.69920    0.16590    0.25361    1.000
    N82      N        0.60618    0.20020    0.23147    1.000
    N83      N        0.80836    0.33040    0.17590    1.000
    N84      N        0.85812    0.29400    0.02440    1.000
    C549     C        0.73635    0.65210    0.76810    1.000
    H400     H        0.72920    0.62460    0.78050    1.000
    C550     C        0.78729    0.68360    0.76257    1.000
    H401     H        0.81990    0.68050    0.77020    1.000
    C551     C        0.78073    0.72040    0.74362    1.000
    H402     H        0.80790    0.74760    0.73600    1.000
    C552     C        0.72603    0.70910    0.73815    1.000
    C553     C        0.69830    0.73820    0.72093    1.000
    C554     C        0.64276    0.73710    0.71785    1.000
    C555     C        0.61366    0.77520    0.70203    1.000
    H403     H        0.62870    0.80260    0.69070    1.000
    C556     C        0.56020    0.76510    0.70614    1.000
    H404     H        0.53060    0.78520    0.69830    1.000
    C557     C        0.55634    0.71890    0.72438    1.000
    H405     H        0.52320    0.70340    0.73070    1.000
    C558     C        0.73436    0.77310    0.70460    1.000
    C559     C        0.75920    0.84550    0.70666    1.000
    H406     H        0.75140    0.87850    0.71810    1.000
    C560     C        0.79660    0.87200    0.69193    1.000
    H407     H        0.81390    0.92270    0.69380    1.000
    C561     C        0.78490    0.75660    0.67311    1.000
    C562     C        0.79910    0.70650    0.65534    1.000
    H408     H        0.82750    0.72250    0.64640    1.000
    C563     C        0.76810    0.62990    0.65159    1.000
    H409     H        0.77360    0.59930    0.63950    1.000
    C564     C        0.73410    0.60680    0.66498    1.000
    H410     H        0.71690    0.55610    0.66300    1.000
    C565     C        0.72060    0.65020    0.68211    1.000
    H411     H        0.69380    0.62860    0.69100    1.000
    C566     C        0.74570    0.72900    0.68741    1.000
    C567     C        0.84657    0.71770    0.52137    1.000
    H412     H        0.84290    0.69460    0.50820    1.000
    C568     C        0.84000    0.67250    0.53969    1.000
    H413     H        0.83100    0.61690    0.54110    1.000
    C569     C        0.84983    0.72820    0.55492    1.000
    H414     H        0.84860    0.71770    0.56910    1.000
    C570     C        0.86187    0.80210    0.54599    1.000
    C571     C        0.92290    0.86720    0.58880    1.000
    H415     H        0.95650    0.86020    0.58190    1.000
    C572     C        0.91980    0.86990    0.61050    1.000
    H416     H        0.95290    0.86780    0.61790    1.000
    C573     C        0.97350    0.85940    0.62120    1.000
    H417     H        0.97420    0.85990    0.63570    1.000
    C574     C        0.02190    0.84900    0.61070    1.000
    H418     H        0.05450    0.84660    0.61850    1.000
    C575     C        0.02600    0.84210    0.59020    1.000
    H419     H        0.05960    0.83260    0.58340    1.000
    C576     C        0.97430    0.85040    0.57930    1.000
    H420     H        0.97480    0.84430    0.56500    1.000
    N85      N        0.69920    0.66590    0.75361    1.000
    N86      N        0.60618    0.70020    0.73147    1.000
    N87      N        0.80836    0.83040    0.67590    1.000
    N88      N        0.85812    0.79400    0.52440    1.000
    C577     C        0.51365    0.59790    0.76810    1.000
    H421     H        0.52080    0.62540    0.78050    1.000
    C578     C        0.46271    0.56640    0.76257    1.000
    H422     H        0.43010    0.56950    0.77020    1.000
    C579     C        0.46927    0.52960    0.74362    1.000
    H423     H        0.44210    0.50240    0.73600    1.000
    C580     C        0.52397    0.54090    0.73815    1.000
    C581     C        0.55170    0.51180    0.72093    1.000
    C582     C        0.60724    0.51290    0.71785    1.000
    C583     C        0.63634    0.47480    0.70203    1.000
    H424     H        0.62130    0.44740    0.69070    1.000
    C584     C        0.68980    0.48490    0.70614    1.000
    H425     H        0.71940    0.46480    0.69830    1.000
    C585     C        0.69366    0.53110    0.72438    1.000
    H426     H        0.72680    0.54660    0.73070    1.000
    C586     C        0.51564    0.47690    0.70460    1.000
    C587     C        0.49080    0.40450    0.70666    1.000
    H427     H        0.49860    0.37150    0.71810    1.000
    C588     C        0.45340    0.37800    0.69193    1.000
    H428     H        0.43610    0.32730    0.69380    1.000
    C589     C        0.46510    0.49340    0.67311    1.000
    C590     C        0.45090    0.54350    0.65534    1.000
    H429     H        0.42250    0.52750    0.64640    1.000
    C591     C        0.48190    0.62010    0.65159    1.000
    H430     H        0.47640    0.65070    0.63950    1.000
    C592     C        0.51590    0.64320    0.66498    1.000
    H431     H        0.53310    0.69390    0.66300    1.000
    C593     C        0.52940    0.59980    0.68211    1.000
    H432     H        0.55620    0.62140    0.69100    1.000
    C594     C        0.50430    0.52100    0.68741    1.000
    C595     C        0.40343    0.53230    0.52137    1.000
    H433     H        0.40710    0.55540    0.50820    1.000
    C596     C        0.41000    0.57750    0.53969    1.000
    H434     H        0.41900    0.63310    0.54110    1.000
    C597     C        0.40017    0.52180    0.55492    1.000
    H435     H        0.40140    0.53230    0.56910    1.000
    C598     C        0.38813    0.44790    0.54599    1.000
    C599     C        0.32710    0.38280    0.58880    1.000
    H436     H        0.29350    0.38980    0.58190    1.000
    C600     C        0.33020    0.38010    0.61050    1.000
    H437     H        0.29710    0.38220    0.61790    1.000
    C601     C        0.27650    0.39060    0.62120    1.000
    H438     H        0.27580    0.39010    0.63570    1.000
    C602     C        0.22810    0.40100    0.61070    1.000
    H439     H        0.19550    0.40340    0.61850    1.000
    C603     C        0.22400    0.40790    0.59020    1.000
    H440     H        0.19040    0.41740    0.58340    1.000
    C604     C        0.27570    0.39960    0.57930    1.000
    H441     H        0.27520    0.40570    0.56500    1.000
    N89      N        0.55080    0.58410    0.75361    1.000
    N90      N        0.64382    0.54980    0.73147    1.000
    N91      N        0.44164    0.41960    0.67590    1.000
    N92      N        0.39188    0.45600    0.52440    1.000
    C605     C        0.51365    0.09790    0.26810    1.000
    H442     H        0.52080    0.12540    0.28050    1.000
    C606     C        0.46271    0.06640    0.26257    1.000
    H443     H        0.43010    0.06950    0.27020    1.000
    C607     C        0.46927    0.02960    0.24362    1.000
    H444     H        0.44210    0.00240    0.23600    1.000
    C608     C        0.52397    0.04090    0.23815    1.000
    C609     C        0.55170    0.01180    0.22093    1.000
    C610     C        0.60724    0.01290    0.21785    1.000
    C611     C        0.63634    0.97480    0.20203    1.000
    H445     H        0.62130    0.94740    0.19070    1.000
    C612     C        0.68980    0.98490    0.20614    1.000
    H446     H        0.71940    0.96480    0.19830    1.000
    C613     C        0.69366    0.03110    0.22438    1.000
    H447     H        0.72680    0.04660    0.23070    1.000
    C614     C        0.51564    0.97690    0.20460    1.000
    C615     C        0.49080    0.90450    0.20666    1.000
    H448     H        0.49860    0.87150    0.21810    1.000
    C616     C        0.45340    0.87800    0.19193    1.000
    H449     H        0.43610    0.82730    0.19380    1.000
    C617     C        0.46510    0.99340    0.17311    1.000
    C618     C        0.45090    0.04350    0.15534    1.000
    H450     H        0.42250    0.02750    0.14640    1.000
    C619     C        0.48190    0.12010    0.15159    1.000
    H451     H        0.47640    0.15070    0.13950    1.000
    C620     C        0.51590    0.14320    0.16498    1.000
    H452     H        0.53310    0.19390    0.16300    1.000
    C621     C        0.52940    0.09980    0.18211    1.000
    H453     H        0.55620    0.12140    0.19100    1.000
    C622     C        0.50430    0.02100    0.18741    1.000
    C623     C        0.40343    0.03230    0.02137    1.000
    H454     H        0.40710    0.05540    0.00820    1.000
    C624     C        0.41000    0.07750    0.03969    1.000
    H455     H        0.41900    0.13310    0.04110    1.000
    C625     C        0.40017    0.02180    0.05492    1.000
    H456     H        0.40140    0.03230    0.06910    1.000
    C626     C        0.38813    0.94790    0.04599    1.000
    C627     C        0.32710    0.88280    0.08880    1.000
    H457     H        0.29350    0.88980    0.08190    1.000
    C628     C        0.33020    0.88010    0.11050    1.000
    H458     H        0.29710    0.88220    0.11790    1.000
    C629     C        0.27650    0.89060    0.12120    1.000
    H459     H        0.27580    0.89010    0.13570    1.000
    C630     C        0.22810    0.90100    0.11070    1.000
    H460     H        0.19550    0.90340    0.11850    1.000
    C631     C        0.22400    0.90790    0.09020    1.000
    H461     H        0.19040    0.91740    0.08340    1.000
    C632     C        0.27570    0.89960    0.07930    1.000
    H462     H        0.27520    0.90570    0.06500    1.000
    N93      N        0.55080    0.08410    0.25361    1.000
    N94      N        0.64382    0.04980    0.23147    1.000
    N95      N        0.44164    0.91960    0.17590    1.000
    N96      N        0.39188    0.95600    0.02440    1.000
    C633     C        0.01365    0.59790    0.26810    1.000
    H463     H        0.02080    0.62540    0.28050    1.000
    C634     C        0.96271    0.56640    0.26257    1.000
    H464     H        0.93010    0.56950    0.27020    1.000
    C635     C        0.96927    0.52960    0.24362    1.000
    H465     H        0.94210    0.50240    0.23600    1.000
    C636     C        0.02397    0.54090    0.23815    1.000
    C637     C        0.05170    0.51180    0.22093    1.000
    C638     C        0.10724    0.51290    0.21785    1.000
    C639     C        0.13634    0.47480    0.20203    1.000
    H466     H        0.12130    0.44740    0.19070    1.000
    C640     C        0.18980    0.48490    0.20614    1.000
    H467     H        0.21940    0.46480    0.19830    1.000
    C641     C        0.19366    0.53110    0.22438    1.000
    H468     H        0.22680    0.54660    0.23070    1.000
    C642     C        0.01564    0.47690    0.20460    1.000
    C643     C        0.99080    0.40450    0.20666    1.000
    H469     H        0.99860    0.37150    0.21810    1.000
    C644     C        0.95340    0.37800    0.19193    1.000
    H470     H        0.93610    0.32730    0.19380    1.000
    C645     C        0.96510    0.49340    0.17311    1.000
    C646     C        0.95090    0.54350    0.15534    1.000
    H471     H        0.92250    0.52750    0.14640    1.000
    C647     C        0.98190    0.62010    0.15159    1.000
    H472     H        0.97640    0.65070    0.13950    1.000
    C648     C        0.01590    0.64320    0.16498    1.000
    H473     H        0.03310    0.69390    0.16300    1.000
    C649     C        0.02940    0.59980    0.18211    1.000
    H474     H        0.05620    0.62140    0.19100    1.000
    C650     C        0.00430    0.52100    0.18741    1.000
    C651     C        0.90343    0.53230    0.02137    1.000
    H475     H        0.90710    0.55540    0.00820    1.000
    C652     C        0.91000    0.57750    0.03969    1.000
    H476     H        0.91900    0.63310    0.04110    1.000
    C653     C        0.90017    0.52180    0.05492    1.000
    H477     H        0.90140    0.53230    0.06910    1.000
    C654     C        0.88813    0.44790    0.04599    1.000
    C655     C        0.82710    0.38280    0.08880    1.000
    H478     H        0.79350    0.38980    0.08190    1.000
    C656     C        0.83020    0.38010    0.11050    1.000
    H479     H        0.79710    0.38220    0.11790    1.000
    C657     C        0.77650    0.39060    0.12120    1.000
    H480     H        0.77580    0.39010    0.13570    1.000
    C658     C        0.72810    0.40100    0.11070    1.000
    H481     H        0.69550    0.40340    0.11850    1.000
    C659     C        0.72400    0.40790    0.09020    1.000
    H482     H        0.69040    0.41740    0.08340    1.000
    C660     C        0.77570    0.39960    0.07930    1.000
    H483     H        0.77520    0.40570    0.06500    1.000
    N97      N        0.05080    0.58410    0.25361    1.000
    N98      N        0.14382    0.54980    0.23147    1.000
    N99      N        0.94164    0.41960    0.17590    1.000
    N100     N        0.89188    0.45600    0.02440    1.000
    C661     C        0.01365    0.09790    0.76810    1.000
    H484     H        0.02080    0.12540    0.78050    1.000
    C662     C        0.96271    0.06640    0.76257    1.000
    H485     H        0.93010    0.06950    0.77020    1.000
    C663     C        0.96927    0.02960    0.74362    1.000
    H486     H        0.94210    0.00240    0.73600    1.000
    C664     C        0.02397    0.04090    0.73815    1.000
    C665     C        0.05170    0.01180    0.72093    1.000
    C666     C        0.10724    0.01290    0.71785    1.000
    C667     C        0.13634    0.97480    0.70203    1.000
    H487     H        0.12130    0.94740    0.69070    1.000
    C668     C        0.18980    0.98490    0.70614    1.000
    H488     H        0.21940    0.96480    0.69830    1.000
    C669     C        0.19366    0.03110    0.72438    1.000
    H489     H        0.22680    0.04660    0.73070    1.000
    C670     C        0.01564    0.97690    0.70460    1.000
    C671     C        0.99080    0.90450    0.70666    1.000
    H490     H        0.99860    0.87150    0.71810    1.000
    C672     C        0.95340    0.87800    0.69193    1.000
    H491     H        0.93610    0.82730    0.69380    1.000
    C673     C        0.96510    0.99340    0.67311    1.000
    C674     C        0.95090    0.04350    0.65534    1.000
    H492     H        0.92250    0.02750    0.64640    1.000
    C675     C        0.98190    0.12010    0.65159    1.000
    H493     H        0.97640    0.15070    0.63950    1.000
    C676     C        0.01590    0.14320    0.66498    1.000
    H494     H        0.03310    0.19390    0.66300    1.000
    C677     C        0.02940    0.09980    0.68211    1.000
    H495     H        0.05620    0.12140    0.69100    1.000
    C678     C        0.00430    0.02100    0.68741    1.000
    C679     C        0.90343    0.03230    0.52137    1.000
    H496     H        0.90710    0.05540    0.50820    1.000
    C680     C        0.91000    0.07750    0.53969    1.000
    H497     H        0.91900    0.13310    0.54110    1.000
    C681     C        0.90017    0.02180    0.55492    1.000
    H498     H        0.90140    0.03230    0.56910    1.000
    C682     C        0.88813    0.94790    0.54599    1.000
    C683     C        0.82710    0.88280    0.58880    1.000
    H499     H        0.79350    0.88980    0.58190    1.000
    C684     C        0.83020    0.88010    0.61050    1.000
    H500     H        0.79710    0.88220    0.61790    1.000
    C685     C        0.77650    0.89060    0.62120    1.000
    H501     H        0.77580    0.89010    0.63570    1.000
    C686     C        0.72810    0.90100    0.61070    1.000
    H502     H        0.69550    0.90340    0.61850    1.000
    C687     C        0.72400    0.90790    0.59020    1.000
    H503     H        0.69040    0.91740    0.58340    1.000
    C688     C        0.77570    0.89960    0.57930    1.000
    H504     H        0.77520    0.90570    0.56500    1.000
    N101     N        0.05080    0.08410    0.75361    1.000
    N102     N        0.14382    0.04980    0.73147    1.000
    N103     N        0.94164    0.91960    0.67590    1.000
    N104     N        0.89188    0.95600    0.52440    1.000
    C689     C        0.48635    0.84790    0.01810    1.000
    H505     H        0.47920    0.87540    0.03050    1.000
    C690     C        0.53729    0.81640    0.01257    1.000
    H506     H        0.56990    0.81950    0.02020    1.000
    C691     C        0.53073    0.77960    0.99362    1.000
    H507     H        0.55790    0.75240    0.98600    1.000
    C692     C        0.47603    0.79090    0.98815    1.000
    C693     C        0.44830    0.76180    0.97093    1.000
    C694     C        0.39276    0.76290    0.96785    1.000
    C695     C        0.36366    0.72480    0.95203    1.000
    H508     H        0.37870    0.69740    0.94070    1.000
    C696     C        0.31020    0.73490    0.95614    1.000
    H509     H        0.28060    0.71480    0.94830    1.000
    C697     C        0.30634    0.78110    0.97438    1.000
    H510     H        0.27320    0.79660    0.98070    1.000
    C698     C        0.48436    0.72690    0.95460    1.000
    C699     C        0.50920    0.65450    0.95666    1.000
    H511     H        0.50140    0.62150    0.96810    1.000
    C700     C        0.54660    0.62800    0.94193    1.000
    H512     H        0.56390    0.57730    0.94380    1.000
    C701     C        0.53490    0.74340    0.92311    1.000
    C702     C        0.54910    0.79350    0.90534    1.000
    H513     H        0.57750    0.77750    0.89640    1.000
    C703     C        0.51810    0.87010    0.90159    1.000
    H514     H        0.52360    0.90070    0.88950    1.000
    C704     C        0.48410    0.89320    0.91498    1.000
    H515     H        0.46690    0.94390    0.91300    1.000
    C705     C        0.47060    0.84980    0.93211    1.000
    H516     H        0.44380    0.87140    0.94100    1.000
    C706     C        0.49570    0.77100    0.93741    1.000
    C707     C        0.59657    0.78230    0.77137    1.000
    H517     H        0.59290    0.80540    0.75820    1.000
    C708     C        0.59000    0.82750    0.78969    1.000
    H518     H        0.58100    0.88310    0.79110    1.000
    C709     C        0.59983    0.77180    0.80492    1.000
    H519     H        0.59860    0.78230    0.81910    1.000
    C710     C        0.61187    0.69790    0.79599    1.000
    C711     C        0.67290    0.63280    0.83880    1.000
    H520     H        0.70650    0.63980    0.83190    1.000
    C712     C        0.66980    0.63010    0.86050    1.000
    H521     H        0.70290    0.63220    0.86790    1.000
    C713     C        0.72350    0.64060    0.87120    1.000
    H522     H        0.72420    0.64010    0.88570    1.000
    C714     C        0.77190    0.65100    0.86070    1.000
    H523     H        0.80450    0.65340    0.86850    1.000
    C715     C        0.77600    0.65790    0.84020    1.000
    H524     H        0.80960    0.66740    0.83340    1.000
    C716     C        0.72430    0.64960    0.82930    1.000
    H525     H        0.72480    0.65570    0.81500    1.000
    N105     N        0.44920    0.83410    0.00361    1.000
    N106     N        0.35618    0.79980    0.98147    1.000
    N107     N        0.55836    0.66960    0.92590    1.000
    N108     N        0.60812    0.70600    0.77440    1.000
    C717     C        0.48635    0.34790    0.51810    1.000
    H526     H        0.47920    0.37540    0.53050    1.000
    C718     C        0.53729    0.31640    0.51257    1.000
    H527     H        0.56990    0.31950    0.52020    1.000
    C719     C        0.53073    0.27960    0.49362    1.000
    H528     H        0.55790    0.25240    0.48600    1.000
    C720     C        0.47603    0.29090    0.48815    1.000
    C721     C        0.44830    0.26180    0.47093    1.000
    C722     C        0.39276    0.26290    0.46785    1.000
    C723     C        0.36366    0.22480    0.45203    1.000
    H529     H        0.37870    0.19740    0.44070    1.000
    C724     C        0.31020    0.23490    0.45614    1.000
    H530     H        0.28060    0.21480    0.44830    1.000
    C725     C        0.30634    0.28110    0.47438    1.000
    H531     H        0.27320    0.29660    0.48070    1.000
    C726     C        0.48436    0.22690    0.45460    1.000
    C727     C        0.50920    0.15450    0.45666    1.000
    H532     H        0.50140    0.12150    0.46810    1.000
    C728     C        0.54660    0.12800    0.44193    1.000
    H533     H        0.56390    0.07730    0.44380    1.000
    C729     C        0.53490    0.24340    0.42311    1.000
    C730     C        0.54910    0.29350    0.40534    1.000
    H534     H        0.57750    0.27750    0.39640    1.000
    C731     C        0.51810    0.37010    0.40159    1.000
    H535     H        0.52360    0.40070    0.38950    1.000
    C732     C        0.48410    0.39320    0.41498    1.000
    H536     H        0.46690    0.44390    0.41300    1.000
    C733     C        0.47060    0.34980    0.43211    1.000
    H537     H        0.44380    0.37140    0.44100    1.000
    C734     C        0.49570    0.27100    0.43741    1.000
    C735     C        0.59657    0.28230    0.27137    1.000
    H538     H        0.59290    0.30540    0.25820    1.000
    C736     C        0.59000    0.32750    0.28969    1.000
    H539     H        0.58100    0.38310    0.29110    1.000
    C737     C        0.59983    0.27180    0.30492    1.000
    H540     H        0.59860    0.28230    0.31910    1.000
    C738     C        0.61187    0.19790    0.29599    1.000
    C739     C        0.67290    0.13280    0.33880    1.000
    H541     H        0.70650    0.13980    0.33190    1.000
    C740     C        0.66980    0.13010    0.36050    1.000
    H542     H        0.70290    0.13220    0.36790    1.000
    C741     C        0.72350    0.14060    0.37120    1.000
    H543     H        0.72420    0.14010    0.38570    1.000
    C742     C        0.77190    0.15100    0.36070    1.000
    H544     H        0.80450    0.15340    0.36850    1.000
    C743     C        0.77600    0.15790    0.34020    1.000
    H545     H        0.80960    0.16740    0.33340    1.000
    C744     C        0.72430    0.14960    0.32930    1.000
    H546     H        0.72480    0.15570    0.31500    1.000
    N109     N        0.44920    0.33410    0.50361    1.000
    N110     N        0.35618    0.29980    0.48147    1.000
    N111     N        0.55836    0.16960    0.42590    1.000
    N112     N        0.60812    0.20600    0.27440    1.000
    C745     C        0.98635    0.84790    0.51810    1.000
    H547     H        0.97920    0.87540    0.53050    1.000
    C746     C        0.03729    0.81640    0.51257    1.000
    H548     H        0.06990    0.81950    0.52020    1.000
    C747     C        0.03073    0.77960    0.49362    1.000
    H549     H        0.05790    0.75240    0.48600    1.000
    C748     C        0.97603    0.79090    0.48815    1.000
    C749     C        0.94830    0.76180    0.47093    1.000
    C750     C        0.89276    0.76290    0.46785    1.000
    C751     C        0.86366    0.72480    0.45203    1.000
    H550     H        0.87870    0.69740    0.44070    1.000
    C752     C        0.81020    0.73490    0.45614    1.000
    H551     H        0.78060    0.71480    0.44830    1.000
    C753     C        0.80634    0.78110    0.47438    1.000
    H552     H        0.77320    0.79660    0.48070    1.000
    C754     C        0.98436    0.72690    0.45460    1.000
    C755     C        0.00920    0.65450    0.45666    1.000
    H553     H        0.00140    0.62150    0.46810    1.000
    C756     C        0.04660    0.62800    0.44193    1.000
    H554     H        0.06390    0.57730    0.44380    1.000
    C757     C        0.03490    0.74340    0.42311    1.000
    C758     C        0.04910    0.79350    0.40534    1.000
    H555     H        0.07750    0.77750    0.39640    1.000
    C759     C        0.01810    0.87010    0.40159    1.000
    H556     H        0.02360    0.90070    0.38950    1.000
    C760     C        0.98410    0.89320    0.41498    1.000
    H557     H        0.96690    0.94390    0.41300    1.000
    C761     C        0.97060    0.84980    0.43211    1.000
    H558     H        0.94380    0.87140    0.44100    1.000
    C762     C        0.99570    0.77100    0.43741    1.000
    C763     C        0.09657    0.78230    0.27137    1.000
    H559     H        0.09290    0.80540    0.25820    1.000
    C764     C        0.09000    0.82750    0.28969    1.000
    H560     H        0.08100    0.88310    0.29110    1.000
    C765     C        0.09983    0.77180    0.30492    1.000
    H561     H        0.09860    0.78230    0.31910    1.000
    C766     C        0.11187    0.69790    0.29599    1.000
    C767     C        0.17290    0.63280    0.33880    1.000
    H562     H        0.20650    0.63980    0.33190    1.000
    C768     C        0.16980    0.63010    0.36050    1.000
    H563     H        0.20290    0.63220    0.36790    1.000
    C769     C        0.22350    0.64060    0.37120    1.000
    H564     H        0.22420    0.64010    0.38570    1.000
    C770     C        0.27190    0.65100    0.36070    1.000
    H565     H        0.30450    0.65340    0.36850    1.000
    C771     C        0.27600    0.65790    0.34020    1.000
    H566     H        0.30960    0.66740    0.33340    1.000
    C772     C        0.22430    0.64960    0.32930    1.000
    H567     H        0.22480    0.65570    0.31500    1.000
    N113     N        0.94920    0.83410    0.50361    1.000
    N114     N        0.85618    0.79980    0.48147    1.000
    N115     N        0.05836    0.66960    0.42590    1.000
    N116     N        0.10812    0.70600    0.27440    1.000
    C773     C        0.98635    0.34790    0.01810    1.000
    H568     H        0.97920    0.37540    0.03050    1.000
    C774     C        0.03729    0.31640    0.01257    1.000
    H569     H        0.06990    0.31950    0.02020    1.000
    C775     C        0.03073    0.27960    0.99362    1.000
    H570     H        0.05790    0.25240    0.98600    1.000
    C776     C        0.97603    0.29090    0.98815    1.000
    C777     C        0.94830    0.26180    0.97093    1.000
    C778     C        0.89276    0.26290    0.96785    1.000
    C779     C        0.86366    0.22480    0.95203    1.000
    H571     H        0.87870    0.19740    0.94070    1.000
    C780     C        0.81020    0.23490    0.95614    1.000
    H572     H        0.78060    0.21480    0.94830    1.000
    C781     C        0.80634    0.28110    0.97438    1.000
    H573     H        0.77320    0.29660    0.98070    1.000
    C782     C        0.98436    0.22690    0.95460    1.000
    C783     C        0.00920    0.15450    0.95666    1.000
    H574     H        0.00140    0.12150    0.96810    1.000
    C784     C        0.04660    0.12800    0.94193    1.000
    H575     H        0.06390    0.07730    0.94380    1.000
    C785     C        0.03490    0.24340    0.92311    1.000
    C786     C        0.04910    0.29350    0.90534    1.000
    H576     H        0.07750    0.27750    0.89640    1.000
    C787     C        0.01810    0.37010    0.90159    1.000
    H577     H        0.02360    0.40070    0.88950    1.000
    C788     C        0.98410    0.39320    0.91498    1.000
    H578     H        0.96690    0.44390    0.91300    1.000
    C789     C        0.97060    0.34980    0.93211    1.000
    H579     H        0.94380    0.37140    0.94100    1.000
    C790     C        0.99570    0.27100    0.93741    1.000
    C791     C        0.09657    0.28230    0.77137    1.000
    H580     H        0.09290    0.30540    0.75820    1.000
    C792     C        0.09000    0.32750    0.78969    1.000
    H581     H        0.08100    0.38310    0.79110    1.000
    C793     C        0.09983    0.27180    0.80492    1.000
    H582     H        0.09860    0.28230    0.81910    1.000
    C794     C        0.11187    0.19790    0.79599    1.000
    C795     C        0.17290    0.13280    0.83880    1.000
    H583     H        0.20650    0.13980    0.83190    1.000
    C796     C        0.16980    0.13010    0.86050    1.000
    H584     H        0.20290    0.13220    0.86790    1.000
    C797     C        0.22350    0.14060    0.87120    1.000
    H585     H        0.22420    0.14010    0.88570    1.000
    C798     C        0.27190    0.15100    0.86070    1.000
    H586     H        0.30450    0.15340    0.86850    1.000
    C799     C        0.27600    0.15790    0.84020    1.000
    H587     H        0.30960    0.16740    0.83340    1.000
    C800     C        0.22430    0.14960    0.82930    1.000
    H588     H        0.22480    0.15570    0.81500    1.000
    N117     N        0.94920    0.33410    0.00361    1.000
    N118     N        0.85618    0.29980    0.98147    1.000
    N119     N        0.05836    0.16960    0.92590    1.000
    N120     N        0.10812    0.20600    0.77440    1.000
    C801     C        0.76365    0.40210    0.01810    1.000
    H589     H        0.77080    0.37460    0.03050    1.000
    C802     C        0.71271    0.43360    0.01257    1.000
    H590     H        0.68010    0.43050    0.02020    1.000
    C803     C        0.71927    0.47040    0.99362    1.000
    H591     H        0.69210    0.49760    0.98600    1.000
    C804     C        0.77397    0.45910    0.98815    1.000
    C805     C        0.80170    0.48820    0.97093    1.000
    C806     C        0.85724    0.48710    0.96785    1.000
    C807     C        0.88634    0.52520    0.95203    1.000
    H592     H        0.87130    0.55260    0.94070    1.000
    C808     C        0.93980    0.51510    0.95614    1.000
    H593     H        0.96940    0.53520    0.94830    1.000
    C809     C        0.94366    0.46890    0.97438    1.000
    H594     H        0.97680    0.45340    0.98070    1.000
    C810     C        0.76564    0.52310    0.95460    1.000
    C811     C        0.74080    0.59550    0.95666    1.000
    H595     H        0.74860    0.62850    0.96810    1.000
    C812     C        0.70340    0.62200    0.94193    1.000
    H596     H        0.68610    0.67270    0.94380    1.000
    C813     C        0.71510    0.50660    0.92311    1.000
    C814     C        0.70090    0.45650    0.90534    1.000
    H597     H        0.67250    0.47250    0.89640    1.000
    C815     C        0.73190    0.37990    0.90159    1.000
    H598     H        0.72640    0.34930    0.88950    1.000
    C816     C        0.76590    0.35680    0.91498    1.000
    H599     H        0.78310    0.30610    0.91300    1.000
    C817     C        0.77940    0.40020    0.93211    1.000
    H600     H        0.80620    0.37860    0.94100    1.000
    C818     C        0.75430    0.47900    0.93741    1.000
    C819     C        0.65343    0.46770    0.77137    1.000
    H601     H        0.65710    0.44460    0.75820    1.000
    C820     C        0.66000    0.42250    0.78969    1.000
    H602     H        0.66900    0.36690    0.79110    1.000
    C821     C        0.65017    0.47820    0.80492    1.000
    H603     H        0.65140    0.46770    0.81910    1.000
    C822     C        0.63813    0.55210    0.79599    1.000
    C823     C        0.57710    0.61720    0.83880    1.000
    H604     H        0.54350    0.61020    0.83190    1.000
    C824     C        0.58020    0.61990    0.86050    1.000
    H605     H        0.54710    0.61780    0.86790    1.000
    C825     C        0.52650    0.60940    0.87120    1.000
    H606     H        0.52580    0.60990    0.88570    1.000
    C826     C        0.47810    0.59900    0.86070    1.000
    H607     H        0.44550    0.59660    0.86850    1.000
    C827     C        0.47400    0.59210    0.84020    1.000
    H608     H        0.44040    0.58260    0.83340    1.000
    C828     C        0.52570    0.60040    0.82930    1.000
    H609     H        0.52520    0.59430    0.81500    1.000
    N121     N        0.80080    0.41590    0.00361    1.000
    N122     N        0.89382    0.45020    0.98147    1.000
    N123     N        0.69164    0.58040    0.92590    1.000
    N124     N        0.64188    0.54400    0.77440    1.000
    C829     C        0.76365    0.90210    0.51810    1.000
    H610     H        0.77080    0.87460    0.53050    1.000
    C830     C        0.71271    0.93360    0.51257    1.000
    H611     H        0.68010    0.93050    0.52020    1.000
    C831     C        0.71927    0.97040    0.49362    1.000
    H612     H        0.69210    0.99760    0.48600    1.000
    C832     C        0.77397    0.95910    0.48815    1.000
    C833     C        0.80170    0.98820    0.47093    1.000
    C834     C        0.85724    0.98710    0.46785    1.000
    C835     C        0.88634    0.02520    0.45203    1.000
    H613     H        0.87130    0.05260    0.44070    1.000
    C836     C        0.93980    0.01510    0.45614    1.000
    H614     H        0.96940    0.03520    0.44830    1.000
    C837     C        0.94366    0.96890    0.47438    1.000
    H615     H        0.97680    0.95340    0.48070    1.000
    C838     C        0.76564    0.02310    0.45460    1.000
    C839     C        0.74080    0.09550    0.45666    1.000
    H616     H        0.74860    0.12850    0.46810    1.000
    C840     C        0.70340    0.12200    0.44193    1.000
    H617     H        0.68610    0.17270    0.44380    1.000
    C841     C        0.71510    0.00660    0.42311    1.000
    C842     C        0.70090    0.95650    0.40534    1.000
    H618     H        0.67250    0.97250    0.39640    1.000
    C843     C        0.73190    0.87990    0.40159    1.000
    H619     H        0.72640    0.84930    0.38950    1.000
    C844     C        0.76590    0.85680    0.41498    1.000
    H620     H        0.78310    0.80610    0.41300    1.000
    C845     C        0.77940    0.90020    0.43211    1.000
    H621     H        0.80620    0.87860    0.44100    1.000
    C846     C        0.75430    0.97900    0.43741    1.000
    C847     C        0.65343    0.96770    0.27137    1.000
    H622     H        0.65710    0.94460    0.25820    1.000
    C848     C        0.66000    0.92250    0.28969    1.000
    H623     H        0.66900    0.86690    0.29110    1.000
    C849     C        0.65017    0.97820    0.30492    1.000
    H624     H        0.65140    0.96770    0.31910    1.000
    C850     C        0.63813    0.05210    0.29599    1.000
    C851     C        0.57710    0.11720    0.33880    1.000
    H625     H        0.54350    0.11020    0.33190    1.000
    C852     C        0.58020    0.11990    0.36050    1.000
    H626     H        0.54710    0.11780    0.36790    1.000
    C853     C        0.52650    0.10940    0.37120    1.000
    H627     H        0.52580    0.10990    0.38570    1.000
    C854     C        0.47810    0.09900    0.36070    1.000
    H628     H        0.44550    0.09660    0.36850    1.000
    C855     C        0.47400    0.09210    0.34020    1.000
    H629     H        0.44040    0.08260    0.33340    1.000
    C856     C        0.52570    0.10040    0.32930    1.000
    H630     H        0.52520    0.09430    0.31500    1.000
    N125     N        0.80080    0.91590    0.50361    1.000
    N126     N        0.89382    0.95020    0.48147    1.000
    N127     N        0.69164    0.08040    0.42590    1.000
    N128     N        0.64188    0.04400    0.27440    1.000
    C857     C        0.26365    0.40210    0.51810    1.000
    H631     H        0.27080    0.37460    0.53050    1.000
    C858     C        0.21271    0.43360    0.51257    1.000
    H632     H        0.18010    0.43050    0.52020    1.000
    C859     C        0.21927    0.47040    0.49362    1.000
    H633     H        0.19210    0.49760    0.48600    1.000
    C860     C        0.27397    0.45910    0.48815    1.000
    C861     C        0.30170    0.48820    0.47093    1.000
    C862     C        0.35724    0.48710    0.46785    1.000
    C863     C        0.38634    0.52520    0.45203    1.000
    H634     H        0.37130    0.55260    0.44070    1.000
    C864     C        0.43980    0.51510    0.45614    1.000
    H635     H        0.46940    0.53520    0.44830    1.000
    C865     C        0.44366    0.46890    0.47438    1.000
    H636     H        0.47680    0.45340    0.48070    1.000
    C866     C        0.26564    0.52310    0.45460    1.000
    C867     C        0.24080    0.59550    0.45666    1.000
    H637     H        0.24860    0.62850    0.46810    1.000
    C868     C        0.20340    0.62200    0.44193    1.000
    H638     H        0.18610    0.67270    0.44380    1.000
    C869     C        0.21510    0.50660    0.42311    1.000
    C870     C        0.20090    0.45650    0.40534    1.000
    H639     H        0.17250    0.47250    0.39640    1.000
    C871     C        0.23190    0.37990    0.40159    1.000
    H640     H        0.22640    0.34930    0.38950    1.000
    C872     C        0.26590    0.35680    0.41498    1.000
    H641     H        0.28310    0.30610    0.41300    1.000
    C873     C        0.27940    0.40020    0.43211    1.000
    H642     H        0.30620    0.37860    0.44100    1.000
    C874     C        0.25430    0.47900    0.43741    1.000
    C875     C        0.15343    0.46770    0.27137    1.000
    H643     H        0.15710    0.44460    0.25820    1.000
    C876     C        0.16000    0.42250    0.28969    1.000
    H644     H        0.16900    0.36690    0.29110    1.000
    C877     C        0.15017    0.47820    0.30492    1.000
    H645     H        0.15140    0.46770    0.31910    1.000
    C878     C        0.13813    0.55210    0.29599    1.000
    C879     C        0.07710    0.61720    0.33880    1.000
    H646     H        0.04350    0.61020    0.33190    1.000
    C880     C        0.08020    0.61990    0.36050    1.000
    H647     H        0.04710    0.61780    0.36790    1.000
    C881     C        0.02650    0.60940    0.37120    1.000
    H648     H        0.02580    0.60990    0.38570    1.000
    C882     C        0.97810    0.59900    0.36070    1.000
    H649     H        0.94550    0.59660    0.36850    1.000
    C883     C        0.97400    0.59210    0.34020    1.000
    H650     H        0.94040    0.58260    0.33340    1.000
    C884     C        0.02570    0.60040    0.32930    1.000
    H651     H        0.02520    0.59430    0.31500    1.000
    N129     N        0.30080    0.41590    0.50361    1.000
    N130     N        0.39382    0.45020    0.48147    1.000
    N131     N        0.19164    0.58040    0.42590    1.000
    N132     N        0.14188    0.54400    0.27440    1.000
    C885     C        0.26365    0.90210    0.01810    1.000
    H652     H        0.27080    0.87460    0.03050    1.000
    C886     C        0.21271    0.93360    0.01257    1.000
    H653     H        0.18010    0.93050    0.02020    1.000
    C887     C        0.21927    0.97040    0.99362    1.000
    H654     H        0.19210    0.99760    0.98600    1.000
    C888     C        0.27397    0.95910    0.98815    1.000
    C889     C        0.30170    0.98820    0.97093    1.000
    C890     C        0.35724    0.98710    0.96785    1.000
    C891     C        0.38634    0.02520    0.95203    1.000
    H655     H        0.37130    0.05260    0.94070    1.000
    C892     C        0.43980    0.01510    0.95614    1.000
    H656     H        0.46940    0.03520    0.94830    1.000
    C893     C        0.44366    0.96890    0.97438    1.000
    H657     H        0.47680    0.95340    0.98070    1.000
    C894     C        0.26564    0.02310    0.95460    1.000
    C895     C        0.24080    0.09550    0.95666    1.000
    H658     H        0.24860    0.12850    0.96810    1.000
    C896     C        0.20340    0.12200    0.94193    1.000
    H659     H        0.18610    0.17270    0.94380    1.000
    C897     C        0.21510    0.00660    0.92311    1.000
    C898     C        0.20090    0.95650    0.90534    1.000
    H660     H        0.17250    0.97250    0.89640    1.000
    C899     C        0.23190    0.87990    0.90159    1.000
    H661     H        0.22640    0.84930    0.88950    1.000
    C900     C        0.26590    0.85680    0.91498    1.000
    H662     H        0.28310    0.80610    0.91300    1.000
    C901     C        0.27940    0.90020    0.93211    1.000
    H663     H        0.30620    0.87860    0.94100    1.000
    C902     C        0.25430    0.97900    0.93741    1.000
    C903     C        0.15343    0.96770    0.77137    1.000
    H664     H        0.15710    0.94460    0.75820    1.000
    C904     C        0.16000    0.92250    0.78969    1.000
    H665     H        0.16900    0.86690    0.79110    1.000
    C905     C        0.15017    0.97820    0.80492    1.000
    H666     H        0.15140    0.96770    0.81910    1.000
    C906     C        0.13813    0.05210    0.79599    1.000
    C907     C        0.07710    0.11720    0.83880    1.000
    H667     H        0.04350    0.11020    0.83190    1.000
    C908     C        0.08020    0.11990    0.86050    1.000
    H668     H        0.04710    0.11780    0.86790    1.000
    C909     C        0.02650    0.10940    0.87120    1.000
    H669     H        0.02580    0.10990    0.88570    1.000
    C910     C        0.97810    0.09900    0.86070    1.000
    H670     H        0.94550    0.09660    0.86850    1.000
    C911     C        0.97400    0.09210    0.84020    1.000
    H671     H        0.94040    0.08260    0.83340    1.000
    C912     C        0.02570    0.10040    0.82930    1.000
    H672     H        0.02520    0.09430    0.81500    1.000
    N133     N        0.30080    0.91590    0.00361    1.000
    N134     N        0.39382    0.95020    0.98147    1.000
    N135     N        0.19164    0.08040    0.92590    1.000
    N136     N        0.14188    0.04400    0.77440    1.000
    Ag9      Ag       0.37500    0.37500    0.65433    1.000
    C913     C        0.37500    0.37500    0.55523    1.000
    C914     C        0.37500    0.37500    0.57847    1.000
    N137     N        0.37500    0.37500    0.62066    1.000
    Ag10     Ag       0.37500    0.87500    0.15433    1.000
    C915     C        0.37500    0.87500    0.05523    1.000
    C916     C        0.37500    0.87500    0.07847    1.000
    N138     N        0.37500    0.87500    0.12066    1.000
    Ag11     Ag       0.87500    0.37500    0.15433    1.000
    C917     C        0.87500    0.37500    0.05523    1.000
    C918     C        0.87500    0.37500    0.07847    1.000
    N139     N        0.87500    0.37500    0.12066    1.000
    Ag12     Ag       0.87500    0.87500    0.65433    1.000
    C919     C        0.87500    0.87500    0.55523    1.000
    C920     C        0.87500    0.87500    0.57847    1.000
    N140     N        0.87500    0.87500    0.62066    1.000
    Ag13     Ag       0.62500    0.62500    0.90433    1.000
    C921     C        0.62500    0.62500    0.80523    1.000
    C922     C        0.62500    0.62500    0.82847    1.000
    N141     N        0.62500    0.62500    0.87066    1.000
    Ag14     Ag       0.62500    0.12500    0.40433    1.000
    C923     C        0.62500    0.12500    0.30523    1.000
    C924     C        0.62500    0.12500    0.32847    1.000
    N142     N        0.62500    0.12500    0.37066    1.000
    Ag15     Ag       0.12500    0.62500    0.40433    1.000
    C925     C        0.12500    0.62500    0.30523    1.000
    C926     C        0.12500    0.62500    0.32847    1.000
    N143     N        0.12500    0.62500    0.37066    1.000
    Ag16     Ag       0.12500    0.12500    0.90433    1.000
    C927     C        0.12500    0.12500    0.80523    1.000
    C928     C        0.12500    0.12500    0.82847    1.000
    N144     N        0.12500    0.12500    0.87066    1.000
    Fe9      Fe       0.12500    0.12500    0.75361    1.000
    Fe10     Fe       0.12500    0.62500    0.25361    1.000
    Fe11     Fe       0.62500    0.62500    0.75361    1.000
    Fe12     Fe       0.62500    0.12500    0.25361    1.000
    Fe13     Fe       0.37500    0.87500    0.00361    1.000
    Fe14     Fe       0.37500    0.37500    0.50361    1.000
    Fe15     Fe       0.87500    0.37500    0.00361    1.000
    Fe16     Fe       0.87500    0.87500    0.50361    1.000
