data_functionalizedCrystal
_audit_creation_method	'EQeq! by Chris Wilmer'
_symmetry_space_group_name_H-M	'P1'
_symmetry_Int_Tables_number	1
_symmetry_cell_setting	triclinic
loop_
_symmetry_equiv_pos_as_xyz
  x,y,z
_cell_length_a	15.4017
_cell_length_b	15.4017
_cell_length_c	28.9421
_cell_angle_alpha	90
_cell_angle_beta	90
_cell_angle_gamma	90
loop_
_atom_site_label
_atom_site_type_symbol
_atom_site_fract_x
_atom_site_fract_y
_atom_site_fract_z
_atom_site_charge
Mof_Fe	Fe	0.4023	0.81872	0.05054	1.035
Mof_Fe	Fe	0.49206	0.04938	0.04689	0.995
Mof_P 	P 	0.32226	0.98011	0.99837	0.531
Mof_P 	P 	0.2942	0.67686	0.11051	0.563
Mof_O 	O 	0.36765	0.04405	0.03193	-0.324
Mof_O 	O 	0.38053	0.96567	0.95588	-0.321
Mof_O 	O 	0.30686	0.89348	0.02391	-0.3
Mof_O 	O 	0.23569	0.01878	0.98257	-0.136
Mof_O 	O 	0.32034	0.72477	0.06682	-0.308
Mof_O 	O 	0.23578	0.73578	0.13918	-0.327
Mof_O 	O 	0.23811	0.59634	0.09629	-0.144
Mof_O 	O 	0.37141	0.64397	0.13817	-0.338
Mof_O 	O 	0.51073	0.83023	0.93027	-0.3
Mof_O 	O 	0.41794	0.75912	0.99063	-0.34
Mof_O 	O 	0.49205	0.91536	0.02439	-0.394
Mof_Fe	Fe	0.9023	0.31872	0.55054	1.041
Mof_Fe	Fe	0.99206	0.54938	0.54689	1.009
Mof_P 	P 	0.82226	0.48011	0.49837	0.531
Mof_P 	P 	0.7942	0.17686	0.61051	0.563
Mof_O 	O 	0.86765	0.54405	0.53193	-0.325
Mof_O 	O 	0.88053	0.46567	0.45588	-0.313
Mof_O 	O 	0.80686	0.39348	0.52391	-0.299
Mof_O 	O 	0.73569	0.51878	0.48257	-0.133
Mof_O 	O 	0.82034	0.22477	0.56682	-0.307
Mof_O 	O 	0.73578	0.23578	0.63918	-0.326
Mof_O 	O 	0.73811	0.09634	0.59629	-0.142
Mof_O 	O 	0.87141	0.14397	0.63817	-0.334
Mof_O 	O 	0.01073	0.33023	0.43027	-0.301
Mof_O 	O 	0.91794	0.25912	0.49063	-0.33
Mof_O 	O 	0.99205	0.41536	0.52439	-0.386
Mof_Fe	Fe	0.0977	0.18128	0.55054	1.033
Mof_Fe	Fe	0.00794	0.95062	0.54689	0.978
Mof_P 	P 	0.17774	0.01989	0.49837	0.532
Mof_P 	P 	0.2058	0.32314	0.61051	0.562
Mof_O 	O 	0.13235	0.95595	0.53193	-0.325
Mof_O 	O 	0.11947	0.03433	0.45588	-0.327
Mof_O 	O 	0.19314	0.10652	0.52391	-0.299
Mof_O 	O 	0.26431	0.98122	0.48257	-0.135
Mof_O 	O 	0.17966	0.27523	0.56682	-0.308
Mof_O 	O 	0.26422	0.26422	0.63918	-0.326
Mof_O 	O 	0.26189	0.40366	0.59629	-0.143
Mof_O 	O 	0.12859	0.35603	0.63817	-0.339
Mof_O 	O 	0.98927	0.16977	0.43027	-0.289
Mof_O 	O 	0.08206	0.24088	0.49063	-0.34
Mof_O 	O 	0.00795	0.08464	0.52439	-0.401
Mof_Fe	Fe	0.5977	0.68128	0.05054	1.034
Mof_Fe	Fe	0.50794	0.45062	0.04689	0.994
Mof_P 	P 	0.67774	0.51989	0.99837	0.531
Mof_P 	P 	0.7058	0.82314	0.11051	0.562
Mof_O 	O 	0.63235	0.45595	0.03193	-0.324
Mof_O 	O 	0.61947	0.53433	0.95588	-0.32
Mof_O 	O 	0.69314	0.60652	0.02391	-0.297
Mof_O 	O 	0.76431	0.48122	0.98257	-0.131
Mof_O 	O 	0.67966	0.77523	0.06682	-0.307
Mof_O 	O 	0.76422	0.76422	0.13918	-0.325
Mof_O 	O 	0.76189	0.90366	0.09629	-0.14
Mof_O 	O 	0.62859	0.85603	0.13817	-0.337
Mof_O 	O 	0.48927	0.66977	0.93027	-0.3
Mof_O 	O 	0.58206	0.74088	0.99063	-0.34
Mof_O 	O 	0.50795	0.58464	0.02439	-0.394
Mof_Fe	Fe	0.93128	0.6523	0.30054	1.049
Mof_Fe	Fe	0.70062	0.74206	0.29689	0.994
Mof_P 	P 	0.76989	0.57226	0.24837	0.531
Mof_P 	P 	0.07314	0.5442	0.36051	0.562
Mof_O 	O 	0.70595	0.61765	0.28193	-0.325
Mof_O 	O 	0.78433	0.63053	0.20588	-0.32
Mof_O 	O 	0.85652	0.55686	0.27391	-0.297
Mof_O 	O 	0.73122	0.48569	0.23257	-0.132
Mof_O 	O 	0.02523	0.57034	0.31682	-0.317
Mof_O 	O 	0.01422	0.48578	0.38918	-0.329
Mof_O 	O 	0.15366	0.48811	0.34629	-0.143
Mof_O 	O 	0.10603	0.62141	0.38817	-0.338
Mof_O 	O 	0.91977	0.76073	0.18027	-0.289
Mof_O 	O 	0.99088	0.66794	0.24063	-0.327
Mof_O 	O 	0.83464	0.74205	0.27439	-0.393
Mof_Fe	Fe	0.43128	0.1523	0.80054	1.034
Mof_Fe	Fe	0.20062	0.24206	0.79689	0.993
Mof_P 	P 	0.26989	0.07226	0.74837	0.531
Mof_P 	P 	0.57314	0.0442	0.86051	0.561
Mof_O 	O 	0.20595	0.11765	0.78193	-0.326
Mof_O 	O 	0.28433	0.13053	0.70588	-0.321
Mof_O 	O 	0.35652	0.05686	0.77391	-0.299
Mof_O 	O 	0.23122	0.98569	0.73257	-0.136
Mof_O 	O 	0.52523	0.07034	0.81682	-0.308
Mof_O 	O 	0.51422	0.98578	0.88918	-0.326
Mof_O 	O 	0.65366	0.98811	0.84629	-0.141
Mof_O 	O 	0.60603	0.12141	0.88817	-0.337
Mof_O 	O 	0.41977	0.26073	0.68027	-0.3
Mof_O 	O 	0.49088	0.16794	0.74063	-0.34
Mof_O 	O 	0.33464	0.24205	0.77439	-0.394
Mof_Fe	Fe	0.56872	0.3477	0.80054	1.034
Mof_Fe	Fe	0.79938	0.25794	0.79689	0.994
Mof_P 	P 	0.73011	0.42774	0.74837	0.531
Mof_P 	P 	0.42686	0.4558	0.86051	0.562
Mof_O 	O 	0.79405	0.38235	0.78193	-0.323
Mof_O 	O 	0.71567	0.36947	0.70588	-0.32
Mof_O 	O 	0.64348	0.44314	0.77391	-0.298
Mof_O 	O 	0.76878	0.51431	0.73257	-0.132
Mof_O 	O 	0.47477	0.42966	0.81682	-0.308
Mof_O 	O 	0.48578	0.51422	0.88918	-0.326
Mof_O 	O 	0.34634	0.51189	0.84629	-0.143
Mof_O 	O 	0.39397	0.37859	0.88817	-0.338
Mof_O 	O 	0.58023	0.23927	0.68027	-0.3
Mof_O 	O 	0.50912	0.33206	0.74063	-0.34
Mof_O 	O 	0.66536	0.25795	0.77439	-0.394
Mof_Fe	Fe	0.06872	0.8477	0.30054	1.025
Mof_Fe	Fe	0.29938	0.75794	0.29689	0.994
Mof_P 	P 	0.23011	0.92774	0.24837	0.53
Mof_P 	P 	0.92686	0.9558	0.36051	0.563
Mof_O 	O 	0.29405	0.88235	0.28193	-0.325
Mof_O 	O 	0.21567	0.86947	0.20588	-0.321
Mof_O 	O 	0.14348	0.94314	0.27391	-0.301
Mof_O 	O 	0.26878	0.01431	0.23257	-0.135
Mof_O 	O 	0.97477	0.92966	0.31682	-0.298
Mof_O 	O 	0.98578	0.01422	0.38918	-0.324
Mof_O 	O 	0.84634	0.01189	0.34629	-0.142
Mof_O 	O 	0.89397	0.87859	0.38817	-0.336
Mof_O 	O 	0.08023	0.73927	0.18027	-0.301
Mof_O 	O 	0.00912	0.83206	0.24063	-0.343
Mof_O 	O 	0.16536	0.75795	0.27439	-0.394
Mof_Fe	Fe	0.5977	0.18128	0.94946	1.034
Mof_Fe	Fe	0.50794	0.95062	0.95311	0.994
Mof_P 	P 	0.67774	0.01989	0.00163	0.53
Mof_P 	P 	0.7058	0.32314	0.88949	0.562
Mof_O 	O 	0.63235	0.95595	0.96807	-0.324
Mof_O 	O 	0.61947	0.03433	0.04412	-0.32
Mof_O 	O 	0.69314	0.10652	0.97609	-0.298
Mof_O 	O 	0.76431	0.98122	0.01743	-0.131
Mof_O 	O 	0.67966	0.27523	0.93318	-0.307
Mof_O 	O 	0.76422	0.26422	0.86082	-0.325
Mof_O 	O 	0.76189	0.40366	0.90371	-0.14
Mof_O 	O 	0.62859	0.35603	0.86183	-0.337
Mof_O 	O 	0.48927	0.16977	0.06973	-0.3
Mof_O 	O 	0.58206	0.24088	0.00937	-0.34
Mof_O 	O 	0.50795	0.08464	0.97561	-0.394
Mof_Fe	Fe	0.0977	0.68128	0.44946	1.032
Mof_Fe	Fe	0.00794	0.45062	0.45311	0.979
Mof_P 	P 	0.17774	0.51989	0.50163	0.531
Mof_P 	P 	0.2058	0.82314	0.38949	0.562
Mof_O 	O 	0.13235	0.45595	0.46807	-0.324
Mof_O 	O 	0.11947	0.53433	0.54412	-0.328
Mof_O 	O 	0.19314	0.60652	0.47609	-0.299
Mof_O 	O 	0.26431	0.48122	0.51743	-0.134
Mof_O 	O 	0.17966	0.77523	0.43318	-0.308
Mof_O 	O 	0.26422	0.76422	0.36082	-0.326
Mof_O 	O 	0.26189	0.90366	0.40371	-0.143
Mof_O 	O 	0.12859	0.85603	0.36183	-0.34
Mof_O 	O 	0.98927	0.66977	0.56973	-0.288
Mof_O 	O 	0.08206	0.74088	0.50937	-0.34
Mof_O 	O 	0.00795	0.58464	0.47561	-0.402
Mof_Fe	Fe	0.9023	0.81872	0.44946	1.042
Mof_Fe	Fe	0.99206	0.04938	0.45311	1.007
Mof_P 	P 	0.82226	0.98011	0.50163	0.531
Mof_P 	P 	0.7942	0.67686	0.38949	0.563
Mof_O 	O 	0.86765	0.04405	0.46807	-0.325
Mof_O 	O 	0.88053	0.96567	0.54412	-0.312
Mof_O 	O 	0.80686	0.89348	0.47609	-0.299
Mof_O 	O 	0.73569	0.01878	0.51743	-0.134
Mof_O 	O 	0.82034	0.72477	0.43318	-0.307
Mof_O 	O 	0.73578	0.73578	0.36082	-0.326
Mof_O 	O 	0.73811	0.59634	0.40371	-0.142
Mof_O 	O 	0.87141	0.64397	0.36183	-0.334
Mof_O 	O 	0.01073	0.83023	0.56973	-0.301
Mof_O 	O 	0.91794	0.75912	0.50937	-0.33
Mof_O 	O 	0.99205	0.91536	0.47561	-0.385
Mof_Fe	Fe	0.4023	0.31872	0.94946	1.034
Mof_Fe	Fe	0.49206	0.54938	0.95311	0.994
Mof_P 	P 	0.32226	0.48011	0.00163	0.531
Mof_P 	P 	0.2942	0.17686	0.88949	0.562
Mof_O 	O 	0.36765	0.54405	0.96807	-0.325
Mof_O 	O 	0.38053	0.46567	0.04412	-0.321
Mof_O 	O 	0.30686	0.39348	0.97609	-0.3
Mof_O 	O 	0.23569	0.51878	0.01743	-0.136
Mof_O 	O 	0.32034	0.22477	0.93318	-0.308
Mof_O 	O 	0.23578	0.23578	0.86082	-0.327
Mof_O 	O 	0.23811	0.09634	0.90371	-0.144
Mof_O 	O 	0.37141	0.14397	0.86183	-0.338
Mof_O 	O 	0.51073	0.33023	0.06973	-0.3
Mof_O 	O 	0.41794	0.25912	0.00937	-0.34
Mof_O 	O 	0.49205	0.41536	0.97561	-0.394
Mof_Fe	Fe	0.06872	0.3477	0.69946	1.025
Mof_Fe	Fe	0.29938	0.25794	0.70311	0.994
Mof_P 	P 	0.23011	0.42774	0.75163	0.531
Mof_P 	P 	0.92686	0.4558	0.63949	0.562
Mof_O 	O 	0.29405	0.38235	0.71807	-0.325
Mof_O 	O 	0.21567	0.36947	0.79412	-0.321
Mof_O 	O 	0.14348	0.44314	0.72609	-0.301
Mof_O 	O 	0.26878	0.51431	0.76743	-0.135
Mof_O 	O 	0.97477	0.42966	0.68318	-0.298
Mof_O 	O 	0.98578	0.51422	0.61082	-0.323
Mof_O 	O 	0.84634	0.51189	0.65371	-0.141
Mof_O 	O 	0.89397	0.37859	0.61183	-0.336
Mof_O 	O 	0.08023	0.23927	0.81973	-0.301
Mof_O 	O 	0.00912	0.33206	0.75937	-0.343
Mof_O 	O 	0.16536	0.25795	0.72561	-0.394
Mof_Fe	Fe	0.56872	0.8477	0.19946	1.034
Mof_Fe	Fe	0.79938	0.75794	0.20311	0.995
Mof_P 	P 	0.73011	0.92774	0.25163	0.531
Mof_P 	P 	0.42686	0.9558	0.13949	0.562
Mof_O 	O 	0.79405	0.88235	0.21807	-0.323
Mof_O 	O 	0.71567	0.86947	0.29412	-0.32
Mof_O 	O 	0.64348	0.94314	0.22609	-0.298
Mof_O 	O 	0.76878	0.01431	0.26743	-0.132
Mof_O 	O 	0.47477	0.92966	0.18318	-0.308
Mof_O 	O 	0.48578	0.01422	0.11082	-0.326
Mof_O 	O 	0.34634	0.01189	0.15371	-0.143
Mof_O 	O 	0.39397	0.87859	0.11183	-0.338
Mof_O 	O 	0.58023	0.73927	0.31973	-0.3
Mof_O 	O 	0.50912	0.83206	0.25937	-0.34
Mof_O 	O 	0.66536	0.75795	0.22561	-0.394
Mof_Fe	Fe	0.43128	0.6523	0.19946	1.034
Mof_Fe	Fe	0.20062	0.74206	0.20311	0.993
Mof_P 	P 	0.26989	0.57226	0.25163	0.531
Mof_P 	P 	0.57314	0.5442	0.13949	0.562
Mof_O 	O 	0.20595	0.61765	0.21807	-0.326
Mof_O 	O 	0.28433	0.63053	0.29412	-0.321
Mof_O 	O 	0.35652	0.55686	0.22609	-0.299
Mof_O 	O 	0.23122	0.48569	0.26743	-0.135
Mof_O 	O 	0.52523	0.57034	0.18318	-0.308
Mof_O 	O 	0.51422	0.48578	0.11082	-0.326
Mof_O 	O 	0.65366	0.48811	0.15371	-0.141
Mof_O 	O 	0.60603	0.62141	0.11183	-0.337
Mof_O 	O 	0.41977	0.76073	0.31973	-0.3
Mof_O 	O 	0.49088	0.66794	0.25937	-0.34
Mof_O 	O 	0.33464	0.74205	0.22561	-0.394
Mof_Fe	Fe	0.93128	0.1523	0.69946	1.048
Mof_Fe	Fe	0.70062	0.24206	0.70311	0.994
Mof_P 	P 	0.76989	0.07226	0.75163	0.53
Mof_P 	P 	0.07314	0.0442	0.63949	0.563
Mof_O 	O 	0.70595	0.11765	0.71807	-0.325
Mof_O 	O 	0.78433	0.13053	0.79412	-0.32
Mof_O 	O 	0.85652	0.05686	0.72609	-0.298
Mof_O 	O 	0.73122	0.98569	0.76743	-0.132
Mof_O 	O 	0.02523	0.07034	0.68318	-0.316
Mof_O 	O 	0.01422	0.98578	0.61082	-0.329
Mof_O 	O 	0.15366	0.98811	0.65371	-0.144
Mof_O 	O 	0.10603	0.12141	0.61183	-0.338
Mof_O 	O 	0.91977	0.26073	0.81973	-0.29
Mof_O 	O 	0.99088	0.16794	0.75937	-0.328
Mof_O 	O 	0.83464	0.24205	0.72561	-0.393
Mof_P 	P 	0.5	0.75	0.96119	0.561
Mof_O 	O 	0.5	0.75	0.07545	-0.353
Mof_P 	P 	1.06032e-32	0.25	0.46119	0.543
Mof_O 	O 	1.87621e-32	0.25	0.57545	-0.362
Mof_P 	P 	1.48798e-33	0.75	0.21119	0.541
Mof_O 	O 	9.64684e-33	0.75	0.32545	-0.362
Mof_P 	P 	0.5	0.25	0.71119	0.561
Mof_O 	O 	0.5	0.25	0.82545	-0.353
Mof_P 	P 	0.5	0.25	0.03881	0.561
Mof_O 	O 	0.5	0.25	0.92455	-0.353
Mof_P 	P 	3.79628e-33	0.75	0.53881	0.541
Mof_O 	O 	1.03451e-32	0.75	0.42455	-0.362
Mof_P 	P 	5.55771e-33	0.25	0.78881	0.543
Mof_O 	O 	1.94603e-32	0.25	0.67455	-0.362
Mof_P 	P 	0.5	0.75	0.28881	0.561
Mof_O 	O 	0.5	0.75	0.17455	-0.353
_end
