data_functionalizedCrystal
_audit_creation_method	'EQeq! by Chris Wilmer'
_symmetry_space_group_name_H-M	'P1'
_symmetry_Int_Tables_number	1
_symmetry_cell_setting	triclinic
loop_
_symmetry_equiv_pos_as_xyz
  x,y,z
_cell_length_a	19.9998
_cell_length_b	19.9998
_cell_length_c	19.9998
_cell_angle_alpha	90
_cell_angle_beta	90
_cell_angle_gamma	90
loop_
_atom_site_label
_atom_site_type_symbol
_atom_site_fract_x
_atom_site_fract_y
_atom_site_fract_z
_atom_site_charge
Mof_N 	N 	0.06	0.53473	0.2399	-0.18
Mof_H 	H 	0.1051	0.5109	0.241	0.042
Mof_C 	C 	0.08997	0.603	0.22711	-0.208
Mof_H 	H 	0.1219	0.5997	0.1895	0.06
Mof_H 	H 	0.0538	0.6339	0.2133	0.043
Mof_C 	C 	0.12513	0.632	0.28611	0.171
Mof_C 	C 	0.1007	0.68854	0.31799	-0.238
Mof_H 	H 	0.0621	0.7102	0.3008	0.083
Mof_C 	C 	0.02367	0.52829	0.30073	-0.59
Mof_H 	H 	0.9987	0.5701	0.309	0.254
Mof_H 	H 	0.0557	0.5222	0.3379	0.178
Mof_O 	O 	0.97942	0.57936	0.11005	-0.513
Mof_N 	N 	0.06	0.03473	0.7399	-0.173
Mof_H 	H 	0.1051	0.0109	0.741	0.02
Mof_C 	C 	0.08997	0.103	0.72711	-0.21
Mof_H 	H 	0.1219	0.0997	0.6895	0.057
Mof_H 	H 	0.0538	0.1339	0.7133	0.043
Mof_C 	C 	0.12513	0.132	0.78611	0.172
Mof_C 	C 	0.1007	0.18854	0.81799	-0.235
Mof_H 	H 	0.0621	0.2102	0.8008	0.081
Mof_C 	C 	0.02367	0.02829	0.80073	-0.71
Mof_H 	H 	0.9987	0.0701	0.809	0.277
Mof_H 	H 	0.0557	0.0222	0.8379	0.196
Mof_O 	O 	0.97942	0.07936	0.61005	-0.522
Mof_N 	N 	0.56	0.53473	0.7399	-0.234
Mof_H 	H 	0.6051	0.5109	0.741	0.06
Mof_C 	C 	0.58997	0.603	0.72711	-0.188
Mof_H 	H 	0.6219	0.5997	0.6895	0.06
Mof_H 	H 	0.5538	0.6339	0.7133	0.062
Mof_C 	C 	0.62513	0.632	0.78611	0.174
Mof_C 	C 	0.6007	0.68854	0.81799	-0.228
Mof_H 	H 	0.5621	0.7102	0.8008	0.095
Mof_C 	C 	0.52367	0.52829	0.80073	-0.091
Mof_H 	H 	0.4987	0.5701	0.809	0.047
Mof_H 	H 	0.5557	0.5222	0.8379	0.06
Mof_O 	O 	0.47942	0.57936	0.61005	-0.567
Mof_N 	N 	0.56	0.03473	0.2399	-0.226
Mof_H 	H 	0.6051	0.0109	0.241	0.03
Mof_C 	C 	0.58997	0.103	0.22711	-0.191
Mof_H 	H 	0.6219	0.0997	0.1895	0.053
Mof_H 	H 	0.5538	0.1339	0.2133	0.057
Mof_C 	C 	0.62513	0.132	0.28611	0.173
Mof_C 	C 	0.6007	0.18854	0.31799	-0.233
Mof_H 	H 	0.5621	0.2102	0.3008	0.093
Mof_C 	C 	0.52367	0.02829	0.30073	-0.236
Mof_H 	H 	0.4987	0.0701	0.309	0.063
Mof_H 	H 	0.5557	0.0222	0.3379	0.064
Mof_O 	O 	0.47942	0.07936	0.11005	-0.601
Mof_N 	N 	0.94	0.46527	0.2399	-0.285
Mof_H 	H 	0.8949	0.4891	0.241	0.071
Mof_C 	C 	0.91003	0.397	0.22711	-0.167
Mof_H 	H 	0.8781	0.4003	0.1895	0.057
Mof_H 	H 	0.9462	0.3661	0.2133	0.077
Mof_C 	C 	0.87487	0.368	0.28611	0.172
Mof_C 	C 	0.8993	0.31146	0.31799	-0.223
Mof_H 	H 	0.9379	0.2898	0.3008	0.106
Mof_C 	C 	0.97633	0.47171	0.30073	0.417
Mof_H 	H 	0.0013	0.4299	0.309	-0.175
Mof_H 	H 	0.9443	0.4778	0.3379	-0.08
Mof_O 	O 	0.02058	0.42064	0.11005	-0.628
Mof_N 	N 	0.94	0.96527	0.7399	-0.283
Mof_H 	H 	0.8949	0.9891	0.741	0.1
Mof_C 	C 	0.91003	0.897	0.72711	-0.165
Mof_H 	H 	0.8781	0.9003	0.6895	0.065
Mof_H 	H 	0.9462	0.8661	0.7133	0.082
Mof_C 	C 	0.87487	0.868	0.78611	0.173
Mof_C 	C 	0.8993	0.81146	0.81799	-0.219
Mof_H 	H 	0.9379	0.7898	0.8008	0.107
Mof_C 	C 	0.97633	0.97171	0.80073	0.526
Mof_H 	H 	0.0013	0.9299	0.809	-0.175
Mof_H 	H 	0.9443	0.9778	0.8379	-0.077
Mof_O 	O 	0.02058	0.92064	0.61005	-0.58
Mof_N 	N 	0.44	0.46527	0.7399	-0.235
Mof_H 	H 	0.3949	0.4891	0.741	0.059
Mof_C 	C 	0.41003	0.397	0.72711	-0.187
Mof_H 	H 	0.3781	0.4003	0.6895	0.06
Mof_H 	H 	0.4462	0.3661	0.7133	0.061
Mof_C 	C 	0.37487	0.368	0.78611	0.172
Mof_C 	C 	0.3993	0.31146	0.81799	-0.225
Mof_H 	H 	0.4379	0.2898	0.8008	0.093
Mof_C 	C 	0.47633	0.47171	0.80073	-0.09
Mof_H 	H 	0.5013	0.4299	0.809	0.046
Mof_H 	H 	0.4443	0.4778	0.8379	0.06
Mof_O 	O 	0.52058	0.42064	0.61005	-0.567
Mof_N 	N 	0.44	0.96527	0.2399	-0.238
Mof_H 	H 	0.3949	0.9891	0.241	0.085
Mof_C 	C 	0.41003	0.897	0.22711	-0.183
Mof_H 	H 	0.3781	0.9003	0.1895	0.065
Mof_H 	H 	0.4462	0.8661	0.2133	0.063
Mof_C 	C 	0.37487	0.868	0.28611	0.171
Mof_C 	C 	0.3993	0.81146	0.31799	-0.227
Mof_H 	H 	0.4379	0.7898	0.3008	0.095
Mof_C 	C 	0.47633	0.97171	0.30073	0.062
Mof_H 	H 	0.5013	0.9299	0.309	0.015
Mof_H 	H 	0.4443	0.9778	0.3379	0.035
Mof_O 	O 	0.52058	0.92064	0.11005	-0.545
Mof_N 	N 	0.94	0.53473	0.7601	-0.282
Mof_H 	H 	0.8949	0.5109	0.759	0.072
Mof_C 	C 	0.91003	0.603	0.77289	-0.171
Mof_H 	H 	0.8781	0.5997	0.8105	0.062
Mof_H 	H 	0.9462	0.6339	0.7867	0.081
Mof_C 	C 	0.87487	0.632	0.71389	0.175
Mof_C 	C 	0.8993	0.68854	0.68201	-0.227
Mof_H 	H 	0.9379	0.7102	0.6992	0.108
Mof_C 	C 	0.97633	0.52829	0.69927	0.401
Mof_H 	H 	0.0013	0.5701	0.691	-0.166
Mof_H 	H 	0.9443	0.5222	0.6621	-0.076
Mof_O 	O 	0.02058	0.57936	0.88995	-0.596
Mof_N 	N 	0.94	0.03473	0.2601	-0.275
Mof_H 	H 	0.8949	0.0109	0.259	0.043
Mof_C 	C 	0.91003	0.103	0.27289	-0.173
Mof_H 	H 	0.8781	0.0997	0.3105	0.055
Mof_H 	H 	0.9462	0.1339	0.2867	0.077
Mof_C 	C 	0.87487	0.132	0.21389	0.174
Mof_C 	C 	0.8993	0.18854	0.18201	-0.231
Mof_H 	H 	0.9379	0.2102	0.1992	0.107
Mof_C 	C 	0.97633	0.02829	0.19927	0.271
Mof_H 	H 	0.0013	0.0701	0.191	-0.157
Mof_H 	H 	0.9443	0.0222	0.1621	-0.074
Mof_O 	O 	0.02058	0.07936	0.38995	-0.637
Mof_N 	N 	0.44	0.53473	0.2601	-0.235
Mof_H 	H 	0.3949	0.5109	0.259	0.055
Mof_C 	C 	0.41003	0.603	0.27289	-0.189
Mof_H 	H 	0.3781	0.5997	0.3105	0.061
Mof_H 	H 	0.4462	0.6339	0.2867	0.061
Mof_C 	C 	0.37487	0.632	0.21389	0.173
Mof_C 	C 	0.3993	0.68854	0.18201	-0.236
Mof_H 	H 	0.4379	0.7102	0.1992	0.097
Mof_C 	C 	0.47633	0.52829	0.19927	-0.087
Mof_H 	H 	0.5013	0.5701	0.191	0.034
Mof_H 	H 	0.4443	0.5222	0.1621	0.04
Mof_O 	O 	0.52058	0.57936	0.38995	-0.567
Mof_N 	N 	0.44	0.03473	0.7601	-0.225
Mof_H 	H 	0.3949	0.0109	0.759	0.032
Mof_C 	C 	0.41003	0.103	0.77289	-0.194
Mof_H 	H 	0.3781	0.0997	0.8105	0.058
Mof_H 	H 	0.4462	0.1339	0.7867	0.061
Mof_C 	C 	0.37487	0.132	0.71389	0.174
Mof_C 	C 	0.3993	0.18854	0.68201	-0.234
Mof_H 	H 	0.4379	0.2102	0.6992	0.095
Mof_C 	C 	0.47633	0.02829	0.69927	-0.232
Mof_H 	H 	0.5013	0.0701	0.691	0.065
Mof_H 	H 	0.4443	0.0222	0.6621	0.063
Mof_O 	O 	0.52058	0.07936	0.88995	-0.57
Mof_N 	N 	0.06	0.46527	0.7601	-0.18
Mof_H 	H 	0.1051	0.4891	0.759	0.047
Mof_C 	C 	0.08997	0.397	0.77289	-0.208
Mof_H 	H 	0.1219	0.4003	0.8105	0.065
Mof_H 	H 	0.0538	0.3661	0.7867	0.047
Mof_C 	C 	0.12513	0.368	0.71389	0.173
Mof_C 	C 	0.1007	0.31146	0.68201	-0.237
Mof_H 	H 	0.0621	0.2898	0.6992	0.083
Mof_C 	C 	0.02367	0.47171	0.69927	-0.576
Mof_H 	H 	0.9987	0.4299	0.691	0.249
Mof_H 	H 	0.0557	0.4778	0.6621	0.175
Mof_O 	O 	0.97942	0.42064	0.88995	-0.488
Mof_N 	N 	0.06	0.96527	0.2601	-0.182
Mof_H 	H 	0.1051	0.9891	0.259	0.073
Mof_C 	C 	0.08997	0.897	0.27289	-0.204
Mof_H 	H 	0.1219	0.9003	0.3105	0.069
Mof_H 	H 	0.0538	0.8661	0.2867	0.049
Mof_C 	C 	0.12513	0.868	0.21389	0.172
Mof_C 	C 	0.1007	0.81146	0.18201	-0.238
Mof_H 	H 	0.0621	0.7898	0.1992	0.085
Mof_C 	C 	0.02367	0.97171	0.19927	-0.43
Mof_H 	H 	0.9987	0.9299	0.191	0.218
Mof_H 	H 	0.0557	0.9778	0.1621	0.153
Mof_O 	O 	0.97942	0.92064	0.38995	-0.472
Mof_N 	N 	0.56	0.46527	0.2601	-0.236
Mof_H 	H 	0.6051	0.4891	0.259	0.057
Mof_C 	C 	0.58997	0.397	0.27289	-0.188
Mof_H 	H 	0.6219	0.4003	0.3105	0.061
Mof_H 	H 	0.5538	0.3661	0.2867	0.06
Mof_C 	C 	0.62513	0.368	0.21389	0.173
Mof_C 	C 	0.6007	0.31146	0.18201	-0.234
Mof_H 	H 	0.5621	0.2898	0.1992	0.094
Mof_C 	C 	0.52367	0.47171	0.19927	-0.085
Mof_H 	H 	0.4987	0.4299	0.191	0.032
Mof_H 	H 	0.5557	0.4778	0.1621	0.04
Mof_O 	O 	0.47942	0.42064	0.38995	-0.569
Mof_N 	N 	0.56	0.96527	0.7601	-0.237
Mof_H 	H 	0.6051	0.9891	0.759	0.087
Mof_C 	C 	0.58997	0.897	0.77289	-0.186
Mof_H 	H 	0.6219	0.9003	0.8105	0.069
Mof_H 	H 	0.5538	0.8661	0.7867	0.066
Mof_C 	C 	0.62513	0.868	0.71389	0.174
Mof_C 	C 	0.6007	0.81146	0.68201	-0.23
Mof_H 	H 	0.5621	0.7898	0.6992	0.096
Mof_C 	C 	0.52367	0.97171	0.69927	0.058
Mof_H 	H 	0.4987	0.9299	0.691	0.016
Mof_H 	H 	0.5557	0.9778	0.6621	0.036
Mof_O 	O 	0.47942	0.92064	0.88995	-0.519
Mof_N 	N 	0.2399	0.06	0.53473	-0.179
Mof_H 	H 	0.241	0.1051	0.5109	0.043
Mof_C 	C 	0.22711	0.08997	0.603	-0.207
Mof_H 	H 	0.1895	0.1219	0.5997	0.061
Mof_H 	H 	0.2133	0.0538	0.6339	0.044
Mof_C 	C 	0.28611	0.12513	0.632	0.172
Mof_C 	C 	0.31799	0.1007	0.68854	-0.237
Mof_H 	H 	0.3008	0.0621	0.7102	0.083
Mof_C 	C 	0.30073	0.02367	0.52829	-0.59
Mof_H 	H 	0.309	0.9987	0.5701	0.254
Mof_H 	H 	0.3379	0.0557	0.5222	0.178
Mof_O 	O 	0.11005	0.97942	0.57936	-0.513
Mof_N 	N 	0.2399	0.56	0.03473	-0.226
Mof_H 	H 	0.241	0.6051	0.0109	0.03
Mof_C 	C 	0.22711	0.58997	0.103	-0.191
Mof_H 	H 	0.1895	0.6219	0.0997	0.053
Mof_H 	H 	0.2133	0.5538	0.1339	0.057
Mof_C 	C 	0.28611	0.62513	0.132	0.173
Mof_C 	C 	0.31799	0.6007	0.18854	-0.233
Mof_H 	H 	0.3008	0.5621	0.2102	0.093
Mof_C 	C 	0.30073	0.52367	0.02829	-0.236
Mof_H 	H 	0.309	0.4987	0.0701	0.063
Mof_H 	H 	0.3379	0.5557	0.0222	0.064
Mof_O 	O 	0.11005	0.47942	0.07936	-0.601
Mof_N 	N 	0.7399	0.06	0.03473	-0.173
Mof_H 	H 	0.741	0.1051	0.0109	0.02
Mof_C 	C 	0.72711	0.08997	0.103	-0.21
Mof_H 	H 	0.6895	0.1219	0.0997	0.057
Mof_H 	H 	0.7133	0.0538	0.1339	0.043
Mof_C 	C 	0.78611	0.12513	0.132	0.172
Mof_C 	C 	0.81799	0.1007	0.18854	-0.235
Mof_H 	H 	0.8008	0.0621	0.2102	0.081
Mof_C 	C 	0.80073	0.02367	0.02829	-0.71
Mof_H 	H 	0.809	0.9987	0.0701	0.277
Mof_H 	H 	0.8379	0.0557	0.0222	0.196
Mof_O 	O 	0.61005	0.97942	0.07936	-0.522
Mof_N 	N 	0.7399	0.56	0.53473	-0.234
Mof_H 	H 	0.741	0.6051	0.5109	0.06
Mof_C 	C 	0.72711	0.58997	0.603	-0.188
Mof_H 	H 	0.6895	0.6219	0.5997	0.06
Mof_H 	H 	0.7133	0.5538	0.6339	0.062
Mof_C 	C 	0.78611	0.62513	0.632	0.174
Mof_C 	C 	0.81799	0.6007	0.68854	-0.228
Mof_H 	H 	0.8008	0.5621	0.7102	0.095
Mof_C 	C 	0.80073	0.52367	0.52829	-0.091
Mof_H 	H 	0.809	0.4987	0.5701	0.047
Mof_H 	H 	0.8379	0.5557	0.5222	0.06
Mof_O 	O 	0.61005	0.47942	0.57936	-0.567
Mof_N 	N 	0.2399	0.94	0.46527	-0.285
Mof_H 	H 	0.241	0.8949	0.4891	0.071
Mof_C 	C 	0.22711	0.91003	0.397	-0.167
Mof_H 	H 	0.1895	0.8781	0.4003	0.057
Mof_H 	H 	0.2133	0.9462	0.3661	0.077
Mof_C 	C 	0.28611	0.87487	0.368	0.172
Mof_C 	C 	0.31799	0.8993	0.31146	-0.223
Mof_H 	H 	0.3008	0.9379	0.2898	0.106
Mof_C 	C 	0.30073	0.97633	0.47171	0.417
Mof_H 	H 	0.309	0.0013	0.4299	-0.175
Mof_H 	H 	0.3379	0.9443	0.4778	-0.08
Mof_O 	O 	0.11005	0.02058	0.42064	-0.628
Mof_N 	N 	0.2399	0.44	0.96527	-0.238
Mof_H 	H 	0.241	0.3949	0.9891	0.085
Mof_C 	C 	0.22711	0.41003	0.897	-0.183
Mof_H 	H 	0.1895	0.3781	0.9003	0.065
Mof_H 	H 	0.2133	0.4462	0.8661	0.063
Mof_C 	C 	0.28611	0.37487	0.868	0.171
Mof_C 	C 	0.31799	0.3993	0.81146	-0.227
Mof_H 	H 	0.3008	0.4379	0.7898	0.095
Mof_C 	C 	0.30073	0.47633	0.97171	0.062
Mof_H 	H 	0.309	0.5013	0.9299	0.015
Mof_H 	H 	0.3379	0.4443	0.9778	0.035
Mof_O 	O 	0.11005	0.52058	0.92064	-0.545
Mof_N 	N 	0.7399	0.94	0.96527	-0.283
Mof_H 	H 	0.741	0.8949	0.9891	0.1
Mof_C 	C 	0.72711	0.91003	0.897	-0.165
Mof_H 	H 	0.6895	0.8781	0.9003	0.065
Mof_H 	H 	0.7133	0.9462	0.8661	0.082
Mof_C 	C 	0.78611	0.87487	0.868	0.173
Mof_C 	C 	0.81799	0.8993	0.81146	-0.219
Mof_H 	H 	0.8008	0.9379	0.7898	0.107
Mof_C 	C 	0.80073	0.97633	0.97171	0.526
Mof_H 	H 	0.809	0.0013	0.9299	-0.175
Mof_H 	H 	0.8379	0.9443	0.9778	-0.077
Mof_O 	O 	0.61005	0.02058	0.92064	-0.58
Mof_N 	N 	0.7399	0.44	0.46527	-0.235
Mof_H 	H 	0.741	0.3949	0.4891	0.059
Mof_C 	C 	0.72711	0.41003	0.397	-0.187
Mof_H 	H 	0.6895	0.3781	0.4003	0.06
Mof_H 	H 	0.7133	0.4462	0.3661	0.061
Mof_C 	C 	0.78611	0.37487	0.368	0.172
Mof_C 	C 	0.81799	0.3993	0.31146	-0.225
Mof_H 	H 	0.8008	0.4379	0.2898	0.093
Mof_C 	C 	0.80073	0.47633	0.47171	-0.09
Mof_H 	H 	0.809	0.5013	0.4299	0.046
Mof_H 	H 	0.8379	0.4443	0.4778	0.06
Mof_O 	O 	0.61005	0.52058	0.42064	-0.567
Mof_N 	N 	0.7601	0.94	0.53473	-0.282
Mof_H 	H 	0.759	0.8949	0.5109	0.072
Mof_C 	C 	0.77289	0.91003	0.603	-0.171
Mof_H 	H 	0.8105	0.8781	0.5997	0.062
Mof_H 	H 	0.7867	0.9462	0.6339	0.081
Mof_C 	C 	0.71389	0.87487	0.632	0.175
Mof_C 	C 	0.68201	0.8993	0.68854	-0.227
Mof_H 	H 	0.6992	0.9379	0.7102	0.108
Mof_C 	C 	0.69927	0.97633	0.52829	0.401
Mof_H 	H 	0.691	0.0013	0.5701	-0.166
Mof_H 	H 	0.6621	0.9443	0.5222	-0.076
Mof_O 	O 	0.88995	0.02058	0.57936	-0.596
Mof_N 	N 	0.7601	0.44	0.03473	-0.225
Mof_H 	H 	0.759	0.3949	0.0109	0.032
Mof_C 	C 	0.77289	0.41003	0.103	-0.194
Mof_H 	H 	0.8105	0.3781	0.0997	0.058
Mof_H 	H 	0.7867	0.4462	0.1339	0.061
Mof_C 	C 	0.71389	0.37487	0.132	0.174
Mof_C 	C 	0.68201	0.3993	0.18854	-0.234
Mof_H 	H 	0.6992	0.4379	0.2102	0.095
Mof_C 	C 	0.69927	0.47633	0.02829	-0.232
Mof_H 	H 	0.691	0.5013	0.0701	0.065
Mof_H 	H 	0.6621	0.4443	0.0222	0.063
Mof_O 	O 	0.88995	0.52058	0.07936	-0.57
Mof_N 	N 	0.2601	0.94	0.03473	-0.275
Mof_H 	H 	0.259	0.8949	0.0109	0.043
Mof_C 	C 	0.27289	0.91003	0.103	-0.173
Mof_H 	H 	0.3105	0.8781	0.0997	0.055
Mof_H 	H 	0.2867	0.9462	0.1339	0.077
Mof_C 	C 	0.21389	0.87487	0.132	0.174
Mof_C 	C 	0.18201	0.8993	0.18854	-0.231
Mof_H 	H 	0.1992	0.9379	0.2102	0.107
Mof_C 	C 	0.19927	0.97633	0.02829	0.271
Mof_H 	H 	0.191	0.0013	0.0701	-0.157
Mof_H 	H 	0.1621	0.9443	0.0222	-0.074
Mof_O 	O 	0.38995	0.02058	0.07936	-0.637
Mof_N 	N 	0.2601	0.44	0.53473	-0.235
Mof_H 	H 	0.259	0.3949	0.5109	0.055
Mof_C 	C 	0.27289	0.41003	0.603	-0.189
Mof_H 	H 	0.3105	0.3781	0.5997	0.061
Mof_H 	H 	0.2867	0.4462	0.6339	0.061
Mof_C 	C 	0.21389	0.37487	0.632	0.173
Mof_C 	C 	0.18201	0.3993	0.68854	-0.236
Mof_H 	H 	0.1992	0.4379	0.7102	0.097
Mof_C 	C 	0.19927	0.47633	0.52829	-0.087
Mof_H 	H 	0.191	0.5013	0.5701	0.034
Mof_H 	H 	0.1621	0.4443	0.5222	0.04
Mof_O 	O 	0.38995	0.52058	0.57936	-0.567
Mof_N 	N 	0.7601	0.06	0.46527	-0.18
Mof_H 	H 	0.759	0.1051	0.4891	0.047
Mof_C 	C 	0.77289	0.08997	0.397	-0.208
Mof_H 	H 	0.8105	0.1219	0.4003	0.065
Mof_H 	H 	0.7867	0.0538	0.3661	0.047
Mof_C 	C 	0.71389	0.12513	0.368	0.173
Mof_C 	C 	0.68201	0.1007	0.31146	-0.237
Mof_H 	H 	0.6992	0.0621	0.2898	0.083
Mof_C 	C 	0.69927	0.02367	0.47171	-0.576
Mof_H 	H 	0.691	0.9987	0.4299	0.249
Mof_H 	H 	0.6621	0.0557	0.4778	0.175
Mof_O 	O 	0.88995	0.97942	0.42064	-0.488
Mof_N 	N 	0.7601	0.56	0.96527	-0.237
Mof_H 	H 	0.759	0.6051	0.9891	0.087
Mof_C 	C 	0.77289	0.58997	0.897	-0.186
Mof_H 	H 	0.8105	0.6219	0.9003	0.069
Mof_H 	H 	0.7867	0.5538	0.8661	0.066
Mof_C 	C 	0.71389	0.62513	0.868	0.174
Mof_C 	C 	0.68201	0.6007	0.81146	-0.23
Mof_H 	H 	0.6992	0.5621	0.7898	0.096
Mof_C 	C 	0.69927	0.52367	0.97171	0.058
Mof_H 	H 	0.691	0.4987	0.9299	0.016
Mof_H 	H 	0.6621	0.5557	0.9778	0.036
Mof_O 	O 	0.88995	0.47942	0.92064	-0.519
Mof_N 	N 	0.2601	0.06	0.96527	-0.182
Mof_H 	H 	0.259	0.1051	0.9891	0.073
Mof_C 	C 	0.27289	0.08997	0.897	-0.204
Mof_H 	H 	0.3105	0.1219	0.9003	0.069
Mof_H 	H 	0.2867	0.0538	0.8661	0.049
Mof_C 	C 	0.21389	0.12513	0.868	0.172
Mof_C 	C 	0.18201	0.1007	0.81146	-0.238
Mof_H 	H 	0.1992	0.0621	0.7898	0.085
Mof_C 	C 	0.19927	0.02367	0.97171	-0.43
Mof_H 	H 	0.191	0.9987	0.9299	0.218
Mof_H 	H 	0.1621	0.0557	0.9778	0.153
Mof_O 	O 	0.38995	0.97942	0.92064	-0.472
Mof_N 	N 	0.2601	0.56	0.46527	-0.236
Mof_H 	H 	0.259	0.6051	0.4891	0.057
Mof_C 	C 	0.27289	0.58997	0.397	-0.188
Mof_H 	H 	0.3105	0.6219	0.4003	0.061
Mof_H 	H 	0.2867	0.5538	0.3661	0.06
Mof_C 	C 	0.21389	0.62513	0.368	0.173
Mof_C 	C 	0.18201	0.6007	0.31146	-0.234
Mof_H 	H 	0.1992	0.5621	0.2898	0.094
Mof_C 	C 	0.19927	0.52367	0.47171	-0.085
Mof_H 	H 	0.191	0.4987	0.4299	0.032
Mof_H 	H 	0.1621	0.5557	0.4778	0.04
Mof_O 	O 	0.38995	0.47942	0.42064	-0.569
Mof_N 	N 	0.53473	0.2399	0.06	-0.179
Mof_H 	H 	0.5109	0.241	0.1051	0.043
Mof_C 	C 	0.603	0.22711	0.08997	-0.207
Mof_H 	H 	0.5997	0.1895	0.1219	0.061
Mof_H 	H 	0.6339	0.2133	0.0538	0.044
Mof_C 	C 	0.632	0.28611	0.12513	0.172
Mof_C 	C 	0.68854	0.31799	0.1007	-0.237
Mof_H 	H 	0.7102	0.3008	0.0621	0.083
Mof_C 	C 	0.52829	0.30073	0.02367	-0.59
Mof_H 	H 	0.5701	0.309	0.9987	0.254
Mof_H 	H 	0.5222	0.3379	0.0557	0.178
Mof_O 	O 	0.57936	0.11005	0.97942	-0.513
Mof_N 	N 	0.53473	0.7399	0.56	-0.234
Mof_H 	H 	0.5109	0.741	0.6051	0.06
Mof_C 	C 	0.603	0.72711	0.58997	-0.188
Mof_H 	H 	0.5997	0.6895	0.6219	0.06
Mof_H 	H 	0.6339	0.7133	0.5538	0.062
Mof_C 	C 	0.632	0.78611	0.62513	0.174
Mof_C 	C 	0.68854	0.81799	0.6007	-0.228
Mof_H 	H 	0.7102	0.8008	0.5621	0.095
Mof_C 	C 	0.52829	0.80073	0.52367	-0.091
Mof_H 	H 	0.5701	0.809	0.4987	0.047
Mof_H 	H 	0.5222	0.8379	0.5557	0.06
Mof_O 	O 	0.57936	0.61005	0.47942	-0.567
Mof_N 	N 	0.03473	0.2399	0.56	-0.226
Mof_H 	H 	0.0109	0.241	0.6051	0.03
Mof_C 	C 	0.103	0.22711	0.58997	-0.191
Mof_H 	H 	0.0997	0.1895	0.6219	0.053
Mof_H 	H 	0.1339	0.2133	0.5538	0.057
Mof_C 	C 	0.132	0.28611	0.62513	0.173
Mof_C 	C 	0.18854	0.31799	0.6007	-0.233
Mof_H 	H 	0.2102	0.3008	0.5621	0.093
Mof_C 	C 	0.02829	0.30073	0.52367	-0.236
Mof_H 	H 	0.0701	0.309	0.4987	0.063
Mof_H 	H 	0.0222	0.3379	0.5557	0.064
Mof_O 	O 	0.07936	0.11005	0.47942	-0.601
Mof_N 	N 	0.03473	0.7399	0.06	-0.173
Mof_H 	H 	0.0109	0.741	0.1051	0.02
Mof_C 	C 	0.103	0.72711	0.08997	-0.21
Mof_H 	H 	0.0997	0.6895	0.1219	0.057
Mof_H 	H 	0.1339	0.7133	0.0538	0.043
Mof_C 	C 	0.132	0.78611	0.12513	0.172
Mof_C 	C 	0.18854	0.81799	0.1007	-0.235
Mof_H 	H 	0.2102	0.8008	0.0621	0.081
Mof_C 	C 	0.02829	0.80073	0.02367	-0.71
Mof_H 	H 	0.0701	0.809	0.9987	0.277
Mof_H 	H 	0.0222	0.8379	0.0557	0.196
Mof_O 	O 	0.07936	0.61005	0.97942	-0.522
Mof_N 	N 	0.46527	0.2399	0.94	-0.285
Mof_H 	H 	0.4891	0.241	0.8949	0.071
Mof_C 	C 	0.397	0.22711	0.91003	-0.167
Mof_H 	H 	0.4003	0.1895	0.8781	0.057
Mof_H 	H 	0.3661	0.2133	0.9462	0.077
Mof_C 	C 	0.368	0.28611	0.87487	0.172
Mof_C 	C 	0.31146	0.31799	0.8993	-0.223
Mof_H 	H 	0.2898	0.3008	0.9379	0.106
Mof_C 	C 	0.47171	0.30073	0.97633	0.417
Mof_H 	H 	0.4299	0.309	0.0013	-0.175
Mof_H 	H 	0.4778	0.3379	0.9443	-0.08
Mof_O 	O 	0.42064	0.11005	0.02058	-0.628
Mof_N 	N 	0.46527	0.7399	0.44	-0.235
Mof_H 	H 	0.4891	0.741	0.3949	0.059
Mof_C 	C 	0.397	0.72711	0.41003	-0.187
Mof_H 	H 	0.4003	0.6895	0.3781	0.06
Mof_H 	H 	0.3661	0.7133	0.4462	0.061
Mof_C 	C 	0.368	0.78611	0.37487	0.172
Mof_C 	C 	0.31146	0.81799	0.3993	-0.225
Mof_H 	H 	0.2898	0.8008	0.4379	0.093
Mof_C 	C 	0.47171	0.80073	0.47633	-0.09
Mof_H 	H 	0.4299	0.809	0.5013	0.046
Mof_H 	H 	0.4778	0.8379	0.4443	0.06
Mof_O 	O 	0.42064	0.61005	0.52058	-0.567
Mof_N 	N 	0.96527	0.2399	0.44	-0.238
Mof_H 	H 	0.9891	0.241	0.3949	0.085
Mof_C 	C 	0.897	0.22711	0.41003	-0.183
Mof_H 	H 	0.9003	0.1895	0.3781	0.065
Mof_H 	H 	0.8661	0.2133	0.4462	0.063
Mof_C 	C 	0.868	0.28611	0.37487	0.171
Mof_C 	C 	0.81146	0.31799	0.3993	-0.227
Mof_H 	H 	0.7898	0.3008	0.4379	0.095
Mof_C 	C 	0.97171	0.30073	0.47633	0.062
Mof_H 	H 	0.9299	0.309	0.5013	0.015
Mof_H 	H 	0.9778	0.3379	0.4443	0.035
Mof_O 	O 	0.92064	0.11005	0.52058	-0.545
Mof_N 	N 	0.96527	0.7399	0.94	-0.283
Mof_H 	H 	0.9891	0.741	0.8949	0.1
Mof_C 	C 	0.897	0.72711	0.91003	-0.165
Mof_H 	H 	0.9003	0.6895	0.8781	0.065
Mof_H 	H 	0.8661	0.7133	0.9462	0.082
Mof_C 	C 	0.868	0.78611	0.87487	0.173
Mof_C 	C 	0.81146	0.81799	0.8993	-0.219
Mof_H 	H 	0.7898	0.8008	0.9379	0.107
Mof_C 	C 	0.97171	0.80073	0.97633	0.526
Mof_H 	H 	0.9299	0.809	0.0013	-0.175
Mof_H 	H 	0.9778	0.8379	0.9443	-0.077
Mof_O 	O 	0.92064	0.61005	0.02058	-0.58
Mof_N 	N 	0.53473	0.7601	0.94	-0.282
Mof_H 	H 	0.5109	0.759	0.8949	0.072
Mof_C 	C 	0.603	0.77289	0.91003	-0.171
Mof_H 	H 	0.5997	0.8105	0.8781	0.062
Mof_H 	H 	0.6339	0.7867	0.9462	0.081
Mof_C 	C 	0.632	0.71389	0.87487	0.175
Mof_C 	C 	0.68854	0.68201	0.8993	-0.227
Mof_H 	H 	0.7102	0.6992	0.9379	0.108
Mof_C 	C 	0.52829	0.69927	0.97633	0.401
Mof_H 	H 	0.5701	0.691	0.0013	-0.166
Mof_H 	H 	0.5222	0.6621	0.9443	-0.076
Mof_O 	O 	0.57936	0.88995	0.02058	-0.596
Mof_N 	N 	0.53473	0.2601	0.44	-0.235
Mof_H 	H 	0.5109	0.259	0.3949	0.055
Mof_C 	C 	0.603	0.27289	0.41003	-0.189
Mof_H 	H 	0.5997	0.3105	0.3781	0.061
Mof_H 	H 	0.6339	0.2867	0.4462	0.061
Mof_C 	C 	0.632	0.21389	0.37487	0.173
Mof_C 	C 	0.68854	0.18201	0.3993	-0.236
Mof_H 	H 	0.7102	0.1992	0.4379	0.097
Mof_C 	C 	0.52829	0.19927	0.47633	-0.087
Mof_H 	H 	0.5701	0.191	0.5013	0.034
Mof_H 	H 	0.5222	0.1621	0.4443	0.04
Mof_O 	O 	0.57936	0.38995	0.52058	-0.567
Mof_N 	N 	0.03473	0.7601	0.44	-0.225
Mof_H 	H 	0.0109	0.759	0.3949	0.032
Mof_C 	C 	0.103	0.77289	0.41003	-0.194
Mof_H 	H 	0.0997	0.8105	0.3781	0.058
Mof_H 	H 	0.1339	0.7867	0.4462	0.061
Mof_C 	C 	0.132	0.71389	0.37487	0.174
Mof_C 	C 	0.18854	0.68201	0.3993	-0.234
Mof_H 	H 	0.2102	0.6992	0.4379	0.095
Mof_C 	C 	0.02829	0.69927	0.47633	-0.232
Mof_H 	H 	0.0701	0.691	0.5013	0.065
Mof_H 	H 	0.0222	0.6621	0.4443	0.063
Mof_O 	O 	0.07936	0.88995	0.52058	-0.57
Mof_N 	N 	0.03473	0.2601	0.94	-0.275
Mof_H 	H 	0.0109	0.259	0.8949	0.043
Mof_C 	C 	0.103	0.27289	0.91003	-0.173
Mof_H 	H 	0.0997	0.3105	0.8781	0.055
Mof_H 	H 	0.1339	0.2867	0.9462	0.077
Mof_C 	C 	0.132	0.21389	0.87487	0.174
Mof_C 	C 	0.18854	0.18201	0.8993	-0.231
Mof_H 	H 	0.2102	0.1992	0.9379	0.107
Mof_C 	C 	0.02829	0.19927	0.97633	0.271
Mof_H 	H 	0.0701	0.191	0.0013	-0.157
Mof_H 	H 	0.0222	0.1621	0.9443	-0.074
Mof_O 	O 	0.07936	0.38995	0.02058	-0.637
Mof_N 	N 	0.46527	0.7601	0.06	-0.18
Mof_H 	H 	0.4891	0.759	0.1051	0.047
Mof_C 	C 	0.397	0.77289	0.08997	-0.208
Mof_H 	H 	0.4003	0.8105	0.1219	0.065
Mof_H 	H 	0.3661	0.7867	0.0538	0.047
Mof_C 	C 	0.368	0.71389	0.12513	0.173
Mof_C 	C 	0.31146	0.68201	0.1007	-0.237
Mof_H 	H 	0.2898	0.6992	0.0621	0.083
Mof_C 	C 	0.47171	0.69927	0.02367	-0.576
Mof_H 	H 	0.4299	0.691	0.9987	0.249
Mof_H 	H 	0.4778	0.6621	0.0557	0.175
Mof_O 	O 	0.42064	0.88995	0.97942	-0.488
Mof_N 	N 	0.46527	0.2601	0.56	-0.236
Mof_H 	H 	0.4891	0.259	0.6051	0.057
Mof_C 	C 	0.397	0.27289	0.58997	-0.188
Mof_H 	H 	0.4003	0.3105	0.6219	0.061
Mof_H 	H 	0.3661	0.2867	0.5538	0.06
Mof_C 	C 	0.368	0.21389	0.62513	0.173
Mof_C 	C 	0.31146	0.18201	0.6007	-0.234
Mof_H 	H 	0.2898	0.1992	0.5621	0.094
Mof_C 	C 	0.47171	0.19927	0.52367	-0.085
Mof_H 	H 	0.4299	0.191	0.4987	0.032
Mof_H 	H 	0.4778	0.1621	0.5557	0.04
Mof_O 	O 	0.42064	0.38995	0.47942	-0.569
Mof_N 	N 	0.96527	0.7601	0.56	-0.237
Mof_H 	H 	0.9891	0.759	0.6051	0.087
Mof_C 	C 	0.897	0.77289	0.58997	-0.186
Mof_H 	H 	0.9003	0.8105	0.6219	0.069
Mof_H 	H 	0.8661	0.7867	0.5538	0.066
Mof_C 	C 	0.868	0.71389	0.62513	0.174
Mof_C 	C 	0.81146	0.68201	0.6007	-0.23
Mof_H 	H 	0.7898	0.6992	0.5621	0.096
Mof_C 	C 	0.97171	0.69927	0.52367	0.058
Mof_H 	H 	0.9299	0.691	0.4987	0.016
Mof_H 	H 	0.9778	0.6621	0.5557	0.036
Mof_O 	O 	0.92064	0.88995	0.47942	-0.519
Mof_N 	N 	0.96527	0.2601	0.06	-0.182
Mof_H 	H 	0.9891	0.259	0.1051	0.073
Mof_C 	C 	0.897	0.27289	0.08997	-0.204
Mof_H 	H 	0.9003	0.3105	0.1219	0.069
Mof_H 	H 	0.8661	0.2867	0.0538	0.049
Mof_C 	C 	0.868	0.21389	0.12513	0.172
Mof_C 	C 	0.81146	0.18201	0.1007	-0.238
Mof_H 	H 	0.7898	0.1992	0.0621	0.085
Mof_C 	C 	0.97171	0.19927	0.02367	-0.43
Mof_H 	H 	0.9299	0.191	0.9987	0.218
Mof_H 	H 	0.9778	0.1621	0.0557	0.153
Mof_O 	O 	0.92064	0.38995	0.97942	-0.472
Mof_Zn	Zn	6.12764e-34	0.5	0.16343	1.178
Mof_Zn	Zn	-3.82361e-33	-6.31108e-33	0.66343	1.15
Mof_Zn	Zn	0.5	0.5	0.66343	1.209
Mof_Zn	Zn	0.5	0	0.16343	1.178
Mof_Zn	Zn	-1.57966e-32	0.5	0.83657	1.181
Mof_Zn	Zn	-1.8936e-33	-3.15554e-33	0.33657	1.149
Mof_Zn	Zn	0.5	0.5	0.33657	1.209
Mof_Zn	Zn	0.5	-6.31108e-33	0.83657	1.181
Mof_Zn	Zn	0.16343	0	0.5	1.178
Mof_Zn	Zn	0.16343	0.5	-0	1.178
Mof_Zn	Zn	0.66343	0	-0	1.15
Mof_Zn	Zn	0.66343	0.5	0.5	1.209
Mof_Zn	Zn	0.83657	0	0.5	1.181
Mof_Zn	Zn	0.83657	0.5	-0	1.181
Mof_Zn	Zn	0.33657	0	-0	1.149
Mof_Zn	Zn	0.33657	0.5	0.5	1.209
Mof_Zn	Zn	0.5	0.16343	-0	1.178
Mof_Zn	Zn	0.5	0.66343	0.5	1.209
Mof_Zn	Zn	1.8747e-33	0.16343	0.5	1.178
Mof_Zn	Zn	-6.31108e-33	0.66343	-0	1.15
Mof_Zn	Zn	0.5	0.83657	-0	1.181
Mof_Zn	Zn	0.5	0.33657	0.5	1.209
Mof_Zn	Zn	-1.07475e-32	0.83657	0.5	1.181
Mof_Zn	Zn	-3.15554e-33	0.33657	-0	1.149
Mof_C 	C 	0.92998	0.57002	0.07002	0.503
Mof_C 	C 	0.07002	0.42998	0.07002	0.508
Mof_C 	C 	0.07002	0.57002	0.92998	0.503
Mof_C 	C 	0.92998	0.42998	0.92998	0.498
Mof_C 	C 	0.07002	0.92998	0.57002	0.503
Mof_C 	C 	0.07002	0.07002	0.42998	0.508
Mof_C 	C 	0.92998	0.07002	0.57002	0.503
Mof_C 	C 	0.92998	0.92998	0.42998	0.498
Mof_C 	C 	0.57002	0.07002	0.92998	0.503
Mof_C 	C 	0.57002	0.57002	0.42998	0.506
Mof_C 	C 	0.42998	0.07002	0.07002	0.508
Mof_C 	C 	0.42998	0.57002	0.57002	0.506
Mof_C 	C 	0.57002	0.92998	0.07002	0.503
Mof_C 	C 	0.57002	0.42998	0.57002	0.506
Mof_C 	C 	0.42998	0.92998	0.92998	0.498
Mof_C 	C 	0.42998	0.42998	0.42998	0.505
_end
