data_functionalizedCrystal
_audit_creation_method	'EQeq! by Chris Wilmer'
_symmetry_space_group_name_H-M	'P1'
_symmetry_Int_Tables_number	1
_symmetry_cell_setting	triclinic
loop_
_symmetry_equiv_pos_as_xyz
  x,y,z
_cell_length_a	18.577
_cell_length_b	18.577
_cell_length_c	6.841
_cell_angle_alpha	90
_cell_angle_beta	90
_cell_angle_gamma	120
loop_
_atom_site_label
_atom_site_type_symbol
_atom_site_fract_x
_atom_site_fract_y
_atom_site_fract_z
_atom_site_charge
Mof_O 	O 	0.3711	0.4804	0.5197	-0.407
Mof_O 	O 	0.5891	0.5584	0.749	-0.438
Mof_C 	C 	0.3598	0.4499	0.3525	0.371
Mof_H 	H 	0.4702	0.5778	0.954	0.341
Mof_C 	C 	0.2757	0.4221	0.2599	-0.122
Mof_H 	H 	0.3449	0.5716	0.7951	-0.041
Mof_C 	C 	0.2541	0.3782	0.088	0.042
Mof_H 	H 	0.3277	0.5888	0.123	0.104
Mof_H 	H 	0.2924	0.365	0.024	0.046
Mof_O 	O 	0.0829	0.2858	0.7496	-0.244
Mof_C 	C 	0.0509	0.2397	0.582	-0.066
Mof_H 	H 	0.9974	0.2327	0.5525	0.048
Mof_H 	H 	0.0869	0.2679	0.4722	0.06
Mof_H 	H 	0.0459	0.1864	0.5934	0.051
Mof_O 	O 	0.5196	0.8907	0.5197	-0.406
Mof_O 	O 	0.4416	0.0307	0.749	-0.436
Mof_C 	C 	0.5501	0.9099	0.3525	0.372
Mof_H 	H 	0.4222	0.8924	0.954	0.341
Mof_C 	C 	0.5779	0.8536	0.2599	-0.121
Mof_H 	H 	0.4284	0.7733	0.7951	-0.04
Mof_C 	C 	0.6218	0.8759	0.088	0.042
Mof_H 	H 	0.4112	0.7389	0.123	0.103
Mof_H 	H 	0.635	0.9274	0.024	0.046
Mof_O 	O 	0.7142	0.7971	0.7496	-0.244
Mof_C 	C 	0.7603	0.8112	0.582	-0.065
Mof_H 	H 	0.7673	0.7647	0.5525	0.048
Mof_H 	H 	0.7321	0.819	0.4722	0.06
Mof_H 	H 	0.8136	0.8595	0.5934	0.05
Mof_O 	O 	0.1093	0.6289	0.5197	-0.406
Mof_O 	O 	0.9693	0.4109	0.749	-0.436
Mof_C 	C 	0.0901	0.6402	0.3525	0.372
Mof_H 	H 	0.1076	0.5298	0.954	0.341
Mof_C 	C 	0.1464	0.7243	0.2599	-0.12
Mof_H 	H 	0.2267	0.6551	0.7951	-0.04
Mof_C 	C 	0.1241	0.7459	0.088	0.04
Mof_H 	H 	0.2611	0.6723	0.123	0.103
Mof_H 	H 	0.0726	0.7076	0.024	0.047
Mof_O 	O 	0.2029	0.9171	0.7496	-0.244
Mof_C 	C 	0.1888	0.9491	0.582	-0.067
Mof_H 	H 	0.2353	0.0026	0.5525	0.048
Mof_H 	H 	0.181	0.9131	0.4722	0.061
Mof_H 	H 	0.1405	0.9541	0.5934	0.051
Mof_O 	O 	0.4804	0.3711	0.4803	-0.406
Mof_O 	O 	0.5584	0.5891	0.251	-0.437
Mof_C 	C 	0.4499	0.3598	0.6475	0.372
Mof_H 	H 	0.5778	0.4702	0.046	0.342
Mof_C 	C 	0.4221	0.2757	0.7401	-0.122
Mof_H 	H 	0.5716	0.3449	0.2049	-0.041
Mof_C 	C 	0.3782	0.2541	0.912	0.042
Mof_H 	H 	0.5888	0.3277	0.877	0.104
Mof_H 	H 	0.365	0.2924	0.976	0.046
Mof_O 	O 	0.2858	0.0829	0.2504	-0.244
Mof_C 	C 	0.2397	0.0509	0.418	-0.066
Mof_H 	H 	0.2327	0.9974	0.4475	0.048
Mof_H 	H 	0.2679	0.0869	0.5278	0.06
Mof_H 	H 	0.1864	0.0459	0.4066	0.051
Mof_O 	O 	0.8907	0.5196	0.4803	-0.406
Mof_O 	O 	0.0307	0.4416	0.251	-0.436
Mof_C 	C 	0.9099	0.5501	0.6475	0.372
Mof_H 	H 	0.8924	0.4222	0.046	0.341
Mof_C 	C 	0.8536	0.5779	0.7401	-0.121
Mof_H 	H 	0.7733	0.4284	0.2049	-0.04
Mof_C 	C 	0.8759	0.6218	0.912	0.042
Mof_H 	H 	0.7389	0.4112	0.877	0.103
Mof_H 	H 	0.9274	0.635	0.976	0.046
Mof_O 	O 	0.7971	0.7142	0.2504	-0.244
Mof_C 	C 	0.8112	0.7603	0.418	-0.065
Mof_H 	H 	0.7647	0.7673	0.4475	0.048
Mof_H 	H 	0.819	0.7321	0.5278	0.06
Mof_H 	H 	0.8595	0.8136	0.4066	0.05
Mof_O 	O 	0.6289	0.1093	0.4803	-0.406
Mof_O 	O 	0.4109	0.9693	0.251	-0.436
Mof_C 	C 	0.6402	0.0901	0.6475	0.372
Mof_H 	H 	0.5298	0.1076	0.046	0.341
Mof_C 	C 	0.7243	0.1464	0.7401	-0.12
Mof_H 	H 	0.6551	0.2267	0.2049	-0.04
Mof_C 	C 	0.7459	0.1241	0.912	0.04
Mof_H 	H 	0.6723	0.2611	0.877	0.103
Mof_H 	H 	0.7076	0.0726	0.976	0.047
Mof_O 	O 	0.9171	0.2029	0.2504	-0.244
Mof_C 	C 	0.9491	0.1888	0.418	-0.067
Mof_H 	H 	0.0026	0.2353	0.4475	0.048
Mof_H 	H 	0.9131	0.181	0.5278	0.061
Mof_H 	H 	0.9541	0.1405	0.4066	0.051
Mof_O 	O 	0.6289	0.5196	0.4803	-0.406
Mof_O 	O 	0.4109	0.4416	0.251	-0.437
Mof_C 	C 	0.6402	0.5501	0.6475	0.372
Mof_H 	H 	0.5298	0.4222	0.046	0.342
Mof_C 	C 	0.7243	0.5779	0.7401	-0.122
Mof_H 	H 	0.6551	0.4284	0.2049	-0.041
Mof_C 	C 	0.7459	0.6218	0.912	0.042
Mof_H 	H 	0.6723	0.4112	0.877	0.104
Mof_H 	H 	0.7076	0.635	0.976	0.046
Mof_O 	O 	0.9171	0.7142	0.2504	-0.244
Mof_C 	C 	0.9491	0.7603	0.418	-0.066
Mof_H 	H 	0.0026	0.7673	0.4475	0.048
Mof_H 	H 	0.9131	0.7321	0.5278	0.06
Mof_H 	H 	0.9541	0.8136	0.4066	0.051
Mof_O 	O 	0.4804	0.1093	0.4803	-0.406
Mof_O 	O 	0.5584	0.9693	0.251	-0.436
Mof_C 	C 	0.4499	0.0901	0.6475	0.372
Mof_H 	H 	0.5778	0.1076	0.046	0.341
Mof_C 	C 	0.4221	0.1464	0.7401	-0.121
Mof_H 	H 	0.5716	0.2267	0.2049	-0.04
Mof_C 	C 	0.3782	0.1241	0.912	0.042
Mof_H 	H 	0.5888	0.2611	0.877	0.103
Mof_H 	H 	0.365	0.0726	0.976	0.046
Mof_O 	O 	0.2858	0.2029	0.2504	-0.244
Mof_C 	C 	0.2397	0.1888	0.418	-0.065
Mof_H 	H 	0.2327	0.2353	0.4475	0.048
Mof_H 	H 	0.2679	0.181	0.5278	0.06
Mof_H 	H 	0.1864	0.1405	0.4066	0.05
Mof_O 	O 	0.8907	0.3711	0.4803	-0.406
Mof_O 	O 	0.0307	0.5891	0.251	-0.436
Mof_C 	C 	0.9099	0.3598	0.6475	0.372
Mof_H 	H 	0.8924	0.4702	0.046	0.341
Mof_C 	C 	0.8536	0.2757	0.7401	-0.12
Mof_H 	H 	0.7733	0.3449	0.2049	-0.04
Mof_C 	C 	0.8759	0.2541	0.912	0.04
Mof_H 	H 	0.7389	0.3277	0.877	0.103
Mof_H 	H 	0.9274	0.2924	0.976	0.047
Mof_O 	O 	0.7971	0.0829	0.2504	-0.244
Mof_C 	C 	0.8112	0.0509	0.418	-0.067
Mof_H 	H 	0.7647	0.9974	0.4475	0.048
Mof_H 	H 	0.819	0.0869	0.5278	0.061
Mof_H 	H 	0.8595	0.0459	0.4066	0.051
Mof_O 	O 	0.5196	0.6289	0.5197	-0.406
Mof_O 	O 	0.4416	0.4109	0.749	-0.437
Mof_C 	C 	0.5501	0.6402	0.3525	0.372
Mof_H 	H 	0.4222	0.5298	0.954	0.342
Mof_C 	C 	0.5779	0.7243	0.2599	-0.122
Mof_H 	H 	0.4284	0.6551	0.7951	-0.041
Mof_C 	C 	0.6218	0.7459	0.088	0.042
Mof_H 	H 	0.4112	0.6723	0.123	0.104
Mof_H 	H 	0.635	0.7076	0.024	0.046
Mof_O 	O 	0.7142	0.9171	0.7496	-0.244
Mof_C 	C 	0.7603	0.9491	0.582	-0.066
Mof_H 	H 	0.7673	0.0026	0.5525	0.048
Mof_H 	H 	0.7321	0.9131	0.4722	0.06
Mof_H 	H 	0.8136	0.9541	0.5934	0.051
Mof_O 	O 	0.1093	0.4804	0.5197	-0.406
Mof_O 	O 	0.9693	0.5584	0.749	-0.436
Mof_C 	C 	0.0901	0.4499	0.3525	0.372
Mof_H 	H 	0.1076	0.5778	0.954	0.341
Mof_C 	C 	0.1464	0.4221	0.2599	-0.121
Mof_H 	H 	0.2267	0.5716	0.7951	-0.04
Mof_C 	C 	0.1241	0.3782	0.088	0.042
Mof_H 	H 	0.2611	0.5888	0.123	0.103
Mof_H 	H 	0.0726	0.365	0.024	0.046
Mof_O 	O 	0.2029	0.2858	0.7496	-0.244
Mof_C 	C 	0.1888	0.2397	0.582	-0.065
Mof_H 	H 	0.2353	0.2327	0.5525	0.048
Mof_H 	H 	0.181	0.2679	0.4722	0.06
Mof_H 	H 	0.1405	0.1864	0.5934	0.05
Mof_O 	O 	0.3711	0.8907	0.5197	-0.406
Mof_O 	O 	0.5891	0.0307	0.749	-0.436
Mof_C 	C 	0.3598	0.9099	0.3525	0.372
Mof_H 	H 	0.4702	0.8924	0.954	0.341
Mof_C 	C 	0.2757	0.8536	0.2599	-0.12
Mof_H 	H 	0.3449	0.7733	0.7951	-0.04
Mof_C 	C 	0.2541	0.8759	0.088	0.04
Mof_H 	H 	0.3277	0.7389	0.123	0.103
Mof_H 	H 	0.2924	0.9274	0.024	0.047
Mof_O 	O 	0.0829	0.7971	0.7496	-0.244
Mof_C 	C 	0.0509	0.8112	0.582	-0.067
Mof_H 	H 	0.9974	0.7647	0.5525	0.048
Mof_H 	H 	0.0869	0.819	0.4722	0.061
Mof_H 	H 	0.0459	0.8595	0.5934	0.051
Mof_Cu	Cu	0.47665	0.52335	0.65643	0.914
Mof_N 	N 	0.4347	0.5653	0.907	-0.733
Mof_O 	O 	0.4401	0.5599	0.9135	-0.03
Mof_C 	C 	0.3934	0.6066	0.876	0.294
Mof_C 	C 	0.3655	0.6345	0.05	-0.246
Mof_Cu	Cu	0.47665	0.9533	0.65643	0.914
Mof_N 	N 	0.4347	0.8694	0.907	-0.731
Mof_O 	O 	0.4401	0.8802	0.9135	-0.03
Mof_C 	C 	0.3934	0.7868	0.876	0.292
Mof_C 	C 	0.3655	0.731	0.05	-0.243
Mof_Cu	Cu	0.0467	0.52335	0.65643	0.914
Mof_N 	N 	0.1306	0.5653	0.907	-0.731
Mof_O 	O 	0.1198	0.5599	0.9135	-0.03
Mof_C 	C 	0.2132	0.6066	0.876	0.292
Mof_C 	C 	0.269	0.6345	0.05	-0.243
Mof_Cu	Cu	0.52335	0.47665	0.34357	0.914
Mof_N 	N 	0.5653	0.4347	0.093	-0.733
Mof_O 	O 	0.5599	0.4401	0.0865	-0.03
Mof_C 	C 	0.6066	0.3934	0.124	0.294
Mof_C 	C 	0.6345	0.3655	0.95	-0.246
Mof_Cu	Cu	0.9533	0.47665	0.34357	0.914
Mof_N 	N 	0.8694	0.4347	0.093	-0.731
Mof_O 	O 	0.8802	0.4401	0.0865	-0.03
Mof_C 	C 	0.7868	0.3934	0.124	0.292
Mof_C 	C 	0.731	0.3655	0.95	-0.243
Mof_Cu	Cu	0.52335	0.0467	0.34357	0.914
Mof_N 	N 	0.5653	0.1306	0.093	-0.731
Mof_O 	O 	0.5599	0.1198	0.0865	-0.03
Mof_C 	C 	0.6066	0.2132	0.124	0.292
Mof_C 	C 	0.6345	0.269	0.95	-0.243
Mof_C 	C 	0.22205	0.4441	0.3499	0.046
Mof_C 	C 	0.17705	0.3541	0.0057	-0.092
Mof_H 	H 	0.23685	0.4737	0.4724	0.046
Mof_C 	C 	0.1523	0.3046	0.8194	0.3
Mof_C 	C 	0.5559	0.77795	0.3499	0.046
Mof_C 	C 	0.6459	0.82295	0.0057	-0.092
Mof_H 	H 	0.5263	0.76315	0.4724	0.046
Mof_C 	C 	0.6954	0.8477	0.8194	0.3
Mof_C 	C 	0.22205	0.77795	0.3499	0.045
Mof_C 	C 	0.17705	0.82295	0.0057	-0.088
Mof_H 	H 	0.23685	0.76315	0.4724	0.047
Mof_C 	C 	0.1523	0.8477	0.8194	0.297
Mof_C 	C 	0.4441	0.22205	0.6501	0.046
Mof_C 	C 	0.3541	0.17705	0.9943	-0.092
Mof_H 	H 	0.4737	0.23685	0.5276	0.046
Mof_C 	C 	0.3046	0.1523	0.1806	0.3
Mof_C 	C 	0.77795	0.5559	0.6501	0.046
Mof_C 	C 	0.82295	0.6459	0.9943	-0.092
Mof_H 	H 	0.76315	0.5263	0.5276	0.046
Mof_C 	C 	0.8477	0.6954	0.1806	0.3
Mof_C 	C 	0.77795	0.22205	0.6501	0.045
Mof_C 	C 	0.82295	0.17705	0.9943	-0.088
Mof_H 	H 	0.76315	0.23685	0.5276	0.047
Mof_C 	C 	0.8477	0.1523	0.1806	0.297
_end
