# CIF file generated by openbabel 3.1.0, see https://openbabel.org
data_I
_chemical_name_common 'image0'
_cell_length_a 16.291
_cell_length_b 24.684
_cell_length_c 13.435
_cell_angle_alpha 90
_cell_angle_beta 124.098
_cell_angle_gamma 90
_space_group_name_H-M_alt 'P 1'
_space_group_name_Hall 'P 1'
loop_
    _symmetry_equiv_pos_as_xyz
    x,y,z
loop_
    _atom_site_label
    _atom_site_type_symbol
    _atom_site_fract_x
    _atom_site_fract_y
    _atom_site_fract_z
    _atom_site_occupancy
    Zn1      Zn       0.82509    0.55238    0.72903    1.000
    O1       O        0.23610    0.56340    0.94360    1.000
    O2       O        0.12000    0.62230    0.91050    1.000
    O3       O        0.15090    0.52980    0.08350    1.000
    O4       O        0.25080    0.51290    0.28030    1.000
    O5       O        0.46900    0.65680    0.53610    1.000
    O6       O        0.51800    0.71640    0.47030    1.000
    O7       O        0.95980    0.53897    0.84560    1.000
    H1       H        0.99850    0.56200    0.84530    1.000
    N1       N        0.46810    0.67780    0.45500    1.000
    N2       N        0.95970    0.57100    0.05920    1.000
    N3       N        0.73720    0.88440    0.23560    1.000
    C1       C        0.26830    0.61800    0.10420    1.000
    C2       C        0.28150    0.59030    0.20350    1.000
    C3       C        0.34900    0.60960    0.31830    1.000
    H2       H        0.35980    0.59080    0.38460    1.000
    C4       C        0.40010    0.65670    0.33430    1.000
    C5       C        0.38850    0.68540    0.23930    1.000
    H3       H        0.42450    0.71680    0.25200    1.000
    C6       C        0.32130    0.66590    0.12410    1.000
    H4       H        0.31130    0.68520    0.05860    1.000
    C7       C        0.20050    0.59970    0.97660    1.000
    C8       C        0.22150    0.54040    0.18540    1.000
    C9       C        0.97930    0.62160    0.04590    1.000
    H5       H        0.01800    0.62700    0.01580    1.000
    C10      C        0.94600    0.66630    0.07360    1.000
    H6       H        0.96160    0.70100    0.06200    1.000
    C11      C        0.88750    0.65900    0.12000    1.000
    C12      C        0.86730    0.60570    0.13330    1.000
    H7       H        0.82900    0.59870    0.16340    1.000
    C13      C        0.90310    0.56360    0.10280    1.000
    H8       H        0.88810    0.52840    0.11230    1.000
    C14      C        0.84880    0.70330    0.15470    1.000
    H9       H        0.80900    0.69350    0.18120    1.000
    C15      C        0.86390    0.75520    0.15230    1.000
    H10      H        0.90550    0.76530    0.12860    1.000
    C16      C        0.79460    0.89300    0.19590    1.000
    H11      H        0.80710    0.92860    0.18580    1.000
    C17      C        0.83660    0.85230    0.16900    1.000
    H12      H        0.87550    0.86080    0.14050    1.000
    C18      C        0.82120    0.79920    0.18400    1.000
    C19      C        0.76270    0.78960    0.22800    1.000
    H13      H        0.75110    0.75440    0.24170    1.000
    C20      C        0.72230    0.83290    0.25090    1.000
    H14      H        0.68230    0.82570    0.27860    1.000
    Zn2      Zn       0.32509    0.05238    0.72903    1.000
    O8       O        0.73610    0.06340    0.94360    1.000
    O9       O        0.62000    0.12230    0.91050    1.000
    O10      O        0.65090    0.02980    0.08350    1.000
    O11      O        0.75080    0.01290    0.28030    1.000
    O12      O        0.96900    0.15680    0.53610    1.000
    O13      O        0.01800    0.21640    0.47030    1.000
    O14      O        0.45980    0.03897    0.84560    1.000
    H15      H        0.49850    0.06200    0.84530    1.000
    N4       N        0.96810    0.17780    0.45500    1.000
    N5       N        0.45970    0.07100    0.05920    1.000
    N6       N        0.23720    0.38440    0.23560    1.000
    C21      C        0.76830    0.11800    0.10420    1.000
    C22      C        0.78150    0.09030    0.20350    1.000
    C23      C        0.84900    0.10960    0.31830    1.000
    H16      H        0.85980    0.09080    0.38460    1.000
    C24      C        0.90010    0.15670    0.33430    1.000
    C25      C        0.88850    0.18540    0.23930    1.000
    H17      H        0.92450    0.21680    0.25200    1.000
    C26      C        0.82130    0.16590    0.12410    1.000
    H18      H        0.81130    0.18520    0.05860    1.000
    C27      C        0.70050    0.09970    0.97660    1.000
    C28      C        0.72150    0.04040    0.18540    1.000
    C29      C        0.47930    0.12160    0.04590    1.000
    H19      H        0.51800    0.12700    0.01580    1.000
    C30      C        0.44600    0.16630    0.07360    1.000
    H20      H        0.46160    0.20100    0.06200    1.000
    C31      C        0.38750    0.15900    0.12000    1.000
    C32      C        0.36730    0.10570    0.13330    1.000
    H21      H        0.32900    0.09870    0.16340    1.000
    C33      C        0.40310    0.06360    0.10280    1.000
    H22      H        0.38810    0.02840    0.11230    1.000
    C34      C        0.34880    0.20330    0.15470    1.000
    H23      H        0.30900    0.19350    0.18120    1.000
    C35      C        0.36390    0.25520    0.15230    1.000
    H24      H        0.40550    0.26530    0.12860    1.000
    C36      C        0.29460    0.39300    0.19590    1.000
    H25      H        0.30710    0.42860    0.18580    1.000
    C37      C        0.33660    0.35230    0.16900    1.000
    H26      H        0.37550    0.36080    0.14050    1.000
    C38      C        0.32120    0.29920    0.18400    1.000
    C39      C        0.26270    0.28960    0.22800    1.000
    H27      H        0.25110    0.25440    0.24170    1.000
    C40      C        0.22230    0.33290    0.25090    1.000
    H28      H        0.18230    0.32570    0.27860    1.000
    Zn3      Zn       0.17491    0.55238    0.77097    1.000
    O15      O        0.76390    0.56340    0.55640    1.000
    O16      O        0.88000    0.62230    0.58950    1.000
    O17      O        0.84910    0.52980    0.41650    1.000
    O18      O        0.74920    0.51290    0.21970    1.000
    O19      O        0.53100    0.65680    0.96390    1.000
    O20      O        0.48200    0.71640    0.02970    1.000
    O21      O        0.04020    0.53897    0.65440    1.000
    H29      H        0.00150    0.56200    0.65470    1.000
    N7       N        0.53190    0.67780    0.04500    1.000
    N8       N        0.04030    0.57100    0.44080    1.000
    N9       N        0.26280    0.88440    0.26440    1.000
    C41      C        0.73170    0.61800    0.39580    1.000
    C42      C        0.71850    0.59030    0.29650    1.000
    C43      C        0.65100    0.60960    0.18170    1.000
    H30      H        0.64020    0.59080    0.11540    1.000
    C44      C        0.59990    0.65670    0.16570    1.000
    C45      C        0.61150    0.68540    0.26070    1.000
    H31      H        0.57550    0.71680    0.24800    1.000
    C46      C        0.67870    0.66590    0.37590    1.000
    H32      H        0.68870    0.68520    0.44140    1.000
    C47      C        0.79950    0.59970    0.52340    1.000
    C48      C        0.77850    0.54040    0.31460    1.000
    C49      C        0.02070    0.62160    0.45410    1.000
    H33      H        0.98200    0.62700    0.48420    1.000
    C50      C        0.05400    0.66630    0.42640    1.000
    H34      H        0.03840    0.70100    0.43800    1.000
    C51      C        0.11250    0.65900    0.38000    1.000
    C52      C        0.13270    0.60570    0.36670    1.000
    H35      H        0.17100    0.59870    0.33660    1.000
    C53      C        0.09690    0.56360    0.39720    1.000
    H36      H        0.11190    0.52840    0.38770    1.000
    C54      C        0.15120    0.70330    0.34530    1.000
    H37      H        0.19100    0.69350    0.31880    1.000
    C55      C        0.13610    0.75520    0.34770    1.000
    H38      H        0.09450    0.76530    0.37140    1.000
    C56      C        0.20540    0.89300    0.30410    1.000
    H39      H        0.19290    0.92860    0.31420    1.000
    C57      C        0.16340    0.85230    0.33100    1.000
    H40      H        0.12450    0.86080    0.35950    1.000
    C58      C        0.17880    0.79920    0.31600    1.000
    C59      C        0.23730    0.78960    0.27200    1.000
    H41      H        0.24890    0.75440    0.25830    1.000
    C60      C        0.27770    0.83290    0.24910    1.000
    H42      H        0.31770    0.82570    0.22140    1.000
    Zn4      Zn       0.67491    0.05238    0.77097    1.000
    O22      O        0.26390    0.06340    0.55640    1.000
    O23      O        0.38000    0.12230    0.58950    1.000
    O24      O        0.34910    0.02980    0.41650    1.000
    O25      O        0.24920    0.01290    0.21970    1.000
    O26      O        0.03100    0.15680    0.96390    1.000
    O27      O        0.98200    0.21640    0.02970    1.000
    O28      O        0.54020    0.03897    0.65440    1.000
    H43      H        0.50150    0.06200    0.65470    1.000
    N10      N        0.03190    0.17780    0.04500    1.000
    N11      N        0.54030    0.07100    0.44080    1.000
    N12      N        0.76280    0.38440    0.26440    1.000
    C61      C        0.23170    0.11800    0.39580    1.000
    C62      C        0.21850    0.09030    0.29650    1.000
    C63      C        0.15100    0.10960    0.18170    1.000
    H44      H        0.14020    0.09080    0.11540    1.000
    C64      C        0.09990    0.15670    0.16570    1.000
    C65      C        0.11150    0.18540    0.26070    1.000
    H45      H        0.07550    0.21680    0.24800    1.000
    C66      C        0.17870    0.16590    0.37590    1.000
    H46      H        0.18870    0.18520    0.44140    1.000
    C67      C        0.29950    0.09970    0.52340    1.000
    C68      C        0.27850    0.04040    0.31460    1.000
    C69      C        0.52070    0.12160    0.45410    1.000
    H47      H        0.48200    0.12700    0.48420    1.000
    C70      C        0.55400    0.16630    0.42640    1.000
    H48      H        0.53840    0.20100    0.43800    1.000
    C71      C        0.61250    0.15900    0.38000    1.000
    C72      C        0.63270    0.10570    0.36670    1.000
    H49      H        0.67100    0.09870    0.33660    1.000
    C73      C        0.59690    0.06360    0.39720    1.000
    H50      H        0.61190    0.02840    0.38770    1.000
    C74      C        0.65120    0.20330    0.34530    1.000
    H51      H        0.69100    0.19350    0.31880    1.000
    C75      C        0.63610    0.25520    0.34770    1.000
    H52      H        0.59450    0.26530    0.37140    1.000
    C76      C        0.70540    0.39300    0.30410    1.000
    H53      H        0.69290    0.42860    0.31420    1.000
    C77      C        0.66340    0.35230    0.33100    1.000
    H54      H        0.62450    0.36080    0.35950    1.000
    C78      C        0.67880    0.29920    0.31600    1.000
    C79      C        0.73730    0.28960    0.27200    1.000
    H55      H        0.74890    0.25440    0.25830    1.000
    C80      C        0.77770    0.33290    0.24910    1.000
    H56      H        0.81770    0.32570    0.22140    1.000
    Zn5      Zn       0.17491    0.44762    0.27097    1.000
    O29      O        0.76390    0.43660    0.05640    1.000
    O30      O        0.88000    0.37770    0.08950    1.000
    O31      O        0.84910    0.47020    0.91650    1.000
    O32      O        0.74920    0.48710    0.71970    1.000
    O33      O        0.53100    0.34320    0.46390    1.000
    O34      O        0.48200    0.28360    0.52970    1.000
    O35      O        0.04020    0.46103    0.15440    1.000
    H57      H        0.00150    0.43800    0.15470    1.000
    N13      N        0.53190    0.32220    0.54500    1.000
    N14      N        0.04030    0.42900    0.94080    1.000
    N15      N        0.26280    0.11560    0.76440    1.000
    C81      C        0.73170    0.38200    0.89580    1.000
    C82      C        0.71850    0.40970    0.79650    1.000
    C83      C        0.65100    0.39040    0.68170    1.000
    H58      H        0.64020    0.40920    0.61540    1.000
    C84      C        0.59990    0.34330    0.66570    1.000
    C85      C        0.61150    0.31460    0.76070    1.000
    H59      H        0.57550    0.28320    0.74800    1.000
    C86      C        0.67870    0.33410    0.87590    1.000
    H60      H        0.68870    0.31480    0.94140    1.000
    C87      C        0.79950    0.40030    0.02340    1.000
    C88      C        0.77850    0.45960    0.81460    1.000
    C89      C        0.02070    0.37840    0.95410    1.000
    H61      H        0.98200    0.37300    0.98420    1.000
    C90      C        0.05400    0.33370    0.92640    1.000
    H62      H        0.03840    0.29900    0.93800    1.000
    C91      C        0.11250    0.34100    0.88000    1.000
    C92      C        0.13270    0.39430    0.86670    1.000
    H63      H        0.17100    0.40130    0.83660    1.000
    C93      C        0.09690    0.43640    0.89720    1.000
    H64      H        0.11190    0.47160    0.88770    1.000
    C94      C        0.15120    0.29670    0.84530    1.000
    H65      H        0.19100    0.30650    0.81880    1.000
    C95      C        0.13610    0.24480    0.84770    1.000
    H66      H        0.09450    0.23470    0.87140    1.000
    C96      C        0.20540    0.10700    0.80410    1.000
    H67      H        0.19290    0.07140    0.81420    1.000
    C97      C        0.16340    0.14770    0.83100    1.000
    H68      H        0.12450    0.13920    0.85950    1.000
    C98      C        0.17880    0.20080    0.81600    1.000
    C99      C        0.23730    0.21040    0.77200    1.000
    H69      H        0.24890    0.24560    0.75830    1.000
    C100     C        0.27770    0.16710    0.74910    1.000
    H70      H        0.31770    0.17430    0.72140    1.000
    Zn6      Zn       0.67491    0.94762    0.27097    1.000
    O36      O        0.26390    0.93660    0.05640    1.000
    O37      O        0.38000    0.87770    0.08950    1.000
    O38      O        0.34910    0.97020    0.91650    1.000
    O39      O        0.24920    0.98710    0.71970    1.000
    O40      O        0.03100    0.84320    0.46390    1.000
    O41      O        0.98200    0.78360    0.52970    1.000
    O42      O        0.54020    0.96103    0.15440    1.000
    H71      H        0.50150    0.93800    0.15470    1.000
    N16      N        0.03190    0.82220    0.54500    1.000
    N17      N        0.54030    0.92900    0.94080    1.000
    N18      N        0.76280    0.61560    0.76440    1.000
    C101     C        0.23170    0.88200    0.89580    1.000
    C102     C        0.21850    0.90970    0.79650    1.000
    C103     C        0.15100    0.89040    0.68170    1.000
    H72      H        0.14020    0.90920    0.61540    1.000
    C104     C        0.09990    0.84330    0.66570    1.000
    C105     C        0.11150    0.81460    0.76070    1.000
    H73      H        0.07550    0.78320    0.74800    1.000
    C106     C        0.17870    0.83410    0.87590    1.000
    H74      H        0.18870    0.81480    0.94140    1.000
    C107     C        0.29950    0.90030    0.02340    1.000
    C108     C        0.27850    0.95960    0.81460    1.000
    C109     C        0.52070    0.87840    0.95410    1.000
    H75      H        0.48200    0.87300    0.98420    1.000
    C110     C        0.55400    0.83370    0.92640    1.000
    H76      H        0.53840    0.79900    0.93800    1.000
    C111     C        0.61250    0.84100    0.88000    1.000
    C112     C        0.63270    0.89430    0.86670    1.000
    H77      H        0.67100    0.90130    0.83660    1.000
    C113     C        0.59690    0.93640    0.89720    1.000
    H78      H        0.61190    0.97160    0.88770    1.000
    C114     C        0.65120    0.79670    0.84530    1.000
    H79      H        0.69100    0.80650    0.81880    1.000
    C115     C        0.63610    0.74480    0.84770    1.000
    H80      H        0.59450    0.73470    0.87140    1.000
    C116     C        0.70540    0.60700    0.80410    1.000
    H81      H        0.69290    0.57140    0.81420    1.000
    C117     C        0.66340    0.64770    0.83100    1.000
    H82      H        0.62450    0.63920    0.85950    1.000
    C118     C        0.67880    0.70080    0.81600    1.000
    C119     C        0.73730    0.71040    0.77200    1.000
    H83      H        0.74890    0.74560    0.75830    1.000
    C120     C        0.77770    0.66710    0.74910    1.000
    H84      H        0.81770    0.67430    0.72140    1.000
    Zn7      Zn       0.82509    0.44762    0.22903    1.000
    O43      O        0.23610    0.43660    0.44360    1.000
    O44      O        0.12000    0.37770    0.41050    1.000
    O45      O        0.15090    0.47020    0.58350    1.000
    O46      O        0.25080    0.48710    0.78030    1.000
    O47      O        0.46900    0.34320    0.03610    1.000
    O48      O        0.51800    0.28360    0.97030    1.000
    O49      O        0.95980    0.46103    0.34560    1.000
    H85      H        0.99850    0.43800    0.34530    1.000
    N19      N        0.46810    0.32220    0.95500    1.000
    N20      N        0.95970    0.42900    0.55920    1.000
    N21      N        0.73720    0.11560    0.73560    1.000
    C121     C        0.26830    0.38200    0.60420    1.000
    C122     C        0.28150    0.40970    0.70350    1.000
    C123     C        0.34900    0.39040    0.81830    1.000
    H86      H        0.35980    0.40920    0.88460    1.000
    C124     C        0.40010    0.34330    0.83430    1.000
    C125     C        0.38850    0.31460    0.73930    1.000
    H87      H        0.42450    0.28320    0.75200    1.000
    C126     C        0.32130    0.33410    0.62410    1.000
    H88      H        0.31130    0.31480    0.55860    1.000
    C127     C        0.20050    0.40030    0.47660    1.000
    C128     C        0.22150    0.45960    0.68540    1.000
    C129     C        0.97930    0.37840    0.54590    1.000
    H89      H        0.01800    0.37300    0.51580    1.000
    C130     C        0.94600    0.33370    0.57360    1.000
    H90      H        0.96160    0.29900    0.56200    1.000
    C131     C        0.88750    0.34100    0.62000    1.000
    C132     C        0.86730    0.39430    0.63330    1.000
    H91      H        0.82900    0.40130    0.66340    1.000
    C133     C        0.90310    0.43640    0.60280    1.000
    H92      H        0.88810    0.47160    0.61230    1.000
    C134     C        0.84880    0.29670    0.65470    1.000
    H93      H        0.80900    0.30650    0.68120    1.000
    C135     C        0.86390    0.24480    0.65230    1.000
    H94      H        0.90550    0.23470    0.62860    1.000
    C136     C        0.79460    0.10700    0.69590    1.000
    H95      H        0.80710    0.07140    0.68580    1.000
    C137     C        0.83660    0.14770    0.66900    1.000
    H96      H        0.87550    0.13920    0.64050    1.000
    C138     C        0.82120    0.20080    0.68400    1.000
    C139     C        0.76270    0.21040    0.72800    1.000
    H97      H        0.75110    0.24560    0.74170    1.000
    C140     C        0.72230    0.16710    0.75090    1.000
    H98      H        0.68230    0.17430    0.77860    1.000
    Zn8      Zn       0.32509    0.94762    0.22903    1.000
    O50      O        0.73610    0.93660    0.44360    1.000
    O51      O        0.62000    0.87770    0.41050    1.000
    O52      O        0.65090    0.97020    0.58350    1.000
    O53      O        0.75080    0.98710    0.78030    1.000
    O54      O        0.96900    0.84320    0.03610    1.000
    O55      O        0.01800    0.78360    0.97030    1.000
    O56      O        0.45980    0.96103    0.34560    1.000
    H99      H        0.49850    0.93800    0.34530    1.000
    N22      N        0.96810    0.82220    0.95500    1.000
    N23      N        0.45970    0.92900    0.55920    1.000
    N24      N        0.23720    0.61560    0.73560    1.000
    C141     C        0.76830    0.88200    0.60420    1.000
    C142     C        0.78150    0.90970    0.70350    1.000
    C143     C        0.84900    0.89040    0.81830    1.000
    H100     H        0.85980    0.90920    0.88460    1.000
    C144     C        0.90010    0.84330    0.83430    1.000
    C145     C        0.88850    0.81460    0.73930    1.000
    H101     H        0.92450    0.78320    0.75200    1.000
    C146     C        0.82130    0.83410    0.62410    1.000
    H102     H        0.81130    0.81480    0.55860    1.000
    C147     C        0.70050    0.90030    0.47660    1.000
    C148     C        0.72150    0.95960    0.68540    1.000
    C149     C        0.47930    0.87840    0.54590    1.000
    H103     H        0.51800    0.87300    0.51580    1.000
    C150     C        0.44600    0.83370    0.57360    1.000
    H104     H        0.46160    0.79900    0.56200    1.000
    C151     C        0.38750    0.84100    0.62000    1.000
    C152     C        0.36730    0.89430    0.63330    1.000
    H105     H        0.32900    0.90130    0.66340    1.000
    C153     C        0.40310    0.93640    0.60280    1.000
    H106     H        0.38810    0.97160    0.61230    1.000
    C154     C        0.34880    0.79670    0.65470    1.000
    H107     H        0.30900    0.80650    0.68120    1.000
    C155     C        0.36390    0.74480    0.65230    1.000
    H108     H        0.40550    0.73470    0.62860    1.000
    C156     C        0.29460    0.60700    0.69590    1.000
    H109     H        0.30710    0.57140    0.68580    1.000
    C157     C        0.33660    0.64770    0.66900    1.000
    H110     H        0.37550    0.63920    0.64050    1.000
    C158     C        0.32120    0.70080    0.68400    1.000
    C159     C        0.26270    0.71040    0.72800    1.000
    H111     H        0.25110    0.74560    0.74170    1.000
    C160     C        0.22230    0.66710    0.75090    1.000
    H112     H        0.18230    0.67430    0.77860    1.000
    Zn9      Zn       0.00000    0.50000    0.00000    1.000
    Zn10     Zn       0.50000    0.00000    0.00000    1.000
    Zn11     Zn       0.00000    0.50000    0.50000    1.000
    Zn12     Zn       0.50000    0.00000    0.50000    1.000
