# CIF file generated by openbabel 3.1.0, see https://openbabel.org
data_I
_chemical_name_common 'image0'
_cell_length_a 18.747
_cell_length_b 23.355
_cell_length_c 30.404
_cell_angle_alpha 90
_cell_angle_beta 90
_cell_angle_gamma 90
_space_group_name_H-M_alt 'P 1'
_space_group_name_Hall 'P 1'
loop_
    _symmetry_equiv_pos_as_xyz
    x,y,z
loop_
    _atom_site_label
    _atom_site_type_symbol
    _atom_site_fract_x
    _atom_site_fract_y
    _atom_site_fract_z
    _atom_site_occupancy
    Cu1      Cu       0.51418    0.38975    0.12143    1.000
    N1       N        0.52065    0.47349    0.12170    1.000
    N2       N        0.46219    0.34458    0.16732    1.000
    N3       N        0.31272    0.16160    0.32837    1.000
    C1       C        0.54213    0.50213    0.15739    1.000
    H1       H        0.55790    0.48130    0.18160    1.000
    C2       C        0.54201    0.56136    0.16007    1.000
    H2       H        0.55650    0.57950    0.18580    1.000
    C3       C        0.52038    0.59318    0.12440    1.000
    C4       C        0.49930    0.56371    0.08695    1.000
    H3       H        0.48490    0.58360    0.06200    1.000
    C5       C        0.49982    0.50469    0.08705    1.000
    H4       H        0.48500    0.48560    0.06180    1.000
    C6       C        0.46957    0.35530    0.21029    1.000
    H5       H        0.49540    0.38750    0.21880    1.000
    C7       C        0.42367    0.29865    0.15625    1.000
    H6       H        0.41700    0.29100    0.12650    1.000
    C8       C        0.44084    0.32112    0.24258    1.000
    H7       H        0.44760    0.33020    0.27210    1.000
    C9       C        0.39353    0.26227    0.18631    1.000
    H8       H        0.36770    0.23060    0.17690    1.000
    C10      C        0.40175    0.27295    0.23094    1.000
    C11      C        0.37050    0.23469    0.26458    1.000
    C12      C        0.34628    0.25540    0.30453    1.000
    H9       H        0.34930    0.29430    0.31080    1.000
    C13      C        0.36441    0.17610    0.25736    1.000
    H10      H        0.37940    0.16020    0.23090    1.000
    C14      C        0.33609    0.14174    0.28974    1.000
    H11      H        0.33310    0.10260    0.28450    1.000
    C15      C        0.31778    0.21821    0.33490    1.000
    H12      H        0.30110    0.23310    0.36130    1.000
    Cu2      Cu       0.51418    0.88975    0.62143    1.000
    N4       N        0.52065    0.97349    0.62170    1.000
    N5       N        0.46219    0.84458    0.66732    1.000
    N6       N        0.31272    0.66160    0.82837    1.000
    C16      C        0.54213    0.00213    0.65739    1.000
    H13      H        0.55790    0.98130    0.68160    1.000
    C17      C        0.54201    0.06136    0.66007    1.000
    H14      H        0.55650    0.07950    0.68580    1.000
    C18      C        0.52038    0.09318    0.62440    1.000
    C19      C        0.49930    0.06371    0.58695    1.000
    H15      H        0.48490    0.08360    0.56200    1.000
    C20      C        0.49982    0.00469    0.58705    1.000
    H16      H        0.48500    0.98560    0.56180    1.000
    C21      C        0.46957    0.85530    0.71029    1.000
    H17      H        0.49540    0.88750    0.71880    1.000
    C22      C        0.42367    0.79865    0.65625    1.000
    H18      H        0.41700    0.79100    0.62650    1.000
    C23      C        0.44084    0.82112    0.74258    1.000
    H19      H        0.44760    0.83020    0.77210    1.000
    C24      C        0.39353    0.76227    0.68631    1.000
    H20      H        0.36770    0.73060    0.67690    1.000
    C25      C        0.40175    0.77295    0.73094    1.000
    C26      C        0.37050    0.73469    0.76458    1.000
    C27      C        0.34628    0.75540    0.80453    1.000
    H21      H        0.34930    0.79430    0.81080    1.000
    C28      C        0.36441    0.67610    0.75736    1.000
    H22      H        0.37940    0.66020    0.73090    1.000
    C29      C        0.33609    0.64174    0.78974    1.000
    H23      H        0.33310    0.60260    0.78450    1.000
    C30      C        0.31778    0.71821    0.83490    1.000
    H24      H        0.30110    0.73310    0.86130    1.000
    Cu3      Cu       0.01418    0.38975    0.62143    1.000
    N7       N        0.02065    0.47349    0.62170    1.000
    N8       N        0.96219    0.34458    0.66732    1.000
    N9       N        0.81272    0.16160    0.82837    1.000
    C31      C        0.04213    0.50213    0.65739    1.000
    H25      H        0.05790    0.48130    0.68160    1.000
    C32      C        0.04201    0.56136    0.66007    1.000
    H26      H        0.05650    0.57950    0.68580    1.000
    C33      C        0.02038    0.59318    0.62440    1.000
    C34      C        0.99930    0.56371    0.58695    1.000
    H27      H        0.98490    0.58360    0.56200    1.000
    C35      C        0.99982    0.50469    0.58705    1.000
    H28      H        0.98500    0.48560    0.56180    1.000
    C36      C        0.96957    0.35530    0.71029    1.000
    H29      H        0.99540    0.38750    0.71880    1.000
    C37      C        0.92367    0.29865    0.65625    1.000
    H30      H        0.91700    0.29100    0.62650    1.000
    C38      C        0.94084    0.32112    0.74258    1.000
    H31      H        0.94760    0.33020    0.77210    1.000
    C39      C        0.89353    0.26227    0.68631    1.000
    H32      H        0.86770    0.23060    0.67690    1.000
    C40      C        0.90175    0.27295    0.73094    1.000
    C41      C        0.87050    0.23469    0.76458    1.000
    C42      C        0.84628    0.25540    0.80453    1.000
    H33      H        0.84930    0.29430    0.81080    1.000
    C43      C        0.86441    0.17610    0.75736    1.000
    H34      H        0.87940    0.16020    0.73090    1.000
    C44      C        0.83609    0.14174    0.78974    1.000
    H35      H        0.83310    0.10260    0.78450    1.000
    C45      C        0.81778    0.21821    0.83490    1.000
    H36      H        0.80110    0.23310    0.86130    1.000
    Cu4      Cu       0.01418    0.88975    0.12143    1.000
    N10      N        0.02065    0.97349    0.12170    1.000
    N11      N        0.96219    0.84458    0.16732    1.000
    N12      N        0.81272    0.66160    0.32837    1.000
    C46      C        0.04213    0.00213    0.15739    1.000
    H37      H        0.05790    0.98130    0.18160    1.000
    C47      C        0.04201    0.06136    0.16007    1.000
    H38      H        0.05650    0.07950    0.18580    1.000
    C48      C        0.02038    0.09318    0.12440    1.000
    C49      C        0.99930    0.06371    0.08695    1.000
    H39      H        0.98490    0.08360    0.06200    1.000
    C50      C        0.99982    0.00469    0.08705    1.000
    H40      H        0.98500    0.98560    0.06180    1.000
    C51      C        0.96957    0.85530    0.21029    1.000
    H41      H        0.99540    0.88750    0.21880    1.000
    C52      C        0.92367    0.79865    0.15625    1.000
    H42      H        0.91700    0.79100    0.12650    1.000
    C53      C        0.94084    0.82112    0.24258    1.000
    H43      H        0.94760    0.83020    0.27210    1.000
    C54      C        0.89353    0.76227    0.18631    1.000
    H44      H        0.86770    0.73060    0.17690    1.000
    C55      C        0.90175    0.77295    0.23094    1.000
    C56      C        0.87050    0.73469    0.26458    1.000
    C57      C        0.84628    0.75540    0.30453    1.000
    H45      H        0.84930    0.79430    0.31080    1.000
    C58      C        0.86441    0.67610    0.25736    1.000
    H46      H        0.87940    0.66020    0.23090    1.000
    C59      C        0.83609    0.64174    0.28974    1.000
    H47      H        0.83310    0.60260    0.28450    1.000
    C60      C        0.81778    0.71821    0.33490    1.000
    H48      H        0.80110    0.73310    0.36130    1.000
    Cu5      Cu       0.51418    0.36025    0.62857    1.000
    N13      N        0.52065    0.27651    0.62830    1.000
    N14      N        0.46219    0.40542    0.58268    1.000
    N15      N        0.31272    0.58840    0.42163    1.000
    C61      C        0.54213    0.24787    0.59261    1.000
    H49      H        0.55790    0.26870    0.56840    1.000
    C62      C        0.54201    0.18864    0.58993    1.000
    H50      H        0.55650    0.17050    0.56420    1.000
    C63      C        0.52038    0.15682    0.62560    1.000
    C64      C        0.49930    0.18629    0.66305    1.000
    H51      H        0.48490    0.16640    0.68800    1.000
    C65      C        0.49982    0.24531    0.66295    1.000
    H52      H        0.48500    0.26440    0.68820    1.000
    C66      C        0.46957    0.39470    0.53971    1.000
    H53      H        0.49540    0.36250    0.53120    1.000
    C67      C        0.42367    0.45135    0.59375    1.000
    H54      H        0.41700    0.45900    0.62350    1.000
    C68      C        0.44084    0.42888    0.50742    1.000
    H55      H        0.44760    0.41980    0.47790    1.000
    C69      C        0.39353    0.48773    0.56369    1.000
    H56      H        0.36770    0.51940    0.57310    1.000
    C70      C        0.40175    0.47705    0.51906    1.000
    C71      C        0.37050    0.51531    0.48542    1.000
    C72      C        0.34628    0.49460    0.44547    1.000
    H57      H        0.34930    0.45570    0.43920    1.000
    C73      C        0.36441    0.57390    0.49264    1.000
    H58      H        0.37940    0.58980    0.51910    1.000
    C74      C        0.33609    0.60826    0.46026    1.000
    H59      H        0.33310    0.64740    0.46550    1.000
    C75      C        0.31778    0.53179    0.41510    1.000
    H60      H        0.30110    0.51690    0.38870    1.000
    Cu6      Cu       0.51418    0.86025    0.12857    1.000
    N16      N        0.52065    0.77651    0.12830    1.000
    N17      N        0.46219    0.90542    0.08268    1.000
    N18      N        0.31272    0.08840    0.92163    1.000
    C76      C        0.54213    0.74787    0.09261    1.000
    H61      H        0.55790    0.76870    0.06840    1.000
    C77      C        0.54201    0.68864    0.08993    1.000
    H62      H        0.55650    0.67050    0.06420    1.000
    C78      C        0.52038    0.65682    0.12560    1.000
    C79      C        0.49930    0.68629    0.16305    1.000
    H63      H        0.48490    0.66640    0.18800    1.000
    C80      C        0.49982    0.74531    0.16295    1.000
    H64      H        0.48500    0.76440    0.18820    1.000
    C81      C        0.46957    0.89470    0.03971    1.000
    H65      H        0.49540    0.86250    0.03120    1.000
    C82      C        0.42367    0.95135    0.09375    1.000
    H66      H        0.41700    0.95900    0.12350    1.000
    C83      C        0.44084    0.92888    0.00742    1.000
    H67      H        0.44760    0.91980    0.97790    1.000
    C84      C        0.39353    0.98773    0.06369    1.000
    H68      H        0.36770    0.01940    0.07310    1.000
    C85      C        0.40175    0.97705    0.01906    1.000
    C86      C        0.37050    0.01531    0.98542    1.000
    C87      C        0.34628    0.99460    0.94547    1.000
    H69      H        0.34930    0.95570    0.93920    1.000
    C88      C        0.36441    0.07390    0.99264    1.000
    H70      H        0.37940    0.08980    0.01910    1.000
    C89      C        0.33609    0.10826    0.96026    1.000
    H71      H        0.33310    0.14740    0.96550    1.000
    C90      C        0.31778    0.03179    0.91510    1.000
    H72      H        0.30110    0.01690    0.88870    1.000
    Cu7      Cu       0.01418    0.36025    0.12857    1.000
    N19      N        0.02065    0.27651    0.12830    1.000
    N20      N        0.96219    0.40542    0.08268    1.000
    N21      N        0.81272    0.58840    0.92163    1.000
    C91      C        0.04213    0.24787    0.09261    1.000
    H73      H        0.05790    0.26870    0.06840    1.000
    C92      C        0.04201    0.18864    0.08993    1.000
    H74      H        0.05650    0.17050    0.06420    1.000
    C93      C        0.02038    0.15682    0.12560    1.000
    C94      C        0.99930    0.18629    0.16305    1.000
    H75      H        0.98490    0.16640    0.18800    1.000
    C95      C        0.99982    0.24531    0.16295    1.000
    H76      H        0.98500    0.26440    0.18820    1.000
    C96      C        0.96957    0.39470    0.03971    1.000
    H77      H        0.99540    0.36250    0.03120    1.000
    C97      C        0.92367    0.45135    0.09375    1.000
    H78      H        0.91700    0.45900    0.12350    1.000
    C98      C        0.94084    0.42888    0.00742    1.000
    H79      H        0.94760    0.41980    0.97790    1.000
    C99      C        0.89353    0.48773    0.06369    1.000
    H80      H        0.86770    0.51940    0.07310    1.000
    C100     C        0.90175    0.47705    0.01906    1.000
    C101     C        0.87050    0.51531    0.98542    1.000
    C102     C        0.84628    0.49460    0.94547    1.000
    H81      H        0.84930    0.45570    0.93920    1.000
    C103     C        0.86441    0.57390    0.99264    1.000
    H82      H        0.87940    0.58980    0.01910    1.000
    C104     C        0.83609    0.60826    0.96026    1.000
    H83      H        0.83310    0.64740    0.96550    1.000
    C105     C        0.81778    0.53179    0.91510    1.000
    H84      H        0.80110    0.51690    0.88870    1.000
    Cu8      Cu       0.01418    0.86025    0.62857    1.000
    N22      N        0.02065    0.77651    0.62830    1.000
    N23      N        0.96219    0.90542    0.58268    1.000
    N24      N        0.81272    0.08840    0.42163    1.000
    C106     C        0.04213    0.74787    0.59261    1.000
    H85      H        0.05790    0.76870    0.56840    1.000
    C107     C        0.04201    0.68864    0.58993    1.000
    H86      H        0.05650    0.67050    0.56420    1.000
    C108     C        0.02038    0.65682    0.62560    1.000
    C109     C        0.99930    0.68629    0.66305    1.000
    H87      H        0.98490    0.66640    0.68800    1.000
    C110     C        0.99982    0.74531    0.66295    1.000
    H88      H        0.98500    0.76440    0.68820    1.000
    C111     C        0.96957    0.89470    0.53971    1.000
    H89      H        0.99540    0.86250    0.53120    1.000
    C112     C        0.92367    0.95135    0.59375    1.000
    H90      H        0.91700    0.95900    0.62350    1.000
    C113     C        0.94084    0.92888    0.50742    1.000
    H91      H        0.94760    0.91980    0.47790    1.000
    C114     C        0.89353    0.98773    0.56369    1.000
    H92      H        0.86770    0.01940    0.57310    1.000
    C115     C        0.90175    0.97705    0.51906    1.000
    C116     C        0.87050    0.01531    0.48542    1.000
    C117     C        0.84628    0.99460    0.44547    1.000
    H93      H        0.84930    0.95570    0.43920    1.000
    C118     C        0.86441    0.07390    0.49264    1.000
    H94      H        0.87940    0.08980    0.51910    1.000
    C119     C        0.83609    0.10826    0.46026    1.000
    H95      H        0.83310    0.14740    0.46550    1.000
    C120     C        0.81778    0.03179    0.41510    1.000
    H96      H        0.80110    0.01690    0.38870    1.000
    Cu9      Cu       0.76418    0.63975    0.87857    1.000
    N25      N        0.77065    0.72349    0.87830    1.000
    N26      N        0.71219    0.59458    0.83268    1.000
    N27      N        0.56272    0.41160    0.67163    1.000
    C121     C        0.79213    0.75213    0.84261    1.000
    H97      H        0.80790    0.73130    0.81840    1.000
    C122     C        0.79201    0.81136    0.83993    1.000
    H98      H        0.80650    0.82950    0.81420    1.000
    C123     C        0.77038    0.84318    0.87560    1.000
    C124     C        0.74930    0.81371    0.91305    1.000
    H99      H        0.73490    0.83360    0.93800    1.000
    C125     C        0.74982    0.75469    0.91295    1.000
    H100     H        0.73500    0.73560    0.93820    1.000
    C126     C        0.71957    0.60530    0.78971    1.000
    H101     H        0.74540    0.63750    0.78120    1.000
    C127     C        0.67367    0.54865    0.84375    1.000
    H102     H        0.66700    0.54100    0.87350    1.000
    C128     C        0.69084    0.57112    0.75742    1.000
    H103     H        0.69760    0.58020    0.72790    1.000
    C129     C        0.64353    0.51227    0.81369    1.000
    H104     H        0.61770    0.48060    0.82310    1.000
    C130     C        0.65175    0.52295    0.76906    1.000
    C131     C        0.62050    0.48469    0.73542    1.000
    C132     C        0.59628    0.50540    0.69547    1.000
    H105     H        0.59930    0.54430    0.68920    1.000
    C133     C        0.61441    0.42610    0.74264    1.000
    H106     H        0.62940    0.41020    0.76910    1.000
    C134     C        0.58609    0.39174    0.71026    1.000
    H107     H        0.58310    0.35260    0.71550    1.000
    C135     C        0.56778    0.46821    0.66510    1.000
    H108     H        0.55110    0.48310    0.63870    1.000
    Cu10     Cu       0.76418    0.13975    0.37857    1.000
    N28      N        0.77065    0.22349    0.37830    1.000
    N29      N        0.71219    0.09458    0.33268    1.000
    N30      N        0.56272    0.91160    0.17163    1.000
    C136     C        0.79213    0.25213    0.34261    1.000
    H109     H        0.80790    0.23130    0.31840    1.000
    C137     C        0.79201    0.31136    0.33993    1.000
    H110     H        0.80650    0.32950    0.31420    1.000
    C138     C        0.77038    0.34318    0.37560    1.000
    C139     C        0.74930    0.31371    0.41305    1.000
    H111     H        0.73490    0.33360    0.43800    1.000
    C140     C        0.74982    0.25469    0.41295    1.000
    H112     H        0.73500    0.23560    0.43820    1.000
    C141     C        0.71957    0.10530    0.28971    1.000
    H113     H        0.74540    0.13750    0.28120    1.000
    C142     C        0.67367    0.04865    0.34375    1.000
    H114     H        0.66700    0.04100    0.37350    1.000
    C143     C        0.69084    0.07112    0.25742    1.000
    H115     H        0.69760    0.08020    0.22790    1.000
    C144     C        0.64353    0.01227    0.31369    1.000
    H116     H        0.61770    0.98060    0.32310    1.000
    C145     C        0.65175    0.02295    0.26906    1.000
    C146     C        0.62050    0.98469    0.23542    1.000
    C147     C        0.59628    0.00540    0.19547    1.000
    H117     H        0.59930    0.04430    0.18920    1.000
    C148     C        0.61441    0.92610    0.24264    1.000
    H118     H        0.62940    0.91020    0.26910    1.000
    C149     C        0.58609    0.89174    0.21026    1.000
    H119     H        0.58310    0.85260    0.21550    1.000
    C150     C        0.56778    0.96821    0.16510    1.000
    H120     H        0.55110    0.98310    0.13870    1.000
    Cu11     Cu       0.26418    0.63975    0.37857    1.000
    N31      N        0.27065    0.72349    0.37830    1.000
    N32      N        0.21219    0.59458    0.33268    1.000
    N33      N        0.06272    0.41160    0.17163    1.000
    C151     C        0.29213    0.75213    0.34261    1.000
    H121     H        0.30790    0.73130    0.31840    1.000
    C152     C        0.29201    0.81136    0.33993    1.000
    H122     H        0.30650    0.82950    0.31420    1.000
    C153     C        0.27038    0.84318    0.37560    1.000
    C154     C        0.24930    0.81371    0.41305    1.000
    H123     H        0.23490    0.83360    0.43800    1.000
    C155     C        0.24982    0.75469    0.41295    1.000
    H124     H        0.23500    0.73560    0.43820    1.000
    C156     C        0.21957    0.60530    0.28971    1.000
    H125     H        0.24540    0.63750    0.28120    1.000
    C157     C        0.17367    0.54865    0.34375    1.000
    H126     H        0.16700    0.54100    0.37350    1.000
    C158     C        0.19084    0.57112    0.25742    1.000
    H127     H        0.19760    0.58020    0.22790    1.000
    C159     C        0.14353    0.51227    0.31369    1.000
    H128     H        0.11770    0.48060    0.32310    1.000
    C160     C        0.15175    0.52295    0.26906    1.000
    C161     C        0.12050    0.48469    0.23542    1.000
    C162     C        0.09628    0.50540    0.19547    1.000
    H129     H        0.09930    0.54430    0.18920    1.000
    C163     C        0.11441    0.42610    0.24264    1.000
    H130     H        0.12940    0.41020    0.26910    1.000
    C164     C        0.08609    0.39174    0.21026    1.000
    H131     H        0.08310    0.35260    0.21550    1.000
    C165     C        0.06778    0.46821    0.16510    1.000
    H132     H        0.05110    0.48310    0.13870    1.000
    Cu12     Cu       0.26418    0.13975    0.87857    1.000
    N34      N        0.27065    0.22349    0.87830    1.000
    N35      N        0.21219    0.09458    0.83268    1.000
    N36      N        0.06272    0.91160    0.67163    1.000
    C166     C        0.29213    0.25213    0.84261    1.000
    H133     H        0.30790    0.23130    0.81840    1.000
    C167     C        0.29201    0.31136    0.83993    1.000
    H134     H        0.30650    0.32950    0.81420    1.000
    C168     C        0.27038    0.34318    0.87560    1.000
    C169     C        0.24930    0.31371    0.91305    1.000
    H135     H        0.23490    0.33360    0.93800    1.000
    C170     C        0.24982    0.25469    0.91295    1.000
    H136     H        0.23500    0.23560    0.93820    1.000
    C171     C        0.21957    0.10530    0.78971    1.000
    H137     H        0.24540    0.13750    0.78120    1.000
    C172     C        0.17367    0.04865    0.84375    1.000
    H138     H        0.16700    0.04100    0.87350    1.000
    C173     C        0.19084    0.07112    0.75742    1.000
    H139     H        0.19760    0.08020    0.72790    1.000
    C174     C        0.14353    0.01227    0.81369    1.000
    H140     H        0.11770    0.98060    0.82310    1.000
    C175     C        0.15175    0.02295    0.76906    1.000
    C176     C        0.12050    0.98469    0.73542    1.000
    C177     C        0.09628    0.00540    0.69547    1.000
    H141     H        0.09930    0.04430    0.68920    1.000
    C178     C        0.11441    0.92610    0.74264    1.000
    H142     H        0.12940    0.91020    0.76910    1.000
    C179     C        0.08609    0.89174    0.71026    1.000
    H143     H        0.08310    0.85260    0.71550    1.000
    C180     C        0.06778    0.96821    0.66510    1.000
    H144     H        0.05110    0.98310    0.63870    1.000
    Cu13     Cu       0.76418    0.61025    0.37143    1.000
    N37      N        0.77065    0.52651    0.37170    1.000
    N38      N        0.71219    0.65542    0.41732    1.000
    N39      N        0.56272    0.83840    0.57837    1.000
    C181     C        0.79213    0.49787    0.40739    1.000
    H145     H        0.80790    0.51870    0.43160    1.000
    C182     C        0.79201    0.43864    0.41007    1.000
    H146     H        0.80650    0.42050    0.43580    1.000
    C183     C        0.77038    0.40682    0.37440    1.000
    C184     C        0.74930    0.43629    0.33695    1.000
    H147     H        0.73490    0.41640    0.31200    1.000
    C185     C        0.74982    0.49531    0.33705    1.000
    H148     H        0.73500    0.51440    0.31180    1.000
    C186     C        0.71957    0.64470    0.46029    1.000
    H149     H        0.74540    0.61250    0.46880    1.000
    C187     C        0.67367    0.70135    0.40625    1.000
    H150     H        0.66700    0.70900    0.37650    1.000
    C188     C        0.69084    0.67888    0.49258    1.000
    H151     H        0.69760    0.66980    0.52210    1.000
    C189     C        0.64353    0.73773    0.43631    1.000
    H152     H        0.61770    0.76940    0.42690    1.000
    C190     C        0.65175    0.72705    0.48094    1.000
    C191     C        0.62050    0.76531    0.51458    1.000
    C192     C        0.59628    0.74460    0.55453    1.000
    H153     H        0.59930    0.70570    0.56080    1.000
    C193     C        0.61441    0.82390    0.50736    1.000
    H154     H        0.62940    0.83980    0.48090    1.000
    C194     C        0.58609    0.85826    0.53974    1.000
    H155     H        0.58310    0.89740    0.53450    1.000
    C195     C        0.56778    0.78179    0.58490    1.000
    H156     H        0.55110    0.76690    0.61130    1.000
    Cu14     Cu       0.76418    0.11025    0.87143    1.000
    N40      N        0.77065    0.02651    0.87170    1.000
    N41      N        0.71219    0.15542    0.91732    1.000
    N42      N        0.56272    0.33840    0.07837    1.000
    C196     C        0.79213    0.99787    0.90739    1.000
    H157     H        0.80790    0.01870    0.93160    1.000
    C197     C        0.79201    0.93864    0.91007    1.000
    H158     H        0.80650    0.92050    0.93580    1.000
    C198     C        0.77038    0.90682    0.87440    1.000
    C199     C        0.74930    0.93629    0.83695    1.000
    H159     H        0.73490    0.91640    0.81200    1.000
    C200     C        0.74982    0.99531    0.83705    1.000
    H160     H        0.73500    0.01440    0.81180    1.000
    C201     C        0.71957    0.14470    0.96029    1.000
    H161     H        0.74540    0.11250    0.96880    1.000
    C202     C        0.67367    0.20135    0.90625    1.000
    H162     H        0.66700    0.20900    0.87650    1.000
    C203     C        0.69084    0.17888    0.99258    1.000
    H163     H        0.69760    0.16980    0.02210    1.000
    C204     C        0.64353    0.23773    0.93631    1.000
    H164     H        0.61770    0.26940    0.92690    1.000
    C205     C        0.65175    0.22705    0.98094    1.000
    C206     C        0.62050    0.26531    0.01458    1.000
    C207     C        0.59628    0.24460    0.05453    1.000
    H165     H        0.59930    0.20570    0.06080    1.000
    C208     C        0.61441    0.32390    0.00736    1.000
    H166     H        0.62940    0.33980    0.98090    1.000
    C209     C        0.58609    0.35826    0.03974    1.000
    H167     H        0.58310    0.39740    0.03450    1.000
    C210     C        0.56778    0.28179    0.08490    1.000
    H168     H        0.55110    0.26690    0.11130    1.000
    Cu15     Cu       0.26418    0.61025    0.87143    1.000
    N43      N        0.27065    0.52651    0.87170    1.000
    N44      N        0.21219    0.65542    0.91732    1.000
    N45      N        0.06272    0.83840    0.07837    1.000
    C211     C        0.29213    0.49787    0.90739    1.000
    H169     H        0.30790    0.51870    0.93160    1.000
    C212     C        0.29201    0.43864    0.91007    1.000
    H170     H        0.30650    0.42050    0.93580    1.000
    C213     C        0.27038    0.40682    0.87440    1.000
    C214     C        0.24930    0.43629    0.83695    1.000
    H171     H        0.23490    0.41640    0.81200    1.000
    C215     C        0.24982    0.49531    0.83705    1.000
    H172     H        0.23500    0.51440    0.81180    1.000
    C216     C        0.21957    0.64470    0.96029    1.000
    H173     H        0.24540    0.61250    0.96880    1.000
    C217     C        0.17367    0.70135    0.90625    1.000
    H174     H        0.16700    0.70900    0.87650    1.000
    C218     C        0.19084    0.67888    0.99258    1.000
    H175     H        0.19760    0.66980    0.02210    1.000
    C219     C        0.14353    0.73773    0.93631    1.000
    H176     H        0.11770    0.76940    0.92690    1.000
    C220     C        0.15175    0.72705    0.98094    1.000
    C221     C        0.12050    0.76531    0.01458    1.000
    C222     C        0.09628    0.74460    0.05453    1.000
    H177     H        0.09930    0.70570    0.06080    1.000
    C223     C        0.11441    0.82390    0.00736    1.000
    H178     H        0.12940    0.83980    0.98090    1.000
    C224     C        0.08609    0.85826    0.03974    1.000
    H179     H        0.08310    0.89740    0.03450    1.000
    C225     C        0.06778    0.78179    0.08490    1.000
    H180     H        0.05110    0.76690    0.11130    1.000
    Cu16     Cu       0.26418    0.11025    0.37143    1.000
    N46      N        0.27065    0.02651    0.37170    1.000
    N47      N        0.21219    0.15542    0.41732    1.000
    N48      N        0.06272    0.33840    0.57837    1.000
    C226     C        0.29213    0.99787    0.40739    1.000
    H181     H        0.30790    0.01870    0.43160    1.000
    C227     C        0.29201    0.93864    0.41007    1.000
    H182     H        0.30650    0.92050    0.43580    1.000
    C228     C        0.27038    0.90682    0.37440    1.000
    C229     C        0.24930    0.93629    0.33695    1.000
    H183     H        0.23490    0.91640    0.31200    1.000
    C230     C        0.24982    0.99531    0.33705    1.000
    H184     H        0.23500    0.01440    0.31180    1.000
    C231     C        0.21957    0.14470    0.46029    1.000
    H185     H        0.24540    0.11250    0.46880    1.000
    C232     C        0.17367    0.20135    0.40625    1.000
    H186     H        0.16700    0.20900    0.37650    1.000
    C233     C        0.19084    0.17888    0.49258    1.000
    H187     H        0.19760    0.16980    0.52210    1.000
    C234     C        0.14353    0.23773    0.43631    1.000
    H188     H        0.11770    0.26940    0.42690    1.000
    C235     C        0.15175    0.22705    0.48094    1.000
    C236     C        0.12050    0.26531    0.51458    1.000
    C237     C        0.09628    0.24460    0.55453    1.000
    H189     H        0.09930    0.20570    0.56080    1.000
    C238     C        0.11441    0.32390    0.50736    1.000
    H190     H        0.12940    0.33980    0.48090    1.000
    C239     C        0.08609    0.35826    0.53974    1.000
    H191     H        0.08310    0.39740    0.53450    1.000
    C240     C        0.06778    0.28179    0.58490    1.000
    H192     H        0.05110    0.26690    0.61130    1.000
    Cu17     Cu       0.23582    0.36025    0.12143    1.000
    N49      N        0.22935    0.27651    0.12170    1.000
    N50      N        0.28781    0.40542    0.16732    1.000
    N51      N        0.43728    0.58840    0.32837    1.000
    C241     C        0.20787    0.24787    0.15739    1.000
    H193     H        0.19210    0.26870    0.18160    1.000
    C242     C        0.20799    0.18864    0.16007    1.000
    H194     H        0.19350    0.17050    0.18580    1.000
    C243     C        0.22962    0.15682    0.12440    1.000
    C244     C        0.25070    0.18629    0.08695    1.000
    H195     H        0.26510    0.16640    0.06200    1.000
    C245     C        0.25018    0.24531    0.08705    1.000
    H196     H        0.26500    0.26440    0.06180    1.000
    C246     C        0.28043    0.39470    0.21029    1.000
    H197     H        0.25460    0.36250    0.21880    1.000
    C247     C        0.32633    0.45135    0.15625    1.000
    H198     H        0.33300    0.45900    0.12650    1.000
    C248     C        0.30916    0.42888    0.24258    1.000
    H199     H        0.30240    0.41980    0.27210    1.000
    C249     C        0.35647    0.48773    0.18631    1.000
    H200     H        0.38230    0.51940    0.17690    1.000
    C250     C        0.34825    0.47705    0.23094    1.000
    C251     C        0.37950    0.51531    0.26458    1.000
    C252     C        0.40372    0.49460    0.30453    1.000
    H201     H        0.40070    0.45570    0.31080    1.000
    C253     C        0.38559    0.57390    0.25736    1.000
    H202     H        0.37060    0.58980    0.23090    1.000
    C254     C        0.41391    0.60826    0.28974    1.000
    H203     H        0.41690    0.64740    0.28450    1.000
    C255     C        0.43222    0.53179    0.33490    1.000
    H204     H        0.44890    0.51690    0.36130    1.000
    Cu18     Cu       0.23582    0.86025    0.62143    1.000
    N52      N        0.22935    0.77651    0.62170    1.000
    N53      N        0.28781    0.90542    0.66732    1.000
    N54      N        0.43728    0.08840    0.82837    1.000
    C256     C        0.20787    0.74787    0.65739    1.000
    H205     H        0.19210    0.76870    0.68160    1.000
    C257     C        0.20799    0.68864    0.66007    1.000
    H206     H        0.19350    0.67050    0.68580    1.000
    C258     C        0.22962    0.65682    0.62440    1.000
    C259     C        0.25070    0.68629    0.58695    1.000
    H207     H        0.26510    0.66640    0.56200    1.000
    C260     C        0.25018    0.74531    0.58705    1.000
    H208     H        0.26500    0.76440    0.56180    1.000
    C261     C        0.28043    0.89470    0.71029    1.000
    H209     H        0.25460    0.86250    0.71880    1.000
    C262     C        0.32633    0.95135    0.65625    1.000
    H210     H        0.33300    0.95900    0.62650    1.000
    C263     C        0.30916    0.92888    0.74258    1.000
    H211     H        0.30240    0.91980    0.77210    1.000
    C264     C        0.35647    0.98773    0.68631    1.000
    H212     H        0.38230    0.01940    0.67690    1.000
    C265     C        0.34825    0.97705    0.73094    1.000
    C266     C        0.37950    0.01531    0.76458    1.000
    C267     C        0.40372    0.99460    0.80453    1.000
    H213     H        0.40070    0.95570    0.81080    1.000
    C268     C        0.38559    0.07390    0.75736    1.000
    H214     H        0.37060    0.08980    0.73090    1.000
    C269     C        0.41391    0.10826    0.78974    1.000
    H215     H        0.41690    0.14740    0.78450    1.000
    C270     C        0.43222    0.03179    0.83490    1.000
    H216     H        0.44890    0.01690    0.86130    1.000
    Cu19     Cu       0.73582    0.36025    0.62143    1.000
    N55      N        0.72935    0.27651    0.62170    1.000
    N56      N        0.78781    0.40542    0.66732    1.000
    N57      N        0.93728    0.58840    0.82837    1.000
    C271     C        0.70787    0.24787    0.65739    1.000
    H217     H        0.69210    0.26870    0.68160    1.000
    C272     C        0.70799    0.18864    0.66007    1.000
    H218     H        0.69350    0.17050    0.68580    1.000
    C273     C        0.72962    0.15682    0.62440    1.000
    C274     C        0.75070    0.18629    0.58695    1.000
    H219     H        0.76510    0.16640    0.56200    1.000
    C275     C        0.75018    0.24531    0.58705    1.000
    H220     H        0.76500    0.26440    0.56180    1.000
    C276     C        0.78043    0.39470    0.71029    1.000
    H221     H        0.75460    0.36250    0.71880    1.000
    C277     C        0.82633    0.45135    0.65625    1.000
    H222     H        0.83300    0.45900    0.62650    1.000
    C278     C        0.80916    0.42888    0.74258    1.000
    H223     H        0.80240    0.41980    0.77210    1.000
    C279     C        0.85647    0.48773    0.68631    1.000
    H224     H        0.88230    0.51940    0.67690    1.000
    C280     C        0.84825    0.47705    0.73094    1.000
    C281     C        0.87950    0.51531    0.76458    1.000
    C282     C        0.90372    0.49460    0.80453    1.000
    H225     H        0.90070    0.45570    0.81080    1.000
    C283     C        0.88559    0.57390    0.75736    1.000
    H226     H        0.87060    0.58980    0.73090    1.000
    C284     C        0.91391    0.60826    0.78974    1.000
    H227     H        0.91690    0.64740    0.78450    1.000
    C285     C        0.93222    0.53179    0.83490    1.000
    H228     H        0.94890    0.51690    0.86130    1.000
    Cu20     Cu       0.73582    0.86025    0.12143    1.000
    N58      N        0.72935    0.77651    0.12170    1.000
    N59      N        0.78781    0.90542    0.16732    1.000
    N60      N        0.93728    0.08840    0.32837    1.000
    C286     C        0.70787    0.74787    0.15739    1.000
    H229     H        0.69210    0.76870    0.18160    1.000
    C287     C        0.70799    0.68864    0.16007    1.000
    H230     H        0.69350    0.67050    0.18580    1.000
    C288     C        0.72962    0.65682    0.12440    1.000
    C289     C        0.75070    0.68629    0.08695    1.000
    H231     H        0.76510    0.66640    0.06200    1.000
    C290     C        0.75018    0.74531    0.08705    1.000
    H232     H        0.76500    0.76440    0.06180    1.000
    C291     C        0.78043    0.89470    0.21029    1.000
    H233     H        0.75460    0.86250    0.21880    1.000
    C292     C        0.82633    0.95135    0.15625    1.000
    H234     H        0.83300    0.95900    0.12650    1.000
    C293     C        0.80916    0.92888    0.24258    1.000
    H235     H        0.80240    0.91980    0.27210    1.000
    C294     C        0.85647    0.98773    0.18631    1.000
    H236     H        0.88230    0.01940    0.17690    1.000
    C295     C        0.84825    0.97705    0.23094    1.000
    C296     C        0.87950    0.01531    0.26458    1.000
    C297     C        0.90372    0.99460    0.30453    1.000
    H237     H        0.90070    0.95570    0.31080    1.000
    C298     C        0.88559    0.07390    0.25736    1.000
    H238     H        0.87060    0.08980    0.23090    1.000
    C299     C        0.91391    0.10826    0.28974    1.000
    H239     H        0.91690    0.14740    0.28450    1.000
    C300     C        0.93222    0.03179    0.33490    1.000
    H240     H        0.94890    0.01690    0.36130    1.000
    Cu21     Cu       0.23582    0.38975    0.62857    1.000
    N61      N        0.22935    0.47349    0.62830    1.000
    N62      N        0.28781    0.34458    0.58268    1.000
    N63      N        0.43728    0.16160    0.42163    1.000
    C301     C        0.20787    0.50213    0.59261    1.000
    H241     H        0.19210    0.48130    0.56840    1.000
    C302     C        0.20799    0.56136    0.58993    1.000
    H242     H        0.19350    0.57950    0.56420    1.000
    C303     C        0.22962    0.59318    0.62560    1.000
    C304     C        0.25070    0.56371    0.66305    1.000
    H243     H        0.26510    0.58360    0.68800    1.000
    C305     C        0.25018    0.50469    0.66295    1.000
    H244     H        0.26500    0.48560    0.68820    1.000
    C306     C        0.28043    0.35530    0.53971    1.000
    H245     H        0.25460    0.38750    0.53120    1.000
    C307     C        0.32633    0.29865    0.59375    1.000
    H246     H        0.33300    0.29100    0.62350    1.000
    C308     C        0.30916    0.32112    0.50742    1.000
    H247     H        0.30240    0.33020    0.47790    1.000
    C309     C        0.35647    0.26227    0.56369    1.000
    H248     H        0.38230    0.23060    0.57310    1.000
    C310     C        0.34825    0.27295    0.51906    1.000
    C311     C        0.37950    0.23469    0.48542    1.000
    C312     C        0.40372    0.25540    0.44547    1.000
    H249     H        0.40070    0.29430    0.43920    1.000
    C313     C        0.38559    0.17610    0.49264    1.000
    H250     H        0.37060    0.16020    0.51910    1.000
    C314     C        0.41391    0.14174    0.46026    1.000
    H251     H        0.41690    0.10260    0.46550    1.000
    C315     C        0.43222    0.21821    0.41510    1.000
    H252     H        0.44890    0.23310    0.38870    1.000
    Cu22     Cu       0.23582    0.88975    0.12857    1.000
    N64      N        0.22935    0.97349    0.12830    1.000
    N65      N        0.28781    0.84458    0.08268    1.000
    N66      N        0.43728    0.66160    0.92163    1.000
    C316     C        0.20787    0.00213    0.09261    1.000
    H253     H        0.19210    0.98130    0.06840    1.000
    C317     C        0.20799    0.06136    0.08993    1.000
    H254     H        0.19350    0.07950    0.06420    1.000
    C318     C        0.22962    0.09318    0.12560    1.000
    C319     C        0.25070    0.06371    0.16305    1.000
    H255     H        0.26510    0.08360    0.18800    1.000
    C320     C        0.25018    0.00469    0.16295    1.000
    H256     H        0.26500    0.98560    0.18820    1.000
    C321     C        0.28043    0.85530    0.03971    1.000
    H257     H        0.25460    0.88750    0.03120    1.000
    C322     C        0.32633    0.79865    0.09375    1.000
    H258     H        0.33300    0.79100    0.12350    1.000
    C323     C        0.30916    0.82112    0.00742    1.000
    H259     H        0.30240    0.83020    0.97790    1.000
    C324     C        0.35647    0.76227    0.06369    1.000
    H260     H        0.38230    0.73060    0.07310    1.000
    C325     C        0.34825    0.77295    0.01906    1.000
    C326     C        0.37950    0.73469    0.98542    1.000
    C327     C        0.40372    0.75540    0.94547    1.000
    H261     H        0.40070    0.79430    0.93920    1.000
    C328     C        0.38559    0.67610    0.99264    1.000
    H262     H        0.37060    0.66020    0.01910    1.000
    C329     C        0.41391    0.64174    0.96026    1.000
    H263     H        0.41690    0.60260    0.96550    1.000
    C330     C        0.43222    0.71821    0.91510    1.000
    H264     H        0.44890    0.73310    0.88870    1.000
    Cu23     Cu       0.73582    0.38975    0.12857    1.000
    N67      N        0.72935    0.47349    0.12830    1.000
    N68      N        0.78781    0.34458    0.08268    1.000
    N69      N        0.93728    0.16160    0.92163    1.000
    C331     C        0.70787    0.50213    0.09261    1.000
    H265     H        0.69210    0.48130    0.06840    1.000
    C332     C        0.70799    0.56136    0.08993    1.000
    H266     H        0.69350    0.57950    0.06420    1.000
    C333     C        0.72962    0.59318    0.12560    1.000
    C334     C        0.75070    0.56371    0.16305    1.000
    H267     H        0.76510    0.58360    0.18800    1.000
    C335     C        0.75018    0.50469    0.16295    1.000
    H268     H        0.76500    0.48560    0.18820    1.000
    C336     C        0.78043    0.35530    0.03971    1.000
    H269     H        0.75460    0.38750    0.03120    1.000
    C337     C        0.82633    0.29865    0.09375    1.000
    H270     H        0.83300    0.29100    0.12350    1.000
    C338     C        0.80916    0.32112    0.00742    1.000
    H271     H        0.80240    0.33020    0.97790    1.000
    C339     C        0.85647    0.26227    0.06369    1.000
    H272     H        0.88230    0.23060    0.07310    1.000
    C340     C        0.84825    0.27295    0.01906    1.000
    C341     C        0.87950    0.23469    0.98542    1.000
    C342     C        0.90372    0.25540    0.94547    1.000
    H273     H        0.90070    0.29430    0.93920    1.000
    C343     C        0.88559    0.17610    0.99264    1.000
    H274     H        0.87060    0.16020    0.01910    1.000
    C344     C        0.91391    0.14174    0.96026    1.000
    H275     H        0.91690    0.10260    0.96550    1.000
    C345     C        0.93222    0.21821    0.91510    1.000
    H276     H        0.94890    0.23310    0.88870    1.000
    Cu24     Cu       0.73582    0.88975    0.62857    1.000
    N70      N        0.72935    0.97349    0.62830    1.000
    N71      N        0.78781    0.84458    0.58268    1.000
    N72      N        0.93728    0.66160    0.42163    1.000
    C346     C        0.70787    0.00213    0.59261    1.000
    H277     H        0.69210    0.98130    0.56840    1.000
    C347     C        0.70799    0.06136    0.58993    1.000
    H278     H        0.69350    0.07950    0.56420    1.000
    C348     C        0.72962    0.09318    0.62560    1.000
    C349     C        0.75070    0.06371    0.66305    1.000
    H279     H        0.76510    0.08360    0.68800    1.000
    C350     C        0.75018    0.00469    0.66295    1.000
    H280     H        0.76500    0.98560    0.68820    1.000
    C351     C        0.78043    0.85530    0.53971    1.000
    H281     H        0.75460    0.88750    0.53120    1.000
    C352     C        0.82633    0.79865    0.59375    1.000
    H282     H        0.83300    0.79100    0.62350    1.000
    C353     C        0.80916    0.82112    0.50742    1.000
    H283     H        0.80240    0.83020    0.47790    1.000
    C354     C        0.85647    0.76227    0.56369    1.000
    H284     H        0.88230    0.73060    0.57310    1.000
    C355     C        0.84825    0.77295    0.51906    1.000
    C356     C        0.87950    0.73469    0.48542    1.000
    C357     C        0.90372    0.75540    0.44547    1.000
    H285     H        0.90070    0.79430    0.43920    1.000
    C358     C        0.88559    0.67610    0.49264    1.000
    H286     H        0.87060    0.66020    0.51910    1.000
    C359     C        0.91391    0.64174    0.46026    1.000
    H287     H        0.91690    0.60260    0.46550    1.000
    C360     C        0.93222    0.71821    0.41510    1.000
    H288     H        0.94890    0.73310    0.38870    1.000
    Cu25     Cu       0.48582    0.61025    0.87857    1.000
    N73      N        0.47935    0.52651    0.87830    1.000
    N74      N        0.53781    0.65542    0.83268    1.000
    N75      N        0.68728    0.83840    0.67163    1.000
    C361     C        0.45787    0.49787    0.84261    1.000
    H289     H        0.44210    0.51870    0.81840    1.000
    C362     C        0.45799    0.43864    0.83993    1.000
    H290     H        0.44350    0.42050    0.81420    1.000
    C363     C        0.47962    0.40682    0.87560    1.000
    C364     C        0.50070    0.43629    0.91305    1.000
    H291     H        0.51510    0.41640    0.93800    1.000
    C365     C        0.50018    0.49531    0.91295    1.000
    H292     H        0.51500    0.51440    0.93820    1.000
    C366     C        0.53043    0.64470    0.78971    1.000
    H293     H        0.50460    0.61250    0.78120    1.000
    C367     C        0.57633    0.70135    0.84375    1.000
    H294     H        0.58300    0.70900    0.87350    1.000
    C368     C        0.55916    0.67888    0.75742    1.000
    H295     H        0.55240    0.66980    0.72790    1.000
    C369     C        0.60647    0.73773    0.81369    1.000
    H296     H        0.63230    0.76940    0.82310    1.000
    C370     C        0.59825    0.72705    0.76906    1.000
    C371     C        0.62950    0.76531    0.73542    1.000
    C372     C        0.65372    0.74460    0.69547    1.000
    H297     H        0.65070    0.70570    0.68920    1.000
    C373     C        0.63559    0.82390    0.74264    1.000
    H298     H        0.62060    0.83980    0.76910    1.000
    C374     C        0.66391    0.85826    0.71026    1.000
    H299     H        0.66690    0.89740    0.71550    1.000
    C375     C        0.68222    0.78179    0.66510    1.000
    H300     H        0.69890    0.76690    0.63870    1.000
    Cu26     Cu       0.48582    0.11025    0.37857    1.000
    N76      N        0.47935    0.02651    0.37830    1.000
    N77      N        0.53781    0.15542    0.33268    1.000
    N78      N        0.68728    0.33840    0.17163    1.000
    C376     C        0.45787    0.99787    0.34261    1.000
    H301     H        0.44210    0.01870    0.31840    1.000
    C377     C        0.45799    0.93864    0.33993    1.000
    H302     H        0.44350    0.92050    0.31420    1.000
    C378     C        0.47962    0.90682    0.37560    1.000
    C379     C        0.50070    0.93629    0.41305    1.000
    H303     H        0.51510    0.91640    0.43800    1.000
    C380     C        0.50018    0.99531    0.41295    1.000
    H304     H        0.51500    0.01440    0.43820    1.000
    C381     C        0.53043    0.14470    0.28971    1.000
    H305     H        0.50460    0.11250    0.28120    1.000
    C382     C        0.57633    0.20135    0.34375    1.000
    H306     H        0.58300    0.20900    0.37350    1.000
    C383     C        0.55916    0.17888    0.25742    1.000
    H307     H        0.55240    0.16980    0.22790    1.000
    C384     C        0.60647    0.23773    0.31369    1.000
    H308     H        0.63230    0.26940    0.32310    1.000
    C385     C        0.59825    0.22705    0.26906    1.000
    C386     C        0.62950    0.26531    0.23542    1.000
    C387     C        0.65372    0.24460    0.19547    1.000
    H309     H        0.65070    0.20570    0.18920    1.000
    C388     C        0.63559    0.32390    0.24264    1.000
    H310     H        0.62060    0.33980    0.26910    1.000
    C389     C        0.66391    0.35826    0.21026    1.000
    H311     H        0.66690    0.39740    0.21550    1.000
    C390     C        0.68222    0.28179    0.16510    1.000
    H312     H        0.69890    0.26690    0.13870    1.000
    Cu27     Cu       0.98582    0.61025    0.37857    1.000
    N79      N        0.97935    0.52651    0.37830    1.000
    N80      N        0.03781    0.65542    0.33268    1.000
    N81      N        0.18728    0.83840    0.17163    1.000
    C391     C        0.95787    0.49787    0.34261    1.000
    H313     H        0.94210    0.51870    0.31840    1.000
    C392     C        0.95799    0.43864    0.33993    1.000
    H314     H        0.94350    0.42050    0.31420    1.000
    C393     C        0.97962    0.40682    0.37560    1.000
    C394     C        0.00070    0.43629    0.41305    1.000
    H315     H        0.01510    0.41640    0.43800    1.000
    C395     C        0.00018    0.49531    0.41295    1.000
    H316     H        0.01500    0.51440    0.43820    1.000
    C396     C        0.03043    0.64470    0.28971    1.000
    H317     H        0.00460    0.61250    0.28120    1.000
    C397     C        0.07633    0.70135    0.34375    1.000
    H318     H        0.08300    0.70900    0.37350    1.000
    C398     C        0.05916    0.67888    0.25742    1.000
    H319     H        0.05240    0.66980    0.22790    1.000
    C399     C        0.10647    0.73773    0.31369    1.000
    H320     H        0.13230    0.76940    0.32310    1.000
    C400     C        0.09825    0.72705    0.26906    1.000
    C401     C        0.12950    0.76531    0.23542    1.000
    C402     C        0.15372    0.74460    0.19547    1.000
    H321     H        0.15070    0.70570    0.18920    1.000
    C403     C        0.13559    0.82390    0.24264    1.000
    H322     H        0.12060    0.83980    0.26910    1.000
    C404     C        0.16391    0.85826    0.21026    1.000
    H323     H        0.16690    0.89740    0.21550    1.000
    C405     C        0.18222    0.78179    0.16510    1.000
    H324     H        0.19890    0.76690    0.13870    1.000
    Cu28     Cu       0.98582    0.11025    0.87857    1.000
    N82      N        0.97935    0.02651    0.87830    1.000
    N83      N        0.03781    0.15542    0.83268    1.000
    N84      N        0.18728    0.33840    0.67163    1.000
    C406     C        0.95787    0.99787    0.84261    1.000
    H325     H        0.94210    0.01870    0.81840    1.000
    C407     C        0.95799    0.93864    0.83993    1.000
    H326     H        0.94350    0.92050    0.81420    1.000
    C408     C        0.97962    0.90682    0.87560    1.000
    C409     C        0.00070    0.93629    0.91305    1.000
    H327     H        0.01510    0.91640    0.93800    1.000
    C410     C        0.00018    0.99531    0.91295    1.000
    H328     H        0.01500    0.01440    0.93820    1.000
    C411     C        0.03043    0.14470    0.78971    1.000
    H329     H        0.00460    0.11250    0.78120    1.000
    C412     C        0.07633    0.20135    0.84375    1.000
    H330     H        0.08300    0.20900    0.87350    1.000
    C413     C        0.05916    0.17888    0.75742    1.000
    H331     H        0.05240    0.16980    0.72790    1.000
    C414     C        0.10647    0.23773    0.81369    1.000
    H332     H        0.13230    0.26940    0.82310    1.000
    C415     C        0.09825    0.22705    0.76906    1.000
    C416     C        0.12950    0.26531    0.73542    1.000
    C417     C        0.15372    0.24460    0.69547    1.000
    H333     H        0.15070    0.20570    0.68920    1.000
    C418     C        0.13559    0.32390    0.74264    1.000
    H334     H        0.12060    0.33980    0.76910    1.000
    C419     C        0.16391    0.35826    0.71026    1.000
    H335     H        0.16690    0.39740    0.71550    1.000
    C420     C        0.18222    0.28179    0.66510    1.000
    H336     H        0.19890    0.26690    0.63870    1.000
    Cu29     Cu       0.48582    0.63975    0.37143    1.000
    N85      N        0.47935    0.72349    0.37170    1.000
    N86      N        0.53781    0.59458    0.41732    1.000
    N87      N        0.68728    0.41160    0.57837    1.000
    C421     C        0.45787    0.75213    0.40739    1.000
    H337     H        0.44210    0.73130    0.43160    1.000
    C422     C        0.45799    0.81136    0.41007    1.000
    H338     H        0.44350    0.82950    0.43580    1.000
    C423     C        0.47962    0.84318    0.37440    1.000
    C424     C        0.50070    0.81371    0.33695    1.000
    H339     H        0.51510    0.83360    0.31200    1.000
    C425     C        0.50018    0.75469    0.33705    1.000
    H340     H        0.51500    0.73560    0.31180    1.000
    C426     C        0.53043    0.60530    0.46029    1.000
    H341     H        0.50460    0.63750    0.46880    1.000
    C427     C        0.57633    0.54865    0.40625    1.000
    H342     H        0.58300    0.54100    0.37650    1.000
    C428     C        0.55916    0.57112    0.49258    1.000
    H343     H        0.55240    0.58020    0.52210    1.000
    C429     C        0.60647    0.51227    0.43631    1.000
    H344     H        0.63230    0.48060    0.42690    1.000
    C430     C        0.59825    0.52295    0.48094    1.000
    C431     C        0.62950    0.48469    0.51458    1.000
    C432     C        0.65372    0.50540    0.55453    1.000
    H345     H        0.65070    0.54430    0.56080    1.000
    C433     C        0.63559    0.42610    0.50736    1.000
    H346     H        0.62060    0.41020    0.48090    1.000
    C434     C        0.66391    0.39174    0.53974    1.000
    H347     H        0.66690    0.35260    0.53450    1.000
    C435     C        0.68222    0.46821    0.58490    1.000
    H348     H        0.69890    0.48310    0.61130    1.000
    Cu30     Cu       0.48582    0.13975    0.87143    1.000
    N88      N        0.47935    0.22349    0.87170    1.000
    N89      N        0.53781    0.09458    0.91732    1.000
    N90      N        0.68728    0.91160    0.07837    1.000
    C436     C        0.45787    0.25213    0.90739    1.000
    H349     H        0.44210    0.23130    0.93160    1.000
    C437     C        0.45799    0.31136    0.91007    1.000
    H350     H        0.44350    0.32950    0.93580    1.000
    C438     C        0.47962    0.34318    0.87440    1.000
    C439     C        0.50070    0.31371    0.83695    1.000
    H351     H        0.51510    0.33360    0.81200    1.000
    C440     C        0.50018    0.25469    0.83705    1.000
    H352     H        0.51500    0.23560    0.81180    1.000
    C441     C        0.53043    0.10530    0.96029    1.000
    H353     H        0.50460    0.13750    0.96880    1.000
    C442     C        0.57633    0.04865    0.90625    1.000
    H354     H        0.58300    0.04100    0.87650    1.000
    C443     C        0.55916    0.07112    0.99258    1.000
    H355     H        0.55240    0.08020    0.02210    1.000
    C444     C        0.60647    0.01227    0.93631    1.000
    H356     H        0.63230    0.98060    0.92690    1.000
    C445     C        0.59825    0.02295    0.98094    1.000
    C446     C        0.62950    0.98469    0.01458    1.000
    C447     C        0.65372    0.00540    0.05453    1.000
    H357     H        0.65070    0.04430    0.06080    1.000
    C448     C        0.63559    0.92610    0.00736    1.000
    H358     H        0.62060    0.91020    0.98090    1.000
    C449     C        0.66391    0.89174    0.03974    1.000
    H359     H        0.66690    0.85260    0.03450    1.000
    C450     C        0.68222    0.96821    0.08490    1.000
    H360     H        0.69890    0.98310    0.11130    1.000
    Cu31     Cu       0.98582    0.63975    0.87143    1.000
    N91      N        0.97935    0.72349    0.87170    1.000
    N92      N        0.03781    0.59458    0.91732    1.000
    N93      N        0.18728    0.41160    0.07837    1.000
    C451     C        0.95787    0.75213    0.90739    1.000
    H361     H        0.94210    0.73130    0.93160    1.000
    C452     C        0.95799    0.81136    0.91007    1.000
    H362     H        0.94350    0.82950    0.93580    1.000
    C453     C        0.97962    0.84318    0.87440    1.000
    C454     C        0.00070    0.81371    0.83695    1.000
    H363     H        0.01510    0.83360    0.81200    1.000
    C455     C        0.00018    0.75469    0.83705    1.000
    H364     H        0.01500    0.73560    0.81180    1.000
    C456     C        0.03043    0.60530    0.96029    1.000
    H365     H        0.00460    0.63750    0.96880    1.000
    C457     C        0.07633    0.54865    0.90625    1.000
    H366     H        0.08300    0.54100    0.87650    1.000
    C458     C        0.05916    0.57112    0.99258    1.000
    H367     H        0.05240    0.58020    0.02210    1.000
    C459     C        0.10647    0.51227    0.93631    1.000
    H368     H        0.13230    0.48060    0.92690    1.000
    C460     C        0.09825    0.52295    0.98094    1.000
    C461     C        0.12950    0.48469    0.01458    1.000
    C462     C        0.15372    0.50540    0.05453    1.000
    H369     H        0.15070    0.54430    0.06080    1.000
    C463     C        0.13559    0.42610    0.00736    1.000
    H370     H        0.12060    0.41020    0.98090    1.000
    C464     C        0.16391    0.39174    0.03974    1.000
    H371     H        0.16690    0.35260    0.03450    1.000
    C465     C        0.18222    0.46821    0.08490    1.000
    H372     H        0.19890    0.48310    0.11130    1.000
    Cu32     Cu       0.98582    0.13975    0.37143    1.000
    N94      N        0.97935    0.22349    0.37170    1.000
    N95      N        0.03781    0.09458    0.41732    1.000
    N96      N        0.18728    0.91160    0.57837    1.000
    C466     C        0.95787    0.25213    0.40739    1.000
    H373     H        0.94210    0.23130    0.43160    1.000
    C467     C        0.95799    0.31136    0.41007    1.000
    H374     H        0.94350    0.32950    0.43580    1.000
    C468     C        0.97962    0.34318    0.37440    1.000
    C469     C        0.00070    0.31371    0.33695    1.000
    H375     H        0.01510    0.33360    0.31200    1.000
    C470     C        0.00018    0.25469    0.33705    1.000
    H376     H        0.01500    0.23560    0.31180    1.000
    C471     C        0.03043    0.10530    0.46029    1.000
    H377     H        0.00460    0.13750    0.46880    1.000
    C472     C        0.07633    0.04865    0.40625    1.000
    H378     H        0.08300    0.04100    0.37650    1.000
    C473     C        0.05916    0.07112    0.49258    1.000
    H379     H        0.05240    0.08020    0.52210    1.000
    C474     C        0.10647    0.01227    0.43631    1.000
    H380     H        0.13230    0.98060    0.42690    1.000
    C475     C        0.09825    0.02295    0.48094    1.000
    C476     C        0.12950    0.98469    0.51458    1.000
    C477     C        0.15372    0.00540    0.55453    1.000
    H381     H        0.15070    0.04430    0.56080    1.000
    C478     C        0.13559    0.92610    0.50736    1.000
    H382     H        0.12060    0.91020    0.48090    1.000
    C479     C        0.16391    0.89174    0.53974    1.000
    H383     H        0.16690    0.85260    0.53450    1.000
    C480     C        0.18222    0.96821    0.58490    1.000
    H384     H        0.19890    0.98310    0.61130    1.000
