# CIF file generated by openbabel 3.1.0, see https://openbabel.org
data_I
_chemical_name_common 'ja206917z_si_001_clean'
_cell_length_a 16.0339
_cell_length_b 19.411
_cell_length_c 19.411
_cell_angle_alpha 120
_cell_angle_beta 90
_cell_angle_gamma 90
_space_group_name_H-M_alt 'P 1'
_space_group_name_Hall 'P 1'
loop_
    _symmetry_equiv_pos_as_xyz
    x,y,z
loop_
    _atom_site_label
    _atom_site_type_symbol
    _atom_site_fract_x
    _atom_site_fract_y
    _atom_site_fract_z
    _atom_site_occupancy
    Mn1      Mn       0.75000    0.48521    0.51479    1.000
    Mn2      Mn       0.25000    0.51479    0.48521    1.000
    Mn3      Mn       0.91667    0.51479    0.02958    1.000
    Mn4      Mn       0.58333    0.97042    0.48521    1.000
    Mn5      Mn       0.08333    0.02958    0.51479    1.000
    Mn6      Mn       0.41667    0.48521    0.97042    1.000
    Cr1      Cr       0.32515    0.64000    0.80893    1.000
    Cr2      Cr       0.34151    0.36000    0.16893    1.000
    Cr3      Cr       0.84151    0.64000    0.83107    1.000
    Cr4      Cr       0.82515    0.36000    0.19107    1.000
    Cr5      Cr       0.50818    0.16893    0.80893    1.000
    Cr6      Cr       0.67485    0.80893    0.64000    1.000
    Cr7      Cr       0.17485    0.19107    0.36000    1.000
    Cr8      Cr       0.65849    0.16893    0.36000    1.000
    Cr9      Cr       0.15849    0.83107    0.64000    1.000
    Cr10     Cr       0.00818    0.83107    0.19107    1.000
    Cr11     Cr       0.99182    0.19107    0.83107    1.000
    Cr12     Cr       0.49182    0.80893    0.16893    1.000
    C1       C        0.99120    0.93660    0.13650    1.000
    C2       C        0.50230    0.86210    0.32910    1.000
    C3       C        0.13157    0.86080    0.79290    1.000
    C4       C        0.00230    0.13790    0.67090    1.000
    C5       C        0.49770    0.32910    0.86210    1.000
    C6       C        0.53510    0.13920    0.93210    1.000
    C7       C        0.56720    0.07920    0.40820    1.000
    C8       C        0.91200    0.69660    0.12080    1.000
    C9       C        0.84770    0.55230    0.90680    1.000
    C10      C        0.83103    0.53300    0.67090    1.000
    C11      C        0.83563    0.46700    0.13790    1.000
    C12      C        0.31897    0.55230    0.64550    1.000
    C13      C        0.40053    0.67100    0.07920    1.000
    C14      C        0.65787    0.86350    0.80010    1.000
    C15      C        0.43280    0.40820    0.07920    1.000
    C16      C        0.33103    0.46700    0.32910    1.000
    C17      C        0.90053    0.32900    0.92080    1.000
    C18      C        0.96490    0.06790    0.86080    1.000
    C19      C        0.26613    0.32900    0.40820    1.000
    C20      C        0.32453    0.19990    0.06340    1.000
    C21      C        0.68103    0.64550    0.55230    1.000
    C22      C        0.03510    0.86080    0.06790    1.000
    C23      C        0.16897    0.67090    0.53300    1.000
    C24      C        0.41200    0.30340    0.87920    1.000
    C25      C        0.76613    0.67100    0.59180    1.000
    C26      C        0.06720    0.92080    0.59180    1.000
    C27      C        0.16437    0.13790    0.46700    1.000
    C28      C        0.67547    0.06340    0.19990    1.000
    C29      C        0.15230    0.90680    0.55230    1.000
    C30      C        0.86843    0.79290    0.86080    1.000
    C31      C        0.50880    0.86350    0.06340    1.000
    C32      C        0.81897    0.44770    0.35450    1.000
    C33      C        0.92133    0.42420    0.12080    1.000
    C34      C        0.07867    0.12080    0.42420    1.000
    C35      C        0.17547    0.93660    0.80010    1.000
    C36      C        0.36843    0.20710    0.13920    1.000
    C37      C        0.74533    0.57580    0.69660    1.000
    C38      C        0.59947    0.07920    0.67100    1.000
    C39      C        0.73387    0.40820    0.32900    1.000
    C40      C        0.84213    0.19990    0.13650    1.000
    C41      C        0.18103    0.35450    0.44770    1.000
    C42      C        0.98563    0.35450    0.90680    1.000
    C43      C        0.70177    0.93210    0.79290    1.000
    C44      C        0.46490    0.93210    0.13920    1.000
    C45      C        0.65230    0.09320    0.44770    1.000
    C46      C        0.15787    0.13650    0.19990    1.000
    C47      C        0.00880    0.13650    0.93660    1.000
    C48      C        0.75467    0.30340    0.42420    1.000
    C49      C        0.93280    0.59180    0.92080    1.000
    C50      C        0.01437    0.90680    0.35450    1.000
    C51      C        0.58800    0.87920    0.30340    1.000
    C52      C        0.23387    0.59180    0.67100    1.000
    C53      C        0.08800    0.12080    0.69660    1.000
    C54      C        0.82453    0.80010    0.93660    1.000
    C55      C        0.29823    0.79290    0.93210    1.000
    C56      C        0.48563    0.64550    0.09320    1.000
    C57      C        0.25467    0.69660    0.57580    1.000
    C58      C        0.34213    0.80010    0.86350    1.000
    C59      C        0.42133    0.57580    0.87920    1.000
    C60      C        0.24533    0.42420    0.30340    1.000
    C61      C        0.66437    0.86210    0.53300    1.000
    C62      C        0.33563    0.53300    0.86210    1.000
    C63      C        0.63157    0.13920    0.20710    1.000
    C64      C        0.57867    0.87920    0.57580    1.000
    C65      C        0.09947    0.92080    0.32900    1.000
    C66      C        0.99770    0.67090    0.13790    1.000
    C67      C        0.49120    0.06340    0.86350    1.000
    C68      C        0.34770    0.44770    0.09320    1.000
    C69      C        0.66897    0.32910    0.46700    1.000
    C70      C        0.20177    0.06790    0.20710    1.000
    C71      C        0.51437    0.09320    0.64550    1.000
    C72      C        0.79823    0.20710    0.06790    1.000
    O1       O        0.79710    0.56460    0.86318    1.000
    O2       O        0.51040    0.40028    0.88498    1.000
    O3       O        0.82293    0.51530    0.11502    1.000
    O4       O        0.11707    0.72770    0.55230    1.000
    O5       O        0.61707    0.27230    0.44770    1.000
    O6       O        0.32293    0.48470    0.88498    1.000
    O7       O        0.15627    0.59972    0.48470    1.000
    O8       O        0.45040    0.82460    0.27230    1.000
    O9       O        0.98960    0.11502    0.59972    1.000
    O10      O        0.21907    0.08750    0.27910    1.000
    O11      O        0.51600    0.03790    0.41670    1.000
    O12      O        0.84663    0.13440    0.13130    1.000
    O13      O        0.15337    0.13130    0.13440    1.000
    O14      O        0.86957    0.43540    0.29858    1.000
    O15      O        0.38293    0.44770    0.27230    1.000
    O16      O        0.94760    0.08750    0.80840    1.000
    O17      O        0.28483    0.85100    0.99590    1.000
    O18      O        0.71627    0.82460    0.55230    1.000
    O19      O        0.67997    0.00310    0.13440    1.000
    O20      O        0.40530    0.23022    0.85726    1.000
    O21      O        0.36523    0.73350    0.80463    1.000
    O22      O        0.52357    0.91129    0.55640    1.000
    O23      O        0.17707    0.11502    0.51530    1.000
    O24      O        0.03623    0.29858    0.86318    1.000
    O25      O        0.20290    0.86318    0.56460    1.000
    O26      O        0.04850    0.85510    0.00410    1.000
    O27      O        0.48400    0.41670    0.03790    1.000
    O28      O        0.32003    0.13440    0.00310    1.000
    O29      O        0.19023    0.44360    0.35489    1.000
    O30      O        0.05640    0.88597    0.63430    1.000
    O31      O        0.66860    0.06265    0.48910    1.000
    O32      O        0.99807    0.93735    0.42645    1.000
    O33      O        0.49807    0.06265    0.57355    1.000
    O34      O        0.50193    0.57355    0.06265    1.000
    O35      O        0.17997    0.99690    0.86560    1.000
    O36      O        0.55240    0.19160    0.91250    1.000
    O37      O        0.11817    0.85510    0.85100    1.000
    O38      O        0.71907    0.91250    0.72090    1.000
    O39      O        0.44360    0.36570    0.11403    1.000
    O40      O        0.00193    0.42645    0.93735    1.000
    O41      O        0.16860    0.93735    0.51090    1.000
    O42      O        0.85690    0.64511    0.08871    1.000
    O43      O        0.45150    0.99590    0.14490    1.000
    O44      O        0.69023    0.55640    0.64511    1.000
    O45      O        0.48960    0.88498    0.40028    1.000
    O46      O        0.66473    0.57355    0.51090    1.000
    O47      O        0.13477    0.19537    0.26650    1.000
    O48      O        0.69857    0.07113    0.26650    1.000
    O49      O        0.90530    0.76978    0.14274    1.000
    O50      O        0.96377    0.86318    0.29858    1.000
    O51      O        0.18267    0.58330    0.62120    1.000
    O52      O        0.73863    0.62704    0.76978    1.000
    O53      O        0.26137    0.76978    0.62704    1.000
    O54      O        0.83527    0.48910    0.42645    1.000
    O55      O        0.05240    0.80840    0.08750    1.000
    O56      O        0.30977    0.64511    0.55640    1.000
    O57      O        0.15067    0.96210    0.37880    1.000
    O58      O        0.21517    0.00410    0.14900    1.000
    O59      O        0.72307    0.36570    0.25167    1.000
    O60      O        0.84373    0.48470    0.59972    1.000
    O61      O        0.04960    0.72770    0.17540    1.000
    O62      O        0.98670    0.99690    0.13130    1.000
    O63      O        0.09470    0.14274    0.76978    1.000
    O64      O        0.13043    0.29858    0.43540    1.000
    O65      O        0.83140    0.51090    0.93735    1.000
    O66      O        0.64310    0.91129    0.35489    1.000
    O67      O        0.46810    0.07113    0.80463    1.000
    O68      O        0.88293    0.55230    0.72770    1.000
    O69      O        0.53623    0.70142    0.13682    1.000
    O70      O        0.29710    0.43540    0.13682    1.000
    O71      O        0.46377    0.13682    0.70142    1.000
    O72      O        0.84933    0.37880    0.96210    1.000
    O73      O        0.77693    0.74833    0.63430    1.000
    O74      O        0.61027    0.11403    0.74833    1.000
    O75      O        0.61427    0.19160    0.27910    1.000
    O76      O        0.98400    0.58330    0.96210    1.000
    O77      O        0.38573    0.27910    0.19160    1.000
    O78      O        0.67707    0.88498    0.48470    1.000
    O79      O        0.02357    0.08871    0.44360    1.000
    O80      O        0.11427    0.80840    0.72090    1.000
    O81      O        0.34933    0.62120    0.03790    1.000
    O82      O        0.01600    0.96210    0.58330    1.000
    O83      O        0.57197    0.85726    0.62704    1.000
    O84      O        0.47643    0.55640    0.91129    1.000
    O85      O        0.54960    0.27230    0.82460    1.000
    O86      O        0.27693    0.25167    0.36570    1.000
    O87      O        0.14310    0.08871    0.64511    1.000
    O88      O        0.16473    0.42645    0.48910    1.000
    O89      O        0.53190    0.80463    0.07113    1.000
    O90      O        0.22307    0.63430    0.74833    1.000
    O91      O        0.80977    0.35489    0.44360    1.000
    O92      O        0.55640    0.11403    0.36570    1.000
    O93      O        0.82003    0.86560    0.99690    1.000
    O94      O        0.78093    0.27910    0.08750    1.000
    O95      O        0.70290    0.13682    0.43540    1.000
    O96      O        0.28373    0.55230    0.82460    1.000
    O97      O        0.48670    0.00310    0.86870    1.000
    O98      O        0.71517    0.99590    0.85100    1.000
    O99      O        0.33140    0.48910    0.06265    1.000
    O100     O        0.34373    0.51530    0.40028    1.000
    O101     O        0.03190    0.19537    0.92887    1.000
    O102     O        0.11027    0.88597    0.25167    1.000
    O103     O        0.01330    0.13130    0.99690    1.000
    O104     O        0.30143    0.26650    0.07113    1.000
    O105     O        0.42803    0.62704    0.85726    1.000
    O106     O        0.19857    0.92887    0.73350    1.000
    O107     O        0.78483    0.14900    0.00410    1.000
    O108     O        0.80143    0.73350    0.92887    1.000
    O109     O        0.51330    0.86870    0.00310    1.000
    O110     O        0.65067    0.03790    0.62120    1.000
    O111     O        0.34663    0.86560    0.86870    1.000
    O112     O        0.65627    0.40028    0.51530    1.000
    O113     O        0.95150    0.00410    0.85510    1.000
    O114     O        0.88183    0.85100    0.85510    1.000
    O115     O        0.38973    0.74833    0.11403    1.000
    O116     O        0.88573    0.72090    0.80840    1.000
    O117     O        0.95040    0.17540    0.72770    1.000
    O118     O        0.38183    0.14900    0.14490    1.000
    O119     O        0.61817    0.14490    0.14900    1.000
    O120     O        0.97643    0.44360    0.08871    1.000
    O121     O        0.35690    0.35489    0.91129    1.000
    O122     O        0.86523    0.26650    0.19537    1.000
    O123     O        0.63477    0.80463    0.73350    1.000
    O124     O        0.78373    0.44770    0.17540    1.000
    O125     O        0.54850    0.14490    0.99590    1.000
    O126     O        0.36957    0.56460    0.70142    1.000
    O127     O        0.28093    0.72090    0.91250    1.000
    O128     O        0.76137    0.23022    0.37296    1.000
    O129     O        0.21627    0.17540    0.44770    1.000
    O130     O        0.94360    0.63430    0.88597    1.000
    O131     O        0.88973    0.25167    0.88597    1.000
    O132     O        0.01040    0.59972    0.11502    1.000
    O133     O        0.23863    0.37296    0.23022    1.000
    O134     O        0.92803    0.37296    0.14274    1.000
    O135     O        0.44760    0.91250    0.19160    1.000
    O136     O        0.59470    0.85726    0.23022    1.000
    O137     O        0.33527    0.51090    0.57355    1.000
    O138     O        0.81733    0.62120    0.58330    1.000
    O139     O        0.63043    0.70142    0.56460    1.000
    O140     O        0.65337    0.86870    0.86560    1.000
    O141     O        0.96810    0.92887    0.19537    1.000
    O142     O        0.31733    0.37880    0.41670    1.000
    O143     O        0.07197    0.14274    0.37296    1.000
    O144     O        0.68267    0.41670    0.37880    1.000
