# CIF file generated by openbabel 3.1.0, see https://openbabel.org
data_I
_chemical_name_common 'image0'
_cell_length_a 14.7147
_cell_length_b 19.5849
_cell_length_c 19.6532
_cell_angle_alpha 90
_cell_angle_beta 90
_cell_angle_gamma 90
_space_group_name_H-M_alt 'P 1'
_space_group_name_Hall 'P 1'
loop_
    _symmetry_equiv_pos_as_xyz
    x,y,z
loop_
    _atom_site_label
    _atom_site_type_symbol
    _atom_site_fract_x
    _atom_site_fract_y
    _atom_site_fract_z
    _atom_site_occupancy
    Cd1      Cd       0.12157    0.44811    0.26401    1.000
    Ba1      Ba       0.36614    0.38731    0.28626    1.000
    C1       C        0.11530    0.31080    0.25130    1.000
    C2       C        0.10790    0.23560    0.25260    1.000
    C3       C        0.17560    0.18630    0.25950    1.000
    H1       H        0.23690    0.19650    0.26490    1.000
    C4       C        0.14290    0.12330    0.25750    1.000
    H2       H        0.18040    0.08540    0.26250    1.000
    C5       C        0.05380    0.11710    0.24810    1.000
    C6       C        0.99420    0.05440    0.24310    1.000
    C7       C        0.21960    0.47520    0.14870    1.000
    C8       C        0.27250    0.49900    0.08950    1.000
    C9       C        0.36280    0.51540    0.08610    1.000
    H3       H        0.40180    0.51400    0.12330    1.000
    C10      C        0.39020    0.53470    0.02050    1.000
    H4       H        0.44970    0.54610    0.00940    1.000
    C11      C        0.32080    0.53510    0.97510    1.000
    C12      C        0.32780    0.54800    0.90010    1.000
    O1       O        0.04260    0.34280    0.24290    1.000
    O2       O        0.19000    0.33620    0.26570    1.000
    O3       O        0.91110    0.06530    0.23110    1.000
    O4       O        0.02920    0.99630    0.25180    1.000
    O5       O        0.26010    0.46970    0.20480    1.000
    O6       O        0.13570    0.46530    0.14270    1.000
    O7       O        0.40520    0.56230    0.87760    1.000
    O8       O        0.25760    0.54130    0.86440    1.000
    S1       S        0.00600    0.19427    0.24050    1.000
    S2       S        0.22010    0.51059    0.01204    1.000
    Cd2      Cd       0.37843    0.55189    0.76401    1.000
    Ba2      Ba       0.13386    0.61269    0.78626    1.000
    C13      C        0.38470    0.68920    0.75130    1.000
    C14      C        0.39210    0.76440    0.75260    1.000
    C15      C        0.32440    0.81370    0.75950    1.000
    H5       H        0.26310    0.80350    0.76490    1.000
    C16      C        0.35710    0.87670    0.75750    1.000
    H6       H        0.31960    0.91460    0.76250    1.000
    C17      C        0.44620    0.88290    0.74810    1.000
    C18      C        0.50580    0.94560    0.74310    1.000
    C19      C        0.28040    0.52480    0.64870    1.000
    C20      C        0.22750    0.50100    0.58950    1.000
    C21      C        0.13720    0.48460    0.58610    1.000
    H7       H        0.09820    0.48600    0.62330    1.000
    C22      C        0.10980    0.46530    0.52050    1.000
    H8       H        0.05030    0.45390    0.50940    1.000
    C23      C        0.17920    0.46490    0.47510    1.000
    C24      C        0.17220    0.45200    0.40010    1.000
    O9       O        0.45740    0.65720    0.74290    1.000
    O10      O        0.31000    0.66380    0.76570    1.000
    O11      O        0.58890    0.93470    0.73110    1.000
    O12      O        0.47080    0.00370    0.75180    1.000
    O13      O        0.23990    0.53030    0.70480    1.000
    O14      O        0.36430    0.53470    0.64270    1.000
    O15      O        0.09480    0.43770    0.37760    1.000
    O16      O        0.24240    0.45870    0.36440    1.000
    S3       S        0.49400    0.80573    0.74050    1.000
    S4       S        0.27990    0.48941    0.51204    1.000
    Cd3      Cd       0.87843    0.94811    0.23599    1.000
    Ba3      Ba       0.63386    0.88731    0.21374    1.000
    C25      C        0.88470    0.81080    0.24870    1.000
    C26      C        0.89210    0.73560    0.24740    1.000
    C27      C        0.82440    0.68630    0.24050    1.000
    H9       H        0.76310    0.69650    0.23510    1.000
    C28      C        0.85710    0.62330    0.24250    1.000
    H10      H        0.81960    0.58540    0.23750    1.000
    C29      C        0.94620    0.61710    0.25190    1.000
    C30      C        0.00580    0.55440    0.25690    1.000
    C31      C        0.78040    0.97520    0.35130    1.000
    C32      C        0.72750    0.99900    0.41050    1.000
    C33      C        0.63720    0.01540    0.41390    1.000
    H11      H        0.59820    0.01400    0.37670    1.000
    C34      C        0.60980    0.03470    0.47950    1.000
    H12      H        0.55030    0.04610    0.49060    1.000
    C35      C        0.67920    0.03510    0.52490    1.000
    C36      C        0.67220    0.04800    0.59990    1.000
    O17      O        0.95740    0.84280    0.25710    1.000
    O18      O        0.81000    0.83620    0.23430    1.000
    O19      O        0.08890    0.56530    0.26890    1.000
    O20      O        0.97080    0.49630    0.24820    1.000
    O21      O        0.73990    0.96970    0.29520    1.000
    O22      O        0.86430    0.96530    0.35730    1.000
    O23      O        0.59480    0.06230    0.62240    1.000
    O24      O        0.74240    0.04130    0.63560    1.000
    S5       S        0.99400    0.69427    0.25950    1.000
    S6       S        0.77990    0.01059    0.48796    1.000
    Cd4      Cd       0.62157    0.05189    0.73599    1.000
    Ba4      Ba       0.86614    0.11269    0.71374    1.000
    C37      C        0.61530    0.18920    0.74870    1.000
    C38      C        0.60790    0.26440    0.74740    1.000
    C39      C        0.67560    0.31370    0.74050    1.000
    H13      H        0.73690    0.30350    0.73510    1.000
    C40      C        0.64290    0.37670    0.74250    1.000
    H14      H        0.68040    0.41460    0.73750    1.000
    C41      C        0.55380    0.38290    0.75190    1.000
    C42      C        0.49420    0.44560    0.75690    1.000
    C43      C        0.71960    0.02480    0.85130    1.000
    C44      C        0.77250    0.00100    0.91050    1.000
    C45      C        0.86280    0.98460    0.91390    1.000
    H15      H        0.90180    0.98600    0.87670    1.000
    C46      C        0.89020    0.96530    0.97950    1.000
    H16      H        0.94970    0.95390    0.99060    1.000
    C47      C        0.82080    0.96490    0.02490    1.000
    C48      C        0.82780    0.95200    0.09990    1.000
    O25      O        0.54260    0.15720    0.75710    1.000
    O26      O        0.69000    0.16380    0.73430    1.000
    O27      O        0.41110    0.43470    0.76890    1.000
    O28      O        0.52920    0.50370    0.74820    1.000
    O29      O        0.76010    0.03030    0.79520    1.000
    O30      O        0.63570    0.03470    0.85730    1.000
    O31      O        0.90520    0.93770    0.12240    1.000
    O32      O        0.75760    0.95870    0.13560    1.000
    S7       S        0.50600    0.30573    0.75950    1.000
    S8       S        0.72010    0.98941    0.98796    1.000
    Cd5      Cd       0.87843    0.55189    0.73599    1.000
    Ba5      Ba       0.63386    0.61269    0.71374    1.000
    C49      C        0.88470    0.68920    0.74870    1.000
    C50      C        0.89210    0.76440    0.74740    1.000
    C51      C        0.82440    0.81370    0.74050    1.000
    H17      H        0.76310    0.80350    0.73510    1.000
    C52      C        0.85710    0.87670    0.74250    1.000
    H18      H        0.81960    0.91460    0.73750    1.000
    C53      C        0.94620    0.88290    0.75190    1.000
    C54      C        0.00580    0.94560    0.75690    1.000
    C55      C        0.78040    0.52480    0.85130    1.000
    C56      C        0.72750    0.50100    0.91050    1.000
    C57      C        0.63720    0.48460    0.91390    1.000
    H19      H        0.59820    0.48600    0.87670    1.000
    C58      C        0.60980    0.46530    0.97950    1.000
    H20      H        0.55030    0.45390    0.99060    1.000
    C59      C        0.67920    0.46490    0.02490    1.000
    C60      C        0.67220    0.45200    0.09990    1.000
    O33      O        0.95740    0.65720    0.75710    1.000
    O34      O        0.81000    0.66380    0.73430    1.000
    O35      O        0.08890    0.93470    0.76890    1.000
    O36      O        0.97080    0.00370    0.74820    1.000
    O37      O        0.73990    0.53030    0.79520    1.000
    O38      O        0.86430    0.53470    0.85730    1.000
    O39      O        0.59480    0.43770    0.12240    1.000
    O40      O        0.74240    0.45870    0.13560    1.000
    S9       S        0.99400    0.80573    0.75950    1.000
    S10      S        0.77990    0.48941    0.98796    1.000
    Cd6      Cd       0.62157    0.44811    0.23599    1.000
    Ba6      Ba       0.86614    0.38731    0.21374    1.000
    C61      C        0.61530    0.31080    0.24870    1.000
    C62      C        0.60790    0.23560    0.24740    1.000
    C63      C        0.67560    0.18630    0.24050    1.000
    H21      H        0.73690    0.19650    0.23510    1.000
    C64      C        0.64290    0.12330    0.24250    1.000
    H22      H        0.68040    0.08540    0.23750    1.000
    C65      C        0.55380    0.11710    0.25190    1.000
    C66      C        0.49420    0.05440    0.25690    1.000
    C67      C        0.71960    0.47520    0.35130    1.000
    C68      C        0.77250    0.49900    0.41050    1.000
    C69      C        0.86280    0.51540    0.41390    1.000
    H23      H        0.90180    0.51400    0.37670    1.000
    C70      C        0.89020    0.53470    0.47950    1.000
    H24      H        0.94970    0.54610    0.49060    1.000
    C71      C        0.82080    0.53510    0.52490    1.000
    C72      C        0.82780    0.54800    0.59990    1.000
    O41      O        0.54260    0.34280    0.25710    1.000
    O42      O        0.69000    0.33620    0.23430    1.000
    O43      O        0.41110    0.06530    0.26890    1.000
    O44      O        0.52920    0.99630    0.24820    1.000
    O45      O        0.76010    0.46970    0.29520    1.000
    O46      O        0.63570    0.46530    0.35730    1.000
    O47      O        0.90520    0.56230    0.62240    1.000
    O48      O        0.75760    0.54130    0.63560    1.000
    S11      S        0.50600    0.19427    0.25950    1.000
    S12      S        0.72010    0.51059    0.48796    1.000
    Cd7      Cd       0.12157    0.05189    0.76401    1.000
    Ba7      Ba       0.36614    0.11269    0.78626    1.000
    C73      C        0.11530    0.18920    0.75130    1.000
    C74      C        0.10790    0.26440    0.75260    1.000
    C75      C        0.17560    0.31370    0.75950    1.000
    H25      H        0.23690    0.30350    0.76490    1.000
    C76      C        0.14290    0.37670    0.75750    1.000
    H26      H        0.18040    0.41460    0.76250    1.000
    C77      C        0.05380    0.38290    0.74810    1.000
    C78      C        0.99420    0.44560    0.74310    1.000
    C79      C        0.21960    0.02480    0.64870    1.000
    C80      C        0.27250    0.00100    0.58950    1.000
    C81      C        0.36280    0.98460    0.58610    1.000
    H27      H        0.40180    0.98600    0.62330    1.000
    C82      C        0.39020    0.96530    0.52050    1.000
    H28      H        0.44970    0.95390    0.50940    1.000
    C83      C        0.32080    0.96490    0.47510    1.000
    C84      C        0.32780    0.95200    0.40010    1.000
    O49      O        0.04260    0.15720    0.74290    1.000
    O50      O        0.19000    0.16380    0.76570    1.000
    O51      O        0.91110    0.43470    0.73110    1.000
    O52      O        0.02920    0.50370    0.75180    1.000
    O53      O        0.26010    0.03030    0.70480    1.000
    O54      O        0.13570    0.03470    0.64270    1.000
    O55      O        0.40520    0.93770    0.37760    1.000
    O56      O        0.25760    0.95870    0.36440    1.000
    S13      S        0.00600    0.30573    0.74050    1.000
    S14      S        0.22010    0.98941    0.51204    1.000
    Cd8      Cd       0.37843    0.94811    0.26401    1.000
    Ba8      Ba       0.13386    0.88731    0.28626    1.000
    C85      C        0.38470    0.81080    0.25130    1.000
    C86      C        0.39210    0.73560    0.25260    1.000
    C87      C        0.32440    0.68630    0.25950    1.000
    H29      H        0.26310    0.69650    0.26490    1.000
    C88      C        0.35710    0.62330    0.25750    1.000
    H30      H        0.31960    0.58540    0.26250    1.000
    C89      C        0.44620    0.61710    0.24810    1.000
    C90      C        0.50580    0.55440    0.24310    1.000
    C91      C        0.28040    0.97520    0.14870    1.000
    C92      C        0.22750    0.99900    0.08950    1.000
    C93      C        0.13720    0.01540    0.08610    1.000
    H31      H        0.09820    0.01400    0.12330    1.000
    C94      C        0.10980    0.03470    0.02050    1.000
    H32      H        0.05030    0.04610    0.00940    1.000
    C95      C        0.17920    0.03510    0.97510    1.000
    C96      C        0.17220    0.04800    0.90010    1.000
    O57      O        0.45740    0.84280    0.24290    1.000
    O58      O        0.31000    0.83620    0.26570    1.000
    O59      O        0.58890    0.56530    0.23110    1.000
    O60      O        0.47080    0.49630    0.25180    1.000
    O61      O        0.23990    0.96970    0.20480    1.000
    O62      O        0.36430    0.96530    0.14270    1.000
    O63      O        0.09480    0.06230    0.87760    1.000
    O64      O        0.24240    0.04130    0.86440    1.000
    S15      S        0.49400    0.69427    0.24050    1.000
    S16      S        0.27990    0.01059    0.01204    1.000
