data_functionalizedCrystal
_audit_creation_method	'EQeq! by Chris Wilmer'
_symmetry_space_group_name_H-M	'P1'
_symmetry_Int_Tables_number	1
_symmetry_cell_setting	triclinic
loop_
_symmetry_equiv_pos_as_xyz
  x,y,z
_cell_length_a	7.4933
_cell_length_b	14.0605
_cell_length_c	14.0605
_cell_angle_alpha	97.7136
_cell_angle_beta	101.341
_cell_angle_gamma	101.341
loop_
_atom_site_label
_atom_site_type_symbol
_atom_site_fract_x
_atom_site_fract_y
_atom_site_fract_z
_atom_site_charge
Mof_Ni	Ni	0.75	0.41123	0.58877	1.056
Mof_Ni	Ni	0.25	0.58877	0.41123	1.05
Mof_Ni	Ni	0.5	0	-0	0.975
Mof_Ni	Ni	-0	0	-0	0.964
Mof_H 	H 	0.631	0.1353	0.3683	0.059
Mof_H 	H 	0.5823	0.0194	0.2286	-0.032
Mof_H 	H 	0.5993	0.3395	0.1971	0.065
Mof_H 	H 	0.5452	0.2171	0.0621	-0.023
Mof_H 	H 	0.884	0.2369	0.6191	-0.005
Mof_H 	H 	0.8976	0.1229	0.7287	0.058
Mof_H 	H 	0.869	0.6317	0.8647	0.091
Mof_H 	H 	0.9177	0.7714	0.9806	0.069
Mof_H 	H 	0.9007	0.8029	0.6605	0.083
Mof_H 	H 	0.9548	0.9379	0.7829	0.071
Mof_H 	H 	0.616	0.3809	0.7631	0.001
Mof_H 	H 	0.6024	0.2713	0.8771	0.102
Mof_H 	H 	0.369	0.8647	0.6317	0.085
Mof_H 	H 	0.4177	0.9806	0.7714	0.063
Mof_H 	H 	0.4007	0.6605	0.8029	0.074
Mof_H 	H 	0.4548	0.7829	0.9379	0.066
Mof_H 	H 	0.116	0.7631	0.3809	-0.002
Mof_H 	H 	0.1024	0.8771	0.2713	0.096
Mof_H 	H 	0.131	0.3683	0.1353	0.053
Mof_H 	H 	0.0823	0.2286	0.0194	-0.038
Mof_H 	H 	0.0993	0.1971	0.3395	0.056
Mof_H 	H 	0.0452	0.0621	0.2171	-0.029
Mof_H 	H 	0.384	0.6191	0.2369	-0.009
Mof_H 	H 	0.3976	0.7287	0.1229	0.052
Mof_C 	C 	0.6152	0.15398	0.30674	-0.087
Mof_C 	C 	0.6218	0.25192	0.29858	-0.013
Mof_C 	C 	0.5847	0.08459	0.22205	0.051
Mof_C 	C 	0.6587	0.33108	0.38818	0.299
Mof_C 	C 	0.5957	0.27468	0.20562	-0.081
Mof_C 	C 	0.5638	0.20039	0.12447	0.05
Mof_C 	C 	0.8321	0.24002	0.67398	0.055
Mof_C 	C 	0.8368	0.17394	0.73786	-0.077
Mof_C 	C 	0.8848	0.69326	0.84602	-0.063
Mof_C 	C 	0.8782	0.70142	0.74808	-0.012
Mof_C 	C 	0.9153	0.77795	0.91541	0.059
Mof_C 	C 	0.8413	0.61182	0.66892	0.301
Mof_C 	C 	0.9043	0.79438	0.72532	-0.06
Mof_C 	C 	0.9362	0.87553	0.79961	0.051
Mof_C 	C 	0.6679	0.32602	0.75998	0.066
Mof_C 	C 	0.6632	0.26214	0.82606	-0.079
Mof_C 	C 	0.3848	0.84602	0.69326	-0.065
Mof_C 	C 	0.3782	0.74808	0.70142	-0.022
Mof_C 	C 	0.4153	0.91541	0.77795	0.052
Mof_C 	C 	0.3413	0.66892	0.61182	0.299
Mof_C 	C 	0.4043	0.72532	0.79438	-0.061
Mof_C 	C 	0.4362	0.79961	0.87553	0.042
Mof_C 	C 	0.1679	0.75998	0.32602	0.061
Mof_C 	C 	0.1632	0.82606	0.26214	-0.079
Mof_C 	C 	0.1152	0.30674	0.15398	-0.089
Mof_C 	C 	0.1218	0.29858	0.25192	-0.024
Mof_C 	C 	0.0847	0.22205	0.08459	0.043
Mof_C 	C 	0.1587	0.38818	0.33108	0.298
Mof_C 	C 	0.0957	0.20562	0.27468	-0.083
Mof_C 	C 	0.0638	0.12447	0.20039	0.04
Mof_C 	C 	0.3321	0.67398	0.24002	0.05
Mof_C 	C 	0.3368	0.73786	0.17394	-0.077
Mof_C 	C 	0.75	0.11314	0.88686	0.338
Mof_C 	C 	0.75	0.18426	0.81574	-0.019
Mof_C 	C 	0.25	0.88686	0.11314	0.337
Mof_C 	C 	0.25	0.81574	0.18426	-0.027
Mof_N 	N 	0.5587	0.10617	0.13145	-0.248
Mof_N 	N 	0.9413	0.86855	0.89383	-0.156
Mof_N 	N 	0.4413	0.89383	0.86855	-0.162
Mof_N 	N 	0.0587	0.13145	0.10617	-0.253
Mof_N 	N 	0.75	0.31582	0.68418	-0.241
Mof_N 	N 	0.25	0.68418	0.31582	-0.243
Mof_N 	N 	0.25	0.04645	0.95355	-0.243
Mof_N 	N 	0.25	0.10234	0.89766	-0.041
Mof_N 	N 	0.25	0.1563	0.8437	-0.079
Mof_N 	N 	0.75	0.95355	0.04645	-0.23
Mof_N 	N 	0.75	0.89766	0.10234	-0.033
Mof_N 	N 	0.75	0.8437	0.1563	-0.064
Mof_O 	O 	0.6264	0.10943	0.93573	-0.374
Mof_O 	O 	0.6707	0.41879	0.37653	-0.313
Mof_O 	O 	0.6761	0.30313	0.47075	-0.428
Mof_O 	O 	0.8736	0.06427	0.89057	-0.402
Mof_O 	O 	0.8293	0.62347	0.58121	-0.306
Mof_O 	O 	0.8239	0.52925	0.69687	-0.412
Mof_O 	O 	0.3736	0.89057	0.06427	-0.414
Mof_O 	O 	0.3293	0.58121	0.62347	-0.32
Mof_O 	O 	0.3239	0.69687	0.52925	-0.419
Mof_O 	O 	0.1264	0.93573	0.10943	-0.382
Mof_O 	O 	0.1707	0.37653	0.41879	-0.327
Mof_O 	O 	0.1761	0.47075	0.30313	-0.435
_end
