data_functionalizedCrystal
_audit_creation_method	'EQeq! by Chris Wilmer'
_symmetry_space_group_name_H-M	'P1'
_symmetry_Int_Tables_number	1
_symmetry_cell_setting	triclinic
loop_
_symmetry_equiv_pos_as_xyz
  x,y,z
_cell_length_a	7.23
_cell_length_b	10.2535
_cell_length_c	13.2239
_cell_angle_alpha	90
_cell_angle_beta	90
_cell_angle_gamma	99.869
loop_
_atom_site_label
_atom_site_type_symbol
_atom_site_fract_x
_atom_site_fract_y
_atom_site_fract_z
_atom_site_charge
Mof_Pr	Pr	0.16239	0.28166	0.90546	2.502
Mof_Pr	Pr	0.83761	0.21834	0.40546	2.513
Mof_Pr	Pr	0.83761	0.71834	0.09454	2.502
Mof_Pr	Pr	0.16239	0.78166	0.59454	2.513
Mof_P 	P 	0.78692	0.07166	0.04994	0.538
Mof_P 	P 	0.21308	0.42834	0.54994	0.551
Mof_P 	P 	0.21308	0.92834	0.95006	0.537
Mof_P 	P 	0.78692	0.57166	0.45006	0.55
Mof_H 	H 	0.5917	0.1889	0.0454	0.281
Mof_H 	H 	0.8685	0.0012	0.2584	0.279
Mof_H 	H 	0.0578	0.086	0.1488	0.044
Mof_H 	H 	0.4083	0.3111	0.5454	0.283
Mof_H 	H 	0.1315	0.4988	0.7584	0.281
Mof_H 	H 	0.9422	0.414	0.6488	0.038
Mof_H 	H 	0.4083	0.8111	0.9546	0.281
Mof_H 	H 	0.1315	0.9988	0.7416	0.279
Mof_H 	H 	0.9422	0.914	0.8512	0.044
Mof_H 	H 	0.5917	0.6889	0.4546	0.283
Mof_H 	H 	0.8685	0.5012	0.2416	0.281
Mof_H 	H 	0.0578	0.586	0.3512	0.038
Mof_C 	C 	0.9439	0.1251	0.1557	-0.138
Mof_C 	C 	0.9982	0.2743	0.1633	0.424
Mof_C 	C 	0.4522	0.5542	0.9757	0.27
Mof_C 	C 	0.0561	0.3749	0.6557	-0.131
Mof_C 	C 	0.0018	0.2257	0.6633	0.434
Mof_C 	C 	0.5478	0.9458	0.4757	0.269
Mof_C 	C 	0.0561	0.8749	0.8443	-0.138
Mof_C 	C 	0.0018	0.7257	0.8367	0.424
Mof_C 	C 	0.5478	0.4458	0.0243	0.27
Mof_C 	C 	0.9439	0.6251	0.3443	-0.131
Mof_C 	C 	0.9982	0.7743	0.3367	0.434
Mof_C 	C 	0.4522	0.0542	0.5243	0.269
Mof_O 	O 	0.6029	0.125	0.0808	-0.464
Mof_O 	O 	0.8687	0.1315	0.9531	-0.523
Mof_O 	O 	0.7448	0.9235	0.0554	-0.537
Mof_O 	O 	0.8468	0.0755	0.2462	-0.592
Mof_O 	O 	0.0806	0.3337	0.0876	-0.532
Mof_O 	O 	0.9604	0.331	0.2435	-0.55
Mof_O 	O 	0.3067	0.519	0.9264	-0.522
Mof_O 	O 	0.532	0.6717	0.9913	-0.485
Mof_O 	O 	0.3971	0.375	0.5808	-0.466
Mof_O 	O 	0.1313	0.3685	0.4531	-0.532
Mof_O 	O 	0.2552	0.5765	0.5554	-0.541
Mof_O 	O 	0.1532	0.4245	0.7462	-0.593
Mof_O 	O 	0.9194	0.1663	0.5876	-0.543
Mof_O 	O 	0.0396	0.169	0.7435	-0.55
Mof_O 	O 	0.6933	0.981	0.4264	-0.521
Mof_O 	O 	0.468	0.8283	0.4913	-0.486
Mof_O 	O 	0.3971	0.875	0.9192	-0.464
Mof_O 	O 	0.1313	0.8685	0.0469	-0.523
Mof_O 	O 	0.2552	0.0765	0.9446	-0.537
Mof_O 	O 	0.1532	0.9245	0.7538	-0.592
Mof_O 	O 	0.9194	0.6663	0.9124	-0.532
Mof_O 	O 	0.0396	0.669	0.7565	-0.55
Mof_O 	O 	0.6933	0.481	0.0736	-0.522
Mof_O 	O 	0.468	0.3283	0.0087	-0.485
Mof_O 	O 	0.6029	0.625	0.4192	-0.466
Mof_O 	O 	0.8687	0.6315	0.5469	-0.532
Mof_O 	O 	0.7448	0.4235	0.4446	-0.541
Mof_O 	O 	0.8468	0.5755	0.2538	-0.593
Mof_O 	O 	0.0806	0.8337	0.4124	-0.543
Mof_O 	O 	0.9604	0.831	0.2565	-0.55
Mof_O 	O 	0.3067	0.019	0.5736	-0.521
Mof_O 	O 	0.532	0.1717	0.5087	-0.486
_end
