# CIF file generated by openbabel 3.1.0, see https://openbabel.org
data_I
_chemical_name_common 'image0'
_cell_length_a 8.67
_cell_length_b 9.742
_cell_length_c 10.406
_cell_angle_alpha 81.44
_cell_angle_beta 65.83
_cell_angle_gamma 67.16
_space_group_name_H-M_alt 'P 1'
_space_group_name_Hall 'P 1'
loop_
    _symmetry_equiv_pos_as_xyz
    x,y,z
loop_
    _atom_site_label
    _atom_site_type_symbol
    _atom_site_fract_x
    _atom_site_fract_y
    _atom_site_fract_z
    _atom_site_occupancy
    Ga1      Ga       0.13242    0.14930    0.86246    1.000
    Ga2      Ga       0.11989    0.54631    0.84910    1.000
    P1       P        0.24120    0.80290    0.88240    1.000
    P2       P        0.19940    0.35790    0.59080    1.000
    P3       P        0.71230    0.71930    0.99010    1.000
    F1       F        0.00100    0.39280    0.93710    1.000
    O1       O        0.24000    0.94810    0.80190    1.000
    O2       O        0.10390    0.84030    0.03650    1.000
    O3       O        0.20180    0.70820    0.80520    1.000
    O4       O        0.71460    0.84980    0.05680    1.000
    O5       O        0.68880    0.59350    0.09650    1.000
    O6       O        0.87950    0.66530    0.85340    1.000
    O7       O        0.36230    0.30430    0.45550    1.000
    O8       O        0.17220    0.22490    0.68720    1.000
    O9       O        0.21470    0.47430    0.66540    1.000
    C1       C        0.51330    0.80510    0.95150    1.000
    H1       H        0.41030    0.85080    0.03970    1.000
    H2       H        0.52980    0.88700    0.88490    1.000
    C2       C        0.99570    0.44030    0.55610    1.000
    H3       H        0.97280    0.36110    0.52550    1.000
    H4       H        0.89230    0.48480    0.64450    1.000
    C3       C        0.45860    0.70630    0.88900    1.000
    H5       H        0.45730    0.61620    0.94720    1.000
    H6       H        0.54960    0.67380    0.79270    1.000
    Ga3      Ga       0.86758    0.85070    0.13754    1.000
    Ga4      Ga       0.88011    0.45369    0.15090    1.000
    P4       P        0.75880    0.19710    0.11760    1.000
    P5       P        0.80060    0.64210    0.40920    1.000
    P6       P        0.28770    0.28070    0.00990    1.000
    F2       F        0.99900    0.60720    0.06290    1.000
    O10      O        0.76000    0.05190    0.19810    1.000
    O11      O        0.89610    0.15970    0.96350    1.000
    O12      O        0.79820    0.29180    0.19480    1.000
    O13      O        0.28540    0.15020    0.94320    1.000
    O14      O        0.31120    0.40650    0.90350    1.000
    O15      O        0.12050    0.33470    0.14660    1.000
    O16      O        0.63770    0.69570    0.54450    1.000
    O17      O        0.82780    0.77510    0.31280    1.000
    O18      O        0.78530    0.52570    0.33460    1.000
    C4       C        0.48670    0.19490    0.04850    1.000
    H7       H        0.58970    0.14920    0.96030    1.000
    H8       H        0.47020    0.11300    0.11510    1.000
    C5       C        0.00430    0.55970    0.44390    1.000
    H9       H        0.02720    0.63890    0.47450    1.000
    H10      H        0.10770    0.51520    0.35550    1.000
    C6       C        0.54140    0.29370    0.11100    1.000
    H11      H        0.54270    0.38380    0.05280    1.000
    H12      H        0.45040    0.32620    0.20730    1.000
