# CIF file generated by openbabel 3.1.0, see https://openbabel.org
data_I
_chemical_name_common 'image0'
_cell_length_a 9.6271
_cell_length_b 13.1172
_cell_length_c 10.5726
_cell_angle_alpha 90
_cell_angle_beta 110.084
_cell_angle_gamma 90
_space_group_name_H-M_alt 'P 1'
_space_group_name_Hall 'P 1'
loop_
    _symmetry_equiv_pos_as_xyz
    x,y,z
loop_
    _atom_site_label
    _atom_site_type_symbol
    _atom_site_fract_x
    _atom_site_fract_y
    _atom_site_fract_z
    _atom_site_occupancy
    Mn1      Mn       0.20533    0.38397    0.36015    1.000
    Mn2      Mn       0.25222    0.63431    0.54889    1.000
    C1       C        0.43610    0.56870    0.41380    1.000
    C2       C        0.54570    0.53490    0.34900    1.000
    C3       C        0.49240    0.48110    0.22980    1.000
    H1       H        0.39140    0.46970    0.18930    1.000
    C4       C        0.59100    0.44400    0.17050    1.000
    C5       C        0.73950    0.46450    0.23130    1.000
    H2       H        0.80570    0.43880    0.19280    1.000
    C6       C        0.79320    0.52170    0.34770    1.000
    C7       C        0.69530    0.55820    0.40770    1.000
    H3       H        0.72910    0.59750    0.48550    1.000
    C8       C        0.95840    0.53890    0.40550    1.000
    C9       C        0.54310    0.38050    0.04620    1.000
    C10      C        0.45570    0.42140    0.92330    1.000
    H4       H        0.42010    0.48760    0.92040    1.000
    C11      C        0.42040    0.36570    0.80520    1.000
    C12      C        0.46930    0.26470    0.81170    1.000
    H5       H        0.44330    0.22540    0.73380    1.000
    C13      C        0.55670    0.22290    0.93390    1.000
    H6       H        0.59160    0.15650    0.93690    1.000
    C14      C        0.59180    0.27880    0.05010    1.000
    C15      C        0.33580    0.41230    0.67310    1.000
    C16      C        0.68710    0.23020    0.18270    1.000
    O1       O        0.30500    0.53380    0.36820    1.000
    O2       O        0.47650    0.62950    0.51230    1.000
    O3       O        0.29880    0.35540    0.57140    1.000
    O4       O        0.30890    0.50540    0.67220    1.000
    O5       O        0.63730    0.22940    0.27880    1.000
    O6       O        0.80520    0.19180    0.18590    1.000
    O7       O        0.03140    0.47800    0.36860    1.000
    O8       O        0.01040    0.61240    0.48430    1.000
    Mn3      Mn       0.79467    0.88397    0.63985    1.000
    Mn4      Mn       0.74778    0.13431    0.45111    1.000
    C17      C        0.56390    0.06870    0.58620    1.000
    C18      C        0.45430    0.03490    0.65100    1.000
    C19      C        0.50760    0.98110    0.77020    1.000
    H7       H        0.60860    0.96970    0.81070    1.000
    C20      C        0.40900    0.94400    0.82950    1.000
    C21      C        0.26050    0.96450    0.76870    1.000
    H8       H        0.19430    0.93880    0.80720    1.000
    C22      C        0.20680    0.02170    0.65230    1.000
    C23      C        0.30470    0.05820    0.59230    1.000
    H9       H        0.27090    0.09750    0.51450    1.000
    C24      C        0.04160    0.03890    0.59450    1.000
    C25      C        0.45690    0.88050    0.95380    1.000
    C26      C        0.54430    0.92140    0.07670    1.000
    H10      H        0.57990    0.98760    0.07960    1.000
    C27      C        0.57960    0.86570    0.19480    1.000
    C28      C        0.53070    0.76470    0.18830    1.000
    H11      H        0.55670    0.72540    0.26620    1.000
    C29      C        0.44330    0.72290    0.06610    1.000
    H12      H        0.40840    0.65650    0.06310    1.000
    C30      C        0.40820    0.77880    0.94990    1.000
    C31      C        0.66420    0.91230    0.32690    1.000
    C32      C        0.31290    0.73020    0.81730    1.000
    O9       O        0.69500    0.03380    0.63180    1.000
    O10      O        0.52350    0.12950    0.48770    1.000
    O11      O        0.70120    0.85540    0.42860    1.000
    O12      O        0.69110    0.00540    0.32780    1.000
    O13      O        0.36270    0.72940    0.72120    1.000
    O14      O        0.19480    0.69180    0.81410    1.000
    O15      O        0.96860    0.97800    0.63140    1.000
    O16      O        0.98960    0.11240    0.51570    1.000
