# CIF file generated by openbabel 3.1.0, see https://openbabel.org
data_I
_chemical_name_common 'image0'
_cell_length_a 21.5373
_cell_length_b 21.5373
_cell_length_c 8.8753
_cell_angle_alpha 90
_cell_angle_beta 90
_cell_angle_gamma 120
_space_group_name_H-M_alt 'P 1'
_space_group_name_Hall 'P 1'
loop_
    _symmetry_equiv_pos_as_xyz
    x,y,z
loop_
    _atom_site_label
    _atom_site_type_symbol
    _atom_site_fract_x
    _atom_site_fract_y
    _atom_site_fract_z
    _atom_site_occupancy
    Cu1      Cu       0.29680    0.17445    0.46447    1.000
    C1       C        0.26583    0.00983    0.75000    1.000
    C2       C        0.24627    0.03249    0.53040    1.000
    C3       C        0.21595    0.03069    0.37960    1.000
    N1       N        0.30355    0.08123    0.73430    1.000
    N2       N        0.26587    0.97481    0.87730    1.000
    H1       H        0.29110    0.99860    0.95370    1.000
    H2       H        0.24070    0.92880    0.88150    1.000
    N3       N        0.29009    0.09467    0.59010    1.000
    N4       N        0.23016    0.97703    0.62350    1.000
    O1       O        0.23797    0.09324    0.32510    1.000
    O2       O        0.17315    0.97309    0.32210    1.000
    Cu2      Cu       0.96347    0.50779    0.79780    1.000
    C4       C        0.93250    0.34316    0.08333    1.000
    C5       C        0.91294    0.36582    0.86373    1.000
    C6       C        0.88262    0.36402    0.71293    1.000
    N5       N        0.97022    0.41456    0.06763    1.000
    N6       N        0.93254    0.30814    0.21063    1.000
    H3       H        0.95777    0.33193    0.28703    1.000
    H4       H        0.90737    0.26213    0.21483    1.000
    N7       N        0.95676    0.42800    0.92343    1.000
    N8       N        0.89683    0.31036    0.95683    1.000
    O3       O        0.90464    0.42657    0.65843    1.000
    O4       O        0.83982    0.30642    0.65543    1.000
    Cu3      Cu       0.63013    0.84112    0.13114    1.000
    C7       C        0.59916    0.67650    0.41667    1.000
    C8       C        0.57960    0.69916    0.19707    1.000
    C9       C        0.54928    0.69736    0.04627    1.000
    N9       N        0.63688    0.74790    0.40097    1.000
    N10      N        0.59920    0.64148    0.54397    1.000
    H5       H        0.62443    0.66527    0.62037    1.000
    H6       H        0.57403    0.59547    0.54817    1.000
    N11      N        0.62342    0.76134    0.25677    1.000
    N12      N        0.56349    0.64370    0.29017    1.000
    O5       O        0.57130    0.75991    0.99177    1.000
    O6       O        0.50648    0.63976    0.98877    1.000
    Cu4      Cu       0.82555    0.12235    0.46447    1.000
    C10      C        0.99017    0.25600    0.75000    1.000
    C11      C        0.96751    0.21378    0.53040    1.000
    C12      C        0.96931    0.18526    0.37960    1.000
    N13      N        0.91877    0.22232    0.73430    1.000
    N14      N        0.02519    0.29106    0.87730    1.000
    H7       H        0.00140    0.29250    0.95370    1.000
    H8       H        0.07120    0.31190    0.88150    1.000
    N15      N        0.90533    0.19542    0.59010    1.000
    N16      N        0.02297    0.25313    0.62350    1.000
    O7       O        0.90676    0.14473    0.32510    1.000
    O8       O        0.02691    0.20006    0.32210    1.000
    Cu5      Cu       0.49221    0.45568    0.79780    1.000
    C13      C        0.65684    0.58933    0.08333    1.000
    C14      C        0.63418    0.54711    0.86373    1.000
    C15      C        0.63598    0.51859    0.71293    1.000
    N17      N        0.58544    0.55565    0.06763    1.000
    N18      N        0.69186    0.62439    0.21063    1.000
    H9       H        0.66807    0.62583    0.28703    1.000
    H10      H        0.73787    0.64523    0.21483    1.000
    N19      N        0.57200    0.52875    0.92343    1.000
    N20      N        0.68964    0.58646    0.95683    1.000
    O9       O        0.57343    0.47806    0.65843    1.000
    O10      O        0.69358    0.53339    0.65543    1.000
    Cu6      Cu       0.15888    0.78901    0.13114    1.000
    C16      C        0.32350    0.92267    0.41667    1.000
    C17      C        0.30084    0.88045    0.19707    1.000
    C18      C        0.30264    0.85193    0.04627    1.000
    N21      N        0.25210    0.88899    0.40097    1.000
    N22      N        0.35852    0.95773    0.54397    1.000
    H11      H        0.33473    0.95917    0.62037    1.000
    H12      H        0.40453    0.97857    0.54817    1.000
    N23      N        0.23866    0.86209    0.25677    1.000
    N24      N        0.35630    0.91980    0.29017    1.000
    O11      O        0.24009    0.81140    0.99177    1.000
    O12      O        0.36024    0.86673    0.98877    1.000
    Cu7      Cu       0.87765    0.70320    0.46447    1.000
    C19      C        0.74400    0.73417    0.75000    1.000
    C20      C        0.78622    0.75373    0.53040    1.000
    C21      C        0.81474    0.78405    0.37960    1.000
    N25      N        0.77768    0.69645    0.73430    1.000
    N26      N        0.70894    0.73413    0.87730    1.000
    H13      H        0.70750    0.70890    0.95370    1.000
    H14      H        0.68810    0.75930    0.88150    1.000
    N27      N        0.80458    0.70991    0.59010    1.000
    N28      N        0.74687    0.76984    0.62350    1.000
    O13      O        0.85527    0.76203    0.32510    1.000
    O14      O        0.79994    0.82685    0.32210    1.000
    Cu8      Cu       0.54432    0.03653    0.79780    1.000
    C22      C        0.41067    0.06750    0.08333    1.000
    C23      C        0.45289    0.08706    0.86373    1.000
    C24      C        0.48141    0.11738    0.71293    1.000
    N29      N        0.44435    0.02978    0.06763    1.000
    N30      N        0.37561    0.06746    0.21063    1.000
    H15      H        0.37417    0.04223    0.28703    1.000
    H16      H        0.35477    0.09263    0.21483    1.000
    N31      N        0.47125    0.04324    0.92343    1.000
    N32      N        0.41354    0.10317    0.95683    1.000
    O15      O        0.52194    0.09536    0.65843    1.000
    O16      O        0.46661    0.16018    0.65543    1.000
    Cu9      Cu       0.21099    0.36987    0.13114    1.000
    C25      C        0.07733    0.40084    0.41667    1.000
    C26      C        0.11955    0.42040    0.19707    1.000
    C27      C        0.14807    0.45072    0.04627    1.000
    N33      N        0.11101    0.36312    0.40097    1.000
    N34      N        0.04227    0.40080    0.54397    1.000
    H17      H        0.04083    0.37557    0.62037    1.000
    H18      H        0.02143    0.42597    0.54817    1.000
    N35      N        0.13791    0.37658    0.25677    1.000
    N36      N        0.08020    0.43651    0.29017    1.000
    O17      O        0.18860    0.42870    0.99177    1.000
    O18      O        0.13327    0.49352    0.98877    1.000
    Cu10     Cu       0.70320    0.82555    0.53553    1.000
    C28      C        0.73417    0.99017    0.25000    1.000
    C29      C        0.75373    0.96751    0.46960    1.000
    C30      C        0.78405    0.96931    0.62040    1.000
    N37      N        0.69645    0.91877    0.26570    1.000
    N38      N        0.73413    0.02519    0.12270    1.000
    H19      H        0.70890    0.00140    0.04630    1.000
    H20      H        0.75930    0.07120    0.11850    1.000
    N39      N        0.70991    0.90533    0.40990    1.000
    N40      N        0.76984    0.02297    0.37650    1.000
    O19      O        0.76203    0.90676    0.67490    1.000
    O20      O        0.82685    0.02691    0.67790    1.000
    Cu11     Cu       0.36987    0.15888    0.86886    1.000
    C31      C        0.40084    0.32350    0.58333    1.000
    C32      C        0.42040    0.30084    0.80293    1.000
    C33      C        0.45072    0.30264    0.95373    1.000
    N41      N        0.36312    0.25210    0.59903    1.000
    N42      N        0.40080    0.35852    0.45603    1.000
    H21      H        0.37557    0.33473    0.37963    1.000
    H22      H        0.42597    0.40453    0.45183    1.000
    N43      N        0.37658    0.23866    0.74323    1.000
    N44      N        0.43651    0.35630    0.70983    1.000
    O21      O        0.42870    0.24009    0.00823    1.000
    O22      O        0.49352    0.36024    0.01123    1.000
    Cu12     Cu       0.03653    0.49221    0.20220    1.000
    C34      C        0.06750    0.65684    0.91667    1.000
    C35      C        0.08706    0.63418    0.13627    1.000
    C36      C        0.11738    0.63598    0.28707    1.000
    N45      N        0.02978    0.58544    0.93237    1.000
    N46      N        0.06746    0.69186    0.78937    1.000
    H23      H        0.04223    0.66807    0.71297    1.000
    H24      H        0.09263    0.73787    0.78517    1.000
    N47      N        0.04324    0.57200    0.07657    1.000
    N48      N        0.10317    0.68964    0.04317    1.000
    O23      O        0.09536    0.57343    0.34157    1.000
    O24      O        0.16018    0.69358    0.34457    1.000
    Cu13     Cu       0.17445    0.87765    0.53553    1.000
    C37      C        0.00983    0.74400    0.25000    1.000
    C38      C        0.03249    0.78622    0.46960    1.000
    C39      C        0.03069    0.81474    0.62040    1.000
    N49      N        0.08123    0.77768    0.26570    1.000
    N50      N        0.97481    0.70894    0.12270    1.000
    H25      H        0.99860    0.70750    0.04630    1.000
    H26      H        0.92880    0.68810    0.11850    1.000
    N51      N        0.09467    0.80458    0.40990    1.000
    N52      N        0.97703    0.74687    0.37650    1.000
    O25      O        0.09324    0.85527    0.67490    1.000
    O26      O        0.97309    0.79994    0.67790    1.000
    Cu14     Cu       0.84112    0.21099    0.86886    1.000
    C40      C        0.67650    0.07733    0.58333    1.000
    C41      C        0.69916    0.11955    0.80293    1.000
    C42      C        0.69736    0.14807    0.95373    1.000
    N53      N        0.74790    0.11101    0.59903    1.000
    N54      N        0.64148    0.04227    0.45603    1.000
    H27      H        0.66527    0.04083    0.37963    1.000
    H28      H        0.59547    0.02143    0.45183    1.000
    N55      N        0.76134    0.13791    0.74323    1.000
    N56      N        0.64370    0.08020    0.70983    1.000
    O27      O        0.75991    0.18860    0.00823    1.000
    O28      O        0.63976    0.13327    0.01123    1.000
    Cu15     Cu       0.50779    0.54432    0.20220    1.000
    C43      C        0.34316    0.41067    0.91667    1.000
    C44      C        0.36582    0.45289    0.13627    1.000
    C45      C        0.36402    0.48141    0.28707    1.000
    N57      N        0.41456    0.44435    0.93237    1.000
    N58      N        0.30814    0.37561    0.78937    1.000
    H29      H        0.33193    0.37417    0.71297    1.000
    H30      H        0.26213    0.35477    0.78517    1.000
    N59      N        0.42800    0.47125    0.07657    1.000
    N60      N        0.31036    0.41354    0.04317    1.000
    O29      O        0.42657    0.52194    0.34157    1.000
    O30      O        0.30642    0.46661    0.34457    1.000
    Cu16     Cu       0.12235    0.29680    0.53553    1.000
    C46      C        0.25600    0.26583    0.25000    1.000
    C47      C        0.21378    0.24627    0.46960    1.000
    C48      C        0.18526    0.21595    0.62040    1.000
    N61      N        0.22232    0.30355    0.26570    1.000
    N62      N        0.29106    0.26587    0.12270    1.000
    H31      H        0.29250    0.29110    0.04630    1.000
    H32      H        0.31190    0.24070    0.11850    1.000
    N63      N        0.19542    0.29009    0.40990    1.000
    N64      N        0.25313    0.23016    0.37650    1.000
    O31      O        0.14473    0.23797    0.67490    1.000
    O32      O        0.20006    0.17315    0.67790    1.000
    Cu17     Cu       0.78901    0.63013    0.86886    1.000
    C49      C        0.92267    0.59916    0.58333    1.000
    C50      C        0.88045    0.57960    0.80293    1.000
    C51      C        0.85193    0.54928    0.95373    1.000
    N65      N        0.88899    0.63688    0.59903    1.000
    N66      N        0.95773    0.59920    0.45603    1.000
    H33      H        0.95917    0.62443    0.37963    1.000
    H34      H        0.97857    0.57403    0.45183    1.000
    N67      N        0.86209    0.62342    0.74323    1.000
    N68      N        0.91980    0.56349    0.70983    1.000
    O33      O        0.81140    0.57130    0.00823    1.000
    O34      O        0.86673    0.50648    0.01123    1.000
    Cu18     Cu       0.45568    0.96347    0.20220    1.000
    C52      C        0.58933    0.93250    0.91667    1.000
    C53      C        0.54711    0.91294    0.13627    1.000
    C54      C        0.51859    0.88262    0.28707    1.000
    N69      N        0.55565    0.97022    0.93237    1.000
    N70      N        0.62439    0.93254    0.78937    1.000
    H35      H        0.62583    0.95777    0.71297    1.000
    H36      H        0.64523    0.90737    0.78517    1.000
    N71      N        0.52875    0.95676    0.07657    1.000
    N72      N        0.58646    0.89683    0.04317    1.000
    O35      O        0.47806    0.90464    0.34157    1.000
    O36      O        0.53339    0.83982    0.34457    1.000
