# CIF file generated by openbabel 3.1.0, see https://openbabel.org
data_I
_chemical_name_common 'image0'
_cell_length_a 10.807
_cell_length_b 14.066
_cell_length_c 13.084
_cell_angle_alpha 90
_cell_angle_beta 96.342
_cell_angle_gamma 90
_space_group_name_H-M_alt 'P 1'
_space_group_name_Hall 'P 1'
loop_
    _symmetry_equiv_pos_as_xyz
    x,y,z
loop_
    _atom_site_label
    _atom_site_type_symbol
    _atom_site_fract_x
    _atom_site_fract_y
    _atom_site_fract_z
    _atom_site_occupancy
    Ga1      Ga       0.13120    0.38305    0.93900    1.000
    Ga2      Ga       0.15087    0.23357    0.36637    1.000
    P1       P        0.13356    0.22613    0.12294    1.000
    O1       O        0.97000    0.39140    0.98610    1.000
    P2       P        0.83258    0.40275    0.98333    1.000
    O2       O        0.05240    0.28330    0.82950    1.000
    O3       O        0.06570    0.47220    0.82190    1.000
    O4       O        0.17500    0.30400    0.05460    1.000
    O5       O        0.21530    0.13790    0.12150    1.000
    O6       O        0.14220    0.26920    0.23240    1.000
    O7       O        0.99680    0.19450    0.09350    1.000
    O8       O        0.78420    0.34160    0.07000    1.000
    O9       O        0.79360    0.50570    0.99290    1.000
    O10      O        0.76310    0.36530    0.88050    1.000
    Ga3      Ga       0.63120    0.88305    0.93900    1.000
    Ga4      Ga       0.65087    0.73357    0.36637    1.000
    P3       P        0.63356    0.72613    0.12294    1.000
    O11      O        0.47000    0.89140    0.98610    1.000
    P4       P        0.33258    0.90275    0.98333    1.000
    O12      O        0.55240    0.78330    0.82950    1.000
    O13      O        0.56570    0.97220    0.82190    1.000
    O14      O        0.67500    0.80400    0.05460    1.000
    O15      O        0.71530    0.63790    0.12150    1.000
    O16      O        0.64220    0.76920    0.23240    1.000
    O17      O        0.49680    0.69450    0.09350    1.000
    O18      O        0.28420    0.84160    0.07000    1.000
    O19      O        0.29360    0.00570    0.99290    1.000
    O20      O        0.26310    0.86530    0.88050    1.000
    Ga5      Ga       0.86880    0.38305    0.56100    1.000
    Ga6      Ga       0.84913    0.23357    0.13363    1.000
    P5       P        0.86644    0.22613    0.37706    1.000
    O21      O        0.03000    0.39140    0.51390    1.000
    P6       P        0.16742    0.40275    0.51667    1.000
    O22      O        0.94760    0.28330    0.67050    1.000
    O23      O        0.93430    0.47220    0.67810    1.000
    O24      O        0.82500    0.30400    0.44540    1.000
    O25      O        0.78470    0.13790    0.37850    1.000
    O26      O        0.85780    0.26920    0.26760    1.000
    O27      O        0.00320    0.19450    0.40650    1.000
    O28      O        0.21580    0.34160    0.43000    1.000
    O29      O        0.20640    0.50570    0.50710    1.000
    O30      O        0.23690    0.36530    0.61950    1.000
    Ga7      Ga       0.36880    0.88305    0.56100    1.000
    Ga8      Ga       0.34913    0.73357    0.13363    1.000
    P7       P        0.36644    0.72613    0.37706    1.000
    O31      O        0.53000    0.89140    0.51390    1.000
    P8       P        0.66742    0.90275    0.51667    1.000
    O32      O        0.44760    0.78330    0.67050    1.000
    O33      O        0.43430    0.97220    0.67810    1.000
    O34      O        0.32500    0.80400    0.44540    1.000
    O35      O        0.28470    0.63790    0.37850    1.000
    O36      O        0.35780    0.76920    0.26760    1.000
    O37      O        0.50320    0.69450    0.40650    1.000
    O38      O        0.71580    0.84160    0.43000    1.000
    O39      O        0.70640    0.00570    0.50710    1.000
    O40      O        0.73690    0.86530    0.61950    1.000
    Ga9      Ga       0.86880    0.61695    0.06100    1.000
    Ga10     Ga       0.84913    0.76643    0.63363    1.000
    P9       P        0.86644    0.77387    0.87706    1.000
    O41      O        0.03000    0.60860    0.01390    1.000
    P10      P        0.16742    0.59725    0.01667    1.000
    O42      O        0.94760    0.71670    0.17050    1.000
    O43      O        0.93430    0.52780    0.17810    1.000
    O44      O        0.82500    0.69600    0.94540    1.000
    O45      O        0.78470    0.86210    0.87850    1.000
    O46      O        0.85780    0.73080    0.76760    1.000
    O47      O        0.00320    0.80550    0.90650    1.000
    O48      O        0.21580    0.65840    0.93000    1.000
    O49      O        0.20640    0.49430    0.00710    1.000
    O50      O        0.23690    0.63470    0.11950    1.000
    Ga11     Ga       0.36880    0.11695    0.06100    1.000
    Ga12     Ga       0.34913    0.26643    0.63363    1.000
    P11      P        0.36644    0.27387    0.87706    1.000
    O51      O        0.53000    0.10860    0.01390    1.000
    P12      P        0.66742    0.09725    0.01667    1.000
    O52      O        0.44760    0.21670    0.17050    1.000
    O53      O        0.43430    0.02780    0.17810    1.000
    O54      O        0.32500    0.19600    0.94540    1.000
    O55      O        0.28470    0.36210    0.87850    1.000
    O56      O        0.35780    0.23080    0.76760    1.000
    O57      O        0.50320    0.30550    0.90650    1.000
    O58      O        0.71580    0.15840    0.93000    1.000
    O59      O        0.70640    0.99430    0.00710    1.000
    O60      O        0.73690    0.13470    0.11950    1.000
    Ga13     Ga       0.13120    0.61695    0.43900    1.000
    Ga14     Ga       0.15087    0.76643    0.86637    1.000
    P13      P        0.13356    0.77387    0.62294    1.000
    O61      O        0.97000    0.60860    0.48610    1.000
    P14      P        0.83258    0.59725    0.48333    1.000
    O62      O        0.05240    0.71670    0.32950    1.000
    O63      O        0.06570    0.52780    0.32190    1.000
    O64      O        0.17500    0.69600    0.55460    1.000
    O65      O        0.21530    0.86210    0.62150    1.000
    O66      O        0.14220    0.73080    0.73240    1.000
    O67      O        0.99680    0.80550    0.59350    1.000
    O68      O        0.78420    0.65840    0.57000    1.000
    O69      O        0.79360    0.49430    0.49290    1.000
    O70      O        0.76310    0.63470    0.38050    1.000
    Ga15     Ga       0.63120    0.11695    0.43900    1.000
    Ga16     Ga       0.65087    0.26643    0.86637    1.000
    P15      P        0.63356    0.27387    0.62294    1.000
    O71      O        0.47000    0.10860    0.48610    1.000
    P16      P        0.33258    0.09725    0.48333    1.000
    O72      O        0.55240    0.21670    0.32950    1.000
    O73      O        0.56570    0.02780    0.32190    1.000
    O74      O        0.67500    0.19600    0.55460    1.000
    O75      O        0.71530    0.36210    0.62150    1.000
    O76      O        0.64220    0.23080    0.73240    1.000
    O77      O        0.49680    0.30550    0.59350    1.000
    O78      O        0.28420    0.15840    0.57000    1.000
    O79      O        0.29360    0.99430    0.49290    1.000
    O80      O        0.26310    0.13470    0.38050    1.000
    C1       C        0.00000    0.32240    0.75000    1.000
    C2       C        0.00000    0.43210    0.75000    1.000
    C3       C        0.50000    0.82240    0.75000    1.000
    C4       C        0.50000    0.93210    0.75000    1.000
    C5       C        0.00000    0.67760    0.25000    1.000
    C6       C        0.00000    0.56790    0.25000    1.000
    C7       C        0.50000    0.17760    0.25000    1.000
    C8       C        0.50000    0.06790    0.25000    1.000
