data_functionalizedCrystal
_audit_creation_method	'EQeq! by Chris Wilmer'
_symmetry_space_group_name_H-M	'P1'
_symmetry_Int_Tables_number	1
_symmetry_cell_setting	triclinic
loop_
_symmetry_equiv_pos_as_xyz
  x,y,z
_cell_length_a	9.3139
_cell_length_b	9.3139
_cell_length_c	13.3133
_cell_angle_alpha	90
_cell_angle_beta	90
_cell_angle_gamma	120
loop_
_atom_site_label
_atom_site_type_symbol
_atom_site_fract_x
_atom_site_fract_y
_atom_site_fract_z
_atom_site_charge
Mof_N 	N 	0.1861	0.8539	0.8508	-0.185
Mof_C 	C 	0.2763	0.9954	0.8006	-0.018
Mof_H 	H 	0.3364	0.0935	0.8365	0.054
Mof_C 	C 	0.283	0.0004	0.6969	-0.045
Mof_H 	H 	0.3493	0.1007	0.6643	0.052
Mof_C 	C 	0.1928	0.8587	0.6413	0.038
Mof_C 	C 	0.0948	0.7106	0.6958	-0.123
Mof_H 	H 	0.029	0.6119	0.6616	0.063
Mof_C 	C 	0.0965	0.7119	0.798	0.065
Mof_H 	H 	0.0345	0.6127	0.8325	0.008
Mof_C 	C 	0.2541	0.86	0.5333	-0.036
Mof_H 	H 	0.3502	0.8604	0.5136	0.021
Mof_C 	C 	0.1232	0.861	0.5333	-0.035
Mof_H 	H 	0.0272	0.8622	0.4844	0.019
Mof_N 	N 	0.1461	0.3322	0.8508	-0.164
Mof_C 	C 	0.0046	0.2809	0.8006	-0.106
Mof_H 	H 	0.9065	0.2429	0.8365	0.098
Mof_C 	C 	0.9996	0.2826	0.6969	0.058
Mof_H 	H 	0.8993	0.2486	0.6643	0.026
Mof_C 	C 	0.1413	0.3341	0.6413	-0.01
Mof_C 	C 	0.2894	0.3842	0.6958	-0.088
Mof_H 	H 	0.3881	0.4171	0.6616	0.064
Mof_C 	C 	0.2881	0.3846	0.798	0.049
Mof_H 	H 	0.3873	0.4218	0.8325	0.023
Mof_C 	C 	0.14	0.3941	0.5333	-0.032
Mof_H 	H 	0.1396	0.4898	0.5136	0.017
Mof_C 	C 	0.139	0.2622	0.5333	-0.028
Mof_H 	H 	0.1378	0.165	0.4844	0.027
Mof_N 	N 	0.6678	0.8139	0.8508	-0.206
Mof_C 	C 	0.7191	0.7237	0.8006	0.107
Mof_H 	H 	0.7571	0.6636	0.8365	0.006
Mof_C 	C 	0.7174	0.717	0.6969	-0.171
Mof_H 	H 	0.7514	0.6507	0.6643	0.099
Mof_C 	C 	0.6659	0.8072	0.6413	0.115
Mof_C 	C 	0.6158	0.9052	0.6958	-0.168
Mof_H 	H 	0.5829	0.971	0.6616	0.085
Mof_C 	C 	0.6154	0.9035	0.798	0.101
Mof_H 	H 	0.5782	0.9655	0.8325	-0.001
Mof_C 	C 	0.6059	0.7459	0.5333	-0.042
Mof_H 	H 	0.5102	0.6498	0.5136	0.028
Mof_C 	C 	0.7378	0.8768	0.5333	-0.037
Mof_H 	H 	0.835	0.9728	0.4844	0.028
Mof_N 	N 	0.1861	0.8539	0.1492	-0.207
Mof_C 	C 	0.2763	0.9954	0.1994	-0.036
Mof_H 	H 	0.3364	0.0935	0.1635	0.042
Mof_C 	C 	0.283	0.0004	0.3031	-0.032
Mof_H 	H 	0.3493	0.1007	0.3357	0.046
Mof_C 	C 	0.1928	0.8587	0.3587	0.03
Mof_C 	C 	0.0948	0.7106	0.3042	-0.123
Mof_H 	H 	0.029	0.6119	0.3384	0.06
Mof_C 	C 	0.0965	0.7119	0.202	0.06
Mof_H 	H 	0.0345	0.6127	0.1675	-0.013
Mof_C 	C 	0.2541	0.86	0.4667	-0.034
Mof_H 	H 	0.3502	0.8604	0.4864	0.025
Mof_C 	C 	0.1232	0.861	0.4667	-0.037
Mof_H 	H 	0.0272	0.8622	0.5156	0.016
Mof_N 	N 	0.1461	0.3322	0.1492	-0.183
Mof_C 	C 	0.0046	0.2809	0.1994	-0.138
Mof_H 	H 	0.9065	0.2429	0.1635	0.094
Mof_C 	C 	0.9996	0.2826	0.3031	0.086
Mof_H 	H 	0.8993	0.2486	0.3357	0.015
Mof_C 	C 	0.1413	0.3341	0.3587	-0.026
Mof_C 	C 	0.2894	0.3842	0.3042	-0.081
Mof_H 	H 	0.3881	0.4171	0.3384	0.06
Mof_C 	C 	0.2881	0.3846	0.202	0.041
Mof_H 	H 	0.3873	0.4218	0.1675	0.005
Mof_C 	C 	0.14	0.3941	0.4667	-0.026
Mof_H 	H 	0.1396	0.4898	0.4864	0.024
Mof_C 	C 	0.139	0.2622	0.4667	-0.027
Mof_H 	H 	0.1378	0.165	0.5156	0.02
Mof_N 	N 	0.6678	0.8139	0.1492	-0.231
Mof_C 	C 	0.7191	0.7237	0.1994	0.108
Mof_H 	H 	0.7571	0.6636	0.1635	-0.014
Mof_C 	C 	0.7174	0.717	0.3031	-0.177
Mof_H 	H 	0.7514	0.6507	0.3357	0.1
Mof_C 	C 	0.6659	0.8072	0.3587	0.119
Mof_C 	C 	0.6158	0.9052	0.3042	-0.174
Mof_H 	H 	0.5829	0.971	0.3384	0.085
Mof_C 	C 	0.6154	0.9035	0.202	0.1
Mof_H 	H 	0.5782	0.9655	0.1675	-0.022
Mof_C 	C 	0.6059	0.7459	0.4667	-0.044
Mof_H 	H 	0.5102	0.6498	0.4864	0.027
Mof_C 	C 	0.7378	0.8768	0.4667	-0.038
Mof_H 	H 	0.835	0.9728	0.5156	0.029
Mof_Cu	Cu	0.18143	0.85091	-0	0.886
Mof_O 	O 	0.1854	0.6436	-0	-0.506
Mof_O 	O 	0.8911	0.8433	-0	-0.45
Mof_Cu	Cu	0.14909	0.33052	-0	0.886
Mof_O 	O 	0.3564	0.5418	-0	-0.5
Mof_O 	O 	0.1567	0.0478	-0	-0.464
Mof_Cu	Cu	0.66948	0.81857	-0	0.895
Mof_O 	O 	0.4582	0.8146	-0	-0.502
Mof_O 	O 	0.9522	0.1089	-0	-0.422
Mof_C 	C 	0.33333	0.66667	-0	0.504
Mof_C 	C 	-0	0	-0	0.388
_end
