data_functionalizedCrystal
_audit_creation_method	'EQeq! by Chris Wilmer'
_symmetry_space_group_name_H-M	'P1'
_symmetry_Int_Tables_number	1
_symmetry_cell_setting	triclinic
loop_
_symmetry_equiv_pos_as_xyz
  x,y,z
_cell_length_a	34.893
_cell_length_b	34.893
_cell_length_c	23.892
_cell_angle_alpha	90
_cell_angle_beta	90
_cell_angle_gamma	120
loop_
_atom_site_label
_atom_site_type_symbol
_atom_site_fract_x
_atom_site_fract_y
_atom_site_fract_z
_atom_site_charge
Mof_O 	O 	0.55312	0.02699	0.06595	-0.407
Mof_O 	O 	0.56806	0.05661	0.97946	-0.415
Mof_C 	C 	0.57821	0.05406	0.0286	0.371
Mof_C 	C 	0.6251	0.0849	0.0465	-0.132
Mof_C 	C 	0.6567	0.11351	0.0076	0.074
Mof_H 	H 	0.6484	0.1131	0.9705	0.017
Mof_C 	C 	0.69892	0.1416	0.0232	-0.156
Mof_H 	H 	0.7189	0.1613	0.9972	0.095
Mof_C 	C 	0.71316	0.14128	0.0789	0.113
Mof_C 	C 	0.68172	0.11308	0.1166	-0.157
Mof_H 	H 	0.6901	0.1132	0.1536	0.088
Mof_C 	C 	0.63839	0.08473	0.1015	0.073
Mof_H 	H 	0.6182	0.0656	0.1278	0.021
Mof_C 	C 	0.75962	0.16999	0.0977	-0.064
Mof_C 	C 	0.77978	0.15236	0.1307	-0.047
Mof_H 	H 	0.7633	0.1228	0.1413	0.048
Mof_H 	H 	0.722	0.2324	0.1093	-0.095
Mof_H 	H 	0.7543	0.2906	0.0169	0.305
Mof_O 	O 	0.21979	0.36032	0.39928	-0.407
Mof_O 	O 	0.23473	0.38994	0.31279	-0.415
Mof_C 	C 	0.24488	0.38739	0.36193	0.37
Mof_C 	C 	0.29177	0.41823	0.37983	-0.132
Mof_C 	C 	0.32337	0.44684	0.34093	0.074
Mof_H 	H 	0.31507	0.44643	0.30383	0.017
Mof_C 	C 	0.36559	0.47493	0.35653	-0.156
Mof_H 	H 	0.38557	0.49463	0.33053	0.096
Mof_C 	C 	0.37983	0.47461	0.41223	0.113
Mof_C 	C 	0.34839	0.44641	0.44993	-0.157
Mof_H 	H 	0.35677	0.44653	0.48693	0.088
Mof_C 	C 	0.30506	0.41806	0.43483	0.073
Mof_H 	H 	0.28487	0.39893	0.46113	0.021
Mof_C 	C 	0.42629	0.50332	0.43103	-0.064
Mof_C 	C 	0.44645	0.48569	0.46403	-0.047
Mof_H 	H 	0.42997	0.45613	0.47463	0.048
Mof_H 	H 	0.38867	0.56573	0.44263	-0.095
Mof_H 	H 	0.42097	0.62393	0.35023	0.305
Mof_O 	O 	0.88645	0.69366	0.73262	-0.407
Mof_O 	O 	0.90139	0.72328	0.64613	-0.415
Mof_C 	C 	0.91154	0.72073	0.69527	0.37
Mof_C 	C 	0.95843	0.75157	0.71317	-0.131
Mof_C 	C 	0.99003	0.78018	0.67427	0.073
Mof_H 	H 	0.98173	0.77977	0.63717	0.017
Mof_C 	C 	0.03225	0.80827	0.68987	-0.156
Mof_H 	H 	0.05223	0.82797	0.66387	0.095
Mof_C 	C 	0.04649	0.80795	0.74557	0.113
Mof_C 	C 	0.01505	0.77975	0.78327	-0.156
Mof_H 	H 	0.02343	0.77987	0.82027	0.088
Mof_C 	C 	0.97172	0.7514	0.76817	0.073
Mof_H 	H 	0.95153	0.73227	0.79447	0.021
Mof_C 	C 	0.09295	0.83666	0.76437	-0.064
Mof_C 	C 	0.11311	0.81903	0.79737	-0.047
Mof_H 	H 	0.09663	0.78947	0.80797	0.048
Mof_H 	H 	0.05533	0.89907	0.77597	-0.095
Mof_H 	H 	0.08763	0.95727	0.68357	0.305
Mof_O 	O 	0.97301	0.52613	0.06595	-0.407
Mof_O 	O 	0.94339	0.51145	0.97946	-0.415
Mof_C 	C 	0.94594	0.52415	0.0286	0.371
Mof_C 	C 	0.9151	0.5402	0.0465	-0.132
Mof_C 	C 	0.88649	0.54319	0.0076	0.074
Mof_H 	H 	0.8869	0.5353	0.9705	0.017
Mof_C 	C 	0.8584	0.55732	0.0232	-0.156
Mof_H 	H 	0.8387	0.5576	0.9972	0.095
Mof_C 	C 	0.85872	0.57188	0.0789	0.114
Mof_C 	C 	0.88692	0.56864	0.1166	-0.157
Mof_H 	H 	0.8868	0.5769	0.1536	0.087
Mof_C 	C 	0.91527	0.55366	0.1015	0.073
Mof_H 	H 	0.9344	0.5526	0.1278	0.02
Mof_C 	C 	0.83001	0.58963	0.0977	-0.065
Mof_C 	C 	0.84764	0.62742	0.1307	-0.048
Mof_H 	H 	0.8772	0.6405	0.1413	0.047
Mof_H 	H 	0.7676	0.4896	0.1093	-0.096
Mof_H 	H 	0.7094	0.4637	0.0169	0.304
Mof_O 	O 	0.63968	0.85946	0.39928	-0.408
Mof_O 	O 	0.61006	0.84478	0.31279	-0.416
Mof_C 	C 	0.61261	0.85748	0.36193	0.369
Mof_C 	C 	0.58177	0.87353	0.37983	-0.133
Mof_C 	C 	0.55316	0.87652	0.34093	0.073
Mof_H 	H 	0.55357	0.86863	0.30383	0.016
Mof_C 	C 	0.52507	0.89065	0.35653	-0.157
Mof_H 	H 	0.50537	0.89093	0.33053	0.095
Mof_C 	C 	0.52539	0.90521	0.41223	0.112
Mof_C 	C 	0.55359	0.90197	0.44993	-0.158
Mof_H 	H 	0.55347	0.91023	0.48693	0.087
Mof_C 	C 	0.58194	0.88699	0.43483	0.072
Mof_H 	H 	0.60107	0.88593	0.46113	0.02
Mof_C 	C 	0.49668	0.92296	0.43103	-0.065
Mof_C 	C 	0.51431	0.96075	0.46403	-0.048
Mof_H 	H 	0.54387	0.97383	0.47463	0.047
Mof_H 	H 	0.43427	0.82293	0.44263	-0.096
Mof_H 	H 	0.37607	0.79703	0.35023	0.304
Mof_O 	O 	0.30634	0.1928	0.73262	-0.408
Mof_O 	O 	0.27672	0.17812	0.64613	-0.416
Mof_C 	C 	0.27927	0.19082	0.69527	0.369
Mof_C 	C 	0.24843	0.20687	0.71317	-0.133
Mof_C 	C 	0.21982	0.20986	0.67427	0.073
Mof_H 	H 	0.22023	0.20197	0.63717	0.016
Mof_C 	C 	0.19173	0.22399	0.68987	-0.157
Mof_H 	H 	0.17203	0.22427	0.66387	0.095
Mof_C 	C 	0.19205	0.23855	0.74557	0.112
Mof_C 	C 	0.22025	0.23531	0.78327	-0.158
Mof_H 	H 	0.22013	0.24357	0.82027	0.087
Mof_C 	C 	0.2486	0.22033	0.76817	0.072
Mof_H 	H 	0.26773	0.21927	0.79447	0.02
Mof_C 	C 	0.16334	0.2563	0.76437	-0.065
Mof_C 	C 	0.18097	0.29409	0.79737	-0.048
Mof_H 	H 	0.21053	0.30717	0.80797	0.047
Mof_H 	H 	0.10093	0.15627	0.77597	-0.096
Mof_H 	H 	0.04273	0.13037	0.68357	0.304
Mof_O 	O 	0.47387	0.44688	0.06595	-0.408
Mof_O 	O 	0.48855	0.43194	0.97946	-0.416
Mof_C 	C 	0.47585	0.42179	0.0286	0.369
Mof_C 	C 	0.4598	0.3749	0.0465	-0.133
Mof_C 	C 	0.45681	0.3433	0.0076	0.073
Mof_H 	H 	0.4647	0.3516	0.9705	0.016
Mof_C 	C 	0.44268	0.30108	0.0232	-0.157
Mof_H 	H 	0.4424	0.2811	0.9972	0.094
Mof_C 	C 	0.42812	0.28684	0.0789	0.112
Mof_C 	C 	0.43136	0.31828	0.1166	-0.158
Mof_H 	H 	0.4231	0.3099	0.1536	0.087
Mof_C 	C 	0.44634	0.36161	0.1015	0.072
Mof_H 	H 	0.4474	0.3818	0.1278	0.02
Mof_C 	C 	0.41037	0.24038	0.0977	-0.065
Mof_C 	C 	0.37258	0.22022	0.1307	-0.048
Mof_H 	H 	0.3595	0.2367	0.1413	0.047
Mof_H 	H 	0.5104	0.278	0.1093	-0.096
Mof_H 	H 	0.5363	0.2457	0.0169	0.304
Mof_O 	O 	0.14054	0.78021	0.39928	-0.408
Mof_O 	O 	0.15522	0.76527	0.31279	-0.416
Mof_C 	C 	0.14252	0.75512	0.36193	0.369
Mof_C 	C 	0.12647	0.70823	0.37983	-0.133
Mof_C 	C 	0.12348	0.67663	0.34093	0.073
Mof_H 	H 	0.13137	0.68493	0.30383	0.016
Mof_C 	C 	0.10935	0.63441	0.35653	-0.157
Mof_H 	H 	0.10907	0.61443	0.33053	0.095
Mof_C 	C 	0.09479	0.62017	0.41223	0.112
Mof_C 	C 	0.09803	0.65161	0.44993	-0.158
Mof_H 	H 	0.08977	0.64323	0.48693	0.087
Mof_C 	C 	0.11301	0.69494	0.43483	0.072
Mof_H 	H 	0.11407	0.71513	0.46113	0.02
Mof_C 	C 	0.07704	0.57371	0.43103	-0.065
Mof_C 	C 	0.03925	0.55355	0.46403	-0.048
Mof_H 	H 	0.02617	0.57003	0.47463	0.047
Mof_H 	H 	0.17707	0.61133	0.44263	-0.096
Mof_H 	H 	0.20297	0.57903	0.35023	0.304
Mof_O 	O 	0.8072	0.11355	0.73262	-0.408
Mof_O 	O 	0.82188	0.09861	0.64613	-0.416
Mof_C 	C 	0.80918	0.08846	0.69527	0.369
Mof_C 	C 	0.79313	0.04157	0.71317	-0.132
Mof_C 	C 	0.79014	0.00997	0.67427	0.073
Mof_H 	H 	0.79803	0.01827	0.63717	0.016
Mof_C 	C 	0.77601	0.96775	0.68987	-0.157
Mof_H 	H 	0.77573	0.94777	0.66387	0.094
Mof_C 	C 	0.76145	0.95351	0.74557	0.112
Mof_C 	C 	0.76469	0.98495	0.78327	-0.157
Mof_H 	H 	0.75643	0.97657	0.82027	0.087
Mof_C 	C 	0.77967	0.02828	0.76817	0.072
Mof_H 	H 	0.78073	0.04847	0.79447	0.02
Mof_C 	C 	0.7437	0.90705	0.76437	-0.065
Mof_C 	C 	0.70591	0.88689	0.79737	-0.048
Mof_H 	H 	0.69283	0.90337	0.80797	0.047
Mof_H 	H 	0.84373	0.94467	0.77597	-0.096
Mof_H 	H 	0.86963	0.91237	0.68357	0.304
Mof_O 	O 	0.02699	0.55312	0.93405	-0.408
Mof_O 	O 	0.05661	0.56806	0.02054	-0.416
Mof_C 	C 	0.05406	0.57821	0.9714	0.37
Mof_C 	C 	0.0849	0.6251	0.9535	-0.133
Mof_C 	C 	0.11351	0.6567	0.9924	0.073
Mof_H 	H 	0.1131	0.6484	0.0295	0.016
Mof_C 	C 	0.1416	0.69892	0.9768	-0.157
Mof_H 	H 	0.1613	0.7189	0.0028	0.094
Mof_C 	C 	0.14128	0.71316	0.9211	0.112
Mof_C 	C 	0.11308	0.68172	0.8834	-0.158
Mof_H 	H 	0.1132	0.6901	0.8464	0.087
Mof_C 	C 	0.08473	0.63839	0.8985	0.072
Mof_H 	H 	0.0656	0.6182	0.8722	0.02
Mof_C 	C 	0.16999	0.75962	0.9023	-0.065
Mof_C 	C 	0.15236	0.77978	0.8693	-0.048
Mof_H 	H 	0.1228	0.7633	0.8587	0.047
Mof_H 	H 	0.2324	0.722	0.8907	-0.096
Mof_H 	H 	0.2906	0.7543	0.9831	0.304
Mof_O 	O 	0.69366	0.88645	0.26738	-0.408
Mof_O 	O 	0.72328	0.90139	0.35387	-0.416
Mof_C 	C 	0.72073	0.91154	0.30473	0.369
Mof_C 	C 	0.75157	0.95843	0.28683	-0.132
Mof_C 	C 	0.78018	0.99003	0.32573	0.072
Mof_H 	H 	0.77977	0.98173	0.36283	0.016
Mof_C 	C 	0.80827	0.03225	0.31013	-0.157
Mof_H 	H 	0.82797	0.05223	0.33613	0.094
Mof_C 	C 	0.80795	0.04649	0.25443	0.112
Mof_C 	C 	0.77975	0.01505	0.21673	-0.157
Mof_H 	H 	0.77987	0.02343	0.17973	0.087
Mof_C 	C 	0.7514	0.97172	0.23183	0.072
Mof_H 	H 	0.73227	0.95153	0.20553	0.02
Mof_C 	C 	0.83666	0.09295	0.23563	-0.065
Mof_C 	C 	0.81903	0.11311	0.20263	-0.048
Mof_H 	H 	0.78947	0.09663	0.19203	0.047
Mof_H 	H 	0.89907	0.05533	0.22403	-0.096
Mof_H 	H 	0.95727	0.08763	0.31643	0.304
Mof_O 	O 	0.36032	0.21979	0.60072	-0.408
Mof_O 	O 	0.38994	0.23473	0.68721	-0.416
Mof_C 	C 	0.38739	0.24488	0.63807	0.369
Mof_C 	C 	0.41823	0.29177	0.62017	-0.133
Mof_C 	C 	0.44684	0.32337	0.65907	0.073
Mof_H 	H 	0.44643	0.31507	0.69617	0.016
Mof_C 	C 	0.47493	0.36559	0.64347	-0.157
Mof_H 	H 	0.49463	0.38557	0.66947	0.095
Mof_C 	C 	0.47461	0.37983	0.58777	0.112
Mof_C 	C 	0.44641	0.34839	0.55007	-0.158
Mof_H 	H 	0.44653	0.35677	0.51307	0.087
Mof_C 	C 	0.41806	0.30506	0.56517	0.072
Mof_H 	H 	0.39893	0.28487	0.53887	0.02
Mof_C 	C 	0.50332	0.42629	0.56897	-0.065
Mof_C 	C 	0.48569	0.44645	0.53597	-0.048
Mof_H 	H 	0.45613	0.42997	0.52537	0.047
Mof_H 	H 	0.56573	0.38867	0.55737	-0.096
Mof_H 	H 	0.62393	0.42097	0.64977	0.304
Mof_O 	O 	0.52613	0.97301	0.93405	-0.408
Mof_O 	O 	0.51145	0.94339	0.02054	-0.416
Mof_C 	C 	0.52415	0.94594	0.9714	0.37
Mof_C 	C 	0.5402	0.9151	0.9535	-0.133
Mof_C 	C 	0.54319	0.88649	0.9924	0.073
Mof_H 	H 	0.5353	0.8869	0.0295	0.016
Mof_C 	C 	0.55732	0.8584	0.9768	-0.157
Mof_H 	H 	0.5576	0.8387	0.0028	0.094
Mof_C 	C 	0.57188	0.85872	0.9211	0.113
Mof_C 	C 	0.56864	0.88692	0.8834	-0.158
Mof_H 	H 	0.5769	0.8868	0.8464	0.087
Mof_C 	C 	0.55366	0.91527	0.8985	0.073
Mof_H 	H 	0.5526	0.9344	0.8722	0.02
Mof_C 	C 	0.58963	0.83001	0.9023	-0.065
Mof_C 	C 	0.62742	0.84764	0.8693	-0.048
Mof_H 	H 	0.6405	0.8772	0.8587	0.047
Mof_H 	H 	0.4896	0.7676	0.8907	-0.096
Mof_H 	H 	0.4637	0.7094	0.9831	0.304
Mof_O 	O 	0.1928	0.30634	0.26738	-0.408
Mof_O 	O 	0.17812	0.27672	0.35387	-0.416
Mof_C 	C 	0.19082	0.27927	0.30473	0.369
Mof_C 	C 	0.20687	0.24843	0.28683	-0.133
Mof_C 	C 	0.20986	0.21982	0.32573	0.073
Mof_H 	H 	0.20197	0.22023	0.36283	0.016
Mof_C 	C 	0.22399	0.19173	0.31013	-0.157
Mof_H 	H 	0.22427	0.17203	0.33613	0.095
Mof_C 	C 	0.23855	0.19205	0.25443	0.112
Mof_C 	C 	0.23531	0.22025	0.21673	-0.158
Mof_H 	H 	0.24357	0.22013	0.17973	0.087
Mof_C 	C 	0.22033	0.2486	0.23183	0.072
Mof_H 	H 	0.21927	0.26773	0.20553	0.02
Mof_C 	C 	0.2563	0.16334	0.23563	-0.065
Mof_C 	C 	0.29409	0.18097	0.20263	-0.048
Mof_H 	H 	0.30717	0.21053	0.19203	0.047
Mof_H 	H 	0.15627	0.10093	0.22403	-0.096
Mof_H 	H 	0.13037	0.04273	0.31643	0.304
Mof_O 	O 	0.85946	0.63968	0.60072	-0.408
Mof_O 	O 	0.84478	0.61006	0.68721	-0.416
Mof_C 	C 	0.85748	0.61261	0.63807	0.369
Mof_C 	C 	0.87353	0.58177	0.62017	-0.133
Mof_C 	C 	0.87652	0.55316	0.65907	0.073
Mof_H 	H 	0.86863	0.55357	0.69617	0.016
Mof_C 	C 	0.89065	0.52507	0.64347	-0.157
Mof_H 	H 	0.89093	0.50537	0.66947	0.095
Mof_C 	C 	0.90521	0.52539	0.58777	0.112
Mof_C 	C 	0.90197	0.55359	0.55007	-0.158
Mof_H 	H 	0.91023	0.55347	0.51307	0.087
Mof_C 	C 	0.88699	0.58194	0.56517	0.072
Mof_H 	H 	0.88593	0.60107	0.53887	0.02
Mof_C 	C 	0.92296	0.49668	0.56897	-0.065
Mof_C 	C 	0.96075	0.51431	0.53597	-0.048
Mof_H 	H 	0.97383	0.54387	0.52537	0.047
Mof_H 	H 	0.82293	0.43427	0.55737	-0.096
Mof_H 	H 	0.79703	0.37607	0.64977	0.304
Mof_O 	O 	0.44688	0.47387	0.93405	-0.408
Mof_O 	O 	0.43194	0.48855	0.02054	-0.416
Mof_C 	C 	0.42179	0.47585	0.9714	0.369
Mof_C 	C 	0.3749	0.4598	0.9535	-0.133
Mof_C 	C 	0.3433	0.45681	0.9924	0.073
Mof_H 	H 	0.3516	0.4647	0.0295	0.016
Mof_C 	C 	0.30108	0.44268	0.9768	-0.157
Mof_H 	H 	0.2811	0.4424	0.0028	0.094
Mof_C 	C 	0.28684	0.42812	0.9211	0.112
Mof_C 	C 	0.31828	0.43136	0.8834	-0.158
Mof_H 	H 	0.3099	0.4231	0.8464	0.087
Mof_C 	C 	0.36161	0.44634	0.8985	0.072
Mof_H 	H 	0.3818	0.4474	0.8722	0.02
Mof_C 	C 	0.24038	0.41037	0.9023	-0.065
Mof_C 	C 	0.22022	0.37258	0.8693	-0.048
Mof_H 	H 	0.2367	0.3595	0.8587	0.047
Mof_H 	H 	0.278	0.5104	0.8907	-0.096
Mof_H 	H 	0.2457	0.5363	0.9831	0.304
Mof_O 	O 	0.11355	0.8072	0.26738	-0.408
Mof_O 	O 	0.09861	0.82188	0.35387	-0.416
Mof_C 	C 	0.08846	0.80918	0.30473	0.369
Mof_C 	C 	0.04157	0.79313	0.28683	-0.132
Mof_C 	C 	0.00997	0.79014	0.32573	0.073
Mof_H 	H 	0.01827	0.79803	0.36283	0.016
Mof_C 	C 	0.96775	0.77601	0.31013	-0.157
Mof_H 	H 	0.94777	0.77573	0.33613	0.094
Mof_C 	C 	0.95351	0.76145	0.25443	0.112
Mof_C 	C 	0.98495	0.76469	0.21673	-0.157
Mof_H 	H 	0.97657	0.75643	0.17973	0.087
Mof_C 	C 	0.02828	0.77967	0.23183	0.072
Mof_H 	H 	0.04847	0.78073	0.20553	0.02
Mof_C 	C 	0.90705	0.7437	0.23563	-0.065
Mof_C 	C 	0.88689	0.70591	0.20263	-0.048
Mof_H 	H 	0.90337	0.69283	0.19203	0.047
Mof_H 	H 	0.94467	0.84373	0.22403	-0.096
Mof_H 	H 	0.91237	0.86963	0.31643	0.304
Mof_O 	O 	0.78021	0.14054	0.60072	-0.408
Mof_O 	O 	0.76527	0.15522	0.68721	-0.416
Mof_C 	C 	0.75512	0.14252	0.63807	0.369
Mof_C 	C 	0.70823	0.12647	0.62017	-0.133
Mof_C 	C 	0.67663	0.12348	0.65907	0.073
Mof_H 	H 	0.68493	0.13137	0.69617	0.016
Mof_C 	C 	0.63441	0.10935	0.64347	-0.157
Mof_H 	H 	0.61443	0.10907	0.66947	0.095
Mof_C 	C 	0.62017	0.09479	0.58777	0.112
Mof_C 	C 	0.65161	0.09803	0.55007	-0.158
Mof_H 	H 	0.64323	0.08977	0.51307	0.087
Mof_C 	C 	0.69494	0.11301	0.56517	0.072
Mof_H 	H 	0.71513	0.11407	0.53887	0.02
Mof_C 	C 	0.57371	0.07704	0.56897	-0.065
Mof_C 	C 	0.55355	0.03925	0.53597	-0.048
Mof_H 	H 	0.57003	0.02617	0.52537	0.047
Mof_H 	H 	0.61133	0.17707	0.55737	-0.096
Mof_H 	H 	0.57903	0.20297	0.64977	0.304
Mof_O 	O 	0.44688	0.97301	0.93405	-0.408
Mof_O 	O 	0.43194	0.94339	0.02054	-0.416
Mof_C 	C 	0.42179	0.94594	0.9714	0.37
Mof_C 	C 	0.3749	0.9151	0.9535	-0.133
Mof_C 	C 	0.3433	0.88649	0.9924	0.073
Mof_H 	H 	0.3516	0.8869	0.0295	0.016
Mof_C 	C 	0.30108	0.8584	0.9768	-0.157
Mof_H 	H 	0.2811	0.8387	0.0028	0.094
Mof_C 	C 	0.28684	0.85872	0.9211	0.112
Mof_C 	C 	0.31828	0.88692	0.8834	-0.158
Mof_H 	H 	0.3099	0.8868	0.8464	0.087
Mof_C 	C 	0.36161	0.91527	0.8985	0.072
Mof_H 	H 	0.3818	0.9344	0.8722	0.02
Mof_C 	C 	0.24038	0.83001	0.9023	-0.065
Mof_C 	C 	0.22022	0.84764	0.8693	-0.048
Mof_H 	H 	0.2367	0.8772	0.8587	0.047
Mof_H 	H 	0.278	0.7676	0.8907	-0.096
Mof_H 	H 	0.2457	0.7094	0.9831	0.304
Mof_O 	O 	0.11355	0.30634	0.26738	-0.408
Mof_O 	O 	0.09861	0.27672	0.35387	-0.416
Mof_C 	C 	0.08846	0.27927	0.30473	0.369
Mof_C 	C 	0.04157	0.24843	0.28683	-0.132
Mof_C 	C 	0.00997	0.21982	0.32573	0.072
Mof_H 	H 	0.01827	0.22023	0.36283	0.016
Mof_C 	C 	0.96775	0.19173	0.31013	-0.157
Mof_H 	H 	0.94777	0.17203	0.33613	0.094
Mof_C 	C 	0.95351	0.19205	0.25443	0.112
Mof_C 	C 	0.98495	0.22025	0.21673	-0.157
Mof_H 	H 	0.97657	0.22013	0.17973	0.087
Mof_C 	C 	0.02828	0.2486	0.23183	0.072
Mof_H 	H 	0.04847	0.26773	0.20553	0.02
Mof_C 	C 	0.90705	0.16334	0.23563	-0.065
Mof_C 	C 	0.88689	0.18097	0.20263	-0.048
Mof_H 	H 	0.90337	0.21053	0.19203	0.047
Mof_H 	H 	0.94467	0.10093	0.22403	-0.096
Mof_H 	H 	0.91237	0.04273	0.31643	0.304
Mof_O 	O 	0.78021	0.63968	0.60072	-0.408
Mof_O 	O 	0.76527	0.61006	0.68721	-0.416
Mof_C 	C 	0.75512	0.61261	0.63807	0.369
Mof_C 	C 	0.70823	0.58177	0.62017	-0.133
Mof_C 	C 	0.67663	0.55316	0.65907	0.073
Mof_H 	H 	0.68493	0.55357	0.69617	0.016
Mof_C 	C 	0.63441	0.52507	0.64347	-0.157
Mof_H 	H 	0.61443	0.50537	0.66947	0.095
Mof_C 	C 	0.62017	0.52539	0.58777	0.112
Mof_C 	C 	0.65161	0.55359	0.55007	-0.158
Mof_H 	H 	0.64323	0.55347	0.51307	0.087
Mof_C 	C 	0.69494	0.58194	0.56517	0.072
Mof_H 	H 	0.71513	0.60107	0.53887	0.02
Mof_C 	C 	0.57371	0.49668	0.56897	-0.065
Mof_C 	C 	0.55355	0.51431	0.53597	-0.048
Mof_H 	H 	0.57003	0.54387	0.52537	0.047
Mof_H 	H 	0.61133	0.43427	0.55737	-0.096
Mof_H 	H 	0.57903	0.37607	0.64977	0.304
Mof_O 	O 	0.02699	0.47387	0.93405	-0.408
Mof_O 	O 	0.05661	0.48855	0.02054	-0.416
Mof_C 	C 	0.05406	0.47585	0.9714	0.37
Mof_C 	C 	0.0849	0.4598	0.9535	-0.133
Mof_C 	C 	0.11351	0.45681	0.9924	0.073
Mof_H 	H 	0.1131	0.4647	0.0295	0.016
Mof_C 	C 	0.1416	0.44268	0.9768	-0.157
Mof_H 	H 	0.1613	0.4424	0.0028	0.094
Mof_C 	C 	0.14128	0.42812	0.9211	0.113
Mof_C 	C 	0.11308	0.43136	0.8834	-0.158
Mof_H 	H 	0.1132	0.4231	0.8464	0.087
Mof_C 	C 	0.08473	0.44634	0.8985	0.073
Mof_H 	H 	0.0656	0.4474	0.8722	0.02
Mof_C 	C 	0.16999	0.41037	0.9023	-0.065
Mof_C 	C 	0.15236	0.37258	0.8693	-0.048
Mof_H 	H 	0.1228	0.3595	0.8587	0.047
Mof_H 	H 	0.2324	0.5104	0.8907	-0.096
Mof_H 	H 	0.2906	0.5363	0.9831	0.304
Mof_O 	O 	0.69366	0.8072	0.26738	-0.408
Mof_O 	O 	0.72328	0.82188	0.35387	-0.416
Mof_C 	C 	0.72073	0.80918	0.30473	0.369
Mof_C 	C 	0.75157	0.79313	0.28683	-0.133
Mof_C 	C 	0.78018	0.79014	0.32573	0.073
Mof_H 	H 	0.77977	0.79803	0.36283	0.016
Mof_C 	C 	0.80827	0.77601	0.31013	-0.157
Mof_H 	H 	0.82797	0.77573	0.33613	0.095
Mof_C 	C 	0.80795	0.76145	0.25443	0.112
Mof_C 	C 	0.77975	0.76469	0.21673	-0.158
Mof_H 	H 	0.77987	0.75643	0.17973	0.087
Mof_C 	C 	0.7514	0.77967	0.23183	0.072
Mof_H 	H 	0.73227	0.78073	0.20553	0.02
Mof_C 	C 	0.83666	0.7437	0.23563	-0.065
Mof_C 	C 	0.81903	0.70591	0.20263	-0.048
Mof_H 	H 	0.78947	0.69283	0.19203	0.047
Mof_H 	H 	0.89907	0.84373	0.22403	-0.096
Mof_H 	H 	0.95727	0.86963	0.31643	0.304
Mof_O 	O 	0.36032	0.14054	0.60072	-0.408
Mof_O 	O 	0.38994	0.15522	0.68721	-0.416
Mof_C 	C 	0.38739	0.14252	0.63807	0.369
Mof_C 	C 	0.41823	0.12647	0.62017	-0.133
Mof_C 	C 	0.44684	0.12348	0.65907	0.073
Mof_H 	H 	0.44643	0.13137	0.69617	0.016
Mof_C 	C 	0.47493	0.10935	0.64347	-0.157
Mof_H 	H 	0.49463	0.10907	0.66947	0.095
Mof_C 	C 	0.47461	0.09479	0.58777	0.112
Mof_C 	C 	0.44641	0.09803	0.55007	-0.158
Mof_H 	H 	0.44653	0.08977	0.51307	0.087
Mof_C 	C 	0.41806	0.11301	0.56517	0.072
Mof_H 	H 	0.39893	0.11407	0.53887	0.02
Mof_C 	C 	0.50332	0.07704	0.56897	-0.065
Mof_C 	C 	0.48569	0.03925	0.53597	-0.048
Mof_H 	H 	0.45613	0.02617	0.52537	0.047
Mof_H 	H 	0.56573	0.17707	0.55737	-0.096
Mof_H 	H 	0.62393	0.20297	0.64977	0.304
Mof_O 	O 	0.52613	0.55312	0.93405	-0.408
Mof_O 	O 	0.51145	0.56806	0.02054	-0.416
Mof_C 	C 	0.52415	0.57821	0.9714	0.369
Mof_C 	C 	0.5402	0.6251	0.9535	-0.133
Mof_C 	C 	0.54319	0.6567	0.9924	0.073
Mof_H 	H 	0.5353	0.6484	0.0295	0.016
Mof_C 	C 	0.55732	0.69892	0.9768	-0.157
Mof_H 	H 	0.5576	0.7189	0.0028	0.094
Mof_C 	C 	0.57188	0.71316	0.9211	0.112
Mof_C 	C 	0.56864	0.68172	0.8834	-0.158
Mof_H 	H 	0.5769	0.6901	0.8464	0.087
Mof_C 	C 	0.55366	0.63839	0.8985	0.072
Mof_H 	H 	0.5526	0.6182	0.8722	0.02
Mof_C 	C 	0.58963	0.75962	0.9023	-0.065
Mof_C 	C 	0.62742	0.77978	0.8693	-0.048
Mof_H 	H 	0.6405	0.7633	0.8587	0.047
Mof_H 	H 	0.4896	0.722	0.8907	-0.096
Mof_H 	H 	0.4637	0.7543	0.9831	0.304
Mof_O 	O 	0.1928	0.88645	0.26738	-0.408
Mof_O 	O 	0.17812	0.90139	0.35387	-0.416
Mof_C 	C 	0.19082	0.91154	0.30473	0.369
Mof_C 	C 	0.20687	0.95843	0.28683	-0.132
Mof_C 	C 	0.20986	0.99003	0.32573	0.073
Mof_H 	H 	0.20197	0.98173	0.36283	0.016
Mof_C 	C 	0.22399	0.03225	0.31013	-0.157
Mof_H 	H 	0.22427	0.05223	0.33613	0.094
Mof_C 	C 	0.23855	0.04649	0.25443	0.112
Mof_C 	C 	0.23531	0.01505	0.21673	-0.157
Mof_H 	H 	0.24357	0.02343	0.17973	0.087
Mof_C 	C 	0.22033	0.97172	0.23183	0.072
Mof_H 	H 	0.21927	0.95153	0.20553	0.02
Mof_C 	C 	0.2563	0.09295	0.23563	-0.065
Mof_C 	C 	0.29409	0.11311	0.20263	-0.048
Mof_H 	H 	0.30717	0.09663	0.19203	0.047
Mof_H 	H 	0.15627	0.05533	0.22403	-0.096
Mof_H 	H 	0.13037	0.08763	0.31643	0.304
Mof_O 	O 	0.85946	0.21979	0.60072	-0.408
Mof_O 	O 	0.84478	0.23473	0.68721	-0.416
Mof_C 	C 	0.85748	0.24488	0.63807	0.369
Mof_C 	C 	0.87353	0.29177	0.62017	-0.133
Mof_C 	C 	0.87652	0.32337	0.65907	0.073
Mof_H 	H 	0.86863	0.31507	0.69617	0.016
Mof_C 	C 	0.89065	0.36559	0.64347	-0.157
Mof_H 	H 	0.89093	0.38557	0.66947	0.095
Mof_C 	C 	0.90521	0.37983	0.58777	0.112
Mof_C 	C 	0.90197	0.34839	0.55007	-0.158
Mof_H 	H 	0.91023	0.35677	0.51307	0.087
Mof_C 	C 	0.88699	0.30506	0.56517	0.072
Mof_H 	H 	0.88593	0.28487	0.53887	0.02
Mof_C 	C 	0.92296	0.42629	0.56897	-0.065
Mof_C 	C 	0.96075	0.44645	0.53597	-0.048
Mof_H 	H 	0.97383	0.42997	0.52537	0.047
Mof_H 	H 	0.82293	0.38867	0.55737	-0.096
Mof_H 	H 	0.79703	0.42097	0.64977	0.304
Mof_O 	O 	0.97301	0.44688	0.06595	-0.408
Mof_O 	O 	0.94339	0.43194	0.97946	-0.416
Mof_C 	C 	0.94594	0.42179	0.0286	0.37
Mof_C 	C 	0.9151	0.3749	0.0465	-0.133
Mof_C 	C 	0.88649	0.3433	0.0076	0.073
Mof_H 	H 	0.8869	0.3516	0.9705	0.016
Mof_C 	C 	0.8584	0.30108	0.0232	-0.157
Mof_H 	H 	0.8387	0.2811	0.9972	0.094
Mof_C 	C 	0.85872	0.28684	0.0789	0.112
Mof_C 	C 	0.88692	0.31828	0.1166	-0.158
Mof_H 	H 	0.8868	0.3099	0.1536	0.087
Mof_C 	C 	0.91527	0.36161	0.1015	0.072
Mof_H 	H 	0.9344	0.3818	0.1278	0.02
Mof_C 	C 	0.83001	0.24038	0.0977	-0.065
Mof_C 	C 	0.84764	0.22022	0.1307	-0.048
Mof_H 	H 	0.8772	0.2367	0.1413	0.047
Mof_H 	H 	0.7676	0.278	0.1093	-0.096
Mof_H 	H 	0.7094	0.2457	0.0169	0.304
Mof_O 	O 	0.63968	0.78021	0.39928	-0.408
Mof_O 	O 	0.61006	0.76527	0.31279	-0.416
Mof_C 	C 	0.61261	0.75512	0.36193	0.369
Mof_C 	C 	0.58177	0.70823	0.37983	-0.133
Mof_C 	C 	0.55316	0.67663	0.34093	0.073
Mof_H 	H 	0.55357	0.68493	0.30383	0.016
Mof_C 	C 	0.52507	0.63441	0.35653	-0.157
Mof_H 	H 	0.50537	0.61443	0.33053	0.095
Mof_C 	C 	0.52539	0.62017	0.41223	0.112
Mof_C 	C 	0.55359	0.65161	0.44993	-0.158
Mof_H 	H 	0.55347	0.64323	0.48693	0.087
Mof_C 	C 	0.58194	0.69494	0.43483	0.072
Mof_H 	H 	0.60107	0.71513	0.46113	0.02
Mof_C 	C 	0.49668	0.57371	0.43103	-0.065
Mof_C 	C 	0.51431	0.55355	0.46403	-0.048
Mof_H 	H 	0.54387	0.57003	0.47463	0.047
Mof_H 	H 	0.43427	0.61133	0.44263	-0.096
Mof_H 	H 	0.37607	0.57903	0.35023	0.304
Mof_O 	O 	0.30634	0.11355	0.73262	-0.408
Mof_O 	O 	0.27672	0.09861	0.64613	-0.416
Mof_C 	C 	0.27927	0.08846	0.69527	0.369
Mof_C 	C 	0.24843	0.04157	0.71317	-0.132
Mof_C 	C 	0.21982	0.00997	0.67427	0.072
Mof_H 	H 	0.22023	0.01827	0.63717	0.016
Mof_C 	C 	0.19173	0.96775	0.68987	-0.157
Mof_H 	H 	0.17203	0.94777	0.66387	0.094
Mof_C 	C 	0.19205	0.95351	0.74557	0.112
Mof_C 	C 	0.22025	0.98495	0.78327	-0.157
Mof_H 	H 	0.22013	0.97657	0.82027	0.087
Mof_C 	C 	0.2486	0.02828	0.76817	0.072
Mof_H 	H 	0.26773	0.04847	0.79447	0.02
Mof_C 	C 	0.16334	0.90705	0.76437	-0.065
Mof_C 	C 	0.18097	0.88689	0.79737	-0.048
Mof_H 	H 	0.21053	0.90337	0.80797	0.047
Mof_H 	H 	0.10093	0.94467	0.77597	-0.096
Mof_H 	H 	0.04273	0.91237	0.68357	0.304
Mof_O 	O 	0.47387	0.02699	0.06595	-0.408
Mof_O 	O 	0.48855	0.05661	0.97946	-0.416
Mof_C 	C 	0.47585	0.05406	0.0286	0.37
Mof_C 	C 	0.4598	0.0849	0.0465	-0.133
Mof_C 	C 	0.45681	0.11351	0.0076	0.073
Mof_H 	H 	0.4647	0.1131	0.9705	0.016
Mof_C 	C 	0.44268	0.1416	0.0232	-0.157
Mof_H 	H 	0.4424	0.1613	0.9972	0.094
Mof_C 	C 	0.42812	0.14128	0.0789	0.113
Mof_C 	C 	0.43136	0.11308	0.1166	-0.158
Mof_H 	H 	0.4231	0.1132	0.1536	0.087
Mof_C 	C 	0.44634	0.08473	0.1015	0.073
Mof_H 	H 	0.4474	0.0656	0.1278	0.02
Mof_C 	C 	0.41037	0.16999	0.0977	-0.065
Mof_C 	C 	0.37258	0.15236	0.1307	-0.048
Mof_H 	H 	0.3595	0.1228	0.1413	0.047
Mof_H 	H 	0.5104	0.2324	0.1093	-0.096
Mof_H 	H 	0.5363	0.2906	0.0169	0.304
Mof_O 	O 	0.14054	0.36032	0.39928	-0.408
Mof_O 	O 	0.15522	0.38994	0.31279	-0.416
Mof_C 	C 	0.14252	0.38739	0.36193	0.369
Mof_C 	C 	0.12647	0.41823	0.37983	-0.133
Mof_C 	C 	0.12348	0.44684	0.34093	0.073
Mof_H 	H 	0.13137	0.44643	0.30383	0.016
Mof_C 	C 	0.10935	0.47493	0.35653	-0.157
Mof_H 	H 	0.10907	0.49463	0.33053	0.095
Mof_C 	C 	0.09479	0.47461	0.41223	0.112
Mof_C 	C 	0.09803	0.44641	0.44993	-0.158
Mof_H 	H 	0.08977	0.44653	0.48693	0.087
Mof_C 	C 	0.11301	0.41806	0.43483	0.072
Mof_H 	H 	0.11407	0.39893	0.46113	0.02
Mof_C 	C 	0.07704	0.50332	0.43103	-0.065
Mof_C 	C 	0.03925	0.48569	0.46403	-0.048
Mof_H 	H 	0.02617	0.45613	0.47463	0.047
Mof_H 	H 	0.17707	0.56573	0.44263	-0.096
Mof_H 	H 	0.20297	0.62393	0.35023	0.304
Mof_O 	O 	0.8072	0.69366	0.73262	-0.408
Mof_O 	O 	0.82188	0.72328	0.64613	-0.416
Mof_C 	C 	0.80918	0.72073	0.69527	0.369
Mof_C 	C 	0.79313	0.75157	0.71317	-0.133
Mof_C 	C 	0.79014	0.78018	0.67427	0.073
Mof_H 	H 	0.79803	0.77977	0.63717	0.016
Mof_C 	C 	0.77601	0.80827	0.68987	-0.157
Mof_H 	H 	0.77573	0.82797	0.66387	0.095
Mof_C 	C 	0.76145	0.80795	0.74557	0.112
Mof_C 	C 	0.76469	0.77975	0.78327	-0.158
Mof_H 	H 	0.75643	0.77987	0.82027	0.087
Mof_C 	C 	0.77967	0.7514	0.76817	0.072
Mof_H 	H 	0.78073	0.73227	0.79447	0.02
Mof_C 	C 	0.7437	0.83666	0.76437	-0.065
Mof_C 	C 	0.70591	0.81903	0.79737	-0.048
Mof_H 	H 	0.69283	0.78947	0.80797	0.047
Mof_H 	H 	0.84373	0.89907	0.77597	-0.096
Mof_H 	H 	0.86963	0.95727	0.68357	0.304
Mof_O 	O 	0.55312	0.52613	0.06595	-0.408
Mof_O 	O 	0.56806	0.51145	0.97946	-0.416
Mof_C 	C 	0.57821	0.52415	0.0286	0.369
Mof_C 	C 	0.6251	0.5402	0.0465	-0.133
Mof_C 	C 	0.6567	0.54319	0.0076	0.073
Mof_H 	H 	0.6484	0.5353	0.9705	0.016
Mof_C 	C 	0.69892	0.55732	0.0232	-0.157
Mof_H 	H 	0.7189	0.5576	0.9972	0.094
Mof_C 	C 	0.71316	0.57188	0.0789	0.112
Mof_C 	C 	0.68172	0.56864	0.1166	-0.158
Mof_H 	H 	0.6901	0.5769	0.1536	0.087
Mof_C 	C 	0.63839	0.55366	0.1015	0.072
Mof_H 	H 	0.6182	0.5526	0.1278	0.02
Mof_C 	C 	0.75962	0.58963	0.0977	-0.065
Mof_C 	C 	0.77978	0.62742	0.1307	-0.048
Mof_H 	H 	0.7633	0.6405	0.1413	0.047
Mof_H 	H 	0.722	0.4896	0.1093	-0.096
Mof_H 	H 	0.7543	0.4637	0.0169	0.304
Mof_O 	O 	0.21979	0.85946	0.39928	-0.408
Mof_O 	O 	0.23473	0.84478	0.31279	-0.416
Mof_C 	C 	0.24488	0.85748	0.36193	0.369
Mof_C 	C 	0.29177	0.87353	0.37983	-0.133
Mof_C 	C 	0.32337	0.87652	0.34093	0.073
Mof_H 	H 	0.31507	0.86863	0.30383	0.016
Mof_C 	C 	0.36559	0.89065	0.35653	-0.157
Mof_H 	H 	0.38557	0.89093	0.33053	0.095
Mof_C 	C 	0.37983	0.90521	0.41223	0.112
Mof_C 	C 	0.34839	0.90197	0.44993	-0.158
Mof_H 	H 	0.35677	0.91023	0.48693	0.087
Mof_C 	C 	0.30506	0.88699	0.43483	0.072
Mof_H 	H 	0.28487	0.88593	0.46113	0.02
Mof_C 	C 	0.42629	0.92296	0.43103	-0.065
Mof_C 	C 	0.44645	0.96075	0.46403	-0.048
Mof_H 	H 	0.42997	0.97383	0.47463	0.047
Mof_H 	H 	0.38867	0.82293	0.44263	-0.096
Mof_H 	H 	0.42097	0.79703	0.35023	0.304
Mof_O 	O 	0.88645	0.1928	0.73262	-0.408
Mof_O 	O 	0.90139	0.17812	0.64613	-0.416
Mof_C 	C 	0.91154	0.19082	0.69527	0.369
Mof_C 	C 	0.95843	0.20687	0.71317	-0.132
Mof_C 	C 	0.99003	0.20986	0.67427	0.073
Mof_H 	H 	0.98173	0.20197	0.63717	0.016
Mof_C 	C 	0.03225	0.22399	0.68987	-0.157
Mof_H 	H 	0.05223	0.22427	0.66387	0.094
Mof_C 	C 	0.04649	0.23855	0.74557	0.112
Mof_C 	C 	0.01505	0.23531	0.78327	-0.157
Mof_H 	H 	0.02343	0.24357	0.82027	0.087
Mof_C 	C 	0.97172	0.22033	0.76817	0.072
Mof_H 	H 	0.95153	0.21927	0.79447	0.02
Mof_C 	C 	0.09295	0.2563	0.76437	-0.065
Mof_C 	C 	0.11311	0.29409	0.79737	-0.048
Mof_H 	H 	0.09663	0.30717	0.80797	0.047
Mof_H 	H 	0.05533	0.15627	0.77597	-0.096
Mof_H 	H 	0.08763	0.13037	0.68357	0.304
Mof_Cu	Cu	0.50866	0.01731	0.94927	0.902
Mof_Cu	Cu	0.17532	0.35064	0.2826	0.902
Mof_Cu	Cu	0.84199	0.68398	0.61594	0.902
Mof_Cu	Cu	0.98269	0.49134	0.94927	0.902
Mof_Cu	Cu	0.64936	0.82468	0.2826	0.902
Mof_Cu	Cu	0.31602	0.15801	0.61594	0.902
Mof_Cu	Cu	0.50866	0.49134	0.94927	0.902
Mof_Cu	Cu	0.17532	0.82468	0.2826	0.902
Mof_Cu	Cu	0.84199	0.15801	0.61594	0.902
Mof_Cu	Cu	0.01731	0.50866	0.05073	0.902
Mof_Cu	Cu	0.68398	0.84199	0.38406	0.902
Mof_Cu	Cu	0.35064	0.17532	0.7174	0.902
Mof_Cu	Cu	0.49134	0.98269	0.05073	0.902
Mof_Cu	Cu	0.15801	0.31602	0.38406	0.902
Mof_Cu	Cu	0.82468	0.64936	0.7174	0.902
Mof_Cu	Cu	0.49134	0.50866	0.05073	0.902
Mof_Cu	Cu	0.15801	0.84199	0.38406	0.902
Mof_Cu	Cu	0.82468	0.17532	0.7174	0.902
Mof_O 	O 	0.76652	0.23348	0.0453	-0.259
Mof_C 	C 	0.82336	0.17664	0.1487	0.009
Mof_C 	C 	0.7859	0.2141	0.0807	0.125
Mof_C 	C 	0.74571	0.25429	0.0862	0.413
Mof_C 	C 	0.7297	0.2703	0.0394	-0.909
Mof_H 	H 	0.7149	0.2851	0.0541	0.287
Mof_O 	O 	0.43319	0.56681	0.37863	-0.259
Mof_C 	C 	0.49003	0.50997	0.48203	0.009
Mof_C 	C 	0.45257	0.54743	0.41403	0.125
Mof_C 	C 	0.41238	0.58762	0.41953	0.413
Mof_C 	C 	0.39637	0.60363	0.37273	-0.909
Mof_H 	H 	0.38157	0.61843	0.38743	0.287
Mof_O 	O 	0.09985	0.90015	0.71197	-0.259
Mof_C 	C 	0.15669	0.84331	0.81537	0.009
Mof_C 	C 	0.11923	0.88077	0.74737	0.125
Mof_C 	C 	0.07904	0.92096	0.75287	0.413
Mof_C 	C 	0.06303	0.93697	0.70607	-0.909
Mof_H 	H 	0.04823	0.95177	0.72077	0.287
Mof_O 	O 	0.76652	0.53304	0.0453	-0.259
Mof_C 	C 	0.82336	0.64672	0.1487	0.009
Mof_C 	C 	0.7859	0.5718	0.0807	0.125
Mof_C 	C 	0.74571	0.49142	0.0862	0.413
Mof_C 	C 	0.7297	0.4594	0.0394	-0.909
Mof_H 	H 	0.7149	0.4298	0.0541	0.287
Mof_O 	O 	0.43319	0.86637	0.37863	-0.259
Mof_C 	C 	0.49003	0.98005	0.48203	0.009
Mof_C 	C 	0.45257	0.90513	0.41403	0.125
Mof_C 	C 	0.41238	0.82475	0.41953	0.413
Mof_C 	C 	0.39637	0.79273	0.37273	-0.909
Mof_H 	H 	0.38157	0.76313	0.38743	0.287
Mof_O 	O 	0.09985	0.19971	0.71197	-0.259
Mof_C 	C 	0.15669	0.31339	0.81537	0.009
Mof_C 	C 	0.11923	0.23847	0.74737	0.125
Mof_C 	C 	0.07904	0.15809	0.75287	0.413
Mof_C 	C 	0.06303	0.12607	0.70607	-0.909
Mof_H 	H 	0.04823	0.09647	0.72077	0.287
Mof_O 	O 	0.46696	0.23348	0.0453	-0.259
Mof_C 	C 	0.35328	0.17664	0.1487	0.009
Mof_C 	C 	0.4282	0.2141	0.0807	0.125
Mof_C 	C 	0.50858	0.25429	0.0862	0.413
Mof_C 	C 	0.5406	0.2703	0.0394	-0.909
Mof_H 	H 	0.5702	0.2851	0.0541	0.287
Mof_O 	O 	0.13363	0.56681	0.37863	-0.259
Mof_C 	C 	0.01995	0.50997	0.48203	0.009
Mof_C 	C 	0.09487	0.54743	0.41403	0.125
Mof_C 	C 	0.17525	0.58762	0.41953	0.413
Mof_C 	C 	0.20727	0.60363	0.37273	-0.909
Mof_H 	H 	0.23687	0.61843	0.38743	0.287
Mof_O 	O 	0.80029	0.90015	0.71197	-0.259
Mof_C 	C 	0.68661	0.84331	0.81537	0.009
Mof_C 	C 	0.76153	0.88077	0.74737	0.125
Mof_C 	C 	0.84191	0.92096	0.75287	0.413
Mof_C 	C 	0.87393	0.93697	0.70607	-0.909
Mof_H 	H 	0.90353	0.95177	0.72077	0.287
Mof_O 	O 	0.23348	0.76652	0.9547	-0.259
Mof_C 	C 	0.17664	0.82336	0.8513	0.009
Mof_C 	C 	0.2141	0.7859	0.9193	0.125
Mof_C 	C 	0.25429	0.74571	0.9138	0.413
Mof_C 	C 	0.2703	0.7297	0.9606	-0.909
Mof_H 	H 	0.2851	0.7149	0.9459	0.287
Mof_O 	O 	0.90015	0.09985	0.28803	-0.259
Mof_C 	C 	0.84331	0.15669	0.18463	0.009
Mof_C 	C 	0.88077	0.11923	0.25263	0.125
Mof_C 	C 	0.92096	0.07904	0.24713	0.413
Mof_C 	C 	0.93697	0.06303	0.29393	-0.909
Mof_H 	H 	0.95177	0.04823	0.27923	0.287
Mof_O 	O 	0.56681	0.43319	0.62137	-0.259
Mof_C 	C 	0.50997	0.49003	0.51797	0.009
Mof_C 	C 	0.54743	0.45257	0.58597	0.125
Mof_C 	C 	0.58762	0.41238	0.58047	0.413
Mof_C 	C 	0.60363	0.39637	0.62727	-0.909
Mof_H 	H 	0.61843	0.38157	0.61257	0.287
Mof_O 	O 	0.53304	0.76652	0.9547	-0.259
Mof_C 	C 	0.64672	0.82336	0.8513	0.009
Mof_C 	C 	0.5718	0.7859	0.9193	0.125
Mof_C 	C 	0.49142	0.74571	0.9138	0.413
Mof_C 	C 	0.4594	0.7297	0.9606	-0.909
Mof_H 	H 	0.4298	0.7149	0.9459	0.287
Mof_O 	O 	0.19971	0.09985	0.28803	-0.259
Mof_C 	C 	0.31339	0.15669	0.18463	0.009
Mof_C 	C 	0.23847	0.11923	0.25263	0.125
Mof_C 	C 	0.15809	0.07904	0.24713	0.413
Mof_C 	C 	0.12607	0.06303	0.29393	-0.909
Mof_H 	H 	0.09647	0.04823	0.27923	0.287
Mof_O 	O 	0.86637	0.43319	0.62137	-0.259
Mof_C 	C 	0.98005	0.49003	0.51797	0.009
Mof_C 	C 	0.90513	0.45257	0.58597	0.125
Mof_C 	C 	0.82475	0.41238	0.58047	0.413
Mof_C 	C 	0.79273	0.39637	0.62727	-0.909
Mof_H 	H 	0.76313	0.38157	0.61257	0.287
Mof_O 	O 	0.23348	0.46696	0.9547	-0.259
Mof_C 	C 	0.17664	0.35328	0.8513	0.009
Mof_C 	C 	0.2141	0.4282	0.9193	0.125
Mof_C 	C 	0.25429	0.50858	0.9138	0.413
Mof_C 	C 	0.2703	0.5406	0.9606	-0.909
Mof_H 	H 	0.2851	0.5702	0.9459	0.287
Mof_O 	O 	0.90015	0.80029	0.28803	-0.259
Mof_C 	C 	0.84331	0.68661	0.18463	0.009
Mof_C 	C 	0.88077	0.76153	0.25263	0.125
Mof_C 	C 	0.92096	0.84191	0.24713	0.413
Mof_C 	C 	0.93697	0.87393	0.29393	-0.909
Mof_H 	H 	0.95177	0.90353	0.27923	0.287
Mof_O 	O 	0.56681	0.13363	0.62137	-0.259
Mof_C 	C 	0.50997	0.01995	0.51797	0.009
Mof_C 	C 	0.54743	0.09487	0.58597	0.125
Mof_C 	C 	0.58762	0.17525	0.58047	0.413
Mof_C 	C 	0.60363	0.20727	0.62727	-0.909
Mof_H 	H 	0.61843	0.23687	0.61257	0.287
_end
