# CIF file generated by openbabel 3.1.0, see https://openbabel.org
data_I
_chemical_name_common 'image0'
_cell_length_a 18.7843
_cell_length_b 18.7843
_cell_length_c 25.0267
_cell_angle_alpha 90
_cell_angle_beta 90
_cell_angle_gamma 120
_space_group_name_H-M_alt 'P 1'
_space_group_name_Hall 'P 1'
loop_
    _symmetry_equiv_pos_as_xyz
    x,y,z
loop_
    _atom_site_label
    _atom_site_type_symbol
    _atom_site_fract_x
    _atom_site_fract_y
    _atom_site_fract_z
    _atom_site_occupancy
    O1       O        0.53379    0.18743    0.68827    1.000
    O2       O        0.65360    0.18757    0.68829    1.000
    O3       O        0.94250    0.05700    0.70120    1.000
    C1       C        0.46340    0.04840    0.54880    1.000
    H1       H        0.41260    0.03280    0.53350    1.000
    C2       C        0.58610    0.04870    0.54910    1.000
    H2       H        0.62170    0.03330    0.53390    1.000
    C3       C        0.48560    0.09390    0.59520    1.000
    H3       H        0.45020    0.10950    0.61010    1.000
    C4       C        0.60810    0.09370    0.59530    1.000
    H4       H        0.65900    0.10910    0.61050    1.000
    C5       C        0.81650    0.18340    0.70750    1.000
    H5       H        0.80300    0.19870    0.67550    1.000
    C6       C        0.55810    0.11630    0.61940    1.000
    C7       C        0.51330    0.02620    0.52530    1.000
    C8       C        0.58410    0.16800    0.66988    1.000
    C9       C        0.85950    0.13760    0.70420    1.000
    H6       H        0.87220    0.12140    0.67220    1.000
    O4       O        0.81257    0.34636    0.68827    1.000
    O5       O        0.81243    0.46603    0.68829    1.000
    O6       O        0.94300    0.88550    0.70120    1.000
    C10      C        0.95160    0.41500    0.54880    1.000
    H7       H        0.96720    0.37980    0.53350    1.000
    C11      C        0.95130    0.53740    0.54910    1.000
    H8       H        0.96670    0.58840    0.53390    1.000
    C12      C        0.90610    0.39170    0.59520    1.000
    H9       H        0.89050    0.34070    0.61010    1.000
    C13      C        0.90630    0.51440    0.59530    1.000
    H10      H        0.89090    0.54990    0.61050    1.000
    C14      C        0.81660    0.63310    0.70750    1.000
    H11      H        0.80130    0.60430    0.67550    1.000
    C15      C        0.88370    0.44180    0.61940    1.000
    C16      C        0.97380    0.48710    0.52530    1.000
    C17      C        0.83200    0.41610    0.66988    1.000
    C18      C        0.86240    0.72190    0.70420    1.000
    H12      H        0.87860    0.75080    0.67220    1.000
    O7       O        0.65364    0.46621    0.68827    1.000
    O8       O        0.53397    0.34640    0.68829    1.000
    O9       O        0.11450    0.05750    0.70120    1.000
    C19      C        0.58500    0.53660    0.54880    1.000
    H13      H        0.62020    0.58740    0.53350    1.000
    C20      C        0.46260    0.41390    0.54910    1.000
    H14      H        0.41160    0.37830    0.53390    1.000
    C21      C        0.60830    0.51440    0.59520    1.000
    H15      H        0.65930    0.54980    0.61010    1.000
    C22      C        0.48560    0.39190    0.59530    1.000
    H16      H        0.45010    0.34100    0.61050    1.000
    C23      C        0.36690    0.18350    0.70750    1.000
    H17      H        0.39570    0.19700    0.67550    1.000
    C24      C        0.55820    0.44190    0.61940    1.000
    C25      C        0.51290    0.48670    0.52530    1.000
    C26      C        0.58390    0.41590    0.66988    1.000
    C27      C        0.27810    0.14050    0.70420    1.000
    H18      H        0.24920    0.12780    0.67220    1.000
    O10      O        0.81257    0.46621    0.81173    1.000
    O11      O        0.81243    0.34640    0.81171    1.000
    O12      O        0.94300    0.05750    0.79880    1.000
    C28      C        0.95160    0.53660    0.95120    1.000
    H19      H        0.96720    0.58740    0.96650    1.000
    C29      C        0.95130    0.41390    0.95090    1.000
    H20      H        0.96670    0.37830    0.96610    1.000
    C30      C        0.90610    0.51440    0.90480    1.000
    H21      H        0.89050    0.54980    0.88990    1.000
    C31      C        0.90630    0.39190    0.90470    1.000
    H22      H        0.89090    0.34100    0.88950    1.000
    C32      C        0.81660    0.18350    0.79250    1.000
    H23      H        0.80130    0.19700    0.82450    1.000
    C33      C        0.88370    0.44190    0.88060    1.000
    C34      C        0.97380    0.48670    0.97470    1.000
    C35      C        0.83200    0.41590    0.83012    1.000
    C36      C        0.86240    0.14050    0.79580    1.000
    H24      H        0.87860    0.12780    0.82780    1.000
    O13      O        0.65364    0.18743    0.81173    1.000
    O14      O        0.53397    0.18757    0.81171    1.000
    O15      O        0.11450    0.05700    0.79880    1.000
    C37      C        0.58500    0.04840    0.95120    1.000
    H25      H        0.62020    0.03280    0.96650    1.000
    C38      C        0.46260    0.04870    0.95090    1.000
    H26      H        0.41160    0.03330    0.96610    1.000
    C39      C        0.60830    0.09390    0.90480    1.000
    H27      H        0.65930    0.10950    0.88990    1.000
    C40      C        0.48560    0.09370    0.90470    1.000
    H28      H        0.45010    0.10910    0.88950    1.000
    C41      C        0.36690    0.18340    0.79250    1.000
    H29      H        0.39570    0.19870    0.82450    1.000
    C42      C        0.55820    0.11630    0.88060    1.000
    C43      C        0.51290    0.02620    0.97470    1.000
    C44      C        0.58390    0.16800    0.83012    1.000
    C45      C        0.27810    0.13760    0.79580    1.000
    H30      H        0.24920    0.12140    0.82780    1.000
    O16      O        0.53379    0.34636    0.81173    1.000
    O17      O        0.65360    0.46603    0.81171    1.000
    O18      O        0.94250    0.88550    0.79880    1.000
    C46      C        0.46340    0.41500    0.95120    1.000
    H31      H        0.41260    0.37980    0.96650    1.000
    C47      C        0.58610    0.53740    0.95090    1.000
    H32      H        0.62170    0.58840    0.96610    1.000
    C48      C        0.48560    0.39170    0.90480    1.000
    H33      H        0.45020    0.34070    0.88990    1.000
    C49      C        0.60810    0.51440    0.90470    1.000
    H34      H        0.65900    0.54990    0.88950    1.000
    C50      C        0.81650    0.63310    0.79250    1.000
    H35      H        0.80300    0.60430    0.82450    1.000
    C51      C        0.55810    0.44180    0.88060    1.000
    C52      C        0.51330    0.48710    0.97470    1.000
    C53      C        0.58410    0.41610    0.83012    1.000
    C54      C        0.85950    0.72190    0.79580    1.000
    H36      H        0.87220    0.75080    0.82780    1.000
    O19      O        0.46621    0.81257    0.31173    1.000
    O20      O        0.34640    0.81243    0.31171    1.000
    O21      O        0.05750    0.94300    0.29880    1.000
    C55      C        0.53660    0.95160    0.45120    1.000
    H37      H        0.58740    0.96720    0.46650    1.000
    C56      C        0.41390    0.95130    0.45090    1.000
    H38      H        0.37830    0.96670    0.46610    1.000
    C57      C        0.51440    0.90610    0.40480    1.000
    H39      H        0.54980    0.89050    0.38990    1.000
    C58      C        0.39190    0.90630    0.40470    1.000
    H40      H        0.34100    0.89090    0.38950    1.000
    C59      C        0.18350    0.81660    0.29250    1.000
    H41      H        0.19700    0.80130    0.32450    1.000
    C60      C        0.44190    0.88370    0.38060    1.000
    C61      C        0.48670    0.97380    0.47470    1.000
    C62      C        0.41590    0.83200    0.33012    1.000
    C63      C        0.14050    0.86240    0.29580    1.000
    H42      H        0.12780    0.87860    0.32780    1.000
    O22      O        0.18743    0.65364    0.31173    1.000
    O23      O        0.18757    0.53397    0.31171    1.000
    O24      O        0.05700    0.11450    0.29880    1.000
    C64      C        0.04840    0.58500    0.45120    1.000
    H43      H        0.03280    0.62020    0.46650    1.000
    C65      C        0.04870    0.46260    0.45090    1.000
    H44      H        0.03330    0.41160    0.46610    1.000
    C66      C        0.09390    0.60830    0.40480    1.000
    H45      H        0.10950    0.65930    0.38990    1.000
    C67      C        0.09370    0.48560    0.40470    1.000
    H46      H        0.10910    0.45010    0.38950    1.000
    C68      C        0.18340    0.36690    0.29250    1.000
    H47      H        0.19870    0.39570    0.32450    1.000
    C69      C        0.11630    0.55820    0.38060    1.000
    C70      C        0.02620    0.51290    0.47470    1.000
    C71      C        0.16800    0.58390    0.33012    1.000
    C72      C        0.13760    0.27810    0.29580    1.000
    H48      H        0.12140    0.24920    0.32780    1.000
    O25      O        0.34636    0.53379    0.31173    1.000
    O26      O        0.46603    0.65360    0.31171    1.000
    O27      O        0.88550    0.94250    0.29880    1.000
    C73      C        0.41500    0.46340    0.45120    1.000
    H49      H        0.37980    0.41260    0.46650    1.000
    C74      C        0.53740    0.58610    0.45090    1.000
    H50      H        0.58840    0.62170    0.46610    1.000
    C75      C        0.39170    0.48560    0.40480    1.000
    H51      H        0.34070    0.45020    0.38990    1.000
    C76      C        0.51440    0.60810    0.40470    1.000
    H52      H        0.54990    0.65900    0.38950    1.000
    C77      C        0.63310    0.81650    0.29250    1.000
    H53      H        0.60430    0.80300    0.32450    1.000
    C78      C        0.44180    0.55810    0.38060    1.000
    C79      C        0.48710    0.51330    0.47470    1.000
    C80      C        0.41610    0.58410    0.33012    1.000
    C81      C        0.72190    0.85950    0.29580    1.000
    H54      H        0.75080    0.87220    0.32780    1.000
    O28      O        0.18743    0.53379    0.18827    1.000
    O29      O        0.18757    0.65360    0.18829    1.000
    O30      O        0.05700    0.94250    0.20120    1.000
    C82      C        0.04840    0.46340    0.04880    1.000
    H55      H        0.03280    0.41260    0.03350    1.000
    C83      C        0.04870    0.58610    0.04910    1.000
    H56      H        0.03330    0.62170    0.03390    1.000
    C84      C        0.09390    0.48560    0.09520    1.000
    H57      H        0.10950    0.45020    0.11010    1.000
    C85      C        0.09370    0.60810    0.09530    1.000
    H58      H        0.10910    0.65900    0.11050    1.000
    C86      C        0.18340    0.81650    0.20750    1.000
    H59      H        0.19870    0.80300    0.17550    1.000
    C87      C        0.11630    0.55810    0.11940    1.000
    C88      C        0.02620    0.51330    0.02530    1.000
    C89      C        0.16800    0.58410    0.16988    1.000
    C90      C        0.13760    0.85950    0.20420    1.000
    H60      H        0.12140    0.87220    0.17220    1.000
    O31      O        0.34636    0.81257    0.18827    1.000
    O32      O        0.46603    0.81243    0.18829    1.000
    O33      O        0.88550    0.94300    0.20120    1.000
    C91      C        0.41500    0.95160    0.04880    1.000
    H61      H        0.37980    0.96720    0.03350    1.000
    C92      C        0.53740    0.95130    0.04910    1.000
    H62      H        0.58840    0.96670    0.03390    1.000
    C93      C        0.39170    0.90610    0.09520    1.000
    H63      H        0.34070    0.89050    0.11010    1.000
    C94      C        0.51440    0.90630    0.09530    1.000
    H64      H        0.54990    0.89090    0.11050    1.000
    C95      C        0.63310    0.81660    0.20750    1.000
    H65      H        0.60430    0.80130    0.17550    1.000
    C96      C        0.44180    0.88370    0.11940    1.000
    C97      C        0.48710    0.97380    0.02530    1.000
    C98      C        0.41610    0.83200    0.16988    1.000
    C99      C        0.72190    0.86240    0.20420    1.000
    H66      H        0.75080    0.87860    0.17220    1.000
    O34      O        0.46621    0.65364    0.18827    1.000
    O35      O        0.34640    0.53397    0.18829    1.000
    O36      O        0.05750    0.11450    0.20120    1.000
    C100     C        0.53660    0.58500    0.04880    1.000
    H67      H        0.58740    0.62020    0.03350    1.000
    C101     C        0.41390    0.46260    0.04910    1.000
    H68      H        0.37830    0.41160    0.03390    1.000
    C102     C        0.51440    0.60830    0.09520    1.000
    H69      H        0.54980    0.65930    0.11010    1.000
    C103     C        0.39190    0.48560    0.09530    1.000
    H70      H        0.34100    0.45010    0.11050    1.000
    C104     C        0.18350    0.36690    0.20750    1.000
    H71      H        0.19700    0.39570    0.17550    1.000
    C105     C        0.44190    0.55820    0.11940    1.000
    C106     C        0.48670    0.51290    0.02530    1.000
    C107     C        0.41590    0.58390    0.16988    1.000
    C108     C        0.14050    0.27810    0.20420    1.000
    H72      H        0.12780    0.24920    0.17220    1.000
    In1      In       0.72901    0.27099    0.75000    1.000
    N1       N        0.79555    0.20445    0.75000    1.000
    C109     C        0.87780    0.12220    0.75000    1.000
    C110     C        0.92530    0.07470    0.75000    1.000
    In2      In       0.72901    0.45802    0.75000    1.000
    N2       N        0.79555    0.59110    0.75000    1.000
    C111     C        0.87780    0.75560    0.75000    1.000
    C112     C        0.92530    0.85060    0.75000    1.000
    In3      In       0.54198    0.27099    0.75000    1.000
    N3       N        0.40890    0.20445    0.75000    1.000
    C113     C        0.24440    0.12220    0.75000    1.000
    C114     C        0.14940    0.07470    0.75000    1.000
    In4      In       0.27099    0.72901    0.25000    1.000
    N4       N        0.20445    0.79555    0.25000    1.000
    C115     C        0.12220    0.87780    0.25000    1.000
    C116     C        0.07470    0.92530    0.25000    1.000
    In5      In       0.27099    0.54198    0.25000    1.000
    N5       N        0.20445    0.40890    0.25000    1.000
    C117     C        0.12220    0.24440    0.25000    1.000
    C118     C        0.07470    0.14940    0.25000    1.000
    In6      In       0.45802    0.72901    0.25000    1.000
    N6       N        0.59110    0.79555    0.25000    1.000
    C119     C        0.75560    0.87780    0.25000    1.000
    C120     C        0.85060    0.92530    0.25000    1.000
    Zn1      Zn       0.00000    0.00000    0.67797    1.000
    Zn2      Zn       0.00000    0.00000    0.82203    1.000
    Zn3      Zn       0.00000    0.00000    0.32203    1.000
    Zn4      Zn       0.00000    0.00000    0.17797    1.000
    O37      O        0.66667    0.33333    0.75000    1.000
    O38      O        0.33333    0.66667    0.25000    1.000
