# CIF file generated by openbabel 3.1.0, see https://openbabel.org
data_I
_chemical_name_common 'image0'
_cell_length_a 20.512
_cell_length_b 9.9435
_cell_length_c 26.994
_cell_angle_alpha 90
_cell_angle_beta 101.945
_cell_angle_gamma 90
_space_group_name_H-M_alt 'P 1'
_space_group_name_Hall 'P 1'
loop_
    _symmetry_equiv_pos_as_xyz
    x,y,z
loop_
    _atom_site_label
    _atom_site_type_symbol
    _atom_site_fract_x
    _atom_site_fract_y
    _atom_site_fract_z
    _atom_site_occupancy
    Co1      Co       0.85893    0.95292    0.32287    1.000
    O1       O        0.44636    0.58228    0.33040    1.000
    O2       O        0.34999    0.68255    0.32354    1.000
    O3       O        0.43096    0.30175    0.32680    1.000
    O4       O        0.33802    0.18598    0.31581    1.000
    O5       O        0.79152    0.84460    0.56798    1.000
    N1       N        0.75247    0.95726    0.31690    1.000
    N2       N        0.87888    0.97310    0.55970    1.000
    H1       H        0.91330    0.01740    0.57700    1.000
    N3       N        0.84886    0.03959    0.74218    1.000
    N4       N        0.86879    0.93980    0.40368    1.000
    C1       C        0.54371    0.95060    0.32046    1.000
    C2       C        0.51226    0.82740    0.32361    1.000
    H2       H        0.53700    0.74640    0.32450    1.000
    C3       C        0.44497    0.82220    0.32551    1.000
    C4       C        0.40872    0.93980    0.32442    1.000
    H3       H        0.36280    0.93580    0.32550    1.000
    C5       C        0.43901    0.06420    0.32178    1.000
    C6       C        0.50638    0.06880    0.31944    1.000
    H4       H        0.52720    0.15330    0.31710    1.000
    C7       C        0.71283    0.85500    0.29721    1.000
    H5       H        0.73200    0.78220    0.28240    1.000
    C8       C        0.64562    0.85000    0.29734    1.000
    H6       H        0.61980    0.77490    0.28300    1.000
    C9       C        0.61559    0.95500    0.31851    1.000
    C10      C        0.65633    0.06300    0.33789    1.000
    H7       H        0.63810    0.13810    0.35210    1.000
    C11      C        0.72334    0.06060    0.33637    1.000
    H8       H        0.75010    0.13540    0.34970    1.000
    C12      C        0.83280    0.92750    0.58550    1.000
    C13      C        0.79000    0.99810    0.71100    1.000
    H9       H        0.75150    0.98870    0.72520    1.000
    C14      C        0.78440    0.96960    0.66000    1.000
    H10      H        0.74250    0.94570    0.63960    1.000
    C15      C        0.84010    0.97600    0.63920    1.000
    C16      C        0.89920    0.01340    0.66970    1.000
    H11      H        0.93880    0.01800    0.65670    1.000
    C17      C        0.90030    0.04460    0.72030    1.000
    H12      H        0.94180    0.07160    0.74060    1.000
    C18      C        0.41162    0.68760    0.32676    1.000
    C19      C        0.83350    0.86620    0.42630    1.000
    H13      H        0.80450    0.80400    0.40600    1.000
    C20      C        0.83320    0.86730    0.47750    1.000
    H14      H        0.80450    0.80960    0.49120    1.000
    C21      C        0.87590    0.95530    0.50810    1.000
    C22      C        0.91840    0.03160    0.48560    1.000
    H15      H        0.95010    0.08950    0.50570    1.000
    C23      C        0.91470    0.02350    0.43420    1.000
    H16      H        0.94410    0.07610    0.41920    1.000
    C24      C        0.39900    0.19090    0.32108    1.000
    C25      C        0.84100    0.90660    0.55930    1.000
    C26      C        0.80320    0.00500    0.70790    1.000
    C27      C        0.80610    0.97990    0.65820    1.000
    C28      C        0.86400    0.00550    0.64310    1.000
    C29      C        0.91590    0.05410    0.67840    1.000
    C30      C        0.91020    0.07100    0.72830    1.000
    C31      C        0.82380    0.84400    0.41970    1.000
    C32      C        0.81990    0.83070    0.47020    1.000
    C33      C        0.85600    0.91520    0.50520    1.000
    C34      C        0.89740    0.00630    0.49030    1.000
    C35      C        0.90110    0.00700    0.43910    1.000
    H17      H        0.76850    0.94570    0.63510    1.000
    H18      H        0.95650    0.07670    0.66870    1.000
    H19      H        0.94680    0.10340    0.75280    1.000
    H20      H        0.79640    0.78850    0.39500    1.000
    H21      H        0.79240    0.76350    0.48020    1.000
    H22      H        0.92290    0.06720    0.51370    1.000
    H23      H        0.93290    0.06670    0.43030    1.000
    H24      H        0.90330    0.04610    0.58400    1.000
    H25      H        0.76090    0.99380    0.71650    1.000
    N5       N        0.87370    0.99310    0.59330    1.000
    Co2      Co       0.35893    0.45292    0.32287    1.000
    O6       O        0.94636    0.08228    0.33040    1.000
    O7       O        0.84999    0.18255    0.32354    1.000
    O8       O        0.93096    0.80175    0.32680    1.000
    O9       O        0.83802    0.68598    0.31581    1.000
    O10      O        0.29152    0.34460    0.56798    1.000
    N6       N        0.25247    0.45726    0.31690    1.000
    N7       N        0.37888    0.47310    0.55970    1.000
    H26      H        0.41330    0.51740    0.57700    1.000
    N8       N        0.34886    0.53959    0.74218    1.000
    N9       N        0.36879    0.43980    0.40368    1.000
    C36      C        0.04371    0.45060    0.32046    1.000
    C37      C        0.01226    0.32740    0.32361    1.000
    H27      H        0.03700    0.24640    0.32450    1.000
    C38      C        0.94497    0.32220    0.32551    1.000
    C39      C        0.90872    0.43980    0.32442    1.000
    H28      H        0.86280    0.43580    0.32550    1.000
    C40      C        0.93901    0.56420    0.32178    1.000
    C41      C        0.00638    0.56880    0.31944    1.000
    H29      H        0.02720    0.65330    0.31710    1.000
    C42      C        0.21283    0.35500    0.29721    1.000
    H30      H        0.23200    0.28220    0.28240    1.000
    C43      C        0.14562    0.35000    0.29734    1.000
    H31      H        0.11980    0.27490    0.28300    1.000
    C44      C        0.11559    0.45500    0.31851    1.000
    C45      C        0.15633    0.56300    0.33789    1.000
    H32      H        0.13810    0.63810    0.35210    1.000
    C46      C        0.22334    0.56060    0.33637    1.000
    H33      H        0.25010    0.63540    0.34970    1.000
    C47      C        0.33280    0.42750    0.58550    1.000
    C48      C        0.29000    0.49810    0.71100    1.000
    H34      H        0.25150    0.48870    0.72520    1.000
    C49      C        0.28440    0.46960    0.66000    1.000
    H35      H        0.24250    0.44570    0.63960    1.000
    C50      C        0.34010    0.47600    0.63920    1.000
    C51      C        0.39920    0.51340    0.66970    1.000
    H36      H        0.43880    0.51800    0.65670    1.000
    C52      C        0.40030    0.54460    0.72030    1.000
    H37      H        0.44180    0.57160    0.74060    1.000
    C53      C        0.91162    0.18760    0.32676    1.000
    C54      C        0.33350    0.36620    0.42630    1.000
    H38      H        0.30450    0.30400    0.40600    1.000
    C55      C        0.33320    0.36730    0.47750    1.000
    H39      H        0.30450    0.30960    0.49120    1.000
    C56      C        0.37590    0.45530    0.50810    1.000
    C57      C        0.41840    0.53160    0.48560    1.000
    H40      H        0.45010    0.58950    0.50570    1.000
    C58      C        0.41470    0.52350    0.43420    1.000
    H41      H        0.44410    0.57610    0.41920    1.000
    C59      C        0.89900    0.69090    0.32108    1.000
    C60      C        0.34100    0.40660    0.55930    1.000
    C61      C        0.30320    0.50500    0.70790    1.000
    C62      C        0.30610    0.47990    0.65820    1.000
    C63      C        0.36400    0.50550    0.64310    1.000
    C64      C        0.41590    0.55410    0.67840    1.000
    C65      C        0.41020    0.57100    0.72830    1.000
    C66      C        0.32380    0.34400    0.41970    1.000
    C67      C        0.31990    0.33070    0.47020    1.000
    C68      C        0.35600    0.41520    0.50520    1.000
    C69      C        0.39740    0.50630    0.49030    1.000
    C70      C        0.40110    0.50700    0.43910    1.000
    H42      H        0.26850    0.44570    0.63510    1.000
    H43      H        0.45650    0.57670    0.66870    1.000
    H44      H        0.44680    0.60340    0.75280    1.000
    H45      H        0.29640    0.28850    0.39500    1.000
    H46      H        0.29240    0.26350    0.48020    1.000
    H47      H        0.42290    0.56720    0.51370    1.000
    H48      H        0.43290    0.56670    0.43030    1.000
    H49      H        0.40330    0.54610    0.58400    1.000
    H50      H        0.26090    0.49380    0.71650    1.000
    N10      N        0.37370    0.49310    0.59330    1.000
    Co3      Co       0.85893    0.04708    0.82287    1.000
    O11      O        0.44636    0.41772    0.83040    1.000
    O12      O        0.34999    0.31745    0.82354    1.000
    O13      O        0.43096    0.69825    0.82680    1.000
    O14      O        0.33802    0.81402    0.81581    1.000
    O15      O        0.79152    0.15540    0.06798    1.000
    N11      N        0.75247    0.04274    0.81690    1.000
    N12      N        0.87888    0.02690    0.05970    1.000
    H51      H        0.91330    0.98260    0.07700    1.000
    N13      N        0.84886    0.96041    0.24218    1.000
    N14      N        0.86879    0.06020    0.90368    1.000
    C71      C        0.54371    0.04940    0.82046    1.000
    C72      C        0.51226    0.17260    0.82361    1.000
    H52      H        0.53700    0.25360    0.82450    1.000
    C73      C        0.44497    0.17780    0.82551    1.000
    C74      C        0.40872    0.06020    0.82442    1.000
    H53      H        0.36280    0.06420    0.82550    1.000
    C75      C        0.43901    0.93580    0.82178    1.000
    C76      C        0.50638    0.93120    0.81944    1.000
    H54      H        0.52720    0.84670    0.81710    1.000
    C77      C        0.71283    0.14500    0.79721    1.000
    H55      H        0.73200    0.21780    0.78240    1.000
    C78      C        0.64562    0.15000    0.79734    1.000
    H56      H        0.61980    0.22510    0.78300    1.000
    C79      C        0.61559    0.04500    0.81851    1.000
    C80      C        0.65633    0.93700    0.83789    1.000
    H57      H        0.63810    0.86190    0.85210    1.000
    C81      C        0.72334    0.93940    0.83637    1.000
    H58      H        0.75010    0.86460    0.84970    1.000
    C82      C        0.83280    0.07250    0.08550    1.000
    C83      C        0.79000    0.00190    0.21100    1.000
    H59      H        0.75150    0.01130    0.22520    1.000
    C84      C        0.78440    0.03040    0.16000    1.000
    H60      H        0.74250    0.05430    0.13960    1.000
    C85      C        0.84010    0.02400    0.13920    1.000
    C86      C        0.89920    0.98660    0.16970    1.000
    H61      H        0.93880    0.98200    0.15670    1.000
    C87      C        0.90030    0.95540    0.22030    1.000
    H62      H        0.94180    0.92840    0.24060    1.000
    C88      C        0.41162    0.31240    0.82676    1.000
    C89      C        0.83350    0.13380    0.92630    1.000
    H63      H        0.80450    0.19600    0.90600    1.000
    C90      C        0.83320    0.13270    0.97750    1.000
    H64      H        0.80450    0.19040    0.99120    1.000
    C91      C        0.87590    0.04470    0.00810    1.000
    C92      C        0.91840    0.96840    0.98560    1.000
    H65      H        0.95010    0.91050    0.00570    1.000
    C93      C        0.91470    0.97650    0.93420    1.000
    H66      H        0.94410    0.92390    0.91920    1.000
    C94      C        0.39900    0.80910    0.82108    1.000
    C95      C        0.84100    0.09340    0.05930    1.000
    C96      C        0.80320    0.99500    0.20790    1.000
    C97      C        0.80610    0.02010    0.15820    1.000
    C98      C        0.86400    0.99450    0.14310    1.000
    C99      C        0.91590    0.94590    0.17840    1.000
    C100     C        0.91020    0.92900    0.22830    1.000
    C101     C        0.82380    0.15600    0.91970    1.000
    C102     C        0.81990    0.16930    0.97020    1.000
    C103     C        0.85600    0.08480    0.00520    1.000
    C104     C        0.89740    0.99370    0.99030    1.000
    C105     C        0.90110    0.99300    0.93910    1.000
    H67      H        0.76850    0.05430    0.13510    1.000
    H68      H        0.95650    0.92330    0.16870    1.000
    H69      H        0.94680    0.89660    0.25280    1.000
    H70      H        0.79640    0.21150    0.89500    1.000
    H71      H        0.79240    0.23650    0.98020    1.000
    H72      H        0.92290    0.93280    0.01370    1.000
    H73      H        0.93290    0.93330    0.93030    1.000
    H74      H        0.90330    0.95390    0.08400    1.000
    H75      H        0.76090    0.00620    0.21650    1.000
    N15      N        0.87370    0.00690    0.09330    1.000
    Co4      Co       0.35893    0.54708    0.82287    1.000
    O16      O        0.94636    0.91772    0.83040    1.000
    O17      O        0.84999    0.81745    0.82354    1.000
    O18      O        0.93096    0.19825    0.82680    1.000
    O19      O        0.83802    0.31402    0.81581    1.000
    O20      O        0.29152    0.65540    0.06798    1.000
    N16      N        0.25247    0.54274    0.81690    1.000
    N17      N        0.37888    0.52690    0.05970    1.000
    H76      H        0.41330    0.48260    0.07700    1.000
    N18      N        0.34886    0.46041    0.24218    1.000
    N19      N        0.36879    0.56020    0.90368    1.000
    C106     C        0.04371    0.54940    0.82046    1.000
    C107     C        0.01226    0.67260    0.82361    1.000
    H77      H        0.03700    0.75360    0.82450    1.000
    C108     C        0.94497    0.67780    0.82551    1.000
    C109     C        0.90872    0.56020    0.82442    1.000
    H78      H        0.86280    0.56420    0.82550    1.000
    C110     C        0.93901    0.43580    0.82178    1.000
    C111     C        0.00638    0.43120    0.81944    1.000
    H79      H        0.02720    0.34670    0.81710    1.000
    C112     C        0.21283    0.64500    0.79721    1.000
    H80      H        0.23200    0.71780    0.78240    1.000
    C113     C        0.14562    0.65000    0.79734    1.000
    H81      H        0.11980    0.72510    0.78300    1.000
    C114     C        0.11559    0.54500    0.81851    1.000
    C115     C        0.15633    0.43700    0.83789    1.000
    H82      H        0.13810    0.36190    0.85210    1.000
    C116     C        0.22334    0.43940    0.83637    1.000
    H83      H        0.25010    0.36460    0.84970    1.000
    C117     C        0.33280    0.57250    0.08550    1.000
    C118     C        0.29000    0.50190    0.21100    1.000
    H84      H        0.25150    0.51130    0.22520    1.000
    C119     C        0.28440    0.53040    0.16000    1.000
    H85      H        0.24250    0.55430    0.13960    1.000
    C120     C        0.34010    0.52400    0.13920    1.000
    C121     C        0.39920    0.48660    0.16970    1.000
    H86      H        0.43880    0.48200    0.15670    1.000
    C122     C        0.40030    0.45540    0.22030    1.000
    H87      H        0.44180    0.42840    0.24060    1.000
    C123     C        0.91162    0.81240    0.82676    1.000
    C124     C        0.33350    0.63380    0.92630    1.000
    H88      H        0.30450    0.69600    0.90600    1.000
    C125     C        0.33320    0.63270    0.97750    1.000
    H89      H        0.30450    0.69040    0.99120    1.000
    C126     C        0.37590    0.54470    0.00810    1.000
    C127     C        0.41840    0.46840    0.98560    1.000
    H90      H        0.45010    0.41050    0.00570    1.000
    C128     C        0.41470    0.47650    0.93420    1.000
    H91      H        0.44410    0.42390    0.91920    1.000
    C129     C        0.89900    0.30910    0.82108    1.000
    C130     C        0.34100    0.59340    0.05930    1.000
    C131     C        0.30320    0.49500    0.20790    1.000
    C132     C        0.30610    0.52010    0.15820    1.000
    C133     C        0.36400    0.49450    0.14310    1.000
    C134     C        0.41590    0.44590    0.17840    1.000
    C135     C        0.41020    0.42900    0.22830    1.000
    C136     C        0.32380    0.65600    0.91970    1.000
    C137     C        0.31990    0.66930    0.97020    1.000
    C138     C        0.35600    0.58480    0.00520    1.000
    C139     C        0.39740    0.49370    0.99030    1.000
    C140     C        0.40110    0.49300    0.93910    1.000
    H92      H        0.26850    0.55430    0.13510    1.000
    H93      H        0.45650    0.42330    0.16870    1.000
    H94      H        0.44680    0.39660    0.25280    1.000
    H95      H        0.29640    0.71150    0.89500    1.000
    H96      H        0.29240    0.73650    0.98020    1.000
    H97      H        0.42290    0.43280    0.01370    1.000
    H98      H        0.43290    0.43330    0.93030    1.000
    H99      H        0.40330    0.45390    0.08400    1.000
    H100     H        0.26090    0.50620    0.21650    1.000
    N20      N        0.37370    0.50690    0.09330    1.000
    Co5      Co       0.14107    0.95292    0.17713    1.000
    O21      O        0.55364    0.58228    0.16960    1.000
    O22      O        0.65001    0.68255    0.17646    1.000
    O23      O        0.56904    0.30175    0.17320    1.000
    O24      O        0.66198    0.18598    0.18419    1.000
    O25      O        0.20848    0.84460    0.93202    1.000
    N21      N        0.24753    0.95726    0.18310    1.000
    N22      N        0.12112    0.97310    0.94030    1.000
    H101     H        0.08670    0.01740    0.92300    1.000
    N23      N        0.15114    0.03959    0.75782    1.000
    N24      N        0.13121    0.93980    0.09632    1.000
    C141     C        0.45629    0.95060    0.17954    1.000
    C142     C        0.48774    0.82740    0.17639    1.000
    H102     H        0.46300    0.74640    0.17550    1.000
    C143     C        0.55503    0.82220    0.17449    1.000
    C144     C        0.59128    0.93980    0.17558    1.000
    H103     H        0.63720    0.93580    0.17450    1.000
    C145     C        0.56099    0.06420    0.17822    1.000
    C146     C        0.49362    0.06880    0.18056    1.000
    H104     H        0.47280    0.15330    0.18290    1.000
    C147     C        0.28717    0.85500    0.20279    1.000
    H105     H        0.26800    0.78220    0.21760    1.000
    C148     C        0.35438    0.85000    0.20266    1.000
    H106     H        0.38020    0.77490    0.21700    1.000
    C149     C        0.38441    0.95500    0.18149    1.000
    C150     C        0.34367    0.06300    0.16211    1.000
    H107     H        0.36190    0.13810    0.14790    1.000
    C151     C        0.27666    0.06060    0.16363    1.000
    H108     H        0.24990    0.13540    0.15030    1.000
    C152     C        0.16720    0.92750    0.91450    1.000
    C153     C        0.21000    0.99810    0.78900    1.000
    H109     H        0.24850    0.98870    0.77480    1.000
    C154     C        0.21560    0.96960    0.84000    1.000
    H110     H        0.25750    0.94570    0.86040    1.000
    C155     C        0.15990    0.97600    0.86080    1.000
    C156     C        0.10080    0.01340    0.83030    1.000
    H111     H        0.06120    0.01800    0.84330    1.000
    C157     C        0.09970    0.04460    0.77970    1.000
    H112     H        0.05820    0.07160    0.75940    1.000
    C158     C        0.58838    0.68760    0.17324    1.000
    C159     C        0.16650    0.86620    0.07370    1.000
    H113     H        0.19550    0.80400    0.09400    1.000
    C160     C        0.16680    0.86730    0.02250    1.000
    H114     H        0.19550    0.80960    0.00880    1.000
    C161     C        0.12410    0.95530    0.99190    1.000
    C162     C        0.08160    0.03160    0.01440    1.000
    H115     H        0.04990    0.08950    0.99430    1.000
    C163     C        0.08530    0.02350    0.06580    1.000
    H116     H        0.05590    0.07610    0.08080    1.000
    C164     C        0.60100    0.19090    0.17892    1.000
    C165     C        0.15900    0.90660    0.94070    1.000
    C166     C        0.19680    0.00500    0.79210    1.000
    C167     C        0.19390    0.97990    0.84180    1.000
    C168     C        0.13600    0.00550    0.85690    1.000
    C169     C        0.08410    0.05410    0.82160    1.000
    C170     C        0.08980    0.07100    0.77170    1.000
    C171     C        0.17620    0.84400    0.08030    1.000
    C172     C        0.18010    0.83070    0.02980    1.000
    C173     C        0.14400    0.91520    0.99480    1.000
    C174     C        0.10260    0.00630    0.00970    1.000
    C175     C        0.09890    0.00700    0.06090    1.000
    H117     H        0.23150    0.94570    0.86490    1.000
    H118     H        0.04350    0.07670    0.83130    1.000
    H119     H        0.05320    0.10340    0.74720    1.000
    H120     H        0.20360    0.78850    0.10500    1.000
    H121     H        0.20760    0.76350    0.01980    1.000
    H122     H        0.07710    0.06720    0.98630    1.000
    H123     H        0.06710    0.06670    0.06970    1.000
    H124     H        0.09670    0.04610    0.91600    1.000
    H125     H        0.23910    0.99380    0.78350    1.000
    N25      N        0.12630    0.99310    0.90670    1.000
    Co6      Co       0.64107    0.45292    0.17713    1.000
    O26      O        0.05364    0.08228    0.16960    1.000
    O27      O        0.15001    0.18255    0.17646    1.000
    O28      O        0.06904    0.80175    0.17320    1.000
    O29      O        0.16198    0.68598    0.18419    1.000
    O30      O        0.70848    0.34460    0.93202    1.000
    N26      N        0.74753    0.45726    0.18310    1.000
    N27      N        0.62112    0.47310    0.94030    1.000
    H126     H        0.58670    0.51740    0.92300    1.000
    N28      N        0.65114    0.53959    0.75782    1.000
    N29      N        0.63121    0.43980    0.09632    1.000
    C176     C        0.95629    0.45060    0.17954    1.000
    C177     C        0.98774    0.32740    0.17639    1.000
    H127     H        0.96300    0.24640    0.17550    1.000
    C178     C        0.05503    0.32220    0.17449    1.000
    C179     C        0.09128    0.43980    0.17558    1.000
    H128     H        0.13720    0.43580    0.17450    1.000
    C180     C        0.06099    0.56420    0.17822    1.000
    C181     C        0.99362    0.56880    0.18056    1.000
    H129     H        0.97280    0.65330    0.18290    1.000
    C182     C        0.78717    0.35500    0.20279    1.000
    H130     H        0.76800    0.28220    0.21760    1.000
    C183     C        0.85438    0.35000    0.20266    1.000
    H131     H        0.88020    0.27490    0.21700    1.000
    C184     C        0.88441    0.45500    0.18149    1.000
    C185     C        0.84367    0.56300    0.16211    1.000
    H132     H        0.86190    0.63810    0.14790    1.000
    C186     C        0.77666    0.56060    0.16363    1.000
    H133     H        0.74990    0.63540    0.15030    1.000
    C187     C        0.66720    0.42750    0.91450    1.000
    C188     C        0.71000    0.49810    0.78900    1.000
    H134     H        0.74850    0.48870    0.77480    1.000
    C189     C        0.71560    0.46960    0.84000    1.000
    H135     H        0.75750    0.44570    0.86040    1.000
    C190     C        0.65990    0.47600    0.86080    1.000
    C191     C        0.60080    0.51340    0.83030    1.000
    H136     H        0.56120    0.51800    0.84330    1.000
    C192     C        0.59970    0.54460    0.77970    1.000
    H137     H        0.55820    0.57160    0.75940    1.000
    C193     C        0.08838    0.18760    0.17324    1.000
    C194     C        0.66650    0.36620    0.07370    1.000
    H138     H        0.69550    0.30400    0.09400    1.000
    C195     C        0.66680    0.36730    0.02250    1.000
    H139     H        0.69550    0.30960    0.00880    1.000
    C196     C        0.62410    0.45530    0.99190    1.000
    C197     C        0.58160    0.53160    0.01440    1.000
    H140     H        0.54990    0.58950    0.99430    1.000
    C198     C        0.58530    0.52350    0.06580    1.000
    H141     H        0.55590    0.57610    0.08080    1.000
    C199     C        0.10100    0.69090    0.17892    1.000
    C200     C        0.65900    0.40660    0.94070    1.000
    C201     C        0.69680    0.50500    0.79210    1.000
    C202     C        0.69390    0.47990    0.84180    1.000
    C203     C        0.63600    0.50550    0.85690    1.000
    C204     C        0.58410    0.55410    0.82160    1.000
    C205     C        0.58980    0.57100    0.77170    1.000
    C206     C        0.67620    0.34400    0.08030    1.000
    C207     C        0.68010    0.33070    0.02980    1.000
    C208     C        0.64400    0.41520    0.99480    1.000
    C209     C        0.60260    0.50630    0.00970    1.000
    C210     C        0.59890    0.50700    0.06090    1.000
    H142     H        0.73150    0.44570    0.86490    1.000
    H143     H        0.54350    0.57670    0.83130    1.000
    H144     H        0.55320    0.60340    0.74720    1.000
    H145     H        0.70360    0.28850    0.10500    1.000
    H146     H        0.70760    0.26350    0.01980    1.000
    H147     H        0.57710    0.56720    0.98630    1.000
    H148     H        0.56710    0.56670    0.06970    1.000
    H149     H        0.59670    0.54610    0.91600    1.000
    H150     H        0.73910    0.49380    0.78350    1.000
    N30      N        0.62630    0.49310    0.90670    1.000
    Co7      Co       0.14107    0.04708    0.67713    1.000
    O31      O        0.55364    0.41772    0.66960    1.000
    O32      O        0.65001    0.31745    0.67646    1.000
    O33      O        0.56904    0.69825    0.67320    1.000
    O34      O        0.66198    0.81402    0.68419    1.000
    O35      O        0.20848    0.15540    0.43202    1.000
    N31      N        0.24753    0.04274    0.68310    1.000
    N32      N        0.12112    0.02690    0.44030    1.000
    H151     H        0.08670    0.98260    0.42300    1.000
    N33      N        0.15114    0.96041    0.25782    1.000
    N34      N        0.13121    0.06020    0.59632    1.000
    C211     C        0.45629    0.04940    0.67954    1.000
    C212     C        0.48774    0.17260    0.67639    1.000
    H152     H        0.46300    0.25360    0.67550    1.000
    C213     C        0.55503    0.17780    0.67449    1.000
    C214     C        0.59128    0.06020    0.67558    1.000
    H153     H        0.63720    0.06420    0.67450    1.000
    C215     C        0.56099    0.93580    0.67822    1.000
    C216     C        0.49362    0.93120    0.68056    1.000
    H154     H        0.47280    0.84670    0.68290    1.000
    C217     C        0.28717    0.14500    0.70279    1.000
    H155     H        0.26800    0.21780    0.71760    1.000
    C218     C        0.35438    0.15000    0.70266    1.000
    H156     H        0.38020    0.22510    0.71700    1.000
    C219     C        0.38441    0.04500    0.68149    1.000
    C220     C        0.34367    0.93700    0.66211    1.000
    H157     H        0.36190    0.86190    0.64790    1.000
    C221     C        0.27666    0.93940    0.66363    1.000
    H158     H        0.24990    0.86460    0.65030    1.000
    C222     C        0.16720    0.07250    0.41450    1.000
    C223     C        0.21000    0.00190    0.28900    1.000
    H159     H        0.24850    0.01130    0.27480    1.000
    C224     C        0.21560    0.03040    0.34000    1.000
    H160     H        0.25750    0.05430    0.36040    1.000
    C225     C        0.15990    0.02400    0.36080    1.000
    C226     C        0.10080    0.98660    0.33030    1.000
    H161     H        0.06120    0.98200    0.34330    1.000
    C227     C        0.09970    0.95540    0.27970    1.000
    H162     H        0.05820    0.92840    0.25940    1.000
    C228     C        0.58838    0.31240    0.67324    1.000
    C229     C        0.16650    0.13380    0.57370    1.000
    H163     H        0.19550    0.19600    0.59400    1.000
    C230     C        0.16680    0.13270    0.52250    1.000
    H164     H        0.19550    0.19040    0.50880    1.000
    C231     C        0.12410    0.04470    0.49190    1.000
    C232     C        0.08160    0.96840    0.51440    1.000
    H165     H        0.04990    0.91050    0.49430    1.000
    C233     C        0.08530    0.97650    0.56580    1.000
    H166     H        0.05590    0.92390    0.58080    1.000
    C234     C        0.60100    0.80910    0.67892    1.000
    C235     C        0.15900    0.09340    0.44070    1.000
    C236     C        0.19680    0.99500    0.29210    1.000
    C237     C        0.19390    0.02010    0.34180    1.000
    C238     C        0.13600    0.99450    0.35690    1.000
    C239     C        0.08410    0.94590    0.32160    1.000
    C240     C        0.08980    0.92900    0.27170    1.000
    C241     C        0.17620    0.15600    0.58030    1.000
    C242     C        0.18010    0.16930    0.52980    1.000
    C243     C        0.14400    0.08480    0.49480    1.000
    C244     C        0.10260    0.99370    0.50970    1.000
    C245     C        0.09890    0.99300    0.56090    1.000
    H167     H        0.23150    0.05430    0.36490    1.000
    H168     H        0.04350    0.92330    0.33130    1.000
    H169     H        0.05320    0.89660    0.24720    1.000
    H170     H        0.20360    0.21150    0.60500    1.000
    H171     H        0.20760    0.23650    0.51980    1.000
    H172     H        0.07710    0.93280    0.48630    1.000
    H173     H        0.06710    0.93330    0.56970    1.000
    H174     H        0.09670    0.95390    0.41600    1.000
    H175     H        0.23910    0.00620    0.28350    1.000
    N35      N        0.12630    0.00690    0.40670    1.000
    Co8      Co       0.64107    0.54708    0.67713    1.000
    O36      O        0.05364    0.91772    0.66960    1.000
    O37      O        0.15001    0.81745    0.67646    1.000
    O38      O        0.06904    0.19825    0.67320    1.000
    O39      O        0.16198    0.31402    0.68419    1.000
    O40      O        0.70848    0.65540    0.43202    1.000
    N36      N        0.74753    0.54274    0.68310    1.000
    N37      N        0.62112    0.52690    0.44030    1.000
    H176     H        0.58670    0.48260    0.42300    1.000
    N38      N        0.65114    0.46041    0.25782    1.000
    N39      N        0.63121    0.56020    0.59632    1.000
    C246     C        0.95629    0.54940    0.67954    1.000
    C247     C        0.98774    0.67260    0.67639    1.000
    H177     H        0.96300    0.75360    0.67550    1.000
    C248     C        0.05503    0.67780    0.67449    1.000
    C249     C        0.09128    0.56020    0.67558    1.000
    H178     H        0.13720    0.56420    0.67450    1.000
    C250     C        0.06099    0.43580    0.67822    1.000
    C251     C        0.99362    0.43120    0.68056    1.000
    H179     H        0.97280    0.34670    0.68290    1.000
    C252     C        0.78717    0.64500    0.70279    1.000
    H180     H        0.76800    0.71780    0.71760    1.000
    C253     C        0.85438    0.65000    0.70266    1.000
    H181     H        0.88020    0.72510    0.71700    1.000
    C254     C        0.88441    0.54500    0.68149    1.000
    C255     C        0.84367    0.43700    0.66211    1.000
    H182     H        0.86190    0.36190    0.64790    1.000
    C256     C        0.77666    0.43940    0.66363    1.000
    H183     H        0.74990    0.36460    0.65030    1.000
    C257     C        0.66720    0.57250    0.41450    1.000
    C258     C        0.71000    0.50190    0.28900    1.000
    H184     H        0.74850    0.51130    0.27480    1.000
    C259     C        0.71560    0.53040    0.34000    1.000
    H185     H        0.75750    0.55430    0.36040    1.000
    C260     C        0.65990    0.52400    0.36080    1.000
    C261     C        0.60080    0.48660    0.33030    1.000
    H186     H        0.56120    0.48200    0.34330    1.000
    C262     C        0.59970    0.45540    0.27970    1.000
    H187     H        0.55820    0.42840    0.25940    1.000
    C263     C        0.08838    0.81240    0.67324    1.000
    C264     C        0.66650    0.63380    0.57370    1.000
    H188     H        0.69550    0.69600    0.59400    1.000
    C265     C        0.66680    0.63270    0.52250    1.000
    H189     H        0.69550    0.69040    0.50880    1.000
    C266     C        0.62410    0.54470    0.49190    1.000
    C267     C        0.58160    0.46840    0.51440    1.000
    H190     H        0.54990    0.41050    0.49430    1.000
    C268     C        0.58530    0.47650    0.56580    1.000
    H191     H        0.55590    0.42390    0.58080    1.000
    C269     C        0.10100    0.30910    0.67892    1.000
    C270     C        0.65900    0.59340    0.44070    1.000
    C271     C        0.69680    0.49500    0.29210    1.000
    C272     C        0.69390    0.52010    0.34180    1.000
    C273     C        0.63600    0.49450    0.35690    1.000
    C274     C        0.58410    0.44590    0.32160    1.000
    C275     C        0.58980    0.42900    0.27170    1.000
    C276     C        0.67620    0.65600    0.58030    1.000
    C277     C        0.68010    0.66930    0.52980    1.000
    C278     C        0.64400    0.58480    0.49480    1.000
    C279     C        0.60260    0.49370    0.50970    1.000
    C280     C        0.59890    0.49300    0.56090    1.000
    H192     H        0.73150    0.55430    0.36490    1.000
    H193     H        0.54350    0.42330    0.33130    1.000
    H194     H        0.55320    0.39660    0.24720    1.000
    H195     H        0.70360    0.71150    0.60500    1.000
    H196     H        0.70760    0.73650    0.51980    1.000
    H197     H        0.57710    0.43280    0.48630    1.000
    H198     H        0.56710    0.43330    0.56970    1.000
    H199     H        0.59670    0.45390    0.41600    1.000
    H200     H        0.73910    0.50620    0.28350    1.000
    N40      N        0.62630    0.50690    0.40670    1.000
