data_functionalizedCrystal
_audit_creation_method	'EQeq! by Chris Wilmer'
_symmetry_space_group_name_H-M	'P1'
_symmetry_Int_Tables_number	1
_symmetry_cell_setting	triclinic
loop_
_symmetry_equiv_pos_as_xyz
  x,y,z
_cell_length_a	14.113
_cell_length_b	14.59
_cell_length_c	10.469
_cell_angle_alpha	90
_cell_angle_beta	90
_cell_angle_gamma	90
loop_
_atom_site_label
_atom_site_type_symbol
_atom_site_fract_x
_atom_site_fract_y
_atom_site_fract_z
_atom_site_charge
Mof_Co	Co	0.39692	0.1697	0.18264	1.179
Mof_Co	Co	0.11362	0.15152	0.11921	1.171
Mof_Zn	Zn	0.25361	0.03869	0.64991	1.233
Mof_Co	Co	0.24639	0.53869	0.14991	1.185
Mof_P 	P 	0.28224	0.13845	0.9264	0.451
Mof_H 	H 	0.264	0.228	0.904	-0.052
Mof_P 	P 	0.61566	0.13179	0.1696	0.425
Mof_H 	H 	0.682	0.14	0.275	-0.037
Mof_P 	P 	0.2235	0.08982	0.3649	0.458
Mof_H 	H 	0.234	0.9917	0.344	-0.03
Mof_P 	P 	0.399	0.38489	0.1213	0.432
Mof_H 	H 	0.342	0.361	0.016	-0.055
Mof_O 	O 	0.3728	0.1345	0.006	-0.424
Mof_O 	O 	0.303	0.0928	0.8005	-0.435
Mof_O 	O 	0.198	0.0958	0.9934	-0.433
Mof_O 	O 	0.1354	0.1228	0.2972	-0.433
Mof_O 	O 	0.6189	0.2175	0.0908	-0.475
Mof_O 	O 	0.5186	0.1138	0.2302	-0.401
Mof_O 	O 	0.6469	0.048	0.0925	-0.409
Mof_O 	O 	0.2189	0.1134	0.5062	-0.437
Mof_O 	O 	0.3144	0.115	0.3048	-0.463
Mof_O 	O 	0.355	0.4639	0.1956	-0.406
Mof_O 	O 	0.4957	0.4104	0.0702	-0.426
Mof_O 	O 	0.4031	0.3004	0.2033	-0.46
Mof_Zn	Zn	0.61362	0.34848	0.11921	1.226
Mof_Co	Co	0.60308	0.8303	0.68264	1.18
Mof_Co	Co	0.88638	0.84848	0.61921	1.173
Mof_Zn	Zn	0.74639	0.96131	0.14991	1.233
Mof_Co	Co	0.75361	0.46131	0.64991	1.186
Mof_P 	P 	0.71776	0.86155	0.4264	0.446
Mof_H 	H 	0.736	0.772	0.404	-0.054
Mof_P 	P 	0.38434	0.86821	0.6696	0.425
Mof_H 	H 	0.318	0.86	0.775	-0.036
Mof_P 	P 	0.7765	0.91018	0.8649	0.465
Mof_H 	H 	0.766	0.0083	0.844	-0.029
Mof_P 	P 	0.601	0.61511	0.6213	0.432
Mof_H 	H 	0.658	0.639	0.516	-0.053
Mof_O 	O 	0.6272	0.8655	0.506	-0.419
Mof_O 	O 	0.697	0.9072	0.3005	-0.436
Mof_O 	O 	0.802	0.9042	0.4934	-0.437
Mof_O 	O 	0.8646	0.8772	0.7972	-0.432
Mof_O 	O 	0.3811	0.7825	0.5908	-0.473
Mof_O 	O 	0.4814	0.8862	0.7302	-0.4
Mof_O 	O 	0.3531	0.952	0.5925	-0.407
Mof_O 	O 	0.7811	0.8866	0.0062	-0.444
Mof_O 	O 	0.6856	0.885	0.8048	-0.462
Mof_O 	O 	0.645	0.5361	0.6956	-0.405
Mof_O 	O 	0.5043	0.5896	0.5702	-0.423
Mof_O 	O 	0.5969	0.6996	0.7033	-0.459
Mof_Zn	Zn	0.38638	0.65152	0.61921	1.227
Mof_Co	Co	0.89692	0.3303	0.18264	1.18
Mof_P 	P 	0.78224	0.36155	0.9264	0.449
Mof_H 	H 	0.764	0.272	0.904	-0.052
Mof_P 	P 	0.11566	0.36821	0.1696	0.419
Mof_H 	H 	0.182	0.36	0.275	-0.036
Mof_P 	P 	0.7235	0.41018	0.3649	0.46
Mof_H 	H 	0.734	0.5083	0.344	-0.032
Mof_P 	P 	0.899	0.11511	0.1213	0.432
Mof_H 	H 	0.842	0.139	0.016	-0.054
Mof_O 	O 	0.8728	0.3655	0.006	-0.424
Mof_O 	O 	0.803	0.4072	0.8005	-0.418
Mof_O 	O 	0.698	0.4042	0.9934	-0.446
Mof_O 	O 	0.6354	0.3772	0.2972	-0.447
Mof_O 	O 	0.1189	0.2825	0.0908	-0.46
Mof_O 	O 	0.0186	0.3862	0.2302	-0.402
Mof_O 	O 	0.1469	0.452	0.0925	-0.397
Mof_O 	O 	0.7189	0.3866	0.5062	-0.421
Mof_O 	O 	0.8144	0.385	0.3048	-0.464
Mof_O 	O 	0.855	0.0361	0.1956	-0.418
Mof_O 	O 	0.9957	0.0896	0.0702	-0.408
Mof_O 	O 	0.9031	0.1996	0.2033	-0.458
Mof_Co	Co	0.10308	0.6697	0.68264	1.18
Mof_P 	P 	0.21776	0.63845	0.4264	0.445
Mof_H 	H 	0.236	0.728	0.404	-0.054
Mof_P 	P 	0.88434	0.63179	0.6696	0.419
Mof_H 	H 	0.818	0.64	0.775	-0.035
Mof_P 	P 	0.2765	0.58982	0.8649	0.466
Mof_H 	H 	0.266	0.4917	0.844	-0.029
Mof_P 	P 	0.101	0.88489	0.6213	0.433
Mof_H 	H 	0.158	0.861	0.516	-0.053
Mof_O 	O 	0.1272	0.6345	0.506	-0.419
Mof_O 	O 	0.197	0.5928	0.3005	-0.419
Mof_O 	O 	0.302	0.5958	0.4934	-0.449
Mof_O 	O 	0.3646	0.6228	0.7972	-0.446
Mof_O 	O 	0.8811	0.7175	0.5908	-0.458
Mof_O 	O 	0.9814	0.6138	0.7302	-0.401
Mof_O 	O 	0.8531	0.548	0.5925	-0.395
Mof_O 	O 	0.2811	0.6134	0.0062	-0.428
Mof_O 	O 	0.1856	0.615	0.8048	-0.462
Mof_O 	O 	0.145	0.9639	0.6956	-0.417
Mof_O 	O 	0.0043	0.9104	0.5702	-0.406
Mof_O 	O 	0.0969	0.8004	0.7033	-0.457
_end
