# CIF file generated by openbabel 3.1.0, see https://openbabel.org
data_I
_chemical_name_common 'image0'
_cell_length_a 22.0223
_cell_length_b 22.0223
_cell_length_c 21.628
_cell_angle_alpha 90
_cell_angle_beta 90
_cell_angle_gamma 90
_space_group_name_H-M_alt 'P 1'
_space_group_name_Hall 'P 1'
loop_
    _symmetry_equiv_pos_as_xyz
    x,y,z
loop_
    _atom_site_label
    _atom_site_type_symbol
    _atom_site_fract_x
    _atom_site_fract_y
    _atom_site_fract_z
    _atom_site_occupancy
    Cd1      Cd       0.20639    0.81047    0.07110    1.000
    O1       O        0.21190    0.70818    0.07630    1.000
    N1       N        0.18880    0.77114    0.97150    1.000
    C1       C        0.20420    0.67750    0.02520    1.000
    O2       O        0.25437    0.90900    0.06760    1.000
    C2       C        0.20870    0.61460    0.02100    1.000
    H1       H        0.21870    0.59200    0.05640    1.000
    O3       O        0.30600    0.82770    0.04000    1.000
    C3       C        0.19850    0.58400    0.96490    1.000
    H2       H        0.20150    0.54140    0.96390    1.000
    C4       C        0.18480    0.61320    0.91380    1.000
    H3       H        0.17770    0.59120    0.87730    1.000
    C5       C        0.18060    0.67750    0.91300    1.000
    C6       C        0.19110    0.70930    0.96890    1.000
    C7       C        0.16980    0.71210    0.85980    1.000
    H4       H        0.16250    0.69240    0.82200    1.000
    C8       C        0.16950    0.77480    0.86220    1.000
    H5       H        0.16340    0.79780    0.82610    1.000
    C9       C        0.17840    0.80350    0.91910    1.000
    C10      C        0.17890    0.86890    0.92760    1.000
    H6       H        0.19190    0.88280    0.96650    1.000
    C11      C        0.16320    0.91140    0.88710    1.000
    H7       H        0.14930    0.89840    0.84820    1.000
    C12      C        0.16570    0.97640    0.89800    1.000
    C13      C        0.13960    0.01670    0.85790    1.000
    H8       H        0.12080    0.00230    0.82170    1.000
    C14      C        0.14060    0.07900    0.87000    1.000
    H9       H        0.12020    0.10520    0.84270    1.000
    C15      C        0.19520    0.06360    0.95600    1.000
    H10      H        0.21730    0.07920    0.98970    1.000
    C16      C        0.19280    0.00190    0.94980    1.000
    H11      H        0.20950    0.97670    0.98050    1.000
    C17      C        0.30330    0.88320    0.05090    1.000
    C18      C        0.36080    0.92040    0.04460    1.000
    C19      C        0.41250    0.89160    0.02250    1.000
    H12      H        0.41050    0.85100    0.00950    1.000
    C20      C        0.46720    0.92330    0.01950    1.000
    H13      H        0.50220    0.90380    0.00450    1.000
    C21      C        0.47040    0.98420    0.03880    1.000
    C22      C        0.41780    0.01280    0.05700    1.000
    H14      H        0.41880    0.05420    0.06720    1.000
    C23      C        0.36260    0.98100    0.06050    1.000
    H15      H        0.32710    0.00100    0.07360    1.000
    N2       N        0.16940    0.10290    0.91900    1.000
    Cd2      Cd       0.70639    0.31047    0.57110    1.000
    O4       O        0.71190    0.20818    0.57630    1.000
    N3       N        0.68880    0.27114    0.47150    1.000
    C24      C        0.70420    0.17750    0.52520    1.000
    O5       O        0.75437    0.40900    0.56760    1.000
    C25      C        0.70870    0.11460    0.52100    1.000
    H16      H        0.71870    0.09200    0.55640    1.000
    O6       O        0.80600    0.32770    0.54000    1.000
    C26      C        0.69850    0.08400    0.46490    1.000
    H17      H        0.70150    0.04140    0.46390    1.000
    C27      C        0.68480    0.11320    0.41380    1.000
    H18      H        0.67770    0.09120    0.37730    1.000
    C28      C        0.68060    0.17750    0.41300    1.000
    C29      C        0.69110    0.20930    0.46890    1.000
    C30      C        0.66980    0.21210    0.35980    1.000
    H19      H        0.66250    0.19240    0.32200    1.000
    C31      C        0.66950    0.27480    0.36220    1.000
    H20      H        0.66340    0.29780    0.32610    1.000
    C32      C        0.67840    0.30350    0.41910    1.000
    C33      C        0.67890    0.36890    0.42760    1.000
    H21      H        0.69190    0.38280    0.46650    1.000
    C34      C        0.66320    0.41140    0.38710    1.000
    H22      H        0.64930    0.39840    0.34820    1.000
    C35      C        0.66570    0.47640    0.39800    1.000
    C36      C        0.63960    0.51670    0.35790    1.000
    H23      H        0.62080    0.50230    0.32170    1.000
    C37      C        0.64060    0.57900    0.37000    1.000
    H24      H        0.62020    0.60520    0.34270    1.000
    C38      C        0.69520    0.56360    0.45600    1.000
    H25      H        0.71730    0.57920    0.48970    1.000
    C39      C        0.69280    0.50190    0.44980    1.000
    H26      H        0.70950    0.47670    0.48050    1.000
    C40      C        0.80330    0.38320    0.55090    1.000
    C41      C        0.86080    0.42040    0.54460    1.000
    C42      C        0.91250    0.39160    0.52250    1.000
    H27      H        0.91050    0.35100    0.50950    1.000
    C43      C        0.96720    0.42330    0.51950    1.000
    H28      H        0.00220    0.40380    0.50450    1.000
    C44      C        0.97040    0.48420    0.53880    1.000
    C45      C        0.91780    0.51280    0.55700    1.000
    H29      H        0.91880    0.55420    0.56720    1.000
    C46      C        0.86260    0.48100    0.56050    1.000
    H30      H        0.82710    0.50100    0.57360    1.000
    N4       N        0.66940    0.60290    0.41900    1.000
    Cd3      Cd       0.79361    0.18953    0.07110    1.000
    O7       O        0.78810    0.29182    0.07630    1.000
    N5       N        0.81120    0.22886    0.97150    1.000
    C47      C        0.79580    0.32250    0.02520    1.000
    O8       O        0.74563    0.09100    0.06760    1.000
    C48      C        0.79130    0.38540    0.02100    1.000
    H31      H        0.78130    0.40800    0.05640    1.000
    O9       O        0.69400    0.17230    0.04000    1.000
    C49      C        0.80150    0.41600    0.96490    1.000
    H32      H        0.79850    0.45860    0.96390    1.000
    C50      C        0.81520    0.38680    0.91380    1.000
    H33      H        0.82230    0.40880    0.87730    1.000
    C51      C        0.81940    0.32250    0.91300    1.000
    C52      C        0.80890    0.29070    0.96890    1.000
    C53      C        0.83020    0.28790    0.85980    1.000
    H34      H        0.83750    0.30760    0.82200    1.000
    C54      C        0.83050    0.22520    0.86220    1.000
    H35      H        0.83660    0.20220    0.82610    1.000
    C55      C        0.82160    0.19650    0.91910    1.000
    C56      C        0.82110    0.13110    0.92760    1.000
    H36      H        0.80810    0.11720    0.96650    1.000
    C57      C        0.83680    0.08860    0.88710    1.000
    H37      H        0.85070    0.10160    0.84820    1.000
    C58      C        0.83430    0.02360    0.89800    1.000
    C59      C        0.86040    0.98330    0.85790    1.000
    H38      H        0.87920    0.99770    0.82170    1.000
    C60      C        0.85940    0.92100    0.87000    1.000
    H39      H        0.87980    0.89480    0.84270    1.000
    C61      C        0.80480    0.93640    0.95600    1.000
    H40      H        0.78270    0.92080    0.98970    1.000
    C62      C        0.80720    0.99810    0.94980    1.000
    H41      H        0.79050    0.02330    0.98050    1.000
    C63      C        0.69670    0.11680    0.05090    1.000
    C64      C        0.63920    0.07960    0.04460    1.000
    C65      C        0.58750    0.10840    0.02250    1.000
    H42      H        0.58950    0.14900    0.00950    1.000
    C66      C        0.53280    0.07670    0.01950    1.000
    H43      H        0.49780    0.09620    0.00450    1.000
    C67      C        0.52960    0.01580    0.03880    1.000
    C68      C        0.58220    0.98720    0.05700    1.000
    H44      H        0.58120    0.94580    0.06720    1.000
    C69      C        0.63740    0.01900    0.06050    1.000
    H45      H        0.67290    0.99900    0.07360    1.000
    N6       N        0.83060    0.89710    0.91900    1.000
    Cd4      Cd       0.29361    0.68953    0.57110    1.000
    O10      O        0.28810    0.79182    0.57630    1.000
    N7       N        0.31120    0.72886    0.47150    1.000
    C70      C        0.29580    0.82250    0.52520    1.000
    O11      O        0.24563    0.59100    0.56760    1.000
    C71      C        0.29130    0.88540    0.52100    1.000
    H46      H        0.28130    0.90800    0.55640    1.000
    O12      O        0.19400    0.67230    0.54000    1.000
    C72      C        0.30150    0.91600    0.46490    1.000
    H47      H        0.29850    0.95860    0.46390    1.000
    C73      C        0.31520    0.88680    0.41380    1.000
    H48      H        0.32230    0.90880    0.37730    1.000
    C74      C        0.31940    0.82250    0.41300    1.000
    C75      C        0.30890    0.79070    0.46890    1.000
    C76      C        0.33020    0.78790    0.35980    1.000
    H49      H        0.33750    0.80760    0.32200    1.000
    C77      C        0.33050    0.72520    0.36220    1.000
    H50      H        0.33660    0.70220    0.32610    1.000
    C78      C        0.32160    0.69650    0.41910    1.000
    C79      C        0.32110    0.63110    0.42760    1.000
    H51      H        0.30810    0.61720    0.46650    1.000
    C80      C        0.33680    0.58860    0.38710    1.000
    H52      H        0.35070    0.60160    0.34820    1.000
    C81      C        0.33430    0.52360    0.39800    1.000
    C82      C        0.36040    0.48330    0.35790    1.000
    H53      H        0.37920    0.49770    0.32170    1.000
    C83      C        0.35940    0.42100    0.37000    1.000
    H54      H        0.37980    0.39480    0.34270    1.000
    C84      C        0.30480    0.43640    0.45600    1.000
    H55      H        0.28270    0.42080    0.48970    1.000
    C85      C        0.30720    0.49810    0.44980    1.000
    H56      H        0.29050    0.52330    0.48050    1.000
    C86      C        0.19670    0.61680    0.55090    1.000
    C87      C        0.13920    0.57960    0.54460    1.000
    C88      C        0.08750    0.60840    0.52250    1.000
    H57      H        0.08950    0.64900    0.50950    1.000
    C89      C        0.03280    0.57670    0.51950    1.000
    H58      H        0.99780    0.59620    0.50450    1.000
    C90      C        0.02960    0.51580    0.53880    1.000
    C91      C        0.08220    0.48720    0.55700    1.000
    H59      H        0.08120    0.44580    0.56720    1.000
    C92      C        0.13740    0.51900    0.56050    1.000
    H60      H        0.17290    0.49900    0.57360    1.000
    N8       N        0.33060    0.39710    0.41900    1.000
    Cd5      Cd       0.81047    0.79361    0.92890    1.000
    O13      O        0.70818    0.78810    0.92370    1.000
    N9       N        0.77114    0.81120    0.02850    1.000
    C93      C        0.67750    0.79580    0.97480    1.000
    O14      O        0.90900    0.74563    0.93240    1.000
    C94      C        0.61460    0.79130    0.97900    1.000
    H61      H        0.59200    0.78130    0.94360    1.000
    O15      O        0.82770    0.69400    0.96000    1.000
    C95      C        0.58400    0.80150    0.03510    1.000
    H62      H        0.54140    0.79850    0.03610    1.000
    C96      C        0.61320    0.81520    0.08620    1.000
    H63      H        0.59120    0.82230    0.12270    1.000
    C97      C        0.67750    0.81940    0.08700    1.000
    C98      C        0.70930    0.80890    0.03110    1.000
    C99      C        0.71210    0.83020    0.14020    1.000
    H64      H        0.69240    0.83750    0.17800    1.000
    C100     C        0.77480    0.83050    0.13780    1.000
    H65      H        0.79780    0.83660    0.17390    1.000
    C101     C        0.80350    0.82160    0.08090    1.000
    C102     C        0.86890    0.82110    0.07240    1.000
    H66      H        0.88280    0.80810    0.03350    1.000
    C103     C        0.91140    0.83680    0.11290    1.000
    H67      H        0.89840    0.85070    0.15180    1.000
    C104     C        0.97640    0.83430    0.10200    1.000
    C105     C        0.01670    0.86040    0.14210    1.000
    H68      H        0.00230    0.87920    0.17830    1.000
    C106     C        0.07900    0.85940    0.13000    1.000
    H69      H        0.10520    0.87980    0.15730    1.000
    C107     C        0.06360    0.80480    0.04400    1.000
    H70      H        0.07920    0.78270    0.01030    1.000
    C108     C        0.00190    0.80720    0.05020    1.000
    H71      H        0.97670    0.79050    0.01950    1.000
    C109     C        0.88320    0.69670    0.94910    1.000
    C110     C        0.92040    0.63920    0.95540    1.000
    C111     C        0.89160    0.58750    0.97750    1.000
    H72      H        0.85100    0.58950    0.99050    1.000
    C112     C        0.92330    0.53280    0.98050    1.000
    H73      H        0.90380    0.49780    0.99550    1.000
    C113     C        0.98420    0.52960    0.96120    1.000
    C114     C        0.01280    0.58220    0.94300    1.000
    H74      H        0.05420    0.58120    0.93280    1.000
    C115     C        0.98100    0.63740    0.93950    1.000
    H75      H        0.00100    0.67290    0.92640    1.000
    N10      N        0.10290    0.83060    0.08100    1.000
    Cd6      Cd       0.31047    0.29361    0.42890    1.000
    O16      O        0.20818    0.28810    0.42370    1.000
    N11      N        0.27114    0.31120    0.52850    1.000
    C116     C        0.17750    0.29580    0.47480    1.000
    O17      O        0.40900    0.24563    0.43240    1.000
    C117     C        0.11460    0.29130    0.47900    1.000
    H76      H        0.09200    0.28130    0.44360    1.000
    O18      O        0.32770    0.19400    0.46000    1.000
    C118     C        0.08400    0.30150    0.53510    1.000
    H77      H        0.04140    0.29850    0.53610    1.000
    C119     C        0.11320    0.31520    0.58620    1.000
    H78      H        0.09120    0.32230    0.62270    1.000
    C120     C        0.17750    0.31940    0.58700    1.000
    C121     C        0.20930    0.30890    0.53110    1.000
    C122     C        0.21210    0.33020    0.64020    1.000
    H79      H        0.19240    0.33750    0.67800    1.000
    C123     C        0.27480    0.33050    0.63780    1.000
    H80      H        0.29780    0.33660    0.67390    1.000
    C124     C        0.30350    0.32160    0.58090    1.000
    C125     C        0.36890    0.32110    0.57240    1.000
    H81      H        0.38280    0.30810    0.53350    1.000
    C126     C        0.41140    0.33680    0.61290    1.000
    H82      H        0.39840    0.35070    0.65180    1.000
    C127     C        0.47640    0.33430    0.60200    1.000
    C128     C        0.51670    0.36040    0.64210    1.000
    H83      H        0.50230    0.37920    0.67830    1.000
    C129     C        0.57900    0.35940    0.63000    1.000
    H84      H        0.60520    0.37980    0.65730    1.000
    C130     C        0.56360    0.30480    0.54400    1.000
    H85      H        0.57920    0.28270    0.51030    1.000
    C131     C        0.50190    0.30720    0.55020    1.000
    H86      H        0.47670    0.29050    0.51950    1.000
    C132     C        0.38320    0.19670    0.44910    1.000
    C133     C        0.42040    0.13920    0.45540    1.000
    C134     C        0.39160    0.08750    0.47750    1.000
    H87      H        0.35100    0.08950    0.49050    1.000
    C135     C        0.42330    0.03280    0.48050    1.000
    H88      H        0.40380    0.99780    0.49550    1.000
    C136     C        0.48420    0.02960    0.46120    1.000
    C137     C        0.51280    0.08220    0.44300    1.000
    H89      H        0.55420    0.08120    0.43280    1.000
    C138     C        0.48100    0.13740    0.43950    1.000
    H90      H        0.50100    0.17290    0.42640    1.000
    N12      N        0.60290    0.33060    0.58100    1.000
    Cd7      Cd       0.18953    0.20639    0.92890    1.000
    O19      O        0.29182    0.21190    0.92370    1.000
    N13      N        0.22886    0.18880    0.02850    1.000
    C139     C        0.32250    0.20420    0.97480    1.000
    O20      O        0.09100    0.25437    0.93240    1.000
    C140     C        0.38540    0.20870    0.97900    1.000
    H91      H        0.40800    0.21870    0.94360    1.000
    O21      O        0.17230    0.30600    0.96000    1.000
    C141     C        0.41600    0.19850    0.03510    1.000
    H92      H        0.45860    0.20150    0.03610    1.000
    C142     C        0.38680    0.18480    0.08620    1.000
    H93      H        0.40880    0.17770    0.12270    1.000
    C143     C        0.32250    0.18060    0.08700    1.000
    C144     C        0.29070    0.19110    0.03110    1.000
    C145     C        0.28790    0.16980    0.14020    1.000
    H94      H        0.30760    0.16250    0.17800    1.000
    C146     C        0.22520    0.16950    0.13780    1.000
    H95      H        0.20220    0.16340    0.17390    1.000
    C147     C        0.19650    0.17840    0.08090    1.000
    C148     C        0.13110    0.17890    0.07240    1.000
    H96      H        0.11720    0.19190    0.03350    1.000
    C149     C        0.08860    0.16320    0.11290    1.000
    H97      H        0.10160    0.14930    0.15180    1.000
    C150     C        0.02360    0.16570    0.10200    1.000
    C151     C        0.98330    0.13960    0.14210    1.000
    H98      H        0.99770    0.12080    0.17830    1.000
    C152     C        0.92100    0.14060    0.13000    1.000
    H99      H        0.89480    0.12020    0.15730    1.000
    C153     C        0.93640    0.19520    0.04400    1.000
    H100     H        0.92080    0.21730    0.01030    1.000
    C154     C        0.99810    0.19280    0.05020    1.000
    H101     H        0.02330    0.20950    0.01950    1.000
    C155     C        0.11680    0.30330    0.94910    1.000
    C156     C        0.07960    0.36080    0.95540    1.000
    C157     C        0.10840    0.41250    0.97750    1.000
    H102     H        0.14900    0.41050    0.99050    1.000
    C158     C        0.07670    0.46720    0.98050    1.000
    H103     H        0.09620    0.50220    0.99550    1.000
    C159     C        0.01580    0.47040    0.96120    1.000
    C160     C        0.98720    0.41780    0.94300    1.000
    H104     H        0.94580    0.41880    0.93280    1.000
    C161     C        0.01900    0.36260    0.93950    1.000
    H105     H        0.99900    0.32710    0.92640    1.000
    N14      N        0.89710    0.16940    0.08100    1.000
    Cd8      Cd       0.68953    0.70639    0.42890    1.000
    O22      O        0.79182    0.71190    0.42370    1.000
    N15      N        0.72886    0.68880    0.52850    1.000
    C162     C        0.82250    0.70420    0.47480    1.000
    O23      O        0.59100    0.75437    0.43240    1.000
    C163     C        0.88540    0.70870    0.47900    1.000
    H106     H        0.90800    0.71870    0.44360    1.000
    O24      O        0.67230    0.80600    0.46000    1.000
    C164     C        0.91600    0.69850    0.53510    1.000
    H107     H        0.95860    0.70150    0.53610    1.000
    C165     C        0.88680    0.68480    0.58620    1.000
    H108     H        0.90880    0.67770    0.62270    1.000
    C166     C        0.82250    0.68060    0.58700    1.000
    C167     C        0.79070    0.69110    0.53110    1.000
    C168     C        0.78790    0.66980    0.64020    1.000
    H109     H        0.80760    0.66250    0.67800    1.000
    C169     C        0.72520    0.66950    0.63780    1.000
    H110     H        0.70220    0.66340    0.67390    1.000
    C170     C        0.69650    0.67840    0.58090    1.000
    C171     C        0.63110    0.67890    0.57240    1.000
    H111     H        0.61720    0.69190    0.53350    1.000
    C172     C        0.58860    0.66320    0.61290    1.000
    H112     H        0.60160    0.64930    0.65180    1.000
    C173     C        0.52360    0.66570    0.60200    1.000
    C174     C        0.48330    0.63960    0.64210    1.000
    H113     H        0.49770    0.62080    0.67830    1.000
    C175     C        0.42100    0.64060    0.63000    1.000
    H114     H        0.39480    0.62020    0.65730    1.000
    C176     C        0.43640    0.69520    0.54400    1.000
    H115     H        0.42080    0.71730    0.51030    1.000
    C177     C        0.49810    0.69280    0.55020    1.000
    H116     H        0.52330    0.70950    0.51950    1.000
    C178     C        0.61680    0.80330    0.44910    1.000
    C179     C        0.57960    0.86080    0.45540    1.000
    C180     C        0.60840    0.91250    0.47750    1.000
    H117     H        0.64900    0.91050    0.49050    1.000
    C181     C        0.57670    0.96720    0.48050    1.000
    H118     H        0.59620    0.00220    0.49550    1.000
    C182     C        0.51580    0.97040    0.46120    1.000
    C183     C        0.48720    0.91780    0.44300    1.000
    H119     H        0.44580    0.91880    0.43280    1.000
    C184     C        0.51900    0.86260    0.43950    1.000
    H120     H        0.49900    0.82710    0.42640    1.000
    N16      N        0.39710    0.66940    0.58100    1.000
    Cd9      Cd       0.29361    0.81047    0.67890    1.000
    O25      O        0.28810    0.70818    0.67370    1.000
    N17      N        0.31120    0.77114    0.77850    1.000
    C185     C        0.29580    0.67750    0.72480    1.000
    O26      O        0.24563    0.90900    0.68240    1.000
    C186     C        0.29130    0.61460    0.72900    1.000
    H121     H        0.28130    0.59200    0.69360    1.000
    O27      O        0.19400    0.82770    0.71000    1.000
    C187     C        0.30150    0.58400    0.78510    1.000
    H122     H        0.29850    0.54140    0.78610    1.000
    C188     C        0.31520    0.61320    0.83620    1.000
    H123     H        0.32230    0.59120    0.87270    1.000
    C189     C        0.31940    0.67750    0.83700    1.000
    C190     C        0.30890    0.70930    0.78110    1.000
    C191     C        0.33020    0.71210    0.89020    1.000
    H124     H        0.33750    0.69240    0.92800    1.000
    C192     C        0.33050    0.77480    0.88780    1.000
    H125     H        0.33660    0.79780    0.92390    1.000
    C193     C        0.32160    0.80350    0.83090    1.000
    C194     C        0.32110    0.86890    0.82240    1.000
    H126     H        0.30810    0.88280    0.78350    1.000
    C195     C        0.33680    0.91140    0.86290    1.000
    H127     H        0.35070    0.89840    0.90180    1.000
    C196     C        0.33430    0.97640    0.85200    1.000
    C197     C        0.36040    0.01670    0.89210    1.000
    H128     H        0.37920    0.00230    0.92830    1.000
    C198     C        0.35940    0.07900    0.88000    1.000
    H129     H        0.37980    0.10520    0.90730    1.000
    C199     C        0.30480    0.06360    0.79400    1.000
    H130     H        0.28270    0.07920    0.76030    1.000
    C200     C        0.30720    0.00190    0.80020    1.000
    H131     H        0.29050    0.97670    0.76950    1.000
    C201     C        0.19670    0.88320    0.69910    1.000
    C202     C        0.13920    0.92040    0.70540    1.000
    C203     C        0.08750    0.89160    0.72750    1.000
    H132     H        0.08950    0.85100    0.74050    1.000
    C204     C        0.03280    0.92330    0.73050    1.000
    H133     H        0.99780    0.90380    0.74550    1.000
    C205     C        0.02960    0.98420    0.71120    1.000
    C206     C        0.08220    0.01280    0.69300    1.000
    H134     H        0.08120    0.05420    0.68280    1.000
    C207     C        0.13740    0.98100    0.68950    1.000
    H135     H        0.17290    0.00100    0.67640    1.000
    N18      N        0.33060    0.10290    0.83100    1.000
    Cd10     Cd       0.79361    0.31047    0.17890    1.000
    O28      O        0.78810    0.20818    0.17370    1.000
    N19      N        0.81120    0.27114    0.27850    1.000
    C208     C        0.79580    0.17750    0.22480    1.000
    O29      O        0.74563    0.40900    0.18240    1.000
    C209     C        0.79130    0.11460    0.22900    1.000
    H136     H        0.78130    0.09200    0.19360    1.000
    O30      O        0.69400    0.32770    0.21000    1.000
    C210     C        0.80150    0.08400    0.28510    1.000
    H137     H        0.79850    0.04140    0.28610    1.000
    C211     C        0.81520    0.11320    0.33620    1.000
    H138     H        0.82230    0.09120    0.37270    1.000
    C212     C        0.81940    0.17750    0.33700    1.000
    C213     C        0.80890    0.20930    0.28110    1.000
    C214     C        0.83020    0.21210    0.39020    1.000
    H139     H        0.83750    0.19240    0.42800    1.000
    C215     C        0.83050    0.27480    0.38780    1.000
    H140     H        0.83660    0.29780    0.42390    1.000
    C216     C        0.82160    0.30350    0.33090    1.000
    C217     C        0.82110    0.36890    0.32240    1.000
    H141     H        0.80810    0.38280    0.28350    1.000
    C218     C        0.83680    0.41140    0.36290    1.000
    H142     H        0.85070    0.39840    0.40180    1.000
    C219     C        0.83430    0.47640    0.35200    1.000
    C220     C        0.86040    0.51670    0.39210    1.000
    H143     H        0.87920    0.50230    0.42830    1.000
    C221     C        0.85940    0.57900    0.38000    1.000
    H144     H        0.87980    0.60520    0.40730    1.000
    C222     C        0.80480    0.56360    0.29400    1.000
    H145     H        0.78270    0.57920    0.26030    1.000
    C223     C        0.80720    0.50190    0.30020    1.000
    H146     H        0.79050    0.47670    0.26950    1.000
    C224     C        0.69670    0.38320    0.19910    1.000
    C225     C        0.63920    0.42040    0.20540    1.000
    C226     C        0.58750    0.39160    0.22750    1.000
    H147     H        0.58950    0.35100    0.24050    1.000
    C227     C        0.53280    0.42330    0.23050    1.000
    H148     H        0.49780    0.40380    0.24550    1.000
    C228     C        0.52960    0.48420    0.21120    1.000
    C229     C        0.58220    0.51280    0.19300    1.000
    H149     H        0.58120    0.55420    0.18280    1.000
    C230     C        0.63740    0.48100    0.18950    1.000
    H150     H        0.67290    0.50100    0.17640    1.000
    N20      N        0.83060    0.60290    0.33100    1.000
    Cd11     Cd       0.70639    0.18953    0.67890    1.000
    O31      O        0.71190    0.29182    0.67370    1.000
    N21      N        0.68880    0.22886    0.77850    1.000
    C231     C        0.70420    0.32250    0.72480    1.000
    O32      O        0.75437    0.09100    0.68240    1.000
    C232     C        0.70870    0.38540    0.72900    1.000
    H151     H        0.71870    0.40800    0.69360    1.000
    O33      O        0.80600    0.17230    0.71000    1.000
    C233     C        0.69850    0.41600    0.78510    1.000
    H152     H        0.70150    0.45860    0.78610    1.000
    C234     C        0.68480    0.38680    0.83620    1.000
    H153     H        0.67770    0.40880    0.87270    1.000
    C235     C        0.68060    0.32250    0.83700    1.000
    C236     C        0.69110    0.29070    0.78110    1.000
    C237     C        0.66980    0.28790    0.89020    1.000
    H154     H        0.66250    0.30760    0.92800    1.000
    C238     C        0.66950    0.22520    0.88780    1.000
    H155     H        0.66340    0.20220    0.92390    1.000
    C239     C        0.67840    0.19650    0.83090    1.000
    C240     C        0.67890    0.13110    0.82240    1.000
    H156     H        0.69190    0.11720    0.78350    1.000
    C241     C        0.66320    0.08860    0.86290    1.000
    H157     H        0.64930    0.10160    0.90180    1.000
    C242     C        0.66570    0.02360    0.85200    1.000
    C243     C        0.63960    0.98330    0.89210    1.000
    H158     H        0.62080    0.99770    0.92830    1.000
    C244     C        0.64060    0.92100    0.88000    1.000
    H159     H        0.62020    0.89480    0.90730    1.000
    C245     C        0.69520    0.93640    0.79400    1.000
    H160     H        0.71730    0.92080    0.76030    1.000
    C246     C        0.69280    0.99810    0.80020    1.000
    H161     H        0.70950    0.02330    0.76950    1.000
    C247     C        0.80330    0.11680    0.69910    1.000
    C248     C        0.86080    0.07960    0.70540    1.000
    C249     C        0.91250    0.10840    0.72750    1.000
    H162     H        0.91050    0.14900    0.74050    1.000
    C250     C        0.96720    0.07670    0.73050    1.000
    H163     H        0.00220    0.09620    0.74550    1.000
    C251     C        0.97040    0.01580    0.71120    1.000
    C252     C        0.91780    0.98720    0.69300    1.000
    H164     H        0.91880    0.94580    0.68280    1.000
    C253     C        0.86260    0.01900    0.68950    1.000
    H165     H        0.82710    0.99900    0.67640    1.000
    N22      N        0.66940    0.89710    0.83100    1.000
    Cd12     Cd       0.20639    0.68953    0.17890    1.000
    O34      O        0.21190    0.79182    0.17370    1.000
    N23      N        0.18880    0.72886    0.27850    1.000
    C254     C        0.20420    0.82250    0.22480    1.000
    O35      O        0.25437    0.59100    0.18240    1.000
    C255     C        0.20870    0.88540    0.22900    1.000
    H166     H        0.21870    0.90800    0.19360    1.000
    O36      O        0.30600    0.67230    0.21000    1.000
    C256     C        0.19850    0.91600    0.28510    1.000
    H167     H        0.20150    0.95860    0.28610    1.000
    C257     C        0.18480    0.88680    0.33620    1.000
    H168     H        0.17770    0.90880    0.37270    1.000
    C258     C        0.18060    0.82250    0.33700    1.000
    C259     C        0.19110    0.79070    0.28110    1.000
    C260     C        0.16980    0.78790    0.39020    1.000
    H169     H        0.16250    0.80760    0.42800    1.000
    C261     C        0.16950    0.72520    0.38780    1.000
    H170     H        0.16340    0.70220    0.42390    1.000
    C262     C        0.17840    0.69650    0.33090    1.000
    C263     C        0.17890    0.63110    0.32240    1.000
    H171     H        0.19190    0.61720    0.28350    1.000
    C264     C        0.16320    0.58860    0.36290    1.000
    H172     H        0.14930    0.60160    0.40180    1.000
    C265     C        0.16570    0.52360    0.35200    1.000
    C266     C        0.13960    0.48330    0.39210    1.000
    H173     H        0.12080    0.49770    0.42830    1.000
    C267     C        0.14060    0.42100    0.38000    1.000
    H174     H        0.12020    0.39480    0.40730    1.000
    C268     C        0.19520    0.43640    0.29400    1.000
    H175     H        0.21730    0.42080    0.26030    1.000
    C269     C        0.19280    0.49810    0.30020    1.000
    H176     H        0.20950    0.52330    0.26950    1.000
    C270     C        0.30330    0.61680    0.19910    1.000
    C271     C        0.36080    0.57960    0.20540    1.000
    C272     C        0.41250    0.60840    0.22750    1.000
    H177     H        0.41050    0.64900    0.24050    1.000
    C273     C        0.46720    0.57670    0.23050    1.000
    H178     H        0.50220    0.59620    0.24550    1.000
    C274     C        0.47040    0.51580    0.21120    1.000
    C275     C        0.41780    0.48720    0.19300    1.000
    H179     H        0.41880    0.44580    0.18280    1.000
    C276     C        0.36260    0.51900    0.18950    1.000
    H180     H        0.32710    0.49900    0.17640    1.000
    N24      N        0.16940    0.39710    0.33100    1.000
    Cd13     Cd       0.68953    0.79361    0.82110    1.000
    O37      O        0.79182    0.78810    0.82630    1.000
    N25      N        0.72886    0.81120    0.72150    1.000
    C277     C        0.82250    0.79580    0.77520    1.000
    O38      O        0.59100    0.74563    0.81760    1.000
    C278     C        0.88540    0.79130    0.77100    1.000
    H181     H        0.90800    0.78130    0.80640    1.000
    O39      O        0.67230    0.69400    0.79000    1.000
    C279     C        0.91600    0.80150    0.71490    1.000
    H182     H        0.95860    0.79850    0.71390    1.000
    C280     C        0.88680    0.81520    0.66380    1.000
    H183     H        0.90880    0.82230    0.62730    1.000
    C281     C        0.82250    0.81940    0.66300    1.000
    C282     C        0.79070    0.80890    0.71890    1.000
    C283     C        0.78790    0.83020    0.60980    1.000
    H184     H        0.80760    0.83750    0.57200    1.000
    C284     C        0.72520    0.83050    0.61220    1.000
    H185     H        0.70220    0.83660    0.57610    1.000
    C285     C        0.69650    0.82160    0.66910    1.000
    C286     C        0.63110    0.82110    0.67760    1.000
    H186     H        0.61720    0.80810    0.71650    1.000
    C287     C        0.58860    0.83680    0.63710    1.000
    H187     H        0.60160    0.85070    0.59820    1.000
    C288     C        0.52360    0.83430    0.64800    1.000
    C289     C        0.48330    0.86040    0.60790    1.000
    H188     H        0.49770    0.87920    0.57170    1.000
    C290     C        0.42100    0.85940    0.62000    1.000
    H189     H        0.39480    0.87980    0.59270    1.000
    C291     C        0.43640    0.80480    0.70600    1.000
    H190     H        0.42080    0.78270    0.73970    1.000
    C292     C        0.49810    0.80720    0.69980    1.000
    H191     H        0.52330    0.79050    0.73050    1.000
    C293     C        0.61680    0.69670    0.80090    1.000
    C294     C        0.57960    0.63920    0.79460    1.000
    C295     C        0.60840    0.58750    0.77250    1.000
    H192     H        0.64900    0.58950    0.75950    1.000
    C296     C        0.57670    0.53280    0.76950    1.000
    H193     H        0.59620    0.49780    0.75450    1.000
    C297     C        0.51580    0.52960    0.78880    1.000
    C298     C        0.48720    0.58220    0.80700    1.000
    H194     H        0.44580    0.58120    0.81720    1.000
    C299     C        0.51900    0.63740    0.81050    1.000
    H195     H        0.49900    0.67290    0.82360    1.000
    N26      N        0.39710    0.83060    0.66900    1.000
    Cd14     Cd       0.18953    0.29361    0.32110    1.000
    O40      O        0.29182    0.28810    0.32630    1.000
    N27      N        0.22886    0.31120    0.22150    1.000
    C300     C        0.32250    0.29580    0.27520    1.000
    O41      O        0.09100    0.24563    0.31760    1.000
    C301     C        0.38540    0.29130    0.27100    1.000
    H196     H        0.40800    0.28130    0.30640    1.000
    O42      O        0.17230    0.19400    0.29000    1.000
    C302     C        0.41600    0.30150    0.21490    1.000
    H197     H        0.45860    0.29850    0.21390    1.000
    C303     C        0.38680    0.31520    0.16380    1.000
    H198     H        0.40880    0.32230    0.12730    1.000
    C304     C        0.32250    0.31940    0.16300    1.000
    C305     C        0.29070    0.30890    0.21890    1.000
    C306     C        0.28790    0.33020    0.10980    1.000
    H199     H        0.30760    0.33750    0.07200    1.000
    C307     C        0.22520    0.33050    0.11220    1.000
    H200     H        0.20220    0.33660    0.07610    1.000
    C308     C        0.19650    0.32160    0.16910    1.000
    C309     C        0.13110    0.32110    0.17760    1.000
    H201     H        0.11720    0.30810    0.21650    1.000
    C310     C        0.08860    0.33680    0.13710    1.000
    H202     H        0.10160    0.35070    0.09820    1.000
    C311     C        0.02360    0.33430    0.14800    1.000
    C312     C        0.98330    0.36040    0.10790    1.000
    H203     H        0.99770    0.37920    0.07170    1.000
    C313     C        0.92100    0.35940    0.12000    1.000
    H204     H        0.89480    0.37980    0.09270    1.000
    C314     C        0.93640    0.30480    0.20600    1.000
    H205     H        0.92080    0.28270    0.23970    1.000
    C315     C        0.99810    0.30720    0.19980    1.000
    H206     H        0.02330    0.29050    0.23050    1.000
    C316     C        0.11680    0.19670    0.30090    1.000
    C317     C        0.07960    0.13920    0.29460    1.000
    C318     C        0.10840    0.08750    0.27250    1.000
    H207     H        0.14900    0.08950    0.25950    1.000
    C319     C        0.07670    0.03280    0.26950    1.000
    H208     H        0.09620    0.99780    0.25450    1.000
    C320     C        0.01580    0.02960    0.28880    1.000
    C321     C        0.98720    0.08220    0.30700    1.000
    H209     H        0.94580    0.08120    0.31720    1.000
    C322     C        0.01900    0.13740    0.31050    1.000
    H210     H        0.99900    0.17290    0.32360    1.000
    N28      N        0.89710    0.33060    0.16900    1.000
    Cd15     Cd       0.31047    0.20639    0.82110    1.000
    O43      O        0.20818    0.21190    0.82630    1.000
    N29      N        0.27114    0.18880    0.72150    1.000
    C323     C        0.17750    0.20420    0.77520    1.000
    O44      O        0.40900    0.25437    0.81760    1.000
    C324     C        0.11460    0.20870    0.77100    1.000
    H211     H        0.09200    0.21870    0.80640    1.000
    O45      O        0.32770    0.30600    0.79000    1.000
    C325     C        0.08400    0.19850    0.71490    1.000
    H212     H        0.04140    0.20150    0.71390    1.000
    C326     C        0.11320    0.18480    0.66380    1.000
    H213     H        0.09120    0.17770    0.62730    1.000
    C327     C        0.17750    0.18060    0.66300    1.000
    C328     C        0.20930    0.19110    0.71890    1.000
    C329     C        0.21210    0.16980    0.60980    1.000
    H214     H        0.19240    0.16250    0.57200    1.000
    C330     C        0.27480    0.16950    0.61220    1.000
    H215     H        0.29780    0.16340    0.57610    1.000
    C331     C        0.30350    0.17840    0.66910    1.000
    C332     C        0.36890    0.17890    0.67760    1.000
    H216     H        0.38280    0.19190    0.71650    1.000
    C333     C        0.41140    0.16320    0.63710    1.000
    H217     H        0.39840    0.14930    0.59820    1.000
    C334     C        0.47640    0.16570    0.64800    1.000
    C335     C        0.51670    0.13960    0.60790    1.000
    H218     H        0.50230    0.12080    0.57170    1.000
    C336     C        0.57900    0.14060    0.62000    1.000
    H219     H        0.60520    0.12020    0.59270    1.000
    C337     C        0.56360    0.19520    0.70600    1.000
    H220     H        0.57920    0.21730    0.73970    1.000
    C338     C        0.50190    0.19280    0.69980    1.000
    H221     H        0.47670    0.20950    0.73050    1.000
    C339     C        0.38320    0.30330    0.80090    1.000
    C340     C        0.42040    0.36080    0.79460    1.000
    C341     C        0.39160    0.41250    0.77250    1.000
    H222     H        0.35100    0.41050    0.75950    1.000
    C342     C        0.42330    0.46720    0.76950    1.000
    H223     H        0.40380    0.50220    0.75450    1.000
    C343     C        0.48420    0.47040    0.78880    1.000
    C344     C        0.51280    0.41780    0.80700    1.000
    H224     H        0.55420    0.41880    0.81720    1.000
    C345     C        0.48100    0.36260    0.81050    1.000
    H225     H        0.50100    0.32710    0.82360    1.000
    N30      N        0.60290    0.16940    0.66900    1.000
    Cd16     Cd       0.81047    0.70639    0.32110    1.000
    O46      O        0.70818    0.71190    0.32630    1.000
    N31      N        0.77114    0.68880    0.22150    1.000
    C346     C        0.67750    0.70420    0.27520    1.000
    O47      O        0.90900    0.75437    0.31760    1.000
    C347     C        0.61460    0.70870    0.27100    1.000
    H226     H        0.59200    0.71870    0.30640    1.000
    O48      O        0.82770    0.80600    0.29000    1.000
    C348     C        0.58400    0.69850    0.21490    1.000
    H227     H        0.54140    0.70150    0.21390    1.000
    C349     C        0.61320    0.68480    0.16380    1.000
    H228     H        0.59120    0.67770    0.12730    1.000
    C350     C        0.67750    0.68060    0.16300    1.000
    C351     C        0.70930    0.69110    0.21890    1.000
    C352     C        0.71210    0.66980    0.10980    1.000
    H229     H        0.69240    0.66250    0.07200    1.000
    C353     C        0.77480    0.66950    0.11220    1.000
    H230     H        0.79780    0.66340    0.07610    1.000
    C354     C        0.80350    0.67840    0.16910    1.000
    C355     C        0.86890    0.67890    0.17760    1.000
    H231     H        0.88280    0.69190    0.21650    1.000
    C356     C        0.91140    0.66320    0.13710    1.000
    H232     H        0.89840    0.64930    0.09820    1.000
    C357     C        0.97640    0.66570    0.14800    1.000
    C358     C        0.01670    0.63960    0.10790    1.000
    H233     H        0.00230    0.62080    0.07170    1.000
    C359     C        0.07900    0.64060    0.12000    1.000
    H234     H        0.10520    0.62020    0.09270    1.000
    C360     C        0.06360    0.69520    0.20600    1.000
    H235     H        0.07920    0.71730    0.23970    1.000
    C361     C        0.00190    0.69280    0.19980    1.000
    H236     H        0.97670    0.70950    0.23050    1.000
    C362     C        0.88320    0.80330    0.30090    1.000
    C363     C        0.92040    0.86080    0.29460    1.000
    C364     C        0.89160    0.91250    0.27250    1.000
    H237     H        0.85100    0.91050    0.25950    1.000
    C365     C        0.92330    0.96720    0.26950    1.000
    H238     H        0.90380    0.00220    0.25450    1.000
    C366     C        0.98420    0.97040    0.28880    1.000
    C367     C        0.01280    0.91780    0.30700    1.000
    H239     H        0.05420    0.91880    0.31720    1.000
    C368     C        0.98100    0.86260    0.31050    1.000
    H240     H        0.00100    0.82710    0.32360    1.000
    N32      N        0.10290    0.66940    0.16900    1.000
