# CIF file generated by openbabel 3.1.0, see https://openbabel.org
data_I
_chemical_name_common 'WEGDIX_charged'
_cell_length_a 7.8398
_cell_length_b 14.425
_cell_length_c 14.4884
_cell_angle_alpha 90.76
_cell_angle_beta 97.907
_cell_angle_gamma 105.506
_space_group_name_H-M_alt 'P 1'
_space_group_name_Hall 'P 1'
loop_
    _symmetry_equiv_pos_as_xyz
    x,y,z
loop_
    _atom_site_label
    _atom_site_type_symbol
    _atom_site_fract_x
    _atom_site_fract_y
    _atom_site_fract_z
    _atom_site_occupancy
    Cd1      Cd       0.72442    0.96382    0.99341    1.000
    Cd2      Cd       0.55861    0.47297    0.64643    1.000
    Cd3      Cd       0.27558    0.03618    0.00659    1.000
    Cd4      Cd       0.44139    0.52703    0.35357    1.000
    H1       H        0.61920    0.75920    0.85440    1.000
    H2       H        0.01120    0.63120    0.90440    1.000
    H3       H        0.15220    0.74910    0.01960    1.000
    H4       H        0.64330    0.77970    0.14050    1.000
    H5       H        0.43300    0.86660    0.34830    1.000
    H6       H        0.46700    0.01490    0.28340    1.000
    H7       H        0.38080    0.24080    0.14560    1.000
    H8       H        0.98880    0.36880    0.09560    1.000
    H9       H        0.84780    0.25090    0.98040    1.000
    H10      H        0.35670    0.22030    0.85950    1.000
    H11      H        0.56700    0.13340    0.65170    1.000
    H12      H        0.53300    0.98510    0.71660    1.000
    C1       C        0.72810    0.75690    0.88770    1.000
    C2       C        0.79640    0.68310    0.86600    1.000
    C3       C        0.95980    0.68030    0.91680    1.000
    C4       C        0.04370    0.75060    0.98520    1.000
    C5       C        0.96710    0.82410    0.00330    1.000
    C6       C        0.70110    0.60780    0.78920    1.000
    C7       C        0.60450    0.82690    0.16920    1.000
    C8       C        0.53250    0.80570    0.25020    1.000
    C9       C        0.48090    0.87770    0.29300    1.000
    C10      C        0.49990    0.96600    0.25410    1.000
    C11      C        0.56950    0.98090    0.16990    1.000
    C12      C        0.50660    0.70680    0.28730    1.000
    C13      C        0.27190    0.24310    0.11230    1.000
    C14      C        0.20360    0.31690    0.13400    1.000
    C15      C        0.04020    0.31970    0.08320    1.000
    C16      C        0.95630    0.24940    0.01480    1.000
    C17      C        0.03290    0.17590    0.99670    1.000
    C18      C        0.29890    0.39220    0.21080    1.000
    C19      C        0.39550    0.17310    0.83080    1.000
    C20      C        0.46750    0.19430    0.74980    1.000
    C21      C        0.51910    0.12230    0.70700    1.000
    C22      C        0.50010    0.03400    0.74590    1.000
    C23      C        0.43050    0.01910    0.83010    1.000
    C24      C        0.49340    0.29320    0.71270    1.000
    S1       S        0.06364    0.91431    0.09086    1.000
    S2       S        0.59361    0.08717    0.11109    1.000
    S3       S        0.78248    0.56658    0.50273    1.000
    S4       S        0.93636    0.08569    0.90914    1.000
    S5       S        0.40639    0.91283    0.88891    1.000
    S6       S        0.21752    0.43342    0.49727    1.000
    N1       N        0.80900    0.82640    0.95430    1.000
    N2       N        0.62190    0.91110    0.12920    1.000
    N3       N        0.19100    0.17360    0.04570    1.000
    N4       N        0.37810    0.08890    0.87080    1.000
    O1       O        0.77330    0.54470    0.77030    1.000
    O2       O        0.55430    0.61200    0.74730    1.000
    O3       O        0.58140    0.65120    0.25480    1.000
    O4       O        0.41100    0.68450    0.35000    1.000
    O5       O        0.63080    0.59650    0.53090    1.000
    O6       O        0.81320    0.48970    0.56160    1.000
    O7       O        0.73070    0.52880    0.40359    1.000
    O8       O        0.94180    0.64790    0.50830    1.000
    O9       O        0.22670    0.45530    0.22970    1.000
    O10      O        0.44570    0.38800    0.25270    1.000
    O11      O        0.41860    0.34880    0.74520    1.000
    O12      O        0.58900    0.31550    0.65000    1.000
    O13      O        0.36920    0.40350    0.46910    1.000
    O14      O        0.18680    0.51030    0.43840    1.000
    O15      O        0.26930    0.47120    0.59641    1.000
    O16      O        0.05820    0.35210    0.49170    1.000
    H13      H        0.89720    0.75310    0.30810    1.000
    H14      H        0.08010    0.78950    0.37440    1.000
    H15      H        0.07650    0.78500    0.26590    1.000
    H16      H        0.06470    0.63210    0.19160    1.000
    H17      H        0.98840    0.53870    0.24350    1.000
    H18      H        0.86520    0.60480    0.20970    1.000
    H19      H        0.97000    0.62610    0.36180    1.000
    H20      H        0.15180    0.65920    0.34090    1.000
    C25      C        0.02140    0.75430    0.31690    1.000
    C26      C        0.98480    0.60400    0.23450    1.000
    N5       N        0.03720    0.65710    0.32020    1.000
    H21      H        0.70320    0.30460    0.23820    1.000
    H22      H        0.89900    0.36600    0.27450    1.000
    H23      H        0.84080    0.25570    0.29210    1.000
    H24      H        0.67900    0.20620    0.42810    1.000
    H25      H        0.58570    0.27850    0.46770    1.000
    H26      H        0.51900    0.23190    0.36630    1.000
    H27      H        0.69560    0.38450    0.36890    1.000
    H28      H        0.84440    0.35570    0.41970    1.000
    C27      C        0.80220    0.31350    0.28760    1.000
    C28      C        0.62210    0.25640    0.41270    1.000
    N6       N        0.74610    0.33550    0.37670    1.000
    H29      H        0.10280    0.24690    0.69190    1.000
    H30      H        0.91990    0.21050    0.62560    1.000
    H31      H        0.92350    0.21500    0.73410    1.000
    H32      H        0.93530    0.36790    0.80840    1.000
    H33      H        0.01160    0.46130    0.75650    1.000
    H34      H        0.13480    0.39520    0.79030    1.000
    H35      H        0.03000    0.37390    0.63820    1.000
    H36      H        0.84820    0.34080    0.65910    1.000
    C29      C        0.97860    0.24570    0.68310    1.000
    C30      C        0.01520    0.39600    0.76550    1.000
    N7       N        0.96280    0.34290    0.67980    1.000
    H37      H        0.29680    0.69540    0.76180    1.000
    H38      H        0.10100    0.63400    0.72550    1.000
    H39      H        0.15920    0.74430    0.70790    1.000
    H40      H        0.32100    0.79380    0.57190    1.000
    H41      H        0.41430    0.72150    0.53230    1.000
    H42      H        0.48100    0.76810    0.63370    1.000
    H43      H        0.30440    0.61550    0.63110    1.000
    H44      H        0.15560    0.64430    0.58030    1.000
    C31      C        0.19780    0.68650    0.71240    1.000
    C32      C        0.37790    0.74360    0.58730    1.000
    N8       N        0.25390    0.66450    0.62330    1.000
