data_functionalizedCrystal
_audit_creation_method	'EQeq! by Chris Wilmer'
_symmetry_space_group_name_H-M	'P1'
_symmetry_Int_Tables_number	1
_symmetry_cell_setting	triclinic
loop_
_symmetry_equiv_pos_as_xyz
  x,y,z
_cell_length_a	25.807
_cell_length_b	29.405
_cell_length_c	19.637
_cell_angle_alpha	90
_cell_angle_beta	90
_cell_angle_gamma	90
loop_
_atom_site_label
_atom_site_type_symbol
_atom_site_fract_x
_atom_site_fract_y
_atom_site_fract_z
_atom_site_charge
Mof_Zn	Zn	0.82821	0.45123	0.33573	1.245
Mof_Zn	Zn	0.68566	0.43537	0.08614	1.246
Mof_Zn	Zn	0.74542	0.50338	0.96705	1.224
Mof_C 	C 	0.8967	0.6518	0.1977	0.442
Mof_C 	C 	0.8178	0.549	0.3695	0.398
Mof_C 	C 	0.8567	0.6029	0.2891	0.004
Mof_H 	H 	0.8552	0.5795	0.2572	0.069
Mof_C 	C 	0.8384	0.5958	0.3539	-0.056
Mof_C 	C 	0.8378	0.6306	0.4015	-0.044
Mof_C 	C 	0.8193	0.6242	0.4739	0.348
Mof_C 	C 	0.8691	0.412	0.1388	-0.002
Mof_C 	C 	0.8542	0.4419	0.1989	0.334
Mof_C 	C 	0.9028	0.3559	0.0322	-0.008
Mof_C 	C 	0.9085	0.379	0.1494	-0.005
Mof_H 	H 	0.9233	0.3759	0.1924	0.069
Mof_C 	C 	0.8649	0.3886	0.0224	0.134
Mof_H 	H 	0.8512	0.3925	0.979	-0.02
Mof_C 	C 	0.8466	0.4158	0.0754	-0.097
Mof_C 	C 	0.9166	0.3266	0.9725	0.289
Mof_C 	C 	0.8585	0.6723	0.3836	0.035
Mof_H 	H 	0.8581	0.6962	0.4145	0.053
Mof_C 	C 	0.8777	0.6456	0.2709	-0.042
Mof_C 	C 	0.8798	0.6784	0.3195	-0.107
Mof_C 	C 	0.7987	0.4439	0.0602	0.453
Mof_C 	C 	0.925	0.3514	0.0965	-0.051
Mof_C 	C 	0.968	0.3191	0.1131	0.424
Mof_C 	C 	0.9135	0.7193	0.3046	0.56
Mof_O 	O 	0.7605	0.4352	0.097	-0.476
Mof_O 	O 	0.8014	0.47	0.0125	-0.44
Mof_O 	O 	0.9266	0.2859	0.9822	-0.281
Mof_O 	O 	0.9147	0.347	0.9162	-0.429
Mof_O 	O 	0.8416	0.5932	0.5064	-0.451
Mof_O 	O 	0.7839	0.6485	0.4955	-0.264
Mof_O 	O 	0.7806	0.5455	0.4108	-0.488
Mof_O 	O 	0.8391	0.516	0.3392	-0.469
Mof_O 	O 	0.8939	0.6878	0.1731	-0.515
Mof_O 	O 	0.8609	0.4249	0.2567	-0.427
Mof_O 	O 	0.0073	0.3208	0.0738	-0.439
Mof_O 	O 	0.9632	0.2953	0.1637	-0.473
Mof_O 	O 	0.9039	0.7534	0.3266	-0.557
Mof_O 	O 	0.9541	0.7134	0.2695	-0.569
Mof_O 	O 	0.8386	0.4806	0.1863	-0.254
Mof_O 	O 	0.9146	0.6204	0.1679	-0.313
Mof_Zn	Zn	0.82821	0.95123	0.83573	1.244
Mof_Zn	Zn	0.68566	0.93537	0.58614	1.244
Mof_Zn	Zn	0.74542	0.00338	0.46705	1.245
Mof_C 	C 	0.8967	0.1518	0.6977	0.447
Mof_C 	C 	0.8178	0.049	0.8695	0.402
Mof_C 	C 	0.8567	0.1029	0.7891	0.015
Mof_H 	H 	0.8552	0.0795	0.7572	0.064
Mof_C 	C 	0.8384	0.0958	0.8539	-0.075
Mof_C 	C 	0.8378	0.1306	0.9015	-0.024
Mof_C 	C 	0.8193	0.1242	0.9739	0.267
Mof_C 	C 	0.8691	0.912	0.6388	-0.024
Mof_C 	C 	0.8542	0.9419	0.6989	0.341
Mof_C 	C 	0.9028	0.8559	0.5322	-0.024
Mof_C 	C 	0.9085	0.879	0.6494	0.008
Mof_H 	H 	0.9233	0.8759	0.6924	0.062
Mof_C 	C 	0.8649	0.8886	0.5224	0.007
Mof_H 	H 	0.8512	0.8925	0.479	0.066
Mof_C 	C 	0.8466	0.9158	0.5754	-0.06
Mof_C 	C 	0.9166	0.8266	0.4725	0.334
Mof_C 	C 	0.8585	0.1723	0.8836	0.016
Mof_H 	H 	0.8581	0.1962	0.9145	0.052
Mof_C 	C 	0.8777	0.1456	0.7709	-0.052
Mof_C 	C 	0.8798	0.1784	0.8195	-0.101
Mof_C 	C 	0.7987	0.9439	0.5602	0.435
Mof_C 	C 	0.925	0.8514	0.5965	-0.062
Mof_C 	C 	0.968	0.8191	0.6131	0.42
Mof_C 	C 	0.9135	0.2193	0.8046	0.556
Mof_O 	O 	0.7605	0.9352	0.597	-0.482
Mof_O 	O 	0.8014	0.97	0.5125	-0.471
Mof_O 	O 	0.9266	0.7859	0.4822	-0.264
Mof_O 	O 	0.9147	0.847	0.4162	-0.427
Mof_O 	O 	0.8416	0.0932	0.0064	-0.379
Mof_O 	O 	0.7839	0.1485	0.9955	-0.271
Mof_O 	O 	0.7806	0.0455	0.9108	-0.507
Mof_O 	O 	0.8391	0.016	0.8392	-0.477
Mof_O 	O 	0.8939	0.1878	0.6731	-0.519
Mof_O 	O 	0.8609	0.9249	0.7567	-0.433
Mof_O 	O 	0.0073	0.8208	0.5738	-0.456
Mof_O 	O 	0.9632	0.7953	0.6637	-0.479
Mof_O 	O 	0.9039	0.2534	0.8266	-0.559
Mof_O 	O 	0.9541	0.2134	0.7695	-0.571
Mof_O 	O 	0.8386	0.9806	0.6863	-0.261
Mof_O 	O 	0.9146	0.1204	0.6679	-0.32
Mof_Zn	Zn	0.32821	0.45123	0.83573	1.244
Mof_Zn	Zn	0.18566	0.43537	0.58614	1.244
Mof_Zn	Zn	0.24542	0.50338	0.46705	1.245
Mof_C 	C 	0.3967	0.6518	0.6977	0.447
Mof_C 	C 	0.3178	0.549	0.8695	0.402
Mof_C 	C 	0.3567	0.6029	0.7891	0.015
Mof_H 	H 	0.3552	0.5795	0.7572	0.064
Mof_C 	C 	0.3384	0.5958	0.8539	-0.076
Mof_C 	C 	0.3378	0.6306	0.9015	-0.024
Mof_C 	C 	0.3193	0.6242	0.9739	0.266
Mof_C 	C 	0.3691	0.412	0.6388	-0.025
Mof_C 	C 	0.3542	0.4419	0.6989	0.341
Mof_C 	C 	0.4028	0.3559	0.5322	-0.024
Mof_C 	C 	0.4085	0.379	0.6494	0.008
Mof_H 	H 	0.4233	0.3759	0.6924	0.062
Mof_C 	C 	0.3649	0.3886	0.5224	0.006
Mof_H 	H 	0.3512	0.3925	0.479	0.066
Mof_C 	C 	0.3466	0.4158	0.5754	-0.06
Mof_C 	C 	0.4166	0.3266	0.4725	0.334
Mof_C 	C 	0.3585	0.6723	0.8836	0.016
Mof_H 	H 	0.3581	0.6962	0.9145	0.052
Mof_C 	C 	0.3777	0.6456	0.7709	-0.053
Mof_C 	C 	0.3798	0.6784	0.8195	-0.101
Mof_C 	C 	0.2987	0.4439	0.5602	0.435
Mof_C 	C 	0.425	0.3514	0.5965	-0.063
Mof_C 	C 	0.468	0.3191	0.6131	0.42
Mof_C 	C 	0.4135	0.7193	0.8046	0.556
Mof_O 	O 	0.2605	0.4352	0.597	-0.482
Mof_O 	O 	0.3014	0.47	0.5125	-0.471
Mof_O 	O 	0.4266	0.2859	0.4822	-0.264
Mof_O 	O 	0.4147	0.347	0.4162	-0.427
Mof_O 	O 	0.3416	0.5932	0.0064	-0.378
Mof_O 	O 	0.2839	0.6485	0.9955	-0.271
Mof_O 	O 	0.2806	0.5455	0.9108	-0.507
Mof_O 	O 	0.3391	0.516	0.8392	-0.478
Mof_O 	O 	0.3939	0.6878	0.6731	-0.519
Mof_O 	O 	0.3609	0.4249	0.7567	-0.433
Mof_O 	O 	0.5073	0.3208	0.5738	-0.456
Mof_O 	O 	0.4632	0.2953	0.6637	-0.479
Mof_O 	O 	0.4039	0.7534	0.8266	-0.559
Mof_O 	O 	0.4541	0.7134	0.7695	-0.571
Mof_O 	O 	0.3386	0.4806	0.6863	-0.261
Mof_O 	O 	0.4146	0.6204	0.6679	-0.32
Mof_Zn	Zn	0.32821	0.95123	0.33573	1.246
Mof_Zn	Zn	0.18566	0.93537	0.08614	1.247
Mof_Zn	Zn	0.24542	0.00338	0.96705	1.225
Mof_C 	C 	0.3967	0.1518	0.1977	0.443
Mof_C 	C 	0.3178	0.049	0.3695	0.399
Mof_C 	C 	0.3567	0.1029	0.2891	0.005
Mof_H 	H 	0.3552	0.0795	0.2572	0.07
Mof_C 	C 	0.3384	0.0958	0.3539	-0.055
Mof_C 	C 	0.3378	0.1306	0.4015	-0.044
Mof_C 	C 	0.3193	0.1242	0.4739	0.348
Mof_C 	C 	0.3691	0.912	0.1388	-0.002
Mof_C 	C 	0.3542	0.9419	0.1989	0.334
Mof_C 	C 	0.4028	0.8559	0.0322	-0.007
Mof_C 	C 	0.4085	0.879	0.1494	-0.005
Mof_H 	H 	0.4233	0.8759	0.1924	0.069
Mof_C 	C 	0.3649	0.8886	0.0224	0.133
Mof_H 	H 	0.3512	0.8925	0.979	-0.02
Mof_C 	C 	0.3466	0.9158	0.0754	-0.097
Mof_C 	C 	0.4166	0.8266	0.9725	0.288
Mof_C 	C 	0.3585	0.1723	0.3836	0.035
Mof_H 	H 	0.3581	0.1962	0.4145	0.053
Mof_C 	C 	0.3777	0.1456	0.2709	-0.042
Mof_C 	C 	0.3798	0.1784	0.3195	-0.107
Mof_C 	C 	0.2987	0.9439	0.0602	0.453
Mof_C 	C 	0.425	0.8514	0.0965	-0.051
Mof_C 	C 	0.468	0.8191	0.1131	0.424
Mof_C 	C 	0.4135	0.2193	0.3046	0.56
Mof_O 	O 	0.2605	0.9352	0.097	-0.476
Mof_O 	O 	0.3014	0.97	0.0125	-0.44
Mof_O 	O 	0.4266	0.7859	0.9822	-0.281
Mof_O 	O 	0.4147	0.847	0.9162	-0.429
Mof_O 	O 	0.3416	0.0932	0.5064	-0.451
Mof_O 	O 	0.2839	0.1485	0.4955	-0.264
Mof_O 	O 	0.2806	0.0455	0.4108	-0.488
Mof_O 	O 	0.3391	0.016	0.3392	-0.469
Mof_O 	O 	0.3939	0.1878	0.1731	-0.515
Mof_O 	O 	0.3609	0.9249	0.2567	-0.427
Mof_O 	O 	0.5073	0.8208	0.0738	-0.438
Mof_O 	O 	0.4632	0.7953	0.1637	-0.473
Mof_O 	O 	0.4039	0.2534	0.3266	-0.557
Mof_O 	O 	0.4541	0.2134	0.2695	-0.569
Mof_O 	O 	0.3386	0.9806	0.1863	-0.254
Mof_O 	O 	0.4146	0.1204	0.1679	-0.313
Mof_Zn	Zn	0.17179	0.54877	0.33573	1.246
Mof_Zn	Zn	0.31434	0.56463	0.08614	1.247
Mof_Zn	Zn	0.25458	0.49662	0.96705	1.225
Mof_C 	C 	0.1033	0.3482	0.1977	0.443
Mof_C 	C 	0.1822	0.451	0.3695	0.399
Mof_C 	C 	0.1433	0.3971	0.2891	0.005
Mof_H 	H 	0.1448	0.4205	0.2572	0.07
Mof_C 	C 	0.1616	0.4042	0.3539	-0.055
Mof_C 	C 	0.1622	0.3694	0.4015	-0.044
Mof_C 	C 	0.1807	0.3758	0.4739	0.348
Mof_C 	C 	0.1309	0.588	0.1388	-0.002
Mof_C 	C 	0.1458	0.5581	0.1989	0.334
Mof_C 	C 	0.0972	0.6441	0.0322	-0.008
Mof_C 	C 	0.0915	0.621	0.1494	-0.005
Mof_H 	H 	0.0767	0.6241	0.1924	0.069
Mof_C 	C 	0.1351	0.6114	0.0224	0.134
Mof_H 	H 	0.1488	0.6075	0.979	-0.02
Mof_C 	C 	0.1534	0.5842	0.0754	-0.097
Mof_C 	C 	0.0834	0.6734	0.9725	0.289
Mof_C 	C 	0.1415	0.3277	0.3836	0.035
Mof_H 	H 	0.1419	0.3038	0.4145	0.053
Mof_C 	C 	0.1223	0.3544	0.2709	-0.042
Mof_C 	C 	0.1202	0.3216	0.3195	-0.107
Mof_C 	C 	0.2013	0.5561	0.0602	0.453
Mof_C 	C 	0.075	0.6486	0.0965	-0.051
Mof_C 	C 	0.032	0.6809	0.1131	0.424
Mof_C 	C 	0.0865	0.2807	0.3046	0.56
Mof_O 	O 	0.2395	0.5648	0.097	-0.476
Mof_O 	O 	0.1986	0.53	0.0125	-0.44
Mof_O 	O 	0.0734	0.7141	0.9822	-0.281
Mof_O 	O 	0.0853	0.653	0.9162	-0.429
Mof_O 	O 	0.1584	0.4068	0.5064	-0.451
Mof_O 	O 	0.2161	0.3515	0.4955	-0.264
Mof_O 	O 	0.2194	0.4545	0.4108	-0.488
Mof_O 	O 	0.1609	0.484	0.3392	-0.469
Mof_O 	O 	0.1061	0.3122	0.1731	-0.515
Mof_O 	O 	0.1391	0.5751	0.2567	-0.427
Mof_O 	O 	0.9927	0.6792	0.0738	-0.439
Mof_O 	O 	0.0368	0.7047	0.1637	-0.473
Mof_O 	O 	0.0961	0.2466	0.3266	-0.557
Mof_O 	O 	0.0459	0.2866	0.2695	-0.569
Mof_O 	O 	0.1614	0.5194	0.1863	-0.254
Mof_O 	O 	0.0854	0.3796	0.1679	-0.313
Mof_Zn	Zn	0.17179	0.04877	0.83573	1.244
Mof_Zn	Zn	0.31434	0.06463	0.58614	1.244
Mof_Zn	Zn	0.25458	0.99662	0.46705	1.245
Mof_C 	C 	0.1033	0.8482	0.6977	0.447
Mof_C 	C 	0.1822	0.951	0.8695	0.402
Mof_C 	C 	0.1433	0.8971	0.7891	0.015
Mof_H 	H 	0.1448	0.9205	0.7572	0.064
Mof_C 	C 	0.1616	0.9042	0.8539	-0.075
Mof_C 	C 	0.1622	0.8694	0.9015	-0.024
Mof_C 	C 	0.1807	0.8758	0.9739	0.267
Mof_C 	C 	0.1309	0.088	0.6388	-0.024
Mof_C 	C 	0.1458	0.0581	0.6989	0.341
Mof_C 	C 	0.0972	0.1441	0.5322	-0.024
Mof_C 	C 	0.0915	0.121	0.6494	0.008
Mof_H 	H 	0.0767	0.1241	0.6924	0.062
Mof_C 	C 	0.1351	0.1114	0.5224	0.007
Mof_H 	H 	0.1488	0.1075	0.479	0.066
Mof_C 	C 	0.1534	0.0842	0.5754	-0.06
Mof_C 	C 	0.0834	0.1734	0.4725	0.334
Mof_C 	C 	0.1415	0.8277	0.8836	0.016
Mof_H 	H 	0.1419	0.8038	0.9145	0.052
Mof_C 	C 	0.1223	0.8544	0.7709	-0.052
Mof_C 	C 	0.1202	0.8216	0.8195	-0.101
Mof_C 	C 	0.2013	0.0561	0.5602	0.435
Mof_C 	C 	0.075	0.1486	0.5965	-0.062
Mof_C 	C 	0.032	0.1809	0.6131	0.42
Mof_C 	C 	0.0865	0.7807	0.8046	0.556
Mof_O 	O 	0.2395	0.0648	0.597	-0.482
Mof_O 	O 	0.1986	0.03	0.5125	-0.471
Mof_O 	O 	0.0734	0.2141	0.4822	-0.264
Mof_O 	O 	0.0853	0.153	0.4162	-0.427
Mof_O 	O 	0.1584	0.9068	0.0064	-0.379
Mof_O 	O 	0.2161	0.8515	0.9955	-0.271
Mof_O 	O 	0.2194	0.9545	0.9108	-0.507
Mof_O 	O 	0.1609	0.984	0.8392	-0.477
Mof_O 	O 	0.1061	0.8122	0.6731	-0.519
Mof_O 	O 	0.1391	0.0751	0.7567	-0.433
Mof_O 	O 	0.9927	0.1792	0.5738	-0.456
Mof_O 	O 	0.0368	0.2047	0.6637	-0.479
Mof_O 	O 	0.0961	0.7466	0.8266	-0.559
Mof_O 	O 	0.0459	0.7866	0.7695	-0.571
Mof_O 	O 	0.1614	0.0194	0.6863	-0.261
Mof_O 	O 	0.0854	0.8796	0.6679	-0.32
Mof_Zn	Zn	0.67179	0.54877	0.83573	1.244
Mof_Zn	Zn	0.81434	0.56463	0.58614	1.244
Mof_Zn	Zn	0.75458	0.49662	0.46705	1.245
Mof_C 	C 	0.6033	0.3482	0.6977	0.447
Mof_C 	C 	0.6822	0.451	0.8695	0.402
Mof_C 	C 	0.6433	0.3971	0.7891	0.015
Mof_H 	H 	0.6448	0.4205	0.7572	0.064
Mof_C 	C 	0.6616	0.4042	0.8539	-0.076
Mof_C 	C 	0.6622	0.3694	0.9015	-0.024
Mof_C 	C 	0.6807	0.3758	0.9739	0.266
Mof_C 	C 	0.6309	0.588	0.6388	-0.025
Mof_C 	C 	0.6458	0.5581	0.6989	0.341
Mof_C 	C 	0.5972	0.6441	0.5322	-0.024
Mof_C 	C 	0.5915	0.621	0.6494	0.008
Mof_H 	H 	0.5767	0.6241	0.6924	0.062
Mof_C 	C 	0.6351	0.6114	0.5224	0.006
Mof_H 	H 	0.6488	0.6075	0.479	0.066
Mof_C 	C 	0.6534	0.5842	0.5754	-0.06
Mof_C 	C 	0.5834	0.6734	0.4725	0.334
Mof_C 	C 	0.6415	0.3277	0.8836	0.016
Mof_H 	H 	0.6419	0.3038	0.9145	0.052
Mof_C 	C 	0.6223	0.3544	0.7709	-0.053
Mof_C 	C 	0.6202	0.3216	0.8195	-0.101
Mof_C 	C 	0.7013	0.5561	0.5602	0.435
Mof_C 	C 	0.575	0.6486	0.5965	-0.063
Mof_C 	C 	0.532	0.6809	0.6131	0.42
Mof_C 	C 	0.5865	0.2807	0.8046	0.556
Mof_O 	O 	0.7395	0.5648	0.597	-0.482
Mof_O 	O 	0.6986	0.53	0.5125	-0.471
Mof_O 	O 	0.5734	0.7141	0.4822	-0.264
Mof_O 	O 	0.5853	0.653	0.4162	-0.427
Mof_O 	O 	0.6584	0.4068	0.0064	-0.378
Mof_O 	O 	0.7161	0.3515	0.9955	-0.271
Mof_O 	O 	0.7194	0.4545	0.9108	-0.507
Mof_O 	O 	0.6609	0.484	0.8392	-0.478
Mof_O 	O 	0.6061	0.3122	0.6731	-0.519
Mof_O 	O 	0.6391	0.5751	0.7567	-0.433
Mof_O 	O 	0.4927	0.6792	0.5738	-0.456
Mof_O 	O 	0.5368	0.7047	0.6637	-0.479
Mof_O 	O 	0.5961	0.2466	0.8266	-0.559
Mof_O 	O 	0.5459	0.2866	0.7695	-0.571
Mof_O 	O 	0.6614	0.5194	0.6863	-0.261
Mof_O 	O 	0.5854	0.3796	0.6679	-0.32
Mof_Zn	Zn	0.67179	0.04877	0.33573	1.246
Mof_Zn	Zn	0.81434	0.06463	0.08614	1.247
Mof_Zn	Zn	0.75458	0.99662	0.96705	1.225
Mof_C 	C 	0.6033	0.8482	0.1977	0.443
Mof_C 	C 	0.6822	0.951	0.3695	0.399
Mof_C 	C 	0.6433	0.8971	0.2891	0.005
Mof_H 	H 	0.6448	0.9205	0.2572	0.07
Mof_C 	C 	0.6616	0.9042	0.3539	-0.055
Mof_C 	C 	0.6622	0.8694	0.4015	-0.044
Mof_C 	C 	0.6807	0.8758	0.4739	0.348
Mof_C 	C 	0.6309	0.088	0.1388	-0.002
Mof_C 	C 	0.6458	0.0581	0.1989	0.334
Mof_C 	C 	0.5972	0.1441	0.0322	-0.007
Mof_C 	C 	0.5915	0.121	0.1494	-0.005
Mof_H 	H 	0.5767	0.1241	0.1924	0.069
Mof_C 	C 	0.6351	0.1114	0.0224	0.133
Mof_H 	H 	0.6488	0.1075	0.979	-0.02
Mof_C 	C 	0.6534	0.0842	0.0754	-0.097
Mof_C 	C 	0.5834	0.1734	0.9725	0.288
Mof_C 	C 	0.6415	0.8277	0.3836	0.035
Mof_H 	H 	0.6419	0.8038	0.4145	0.053
Mof_C 	C 	0.6223	0.8544	0.2709	-0.042
Mof_C 	C 	0.6202	0.8216	0.3195	-0.107
Mof_C 	C 	0.7013	0.0561	0.0602	0.453
Mof_C 	C 	0.575	0.1486	0.0965	-0.051
Mof_C 	C 	0.532	0.1809	0.1131	0.424
Mof_C 	C 	0.5865	0.7807	0.3046	0.56
Mof_O 	O 	0.7395	0.0648	0.097	-0.476
Mof_O 	O 	0.6986	0.03	0.0125	-0.44
Mof_O 	O 	0.5734	0.2141	0.9822	-0.281
Mof_O 	O 	0.5853	0.153	0.9162	-0.429
Mof_O 	O 	0.6584	0.9068	0.5064	-0.451
Mof_O 	O 	0.7161	0.8515	0.4955	-0.264
Mof_O 	O 	0.7194	0.9545	0.4108	-0.488
Mof_O 	O 	0.6609	0.984	0.3392	-0.469
Mof_O 	O 	0.6061	0.8122	0.1731	-0.515
Mof_O 	O 	0.6391	0.0751	0.2567	-0.427
Mof_O 	O 	0.4927	0.1792	0.0738	-0.438
Mof_O 	O 	0.5368	0.2047	0.1637	-0.473
Mof_O 	O 	0.5961	0.7466	0.3266	-0.557
Mof_O 	O 	0.5459	0.7866	0.2695	-0.569
Mof_O 	O 	0.6614	0.0194	0.1863	-0.254
Mof_O 	O 	0.5854	0.8796	0.1679	-0.313
Mof_Zn	Zn	0.07821	0.79877	0.58573	1.246
Mof_Zn	Zn	0.93566	0.81463	0.33614	1.244
Mof_Zn	Zn	0.99542	0.74662	0.21705	1.246
Mof_C 	C 	0.1467	0.5982	0.4477	0.445
Mof_C 	C 	0.0678	0.701	0.6195	0.399
Mof_C 	C 	0.1067	0.6471	0.5391	0.005
Mof_H 	H 	0.1052	0.6705	0.5072	0.068
Mof_C 	C 	0.0884	0.6542	0.6039	-0.056
Mof_C 	C 	0.0878	0.6194	0.6515	-0.045
Mof_C 	C 	0.0693	0.6258	0.7239	0.349
Mof_C 	C 	0.1191	0.838	0.3888	-0.024
Mof_C 	C 	0.1042	0.8081	0.4489	0.341
Mof_C 	C 	0.1528	0.8941	0.2822	-0.021
Mof_C 	C 	0.1585	0.871	0.3994	0.008
Mof_H 	H 	0.1733	0.8741	0.4424	0.064
Mof_C 	C 	0.1149	0.8614	0.2724	0.005
Mof_H 	H 	0.1012	0.8575	0.229	0.069
Mof_C 	C 	0.0966	0.8342	0.3254	-0.058
Mof_C 	C 	0.1666	0.9234	0.2225	0.332
Mof_C 	C 	0.1085	0.5777	0.6336	0.035
Mof_H 	H 	0.1081	0.5538	0.6645	0.052
Mof_C 	C 	0.1277	0.6044	0.5209	-0.044
Mof_C 	C 	0.1298	0.5716	0.5695	-0.107
Mof_C 	C 	0.0487	0.8061	0.3102	0.435
Mof_C 	C 	0.175	0.8986	0.3465	-0.062
Mof_C 	C 	0.218	0.9309	0.3631	0.42
Mof_C 	C 	0.1635	0.5307	0.5546	0.56
Mof_O 	O 	0.0105	0.8148	0.347	-0.481
Mof_O 	O 	0.0514	0.78	0.2625	-0.468
Mof_O 	O 	0.1766	0.9641	0.2322	-0.262
Mof_O 	O 	0.1647	0.903	0.1662	-0.42
Mof_O 	O 	0.0916	0.6568	0.7564	-0.452
Mof_O 	O 	0.0339	0.6015	0.7455	-0.268
Mof_O 	O 	0.0306	0.7045	0.6608	-0.488
Mof_O 	O 	0.0891	0.734	0.5892	-0.469
Mof_O 	O 	0.1439	0.5622	0.4231	-0.518
Mof_O 	O 	0.1109	0.8251	0.5067	-0.429
Mof_O 	O 	0.2573	0.9292	0.3238	-0.455
Mof_O 	O 	0.2132	0.9547	0.4137	-0.478
Mof_O 	O 	0.1539	0.4966	0.5766	-0.558
Mof_O 	O 	0.2041	0.5366	0.5195	-0.569
Mof_O 	O 	0.0886	0.7694	0.4363	-0.259
Mof_O 	O 	0.1646	0.6296	0.4179	-0.318
Mof_Zn	Zn	0.07821	0.29877	0.08573	1.248
Mof_Zn	Zn	0.93566	0.31463	0.83614	1.243
Mof_Zn	Zn	0.99542	0.24662	0.71705	1.245
Mof_C 	C 	0.1467	0.0982	0.9477	0.367
Mof_C 	C 	0.0678	0.201	0.1195	0.393
Mof_C 	C 	0.1067	0.1471	0.0391	-0.032
Mof_H 	H 	0.1052	0.1705	0.0072	0.102
Mof_C 	C 	0.0884	0.1542	0.1039	-0.03
Mof_C 	C 	0.0878	0.1194	0.1515	-0.058
Mof_C 	C 	0.0693	0.1258	0.2239	0.354
Mof_C 	C 	0.1191	0.338	0.8888	-0.009
Mof_C 	C 	0.1042	0.3081	0.9489	0.26
Mof_C 	C 	0.1528	0.3941	0.7822	-0.028
Mof_C 	C 	0.1585	0.371	0.8994	-0.006
Mof_H 	H 	0.1733	0.3741	0.9424	0.05
Mof_C 	C 	0.1149	0.3614	0.7724	0.011
Mof_H 	H 	0.1012	0.3575	0.729	0.063
Mof_C 	C 	0.0966	0.3342	0.8254	-0.071
Mof_C 	C 	0.1666	0.4234	0.7225	0.334
Mof_C 	C 	0.1085	0.0777	0.1336	0.058
Mof_H 	H 	0.1081	0.0538	0.1645	0.047
Mof_C 	C 	0.1277	0.1044	0.0209	0.038
Mof_C 	C 	0.1298	0.0716	0.0695	-0.131
Mof_C 	C 	0.0487	0.3061	0.8102	0.439
Mof_C 	C 	0.175	0.3986	0.8465	-0.063
Mof_C 	C 	0.218	0.4309	0.8631	0.421
Mof_C 	C 	0.1635	0.0307	0.0546	0.572
Mof_O 	O 	0.0105	0.3148	0.847	-0.489
Mof_O 	O 	0.0514	0.28	0.7625	-0.474
Mof_O 	O 	0.1766	0.4641	0.7322	-0.266
Mof_O 	O 	0.1647	0.403	0.6662	-0.428
Mof_O 	O 	0.0916	0.1568	0.2564	-0.451
Mof_O 	O 	0.0339	0.1015	0.2455	-0.263
Mof_O 	O 	0.0306	0.2045	0.1608	-0.481
Mof_O 	O 	0.0891	0.234	0.0892	-0.456
Mof_O 	O 	0.1439	0.0622	0.9231	-0.517
Mof_O 	O 	0.1109	0.3251	0.0067	-0.36
Mof_O 	O 	0.2573	0.4292	0.8238	-0.459
Mof_O 	O 	0.2132	0.4547	0.9137	-0.497
Mof_O 	O 	0.1539	0.9966	0.0766	-0.552
Mof_O 	O 	0.2041	0.0366	0.0195	-0.538
Mof_O 	O 	0.0886	0.2694	0.9363	-0.262
Mof_O 	O 	0.1646	0.1296	0.9179	-0.317
Mof_Zn	Zn	0.57821	0.79877	0.08573	1.248
Mof_Zn	Zn	0.43566	0.81463	0.83614	1.243
Mof_Zn	Zn	0.49542	0.74662	0.71705	1.245
Mof_C 	C 	0.6467	0.5982	0.9477	0.366
Mof_C 	C 	0.5678	0.701	0.1195	0.393
Mof_C 	C 	0.6067	0.6471	0.0391	-0.032
Mof_H 	H 	0.6052	0.6705	0.0072	0.102
Mof_C 	C 	0.5884	0.6542	0.1039	-0.029
Mof_C 	C 	0.5878	0.6194	0.1515	-0.058
Mof_C 	C 	0.5693	0.6258	0.2239	0.354
Mof_C 	C 	0.6191	0.838	0.8888	-0.009
Mof_C 	C 	0.6042	0.8081	0.9489	0.259
Mof_C 	C 	0.6528	0.8941	0.7822	-0.028
Mof_C 	C 	0.6585	0.871	0.8994	-0.006
Mof_H 	H 	0.6733	0.8741	0.9424	0.05
Mof_C 	C 	0.6149	0.8614	0.7724	0.011
Mof_H 	H 	0.6012	0.8575	0.729	0.063
Mof_C 	C 	0.5966	0.8342	0.8254	-0.071
Mof_C 	C 	0.6666	0.9234	0.7225	0.334
Mof_C 	C 	0.6085	0.5777	0.1336	0.058
Mof_H 	H 	0.6081	0.5538	0.1645	0.047
Mof_C 	C 	0.6277	0.6044	0.0209	0.039
Mof_C 	C 	0.6298	0.5716	0.0695	-0.132
Mof_C 	C 	0.5487	0.8061	0.8102	0.439
Mof_C 	C 	0.675	0.8986	0.8465	-0.063
Mof_C 	C 	0.718	0.9309	0.8631	0.421
Mof_C 	C 	0.6635	0.5307	0.0546	0.573
Mof_O 	O 	0.5105	0.8148	0.847	-0.489
Mof_O 	O 	0.5514	0.78	0.7625	-0.474
Mof_O 	O 	0.6766	0.9641	0.7322	-0.266
Mof_O 	O 	0.6647	0.903	0.6662	-0.428
Mof_O 	O 	0.5916	0.6568	0.2564	-0.451
Mof_O 	O 	0.5339	0.6015	0.2455	-0.263
Mof_O 	O 	0.5306	0.7045	0.1608	-0.481
Mof_O 	O 	0.5891	0.734	0.0892	-0.456
Mof_O 	O 	0.6439	0.5622	0.9231	-0.517
Mof_O 	O 	0.6109	0.8251	0.0067	-0.359
Mof_O 	O 	0.7573	0.9292	0.8238	-0.459
Mof_O 	O 	0.7132	0.9547	0.9137	-0.497
Mof_O 	O 	0.6539	0.4966	0.0766	-0.553
Mof_O 	O 	0.7041	0.5366	0.0195	-0.538
Mof_O 	O 	0.5886	0.7694	0.9363	-0.263
Mof_O 	O 	0.6646	0.6296	0.9179	-0.317
Mof_Zn	Zn	0.57821	0.29877	0.58573	1.246
Mof_Zn	Zn	0.43566	0.31463	0.33614	1.244
Mof_Zn	Zn	0.49542	0.24662	0.21705	1.246
Mof_C 	C 	0.6467	0.0982	0.4477	0.445
Mof_C 	C 	0.5678	0.201	0.6195	0.399
Mof_C 	C 	0.6067	0.1471	0.5391	0.005
Mof_H 	H 	0.6052	0.1705	0.5072	0.068
Mof_C 	C 	0.5884	0.1542	0.6039	-0.056
Mof_C 	C 	0.5878	0.1194	0.6515	-0.045
Mof_C 	C 	0.5693	0.1258	0.7239	0.349
Mof_C 	C 	0.6191	0.338	0.3888	-0.024
Mof_C 	C 	0.6042	0.3081	0.4489	0.341
Mof_C 	C 	0.6528	0.3941	0.2822	-0.021
Mof_C 	C 	0.6585	0.371	0.3994	0.008
Mof_H 	H 	0.6733	0.3741	0.4424	0.064
Mof_C 	C 	0.6149	0.3614	0.2724	0.005
Mof_H 	H 	0.6012	0.3575	0.229	0.069
Mof_C 	C 	0.5966	0.3342	0.3254	-0.058
Mof_C 	C 	0.6666	0.4234	0.2225	0.332
Mof_C 	C 	0.6085	0.0777	0.6336	0.035
Mof_H 	H 	0.6081	0.0538	0.6645	0.052
Mof_C 	C 	0.6277	0.1044	0.5209	-0.044
Mof_C 	C 	0.6298	0.0716	0.5695	-0.107
Mof_C 	C 	0.5487	0.3061	0.3102	0.435
Mof_C 	C 	0.675	0.3986	0.3465	-0.062
Mof_C 	C 	0.718	0.4309	0.3631	0.42
Mof_C 	C 	0.6635	0.0307	0.5546	0.56
Mof_O 	O 	0.5105	0.3148	0.347	-0.481
Mof_O 	O 	0.5514	0.28	0.2625	-0.468
Mof_O 	O 	0.6766	0.4641	0.2322	-0.262
Mof_O 	O 	0.6647	0.403	0.1662	-0.42
Mof_O 	O 	0.5916	0.1568	0.7564	-0.452
Mof_O 	O 	0.5339	0.1015	0.7455	-0.268
Mof_O 	O 	0.5306	0.2045	0.6608	-0.488
Mof_O 	O 	0.5891	0.234	0.5892	-0.469
Mof_O 	O 	0.6439	0.0622	0.4231	-0.518
Mof_O 	O 	0.6109	0.3251	0.5067	-0.43
Mof_O 	O 	0.7573	0.4292	0.3238	-0.455
Mof_O 	O 	0.7132	0.4547	0.4137	-0.478
Mof_O 	O 	0.6539	0.9966	0.5766	-0.558
Mof_O 	O 	0.7041	0.0366	0.5195	-0.569
Mof_O 	O 	0.5886	0.2694	0.4363	-0.259
Mof_O 	O 	0.6646	0.1296	0.4179	-0.318
Mof_Zn	Zn	0.42179	0.70123	0.58573	1.246
Mof_Zn	Zn	0.56434	0.68537	0.33614	1.244
Mof_Zn	Zn	0.50458	0.75338	0.21705	1.246
Mof_C 	C 	0.3533	0.9018	0.4477	0.445
Mof_C 	C 	0.4322	0.799	0.6195	0.399
Mof_C 	C 	0.3933	0.8529	0.5391	0.005
Mof_H 	H 	0.3948	0.8295	0.5072	0.068
Mof_C 	C 	0.4116	0.8458	0.6039	-0.056
Mof_C 	C 	0.4122	0.8806	0.6515	-0.045
Mof_C 	C 	0.4307	0.8742	0.7239	0.349
Mof_C 	C 	0.3809	0.662	0.3888	-0.024
Mof_C 	C 	0.3958	0.6919	0.4489	0.341
Mof_C 	C 	0.3472	0.6059	0.2822	-0.021
Mof_C 	C 	0.3415	0.629	0.3994	0.008
Mof_H 	H 	0.3267	0.6259	0.4424	0.064
Mof_C 	C 	0.3851	0.6386	0.2724	0.005
Mof_H 	H 	0.3988	0.6425	0.229	0.069
Mof_C 	C 	0.4034	0.6658	0.3254	-0.058
Mof_C 	C 	0.3334	0.5766	0.2225	0.332
Mof_C 	C 	0.3915	0.9223	0.6336	0.035
Mof_H 	H 	0.3919	0.9462	0.6645	0.052
Mof_C 	C 	0.3723	0.8956	0.5209	-0.044
Mof_C 	C 	0.3702	0.9284	0.5695	-0.107
Mof_C 	C 	0.4513	0.6939	0.3102	0.435
Mof_C 	C 	0.325	0.6014	0.3465	-0.062
Mof_C 	C 	0.282	0.5691	0.3631	0.42
Mof_C 	C 	0.3365	0.9693	0.5546	0.56
Mof_O 	O 	0.4895	0.6852	0.347	-0.481
Mof_O 	O 	0.4486	0.72	0.2625	-0.468
Mof_O 	O 	0.3234	0.5359	0.2322	-0.262
Mof_O 	O 	0.3353	0.597	0.1662	-0.42
Mof_O 	O 	0.4084	0.8432	0.7564	-0.452
Mof_O 	O 	0.4661	0.8985	0.7455	-0.268
Mof_O 	O 	0.4694	0.7955	0.6608	-0.488
Mof_O 	O 	0.4109	0.766	0.5892	-0.469
Mof_O 	O 	0.3561	0.9378	0.4231	-0.518
Mof_O 	O 	0.3891	0.6749	0.5067	-0.43
Mof_O 	O 	0.2427	0.5708	0.3238	-0.455
Mof_O 	O 	0.2868	0.5453	0.4137	-0.478
Mof_O 	O 	0.3461	0.0034	0.5766	-0.558
Mof_O 	O 	0.2959	0.9634	0.5195	-0.569
Mof_O 	O 	0.4114	0.7306	0.4363	-0.259
Mof_O 	O 	0.3354	0.8704	0.4179	-0.318
Mof_Zn	Zn	0.42179	0.20123	0.08573	1.248
Mof_Zn	Zn	0.56434	0.18537	0.83614	1.243
Mof_Zn	Zn	0.50458	0.25338	0.71705	1.245
Mof_C 	C 	0.3533	0.4018	0.9477	0.366
Mof_C 	C 	0.4322	0.299	0.1195	0.393
Mof_C 	C 	0.3933	0.3529	0.0391	-0.032
Mof_H 	H 	0.3948	0.3295	0.0072	0.102
Mof_C 	C 	0.4116	0.3458	0.1039	-0.029
Mof_C 	C 	0.4122	0.3806	0.1515	-0.058
Mof_C 	C 	0.4307	0.3742	0.2239	0.354
Mof_C 	C 	0.3809	0.162	0.8888	-0.009
Mof_C 	C 	0.3958	0.1919	0.9489	0.259
Mof_C 	C 	0.3472	0.1059	0.7822	-0.028
Mof_C 	C 	0.3415	0.129	0.8994	-0.006
Mof_H 	H 	0.3267	0.1259	0.9424	0.05
Mof_C 	C 	0.3851	0.1386	0.7724	0.011
Mof_H 	H 	0.3988	0.1425	0.729	0.063
Mof_C 	C 	0.4034	0.1658	0.8254	-0.071
Mof_C 	C 	0.3334	0.0766	0.7225	0.334
Mof_C 	C 	0.3915	0.4223	0.1336	0.058
Mof_H 	H 	0.3919	0.4462	0.1645	0.047
Mof_C 	C 	0.3723	0.3956	0.0209	0.039
Mof_C 	C 	0.3702	0.4284	0.0695	-0.132
Mof_C 	C 	0.4513	0.1939	0.8102	0.439
Mof_C 	C 	0.325	0.1014	0.8465	-0.063
Mof_C 	C 	0.282	0.0691	0.8631	0.421
Mof_C 	C 	0.3365	0.4693	0.0546	0.573
Mof_O 	O 	0.4895	0.1852	0.847	-0.489
Mof_O 	O 	0.4486	0.22	0.7625	-0.474
Mof_O 	O 	0.3234	0.0359	0.7322	-0.266
Mof_O 	O 	0.3353	0.097	0.6662	-0.428
Mof_O 	O 	0.4084	0.3432	0.2564	-0.451
Mof_O 	O 	0.4661	0.3985	0.2455	-0.263
Mof_O 	O 	0.4694	0.2955	0.1608	-0.481
Mof_O 	O 	0.4109	0.266	0.0892	-0.456
Mof_O 	O 	0.3561	0.4378	0.9231	-0.517
Mof_O 	O 	0.3891	0.1749	0.0067	-0.359
Mof_O 	O 	0.2427	0.0708	0.8238	-0.459
Mof_O 	O 	0.2868	0.0453	0.9137	-0.497
Mof_O 	O 	0.3461	0.5034	0.0766	-0.553
Mof_O 	O 	0.2959	0.4634	0.0195	-0.538
Mof_O 	O 	0.4114	0.2306	0.9363	-0.263
Mof_O 	O 	0.3354	0.3704	0.9179	-0.317
Mof_Zn	Zn	0.92179	0.70123	0.08573	1.248
Mof_Zn	Zn	0.06434	0.68537	0.83614	1.243
Mof_Zn	Zn	0.00458	0.75338	0.71705	1.245
Mof_C 	C 	0.8533	0.9018	0.9477	0.367
Mof_C 	C 	0.9322	0.799	0.1195	0.393
Mof_C 	C 	0.8933	0.8529	0.0391	-0.032
Mof_H 	H 	0.8948	0.8295	0.0072	0.102
Mof_C 	C 	0.9116	0.8458	0.1039	-0.03
Mof_C 	C 	0.9122	0.8806	0.1515	-0.058
Mof_C 	C 	0.9307	0.8742	0.2239	0.354
Mof_C 	C 	0.8809	0.662	0.8888	-0.009
Mof_C 	C 	0.8958	0.6919	0.9489	0.26
Mof_C 	C 	0.8472	0.6059	0.7822	-0.028
Mof_C 	C 	0.8415	0.629	0.8994	-0.006
Mof_H 	H 	0.8267	0.6259	0.9424	0.05
Mof_C 	C 	0.8851	0.6386	0.7724	0.011
Mof_H 	H 	0.8988	0.6425	0.729	0.063
Mof_C 	C 	0.9034	0.6658	0.8254	-0.071
Mof_C 	C 	0.8334	0.5766	0.7225	0.334
Mof_C 	C 	0.8915	0.9223	0.1336	0.058
Mof_H 	H 	0.8919	0.9462	0.1645	0.047
Mof_C 	C 	0.8723	0.8956	0.0209	0.038
Mof_C 	C 	0.8702	0.9284	0.0695	-0.131
Mof_C 	C 	0.9513	0.6939	0.8102	0.439
Mof_C 	C 	0.825	0.6014	0.8465	-0.063
Mof_C 	C 	0.782	0.5691	0.8631	0.421
Mof_C 	C 	0.8365	0.9693	0.0546	0.572
Mof_O 	O 	0.9895	0.6852	0.847	-0.489
Mof_O 	O 	0.9486	0.72	0.7625	-0.474
Mof_O 	O 	0.8234	0.5359	0.7322	-0.266
Mof_O 	O 	0.8353	0.597	0.6662	-0.428
Mof_O 	O 	0.9084	0.8432	0.2564	-0.451
Mof_O 	O 	0.9661	0.8985	0.2455	-0.263
Mof_O 	O 	0.9694	0.7955	0.1608	-0.481
Mof_O 	O 	0.9109	0.766	0.0892	-0.456
Mof_O 	O 	0.8561	0.9378	0.9231	-0.517
Mof_O 	O 	0.8891	0.6749	0.0067	-0.36
Mof_O 	O 	0.7427	0.5708	0.8238	-0.459
Mof_O 	O 	0.7868	0.5453	0.9137	-0.497
Mof_O 	O 	0.8461	0.0034	0.0766	-0.552
Mof_O 	O 	0.7959	0.9634	0.0195	-0.538
Mof_O 	O 	0.9114	0.7306	0.9363	-0.262
Mof_O 	O 	0.8354	0.8704	0.9179	-0.317
Mof_Zn	Zn	0.92179	0.20123	0.58573	1.246
Mof_Zn	Zn	0.06434	0.18537	0.33614	1.244
Mof_Zn	Zn	0.00458	0.25338	0.21705	1.246
Mof_C 	C 	0.8533	0.4018	0.4477	0.445
Mof_C 	C 	0.9322	0.299	0.6195	0.399
Mof_C 	C 	0.8933	0.3529	0.5391	0.005
Mof_H 	H 	0.8948	0.3295	0.5072	0.068
Mof_C 	C 	0.9116	0.3458	0.6039	-0.056
Mof_C 	C 	0.9122	0.3806	0.6515	-0.045
Mof_C 	C 	0.9307	0.3742	0.7239	0.349
Mof_C 	C 	0.8809	0.162	0.3888	-0.024
Mof_C 	C 	0.8958	0.1919	0.4489	0.341
Mof_C 	C 	0.8472	0.1059	0.2822	-0.021
Mof_C 	C 	0.8415	0.129	0.3994	0.008
Mof_H 	H 	0.8267	0.1259	0.4424	0.064
Mof_C 	C 	0.8851	0.1386	0.2724	0.005
Mof_H 	H 	0.8988	0.1425	0.229	0.069
Mof_C 	C 	0.9034	0.1658	0.3254	-0.058
Mof_C 	C 	0.8334	0.0766	0.2225	0.332
Mof_C 	C 	0.8915	0.4223	0.6336	0.035
Mof_H 	H 	0.8919	0.4462	0.6645	0.052
Mof_C 	C 	0.8723	0.3956	0.5209	-0.044
Mof_C 	C 	0.8702	0.4284	0.5695	-0.107
Mof_C 	C 	0.9513	0.1939	0.3102	0.435
Mof_C 	C 	0.825	0.1014	0.3465	-0.062
Mof_C 	C 	0.782	0.0691	0.3631	0.42
Mof_C 	C 	0.8365	0.4693	0.5546	0.56
Mof_O 	O 	0.9895	0.1852	0.347	-0.481
Mof_O 	O 	0.9486	0.22	0.2625	-0.468
Mof_O 	O 	0.8234	0.0359	0.2322	-0.262
Mof_O 	O 	0.8353	0.097	0.1662	-0.42
Mof_O 	O 	0.9084	0.3432	0.7564	-0.452
Mof_O 	O 	0.9661	0.3985	0.7455	-0.268
Mof_O 	O 	0.9694	0.2955	0.6608	-0.488
Mof_O 	O 	0.9109	0.266	0.5892	-0.469
Mof_O 	O 	0.8561	0.4378	0.4231	-0.518
Mof_O 	O 	0.8891	0.1749	0.5067	-0.429
Mof_O 	O 	0.7427	0.0708	0.3238	-0.455
Mof_O 	O 	0.7868	0.0453	0.4137	-0.478
Mof_O 	O 	0.8461	0.5034	0.5766	-0.558
Mof_O 	O 	0.7959	0.4634	0.5195	-0.569
Mof_O 	O 	0.9114	0.2306	0.4363	-0.259
Mof_O 	O 	0.8354	0.3704	0.4179	-0.318
_end
