data_functionalizedCrystal
_audit_creation_method	'EQeq! by Chris Wilmer'
_symmetry_space_group_name_H-M	'P1'
_symmetry_Int_Tables_number	1
_symmetry_cell_setting	triclinic
loop_
_symmetry_equiv_pos_as_xyz
  x,y,z
_cell_length_a	9.1337
_cell_length_b	14.4635
_cell_length_c	18.0343
_cell_angle_alpha	93.353
_cell_angle_beta	102.988
_cell_angle_gamma	91.068
loop_
_atom_site_label
_atom_site_type_symbol
_atom_site_fract_x
_atom_site_fract_y
_atom_site_fract_z
_atom_site_charge
Mof_Zn	Zn	0.16031	0.73439	0.59942	1.212
Mof_Zn	Zn	0.85378	0.27461	0.92466	1.216
Mof_C 	C 	0.7165	0.1296	0.8297	0.362
Mof_C 	C 	0.5923	0.0602	0.8038	-0.101
Mof_C 	C 	0.4793	0.0394	0.8373	-0.005
Mof_H 	H 	0.469	0.0676	0.8834	0.043
Mof_C 	C 	0.3806	0.9722	0.7963	-0.012
Mof_H 	H 	0.2969	0.9503	0.8122	0.046
Mof_C 	C 	0.4168	0.9407	0.7306	-0.093
Mof_C 	C 	0.342	0.8698	0.6722	0.334
Mof_C 	C 	0.7611	0.2497	0.0727	0.013
Mof_H 	H 	0.6909	0.2025	0.0515	0.02
Mof_C 	C 	0.7958	0.2799	0.1461	-0.012
Mof_H 	H 	0.7536	0.259	0.1847	0.045
Mof_C 	C 	0.9291	0.3566	0.0851	0.091
Mof_H 	H 	0.9979	0.3992	0.0745	-0.002
Mof_C 	C 	0.9856	0.3994	0.2233	-0.04
Mof_H 	H 	0.0923	0.3888	0.2306	0.053
Mof_H 	H 	0.9526	0.3767	0.2666	0.042
Mof_C 	C 	0.9611	0.5013	0.221	-0.099
Mof_H 	H 	0.8556	0.5132	0.2174	0.066
Mof_H 	H 	0.9895	0.5244	0.1766	0.066
Mof_C 	C 	0.0562	0.5504	0.2935	-0.122
Mof_H 	H 	0.0262	0.5274	0.3374	0.079
Mof_H 	H 	0.161	0.5364	0.2974	0.073
Mof_C 	C 	0.0402	0.6509	0.2943	-0.033
Mof_H 	H 	0.9343	0.6648	0.2839	0.046
Mof_H 	H 	0.0825	0.6753	0.2544	0.047
Mof_C 	C 	0.2255	0.7622	0.3813	-0.012
Mof_H 	H 	0.2712	0.7872	0.3454	0.054
Mof_C 	C 	0.255	0.7852	0.4556	0.017
Mof_H 	H 	0.3258	0.8303	0.4805	0.027
Mof_C 	C 	0.0845	0.681	0.4342	0.091
Mof_H 	H 	0.0117	0.6383	0.4406	-0.004
Mof_C 	C 	0.1312	0.2317	0.8668	0.007
Mof_H 	H 	0.0831	0.1877	0.8291	0.028
Mof_C 	C 	0.2763	0.2599	0.8793	-0.008
Mof_H 	H 	0.3461	0.2388	0.8524	0.037
Mof_C 	C 	0.1741	0.3327	0.9608	0.088
Mof_H 	H 	0.1616	0.3719	0.0014	-0.005
Mof_C 	C 	0.4425	0.3715	0.9759	-0.033
Mof_H 	H 	0.5203	0.3524	0.95	0.036
Mof_H 	H 	0.4714	0.3536	0.0281	0.047
Mof_C 	C 	0.4299	0.4759	0.9759	-0.111
Mof_H 	H 	0.4146	0.4947	0.924	0.069
Mof_H 	H 	0.3436	0.4942	0.9956	0.072
Mof_C 	C 	0.8604	0.775	0.6352	0.014
Mof_H 	H 	0.8996	0.8274	0.6661	0.023
Mof_C 	C 	0.7165	0.7464	0.6192	-0.015
Mof_H 	H 	0.6388	0.7744	0.6367	0.059
Mof_C 	C 	0.844	0.6525	0.562	0.087
Mof_H 	H 	0.8678	0.6029	0.5322	0.004
Mof_C 	C 	0.5636	0.6214	0.5307	-0.031
Mof_H 	H 	0.4843	0.6376	0.5565	0.043
Mof_H 	H 	0.5363	0.6431	0.4797	0.045
Mof_C 	C 	0.5748	0.5222	0.5256	-0.118
Mof_H 	H 	0.5918	0.499	0.5761	0.07
Mof_H 	H 	0.659	0.5055	0.5035	0.076
Mof_C 	C 	0.7095	0.4412	0.8493	0.413
Mof_C 	C 	0.5775	0.4484	0.7847	-0.124
Mof_C 	C 	0.4984	0.377	0.7409	0.004
Mof_H 	H 	0.5206	0.3152	0.7475	0.039
Mof_C 	C 	0.3801	0.4062	0.6849	-0.021
Mof_H 	H 	0.3149	0.3658	0.6502	0.042
Mof_C 	C 	0.3706	0.4986	0.6866	-0.099
Mof_C 	C 	0.2606	0.5558	0.6371	0.353
Mof_O 	O 	0.7289	0.1642	0.89674	-0.473
Mof_O 	O 	0.798	0.1492	0.7874	-0.319
Mof_O 	O 	0.2134	0.8401	0.67654	-0.444
Mof_O 	O 	0.405	0.8424	0.62159	-0.335
Mof_O 	O 	0.7452	0.3593	0.86	-0.508
Mof_O 	O 	0.7691	0.5101	0.8851	-0.322
Mof_O 	O 	0.1633	0.5195	0.58468	-0.317
Mof_O 	O 	0.2788	0.6415	0.65498	-0.468
Mof_N 	N 	0.8443	0.2985	0.03375	-0.269
Mof_N 	N 	0.9047	0.3471	0.1536	-0.117
Mof_N 	N 	0.1164	0.6958	0.36802	-0.118
Mof_N 	N 	0.1681	0.7339	0.48986	-0.272
Mof_N 	N 	0.0664	0.2778	0.9182	-0.273
Mof_N 	N 	0.3018	0.3248	0.9384	-0.119
Mof_N 	N 	0.9416	0.7163	0.59971	-0.264
Mof_N 	N 	0.7058	0.6686	0.5723	-0.116
Mof_S 	S 	0.57634	0.99578	0.71972	0.068
Mof_S 	S 	0.50739	0.55187	0.75769	0.071
Mof_Zn	Zn	0.83969	0.26561	0.40058	1.211
Mof_Zn	Zn	0.14622	0.72539	0.07534	1.215
Mof_C 	C 	0.2835	0.8704	0.1703	0.361
Mof_C 	C 	0.4077	0.9398	0.1962	-0.102
Mof_C 	C 	0.5207	0.9606	0.1627	-0.006
Mof_H 	H 	0.531	0.9324	0.1166	0.042
Mof_C 	C 	0.6194	0.0278	0.2037	-0.013
Mof_H 	H 	0.7031	0.0497	0.1878	0.045
Mof_C 	C 	0.5832	0.0593	0.2694	-0.093
Mof_C 	C 	0.658	0.1302	0.3278	0.334
Mof_C 	C 	0.2389	0.7503	0.9273	0.013
Mof_H 	H 	0.3091	0.7975	0.9485	0.02
Mof_C 	C 	0.2042	0.7201	0.8539	-0.012
Mof_H 	H 	0.2464	0.741	0.8153	0.045
Mof_C 	C 	0.0709	0.6434	0.9149	0.091
Mof_H 	H 	0.0021	0.6008	0.9255	-0.002
Mof_C 	C 	0.0144	0.6006	0.7767	-0.04
Mof_H 	H 	0.9077	0.6112	0.7694	0.053
Mof_H 	H 	0.0474	0.6233	0.7334	0.042
Mof_C 	C 	0.0389	0.4987	0.779	-0.099
Mof_H 	H 	0.1444	0.4868	0.7826	0.066
Mof_H 	H 	0.0105	0.4756	0.8234	0.066
Mof_C 	C 	0.9438	0.4496	0.7065	-0.122
Mof_H 	H 	0.9738	0.4726	0.6626	0.079
Mof_H 	H 	0.839	0.4636	0.7026	0.073
Mof_C 	C 	0.9598	0.3491	0.7057	-0.033
Mof_H 	H 	0.0657	0.3352	0.7161	0.046
Mof_H 	H 	0.9175	0.3247	0.7456	0.047
Mof_C 	C 	0.7745	0.2378	0.6187	-0.012
Mof_H 	H 	0.7288	0.2128	0.6546	0.054
Mof_C 	C 	0.745	0.2148	0.5444	0.017
Mof_H 	H 	0.6742	0.1697	0.5195	0.027
Mof_C 	C 	0.9155	0.319	0.5658	0.091
Mof_H 	H 	0.9883	0.3617	0.5594	-0.004
Mof_C 	C 	0.8688	0.7683	0.1332	0.007
Mof_H 	H 	0.9169	0.8123	0.1709	0.028
Mof_C 	C 	0.7237	0.7401	0.1207	-0.008
Mof_H 	H 	0.6539	0.7612	0.1476	0.037
Mof_C 	C 	0.8259	0.6673	0.0392	0.088
Mof_H 	H 	0.8384	0.6281	0.9986	-0.005
Mof_C 	C 	0.5575	0.6285	0.0241	-0.033
Mof_H 	H 	0.4797	0.6476	0.05	0.036
Mof_H 	H 	0.5286	0.6464	0.9719	0.047
Mof_C 	C 	0.5701	0.5241	0.0241	-0.111
Mof_H 	H 	0.5854	0.5053	0.076	0.069
Mof_H 	H 	0.6564	0.5058	0.0044	0.072
Mof_C 	C 	0.1396	0.225	0.3648	0.014
Mof_H 	H 	0.1004	0.1726	0.3339	0.023
Mof_C 	C 	0.2835	0.2536	0.3808	-0.015
Mof_H 	H 	0.3612	0.2256	0.3633	0.059
Mof_C 	C 	0.156	0.3475	0.438	0.087
Mof_H 	H 	0.1322	0.3971	0.4678	0.004
Mof_C 	C 	0.4364	0.3786	0.4693	-0.031
Mof_H 	H 	0.5157	0.3624	0.4435	0.043
Mof_H 	H 	0.4637	0.3569	0.5203	0.045
Mof_C 	C 	0.4252	0.4778	0.4744	-0.118
Mof_H 	H 	0.4082	0.501	0.4239	0.07
Mof_H 	H 	0.341	0.4945	0.4965	0.076
Mof_C 	C 	0.2905	0.5588	0.1507	0.413
Mof_C 	C 	0.4225	0.5516	0.2153	-0.124
Mof_C 	C 	0.5016	0.623	0.2591	0.004
Mof_H 	H 	0.4794	0.6848	0.2525	0.039
Mof_C 	C 	0.6199	0.5938	0.3151	-0.021
Mof_H 	H 	0.6851	0.6342	0.3498	0.042
Mof_C 	C 	0.6294	0.5014	0.3134	-0.099
Mof_C 	C 	0.7394	0.4442	0.3629	0.353
Mof_O 	O 	0.2711	0.8358	0.10326	-0.473
Mof_O 	O 	0.202	0.8508	0.2126	-0.319
Mof_O 	O 	0.7866	0.1599	0.32346	-0.444
Mof_O 	O 	0.595	0.1576	0.37841	-0.335
Mof_O 	O 	0.2548	0.6407	0.14	-0.508
Mof_O 	O 	0.2309	0.4899	0.1149	-0.322
Mof_O 	O 	0.8367	0.4805	0.41532	-0.317
Mof_O 	O 	0.7212	0.3585	0.34502	-0.468
Mof_N 	N 	0.1557	0.7015	0.96625	-0.269
Mof_N 	N 	0.0953	0.6529	0.8464	-0.117
Mof_N 	N 	0.8836	0.3042	0.63198	-0.118
Mof_N 	N 	0.8319	0.2661	0.51014	-0.272
Mof_N 	N 	0.9336	0.7222	0.0818	-0.273
Mof_N 	N 	0.6982	0.6752	0.0616	-0.119
Mof_N 	N 	0.0584	0.2837	0.40029	-0.264
Mof_N 	N 	0.2942	0.3314	0.4277	-0.116
Mof_S 	S 	0.42366	0.00422	0.28028	0.068
Mof_S 	S 	0.49261	0.44813	0.24231	0.071
_end
