# CIF file generated by openbabel 3.1.0, see https://openbabel.org
data_I
_chemical_name_common 'image0'
_cell_length_a 9.9428
_cell_length_b 10.4394
_cell_length_c 14.5779
_cell_angle_alpha 107.05
_cell_angle_beta 109.127
_cell_angle_gamma 90.079
_space_group_name_H-M_alt 'P 1'
_space_group_name_Hall 'P 1'
loop_
    _symmetry_equiv_pos_as_xyz
    x,y,z
loop_
    _atom_site_label
    _atom_site_type_symbol
    _atom_site_fract_x
    _atom_site_fract_y
    _atom_site_fract_z
    _atom_site_occupancy
    Cd1      Cd       0.10428    0.29784    0.20177    1.000
    O1       O        0.89740    0.18510    0.06970    1.000
    O2       O        0.40930    0.04020    0.79130    1.000
    O3       O        0.85310    0.31580    0.20130    1.000
    O4       O        0.18400    0.49250    0.33780    1.000
    O5       O        0.33480    0.29820    0.18980    1.000
    C1       C        0.80850    0.23840    0.11410    1.000
    O6       O        0.09910    0.51600    0.18500    1.000
    C2       C        0.40860    0.19680    0.04730    1.000
    C3       C        0.55430    0.23280    0.10350    1.000
    H1       H        0.58480    0.27590    0.17360    1.000
    C4       C        0.60920    0.13880    0.94960    1.000
    H2       H        0.67680    0.11910    0.91740    1.000
    C5       C        0.65190    0.20370    0.05420    1.000
    O7       O        0.17210    0.17780    0.05160    1.000
    C6       C        0.36380    0.13390    0.94310    1.000
    H3       H        0.26650    0.11200    0.90590    1.000
    O8       O        0.08600    0.97100    0.14990    1.000
    C7       C        0.15160    0.56540    0.27960    1.000
    O9       O        0.36720    0.97070    0.57470    1.000
    C8       C        0.46250    0.10320    0.89330    1.000
    C9       C        0.12860    0.02840    0.24270    1.000
    C10      C        0.29830    0.22560    0.10050    1.000
    O10      O        0.14080    0.15090    0.28590    1.000
    C11      C        0.14630    0.79670    0.26540    1.000
    H4       H        0.09880    0.75860    0.19560    1.000
    C12      C        0.19080    0.71620    0.32750    1.000
    C13      C        0.26480    0.76780    0.42950    1.000
    H5       H        0.29510    0.71080    0.46900    1.000
    C14      C        0.17420    0.93730    0.30970    1.000
    C15      C        0.51110    0.98270    0.74070    1.000
    H6       H        0.57550    0.93400    0.78080    1.000
    H7       H        0.56780    0.05470    0.73620    1.000
    C16      C        0.24620    0.99330    0.41420    1.000
    H8       H        0.26190    0.08640    0.44370    1.000
    C17      C        0.29490    0.90940    0.47480    1.000
    C18      C        0.43300    0.88990    0.63660    1.000
    H9       H        0.49900    0.83670    0.60920    1.000
    H10      H        0.36110    0.82900    0.63870    1.000
    Cd2      Cd       0.89572    0.70216    0.79823    1.000
    O11      O        0.10260    0.81490    0.93030    1.000
    O12      O        0.59070    0.95980    0.20870    1.000
    O13      O        0.14690    0.68420    0.79870    1.000
    O14      O        0.81600    0.50750    0.66220    1.000
    O15      O        0.66520    0.70180    0.81020    1.000
    C19      C        0.19150    0.76160    0.88590    1.000
    O16      O        0.90090    0.48400    0.81500    1.000
    C20      C        0.59140    0.80320    0.95270    1.000
    C21      C        0.44570    0.76720    0.89650    1.000
    H11      H        0.41520    0.72410    0.82640    1.000
    C22      C        0.39080    0.86120    0.05040    1.000
    H12      H        0.32320    0.88090    0.08260    1.000
    C23      C        0.34810    0.79630    0.94580    1.000
    O17      O        0.82790    0.82220    0.94840    1.000
    C24      C        0.63620    0.86610    0.05690    1.000
    H13      H        0.73350    0.88800    0.09410    1.000
    O18      O        0.91400    0.02900    0.85010    1.000
    C25      C        0.84840    0.43460    0.72040    1.000
    O19      O        0.63280    0.02930    0.42530    1.000
    C26      C        0.53750    0.89680    0.10670    1.000
    C27      C        0.87140    0.97160    0.75730    1.000
    C28      C        0.70170    0.77440    0.89950    1.000
    O20      O        0.85920    0.84910    0.71410    1.000
    C29      C        0.85370    0.20330    0.73460    1.000
    H14      H        0.90120    0.24140    0.80440    1.000
    C30      C        0.80920    0.28380    0.67250    1.000
    C31      C        0.73520    0.23220    0.57050    1.000
    H15      H        0.70490    0.28920    0.53100    1.000
    C32      C        0.82580    0.06270    0.69030    1.000
    C33      C        0.48890    0.01730    0.25930    1.000
    H16      H        0.42450    0.06600    0.21920    1.000
    H17      H        0.43220    0.94530    0.26380    1.000
    C34      C        0.75380    0.00670    0.58580    1.000
    H18      H        0.73810    0.91360    0.55630    1.000
    C35      C        0.70510    0.09060    0.52520    1.000
    C36      C        0.56700    0.11010    0.36340    1.000
    H19      H        0.50100    0.16330    0.39080    1.000
    H20      H        0.63890    0.17100    0.36130    1.000
    Cd3      Cd       0.00000    0.00000    0.00000    1.000
