data_functionalizedCrystal
_audit_creation_method	'EQeq! by Chris Wilmer'
_symmetry_space_group_name_H-M	'P1'
_symmetry_Int_Tables_number	1
_symmetry_cell_setting	triclinic
loop_
_symmetry_equiv_pos_as_xyz
  x,y,z
_cell_length_a	17.019
_cell_length_b	6.5844
_cell_length_c	12.262
_cell_angle_alpha	90
_cell_angle_beta	90
_cell_angle_gamma	90
loop_
_atom_site_label
_atom_site_type_symbol
_atom_site_fract_x
_atom_site_fract_y
_atom_site_fract_z
_atom_site_charge
Mof_O 	O 	0.0723	0.9201	0.89083	-0.364
Mof_O 	O 	0.41325	0.9202	0.58606	-1.645
Mof_C 	C 	0.27391	0.9317	0.7013	0.714
Mof_H 	H 	0.2966	0.054	0.68	-0.405
Mof_C 	C 	0.20527	0.9318	0.762	0.083
Mof_H 	H 	0.1823	0.0541	0.7825	-0.169
Mof_O 	O 	0.4277	0.0799	0.39083	-1.893
Mof_O 	O 	0.08675	0.0798	0.08606	-0.77
Mof_C 	C 	0.22609	0.0683	0.2013	-0.591
Mof_H 	H 	0.2034	0.946	0.18	0.374
Mof_C 	C 	0.29473	0.0682	0.262	-0.066
Mof_H 	H 	0.3177	0.9459	0.2825	0.203
Mof_O 	O 	0.9277	0.4201	0.10917	-0.679
Mof_O 	O 	0.58675	0.4202	0.41394	-2.04
Mof_C 	C 	0.72609	0.4317	0.2987	0.338
Mof_H 	H 	0.7034	0.554	0.32	-0.093
Mof_C 	C 	0.79473	0.4318	0.238	-0.319
Mof_H 	H 	0.8177	0.5541	0.2175	0.158
Mof_O 	O 	0.5723	0.5799	0.60917	-2.014
Mof_O 	O 	0.91325	0.5798	0.91394	-0.571
Mof_C 	C 	0.77391	0.5683	0.7987	-0.236
Mof_H 	H 	0.7966	0.446	0.82	0.13
Mof_C 	C 	0.70527	0.5682	0.738	0.4
Mof_H 	H 	0.6823	0.4459	0.7175	-0.112
Mof_O 	O 	0.9277	0.0799	0.10917	-0.567
Mof_O 	O 	0.58675	0.0798	0.41394	-1.917
Mof_C 	C 	0.72609	0.0683	0.2987	0.008
Mof_H 	H 	0.7034	0.946	0.32	0.179
Mof_C 	C 	0.79473	0.0682	0.238	-0.635
Mof_H 	H 	0.8177	0.9459	0.2175	0.421
Mof_O 	O 	0.5723	0.9201	0.60917	-1.619
Mof_O 	O 	0.91325	0.9202	0.91394	-0.201
Mof_C 	C 	0.77391	0.9317	0.7987	0.071
Mof_H 	H 	0.7966	0.054	0.82	-0.138
Mof_C 	C 	0.70527	0.9318	0.738	0.725
Mof_H 	H 	0.6823	0.0541	0.7175	-0.39
Mof_O 	O 	0.0723	0.5799	0.89083	-0.738
Mof_O 	O 	0.41325	0.5798	0.58606	-2.044
Mof_C 	C 	0.27391	0.5683	0.7013	0.388
Mof_H 	H 	0.2966	0.446	0.68	-0.127
Mof_C 	C 	0.20527	0.5682	0.762	-0.233
Mof_H 	H 	0.1823	0.4459	0.7825	0.103
Mof_O 	O 	0.4277	0.4201	0.39083	-2.014
Mof_O 	O 	0.08675	0.4202	0.08606	-0.882
Mof_C 	C 	0.22609	0.4317	0.2013	-0.271
Mof_H 	H 	0.2034	0.554	0.18	0.106
Mof_C 	C 	0.29473	0.4318	0.262	0.268
Mof_H 	H 	0.3177	0.5541	0.2825	-0.073
Mof_Al	Al	-0	0	-0	1.351
Mof_Al	Al	0.5	-9.18563e-33	0.5	7.231
Mof_Al	Al	-0	0.5	-0	2.802
Mof_Al	Al	0.5	0.5	0.5	8.783
Mof_O 	O 	0.00511	0.75	0.06418	-1.464
Mof_H 	H 	0.017	0.75	0.1284	0.591
Mof_C 	C 	0.38409	0.75	0.6099	1.509
Mof_C 	C 	0.30865	0.75	0.6723	-0.693
Mof_C 	C 	0.09934	0.75	0.8629	0.547
Mof_C 	C 	0.17087	0.75	0.7923	-0.038
Mof_O 	O 	0.49489	0.25	0.56418	-4.085
Mof_H 	H 	0.483	0.25	0.6284	1.393
Mof_C 	C 	0.11591	0.25	0.1099	0.452
Mof_C 	C 	0.19135	0.25	0.1723	0.065
Mof_C 	C 	0.40066	0.25	0.3629	1.383
Mof_C 	C 	0.32913	0.25	0.2923	-0.489
Mof_O 	O 	0.99489	0.25	0.93582	-0.949
Mof_H 	H 	0.983	0.25	0.8716	0.471
Mof_C 	C 	0.61591	0.25	0.3901	1.424
Mof_C 	C 	0.69135	0.25	0.3277	-0.534
Mof_C 	C 	0.90066	0.25	0.1371	0.413
Mof_C 	C 	0.82913	0.25	0.2077	0.161
Mof_O 	O 	0.50511	0.75	0.43582	-3.98
Mof_H 	H 	0.517	0.75	0.3716	1.437
Mof_C 	C 	0.88409	0.75	0.8901	0.533
Mof_C 	C 	0.80865	0.75	0.8277	0.015
Mof_C 	C 	0.59934	0.75	0.6371	1.492
Mof_C 	C 	0.67087	0.75	0.7077	-0.674
_end
