data_functionalizedCrystal
_audit_creation_method	'EQeq! by Chris Wilmer'
_symmetry_space_group_name_H-M	'P1'
_symmetry_Int_Tables_number	1
_symmetry_cell_setting	triclinic
loop_
_symmetry_equiv_pos_as_xyz
  x,y,z
_cell_length_a	23.404
_cell_length_b	11.0971
_cell_length_c	20.766
_cell_angle_alpha	90
_cell_angle_beta	120.476
_cell_angle_gamma	90
loop_
_atom_site_label
_atom_site_type_symbol
_atom_site_fract_x
_atom_site_fract_y
_atom_site_fract_z
_atom_site_charge
Mof_O 	O 	0.50613	0.3424	0.3316	-0.287
Mof_N 	N 	0.47268	0.8835	0.30229	-0.117
Mof_N 	N 	0.55943	0.1676	0.37505	-0.281
Mof_H 	H 	0.5976	0.136	0.4044	0.168
Mof_C 	C 	0.50573	0.0894	0.33938	0.148
Mof_C 	C 	0.51898	0.9673	0.33707	-0.063
Mof_H 	H 	0.5631	0.943	0.3615	0.073
Mof_C 	C 	0.40875	0.9189	0.26822	0.003
Mof_H 	H 	0.3756	0.8614	0.244	0.024
Mof_C 	C 	0.39091	0.036	0.26802	-0.015
Mof_H 	H 	0.3463	0.0569	0.244	0.025
Mof_C 	C 	0.43911	0.1242	0.30357	-0.129
Mof_H 	H 	0.4274	0.2043	0.3035	0.095
Mof_C 	C 	0.6211	0.3567	0.4004	-0.428
Mof_H 	H 	0.617	0.4247	0.4272	0.163
Mof_H 	H 	0.6235	0.3898	0.3586	0.165
Mof_C 	C 	0.6873	0.2991	0.4518	0.154
Mof_C 	C 	0.7224	0.2445	0.4248	-0.104
Mof_H 	H 	0.7043	0.2389	0.3734	0.063
Mof_C 	C 	0.7157	0.303	0.5286	-0.097
Mof_H 	H 	0.6926	0.3384	0.5491	0.058
Mof_C 	C 	0.557	0.2878	0.3678	0.35
Mof_N 	N 	0.60377	0.6928	0.35706	-0.123
Mof_N 	N 	0.76173	0.5625	0.40165	-0.259
Mof_H 	H 	0.7535	0.5698	0.3565	0.123
Mof_C 	C 	0.71314	0.6077	0.41575	0.124
Mof_C 	C 	0.65544	0.6482	0.35372	-0.062
Mof_H 	H 	0.6524	0.6443	0.3073	0.043
Mof_C 	C 	0.60948	0.7003	0.4245	0.006
Mof_H 	H 	0.5745	0.7325	0.4281	0.029
Mof_C 	C 	0.66534	0.6621	0.48871	-0.018
Mof_H 	H 	0.6675	0.6681	0.5346	0.032
Mof_C 	C 	0.71838	0.6145	0.48482	-0.127
Mof_H 	H 	0.7564	0.5879	0.5276	0.097
Mof_O 	O 	0.83991	0.4988	0.51704	-0.275
Mof_C 	C 	0.85746	0.4591	0.4142	-0.369
Mof_H 	H 	0.8492	0.3732	0.4065	0.136
Mof_H 	H 	0.8403	0.4964	0.3656	0.131
Mof_C 	C 	0.93122	0.48	0.45949	0.111
Mof_C 	C 	0.97471	0.3841	0.48197	-0.047
Mof_H 	H 	0.9584	0.3059	0.4698	0.048
Mof_C 	C 	0.04292	0.4035	0.52268	-0.141
Mof_H 	H 	0.0716	0.338	0.5382	0.079
Mof_C 	C 	0.8203	0.5085	0.45037	0.305
Mof_O 	O 	0.00613	0.8424	0.3316	-0.291
Mof_N 	N 	0.97268	0.3835	0.30229	-0.109
Mof_N 	N 	0.05943	0.6676	0.37505	-0.279
Mof_H 	H 	0.0976	0.636	0.4044	0.169
Mof_C 	C 	0.00573	0.5894	0.33938	0.135
Mof_C 	C 	0.01898	0.4673	0.33707	-0.07
Mof_H 	H 	0.0631	0.443	0.3615	0.075
Mof_C 	C 	0.90875	0.4189	0.26822	0.009
Mof_H 	H 	0.8756	0.3614	0.244	0.023
Mof_C 	C 	0.89091	0.536	0.26802	-0.024
Mof_H 	H 	0.8463	0.5569	0.244	0.029
Mof_C 	C 	0.93911	0.6242	0.30357	-0.11
Mof_H 	H 	0.9274	0.7043	0.3035	0.091
Mof_C 	C 	0.1211	0.8567	0.4004	-0.427
Mof_H 	H 	0.117	0.9247	0.4272	0.162
Mof_H 	H 	0.1235	0.8898	0.3586	0.164
Mof_C 	C 	0.1873	0.7991	0.4518	0.153
Mof_C 	C 	0.2224	0.7445	0.4248	-0.104
Mof_H 	H 	0.2043	0.7389	0.3734	0.063
Mof_C 	C 	0.2157	0.803	0.5286	-0.097
Mof_H 	H 	0.1926	0.8384	0.5491	0.057
Mof_C 	C 	0.057	0.7878	0.3678	0.348
Mof_N 	N 	0.10377	0.1928	0.35706	-0.124
Mof_N 	N 	0.26173	0.0625	0.40165	-0.261
Mof_H 	H 	0.2535	0.0698	0.3565	0.123
Mof_C 	C 	0.21314	0.1077	0.41575	0.124
Mof_C 	C 	0.15544	0.1482	0.35372	-0.062
Mof_H 	H 	0.1524	0.1443	0.3073	0.042
Mof_C 	C 	0.10948	0.2003	0.4245	0.006
Mof_H 	H 	0.0745	0.2325	0.4281	0.027
Mof_C 	C 	0.16534	0.1621	0.48871	-0.018
Mof_H 	H 	0.1675	0.1681	0.5346	0.031
Mof_C 	C 	0.21838	0.1145	0.48482	-0.127
Mof_H 	H 	0.2564	0.0879	0.5276	0.097
Mof_O 	O 	0.33991	0.9988	0.51704	-0.277
Mof_C 	C 	0.35746	0.9591	0.4142	-0.39
Mof_H 	H 	0.3492	0.8732	0.4065	0.142
Mof_H 	H 	0.3403	0.9964	0.3656	0.136
Mof_C 	C 	0.43122	0.98	0.45949	0.144
Mof_C 	C 	0.47471	0.8841	0.48197	-0.097
Mof_H 	H 	0.4584	0.8059	0.4698	0.062
Mof_C 	C 	0.54292	0.9035	0.52268	-0.091
Mof_H 	H 	0.5716	0.838	0.5382	0.064
Mof_C 	C 	0.3203	0.0085	0.45037	0.31
Mof_O 	O 	0.49387	0.3424	0.1684	-0.286
Mof_N 	N 	0.52732	0.8835	0.19771	-0.116
Mof_N 	N 	0.44057	0.1676	0.12495	-0.281
Mof_H 	H 	0.4024	0.136	0.0956	0.169
Mof_C 	C 	0.49427	0.0894	0.16062	0.149
Mof_C 	C 	0.48102	0.9673	0.16293	-0.062
Mof_H 	H 	0.4369	0.943	0.1385	0.073
Mof_C 	C 	0.59125	0.9189	0.23178	0.003
Mof_H 	H 	0.6244	0.8614	0.256	0.024
Mof_C 	C 	0.60909	0.036	0.23198	-0.015
Mof_H 	H 	0.6537	0.0569	0.256	0.025
Mof_C 	C 	0.56089	0.1242	0.19643	-0.129
Mof_H 	H 	0.5726	0.2043	0.1965	0.095
Mof_C 	C 	0.3789	0.3567	0.0996	-0.432
Mof_H 	H 	0.383	0.4247	0.0728	0.164
Mof_H 	H 	0.3765	0.3898	0.1414	0.166
Mof_C 	C 	0.3127	0.2991	0.0482	0.161
Mof_C 	C 	0.2776	0.2445	0.0752	-0.112
Mof_H 	H 	0.2957	0.2389	0.1266	0.066
Mof_C 	C 	0.2843	0.303	0.9714	-0.106
Mof_H 	H 	0.3074	0.3384	0.9509	0.06
Mof_C 	C 	0.443	0.2878	0.1322	0.351
Mof_N 	N 	0.39623	0.6928	0.14294	-0.123
Mof_N 	N 	0.23827	0.5625	0.09835	-0.262
Mof_H 	H 	0.2465	0.5698	0.1435	0.123
Mof_C 	C 	0.28686	0.6077	0.08425	0.124
Mof_C 	C 	0.34456	0.6482	0.14628	-0.063
Mof_H 	H 	0.3476	0.6443	0.1927	0.043
Mof_C 	C 	0.39052	0.7003	0.0755	0.005
Mof_H 	H 	0.4255	0.7325	0.0719	0.029
Mof_C 	C 	0.33466	0.6621	0.01129	-0.016
Mof_H 	H 	0.3325	0.6681	0.9654	0.031
Mof_C 	C 	0.28162	0.6145	0.01518	-0.126
Mof_H 	H 	0.2436	0.5879	0.9724	0.096
Mof_O 	O 	0.16009	0.4988	0.98296	-0.28
Mof_C 	C 	0.14254	0.4591	0.0858	-0.41
Mof_H 	H 	0.1508	0.3732	0.0935	0.147
Mof_H 	H 	0.1597	0.4964	0.1344	0.142
Mof_C 	C 	0.06878	0.48	0.04051	0.174
Mof_C 	C 	0.02529	0.3841	0.01803	-0.14
Mof_H 	H 	0.0416	0.3059	0.0302	0.075
Mof_C 	C 	0.95708	0.4035	0.97732	-0.049
Mof_H 	H 	0.9284	0.338	0.9618	0.05
Mof_C 	C 	0.1797	0.5085	0.04963	0.317
Mof_O 	O 	0.99387	0.8424	0.1684	-0.281
Mof_N 	N 	0.02732	0.3835	0.19771	-0.121
Mof_N 	N 	0.94057	0.6676	0.12495	-0.282
Mof_H 	H 	0.9024	0.636	0.0956	0.17
Mof_C 	C 	0.99427	0.5894	0.16062	0.162
Mof_C 	C 	0.98102	0.4673	0.16293	-0.053
Mof_H 	H 	0.9369	0.443	0.1385	0.071
Mof_C 	C 	0.09125	0.4189	0.23178	-0.003
Mof_H 	H 	0.1244	0.3614	0.256	0.026
Mof_C 	C 	0.10909	0.536	0.23198	-0.006
Mof_H 	H 	0.1537	0.5569	0.256	0.021
Mof_C 	C 	0.06089	0.6242	0.19643	-0.149
Mof_H 	H 	0.0726	0.7043	0.1965	0.098
Mof_C 	C 	0.8789	0.8567	0.0996	-0.434
Mof_H 	H 	0.883	0.9247	0.0728	0.165
Mof_H 	H 	0.8765	0.8898	0.1414	0.168
Mof_C 	C 	0.8127	0.7991	0.0482	0.162
Mof_C 	C 	0.7776	0.7445	0.0752	-0.113
Mof_H 	H 	0.7957	0.7389	0.1266	0.066
Mof_C 	C 	0.7843	0.803	0.9714	-0.107
Mof_H 	H 	0.8074	0.8384	0.9509	0.061
Mof_C 	C 	0.943	0.7878	0.1322	0.353
Mof_N 	N 	0.89623	0.1928	0.14294	-0.121
Mof_N 	N 	0.73827	0.0625	0.09835	-0.261
Mof_H 	H 	0.7465	0.0698	0.1435	0.124
Mof_C 	C 	0.78686	0.1077	0.08425	0.125
Mof_C 	C 	0.84456	0.1482	0.14628	-0.062
Mof_H 	H 	0.8476	0.1443	0.1927	0.044
Mof_C 	C 	0.89052	0.2003	0.0755	0.005
Mof_H 	H 	0.9255	0.2325	0.0719	0.032
Mof_C 	C 	0.83466	0.1621	0.01129	-0.015
Mof_H 	H 	0.8325	0.1681	0.9654	0.031
Mof_C 	C 	0.78162	0.1145	0.01518	-0.126
Mof_H 	H 	0.7436	0.0879	0.9724	0.095
Mof_O 	O 	0.66009	0.9988	0.98296	-0.278
Mof_C 	C 	0.64254	0.9591	0.0858	-0.389
Mof_H 	H 	0.6508	0.8732	0.0935	0.142
Mof_H 	H 	0.6597	0.9964	0.1344	0.136
Mof_C 	C 	0.56878	0.98	0.04051	0.142
Mof_C 	C 	0.52529	0.8841	0.01803	-0.093
Mof_H 	H 	0.5416	0.8059	0.0302	0.061
Mof_C 	C 	0.45708	0.9035	0.97732	-0.095
Mof_H 	H 	0.4284	0.838	0.9618	0.065
Mof_C 	C 	0.6797	0.0085	0.04963	0.312
Mof_O 	O 	0.49387	0.6576	0.6684	-0.286
Mof_N 	N 	0.52732	0.1165	0.69771	-0.116
Mof_N 	N 	0.44057	0.8324	0.62495	-0.281
Mof_H 	H 	0.4024	0.864	0.5956	0.169
Mof_C 	C 	0.49427	0.9106	0.66062	0.149
Mof_C 	C 	0.48102	0.0327	0.66293	-0.062
Mof_H 	H 	0.4369	0.057	0.6385	0.073
Mof_C 	C 	0.59125	0.0811	0.73178	0.002
Mof_H 	H 	0.6244	0.1386	0.756	0.024
Mof_C 	C 	0.60909	0.964	0.73198	-0.014
Mof_H 	H 	0.6537	0.9431	0.756	0.025
Mof_C 	C 	0.56089	0.8758	0.69643	-0.13
Mof_H 	H 	0.5726	0.7957	0.6965	0.095
Mof_C 	C 	0.3789	0.6433	0.5996	-0.429
Mof_H 	H 	0.383	0.5753	0.5728	0.163
Mof_H 	H 	0.3765	0.6102	0.6414	0.165
Mof_C 	C 	0.3127	0.7009	0.5482	0.155
Mof_C 	C 	0.2776	0.7555	0.5752	-0.106
Mof_H 	H 	0.2957	0.7611	0.6266	0.064
Mof_C 	C 	0.2843	0.697	0.4714	-0.099
Mof_H 	H 	0.3074	0.6616	0.4509	0.058
Mof_C 	C 	0.443	0.7122	0.6322	0.35
Mof_N 	N 	0.39623	0.3072	0.64294	-0.123
Mof_N 	N 	0.23827	0.4375	0.59835	-0.262
Mof_H 	H 	0.2465	0.4302	0.6435	0.123
Mof_C 	C 	0.28686	0.3923	0.58425	0.125
Mof_C 	C 	0.34456	0.3518	0.64628	-0.063
Mof_H 	H 	0.3476	0.3557	0.6927	0.043
Mof_C 	C 	0.39052	0.2997	0.5755	0.006
Mof_H 	H 	0.4255	0.2675	0.5719	0.029
Mof_C 	C 	0.33466	0.3379	0.51129	-0.018
Mof_H 	H 	0.3325	0.3319	0.4654	0.032
Mof_C 	C 	0.28162	0.3855	0.51518	-0.127
Mof_H 	H 	0.2436	0.4121	0.4724	0.097
Mof_O 	O 	0.16009	0.5012	0.48296	-0.279
Mof_C 	C 	0.14254	0.5409	0.5858	-0.412
Mof_H 	H 	0.1508	0.6268	0.5935	0.148
Mof_H 	H 	0.1597	0.5036	0.6344	0.142
Mof_C 	C 	0.06878	0.52	0.54051	0.178
Mof_C 	C 	0.02529	0.6159	0.51803	-0.146
Mof_H 	H 	0.0416	0.6941	0.5302	0.077
Mof_C 	C 	0.95708	0.5965	0.47732	-0.042
Mof_H 	H 	0.9284	0.662	0.4618	0.049
Mof_C 	C 	0.1797	0.4915	0.54963	0.316
Mof_O 	O 	0.99387	0.1576	0.6684	-0.28
Mof_N 	N 	0.02732	0.6165	0.69771	-0.121
Mof_N 	N 	0.94057	0.3324	0.62495	-0.282
Mof_H 	H 	0.9024	0.364	0.5956	0.169
Mof_C 	C 	0.99427	0.4106	0.66062	0.162
Mof_C 	C 	0.98102	0.5327	0.66293	-0.054
Mof_H 	H 	0.9369	0.557	0.6385	0.071
Mof_C 	C 	0.09125	0.5811	0.73178	-0.003
Mof_H 	H 	0.1244	0.6386	0.756	0.026
Mof_C 	C 	0.10909	0.464	0.73198	-0.006
Mof_H 	H 	0.1537	0.4431	0.756	0.021
Mof_C 	C 	0.06089	0.3758	0.69643	-0.148
Mof_H 	H 	0.0726	0.2957	0.6965	0.098
Mof_C 	C 	0.8789	0.1433	0.5996	-0.43
Mof_H 	H 	0.883	0.0753	0.5728	0.164
Mof_H 	H 	0.8765	0.1102	0.6414	0.167
Mof_C 	C 	0.8127	0.2009	0.5482	0.156
Mof_C 	C 	0.7776	0.2555	0.5752	-0.107
Mof_H 	H 	0.7957	0.2611	0.6266	0.064
Mof_C 	C 	0.7843	0.197	0.4714	-0.1
Mof_H 	H 	0.8074	0.1616	0.4509	0.059
Mof_C 	C 	0.943	0.2122	0.6322	0.352
Mof_N 	N 	0.89623	0.8072	0.64294	-0.121
Mof_N 	N 	0.73827	0.9375	0.59835	-0.261
Mof_H 	H 	0.7465	0.9302	0.6435	0.124
Mof_C 	C 	0.78686	0.8923	0.58425	0.125
Mof_C 	C 	0.84456	0.8518	0.64628	-0.062
Mof_H 	H 	0.8476	0.8557	0.6927	0.044
Mof_C 	C 	0.89052	0.7997	0.5755	0.006
Mof_H 	H 	0.9255	0.7675	0.5719	0.032
Mof_C 	C 	0.83466	0.8379	0.51129	-0.017
Mof_H 	H 	0.8325	0.8319	0.4654	0.033
Mof_C 	C 	0.78162	0.8855	0.51518	-0.127
Mof_H 	H 	0.7436	0.9121	0.4724	0.097
Mof_O 	O 	0.66009	0.0012	0.48296	-0.277
Mof_C 	C 	0.64254	0.0409	0.5858	-0.39
Mof_H 	H 	0.6508	0.1268	0.5935	0.142
Mof_H 	H 	0.6597	0.0036	0.6344	0.137
Mof_C 	C 	0.56878	0.02	0.54051	0.144
Mof_C 	C 	0.52529	0.1159	0.51803	-0.097
Mof_H 	H 	0.5416	0.1941	0.5302	0.062
Mof_C 	C 	0.45708	0.0965	0.47732	-0.092
Mof_H 	H 	0.4284	0.162	0.4618	0.064
Mof_C 	C 	0.6797	0.9915	0.54963	0.311
Mof_O 	O 	0.50613	0.6576	0.8316	-0.286
Mof_N 	N 	0.47268	0.1165	0.80229	-0.116
Mof_N 	N 	0.55943	0.8324	0.87505	-0.28
Mof_H 	H 	0.5976	0.864	0.9044	0.169
Mof_C 	C 	0.50573	0.9106	0.83938	0.149
Mof_C 	C 	0.51898	0.0327	0.83707	-0.062
Mof_H 	H 	0.5631	0.057	0.8615	0.073
Mof_C 	C 	0.40875	0.0811	0.76822	0.002
Mof_H 	H 	0.3756	0.1386	0.744	0.024
Mof_C 	C 	0.39091	0.964	0.76802	-0.014
Mof_H 	H 	0.3463	0.9431	0.744	0.025
Mof_C 	C 	0.43911	0.8758	0.80357	-0.13
Mof_H 	H 	0.4274	0.7957	0.8035	0.095
Mof_C 	C 	0.6211	0.6433	0.9004	-0.424
Mof_H 	H 	0.617	0.5753	0.9272	0.161
Mof_H 	H 	0.6235	0.6102	0.8586	0.164
Mof_C 	C 	0.6873	0.7009	0.9518	0.148
Mof_C 	C 	0.7224	0.7555	0.9248	-0.098
Mof_H 	H 	0.7043	0.7611	0.8734	0.061
Mof_C 	C 	0.7157	0.697	0.0286	-0.09
Mof_H 	H 	0.6926	0.6616	0.0491	0.056
Mof_C 	C 	0.557	0.7122	0.8678	0.349
Mof_N 	N 	0.60377	0.3072	0.85706	-0.124
Mof_N 	N 	0.76173	0.4375	0.90165	-0.259
Mof_H 	H 	0.7535	0.4302	0.8565	0.123
Mof_C 	C 	0.71314	0.3923	0.91575	0.125
Mof_C 	C 	0.65544	0.3518	0.85372	-0.062
Mof_H 	H 	0.6524	0.3557	0.8073	0.043
Mof_C 	C 	0.60948	0.2997	0.9245	0.007
Mof_H 	H 	0.5745	0.2675	0.9281	0.028
Mof_C 	C 	0.66534	0.3379	0.98871	-0.021
Mof_H 	H 	0.6675	0.3319	0.0346	0.034
Mof_C 	C 	0.71838	0.3855	0.98482	-0.129
Mof_H 	H 	0.7564	0.4121	0.0276	0.098
Mof_O 	O 	0.83991	0.5012	0.01704	-0.274
Mof_C 	C 	0.85746	0.5409	0.9142	-0.37
Mof_H 	H 	0.8492	0.6268	0.9065	0.136
Mof_H 	H 	0.8403	0.5036	0.8656	0.131
Mof_C 	C 	0.93122	0.52	0.95949	0.114
Mof_C 	C 	0.97471	0.6159	0.98197	-0.053
Mof_H 	H 	0.9584	0.6941	0.9698	0.05
Mof_C 	C 	0.04292	0.5965	0.02268	-0.135
Mof_H 	H 	0.0716	0.662	0.0382	0.077
Mof_C 	C 	0.8203	0.4915	0.95037	0.303
Mof_O 	O 	0.00613	0.1576	0.8316	-0.291
Mof_N 	N 	0.97268	0.6165	0.80229	-0.109
Mof_N 	N 	0.05943	0.3324	0.87505	-0.279
Mof_H 	H 	0.0976	0.364	0.9044	0.168
Mof_C 	C 	0.00573	0.4106	0.83938	0.136
Mof_C 	C 	0.01898	0.5327	0.83707	-0.07
Mof_H 	H 	0.0631	0.557	0.8615	0.075
Mof_C 	C 	0.90875	0.5811	0.76822	0.009
Mof_H 	H 	0.8756	0.6386	0.744	0.023
Mof_C 	C 	0.89091	0.464	0.76802	-0.024
Mof_H 	H 	0.8463	0.4431	0.744	0.028
Mof_C 	C 	0.93911	0.3758	0.80357	-0.111
Mof_H 	H 	0.9274	0.2957	0.8035	0.091
Mof_C 	C 	0.1211	0.1433	0.9004	-0.423
Mof_H 	H 	0.117	0.0753	0.9272	0.16
Mof_H 	H 	0.1235	0.1102	0.8586	0.163
Mof_C 	C 	0.1873	0.2009	0.9518	0.147
Mof_C 	C 	0.2224	0.2555	0.9248	-0.098
Mof_H 	H 	0.2043	0.2611	0.8734	0.061
Mof_C 	C 	0.2157	0.197	0.0286	-0.091
Mof_H 	H 	0.1926	0.1616	0.0491	0.055
Mof_C 	C 	0.057	0.2122	0.8678	0.347
Mof_N 	N 	0.10377	0.8072	0.85706	-0.124
Mof_N 	N 	0.26173	0.9375	0.90165	-0.261
Mof_H 	H 	0.2535	0.9302	0.8565	0.123
Mof_C 	C 	0.21314	0.8923	0.91575	0.124
Mof_C 	C 	0.15544	0.8518	0.85372	-0.062
Mof_H 	H 	0.1524	0.8557	0.8073	0.042
Mof_C 	C 	0.10948	0.7997	0.9245	0.006
Mof_H 	H 	0.0745	0.7675	0.9281	0.027
Mof_C 	C 	0.16534	0.8379	0.98871	-0.02
Mof_H 	H 	0.1675	0.8319	0.0346	0.032
Mof_C 	C 	0.21838	0.8855	0.98482	-0.128
Mof_H 	H 	0.2564	0.9121	0.0276	0.097
Mof_O 	O 	0.33991	0.0012	0.01704	-0.276
Mof_C 	C 	0.35746	0.0409	0.9142	-0.391
Mof_H 	H 	0.3492	0.1268	0.9065	0.142
Mof_H 	H 	0.3403	0.0036	0.8656	0.137
Mof_C 	C 	0.43122	0.02	0.95949	0.146
Mof_C 	C 	0.47471	0.1159	0.98197	-0.101
Mof_H 	H 	0.4584	0.1941	0.9698	0.063
Mof_C 	C 	0.54292	0.0965	0.02268	-0.087
Mof_H 	H 	0.5716	0.162	0.0382	0.062
Mof_C 	C 	0.3203	0.9915	0.95037	0.31
Mof_Cd	Cd	0.5	0.71802	0.25	0.329
Mof_Cd	Cd	1.25351e-33	0.21802	0.25	0.319
Mof_Cd	Cd	0.5	0.28198	0.75	0.329
Mof_Cd	Cd	4.8917e-17	0.78198	0.75	0.319
_end
