data_functionalizedCrystal
_audit_creation_method	'EQeq! by Chris Wilmer'
_symmetry_space_group_name_H-M	'P1'
_symmetry_Int_Tables_number	1
_symmetry_cell_setting	triclinic
loop_
_symmetry_equiv_pos_as_xyz
  x,y,z
_cell_length_a	14.6452
_cell_length_b	12.3672
_cell_length_c	16.6648
_cell_angle_alpha	90
_cell_angle_beta	90
_cell_angle_gamma	90
loop_
_atom_site_label
_atom_site_type_symbol
_atom_site_fract_x
_atom_site_fract_y
_atom_site_fract_z
_atom_site_charge
Mof_O 	O 	0.67534	0.48793	0.70085	-0.296
Mof_O 	O 	0.7905	0.52091	0.98389	-0.34
Mof_O 	O 	0.59521	0.34538	0.66611	-0.313
Mof_O 	O 	0.80125	0.36977	0.05109	-0.295
Mof_C 	C 	0.7686	0.4263	0.99452	0.319
Mof_C 	C 	0.63842	0.3976	0.71656	0.306
Mof_C 	C 	0.6427	0.3582	0.80239	-0.071
Mof_O 	O 	0.50136	0.07963	0.87377	-0.343
Mof_Mn	Mn	0.60517	0.4814	0.57834	0.945
Mof_C 	C 	0.537	0.1366	0.92869	0.357
Mof_C 	C 	0.6522	0.2816	0.95925	0.052
Mof_H 	H 	0.6558	0.2554	0.0127	0.041
Mof_C 	C 	0.5963	0.2297	0.90395	-0.097
Mof_C 	C 	0.703	0.3719	0.93676	-0.079
Mof_C 	C 	0.5933	0.267	0.82546	0.037
Mof_H 	H 	0.5571	0.2299	0.787	0.061
Mof_C 	C 	0.6959	0.4119	0.85911	0.029
Mof_H 	H 	0.7274	0.4761	0.8446	0.061
Mof_O 	O 	0.52298	0.12024	0.00259	-0.372
Mof_O 	O 	0.82466	0.51207	0.20085	-0.295
Mof_O 	O 	0.7095	0.47909	0.48389	-0.339
Mof_O 	O 	0.90479	0.65462	0.16611	-0.313
Mof_O 	O 	0.69875	0.63023	0.55109	-0.293
Mof_C 	C 	0.7314	0.5737	0.49452	0.316
Mof_C 	C 	0.86158	0.6024	0.21656	0.305
Mof_C 	C 	0.8573	0.6418	0.30239	-0.069
Mof_O 	O 	0.99864	0.92037	0.37377	-0.344
Mof_Mn	Mn	0.89483	0.5186	0.07834	0.945
Mof_C 	C 	0.963	0.8634	0.42869	0.351
Mof_C 	C 	0.8478	0.7184	0.45925	0.044
Mof_H 	H 	0.8442	0.7446	0.5127	0.045
Mof_C 	C 	0.9037	0.7703	0.40395	-0.093
Mof_C 	C 	0.797	0.6281	0.43676	-0.076
Mof_C 	C 	0.9067	0.733	0.32546	0.034
Mof_H 	H 	0.9429	0.7701	0.287	0.062
Mof_C 	C 	0.8041	0.5881	0.35911	0.026
Mof_H 	H 	0.7726	0.5239	0.3446	0.062
Mof_O 	O 	0.97702	0.87976	0.50259	-0.368
Mof_O 	O 	0.32466	0.98793	0.79915	-0.296
Mof_O 	O 	0.2095	0.02091	0.51611	-0.338
Mof_O 	O 	0.40479	0.84538	0.83389	-0.313
Mof_O 	O 	0.19875	0.86977	0.44891	-0.293
Mof_C 	C 	0.2314	0.9263	0.50548	0.316
Mof_C 	C 	0.36158	0.8976	0.78344	0.305
Mof_C 	C 	0.3573	0.8582	0.69761	-0.069
Mof_O 	O 	0.49864	0.57963	0.62623	-0.344
Mof_Mn	Mn	0.39483	0.9814	0.92166	0.939
Mof_C 	C 	0.463	0.6366	0.57131	0.351
Mof_C 	C 	0.3478	0.7816	0.54075	0.044
Mof_H 	H 	0.3442	0.7554	0.4873	0.045
Mof_C 	C 	0.4037	0.7297	0.59605	-0.093
Mof_C 	C 	0.297	0.8719	0.56324	-0.076
Mof_C 	C 	0.4067	0.767	0.67454	0.035
Mof_H 	H 	0.4429	0.7299	0.713	0.061
Mof_C 	C 	0.3041	0.9119	0.64089	0.026
Mof_H 	H 	0.2726	0.9761	0.6554	0.062
Mof_O 	O 	0.47702	0.62024	0.49741	-0.368
Mof_O 	O 	0.17534	0.01207	0.29915	-0.296
Mof_O 	O 	0.2905	0.97909	0.01611	-0.329
Mof_O 	O 	0.09521	0.15462	0.33389	-0.313
Mof_O 	O 	0.30125	0.13023	0.94891	-0.285
Mof_C 	C 	0.2686	0.0737	0.00548	0.302
Mof_C 	C 	0.13842	0.1024	0.28344	0.304
Mof_C 	C 	0.1427	0.1418	0.19761	-0.066
Mof_O 	O 	0.00136	0.42037	0.12623	-0.344
Mof_Mn	Mn	0.10517	0.0186	0.42166	0.944
Mof_C 	C 	0.037	0.3634	0.07131	0.347
Mof_C 	C 	0.1522	0.2184	0.04075	0.034
Mof_H 	H 	0.1558	0.2446	0.9873	0.051
Mof_C 	C 	0.0963	0.2703	0.09605	-0.088
Mof_C 	C 	0.203	0.1281	0.06324	-0.069
Mof_C 	C 	0.0933	0.233	0.17454	0.031
Mof_H 	H 	0.0571	0.2701	0.213	0.063
Mof_C 	C 	0.1959	0.0881	0.14089	0.021
Mof_H 	H 	0.2274	0.0239	0.1554	0.063
Mof_O 	O 	0.02298	0.37976	0.99741	-0.366
Mof_O 	O 	0.32466	0.51207	0.29915	-0.296
Mof_O 	O 	0.2095	0.47909	0.01611	-0.34
Mof_O 	O 	0.40479	0.65462	0.33389	-0.313
Mof_O 	O 	0.19875	0.63023	0.94891	-0.295
Mof_C 	C 	0.2314	0.5737	0.00548	0.319
Mof_C 	C 	0.36158	0.6024	0.28344	0.306
Mof_C 	C 	0.3573	0.6418	0.19761	-0.071
Mof_O 	O 	0.49864	0.92037	0.12623	-0.343
Mof_Mn	Mn	0.39483	0.5186	0.42166	0.945
Mof_C 	C 	0.463	0.8634	0.07131	0.357
Mof_C 	C 	0.3478	0.7184	0.04075	0.052
Mof_H 	H 	0.3442	0.7446	0.9873	0.041
Mof_C 	C 	0.4037	0.7703	0.09605	-0.097
Mof_C 	C 	0.297	0.6281	0.06324	-0.079
Mof_C 	C 	0.4067	0.733	0.17454	0.037
Mof_H 	H 	0.4429	0.7701	0.213	0.061
Mof_C 	C 	0.3041	0.5881	0.14089	0.029
Mof_H 	H 	0.2726	0.5239	0.1554	0.061
Mof_O 	O 	0.47702	0.87976	0.99741	-0.372
Mof_O 	O 	0.17534	0.48793	0.79915	-0.295
Mof_O 	O 	0.2905	0.52091	0.51611	-0.339
Mof_O 	O 	0.09521	0.34538	0.83389	-0.313
Mof_O 	O 	0.30125	0.36977	0.44891	-0.293
Mof_C 	C 	0.2686	0.4263	0.50548	0.316
Mof_C 	C 	0.13842	0.3976	0.78344	0.305
Mof_C 	C 	0.1427	0.3582	0.69761	-0.069
Mof_O 	O 	0.00136	0.07963	0.62623	-0.344
Mof_Mn	Mn	0.10517	0.4814	0.92166	0.945
Mof_C 	C 	0.037	0.1366	0.57131	0.351
Mof_C 	C 	0.1522	0.2816	0.54075	0.044
Mof_H 	H 	0.1558	0.2554	0.4873	0.045
Mof_C 	C 	0.0963	0.2297	0.59605	-0.093
Mof_C 	C 	0.203	0.3719	0.56324	-0.076
Mof_C 	C 	0.0933	0.267	0.67454	0.034
Mof_H 	H 	0.0571	0.2299	0.713	0.062
Mof_C 	C 	0.1959	0.4119	0.64089	0.026
Mof_H 	H 	0.2274	0.4761	0.6554	0.062
Mof_O 	O 	0.02298	0.12024	0.49741	-0.368
Mof_O 	O 	0.67534	0.01207	0.20085	-0.296
Mof_O 	O 	0.7905	0.97909	0.48389	-0.338
Mof_O 	O 	0.59521	0.15462	0.16611	-0.313
Mof_O 	O 	0.80125	0.13023	0.55109	-0.293
Mof_C 	C 	0.7686	0.0737	0.49452	0.316
Mof_C 	C 	0.63842	0.1024	0.21656	0.305
Mof_C 	C 	0.6427	0.1418	0.30239	-0.069
Mof_O 	O 	0.50136	0.42037	0.37377	-0.344
Mof_Mn	Mn	0.60517	0.0186	0.07834	0.939
Mof_C 	C 	0.537	0.3634	0.42869	0.351
Mof_C 	C 	0.6522	0.2184	0.45925	0.044
Mof_H 	H 	0.6558	0.2446	0.5127	0.045
Mof_C 	C 	0.5963	0.2703	0.40395	-0.093
Mof_C 	C 	0.703	0.1281	0.43676	-0.076
Mof_C 	C 	0.5933	0.233	0.32546	0.035
Mof_H 	H 	0.5571	0.2701	0.287	0.061
Mof_C 	C 	0.6959	0.0881	0.35911	0.026
Mof_H 	H 	0.7274	0.0239	0.3446	0.062
Mof_O 	O 	0.52298	0.37976	0.50259	-0.368
Mof_O 	O 	0.82466	0.98793	0.70085	-0.296
Mof_O 	O 	0.7095	0.02091	0.98389	-0.329
Mof_O 	O 	0.90479	0.84538	0.66611	-0.313
Mof_O 	O 	0.69875	0.86977	0.05109	-0.285
Mof_C 	C 	0.7314	0.9263	0.99452	0.302
Mof_C 	C 	0.86158	0.8976	0.71656	0.304
Mof_C 	C 	0.8573	0.8582	0.80239	-0.066
Mof_O 	O 	0.99864	0.57963	0.87377	-0.344
Mof_Mn	Mn	0.89483	0.9814	0.57834	0.944
Mof_C 	C 	0.963	0.6366	0.92869	0.347
Mof_C 	C 	0.8478	0.7816	0.95925	0.034
Mof_H 	H 	0.8442	0.7554	0.0127	0.051
Mof_C 	C 	0.9037	0.7297	0.90395	-0.088
Mof_C 	C 	0.797	0.8719	0.93676	-0.069
Mof_C 	C 	0.9067	0.767	0.82546	0.031
Mof_H 	H 	0.9429	0.7299	0.787	0.063
Mof_C 	C 	0.8041	0.9119	0.85911	0.021
Mof_H 	H 	0.7726	0.9761	0.8446	0.063
Mof_O 	O 	0.97702	0.62024	0.00259	-0.366
_end
