data_functionalizedCrystal
_audit_creation_method	'EQeq! by Chris Wilmer'
_symmetry_space_group_name_H-M	'P1'
_symmetry_Int_Tables_number	1
_symmetry_cell_setting	triclinic
loop_
_symmetry_equiv_pos_as_xyz
  x,y,z
_cell_length_a	10.8755
_cell_length_b	19.129
_cell_length_c	19.3765
_cell_angle_alpha	90
_cell_angle_beta	98.745
_cell_angle_gamma	90
loop_
_atom_site_label
_atom_site_type_symbol
_atom_site_fract_x
_atom_site_fract_y
_atom_site_fract_z
_atom_site_charge
Mof_Eu	Eu	0.4142	0.62517	0.14254	1.898
Mof_Eu	Eu	0.95155	0.62865	0.29777	1.256
Mof_Eu	Eu	0.5858	0.12517	0.35746	1.898
Mof_Eu	Eu	0.04845	0.12865	0.20223	1.25
Mof_Eu	Eu	0.5858	0.37483	0.85746	1.898
Mof_Eu	Eu	0.04845	0.37135	0.70223	1.256
Mof_Eu	Eu	0.4142	0.87483	0.64254	1.897
Mof_Eu	Eu	0.95155	0.87135	0.79777	1.249
Mof_H 	H 	0.3248	0.4975	0.0075	0.041
Mof_H 	H 	0.9851	0.4741	0.1158	0.014
Mof_H 	H 	0.1176	0.3805	0.9246	0.221
Mof_H 	H 	0.2592	0.403	0.9329	0.205
Mof_H 	H 	0.2176	0.3418	0.9795	0.21
Mof_H 	H 	0.3982	0.7891	0.0501	0.054
Mof_H 	H 	0.796	0.8116	0.1597	0.001
Mof_H 	H 	0.5469	0.9142	0.9764	0.17
Mof_H 	H 	0.4121	0.8959	0.9925	0.172
Mof_H 	H 	0.4948	0.9518	0.0387	0.172
Mof_H 	H 	0.2375	0.6887	0.0377	0.246
Mof_H 	H 	0.6752	0.9975	0.4925	0.042
Mof_H 	H 	0.0149	0.9741	0.3842	0.019
Mof_H 	H 	0.8824	0.8805	0.5754	0.22
Mof_H 	H 	0.7408	0.903	0.5671	0.204
Mof_H 	H 	0.7824	0.8418	0.5205	0.21
Mof_H 	H 	0.6018	0.2891	0.4499	0.055
Mof_H 	H 	0.204	0.3116	0.3403	0.001
Mof_H 	H 	0.4531	0.4142	0.5236	0.177
Mof_H 	H 	0.5879	0.3959	0.5075	0.179
Mof_H 	H 	0.5052	0.4518	0.4613	0.176
Mof_H 	H 	0.7625	0.1887	0.4623	0.246
Mof_H 	H 	0.6752	0.5025	0.9925	0.041
Mof_H 	H 	0.0149	0.5259	0.8842	0.014
Mof_H 	H 	0.8824	0.6195	0.0754	0.221
Mof_H 	H 	0.7408	0.597	0.0671	0.205
Mof_H 	H 	0.7824	0.6582	0.0205	0.21
Mof_H 	H 	0.6018	0.2109	0.9499	0.054
Mof_H 	H 	0.204	0.1884	0.8403	0.001
Mof_H 	H 	0.4531	0.0858	0.0236	0.17
Mof_H 	H 	0.5879	0.1041	0.0075	0.172
Mof_H 	H 	0.5052	0.0482	0.9613	0.172
Mof_H 	H 	0.7625	0.3113	0.9623	0.246
Mof_H 	H 	0.3248	0.0025	0.5075	0.042
Mof_H 	H 	0.9851	0.0259	0.6158	0.019
Mof_H 	H 	0.1176	0.1195	0.4246	0.22
Mof_H 	H 	0.2592	0.097	0.4329	0.204
Mof_H 	H 	0.2176	0.1582	0.4795	0.21
Mof_H 	H 	0.3982	0.7109	0.5501	0.055
Mof_H 	H 	0.796	0.6884	0.6597	0.001
Mof_H 	H 	0.5469	0.5858	0.4764	0.177
Mof_H 	H 	0.4121	0.6041	0.4925	0.179
Mof_H 	H 	0.4948	0.5482	0.5387	0.176
Mof_H 	H 	0.2375	0.8113	0.5377	0.246
Mof_W 	W 	0.53698	0.33744	0.14545	0.519
Mof_W 	W 	0.46302	0.83744	0.35455	0.519
Mof_W 	W 	0.46302	0.66256	0.85455	0.519
Mof_W 	W 	0.53698	0.16256	0.64545	0.519
Mof_C 	C 	0.2563	0.49246	0.03135	-0.097
Mof_C 	C 	0.1721	0.43842	0.01209	0.224
Mof_C 	C 	0.0557	0.47752	0.0934	0.07
Mof_C 	C 	0.1411	0.53011	0.11305	-0.103
Mof_C 	C 	0.1935	0.3863	0.9574	-0.634
Mof_C 	C 	0.1282	0.58044	0.17118	0.397
Mof_C 	C 	0.4812	0.79225	0.0722	-0.085
Mof_C 	C 	0.5498	0.85185	0.06157	0.212
Mof_C 	C 	0.7146	0.80724	0.13556	0.072
Mof_C 	C 	0.648	0.74707	0.14355	-0.11
Mof_C 	C 	0.4962	0.9084	0.0131	-0.571
Mof_C 	C 	0.7022	0.68592	0.18552	0.411
Mof_C 	C 	0.5162	0.44847	0.13092	-0.028
Mof_C 	C 	0.4627	0.63634	0.96239	-0.024
Mof_C 	C 	0.4425	0.756	0.27806	-0.024
Mof_C 	C 	0.3539	0.3563	0.17144	-0.061
Mof_C 	C 	0.7267	0.37221	0.16301	-0.067
Mof_C 	C 	0.567	0.38587	0.24873	-0.05
Mof_C 	C 	0.6481	0.25669	0.10538	-0.059
Mof_C 	C 	0.4048	0.26235	0.09173	-0.059
Mof_C 	C 	0.7437	0.99246	0.46865	-0.098
Mof_C 	C 	0.8279	0.93842	0.48791	0.225
Mof_C 	C 	0.9443	0.97752	0.4066	0.061
Mof_C 	C 	0.8589	0.03011	0.38695	-0.097
Mof_C 	C 	0.8065	0.8863	0.5426	-0.634
Mof_C 	C 	0.8718	0.08044	0.32882	0.395
Mof_C 	C 	0.5188	0.29225	0.4278	-0.088
Mof_C 	C 	0.4502	0.35185	0.43843	0.217
Mof_C 	C 	0.2854	0.30724	0.36444	0.072
Mof_C 	C 	0.352	0.24707	0.35645	-0.111
Mof_C 	C 	0.5038	0.4084	0.4869	-0.591
Mof_C 	C 	0.2978	0.18592	0.31448	0.411
Mof_C 	C 	0.4838	0.94847	0.36908	-0.027
Mof_C 	C 	0.5373	0.13634	0.53761	-0.023
Mof_C 	C 	0.5575	0.256	0.22194	-0.024
Mof_C 	C 	0.6461	0.8563	0.32856	-0.061
Mof_C 	C 	0.2733	0.87221	0.33699	-0.067
Mof_C 	C 	0.433	0.88587	0.25127	-0.05
Mof_C 	C 	0.3519	0.75669	0.39462	-0.058
Mof_C 	C 	0.5952	0.76235	0.40827	-0.059
Mof_C 	C 	0.7437	0.50754	0.96865	-0.097
Mof_C 	C 	0.8279	0.56158	0.98791	0.224
Mof_C 	C 	0.9443	0.52248	0.9066	0.07
Mof_C 	C 	0.8589	0.46989	0.88695	-0.103
Mof_C 	C 	0.8065	0.6137	0.0426	-0.634
Mof_C 	C 	0.8718	0.41956	0.82882	0.397
Mof_C 	C 	0.5188	0.20775	0.9278	-0.085
Mof_C 	C 	0.4502	0.14815	0.93843	0.212
Mof_C 	C 	0.2854	0.19276	0.86444	0.072
Mof_C 	C 	0.352	0.25293	0.85645	-0.11
Mof_C 	C 	0.5038	0.0916	0.9869	-0.571
Mof_C 	C 	0.2978	0.31408	0.81448	0.411
Mof_C 	C 	0.4838	0.55153	0.86908	-0.028
Mof_C 	C 	0.5373	0.36366	0.03761	-0.024
Mof_C 	C 	0.5575	0.244	0.72194	-0.024
Mof_C 	C 	0.6461	0.6437	0.82856	-0.061
Mof_C 	C 	0.2733	0.62779	0.83699	-0.067
Mof_C 	C 	0.433	0.61413	0.75127	-0.05
Mof_C 	C 	0.3519	0.74331	0.89462	-0.059
Mof_C 	C 	0.5952	0.73765	0.90827	-0.059
Mof_C 	C 	0.2563	0.00754	0.53135	-0.098
Mof_C 	C 	0.1721	0.06158	0.51209	0.225
Mof_C 	C 	0.0557	0.02248	0.5934	0.061
Mof_C 	C 	0.1411	0.96989	0.61305	-0.097
Mof_C 	C 	0.1935	0.1137	0.4574	-0.634
Mof_C 	C 	0.1282	0.91956	0.67118	0.395
Mof_C 	C 	0.4812	0.70775	0.5722	-0.088
Mof_C 	C 	0.5498	0.64815	0.56157	0.217
Mof_C 	C 	0.7146	0.69276	0.63556	0.072
Mof_C 	C 	0.648	0.75293	0.64355	-0.111
Mof_C 	C 	0.4962	0.5916	0.5131	-0.591
Mof_C 	C 	0.7022	0.81408	0.68552	0.411
Mof_C 	C 	0.5162	0.05153	0.63092	-0.027
Mof_C 	C 	0.4627	0.86366	0.46239	-0.023
Mof_C 	C 	0.4425	0.744	0.77806	-0.024
Mof_C 	C 	0.3539	0.1437	0.67144	-0.061
Mof_C 	C 	0.7267	0.12779	0.66301	-0.067
Mof_C 	C 	0.567	0.11413	0.74873	-0.05
Mof_C 	C 	0.6481	0.24331	0.60538	-0.058
Mof_C 	C 	0.4048	0.23765	0.59173	-0.059
Mof_N 	N 	0.243	0.53739	0.08239	-0.176
Mof_N 	N 	0.0706	0.43139	0.04347	-0.162
Mof_N 	N 	0.5292	0.74002	0.11241	-0.165
Mof_N 	N 	0.6657	0.85978	0.09414	-0.175
Mof_N 	N 	0.5074	0.50839	0.12643	-0.25
Mof_N 	N 	0.4537	0.62366	0.01957	-0.248
Mof_N 	N 	0.4247	0.71243	0.23668	-0.244
Mof_N 	N 	0.2568	0.36506	0.18729	-0.111
Mof_N 	N 	0.8281	0.3926	0.17278	-0.116
Mof_N 	N 	0.5819	0.41423	0.30165	-0.125
Mof_N 	N 	0.7096	0.21503	0.08512	-0.148
Mof_N 	N 	0.333	0.22239	0.06622	-0.134
Mof_N 	N 	0.757	0.03739	0.41761	-0.176
Mof_N 	N 	0.9294	0.93139	0.45653	-0.161
Mof_N 	N 	0.4708	0.24002	0.38759	-0.164
Mof_N 	N 	0.3343	0.35978	0.40586	-0.176
Mof_N 	N 	0.4926	0.00839	0.37357	-0.25
Mof_N 	N 	0.5463	0.12366	0.48043	-0.248
Mof_N 	N 	0.5753	0.21243	0.26332	-0.244
Mof_N 	N 	0.7432	0.86506	0.31271	-0.112
Mof_N 	N 	0.1719	0.8926	0.32722	-0.115
Mof_N 	N 	0.4181	0.91423	0.19835	-0.125
Mof_N 	N 	0.2904	0.71503	0.41488	-0.148
Mof_N 	N 	0.667	0.72239	0.43378	-0.134
Mof_N 	N 	0.757	0.46261	0.91761	-0.176
Mof_N 	N 	0.9294	0.56861	0.95653	-0.162
Mof_N 	N 	0.4708	0.25998	0.88759	-0.165
Mof_N 	N 	0.3343	0.14022	0.90586	-0.175
Mof_N 	N 	0.4926	0.49161	0.87357	-0.25
Mof_N 	N 	0.5463	0.37634	0.98043	-0.248
Mof_N 	N 	0.5753	0.28757	0.76332	-0.244
Mof_N 	N 	0.7432	0.63494	0.81271	-0.111
Mof_N 	N 	0.1719	0.6074	0.82722	-0.116
Mof_N 	N 	0.4181	0.58577	0.69835	-0.125
Mof_N 	N 	0.2904	0.78497	0.91488	-0.148
Mof_N 	N 	0.667	0.77761	0.93378	-0.134
Mof_N 	N 	0.243	0.96261	0.58239	-0.176
Mof_N 	N 	0.0706	0.06861	0.54347	-0.161
Mof_N 	N 	0.5292	0.75998	0.61241	-0.164
Mof_N 	N 	0.6657	0.64022	0.59414	-0.176
Mof_N 	N 	0.5074	0.99161	0.62643	-0.25
Mof_N 	N 	0.4537	0.87634	0.51957	-0.248
Mof_N 	N 	0.4247	0.78757	0.73668	-0.244
Mof_N 	N 	0.2568	0.13494	0.68729	-0.112
Mof_N 	N 	0.8281	0.1074	0.67278	-0.115
Mof_N 	N 	0.5819	0.08577	0.80165	-0.125
Mof_N 	N 	0.7096	0.28497	0.58512	-0.148
Mof_N 	N 	0.333	0.27761	0.56622	-0.134
Mof_O 	O 	0.0272	0.58243	0.19468	-0.468
Mof_O 	O 	0.2222	0.61739	0.19215	-0.509
Mof_O 	O 	0.8123	0.69098	0.21603	-0.487
Mof_O 	O 	0.6345	0.6326	0.1857	-0.534
Mof_O 	O 	0.2541	0.70192	0.07885	-0.541
Mof_O 	O 	0.9728	0.08243	0.30532	-0.465
Mof_O 	O 	0.7778	0.11739	0.30785	-0.508
Mof_O 	O 	0.1877	0.19098	0.28397	-0.487
Mof_O 	O 	0.3655	0.1326	0.3143	-0.534
Mof_O 	O 	0.7459	0.20192	0.42115	-0.541
Mof_O 	O 	0.9728	0.41757	0.80532	-0.468
Mof_O 	O 	0.7778	0.38261	0.80785	-0.509
Mof_O 	O 	0.1877	0.30902	0.78397	-0.487
Mof_O 	O 	0.3655	0.3674	0.8143	-0.534
Mof_O 	O 	0.7459	0.29808	0.92115	-0.541
Mof_O 	O 	0.0272	0.91757	0.69468	-0.465
Mof_O 	O 	0.2222	0.88261	0.69215	-0.508
Mof_O 	O 	0.8123	0.80902	0.71603	-0.487
Mof_O 	O 	0.6345	0.8674	0.6857	-0.534
Mof_O 	O 	0.2541	0.79808	0.57885	-0.541
_end
