data_functionalizedCrystal
_audit_creation_method	'EQeq! by Chris Wilmer'
_symmetry_space_group_name_H-M	'P1'
_symmetry_Int_Tables_number	1
_symmetry_cell_setting	triclinic
loop_
_symmetry_equiv_pos_as_xyz
  x,y,z
_cell_length_a	13.6546
_cell_length_b	14.2126
_cell_length_c	14.6377
_cell_angle_alpha	76.057
_cell_angle_beta	86.39
_cell_angle_gamma	67.91
loop_
_atom_site_label
_atom_site_type_symbol
_atom_site_fract_x
_atom_site_fract_y
_atom_site_fract_z
_atom_site_charge
Mof_Zn	Zn	0.66531	0.14237	0.22925	1.226
Mof_Zn	Zn	0.01581	0.37062	0.14125	1.23
Mof_Zn	Zn	0.85043	0.24347	0.2241	1.228
Mof_Zn	Zn	0.26143	0.2331	0.10812	1.208
Mof_Zn	Zn	0.51164	0.05299	0.12742	1.221
Mof_O 	O 	0.8173	0.8185	0.7761	-0.486
Mof_O 	O 	0.3618	0.0773	0.1002	-0.549
Mof_O 	O 	0.6441	0.7155	0.9925	-0.471
Mof_O 	O 	0.1512	0.3853	0.0916	-0.544
Mof_O 	O 	0.7424	0.8146	0.6449	-0.302
Mof_O 	O 	0.8976	0.5114	0.0817	-0.588
Mof_H 	H 	0.867	0.548	0.0292	0.306
Mof_O 	O 	0.9397	0.3118	0.2464	-0.555
Mof_O 	O 	0.9954	0.2881	0.0596	-0.483
Mof_O 	O 	0.4743	0.8209	0.9589	-0.499
Mof_O 	O 	0.0936	0.8846	0.8202	-0.512
Mof_O 	O 	0.5931	0.2925	0.198	-0.513
Mof_O 	O 	0.1618	0.2086	0.0183	-0.447
Mof_O 	O 	0.6237	0.9408	0.0712	-0.587
Mof_H 	H 	0.637	0.929	0.016	0.293
Mof_O 	O 	0.5526	0.0901	0.2414	-0.569
Mof_O 	O 	0.811	0.1959	0.3554	-0.492
Mof_O 	O 	0.726	0.3487	0.1527	-0.51
Mof_O 	O 	0.2294	0.9211	0.856	-0.508
Mof_O 	O 	0.7362	0.0806	0.3529	-0.49
Mof_N 	N 	0.5078	0.9188	0.2324	-0.114
Mof_C 	C 	0.1319	0.9385	0.8504	0.418
Mof_C 	C 	0.067	0.2268	0.0163	0.381
Mof_N 	N 	0.0265	0.459	0.238	-0.113
Mof_C 	C 	0.5826	0.5504	0.083	0.098
Mof_H 	H 	0.6545	0.5369	0.0761	0.021
Mof_C 	C 	0.7967	0.9811	0.5407	0.054
Mof_H 	H 	0.7525	0.9606	0.511	0.033
Mof_C 	C 	0.6299	0.3615	0.1625	0.417
Mof_C 	C 	0.171	0.4619	0.1286	0.129
Mof_H 	H 	0.1325	0.5312	0.0904	-0.013
Mof_H 	H 	0.2458	0.4497	0.1259	-0.027
Mof_C 	C 	0.0947	0.0878	0.9293	0.063
Mof_H 	H 	0.1671	0.0677	0.9389	0.039
Mof_C 	C 	0.3373	0.9894	0.1477	0.155
Mof_H 	H 	0.3552	0.9397	0.1083	-0.019
Mof_H 	H 	0.2618	0.012	0.1577	-0.017
Mof_C 	C 	0.9027	0.9577	0.6737	0.038
Mof_H 	H 	0.9293	0.9222	0.7345	0.016
Mof_C 	C 	0.8331	0.9303	0.6321	-0.124
Mof_C 	C 	0.1363	0.4559	0.2304	-0.242
Mof_H 	H 	0.1834	0.3917	0.2706	0.091
Mof_H 	H 	0.1405	0.5141	0.2513	0.103
Mof_C 	C 	0.6615	0.8416	0.1396	0.184
Mof_H 	H 	0.713	0.8411	0.1826	-0.028
Mof_H 	H 	0.6954	0.7855	0.1078	-0.016
Mof_C 	C 	0.9206	0.3608	0.325	0.17
Mof_H 	H 	0.9202	0.3104	0.3829	-0.021
Mof_H 	H 	0.8521	0.4177	0.3163	-0.03
Mof_C 	C 	0.5358	0.0277	0.3275	0.169
Mof_H 	H 	0.4627	0.058	0.3446	-0.023
Mof_H 	H 	0.5803	0.0274	0.3767	-0.025
Mof_C 	C 	0.0561	0.0323	0.8831	-0.135
Mof_C 	C 	0.8812	0.1504	0.8977	-0.124
Mof_H 	H 	0.809	0.1745	0.8841	0.072
Mof_C 	C 	0.56	0.9175	0.3208	-0.251
Mof_H 	H 	0.5341	0.8809	0.3755	0.11
Mof_H 	H 	0.6359	0.8812	0.3192	0.102
Mof_C 	C 	0.9178	0.201	0.9445	0.051
Mof_H 	H 	0.8704	0.2567	0.9668	0.015
Mof_C 	C 	0.8266	0.0634	0.4928	-0.134
Mof_C 	C 	0.5089	0.6508	0.0483	-0.163
Mof_C 	C 	0.7946	0.8474	0.6887	0.337
Mof_C 	C 	0.0255	0.1717	0.9602	-0.12
Mof_C 	C 	0.55	0.4725	0.1266	-0.163
Mof_C 	C 	0.8949	0.0908	0.5367	0.056
Mof_H 	H 	0.9148	0.1457	0.5054	0.023
Mof_C 	C 	0.4028	0.6715	0.0603	0.084
Mof_H 	H 	0.3529	0.738	0.0368	0.008
Mof_C 	C 	0.9333	0.0379	0.6253	-0.119
Mof_H 	H 	0.9807	0.0559	0.6537	0.073
Mof_C 	C 	0.9487	0.0626	0.8691	0.055
Mof_H 	H 	0.9221	0.0248	0.8409	0.024
Mof_C 	C 	0.3965	0.9355	0.2426	-0.247
Mof_H 	H 	0.3666	0.9783	0.2875	0.101
Mof_H 	H 	0.3888	0.8689	0.2666	0.109
Mof_C 	C 	0.444	0.4927	0.1398	0.092
Mof_H 	H 	0.4218	0.4391	0.1702	0.003
Mof_C 	C 	0.5674	0.8254	0.1945	-0.245
Mof_H 	H 	0.5214	0.8151	0.1532	0.107
Mof_H 	H 	0.5926	0.7637	0.2458	0.107
Mof_C 	C 	0.8555	0.5731	0.1508	0.215
Mof_H 	H 	0.8092	0.5458	0.1923	-0.034
Mof_H 	H 	0.8151	0.6451	0.1197	-0.031
Mof_C 	C 	0.9457	0.5673	0.2055	-0.253
Mof_H 	H 	0.919	0.5954	0.2602	0.107
Mof_H 	H 	0.98	0.6111	0.167	0.114
Mof_C 	C 	0.7874	0.1188	0.3924	0.397
Mof_C 	C 	0.546	0.7349	0.9965	0.395
Mof_C 	C 	0.0059	0.4018	0.3314	-0.251
Mof_H 	H 	0.9849	0.4482	0.3741	0.107
Mof_H 	H 	0.0704	0.3439	0.357	0.107
Mof_C 	C 	0.3719	0.5909	0.1083	-0.157
Mof_H 	H 	0.3006	0.6043	0.1192	0.08
Mof_Zn	Zn	0.33469	0.85763	0.77075	1.227
Mof_Zn	Zn	0.98419	0.62938	0.85875	1.231
Mof_Zn	Zn	0.14957	0.75653	0.7759	1.229
Mof_Zn	Zn	0.73857	0.7669	0.89188	1.209
Mof_Zn	Zn	0.48836	0.94701	0.87258	1.221
Mof_O 	O 	0.1827	0.1815	0.2239	-0.486
Mof_O 	O 	0.6382	0.9227	0.8998	-0.549
Mof_O 	O 	0.3559	0.2845	0.0075	-0.471
Mof_O 	O 	0.8488	0.6147	0.9084	-0.544
Mof_O 	O 	0.2576	0.1854	0.3551	-0.302
Mof_O 	O 	0.1024	0.4886	0.9183	-0.588
Mof_H 	H 	0.133	0.452	0.9708	0.306
Mof_O 	O 	0.0603	0.6882	0.7536	-0.555
Mof_O 	O 	0.0046	0.7119	0.9404	-0.483
Mof_O 	O 	0.5257	0.1791	0.0411	-0.499
Mof_O 	O 	0.9064	0.1154	0.1798	-0.512
Mof_O 	O 	0.4069	0.7075	0.802	-0.513
Mof_O 	O 	0.8382	0.7914	0.9817	-0.447
Mof_O 	O 	0.3763	0.0592	0.9288	-0.587
Mof_H 	H 	0.363	0.071	0.984	0.293
Mof_O 	O 	0.4474	0.9099	0.7586	-0.569
Mof_O 	O 	0.189	0.8041	0.6446	-0.492
Mof_O 	O 	0.274	0.6513	0.8473	-0.51
Mof_O 	O 	0.7706	0.0789	0.144	-0.508
Mof_O 	O 	0.2638	0.9194	0.6471	-0.49
Mof_N 	N 	0.4922	0.0812	0.7676	-0.114
Mof_C 	C 	0.8681	0.0615	0.1496	0.418
Mof_C 	C 	0.933	0.7732	0.9837	0.381
Mof_N 	N 	0.9735	0.541	0.762	-0.113
Mof_C 	C 	0.4174	0.4496	0.917	0.098
Mof_H 	H 	0.3455	0.4631	0.9239	0.021
Mof_C 	C 	0.2033	0.0189	0.4593	0.054
Mof_H 	H 	0.2475	0.0394	0.489	0.033
Mof_C 	C 	0.3701	0.6385	0.8375	0.417
Mof_C 	C 	0.829	0.5381	0.8714	0.129
Mof_H 	H 	0.8675	0.4688	0.9096	-0.013
Mof_H 	H 	0.7542	0.5503	0.8741	-0.027
Mof_C 	C 	0.9053	0.9122	0.0707	0.063
Mof_H 	H 	0.8329	0.9323	0.0611	0.039
Mof_C 	C 	0.6627	0.0106	0.8523	0.155
Mof_H 	H 	0.6448	0.0603	0.8917	-0.019
Mof_H 	H 	0.7382	0.988	0.8423	-0.017
Mof_C 	C 	0.0973	0.0423	0.3263	0.038
Mof_H 	H 	0.0707	0.0778	0.2655	0.016
Mof_C 	C 	0.1669	0.0697	0.3679	-0.124
Mof_C 	C 	0.8637	0.5441	0.7696	-0.242
Mof_H 	H 	0.8166	0.6083	0.7294	0.091
Mof_H 	H 	0.8595	0.4859	0.7487	0.103
Mof_C 	C 	0.3385	0.1584	0.8604	0.184
Mof_H 	H 	0.287	0.1589	0.8174	-0.028
Mof_H 	H 	0.3046	0.2145	0.8922	-0.016
Mof_C 	C 	0.0794	0.6392	0.675	0.17
Mof_H 	H 	0.0798	0.6896	0.6171	-0.021
Mof_H 	H 	0.1479	0.5823	0.6837	-0.03
Mof_C 	C 	0.4642	0.9723	0.6725	0.169
Mof_H 	H 	0.5373	0.942	0.6554	-0.023
Mof_H 	H 	0.4197	0.9726	0.6233	-0.025
Mof_C 	C 	0.9439	0.9677	0.1169	-0.135
Mof_C 	C 	0.1188	0.8496	0.1023	-0.124
Mof_H 	H 	0.191	0.8255	0.1159	0.072
Mof_C 	C 	0.44	0.0825	0.6792	-0.251
Mof_H 	H 	0.4659	0.1191	0.6245	0.11
Mof_H 	H 	0.3641	0.1188	0.6808	0.102
Mof_C 	C 	0.0822	0.799	0.0555	0.051
Mof_H 	H 	0.1296	0.7433	0.0332	0.015
Mof_C 	C 	0.1734	0.9366	0.5072	-0.134
Mof_C 	C 	0.4911	0.3492	0.9517	-0.163
Mof_C 	C 	0.2054	0.1526	0.3113	0.337
Mof_C 	C 	0.9745	0.8283	0.0398	-0.12
Mof_C 	C 	0.45	0.5275	0.8734	-0.163
Mof_C 	C 	0.1051	0.9092	0.4633	0.056
Mof_H 	H 	0.0852	0.8543	0.4946	0.023
Mof_C 	C 	0.5972	0.3285	0.9397	0.084
Mof_H 	H 	0.6471	0.262	0.9632	0.008
Mof_C 	C 	0.0667	0.9621	0.3747	-0.119
Mof_H 	H 	0.0193	0.9441	0.3463	0.073
Mof_C 	C 	0.0513	0.9374	0.1309	0.055
Mof_H 	H 	0.0779	0.9752	0.1591	0.024
Mof_C 	C 	0.6035	0.0645	0.7574	-0.247
Mof_H 	H 	0.6334	0.0217	0.7125	0.101
Mof_H 	H 	0.6112	0.1311	0.7334	0.109
Mof_C 	C 	0.556	0.5073	0.8602	0.092
Mof_H 	H 	0.5782	0.5609	0.8298	0.003
Mof_C 	C 	0.4326	0.1746	0.8055	-0.245
Mof_H 	H 	0.4786	0.1849	0.8468	0.107
Mof_H 	H 	0.4074	0.2363	0.7542	0.107
Mof_C 	C 	0.1445	0.4269	0.8492	0.215
Mof_H 	H 	0.1908	0.4542	0.8077	-0.034
Mof_H 	H 	0.1849	0.3549	0.8803	-0.031
Mof_C 	C 	0.0543	0.4327	0.7945	-0.253
Mof_H 	H 	0.081	0.4046	0.7398	0.107
Mof_H 	H 	0.02	0.3889	0.833	0.114
Mof_C 	C 	0.2126	0.8812	0.6076	0.397
Mof_C 	C 	0.454	0.2651	0.0035	0.395
Mof_C 	C 	0.9941	0.5982	0.6686	-0.251
Mof_H 	H 	0.0151	0.5518	0.6259	0.107
Mof_H 	H 	0.9296	0.6561	0.643	0.107
Mof_C 	C 	0.6281	0.4091	0.8917	-0.157
Mof_H 	H 	0.6994	0.3957	0.8808	0.08
_end
