data_functionalizedCrystal
_audit_creation_method	'EQeq! by Chris Wilmer'
_symmetry_space_group_name_H-M	'P1'
_symmetry_Int_Tables_number	1
_symmetry_cell_setting	triclinic
loop_
_symmetry_equiv_pos_as_xyz
  x,y,z
_cell_length_a	14.29
_cell_length_b	12.973
_cell_length_c	17.818
_cell_angle_alpha	90
_cell_angle_beta	95.33
_cell_angle_gamma	90
loop_
_atom_site_label
_atom_site_type_symbol
_atom_site_fract_x
_atom_site_fract_y
_atom_site_fract_z
_atom_site_charge
Mof_Zn	Zn	0.0099	0.94595	0.22538	1.233
Mof_Zn	Zn	0.07056	0.77955	0.3634	1.154
Mof_C 	C 	0.8018	0.7956	0.3191	-0.102
Mof_C 	C 	0.7344	0.7303	0.2843	0.01
Mof_H 	H 	0.7349	0.7145	0.2334	0.045
Mof_C 	C 	0.6665	0.6889	0.3256	-0.072
Mof_C 	C 	0.6618	0.7174	0.4002	-0.039
Mof_H 	H 	0.6144	0.6907	0.4269	0.06
Mof_C 	C 	0.7277	0.7859	0.4361	0.005
Mof_C 	C 	0.7991	0.823	0.394	-0.038
Mof_H 	H 	0.8451	0.8665	0.4167	0.033
Mof_C 	C 	0.7241	0.8163	0.5158	-0.019
Mof_C 	C 	0.7749	0.902	0.5461	-0.01
Mof_H 	H 	0.8074	0.9436	0.5148	0.039
Mof_C 	C 	0.7769	0.9248	0.6219	-0.106
Mof_C 	C 	0.7253	0.8671	0.669	0.047
Mof_H 	H 	0.7274	0.8823	0.7201	0.025
Mof_C 	C 	0.6706	0.7866	0.6389	-0.119
Mof_C 	C 	0.6721	0.7606	0.564	-0.003
Mof_H 	H 	0.6373	0.7042	0.5451	0.046
Mof_C 	C 	0.8753	0.8396	0.2738	0.32
Mof_C 	C 	0.5979	0.6112	0.2895	0.322
Mof_C 	C 	0.842	0.0091	0.6557	0.387
Mof_C 	C 	0.6148	0.7232	0.6897	0.404
Mof_O 	O 	0.8602	0.851	0.2057	-0.345
Mof_O 	O 	0.9538	0.8697	0.3101	-0.568
Mof_O 	O 	0.5942	0.5967	0.2212	-0.318
Mof_O 	O 	0.5491	0.561	0.3327	-0.43
Mof_O 	O 	0.8737	0.9949	0.7226	-0.466
Mof_O 	O 	0.8605	0.0831	0.614	-0.499
Mof_O 	O 	0.6185	0.7462	0.7575	-0.519
Mof_O 	O 	0.5686	0.649	0.6584	-0.468
Mof_Zn	Zn	0.4901	0.44595	0.27462	1.236
Mof_Zn	Zn	0.42944	0.27955	0.1366	1.155
Mof_C 	C 	0.6982	0.2956	0.1809	-0.101
Mof_C 	C 	0.7656	0.2303	0.2157	0.009
Mof_H 	H 	0.7651	0.2145	0.2666	0.045
Mof_C 	C 	0.8335	0.1889	0.1744	-0.07
Mof_C 	C 	0.8382	0.2174	0.0998	-0.043
Mof_H 	H 	0.8856	0.1907	0.0731	0.062
Mof_C 	C 	0.7723	0.2859	0.0639	0.013
Mof_C 	C 	0.7009	0.323	0.106	-0.042
Mof_H 	H 	0.6549	0.3665	0.0833	0.034
Mof_C 	C 	0.7759	0.3163	0.9842	-0.03
Mof_C 	C 	0.7251	0.402	0.9539	0.001
Mof_H 	H 	0.6926	0.4436	0.9852	0.033
Mof_C 	C 	0.7231	0.4248	0.8781	-0.12
Mof_C 	C 	0.7747	0.3671	0.831	0.057
Mof_H 	H 	0.7726	0.3823	0.7799	0.021
Mof_C 	C 	0.8294	0.2866	0.8611	-0.127
Mof_C 	C 	0.8279	0.2606	0.936	0.005
Mof_H 	H 	0.8627	0.2042	0.9549	0.041
Mof_C 	C 	0.6247	0.3396	0.2262	0.32
Mof_C 	C 	0.9021	0.1112	0.2105	0.322
Mof_C 	C 	0.658	0.5091	0.8443	0.404
Mof_C 	C 	0.8852	0.2232	0.8103	0.406
Mof_O 	O 	0.6398	0.351	0.2943	-0.349
Mof_O 	O 	0.5462	0.3697	0.1899	-0.572
Mof_O 	O 	0.9058	0.0967	0.2788	-0.32
Mof_O 	O 	0.9509	0.061	0.1673	-0.43
Mof_O 	O 	0.6263	0.4949	0.7774	-0.477
Mof_O 	O 	0.6395	0.5831	0.886	-0.5
Mof_O 	O 	0.8815	0.2462	0.7425	-0.521
Mof_O 	O 	0.9314	0.149	0.8416	-0.471
Mof_Zn	Zn	0.9901	0.05405	0.77462	1.233
Mof_Zn	Zn	0.92944	0.22045	0.6366	1.154
Mof_C 	C 	0.1982	0.2044	0.6809	-0.102
Mof_C 	C 	0.2656	0.2697	0.7157	0.01
Mof_H 	H 	0.2651	0.2855	0.7666	0.045
Mof_C 	C 	0.3335	0.3111	0.6744	-0.072
Mof_C 	C 	0.3382	0.2826	0.5998	-0.039
Mof_H 	H 	0.3856	0.3093	0.5731	0.06
Mof_C 	C 	0.2723	0.2141	0.5639	0.005
Mof_C 	C 	0.2009	0.177	0.606	-0.038
Mof_H 	H 	0.1549	0.1335	0.5833	0.033
Mof_C 	C 	0.2759	0.1837	0.4842	-0.019
Mof_C 	C 	0.2251	0.098	0.4539	-0.01
Mof_H 	H 	0.1926	0.0564	0.4852	0.039
Mof_C 	C 	0.2231	0.0752	0.3781	-0.106
Mof_C 	C 	0.2747	0.1329	0.331	0.047
Mof_H 	H 	0.2726	0.1177	0.2799	0.025
Mof_C 	C 	0.3294	0.2134	0.3611	-0.119
Mof_C 	C 	0.3279	0.2394	0.436	-0.003
Mof_H 	H 	0.3627	0.2958	0.4549	0.046
Mof_C 	C 	0.1247	0.1604	0.7262	0.32
Mof_C 	C 	0.4021	0.3888	0.7105	0.322
Mof_C 	C 	0.158	0.9909	0.3443	0.387
Mof_C 	C 	0.3852	0.2768	0.3103	0.404
Mof_O 	O 	0.1398	0.149	0.7943	-0.345
Mof_O 	O 	0.0462	0.1303	0.6899	-0.568
Mof_O 	O 	0.4058	0.4033	0.7788	-0.318
Mof_O 	O 	0.4509	0.439	0.6673	-0.43
Mof_O 	O 	0.1263	0.0051	0.2774	-0.466
Mof_O 	O 	0.1395	0.9169	0.386	-0.499
Mof_O 	O 	0.3815	0.2538	0.2425	-0.519
Mof_O 	O 	0.4314	0.351	0.3416	-0.468
Mof_Zn	Zn	0.5099	0.55405	0.72538	1.236
Mof_Zn	Zn	0.57056	0.72045	0.8634	1.155
Mof_C 	C 	0.3018	0.7044	0.8191	-0.101
Mof_C 	C 	0.2344	0.7697	0.7843	0.009
Mof_H 	H 	0.2349	0.7855	0.7334	0.045
Mof_C 	C 	0.1665	0.8111	0.8256	-0.07
Mof_C 	C 	0.1618	0.7826	0.9002	-0.043
Mof_H 	H 	0.1144	0.8093	0.9269	0.062
Mof_C 	C 	0.2277	0.7141	0.9361	0.013
Mof_C 	C 	0.2991	0.677	0.894	-0.042
Mof_H 	H 	0.3451	0.6335	0.9167	0.034
Mof_C 	C 	0.2241	0.6837	0.0158	-0.03
Mof_C 	C 	0.2749	0.598	0.0461	0.001
Mof_H 	H 	0.3074	0.5564	0.0148	0.033
Mof_C 	C 	0.2769	0.5752	0.1219	-0.12
Mof_C 	C 	0.2253	0.6329	0.169	0.057
Mof_H 	H 	0.2274	0.6177	0.2201	0.021
Mof_C 	C 	0.1706	0.7134	0.1389	-0.127
Mof_C 	C 	0.1721	0.7394	0.064	0.005
Mof_H 	H 	0.1373	0.7958	0.0451	0.041
Mof_C 	C 	0.3753	0.6604	0.7738	0.32
Mof_C 	C 	0.0979	0.8888	0.7895	0.322
Mof_C 	C 	0.342	0.4909	0.1557	0.404
Mof_C 	C 	0.1148	0.7768	0.1897	0.406
Mof_O 	O 	0.3602	0.649	0.7057	-0.349
Mof_O 	O 	0.4538	0.6303	0.8101	-0.572
Mof_O 	O 	0.0942	0.9033	0.7212	-0.32
Mof_O 	O 	0.0491	0.939	0.8327	-0.43
Mof_O 	O 	0.3737	0.5051	0.2226	-0.477
Mof_O 	O 	0.3605	0.4169	0.114	-0.5
Mof_O 	O 	0.1185	0.7538	0.2575	-0.521
Mof_O 	O 	0.0686	0.851	0.1584	-0.471
_end
