# CIF file generated by openbabel 3.1.0, see https://openbabel.org
data_I
_chemical_name_common 'image0'
_cell_length_a 11.842
_cell_length_b 11.759
_cell_length_c 27.432
_cell_angle_alpha 90
_cell_angle_beta 102.48
_cell_angle_gamma 90
_space_group_name_H-M_alt 'P 1'
_space_group_name_Hall 'P 1'
loop_
    _symmetry_equiv_pos_as_xyz
    x,y,z
loop_
    _atom_site_label
    _atom_site_type_symbol
    _atom_site_fract_x
    _atom_site_fract_y
    _atom_site_fract_z
    _atom_site_occupancy
    Co1      Co       0.69498    0.36498    0.98166    1.000
    O1       O        0.86700    0.38190    0.97517    1.000
    O2       O        0.65900    0.38990    0.90296    1.000
    O3       O        0.46710    0.38360    0.88092    1.000
    O4       O        0.20490    0.67980    0.59210    1.000
    O5       O        0.29250    0.68910    0.52705    1.000
    O6       O        0.86020    0.51260    0.87711    1.000
    O7       O        0.92980    0.62260    0.94310    1.000
    O8       O        0.89170    0.91450    0.54267    1.000
    O9       O        0.99740    0.80890    0.60398    1.000
    O10      O        0.28810    0.46060    0.61085    1.000
    O11      O        0.81050    0.74010    0.63710    1.000
    N1       N        0.79280    0.30970    0.81751    1.000
    N2       N        0.72100    0.16630    0.56029    1.000
    C1       C        0.56270    0.40600    0.87164    1.000
    C2       C        0.57010    0.45420    0.82262    1.000
    H1       H        0.63500    0.49640    0.82010    1.000
    C3       C        0.48710    0.43920    0.78225    1.000
    H2       H        0.42210    0.39910    0.78640    1.000
    C4       C        0.48720    0.47960    0.73145    1.000
    C5       C        0.39510    0.44980    0.69273    1.000
    H3       H        0.33840    0.40070    0.69910    1.000
    C6       C        0.38650    0.49160    0.64508    1.000
    C7       C        0.47210    0.56200    0.63424    1.000
    H4       H        0.46790    0.58850    0.60200    1.000
    C8       C        0.56410    0.59160    0.67282    1.000
    H5       H        0.62170    0.63910    0.66610    1.000
    C9       C        0.57190    0.55230    0.72073    1.000
    H6       H        0.63380    0.57420    0.74600    1.000
    C10      C        0.27370    0.50940    0.56209    1.000
    H7       H        0.20770    0.47390    0.54030    1.000
    H8       H        0.34160    0.49220    0.54900    1.000
    C11      C        0.25570    0.63670    0.56076    1.000
    C12      C        0.89160    0.60590    0.89682    1.000
    C13      C        0.88590    0.70390    0.86167    1.000
    H9       H        0.89680    0.77750    0.87420    1.000
    C14      C        0.86580    0.68700    0.81318    1.000
    H10      H        0.85180    0.61170    0.80340    1.000
    C15      C        0.86170    0.76810    0.77181    1.000
    C16      C        0.84180    0.72490    0.72362    1.000
    H11      H        0.83380    0.64670    0.71890    1.000
    C17      C        0.83340    0.79500    0.68236    1.000
    C18      C        0.84760    0.91090    0.68903    1.000
    H12      H        0.84220    0.95890    0.66170    1.000
    C19      C        0.87000    0.95450    0.73689    1.000
    H13      H        0.88080    0.03250    0.74140    1.000
    C20      C        0.87680    0.88540    0.77861    1.000
    H14      H        0.89110    0.91670    0.81050    1.000
    C21      C        0.79280    0.80660    0.59267    1.000
    H15      H        0.74570    0.87200    0.59660    1.000
    H16      H        0.75000    0.76160    0.56520    1.000
    C22      C        0.90530    0.84840    0.57921    1.000
    C23      C        0.71140    0.23690    0.79541    1.000
    H17      H        0.66650    0.20140    0.81490    1.000
    C24      C        0.69000    0.21120    0.74503    1.000
    H18      H        0.63130    0.16060    0.73150    1.000
    C25      C        0.75590    0.26060    0.71472    1.000
    C26      C        0.83870    0.33820    0.73760    1.000
    H19      H        0.88400    0.37580    0.71890    1.000
    C27      C        0.85400    0.36000    0.78789    1.000
    H20      H        0.91020    0.41260    0.80210    1.000
    C28      C        0.74150    0.22970    0.66115    1.000
    C29      C        0.66070    0.15310    0.63750    1.000
    H21      H        0.61030    0.11970    0.65500    1.000
    C30      C        0.65300    0.12510    0.58826    1.000
    H22      H        0.59600    0.07360    0.57370    1.000
    C31      C        0.80050    0.23880    0.58307    1.000
    H23      H        0.85040    0.26990    0.56480    1.000
    C32      C        0.81370    0.27080    0.63212    1.000
    H24      H        0.87240    0.32120    0.64600    1.000
    Co2      Co       0.83099    0.35131    0.89698    1.000
    Co3      Co       0.30502    0.86498    0.51834    1.000
    O12      O        0.13300    0.88190    0.52483    1.000
    O13      O        0.34100    0.88990    0.59704    1.000
    O14      O        0.53290    0.88360    0.61908    1.000
    O15      O        0.79510    0.17980    0.90790    1.000
    O16      O        0.70750    0.18910    0.97295    1.000
    O17      O        0.13980    0.01260    0.62289    1.000
    O18      O        0.07020    0.12260    0.55690    1.000
    O19      O        0.10830    0.41450    0.95733    1.000
    O20      O        0.00260    0.30890    0.89602    1.000
    O21      O        0.71190    0.96060    0.88915    1.000
    O22      O        0.18950    0.24010    0.86290    1.000
    N3       N        0.20720    0.80970    0.68249    1.000
    N4       N        0.27900    0.66630    0.93971    1.000
    C33      C        0.43730    0.90600    0.62836    1.000
    C34      C        0.42990    0.95420    0.67738    1.000
    H25      H        0.36500    0.99640    0.67990    1.000
    C35      C        0.51290    0.93920    0.71775    1.000
    H26      H        0.57790    0.89910    0.71360    1.000
    C36      C        0.51280    0.97960    0.76855    1.000
    C37      C        0.60490    0.94980    0.80727    1.000
    H27      H        0.66160    0.90070    0.80090    1.000
    C38      C        0.61350    0.99160    0.85492    1.000
    C39      C        0.52790    0.06200    0.86576    1.000
    H28      H        0.53210    0.08850    0.89800    1.000
    C40      C        0.43590    0.09160    0.82718    1.000
    H29      H        0.37830    0.13910    0.83390    1.000
    C41      C        0.42810    0.05230    0.77927    1.000
    H30      H        0.36620    0.07420    0.75400    1.000
    C42      C        0.72630    0.00940    0.93791    1.000
    H31      H        0.79230    0.97390    0.95970    1.000
    H32      H        0.65840    0.99220    0.95100    1.000
    C43      C        0.74430    0.13670    0.93924    1.000
    C44      C        0.10840    0.10590    0.60318    1.000
    C45      C        0.11410    0.20390    0.63833    1.000
    H33      H        0.10320    0.27750    0.62580    1.000
    C46      C        0.13420    0.18700    0.68682    1.000
    H34      H        0.14820    0.11170    0.69660    1.000
    C47      C        0.13830    0.26810    0.72819    1.000
    C48      C        0.15820    0.22490    0.77638    1.000
    H35      H        0.16620    0.14670    0.78110    1.000
    C49      C        0.16660    0.29500    0.81764    1.000
    C50      C        0.15240    0.41090    0.81097    1.000
    H36      H        0.15780    0.45890    0.83830    1.000
    C51      C        0.13000    0.45450    0.76311    1.000
    H37      H        0.11920    0.53250    0.75860    1.000
    C52      C        0.12320    0.38540    0.72139    1.000
    H38      H        0.10890    0.41670    0.68950    1.000
    C53      C        0.20720    0.30660    0.90733    1.000
    H39      H        0.25430    0.37200    0.90340    1.000
    H40      H        0.25000    0.26160    0.93480    1.000
    C54      C        0.09470    0.34840    0.92079    1.000
    C55      C        0.28860    0.73690    0.70459    1.000
    H41      H        0.33350    0.70140    0.68510    1.000
    C56      C        0.31000    0.71120    0.75497    1.000
    H42      H        0.36870    0.66060    0.76850    1.000
    C57      C        0.24410    0.76060    0.78528    1.000
    C58      C        0.16130    0.83820    0.76240    1.000
    H43      H        0.11600    0.87580    0.78110    1.000
    C59      C        0.14600    0.86000    0.71211    1.000
    H44      H        0.08980    0.91260    0.69790    1.000
    C60      C        0.25850    0.72970    0.83885    1.000
    C61      C        0.33930    0.65310    0.86250    1.000
    H45      H        0.38970    0.61970    0.84500    1.000
    C62      C        0.34700    0.62510    0.91174    1.000
    H46      H        0.40400    0.57360    0.92630    1.000
    C63      C        0.19950    0.73880    0.91693    1.000
    H47      H        0.14960    0.76990    0.93520    1.000
    C64      C        0.18630    0.77080    0.86788    1.000
    H48      H        0.12760    0.82120    0.85400    1.000
    Co4      Co       0.16901    0.85131    0.60302    1.000
    Co5      Co       0.30502    0.63502    0.01834    1.000
    O23      O        0.13300    0.61810    0.02483    1.000
    O24      O        0.34100    0.61010    0.09704    1.000
    O25      O        0.53290    0.61640    0.11908    1.000
    O26      O        0.79510    0.32020    0.40790    1.000
    O27      O        0.70750    0.31090    0.47295    1.000
    O28      O        0.13980    0.48740    0.12289    1.000
    O29      O        0.07020    0.37740    0.05690    1.000
    O30      O        0.10830    0.08550    0.45733    1.000
    O31      O        0.00260    0.19110    0.39602    1.000
    O32      O        0.71190    0.53940    0.38915    1.000
    O33      O        0.18950    0.25990    0.36290    1.000
    N5       N        0.20720    0.69030    0.18249    1.000
    N6       N        0.27900    0.83370    0.43971    1.000
    C65      C        0.43730    0.59400    0.12836    1.000
    C66      C        0.42990    0.54580    0.17738    1.000
    H49      H        0.36500    0.50360    0.17990    1.000
    C67      C        0.51290    0.56080    0.21775    1.000
    H50      H        0.57790    0.60090    0.21360    1.000
    C68      C        0.51280    0.52040    0.26855    1.000
    C69      C        0.60490    0.55020    0.30727    1.000
    H51      H        0.66160    0.59930    0.30090    1.000
    C70      C        0.61350    0.50840    0.35492    1.000
    C71      C        0.52790    0.43800    0.36576    1.000
    H52      H        0.53210    0.41150    0.39800    1.000
    C72      C        0.43590    0.40840    0.32718    1.000
    H53      H        0.37830    0.36090    0.33390    1.000
    C73      C        0.42810    0.44770    0.27927    1.000
    H54      H        0.36620    0.42580    0.25400    1.000
    C74      C        0.72630    0.49060    0.43791    1.000
    H55      H        0.79230    0.52610    0.45970    1.000
    H56      H        0.65840    0.50780    0.45100    1.000
    C75      C        0.74430    0.36330    0.43924    1.000
    C76      C        0.10840    0.39410    0.10318    1.000
    C77      C        0.11410    0.29610    0.13833    1.000
    H57      H        0.10320    0.22250    0.12580    1.000
    C78      C        0.13420    0.31300    0.18682    1.000
    H58      H        0.14820    0.38830    0.19660    1.000
    C79      C        0.13830    0.23190    0.22819    1.000
    C80      C        0.15820    0.27510    0.27638    1.000
    H59      H        0.16620    0.35330    0.28110    1.000
    C81      C        0.16660    0.20500    0.31764    1.000
    C82      C        0.15240    0.08910    0.31097    1.000
    H60      H        0.15780    0.04110    0.33830    1.000
    C83      C        0.13000    0.04550    0.26311    1.000
    H61      H        0.11920    0.96750    0.25860    1.000
    C84      C        0.12320    0.11460    0.22139    1.000
    H62      H        0.10890    0.08330    0.18950    1.000
    C85      C        0.20720    0.19340    0.40733    1.000
    H63      H        0.25430    0.12800    0.40340    1.000
    H64      H        0.25000    0.23840    0.43480    1.000
    C86      C        0.09470    0.15160    0.42079    1.000
    C87      C        0.28860    0.76310    0.20459    1.000
    H65      H        0.33350    0.79860    0.18510    1.000
    C88      C        0.31000    0.78880    0.25497    1.000
    H66      H        0.36870    0.83940    0.26850    1.000
    C89      C        0.24410    0.73940    0.28528    1.000
    C90      C        0.16130    0.66180    0.26240    1.000
    H67      H        0.11600    0.62420    0.28110    1.000
    C91      C        0.14600    0.64000    0.21211    1.000
    H68      H        0.08980    0.58740    0.19790    1.000
    C92      C        0.25850    0.77030    0.33885    1.000
    C93      C        0.33930    0.84690    0.36250    1.000
    H69      H        0.38970    0.88030    0.34500    1.000
    C94      C        0.34700    0.87490    0.41174    1.000
    H70      H        0.40400    0.92640    0.42630    1.000
    C95      C        0.19950    0.76120    0.41693    1.000
    H71      H        0.14960    0.73010    0.43520    1.000
    C96      C        0.18630    0.72920    0.36788    1.000
    H72      H        0.12760    0.67880    0.35400    1.000
    Co6      Co       0.16901    0.64869    0.10302    1.000
    Co7      Co       0.69498    0.13502    0.48166    1.000
    O34      O        0.86700    0.11810    0.47517    1.000
    O35      O        0.65900    0.11010    0.40296    1.000
    O36      O        0.46710    0.11640    0.38092    1.000
    O37      O        0.20490    0.82020    0.09210    1.000
    O38      O        0.29250    0.81090    0.02705    1.000
    O39      O        0.86020    0.98740    0.37711    1.000
    O40      O        0.92980    0.87740    0.44310    1.000
    O41      O        0.89170    0.58550    0.04267    1.000
    O42      O        0.99740    0.69110    0.10398    1.000
    O43      O        0.28810    0.03940    0.11085    1.000
    O44      O        0.81050    0.75990    0.13710    1.000
    N7       N        0.79280    0.19030    0.31751    1.000
    N8       N        0.72100    0.33370    0.06029    1.000
    C97      C        0.56270    0.09400    0.37164    1.000
    C98      C        0.57010    0.04580    0.32262    1.000
    H73      H        0.63500    0.00360    0.32010    1.000
    C99      C        0.48710    0.06080    0.28225    1.000
    H74      H        0.42210    0.10090    0.28640    1.000
    C100     C        0.48720    0.02040    0.23145    1.000
    C101     C        0.39510    0.05020    0.19273    1.000
    H75      H        0.33840    0.09930    0.19910    1.000
    C102     C        0.38650    0.00840    0.14508    1.000
    C103     C        0.47210    0.93800    0.13424    1.000
    H76      H        0.46790    0.91150    0.10200    1.000
    C104     C        0.56410    0.90840    0.17282    1.000
    H77      H        0.62170    0.86090    0.16610    1.000
    C105     C        0.57190    0.94770    0.22073    1.000
    H78      H        0.63380    0.92580    0.24600    1.000
    C106     C        0.27370    0.99060    0.06209    1.000
    H79      H        0.20770    0.02610    0.04030    1.000
    H80      H        0.34160    0.00780    0.04900    1.000
    C107     C        0.25570    0.86330    0.06076    1.000
    C108     C        0.89160    0.89410    0.39682    1.000
    C109     C        0.88590    0.79610    0.36167    1.000
    H81      H        0.89680    0.72250    0.37420    1.000
    C110     C        0.86580    0.81300    0.31318    1.000
    H82      H        0.85180    0.88830    0.30340    1.000
    C111     C        0.86170    0.73190    0.27181    1.000
    C112     C        0.84180    0.77510    0.22362    1.000
    H83      H        0.83380    0.85330    0.21890    1.000
    C113     C        0.83340    0.70500    0.18236    1.000
    C114     C        0.84760    0.58910    0.18903    1.000
    H84      H        0.84220    0.54110    0.16170    1.000
    C115     C        0.87000    0.54550    0.23689    1.000
    H85      H        0.88080    0.46750    0.24140    1.000
    C116     C        0.87680    0.61460    0.27861    1.000
    H86      H        0.89110    0.58330    0.31050    1.000
    C117     C        0.79280    0.69340    0.09267    1.000
    H87      H        0.74570    0.62800    0.09660    1.000
    H88      H        0.75000    0.73840    0.06520    1.000
    C118     C        0.90530    0.65160    0.07921    1.000
    C119     C        0.71140    0.26310    0.29541    1.000
    H89      H        0.66650    0.29860    0.31490    1.000
    C120     C        0.69000    0.28880    0.24503    1.000
    H90      H        0.63130    0.33940    0.23150    1.000
    C121     C        0.75590    0.23940    0.21472    1.000
    C122     C        0.83870    0.16180    0.23760    1.000
    H91      H        0.88400    0.12420    0.21890    1.000
    C123     C        0.85400    0.14000    0.28789    1.000
    H92      H        0.91020    0.08740    0.30210    1.000
    C124     C        0.74150    0.27030    0.16115    1.000
    C125     C        0.66070    0.34690    0.13750    1.000
    H93      H        0.61030    0.38030    0.15500    1.000
    C126     C        0.65300    0.37490    0.08826    1.000
    H94      H        0.59600    0.42640    0.07370    1.000
    C127     C        0.80050    0.26120    0.08307    1.000
    H95      H        0.85040    0.23010    0.06480    1.000
    C128     C        0.81370    0.22920    0.13212    1.000
    H96      H        0.87240    0.17880    0.14600    1.000
    Co8      Co       0.83099    0.14869    0.39698    1.000
    Co9      Co       0.00000    0.50000    0.00000    1.000
    Co10     Co       0.00000    0.00000    0.50000    1.000
