# CIF file generated by openbabel 3.1.0, see https://openbabel.org
data_I
_chemical_name_common 'image0'
_cell_length_a 9.0968
_cell_length_b 9.6763
_cell_length_c 11.5065
_cell_angle_alpha 106.914
_cell_angle_beta 93.967
_cell_angle_gamma 108.27
_space_group_name_H-M_alt 'P 1'
_space_group_name_Hall 'P 1'
loop_
    _symmetry_equiv_pos_as_xyz
    x,y,z
loop_
    _atom_site_label
    _atom_site_type_symbol
    _atom_site_fract_x
    _atom_site_fract_y
    _atom_site_fract_z
    _atom_site_occupancy
    Eu1      Eu       0.27846    0.02824    0.99159    1.000
    O1       O        0.41900    0.88720    0.04720    1.000
    O2       O        0.91280    0.22790    0.07930    1.000
    O3       O        0.12090    0.98890    0.79140    1.000
    O4       O        0.13440    0.18100    0.04570    1.000
    O5       O        0.57320    0.76030    0.07710    1.000
    O6       O        0.30410    0.88420    0.78600    1.000
    C1       C        0.01240    0.83600    0.53400    1.000
    C2       C        0.18190    0.69230    0.53810    1.000
    C3       C        0.12600    0.60940    0.41360    1.000
    C4       C        0.28670    0.50040    0.06860    1.000
    C5       C        0.12350    0.80670    0.59880    1.000
    N1       N        0.08810    0.55240    0.14490    1.000
    N2       N        0.18970    0.68910    0.14460    1.000
    C6       C        0.05790    0.26970    0.07570    1.000
    C7       C        0.14400    0.43620    0.09870    1.000
    C8       C        0.31040    0.65500    0.09810    1.000
    C9       C        0.01550    0.64320    0.34620    1.000
    C10      C        0.95870    0.55850    0.21100    1.000
    C11      C        0.18790    0.90000    0.73150    1.000
    C12      C        0.95880    0.75660    0.40820    1.000
    C13      C        0.44230    0.77480    0.07370    1.000
    H1       H        0.18700    0.55600    0.38300    1.000
    H2       H        0.25800    0.64800    0.57500    1.000
    H3       H        0.92500    0.86500    0.58300    1.000
    H4       H        0.89800    0.78400    0.35800    1.000
    H5       H        0.87200    0.46200    0.19400    1.000
    H6       H        0.89000    0.62200    0.18000    1.000
    H7       H        0.35200    0.44500    0.03400    1.000
    Eu2      Eu       0.72154    0.97176    0.00841    1.000
    O7       O        0.58100    0.11280    0.95280    1.000
    O8       O        0.08720    0.77210    0.92070    1.000
    O9       O        0.87910    0.01110    0.20860    1.000
    O10      O        0.86560    0.81900    0.95430    1.000
    O11      O        0.42680    0.23970    0.92290    1.000
    O12      O        0.69590    0.11580    0.21400    1.000
    C14      C        0.98760    0.16400    0.46600    1.000
    C15      C        0.81810    0.30770    0.46190    1.000
    C16      C        0.87400    0.39060    0.58640    1.000
    C17      C        0.71330    0.49960    0.93140    1.000
    C18      C        0.87650    0.19330    0.40120    1.000
    N3       N        0.91190    0.44760    0.85510    1.000
    N4       N        0.81030    0.31090    0.85540    1.000
    C19      C        0.94210    0.73030    0.92430    1.000
    C20      C        0.85600    0.56380    0.90130    1.000
    C21      C        0.68960    0.34500    0.90190    1.000
    C22      C        0.98450    0.35680    0.65380    1.000
    C23      C        0.04130    0.44150    0.78900    1.000
    C24      C        0.81210    0.10000    0.26850    1.000
    C25      C        0.04120    0.24340    0.59180    1.000
    C26      C        0.55770    0.22520    0.92630    1.000
    H8       H        0.81300    0.44400    0.61700    1.000
    H9       H        0.74200    0.35200    0.42500    1.000
    H10      H        0.07500    0.13500    0.41700    1.000
    H11      H        0.10200    0.21600    0.64200    1.000
    H12      H        0.12800    0.53800    0.80600    1.000
    H13      H        0.11000    0.37800    0.82000    1.000
    H14      H        0.64800    0.55500    0.96600    1.000
