# CIF file generated by openbabel 3.1.0, see https://openbabel.org
data_I
_chemical_name_common 'image0'
_cell_length_a 13.405
_cell_length_b 14.705
_cell_length_c 13.388
_cell_angle_alpha 90
_cell_angle_beta 99.357
_cell_angle_gamma 90
_space_group_name_H-M_alt 'P 1'
_space_group_name_Hall 'P 1'
loop_
    _symmetry_equiv_pos_as_xyz
    x,y,z
loop_
    _atom_site_label
    _atom_site_type_symbol
    _atom_site_fract_x
    _atom_site_fract_y
    _atom_site_fract_z
    _atom_site_occupancy
    O1       O        0.94070    0.43910    0.57350    1.000
    O2       O        0.06290    0.34200    0.61810    1.000
    O3       O        0.01020    0.13030    0.89510    1.000
    O4       O        0.86430    0.05240    0.87160    1.000
    N1       N        0.41500    0.26350    0.55540    1.000
    C1       C        0.97300    0.36620    0.61350    1.000
    C2       C        0.90230    0.30430    0.65720    1.000
    C3       C        0.94160    0.24160    0.73170    1.000
    H1       H        0.01240    0.23910    0.75500    1.000
    C4       C        0.87710    0.18280    0.77160    1.000
    C5       C        0.77380    0.18600    0.73630    1.000
    H2       H        0.73010    0.14500    0.76280    1.000
    C6       C        0.73360    0.24870    0.66240    1.000
    C7       C        0.79890    0.30840    0.62380    1.000
    H3       H        0.77230    0.35210    0.57430    1.000
    C8       C        0.62290    0.25320    0.62490    1.000
    C9       C        0.55370    0.23970    0.68970    1.000
    H4       H        0.57600    0.22630    0.75910    1.000
    C10      C        0.45090    0.24610    0.65170    1.000
    H5       H        0.40410    0.23750    0.69710    1.000
    C11      C        0.48210    0.27560    0.49380    1.000
    H6       H        0.45770    0.28770    0.42440    1.000
    C12      C        0.58510    0.27170    0.52500    1.000
    H7       H        0.62990    0.28160    0.47790    1.000
    C13      C        0.92070    0.11560    0.85250    1.000
    O5       O        0.27880    0.42060    0.65330    1.000
    O6       O        0.30870    0.50100    0.52300    1.000
    O7       O        0.69720    0.50710    0.51360    1.000
    O8       O        0.78860    0.55310    0.65630    1.000
    C14      C        0.33650    0.46810    0.60960    1.000
    C15      C        0.44180    0.48550    0.66350    1.000
    C16      C        0.52140    0.49880    0.61030    1.000
    C17      C        0.61820    0.51530    0.66220    1.000
    C18      C        0.63540    0.51840    0.76740    1.000
    H8       H        0.70220    0.52980    0.80320    1.000
    C19      C        0.55580    0.50500    0.82060    1.000
    C20      C        0.45900    0.48860    0.76870    1.000
    H9       H        0.40400    0.47940    0.80550    1.000
    C21      C        0.57330    0.51180    0.93460    1.000
    C22      C        0.66120    0.54620    0.98920    1.000
    H10      H        0.71320    0.56780    0.95360    1.000
    N2       N        0.60920    0.52220    0.14990    1.000
    C23      C        0.67750    0.55080    0.09570    1.000
    H11      H        0.74080    0.57470    0.12940    1.000
    C24      C        0.52360    0.48870    0.09760    1.000
    H12      H        0.47370    0.46780    0.13620    1.000
    C25      C        0.50020    0.48120    0.99190    1.000
    H13      H        0.43680    0.45640    0.95980    1.000
    C26      C        0.70640    0.52700    0.60670    1.000
    Dy1      Dy       0.13893    0.43676    0.50902    1.000
    O9       O        0.25720    0.39660    0.66200    1.000
    O10      O        0.43310    0.55280    0.65810    1.000
    O11      O        0.19320    0.07060    0.84880    1.000
    O12      O        0.37100    0.99060    0.82360    1.000
    O13      O        0.05930    0.93910    0.92650    1.000
    O14      O        0.93710    0.84200    0.88190    1.000
    O15      O        0.98980    0.63030    0.60490    1.000
    O16      O        0.13570    0.55240    0.62840    1.000
    N3       N        0.58500    0.76350    0.94460    1.000
    C27      C        0.02700    0.86620    0.88650    1.000
    C28      C        0.09770    0.80430    0.84280    1.000
    C29      C        0.05840    0.74160    0.76830    1.000
    H14      H        0.98760    0.73910    0.74500    1.000
    C30      C        0.12290    0.68280    0.72840    1.000
    C31      C        0.22620    0.68600    0.76370    1.000
    H15      H        0.26990    0.64500    0.73720    1.000
    C32      C        0.26640    0.74870    0.83760    1.000
    C33      C        0.20110    0.80840    0.87620    1.000
    H16      H        0.22770    0.85210    0.92570    1.000
    C34      C        0.37710    0.75320    0.87510    1.000
    C35      C        0.44630    0.73970    0.81030    1.000
    H17      H        0.42400    0.72630    0.74090    1.000
    C36      C        0.54910    0.74610    0.84830    1.000
    H18      H        0.59590    0.73750    0.80290    1.000
    C37      C        0.51790    0.77560    0.00620    1.000
    H19      H        0.54230    0.78770    0.07560    1.000
    C38      C        0.41490    0.77170    0.97500    1.000
    H20      H        0.37010    0.78160    0.02210    1.000
    C39      C        0.07930    0.61560    0.64750    1.000
    O17      O        0.72120    0.92060    0.84670    1.000
    O18      O        0.69130    0.00100    0.97700    1.000
    O19      O        0.30280    0.00710    0.98640    1.000
    O20      O        0.21140    0.05310    0.84370    1.000
    C40      C        0.66350    0.96810    0.89040    1.000
    C41      C        0.55820    0.98550    0.83650    1.000
    C42      C        0.47860    0.99880    0.88970    1.000
    C43      C        0.38180    0.01530    0.83780    1.000
    C44      C        0.36460    0.01840    0.73260    1.000
    H21      H        0.29780    0.02980    0.69680    1.000
    C45      C        0.44420    0.00500    0.67940    1.000
    C46      C        0.54100    0.98860    0.73130    1.000
    H22      H        0.59600    0.97940    0.69450    1.000
    C47      C        0.42670    0.01180    0.56540    1.000
    C48      C        0.33880    0.04620    0.51080    1.000
    H23      H        0.28680    0.06780    0.54640    1.000
    N4       N        0.39080    0.02220    0.35010    1.000
    C49      C        0.32250    0.05080    0.40430    1.000
    H24      H        0.25920    0.07470    0.37060    1.000
    C50      C        0.47640    0.98870    0.40240    1.000
    H25      H        0.52630    0.96780    0.36380    1.000
    C51      C        0.49980    0.98120    0.50810    1.000
    H26      H        0.56320    0.95640    0.54020    1.000
    C52      C        0.29360    0.02700    0.89330    1.000
    Dy2      Dy       0.86107    0.93676    0.99098    1.000
    O21      O        0.74280    0.89660    0.83800    1.000
    O22      O        0.56690    0.05280    0.84190    1.000
    O23      O        0.80680    0.57060    0.65120    1.000
    O24      O        0.62900    0.49060    0.67640    1.000
    O25      O        0.05930    0.56090    0.42650    1.000
    O26      O        0.93710    0.65800    0.38190    1.000
    O27      O        0.98980    0.86970    0.10490    1.000
    O28      O        0.13570    0.94760    0.12840    1.000
    N5       N        0.58500    0.73650    0.44460    1.000
    C53      C        0.02700    0.63380    0.38650    1.000
    C54      C        0.09770    0.69570    0.34280    1.000
    C55      C        0.05840    0.75840    0.26830    1.000
    H27      H        0.98760    0.76090    0.24500    1.000
    C56      C        0.12290    0.81720    0.22840    1.000
    C57      C        0.22620    0.81400    0.26370    1.000
    H28      H        0.26990    0.85500    0.23720    1.000
    C58      C        0.26640    0.75130    0.33760    1.000
    C59      C        0.20110    0.69160    0.37620    1.000
    H29      H        0.22770    0.64790    0.42570    1.000
    C60      C        0.37710    0.74680    0.37510    1.000
    C61      C        0.44630    0.76030    0.31030    1.000
    H30      H        0.42400    0.77370    0.24090    1.000
    C62      C        0.54910    0.75390    0.34830    1.000
    H31      H        0.59590    0.76250    0.30290    1.000
    C63      C        0.51790    0.72440    0.50620    1.000
    H32      H        0.54230    0.71230    0.57560    1.000
    C64      C        0.41490    0.72830    0.47500    1.000
    H33      H        0.37010    0.71840    0.52210    1.000
    C65      C        0.07930    0.88440    0.14750    1.000
    O29      O        0.72120    0.57940    0.34670    1.000
    O30      O        0.69130    0.49900    0.47700    1.000
    O31      O        0.30280    0.49290    0.48640    1.000
    O32      O        0.21140    0.44690    0.34370    1.000
    C66      C        0.66350    0.53190    0.39040    1.000
    C67      C        0.55820    0.51450    0.33650    1.000
    C68      C        0.47860    0.50120    0.38970    1.000
    C69      C        0.38180    0.48470    0.33780    1.000
    C70      C        0.36460    0.48160    0.23260    1.000
    H34      H        0.29780    0.47020    0.19680    1.000
    C71      C        0.44420    0.49500    0.17940    1.000
    C72      C        0.54100    0.51140    0.23130    1.000
    H35      H        0.59600    0.52060    0.19450    1.000
    C73      C        0.42670    0.48820    0.06540    1.000
    C74      C        0.33880    0.45380    0.01080    1.000
    H36      H        0.28680    0.43220    0.04640    1.000
    N6       N        0.39080    0.47780    0.85010    1.000
    C75      C        0.32250    0.44920    0.90430    1.000
    H37      H        0.25920    0.42530    0.87060    1.000
    C76      C        0.47640    0.51130    0.90240    1.000
    H38      H        0.52630    0.53220    0.86380    1.000
    C77      C        0.49980    0.51880    0.00810    1.000
    H39      H        0.56320    0.54360    0.04020    1.000
    C78      C        0.29360    0.47300    0.39330    1.000
    Dy3      Dy       0.86107    0.56325    0.49098    1.000
    O33      O        0.74280    0.60340    0.33800    1.000
    O34      O        0.56690    0.44720    0.34190    1.000
    O35      O        0.80680    0.92940    0.15120    1.000
    O36      O        0.62900    0.00940    0.17640    1.000
    O37      O        0.94070    0.06090    0.07350    1.000
    O38      O        0.06290    0.15800    0.11810    1.000
    O39      O        0.01020    0.36970    0.39510    1.000
    O40      O        0.86430    0.44760    0.37160    1.000
    N7       N        0.41500    0.23650    0.05540    1.000
    C79      C        0.97300    0.13380    0.11350    1.000
    C80      C        0.90230    0.19570    0.15720    1.000
    C81      C        0.94160    0.25840    0.23170    1.000
    H40      H        0.01240    0.26090    0.25500    1.000
    C82      C        0.87710    0.31720    0.27160    1.000
    C83      C        0.77380    0.31400    0.23630    1.000
    H41      H        0.73010    0.35500    0.26280    1.000
    C84      C        0.73360    0.25130    0.16240    1.000
    C85      C        0.79890    0.19160    0.12380    1.000
    H42      H        0.77230    0.14790    0.07430    1.000
    C86      C        0.62290    0.24680    0.12490    1.000
    C87      C        0.55370    0.26030    0.18970    1.000
    H43      H        0.57600    0.27370    0.25910    1.000
    C88      C        0.45090    0.25390    0.15170    1.000
    H44      H        0.40410    0.26250    0.19710    1.000
    C89      C        0.48210    0.22440    0.99380    1.000
    H45      H        0.45770    0.21230    0.92440    1.000
    C90      C        0.58510    0.22830    0.02500    1.000
    H46      H        0.62990    0.21840    0.97790    1.000
    C91      C        0.92070    0.38440    0.35250    1.000
    O41      O        0.27880    0.07940    0.15330    1.000
    O42      O        0.30870    0.99900    0.02300    1.000
    O43      O        0.69720    0.99290    0.01360    1.000
    O44      O        0.78860    0.94690    0.15630    1.000
    C92      C        0.33650    0.03190    0.10960    1.000
    C93      C        0.44180    0.01450    0.16350    1.000
    C94      C        0.52140    0.00120    0.11030    1.000
    C95      C        0.61820    0.98470    0.16220    1.000
    C96      C        0.63540    0.98160    0.26740    1.000
    H47      H        0.70220    0.97020    0.30320    1.000
    C97      C        0.55580    0.99500    0.32060    1.000
    C98      C        0.45900    0.01140    0.26870    1.000
    H48      H        0.40400    0.02060    0.30550    1.000
    C99      C        0.57330    0.98820    0.43460    1.000
    C100     C        0.66120    0.95380    0.48920    1.000
    H49      H        0.71320    0.93220    0.45360    1.000
    N8       N        0.60920    0.97780    0.64990    1.000
    C101     C        0.67750    0.94920    0.59570    1.000
    H50      H        0.74080    0.92530    0.62940    1.000
    C102     C        0.52360    0.01130    0.59760    1.000
    H51      H        0.47370    0.03220    0.63620    1.000
    C103     C        0.50020    0.01880    0.49190    1.000
    H52      H        0.43680    0.04360    0.45980    1.000
    C104     C        0.70640    0.97300    0.10670    1.000
    Dy4      Dy       0.13893    0.06324    0.00902    1.000
    O45      O        0.25720    0.10340    0.16200    1.000
    O46      O        0.43310    0.94720    0.15810    1.000
    O47      O        0.19320    0.42940    0.34880    1.000
    O48      O        0.37100    0.50940    0.32360    1.000
