# CIF file generated by openbabel 3.1.0, see https://openbabel.org
data_I
_chemical_name_common 'IGAHED01_clean'
_cell_length_a 6.9362
_cell_length_b 7.4559
_cell_length_c 8.2797
_cell_angle_alpha 90.342
_cell_angle_beta 109.848
_cell_angle_gamma 93.161
_space_group_name_H-M_alt 'P 1'
_space_group_name_Hall 'P 1'
loop_
    _symmetry_equiv_pos_as_xyz
    x,y,z
loop_
    _atom_site_label
    _atom_site_type_symbol
    _atom_site_fract_x
    _atom_site_fract_y
    _atom_site_fract_z
    _atom_site_occupancy
    Co1      Co       0.00000    0.00000    0.50000    1.000
    Co2      Co       0.50000    0.50000    0.50000    1.000
    H1       H        0.57590    0.70880    0.96010    1.000
    H2       H        0.42410    0.29120    0.03990    1.000
    C1       C        0.64770    0.75890    0.28450    1.000
    C2       C        0.58070    0.89190    0.14260    1.000
    C3       C        0.53600    0.06770    0.16670    1.000
    C4       C        0.57540    0.15630    0.34040    1.000
    C5       C        0.54510    0.82590    0.97620    1.000
    C6       C        0.35230    0.24110    0.71550    1.000
    C7       C        0.41930    0.10810    0.85740    1.000
    C8       C        0.46400    0.93230    0.83330    1.000
    C9       C        0.42460    0.84370    0.65960    1.000
    C10      C        0.45490    0.17410    0.02380    1.000
    O1       O        0.83060    0.76750    0.38810    1.000
    O2       O        0.51250    0.64240    0.28770    1.000
    O3       O        0.73550    0.12830    0.46220    1.000
    O4       O        0.44300    0.26200    0.35010    1.000
    O5       O        0.16940    0.23250    0.61190    1.000
    O6       O        0.48750    0.35760    0.71230    1.000
    O7       O        0.26450    0.87170    0.53780    1.000
    O8       O        0.55700    0.73800    0.64990    1.000
