data_functionalizedCrystal
_audit_creation_method	'EQeq! by Chris Wilmer'
_symmetry_space_group_name_H-M	'P1'
_symmetry_Int_Tables_number	1
_symmetry_cell_setting	triclinic
loop_
_symmetry_equiv_pos_as_xyz
  x,y,z
_cell_length_a	22.33
_cell_length_b	13.297
_cell_length_c	8.846
_cell_angle_alpha	90
_cell_angle_beta	90
_cell_angle_gamma	90
loop_
_atom_site_label
_atom_site_type_symbol
_atom_site_fract_x
_atom_site_fract_y
_atom_site_fract_z
_atom_site_charge
Mof_N 	N 	0.0776	0.3023	0.0617	-0.131
Mof_N 	N 	0.2145	0.3783	0.0614	-0.133
Mof_C 	C 	0.0483	0.3	0.9579	-0.007
Mof_C 	C 	0.2419	0.3931	0.9576	-0.002
Mof_N 	N 	0.4224	0.8023	0.9383	-0.13
Mof_N 	N 	0.2855	0.8783	0.9386	-0.132
Mof_C 	C 	0.4517	0.8	0.0421	-0.008
Mof_C 	C 	0.2581	0.8931	0.0424	-0.003
Mof_N 	N 	0.9224	0.6977	0.5617	-0.131
Mof_N 	N 	0.7855	0.6217	0.5614	-0.134
Mof_C 	C 	0.9517	0.7	0.4579	-0.006
Mof_C 	C 	0.7581	0.6069	0.4576	-0.001
Mof_N 	N 	0.5776	0.1977	0.4383	-0.131
Mof_N 	N 	0.7145	0.1217	0.4386	-0.134
Mof_C 	C 	0.5483	0.2	0.5421	-0.006
Mof_C 	C 	0.7419	0.1069	0.5424	-0.001
Mof_N 	N 	0.9224	0.6977	0.9383	-0.131
Mof_N 	N 	0.7855	0.6217	0.9386	-0.133
Mof_C 	C 	0.9517	0.7	0.0421	-0.007
Mof_C 	C 	0.7581	0.6069	0.0424	-0.002
Mof_N 	N 	0.5776	0.1977	0.0617	-0.13
Mof_N 	N 	0.7145	0.1217	0.0614	-0.132
Mof_C 	C 	0.5483	0.2	0.9579	-0.008
Mof_C 	C 	0.7419	0.1069	0.9576	-0.003
Mof_N 	N 	0.0776	0.3023	0.4383	-0.131
Mof_N 	N 	0.2145	0.3783	0.4386	-0.134
Mof_C 	C 	0.0483	0.3	0.5421	-0.006
Mof_C 	C 	0.2419	0.3931	0.5424	-0.001
Mof_N 	N 	0.4224	0.8023	0.5617	-0.131
Mof_N 	N 	0.2855	0.8783	0.5614	-0.134
Mof_C 	C 	0.4517	0.8	0.4579	-0.006
Mof_C 	C 	0.2581	0.8931	0.4576	-0.001
Mof_Cd	Cd	0.14605	0.34057	0.25	0.387
Mof_N 	N 	0.0994	0.4992	0.25	-0.135
Mof_N 	N 	0.1789	0.1757	0.25	-0.134
Mof_C 	C 	0.0664	0.5602	0.25	0.006
Mof_C 	C 	0.1877	0.0934	0.25	0.003
Mof_Cd	Cd	0.35395	0.84057	0.75	0.387
Mof_N 	N 	0.4006	0.9992	0.75	-0.135
Mof_N 	N 	0.3211	0.6757	0.75	-0.134
Mof_C 	C 	0.4336	0.0602	0.75	0.005
Mof_C 	C 	0.3123	0.5934	0.75	0.002
Mof_Cd	Cd	0.85395	0.65943	0.75	0.387
Mof_N 	N 	0.9006	0.5008	0.75	-0.135
Mof_N 	N 	0.8211	0.8243	0.75	-0.134
Mof_C 	C 	0.9336	0.4398	0.75	0.006
Mof_C 	C 	0.8123	0.9066	0.75	0.003
Mof_Cd	Cd	0.64605	0.15943	0.25	0.387
Mof_N 	N 	0.5994	0.0008	0.25	-0.135
Mof_N 	N 	0.6789	0.3243	0.25	-0.134
Mof_C 	C 	0.5664	0.9398	0.25	0.005
Mof_C 	C 	0.6877	0.4066	0.25	0.002
Mof_Cd	Cd	0.29318	0.42918	0.75	0.274
Mof_Cd	Cd	0.99563	0.30661	0.75	0.274
Mof_C 	C 	0.9241	0.1925	0.75	-0.064
Mof_C 	C 	0.3796	0.3494	0.75	-0.065
Mof_Cd	Cd	0.20682	0.92918	0.25	0.274
Mof_Cd	Cd	0.50437	0.80661	0.25	0.274
Mof_C 	C 	0.5759	0.6925	0.25	-0.064
Mof_C 	C 	0.1204	0.8494	0.25	-0.065
Mof_Cd	Cd	0.70682	0.57082	0.25	0.274
Mof_Cd	Cd	0.00437	0.69339	0.25	0.274
Mof_C 	C 	0.0759	0.8075	0.25	-0.064
Mof_C 	C 	0.6204	0.6506	0.25	-0.065
Mof_Cd	Cd	0.79318	0.07082	0.75	0.274
Mof_Cd	Cd	0.49563	0.19339	0.75	0.274
Mof_C 	C 	0.4241	0.3075	0.75	-0.064
Mof_C 	C 	0.8796	0.1506	0.75	-0.065
_end
