data_functionalizedCrystal
_audit_creation_method	'EQeq! by Chris Wilmer'
_symmetry_space_group_name_H-M	'P1'
_symmetry_Int_Tables_number	1
_symmetry_cell_setting	triclinic
loop_
_symmetry_equiv_pos_as_xyz
  x,y,z
_cell_length_a	6.7119
_cell_length_b	24.876
_cell_length_c	14.0647
_cell_angle_alpha	90
_cell_angle_beta	90
_cell_angle_gamma	90
loop_
_atom_site_label
_atom_site_type_symbol
_atom_site_fract_x
_atom_site_fract_y
_atom_site_fract_z
_atom_site_charge
Mof_O 	O 	0.113	0.116	0.636	-0.09
Mof_O 	O 	0.613	0.616	0.636	-0.059
Mof_O 	O 	0.887	0.384	0.636	-0.029
Mof_O 	O 	0.387	0.884	0.636	-0.076
Mof_O 	O 	0.887	0.616	0.364	-0.028
Mof_O 	O 	0.387	0.116	0.364	-0.075
Mof_O 	O 	0.113	0.884	0.364	-0.089
Mof_O 	O 	0.613	0.384	0.364	-0.058
Mof_O 	O 	0.887	0.884	0.364	-0.028
Mof_O 	O 	0.387	0.384	0.364	-0.075
Mof_O 	O 	0.113	0.616	0.364	-0.089
Mof_O 	O 	0.613	0.116	0.364	-0.058
Mof_O 	O 	0.113	0.384	0.636	-0.089
Mof_O 	O 	0.613	0.884	0.636	-0.058
Mof_O 	O 	0.887	0.116	0.636	-0.028
Mof_O 	O 	0.387	0.616	0.636	-0.075
Mof_C 	C 	-1.53271e-33	0.1646	0.0187	0.12
Mof_H 	H 	7.70675e-33	0.1963	0.9809	0.014
Mof_C 	C 	-3.53484e-32	0.1159	0.9737	-0.207
Mof_H 	H 	7.11985e-33	0.1142	0.9062	0.132
Mof_C 	C 	1.54405e-33	0.0703	0.0255	0.178
Mof_C 	C 	-1.71002e-33	0.0732	0.1244	-0.173
Mof_H 	H 	3.96179e-33	0.0416	0.1622	0.116
Mof_C 	C 	3.99714e-33	0.1247	0.1667	0.098
Mof_H 	H 	7.21332e-33	0.1277	0.234	0.036
Mof_C 	C 	1.49931e-32	0.2035	0.5401	-0.148
Mof_H 	H 	3.97869e-33	0.1704	0.5064	0.123
Mof_C 	C 	5.02129e-33	0.2025	0.6391	0.165
Mof_N 	N 	8.88606e-34	0.1698	0.1131	-0.156
Mof_N 	N 	7.65647e-33	0.0194	0.9745	-0.093
Mof_N 	N 	5.32692e-33	0.1511	0.678	-0.024
Mof_O 	O 	2.41792e-32	0.2943	0.3411	-0.249
Mof_O 	O 	-1.55226e-32	0.1449	0.7607	-0.121
Mof_C 	C 	0.5	0.6646	0.0187	0.135
Mof_H 	H 	0.5	0.6963	0.9809	0.023
Mof_C 	C 	0.5	0.6159	0.9737	-0.202
Mof_H 	H 	0.5	0.6142	0.9062	0.144
Mof_C 	C 	0.5	0.5703	0.0255	0.196
Mof_C 	C 	0.5	0.5732	0.1244	-0.17
Mof_H 	H 	0.5	0.5416	0.1622	0.128
Mof_C 	C 	0.5	0.6247	0.1667	0.113
Mof_H 	H 	0.5	0.6277	0.234	0.042
Mof_C 	C 	0.5	0.7035	0.5401	-0.15
Mof_H 	H 	0.5	0.6704	0.5064	0.137
Mof_C 	C 	0.5	0.7025	0.6391	0.19
Mof_N 	N 	0.5	0.6698	0.1131	-0.152
Mof_N 	N 	0.5	0.5194	0.9745	-0.084
Mof_N 	N 	0.5	0.6511	0.678	-0.013
Mof_O 	O 	0.5	0.7943	0.3411	-0.233
Mof_O 	O 	0.5	0.6449	0.7607	-0.101
Mof_C 	C 	3.84211e-33	0.3354	0.0187	0.12
Mof_H 	H 	7.70675e-33	0.3037	0.9809	0.014
Mof_C 	C 	7.65018e-33	0.3841	0.9737	-0.207
Mof_H 	H 	2.86191e-32	0.3858	0.9062	0.132
Mof_C 	C 	-1.1893e-32	0.4297	0.0255	0.178
Mof_C 	C 	9.03962e-33	0.4268	0.1244	-0.173
Mof_H 	H 	-2.29123e-32	0.4584	0.1622	0.116
Mof_C 	C 	-1.21273e-32	0.3753	0.1667	0.098
Mof_H 	H 	-3.53632e-33	0.3723	0.234	0.036
Mof_C 	C 	1.49931e-32	0.2965	0.5401	-0.148
Mof_H 	H 	-6.77095e-33	0.3296	0.5064	0.123
Mof_C 	C 	-5.72835e-33	0.2975	0.6391	0.165
Mof_N 	N 	-4.48621e-33	0.3302	0.1131	-0.156
Mof_N 	N 	-1.38428e-32	0.4806	0.9745	-0.093
Mof_N 	N 	2.68262e-32	0.3489	0.678	-0.024
Mof_O 	O 	-2.69486e-33	0.2057	0.3411	-0.249
Mof_O 	O 	2.7476e-32	0.3551	0.7607	-0.121
Mof_C 	C 	0.5	0.8354	0.0187	0.135
Mof_H 	H 	0.5	0.8037	0.9809	0.023
Mof_C 	C 	0.5	0.8841	0.9737	-0.202
Mof_H 	H 	0.5	0.8858	0.9062	0.144
Mof_C 	C 	0.5	0.9297	0.0255	0.196
Mof_C 	C 	0.5	0.9268	0.1244	-0.17
Mof_H 	H 	0.5	0.9584	0.1622	0.128
Mof_C 	C 	0.5	0.8753	0.1667	0.113
Mof_H 	H 	0.5	0.8723	0.234	0.042
Mof_C 	C 	0.5	0.7965	0.5401	-0.15
Mof_H 	H 	0.5	0.8296	0.5064	0.137
Mof_C 	C 	0.5	0.7975	0.6391	0.19
Mof_N 	N 	0.5	0.8302	0.1131	-0.152
Mof_N 	N 	0.5	0.9806	0.9745	-0.084
Mof_N 	N 	0.5	0.8489	0.678	-0.013
Mof_O 	O 	0.5	0.7057	0.3411	-0.233
Mof_O 	O 	0.5	0.8551	0.7607	-0.101
Mof_C 	C 	2.92092e-32	0.6646	0.9813	0.12
Mof_H 	H 	8.2123e-33	0.6963	0.0191	0.014
Mof_C 	C 	1.76748e-32	0.6159	0.0263	-0.207
Mof_H 	H 	2.89548e-32	0.6142	0.0938	0.132
Mof_C 	C 	7.65647e-33	0.5703	0.9745	0.178
Mof_C 	C 	6.87943e-33	0.5732	0.8756	-0.173
Mof_H 	H 	6.58244e-33	0.5416	0.8378	0.116
Mof_C 	C 	4.95456e-32	0.6247	0.8333	0.098
Mof_H 	H 	6.01832e-33	0.6277	0.766	0.036
Mof_C 	C 	6.81112e-32	0.7035	0.4599	-0.148
Mof_H 	H 	-3.91204e-32	0.6704	0.4936	0.123
Mof_C 	C 	2.43348e-32	0.7025	0.3609	0.165
Mof_N 	N 	-3.60303e-32	0.6698	0.8869	-0.156
Mof_N 	N 	-1.1893e-32	0.5194	0.0255	-0.093
Mof_N 	N 	1.86544e-32	0.6511	0.322	-0.024
Mof_O 	O 	2.66761e-32	0.7943	0.6589	-0.249
Mof_O 	O 	2.33794e-32	0.6449	0.2393	-0.121
Mof_C 	C 	0.5	0.1646	0.9813	0.135
Mof_H 	H 	0.5	0.1963	0.0191	0.023
Mof_C 	C 	0.5	0.1159	0.0263	-0.202
Mof_H 	H 	0.5	0.1142	0.0938	0.144
Mof_C 	C 	0.5	0.0703	0.9745	0.196
Mof_C 	C 	0.5	0.0732	0.8756	-0.17
Mof_H 	H 	0.5	0.0416	0.8378	0.128
Mof_C 	C 	0.5	0.1247	0.8333	0.113
Mof_H 	H 	0.5	0.1277	0.766	0.042
Mof_C 	C 	0.5	0.2035	0.4599	-0.15
Mof_H 	H 	0.5	0.1704	0.4936	0.137
Mof_C 	C 	0.5	0.2025	0.3609	0.19
Mof_N 	N 	0.5	0.1698	0.8869	-0.152
Mof_N 	N 	0.5	0.0194	0.0255	-0.084
Mof_N 	N 	0.5	0.1511	0.322	-0.013
Mof_O 	O 	0.5	0.2943	0.6589	-0.233
Mof_O 	O 	0.5	0.1449	0.2393	-0.101
Mof_C 	C 	-1.37894e-32	0.8354	0.9813	0.12
Mof_H 	H 	8.2123e-33	0.8037	0.0191	0.014
Mof_C 	C 	1.76748e-32	0.8841	0.0263	-0.207
Mof_H 	H 	7.45549e-33	0.8858	0.0938	0.132
Mof_C 	C 	2.91557e-32	0.9297	0.9745	0.178
Mof_C 	C 	2.83787e-32	0.9268	0.8756	-0.173
Mof_H 	H 	9.25796e-32	0.9584	0.8378	0.116
Mof_C 	C 	-1.49522e-32	0.8753	0.8333	0.098
Mof_H 	H 	-1.5481e-32	0.8723	0.766	0.036
Mof_C 	C 	2.51126e-32	0.7965	0.4599	-0.148
Mof_H 	H 	2.53774e-32	0.8296	0.4936	0.123
Mof_C 	C 	2.43348e-32	0.7975	0.3609	0.165
Mof_N 	N 	6.96821e-33	0.8302	0.8869	-0.156
Mof_N 	N 	9.60628e-33	0.9806	0.0255	-0.093
Mof_N 	N 	-2.84492e-33	0.8489	0.322	-0.024
Mof_O 	O 	5.17686e-33	0.7057	0.6589	-0.249
Mof_O 	O 	1.88014e-33	0.8551	0.2393	-0.121
Mof_C 	C 	0.5	0.3354	0.9813	0.135
Mof_H 	H 	0.5	0.3037	0.0191	0.023
Mof_C 	C 	0.5	0.3841	0.0263	-0.202
Mof_H 	H 	0.5	0.3858	0.0938	0.144
Mof_C 	C 	0.5	0.4297	0.9745	0.196
Mof_C 	C 	0.5	0.4268	0.8756	-0.17
Mof_H 	H 	0.5	0.4584	0.8378	0.128
Mof_C 	C 	0.5	0.3753	0.8333	0.113
Mof_H 	H 	0.5	0.3723	0.766	0.042
Mof_C 	C 	0.5	0.2965	0.4599	-0.15
Mof_H 	H 	0.5	0.3296	0.4936	0.137
Mof_C 	C 	0.5	0.2975	0.3609	0.19
Mof_N 	N 	0.5	0.3302	0.8869	-0.152
Mof_N 	N 	0.5	0.4806	0.0255	-0.084
Mof_N 	N 	0.5	0.3489	0.322	-0.013
Mof_O 	O 	0.5	0.2057	0.6589	-0.233
Mof_O 	O 	0.5	0.3551	0.2393	-0.101
Mof_C 	C 	2.45132e-32	0.25	0.3836	0.249
Mof_C 	C 	3.85298e-33	0.25	0.4904	0.047
Mof_C 	C 	-5.32529e-33	0.25	0.6904	-0.17
Mof_C 	C 	6.27603e-33	0.25	0.7988	0.355
Mof_Cd	Cd	1.22603e-32	0.25	0.19228	0.454
Mof_C 	C 	0.5	0.75	0.3836	0.253
Mof_C 	C 	0.5	0.75	0.4904	0.07
Mof_C 	C 	0.5	0.75	0.6904	-0.178
Mof_C 	C 	0.5	0.75	0.7988	0.413
Mof_Cd	Cd	0.5	0.75	0.19228	0.478
Mof_C 	C 	4.78415e-32	0.75	0.6164	0.249
Mof_C 	C 	2.55031e-32	0.75	0.5096	0.047
Mof_C 	C 	-2.94235e-33	0.75	0.3096	-0.17
Mof_C 	C 	2.84549e-32	0.75	0.2012	0.355
Mof_Cd	Cd	-1.51532e-32	0.75	0.80772	0.454
Mof_C 	C 	0.5	0.25	0.6164	0.253
Mof_C 	C 	0.5	0.25	0.5096	0.07
Mof_C 	C 	0.5	0.25	0.3096	-0.178
Mof_C 	C 	0.5	0.25	0.2012	0.413
Mof_Cd	Cd	0.5	0.25	0.80772	0.478
Mof_O 	O 	0.1606	0.25	0.8396	-0.284
Mof_O 	O 	0.6606	0.75	0.8396	-0.276
Mof_O 	O 	0.8394	0.25	0.8396	-0.241
Mof_O 	O 	0.3394	0.75	0.8396	-0.296
Mof_O 	O 	0.8394	0.75	0.1604	-0.241
Mof_O 	O 	0.3394	0.25	0.1604	-0.296
Mof_O 	O 	0.1606	0.75	0.1604	-0.284
Mof_O 	O 	0.6606	0.25	0.1604	-0.276
_end
