data_functionalizedCrystal
_audit_creation_method	'EQeq! by Chris Wilmer'
_symmetry_space_group_name_H-M	'P1'
_symmetry_Int_Tables_number	1
_symmetry_cell_setting	triclinic
loop_
_symmetry_equiv_pos_as_xyz
  x,y,z
_cell_length_a	12.397
_cell_length_b	15.1947
_cell_length_c	20.9508
_cell_angle_alpha	90.95
_cell_angle_beta	92.997
_cell_angle_gamma	96.049
loop_
_atom_site_label
_atom_site_type_symbol
_atom_site_fract_x
_atom_site_fract_y
_atom_site_fract_z
_atom_site_charge
Mof_Na	Na	0.757	0.7468	0.25056	1.805
Mof_P 	P 	0.50502	0.37183	0.1579	0.553
Mof_P 	P 	0.79805	0.222	0.10682	0.562
Mof_P 	P 	0.56297	0.58756	0.29173	0.575
Mof_P 	P 	0.14188	0.23479	0.1096	0.55
Mof_P 	P 	0.98958	0.13085	0.34428	0.656
Mof_P 	P 	0.67736	0.26175	0.39875	0.564
Mof_P 	P 	0.33706	0.28302	0.39249	0.547
Mof_P 	P 	0.94929	0.91557	0.20587	0.72
Mof_Mo	Mo	0.36236	0.25944	0.03045	0.971
Mof_Mo	Mo	0.9109	0.23815	0.47791	1.359
Mof_Mo	Mo	0.12079	0.24434	0.47359	1.125
Mof_Mo	Mo	0.57046	0.25629	0.0262	1.002
Mof_Mo	Mo	0.24058	0.07174	0.39493	1.029
Mof_Mo	Mo	0.67646	0.56457	0.15285	0.961
Mof_Mo	Mo	0.11837	0.94234	0.33699	1.188
Mof_Mo	Mo	0.39065	0.5683	0.16255	1.124
Mof_Mo	Mo	0.25831	0.44159	0.10757	1.07
Mof_Mo	Mo	0.75197	0.43357	0.09381	1.172
Mof_Mo	Mo	0.83022	0.93212	0.34398	1.788
Mof_Mo	Mo	0.74519	0.05735	0.40196	1.02
Mof_Zn	Zn	0.95967	0.12641	0.1974	1.258
Mof_Zn	Zn	0.51918	0.37671	0.30606	1.244
Mof_O 	O 	0.4628	0.1887	0.0764	-0.504
Mof_O 	O 	0.0124	0.154	0.5047	-1.038
Mof_O 	O 	0.4758	0.3443	0.998	-0.839
Mof_O 	O 	0.0144	0.3125	0.4299	-0.601
Mof_O 	O 	0.377	0.5205	0.0752	-1.052
Mof_O 	O 	0.2059	0.045	0.3039	-0.573
Mof_O 	O 	0.2959	0.4721	0.1981	-0.53
Mof_O 	O 	0.6483	0.5151	0.0666	-1.082
Mof_O 	O 	0.2281	0.3112	0.4135	-0.385
Mof_O 	O 	0.1277	0.9866	0.4254	-0.928
Mof_O 	O 	0.0644	0.2341	0.05	-0.354
Mof_O 	O 	0.2489	0.2002	0.0904	-0.395
Mof_O 	O 	0.6762	0.1686	0.3701	-0.393
Mof_O 	O 	0.3218	0.1889	0.3636	-0.391
Mof_O 	O 	0.0978	0.1571	0.3827	-0.523
Mof_O 	O 	0.8519	0.9796	0.4313	-0.962
Mof_O 	O 	0.5407	0.6348	0.1336	-0.574
Mof_O 	O 	0.7515	0.0284	0.3108	-0.636
Mof_O 	O 	0.8243	0.1731	0.1671	-0.414
Mof_O 	O 	0.6986	0.3567	0.0115	-0.566
Mof_O 	O 	0.7511	0.4653	0.1849	-0.517
Mof_O 	O 	0.7364	0.8453	0.3515	-0.77
Mof_O 	O 	0.509	0.3203	0.2208	-0.41
Mof_O 	O 	0.9856	0.1815	0.2822	-0.392
Mof_O 	O 	0.8965	0.1517	0.386	-0.471
Mof_O 	O 	0.0936	0.1737	0.1597	-0.472
Mof_O 	O 	0.2634	0.3653	0.0231	-0.569
Mof_O 	O 	0.4537	0.5953	0.2538	-0.46
Mof_O 	O 	0.8573	0.8938	0.2518	-0.721
Mof_O 	O 	0.1675	0.329	0.1392	-0.412
Mof_O 	O 	0.0605	0.9188	0.2438	-0.524
Mof_O 	O 	0.6808	0.1944	0.0832	-0.406
Mof_O 	O 	0.8205	0.3213	0.1212	-0.409
Mof_O 	O 	0.4163	0.29	0.4517	-0.261
Mof_O 	O 	0.2284	0.1448	0.4806	-0.497
Mof_O 	O 	0.9786	0.0306	0.3287	-0.584
Mof_O 	O 	0.9437	0.8439	0.1542	-0.386
Mof_O 	O 	0.3943	0.349	0.1219	-0.444
Mof_O 	O 	0.7874	0.1324	0.4873	-0.529
Mof_O 	O 	0.9726	0.8677	0.3637	-0.551
Mof_O 	O 	0.5647	0.4972	0.3225	-0.454
Mof_O 	O 	0.6568	0.6019	0.2459	-0.666
Mof_O 	O 	0.5958	0.3464	0.1158	-0.456
Mof_O 	O 	0.9355	0.0045	0.1752	-0.528
Mof_O 	O 	0.7924	0.2968	0.4232	-0.399
Mof_O 	O 	0.5229	0.4723	0.1723	-0.479
Mof_O 	O 	0.6404	0.3214	0.3459	-0.411
Mof_O 	O 	0.6029	0.2602	0.4557	-0.273
Mof_O 	O 	0.5768	0.6595	0.3436	-0.342
Mof_O 	O 	0.3783	0.3461	0.3413	-0.418
Mof_O 	O 	0.8673	0.1924	0.0525	-0.272
Mof_Na	Na	0.243	0.2532	0.74944	1.75
Mof_P 	P 	0.49498	0.62817	0.8421	0.57
Mof_P 	P 	0.20195	0.778	0.89318	0.566
Mof_P 	P 	0.43703	0.41244	0.70827	0.576
Mof_P 	P 	0.85812	0.76521	0.8904	0.558
Mof_P 	P 	0.01042	0.86915	0.65572	0.511
Mof_P 	P 	0.32264	0.73825	0.60125	0.564
Mof_P 	P 	0.66294	0.71698	0.60751	0.554
Mof_P 	P 	0.05071	0.08443	0.79413	0.449
Mof_Mo	Mo	0.63764	0.74056	0.96955	1.292
Mof_Mo	Mo	0.0891	0.76185	0.52209	0.95
Mof_Mo	Mo	0.87921	0.75566	0.52641	1.23
Mof_Mo	Mo	0.42954	0.74371	0.9738	1.304
Mof_Mo	Mo	0.75942	0.92826	0.60507	1.286
Mof_Mo	Mo	0.32354	0.43543	0.84715	0.984
Mof_Mo	Mo	0.88163	0.05766	0.66301	1.112
Mof_Mo	Mo	0.60935	0.4317	0.83745	1.18
Mof_Mo	Mo	0.74169	0.55841	0.89243	1.203
Mof_Mo	Mo	0.24803	0.56643	0.90619	1.198
Mof_Mo	Mo	0.16978	0.06788	0.65602	1.426
Mof_Mo	Mo	0.25481	0.94265	0.59804	1.304
Mof_Zn	Zn	0.04033	0.87359	0.8026	1.229
Mof_Zn	Zn	0.48082	0.62329	0.69394	1.245
Mof_O 	O 	0.5372	0.8113	0.9236	-0.514
Mof_O 	O 	0.9876	0.846	0.4953	-0.867
Mof_O 	O 	0.5242	0.6557	0.002	-1.132
Mof_O 	O 	0.9856	0.6875	0.5701	-0.436
Mof_O 	O 	0.623	0.4795	0.9248	-0.996
Mof_O 	O 	0.7941	0.955	0.6961	-0.471
Mof_O 	O 	0.7041	0.5279	0.8019	-0.527
Mof_O 	O 	0.3517	0.4849	0.9334	-1.016
Mof_O 	O 	0.7719	0.6888	0.5865	-0.384
Mof_O 	O 	0.8723	0.0134	0.5746	-1.006
Mof_O 	O 	0.9356	0.7659	0.95	-0.204
Mof_O 	O 	0.7511	0.7998	0.9096	-0.371
Mof_O 	O 	0.3238	0.8314	0.6299	-0.412
Mof_O 	O 	0.6782	0.8111	0.6364	-0.406
Mof_O 	O 	0.9022	0.8429	0.6173	-0.41
Mof_O 	O 	0.1481	0.0204	0.5687	-1.096
Mof_O 	O 	0.4593	0.3652	0.8664	-0.547
Mof_O 	O 	0.2485	0.9716	0.6892	-0.529
Mof_O 	O 	0.1757	0.8269	0.8329	-0.412
Mof_O 	O 	0.3014	0.6433	0.9885	-0.509
Mof_O 	O 	0.2489	0.5347	0.8151	-0.541
Mof_O 	O 	0.2636	0.1547	0.6485	-0.726
Mof_O 	O 	0.491	0.6797	0.7792	-0.406
Mof_O 	O 	0.0144	0.8185	0.7178	-0.448
Mof_O 	O 	0.1035	0.8483	0.614	-0.469
Mof_O 	O 	0.9064	0.8263	0.8403	-0.35
Mof_O 	O 	0.7366	0.6347	0.9769	-0.5
Mof_O 	O 	0.5463	0.4047	0.7462	-0.456
Mof_O 	O 	0.1427	0.1062	0.7482	-0.694
Mof_O 	O 	0.8325	0.671	0.8608	-0.386
Mof_O 	O 	0.9395	0.0812	0.7562	-0.384
Mof_O 	O 	0.3192	0.8056	0.9168	-0.393
Mof_O 	O 	0.1795	0.6787	0.8788	-0.442
Mof_O 	O 	0.5837	0.71	0.5483	-0.258
Mof_O 	O 	0.7716	0.8552	0.5194	-0.504
Mof_O 	O 	0.0214	0.9694	0.6713	-0.5
Mof_O 	O 	0.0563	0.1561	0.8458	-0.385
Mof_O 	O 	0.6057	0.651	0.8781	-0.466
Mof_O 	O 	0.2126	0.8676	0.5127	-0.504
Mof_O 	O 	0.0274	0.1323	0.6363	-0.615
Mof_O 	O 	0.4353	0.5028	0.6775	-0.459
Mof_O 	O 	0.3432	0.3981	0.7541	-0.669
Mof_O 	O 	0.4042	0.6536	0.8842	-0.468
Mof_O 	O 	0.0645	0.9955	0.8248	-0.391
Mof_O 	O 	0.2076	0.7032	0.5768	-0.39
Mof_O 	O 	0.4771	0.5277	0.8277	-0.487
Mof_O 	O 	0.3596	0.6786	0.6541	-0.417
Mof_O 	O 	0.3971	0.7398	0.5443	-0.265
Mof_O 	O 	0.4232	0.3405	0.6564	-0.348
Mof_O 	O 	0.6217	0.6539	0.6587	-0.408
Mof_O 	O 	0.1327	0.8076	0.9475	-0.268
Mof_Na	Na	0.5	0.5	-0	3.98
Mof_Na	Na	9.29397e-18	0	0.5	3.601
_end
