data_functionalizedCrystal
_audit_creation_method	'EQeq! by Chris Wilmer'
_symmetry_space_group_name_H-M	'P1'
_symmetry_Int_Tables_number	1
_symmetry_cell_setting	triclinic
loop_
_symmetry_equiv_pos_as_xyz
  x,y,z
_cell_length_a	19.65
_cell_length_b	19.65
_cell_length_c	7.656
_cell_angle_alpha	90
_cell_angle_beta	90
_cell_angle_gamma	120
loop_
_atom_site_label
_atom_site_type_symbol
_atom_site_fract_x
_atom_site_fract_y
_atom_site_fract_z
_atom_site_charge
Mof_N 	N 	0.5549	0.2976	0.5248	-0.144
Mof_N 	N 	0.4368	0.2336	0.6382	-0.123
Mof_N 	N 	0.2299	0.0941	0.717	-0.116
Mof_N 	N 	0.1118	0.033	0.827	-0.152
Mof_N 	N 	0.6289	0.4085	0.1784	-0.141
Mof_N 	N 	0.5718	0.4743	0.0917	-0.121
Mof_C 	C 	0.4877	0.2324	0.5195	0.085
Mof_H 	H 	0.4762	0.1906	0.4449	0.004
Mof_C 	C 	0.5467	0.3405	0.6539	0.007
Mof_H 	H 	0.5859	0.3902	0.6886	0.033
Mof_C 	C 	0.4746	0.302	0.7245	-0.004
Mof_H 	H 	0.455	0.3191	0.8145	0.032
Mof_C 	C 	0.1903	0.0259	0.6283	-0.025
Mof_H 	H 	0.209	0.008	0.5381	0.036
Mof_C 	C 	0.118	0.9895	0.6987	0.031
Mof_H 	H 	0.0774	0.9406	0.6634	0.024
Mof_C 	C 	0.1791	0.0952	0.8342	0.091
Mof_H 	H 	0.1917	0.1365	0.9112	0.005
Mof_C 	C 	0.5669	0.4164	0.1951	0.083
Mof_H 	H 	0.5248	0.386	0.2688	0.005
Mof_C 	C 	0.6751	0.4622	0.0544	-0.01
Mof_H 	H 	0.7232	0.4699	0.0149	0.036
Mof_C 	C 	0.6401	0.5022	0.9987	0.011
Mof_H 	H 	0.6587	0.5412	0.9135	0.027
Mof_C 	C 	0.5176	0.5045	0.0886	-0.069
Mof_H 	H 	0.5454	0.5596	0.1209	0.054
Mof_H 	H 	0.4762	0.4763	0.1735	0.053
Mof_C 	C 	0.3195	0.1328	0.7422	-0.037
Mof_H 	H 	0.3354	0.1553	0.8579	0.033
Mof_H 	H 	0.3377	0.0959	0.7217	0.032
Mof_C 	C 	0.3476	0.1939	0.6068	-0.011
Mof_H 	H 	0.3282	0.23	0.6251	0.02
Mof_H 	H 	0.3333	0.1714	0.4906	0.018
Mof_C 	C 	0.2995	0.1673	0.6422	-0.044
Mof_H 	H 	0.298	0.1674	0.5155	0.034
Mof_H 	H 	0.3015	0.2146	0.6858	0.033
Mof_C 	C 	0.3676	0.1599	0.7085	-0.016
Mof_H 	H 	0.3683	0.1585	0.8351	0.02
Mof_H 	H 	0.3662	0.1132	0.6627	0.018
Mof_N 	N 	0.7024	0.2573	0.5248	-0.144
Mof_N 	N 	0.7664	0.2032	0.6382	-0.119
Mof_N 	N 	0.9059	0.1358	0.717	-0.124
Mof_N 	N 	0.967	0.0788	0.827	-0.14
Mof_N 	N 	0.5915	0.2204	0.1784	-0.141
Mof_N 	N 	0.5257	0.0975	0.0917	-0.114
Mof_C 	C 	0.7676	0.2553	0.5195	0.084
Mof_H 	H 	0.8094	0.2856	0.4449	0.006
Mof_C 	C 	0.6595	0.2062	0.6539	0.008
Mof_H 	H 	0.6098	0.1957	0.6886	0.032
Mof_C 	C 	0.698	0.1726	0.7245	-0.006
Mof_H 	H 	0.6809	0.1359	0.8145	0.033
Mof_C 	C 	0.9741	0.1644	0.6283	0.006
Mof_H 	H 	0.992	0.201	0.5381	0.029
Mof_C 	C 	0.0105	0.1285	0.6987	-0.008
Mof_H 	H 	0.0594	0.1368	0.6634	0.036
Mof_C 	C 	0.9048	0.0839	0.8342	0.093
Mof_H 	H 	0.8635	0.0552	0.9112	0.003
Mof_C 	C 	0.5836	0.1505	0.1951	0.08
Mof_H 	H 	0.614	0.1388	0.2688	0.006
Mof_C 	C 	0.5378	0.2129	0.0544	-0.009
Mof_H 	H 	0.5301	0.2533	0.0149	0.035
Mof_C 	C 	0.4978	0.1379	0.9987	0.008
Mof_H 	H 	0.4588	0.1175	0.9135	0.028
Mof_C 	C 	0.4955	0.0131	0.0886	-0.119
Mof_H 	H 	0.4404	0.9858	0.1209	0.072
Mof_H 	H 	0.5237	0.9999	0.1735	0.071
Mof_C 	C 	0.8672	0.1867	0.7422	-0.022
Mof_H 	H 	0.8447	0.1801	0.8579	0.026
Mof_H 	H 	0.9041	0.2418	0.7217	0.027
Mof_C 	C 	0.8061	0.1537	0.6068	-0.026
Mof_H 	H 	0.77	0.0982	0.6251	0.026
Mof_H 	H 	0.8286	0.1619	0.4906	0.026
Mof_C 	C 	0.8327	0.1322	0.6422	-0.029
Mof_H 	H 	0.8326	0.1306	0.5155	0.026
Mof_H 	H 	0.7854	0.0869	0.6858	0.024
Mof_C 	C 	0.8401	0.2077	0.7085	-0.03
Mof_H 	H 	0.8415	0.2098	0.8351	0.027
Mof_H 	H 	0.8868	0.253	0.6627	0.026
Mof_N 	N 	0.7427	0.4451	0.5248	-0.144
Mof_N 	N 	0.7968	0.5632	0.6382	-0.122
Mof_N 	N 	0.8642	0.7701	0.717	-0.119
Mof_N 	N 	0.9212	0.8882	0.827	-0.144
Mof_N 	N 	0.7796	0.3711	0.1784	-0.142
Mof_N 	N 	0.9025	0.4282	0.0917	-0.129
Mof_C 	C 	0.7447	0.5123	0.5195	0.085
Mof_H 	H 	0.7144	0.5238	0.4449	0.005
Mof_C 	C 	0.7938	0.4533	0.6539	0.007
Mof_H 	H 	0.8043	0.4141	0.6886	0.033
Mof_C 	C 	0.8274	0.5254	0.7245	-0.005
Mof_H 	H 	0.8641	0.545	0.8145	0.032
Mof_C 	C 	0.8356	0.8097	0.6283	-0.009
Mof_H 	H 	0.799	0.791	0.5381	0.033
Mof_C 	C 	0.8715	0.882	0.6987	0.012
Mof_H 	H 	0.8632	0.9226	0.6634	0.032
Mof_C 	C 	0.9161	0.8209	0.8342	0.093
Mof_H 	H 	0.9448	0.8083	0.9112	0.006
Mof_C 	C 	0.8495	0.4331	0.1951	0.086
Mof_H 	H 	0.8612	0.4752	0.2688	0.005
Mof_C 	C 	0.7871	0.3249	0.0544	-0.01
Mof_H 	H 	0.7467	0.2768	0.0149	0.036
Mof_C 	C 	0.8621	0.3599	0.9987	0.013
Mof_H 	H 	0.8825	0.3413	0.9135	0.026
Mof_C 	C 	0.9869	0.4824	0.0886	-0.013
Mof_H 	H 	0.0142	0.4546	0.1209	0.033
Mof_H 	H 	0.0001	0.5238	0.1735	0.032
Mof_C 	C 	0.8133	0.6805	0.7422	-0.031
Mof_H 	H 	0.8199	0.6646	0.8579	0.031
Mof_H 	H 	0.7582	0.6623	0.7217	0.03
Mof_C 	C 	0.8463	0.6524	0.6068	-0.017
Mof_H 	H 	0.9018	0.6718	0.6251	0.023
Mof_H 	H 	0.8381	0.6667	0.4906	0.021
Mof_C 	C 	0.8678	0.7005	0.6422	-0.039
Mof_H 	H 	0.8694	0.702	0.5155	0.032
Mof_H 	H 	0.9131	0.6985	0.6858	0.031
Mof_C 	C 	0.7923	0.6324	0.7085	-0.02
Mof_H 	H 	0.7902	0.6317	0.8351	0.022
Mof_H 	H 	0.747	0.6338	0.6627	0.021
Mof_N 	N 	0.4451	0.7024	0.4752	-0.144
Mof_N 	N 	0.5632	0.7664	0.3618	-0.118
Mof_N 	N 	0.7701	0.9059	0.283	-0.125
Mof_N 	N 	0.8882	0.967	0.173	-0.142
Mof_N 	N 	0.3711	0.5915	0.8216	-0.145
Mof_N 	N 	0.4282	0.5257	0.9083	-0.113
Mof_C 	C 	0.5123	0.7676	0.4805	0.083
Mof_H 	H 	0.5238	0.8094	0.5551	0.006
Mof_C 	C 	0.4533	0.6595	0.3461	0.007
Mof_H 	H 	0.4141	0.6098	0.3114	0.031
Mof_C 	C 	0.5254	0.698	0.2755	-0.007
Mof_H 	H 	0.545	0.6809	0.1855	0.031
Mof_C 	C 	0.8097	0.9741	0.3717	0.003
Mof_H 	H 	0.791	0.992	0.4619	0.03
Mof_C 	C 	0.882	0.0105	0.3013	-0.005
Mof_H 	H 	0.9226	0.0594	0.3366	0.036
Mof_C 	C 	0.8209	0.9048	0.1658	0.093
Mof_H 	H 	0.8083	0.8635	0.0888	0.001
Mof_C 	C 	0.4331	0.5836	0.8049	0.085
Mof_H 	H 	0.4752	0.614	0.7312	0.005
Mof_C 	C 	0.3249	0.5378	0.9456	0.021
Mof_H 	H 	0.2768	0.5301	0.9851	0.03
Mof_C 	C 	0.3599	0.4978	0.0013	-0.028
Mof_H 	H 	0.3413	0.4588	0.0865	0.038
Mof_C 	C 	0.4824	0.4955	0.9114	-0.051
Mof_H 	H 	0.4546	0.4404	0.8791	0.051
Mof_H 	H 	0.5238	0.5237	0.8265	0.049
Mof_C 	C 	0.6805	0.8672	0.2578	-0.015
Mof_H 	H 	0.6646	0.8447	0.1421	0.021
Mof_H 	H 	0.6623	0.9041	0.2783	0.022
Mof_C 	C 	0.6524	0.8061	0.3932	-0.033
Mof_H 	H 	0.6718	0.77	0.3749	0.031
Mof_H 	H 	0.6667	0.8286	0.5094	0.029
Mof_C 	C 	0.7005	0.8327	0.3578	-0.024
Mof_H 	H 	0.702	0.8326	0.4845	0.025
Mof_H 	H 	0.6985	0.7854	0.3142	0.021
Mof_C 	C 	0.6324	0.8401	0.2915	-0.034
Mof_H 	H 	0.6317	0.8415	0.1649	0.028
Mof_H 	H 	0.6338	0.8868	0.3373	0.029
Mof_N 	N 	0.2976	0.7427	0.4752	-0.144
Mof_N 	N 	0.2336	0.7968	0.3618	-0.121
Mof_N 	N 	0.0941	0.8642	0.283	-0.118
Mof_N 	N 	0.033	0.9212	0.173	-0.152
Mof_N 	N 	0.4085	0.7796	0.8216	-0.146
Mof_N 	N 	0.4743	0.9025	0.9083	-0.12
Mof_C 	C 	0.2324	0.7447	0.4805	0.084
Mof_H 	H 	0.1906	0.7144	0.5551	0.005
Mof_C 	C 	0.3405	0.7938	0.3461	0.006
Mof_H 	H 	0.3902	0.8043	0.3114	0.031
Mof_C 	C 	0.302	0.8274	0.2755	-0.005
Mof_H 	H 	0.3191	0.8641	0.1855	0.03
Mof_C 	C 	0.0259	0.8356	0.3717	-0.024
Mof_H 	H 	0.008	0.799	0.4619	0.036
Mof_C 	C 	0.9895	0.8715	0.3013	0.029
Mof_H 	H 	0.9406	0.8632	0.3366	0.026
Mof_C 	C 	0.0952	0.9161	0.1658	0.091
Mof_H 	H 	0.1365	0.9448	0.0888	0.002
Mof_C 	C 	0.4164	0.8495	0.8049	0.088
Mof_H 	H 	0.386	0.8612	0.7312	0.005
Mof_C 	C 	0.4622	0.7871	0.9456	0.019
Mof_H 	H 	0.4699	0.7467	0.9851	0.03
Mof_C 	C 	0.5022	0.8621	0.0013	-0.024
Mof_H 	H 	0.5412	0.8825	0.0865	0.036
Mof_C 	C 	0.5045	0.9869	0.9114	-0.001
Mof_H 	H 	0.5596	0.0142	0.8791	0.033
Mof_H 	H 	0.4763	0.0001	0.8265	0.031
Mof_C 	C 	0.1328	0.8133	0.2578	-0.027
Mof_H 	H 	0.1553	0.8199	0.1421	0.027
Mof_H 	H 	0.0959	0.7582	0.2783	0.027
Mof_C 	C 	0.1939	0.8463	0.3932	-0.021
Mof_H 	H 	0.23	0.9018	0.3749	0.025
Mof_H 	H 	0.1714	0.8381	0.5094	0.023
Mof_C 	C 	0.1673	0.8678	0.3578	-0.037
Mof_H 	H 	0.1674	0.8694	0.4845	0.031
Mof_H 	H 	0.2146	0.9131	0.3142	0.028
Mof_C 	C 	0.1599	0.7923	0.2915	-0.022
Mof_H 	H 	0.1585	0.7902	0.1649	0.022
Mof_H 	H 	0.1132	0.747	0.3373	0.022
Mof_N 	N 	0.2573	0.5549	0.4752	-0.144
Mof_N 	N 	0.2032	0.4368	0.3618	-0.119
Mof_N 	N 	0.1358	0.2299	0.283	-0.123
Mof_N 	N 	0.0788	0.1118	0.173	-0.15
Mof_N 	N 	0.2204	0.6289	0.8216	-0.145
Mof_N 	N 	0.0975	0.5718	0.9083	-0.105
Mof_C 	C 	0.2553	0.4877	0.4805	0.083
Mof_H 	H 	0.2856	0.4762	0.5551	0.006
Mof_C 	C 	0.2062	0.5467	0.3461	0.006
Mof_H 	H 	0.1957	0.5859	0.3114	0.031
Mof_C 	C 	0.1726	0.4746	0.2755	-0.007
Mof_H 	H 	0.1359	0.455	0.1855	0.031
Mof_C 	C 	0.1644	0.1903	0.3717	-0.01
Mof_H 	H 	0.201	0.209	0.4619	0.032
Mof_C 	C 	0.1285	0.118	0.3013	0.01
Mof_H 	H 	0.1368	0.0774	0.3366	0.029
Mof_C 	C 	0.0839	0.1791	0.1658	0.091
Mof_H 	H 	0.0552	0.1917	0.0888	-0.001
Mof_C 	C 	0.1505	0.5669	0.8049	0.082
Mof_H 	H 	0.1388	0.5248	0.7312	0.006
Mof_C 	C 	0.2129	0.6751	0.9456	0.024
Mof_H 	H 	0.2533	0.7232	0.9851	0.029
Mof_C 	C 	0.1379	0.6401	0.0013	-0.032
Mof_H 	H 	0.1175	0.6587	0.0865	0.039
Mof_C 	C 	0.0131	0.5176	0.9114	-0.104
Mof_H 	H 	0.9858	0.5454	0.8791	0.07
Mof_H 	H 	0.9999	0.4762	0.8265	0.068
Mof_C 	C 	0.1867	0.3195	0.2578	-0.019
Mof_H 	H 	0.1801	0.3354	0.1421	0.022
Mof_H 	H 	0.2418	0.3377	0.2783	0.023
Mof_C 	C 	0.1537	0.3476	0.3932	-0.03
Mof_H 	H 	0.0982	0.3282	0.3749	0.029
Mof_H 	H 	0.1619	0.3333	0.5094	0.028
Mof_C 	C 	0.1322	0.2995	0.3578	-0.027
Mof_H 	H 	0.1306	0.298	0.4845	0.025
Mof_H 	H 	0.0869	0.3015	0.3142	0.022
Mof_C 	C 	0.2077	0.3676	0.2915	-0.032
Mof_H 	H 	0.2098	0.3683	0.1649	0.027
Mof_H 	H 	0.253	0.3662	0.3373	0.027
Mof_Cd	Cd	0.66667	0.33333	0.35049	0.374
Mof_Cd	Cd	0.33333	0.66667	0.64951	0.375
Mof_Cd	Cd	-0	0	-0	0.357
_end
