data_functionalizedCrystal
_audit_creation_method	'EQeq! by Chris Wilmer'
_symmetry_space_group_name_H-M	'P1'
_symmetry_Int_Tables_number	1
_symmetry_cell_setting	triclinic
loop_
_symmetry_equiv_pos_as_xyz
  x,y,z
_cell_length_a	10.946
_cell_length_b	15.847
_cell_length_c	23.705
_cell_angle_alpha	90
_cell_angle_beta	90
_cell_angle_gamma	90
loop_
_atom_site_label
_atom_site_type_symbol
_atom_site_fract_x
_atom_site_fract_y
_atom_site_fract_z
_atom_site_charge
Mof_Cd	Cd	0.2308	0.25922	0.63169	0.301
Mof_Cd	Cd	0.7692	0.24078	0.13169	0.304
Mof_Cd	Cd	0.2308	0.24078	0.86831	0.304
Mof_Cd	Cd	0.7692	0.25922	0.36831	0.306
Mof_Cd	Cd	0.7692	0.74078	0.36831	0.309
Mof_Cd	Cd	0.2308	0.75922	0.86831	0.308
Mof_Cd	Cd	0.7692	0.75922	0.13169	0.308
Mof_Cd	Cd	0.2308	0.74078	0.63169	0.304
Mof_Cd	Cd	0.5	0.5	0.5	0.377
Mof_Cd	Cd	0.5	0	-0	0.338
Mof_Cd	Cd	4.05991e-33	0	0.5	0.34
Mof_Cd	Cd	-0	0.5	-0	0.343
Mof_Cd	Cd	0.5823	0	0.63541	0.272
Mof_Cd	Cd	0.4177	0.5	0.13541	0.291
Mof_Cd	Cd	0.5823	0.5	0.86459	0.294
Mof_Cd	Cd	0.4177	0	0.36459	0.271
Mof_Cd	Cd	0.86136	0.5	0.66795	0.273
Mof_Cd	Cd	0.13864	-3.06957e-33	0.16795	0.255
Mof_Cd	Cd	0.86136	0	0.83205	0.256
Mof_Cd	Cd	0.13864	0.5	0.33205	0.275
Mof_C 	C 	0.2509	0.2514	0.7269	-0.056
Mof_C 	C 	0.3338	0.3565	0.583	-0.008
Mof_C 	C 	0.4763	0.1128	0.6288	-0.016
Mof_C 	C 	0.9791	0.3874	0.6595	0.02
Mof_C 	C 	0.1277	0.1611	0.5854	-0.017
Mof_C 	C 	0.7491	0.2486	0.2269	-0.051
Mof_C 	C 	0.6662	0.1435	0.083	-0.013
Mof_C 	C 	0.5237	0.3872	0.1288	-0.013
Mof_C 	C 	0.0209	0.1126	0.1595	-0.026
Mof_C 	C 	0.8723	0.3389	0.0854	-0.009
Mof_C 	C 	0.2509	0.2486	0.7731	-0.056
Mof_C 	C 	0.3338	0.1435	0.917	-0.007
Mof_C 	C 	0.4763	0.3872	0.8712	-0.01
Mof_C 	C 	0.9791	0.1126	0.8405	0.017
Mof_C 	C 	0.1277	0.3389	0.9146	-0.009
Mof_C 	C 	0.7491	0.2514	0.2731	-0.052
Mof_C 	C 	0.6662	0.3565	0.417	-0.005
Mof_C 	C 	0.5237	0.1128	0.3712	-0.015
Mof_C 	C 	0.0209	0.3874	0.3405	-0.02
Mof_C 	C 	0.8723	0.1611	0.4146	-0.007
Mof_C 	C 	0.7491	0.7486	0.2731	-0.048
Mof_C 	C 	0.6662	0.6435	0.417	-0.004
Mof_C 	C 	0.5237	0.8872	0.3712	0.013
Mof_C 	C 	0.0209	0.6126	0.3405	-0.02
Mof_C 	C 	0.8723	0.8389	0.4146	0
Mof_C 	C 	0.2509	0.7514	0.7731	-0.053
Mof_C 	C 	0.3338	0.8565	0.917	0.003
Mof_C 	C 	0.4763	0.6128	0.8712	-0.01
Mof_C 	C 	0.9791	0.8874	0.8405	0.042
Mof_C 	C 	0.1277	0.6611	0.9146	-0.008
Mof_C 	C 	0.7491	0.7514	0.2269	-0.048
Mof_C 	C 	0.6662	0.8565	0.083	-0.002
Mof_C 	C 	0.5237	0.6128	0.1288	-0.013
Mof_C 	C 	0.0209	0.8874	0.1595	0.003
Mof_C 	C 	0.8723	0.6611	0.0854	-0.008
Mof_C 	C 	0.2509	0.7486	0.7269	-0.052
Mof_C 	C 	0.3338	0.6435	0.583	-0.008
Mof_C 	C 	0.4763	0.8872	0.6288	0.012
Mof_C 	C 	0.9791	0.6126	0.6595	0.019
Mof_C 	C 	0.1277	0.8389	0.5854	-0.009
Mof_C 	C 	0.739	-1.22783e-32	0.577	-0.008
Mof_C 	C 	0.261	0.5	0.077	-0.002
Mof_C 	C 	0.739	0.5	0.923	0.005
Mof_C 	C 	0.261	0	0.423	-0.01
Mof_C 	C 	0.723	0.5	0.6014	-0.005
Mof_C 	C 	0.753	0.5	0.7413	-0.018
Mof_C 	C 	0.277	-1.53479e-33	0.1014	-0.02
Mof_C 	C 	0.247	0	0.2413	-0.03
Mof_C 	C 	0.723	-1.22783e-32	0.8986	-0.014
Mof_C 	C 	0.753	-1.22783e-32	0.7587	-0.028
Mof_C 	C 	0.277	0.5	0.3986	-0.007
Mof_C 	C 	0.247	0.5	0.2587	-0.02
Mof_N 	N 	0.3939	0.3985	0.5551	-0.134
Mof_N 	N 	0.4148	0.1705	0.6266	-0.135
Mof_N 	N 	0.0506	0.3394	0.6527	-0.156
Mof_N 	N 	0.0811	0.1086	0.559	-0.136
Mof_N 	N 	0.6061	0.1015	0.0551	-0.138
Mof_N 	N 	0.5852	0.3295	0.1266	-0.135
Mof_N 	N 	0.9494	0.1606	0.1527	-0.125
Mof_N 	N 	0.9189	0.3914	0.059	-0.129
Mof_N 	N 	0.3939	0.1015	0.9449	-0.129
Mof_N 	N 	0.4148	0.3295	0.8734	-0.133
Mof_N 	N 	0.0506	0.1606	0.8473	-0.156
Mof_N 	N 	0.0811	0.3914	0.941	-0.128
Mof_N 	N 	0.6061	0.3985	0.4449	-0.134
Mof_N 	N 	0.5852	0.1705	0.3734	-0.135
Mof_N 	N 	0.9494	0.3394	0.3473	-0.125
Mof_N 	N 	0.9189	0.1086	0.441	-0.128
Mof_N 	N 	0.6061	0.6015	0.4449	-0.134
Mof_N 	N 	0.5852	0.8295	0.3734	-0.137
Mof_N 	N 	0.9494	0.6606	0.3473	-0.125
Mof_N 	N 	0.9189	0.8914	0.441	-0.116
Mof_N 	N 	0.3939	0.8985	0.9449	-0.118
Mof_N 	N 	0.4148	0.6705	0.8734	-0.133
Mof_N 	N 	0.0506	0.8394	0.8473	-0.156
Mof_N 	N 	0.0811	0.6086	0.941	-0.128
Mof_N 	N 	0.6061	0.8985	0.0551	-0.125
Mof_N 	N 	0.5852	0.6705	0.1266	-0.135
Mof_N 	N 	0.9494	0.8394	0.1527	-0.128
Mof_N 	N 	0.9189	0.6086	0.059	-0.129
Mof_N 	N 	0.3939	0.6015	0.5551	-0.134
Mof_N 	N 	0.4148	0.8295	0.6266	-0.137
Mof_N 	N 	0.0506	0.6606	0.6527	-0.155
Mof_N 	N 	0.0811	0.8914	0.559	-0.124
Mof_N 	N 	0.822	-6.13915e-33	0.55	-0.138
Mof_N 	N 	0.178	0.5	0.05	-0.141
Mof_N 	N 	0.822	0.5	0.95	-0.128
Mof_N 	N 	0.178	0	0.45	-0.144
Mof_N 	N 	0.653	0.5	0.5652	-0.135
Mof_N 	N 	0.691	0.5	0.7816	-0.135
Mof_N 	N 	0.347	-7.67393e-34	0.0652	-0.142
Mof_N 	N 	0.309	0	0.2816	-0.139
Mof_N 	N 	0.653	-1.22783e-32	0.9348	-0.134
Mof_N 	N 	0.691	0	0.7184	-0.139
Mof_N 	N 	0.347	0.5	0.4348	-0.136
Mof_N 	N 	0.309	0.5	0.2184	-0.135
Mof_H 	H 	0.8736	0.1733	0.6116	0.025
Mof_H 	H 	0.8794	0.1754	0.7089	0.071
Mof_H 	H 	0.5783	0.3212	0.7087	0.073
Mof_H 	H 	0.5972	0.3256	0.6123	0.022
Mof_H 	H 	0.7106	0.2963	0.5263	0.145
Mof_H 	H 	0.6532	0.2058	0.5299	0.141
Mof_H 	H 	0.7954	0.2165	0.5266	0.145
Mof_H 	H 	0.8736	0.3267	0.8884	0.027
Mof_H 	H 	0.8794	0.3246	0.7911	0.071
Mof_H 	H 	0.5783	0.1788	0.7913	0.071
Mof_H 	H 	0.5972	0.1744	0.8877	0.023
Mof_H 	H 	0.7106	0.2037	0.9737	0.155
Mof_H 	H 	0.6532	0.2942	0.9701	0.152
Mof_H 	H 	0.7954	0.2835	0.9734	0.155
Mof_C 	C 	0.814	0.2027	0.6312	0.045
Mof_C 	C 	0.8182	0.2039	0.6891	-0.114
Mof_C 	C 	0.7294	0.2494	0.7183	0.047
Mof_C 	C 	0.641	0.2928	0.6896	-0.124
Mof_C 	C 	0.651	0.2909	0.6321	0.052
Mof_C 	C 	0.721	0.2403	0.541	-0.369
Mof_C 	C 	0.814	0.2973	0.8688	0.044
Mof_C 	C 	0.8182	0.2961	0.8109	-0.113
Mof_C 	C 	0.7294	0.2506	0.7817	0.045
Mof_C 	C 	0.641	0.2072	0.8104	-0.122
Mof_C 	C 	0.651	0.2091	0.8679	0.05
Mof_C 	C 	0.721	0.2597	0.959	-0.387
Mof_N 	N 	0.7277	0.2437	0.6037	-0.088
Mof_N 	N 	0.7277	0.2563	0.8963	-0.084
Mof_H 	H 	0.1264	0.3267	0.1116	0.018
Mof_H 	H 	0.1206	0.3246	0.2089	0.067
Mof_H 	H 	0.4217	0.1788	0.2087	0.072
Mof_H 	H 	0.4028	0.1744	0.1123	0.02
Mof_H 	H 	0.2894	0.2037	0.0263	0.132
Mof_H 	H 	0.3468	0.2942	0.0299	0.131
Mof_H 	H 	0.2046	0.2835	0.0266	0.13
Mof_H 	H 	0.1264	0.1733	0.3884	0.018
Mof_H 	H 	0.1206	0.1754	0.2911	0.066
Mof_H 	H 	0.4217	0.3212	0.2913	0.073
Mof_H 	H 	0.4028	0.3256	0.3877	0.022
Mof_H 	H 	0.2894	0.2963	0.4737	0.142
Mof_H 	H 	0.3468	0.2058	0.4701	0.139
Mof_H 	H 	0.2046	0.2165	0.4734	0.14
Mof_C 	C 	0.186	0.2973	0.1312	0.046
Mof_C 	C 	0.1818	0.2961	0.1891	-0.117
Mof_C 	C 	0.2706	0.2506	0.2183	0.047
Mof_C 	C 	0.359	0.2072	0.1896	-0.124
Mof_C 	C 	0.349	0.2091	0.1321	0.053
Mof_C 	C 	0.279	0.2597	0.041	-0.349
Mof_C 	C 	0.186	0.2027	0.3688	0.045
Mof_C 	C 	0.1818	0.2039	0.3109	-0.116
Mof_C 	C 	0.2706	0.2494	0.2817	0.046
Mof_C 	C 	0.359	0.2928	0.3104	-0.124
Mof_C 	C 	0.349	0.2909	0.3679	0.052
Mof_C 	C 	0.279	0.2403	0.459	-0.364
Mof_N 	N 	0.2723	0.2563	0.1037	-0.092
Mof_N 	N 	0.2723	0.2437	0.3963	-0.089
Mof_H 	H 	0.1264	0.8267	0.3884	0.023
Mof_H 	H 	0.1206	0.8246	0.2911	0.072
Mof_H 	H 	0.4217	0.6788	0.2913	0.074
Mof_H 	H 	0.4028	0.6744	0.3877	0.022
Mof_H 	H 	0.2894	0.7037	0.4737	0.144
Mof_H 	H 	0.3468	0.7942	0.4701	0.146
Mof_H 	H 	0.2046	0.7835	0.4734	0.144
Mof_H 	H 	0.1264	0.6733	0.1116	0.018
Mof_H 	H 	0.1206	0.6754	0.2089	0.068
Mof_H 	H 	0.4217	0.8212	0.2087	0.078
Mof_H 	H 	0.4028	0.8256	0.1123	0.025
Mof_H 	H 	0.2894	0.7963	0.0263	0.138
Mof_H 	H 	0.3468	0.7058	0.0299	0.132
Mof_H 	H 	0.2046	0.7165	0.0266	0.133
Mof_C 	C 	0.186	0.7973	0.3688	0.048
Mof_C 	C 	0.1818	0.7961	0.3109	-0.114
Mof_C 	C 	0.2706	0.7506	0.2817	0.048
Mof_C 	C 	0.359	0.7072	0.3104	-0.123
Mof_C 	C 	0.349	0.7091	0.3679	0.053
Mof_C 	C 	0.279	0.7597	0.459	-0.37
Mof_C 	C 	0.186	0.7027	0.1312	0.047
Mof_C 	C 	0.1818	0.7039	0.1891	-0.117
Mof_C 	C 	0.2706	0.7494	0.2183	0.048
Mof_C 	C 	0.359	0.7928	0.1896	-0.122
Mof_C 	C 	0.349	0.7909	0.1321	0.055
Mof_C 	C 	0.279	0.7403	0.041	-0.354
Mof_N 	N 	0.2723	0.7563	0.3963	-0.087
Mof_N 	N 	0.2723	0.7437	0.1037	-0.09
Mof_H 	H 	0.8736	0.6733	0.8884	0.027
Mof_H 	H 	0.8794	0.6754	0.7911	0.071
Mof_H 	H 	0.5783	0.8212	0.7913	0.077
Mof_H 	H 	0.5972	0.8256	0.8877	0.028
Mof_H 	H 	0.7106	0.7963	0.9737	0.161
Mof_H 	H 	0.6532	0.7058	0.9701	0.153
Mof_H 	H 	0.7954	0.7165	0.9734	0.157
Mof_H 	H 	0.8736	0.8267	0.6116	0.03
Mof_H 	H 	0.8794	0.8246	0.7089	0.076
Mof_H 	H 	0.5783	0.6788	0.7087	0.073
Mof_H 	H 	0.5972	0.6744	0.6123	0.022
Mof_H 	H 	0.7106	0.7037	0.5263	0.147
Mof_H 	H 	0.6532	0.7942	0.5299	0.147
Mof_H 	H 	0.7954	0.7835	0.5266	0.149
Mof_C 	C 	0.814	0.7027	0.8688	0.045
Mof_C 	C 	0.8182	0.7039	0.8109	-0.113
Mof_C 	C 	0.7294	0.7494	0.7817	0.047
Mof_C 	C 	0.641	0.7928	0.8104	-0.12
Mof_C 	C 	0.651	0.7909	0.8679	0.052
Mof_C 	C 	0.721	0.7403	0.959	-0.391
Mof_C 	C 	0.814	0.7973	0.6312	0.048
Mof_C 	C 	0.8182	0.7961	0.6891	-0.113
Mof_C 	C 	0.7294	0.7506	0.7183	0.049
Mof_C 	C 	0.641	0.7072	0.6896	-0.124
Mof_C 	C 	0.651	0.7091	0.6321	0.053
Mof_C 	C 	0.721	0.7597	0.541	-0.375
Mof_N 	N 	0.7277	0.7437	0.8963	-0.083
Mof_N 	N 	0.7277	0.7563	0.6037	-0.086
_end
