# CIF file generated by openbabel 3.1.0, see https://openbabel.org
data_I
_chemical_name_common 'image0'
_cell_length_a 20.467
_cell_length_b 20.467
_cell_length_c 34.344
_cell_angle_alpha 90
_cell_angle_beta 90
_cell_angle_gamma 90
_space_group_name_H-M_alt 'P 1'
_space_group_name_Hall 'P 1'
loop_
    _symmetry_equiv_pos_as_xyz
    x,y,z
loop_
    _atom_site_label
    _atom_site_type_symbol
    _atom_site_fract_x
    _atom_site_fract_y
    _atom_site_fract_z
    _atom_site_occupancy
    Mn1      Mn       0.31852    0.13038    0.19785    1.000
    Mn2      Mn       0.11302    0.31028    0.21380    1.000
    Cu1      Cu       0.31323    0.97107    0.92029    1.000
    Cu2      Cu       0.45192    0.17063    0.06390    1.000
    C1       C        0.34480    0.05130    0.03046    1.000
    H1       H        0.38820    0.03810    0.03160    1.000
    C2       C        0.30140    0.02190    0.00379    1.000
    C3       C        0.23720    0.04350    0.00110    1.000
    H2       H        0.20960    0.02580    0.98240    1.000
    C4       C        0.21440    0.09110    0.02598    1.000
    H3       H        0.17110    0.10440    0.02440    1.000
    C5       C        0.25560    0.11960    0.05362    1.000
    H4       H        0.23950    0.15080    0.07080    1.000
    C6       C        0.32190    0.10050    0.05521    1.000
    C7       C        0.35600    0.92360    0.99052    1.000
    C8       C        0.37310    0.87190    0.96085    1.000
    C9       C        0.35820    0.13630    0.11685    1.000
    C10      C        0.41640    0.16300    0.13996    1.000
    C11      C        0.38800    0.11850    0.95411    1.000
    H5       H        0.41830    0.08480    0.95220    1.000
    C12      C        0.33200    0.11860    0.93008    1.000
    C13      C        0.28860    0.16970    0.93377    1.000
    H6       H        0.25130    0.17000    0.91820    1.000
    C14      C        0.29830    0.22000    0.95954    1.000
    H7       H        0.26840    0.25420    0.96090    1.000
    C15      C        0.35410    0.21950    0.98401    1.000
    H8       H        0.36100    0.25270    0.00200    1.000
    C16      C        0.39760    0.16880    0.98045    1.000
    C17      C        0.31540    0.07350    0.86717    1.000
    C18      C        0.30680    0.00950    0.84457    1.000
    C19      C        0.51160    0.16630    0.99147    1.000
    C20      C        0.56620    0.16470    0.02265    1.000
    C21      C        0.18930    0.18980    0.21311    1.000
    C22      C        0.24020    0.24750    0.21238    1.000
    N1       N        0.32400    0.97320    0.97749    1.000
    N2       N        0.36740    0.13190    0.07976    1.000
    N3       N        0.32120    0.06450    0.90514    1.000
    N4       N        0.45240    0.16700    0.00616    1.000
    O1       O        0.62277    0.16160    0.01049    1.000
    O2       O        0.52798    0.16950    0.95693    1.000
    O3       O        0.54940    0.16770    0.05775    1.000
    O4       O        0.21230    0.13348    0.20900    1.000
    O5       O        0.29850    0.23326    0.20693    1.000
    O6       O        0.21930    0.30298    0.22000    1.000
    O7       O        0.13080    0.20500    0.21551    1.000
    O8       O        0.46530    0.18150    0.12044    1.000
    O9       O        0.39840    0.81979    0.97236    1.000
    O10      O        0.37190    0.91179    0.02624    1.000
    O11      O        0.31761    0.12606    0.84874    1.000
    O12      O        0.30160    0.01380    0.80855    1.000
    O13      O        0.30550    0.95690    0.86371    1.000
    O14      O        0.35700    0.88200    0.92567    1.000
    O15      O        0.41340    0.16380    0.17614    1.000
    O16      O        0.30757    0.11697    0.13624    1.000
    Mn3      Mn       0.68148    0.86962    0.69785    1.000
    Mn4      Mn       0.88698    0.68972    0.71380    1.000
    Cu3      Cu       0.68677    0.02893    0.42029    1.000
    Cu4      Cu       0.54808    0.82937    0.56390    1.000
    C23      C        0.65520    0.94870    0.53046    1.000
    H9       H        0.61180    0.96190    0.53160    1.000
    C24      C        0.69860    0.97810    0.50379    1.000
    C25      C        0.76280    0.95650    0.50110    1.000
    H10      H        0.79040    0.97420    0.48240    1.000
    C26      C        0.78560    0.90890    0.52598    1.000
    H11      H        0.82890    0.89560    0.52440    1.000
    C27      C        0.74440    0.88040    0.55362    1.000
    H12      H        0.76050    0.84920    0.57080    1.000
    C28      C        0.67810    0.89950    0.55521    1.000
    C29      C        0.64400    0.07640    0.49052    1.000
    C30      C        0.62690    0.12810    0.46085    1.000
    C31      C        0.64180    0.86370    0.61685    1.000
    C32      C        0.58360    0.83700    0.63996    1.000
    C33      C        0.61200    0.88150    0.45411    1.000
    H13      H        0.58170    0.91520    0.45220    1.000
    C34      C        0.66800    0.88140    0.43008    1.000
    C35      C        0.71140    0.83030    0.43377    1.000
    H14      H        0.74870    0.83000    0.41820    1.000
    C36      C        0.70170    0.78000    0.45954    1.000
    H15      H        0.73160    0.74580    0.46090    1.000
    C37      C        0.64590    0.78050    0.48401    1.000
    H16      H        0.63900    0.74730    0.50200    1.000
    C38      C        0.60240    0.83120    0.48045    1.000
    C39      C        0.68460    0.92650    0.36717    1.000
    C40      C        0.69320    0.99050    0.34457    1.000
    C41      C        0.48840    0.83370    0.49147    1.000
    C42      C        0.43380    0.83530    0.52265    1.000
    C43      C        0.81070    0.81020    0.71311    1.000
    C44      C        0.75980    0.75250    0.71238    1.000
    N5       N        0.67600    0.02680    0.47749    1.000
    N6       N        0.63260    0.86810    0.57976    1.000
    N7       N        0.67880    0.93550    0.40514    1.000
    N8       N        0.54760    0.83300    0.50616    1.000
    O17      O        0.37723    0.83840    0.51049    1.000
    O18      O        0.47202    0.83050    0.45693    1.000
    O19      O        0.45060    0.83230    0.55775    1.000
    O20      O        0.78770    0.86652    0.70900    1.000
    O21      O        0.70150    0.76674    0.70693    1.000
    O22      O        0.78070    0.69702    0.72000    1.000
    O23      O        0.86920    0.79500    0.71551    1.000
    O24      O        0.53470    0.81850    0.62044    1.000
    O25      O        0.60160    0.18021    0.47236    1.000
    O26      O        0.62810    0.08821    0.52624    1.000
    O27      O        0.68239    0.87394    0.34874    1.000
    O28      O        0.69840    0.98620    0.30855    1.000
    O29      O        0.69450    0.04310    0.36371    1.000
    O30      O        0.64300    0.11800    0.42567    1.000
    O31      O        0.58660    0.83620    0.67614    1.000
    O32      O        0.69243    0.88303    0.63624    1.000
    Mn5      Mn       0.36962    0.81852    0.44785    1.000
    Mn6      Mn       0.18972    0.61302    0.46380    1.000
    Cu5      Cu       0.52893    0.81323    0.17029    1.000
    Cu6      Cu       0.32937    0.95192    0.31390    1.000
    C45      C        0.44870    0.84480    0.28046    1.000
    H17      H        0.46190    0.88820    0.28160    1.000
    C46      C        0.47810    0.80140    0.25379    1.000
    C47      C        0.45650    0.73720    0.25110    1.000
    H18      H        0.47420    0.70960    0.23240    1.000
    C48      C        0.40890    0.71440    0.27598    1.000
    H19      H        0.39560    0.67110    0.27440    1.000
    C49      C        0.38040    0.75560    0.30362    1.000
    H20      H        0.34920    0.73950    0.32080    1.000
    C50      C        0.39950    0.82190    0.30521    1.000
    C51      C        0.57640    0.85600    0.24052    1.000
    C52      C        0.62810    0.87310    0.21085    1.000
    C53      C        0.36370    0.85820    0.36685    1.000
    C54      C        0.33700    0.91640    0.38996    1.000
    C55      C        0.38150    0.88800    0.20411    1.000
    H21      H        0.41520    0.91830    0.20220    1.000
    C56      C        0.38140    0.83200    0.18008    1.000
    C57      C        0.33030    0.78860    0.18377    1.000
    H22      H        0.33000    0.75130    0.16820    1.000
    C58      C        0.28000    0.79830    0.20954    1.000
    H23      H        0.24580    0.76840    0.21090    1.000
    C59      C        0.28050    0.85410    0.23401    1.000
    H24      H        0.24730    0.86100    0.25200    1.000
    C60      C        0.33120    0.89760    0.23045    1.000
    C61      C        0.42650    0.81540    0.11717    1.000
    C62      C        0.49050    0.80680    0.09457    1.000
    C63      C        0.33370    0.01160    0.24147    1.000
    C64      C        0.33530    0.06620    0.27265    1.000
    C65      C        0.31020    0.68930    0.46311    1.000
    C66      C        0.25250    0.74020    0.46238    1.000
    N9       N        0.52680    0.82400    0.22749    1.000
    N10      N        0.36810    0.86740    0.32976    1.000
    N11      N        0.43550    0.82120    0.15514    1.000
    N12      N        0.33300    0.95240    0.25616    1.000
    O33      O        0.33840    0.12277    0.26049    1.000
    O34      O        0.33050    0.02798    0.20693    1.000
    O35      O        0.33230    0.04940    0.30775    1.000
    O36      O        0.36652    0.71230    0.45900    1.000
    O37      O        0.26674    0.79850    0.45693    1.000
    O38      O        0.19702    0.71930    0.47000    1.000
    O39      O        0.29500    0.63080    0.46551    1.000
    O40      O        0.31850    0.96530    0.37044    1.000
    O41      O        0.68021    0.89840    0.22236    1.000
    O42      O        0.58821    0.87190    0.27624    1.000
    O43      O        0.37394    0.81761    0.09874    1.000
    O44      O        0.48620    0.80160    0.05855    1.000
    O45      O        0.54310    0.80550    0.11371    1.000
    O46      O        0.61800    0.85700    0.17567    1.000
    O47      O        0.33620    0.91340    0.42614    1.000
    O48      O        0.38303    0.80757    0.38624    1.000
    Mn7      Mn       0.63038    0.18148    0.94785    1.000
    Mn8      Mn       0.81028    0.38698    0.96380    1.000
    Cu7      Cu       0.47107    0.18677    0.67029    1.000
    Cu8      Cu       0.67063    0.04808    0.81390    1.000
    C67      C        0.55130    0.15520    0.78046    1.000
    H25      H        0.53810    0.11180    0.78160    1.000
    C68      C        0.52190    0.19860    0.75379    1.000
    C69      C        0.54350    0.26280    0.75110    1.000
    H26      H        0.52580    0.29040    0.73240    1.000
    C70      C        0.59110    0.28560    0.77598    1.000
    H27      H        0.60440    0.32890    0.77440    1.000
    C71      C        0.61960    0.24440    0.80362    1.000
    H28      H        0.65080    0.26050    0.82080    1.000
    C72      C        0.60050    0.17810    0.80521    1.000
    C73      C        0.42360    0.14400    0.74052    1.000
    C74      C        0.37190    0.12690    0.71085    1.000
    C75      C        0.63630    0.14180    0.86685    1.000
    C76      C        0.66300    0.08360    0.88996    1.000
    C77      C        0.61850    0.11200    0.70411    1.000
    H29      H        0.58480    0.08170    0.70220    1.000
    C78      C        0.61860    0.16800    0.68008    1.000
    C79      C        0.66970    0.21140    0.68377    1.000
    H30      H        0.67000    0.24870    0.66820    1.000
    C80      C        0.72000    0.20170    0.70954    1.000
    H31      H        0.75420    0.23160    0.71090    1.000
    C81      C        0.71950    0.14590    0.73401    1.000
    H32      H        0.75270    0.13900    0.75200    1.000
    C82      C        0.66880    0.10240    0.73045    1.000
    C83      C        0.57350    0.18460    0.61717    1.000
    C84      C        0.50950    0.19320    0.59457    1.000
    C85      C        0.66630    0.98840    0.74147    1.000
    C86      C        0.66470    0.93380    0.77265    1.000
    C87      C        0.68980    0.31070    0.96311    1.000
    C88      C        0.74750    0.25980    0.96238    1.000
    N13      N        0.47320    0.17600    0.72749    1.000
    N14      N        0.63190    0.13260    0.82976    1.000
    N15      N        0.56450    0.17880    0.65514    1.000
    N16      N        0.66700    0.04760    0.75616    1.000
    O49      O        0.66160    0.87723    0.76049    1.000
    O50      O        0.66950    0.97202    0.70693    1.000
    O51      O        0.66770    0.95060    0.80775    1.000
    O52      O        0.63348    0.28770    0.95900    1.000
    O53      O        0.73326    0.20150    0.95693    1.000
    O54      O        0.80298    0.28070    0.97000    1.000
    O55      O        0.70500    0.36920    0.96551    1.000
    O56      O        0.68150    0.03470    0.87044    1.000
    O57      O        0.31979    0.10160    0.72236    1.000
    O58      O        0.41179    0.12810    0.77624    1.000
    O59      O        0.62606    0.18239    0.59874    1.000
    O60      O        0.51380    0.19840    0.55855    1.000
    O61      O        0.45690    0.19450    0.61371    1.000
    O62      O        0.38200    0.14300    0.67567    1.000
    O63      O        0.66380    0.08660    0.92614    1.000
    O64      O        0.61697    0.19243    0.88624    1.000
    Mn9      Mn       0.18148    0.63038    0.05215    1.000
    Mn10     Mn       0.38698    0.81028    0.03620    1.000
    Cu9      Cu       0.18677    0.47107    0.32971    1.000
    Cu10     Cu       0.04808    0.67063    0.18610    1.000
    C89      C        0.15520    0.55130    0.21954    1.000
    H33      H        0.11180    0.53810    0.21840    1.000
    C90      C        0.19860    0.52190    0.24621    1.000
    C91      C        0.26280    0.54350    0.24890    1.000
    H34      H        0.29040    0.52580    0.26760    1.000
    C92      C        0.28560    0.59110    0.22402    1.000
    H35      H        0.32890    0.60440    0.22560    1.000
    C93      C        0.24440    0.61960    0.19638    1.000
    H36      H        0.26050    0.65080    0.17920    1.000
    C94      C        0.17810    0.60050    0.19479    1.000
    C95      C        0.14400    0.42360    0.25948    1.000
    C96      C        0.12690    0.37190    0.28915    1.000
    C97      C        0.14180    0.63630    0.13315    1.000
    C98      C        0.08360    0.66300    0.11004    1.000
    C99      C        0.11200    0.61850    0.29589    1.000
    H37      H        0.08170    0.58480    0.29780    1.000
    C100     C        0.16800    0.61860    0.31992    1.000
    C101     C        0.21140    0.66970    0.31623    1.000
    H38      H        0.24870    0.67000    0.33180    1.000
    C102     C        0.20170    0.72000    0.29046    1.000
    H39      H        0.23160    0.75420    0.28910    1.000
    C103     C        0.14590    0.71950    0.26599    1.000
    H40      H        0.13900    0.75270    0.24800    1.000
    C104     C        0.10240    0.66880    0.26955    1.000
    C105     C        0.18460    0.57350    0.38283    1.000
    C106     C        0.19320    0.50950    0.40543    1.000
    C107     C        0.98840    0.66630    0.25853    1.000
    C108     C        0.93380    0.66470    0.22735    1.000
    C109     C        0.31070    0.68980    0.03689    1.000
    C110     C        0.25980    0.74750    0.03762    1.000
    N17      N        0.17600    0.47320    0.27251    1.000
    N18      N        0.13260    0.63190    0.17024    1.000
    N19      N        0.17880    0.56450    0.34486    1.000
    N20      N        0.04760    0.66700    0.24384    1.000
    O65      O        0.87723    0.66160    0.23951    1.000
    O66      O        0.97202    0.66950    0.29307    1.000
    O67      O        0.95060    0.66770    0.19225    1.000
    O68      O        0.28770    0.63348    0.04100    1.000
    O69      O        0.20150    0.73326    0.04307    1.000
    O70      O        0.28070    0.80298    0.03000    1.000
    O71      O        0.36920    0.70500    0.03449    1.000
    O72      O        0.03470    0.68150    0.12956    1.000
    O73      O        0.10160    0.31979    0.27764    1.000
    O74      O        0.12810    0.41179    0.22376    1.000
    O75      O        0.18239    0.62606    0.40126    1.000
    O76      O        0.19840    0.51380    0.44145    1.000
    O77      O        0.19450    0.45690    0.38629    1.000
    O78      O        0.14300    0.38200    0.32433    1.000
    O79      O        0.08660    0.66380    0.07386    1.000
    O80      O        0.19243    0.61697    0.11376    1.000
    Mn11     Mn       0.81852    0.36962    0.55215    1.000
    Mn12     Mn       0.61302    0.18972    0.53620    1.000
    Cu11     Cu       0.81323    0.52893    0.82971    1.000
    Cu12     Cu       0.95192    0.32937    0.68610    1.000
    C111     C        0.84480    0.44870    0.71954    1.000
    H41      H        0.88820    0.46190    0.71840    1.000
    C112     C        0.80140    0.47810    0.74621    1.000
    C113     C        0.73720    0.45650    0.74890    1.000
    H42      H        0.70960    0.47420    0.76760    1.000
    C114     C        0.71440    0.40890    0.72402    1.000
    H43      H        0.67110    0.39560    0.72560    1.000
    C115     C        0.75560    0.38040    0.69638    1.000
    H44      H        0.73950    0.34920    0.67920    1.000
    C116     C        0.82190    0.39950    0.69479    1.000
    C117     C        0.85600    0.57640    0.75948    1.000
    C118     C        0.87310    0.62810    0.78915    1.000
    C119     C        0.85820    0.36370    0.63315    1.000
    C120     C        0.91640    0.33700    0.61004    1.000
    C121     C        0.88800    0.38150    0.79589    1.000
    H45      H        0.91830    0.41520    0.79780    1.000
    C122     C        0.83200    0.38140    0.81992    1.000
    C123     C        0.78860    0.33030    0.81623    1.000
    H46      H        0.75130    0.33000    0.83180    1.000
    C124     C        0.79830    0.28000    0.79046    1.000
    H47      H        0.76840    0.24580    0.78910    1.000
    C125     C        0.85410    0.28050    0.76599    1.000
    H48      H        0.86100    0.24730    0.74800    1.000
    C126     C        0.89760    0.33120    0.76955    1.000
    C127     C        0.81540    0.42650    0.88283    1.000
    C128     C        0.80680    0.49050    0.90543    1.000
    C129     C        0.01160    0.33370    0.75853    1.000
    C130     C        0.06620    0.33530    0.72735    1.000
    C131     C        0.68930    0.31020    0.53689    1.000
    C132     C        0.74020    0.25250    0.53762    1.000
    N21      N        0.82400    0.52680    0.77251    1.000
    N22      N        0.86740    0.36810    0.67024    1.000
    N23      N        0.82120    0.43550    0.84486    1.000
    N24      N        0.95240    0.33300    0.74384    1.000
    O81      O        0.12277    0.33840    0.73951    1.000
    O82      O        0.02798    0.33050    0.79307    1.000
    O83      O        0.04940    0.33230    0.69225    1.000
    O84      O        0.71230    0.36652    0.54100    1.000
    O85      O        0.79850    0.26674    0.54307    1.000
    O86      O        0.71930    0.19702    0.53000    1.000
    O87      O        0.63080    0.29500    0.53449    1.000
    O88      O        0.96530    0.31850    0.62956    1.000
    O89      O        0.89840    0.68021    0.77764    1.000
    O90      O        0.87190    0.58821    0.72376    1.000
    O91      O        0.81761    0.37394    0.90126    1.000
    O92      O        0.80160    0.48620    0.94145    1.000
    O93      O        0.80550    0.54310    0.88629    1.000
    O94      O        0.85700    0.61800    0.82433    1.000
    O95      O        0.91340    0.33620    0.57386    1.000
    O96      O        0.80757    0.38303    0.61376    1.000
    Mn13     Mn       0.13038    0.31852    0.80215    1.000
    Mn14     Mn       0.31028    0.11302    0.78620    1.000
    Cu13     Cu       0.97107    0.31323    0.07971    1.000
    Cu14     Cu       0.17063    0.45192    0.93610    1.000
    C133     C        0.05130    0.34480    0.96954    1.000
    H49      H        0.03810    0.38820    0.96840    1.000
    C134     C        0.02190    0.30140    0.99621    1.000
    C135     C        0.04350    0.23720    0.99890    1.000
    H50      H        0.02580    0.20960    0.01760    1.000
    C136     C        0.09110    0.21440    0.97402    1.000
    H51      H        0.10440    0.17110    0.97560    1.000
    C137     C        0.11960    0.25560    0.94638    1.000
    H52      H        0.15080    0.23950    0.92920    1.000
    C138     C        0.10050    0.32190    0.94479    1.000
    C139     C        0.92360    0.35600    0.00948    1.000
    C140     C        0.87190    0.37310    0.03915    1.000
    C141     C        0.13630    0.35820    0.88315    1.000
    C142     C        0.16300    0.41640    0.86004    1.000
    C143     C        0.11850    0.38800    0.04589    1.000
    H53      H        0.08480    0.41830    0.04780    1.000
    C144     C        0.11860    0.33200    0.06992    1.000
    C145     C        0.16970    0.28860    0.06623    1.000
    H54      H        0.17000    0.25130    0.08180    1.000
    C146     C        0.22000    0.29830    0.04046    1.000
    H55      H        0.25420    0.26840    0.03910    1.000
    C147     C        0.21950    0.35410    0.01599    1.000
    H56      H        0.25270    0.36100    0.99800    1.000
    C148     C        0.16880    0.39760    0.01955    1.000
    C149     C        0.07350    0.31540    0.13283    1.000
    C150     C        0.00950    0.30680    0.15543    1.000
    C151     C        0.16630    0.51160    0.00853    1.000
    C152     C        0.16470    0.56620    0.97735    1.000
    C153     C        0.18980    0.18930    0.78689    1.000
    C154     C        0.24750    0.24020    0.78762    1.000
    N25      N        0.97320    0.32400    0.02251    1.000
    N26      N        0.13190    0.36740    0.92024    1.000
    N27      N        0.06450    0.32120    0.09486    1.000
    N28      N        0.16700    0.45240    0.99384    1.000
    O97      O        0.16160    0.62277    0.98951    1.000
    O98      O        0.16950    0.52798    0.04307    1.000
    O99      O        0.16770    0.54940    0.94225    1.000
    O100     O        0.13348    0.21230    0.79100    1.000
    O101     O        0.23326    0.29850    0.79307    1.000
    O102     O        0.30298    0.21930    0.78000    1.000
    O103     O        0.20500    0.13080    0.78449    1.000
    O104     O        0.18150    0.46530    0.87956    1.000
    O105     O        0.81979    0.39840    0.02764    1.000
    O106     O        0.91179    0.37190    0.97376    1.000
    O107     O        0.12606    0.31761    0.15126    1.000
    O108     O        0.01380    0.30160    0.19145    1.000
    O109     O        0.95690    0.30550    0.13629    1.000
    O110     O        0.88200    0.35700    0.07433    1.000
    O111     O        0.16380    0.41340    0.82386    1.000
    O112     O        0.11697    0.30757    0.86376    1.000
    Mn15     Mn       0.86962    0.68148    0.30215    1.000
    Mn16     Mn       0.68972    0.88698    0.28620    1.000
    Cu15     Cu       0.02893    0.68677    0.57971    1.000
    Cu16     Cu       0.82937    0.54808    0.43610    1.000
    C155     C        0.94870    0.65520    0.46954    1.000
    H57      H        0.96190    0.61180    0.46840    1.000
    C156     C        0.97810    0.69860    0.49621    1.000
    C157     C        0.95650    0.76280    0.49890    1.000
    H58      H        0.97420    0.79040    0.51760    1.000
    C158     C        0.90890    0.78560    0.47402    1.000
    H59      H        0.89560    0.82890    0.47560    1.000
    C159     C        0.88040    0.74440    0.44638    1.000
    H60      H        0.84920    0.76050    0.42920    1.000
    C160     C        0.89950    0.67810    0.44479    1.000
    C161     C        0.07640    0.64400    0.50948    1.000
    C162     C        0.12810    0.62690    0.53915    1.000
    C163     C        0.86370    0.64180    0.38315    1.000
    C164     C        0.83700    0.58360    0.36004    1.000
    C165     C        0.88150    0.61200    0.54589    1.000
    H61      H        0.91520    0.58170    0.54780    1.000
    C166     C        0.88140    0.66800    0.56992    1.000
    C167     C        0.83030    0.71140    0.56623    1.000
    H62      H        0.83000    0.74870    0.58180    1.000
    C168     C        0.78000    0.70170    0.54046    1.000
    H63      H        0.74580    0.73160    0.53910    1.000
    C169     C        0.78050    0.64590    0.51599    1.000
    H64      H        0.74730    0.63900    0.49800    1.000
    C170     C        0.83120    0.60240    0.51955    1.000
    C171     C        0.92650    0.68460    0.63283    1.000
    C172     C        0.99050    0.69320    0.65543    1.000
    C173     C        0.83370    0.48840    0.50853    1.000
    C174     C        0.83530    0.43380    0.47735    1.000
    C175     C        0.81020    0.81070    0.28689    1.000
    C176     C        0.75250    0.75980    0.28762    1.000
    N29      N        0.02680    0.67600    0.52251    1.000
    N30      N        0.86810    0.63260    0.42024    1.000
    N31      N        0.93550    0.67880    0.59486    1.000
    N32      N        0.83300    0.54760    0.49384    1.000
    O113     O        0.83840    0.37723    0.48951    1.000
    O114     O        0.83050    0.47202    0.54307    1.000
    O115     O        0.83230    0.45060    0.44225    1.000
    O116     O        0.86652    0.78770    0.29100    1.000
    O117     O        0.76674    0.70150    0.29307    1.000
    O118     O        0.69702    0.78070    0.28000    1.000
    O119     O        0.79500    0.86920    0.28449    1.000
    O120     O        0.81850    0.53470    0.37956    1.000
    O121     O        0.18021    0.60160    0.52764    1.000
    O122     O        0.08821    0.62810    0.47376    1.000
    O123     O        0.87394    0.68239    0.65126    1.000
    O124     O        0.98620    0.69840    0.69145    1.000
    O125     O        0.04310    0.69450    0.63629    1.000
    O126     O        0.11800    0.64300    0.57433    1.000
    O127     O        0.83620    0.58660    0.32386    1.000
    O128     O        0.88303    0.69243    0.36376    1.000
