data_functionalizedCrystal
_audit_creation_method	'EQeq! by Chris Wilmer'
_symmetry_space_group_name_H-M	'P1'
_symmetry_Int_Tables_number	1
_symmetry_cell_setting	triclinic
loop_
_symmetry_equiv_pos_as_xyz
  x,y,z
_cell_length_a	14.6163
_cell_length_b	26.0625
_cell_length_c	12.6784
_cell_angle_alpha	90
_cell_angle_beta	105.046
_cell_angle_gamma	90
loop_
_atom_site_label
_atom_site_type_symbol
_atom_site_fract_x
_atom_site_fract_y
_atom_site_fract_z
_atom_site_charge
Mof_Er	Er	0.22533	0.46538	0.30476	2.253
Mof_Er	Er	0.24874	0.21581	0.18151	2.287
Mof_Er	Er	0.28169	0.71437	0.19605	2.27
Mof_Er	Er	0.24379	0.53473	0.80814	2.315
Mof_O 	O 	0.3756	0.4707	0.4341	-0.442
Mof_O 	O 	0.375	0.4831	0.2659	-0.42
Mof_O 	O 	0.1036	0.25512	0.0685	-0.4
Mof_O 	O 	0.1017	0.22478	0.2283	-0.424
Mof_O 	O 	0.1311	0.7203	0.0719	-0.459
Mof_O 	O 	0.134	0.73475	0.2391	-0.431
Mof_O 	O 	0.3886	0.4996	0.9239	-0.414
Mof_O 	O 	0.391	0.52367	0.76	-0.414
Mof_O 	O 	0.2637	0.3848	0.2519	-0.547
Mof_O 	O 	0.2667	0.30108	0.2304	-0.564
Mof_O 	O 	0.4005	0.19241	0.2122	-0.606
Mof_O 	O 	0.5538	0.20886	0.2594	-0.571
Mof_O 	O 	0.2967	0.80205	0.2308	-0.529
Mof_O 	O 	0.2745	0.88471	0.2457	-0.541
Mof_O 	O 	0.2154	0.55303	0.2663	-0.541
Mof_O 	O 	0.2468	0.63508	0.2586	-0.552
Mof_O 	O 	0.187	0.46793	0.1125	-0.497
Mof_O 	O 	0.1914	0.49103	0.9467	-0.488
Mof_O 	O 	0.1841	0.51278	0.4448	-0.492
Mof_O 	O 	0.1884	0.53382	0.6154	-0.506
Mof_O 	O 	0.0631	0.45692	0.2467	-0.581
Mof_O 	O 	0.9106	0.44186	0.2253	-0.602
Mof_O 	O 	0.1922	0.40598	0.4273	-0.558
Mof_O 	O 	0.2023	0.33819	0.5326	-0.565
Mof_O 	O 	0.3026	0.21706	0.3761	-0.476
Mof_O 	O 	0.3022	0.24204	0.5425	-0.475
Mof_O 	O 	0.2285	0.13384	0.2441	-0.571
Mof_O 	O 	0.2292	0.05014	0.2603	-0.587
Mof_O 	O 	0.3023	0.65262	0.0726	-0.571
Mof_O 	O 	0.2773	0.58902	0.955	-0.594
Mof_O 	O 	0.3224	0.7593	0.0536	-0.498
Mof_O 	O 	0.3278	0.78028	0.8873	-0.513
Mof_C 	C 	0.4174	0.4838	0.3637	0.386
Mof_H 	H 	0.4818	0.4942	0.3856	-0.044
Mof_C 	C 	0.0623	0.2468	0.1417	0.367
Mof_H 	H 	0.9985	0.2578	0.1306	-0.035
Mof_C 	C 	0.0915	0.7341	0.1422	0.408
Mof_H 	H 	0.027	0.7444	0.1207	-0.047
Mof_C 	C 	0.4305	0.5048	0.8518	0.367
Mof_H 	H 	0.4947	0.4943	0.8661	-0.03
Mof_C 	C 	0.2261	0.3413	0.2425	0.689
Mof_H 	H 	0.1618	0.3391	0.2447	-0.195
Mof_C 	C 	0.4857	0.1811	0.227	0.77
Mof_H 	H 	0.4989	0.1466	0.211	-0.203
Mof_C 	C 	0.2484	0.8398	0.2457	0.67
Mof_H 	H 	0.1879	0.8333	0.2577	-0.189
Mof_C 	C 	0.268	0.5891	0.2575	0.681
Mof_H 	H 	0.3291	0.5809	0.2494	-0.187
Mof_C 	C 	0.2252	0.4896	0.0477	0.613
Mof_H 	H 	0.2841	0.5063	0.0771	-0.155
Mof_C 	C 	0.2163	0.5094	0.5465	0.623
Mof_H 	H 	0.2667	0.4858	0.5727	-0.175
Mof_C 	C 	0.9957	0.4308	0.2523	0.772
Mof_H 	H 	0.0105	0.3973	0.2813	-0.197
Mof_C 	C 	0.237	0.3751	0.4951	0.687
Mof_H 	H 	0.3035	0.3801	0.5206	-0.203
Mof_C 	C 	0.2659	0.2404	0.4403	0.576
Mof_H 	H 	0.2078	0.2579	0.4113	-0.153
Mof_C 	C 	0.2656	0.0918	0.2489	0.751
Mof_H 	H 	0.3292	0.0909	0.2433	-0.211
Mof_C 	C 	0.252	0.6267	0.9976	0.723
Mof_H 	H 	0.1878	0.6371	0.9706	-0.206
Mof_C 	C 	0.2923	0.7571	0.9526	0.635
Mof_H 	H 	0.2383	0.7362	0.9233	-0.175
Mof_Er	Er	0.77467	0.96538	0.19524	2.247
Mof_Er	Er	0.75126	0.71581	0.31849	2.286
Mof_Er	Er	0.71831	0.21437	0.30395	2.27
Mof_Er	Er	0.75621	0.03473	0.69186	2.309
Mof_O 	O 	0.6244	0.9707	0.0659	-0.444
Mof_O 	O 	0.625	0.9831	0.2341	-0.421
Mof_O 	O 	0.8964	0.75512	0.4315	-0.4
Mof_O 	O 	0.8983	0.72478	0.2717	-0.424
Mof_O 	O 	0.8689	0.2203	0.4281	-0.459
Mof_O 	O 	0.866	0.23475	0.2609	-0.431
Mof_O 	O 	0.6114	0.9996	0.5761	-0.411
Mof_O 	O 	0.609	0.02367	0.74	-0.414
Mof_O 	O 	0.7363	0.8848	0.2481	-0.546
Mof_O 	O 	0.7333	0.80108	0.2696	-0.564
Mof_O 	O 	0.5995	0.69241	0.2878	-0.606
Mof_O 	O 	0.4462	0.70886	0.2406	-0.572
Mof_O 	O 	0.7033	0.30205	0.2692	-0.529
Mof_O 	O 	0.7255	0.38471	0.2543	-0.541
Mof_O 	O 	0.7846	0.05303	0.2337	-0.54
Mof_O 	O 	0.7532	0.13508	0.2414	-0.552
Mof_O 	O 	0.813	0.96793	0.3875	-0.496
Mof_O 	O 	0.8086	0.99103	0.5533	-0.485
Mof_O 	O 	0.8159	0.01278	0.0552	-0.486
Mof_O 	O 	0.8116	0.03382	0.8846	-0.503
Mof_O 	O 	0.9369	0.95692	0.2533	-0.582
Mof_O 	O 	0.0894	0.94186	0.2747	-0.603
Mof_O 	O 	0.8078	0.90598	0.0727	-0.555
Mof_O 	O 	0.7977	0.83819	0.9674	-0.558
Mof_O 	O 	0.6974	0.71706	0.1239	-0.475
Mof_O 	O 	0.6978	0.74204	0.9575	-0.472
Mof_O 	O 	0.7715	0.63384	0.2559	-0.572
Mof_O 	O 	0.7708	0.55014	0.2397	-0.589
Mof_O 	O 	0.6977	0.15262	0.4274	-0.571
Mof_O 	O 	0.7227	0.08902	0.545	-0.594
Mof_O 	O 	0.6776	0.2593	0.4464	-0.497
Mof_O 	O 	0.6722	0.28028	0.6127	-0.512
Mof_C 	C 	0.5826	0.9838	0.1363	0.386
Mof_H 	H 	0.5182	0.9942	0.1144	-0.045
Mof_C 	C 	0.9377	0.7468	0.3583	0.364
Mof_H 	H 	0.0015	0.7578	0.3694	-0.033
Mof_C 	C 	0.9085	0.2341	0.3578	0.408
Mof_H 	H 	0.973	0.2444	0.3793	-0.047
Mof_C 	C 	0.5695	0.0048	0.6482	0.362
Mof_H 	H 	0.5053	0.9943	0.6339	-0.028
Mof_C 	C 	0.7739	0.8413	0.2575	0.689
Mof_H 	H 	0.8382	0.8391	0.2553	-0.195
Mof_C 	C 	0.5143	0.6811	0.273	0.77
Mof_H 	H 	0.5011	0.6466	0.289	-0.203
Mof_C 	C 	0.7516	0.3398	0.2543	0.67
Mof_H 	H 	0.8121	0.3333	0.2423	-0.189
Mof_C 	C 	0.732	0.0891	0.2425	0.68
Mof_H 	H 	0.6709	0.0809	0.2506	-0.187
Mof_C 	C 	0.7748	0.9896	0.4523	0.611
Mof_H 	H 	0.7159	0.0063	0.4229	-0.154
Mof_C 	C 	0.7837	0.0094	0.9535	0.608
Mof_H 	H 	0.7333	0.9858	0.9273	-0.167
Mof_C 	C 	0.0043	0.9308	0.2477	0.775
Mof_H 	H 	0.9895	0.8973	0.2187	-0.199
Mof_C 	C 	0.763	0.8751	0.0049	0.672
Mof_H 	H 	0.6965	0.8801	0.9794	-0.196
Mof_C 	C 	0.7341	0.7404	0.0597	0.571
Mof_H 	H 	0.7922	0.7579	0.0887	-0.152
Mof_C 	C 	0.7344	0.5918	0.2511	0.752
Mof_H 	H 	0.6708	0.5909	0.2567	-0.212
Mof_C 	C 	0.748	0.1267	0.5024	0.722
Mof_H 	H 	0.8122	0.1371	0.5294	-0.205
Mof_C 	C 	0.7077	0.2571	0.5474	0.633
Mof_H 	H 	0.7617	0.2362	0.5767	-0.175
Mof_Er	Er	0.77467	0.53462	0.69524	2.252
Mof_Er	Er	0.75126	0.78419	0.81849	2.286
Mof_Er	Er	0.71831	0.28563	0.80395	2.269
Mof_Er	Er	0.75621	0.46527	0.19186	2.314
Mof_O 	O 	0.6244	0.5293	0.5659	-0.443
Mof_O 	O 	0.625	0.5169	0.7341	-0.421
Mof_O 	O 	0.8964	0.74488	0.9315	-0.4
Mof_O 	O 	0.8983	0.77522	0.7717	-0.424
Mof_O 	O 	0.8689	0.2797	0.9281	-0.459
Mof_O 	O 	0.866	0.26525	0.7609	-0.431
Mof_O 	O 	0.6114	0.5004	0.0761	-0.414
Mof_O 	O 	0.609	0.47633	0.24	-0.414
Mof_O 	O 	0.7363	0.6152	0.7481	-0.547
Mof_O 	O 	0.7333	0.69892	0.7696	-0.564
Mof_O 	O 	0.5995	0.80759	0.7878	-0.606
Mof_O 	O 	0.4462	0.79114	0.7406	-0.571
Mof_O 	O 	0.7033	0.19795	0.7692	-0.529
Mof_O 	O 	0.7255	0.11529	0.7543	-0.541
Mof_O 	O 	0.7846	0.44697	0.7337	-0.541
Mof_O 	O 	0.7532	0.36492	0.7414	-0.552
Mof_O 	O 	0.813	0.53207	0.8875	-0.497
Mof_O 	O 	0.8086	0.50897	0.0533	-0.488
Mof_O 	O 	0.8159	0.48722	0.5552	-0.492
Mof_O 	O 	0.8116	0.46618	0.3846	-0.506
Mof_O 	O 	0.9369	0.54308	0.7533	-0.581
Mof_O 	O 	0.0894	0.55814	0.7747	-0.602
Mof_O 	O 	0.8078	0.59402	0.5727	-0.558
Mof_O 	O 	0.7977	0.66181	0.4674	-0.565
Mof_O 	O 	0.6974	0.78294	0.6239	-0.476
Mof_O 	O 	0.6978	0.75796	0.4575	-0.475
Mof_O 	O 	0.7715	0.86616	0.7559	-0.571
Mof_O 	O 	0.7708	0.94986	0.7397	-0.587
Mof_O 	O 	0.6977	0.34738	0.9274	-0.571
Mof_O 	O 	0.7227	0.41098	0.045	-0.594
Mof_O 	O 	0.6776	0.2407	0.9464	-0.498
Mof_O 	O 	0.6722	0.21972	0.1127	-0.513
Mof_C 	C 	0.5826	0.5162	0.6363	0.386
Mof_H 	H 	0.5182	0.5058	0.6144	-0.044
Mof_C 	C 	0.9377	0.7532	0.8583	0.367
Mof_H 	H 	0.0015	0.7422	0.8694	-0.035
Mof_C 	C 	0.9085	0.2659	0.8578	0.408
Mof_H 	H 	0.973	0.2556	0.8793	-0.047
Mof_C 	C 	0.5695	0.4952	0.1482	0.367
Mof_H 	H 	0.5053	0.5057	0.1339	-0.03
Mof_C 	C 	0.7739	0.6587	0.7575	0.689
Mof_H 	H 	0.8382	0.6609	0.7553	-0.195
Mof_C 	C 	0.5143	0.8189	0.773	0.77
Mof_H 	H 	0.5011	0.8534	0.789	-0.203
Mof_C 	C 	0.7516	0.1602	0.7543	0.67
Mof_H 	H 	0.8121	0.1667	0.7423	-0.189
Mof_C 	C 	0.732	0.4109	0.7425	0.681
Mof_H 	H 	0.6709	0.4191	0.7506	-0.187
Mof_C 	C 	0.7748	0.5104	0.9523	0.613
Mof_H 	H 	0.7159	0.4937	0.9229	-0.155
Mof_C 	C 	0.7837	0.4906	0.4535	0.623
Mof_H 	H 	0.7333	0.5142	0.4273	-0.175
Mof_C 	C 	0.0043	0.5692	0.7477	0.772
Mof_H 	H 	0.9895	0.6027	0.7187	-0.197
Mof_C 	C 	0.763	0.6249	0.5049	0.687
Mof_H 	H 	0.6965	0.6199	0.4794	-0.203
Mof_C 	C 	0.7341	0.7596	0.5597	0.576
Mof_H 	H 	0.7922	0.7421	0.5887	-0.153
Mof_C 	C 	0.7344	0.9082	0.7511	0.751
Mof_H 	H 	0.6708	0.9091	0.7567	-0.211
Mof_C 	C 	0.748	0.3733	0.0024	0.723
Mof_H 	H 	0.8122	0.3629	0.0294	-0.206
Mof_C 	C 	0.7077	0.2429	0.0474	0.635
Mof_H 	H 	0.7617	0.2638	0.0767	-0.175
Mof_Er	Er	0.22533	0.03462	0.80476	2.247
Mof_Er	Er	0.24874	0.28419	0.68151	2.286
Mof_Er	Er	0.28169	0.78563	0.69605	2.27
Mof_Er	Er	0.24379	0.96527	0.30814	2.309
Mof_O 	O 	0.3756	0.0293	0.9341	-0.444
Mof_O 	O 	0.375	0.0169	0.7659	-0.421
Mof_O 	O 	0.1036	0.24488	0.5685	-0.4
Mof_O 	O 	0.1017	0.27522	0.7283	-0.424
Mof_O 	O 	0.1311	0.7797	0.5719	-0.459
Mof_O 	O 	0.134	0.76525	0.7391	-0.431
Mof_O 	O 	0.3886	0.0004	0.4239	-0.411
Mof_O 	O 	0.391	0.97633	0.26	-0.414
Mof_O 	O 	0.2637	0.1152	0.7519	-0.546
Mof_O 	O 	0.2667	0.19892	0.7304	-0.564
Mof_O 	O 	0.4005	0.30759	0.7122	-0.606
Mof_O 	O 	0.5538	0.29114	0.7594	-0.572
Mof_O 	O 	0.2967	0.69795	0.7308	-0.529
Mof_O 	O 	0.2745	0.61529	0.7457	-0.541
Mof_O 	O 	0.2154	0.94697	0.7663	-0.54
Mof_O 	O 	0.2468	0.86492	0.7586	-0.552
Mof_O 	O 	0.187	0.03207	0.6125	-0.496
Mof_O 	O 	0.1914	0.00897	0.4467	-0.485
Mof_O 	O 	0.1841	0.98722	0.9448	-0.486
Mof_O 	O 	0.1884	0.96618	0.1154	-0.503
Mof_O 	O 	0.0631	0.04308	0.7467	-0.582
Mof_O 	O 	0.9106	0.05814	0.7253	-0.603
Mof_O 	O 	0.1922	0.09402	0.9273	-0.555
Mof_O 	O 	0.2023	0.16181	0.0326	-0.558
Mof_O 	O 	0.3026	0.28294	0.8761	-0.475
Mof_O 	O 	0.3022	0.25796	0.0425	-0.472
Mof_O 	O 	0.2285	0.36616	0.7441	-0.572
Mof_O 	O 	0.2292	0.44986	0.7603	-0.589
Mof_O 	O 	0.3023	0.84738	0.5726	-0.571
Mof_O 	O 	0.2773	0.91098	0.455	-0.594
Mof_O 	O 	0.3224	0.7407	0.5536	-0.497
Mof_O 	O 	0.3278	0.71972	0.3873	-0.512
Mof_C 	C 	0.4174	0.0162	0.8637	0.386
Mof_H 	H 	0.4818	0.0058	0.8856	-0.045
Mof_C 	C 	0.0623	0.2532	0.6417	0.364
Mof_H 	H 	0.9985	0.2422	0.6306	-0.033
Mof_C 	C 	0.0915	0.7659	0.6422	0.408
Mof_H 	H 	0.027	0.7556	0.6207	-0.047
Mof_C 	C 	0.4305	0.9952	0.3518	0.362
Mof_H 	H 	0.4947	0.0057	0.3661	-0.028
Mof_C 	C 	0.2261	0.1587	0.7425	0.689
Mof_H 	H 	0.1618	0.1609	0.7447	-0.195
Mof_C 	C 	0.4857	0.3189	0.727	0.77
Mof_H 	H 	0.4989	0.3534	0.711	-0.203
Mof_C 	C 	0.2484	0.6602	0.7457	0.67
Mof_H 	H 	0.1879	0.6667	0.7577	-0.189
Mof_C 	C 	0.268	0.9109	0.7575	0.68
Mof_H 	H 	0.3291	0.9191	0.7494	-0.187
Mof_C 	C 	0.2252	0.0104	0.5477	0.611
Mof_H 	H 	0.2841	0.9937	0.5771	-0.154
Mof_C 	C 	0.2163	0.9906	0.0465	0.608
Mof_H 	H 	0.2667	0.0142	0.0727	-0.167
Mof_C 	C 	0.9957	0.0692	0.7523	0.775
Mof_H 	H 	0.0105	0.1027	0.7813	-0.199
Mof_C 	C 	0.237	0.1249	0.9951	0.672
Mof_H 	H 	0.3035	0.1199	0.0206	-0.196
Mof_C 	C 	0.2659	0.2596	0.9403	0.571
Mof_H 	H 	0.2078	0.2421	0.9113	-0.152
Mof_C 	C 	0.2656	0.4082	0.7489	0.752
Mof_H 	H 	0.3292	0.4091	0.7433	-0.212
Mof_C 	C 	0.252	0.8733	0.4976	0.722
Mof_H 	H 	0.1878	0.8629	0.4706	-0.205
Mof_C 	C 	0.2923	0.7429	0.4526	0.633
Mof_H 	H 	0.2383	0.7638	0.4233	-0.175
_end
