# CIF file generated by openbabel 3.1.0, see https://openbabel.org
data_I
_chemical_name_common 'image0'
_cell_length_a 17.019
_cell_length_b 6.5844
_cell_length_c 12.262
_cell_angle_alpha 90
_cell_angle_beta 90
_cell_angle_gamma 90
_space_group_name_H-M_alt 'P 1'
_space_group_name_Hall 'P 1'
loop_
    _symmetry_equiv_pos_as_xyz
    x,y,z
loop_
    _atom_site_label
    _atom_site_type_symbol
    _atom_site_fract_x
    _atom_site_fract_y
    _atom_site_fract_z
    _atom_site_occupancy
    O1       O        0.07230    0.92010    0.89083    1.000
    O2       O        0.41325    0.92020    0.58606    1.000
    C1       C        0.27391    0.93170    0.70130    1.000
    H1       H        0.29660    0.05400    0.68000    1.000
    C2       C        0.20527    0.93180    0.76200    1.000
    H2       H        0.18230    0.05410    0.78250    1.000
    O3       O        0.42770    0.07990    0.39083    1.000
    O4       O        0.08675    0.07980    0.08606    1.000
    C3       C        0.22609    0.06830    0.20130    1.000
    H3       H        0.20340    0.94600    0.18000    1.000
    C4       C        0.29473    0.06820    0.26200    1.000
    H4       H        0.31770    0.94590    0.28250    1.000
    O5       O        0.92770    0.42010    0.10917    1.000
    O6       O        0.58675    0.42020    0.41394    1.000
    C5       C        0.72609    0.43170    0.29870    1.000
    H5       H        0.70340    0.55400    0.32000    1.000
    C6       C        0.79473    0.43180    0.23800    1.000
    H6       H        0.81770    0.55410    0.21750    1.000
    O7       O        0.57230    0.57990    0.60917    1.000
    O8       O        0.91325    0.57980    0.91394    1.000
    C7       C        0.77391    0.56830    0.79870    1.000
    H7       H        0.79660    0.44600    0.82000    1.000
    C8       C        0.70527    0.56820    0.73800    1.000
    H8       H        0.68230    0.44590    0.71750    1.000
    O9       O        0.92770    0.07990    0.10917    1.000
    O10      O        0.58675    0.07980    0.41394    1.000
    C9       C        0.72609    0.06830    0.29870    1.000
    H9       H        0.70340    0.94600    0.32000    1.000
    C10      C        0.79473    0.06820    0.23800    1.000
    H10      H        0.81770    0.94590    0.21750    1.000
    O11      O        0.57230    0.92010    0.60917    1.000
    O12      O        0.91325    0.92020    0.91394    1.000
    C11      C        0.77391    0.93170    0.79870    1.000
    H11      H        0.79660    0.05400    0.82000    1.000
    C12      C        0.70527    0.93180    0.73800    1.000
    H12      H        0.68230    0.05410    0.71750    1.000
    O13      O        0.07230    0.57990    0.89083    1.000
    O14      O        0.41325    0.57980    0.58606    1.000
    C13      C        0.27391    0.56830    0.70130    1.000
    H13      H        0.29660    0.44600    0.68000    1.000
    C14      C        0.20527    0.56820    0.76200    1.000
    H14      H        0.18230    0.44590    0.78250    1.000
    O15      O        0.42770    0.42010    0.39083    1.000
    O16      O        0.08675    0.42020    0.08606    1.000
    C15      C        0.22609    0.43170    0.20130    1.000
    H15      H        0.20340    0.55400    0.18000    1.000
    C16      C        0.29473    0.43180    0.26200    1.000
    H16      H        0.31770    0.55410    0.28250    1.000
    Al1      Al       0.00000    0.00000    0.00000    1.000
    Al2      Al       0.50000    0.00000    0.50000    1.000
    Al3      Al       0.00000    0.50000    0.00000    1.000
    Al4      Al       0.50000    0.50000    0.50000    1.000
    O17      O        0.00511    0.75000    0.06418    1.000
    H17      H        0.01700    0.75000    0.12840    1.000
    C17      C        0.38409    0.75000    0.60990    1.000
    C18      C        0.30865    0.75000    0.67230    1.000
    C19      C        0.09934    0.75000    0.86290    1.000
    C20      C        0.17087    0.75000    0.79230    1.000
    O18      O        0.49489    0.25000    0.56418    1.000
    H18      H        0.48300    0.25000    0.62840    1.000
    C21      C        0.11591    0.25000    0.10990    1.000
    C22      C        0.19135    0.25000    0.17230    1.000
    C23      C        0.40066    0.25000    0.36290    1.000
    C24      C        0.32913    0.25000    0.29230    1.000
    O19      O        0.99489    0.25000    0.93582    1.000
    H19      H        0.98300    0.25000    0.87160    1.000
    C25      C        0.61591    0.25000    0.39010    1.000
    C26      C        0.69135    0.25000    0.32770    1.000
    C27      C        0.90066    0.25000    0.13710    1.000
    C28      C        0.82913    0.25000    0.20770    1.000
    O20      O        0.50511    0.75000    0.43582    1.000
    H20      H        0.51700    0.75000    0.37160    1.000
    C29      C        0.88409    0.75000    0.89010    1.000
    C30      C        0.80865    0.75000    0.82770    1.000
    C31      C        0.59934    0.75000    0.63710    1.000
    C32      C        0.67087    0.75000    0.70770    1.000
