data_functionalizedCrystal
_audit_creation_method	'EQeq! by Chris Wilmer'
_symmetry_space_group_name_H-M	'P1'
_symmetry_Int_Tables_number	1
_symmetry_cell_setting	triclinic
loop_
_symmetry_equiv_pos_as_xyz
  x,y,z
_cell_length_a	13.5039
_cell_length_b	13.5039
_cell_length_c	14.897
_cell_angle_alpha	90
_cell_angle_beta	90
_cell_angle_gamma	120
loop_
_atom_site_label
_atom_site_type_symbol
_atom_site_fract_x
_atom_site_fract_y
_atom_site_fract_z
_atom_site_charge
Mof_La	La	0.66667	0.33334	0.3309	2.322
Mof_La	La	0.33333	0.66666	0.1691	2.32
Mof_La	La	0.33333	0.66666	0.6691	2.329
Mof_La	La	0.66667	0.33334	0.8309	2.332
Mof_Cu	Cu	0.5	1.07301e-32	0.5	0.898
Mof_Cu	Cu	0.5	0.5	0.5	0.927
Mof_Cu	Cu	2.90986e-17	0.5	0.5	0.897
Mof_Cu	Cu	0.5	0	-0	0.872
Mof_Cu	Cu	-0	0.5	-0	0.871
Mof_Cu	Cu	0.5	0.5	-0	0.9
Mof_H 	H 	0.7994	0.1429	0.534	0.148
Mof_H 	H 	0.7537	0.0425	0.4545	0.123
Mof_H 	H 	0.7262	0.189	0.6201	0.153
Mof_H 	H 	0.6703	0.0678	0.6841	0.126
Mof_H 	H 	0.6479	0.9768	0.5758	0.161
Mof_H 	H 	0.3435	0.2006	0.534	0.134
Mof_H 	H 	0.2888	0.2463	0.4545	0.128
Mof_H 	H 	0.4628	0.2738	0.6201	0.153
Mof_H 	H 	0.3975	0.3297	0.6841	0.144
Mof_H 	H 	0.3289	0.3521	0.5758	0.094
Mof_H 	H 	0.8571	0.6565	0.534	0.164
Mof_H 	H 	0.9575	0.7112	0.4545	0.179
Mof_H 	H 	0.811	0.5372	0.6201	0.164
Mof_H 	H 	0.9322	0.6025	0.6841	0.179
Mof_H 	H 	0.0232	0.6711	0.5758	0.037
Mof_H 	H 	0.6565	0.8571	0.966	0.264
Mof_H 	H 	0.7112	0.9575	0.0455	0.231
Mof_H 	H 	0.5372	0.811	0.8799	0.174
Mof_H 	H 	0.6025	0.9322	0.8159	0.181
Mof_H 	H 	0.6711	0.0232	0.9242	0.042
Mof_H 	H 	0.1429	0.7994	0.966	0.25
Mof_H 	H 	0.0425	0.7537	0.0455	0.176
Mof_H 	H 	0.189	0.7262	0.8799	0.163
Mof_H 	H 	0.0678	0.6703	0.8159	0.128
Mof_H 	H 	0.9768	0.6479	0.9242	0.162
Mof_H 	H 	0.2006	0.3435	0.966	0.241
Mof_H 	H 	0.2463	0.2888	0.0455	0.185
Mof_H 	H 	0.2738	0.4628	0.8799	0.163
Mof_H 	H 	0.3297	0.3975	0.8159	0.147
Mof_H 	H 	0.3521	0.3289	0.9242	0.095
Mof_H 	H 	0.2006	0.8571	0.466	0.148
Mof_H 	H 	0.2463	0.9575	0.5455	0.163
Mof_H 	H 	0.2738	0.811	0.3799	0.16
Mof_H 	H 	0.3297	0.9322	0.3159	0.172
Mof_H 	H 	0.3521	0.0232	0.4242	0.035
Mof_H 	H 	0.6565	0.7994	0.466	0.163
Mof_H 	H 	0.7112	0.7537	0.5455	0.158
Mof_H 	H 	0.5372	0.7262	0.3799	0.161
Mof_H 	H 	0.6025	0.6703	0.3159	0.155
Mof_H 	H 	0.6711	0.6479	0.4242	0.102
Mof_H 	H 	0.1429	0.3435	0.466	0.132
Mof_H 	H 	0.0425	0.2888	0.5455	0.107
Mof_H 	H 	0.189	0.4628	0.3799	0.148
Mof_H 	H 	0.0678	0.3975	0.3159	0.118
Mof_H 	H 	0.9768	0.3289	0.4242	0.16
Mof_H 	H 	0.3435	0.1429	0.034	0.023
Mof_H 	H 	0.2888	0.0425	0.9545	0.051
Mof_H 	H 	0.4628	0.189	0.1201	0.137
Mof_H 	H 	0.3975	0.0678	0.1841	0.114
Mof_H 	H 	0.3289	0.9768	0.0758	0.159
Mof_H 	H 	0.8571	0.2006	0.034	0.045
Mof_H 	H 	0.9575	0.2463	0.9545	0.11
Mof_H 	H 	0.811	0.2738	0.1201	0.149
Mof_H 	H 	0.9322	0.3297	0.1841	0.169
Mof_H 	H 	0.0232	0.3521	0.0758	0.033
Mof_H 	H 	0.7994	0.6565	0.034	0.061
Mof_H 	H 	0.7537	0.7112	0.9545	0.104
Mof_H 	H 	0.7262	0.5372	0.1201	0.15
Mof_H 	H 	0.6703	0.6025	0.1841	0.151
Mof_H 	H 	0.6479	0.6711	0.0758	0.102
Mof_C 	C 	0.727	0.1799	0.4338	0.391
Mof_C 	C 	0.7439	0.0959	0.491	-0.331
Mof_C 	C 	0.667	0.1129	0.6362	-0.379
Mof_C 	C 	0.5608	0.1212	0.6569	0.482
Mof_C 	C 	0.4529	0.273	0.4338	0.396
Mof_C 	C 	0.352	0.2561	0.491	-0.334
Mof_C 	C 	0.4459	0.333	0.6362	-0.395
Mof_C 	C 	0.5604	0.4392	0.6569	0.49
Mof_C 	C 	0.8201	0.5471	0.4338	0.412
Mof_C 	C 	0.9041	0.648	0.491	-0.361
Mof_C 	C 	0.8871	0.5541	0.6362	-0.415
Mof_C 	C 	0.8788	0.4396	0.6569	0.501
Mof_C 	C 	0.5471	0.8201	0.0662	0.459
Mof_C 	C 	0.648	0.9041	0.009	-0.565
Mof_C 	C 	0.5541	0.8871	0.8638	-0.424
Mof_C 	C 	0.4396	0.8788	0.8431	0.507
Mof_C 	C 	0.1799	0.727	0.0662	0.44
Mof_C 	C 	0.0959	0.7439	0.009	-0.54
Mof_C 	C 	0.1129	0.667	0.8638	-0.388
Mof_C 	C 	0.1212	0.5608	0.8431	0.488
Mof_C 	C 	0.273	0.4529	0.0662	0.446
Mof_C 	C 	0.2561	0.352	0.009	-0.55
Mof_C 	C 	0.333	0.4459	0.8638	-0.405
Mof_C 	C 	0.4392	0.5604	0.8431	0.497
Mof_C 	C 	0.273	0.8201	0.5662	0.408
Mof_C 	C 	0.2561	0.9041	0.509	-0.351
Mof_C 	C 	0.333	0.8871	0.3638	-0.411
Mof_C 	C 	0.4392	0.8788	0.3431	0.499
Mof_C 	C 	0.5471	0.727	0.5662	0.404
Mof_C 	C 	0.648	0.7439	0.509	-0.353
Mof_C 	C 	0.5541	0.667	0.3638	-0.4
Mof_C 	C 	0.4396	0.5608	0.3431	0.492
Mof_C 	C 	0.1799	0.4529	0.5662	0.387
Mof_C 	C 	0.0959	0.352	0.509	-0.321
Mof_C 	C 	0.1129	0.4459	0.3638	-0.374
Mof_C 	C 	0.1212	0.5604	0.3431	0.48
Mof_C 	C 	0.4529	0.1799	0.9338	0.336
Mof_C 	C 	0.352	0.0959	0.991	-0.098
Mof_C 	C 	0.4459	0.1129	0.1362	-0.36
Mof_C 	C 	0.5604	0.1212	0.1569	0.472
Mof_C 	C 	0.8201	0.273	0.9338	0.359
Mof_C 	C 	0.9041	0.2561	0.991	-0.14
Mof_C 	C 	0.8871	0.333	0.1362	-0.397
Mof_C 	C 	0.8788	0.4392	0.1569	0.492
Mof_C 	C 	0.727	0.5471	0.9338	0.355
Mof_C 	C 	0.7439	0.648	0.991	-0.142
Mof_C 	C 	0.667	0.5541	0.1362	-0.385
Mof_C 	C 	0.5608	0.4396	0.1569	0.485
Mof_N 	N 	0.6508	0.0402	0.5573	-0.215
Mof_N 	N 	0.3894	0.3492	0.5573	-0.161
Mof_N 	N 	0.9598	0.6106	0.5573	-0.095
Mof_N 	N 	0.6106	0.9598	0.9427	-0.047
Mof_N 	N 	0.0402	0.6508	0.9427	-0.162
Mof_N 	N 	0.3492	0.3894	0.9427	-0.106
Mof_N 	N 	0.3492	0.9598	0.4427	-0.098
Mof_N 	N 	0.6106	0.6508	0.4427	-0.158
Mof_N 	N 	0.0402	0.3894	0.4427	-0.219
Mof_N 	N 	0.3894	0.0402	0.0573	-0.267
Mof_N 	N 	0.9598	0.3492	0.0573	-0.143
Mof_N 	N 	0.6508	0.6106	0.0573	-0.206
Mof_O 	O 	0.6358	0.183	0.4438	-0.534
Mof_O 	O 	0.8016	0.2409	0.3776	-0.413
Mof_O 	O 	0.4767	0.074	0.6051	-0.459
Mof_O 	O 	0.5631	0.1763	0.7244	-0.545
Mof_O 	O 	0.5472	0.3642	0.4438	-0.531
Mof_O 	O 	0.4393	0.1984	0.3776	-0.427
Mof_O 	O 	0.5973	0.5233	0.6051	-0.437
Mof_O 	O 	0.6132	0.4369	0.7244	-0.536
Mof_O 	O 	0.817	0.4528	0.4438	-0.523
Mof_O 	O 	0.7591	0.5607	0.3776	-0.415
Mof_O 	O 	0.926	0.4027	0.6051	-0.41
Mof_O 	O 	0.8237	0.3868	0.7244	-0.531
Mof_O 	O 	0.4528	0.817	0.0562	-0.551
Mof_O 	O 	0.5607	0.7591	0.1224	-0.434
Mof_O 	O 	0.4027	0.926	0.8949	-0.395
Mof_O 	O 	0.3868	0.8237	0.7756	-0.531
Mof_O 	O 	0.183	0.6358	0.0562	-0.563
Mof_O 	O 	0.2409	0.8016	0.1224	-0.434
Mof_O 	O 	0.074	0.4767	0.8949	-0.442
Mof_O 	O 	0.1763	0.5631	0.7756	-0.544
Mof_O 	O 	0.3642	0.5472	0.0562	-0.56
Mof_O 	O 	0.1984	0.4393	0.1224	-0.448
Mof_O 	O 	0.5233	0.5973	0.8949	-0.42
Mof_O 	O 	0.4369	0.6132	0.7756	-0.535
Mof_O 	O 	0.3642	0.817	0.5562	-0.523
Mof_O 	O 	0.1984	0.7591	0.6224	-0.423
Mof_O 	O 	0.5233	0.926	0.3949	-0.408
Mof_O 	O 	0.4369	0.8237	0.2756	-0.527
Mof_O 	O 	0.4528	0.6358	0.5562	-0.532
Mof_O 	O 	0.5607	0.8016	0.6224	-0.409
Mof_O 	O 	0.4027	0.4767	0.3949	-0.441
Mof_O 	O 	0.3868	0.5631	0.2756	-0.537
Mof_O 	O 	0.183	0.5472	0.5562	-0.534
Mof_O 	O 	0.2409	0.4393	0.6224	-0.422
Mof_O 	O 	0.074	0.5973	0.3949	-0.457
Mof_O 	O 	0.1763	0.6132	0.2756	-0.541
Mof_O 	O 	0.5472	0.183	0.9438	-0.498
Mof_O 	O 	0.4393	0.2409	0.8776	-0.4
Mof_O 	O 	0.5973	0.074	0.1051	-0.464
Mof_O 	O 	0.6132	0.1763	0.2244	-0.541
Mof_O 	O 	0.817	0.3642	0.9438	-0.489
Mof_O 	O 	0.7591	0.1984	0.8776	-0.401
Mof_O 	O 	0.926	0.5233	0.1051	-0.414
Mof_O 	O 	0.8237	0.4369	0.2244	-0.528
Mof_O 	O 	0.6358	0.4528	0.9438	-0.498
Mof_O 	O 	0.8016	0.5607	0.8776	-0.388
Mof_O 	O 	0.4767	0.4027	0.1051	-0.448
Mof_O 	O 	0.5631	0.3868	0.2244	-0.538
_end
