data_functionalizedCrystal
_audit_creation_method	'EQeq! by Chris Wilmer'
_symmetry_space_group_name_H-M	'P1'
_symmetry_Int_Tables_number	1
_symmetry_cell_setting	triclinic
loop_
_symmetry_equiv_pos_as_xyz
  x,y,z
_cell_length_a	13.0676
_cell_length_b	13.0676
_cell_length_c	13.0676
_cell_angle_alpha	90
_cell_angle_beta	90
_cell_angle_gamma	90
loop_
_atom_site_label
_atom_site_type_symbol
_atom_site_fract_x
_atom_site_fract_y
_atom_site_fract_z
_atom_site_charge
Mof_N 	N 	0.43504	0.45523	0.13499	-0.263
Mof_N 	N 	0.48005	0.46026	0.21418	-0.056
Mof_N 	N 	0.5207	0.4632	0.29254	-0.364
Mof_N 	N 	0.06496	0.54477	0.63499	-0.212
Mof_N 	N 	0.01995	0.53974	0.71418	-0.163
Mof_N 	N 	0.9793	0.5368	0.79254	-0.019
Mof_N 	N 	0.56496	0.95523	0.36501	-0.126
Mof_N 	N 	0.51995	0.96026	0.28582	-0.019
Mof_N 	N 	0.4793	0.9632	0.20746	-0.188
Mof_N 	N 	0.93504	0.04477	0.86501	-0.022
Mof_N 	N 	0.98005	0.03974	0.78582	0.084
Mof_N 	N 	0.0207	0.0368	0.70746	-0.386
Mof_N 	N 	0.13499	0.43504	0.45523	-0.264
Mof_N 	N 	0.21418	0.48005	0.46026	-0.057
Mof_N 	N 	0.29254	0.5207	0.4632	-0.365
Mof_N 	N 	0.63499	0.06496	0.54477	-0.213
Mof_N 	N 	0.71418	0.01995	0.53974	-0.164
Mof_N 	N 	0.79254	0.9793	0.5368	-0.02
Mof_N 	N 	0.36501	0.56496	0.95523	-0.126
Mof_N 	N 	0.28582	0.51995	0.96026	-0.019
Mof_N 	N 	0.20746	0.4793	0.9632	-0.188
Mof_N 	N 	0.86501	0.93504	0.04477	-0.022
Mof_N 	N 	0.78582	0.98005	0.03974	0.084
Mof_N 	N 	0.70746	0.0207	0.0368	-0.386
Mof_N 	N 	0.45523	0.13499	0.43504	-0.264
Mof_N 	N 	0.46026	0.21418	0.48005	-0.057
Mof_N 	N 	0.4632	0.29254	0.5207	-0.365
Mof_N 	N 	0.54477	0.63499	0.06496	-0.213
Mof_N 	N 	0.53974	0.71418	0.01995	-0.164
Mof_N 	N 	0.5368	0.79254	0.9793	-0.02
Mof_N 	N 	0.95523	0.36501	0.56496	-0.126
Mof_N 	N 	0.96026	0.28582	0.51995	-0.019
Mof_N 	N 	0.9632	0.20746	0.4793	-0.188
Mof_N 	N 	0.04477	0.86501	0.93504	-0.022
Mof_N 	N 	0.03974	0.78582	0.98005	0.084
Mof_N 	N 	0.0368	0.70746	0.0207	-0.386
Mof_N 	N 	0.56496	0.54477	0.86501	-0.124
Mof_N 	N 	0.51995	0.53974	0.78582	-0.03
Mof_N 	N 	0.4793	0.5368	0.70746	-0.34
Mof_N 	N 	0.93504	0.45523	0.36501	-0.163
Mof_N 	N 	0.98005	0.46026	0.28582	0.087
Mof_N 	N 	0.0207	0.4632	0.20746	-0.397
Mof_N 	N 	0.43504	0.04477	0.63499	-0.242
Mof_N 	N 	0.48005	0.03974	0.71418	-0.064
Mof_N 	N 	0.5207	0.0368	0.79254	-0.221
Mof_N 	N 	0.06496	0.95523	0.13499	-0.093
Mof_N 	N 	0.01995	0.96026	0.21418	-0.145
Mof_N 	N 	0.9793	0.9632	0.29254	-0.006
Mof_N 	N 	0.86501	0.56496	0.54477	-0.124
Mof_N 	N 	0.78582	0.51995	0.53974	-0.03
Mof_N 	N 	0.70746	0.4793	0.5368	-0.34
Mof_N 	N 	0.36501	0.93504	0.45523	-0.163
Mof_N 	N 	0.28582	0.98005	0.46026	0.087
Mof_N 	N 	0.20746	0.0207	0.4632	-0.397
Mof_N 	N 	0.63499	0.43504	0.04477	-0.242
Mof_N 	N 	0.71418	0.48005	0.03974	-0.064
Mof_N 	N 	0.79254	0.5207	0.0368	-0.221
Mof_N 	N 	0.13499	0.06496	0.95523	-0.093
Mof_N 	N 	0.21418	0.01995	0.96026	-0.145
Mof_N 	N 	0.29254	0.9793	0.9632	-0.006
Mof_N 	N 	0.54477	0.86501	0.56496	-0.124
Mof_N 	N 	0.53974	0.78582	0.51995	-0.03
Mof_N 	N 	0.5368	0.70746	0.4793	-0.34
Mof_N 	N 	0.45523	0.36501	0.93504	-0.163
Mof_N 	N 	0.46026	0.28582	0.98005	0.087
Mof_N 	N 	0.4632	0.20746	0.0207	-0.397
Mof_N 	N 	0.04477	0.63499	0.43504	-0.242
Mof_N 	N 	0.03974	0.71418	0.48005	-0.064
Mof_N 	N 	0.0368	0.79254	0.5207	-0.221
Mof_N 	N 	0.95523	0.13499	0.06496	-0.093
Mof_N 	N 	0.96026	0.21418	0.01995	-0.145
Mof_N 	N 	0.9632	0.29254	0.9793	-0.006
Mof_Cr	Cr	0.5	0.5	-0	0.918
Mof_Cr	Cr	-9.43791e-33	0.5	0.5	0.918
Mof_Cr	Cr	0.5	0	0.5	0.918
Mof_Cr	Cr	-0	0	-0	-0.002
Mof_K 	K 	0.5	0.5	0.5	3.083
Mof_K 	K 	-5.65631e-33	0.5	-0	1.531
Mof_K 	K 	0.5	0	-0	1.531
Mof_K 	K 	-3.78161e-33	0	0.5	1.531
_end
