# CIF file generated by openbabel 3.1.0, see https://openbabel.org
data_I
_chemical_name_common 'image0'
_cell_length_a 15.861
_cell_length_b 10.599
_cell_length_c 21.235
_cell_angle_alpha 90
_cell_angle_beta 106.914
_cell_angle_gamma 90
_space_group_name_H-M_alt 'P 1'
_space_group_name_Hall 'P 1'
loop_
    _symmetry_equiv_pos_as_xyz
    x,y,z
loop_
    _atom_site_label
    _atom_site_type_symbol
    _atom_site_fract_x
    _atom_site_fract_y
    _atom_site_fract_z
    _atom_site_occupancy
    C1       C        0.31680    0.39160    0.56370    1.000
    C2       C        0.39890    0.31630    0.59180    1.000
    C3       C        0.41280    0.20910    0.55980    1.000
    H1       H        0.37110    0.18410    0.52120    1.000
    C4       C        0.48870    0.13780    0.58470    1.000
    H2       H        0.49740    0.06440    0.56340    1.000
    C5       C        0.55170    0.17710    0.64200    1.000
    C6       C        0.53600    0.28090    0.67390    1.000
    H3       H        0.57690    0.30520    0.71310    1.000
    C7       C        0.45950    0.35200    0.64910    1.000
    H4       H        0.44980    0.42330    0.67150    1.000
    C8       C        0.63560    0.10080    0.66750    1.000
    H5       H        0.62010    0.01210    0.66510    1.000
    H6       H        0.67200    0.11450    0.63850    1.000
    C9       C        0.65900    0.07300    0.78600    1.000
    H7       H        0.59870    0.04410    0.76800    1.000
    H8       H        0.65900    0.13800    0.81810    1.000
    C10      C        0.71410    0.96390    0.82090    1.000
    C11      C        0.68640    0.89490    0.86640    1.000
    H9       H        0.63280    0.91420    0.87370    1.000
    C12      C        0.73690    0.79800    0.90120    1.000
    H10      H        0.71660    0.75160    0.93110    1.000
    C13      C        0.81790    0.76930    0.89200    1.000
    C14      C        0.87570    0.66970    0.93190    1.000
    C15      C        0.84410    0.83620    0.84510    1.000
    H11      H        0.89700    0.81600    0.83690    1.000
    C16      C        0.79290    0.93220    0.81040    1.000
    H12      H        0.81200    0.97650    0.77920    1.000
    C17      C        0.91960    0.36370    0.89520    1.000
    C18      C        0.86820    0.34070    0.82450    1.000
    C19      C        0.80160    0.25020    0.81110    1.000
    H13      H        0.79050    0.20590    0.84570    1.000
    C20      C        0.75140    0.22510    0.74690    1.000
    C21      C        0.76670    0.29630    0.69640    1.000
    H14      H        0.73270    0.28270    0.65320    1.000
    C22      C        0.83260    0.38780    0.70990    1.000
    C23      C        0.88410    0.40970    0.77400    1.000
    H15      H        0.92860    0.46990    0.78270    1.000
    C24      C        0.84520    0.46430    0.65400    1.000
    N1       N        0.68710    0.12870    0.73340    1.000
    O1       O        0.30800    0.48880    0.59910    1.000
    O2       O        0.26410    0.36620    0.51070    1.000
    O3       O        0.99210    0.42230    0.90670    1.000
    O4       O        0.88890    0.32380    0.93910    1.000
    O5       O        0.95520    0.67420    0.93620    1.000
    O6       O        0.84220    0.58740    0.96070    1.000
    O7       O        0.89170    0.56290    0.66590    1.000
    La1      La       0.89925    0.41834    0.04756    1.000
    O8       O        0.80880    0.42860    0.59600    1.000
    C25      C        0.68320    0.39160    0.93630    1.000
    C26      C        0.60110    0.31630    0.90820    1.000
    C27      C        0.58720    0.20910    0.94020    1.000
    H16      H        0.62890    0.18410    0.97880    1.000
    C28      C        0.51130    0.13780    0.91530    1.000
    H17      H        0.50260    0.06440    0.93660    1.000
    C29      C        0.44830    0.17710    0.85800    1.000
    C30      C        0.46400    0.28090    0.82610    1.000
    H18      H        0.42310    0.30520    0.78690    1.000
    C31      C        0.54050    0.35200    0.85090    1.000
    H19      H        0.55020    0.42330    0.82850    1.000
    C32      C        0.36440    0.10080    0.83250    1.000
    H20      H        0.37990    0.01210    0.83490    1.000
    H21      H        0.32800    0.11450    0.86150    1.000
    C33      C        0.34100    0.07300    0.71400    1.000
    H22      H        0.40130    0.04410    0.73200    1.000
    H23      H        0.34100    0.13800    0.68190    1.000
    C34      C        0.28590    0.96390    0.67910    1.000
    C35      C        0.31360    0.89490    0.63360    1.000
    H24      H        0.36720    0.91420    0.62630    1.000
    C36      C        0.26310    0.79800    0.59880    1.000
    H25      H        0.28340    0.75160    0.56890    1.000
    C37      C        0.18210    0.76930    0.60800    1.000
    C38      C        0.12430    0.66970    0.56810    1.000
    C39      C        0.15590    0.83620    0.65490    1.000
    H26      H        0.10300    0.81600    0.66310    1.000
    C40      C        0.20710    0.93220    0.68960    1.000
    H27      H        0.18800    0.97650    0.72080    1.000
    C41      C        0.08040    0.36370    0.60480    1.000
    C42      C        0.13180    0.34070    0.67550    1.000
    C43      C        0.19840    0.25020    0.68890    1.000
    H28      H        0.20950    0.20590    0.65430    1.000
    C44      C        0.24860    0.22510    0.75310    1.000
    C45      C        0.23330    0.29630    0.80360    1.000
    H29      H        0.26730    0.28270    0.84680    1.000
    C46      C        0.16740    0.38780    0.79010    1.000
    C47      C        0.11590    0.40970    0.72600    1.000
    H30      H        0.07140    0.46990    0.71730    1.000
    C48      C        0.15480    0.46430    0.84600    1.000
    N2       N        0.31290    0.12870    0.76660    1.000
    O9       O        0.69200    0.48880    0.90090    1.000
    O10      O        0.73590    0.36620    0.98930    1.000
    O11      O        0.00790    0.42230    0.59330    1.000
    O12      O        0.11110    0.32380    0.56090    1.000
    O13      O        0.04480    0.67420    0.56380    1.000
    O14      O        0.15780    0.58740    0.53930    1.000
    O15      O        0.10830    0.56290    0.83410    1.000
    La2      La       0.10075    0.41834    0.45244    1.000
    O16      O        0.19120    0.42860    0.90400    1.000
    C49      C        0.68320    0.60840    0.43630    1.000
    C50      C        0.60110    0.68370    0.40820    1.000
    C51      C        0.58720    0.79090    0.44020    1.000
    H31      H        0.62890    0.81590    0.47880    1.000
    C52      C        0.51130    0.86220    0.41530    1.000
    H32      H        0.50260    0.93560    0.43660    1.000
    C53      C        0.44830    0.82290    0.35800    1.000
    C54      C        0.46400    0.71910    0.32610    1.000
    H33      H        0.42310    0.69480    0.28690    1.000
    C55      C        0.54050    0.64800    0.35090    1.000
    H34      H        0.55020    0.57670    0.32850    1.000
    C56      C        0.36440    0.89920    0.33250    1.000
    H35      H        0.37990    0.98790    0.33490    1.000
    H36      H        0.32800    0.88550    0.36150    1.000
    C57      C        0.34100    0.92700    0.21400    1.000
    H37      H        0.40130    0.95590    0.23200    1.000
    H38      H        0.34100    0.86200    0.18190    1.000
    C58      C        0.28590    0.03610    0.17910    1.000
    C59      C        0.31360    0.10510    0.13360    1.000
    H39      H        0.36720    0.08580    0.12630    1.000
    C60      C        0.26310    0.20200    0.09880    1.000
    H40      H        0.28340    0.24840    0.06890    1.000
    C61      C        0.18210    0.23070    0.10800    1.000
    C62      C        0.12430    0.33030    0.06810    1.000
    C63      C        0.15590    0.16380    0.15490    1.000
    H41      H        0.10300    0.18400    0.16310    1.000
    C64      C        0.20710    0.06780    0.18960    1.000
    H42      H        0.18800    0.02350    0.22080    1.000
    C65      C        0.08040    0.63630    0.10480    1.000
    C66      C        0.13180    0.65930    0.17550    1.000
    C67      C        0.19840    0.74980    0.18890    1.000
    H43      H        0.20950    0.79410    0.15430    1.000
    C68      C        0.24860    0.77490    0.25310    1.000
    C69      C        0.23330    0.70370    0.30360    1.000
    H44      H        0.26730    0.71730    0.34680    1.000
    C70      C        0.16740    0.61220    0.29010    1.000
    C71      C        0.11590    0.59030    0.22600    1.000
    H45      H        0.07140    0.53010    0.21730    1.000
    C72      C        0.15480    0.53570    0.34600    1.000
    N3       N        0.31290    0.87130    0.26660    1.000
    O17      O        0.69200    0.51120    0.40090    1.000
    O18      O        0.73590    0.63380    0.48930    1.000
    O19      O        0.00790    0.57770    0.09330    1.000
    O20      O        0.11110    0.67620    0.06090    1.000
    O21      O        0.04480    0.32580    0.06380    1.000
    O22      O        0.15780    0.41260    0.03930    1.000
    O23      O        0.10830    0.43710    0.33410    1.000
    La3      La       0.10075    0.58166    0.95244    1.000
    O24      O        0.19120    0.57140    0.40400    1.000
    C73      C        0.31680    0.60840    0.06370    1.000
    C74      C        0.39890    0.68370    0.09180    1.000
    C75      C        0.41280    0.79090    0.05980    1.000
    H46      H        0.37110    0.81590    0.02120    1.000
    C76      C        0.48870    0.86220    0.08470    1.000
    H47      H        0.49740    0.93560    0.06340    1.000
    C77      C        0.55170    0.82290    0.14200    1.000
    C78      C        0.53600    0.71910    0.17390    1.000
    H48      H        0.57690    0.69480    0.21310    1.000
    C79      C        0.45950    0.64800    0.14910    1.000
    H49      H        0.44980    0.57670    0.17150    1.000
    C80      C        0.63560    0.89920    0.16750    1.000
    H50      H        0.62010    0.98790    0.16510    1.000
    H51      H        0.67200    0.88550    0.13850    1.000
    C81      C        0.65900    0.92700    0.28600    1.000
    H52      H        0.59870    0.95590    0.26800    1.000
    H53      H        0.65900    0.86200    0.31810    1.000
    C82      C        0.71410    0.03610    0.32090    1.000
    C83      C        0.68640    0.10510    0.36640    1.000
    H54      H        0.63280    0.08580    0.37370    1.000
    C84      C        0.73690    0.20200    0.40120    1.000
    H55      H        0.71660    0.24840    0.43110    1.000
    C85      C        0.81790    0.23070    0.39200    1.000
    C86      C        0.87570    0.33030    0.43190    1.000
    C87      C        0.84410    0.16380    0.34510    1.000
    H56      H        0.89700    0.18400    0.33690    1.000
    C88      C        0.79290    0.06780    0.31040    1.000
    H57      H        0.81200    0.02350    0.27920    1.000
    C89      C        0.91960    0.63630    0.39520    1.000
    C90      C        0.86820    0.65930    0.32450    1.000
    C91      C        0.80160    0.74980    0.31110    1.000
    H58      H        0.79050    0.79410    0.34570    1.000
    C92      C        0.75140    0.77490    0.24690    1.000
    C93      C        0.76670    0.70370    0.19640    1.000
    H59      H        0.73270    0.71730    0.15320    1.000
    C94      C        0.83260    0.61220    0.20990    1.000
    C95      C        0.88410    0.59030    0.27400    1.000
    H60      H        0.92860    0.53010    0.28270    1.000
    C96      C        0.84520    0.53570    0.15400    1.000
    N4       N        0.68710    0.87130    0.23340    1.000
    O25      O        0.30800    0.51120    0.09910    1.000
    O26      O        0.26410    0.63380    0.01070    1.000
    O27      O        0.99210    0.57770    0.40670    1.000
    O28      O        0.88890    0.67620    0.43910    1.000
    O29      O        0.95520    0.32580    0.43620    1.000
    O30      O        0.84220    0.41260    0.46070    1.000
    O31      O        0.89170    0.43710    0.16590    1.000
    La4      La       0.89925    0.58166    0.54756    1.000
    O32      O        0.80880    0.57140    0.09600    1.000
