data_functionalizedCrystal
_audit_creation_method	'EQeq! by Chris Wilmer'
_symmetry_space_group_name_H-M	'P1'
_symmetry_Int_Tables_number	1
_symmetry_cell_setting	triclinic
loop_
_symmetry_equiv_pos_as_xyz
  x,y,z
_cell_length_a	32.1397
_cell_length_b	32.1397
_cell_length_c	16.6976
_cell_angle_alpha	90
_cell_angle_beta	90
_cell_angle_gamma	120
loop_
_atom_site_label
_atom_site_type_symbol
_atom_site_fract_x
_atom_site_fract_y
_atom_site_fract_z
_atom_site_charge
Mof_O 	O 	0.24994	0.66	0.9123	-0.395
Mof_C 	C 	0.1776	0.5515	0.7968	0.083
Mof_H 	H 	0.1884	0.5319	0.8182	0.019
Mof_C 	C 	0.143	0.5343	0.7372	-0.178
Mof_H 	H 	0.1317	0.5035	0.717	0.093
Mof_O 	O 	0.34	0.58994	0.9123	-0.395
Mof_C 	C 	0.4485	0.6261	0.7968	0.083
Mof_H 	H 	0.4681	0.6565	0.8182	0.02
Mof_C 	C 	0.4657	0.6087	0.7372	-0.177
Mof_H 	H 	0.4965	0.6282	0.717	0.093
Mof_O 	O 	0.41006	0.75006	0.9123	-0.394
Mof_C 	C 	0.3739	0.8224	0.7968	0.084
Mof_H 	H 	0.3435	0.8116	0.8182	0.021
Mof_C 	C 	0.3913	0.857	0.7372	-0.176
Mof_H 	H 	0.3718	0.8683	0.717	0.094
Mof_O 	O 	0.75006	0.34	0.9123	-0.394
Mof_C 	C 	0.8224	0.4485	0.7968	0.084
Mof_H 	H 	0.8116	0.4681	0.8182	0.021
Mof_C 	C 	0.857	0.4657	0.7372	-0.176
Mof_H 	H 	0.8683	0.4965	0.717	0.095
Mof_O 	O 	0.66	0.41006	0.9123	-0.394
Mof_C 	C 	0.5515	0.3739	0.7968	0.084
Mof_H 	H 	0.5319	0.3435	0.8182	0.02
Mof_C 	C 	0.5343	0.3913	0.7372	-0.176
Mof_H 	H 	0.5035	0.3718	0.717	0.094
Mof_O 	O 	0.58994	0.24994	0.9123	-0.395
Mof_C 	C 	0.6261	0.1776	0.7968	0.084
Mof_H 	H 	0.6565	0.1884	0.8182	0.02
Mof_C 	C 	0.6087	0.143	0.7372	-0.177
Mof_H 	H 	0.6282	0.1317	0.717	0.094
Mof_O 	O 	0.66	0.24994	0.0877	-0.458
Mof_C 	C 	0.5515	0.1776	0.2032	0.094
Mof_H 	H 	0.5319	0.1884	0.1818	-0.004
Mof_C 	C 	0.5343	0.143	0.2628	-0.196
Mof_H 	H 	0.5035	0.1317	0.283	0.089
Mof_O 	O 	0.58994	0.34	0.0877	-0.458
Mof_C 	C 	0.6261	0.4485	0.2032	0.094
Mof_H 	H 	0.6565	0.4681	0.1818	-0.003
Mof_C 	C 	0.6087	0.4657	0.2628	-0.195
Mof_H 	H 	0.6282	0.4965	0.283	0.09
Mof_O 	O 	0.75006	0.41006	0.0877	-0.457
Mof_C 	C 	0.8224	0.3739	0.2032	0.094
Mof_H 	H 	0.8116	0.3435	0.1818	-0.003
Mof_C 	C 	0.857	0.3913	0.2628	-0.195
Mof_H 	H 	0.8683	0.3718	0.283	0.09
Mof_O 	O 	0.34	0.75006	0.0877	-0.457
Mof_C 	C 	0.4485	0.8224	0.2032	0.094
Mof_H 	H 	0.4681	0.8116	0.1818	-0.003
Mof_C 	C 	0.4657	0.857	0.2628	-0.195
Mof_H 	H 	0.4965	0.8683	0.283	0.09
Mof_O 	O 	0.41006	0.66	0.0877	-0.457
Mof_C 	C 	0.3739	0.5515	0.2032	0.094
Mof_H 	H 	0.3435	0.5319	0.1818	-0.003
Mof_C 	C 	0.3913	0.5343	0.2628	-0.195
Mof_H 	H 	0.3718	0.5035	0.283	0.09
Mof_O 	O 	0.24994	0.58994	0.0877	-0.458
Mof_C 	C 	0.1776	0.6261	0.2032	0.094
Mof_H 	H 	0.1884	0.6565	0.1818	-0.003
Mof_C 	C 	0.143	0.6087	0.2628	-0.196
Mof_H 	H 	0.1317	0.6282	0.283	0.09
Mof_O 	O 	0.75006	0.34	0.0877	-0.457
Mof_C 	C 	0.8224	0.4485	0.2032	0.094
Mof_H 	H 	0.8116	0.4681	0.1818	-0.003
Mof_C 	C 	0.857	0.4657	0.2628	-0.195
Mof_H 	H 	0.8683	0.4965	0.283	0.09
Mof_O 	O 	0.66	0.41006	0.0877	-0.457
Mof_C 	C 	0.5515	0.3739	0.2032	0.094
Mof_H 	H 	0.5319	0.3435	0.1818	-0.003
Mof_C 	C 	0.5343	0.3913	0.2628	-0.195
Mof_H 	H 	0.5035	0.3718	0.283	0.09
Mof_O 	O 	0.58994	0.24994	0.0877	-0.458
Mof_C 	C 	0.6261	0.1776	0.2032	0.094
Mof_H 	H 	0.6565	0.1884	0.1818	-0.003
Mof_C 	C 	0.6087	0.143	0.2628	-0.196
Mof_H 	H 	0.6282	0.1317	0.283	0.09
Mof_O 	O 	0.24994	0.66	0.0877	-0.458
Mof_C 	C 	0.1776	0.5515	0.2032	0.094
Mof_H 	H 	0.1884	0.5319	0.1818	-0.004
Mof_C 	C 	0.143	0.5343	0.2628	-0.196
Mof_H 	H 	0.1317	0.5035	0.283	0.089
Mof_O 	O 	0.34	0.58994	0.0877	-0.458
Mof_C 	C 	0.4485	0.6261	0.2032	0.094
Mof_H 	H 	0.4681	0.6565	0.1818	-0.003
Mof_C 	C 	0.4657	0.6087	0.2628	-0.195
Mof_H 	H 	0.4965	0.6282	0.283	0.09
Mof_O 	O 	0.41006	0.75006	0.0877	-0.457
Mof_C 	C 	0.3739	0.8224	0.2032	0.094
Mof_H 	H 	0.3435	0.8116	0.1818	-0.003
Mof_C 	C 	0.3913	0.857	0.2628	-0.195
Mof_H 	H 	0.3718	0.8683	0.283	0.09
Mof_O 	O 	0.34	0.75006	0.9123	-0.394
Mof_C 	C 	0.4485	0.8224	0.7968	0.084
Mof_H 	H 	0.4681	0.8116	0.8182	0.021
Mof_C 	C 	0.4657	0.857	0.7372	-0.176
Mof_H 	H 	0.4965	0.8683	0.717	0.095
Mof_O 	O 	0.41006	0.66	0.9123	-0.394
Mof_C 	C 	0.3739	0.5515	0.7968	0.084
Mof_H 	H 	0.3435	0.5319	0.8182	0.02
Mof_C 	C 	0.3913	0.5343	0.7372	-0.176
Mof_H 	H 	0.3718	0.5035	0.717	0.094
Mof_O 	O 	0.24994	0.58994	0.9123	-0.395
Mof_C 	C 	0.1776	0.6261	0.7968	0.084
Mof_H 	H 	0.1884	0.6565	0.8182	0.02
Mof_C 	C 	0.143	0.6087	0.7372	-0.177
Mof_H 	H 	0.1317	0.6282	0.717	0.094
Mof_O 	O 	0.66	0.24994	0.9123	-0.394
Mof_C 	C 	0.5515	0.1776	0.7968	0.084
Mof_H 	H 	0.5319	0.1884	0.8182	0.02
Mof_C 	C 	0.5343	0.143	0.7372	-0.177
Mof_H 	H 	0.5035	0.1317	0.717	0.094
Mof_O 	O 	0.58994	0.34	0.9123	-0.394
Mof_C 	C 	0.6261	0.4485	0.7968	0.084
Mof_H 	H 	0.6565	0.4681	0.8182	0.021
Mof_C 	C 	0.6087	0.4657	0.7372	-0.176
Mof_H 	H 	0.6282	0.4965	0.717	0.094
Mof_O 	O 	0.75006	0.41006	0.9123	-0.394
Mof_C 	C 	0.8224	0.3739	0.7968	0.084
Mof_H 	H 	0.8116	0.3435	0.8182	0.021
Mof_C 	C 	0.857	0.3913	0.7372	-0.176
Mof_H 	H 	0.8683	0.3718	0.717	0.094
Mof_Co	Co	0.29705	0.70295	-0	1.148
Mof_Co	Co	0.29705	0.5941	-0	1.148
Mof_Co	Co	0.4059	0.70295	-0	1.148
Mof_Co	Co	0.70295	0.29705	-0	1.148
Mof_Co	Co	0.70295	0.4059	-0	1.148
Mof_Co	Co	0.5941	0.29705	-0	1.148
Mof_C 	C 	0.1006	0.5503	0.567	0.106
Mof_C 	C 	0.0393	0.51965	0.669	0.104
Mof_C 	C 	0.087	0.5435	0.6437	-0.162
Mof_C 	C 	0.1502	0.5751	0.5422	-0.089
Mof_H 	H 	0.177	0.5885	0.5754	0.065
Mof_C 	C 	0.0234	0.5117	0.7498	-0.095
Mof_H 	H 	0.043	0.5215	0.7949	0.076
Mof_C 	C 	0.1253	0.56265	0.7074	0.141
Mof_C 	C 	0.1959	0.59795	0.8244	-0.133
Mof_C 	C 	0.2361	0.61805	0.8891	0.395
Mof_C 	C 	0.4497	0.5503	0.567	0.105
Mof_C 	C 	0.48035	0.51965	0.669	0.101
Mof_C 	C 	0.4565	0.5435	0.6437	-0.16
Mof_C 	C 	0.4249	0.5751	0.5422	-0.089
Mof_H 	H 	0.4115	0.5885	0.5754	0.065
Mof_C 	C 	0.4883	0.5117	0.7498	-0.082
Mof_H 	H 	0.4785	0.5215	0.7949	0.072
Mof_C 	C 	0.43735	0.56265	0.7074	0.141
Mof_C 	C 	0.40205	0.59795	0.8244	-0.132
Mof_C 	C 	0.38195	0.61805	0.8891	0.395
Mof_C 	C 	0.4497	0.8994	0.567	0.106
Mof_C 	C 	0.48035	0.9607	0.669	0.102
Mof_C 	C 	0.4565	0.913	0.6437	-0.159
Mof_C 	C 	0.4249	0.8498	0.5422	-0.089
Mof_H 	H 	0.4115	0.823	0.5754	0.065
Mof_C 	C 	0.4883	0.9766	0.7498	-0.071
Mof_H 	H 	0.4785	0.957	0.7949	0.069
Mof_C 	C 	0.43735	0.8747	0.7074	0.141
Mof_C 	C 	0.40205	0.8041	0.8244	-0.132
Mof_C 	C 	0.38195	0.7639	0.8891	0.395
Mof_C 	C 	0.8994	0.4497	0.567	0.106
Mof_C 	C 	0.9607	0.48035	0.669	0.102
Mof_C 	C 	0.913	0.4565	0.6437	-0.159
Mof_C 	C 	0.8498	0.4249	0.5422	-0.089
Mof_H 	H 	0.823	0.4115	0.5754	0.065
Mof_C 	C 	0.9766	0.4883	0.7498	-0.071
Mof_H 	H 	0.957	0.4785	0.7949	0.069
Mof_C 	C 	0.8747	0.43735	0.7074	0.141
Mof_C 	C 	0.8041	0.40205	0.8244	-0.132
Mof_C 	C 	0.7639	0.38195	0.8891	0.395
Mof_C 	C 	0.5503	0.4497	0.567	0.105
Mof_C 	C 	0.51965	0.48035	0.669	0.101
Mof_C 	C 	0.5435	0.4565	0.6437	-0.16
Mof_C 	C 	0.5751	0.4249	0.5422	-0.089
Mof_H 	H 	0.5885	0.4115	0.5754	0.065
Mof_C 	C 	0.5117	0.4883	0.7498	-0.082
Mof_H 	H 	0.5215	0.4785	0.7949	0.072
Mof_C 	C 	0.56265	0.43735	0.7074	0.141
Mof_C 	C 	0.59795	0.40205	0.8244	-0.132
Mof_C 	C 	0.61805	0.38195	0.8891	0.395
Mof_C 	C 	0.5503	0.1006	0.567	0.106
Mof_C 	C 	0.51965	0.0393	0.669	0.104
Mof_C 	C 	0.5435	0.087	0.6437	-0.162
Mof_C 	C 	0.5751	0.1502	0.5422	-0.089
Mof_H 	H 	0.5885	0.177	0.5754	0.065
Mof_C 	C 	0.5117	0.0234	0.7498	-0.095
Mof_H 	H 	0.5215	0.043	0.7949	0.076
Mof_C 	C 	0.56265	0.1253	0.7074	0.141
Mof_C 	C 	0.59795	0.1959	0.8244	-0.133
Mof_C 	C 	0.61805	0.2361	0.8891	0.395
Mof_C 	C 	0.5503	0.1006	0.433	0.107
Mof_C 	C 	0.51965	0.0393	0.331	0.1
Mof_C 	C 	0.5435	0.087	0.3563	-0.167
Mof_C 	C 	0.5751	0.1502	0.4578	-0.091
Mof_H 	H 	0.5885	0.177	0.4246	0.065
Mof_C 	C 	0.5117	0.0234	0.2502	-0.102
Mof_H 	H 	0.5215	0.043	0.2051	0.054
Mof_C 	C 	0.56265	0.1253	0.2926	0.147
Mof_C 	C 	0.59795	0.1959	0.1756	-0.163
Mof_C 	C 	0.61805	0.2361	0.1109	0.401
Mof_C 	C 	0.5503	0.4497	0.433	0.106
Mof_C 	C 	0.51965	0.48035	0.331	0.097
Mof_C 	C 	0.5435	0.4565	0.3563	-0.166
Mof_C 	C 	0.5751	0.4249	0.4578	-0.09
Mof_H 	H 	0.5885	0.4115	0.4246	0.065
Mof_C 	C 	0.5117	0.4883	0.2502	-0.089
Mof_H 	H 	0.5215	0.4785	0.2051	0.05
Mof_C 	C 	0.56265	0.43735	0.2926	0.146
Mof_C 	C 	0.59795	0.40205	0.1756	-0.163
Mof_C 	C 	0.61805	0.38195	0.1109	0.401
Mof_C 	C 	0.8994	0.4497	0.433	0.107
Mof_C 	C 	0.9607	0.48035	0.331	0.097
Mof_C 	C 	0.913	0.4565	0.3563	-0.165
Mof_C 	C 	0.8498	0.4249	0.4578	-0.09
Mof_H 	H 	0.823	0.4115	0.4246	0.065
Mof_C 	C 	0.9766	0.4883	0.2502	-0.078
Mof_H 	H 	0.957	0.4785	0.2051	0.047
Mof_C 	C 	0.8747	0.43735	0.2926	0.146
Mof_C 	C 	0.8041	0.40205	0.1756	-0.163
Mof_C 	C 	0.7639	0.38195	0.1109	0.401
Mof_C 	C 	0.4497	0.8994	0.433	0.107
Mof_C 	C 	0.48035	0.9607	0.331	0.097
Mof_C 	C 	0.4565	0.913	0.3563	-0.165
Mof_C 	C 	0.4249	0.8498	0.4578	-0.09
Mof_H 	H 	0.4115	0.823	0.4246	0.065
Mof_C 	C 	0.4883	0.9766	0.2502	-0.078
Mof_H 	H 	0.4785	0.957	0.2051	0.047
Mof_C 	C 	0.43735	0.8747	0.2926	0.146
Mof_C 	C 	0.40205	0.8041	0.1756	-0.163
Mof_C 	C 	0.38195	0.7639	0.1109	0.401
Mof_C 	C 	0.4497	0.5503	0.433	0.106
Mof_C 	C 	0.48035	0.51965	0.331	0.097
Mof_C 	C 	0.4565	0.5435	0.3563	-0.166
Mof_C 	C 	0.4249	0.5751	0.4578	-0.09
Mof_H 	H 	0.4115	0.5885	0.4246	0.065
Mof_C 	C 	0.4883	0.5117	0.2502	-0.089
Mof_H 	H 	0.4785	0.5215	0.2051	0.05
Mof_C 	C 	0.43735	0.56265	0.2926	0.146
Mof_C 	C 	0.40205	0.59795	0.1756	-0.163
Mof_C 	C 	0.38195	0.61805	0.1109	0.401
Mof_C 	C 	0.1006	0.5503	0.433	0.107
Mof_C 	C 	0.0393	0.51965	0.331	0.1
Mof_C 	C 	0.087	0.5435	0.3563	-0.167
Mof_C 	C 	0.1502	0.5751	0.4578	-0.091
Mof_H 	H 	0.177	0.5885	0.4246	0.065
Mof_C 	C 	0.0234	0.5117	0.2502	-0.102
Mof_H 	H 	0.043	0.5215	0.2051	0.054
Mof_C 	C 	0.1253	0.56265	0.2926	0.147
Mof_C 	C 	0.1959	0.59795	0.1756	-0.163
Mof_C 	C 	0.2361	0.61805	0.1109	0.401
Mof_N 	N 	0.0709	0.53545	0.5	-0.288
Mof_N 	N 	0.46455	0.53545	0.5	-0.288
Mof_N 	N 	0.46455	0.9291	0.5	-0.286
Mof_N 	N 	0.9291	0.46455	0.5	-0.286
Mof_N 	N 	0.53545	0.46455	0.5	-0.288
Mof_N 	N 	0.53545	0.0709	0.5	-0.288
Mof_O 	O 	0.33333	0.66667	-0	-0.626
Mof_O 	O 	0.66667	0.33333	-0	-0.626
Mof_Co	Co	-3.18122e-17	0.5	0.5	1.105
Mof_Co	Co	0.5	0.5	0.5	1.107
Mof_Co	Co	0.5	0	0.5	1.105
Mof_N 	N 	-8.81855e-18	0.5	0.6171	-0.291
Mof_N 	N 	0.5	0.5	0.6171	-0.288
Mof_N 	N 	0.5	6.75993e-33	0.6171	-0.291
Mof_N 	N 	0.5	0	0.3829	-0.292
Mof_N 	N 	0.5	0.5	0.3829	-0.289
Mof_N 	N 	-2.43617e-17	0.5	0.3829	-0.292
_end
