# CIF file generated by openbabel 3.1.0, see https://openbabel.org
data_I
_chemical_name_common 'image0'
_cell_length_a 7.017
_cell_length_b 26.637
_cell_length_c 18.062
_cell_angle_alpha 90
_cell_angle_beta 98.27
_cell_angle_gamma 90
_space_group_name_H-M_alt 'P 1'
_space_group_name_Hall 'P 1'
loop_
    _symmetry_equiv_pos_as_xyz
    x,y,z
loop_
    _atom_site_label
    _atom_site_type_symbol
    _atom_site_fract_x
    _atom_site_fract_y
    _atom_site_fract_z
    _atom_site_occupancy
    Sm1      Sm       0.68337    0.42946    0.93295    1.000
    O1       O        0.05890    0.00490    0.92070    1.000
    Sm2      Sm       0.76281    0.06791    0.04918    1.000
    O2       O        0.57020    0.03770    0.94470    1.000
    O3       O        0.43660    0.97580    0.87170    1.000
    O4       O        0.69070    0.05150    0.55970    1.000
    O5       O        0.58400    0.97960    0.60270    1.000
    O6       O        0.95460    0.08120    0.94860    1.000
    O7       O        0.15000    0.96310    0.66910    1.000
    O8       O        0.18470    0.01930    0.58190    1.000
    O9       O        0.43740    0.11550    0.04510    1.000
    O10      O        0.70280    0.15710    0.01450    1.000
    O11      O        0.66800    0.34110    0.97410    1.000
    O12      O        0.39060    0.38100    0.95890    1.000
    N1       N        0.58900    0.29040    0.76950    1.000
    N2       N        0.02100    0.29520    0.69150    1.000
    C1       C        0.09600    0.27770    0.75740    1.000
    H1       H        0.13380    0.30080    0.79520    1.000
    C2       C        0.12300    0.22700    0.77450    1.000
    H2       H        0.18210    0.21740    0.82180    1.000
    C3       C        0.06110    0.19040    0.72040    1.000
    C4       C        0.98600    0.20910    0.64910    1.000
    H3       H        0.95100    0.18700    0.60960    1.000
    C5       C        0.96500    0.26130    0.63770    1.000
    H4       H        0.90860    0.27280    0.59090    1.000
    C6       C        0.07400    0.13580    0.73820    1.000
    C7       C        0.04700    0.11980    0.81030    1.000
    H5       H        0.02500    0.14330    0.84620    1.000
    C8       C        0.05330    0.06900    0.82760    1.000
    C9       C        0.08160    0.03300    0.77360    1.000
    H6       H        0.08300    0.99900    0.78540    1.000
    C10      C        0.10830    0.04900    0.70070    1.000
    C11      C        0.10210    0.09980    0.68360    1.000
    H7       H        0.11660    0.11020    0.63560    1.000
    C12      C        0.14650    0.00830    0.64730    1.000
    C13      C        0.02110    0.05000    0.90520    1.000
    C14      C        0.65200    0.26050    0.82890    1.000
    H8       H        0.69970    0.27570    0.87400    1.000
    C15      C        0.64700    0.20840    0.82570    1.000
    H9       H        0.68690    0.18970    0.86870    1.000
    C16      C        0.58440    0.18430    0.75860    1.000
    C17      C        0.52300    0.21530    0.69710    1.000
    H10      H        0.47970    0.20100    0.65090    1.000
    C18      C        0.52700    0.26730    0.70440    1.000
    H11      H        0.48530    0.28680    0.66250    1.000
    C19      C        0.58280    0.12850    0.75320    1.000
    C20      C        0.55660    0.10030    0.81560    1.000
    H12      H        0.54260    0.11660    0.86010    1.000
    C21      C        0.55080    0.04740    0.81280    1.000
    C22      C        0.57180    0.02350    0.74500    1.000
    H13      H        0.56330    0.98870    0.74160    1.000
    C23      C        0.60520    0.05140    0.68290    1.000
    C24      C        0.60680    0.10400    0.68600    1.000
    H14      H        0.62370    0.12270    0.64390    1.000
    C25      C        0.51970    0.01750    0.88090    1.000
    C26      C        0.62840    0.02610    0.61010    1.000
    C27      C        0.52300    0.15500    0.01950    1.000
    C28      C        0.40260    0.20170    0.00100    1.000
    C29      C        0.20080    0.19850    0.98750    1.000
    H15      H        0.13950    0.16770    0.99060    1.000
    C30      C        0.09390    0.24200    0.96960    1.000
    H16      H        0.96030    0.23980    0.96020    1.000
    C31      C        0.18110    0.28880    0.96520    1.000
    H17      H        0.10710    0.31740    0.95340    1.000
    C32      C        0.38330    0.29170    0.97910    1.000
    C33      C        0.48740    0.34090    0.97070    1.000
    C34      C        0.49080    0.24840    0.99520    1.000
    H18      H        0.62450    0.25040    0.00240    1.000
    Sm3      Sm       0.31663    0.92946    0.56705    1.000
    O13      O        0.94110    0.50490    0.57930    1.000
    Sm4      Sm       0.23719    0.56791    0.45082    1.000
    O14      O        0.42980    0.53770    0.55530    1.000
    O15      O        0.56340    0.47580    0.62830    1.000
    O16      O        0.30930    0.55150    0.94030    1.000
    O17      O        0.41600    0.47960    0.89730    1.000
    O18      O        0.04540    0.58120    0.55140    1.000
    O19      O        0.85000    0.46310    0.83090    1.000
    O20      O        0.81530    0.51930    0.91810    1.000
    O21      O        0.56260    0.61550    0.45490    1.000
    O22      O        0.29720    0.65710    0.48550    1.000
    O23      O        0.33200    0.84110    0.52590    1.000
    O24      O        0.60940    0.88100    0.54110    1.000
    N3       N        0.41100    0.79040    0.73050    1.000
    N4       N        0.97900    0.79520    0.80850    1.000
    C35      C        0.90400    0.77770    0.74260    1.000
    H19      H        0.86620    0.80080    0.70480    1.000
    C36      C        0.87700    0.72700    0.72550    1.000
    H20      H        0.81790    0.71740    0.67820    1.000
    C37      C        0.93890    0.69040    0.77960    1.000
    C38      C        0.01400    0.70910    0.85090    1.000
    H21      H        0.04900    0.68700    0.89040    1.000
    C39      C        0.03500    0.76130    0.86230    1.000
    H22      H        0.09140    0.77280    0.90910    1.000
    C40      C        0.92600    0.63580    0.76180    1.000
    C41      C        0.95300    0.61980    0.68970    1.000
    H23      H        0.97500    0.64330    0.65380    1.000
    C42      C        0.94670    0.56900    0.67240    1.000
    C43      C        0.91840    0.53300    0.72640    1.000
    H24      H        0.91700    0.49900    0.71460    1.000
    C44      C        0.89170    0.54900    0.79930    1.000
    C45      C        0.89790    0.59980    0.81640    1.000
    H25      H        0.88340    0.61020    0.86440    1.000
    C46      C        0.85350    0.50830    0.85270    1.000
    C47      C        0.97890    0.55000    0.59480    1.000
    C48      C        0.34800    0.76050    0.67110    1.000
    H26      H        0.30030    0.77570    0.62600    1.000
    C49      C        0.35300    0.70840    0.67430    1.000
    H27      H        0.31310    0.68970    0.63130    1.000
    C50      C        0.41560    0.68430    0.74140    1.000
    C51      C        0.47700    0.71530    0.80290    1.000
    H28      H        0.52030    0.70100    0.84910    1.000
    C52      C        0.47300    0.76730    0.79560    1.000
    H29      H        0.51470    0.78680    0.83750    1.000
    C53      C        0.41720    0.62850    0.74680    1.000
    C54      C        0.44340    0.60030    0.68440    1.000
    H30      H        0.45740    0.61660    0.63990    1.000
    C55      C        0.44920    0.54740    0.68720    1.000
    C56      C        0.42820    0.52350    0.75500    1.000
    H31      H        0.43670    0.48870    0.75840    1.000
    C57      C        0.39480    0.55140    0.81710    1.000
    C58      C        0.39320    0.60400    0.81400    1.000
    H32      H        0.37630    0.62270    0.85610    1.000
    C59      C        0.48030    0.51750    0.61910    1.000
    C60      C        0.37160    0.52610    0.88990    1.000
    C61      C        0.47700    0.65500    0.48050    1.000
    C62      C        0.59740    0.70170    0.49900    1.000
    C63      C        0.79920    0.69850    0.51250    1.000
    H33      H        0.86050    0.66770    0.50940    1.000
    C64      C        0.90610    0.74200    0.53040    1.000
    H34      H        0.03970    0.73980    0.53980    1.000
    C65      C        0.81890    0.78880    0.53480    1.000
    H35      H        0.89290    0.81740    0.54660    1.000
    C66      C        0.61670    0.79170    0.52090    1.000
    C67      C        0.51260    0.84090    0.52930    1.000
    C68      C        0.50920    0.74840    0.50480    1.000
    H36      H        0.37550    0.75040    0.49760    1.000
    Sm5      Sm       0.31663    0.57054    0.06705    1.000
    O25      O        0.94110    0.99510    0.07930    1.000
    Sm6      Sm       0.23719    0.93209    0.95082    1.000
    O26      O        0.42980    0.96230    0.05530    1.000
    O27      O        0.56340    0.02420    0.12830    1.000
    O28      O        0.30930    0.94850    0.44030    1.000
    O29      O        0.41600    0.02040    0.39730    1.000
    O30      O        0.04540    0.91880    0.05140    1.000
    O31      O        0.85000    0.03690    0.33090    1.000
    O32      O        0.81530    0.98070    0.41810    1.000
    O33      O        0.56260    0.88450    0.95490    1.000
    O34      O        0.29720    0.84290    0.98550    1.000
    O35      O        0.33200    0.65890    0.02590    1.000
    O36      O        0.60940    0.61900    0.04110    1.000
    N5       N        0.41100    0.70960    0.23050    1.000
    N6       N        0.97900    0.70480    0.30850    1.000
    C69      C        0.90400    0.72230    0.24260    1.000
    H37      H        0.86620    0.69920    0.20480    1.000
    C70      C        0.87700    0.77300    0.22550    1.000
    H38      H        0.81790    0.78260    0.17820    1.000
    C71      C        0.93890    0.80960    0.27960    1.000
    C72      C        0.01400    0.79090    0.35090    1.000
    H39      H        0.04900    0.81300    0.39040    1.000
    C73      C        0.03500    0.73870    0.36230    1.000
    H40      H        0.09140    0.72720    0.40910    1.000
    C74      C        0.92600    0.86420    0.26180    1.000
    C75      C        0.95300    0.88020    0.18970    1.000
    H41      H        0.97500    0.85670    0.15380    1.000
    C76      C        0.94670    0.93100    0.17240    1.000
    C77      C        0.91840    0.96700    0.22640    1.000
    H42      H        0.91700    0.00100    0.21460    1.000
    C78      C        0.89170    0.95100    0.29930    1.000
    C79      C        0.89790    0.90020    0.31640    1.000
    H43      H        0.88340    0.88980    0.36440    1.000
    C80      C        0.85350    0.99170    0.35270    1.000
    C81      C        0.97890    0.95000    0.09480    1.000
    C82      C        0.34800    0.73950    0.17110    1.000
    H44      H        0.30030    0.72430    0.12600    1.000
    C83      C        0.35300    0.79160    0.17430    1.000
    H45      H        0.31310    0.81030    0.13130    1.000
    C84      C        0.41560    0.81570    0.24140    1.000
    C85      C        0.47700    0.78470    0.30290    1.000
    H46      H        0.52030    0.79900    0.34910    1.000
    C86      C        0.47300    0.73270    0.29560    1.000
    H47      H        0.51470    0.71320    0.33750    1.000
    C87      C        0.41720    0.87150    0.24680    1.000
    C88      C        0.44340    0.89970    0.18440    1.000
    H48      H        0.45740    0.88340    0.13990    1.000
    C89      C        0.44920    0.95260    0.18720    1.000
    C90      C        0.42820    0.97650    0.25500    1.000
    H49      H        0.43670    0.01130    0.25840    1.000
    C91      C        0.39480    0.94860    0.31710    1.000
    C92      C        0.39320    0.89600    0.31400    1.000
    H50      H        0.37630    0.87730    0.35610    1.000
    C93      C        0.48030    0.98250    0.11910    1.000
    C94      C        0.37160    0.97390    0.38990    1.000
    C95      C        0.47700    0.84500    0.98050    1.000
    C96      C        0.59740    0.79830    0.99900    1.000
    C97      C        0.79920    0.80150    0.01250    1.000
    H51      H        0.86050    0.83230    0.00940    1.000
    C98      C        0.90610    0.75800    0.03040    1.000
    H52      H        0.03970    0.76020    0.03980    1.000
    C99      C        0.81890    0.71120    0.03480    1.000
    H53      H        0.89290    0.68260    0.04660    1.000
    C100     C        0.61670    0.70830    0.02090    1.000
    C101     C        0.51260    0.65910    0.02930    1.000
    C102     C        0.50920    0.75160    0.00480    1.000
    H54      H        0.37550    0.74960    0.99760    1.000
    Sm7      Sm       0.68337    0.07054    0.43295    1.000
    O37      O        0.05890    0.49510    0.42070    1.000
    Sm8      Sm       0.76281    0.43209    0.54918    1.000
    O38      O        0.57020    0.46230    0.44470    1.000
    O39      O        0.43660    0.52420    0.37170    1.000
    O40      O        0.69070    0.44850    0.05970    1.000
    O41      O        0.58400    0.52040    0.10270    1.000
    O42      O        0.95460    0.41880    0.44860    1.000
    O43      O        0.15000    0.53690    0.16910    1.000
    O44      O        0.18470    0.48070    0.08190    1.000
    O45      O        0.43740    0.38450    0.54510    1.000
    O46      O        0.70280    0.34290    0.51450    1.000
    O47      O        0.66800    0.15890    0.47410    1.000
    O48      O        0.39060    0.11900    0.45890    1.000
    N7       N        0.58900    0.20960    0.26950    1.000
    N8       N        0.02100    0.20480    0.19150    1.000
    C103     C        0.09600    0.22230    0.25740    1.000
    H55      H        0.13380    0.19920    0.29520    1.000
    C104     C        0.12300    0.27300    0.27450    1.000
    H56      H        0.18210    0.28260    0.32180    1.000
    C105     C        0.06110    0.30960    0.22040    1.000
    C106     C        0.98600    0.29090    0.14910    1.000
    H57      H        0.95100    0.31300    0.10960    1.000
    C107     C        0.96500    0.23870    0.13770    1.000
    H58      H        0.90860    0.22720    0.09090    1.000
    C108     C        0.07400    0.36420    0.23820    1.000
    C109     C        0.04700    0.38020    0.31030    1.000
    H59      H        0.02500    0.35670    0.34620    1.000
    C110     C        0.05330    0.43100    0.32760    1.000
    C111     C        0.08160    0.46700    0.27360    1.000
    H60      H        0.08300    0.50100    0.28540    1.000
    C112     C        0.10830    0.45100    0.20070    1.000
    C113     C        0.10210    0.40020    0.18360    1.000
    H61      H        0.11660    0.38980    0.13560    1.000
    C114     C        0.14650    0.49170    0.14730    1.000
    C115     C        0.02110    0.45000    0.40520    1.000
    C116     C        0.65200    0.23950    0.32890    1.000
    H62      H        0.69970    0.22430    0.37400    1.000
    C117     C        0.64700    0.29160    0.32570    1.000
    H63      H        0.68690    0.31030    0.36870    1.000
    C118     C        0.58440    0.31570    0.25860    1.000
    C119     C        0.52300    0.28470    0.19710    1.000
    H64      H        0.47970    0.29900    0.15090    1.000
    C120     C        0.52700    0.23270    0.20440    1.000
    H65      H        0.48530    0.21320    0.16250    1.000
    C121     C        0.58280    0.37150    0.25320    1.000
    C122     C        0.55660    0.39970    0.31560    1.000
    H66      H        0.54260    0.38340    0.36010    1.000
    C123     C        0.55080    0.45260    0.31280    1.000
    C124     C        0.57180    0.47650    0.24500    1.000
    H67      H        0.56330    0.51130    0.24160    1.000
    C125     C        0.60520    0.44860    0.18290    1.000
    C126     C        0.60680    0.39600    0.18600    1.000
    H68      H        0.62370    0.37730    0.14390    1.000
    C127     C        0.51970    0.48250    0.38090    1.000
    C128     C        0.62840    0.47390    0.11010    1.000
    C129     C        0.52300    0.34500    0.51950    1.000
    C130     C        0.40260    0.29830    0.50100    1.000
    C131     C        0.20080    0.30150    0.48750    1.000
    H69      H        0.13950    0.33230    0.49060    1.000
    C132     C        0.09390    0.25800    0.46960    1.000
    H70      H        0.96030    0.26020    0.46020    1.000
    C133     C        0.18110    0.21120    0.46520    1.000
    H71      H        0.10710    0.18260    0.45340    1.000
    C134     C        0.38330    0.20830    0.47910    1.000
    C135     C        0.48740    0.15910    0.47070    1.000
    C136     C        0.49080    0.25160    0.49520    1.000
    H72      H        0.62450    0.24960    0.50240    1.000
