data_functionalizedCrystal
_audit_creation_method	'EQeq! by Chris Wilmer'
_symmetry_space_group_name_H-M	'P1'
_symmetry_Int_Tables_number	1
_symmetry_cell_setting	triclinic
loop_
_symmetry_equiv_pos_as_xyz
  x,y,z
_cell_length_a	26.8326
_cell_length_b	26.8326
_cell_length_c	26.8326
_cell_angle_alpha	109.471
_cell_angle_beta	109.471
_cell_angle_gamma	109.471
loop_
_atom_site_label
_atom_site_type_symbol
_atom_site_fract_x
_atom_site_fract_y
_atom_site_fract_z
_atom_site_charge
Mof_Zn	Zn	0.76041	0.2137	0.55773	1.215
Mof_Zn	Zn	0.23052	0.77955	0.55863	1.216
Mof_Zn	Zn	0.03454	0.94636	0.67066	1.211
Mof_Zn	Zn	0.96369	0.05113	0.36324	1.213
Mof_Zn	Zn	0.65597	0.20268	0.44227	1.215
Mof_Zn	Zn	0.22092	0.67189	0.44137	1.216
Mof_Zn	Zn	0.2757	0.36388	0.32934	1.211
Mof_Zn	Zn	0.68789	0.60045	0.63676	1.213
Mof_Zn	Zn	0.34403	0.7863	0.54671	1.215
Mof_Zn	Zn	0.77908	0.22045	0.45097	1.216
Mof_Zn	Zn	0.7243	0.05364	0.08818	1.211
Mof_Zn	Zn	0.31211	0.94887	0.91256	1.213
Mof_Zn	Zn	0.23959	0.79732	0.45329	1.215
Mof_Zn	Zn	0.76948	0.32811	0.54903	1.216
Mof_Zn	Zn	0.96546	0.63612	0.91182	1.211
Mof_Zn	Zn	0.03631	0.39955	0.08744	1.213
Mof_Zn	Zn	0.54671	0.34403	0.7863	1.215
Mof_Zn	Zn	0.45097	0.77908	0.22045	1.216
Mof_Zn	Zn	0.08818	0.7243	0.05364	1.211
Mof_Zn	Zn	0.91256	0.31211	0.94887	1.213
Mof_Zn	Zn	0.45329	0.23959	0.79732	1.215
Mof_Zn	Zn	0.54903	0.76948	0.32811	1.216
Mof_Zn	Zn	0.91182	0.96546	0.63612	1.211
Mof_Zn	Zn	0.08744	0.03631	0.39955	1.213
Mof_Zn	Zn	0.55773	0.76041	0.2137	1.215
Mof_Zn	Zn	0.55863	0.23052	0.77955	1.217
Mof_Zn	Zn	0.67066	0.03454	0.94636	1.212
Mof_Zn	Zn	0.36324	0.96369	0.05113	1.214
Mof_Zn	Zn	0.44227	0.65597	0.20268	1.216
Mof_Zn	Zn	0.44137	0.22092	0.67189	1.217
Mof_Zn	Zn	0.32934	0.2757	0.36388	1.212
Mof_Zn	Zn	0.63676	0.68789	0.60045	1.214
Mof_Zn	Zn	0.20268	0.44227	0.65597	1.216
Mof_Zn	Zn	0.67189	0.44137	0.22092	1.217
Mof_Zn	Zn	0.36388	0.32934	0.2757	1.212
Mof_Zn	Zn	0.60045	0.63676	0.68789	1.214
Mof_Zn	Zn	0.2137	0.55773	0.76041	1.216
Mof_Zn	Zn	0.77955	0.55863	0.23052	1.217
Mof_Zn	Zn	0.94636	0.67066	0.03454	1.212
Mof_Zn	Zn	0.05113	0.36324	0.96369	1.214
Mof_Zn	Zn	0.79732	0.45329	0.23959	1.216
Mof_Zn	Zn	0.32811	0.54903	0.76948	1.217
Mof_Zn	Zn	0.63612	0.91182	0.96546	1.212
Mof_Zn	Zn	0.39955	0.08744	0.03631	1.214
Mof_Zn	Zn	0.7863	0.54671	0.34403	1.216
Mof_Zn	Zn	0.22045	0.45097	0.77908	1.217
Mof_Zn	Zn	0.05364	0.08818	0.7243	1.212
Mof_Zn	Zn	0.94887	0.91256	0.31211	1.214
Mof_Zn	Zn	-1.52887e-17	-3.05774e-17	0.51924	1.255
Mof_Zn	Zn	0.48076	0.48076	0.48076	1.255
Mof_Zn	Zn	0.51924	0	-0	1.255
Mof_Zn	Zn	-3.05774e-17	0.51924	-0	1.255
Mof_H 	H 	0.9268	0.7463	0.6073	0.051
Mof_H 	H 	0.8844	0.1285	0.6023	0.069
Mof_H 	H 	0.9354	0.0715	0.5687	0.044
Mof_H 	H 	0.5585	0.9299	0.4984	0.061
Mof_H 	H 	0.6124	0.044	0.5566	0.067
Mof_H 	H 	0.1299	0.8929	0.4404	0.07
Mof_H 	H 	0.0645	0.9311	0.4674	0.043
Mof_H 	H 	0.8423	0.6617	0.597	0.058
Mof_H 	H 	0.139	0.3195	0.3927	0.051
Mof_H 	H 	0.5262	0.2821	0.3977	0.069
Mof_H 	H 	0.5028	0.3667	0.4313	0.044
Mof_H 	H 	0.4315	0.0601	0.5016	0.061
Mof_H 	H 	0.4874	0.0558	0.4434	0.068
Mof_H 	H 	0.4525	0.6895	0.5596	0.07
Mof_H 	H 	0.4637	0.5971	0.5326	0.043
Mof_H 	H 	0.0647	0.2453	0.403	0.058
Mof_H 	H 	0.861	0.2537	0.1805	0.051
Mof_H 	H 	0.4738	0.8715	0.7559	0.069
Mof_H 	H 	0.4972	0.9285	0.8639	0.043
Mof_H 	H 	0.5685	0.0701	0.6286	0.061
Mof_H 	H 	0.5126	0.956	0.5684	0.068
Mof_H 	H 	0.5475	0.1071	0.237	0.07
Mof_H 	H 	0.5363	0.0689	0.1334	0.043
Mof_H 	H 	0.9353	0.3383	0.1806	0.058
Mof_H 	H 	0.0732	0.6805	0.8195	0.051
Mof_H 	H 	0.1156	0.7179	0.2441	0.069
Mof_H 	H 	0.0646	0.6333	0.1361	0.044
Mof_H 	H 	0.4415	0.9399	0.3714	0.061
Mof_H 	H 	0.3876	0.9442	0.4316	0.068
Mof_H 	H 	0.8701	0.3105	0.763	0.07
Mof_H 	H 	0.9355	0.4029	0.8666	0.043
Mof_H 	H 	0.1577	0.7547	0.8194	0.058
Mof_H 	H 	0.1805	0.861	0.2537	0.051
Mof_H 	H 	0.7559	0.4738	0.8715	0.069
Mof_H 	H 	0.8639	0.4972	0.9285	0.043
Mof_H 	H 	0.6286	0.5685	0.0701	0.061
Mof_H 	H 	0.5684	0.5126	0.956	0.068
Mof_H 	H 	0.237	0.5475	0.1071	0.07
Mof_H 	H 	0.1334	0.5363	0.0689	0.043
Mof_H 	H 	0.1806	0.9353	0.3383	0.058
Mof_H 	H 	0.8195	0.0732	0.6805	0.051
Mof_H 	H 	0.2441	0.1156	0.7179	0.069
Mof_H 	H 	0.1361	0.0646	0.6333	0.044
Mof_H 	H 	0.3714	0.4415	0.9399	0.061
Mof_H 	H 	0.4316	0.3876	0.9442	0.068
Mof_H 	H 	0.763	0.8701	0.3105	0.07
Mof_H 	H 	0.8666	0.9355	0.4029	0.043
Mof_H 	H 	0.8194	0.1577	0.7547	0.058
Mof_H 	H 	0.6073	0.9268	0.7463	0.051
Mof_H 	H 	0.6023	0.8844	0.1285	0.069
Mof_H 	H 	0.5687	0.9354	0.0715	0.044
Mof_H 	H 	0.4984	0.5585	0.9299	0.061
Mof_H 	H 	0.5566	0.6124	0.044	0.067
Mof_H 	H 	0.4404	0.1299	0.8929	0.07
Mof_H 	H 	0.4674	0.0645	0.9311	0.043
Mof_H 	H 	0.597	0.8423	0.6617	0.058
Mof_H 	H 	0.3927	0.139	0.3195	0.051
Mof_H 	H 	0.3977	0.5262	0.2821	0.069
Mof_H 	H 	0.4313	0.5028	0.3667	0.044
Mof_H 	H 	0.5016	0.4315	0.0601	0.061
Mof_H 	H 	0.4434	0.4874	0.0558	0.068
Mof_H 	H 	0.5596	0.4525	0.6895	0.07
Mof_H 	H 	0.5326	0.4637	0.5971	0.043
Mof_H 	H 	0.403	0.0647	0.2453	0.058
Mof_H 	H 	0.3195	0.3927	0.139	0.051
Mof_H 	H 	0.2821	0.3977	0.5262	0.069
Mof_H 	H 	0.3667	0.4313	0.5028	0.044
Mof_H 	H 	0.0601	0.5016	0.4315	0.061
Mof_H 	H 	0.0558	0.4434	0.4874	0.068
Mof_H 	H 	0.6895	0.5596	0.4525	0.07
Mof_H 	H 	0.5971	0.5326	0.4637	0.043
Mof_H 	H 	0.2453	0.403	0.0647	0.058
Mof_H 	H 	0.7463	0.6073	0.9268	0.051
Mof_H 	H 	0.1285	0.6023	0.8844	0.069
Mof_H 	H 	0.0715	0.5687	0.9354	0.044
Mof_H 	H 	0.9299	0.4984	0.5585	0.061
Mof_H 	H 	0.044	0.5566	0.6124	0.067
Mof_H 	H 	0.8929	0.4404	0.1299	0.07
Mof_H 	H 	0.9311	0.4674	0.0645	0.043
Mof_H 	H 	0.6617	0.597	0.8423	0.058
Mof_H 	H 	0.6805	0.8195	0.0732	0.051
Mof_H 	H 	0.7179	0.2441	0.1156	0.069
Mof_H 	H 	0.6333	0.1361	0.0646	0.044
Mof_H 	H 	0.9399	0.3714	0.4415	0.061
Mof_H 	H 	0.9442	0.4316	0.3876	0.068
Mof_H 	H 	0.3105	0.763	0.8701	0.07
Mof_H 	H 	0.4029	0.8666	0.9355	0.043
Mof_H 	H 	0.7547	0.8194	0.1577	0.058
Mof_H 	H 	0.2537	0.1805	0.861	0.051
Mof_H 	H 	0.8715	0.7559	0.4738	0.069
Mof_H 	H 	0.9285	0.8639	0.4972	0.043
Mof_H 	H 	0.0701	0.6286	0.5685	0.061
Mof_H 	H 	0.956	0.5684	0.5126	0.068
Mof_H 	H 	0.1071	0.237	0.5475	0.07
Mof_H 	H 	0.0689	0.1334	0.5363	0.043
Mof_H 	H 	0.3383	0.1806	0.9353	0.058
Mof_H 	H 	-1.52887e-17	0	0.623	0.181
Mof_H 	H 	-0	-3.05774e-17	0.4136	0.191
Mof_H 	H 	0.377	0.377	0.377	0.181
Mof_H 	H 	0.5864	0.5864	0.5864	0.191
Mof_H 	H 	0.623	0	-0	0.181
Mof_H 	H 	0.4136	0	-0	0.191
Mof_H 	H 	3.05774e-17	0.623	-0	0.181
Mof_H 	H 	-0	0.4136	-0	0.191
Mof_C 	C 	0.892	0.7456	0.6074	-0.026
Mof_C 	C 	0.8889	0.1208	0.5681	-0.031
Mof_C 	C 	0.9176	0.0891	0.5495	-0.016
Mof_C 	C 	0.9377	0.0667	0.4586	0.393
Mof_C 	C 	0.8685	0.1386	0.5259	0.021
Mof_C 	C 	0.0926	0.9178	0.5402	-0.005
Mof_C 	C 	0.9138	0.0891	0.4973	-0.01
Mof_C 	C 	0.8373	0.1737	0.5204	0.379
Mof_C 	C 	0.064	0.9351	0.5777	0.396
Mof_C 	C 	0.6363	0.0394	0.4939	0.057
Mof_C 	C 	0.5803	0.9557	0.488	-0.03
Mof_C 	C 	0.5873	0.9369	0.4378	0.041
Mof_C 	C 	0.6769	0.0991	0.4994	0.298
Mof_C 	C 	0.186	0.8506	0.519	0.396
Mof_C 	C 	0.6109	0.0201	0.5212	-0.06
Mof_C 	C 	0.57602	0.8826	0.38782	0.302
Mof_C 	C 	0.1236	0.8961	0.4731	-0.028
Mof_C 	C 	0.0876	0.9183	0.4887	-0.02
Mof_C 	C 	0.1478	0.8797	0.5143	0.015
Mof_C 	C 	0.9123	0.854	0.6213	0.463
Mof_C 	C 	0.8783	0.7914	0.6133	-0.01
Mof_C 	C 	0.8448	0.6984	0.6014	-0.039
Mof_C 	C 	0.8028	0.7154	0.6034	0.005
Mof_C 	C 	0.7414	0.6839	0.5991	0.421
Mof_C 	C 	0.1382	0.2846	0.3926	-0.026
Mof_C 	C 	0.5527	0.3208	0.4319	-0.031
Mof_C 	C 	0.5396	0.3681	0.4505	-0.016
Mof_C 	C 	0.6081	0.4791	0.5414	0.393
Mof_C 	C 	0.6127	0.3426	0.4741	0.021
Mof_C 	C 	0.3776	0.5524	0.4598	-0.005
Mof_C 	C 	0.5918	0.4165	0.5027	-0.01
Mof_C 	C 	0.6533	0.3169	0.4796	0.379
Mof_C 	C 	0.3574	0.4863	0.4223	0.396
Mof_C 	C 	0.5455	0.1424	0.5061	0.057
Mof_C 	C 	0.4677	0.0923	0.512	-0.03
Mof_C 	C 	0.4991	0.1495	0.5622	0.04
Mof_C 	C 	0.5997	0.1775	0.5006	0.298
Mof_C 	C 	0.3316	0.667	0.481	0.396
Mof_C 	C 	0.4989	0.0897	0.4788	-0.061
Mof_C 	C 	0.49478	0.1882	0.61218	0.302
Mof_C 	C 	0.423	0.6505	0.5269	-0.028
Mof_C 	C 	0.4296	0.5989	0.5113	-0.02
Mof_C 	C 	0.3654	0.6335	0.4857	0.015
Mof_C 	C 	0.2327	0.291	0.3787	0.463
Mof_C 	C 	0.1781	0.265	0.3867	-0.01
Mof_C 	C 	0.097	0.2434	0.3986	-0.039
Mof_C 	C 	0.112	0.1994	0.3966	0.005
Mof_C 	C 	0.0848	0.1423	0.4009	0.421
Mof_C 	C 	0.8618	0.2544	0.1464	-0.026
Mof_C 	C 	0.4473	0.8792	0.7681	-0.031
Mof_C 	C 	0.4604	0.9109	0.8285	-0.016
Mof_C 	C 	0.3919	0.9333	0.871	0.393
Mof_C 	C 	0.3873	0.8614	0.7299	0.021
Mof_C 	C 	0.6224	0.0822	0.1748	-0.005
Mof_C 	C 	0.4082	0.9109	0.8247	-0.01
Mof_C 	C 	0.3467	0.8263	0.6636	0.379
Mof_C 	C 	0.6426	0.0649	0.1289	0.396
Mof_C 	C 	0.4545	0.9606	0.5969	0.057
Mof_C 	C 	0.5323	0.0443	0.6246	-0.029
Mof_C 	C 	0.5009	0.0631	0.6504	0.04
Mof_C 	C 	0.4003	0.9009	0.5778	0.298
Mof_C 	C 	0.6684	0.1494	0.3354	0.396
Mof_C 	C 	0.5011	0.9799	0.5908	-0.062
Mof_C 	C 	0.50522	0.1174	0.69342	0.303
Mof_C 	C 	0.577	0.1039	0.2275	-0.028
Mof_C 	C 	0.5704	0.0817	0.1693	-0.02
Mof_C 	C 	0.6346	0.1203	0.2681	0.015
Mof_C 	C 	0.7673	0.146	0.0583	0.463
Mof_C 	C 	0.8219	0.2086	0.0869	-0.01
Mof_C 	C 	0.903	0.3016	0.1464	-0.039
Mof_C 	C 	0.888	0.2846	0.0874	0.005
Mof_C 	C 	0.9152	0.3161	0.0575	0.421
Mof_C 	C 	0.108	0.7154	0.8536	-0.026
Mof_C 	C 	0.1111	0.6792	0.2319	-0.031
Mof_C 	C 	0.0824	0.6319	0.1715	-0.016
Mof_C 	C 	0.0623	0.5209	0.129	0.393
Mof_C 	C 	0.1315	0.6574	0.2701	0.021
Mof_C 	C 	0.9074	0.4476	0.8252	-0.006
Mof_C 	C 	0.0862	0.5835	0.1753	-0.01
Mof_C 	C 	0.1627	0.6831	0.3364	0.379
Mof_C 	C 	0.936	0.5137	0.8711	0.396
Mof_C 	C 	0.3637	0.8576	0.4031	0.057
Mof_C 	C 	0.4197	0.9077	0.3754	-0.03
Mof_C 	C 	0.4127	0.8505	0.3496	0.04
Mof_C 	C 	0.3231	0.8225	0.4222	0.298
Mof_C 	C 	0.814	0.333	0.6646	0.396
Mof_C 	C 	0.3891	0.9103	0.4092	-0.061
Mof_C 	C 	0.42398	0.8118	0.30658	0.302
Mof_C 	C 	0.8764	0.3495	0.7725	-0.028
Mof_C 	C 	0.9124	0.4011	0.8307	-0.02
Mof_C 	C 	0.8522	0.3665	0.7319	0.015
Mof_C 	C 	0.0877	0.709	0.9417	0.463
Mof_C 	C 	0.1217	0.735	0.9131	-0.01
Mof_C 	C 	0.1552	0.7566	0.8536	-0.039
Mof_C 	C 	0.1972	0.8006	0.9126	0.005
Mof_C 	C 	0.2586	0.8577	0.9425	0.421
Mof_C 	C 	0.1464	0.8618	0.2544	-0.026
Mof_C 	C 	0.7681	0.4473	0.8792	-0.031
Mof_C 	C 	0.8285	0.4604	0.9109	-0.016
Mof_C 	C 	0.871	0.3919	0.9333	0.393
Mof_C 	C 	0.7299	0.3873	0.8614	0.021
Mof_C 	C 	0.1748	0.6224	0.0822	-0.005
Mof_C 	C 	0.8247	0.4082	0.9109	-0.01
Mof_C 	C 	0.6636	0.3467	0.8263	0.379
Mof_C 	C 	0.1289	0.6426	0.0649	0.396
Mof_C 	C 	0.5969	0.4545	0.9606	0.057
Mof_C 	C 	0.6246	0.5323	0.0443	-0.029
Mof_C 	C 	0.6504	0.5009	0.0631	0.04
Mof_C 	C 	0.5778	0.4003	0.9009	0.298
Mof_C 	C 	0.3354	0.6684	0.1494	0.396
Mof_C 	C 	0.5908	0.5011	0.9799	-0.062
Mof_C 	C 	0.69342	0.50522	0.1174	0.303
Mof_C 	C 	0.2275	0.577	0.1039	-0.028
Mof_C 	C 	0.1693	0.5704	0.0817	-0.02
Mof_C 	C 	0.2681	0.6346	0.1203	0.015
Mof_C 	C 	0.0583	0.7673	0.146	0.463
Mof_C 	C 	0.0869	0.8219	0.2086	-0.01
Mof_C 	C 	0.1464	0.903	0.3016	-0.039
Mof_C 	C 	0.0874	0.888	0.2846	0.005
Mof_C 	C 	0.0575	0.9152	0.3161	0.421
Mof_C 	C 	0.8536	0.108	0.7154	-0.026
Mof_C 	C 	0.2319	0.1111	0.6792	-0.031
Mof_C 	C 	0.1715	0.0824	0.6319	-0.016
Mof_C 	C 	0.129	0.0623	0.5209	0.393
Mof_C 	C 	0.2701	0.1315	0.6574	0.021
Mof_C 	C 	0.8252	0.9074	0.4476	-0.006
Mof_C 	C 	0.1753	0.0862	0.5835	-0.01
Mof_C 	C 	0.3364	0.1627	0.6831	0.379
Mof_C 	C 	0.8711	0.936	0.5137	0.396
Mof_C 	C 	0.4031	0.3637	0.8576	0.057
Mof_C 	C 	0.3754	0.4197	0.9077	-0.03
Mof_C 	C 	0.3496	0.4127	0.8505	0.04
Mof_C 	C 	0.4222	0.3231	0.8225	0.298
Mof_C 	C 	0.6646	0.814	0.333	0.396
Mof_C 	C 	0.4092	0.3891	0.9103	-0.061
Mof_C 	C 	0.30658	0.42398	0.8118	0.302
Mof_C 	C 	0.7725	0.8764	0.3495	-0.028
Mof_C 	C 	0.8307	0.9124	0.4011	-0.02
Mof_C 	C 	0.7319	0.8522	0.3665	0.015
Mof_C 	C 	0.9417	0.0877	0.709	0.463
Mof_C 	C 	0.9131	0.1217	0.735	-0.01
Mof_C 	C 	0.8536	0.1552	0.7566	-0.039
Mof_C 	C 	0.9126	0.1972	0.8006	0.005
Mof_C 	C 	0.9425	0.2586	0.8577	0.421
Mof_C 	C 	0.6074	0.892	0.7456	-0.026
Mof_C 	C 	0.5681	0.8889	0.1208	-0.031
Mof_C 	C 	0.5495	0.9176	0.0891	-0.016
Mof_C 	C 	0.4586	0.9377	0.0667	0.393
Mof_C 	C 	0.5259	0.8685	0.1386	0.021
Mof_C 	C 	0.5402	0.0926	0.9178	-0.005
Mof_C 	C 	0.4973	0.9138	0.0891	-0.01
Mof_C 	C 	0.5204	0.8373	0.1737	0.379
Mof_C 	C 	0.5777	0.064	0.9351	0.396
Mof_C 	C 	0.4939	0.6363	0.0394	0.057
Mof_C 	C 	0.488	0.5803	0.9557	-0.03
Mof_C 	C 	0.4378	0.5873	0.9369	0.041
Mof_C 	C 	0.4994	0.6769	0.0991	0.298
Mof_C 	C 	0.519	0.186	0.8506	0.396
Mof_C 	C 	0.5212	0.6109	0.0201	-0.06
Mof_C 	C 	0.38782	0.57602	0.8826	0.302
Mof_C 	C 	0.4731	0.1236	0.8961	-0.028
Mof_C 	C 	0.4887	0.0876	0.9183	-0.02
Mof_C 	C 	0.5143	0.1478	0.8797	0.015
Mof_C 	C 	0.6213	0.9123	0.854	0.463
Mof_C 	C 	0.6133	0.8783	0.7914	-0.01
Mof_C 	C 	0.6014	0.8448	0.6984	-0.039
Mof_C 	C 	0.6034	0.8028	0.7154	0.005
Mof_C 	C 	0.5991	0.7414	0.6839	0.421
Mof_C 	C 	0.3926	0.1382	0.2846	-0.026
Mof_C 	C 	0.4319	0.5527	0.3208	-0.031
Mof_C 	C 	0.4505	0.5396	0.3681	-0.016
Mof_C 	C 	0.5414	0.6081	0.4791	0.393
Mof_C 	C 	0.4741	0.6127	0.3426	0.021
Mof_C 	C 	0.4598	0.3776	0.5524	-0.005
Mof_C 	C 	0.5027	0.5918	0.4165	-0.01
Mof_C 	C 	0.4796	0.6533	0.3169	0.379
Mof_C 	C 	0.4223	0.3574	0.4863	0.396
Mof_C 	C 	0.5061	0.5455	0.1424	0.057
Mof_C 	C 	0.512	0.4677	0.0923	-0.03
Mof_C 	C 	0.5622	0.4991	0.1495	0.04
Mof_C 	C 	0.5006	0.5997	0.1775	0.298
Mof_C 	C 	0.481	0.3316	0.667	0.396
Mof_C 	C 	0.4788	0.4989	0.0897	-0.061
Mof_C 	C 	0.61218	0.49478	0.1882	0.302
Mof_C 	C 	0.5269	0.423	0.6505	-0.028
Mof_C 	C 	0.5113	0.4296	0.5989	-0.02
Mof_C 	C 	0.4857	0.3654	0.6335	0.015
Mof_C 	C 	0.3787	0.2327	0.291	0.463
Mof_C 	C 	0.3867	0.1781	0.265	-0.01
Mof_C 	C 	0.3986	0.097	0.2434	-0.039
Mof_C 	C 	0.3966	0.112	0.1994	0.005
Mof_C 	C 	0.4009	0.0848	0.1423	0.421
Mof_C 	C 	0.2846	0.3926	0.1382	-0.026
Mof_C 	C 	0.3208	0.4319	0.5527	-0.031
Mof_C 	C 	0.3681	0.4505	0.5396	-0.016
Mof_C 	C 	0.4791	0.5414	0.6081	0.393
Mof_C 	C 	0.3426	0.4741	0.6127	0.021
Mof_C 	C 	0.5524	0.4598	0.3776	-0.005
Mof_C 	C 	0.4165	0.5027	0.5918	-0.01
Mof_C 	C 	0.3169	0.4796	0.6533	0.379
Mof_C 	C 	0.4863	0.4223	0.3574	0.396
Mof_C 	C 	0.1424	0.5061	0.5455	0.057
Mof_C 	C 	0.0923	0.512	0.4677	-0.03
Mof_C 	C 	0.1495	0.5622	0.4991	0.04
Mof_C 	C 	0.1775	0.5006	0.5997	0.298
Mof_C 	C 	0.667	0.481	0.3316	0.396
Mof_C 	C 	0.0897	0.4788	0.4989	-0.061
Mof_C 	C 	0.1882	0.61218	0.49478	0.302
Mof_C 	C 	0.6505	0.5269	0.423	-0.028
Mof_C 	C 	0.5989	0.5113	0.4296	-0.02
Mof_C 	C 	0.6335	0.4857	0.3654	0.015
Mof_C 	C 	0.291	0.3787	0.2327	0.463
Mof_C 	C 	0.265	0.3867	0.1781	-0.01
Mof_C 	C 	0.2434	0.3986	0.097	-0.039
Mof_C 	C 	0.1994	0.3966	0.112	0.005
Mof_C 	C 	0.1423	0.4009	0.0848	0.421
Mof_C 	C 	0.7456	0.6074	0.892	-0.026
Mof_C 	C 	0.1208	0.5681	0.8889	-0.031
Mof_C 	C 	0.0891	0.5495	0.9176	-0.016
Mof_C 	C 	0.0667	0.4586	0.9377	0.393
Mof_C 	C 	0.1386	0.5259	0.8685	0.021
Mof_C 	C 	0.9178	0.5402	0.0926	-0.005
Mof_C 	C 	0.0891	0.4973	0.9138	-0.01
Mof_C 	C 	0.1737	0.5204	0.8373	0.379
Mof_C 	C 	0.9351	0.5777	0.064	0.396
Mof_C 	C 	0.0394	0.4939	0.6363	0.057
Mof_C 	C 	0.9557	0.488	0.5803	-0.03
Mof_C 	C 	0.9369	0.4378	0.5873	0.041
Mof_C 	C 	0.0991	0.4994	0.6769	0.298
Mof_C 	C 	0.8506	0.519	0.186	0.396
Mof_C 	C 	0.0201	0.5212	0.6109	-0.06
Mof_C 	C 	0.8826	0.38782	0.57602	0.302
Mof_C 	C 	0.8961	0.4731	0.1236	-0.028
Mof_C 	C 	0.9183	0.4887	0.0876	-0.02
Mof_C 	C 	0.8797	0.5143	0.1478	0.015
Mof_C 	C 	0.854	0.6213	0.9123	0.463
Mof_C 	C 	0.7914	0.6133	0.8783	-0.01
Mof_C 	C 	0.6984	0.6014	0.8448	-0.039
Mof_C 	C 	0.7154	0.6034	0.8028	0.005
Mof_C 	C 	0.6839	0.5991	0.7414	0.421
Mof_C 	C 	0.7154	0.8536	0.108	-0.026
Mof_C 	C 	0.6792	0.2319	0.1111	-0.031
Mof_C 	C 	0.6319	0.1715	0.0824	-0.016
Mof_C 	C 	0.5209	0.129	0.0623	0.393
Mof_C 	C 	0.6574	0.2701	0.1315	0.021
Mof_C 	C 	0.4476	0.8252	0.9074	-0.006
Mof_C 	C 	0.5835	0.1753	0.0862	-0.01
Mof_C 	C 	0.6831	0.3364	0.1627	0.379
Mof_C 	C 	0.5137	0.8711	0.936	0.396
Mof_C 	C 	0.8576	0.4031	0.3637	0.057
Mof_C 	C 	0.9077	0.3754	0.4197	-0.03
Mof_C 	C 	0.8505	0.3496	0.4127	0.04
Mof_C 	C 	0.8225	0.4222	0.3231	0.298
Mof_C 	C 	0.333	0.6646	0.814	0.396
Mof_C 	C 	0.9103	0.4092	0.3891	-0.061
Mof_C 	C 	0.8118	0.30658	0.42398	0.302
Mof_C 	C 	0.3495	0.7725	0.8764	-0.028
Mof_C 	C 	0.4011	0.8307	0.9124	-0.02
Mof_C 	C 	0.3665	0.7319	0.8522	0.015
Mof_C 	C 	0.709	0.9417	0.0877	0.463
Mof_C 	C 	0.735	0.9131	0.1217	-0.01
Mof_C 	C 	0.7566	0.8536	0.1552	-0.039
Mof_C 	C 	0.8006	0.9126	0.1972	0.005
Mof_C 	C 	0.8577	0.9425	0.2586	0.421
Mof_C 	C 	0.2544	0.1464	0.8618	-0.026
Mof_C 	C 	0.8792	0.7681	0.4473	-0.031
Mof_C 	C 	0.9109	0.8285	0.4604	-0.016
Mof_C 	C 	0.9333	0.871	0.3919	0.393
Mof_C 	C 	0.8614	0.7299	0.3873	0.021
Mof_C 	C 	0.0822	0.1748	0.6224	-0.005
Mof_C 	C 	0.9109	0.8247	0.4082	-0.01
Mof_C 	C 	0.8263	0.6636	0.3467	0.379
Mof_C 	C 	0.0649	0.1289	0.6426	0.396
Mof_C 	C 	0.9606	0.5969	0.4545	0.057
Mof_C 	C 	0.0443	0.6246	0.5323	-0.029
Mof_C 	C 	0.0631	0.6504	0.5009	0.04
Mof_C 	C 	0.9009	0.5778	0.4003	0.298
Mof_C 	C 	0.1494	0.3354	0.6684	0.396
Mof_C 	C 	0.9799	0.5908	0.5011	-0.062
Mof_C 	C 	0.1174	0.69342	0.50522	0.303
Mof_C 	C 	0.1039	0.2275	0.577	-0.028
Mof_C 	C 	0.0817	0.1693	0.5704	-0.02
Mof_C 	C 	0.1203	0.2681	0.6346	0.015
Mof_C 	C 	0.146	0.0583	0.7673	0.463
Mof_C 	C 	0.2086	0.0869	0.8219	-0.01
Mof_C 	C 	0.3016	0.1464	0.903	-0.039
Mof_C 	C 	0.2846	0.0874	0.888	0.005
Mof_C 	C 	0.3161	0.0575	0.9152	0.421
Mof_O 	O 	0.9581	0.8654	0.6203	-0.538
Mof_O 	O 	0.8875	0.8824	0.6307	-0.519
Mof_O 	O 	0.82497	0.19124	0.56153	-0.459
Mof_O 	O 	0.93206	0.07908	0.41772	-0.437
Mof_O 	O 	0.20248	0.83991	0.56059	-0.451
Mof_O 	O 	0.07148	0.92254	0.62004	-0.424
Mof_O 	O 	0.96325	0.03722	0.46971	-0.465
Mof_O 	O 	0.03593	0.96045	0.56562	-0.48
Mof_O 	O 	0.82106	0.17697	0.47289	-0.447
Mof_O 	O 	0.88575	0.12073	0.48278	-0.126
Mof_O 	O 	0.19821	0.84047	0.47676	-0.476
Mof_O 	O 	0.68943	0.10111	0.46208	-0.341
Mof_O 	O 	0.69824	0.14669	0.55283	-0.423
Mof_O 	O 	0.62389	0.99076	0.44117	-0.148
Mof_O 	O 	0.58893	0.88466	0.35051	-0.329
Mof_O 	O 	0.12815	0.89224	0.55773	-0.127
Mof_O 	O 	0.55073	0.83499	0.3928	-0.405
Mof_O 	O 	0.8237	0.7718	0.6107	-0.144
Mof_O 	O 	0.7157	0.7127	0.6026	-0.516
Mof_O 	O 	0.7285	0.6342	0.5939	-0.5
Mof_O 	O 	0.2451	0.3378	0.3797	-0.538
Mof_O 	O 	0.2517	0.2568	0.3693	-0.519
Mof_O 	O 	0.62971	0.26344	0.43847	-0.459
Mof_O 	O 	0.66136	0.51434	0.58228	-0.437
Mof_O 	O 	0.27932	0.64189	0.43941	-0.451
Mof_O 	O 	0.3025	0.45144	0.37996	-0.424
Mof_O 	O 	0.56751	0.49354	0.53029	-0.465
Mof_O 	O 	0.39483	0.47031	0.43438	-0.48
Mof_O 	O 	0.70408	0.34817	0.52711	-0.447
Mof_O 	O 	0.63795	0.40297	0.51722	-0.126
Mof_O 	O 	0.36371	0.72145	0.52324	-0.476
Mof_O 	O 	0.63903	0.22735	0.53792	-0.341
Mof_O 	O 	0.59386	0.14541	0.44717	-0.423
Mof_O 	O 	0.54959	0.18272	0.55883	-0.147
Mof_O 	O 	0.53415	0.23842	0.64949	-0.329
Mof_O 	O 	0.33451	0.57042	0.44227	-0.127
Mof_O 	O 	0.44219	0.15793	0.6072	-0.405
Mof_O 	O 	0.1611	0.213	0.3893	-0.144
Mof_O 	O 	0.1101	0.1131	0.3974	-0.516
Mof_O 	O 	0.0403	0.1346	0.4061	-0.5
Mof_O 	O 	0.7549	0.1346	0.0927	-0.537
Mof_O 	O 	0.7483	0.1176	0.0051	-0.519
Mof_O 	O 	0.37029	0.80876	0.63373	-0.459
Mof_O 	O 	0.33864	0.92092	0.85298	-0.437
Mof_O 	O 	0.72068	0.16009	0.36257	-0.451
Mof_O 	O 	0.6975	0.07746	0.14894	-0.424
Mof_O 	O 	0.43249	0.96278	0.92603	-0.465
Mof_O 	O 	0.60517	0.03955	0.07548	-0.48
Mof_O 	O 	0.29592	0.82303	0.64409	-0.447
Mof_O 	O 	0.36205	0.87927	0.76502	-0.126
Mof_O 	O 	0.63629	0.15953	0.35774	-0.476
Mof_O 	O 	0.36097	0.89889	0.58832	-0.341
Mof_O 	O 	0.40614	0.85331	0.55155	-0.423
Mof_O 	O 	0.45041	0.00924	0.63313	-0.147
Mof_O 	O 	0.46585	0.11534	0.70427	-0.329
Mof_O 	O 	0.66549	0.10776	0.23591	-0.127
Mof_O 	O 	0.55781	0.16501	0.71574	-0.405
Mof_O 	O 	0.8389	0.2282	0.0519	-0.144
Mof_O 	O 	0.8899	0.2873	0.003	-0.515
Mof_O 	O 	0.9597	0.3658	0.0943	-0.5
Mof_O 	O 	0.0419	0.6622	0.9073	-0.537
Mof_O 	O 	0.1125	0.7432	0.9949	-0.519
Mof_O 	O 	0.17503	0.73656	0.36627	-0.459
Mof_O 	O 	0.06794	0.48566	0.14702	-0.437
Mof_O 	O 	0.79752	0.35811	0.63743	-0.451
Mof_O 	O 	0.92852	0.54856	0.85106	-0.425
Mof_O 	O 	0.03675	0.50646	0.07397	-0.465
Mof_O 	O 	0.96407	0.52969	0.92452	-0.481
Mof_O 	O 	0.17894	0.65183	0.35591	-0.447
Mof_O 	O 	0.11425	0.59703	0.23498	-0.126
Mof_O 	O 	0.80179	0.27855	0.64226	-0.476
Mof_O 	O 	0.31057	0.77265	0.41168	-0.341
Mof_O 	O 	0.30176	0.85459	0.44845	-0.423
Mof_O 	O 	0.37611	0.81728	0.36687	-0.147
Mof_O 	O 	0.41107	0.76158	0.29573	-0.329
Mof_O 	O 	0.87185	0.42958	0.76409	-0.127
Mof_O 	O 	0.44927	0.84207	0.28426	-0.405
Mof_O 	O 	0.1763	0.787	0.9481	-0.144
Mof_O 	O 	0.2843	0.8869	0.997	-0.516
Mof_O 	O 	0.2715	0.8654	0.9057	-0.5
Mof_O 	O 	0.0927	0.7549	0.1346	-0.537
Mof_O 	O 	0.0051	0.7483	0.1176	-0.519
Mof_O 	O 	0.63373	0.37029	0.80876	-0.459
Mof_O 	O 	0.85298	0.33864	0.92092	-0.437
Mof_O 	O 	0.36257	0.72068	0.16009	-0.451
Mof_O 	O 	0.14894	0.6975	0.07746	-0.424
Mof_O 	O 	0.92603	0.43249	0.96278	-0.465
Mof_O 	O 	0.07548	0.60517	0.03955	-0.48
Mof_O 	O 	0.64409	0.29592	0.82303	-0.447
Mof_O 	O 	0.76502	0.36205	0.87927	-0.126
Mof_O 	O 	0.35774	0.63629	0.15953	-0.476
Mof_O 	O 	0.58832	0.36097	0.89889	-0.341
Mof_O 	O 	0.55155	0.40614	0.85331	-0.423
Mof_O 	O 	0.63313	0.45041	0.00924	-0.147
Mof_O 	O 	0.70427	0.46585	0.11534	-0.329
Mof_O 	O 	0.23591	0.66549	0.10776	-0.127
Mof_O 	O 	0.71574	0.55781	0.16501	-0.405
Mof_O 	O 	0.0519	0.8389	0.2282	-0.144
Mof_O 	O 	0.003	0.8899	0.2873	-0.515
Mof_O 	O 	0.0943	0.9597	0.3658	-0.5
Mof_O 	O 	0.9073	0.0419	0.6622	-0.537
Mof_O 	O 	0.9949	0.1125	0.7432	-0.519
Mof_O 	O 	0.36627	0.17503	0.73656	-0.459
Mof_O 	O 	0.14702	0.06794	0.48566	-0.437
Mof_O 	O 	0.63743	0.79752	0.35811	-0.451
Mof_O 	O 	0.85106	0.92852	0.54856	-0.425
Mof_O 	O 	0.07397	0.03675	0.50646	-0.465
Mof_O 	O 	0.92452	0.96407	0.52969	-0.481
Mof_O 	O 	0.35591	0.17894	0.65183	-0.447
Mof_O 	O 	0.23498	0.11425	0.59703	-0.126
Mof_O 	O 	0.64226	0.80179	0.27855	-0.476
Mof_O 	O 	0.41168	0.31057	0.77265	-0.341
Mof_O 	O 	0.44845	0.30176	0.85459	-0.423
Mof_O 	O 	0.36687	0.37611	0.81728	-0.147
Mof_O 	O 	0.29573	0.41107	0.76158	-0.329
Mof_O 	O 	0.76409	0.87185	0.42958	-0.127
Mof_O 	O 	0.28426	0.44927	0.84207	-0.405
Mof_O 	O 	0.9481	0.1763	0.787	-0.144
Mof_O 	O 	0.997	0.2843	0.8869	-0.516
Mof_O 	O 	0.9057	0.2715	0.8654	-0.5
Mof_O 	O 	0.6203	0.9581	0.8654	-0.538
Mof_O 	O 	0.6307	0.8875	0.8824	-0.519
Mof_O 	O 	0.56153	0.82497	0.19124	-0.459
Mof_O 	O 	0.41772	0.93206	0.07908	-0.437
Mof_O 	O 	0.56059	0.20248	0.83991	-0.451
Mof_O 	O 	0.62004	0.07148	0.92254	-0.424
Mof_O 	O 	0.46971	0.96325	0.03722	-0.465
Mof_O 	O 	0.56562	0.03593	0.96045	-0.48
Mof_O 	O 	0.47289	0.82106	0.17697	-0.447
Mof_O 	O 	0.48278	0.88575	0.12073	-0.126
Mof_O 	O 	0.47676	0.19821	0.84047	-0.476
Mof_O 	O 	0.46208	0.68943	0.10111	-0.341
Mof_O 	O 	0.55283	0.69824	0.14669	-0.423
Mof_O 	O 	0.44117	0.62389	0.99076	-0.148
Mof_O 	O 	0.35051	0.58893	0.88466	-0.329
Mof_O 	O 	0.55773	0.12815	0.89224	-0.127
Mof_O 	O 	0.3928	0.55073	0.83499	-0.405
Mof_O 	O 	0.6107	0.8237	0.7718	-0.144
Mof_O 	O 	0.6026	0.7157	0.7127	-0.516
Mof_O 	O 	0.5939	0.7285	0.6342	-0.5
Mof_O 	O 	0.3797	0.2451	0.3378	-0.538
Mof_O 	O 	0.3693	0.2517	0.2568	-0.519
Mof_O 	O 	0.43847	0.62971	0.26344	-0.459
Mof_O 	O 	0.58228	0.66136	0.51434	-0.437
Mof_O 	O 	0.43941	0.27932	0.64189	-0.451
Mof_O 	O 	0.37996	0.3025	0.45144	-0.424
Mof_O 	O 	0.53029	0.56751	0.49354	-0.465
Mof_O 	O 	0.43438	0.39483	0.47031	-0.48
Mof_O 	O 	0.52711	0.70408	0.34817	-0.447
Mof_O 	O 	0.51722	0.63795	0.40297	-0.126
Mof_O 	O 	0.52324	0.36371	0.72145	-0.476
Mof_O 	O 	0.53792	0.63903	0.22735	-0.341
Mof_O 	O 	0.44717	0.59386	0.14541	-0.423
Mof_O 	O 	0.55883	0.54959	0.18272	-0.147
Mof_O 	O 	0.64949	0.53415	0.23842	-0.329
Mof_O 	O 	0.44227	0.33451	0.57042	-0.127
Mof_O 	O 	0.6072	0.44219	0.15793	-0.405
Mof_O 	O 	0.3893	0.1611	0.213	-0.144
Mof_O 	O 	0.3974	0.1101	0.1131	-0.516
Mof_O 	O 	0.4061	0.0403	0.1346	-0.5
Mof_O 	O 	0.3378	0.3797	0.2451	-0.538
Mof_O 	O 	0.2568	0.3693	0.2517	-0.519
Mof_O 	O 	0.26344	0.43847	0.62971	-0.459
Mof_O 	O 	0.51434	0.58228	0.66136	-0.437
Mof_O 	O 	0.64189	0.43941	0.27932	-0.451
Mof_O 	O 	0.45144	0.37996	0.3025	-0.424
Mof_O 	O 	0.49354	0.53029	0.56751	-0.465
Mof_O 	O 	0.47031	0.43438	0.39483	-0.48
Mof_O 	O 	0.34817	0.52711	0.70408	-0.447
Mof_O 	O 	0.40297	0.51722	0.63795	-0.126
Mof_O 	O 	0.72145	0.52324	0.36371	-0.476
Mof_O 	O 	0.22735	0.53792	0.63903	-0.341
Mof_O 	O 	0.14541	0.44717	0.59386	-0.423
Mof_O 	O 	0.18272	0.55883	0.54959	-0.147
Mof_O 	O 	0.23842	0.64949	0.53415	-0.329
Mof_O 	O 	0.57042	0.44227	0.33451	-0.127
Mof_O 	O 	0.15793	0.6072	0.44219	-0.405
Mof_O 	O 	0.213	0.3893	0.1611	-0.144
Mof_O 	O 	0.1131	0.3974	0.1101	-0.516
Mof_O 	O 	0.1346	0.4061	0.0403	-0.5
Mof_O 	O 	0.8654	0.6203	0.9581	-0.538
Mof_O 	O 	0.8824	0.6307	0.8875	-0.519
Mof_O 	O 	0.19124	0.56153	0.82497	-0.459
Mof_O 	O 	0.07908	0.41772	0.93206	-0.437
Mof_O 	O 	0.83991	0.56059	0.20248	-0.451
Mof_O 	O 	0.92254	0.62004	0.07148	-0.424
Mof_O 	O 	0.03722	0.46971	0.96325	-0.465
Mof_O 	O 	0.96045	0.56562	0.03593	-0.48
Mof_O 	O 	0.17697	0.47289	0.82106	-0.447
Mof_O 	O 	0.12073	0.48278	0.88575	-0.126
Mof_O 	O 	0.84047	0.47676	0.19821	-0.476
Mof_O 	O 	0.10111	0.46208	0.68943	-0.341
Mof_O 	O 	0.14669	0.55283	0.69824	-0.423
Mof_O 	O 	0.99076	0.44117	0.62389	-0.148
Mof_O 	O 	0.88466	0.35051	0.58893	-0.329
Mof_O 	O 	0.89224	0.55773	0.12815	-0.127
Mof_O 	O 	0.83499	0.3928	0.55073	-0.405
Mof_O 	O 	0.7718	0.6107	0.8237	-0.144
Mof_O 	O 	0.7127	0.6026	0.7157	-0.516
Mof_O 	O 	0.6342	0.5939	0.7285	-0.5
Mof_O 	O 	0.6622	0.9073	0.0419	-0.537
Mof_O 	O 	0.7432	0.9949	0.1125	-0.519
Mof_O 	O 	0.73656	0.36627	0.17503	-0.459
Mof_O 	O 	0.48566	0.14702	0.06794	-0.437
Mof_O 	O 	0.35811	0.63743	0.79752	-0.451
Mof_O 	O 	0.54856	0.85106	0.92852	-0.425
Mof_O 	O 	0.50646	0.07397	0.03675	-0.465
Mof_O 	O 	0.52969	0.92452	0.96407	-0.481
Mof_O 	O 	0.65183	0.35591	0.17894	-0.447
Mof_O 	O 	0.59703	0.23498	0.11425	-0.126
Mof_O 	O 	0.27855	0.64226	0.80179	-0.476
Mof_O 	O 	0.77265	0.41168	0.31057	-0.341
Mof_O 	O 	0.85459	0.44845	0.30176	-0.423
Mof_O 	O 	0.81728	0.36687	0.37611	-0.147
Mof_O 	O 	0.76158	0.29573	0.41107	-0.329
Mof_O 	O 	0.42958	0.76409	0.87185	-0.127
Mof_O 	O 	0.84207	0.28426	0.44927	-0.405
Mof_O 	O 	0.787	0.9481	0.1763	-0.144
Mof_O 	O 	0.8869	0.997	0.2843	-0.516
Mof_O 	O 	0.8654	0.9057	0.2715	-0.5
Mof_O 	O 	0.1346	0.0927	0.7549	-0.537
Mof_O 	O 	0.1176	0.0051	0.7483	-0.519
Mof_O 	O 	0.80876	0.63373	0.37029	-0.459
Mof_O 	O 	0.92092	0.85298	0.33864	-0.437
Mof_O 	O 	0.16009	0.36257	0.72068	-0.451
Mof_O 	O 	0.07746	0.14894	0.6975	-0.424
Mof_O 	O 	0.96278	0.92603	0.43249	-0.465
Mof_O 	O 	0.03955	0.07548	0.60517	-0.48
Mof_O 	O 	0.82303	0.64409	0.29592	-0.447
Mof_O 	O 	0.87927	0.76502	0.36205	-0.126
Mof_O 	O 	0.15953	0.35774	0.63629	-0.476
Mof_O 	O 	0.89889	0.58832	0.36097	-0.341
Mof_O 	O 	0.85331	0.55155	0.40614	-0.423
Mof_O 	O 	0.00924	0.63313	0.45041	-0.147
Mof_O 	O 	0.11534	0.70427	0.46585	-0.329
Mof_O 	O 	0.10776	0.23591	0.66549	-0.127
Mof_O 	O 	0.16501	0.71574	0.55781	-0.405
Mof_O 	O 	0.2282	0.0519	0.8389	-0.144
Mof_O 	O 	0.2873	0.003	0.8899	-0.515
Mof_O 	O 	0.3658	0.0943	0.9597	-0.5
Mof_O 	O 	1.52887e-17	-6.11548e-17	0.65958	-0.82
Mof_O 	O 	-0	0	0.3771	-0.832
Mof_O 	O 	0.34042	0.34042	0.34042	-0.82
Mof_O 	O 	0.6229	0.6229	0.6229	-0.833
Mof_O 	O 	0.65958	0	-0	-0.82
Mof_O 	O 	0.3771	0	-0	-0.832
Mof_O 	O 	-0	0.65958	-0	-0.82
Mof_O 	O 	1.52887e-17	0.3771	-0	-0.832
Mof_O 	O 	0.74343	0.24343	0.5	-0.937
Mof_O 	O 	0.25657	0.75657	0.5	-0.937
Mof_O 	O 	0.5	0.25657	0.75657	-0.937
Mof_O 	O 	0.5	0.74343	0.24343	-0.937
Mof_O 	O 	0.24343	0.5	0.74343	-0.937
Mof_O 	O 	0.75657	0.5	0.25657	-0.937
_end
