data_functionalizedCrystal
_audit_creation_method	'EQeq! by Chris Wilmer'
_symmetry_space_group_name_H-M	'P1'
_symmetry_Int_Tables_number	1
_symmetry_cell_setting	triclinic
loop_
_symmetry_equiv_pos_as_xyz
  x,y,z
_cell_length_a	11.215
_cell_length_b	13.983
_cell_length_c	13.9973
_cell_angle_alpha	104.264
_cell_angle_beta	113.617
_cell_angle_gamma	90
loop_
_atom_site_label
_atom_site_type_symbol
_atom_site_fract_x
_atom_site_fract_y
_atom_site_fract_z
_atom_site_charge
Mof_Cd	Cd	0.90316	0.36723	0.44852	0.456
Mof_Cd	Cd	0.45464	0.13277	0.55148	0.456
Mof_H 	H 	0.788	0.7833	0.359	0.061
Mof_H 	H 	0.951	0.8435	0.3216	0.039
Mof_H 	H 	0.0883	0.3703	0.3188	0.014
Mof_H 	H 	0.0848	0.3813	0.1564	0.095
Mof_H 	H 	0.6905	0.3691	0.0402	0.094
Mof_H 	H 	0.7075	0.3611	0.2092	0.012
Mof_H 	H 	0.1496	0.3759	0.859	0.086
Mof_H 	H 	0.1145	0.3736	0.6834	0.02
Mof_H 	H 	0.7343	0.3718	0.5922	0.027
Mof_H 	H 	0.7562	0.372	0.7634	0.101
Mof_H 	H 	0.788	0.3766	0.9246	0.075
Mof_H 	H 	0.058	0.3804	0.9942	0.053
Mof_H 	H 	0.429	0.7167	0.641	0.062
Mof_H 	H 	0.6294	0.6565	0.6784	0.04
Mof_H 	H 	0.7695	0.1297	0.6812	0.014
Mof_H 	H 	0.9284	0.1187	0.8436	0.097
Mof_H 	H 	0.6503	0.1309	0.9598	0.095
Mof_H 	H 	0.4983	0.1389	0.7908	0.012
Mof_H 	H 	0.2906	0.1241	0.141	0.085
Mof_H 	H 	0.4311	0.1264	0.3166	0.02
Mof_H 	H 	0.1421	0.1282	0.4078	0.028
Mof_H 	H 	0.9928	0.128	0.2366	0.099
Mof_H 	H 	0.8634	0.1234	0.0754	0.077
Mof_H 	H 	0.0638	0.1196	0.0058	0.052
Mof_C 	C 	0.8281	0.0412	0.3682	-0
Mof_C 	C 	0.7397	0.0104	0.4034	-0.021
Mof_C 	C 	0.8001	0.852	0.3662	0.004
Mof_C 	C 	0.8953	0.888	0.3406	0.021
Mof_C 	C 	0.8395	0.146	0.361	0.33
Mof_C 	C 	0.6664	0.083	0.4528	0.345
Mof_C 	C 	0.0057	0.3705	0.2614	0.104
Mof_C 	C 	0.0053	0.377	0.1646	-0.175
Mof_C 	C 	0.8883	0.378	0.0806	0.14
Mof_C 	C 	0.7744	0.37	0.0968	-0.173
Mof_C 	C 	0.7851	0.365	0.1982	0.101
Mof_C 	C 	0.9522	0.3754	0.8284	0.109
Mof_C 	C 	0.0637	0.375	0.8054	-0.156
Mof_C 	C 	0.0418	0.3737	0.7016	0.093
Mof_C 	C 	0.8185	0.372	0.647	0.105
Mof_C 	C 	0.8313	0.373	0.7486	-0.163
Mof_C 	C 	0.8743	0.377	0.9766	-0.11
Mof_C 	C 	0.9712	0.378	0.9424	-0.063
Mof_C 	C 	0.4599	0.4588	0.6318	0
Mof_C 	C 	0.3363	0.4896	0.5966	-0.02
Mof_C 	C 	0.4339	0.648	0.6338	0.004
Mof_C 	C 	0.5547	0.612	0.6594	0.021
Mof_C 	C 	0.4785	0.354	0.639	0.33
Mof_C 	C 	0.2136	0.417	0.5472	0.345
Mof_C 	C 	0.7443	0.1295	0.7386	0.105
Mof_C 	C 	0.8407	0.123	0.8354	-0.179
Mof_C 	C 	0.8077	0.122	0.9194	0.146
Mof_C 	C 	0.6776	0.13	0.9032	-0.175
Mof_C 	C 	0.5869	0.135	0.8018	0.102
Mof_C 	C 	0.1238	0.1246	0.1716	0.106
Mof_C 	C 	0.2583	0.125	0.1946	-0.154
Mof_C 	C 	0.3402	0.1263	0.2984	0.092
Mof_C 	C 	0.1715	0.128	0.353	0.103
Mof_C 	C 	0.0827	0.127	0.2514	-0.159
Mof_C 	C 	0.8977	0.123	0.0234	-0.116
Mof_C 	C 	0.0288	0.122	0.0576	-0.059
Mof_N 	N 	0.9106	0.9829	0.3412	-0.098
Mof_N 	N 	0.7232	0.9143	0.402	-0.108
Mof_N 	N 	0.8982	0.3643	0.2804	-0.153
Mof_N 	N 	0.9216	0.3724	0.624	-0.148
Mof_N 	N 	0.5694	0.5171	0.6588	-0.099
Mof_N 	N 	0.3212	0.5857	0.598	-0.108
Mof_N 	N 	0.6178	0.1357	0.7196	-0.154
Mof_N 	N 	0.2976	0.1276	0.376	-0.148
Mof_O 	O 	0.9296	0.2051	0.4352	-0.275
Mof_O 	O 	0.7607	0.167	0.2834	-0.265
Mof_O 	O 	0.6834	0.1663	0.4608	-0.277
Mof_O 	O 	0.5835	0.0436	0.4748	-0.303
Mof_O 	O 	0.4944	0.2949	0.5648	-0.275
Mof_O 	O 	0.4773	0.333	0.7166	-0.265
Mof_O 	O 	0.2226	0.3337	0.5392	-0.277
Mof_O 	O 	0.1087	0.4564	0.5252	-0.303
Mof_Cd	Cd	0.09684	0.63277	0.55148	0.457
Mof_Cd	Cd	0.54536	0.86723	0.44852	0.457
Mof_H 	H 	0.212	0.2167	0.641	0.062
Mof_H 	H 	0.049	0.1565	0.6784	0.04
Mof_H 	H 	0.9117	0.6297	0.6812	0.015
Mof_H 	H 	0.9152	0.6187	0.8436	0.096
Mof_H 	H 	0.3095	0.6309	0.9598	0.094
Mof_H 	H 	0.2925	0.6389	0.7908	0.012
Mof_H 	H 	0.8504	0.6241	0.141	0.086
Mof_H 	H 	0.8855	0.6264	0.3166	0.02
Mof_H 	H 	0.2657	0.6282	0.4078	0.027
Mof_H 	H 	0.2438	0.628	0.2366	0.101
Mof_H 	H 	0.212	0.6234	0.0754	0.075
Mof_H 	H 	0.942	0.6196	0.0058	0.053
Mof_H 	H 	0.571	0.2833	0.359	0.062
Mof_H 	H 	0.3706	0.3435	0.3216	0.04
Mof_H 	H 	0.2305	0.8703	0.3188	0.014
Mof_H 	H 	0.0716	0.8813	0.1564	0.097
Mof_H 	H 	0.3497	0.8691	0.0402	0.095
Mof_H 	H 	0.5017	0.8611	0.2092	0.012
Mof_H 	H 	0.7094	0.8759	0.859	0.085
Mof_H 	H 	0.5689	0.8736	0.6834	0.02
Mof_H 	H 	0.8579	0.8718	0.5922	0.028
Mof_H 	H 	0.0072	0.872	0.7634	0.099
Mof_H 	H 	0.1366	0.8766	0.9246	0.077
Mof_H 	H 	0.9362	0.8804	0.9942	0.052
Mof_C 	C 	0.1719	0.9588	0.6318	-0
Mof_C 	C 	0.2603	0.9896	0.5966	-0.021
Mof_C 	C 	0.1999	0.148	0.6338	0.004
Mof_C 	C 	0.1047	0.112	0.6594	0.021
Mof_C 	C 	0.1605	0.854	0.639	0.33
Mof_C 	C 	0.3336	0.917	0.5472	0.345
Mof_C 	C 	0.9943	0.6295	0.7386	0.104
Mof_C 	C 	0.9947	0.623	0.8354	-0.175
Mof_C 	C 	0.1117	0.622	0.9194	0.14
Mof_C 	C 	0.2256	0.63	0.9032	-0.173
Mof_C 	C 	0.2149	0.635	0.8018	0.101
Mof_C 	C 	0.0478	0.6246	0.1716	0.109
Mof_C 	C 	0.9363	0.625	0.1946	-0.156
Mof_C 	C 	0.9582	0.6263	0.2984	0.093
Mof_C 	C 	0.1815	0.628	0.353	0.105
Mof_C 	C 	0.1687	0.627	0.2514	-0.163
Mof_C 	C 	0.1257	0.623	0.0234	-0.11
Mof_C 	C 	0.0288	0.622	0.0576	-0.063
Mof_C 	C 	0.5401	0.5412	0.3682	0
Mof_C 	C 	0.6637	0.5104	0.4034	-0.02
Mof_C 	C 	0.5661	0.352	0.3662	0.004
Mof_C 	C 	0.4453	0.388	0.3406	0.021
Mof_C 	C 	0.5215	0.646	0.361	0.33
Mof_C 	C 	0.7864	0.583	0.4528	0.345
Mof_C 	C 	0.2557	0.8705	0.2614	0.105
Mof_C 	C 	0.1593	0.877	0.1646	-0.179
Mof_C 	C 	0.1923	0.878	0.0806	0.146
Mof_C 	C 	0.3224	0.87	0.0968	-0.175
Mof_C 	C 	0.4131	0.865	0.1982	0.102
Mof_C 	C 	0.8762	0.8754	0.8284	0.106
Mof_C 	C 	0.7417	0.875	0.8054	-0.154
Mof_C 	C 	0.6598	0.8737	0.7016	0.092
Mof_C 	C 	0.8285	0.872	0.647	0.103
Mof_C 	C 	0.9173	0.873	0.7486	-0.159
Mof_C 	C 	0.1023	0.877	0.9766	-0.116
Mof_C 	C 	0.9712	0.878	0.9424	-0.059
Mof_N 	N 	0.0894	0.0171	0.6588	-0.098
Mof_N 	N 	0.2768	0.0857	0.598	-0.108
Mof_N 	N 	0.1018	0.6357	0.7196	-0.153
Mof_N 	N 	0.0784	0.6276	0.376	-0.148
Mof_N 	N 	0.4306	0.4829	0.3412	-0.099
Mof_N 	N 	0.6788	0.4143	0.402	-0.108
Mof_N 	N 	0.3822	0.8643	0.2804	-0.154
Mof_N 	N 	0.7024	0.8724	0.624	-0.148
Mof_O 	O 	0.0704	0.7949	0.5648	-0.275
Mof_O 	O 	0.2393	0.833	0.7166	-0.265
Mof_O 	O 	0.3166	0.8337	0.5392	-0.277
Mof_O 	O 	0.4165	0.9564	0.5252	-0.303
Mof_O 	O 	0.5056	0.7051	0.4352	-0.275
Mof_O 	O 	0.5227	0.667	0.2834	-0.265
Mof_O 	O 	0.7774	0.6663	0.4608	-0.277
Mof_O 	O 	0.8913	0.5436	0.4748	-0.303
_end
