# CIF file generated by openbabel 3.1.0, see https://openbabel.org
data_I
_chemical_name_common 'image0'
_cell_length_a 14.8903
_cell_length_b 13.1678
_cell_length_c 12.9852
_cell_angle_alpha 90
_cell_angle_beta 105.664
_cell_angle_gamma 90
_space_group_name_H-M_alt 'P 1'
_space_group_name_Hall 'P 1'
loop_
    _symmetry_equiv_pos_as_xyz
    x,y,z
loop_
    _atom_site_label
    _atom_site_type_symbol
    _atom_site_fract_x
    _atom_site_fract_y
    _atom_site_fract_z
    _atom_site_occupancy
    Y1       Y        0.27100    0.43509    0.19229    1.000
    Y2       Y        0.72899    0.56492    0.80771    1.000
    Y3       Y        0.74160    0.43142    0.31202    1.000
    Y4       Y        0.25840    0.56858    0.68799    1.000
    Y5       Y        0.75840    0.93143    0.18799    1.000
    Y6       Y        0.24160    0.06858    0.81202    1.000
    Y7       Y        0.22900    0.93509    0.30771    1.000
    Y8       Y        0.77100    0.06492    0.69229    1.000
    O1       O        0.12099    0.46055    0.23428    1.000
    O2       O        0.87901    0.53946    0.76573    1.000
    O3       O        0.88877    0.44224    0.26836    1.000
    O4       O        0.11123    0.55776    0.73164    1.000
    O5       O        0.61122    0.94224    0.23164    1.000
    O6       O        0.38878    0.05776    0.76837    1.000
    O7       O        0.37901    0.96055    0.26573    1.000
    O8       O        0.62099    0.03945    0.73428    1.000
    O9       O        0.12023    0.44705    0.06262    1.000
    O10      O        0.87977    0.55295    0.93738    1.000
    O11      O        0.88639    0.50344    0.42781    1.000
    O12      O        0.11361    0.49656    0.57219    1.000
    O13      O        0.61361    0.00344    0.07219    1.000
    O14      O        0.38639    0.99656    0.92781    1.000
    O15      O        0.37977    0.94706    0.43738    1.000
    O16      O        0.62023    0.05294    0.56263    1.000
    O17      O        0.29456    0.30958    0.07329    1.000
    O18      O        0.70544    0.69042    0.92672    1.000
    O19      O        0.20544    0.80958    0.42672    1.000
    O20      O        0.79456    0.19042    0.57329    1.000
    O21      O        0.27960    0.18028    0.95728    1.000
    O22      O        0.72040    0.81972    0.04272    1.000
    O23      O        0.22040    0.68028    0.54273    1.000
    O24      O        0.77960    0.31972    0.45728    1.000
    O25      O        0.31694    0.44956    0.38273    1.000
    O26      O        0.68306    0.55044    0.61727    1.000
    O27      O        0.68445    0.44300    0.12062    1.000
    O28      O        0.31555    0.55700    0.87938    1.000
    O29      O        0.81555    0.94300    0.37938    1.000
    O30      O        0.18445    0.05700    0.62062    1.000
    O31      O        0.18306    0.94956    0.11727    1.000
    O32      O        0.81694    0.05044    0.88273    1.000
    O33      O        0.31640    0.48123    0.55239    1.000
    O34      O        0.68360    0.51877    0.44761    1.000
    O35      O        0.68191    0.47576    0.95012    1.000
    O36      O        0.31809    0.52424    0.04988    1.000
    O37      O        0.81809    0.97576    0.54988    1.000
    O38      O        0.18191    0.02424    0.45012    1.000
    O39      O        0.18360    0.98123    0.94761    1.000
    O40      O        0.81640    0.01877    0.05239    1.000
    O41      O        0.24752    0.27594    0.26063    1.000
    O42      O        0.75248    0.72406    0.73938    1.000
    O43      O        0.75626    0.27067    0.24135    1.000
    O44      O        0.24374    0.72934    0.75866    1.000
    O45      O        0.74373    0.77067    0.25865    1.000
    O46      O        0.25627    0.22933    0.74135    1.000
    O47      O        0.25248    0.77594    0.23938    1.000
    O48      O        0.74752    0.22406    0.76063    1.000
    O49      O        0.23264    0.10877    0.28219    1.000
    O50      O        0.76736    0.89123    0.71782    1.000
    O51      O        0.76770    0.10203    0.22903    1.000
    O52      O        0.23230    0.89797    0.77097    1.000
    O53      O        0.73230    0.60203    0.27097    1.000
    O54      O        0.26770    0.39797    0.72903    1.000
    O55      O        0.26736    0.60877    0.21781    1.000
    O56      O        0.73265    0.39123    0.78219    1.000
    O57      O        0.43505    0.43394    0.24291    1.000
    O58      O        0.56495    0.56606    0.75709    1.000
    O59      O        0.58575    0.38689    0.27784    1.000
    O60      O        0.41425    0.61311    0.72217    1.000
    O61      O        0.91425    0.88689    0.22216    1.000
    O62      O        0.08575    0.11311    0.77784    1.000
    O63      O        0.06496    0.93394    0.25709    1.000
    O64      O        0.93504    0.06606    0.74291    1.000
    C1       C        0.07891    0.46587    0.13544    1.000
    C2       C        0.92109    0.53413    0.86456    1.000
    C3       C        0.92892    0.48627    0.35691    1.000
    C4       C        0.07108    0.51373    0.64309    1.000
    C5       C        0.57107    0.98627    0.14309    1.000
    C6       C        0.42893    0.01373    0.85692    1.000
    C7       C        0.42110    0.96587    0.36456    1.000
    C8       C        0.57890    0.03413    0.63544    1.000
    C9       C        0.24902    0.25813    0.99409    1.000
    C10      C        0.75097    0.74187    0.00591    1.000
    C11      C        0.74903    0.24187    0.49409    1.000
    C12      C        0.25097    0.75813    0.50591    1.000
    C13      C        0.27896    0.48488    0.45137    1.000
    C14      C        0.72104    0.51512    0.54863    1.000
    C15      C        0.71997    0.48007    0.05091    1.000
    C16      C        0.28004    0.51993    0.94910    1.000
    C17      C        0.78004    0.98007    0.44909    1.000
    C18      C        0.21997    0.01993    0.55091    1.000
    C19      C        0.22104    0.98488    0.04863    1.000
    C20      C        0.77896    0.01512    0.95137    1.000
    C21      C        0.27668    0.18526    0.26250    1.000
    C22      C        0.72332    0.81474    0.73750    1.000
    C23      C        0.72275    0.18205    0.23616    1.000
    C24      C        0.27725    0.81795    0.76384    1.000
    C25      C        0.77724    0.68205    0.26384    1.000
    C26      C        0.22276    0.31795    0.73617    1.000
    C27      C        0.22332    0.68526    0.23750    1.000
    C28      C        0.77668    0.31474    0.76251    1.000
    C29      C        0.49929    0.36860    0.25202    1.000
    C30      C        0.50071    0.63140    0.74798    1.000
    C31      C        0.00071    0.86860    0.24798    1.000
    C32      C        0.99929    0.13140    0.75202    1.000
    H1       H        0.00406    0.48821    0.11056    1.000
    H2       H        0.99594    0.51179    0.88945    1.000
    H3       H        0.00308    0.50955    0.37176    1.000
    H4       H        0.99692    0.49045    0.62824    1.000
    H5       H        0.49692    0.00955    0.12824    1.000
    H6       H        0.50308    0.99045    0.87176    1.000
    H7       H        0.49594    0.98821    0.38944    1.000
    H8       H        0.50406    0.01179    0.61056    1.000
    H9       H        0.17654    0.28368    0.95381    1.000
    H10      H        0.82346    0.71632    0.04619    1.000
    H11      H        0.32346    0.78368    0.54619    1.000
    H12      H        0.67654    0.21632    0.45381    1.000
    H13      H        0.20954    0.52120    0.42368    1.000
    H14      H        0.79046    0.47881    0.57632    1.000
    H15      H        0.78890    0.51803    0.07763    1.000
    H16      H        0.21110    0.48197    0.92237    1.000
    H17      H        0.71110    0.01803    0.42237    1.000
    H18      H        0.28890    0.98197    0.57763    1.000
    H19      H        0.29046    0.02119    0.07632    1.000
    H20      H        0.70954    0.97881    0.92368    1.000
    H21      H        0.34541    0.17161    0.24635    1.000
    H22      H        0.65459    0.82839    0.75365    1.000
    H23      H        0.64862    0.17364    0.23792    1.000
    H24      H        0.35138    0.82636    0.76208    1.000
    H25      H        0.85138    0.67364    0.26208    1.000
    H26      H        0.14862    0.32636    0.73792    1.000
    H27      H        0.15459    0.67161    0.25365    1.000
    H28      H        0.84541    0.32839    0.74635    1.000
    H29      H        0.47749    0.28779    0.23577    1.000
    H30      H        0.52251    0.71221    0.76424    1.000
    H31      H        0.02251    0.78779    0.26423    1.000
    H32      H        0.97750    0.21221    0.73577    1.000
