data_functionalizedCrystal
_audit_creation_method	'EQeq! by Chris Wilmer'
_symmetry_space_group_name_H-M	'P1'
_symmetry_Int_Tables_number	1
_symmetry_cell_setting	triclinic
loop_
_symmetry_equiv_pos_as_xyz
  x,y,z
_cell_length_a	27.384
_cell_length_b	27.384
_cell_length_c	9.114
_cell_angle_alpha	90
_cell_angle_beta	90
_cell_angle_gamma	120
loop_
_atom_site_label
_atom_site_type_symbol
_atom_site_fract_x
_atom_site_fract_y
_atom_site_fract_z
_atom_site_charge
Mof_Mg	Mg	0.11046	0.12253	0.0854	1.474
Mof_O 	O 	0.19447	0.14681	0.079	-0.479
Mof_O 	O 	0.19285	0.0662	0.0281	-0.498
Mof_C 	C 	0.21726	0.11679	0.071	0.451
Mof_C 	C 	0.27708	0.14222	0.1178	-0.151
Mof_C 	C 	0.30527	0.19646	0.1744	0.106
Mof_C 	C 	0.30559	0.1115	0.1104	0.086
Mof_N 	N 	0.283	0.0565	0.0516	-0.073
Mof_C 	C 	0.07726	0.00506	0.2166	0.623
Mof_H 	H 	0.0656	0.9855	0.3049	-0.173
Mof_O 	O 	0.09599	0.05642	0.222	-0.561
Mof_O 	O 	0.07236	0.97666	0.1039	-0.709
Mof_N 	N 	0.282	0.2272	0.197	-0.085
Mof_Mg	Mg	0.77713	0.45586	0.41873	1.474
Mof_O 	O 	0.86114	0.48014	0.41233	-0.48
Mof_O 	O 	0.85952	0.39953	0.36143	-0.499
Mof_C 	C 	0.88393	0.45012	0.40433	0.45
Mof_C 	C 	0.94375	0.47555	0.45113	-0.152
Mof_C 	C 	0.97194	0.52979	0.50773	0.105
Mof_C 	C 	0.97226	0.44483	0.44373	0.085
Mof_N 	N 	0.94967	0.38983	0.38493	-0.074
Mof_C 	C 	0.74393	0.33839	0.54993	0.619
Mof_H 	H 	0.73227	0.31883	0.63823	-0.173
Mof_O 	O 	0.76266	0.38975	0.55533	-0.561
Mof_O 	O 	0.73903	0.30999	0.43723	-0.708
Mof_N 	N 	0.94867	0.56053	0.53033	-0.086
Mof_Mg	Mg	0.44379	0.7892	0.75207	1.473
Mof_O 	O 	0.5278	0.81348	0.74567	-0.48
Mof_O 	O 	0.52618	0.73287	0.69477	-0.499
Mof_C 	C 	0.55059	0.78346	0.73767	0.45
Mof_C 	C 	0.61041	0.80889	0.78447	-0.152
Mof_C 	C 	0.6386	0.86313	0.84107	0.105
Mof_C 	C 	0.63892	0.77817	0.77707	0.085
Mof_N 	N 	0.61633	0.72317	0.71827	-0.074
Mof_C 	C 	0.41059	0.67173	0.88327	0.619
Mof_H 	H 	0.39893	0.65217	0.97157	-0.173
Mof_O 	O 	0.42932	0.72309	0.88867	-0.561
Mof_O 	O 	0.40569	0.64333	0.77057	-0.708
Mof_N 	N 	0.61533	0.89387	0.86367	-0.086
Mof_Mg	Mg	0.87747	0.98793	0.0854	1.473
Mof_O 	O 	0.85319	0.04766	0.079	-0.479
Mof_O 	O 	0.9338	0.12665	0.0281	-0.498
Mof_C 	C 	0.88321	0.10047	0.071	0.45
Mof_C 	C 	0.85778	0.13486	0.1178	-0.151
Mof_C 	C 	0.80354	0.10881	0.1744	0.105
Mof_C 	C 	0.8885	0.19409	0.1104	0.085
Mof_N 	N 	0.9435	0.2265	0.0516	-0.074
Mof_C 	C 	0.99494	0.0722	0.2166	0.623
Mof_H 	H 	0.0145	0.0801	0.3049	-0.174
Mof_O 	O 	0.94358	0.03957	0.222	-0.562
Mof_O 	O 	0.02334	0.0957	0.1039	-0.71
Mof_N 	N 	0.7728	0.0548	0.197	-0.086
Mof_Mg	Mg	0.54414	0.32126	0.41873	1.473
Mof_O 	O 	0.51986	0.38099	0.41233	-0.48
Mof_O 	O 	0.60047	0.45998	0.36143	-0.499
Mof_C 	C 	0.54988	0.4338	0.40433	0.45
Mof_C 	C 	0.52445	0.46819	0.45113	-0.152
Mof_C 	C 	0.47021	0.44214	0.50773	0.105
Mof_C 	C 	0.55517	0.52742	0.44373	0.085
Mof_N 	N 	0.61017	0.55983	0.38493	-0.074
Mof_C 	C 	0.66161	0.40553	0.54993	0.619
Mof_H 	H 	0.68117	0.41343	0.63823	-0.173
Mof_O 	O 	0.61025	0.3729	0.55533	-0.561
Mof_O 	O 	0.69001	0.42903	0.43723	-0.708
Mof_N 	N 	0.43947	0.38813	0.53033	-0.086
Mof_Mg	Mg	0.2108	0.6546	0.75207	1.473
Mof_O 	O 	0.18652	0.71433	0.74567	-0.48
Mof_O 	O 	0.26713	0.79332	0.69477	-0.499
Mof_C 	C 	0.21654	0.76714	0.73767	0.45
Mof_C 	C 	0.19111	0.80153	0.78447	-0.152
Mof_C 	C 	0.13687	0.77548	0.84107	0.105
Mof_C 	C 	0.22183	0.86076	0.77707	0.085
Mof_N 	N 	0.27683	0.89317	0.71827	-0.074
Mof_C 	C 	0.32827	0.73887	0.88327	0.619
Mof_H 	H 	0.34783	0.74677	0.97157	-0.173
Mof_O 	O 	0.27691	0.70624	0.88867	-0.561
Mof_O 	O 	0.35667	0.76237	0.77057	-0.708
Mof_N 	N 	0.10613	0.72147	0.86367	-0.086
Mof_Mg	Mg	0.01207	0.88954	0.0854	1.473
Mof_O 	O 	0.95234	0.80553	0.079	-0.48
Mof_O 	O 	0.87335	0.80715	0.0281	-0.499
Mof_C 	C 	0.89953	0.78274	0.071	0.45
Mof_C 	C 	0.86514	0.72292	0.1178	-0.152
Mof_C 	C 	0.89119	0.69473	0.1744	0.105
Mof_C 	C 	0.80591	0.69441	0.1104	0.085
Mof_N 	N 	0.7735	0.717	0.0516	-0.074
Mof_C 	C 	0.9278	0.92274	0.2166	0.619
Mof_H 	H 	0.9199	0.9344	0.3049	-0.173
Mof_O 	O 	0.96043	0.90401	0.222	-0.561
Mof_O 	O 	0.9043	0.92764	0.1039	-0.708
Mof_N 	N 	0.9452	0.718	0.197	-0.086
Mof_Mg	Mg	0.67874	0.22287	0.41873	1.473
Mof_O 	O 	0.61901	0.13886	0.41233	-0.48
Mof_O 	O 	0.54002	0.14048	0.36143	-0.499
Mof_C 	C 	0.5662	0.11607	0.40433	0.45
Mof_C 	C 	0.53181	0.05625	0.45113	-0.152
Mof_C 	C 	0.55786	0.02806	0.50773	0.105
Mof_C 	C 	0.47258	0.02774	0.44373	0.085
Mof_N 	N 	0.44017	0.05033	0.38493	-0.074
Mof_C 	C 	0.59447	0.25607	0.54993	0.619
Mof_H 	H 	0.58657	0.26773	0.63823	-0.173
Mof_O 	O 	0.6271	0.23734	0.55533	-0.561
Mof_O 	O 	0.57097	0.26097	0.43723	-0.708
Mof_N 	N 	0.61187	0.05133	0.53033	-0.086
Mof_Mg	Mg	0.3454	0.55621	0.75207	1.473
Mof_O 	O 	0.28567	0.4722	0.74567	-0.48
Mof_O 	O 	0.20668	0.47382	0.69477	-0.499
Mof_C 	C 	0.23286	0.44941	0.73767	0.45
Mof_C 	C 	0.19847	0.38959	0.78447	-0.152
Mof_C 	C 	0.22452	0.3614	0.84107	0.105
Mof_C 	C 	0.13924	0.36108	0.77707	0.085
Mof_N 	N 	0.10683	0.38367	0.71827	-0.074
Mof_C 	C 	0.26113	0.58941	0.88327	0.619
Mof_H 	H 	0.25323	0.60107	0.97157	-0.173
Mof_O 	O 	0.29376	0.57068	0.88867	-0.561
Mof_O 	O 	0.23763	0.59431	0.77057	-0.708
Mof_N 	N 	0.27853	0.38467	0.86367	-0.086
Mof_Mg	Mg	0.88954	0.87747	0.9146	1.473
Mof_O 	O 	0.80553	0.85319	0.921	-0.48
Mof_O 	O 	0.80715	0.9338	0.9719	-0.499
Mof_C 	C 	0.78274	0.88321	0.929	0.45
Mof_C 	C 	0.72292	0.85778	0.8822	-0.152
Mof_C 	C 	0.69473	0.80354	0.8256	0.105
Mof_C 	C 	0.69441	0.8885	0.8896	0.085
Mof_N 	N 	0.717	0.9435	0.9484	-0.074
Mof_C 	C 	0.92274	0.99494	0.7834	0.622
Mof_H 	H 	0.9344	0.0145	0.6951	-0.174
Mof_O 	O 	0.90401	0.94358	0.778	-0.562
Mof_O 	O 	0.92764	0.02334	0.8961	-0.71
Mof_N 	N 	0.718	0.7728	0.803	-0.086
Mof_Mg	Mg	0.55621	0.2108	0.24793	1.473
Mof_O 	O 	0.4722	0.18652	0.25433	-0.48
Mof_O 	O 	0.47382	0.26713	0.30523	-0.499
Mof_C 	C 	0.44941	0.21654	0.26233	0.45
Mof_C 	C 	0.38959	0.19111	0.21553	-0.152
Mof_C 	C 	0.3614	0.13687	0.15893	0.105
Mof_C 	C 	0.36108	0.22183	0.22293	0.085
Mof_N 	N 	0.38367	0.27683	0.28173	-0.074
Mof_C 	C 	0.58941	0.32827	0.11673	0.619
Mof_H 	H 	0.60107	0.34783	0.02843	-0.173
Mof_O 	O 	0.57068	0.27691	0.11133	-0.561
Mof_O 	O 	0.59431	0.35667	0.22943	-0.708
Mof_N 	N 	0.38467	0.10613	0.13633	-0.086
Mof_Mg	Mg	0.22287	0.54414	0.58127	1.473
Mof_O 	O 	0.13886	0.51986	0.58767	-0.48
Mof_O 	O 	0.14048	0.60047	0.63857	-0.499
Mof_C 	C 	0.11607	0.54988	0.59567	0.45
Mof_C 	C 	0.05625	0.52445	0.54887	-0.152
Mof_C 	C 	0.02806	0.47021	0.49227	0.105
Mof_C 	C 	0.02774	0.55517	0.55627	0.085
Mof_N 	N 	0.05033	0.61017	0.61507	-0.074
Mof_C 	C 	0.25607	0.66161	0.45007	0.619
Mof_H 	H 	0.26773	0.68117	0.36177	-0.173
Mof_O 	O 	0.23734	0.61025	0.44467	-0.561
Mof_O 	O 	0.26097	0.69001	0.56277	-0.708
Mof_N 	N 	0.05133	0.43947	0.46967	-0.086
Mof_Mg	Mg	0.12253	0.01207	0.9146	1.473
Mof_O 	O 	0.14681	0.95234	0.921	-0.479
Mof_O 	O 	0.0662	0.87335	0.9719	-0.498
Mof_C 	C 	0.11679	0.89953	0.929	0.45
Mof_C 	C 	0.14222	0.86514	0.8822	-0.151
Mof_C 	C 	0.19646	0.89119	0.8256	0.105
Mof_C 	C 	0.1115	0.80591	0.8896	0.085
Mof_N 	N 	0.0565	0.7735	0.9484	-0.074
Mof_C 	C 	0.00506	0.9278	0.7834	0.623
Mof_H 	H 	0.9855	0.9199	0.6951	-0.174
Mof_O 	O 	0.05642	0.96043	0.778	-0.562
Mof_O 	O 	0.97666	0.9043	0.8961	-0.71
Mof_N 	N 	0.2272	0.9452	0.803	-0.086
Mof_Mg	Mg	0.7892	0.3454	0.24793	1.473
Mof_O 	O 	0.81348	0.28567	0.25433	-0.48
Mof_O 	O 	0.73287	0.20668	0.30523	-0.499
Mof_C 	C 	0.78346	0.23286	0.26233	0.45
Mof_C 	C 	0.80889	0.19847	0.21553	-0.152
Mof_C 	C 	0.86313	0.22452	0.15893	0.105
Mof_C 	C 	0.77817	0.13924	0.22293	0.085
Mof_N 	N 	0.72317	0.10683	0.28173	-0.074
Mof_C 	C 	0.67173	0.26113	0.11673	0.619
Mof_H 	H 	0.65217	0.25323	0.02843	-0.173
Mof_O 	O 	0.72309	0.29376	0.11133	-0.561
Mof_O 	O 	0.64333	0.23763	0.22943	-0.708
Mof_N 	N 	0.89387	0.27853	0.13633	-0.086
Mof_Mg	Mg	0.45586	0.67874	0.58127	1.473
Mof_O 	O 	0.48014	0.61901	0.58767	-0.48
Mof_O 	O 	0.39953	0.54002	0.63857	-0.499
Mof_C 	C 	0.45012	0.5662	0.59567	0.45
Mof_C 	C 	0.47555	0.53181	0.54887	-0.152
Mof_C 	C 	0.52979	0.55786	0.49227	0.105
Mof_C 	C 	0.44483	0.47258	0.55627	0.085
Mof_N 	N 	0.38983	0.44017	0.61507	-0.074
Mof_C 	C 	0.33839	0.59447	0.45007	0.619
Mof_H 	H 	0.31883	0.58657	0.36177	-0.173
Mof_O 	O 	0.38975	0.6271	0.44467	-0.561
Mof_O 	O 	0.30999	0.57097	0.56277	-0.708
Mof_N 	N 	0.56053	0.61187	0.46967	-0.086
Mof_Mg	Mg	0.98793	0.11046	0.9146	1.473
Mof_O 	O 	0.04766	0.19447	0.921	-0.48
Mof_O 	O 	0.12665	0.19285	0.9719	-0.499
Mof_C 	C 	0.10047	0.21726	0.929	0.45
Mof_C 	C 	0.13486	0.27708	0.8822	-0.152
Mof_C 	C 	0.10881	0.30527	0.8256	0.105
Mof_C 	C 	0.19409	0.30559	0.8896	0.085
Mof_N 	N 	0.2265	0.283	0.9484	-0.074
Mof_C 	C 	0.0722	0.07726	0.7834	0.619
Mof_H 	H 	0.0801	0.0656	0.6951	-0.173
Mof_O 	O 	0.03957	0.09599	0.778	-0.561
Mof_O 	O 	0.0957	0.07236	0.8961	-0.708
Mof_N 	N 	0.0548	0.282	0.803	-0.086
Mof_Mg	Mg	0.6546	0.44379	0.24793	1.473
Mof_O 	O 	0.71433	0.5278	0.25433	-0.48
Mof_O 	O 	0.79332	0.52618	0.30523	-0.499
Mof_C 	C 	0.76714	0.55059	0.26233	0.45
Mof_C 	C 	0.80153	0.61041	0.21553	-0.152
Mof_C 	C 	0.77548	0.6386	0.15893	0.105
Mof_C 	C 	0.86076	0.63892	0.22293	0.085
Mof_N 	N 	0.89317	0.61633	0.28173	-0.074
Mof_C 	C 	0.73887	0.41059	0.11673	0.619
Mof_H 	H 	0.74677	0.39893	0.02843	-0.173
Mof_O 	O 	0.70624	0.42932	0.11133	-0.561
Mof_O 	O 	0.76237	0.40569	0.22943	-0.708
Mof_N 	N 	0.72147	0.61533	0.13633	-0.086
Mof_Mg	Mg	0.32126	0.77713	0.58127	1.473
Mof_O 	O 	0.38099	0.86114	0.58767	-0.48
Mof_O 	O 	0.45998	0.85952	0.63857	-0.499
Mof_C 	C 	0.4338	0.88393	0.59567	0.45
Mof_C 	C 	0.46819	0.94375	0.54887	-0.152
Mof_C 	C 	0.44214	0.97194	0.49227	0.105
Mof_C 	C 	0.52742	0.97226	0.55627	0.085
Mof_N 	N 	0.55983	0.94967	0.61507	-0.074
Mof_C 	C 	0.40553	0.74393	0.45007	0.619
Mof_H 	H 	0.41343	0.73227	0.36177	-0.173
Mof_O 	O 	0.3729	0.76266	0.44467	-0.561
Mof_O 	O 	0.42903	0.73903	0.56277	-0.708
Mof_N 	N 	0.38813	0.94867	0.46967	-0.086
_end
