# CIF file generated by openbabel 3.1.0, see https://openbabel.org
data_I
_chemical_name_common 'image0'
_cell_length_a 6.6737
_cell_length_b 18.8769
_cell_length_c 13.5525
_cell_angle_alpha 90
_cell_angle_beta 95.266
_cell_angle_gamma 90
_space_group_name_H-M_alt 'P 1'
_space_group_name_Hall 'P 1'
loop_
    _symmetry_equiv_pos_as_xyz
    x,y,z
loop_
    _atom_site_label
    _atom_site_type_symbol
    _atom_site_fract_x
    _atom_site_fract_y
    _atom_site_fract_z
    _atom_site_occupancy
    Ag1      Ag       0.27094    0.00853    0.94594    1.000
    N1       N        0.52220    0.06900    0.89110    1.000
    N2       N        0.50870    0.14130    0.90780    1.000
    N3       N        0.70810    0.12230    0.78950    1.000
    N4       N        0.09160    0.40410    0.52420    1.000
    N5       N        0.92170    0.41460    0.57200    1.000
    N6       N        0.00520    0.30300    0.58770    1.000
    C1       C        0.64050    0.05950    0.82010    1.000
    H1       H        0.67310    0.01570    0.79460    1.000
    C2       C        0.62030    0.17070    0.84520    1.000
    H2       H        0.63760    0.21940    0.83950    1.000
    C3       C        0.13800    0.33710    0.53510    1.000
    H3       H        0.24810    0.31570    0.51000    1.000
    C4       C        0.87150    0.35360    0.60910    1.000
    H4       H        0.76070    0.34610    0.64470    1.000
    C5       C        0.84310    0.13330    0.70920    1.000
    C6       C        0.85570    0.21320    0.68910    1.000
    H5       H        0.72270    0.23170    0.66880    1.000
    H6       H        0.90790    0.23770    0.74890    1.000
    C7       C        0.99450    0.22540    0.60730    1.000
    C8       C        0.91210    0.18820    0.51290    1.000
    H7       H        0.00000    0.19650    0.46100    1.000
    H8       H        0.77980    0.20670    0.49110    1.000
    C9       C        0.89810    0.10830    0.53330    1.000
    H9       H        0.84530    0.08400    0.47250    1.000
    C10      C        0.75620    0.09540    0.61480    1.000
    H10      H        0.62320    0.11370    0.59390    1.000
    H11      H        0.74490    0.04500    0.62710    1.000
    C11      C        0.05390    0.10510    0.74370    1.000
    H12      H        0.10710    0.12960    0.80340    1.000
    H13      H        0.04720    0.05490    0.75830    1.000
    C12      C        0.19040    0.11760    0.66040    1.000
    H14      H        0.32480    0.09900    0.68120    1.000
    C13      C        0.20720    0.19740    0.64010    1.000
    H15      H        0.29590    0.20550    0.58840    1.000
    H16      H        0.26200    0.22180    0.69960    1.000
    C14      C        0.10820    0.07970    0.56660    1.000
    H17      H        0.10100    0.02920    0.57890    1.000
    H18      H        0.19700    0.08730    0.51480    1.000
    Ag2      Ag       0.72906    0.50853    0.55406    1.000
    N7       N        0.47780    0.56900    0.60890    1.000
    N8       N        0.49130    0.64130    0.59220    1.000
    N9       N        0.29190    0.62230    0.71050    1.000
    N10      N        0.90840    0.90410    0.97580    1.000
    N11      N        0.07830    0.91460    0.92800    1.000
    N12      N        0.99480    0.80300    0.91230    1.000
    C15      C        0.35950    0.55950    0.67990    1.000
    H19      H        0.32690    0.51570    0.70540    1.000
    C16      C        0.37970    0.67070    0.65480    1.000
    H20      H        0.36240    0.71940    0.66050    1.000
    C17      C        0.86200    0.83710    0.96490    1.000
    H21      H        0.75190    0.81570    0.99000    1.000
    C18      C        0.12850    0.85360    0.89090    1.000
    H22      H        0.23930    0.84610    0.85530    1.000
    C19      C        0.15690    0.63330    0.79080    1.000
    C20      C        0.14430    0.71320    0.81090    1.000
    H23      H        0.27730    0.73170    0.83120    1.000
    H24      H        0.09210    0.73770    0.75110    1.000
    C21      C        0.00550    0.72540    0.89270    1.000
    C22      C        0.08790    0.68820    0.98710    1.000
    H25      H        0.00000    0.69650    0.03900    1.000
    H26      H        0.22020    0.70670    0.00890    1.000
    C23      C        0.10190    0.60830    0.96670    1.000
    H27      H        0.15470    0.58400    0.02750    1.000
    C24      C        0.24380    0.59540    0.88520    1.000
    H28      H        0.37680    0.61370    0.90610    1.000
    H29      H        0.25510    0.54500    0.87290    1.000
    C25      C        0.94610    0.60510    0.75630    1.000
    H30      H        0.89290    0.62960    0.69660    1.000
    H31      H        0.95280    0.55490    0.74170    1.000
    C26      C        0.80960    0.61760    0.83960    1.000
    H32      H        0.67520    0.59900    0.81880    1.000
    C27      C        0.79280    0.69740    0.85990    1.000
    H33      H        0.70410    0.70550    0.91160    1.000
    H34      H        0.73800    0.72180    0.80040    1.000
    C28      C        0.89180    0.57970    0.93340    1.000
    H35      H        0.89900    0.52920    0.92110    1.000
    H36      H        0.80300    0.58730    0.98520    1.000
    Ag3      Ag       0.72906    0.99147    0.05406    1.000
    N13      N        0.47780    0.93100    0.10890    1.000
    N14      N        0.49130    0.85870    0.09220    1.000
    N15      N        0.29190    0.87770    0.21050    1.000
    N16      N        0.90840    0.59590    0.47580    1.000
    N17      N        0.07830    0.58540    0.42800    1.000
    N18      N        0.99480    0.69700    0.41230    1.000
    C29      C        0.35950    0.94050    0.17990    1.000
    H37      H        0.32690    0.98430    0.20540    1.000
    C30      C        0.37970    0.82930    0.15480    1.000
    H38      H        0.36240    0.78060    0.16050    1.000
    C31      C        0.86200    0.66290    0.46490    1.000
    H39      H        0.75190    0.68430    0.49000    1.000
    C32      C        0.12850    0.64640    0.39090    1.000
    H40      H        0.23930    0.65390    0.35530    1.000
    C33      C        0.15690    0.86670    0.29080    1.000
    C34      C        0.14430    0.78680    0.31090    1.000
    H41      H        0.27730    0.76830    0.33120    1.000
    H42      H        0.09210    0.76230    0.25110    1.000
    C35      C        0.00550    0.77460    0.39270    1.000
    C36      C        0.08790    0.81180    0.48710    1.000
    H43      H        0.00000    0.80350    0.53900    1.000
    H44      H        0.22020    0.79330    0.50890    1.000
    C37      C        0.10190    0.89170    0.46670    1.000
    H45      H        0.15470    0.91600    0.52750    1.000
    C38      C        0.24380    0.90460    0.38520    1.000
    H46      H        0.37680    0.88630    0.40610    1.000
    H47      H        0.25510    0.95500    0.37290    1.000
    C39      C        0.94610    0.89490    0.25630    1.000
    H48      H        0.89290    0.87040    0.19660    1.000
    H49      H        0.95280    0.94510    0.24170    1.000
    C40      C        0.80960    0.88240    0.33960    1.000
    H50      H        0.67520    0.90100    0.31880    1.000
    C41      C        0.79280    0.80260    0.35990    1.000
    H51      H        0.70410    0.79450    0.41160    1.000
    H52      H        0.73800    0.77820    0.30040    1.000
    C42      C        0.89180    0.92030    0.43340    1.000
    H53      H        0.89900    0.97080    0.42110    1.000
    H54      H        0.80300    0.91270    0.48520    1.000
    Ag4      Ag       0.27094    0.49147    0.44594    1.000
    N19      N        0.52220    0.43100    0.39110    1.000
    N20      N        0.50870    0.35870    0.40780    1.000
    N21      N        0.70810    0.37770    0.28950    1.000
    N22      N        0.09160    0.09590    0.02420    1.000
    N23      N        0.92170    0.08540    0.07200    1.000
    N24      N        0.00520    0.19700    0.08770    1.000
    C43      C        0.64050    0.44050    0.32010    1.000
    H55      H        0.67310    0.48430    0.29460    1.000
    C44      C        0.62030    0.32930    0.34520    1.000
    H56      H        0.63760    0.28060    0.33950    1.000
    C45      C        0.13800    0.16290    0.03510    1.000
    H57      H        0.24810    0.18430    0.01000    1.000
    C46      C        0.87150    0.14640    0.10910    1.000
    H58      H        0.76070    0.15390    0.14470    1.000
    C47      C        0.84310    0.36670    0.20920    1.000
    C48      C        0.85570    0.28680    0.18910    1.000
    H59      H        0.72270    0.26830    0.16880    1.000
    H60      H        0.90790    0.26230    0.24890    1.000
    C49      C        0.99450    0.27460    0.10730    1.000
    C50      C        0.91210    0.31180    0.01290    1.000
    H61      H        0.00000    0.30350    0.96100    1.000
    H62      H        0.77980    0.29330    0.99110    1.000
    C51      C        0.89810    0.39170    0.03330    1.000
    H63      H        0.84530    0.41600    0.97250    1.000
    C52      C        0.75620    0.40460    0.11480    1.000
    H64      H        0.62320    0.38630    0.09390    1.000
    H65      H        0.74490    0.45500    0.12710    1.000
    C53      C        0.05390    0.39490    0.24370    1.000
    H66      H        0.10710    0.37040    0.30340    1.000
    H67      H        0.04720    0.44510    0.25830    1.000
    C54      C        0.19040    0.38240    0.16040    1.000
    H68      H        0.32480    0.40100    0.18120    1.000
    C55      C        0.20720    0.30260    0.14010    1.000
    H69      H        0.29590    0.29450    0.08840    1.000
    H70      H        0.26200    0.27820    0.19960    1.000
    C56      C        0.10820    0.42030    0.06660    1.000
    H71      H        0.10100    0.47080    0.07890    1.000
    H72      H        0.19700    0.41270    0.01480    1.000
