data_functionalizedCrystal
_audit_creation_method	'EQeq! by Chris Wilmer'
_symmetry_space_group_name_H-M	'P1'
_symmetry_Int_Tables_number	1
_symmetry_cell_setting	triclinic
loop_
_symmetry_equiv_pos_as_xyz
  x,y,z
_cell_length_a	34.346
_cell_length_b	15.114
_cell_length_c	32.5502
_cell_angle_alpha	90
_cell_angle_beta	103.415
_cell_angle_gamma	90
loop_
_atom_site_label
_atom_site_type_symbol
_atom_site_fract_x
_atom_site_fract_y
_atom_site_fract_z
_atom_site_charge
Mof_C 	C 	0.5312	0.5468	0.547	0.066
Mof_H 	H 	0.5107	0.5384	0.5619	-0.007
Mof_C 	C 	0.5278	0.6162	0.5191	-0.117
Mof_H 	H 	0.5052	0.6541	0.5143	0.071
Mof_C 	C 	0.5579	0.6302	0.498	0.047
Mof_C 	C 	0.5894	0.5704	0.5039	-0.114
Mof_H 	H 	0.6099	0.5769	0.4889	0.075
Mof_C 	C 	0.5904	0.5014	0.5319	0.061
Mof_H 	H 	0.6118	0.4602	0.5357	-0.016
Mof_C 	C 	0.5559	0.7081	0.4694	0.086
Mof_C 	C 	0.5235	0.8323	0.4427	0.08
Mof_C 	C 	0.5754	0.7811	0.418	0.101
Mof_C 	C 	0.6673	0.7956	0.3744	0.086
Mof_H 	H 	0.6951	0.7829	0.3832	-0.033
Mof_C 	C 	0.6429	0.777	0.4013	-0.127
Mof_H 	H 	0.6539	0.752	0.4282	0.081
Mof_C 	C 	0.6024	0.7945	0.3893	0.063
Mof_C 	C 	0.587	0.8308	0.349	-0.121
Mof_H 	H 	0.5594	0.845	0.3396	0.072
Mof_C 	C 	0.6138	0.845	0.3236	0.07
Mof_H 	H 	0.6034	0.8658	0.2957	-0.071
Mof_C 	C 	0.4507	0.0176	0.4119	0.076
Mof_H 	H 	0.4437	0.059	0.3895	-0.032
Mof_C 	C 	0.4823	0.9621	0.4124	-0.14
Mof_H 	H 	0.4976	0.968	0.3918	0.074
Mof_C 	C 	0.4916	0.8982	0.4427	0.053
Mof_C 	C 	0.4711	0.8994	0.4743	-0.122
Mof_H 	H 	0.478	0.8591	0.4973	0.077
Mof_C 	C 	0.4404	0.959	0.4727	0.07
Mof_H 	H 	0.4265	0.9592	0.4948	-0.008
Mof_C 	C 	0.3356	0.9441	0.3894	0.069
Mof_H 	H 	0.3545	0.912	0.41	-0.009
Mof_C 	C 	0.3064	0.8975	0.3622	-0.133
Mof_H 	H 	0.3054	0.8348	0.364	0.103
Mof_C 	C 	0.2783	0.9427	0.3323	0.077
Mof_C 	C 	0.2818	0.0341	0.3305	-0.154
Mof_H 	H 	0.2636	0.0675	0.3099	0.119
Mof_C 	C 	0.3122	0.0754	0.3593	0.087
Mof_H 	H 	0.3141	0.138	0.3582	-0.035
Mof_C 	C 	0.2454	0.8947	0.3031	0.104
Mof_C 	C 	0.21	0.7712	0.2828	0.114
Mof_C 	C 	0.1921	0.8983	0.2471	0.097
Mof_C 	C 	0.1453	0.077	0.1712	0.066
Mof_H 	H 	0.1503	0.1371	0.1656	0.012
Mof_C 	C 	0.1715	0.0341	0.2037	-0.128
Mof_H 	H 	0.1939	0.0647	0.2201	0.111
Mof_C 	C 	0.165	0.9481	0.2122	0.058
Mof_C 	C 	0.133	0.9061	0.1871	-0.134
Mof_H 	H 	0.1283	0.8453	0.1914	0.085
Mof_C 	C 	0.1077	0.9526	0.1553	0.076
Mof_H 	H 	0.0853	0.9227	0.1384	-0.011
Mof_C 	C 	0.1742	0.5386	0.2607	0.094
Mof_H 	H 	0.1564	0.5073	0.2388	-0.065
Mof_C 	C 	0.1775	0.6286	0.2562	-0.146
Mof_H 	H 	0.1617	0.6586	0.2324	0.085
Mof_C 	C 	0.2042	0.6737	0.287	0.09
Mof_C 	C 	0.2255	0.6258	0.3205	-0.156
Mof_H 	H 	0.2443	0.6544	0.3425	0.095
Mof_C 	C 	0.2196	0.5367	0.3222	0.111
Mof_H 	H 	0.2347	0.5046	0.3456	-0.055
Mof_N 	N 	0.653	0.8314	0.3358	-0.315
Mof_N 	N 	0.56229	0.4904	0.55409	-0.267
Mof_N 	N 	0.42972	0.0166	0.4409	-0.282
Mof_N 	N 	0.58204	0.714	0.44474	-0.137
Mof_N 	N 	0.52723	0.7666	0.4712	-0.149
Mof_N 	N 	0.54561	0.841	0.4141	-0.138
Mof_N 	N 	0.3391	0.0321	0.3886	-0.288
Mof_N 	N 	0.22245	0.9432	0.27151	-0.133
Mof_N 	N 	0.24058	0.8092	0.30995	-0.121
Mof_N 	N 	0.18432	0.8125	0.25132	-0.135
Mof_N 	N 	0.194	0.4935	0.293	-0.322
Mof_N 	N 	0.1131	0.0369	0.1474	-0.276
Mof_Zn	Zn	0.69042	0.85601	0.2959	0.818
Mof_I 	I 	0.6524	0.80487	0.22347	-1.598
Mof_I 	I 	0.75902	0.7923	0.32775	0.911
Mof_Zn	Zn	0.5682	0.4003	0.6018	0.56
Mof_I 	I 	0.60473	0.2646	0.5841	-0.082
Mof_I 	I 	0.50434	0.3943	0.62818	-0.27
Mof_Zn	Zn	0.38031	0.09641	0.43487	1.157
Mof_I 	I 	0.39277	0.2461	0.4059	-0.175
Mof_I 	I 	0.3583	0.0826	0.5038	-0.165
Mof_Zn	Zn	0.673	0.856	0.2804	0.839
Mof_I 	I 	0.626	0.8294	0.20838	1.092
Mof_I 	I 	0.73899	0.7724	0.3025	-1.365
Mof_Zn	Zn	0.5751	0.3919	0.6022	0.569
Mof_I 	I 	0.6045	0.2614	0.57142	-0.286
Mof_I 	I 	0.51204	0.3753	0.6298	-0.073
Mof_I 	I 	0.3974	0.2353	0.3987	-0.199
Mof_I 	I 	0.3551	0.0683	0.5015	-0.179
Mof_C 	C 	0.0312	0.0468	0.547	0.065
Mof_H 	H 	0.0107	0.0384	0.5619	-0.008
Mof_C 	C 	0.0278	0.1162	0.5191	-0.118
Mof_H 	H 	0.0052	0.1541	0.5143	0.07
Mof_C 	C 	0.0579	0.1302	0.498	0.046
Mof_C 	C 	0.0894	0.0704	0.5039	-0.115
Mof_H 	H 	0.1099	0.0769	0.4889	0.074
Mof_C 	C 	0.0904	0.0014	0.5319	0.06
Mof_H 	H 	0.1118	0.9602	0.5357	-0.017
Mof_C 	C 	0.0559	0.2081	0.4694	0.085
Mof_C 	C 	0.0235	0.3323	0.4427	0.079
Mof_C 	C 	0.0754	0.2811	0.418	0.1
Mof_C 	C 	0.1673	0.2956	0.3744	0.085
Mof_H 	H 	0.1951	0.2829	0.3832	-0.034
Mof_C 	C 	0.1429	0.277	0.4013	-0.128
Mof_H 	H 	0.1539	0.252	0.4282	0.08
Mof_C 	C 	0.1024	0.2945	0.3893	0.062
Mof_C 	C 	0.087	0.3308	0.349	-0.122
Mof_H 	H 	0.0594	0.345	0.3396	0.071
Mof_C 	C 	0.1138	0.345	0.3236	0.069
Mof_H 	H 	0.1034	0.3658	0.2957	-0.071
Mof_C 	C 	0.9507	0.5176	0.4119	0.076
Mof_H 	H 	0.9437	0.559	0.3895	-0.032
Mof_C 	C 	0.9823	0.4621	0.4124	-0.14
Mof_H 	H 	0.9976	0.468	0.3918	0.074
Mof_C 	C 	0.9916	0.3982	0.4427	0.053
Mof_C 	C 	0.9711	0.3994	0.4743	-0.122
Mof_H 	H 	0.978	0.3591	0.4973	0.077
Mof_C 	C 	0.9404	0.459	0.4727	0.07
Mof_H 	H 	0.9265	0.4592	0.4948	-0.008
Mof_C 	C 	0.8356	0.4441	0.3894	0.069
Mof_H 	H 	0.8545	0.412	0.41	-0.009
Mof_C 	C 	0.8064	0.3975	0.3622	-0.133
Mof_H 	H 	0.8054	0.3348	0.364	0.103
Mof_C 	C 	0.7783	0.4427	0.3323	0.077
Mof_C 	C 	0.7818	0.5341	0.3305	-0.154
Mof_H 	H 	0.7636	0.5675	0.3099	0.119
Mof_C 	C 	0.8122	0.5754	0.3593	0.087
Mof_H 	H 	0.8141	0.638	0.3582	-0.035
Mof_C 	C 	0.7454	0.3947	0.3031	0.104
Mof_C 	C 	0.71	0.2712	0.2828	0.114
Mof_C 	C 	0.6921	0.3983	0.2471	0.097
Mof_C 	C 	0.6453	0.577	0.1712	0.066
Mof_H 	H 	0.6503	0.6371	0.1656	0.012
Mof_C 	C 	0.6715	0.5341	0.2037	-0.128
Mof_H 	H 	0.6939	0.5647	0.2201	0.112
Mof_C 	C 	0.665	0.4481	0.2122	0.058
Mof_C 	C 	0.633	0.4061	0.1871	-0.134
Mof_H 	H 	0.6283	0.3453	0.1914	0.085
Mof_C 	C 	0.6077	0.4526	0.1553	0.076
Mof_H 	H 	0.5853	0.4227	0.1384	-0.011
Mof_C 	C 	0.6742	0.0386	0.2607	0.094
Mof_H 	H 	0.6564	0.0073	0.2388	-0.065
Mof_C 	C 	0.6775	0.1286	0.2562	-0.146
Mof_H 	H 	0.6617	0.1586	0.2324	0.085
Mof_C 	C 	0.7042	0.1737	0.287	0.09
Mof_C 	C 	0.7255	0.1258	0.3205	-0.156
Mof_H 	H 	0.7443	0.1544	0.3425	0.095
Mof_C 	C 	0.7196	0.0367	0.3222	0.111
Mof_H 	H 	0.7347	0.0046	0.3456	-0.055
Mof_N 	N 	0.153	0.3314	0.3358	-0.315
Mof_N 	N 	0.06229	0.9904	0.55409	-0.267
Mof_N 	N 	0.92972	0.5166	0.4409	-0.282
Mof_N 	N 	0.08204	0.214	0.44474	-0.137
Mof_N 	N 	0.02723	0.2666	0.4712	-0.149
Mof_N 	N 	0.04561	0.341	0.4141	-0.138
Mof_N 	N 	0.8391	0.5321	0.3886	-0.288
Mof_N 	N 	0.72245	0.4432	0.27151	-0.133
Mof_N 	N 	0.74058	0.3092	0.30995	-0.121
Mof_N 	N 	0.68432	0.3125	0.25132	-0.135
Mof_N 	N 	0.694	0.9935	0.293	-0.322
Mof_N 	N 	0.6131	0.5369	0.1474	-0.276
Mof_Zn	Zn	0.19042	0.35601	0.2959	0.818
Mof_I 	I 	0.1524	0.30487	0.22347	-1.598
Mof_I 	I 	0.25902	0.2923	0.32775	0.911
Mof_Zn	Zn	0.0682	0.9003	0.6018	0.56
Mof_I 	I 	0.10473	0.7646	0.5841	-0.082
Mof_I 	I 	0.00434	0.8943	0.62818	-0.27
Mof_Zn	Zn	0.88031	0.59641	0.43487	1.157
Mof_I 	I 	0.89277	0.7461	0.4059	-0.175
Mof_I 	I 	0.8583	0.5826	0.5038	-0.165
Mof_Zn	Zn	0.173	0.356	0.2804	0.839
Mof_I 	I 	0.126	0.3294	0.20838	1.092
Mof_I 	I 	0.23899	0.2724	0.3025	-1.366
Mof_Zn	Zn	0.0751	0.8919	0.6022	0.569
Mof_I 	I 	0.1045	0.7614	0.57142	-0.286
Mof_I 	I 	0.01204	0.8753	0.6298	-0.074
Mof_I 	I 	0.8974	0.7353	0.3987	-0.199
Mof_I 	I 	0.8551	0.5683	0.5015	-0.179
Mof_C 	C 	0.5312	0.4532	0.047	0.065
Mof_H 	H 	0.5107	0.4616	0.0619	-0.008
Mof_C 	C 	0.5278	0.3838	0.0191	-0.118
Mof_H 	H 	0.5052	0.3459	0.0143	0.07
Mof_C 	C 	0.5579	0.3698	0.998	0.046
Mof_C 	C 	0.5894	0.4296	0.0039	-0.116
Mof_H 	H 	0.6099	0.4231	0.9889	0.074
Mof_C 	C 	0.5904	0.4986	0.0319	0.06
Mof_H 	H 	0.6118	0.5398	0.0357	-0.017
Mof_C 	C 	0.5559	0.2919	0.9694	0.085
Mof_C 	C 	0.5235	0.1677	0.9427	0.079
Mof_C 	C 	0.5754	0.2189	0.918	0.1
Mof_C 	C 	0.6673	0.2044	0.8744	0.085
Mof_H 	H 	0.6951	0.2171	0.8832	-0.034
Mof_C 	C 	0.6429	0.223	0.9013	-0.128
Mof_H 	H 	0.6539	0.248	0.9282	0.08
Mof_C 	C 	0.6024	0.2055	0.8893	0.062
Mof_C 	C 	0.587	0.1692	0.849	-0.122
Mof_H 	H 	0.5594	0.155	0.8396	0.071
Mof_C 	C 	0.6138	0.155	0.8236	0.069
Mof_H 	H 	0.6034	0.1342	0.7957	-0.071
Mof_C 	C 	0.4507	0.9824	0.9119	0.076
Mof_H 	H 	0.4437	0.941	0.8895	-0.032
Mof_C 	C 	0.4823	0.0379	0.9124	-0.14
Mof_H 	H 	0.4976	0.032	0.8918	0.074
Mof_C 	C 	0.4916	0.1018	0.9427	0.053
Mof_C 	C 	0.4711	0.1006	0.9743	-0.122
Mof_H 	H 	0.478	0.1409	0.9973	0.077
Mof_C 	C 	0.4404	0.041	0.9727	0.07
Mof_H 	H 	0.4265	0.0408	0.9948	-0.008
Mof_C 	C 	0.3356	0.0559	0.8894	0.069
Mof_H 	H 	0.3545	0.088	0.91	-0.009
Mof_C 	C 	0.3064	0.1025	0.8622	-0.133
Mof_H 	H 	0.3054	0.1652	0.864	0.103
Mof_C 	C 	0.2783	0.0573	0.8323	0.077
Mof_C 	C 	0.2818	0.9659	0.8305	-0.154
Mof_H 	H 	0.2636	0.9325	0.8099	0.119
Mof_C 	C 	0.3122	0.9246	0.8593	0.087
Mof_H 	H 	0.3141	0.862	0.8582	-0.035
Mof_C 	C 	0.2454	0.1053	0.8031	0.104
Mof_C 	C 	0.21	0.2288	0.7828	0.114
Mof_C 	C 	0.1921	0.1017	0.7471	0.097
Mof_C 	C 	0.1453	0.923	0.6712	0.066
Mof_H 	H 	0.1503	0.8629	0.6656	0.012
Mof_C 	C 	0.1715	0.9659	0.7037	-0.128
Mof_H 	H 	0.1939	0.9353	0.7201	0.111
Mof_C 	C 	0.165	0.0519	0.7122	0.058
Mof_C 	C 	0.133	0.0939	0.6871	-0.134
Mof_H 	H 	0.1283	0.1547	0.6914	0.085
Mof_C 	C 	0.1077	0.0474	0.6553	0.076
Mof_H 	H 	0.0853	0.0773	0.6384	-0.011
Mof_C 	C 	0.1742	0.4614	0.7607	0.094
Mof_H 	H 	0.1564	0.4927	0.7388	-0.065
Mof_C 	C 	0.1775	0.3714	0.7562	-0.146
Mof_H 	H 	0.1617	0.3414	0.7324	0.085
Mof_C 	C 	0.2042	0.3263	0.787	0.09
Mof_C 	C 	0.2255	0.3742	0.8205	-0.156
Mof_H 	H 	0.2443	0.3456	0.8425	0.095
Mof_C 	C 	0.2196	0.4633	0.8222	0.111
Mof_H 	H 	0.2347	0.4954	0.8456	-0.055
Mof_N 	N 	0.653	0.1686	0.8358	-0.315
Mof_N 	N 	0.56229	0.5096	0.05409	-0.267
Mof_N 	N 	0.42972	0.9834	0.9409	-0.282
Mof_N 	N 	0.58204	0.286	0.94474	-0.137
Mof_N 	N 	0.52723	0.2334	0.9712	-0.149
Mof_N 	N 	0.54561	0.159	0.9141	-0.138
Mof_N 	N 	0.3391	0.9679	0.8886	-0.288
Mof_N 	N 	0.22245	0.0568	0.77151	-0.133
Mof_N 	N 	0.24058	0.1908	0.80995	-0.121
Mof_N 	N 	0.18432	0.1875	0.75132	-0.135
Mof_N 	N 	0.194	0.5065	0.793	-0.322
Mof_N 	N 	0.1131	0.9631	0.6474	-0.276
Mof_Zn	Zn	0.69042	0.14399	0.7959	0.818
Mof_I 	I 	0.6524	0.19513	0.72347	-1.598
Mof_I 	I 	0.75902	0.2077	0.82775	0.911
Mof_Zn	Zn	0.5682	0.5997	0.1018	0.56
Mof_I 	I 	0.60473	0.7354	0.0841	-0.082
Mof_I 	I 	0.50434	0.6057	0.12818	-0.27
Mof_Zn	Zn	0.38031	0.90359	0.93487	1.157
Mof_I 	I 	0.39277	0.7539	0.9059	-0.175
Mof_I 	I 	0.3583	0.9174	0.0038	-0.165
Mof_Zn	Zn	0.673	0.144	0.7804	0.839
Mof_I 	I 	0.626	0.1706	0.70838	1.092
Mof_I 	I 	0.73899	0.2276	0.8025	-1.366
Mof_Zn	Zn	0.5751	0.6081	0.1022	0.569
Mof_I 	I 	0.6045	0.7386	0.07142	-0.286
Mof_I 	I 	0.51204	0.6247	0.1298	-0.073
Mof_I 	I 	0.3974	0.7647	0.8987	-0.199
Mof_I 	I 	0.3551	0.9317	0.0015	-0.18
Mof_C 	C 	0.0312	0.9532	0.047	0.065
Mof_H 	H 	0.0107	0.9616	0.0619	-0.008
Mof_C 	C 	0.0278	0.8838	0.0191	-0.118
Mof_H 	H 	0.0052	0.8459	0.0143	0.069
Mof_C 	C 	0.0579	0.8698	0.998	0.046
Mof_C 	C 	0.0894	0.9296	0.0039	-0.115
Mof_H 	H 	0.1099	0.9231	0.9889	0.074
Mof_C 	C 	0.0904	0.9986	0.0319	0.06
Mof_H 	H 	0.1118	0.0398	0.0357	-0.017
Mof_C 	C 	0.0559	0.7919	0.9694	0.085
Mof_C 	C 	0.0235	0.6677	0.9427	0.079
Mof_C 	C 	0.0754	0.7189	0.918	0.1
Mof_C 	C 	0.1673	0.7044	0.8744	0.085
Mof_H 	H 	0.1951	0.7171	0.8832	-0.034
Mof_C 	C 	0.1429	0.723	0.9013	-0.128
Mof_H 	H 	0.1539	0.748	0.9282	0.08
Mof_C 	C 	0.1024	0.7055	0.8893	0.062
Mof_C 	C 	0.087	0.6692	0.849	-0.122
Mof_H 	H 	0.0594	0.655	0.8396	0.071
Mof_C 	C 	0.1138	0.655	0.8236	0.069
Mof_H 	H 	0.1034	0.6342	0.7957	-0.071
Mof_C 	C 	0.9507	0.4824	0.9119	0.076
Mof_H 	H 	0.9437	0.441	0.8895	-0.032
Mof_C 	C 	0.9823	0.5379	0.9124	-0.14
Mof_H 	H 	0.9976	0.532	0.8918	0.074
Mof_C 	C 	0.9916	0.6018	0.9427	0.053
Mof_C 	C 	0.9711	0.6006	0.9743	-0.122
Mof_H 	H 	0.978	0.6409	0.9973	0.077
Mof_C 	C 	0.9404	0.541	0.9727	0.07
Mof_H 	H 	0.9265	0.5408	0.9948	-0.008
Mof_C 	C 	0.8356	0.5559	0.8894	0.069
Mof_H 	H 	0.8545	0.588	0.91	-0.009
Mof_C 	C 	0.8064	0.6025	0.8622	-0.133
Mof_H 	H 	0.8054	0.6652	0.864	0.103
Mof_C 	C 	0.7783	0.5573	0.8323	0.077
Mof_C 	C 	0.7818	0.4659	0.8305	-0.154
Mof_H 	H 	0.7636	0.4325	0.8099	0.119
Mof_C 	C 	0.8122	0.4246	0.8593	0.087
Mof_H 	H 	0.8141	0.362	0.8582	-0.035
Mof_C 	C 	0.7454	0.6053	0.8031	0.104
Mof_C 	C 	0.71	0.7288	0.7828	0.114
Mof_C 	C 	0.6921	0.6017	0.7471	0.097
Mof_C 	C 	0.6453	0.423	0.6712	0.066
Mof_H 	H 	0.6503	0.3629	0.6656	0.012
Mof_C 	C 	0.6715	0.4659	0.7037	-0.128
Mof_H 	H 	0.6939	0.4353	0.7201	0.112
Mof_C 	C 	0.665	0.5519	0.7122	0.058
Mof_C 	C 	0.633	0.5939	0.6871	-0.134
Mof_H 	H 	0.6283	0.6547	0.6914	0.085
Mof_C 	C 	0.6077	0.5474	0.6553	0.076
Mof_H 	H 	0.5853	0.5773	0.6384	-0.011
Mof_C 	C 	0.6742	0.9614	0.7607	0.094
Mof_H 	H 	0.6564	0.9927	0.7388	-0.065
Mof_C 	C 	0.6775	0.8714	0.7562	-0.146
Mof_H 	H 	0.6617	0.8414	0.7324	0.085
Mof_C 	C 	0.7042	0.8263	0.787	0.09
Mof_C 	C 	0.7255	0.8742	0.8205	-0.156
Mof_H 	H 	0.7443	0.8456	0.8425	0.095
Mof_C 	C 	0.7196	0.9633	0.8222	0.111
Mof_H 	H 	0.7347	0.9954	0.8456	-0.055
Mof_N 	N 	0.153	0.6686	0.8358	-0.315
Mof_N 	N 	0.06229	0.0096	0.05409	-0.267
Mof_N 	N 	0.92972	0.4834	0.9409	-0.282
Mof_N 	N 	0.08204	0.786	0.94474	-0.137
Mof_N 	N 	0.02723	0.7334	0.9712	-0.149
Mof_N 	N 	0.04561	0.659	0.9141	-0.138
Mof_N 	N 	0.8391	0.4679	0.8886	-0.288
Mof_N 	N 	0.72245	0.5568	0.77151	-0.133
Mof_N 	N 	0.74058	0.6908	0.80995	-0.121
Mof_N 	N 	0.68432	0.6875	0.75132	-0.135
Mof_N 	N 	0.694	0.0065	0.793	-0.322
Mof_N 	N 	0.6131	0.4631	0.6474	-0.276
Mof_Zn	Zn	0.19042	0.64399	0.7959	0.818
Mof_I 	I 	0.1524	0.69513	0.72347	-1.598
Mof_I 	I 	0.25902	0.7077	0.82775	0.911
Mof_Zn	Zn	0.0682	0.0997	0.1018	0.56
Mof_I 	I 	0.10473	0.2354	0.0841	-0.082
Mof_I 	I 	0.00434	0.1057	0.12818	-0.27
Mof_Zn	Zn	0.88031	0.40359	0.93487	1.157
Mof_I 	I 	0.89277	0.2539	0.9059	-0.175
Mof_I 	I 	0.8583	0.4174	0.0038	-0.165
Mof_Zn	Zn	0.173	0.644	0.7804	0.839
Mof_I 	I 	0.126	0.6706	0.70838	1.092
Mof_I 	I 	0.23899	0.7276	0.8025	-1.366
Mof_Zn	Zn	0.0751	0.1081	0.1022	0.569
Mof_I 	I 	0.1045	0.2386	0.07142	-0.286
Mof_I 	I 	0.01204	0.1247	0.1298	-0.074
Mof_I 	I 	0.8974	0.2647	0.8987	-0.199
Mof_I 	I 	0.8551	0.4317	0.0015	-0.179
Mof_C 	C 	0.4688	0.5468	0.953	0.065
Mof_H 	H 	0.4893	0.5384	0.9381	-0.008
Mof_C 	C 	0.4722	0.6162	0.9809	-0.118
Mof_H 	H 	0.4948	0.6541	0.9857	0.07
Mof_C 	C 	0.4421	0.6302	0.002	0.046
Mof_C 	C 	0.4106	0.5704	0.9961	-0.116
Mof_H 	H 	0.3901	0.5769	0.0111	0.074
Mof_C 	C 	0.4096	0.5014	0.9681	0.06
Mof_H 	H 	0.3882	0.4602	0.9643	-0.017
Mof_C 	C 	0.4441	0.7081	0.0306	0.085
Mof_C 	C 	0.4765	0.8323	0.0573	0.079
Mof_C 	C 	0.4246	0.7811	0.082	0.1
Mof_C 	C 	0.3327	0.7956	0.1256	0.085
Mof_H 	H 	0.3049	0.7829	0.1168	-0.034
Mof_C 	C 	0.3571	0.777	0.0987	-0.128
Mof_H 	H 	0.3461	0.752	0.0718	0.08
Mof_C 	C 	0.3976	0.7945	0.1107	0.062
Mof_C 	C 	0.413	0.8308	0.151	-0.122
Mof_H 	H 	0.4406	0.845	0.1604	0.071
Mof_C 	C 	0.3862	0.845	0.1764	0.069
Mof_H 	H 	0.3966	0.8658	0.2043	-0.071
Mof_C 	C 	0.5493	0.0176	0.0881	0.076
Mof_H 	H 	0.5563	0.059	0.1105	-0.032
Mof_C 	C 	0.5177	0.9621	0.0876	-0.14
Mof_H 	H 	0.5024	0.968	0.1082	0.074
Mof_C 	C 	0.5084	0.8982	0.0573	0.053
Mof_C 	C 	0.5289	0.8994	0.0257	-0.122
Mof_H 	H 	0.522	0.8591	0.0027	0.077
Mof_C 	C 	0.5596	0.959	0.0273	0.07
Mof_H 	H 	0.5735	0.9592	0.0052	-0.008
Mof_C 	C 	0.6644	0.9441	0.1106	0.069
Mof_H 	H 	0.6455	0.912	0.09	-0.009
Mof_C 	C 	0.6936	0.8975	0.1378	-0.133
Mof_H 	H 	0.6946	0.8348	0.136	0.103
Mof_C 	C 	0.7217	0.9427	0.1677	0.077
Mof_C 	C 	0.7182	0.0341	0.1695	-0.154
Mof_H 	H 	0.7364	0.0675	0.1901	0.119
Mof_C 	C 	0.6878	0.0754	0.1407	0.087
Mof_H 	H 	0.6859	0.138	0.1418	-0.035
Mof_C 	C 	0.7546	0.8947	0.1969	0.104
Mof_C 	C 	0.79	0.7712	0.2172	0.114
Mof_C 	C 	0.8079	0.8983	0.2529	0.097
Mof_C 	C 	0.8547	0.077	0.3288	0.066
Mof_H 	H 	0.8497	0.1371	0.3344	0.012
Mof_C 	C 	0.8285	0.0341	0.2963	-0.128
Mof_H 	H 	0.8061	0.0647	0.2799	0.111
Mof_C 	C 	0.835	0.9481	0.2878	0.058
Mof_C 	C 	0.867	0.9061	0.3129	-0.134
Mof_H 	H 	0.8717	0.8453	0.3086	0.085
Mof_C 	C 	0.8923	0.9526	0.3447	0.076
Mof_H 	H 	0.9147	0.9227	0.3616	-0.011
Mof_C 	C 	0.8258	0.5386	0.2393	0.094
Mof_H 	H 	0.8436	0.5073	0.2612	-0.065
Mof_C 	C 	0.8225	0.6286	0.2438	-0.146
Mof_H 	H 	0.8383	0.6586	0.2676	0.085
Mof_C 	C 	0.7958	0.6737	0.213	0.09
Mof_C 	C 	0.7745	0.6258	0.1795	-0.156
Mof_H 	H 	0.7557	0.6544	0.1575	0.095
Mof_C 	C 	0.7804	0.5367	0.1778	0.111
Mof_H 	H 	0.7653	0.5046	0.1544	-0.055
Mof_N 	N 	0.347	0.8314	0.1642	-0.315
Mof_N 	N 	0.43771	0.4904	0.94591	-0.267
Mof_N 	N 	0.57028	0.0166	0.0591	-0.282
Mof_N 	N 	0.41796	0.714	0.05526	-0.137
Mof_N 	N 	0.47277	0.7666	0.0288	-0.149
Mof_N 	N 	0.45439	0.841	0.0859	-0.138
Mof_N 	N 	0.6609	0.0321	0.1114	-0.288
Mof_N 	N 	0.77755	0.9432	0.22849	-0.133
Mof_N 	N 	0.75942	0.8092	0.19005	-0.121
Mof_N 	N 	0.81568	0.8125	0.24868	-0.135
Mof_N 	N 	0.806	0.4935	0.207	-0.322
Mof_N 	N 	0.8869	0.0369	0.3526	-0.276
Mof_Zn	Zn	0.30958	0.85601	0.2041	0.818
Mof_I 	I 	0.3476	0.80487	0.27653	-1.598
Mof_I 	I 	0.24098	0.7923	0.17225	0.911
Mof_Zn	Zn	0.4318	0.4003	0.8982	0.56
Mof_I 	I 	0.39527	0.2646	0.9159	-0.082
Mof_I 	I 	0.49566	0.3943	0.87182	-0.27
Mof_Zn	Zn	0.61969	0.09641	0.06513	1.157
Mof_I 	I 	0.60723	0.2461	0.0941	-0.175
Mof_I 	I 	0.6417	0.0826	0.9962	-0.165
Mof_Zn	Zn	0.327	0.856	0.2196	0.839
Mof_I 	I 	0.374	0.8294	0.29162	1.092
Mof_I 	I 	0.26101	0.7724	0.1975	-1.366
Mof_Zn	Zn	0.4249	0.3919	0.8978	0.569
Mof_I 	I 	0.3955	0.2614	0.92858	-0.286
Mof_I 	I 	0.48796	0.3753	0.8702	-0.073
Mof_I 	I 	0.6026	0.2353	0.1013	-0.199
Mof_I 	I 	0.6449	0.0683	0.9985	-0.18
Mof_C 	C 	0.9688	0.0468	0.953	0.065
Mof_H 	H 	0.9893	0.0384	0.9381	-0.008
Mof_C 	C 	0.9722	0.1162	0.9809	-0.118
Mof_H 	H 	0.9948	0.1541	0.9857	0.069
Mof_C 	C 	0.9421	0.1302	0.002	0.046
Mof_C 	C 	0.9106	0.0704	0.9961	-0.115
Mof_H 	H 	0.8901	0.0769	0.0111	0.074
Mof_C 	C 	0.9096	0.0014	0.9681	0.06
Mof_H 	H 	0.8882	0.9602	0.9643	-0.017
Mof_C 	C 	0.9441	0.2081	0.0306	0.085
Mof_C 	C 	0.9765	0.3323	0.0573	0.079
Mof_C 	C 	0.9246	0.2811	0.082	0.1
Mof_C 	C 	0.8327	0.2956	0.1256	0.085
Mof_H 	H 	0.8049	0.2829	0.1168	-0.034
Mof_C 	C 	0.8571	0.277	0.0987	-0.128
Mof_H 	H 	0.8461	0.252	0.0718	0.08
Mof_C 	C 	0.8976	0.2945	0.1107	0.062
Mof_C 	C 	0.913	0.3308	0.151	-0.122
Mof_H 	H 	0.9406	0.345	0.1604	0.071
Mof_C 	C 	0.8862	0.345	0.1764	0.069
Mof_H 	H 	0.8966	0.3658	0.2043	-0.071
Mof_C 	C 	0.0493	0.5176	0.0881	0.076
Mof_H 	H 	0.0563	0.559	0.1105	-0.032
Mof_C 	C 	0.0177	0.4621	0.0876	-0.14
Mof_H 	H 	0.0024	0.468	0.1082	0.074
Mof_C 	C 	0.0084	0.3982	0.0573	0.053
Mof_C 	C 	0.0289	0.3994	0.0257	-0.122
Mof_H 	H 	0.022	0.3591	0.0027	0.077
Mof_C 	C 	0.0596	0.459	0.0273	0.07
Mof_H 	H 	0.0735	0.4592	0.0052	-0.008
Mof_C 	C 	0.1644	0.4441	0.1106	0.069
Mof_H 	H 	0.1455	0.412	0.09	-0.009
Mof_C 	C 	0.1936	0.3975	0.1378	-0.133
Mof_H 	H 	0.1946	0.3348	0.136	0.103
Mof_C 	C 	0.2217	0.4427	0.1677	0.077
Mof_C 	C 	0.2182	0.5341	0.1695	-0.154
Mof_H 	H 	0.2364	0.5675	0.1901	0.119
Mof_C 	C 	0.1878	0.5754	0.1407	0.087
Mof_H 	H 	0.1859	0.638	0.1418	-0.035
Mof_C 	C 	0.2546	0.3947	0.1969	0.104
Mof_C 	C 	0.29	0.2712	0.2172	0.114
Mof_C 	C 	0.3079	0.3983	0.2529	0.097
Mof_C 	C 	0.3547	0.577	0.3288	0.066
Mof_H 	H 	0.3497	0.6371	0.3344	0.012
Mof_C 	C 	0.3285	0.5341	0.2963	-0.128
Mof_H 	H 	0.3061	0.5647	0.2799	0.112
Mof_C 	C 	0.335	0.4481	0.2878	0.058
Mof_C 	C 	0.367	0.4061	0.3129	-0.134
Mof_H 	H 	0.3717	0.3453	0.3086	0.085
Mof_C 	C 	0.3923	0.4526	0.3447	0.076
Mof_H 	H 	0.4147	0.4227	0.3616	-0.011
Mof_C 	C 	0.3258	0.0386	0.2393	0.094
Mof_H 	H 	0.3436	0.0073	0.2612	-0.065
Mof_C 	C 	0.3225	0.1286	0.2438	-0.146
Mof_H 	H 	0.3383	0.1586	0.2676	0.085
Mof_C 	C 	0.2958	0.1737	0.213	0.09
Mof_C 	C 	0.2745	0.1258	0.1795	-0.156
Mof_H 	H 	0.2557	0.1544	0.1575	0.095
Mof_C 	C 	0.2804	0.0367	0.1778	0.111
Mof_H 	H 	0.2653	0.0046	0.1544	-0.055
Mof_N 	N 	0.847	0.3314	0.1642	-0.315
Mof_N 	N 	0.93771	0.9904	0.94591	-0.267
Mof_N 	N 	0.07028	0.5166	0.0591	-0.282
Mof_N 	N 	0.91796	0.214	0.05526	-0.137
Mof_N 	N 	0.97277	0.2666	0.0288	-0.149
Mof_N 	N 	0.95439	0.341	0.0859	-0.138
Mof_N 	N 	0.1609	0.5321	0.1114	-0.288
Mof_N 	N 	0.27755	0.4432	0.22849	-0.133
Mof_N 	N 	0.25942	0.3092	0.19005	-0.121
Mof_N 	N 	0.31568	0.3125	0.24868	-0.135
Mof_N 	N 	0.306	0.9935	0.207	-0.322
Mof_N 	N 	0.3869	0.5369	0.3526	-0.276
Mof_Zn	Zn	0.80958	0.35601	0.2041	0.818
Mof_I 	I 	0.8476	0.30487	0.27653	-1.598
Mof_I 	I 	0.74098	0.2923	0.17225	0.911
Mof_Zn	Zn	0.9318	0.9003	0.8982	0.56
Mof_I 	I 	0.89527	0.7646	0.9159	-0.082
Mof_I 	I 	0.99566	0.8943	0.87182	-0.27
Mof_Zn	Zn	0.11969	0.59641	0.06513	1.157
Mof_I 	I 	0.10723	0.7461	0.0941	-0.175
Mof_I 	I 	0.1417	0.5826	0.9962	-0.165
Mof_Zn	Zn	0.827	0.356	0.2196	0.839
Mof_I 	I 	0.874	0.3294	0.29162	1.092
Mof_I 	I 	0.76101	0.2724	0.1975	-1.366
Mof_Zn	Zn	0.9249	0.8919	0.8978	0.569
Mof_I 	I 	0.8955	0.7614	0.92858	-0.286
Mof_I 	I 	0.98796	0.8753	0.8702	-0.074
Mof_I 	I 	0.1026	0.7353	0.1013	-0.199
Mof_I 	I 	0.1449	0.5683	0.9985	-0.179
Mof_C 	C 	0.4688	0.4532	0.453	0.065
Mof_H 	H 	0.4893	0.4616	0.4381	-0.008
Mof_C 	C 	0.4722	0.3838	0.4809	-0.118
Mof_H 	H 	0.4948	0.3459	0.4857	0.07
Mof_C 	C 	0.4421	0.3698	0.502	0.046
Mof_C 	C 	0.4106	0.4296	0.4961	-0.115
Mof_H 	H 	0.3901	0.4231	0.5111	0.074
Mof_C 	C 	0.4096	0.4986	0.4681	0.06
Mof_H 	H 	0.3882	0.5398	0.4643	-0.017
Mof_C 	C 	0.4441	0.2919	0.5306	0.085
Mof_C 	C 	0.4765	0.1677	0.5573	0.079
Mof_C 	C 	0.4246	0.2189	0.582	0.1
Mof_C 	C 	0.3327	0.2044	0.6256	0.085
Mof_H 	H 	0.3049	0.2171	0.6168	-0.034
Mof_C 	C 	0.3571	0.223	0.5987	-0.128
Mof_H 	H 	0.3461	0.248	0.5718	0.08
Mof_C 	C 	0.3976	0.2055	0.6107	0.062
Mof_C 	C 	0.413	0.1692	0.651	-0.122
Mof_H 	H 	0.4406	0.155	0.6604	0.071
Mof_C 	C 	0.3862	0.155	0.6764	0.069
Mof_H 	H 	0.3966	0.1342	0.7043	-0.071
Mof_C 	C 	0.5493	0.9824	0.5881	0.076
Mof_H 	H 	0.5563	0.941	0.6105	-0.032
Mof_C 	C 	0.5177	0.0379	0.5876	-0.14
Mof_H 	H 	0.5024	0.032	0.6082	0.074
Mof_C 	C 	0.5084	0.1018	0.5573	0.053
Mof_C 	C 	0.5289	0.1006	0.5257	-0.122
Mof_H 	H 	0.522	0.1409	0.5027	0.077
Mof_C 	C 	0.5596	0.041	0.5273	0.07
Mof_H 	H 	0.5735	0.0408	0.5052	-0.008
Mof_C 	C 	0.6644	0.0559	0.6106	0.069
Mof_H 	H 	0.6455	0.088	0.59	-0.009
Mof_C 	C 	0.6936	0.1025	0.6378	-0.133
Mof_H 	H 	0.6946	0.1652	0.636	0.103
Mof_C 	C 	0.7217	0.0573	0.6677	0.077
Mof_C 	C 	0.7182	0.9659	0.6695	-0.154
Mof_H 	H 	0.7364	0.9325	0.6901	0.119
Mof_C 	C 	0.6878	0.9246	0.6407	0.087
Mof_H 	H 	0.6859	0.862	0.6418	-0.035
Mof_C 	C 	0.7546	0.1053	0.6969	0.104
Mof_C 	C 	0.79	0.2288	0.7172	0.114
Mof_C 	C 	0.8079	0.1017	0.7529	0.097
Mof_C 	C 	0.8547	0.923	0.8288	0.066
Mof_H 	H 	0.8497	0.8629	0.8344	0.012
Mof_C 	C 	0.8285	0.9659	0.7963	-0.128
Mof_H 	H 	0.8061	0.9353	0.7799	0.111
Mof_C 	C 	0.835	0.0519	0.7878	0.058
Mof_C 	C 	0.867	0.0939	0.8129	-0.134
Mof_H 	H 	0.8717	0.1547	0.8086	0.085
Mof_C 	C 	0.8923	0.0474	0.8447	0.076
Mof_H 	H 	0.9147	0.0773	0.8616	-0.011
Mof_C 	C 	0.8258	0.4614	0.7393	0.094
Mof_H 	H 	0.8436	0.4927	0.7612	-0.065
Mof_C 	C 	0.8225	0.3714	0.7438	-0.146
Mof_H 	H 	0.8383	0.3414	0.7676	0.085
Mof_C 	C 	0.7958	0.3263	0.713	0.09
Mof_C 	C 	0.7745	0.3742	0.6795	-0.156
Mof_H 	H 	0.7557	0.3456	0.6575	0.095
Mof_C 	C 	0.7804	0.4633	0.6778	0.111
Mof_H 	H 	0.7653	0.4954	0.6544	-0.055
Mof_N 	N 	0.347	0.1686	0.6642	-0.315
Mof_N 	N 	0.43771	0.5096	0.44591	-0.267
Mof_N 	N 	0.57028	0.9834	0.5591	-0.282
Mof_N 	N 	0.41796	0.286	0.55526	-0.137
Mof_N 	N 	0.47277	0.2334	0.5288	-0.149
Mof_N 	N 	0.45439	0.159	0.5859	-0.138
Mof_N 	N 	0.6609	0.9679	0.6114	-0.288
Mof_N 	N 	0.77755	0.0568	0.72849	-0.133
Mof_N 	N 	0.75942	0.1908	0.69005	-0.121
Mof_N 	N 	0.81568	0.1875	0.74868	-0.135
Mof_N 	N 	0.806	0.5065	0.707	-0.322
Mof_N 	N 	0.8869	0.9631	0.8526	-0.276
Mof_Zn	Zn	0.30958	0.14399	0.7041	0.818
Mof_I 	I 	0.3476	0.19513	0.77653	-1.598
Mof_I 	I 	0.24098	0.2077	0.67225	0.911
Mof_Zn	Zn	0.4318	0.5997	0.3982	0.56
Mof_I 	I 	0.39527	0.7354	0.4159	-0.082
Mof_I 	I 	0.49566	0.6057	0.37182	-0.27
Mof_Zn	Zn	0.61969	0.90359	0.56513	1.157
Mof_I 	I 	0.60723	0.7539	0.5941	-0.175
Mof_I 	I 	0.6417	0.9174	0.4962	-0.165
Mof_Zn	Zn	0.327	0.144	0.7196	0.839
Mof_I 	I 	0.374	0.1706	0.79162	1.092
Mof_I 	I 	0.26101	0.2276	0.6975	-1.365
Mof_Zn	Zn	0.4249	0.6081	0.3978	0.569
Mof_I 	I 	0.3955	0.7386	0.42858	-0.286
Mof_I 	I 	0.48796	0.6247	0.3702	-0.073
Mof_I 	I 	0.6026	0.7647	0.6013	-0.199
Mof_I 	I 	0.6449	0.9317	0.4985	-0.179
Mof_C 	C 	0.9688	0.9532	0.453	0.065
Mof_H 	H 	0.9893	0.9616	0.4381	-0.008
Mof_C 	C 	0.9722	0.8838	0.4809	-0.118
Mof_H 	H 	0.9948	0.8459	0.4857	0.07
Mof_C 	C 	0.9421	0.8698	0.502	0.046
Mof_C 	C 	0.9106	0.9296	0.4961	-0.115
Mof_H 	H 	0.8901	0.9231	0.5111	0.074
Mof_C 	C 	0.9096	0.9986	0.4681	0.06
Mof_H 	H 	0.8882	0.0398	0.4643	-0.017
Mof_C 	C 	0.9441	0.7919	0.5306	0.085
Mof_C 	C 	0.9765	0.6677	0.5573	0.079
Mof_C 	C 	0.9246	0.7189	0.582	0.1
Mof_C 	C 	0.8327	0.7044	0.6256	0.085
Mof_H 	H 	0.8049	0.7171	0.6168	-0.034
Mof_C 	C 	0.8571	0.723	0.5987	-0.128
Mof_H 	H 	0.8461	0.748	0.5718	0.08
Mof_C 	C 	0.8976	0.7055	0.6107	0.062
Mof_C 	C 	0.913	0.6692	0.651	-0.122
Mof_H 	H 	0.9406	0.655	0.6604	0.071
Mof_C 	C 	0.8862	0.655	0.6764	0.069
Mof_H 	H 	0.8966	0.6342	0.7043	-0.071
Mof_C 	C 	0.0493	0.4824	0.5881	0.076
Mof_H 	H 	0.0563	0.441	0.6105	-0.032
Mof_C 	C 	0.0177	0.5379	0.5876	-0.14
Mof_H 	H 	0.0024	0.532	0.6082	0.074
Mof_C 	C 	0.0084	0.6018	0.5573	0.053
Mof_C 	C 	0.0289	0.6006	0.5257	-0.122
Mof_H 	H 	0.022	0.6409	0.5027	0.077
Mof_C 	C 	0.0596	0.541	0.5273	0.07
Mof_H 	H 	0.0735	0.5408	0.5052	-0.008
Mof_C 	C 	0.1644	0.5559	0.6106	0.069
Mof_H 	H 	0.1455	0.588	0.59	-0.009
Mof_C 	C 	0.1936	0.6025	0.6378	-0.133
Mof_H 	H 	0.1946	0.6652	0.636	0.103
Mof_C 	C 	0.2217	0.5573	0.6677	0.077
Mof_C 	C 	0.2182	0.4659	0.6695	-0.154
Mof_H 	H 	0.2364	0.4325	0.6901	0.119
Mof_C 	C 	0.1878	0.4246	0.6407	0.087
Mof_H 	H 	0.1859	0.362	0.6418	-0.035
Mof_C 	C 	0.2546	0.6053	0.6969	0.104
Mof_C 	C 	0.29	0.7288	0.7172	0.114
Mof_C 	C 	0.3079	0.6017	0.7529	0.097
Mof_C 	C 	0.3547	0.423	0.8288	0.066
Mof_H 	H 	0.3497	0.3629	0.8344	0.012
Mof_C 	C 	0.3285	0.4659	0.7963	-0.128
Mof_H 	H 	0.3061	0.4353	0.7799	0.112
Mof_C 	C 	0.335	0.5519	0.7878	0.058
Mof_C 	C 	0.367	0.5939	0.8129	-0.134
Mof_H 	H 	0.3717	0.6547	0.8086	0.085
Mof_C 	C 	0.3923	0.5474	0.8447	0.076
Mof_H 	H 	0.4147	0.5773	0.8616	-0.011
Mof_C 	C 	0.3258	0.9614	0.7393	0.094
Mof_H 	H 	0.3436	0.9927	0.7612	-0.065
Mof_C 	C 	0.3225	0.8714	0.7438	-0.146
Mof_H 	H 	0.3383	0.8414	0.7676	0.085
Mof_C 	C 	0.2958	0.8263	0.713	0.09
Mof_C 	C 	0.2745	0.8742	0.6795	-0.156
Mof_H 	H 	0.2557	0.8456	0.6575	0.095
Mof_C 	C 	0.2804	0.9633	0.6778	0.111
Mof_H 	H 	0.2653	0.9954	0.6544	-0.055
Mof_N 	N 	0.847	0.6686	0.6642	-0.315
Mof_N 	N 	0.93771	0.0096	0.44591	-0.267
Mof_N 	N 	0.07028	0.4834	0.5591	-0.282
Mof_N 	N 	0.91796	0.786	0.55526	-0.137
Mof_N 	N 	0.97277	0.7334	0.5288	-0.149
Mof_N 	N 	0.95439	0.659	0.5859	-0.138
Mof_N 	N 	0.1609	0.4679	0.6114	-0.288
Mof_N 	N 	0.27755	0.5568	0.72849	-0.133
Mof_N 	N 	0.25942	0.6908	0.69005	-0.121
Mof_N 	N 	0.31568	0.6875	0.74868	-0.135
Mof_N 	N 	0.306	0.0065	0.707	-0.322
Mof_N 	N 	0.3869	0.4631	0.8526	-0.276
Mof_Zn	Zn	0.80958	0.64399	0.7041	0.818
Mof_I 	I 	0.8476	0.69513	0.77653	-1.598
Mof_I 	I 	0.74098	0.7077	0.67225	0.911
Mof_Zn	Zn	0.9318	0.0997	0.3982	0.56
Mof_I 	I 	0.89527	0.2354	0.4159	-0.082
Mof_I 	I 	0.99566	0.1057	0.37182	-0.27
Mof_Zn	Zn	0.11969	0.40359	0.56513	1.157
Mof_I 	I 	0.10723	0.2539	0.5941	-0.175
Mof_I 	I 	0.1417	0.4174	0.4962	-0.165
Mof_Zn	Zn	0.827	0.644	0.7196	0.839
Mof_I 	I 	0.874	0.6706	0.79162	1.092
Mof_I 	I 	0.76101	0.7276	0.6975	-1.366
Mof_Zn	Zn	0.9249	0.1081	0.3978	0.569
Mof_I 	I 	0.8955	0.2386	0.42858	-0.286
Mof_I 	I 	0.98796	0.1247	0.3702	-0.074
Mof_I 	I 	0.1026	0.2647	0.6013	-0.199
Mof_I 	I 	0.1449	0.4317	0.4985	-0.179
_end
