# CIF file generated by openbabel 3.1.0, see https://openbabel.org
data_I
_chemical_name_common 'image0'
_cell_length_a 15.1154
_cell_length_b 8.7269
_cell_length_c 16.1675
_cell_angle_alpha 90
_cell_angle_beta 108.156
_cell_angle_gamma 90
_space_group_name_H-M_alt 'P 1'
_space_group_name_Hall 'P 1'
loop_
    _symmetry_equiv_pos_as_xyz
    x,y,z
loop_
    _atom_site_label
    _atom_site_type_symbol
    _atom_site_fract_x
    _atom_site_fract_y
    _atom_site_fract_z
    _atom_site_occupancy
    Zn1      Zn       0.36570    0.37073    0.48484    1.000
    P1       P        0.15444    0.38850    0.37817    1.000
    H1       H        0.11470    0.52480    0.36620    1.000
    P2       P        0.98403    0.90830    0.11747    1.000
    H2       H        0.97470    0.80300    0.17280    1.000
    O1       O        0.25570    0.41520    0.38580    1.000
    O2       O        0.13930    0.32460    0.45920    1.000
    O3       O        0.10810    0.29750    0.29480    1.000
    O4       O        0.04280    0.03620    0.17280    1.000
    O5       O        0.03210    0.83100    0.06040    1.000
    O6       O        0.88610    0.96210    0.06840    1.000
    Zn2      Zn       0.86570    0.87073    0.48484    1.000
    P3       P        0.65444    0.88850    0.37817    1.000
    H3       H        0.61470    0.02480    0.36620    1.000
    P4       P        0.48403    0.40830    0.11747    1.000
    H4       H        0.47470    0.30300    0.17280    1.000
    O7       O        0.75570    0.91520    0.38580    1.000
    O8       O        0.63930    0.82460    0.45920    1.000
    O9       O        0.60810    0.79750    0.29480    1.000
    O10      O        0.54280    0.53620    0.17280    1.000
    O11      O        0.53210    0.33100    0.06040    1.000
    O12      O        0.38610    0.46210    0.06840    1.000
    Zn3      Zn       0.63430    0.37073    0.01516    1.000
    P5       P        0.84556    0.38850    0.12183    1.000
    H5       H        0.88530    0.52480    0.13380    1.000
    P6       P        0.01597    0.90830    0.38253    1.000
    H6       H        0.02530    0.80300    0.32720    1.000
    O13      O        0.74430    0.41520    0.11420    1.000
    O14      O        0.86070    0.32460    0.04080    1.000
    O15      O        0.89190    0.29750    0.20520    1.000
    O16      O        0.95720    0.03620    0.32720    1.000
    O17      O        0.96790    0.83100    0.43960    1.000
    O18      O        0.11390    0.96210    0.43160    1.000
    Zn4      Zn       0.13430    0.87073    0.01516    1.000
    P7       P        0.34556    0.88850    0.12183    1.000
    H7       H        0.38530    0.02480    0.13380    1.000
    P8       P        0.51597    0.40830    0.38253    1.000
    H8       H        0.52530    0.30300    0.32720    1.000
    O19      O        0.24430    0.91520    0.11420    1.000
    O20      O        0.36070    0.82460    0.04080    1.000
    O21      O        0.39190    0.79750    0.20520    1.000
    O22      O        0.45720    0.53620    0.32720    1.000
    O23      O        0.46790    0.33100    0.43960    1.000
    O24      O        0.61390    0.46210    0.43160    1.000
    Zn5      Zn       0.63430    0.62927    0.51516    1.000
    P9       P        0.84556    0.61150    0.62183    1.000
    H9       H        0.88530    0.47520    0.63380    1.000
    P10      P        0.01597    0.09170    0.88253    1.000
    H10      H        0.02530    0.19700    0.82720    1.000
    O25      O        0.74430    0.58480    0.61420    1.000
    O26      O        0.86070    0.67540    0.54080    1.000
    O27      O        0.89190    0.70250    0.70520    1.000
    O28      O        0.95720    0.96380    0.82720    1.000
    O29      O        0.96790    0.16900    0.93960    1.000
    O30      O        0.11390    0.03790    0.93160    1.000
    Zn6      Zn       0.13430    0.12927    0.51516    1.000
    P11      P        0.34556    0.11150    0.62183    1.000
    H11      H        0.38530    0.97520    0.63380    1.000
    P12      P        0.51597    0.59170    0.88253    1.000
    H12      H        0.52530    0.69700    0.82720    1.000
    O31      O        0.24430    0.08480    0.61420    1.000
    O32      O        0.36070    0.17540    0.54080    1.000
    O33      O        0.39190    0.20250    0.70520    1.000
    O34      O        0.45720    0.46380    0.82720    1.000
    O35      O        0.46790    0.66900    0.93960    1.000
    O36      O        0.61390    0.53790    0.93160    1.000
    Zn7      Zn       0.36570    0.62927    0.98484    1.000
    P13      P        0.15444    0.61150    0.87817    1.000
    H13      H        0.11470    0.47520    0.86620    1.000
    P14      P        0.98403    0.09170    0.61747    1.000
    H14      H        0.97470    0.19700    0.67280    1.000
    O37      O        0.25570    0.58480    0.88580    1.000
    O38      O        0.13930    0.67540    0.95920    1.000
    O39      O        0.10810    0.70250    0.79480    1.000
    O40      O        0.04280    0.96380    0.67280    1.000
    O41      O        0.03210    0.16900    0.56040    1.000
    O42      O        0.88610    0.03790    0.56840    1.000
    Zn8      Zn       0.86570    0.12927    0.98484    1.000
    P15      P        0.65444    0.11150    0.87817    1.000
    H15      H        0.61470    0.97520    0.86620    1.000
    P16      P        0.48403    0.59170    0.61747    1.000
    H16      H        0.47470    0.69700    0.67280    1.000
    O43      O        0.75570    0.08480    0.88580    1.000
    O44      O        0.63930    0.17540    0.95920    1.000
    O45      O        0.60810    0.20250    0.79480    1.000
    O46      O        0.54280    0.46380    0.67280    1.000
    O47      O        0.53210    0.66900    0.56040    1.000
    O48      O        0.38610    0.53790    0.56840    1.000
    Zn9      Zn       0.00000    0.16565    0.25000    1.000
    Zn10     Zn       0.50000    0.66565    0.25000    1.000
    Zn11     Zn       0.00000    0.83435    0.75000    1.000
    Zn12     Zn       0.50000    0.33435    0.75000    1.000
