data_functionalizedCrystal
_audit_creation_method	'EQeq! by Chris Wilmer'
_symmetry_space_group_name_H-M	'P1'
_symmetry_Int_Tables_number	1
_symmetry_cell_setting	triclinic
loop_
_symmetry_equiv_pos_as_xyz
  x,y,z
_cell_length_a	14.291
_cell_length_b	17.345
_cell_length_c	19.371
_cell_angle_alpha	63.737
_cell_angle_beta	83.571
_cell_angle_gamma	82.359
loop_
_atom_site_label
_atom_site_type_symbol
_atom_site_fract_x
_atom_site_fract_y
_atom_site_fract_z
_atom_site_charge
Mof_La	La	0.17664	0.54013	0.77055	2.048
Mof_La	La	0.07152	0.51684	0.57933	2.269
Mof_Ni	Ni	0.52027	0.0114	0.76096	1.065
Mof_O 	O 	0.0139	0.3729	0.6271	-0.522
Mof_O 	O 	0.9011	0.5321	0.5253	-0.475
Mof_O 	O 	0.9338	0.3519	0.5438	-0.54
Mof_O 	O 	0.1373	0.4318	0.7098	-0.469
Mof_O 	O 	0.2382	0.3801	0.7989	-0.293
Mof_O 	O 	0.6594	0.4735	0.1783	-0.398
Mof_O 	O 	0.7693	0.5421	0.089	-0.415
Mof_O 	O 	0.0772	0.611	0.6445	-0.494
Mof_O 	O 	0.9675	0.7307	0.6087	-0.146
Mof_O 	O 	0.9032	0.5337	0.6363	-0.318
Mof_O 	O 	0.7544	0.516	0.6013	-0.14
Mof_O 	O 	0.2084	0.6961	0.7184	-0.413
Mof_O 	O 	0.147	0.6426	0.838	-0.421
Mof_O 	O 	0.0155	0.6525	0.7274	-0.266
Mof_O 	O 	0.2207	0.2929	0.7338	-0.139
Mof_N 	N 	0.0212	0.6633	0.6526	0.091
Mof_N 	N 	0.8605	0.5263	0.5887	0.075
Mof_N 	N 	0.1958	0.3734	0.748	0.068
Mof_O 	O 	0.2445	0.5289	0.5621	-0.515
Mof_N 	N 	0.647	0.9473	0.8061	-0.25
Mof_C 	C 	0.6923	0.9928	0.8296	0.135
Mof_N 	N 	0.4791	0.9036	0.7518	-0.248
Mof_N 	N 	0.7858	0.9666	0.8355	-0.117
Mof_N 	N 	0.5501	0.092	0.8133	-0.132
Mof_N 	N 	0.3928	0.0817	0.7216	-0.25
Mof_N 	N 	0.5992	0.1018	0.6718	-0.251
Mof_N 	N 	0.2355	0.0823	0.737	-0.116
Mof_N 	N 	0.6477	0.2339	0.6257	-0.114
Mof_N 	N 	0.4309	0.7731	0.818	-0.118
Mof_N 	N 	0.433	0.9531	0.8659	-0.136
Mof_C 	C 	0.4718	0.8697	0.6991	0.069
Mof_O 	O 	0.2868	0.5557	0.6563	-0.499
Mof_C 	C 	0.882	0.0901	0.7895	0.181
Mof_C 	C 	0.9025	0.1843	0.6558	0.163
Mof_H 	H 	0.8974	0.1957	0.6047	-0.013
Mof_C 	C 	0.6856	0.2001	0.5733	0.026
Mof_C 	C 	0.3207	0.0487	0.7687	0.143
Mof_C 	C 	0.1327	0.8054	0.8407	0.098
Mof_H 	H 	0.1137	0.7591	0.8857	0.002
Mof_C 	C 	0.6116	0.5648	0.0495	-0.131
Mof_C 	C 	0.353	0.1403	0.6501	0.064
Mof_C 	C 	0.394	0.4715	0.611	-0.226
Mof_C 	C 	0.597	0.1736	0.6807	0.138
Mof_C 	C 	0.7164	0.8879	0.7954	0.062
Mof_C 	C 	0.4525	0.8454	0.8204	0.14
Mof_C 	C 	0.4147	0.4291	0.5643	0.154
Mof_H 	H 	0.3711	0.4345	0.5298	-0.005
Mof_C 	C 	0.2555	0.1413	0.6599	0.049
Mof_C 	C 	0.5	0.3786	0.5683	-0.231
Mof_H 	H 	0.5123	0.349	0.5378	0.12
Mof_C 	C 	0.1496	0.955	0.7729	0.149
Mof_C 	C 	0.1667	0.7921	0.7768	-0.15
Mof_C 	C 	0.6603	0.3186	0.6214	-0.195
Mof_H 	H 	0.7006	0.3493	0.5761	0.105
Mof_H 	H 	0.6916	0.3105	0.6664	0.094
Mof_C 	C 	0.5664	0.3725	0.6175	0.195
Mof_C 	C 	0.8032	0.8994	0.8152	0.043
Mof_C 	C 	0.4512	0.8596	0.8896	-0.229
Mof_H 	H 	0.5115	0.8381	0.9131	0.093
Mof_H 	H 	0.4019	0.8294	0.9269	0.102
Mof_C 	C 	0.146	0.0455	0.7702	-0.168
Mof_H 	H 	0.0948	0.0827	0.7394	0.09
Mof_H 	H 	0.1341	0.0414	0.822	0.079
Mof_C 	C 	0.945	0.2258	0.748	0.17
Mof_H 	H 	0.9709	0.2646	0.7598	-0.02
Mof_C 	C 	0.4761	0.6483	0.9405	0.15
Mof_C 	C 	0.5459	0.1806	0.7495	-0.229
Mof_H 	H 	0.5759	0.2186	0.7631	0.105
Mof_H 	H 	0.4807	0.2036	0.739	0.102
Mof_C 	C 	0.7698	0.1814	0.4709	-0.056
Mof_H 	H 	0.8069	0.2022	0.425	0.071
Mof_C 	C 	0.4614	0.984	0.9191	-0.086
Mof_H 	H 	0.5196	0.9514	0.9418	0.046
Mof_H 	H 	0.4128	0.975	0.9604	0.051
Mof_C 	C 	0.4439	0.7868	0.7402	0.038
Mof_C 	C 	0.8769	0.1084	0.7134	-0.246
Mof_H 	H 	0.8555	0.068	0.7009	0.126
Mof_C 	C 	0.4598	0.4627	0.662	0.155
Mof_H 	H 	0.4468	0.4901	0.6943	-0.011
Mof_C 	C 	0.1264	0.8859	0.8386	-0.208
Mof_H 	H 	0.1059	0.893	0.8829	0.09
Mof_C 	C 	0.8555	0.0058	0.8556	-0.188
Mof_H 	H 	0.9119	0.9658	0.8706	0.086
Mof_H 	H 	0.8305	0.0165	0.8995	0.079
Mof_C 	C 	0.9363	0.2452	0.6729	-0.24
Mof_C 	C 	0.3014	0.5223	0.6107	0.489
Mof_C 	C 	0.6471	0.0656	0.844	-0.218
Mof_H 	H 	0.6854	0.1139	0.8192	0.1
Mof_H 	H 	0.6422	0.0492	0.899	0.091
Mof_C 	C 	0.5461	0.4126	0.6648	-0.238
Mof_H 	H 	0.5899	0.4067	0.6993	0.118
Mof_C 	C 	0.5702	0.6511	0.9186	-0.187
Mof_H 	H 	0.5887	0.6808	0.8667	0.102
Mof_C 	C 	0.6849	0.5251	0.1088	0.322
Mof_C 	C 	0.9168	0.1509	0.8072	-0.25
Mof_H 	H 	0.9207	0.1405	0.8582	0.107
Mof_C 	C 	0.3973	0.1893	0.5809	-0.113
Mof_H 	H 	0.4628	0.1884	0.5737	0.065
Mof_C 	C 	0.1982	0.188	0.601	-0.075
Mof_H 	H 	0.1331	0.1856	0.6068	0.063
Mof_C 	C 	0.7112	0.8238	0.7706	-0.113
Mof_H 	H 	0.654	0.814	0.7587	0.067
Mof_C 	C 	0.4758	0.0779	0.8773	-0.119
Mof_H 	H 	0.4169	0.1108	0.8565	0.065
Mof_H 	H 	0.495	0.0976	0.9128	0.063
Mof_C 	C 	0.7436	0.233	0.5055	-0.045
Mof_H 	H 	0.7629	0.2883	0.4855	0.051
Mof_C 	C 	0.7433	0.0961	0.5016	0.004
Mof_H 	H 	0.7638	0.0622	0.4757	0.032
Mof_C 	C 	0.6868	0.0622	0.5702	-0.121
Mof_H 	H 	0.6704	0.0058	0.5917	0.065
Mof_C 	C 	0.4899	0.9034	0.6214	-0.119
Mof_H 	H 	0.5093	0.9586	0.5933	0.061
Mof_C 	C 	0.4317	0.7354	0.7042	-0.064
Mof_H 	H 	0.4137	0.6796	0.7316	0.069
Mof_C 	C 	0.4007	0.6939	0.8833	-0.173
Mof_H 	H 	0.3845	0.6549	0.8638	0.095
Mof_H 	H 	0.3442	0.7086	0.9095	0.083
Mof_C 	C 	0.1862	0.942	0.7074	-0.191
Mof_H 	H 	0.204	0.9883	0.6619	0.105
Mof_C 	C 	0.3298	0.983	0.8484	-0.223
Mof_H 	H 	0.2968	0.934	0.8568	0.102
Mof_H 	H 	0.3006	0.0067	0.8834	0.095
Mof_C 	C 	0.4488	0.6031	0.0175	-0.185
Mof_H 	H 	0.3849	0.6016	0.0332	0.092
Mof_C 	C 	0.7931	0.7763	0.7647	-0.002
Mof_H 	H 	0.7917	0.7344	0.7474	0.042
Mof_C 	C 	0.5163	0.5598	0.0719	0.079
Mof_H 	H 	0.4974	0.5276	0.1233	0.015
Mof_C 	C 	0.8864	0.8508	0.8079	-0.073
Mof_H 	H 	0.9446	0.8599	0.8189	0.061
Mof_C 	C 	0.8779	0.7891	0.7838	-0.04
Mof_H 	H 	0.9317	0.7542	0.7802	0.063
Mof_C 	C 	0.3377	0.241	0.522	-0.006
Mof_H 	H 	0.3642	0.2776	0.4744	0.039
Mof_C 	C 	0.4483	0.7729	0.6244	-0.044
Mof_H 	H 	0.4383	0.7423	0.5972	0.051
Mof_C 	C 	0.4779	0.8509	0.5861	0
Mof_H 	H 	0.4913	0.8717	0.5332	0.027
Mof_C 	C 	0.2432	0.2396	0.5317	-0.036
Mof_H 	H 	0.2066	0.2747	0.4902	0.059
Mof_C 	C 	0.9638	0.3302	0.6081	0.509
Mof_C 	C 	0.1738	0.704	0.7792	0.349
Mof_C 	C 	0.1949	0.8612	0.7119	0.106
Mof_H 	H 	0.2209	0.8525	0.6694	0.01
Mof_C 	C 	0.6383	0.6111	0.9717	0.082
Mof_H 	H 	0.7021	0.615	0.9556	0.014
Mof_C 	C 	0.6569	0.117	0.6039	0.07
Mof_La	La	0.82336	0.45987	0.22945	2.049
Mof_La	La	0.92848	0.48316	0.42067	2.27
Mof_Ni	Ni	0.47973	0.9886	0.23904	1.065
Mof_O 	O 	0.9861	0.6271	0.3729	-0.522
Mof_O 	O 	0.0989	0.4679	0.4747	-0.475
Mof_O 	O 	0.0662	0.6481	0.4562	-0.54
Mof_O 	O 	0.8627	0.5682	0.2902	-0.469
Mof_O 	O 	0.7618	0.6199	0.2011	-0.293
Mof_O 	O 	0.3406	0.5265	0.8217	-0.398
Mof_O 	O 	0.2307	0.4579	0.911	-0.415
Mof_O 	O 	0.9228	0.389	0.3555	-0.494
Mof_O 	O 	0.0325	0.2693	0.3913	-0.146
Mof_O 	O 	0.0968	0.4663	0.3637	-0.318
Mof_O 	O 	0.2456	0.484	0.3987	-0.14
Mof_O 	O 	0.7916	0.3039	0.2816	-0.413
Mof_O 	O 	0.853	0.3574	0.162	-0.421
Mof_O 	O 	0.9845	0.3475	0.2726	-0.266
Mof_O 	O 	0.7793	0.7071	0.2662	-0.139
Mof_N 	N 	0.9788	0.3367	0.3474	0.091
Mof_N 	N 	0.1395	0.4737	0.4113	0.075
Mof_N 	N 	0.8042	0.6266	0.252	0.068
Mof_O 	O 	0.7555	0.4711	0.4379	-0.515
Mof_N 	N 	0.353	0.0527	0.1939	-0.25
Mof_C 	C 	0.3077	0.0072	0.1704	0.135
Mof_N 	N 	0.5209	0.0964	0.2482	-0.248
Mof_N 	N 	0.2142	0.0334	0.1645	-0.117
Mof_N 	N 	0.4499	0.908	0.1867	-0.132
Mof_N 	N 	0.6072	0.9183	0.2784	-0.25
Mof_N 	N 	0.4008	0.8982	0.3282	-0.251
Mof_N 	N 	0.7645	0.9177	0.263	-0.116
Mof_N 	N 	0.3523	0.7661	0.3743	-0.114
Mof_N 	N 	0.5691	0.2269	0.182	-0.118
Mof_N 	N 	0.567	0.0469	0.1341	-0.136
Mof_C 	C 	0.5282	0.1303	0.3009	0.069
Mof_O 	O 	0.7132	0.4443	0.3437	-0.499
Mof_C 	C 	0.118	0.9099	0.2105	0.181
Mof_C 	C 	0.0975	0.8157	0.3442	0.163
Mof_H 	H 	0.1026	0.8043	0.3953	-0.013
Mof_C 	C 	0.3144	0.7999	0.4267	0.026
Mof_C 	C 	0.6793	0.9513	0.2313	0.143
Mof_C 	C 	0.8673	0.1946	0.1593	0.098
Mof_H 	H 	0.8863	0.2409	0.1143	0.002
Mof_C 	C 	0.3884	0.4352	0.9505	-0.131
Mof_C 	C 	0.647	0.8597	0.3499	0.064
Mof_C 	C 	0.606	0.5285	0.389	-0.226
Mof_C 	C 	0.403	0.8264	0.3193	0.138
Mof_C 	C 	0.2836	0.1121	0.2046	0.062
Mof_C 	C 	0.5475	0.1546	0.1796	0.14
Mof_C 	C 	0.5853	0.5709	0.4357	0.154
Mof_H 	H 	0.6289	0.5655	0.4702	-0.005
Mof_C 	C 	0.7445	0.8587	0.3401	0.049
Mof_C 	C 	0.5	0.6214	0.4317	-0.231
Mof_H 	H 	0.4877	0.651	0.4622	0.12
Mof_C 	C 	0.8504	0.045	0.2271	0.149
Mof_C 	C 	0.8333	0.2079	0.2232	-0.15
Mof_C 	C 	0.3397	0.6814	0.3786	-0.195
Mof_H 	H 	0.2994	0.6507	0.4239	0.105
Mof_H 	H 	0.3084	0.6895	0.3336	0.094
Mof_C 	C 	0.4336	0.6275	0.3825	0.195
Mof_C 	C 	0.1968	0.1006	0.1848	0.043
Mof_C 	C 	0.5488	0.1404	0.1104	-0.229
Mof_H 	H 	0.4885	0.1619	0.0869	0.093
Mof_H 	H 	0.5981	0.1706	0.0731	0.102
Mof_C 	C 	0.854	0.9545	0.2298	-0.168
Mof_H 	H 	0.9052	0.9173	0.2606	0.09
Mof_H 	H 	0.8659	0.9586	0.178	0.079
Mof_C 	C 	0.055	0.7742	0.252	0.17
Mof_H 	H 	0.0291	0.7354	0.2402	-0.02
Mof_C 	C 	0.5239	0.3517	0.0595	0.15
Mof_C 	C 	0.4541	0.8194	0.2505	-0.229
Mof_H 	H 	0.4241	0.7814	0.2369	0.105
Mof_H 	H 	0.5193	0.7964	0.261	0.102
Mof_C 	C 	0.2302	0.8186	0.5291	-0.056
Mof_H 	H 	0.1931	0.7978	0.575	0.071
Mof_C 	C 	0.5386	0.016	0.0809	-0.086
Mof_H 	H 	0.4804	0.0486	0.0582	0.046
Mof_H 	H 	0.5872	0.025	0.0396	0.051
Mof_C 	C 	0.5561	0.2132	0.2598	0.038
Mof_C 	C 	0.1231	0.8916	0.2866	-0.246
Mof_H 	H 	0.1445	0.932	0.2991	0.126
Mof_C 	C 	0.5402	0.5373	0.338	0.155
Mof_H 	H 	0.5532	0.5099	0.3057	-0.011
Mof_C 	C 	0.8736	0.1141	0.1614	-0.208
Mof_H 	H 	0.8941	0.107	0.1171	0.09
Mof_C 	C 	0.1445	0.9942	0.1444	-0.188
Mof_H 	H 	0.0881	0.0342	0.1294	0.086
Mof_H 	H 	0.1695	0.9835	0.1005	0.079
Mof_C 	C 	0.0637	0.7548	0.3271	-0.24
Mof_C 	C 	0.6986	0.4777	0.3893	0.489
Mof_C 	C 	0.3529	0.9344	0.156	-0.218
Mof_H 	H 	0.3146	0.8861	0.1808	0.1
Mof_H 	H 	0.3578	0.9508	0.101	0.091
Mof_C 	C 	0.4539	0.5874	0.3352	-0.238
Mof_H 	H 	0.4101	0.5933	0.3007	0.118
Mof_C 	C 	0.4298	0.3489	0.0814	-0.187
Mof_H 	H 	0.4113	0.3192	0.1333	0.102
Mof_C 	C 	0.3151	0.4749	0.8912	0.322
Mof_C 	C 	0.0832	0.8491	0.1928	-0.25
Mof_H 	H 	0.0793	0.8595	0.1418	0.107
Mof_C 	C 	0.6027	0.8107	0.4191	-0.113
Mof_H 	H 	0.5372	0.8116	0.4263	0.065
Mof_C 	C 	0.8018	0.812	0.399	-0.075
Mof_H 	H 	0.8669	0.8144	0.3932	0.063
Mof_C 	C 	0.2888	0.1762	0.2294	-0.113
Mof_H 	H 	0.346	0.186	0.2413	0.067
Mof_C 	C 	0.5242	0.9221	0.1227	-0.119
Mof_H 	H 	0.5831	0.8892	0.1435	0.065
Mof_H 	H 	0.505	0.9024	0.0872	0.063
Mof_C 	C 	0.2564	0.767	0.4945	-0.045
Mof_H 	H 	0.2371	0.7117	0.5145	0.051
Mof_C 	C 	0.2567	0.9039	0.4984	0.004
Mof_H 	H 	0.2362	0.9378	0.5243	0.032
Mof_C 	C 	0.3132	0.9378	0.4298	-0.121
Mof_H 	H 	0.3296	0.9942	0.4083	0.065
Mof_C 	C 	0.5101	0.0966	0.3786	-0.119
Mof_H 	H 	0.4907	0.0414	0.4067	0.061
Mof_C 	C 	0.5683	0.2646	0.2958	-0.064
Mof_H 	H 	0.5863	0.3204	0.2684	0.069
Mof_C 	C 	0.5993	0.3061	0.1167	-0.173
Mof_H 	H 	0.6155	0.3451	0.1362	0.095
Mof_H 	H 	0.6558	0.2914	0.0905	0.083
Mof_C 	C 	0.8138	0.058	0.2926	-0.191
Mof_H 	H 	0.796	0.0117	0.3381	0.105
Mof_C 	C 	0.6702	0.017	0.1516	-0.223
Mof_H 	H 	0.7032	0.066	0.1432	0.102
Mof_H 	H 	0.6994	0.9933	0.1166	0.095
Mof_C 	C 	0.5512	0.3969	0.9825	-0.185
Mof_H 	H 	0.6151	0.3984	0.9668	0.092
Mof_C 	C 	0.2069	0.2237	0.2353	-0.002
Mof_H 	H 	0.2083	0.2656	0.2526	0.042
Mof_C 	C 	0.4837	0.4402	0.9281	0.079
Mof_H 	H 	0.5026	0.4724	0.8767	0.015
Mof_C 	C 	0.1136	0.1492	0.1921	-0.073
Mof_H 	H 	0.0554	0.1401	0.1811	0.061
Mof_C 	C 	0.1221	0.2109	0.2162	-0.04
Mof_H 	H 	0.0683	0.2458	0.2198	0.063
Mof_C 	C 	0.6623	0.759	0.478	-0.006
Mof_H 	H 	0.6358	0.7224	0.5256	0.039
Mof_C 	C 	0.5517	0.2271	0.3756	-0.044
Mof_H 	H 	0.5617	0.2577	0.4028	0.051
Mof_C 	C 	0.5221	0.1491	0.4139	0
Mof_H 	H 	0.5087	0.1283	0.4668	0.027
Mof_C 	C 	0.7568	0.7604	0.4683	-0.036
Mof_H 	H 	0.7934	0.7253	0.5098	0.059
Mof_C 	C 	0.0362	0.6698	0.3919	0.509
Mof_C 	C 	0.8262	0.296	0.2208	0.349
Mof_C 	C 	0.8051	0.1388	0.2881	0.106
Mof_H 	H 	0.7791	0.1475	0.3306	0.01
Mof_C 	C 	0.3617	0.3889	0.0283	0.082
Mof_H 	H 	0.2979	0.385	0.0444	0.014
Mof_C 	C 	0.3431	0.883	0.3961	0.07
_end
