# CIF file generated by openbabel 3.1.0, see https://openbabel.org
data_I
_chemical_name_common 'image0'
_cell_length_a 31.379
_cell_length_b 31.379
_cell_length_c 12.684
_cell_angle_alpha 90
_cell_angle_beta 90
_cell_angle_gamma 120
_space_group_name_H-M_alt 'P 1'
_space_group_name_Hall 'P 1'
loop_
    _symmetry_equiv_pos_as_xyz
    x,y,z
loop_
    _atom_site_label
    _atom_site_type_symbol
    _atom_site_fract_x
    _atom_site_fract_y
    _atom_site_fract_z
    _atom_site_occupancy
    P1       P        0.02432    0.65558    0.06306    1.000
    H1       H        0.07970    0.67830    0.05780    1.000
    P2       P        0.00639    0.56814    0.51438    1.000
    H2       H        0.95660    0.55720    0.49620    1.000
    P3       P        0.05156    0.52466    0.13039    1.000
    H3       H        0.10010    0.54270    0.10720    1.000
    P4       P        0.92985    0.52057    0.21770    1.000
    H4       H        0.88290    0.49040    0.22410    1.000
    Be1      Be       0.00370    0.50650    0.33340    1.000
    Be2      Be       0.98850    0.55447    0.02430    1.000
    Be3      Be       0.04364    0.66982    0.57880    1.000
    O1       O        0.01016    0.64318    0.17745    1.000
    O2       O        0.00287    0.61061    0.99360    1.000
    O3       O        0.01291    0.69390    0.02263    1.000
    O4       O        0.03901    0.62351    0.51610    1.000
    O5       O        0.02157    0.54847    0.42250    1.000
    O6       O        0.00768    0.54626    0.61890    1.000
    O7       O        0.04878    0.52673    0.24900    1.000
    O8       O        0.03706    0.55795    0.07470    1.000
    O9       O        0.02500    0.47259    0.09020    1.000
    O10      O        0.94090    0.52853    0.10110    1.000
    O11      O        0.95352    0.49488    0.27230    1.000
    O12      O        0.93862    0.56583    0.27630    1.000
    P5       P        0.69099    0.98891    0.39639    1.000
    H5       H        0.74637    0.01163    0.39113    1.000
    P6       P        0.67306    0.90147    0.84771    1.000
    H6       H        0.62327    0.89053    0.82953    1.000
    P7       P        0.71823    0.85799    0.46372    1.000
    H7       H        0.76677    0.87603    0.44053    1.000
    P8       P        0.59652    0.85390    0.55103    1.000
    H8       H        0.54957    0.82373    0.55743    1.000
    Be4      Be       0.67037    0.83983    0.66673    1.000
    Be5      Be       0.65517    0.88780    0.35763    1.000
    Be6      Be       0.71031    0.00315    0.91213    1.000
    O13      O        0.67683    0.97651    0.51078    1.000
    O14      O        0.66954    0.94394    0.32693    1.000
    O15      O        0.67958    0.02723    0.35596    1.000
    O16      O        0.70568    0.95684    0.84943    1.000
    O17      O        0.68824    0.88180    0.75583    1.000
    O18      O        0.67435    0.87959    0.95223    1.000
    O19      O        0.71545    0.86006    0.58233    1.000
    O20      O        0.70373    0.89128    0.40803    1.000
    O21      O        0.69167    0.80592    0.42353    1.000
    O22      O        0.60757    0.86186    0.43443    1.000
    O23      O        0.62019    0.82821    0.60563    1.000
    O24      O        0.60529    0.89916    0.60963    1.000
    P9       P        0.35765    0.32225    0.72973    1.000
    H9       H        0.41303    0.34497    0.72447    1.000
    P10      P        0.33972    0.23481    0.18105    1.000
    H10      H        0.28993    0.22387    0.16287    1.000
    P11      P        0.38489    0.19133    0.79706    1.000
    H11      H        0.43343    0.20937    0.77387    1.000
    P12      P        0.26318    0.18724    0.88437    1.000
    H12      H        0.21623    0.15707    0.89077    1.000
    Be7      Be       0.33703    0.17317    0.00007    1.000
    Be8      Be       0.32183    0.22114    0.69097    1.000
    Be9      Be       0.37697    0.33649    0.24547    1.000
    O25      O        0.34349    0.30985    0.84412    1.000
    O26      O        0.33620    0.27728    0.66027    1.000
    O27      O        0.34624    0.36057    0.68930    1.000
    O28      O        0.37234    0.29018    0.18277    1.000
    O29      O        0.35490    0.21514    0.08917    1.000
    O30      O        0.34101    0.21293    0.28557    1.000
    O31      O        0.38211    0.19340    0.91567    1.000
    O32      O        0.37039    0.22462    0.74137    1.000
    O33      O        0.35833    0.13926    0.75687    1.000
    O34      O        0.27423    0.19520    0.76777    1.000
    O35      O        0.28685    0.16155    0.93897    1.000
    O36      O        0.27195    0.23250    0.94297    1.000
    P13      P        0.34442    0.36874    0.06306    1.000
    H13      H        0.32170    0.40140    0.05780    1.000
    P14      P        0.43186    0.43825    0.51438    1.000
    H14      H        0.44280    0.39940    0.49620    1.000
    P15      P        0.47534    0.52690    0.13039    1.000
    H15      H        0.45730    0.55740    0.10720    1.000
    P16      P        0.47943    0.40928    0.21770    1.000
    H16      H        0.50960    0.39250    0.22410    1.000
    Be10     Be       0.49350    0.49720    0.33340    1.000
    Be11     Be       0.44553    0.43403    0.02430    1.000
    Be12     Be       0.33018    0.37382    0.57880    1.000
    O37      O        0.35682    0.36698    0.17745    1.000
    O38      O        0.38939    0.39226    0.99360    1.000
    O39      O        0.30610    0.31901    0.02263    1.000
    O40      O        0.37649    0.41550    0.51610    1.000
    O41      O        0.45153    0.47310    0.42250    1.000
    O42      O        0.45374    0.46142    0.61890    1.000
    O43      O        0.47327    0.52205    0.24900    1.000
    O44      O        0.44205    0.47911    0.07470    1.000
    O45      O        0.52741    0.55241    0.09020    1.000
    O46      O        0.47147    0.41237    0.10110    1.000
    O47      O        0.50512    0.45864    0.27230    1.000
    O48      O        0.43417    0.37279    0.27630    1.000
    P17      P        0.01109    0.70207    0.39639    1.000
    H17      H        0.98837    0.73473    0.39113    1.000
    P18      P        0.09853    0.77158    0.84771    1.000
    H18      H        0.10947    0.73273    0.82953    1.000
    P19      P        0.14201    0.86023    0.46372    1.000
    H19      H        0.12397    0.89073    0.44053    1.000
    P20      P        0.14610    0.74261    0.55103    1.000
    H20      H        0.17627    0.72583    0.55743    1.000
    Be13     Be       0.16017    0.83053    0.66673    1.000
    Be14     Be       0.11220    0.76736    0.35763    1.000
    Be15     Be       0.99685    0.70715    0.91213    1.000
    O49      O        0.02349    0.70031    0.51078    1.000
    O50      O        0.05606    0.72559    0.32693    1.000
    O51      O        0.97277    0.65234    0.35596    1.000
    O52      O        0.04316    0.74883    0.84943    1.000
    O53      O        0.11820    0.80643    0.75583    1.000
    O54      O        0.12041    0.79475    0.95223    1.000
    O55      O        0.13994    0.85538    0.58233    1.000
    O56      O        0.10872    0.81244    0.40803    1.000
    O57      O        0.19408    0.88574    0.42353    1.000
    O58      O        0.13814    0.74570    0.43443    1.000
    O59      O        0.17179    0.79197    0.60563    1.000
    O60      O        0.10084    0.70612    0.60963    1.000
    P21      P        0.67775    0.03541    0.72973    1.000
    H21      H        0.65503    0.06807    0.72447    1.000
    P22      P        0.76519    0.10492    0.18105    1.000
    H22      H        0.77613    0.06607    0.16287    1.000
    P23      P        0.80867    0.19357    0.79706    1.000
    H23      H        0.79063    0.22407    0.77387    1.000
    P24      P        0.81276    0.07595    0.88437    1.000
    H24      H        0.84293    0.05917    0.89077    1.000
    Be16     Be       0.82683    0.16387    0.00007    1.000
    Be17     Be       0.77886    0.10070    0.69097    1.000
    Be18     Be       0.66351    0.04049    0.24547    1.000
    O61      O        0.69015    0.03365    0.84412    1.000
    O62      O        0.72272    0.05893    0.66027    1.000
    O63      O        0.63943    0.98568    0.68930    1.000
    O64      O        0.70982    0.08217    0.18277    1.000
    O65      O        0.78486    0.13977    0.08917    1.000
    O66      O        0.78707    0.12809    0.28557    1.000
    O67      O        0.80660    0.18872    0.91567    1.000
    O68      O        0.77538    0.14578    0.74137    1.000
    O69      O        0.86074    0.21908    0.75687    1.000
    O70      O        0.80480    0.07904    0.76777    1.000
    O71      O        0.83845    0.12531    0.93897    1.000
    O72      O        0.76750    0.03946    0.94297    1.000
    P25      P        0.63126    0.97568    0.06306    1.000
    H25      H        0.59860    0.92030    0.05780    1.000
    P26      P        0.56175    0.99361    0.51438    1.000
    H26      H        0.60060    0.04340    0.49620    1.000
    P27      P        0.47310    0.94844    0.13039    1.000
    H27      H        0.44260    0.89990    0.10720    1.000
    P28      P        0.59072    0.07015    0.21770    1.000
    H28      H        0.60750    0.11710    0.22410    1.000
    Be19     Be       0.50280    0.99630    0.33340    1.000
    Be20     Be       0.56597    0.01150    0.02430    1.000
    Be21     Be       0.62618    0.95636    0.57880    1.000
    O73      O        0.63302    0.98984    0.17745    1.000
    O74      O        0.60774    0.99713    0.99360    1.000
    O75      O        0.68099    0.98709    0.02263    1.000
    O76      O        0.58450    0.96099    0.51610    1.000
    O77      O        0.52690    0.97843    0.42250    1.000
    O78      O        0.53858    0.99232    0.61890    1.000
    O79      O        0.47795    0.95122    0.24900    1.000
    O80      O        0.52089    0.96294    0.07470    1.000
    O81      O        0.44759    0.97500    0.09020    1.000
    O82      O        0.58763    0.05910    0.10110    1.000
    O83      O        0.54136    0.04648    0.27230    1.000
    O84      O        0.62721    0.06138    0.27630    1.000
    P29      P        0.29793    0.30901    0.39639    1.000
    H29      H        0.26527    0.25363    0.39113    1.000
    P30      P        0.22842    0.32694    0.84771    1.000
    H30      H        0.26727    0.37673    0.82953    1.000
    P31      P        0.13977    0.28177    0.46372    1.000
    H31      H        0.10927    0.23323    0.44053    1.000
    P32      P        0.25739    0.40348    0.55103    1.000
    H32      H        0.27417    0.45043    0.55743    1.000
    Be22     Be       0.16947    0.32963    0.66673    1.000
    Be23     Be       0.23264    0.34483    0.35763    1.000
    Be24     Be       0.29285    0.28969    0.91213    1.000
    O85      O        0.29969    0.32317    0.51078    1.000
    O86      O        0.27441    0.33046    0.32693    1.000
    O87      O        0.34766    0.32042    0.35596    1.000
    O88      O        0.25117    0.29432    0.84943    1.000
    O89      O        0.19357    0.31176    0.75583    1.000
    O90      O        0.20525    0.32565    0.95223    1.000
    O91      O        0.14462    0.28455    0.58233    1.000
    O92      O        0.18756    0.29627    0.40803    1.000
    O93      O        0.11426    0.30833    0.42353    1.000
    O94      O        0.25430    0.39243    0.43443    1.000
    O95      O        0.20803    0.37981    0.60563    1.000
    O96      O        0.29388    0.39471    0.60963    1.000
    P33      P        0.96459    0.64235    0.72973    1.000
    H33      H        0.93193    0.58697    0.72447    1.000
    P34      P        0.89508    0.66028    0.18105    1.000
    H34      H        0.93393    0.71007    0.16287    1.000
    P35      P        0.80643    0.61511    0.79706    1.000
    H35      H        0.77593    0.56657    0.77387    1.000
    P36      P        0.92405    0.73682    0.88437    1.000
    H36      H        0.94083    0.78377    0.89077    1.000
    Be25     Be       0.83613    0.66297    0.00007    1.000
    Be26     Be       0.89930    0.67817    0.69097    1.000
    Be27     Be       0.95951    0.62303    0.24547    1.000
    O97      O        0.96635    0.65651    0.84412    1.000
    O98      O        0.94107    0.66380    0.66027    1.000
    O99      O        0.01432    0.65376    0.68930    1.000
    O100     O        0.91783    0.62766    0.18277    1.000
    O101     O        0.86023    0.64510    0.08917    1.000
    O102     O        0.87191    0.65899    0.28557    1.000
    O103     O        0.81128    0.61789    0.91567    1.000
    O104     O        0.85422    0.62961    0.74137    1.000
    O105     O        0.78092    0.64167    0.75687    1.000
    O106     O        0.92096    0.72577    0.76777    1.000
    O107     O        0.87469    0.71315    0.93897    1.000
    O108     O        0.96054    0.72805    0.94297    1.000
    P37      P        0.97568    0.34442    0.93694    1.000
    H37      H        0.92030    0.32170    0.94220    1.000
    P38      P        0.99361    0.43186    0.48562    1.000
    H38      H        0.04340    0.44280    0.50380    1.000
    P39      P        0.94844    0.47534    0.86961    1.000
    H39      H        0.89990    0.45730    0.89280    1.000
    P40      P        0.07015    0.47943    0.78230    1.000
    H40      H        0.11710    0.50960    0.77590    1.000
    Be28     Be       0.99630    0.49350    0.66660    1.000
    Be29     Be       0.01150    0.44553    0.97570    1.000
    Be30     Be       0.95636    0.33018    0.42120    1.000
    O109     O        0.98984    0.35682    0.82255    1.000
    O110     O        0.99713    0.38939    0.00640    1.000
    O111     O        0.98709    0.30610    0.97737    1.000
    O112     O        0.96099    0.37649    0.48390    1.000
    O113     O        0.97843    0.45153    0.57750    1.000
    O114     O        0.99232    0.45374    0.38110    1.000
    O115     O        0.95122    0.47327    0.75100    1.000
    O116     O        0.96294    0.44205    0.92530    1.000
    O117     O        0.97500    0.52741    0.90980    1.000
    O118     O        0.05910    0.47147    0.89890    1.000
    O119     O        0.04648    0.50512    0.72770    1.000
    O120     O        0.06138    0.43417    0.72370    1.000
    P41      P        0.64235    0.67775    0.27027    1.000
    H41      H        0.58697    0.65503    0.27553    1.000
    P42      P        0.66028    0.76519    0.81895    1.000
    H42      H        0.71007    0.77613    0.83713    1.000
    P43      P        0.61511    0.80867    0.20294    1.000
    H43      H        0.56657    0.79063    0.22613    1.000
    P44      P        0.73682    0.81276    0.11563    1.000
    H44      H        0.78377    0.84293    0.10923    1.000
    Be31     Be       0.66297    0.82683    0.99993    1.000
    Be32     Be       0.67817    0.77886    0.30903    1.000
    Be33     Be       0.62303    0.66351    0.75453    1.000
    O121     O        0.65651    0.69015    0.15588    1.000
    O122     O        0.66380    0.72272    0.33973    1.000
    O123     O        0.65376    0.63943    0.31070    1.000
    O124     O        0.62766    0.70982    0.81723    1.000
    O125     O        0.64510    0.78486    0.91083    1.000
    O126     O        0.65899    0.78707    0.71443    1.000
    O127     O        0.61789    0.80660    0.08433    1.000
    O128     O        0.62961    0.77538    0.25863    1.000
    O129     O        0.64167    0.86074    0.24313    1.000
    O130     O        0.72577    0.80480    0.23223    1.000
    O131     O        0.71315    0.83845    0.06103    1.000
    O132     O        0.72805    0.76750    0.05703    1.000
    P45      P        0.30901    0.01109    0.60361    1.000
    H45      H        0.25363    0.98837    0.60887    1.000
    P46      P        0.32694    0.09853    0.15229    1.000
    H46      H        0.37673    0.10947    0.17047    1.000
    P47      P        0.28177    0.14201    0.53628    1.000
    H47      H        0.23323    0.12397    0.55947    1.000
    P48      P        0.40348    0.14610    0.44897    1.000
    H48      H        0.45043    0.17627    0.44257    1.000
    Be34     Be       0.32963    0.16017    0.33327    1.000
    Be35     Be       0.34483    0.11220    0.64237    1.000
    Be36     Be       0.28969    0.99685    0.08787    1.000
    O133     O        0.32317    0.02349    0.48922    1.000
    O134     O        0.33046    0.05606    0.67307    1.000
    O135     O        0.32042    0.97277    0.64404    1.000
    O136     O        0.29432    0.04316    0.15057    1.000
    O137     O        0.31176    0.11820    0.24417    1.000
    O138     O        0.32565    0.12041    0.04777    1.000
    O139     O        0.28455    0.13994    0.41767    1.000
    O140     O        0.29627    0.10872    0.59197    1.000
    O141     O        0.30833    0.19408    0.57647    1.000
    O142     O        0.39243    0.13814    0.56557    1.000
    O143     O        0.37981    0.17179    0.39437    1.000
    O144     O        0.39471    0.10084    0.39037    1.000
    P49      P        0.65558    0.63126    0.93694    1.000
    H49      H        0.67830    0.59860    0.94220    1.000
    P50      P        0.56814    0.56175    0.48562    1.000
    H50      H        0.55720    0.60060    0.50380    1.000
    P51      P        0.52466    0.47310    0.86961    1.000
    H51      H        0.54270    0.44260    0.89280    1.000
    P52      P        0.52057    0.59072    0.78230    1.000
    H52      H        0.49040    0.60750    0.77590    1.000
    Be37     Be       0.50650    0.50280    0.66660    1.000
    Be38     Be       0.55447    0.56597    0.97570    1.000
    Be39     Be       0.66982    0.62618    0.42120    1.000
    O145     O        0.64318    0.63302    0.82255    1.000
    O146     O        0.61061    0.60774    0.00640    1.000
    O147     O        0.69390    0.68099    0.97737    1.000
    O148     O        0.62351    0.58450    0.48390    1.000
    O149     O        0.54847    0.52690    0.57750    1.000
    O150     O        0.54626    0.53858    0.38110    1.000
    O151     O        0.52673    0.47795    0.75100    1.000
    O152     O        0.55795    0.52089    0.92530    1.000
    O153     O        0.47259    0.44759    0.90980    1.000
    O154     O        0.52853    0.58763    0.89890    1.000
    O155     O        0.49488    0.54136    0.72770    1.000
    O156     O        0.56583    0.62721    0.72370    1.000
    P53      P        0.32225    0.96459    0.27027    1.000
    H53      H        0.34497    0.93193    0.27553    1.000
    P54      P        0.23481    0.89508    0.81895    1.000
    H54      H        0.22387    0.93393    0.83713    1.000
    P55      P        0.19133    0.80643    0.20294    1.000
    H55      H        0.20937    0.77593    0.22613    1.000
    P56      P        0.18724    0.92405    0.11563    1.000
    H56      H        0.15707    0.94083    0.10923    1.000
    Be40     Be       0.17317    0.83613    0.99993    1.000
    Be41     Be       0.22114    0.89930    0.30903    1.000
    Be42     Be       0.33649    0.95951    0.75453    1.000
    O157     O        0.30985    0.96635    0.15588    1.000
    O158     O        0.27728    0.94107    0.33973    1.000
    O159     O        0.36057    0.01432    0.31070    1.000
    O160     O        0.29018    0.91783    0.81723    1.000
    O161     O        0.21514    0.86023    0.91083    1.000
    O162     O        0.21293    0.87191    0.71443    1.000
    O163     O        0.19340    0.81128    0.08433    1.000
    O164     O        0.22462    0.85422    0.25863    1.000
    O165     O        0.13926    0.78092    0.24313    1.000
    O166     O        0.19520    0.92096    0.23223    1.000
    O167     O        0.16155    0.87469    0.06103    1.000
    O168     O        0.23250    0.96054    0.05703    1.000
    P57      P        0.98891    0.29793    0.60361    1.000
    H57      H        0.01163    0.26527    0.60887    1.000
    P58      P        0.90147    0.22842    0.15229    1.000
    H58      H        0.89053    0.26727    0.17047    1.000
    P59      P        0.85799    0.13977    0.53628    1.000
    H59      H        0.87603    0.10927    0.55947    1.000
    P60      P        0.85390    0.25739    0.44897    1.000
    H60      H        0.82373    0.27417    0.44257    1.000
    Be43     Be       0.83983    0.16947    0.33327    1.000
    Be44     Be       0.88780    0.23264    0.64237    1.000
    Be45     Be       0.00315    0.29285    0.08787    1.000
    O169     O        0.97651    0.29969    0.48922    1.000
    O170     O        0.94394    0.27441    0.67307    1.000
    O171     O        0.02723    0.34766    0.64404    1.000
    O172     O        0.95684    0.25117    0.15057    1.000
    O173     O        0.88180    0.19357    0.24417    1.000
    O174     O        0.87959    0.20525    0.04777    1.000
    O175     O        0.86006    0.14462    0.41767    1.000
    O176     O        0.89128    0.18756    0.59197    1.000
    O177     O        0.80592    0.11426    0.57647    1.000
    O178     O        0.86186    0.25430    0.56557    1.000
    O179     O        0.82821    0.20803    0.39437    1.000
    O180     O        0.89916    0.29388    0.39037    1.000
    P61      P        0.36874    0.02432    0.93694    1.000
    H61      H        0.40140    0.07970    0.94220    1.000
    P62      P        0.43825    0.00639    0.48562    1.000
    H62      H        0.39940    0.95660    0.50380    1.000
    P63      P        0.52690    0.05156    0.86961    1.000
    H63      H        0.55740    0.10010    0.89280    1.000
    P64      P        0.40928    0.92985    0.78230    1.000
    H64      H        0.39250    0.88290    0.77590    1.000
    Be46     Be       0.49720    0.00370    0.66660    1.000
    Be47     Be       0.43403    0.98850    0.97570    1.000
    Be48     Be       0.37382    0.04364    0.42120    1.000
    O181     O        0.36698    0.01016    0.82255    1.000
    O182     O        0.39226    0.00287    0.00640    1.000
    O183     O        0.31901    0.01291    0.97737    1.000
    O184     O        0.41550    0.03901    0.48390    1.000
    O185     O        0.47310    0.02157    0.57750    1.000
    O186     O        0.46142    0.00768    0.38110    1.000
    O187     O        0.52205    0.04878    0.75100    1.000
    O188     O        0.47911    0.03706    0.92530    1.000
    O189     O        0.55241    0.02500    0.90980    1.000
    O190     O        0.41237    0.94090    0.89890    1.000
    O191     O        0.45864    0.95352    0.72770    1.000
    O192     O        0.37279    0.93862    0.72370    1.000
    P65      P        0.03541    0.35765    0.27027    1.000
    H65      H        0.06807    0.41303    0.27553    1.000
    P66      P        0.10492    0.33972    0.81895    1.000
    H66      H        0.06607    0.28993    0.83713    1.000
    P67      P        0.19357    0.38489    0.20294    1.000
    H67      H        0.22407    0.43343    0.22613    1.000
    P68      P        0.07595    0.26318    0.11563    1.000
    H68      H        0.05917    0.21623    0.10923    1.000
    Be49     Be       0.16387    0.33703    0.99993    1.000
    Be50     Be       0.10070    0.32183    0.30903    1.000
    Be51     Be       0.04049    0.37697    0.75453    1.000
    O193     O        0.03365    0.34349    0.15588    1.000
    O194     O        0.05893    0.33620    0.33973    1.000
    O195     O        0.98568    0.34624    0.31070    1.000
    O196     O        0.08217    0.37234    0.81723    1.000
    O197     O        0.13977    0.35490    0.91083    1.000
    O198     O        0.12809    0.34101    0.71443    1.000
    O199     O        0.18872    0.38211    0.08433    1.000
    O200     O        0.14578    0.37039    0.25863    1.000
    O201     O        0.21908    0.35833    0.24313    1.000
    O202     O        0.07904    0.27423    0.23223    1.000
    O203     O        0.12531    0.28685    0.06103    1.000
    O204     O        0.03946    0.27195    0.05703    1.000
    P69      P        0.70207    0.69099    0.60361    1.000
    H69      H        0.73473    0.74637    0.60887    1.000
    P70      P        0.77158    0.67306    0.15229    1.000
    H70      H        0.73273    0.62327    0.17047    1.000
    P71      P        0.86023    0.71823    0.53628    1.000
    H71      H        0.89073    0.76677    0.55947    1.000
    P72      P        0.74261    0.59652    0.44897    1.000
    H72      H        0.72583    0.54957    0.44257    1.000
    Be52     Be       0.83053    0.67037    0.33327    1.000
    Be53     Be       0.76736    0.65517    0.64237    1.000
    Be54     Be       0.70715    0.71031    0.08787    1.000
    O205     O        0.70031    0.67683    0.48922    1.000
    O206     O        0.72559    0.66954    0.67307    1.000
    O207     O        0.65234    0.67958    0.64404    1.000
    O208     O        0.74883    0.70568    0.15057    1.000
    O209     O        0.80643    0.68824    0.24417    1.000
    O210     O        0.79475    0.67435    0.04777    1.000
    O211     O        0.85538    0.71545    0.41767    1.000
    O212     O        0.81244    0.70373    0.59197    1.000
    O213     O        0.88574    0.69167    0.57647    1.000
    O214     O        0.74570    0.60757    0.56557    1.000
    O215     O        0.79197    0.62019    0.39437    1.000
    O216     O        0.70612    0.60529    0.39037    1.000
