data_functionalizedCrystal
_audit_creation_method	'EQeq! by Chris Wilmer'
_symmetry_space_group_name_H-M	'P1'
_symmetry_Int_Tables_number	1
_symmetry_cell_setting	triclinic
loop_
_symmetry_equiv_pos_as_xyz
  x,y,z
_cell_length_a	11.624
_cell_length_b	13.395
_cell_length_c	21.378
_cell_angle_alpha	108.23
_cell_angle_beta	96.32
_cell_angle_gamma	103.03
loop_
_atom_site_label
_atom_site_type_symbol
_atom_site_fract_x
_atom_site_fract_y
_atom_site_fract_z
_atom_site_charge
Mof_Ni	Ni	0.51739	0.36318	0.91536	1.112
Mof_Ni	Ni	0.90426	0.30028	0.61212	1.057
Mof_Ni	Ni	0.48261	0.63682	0.08464	1.112
Mof_Ni	Ni	0.09574	0.69972	0.38788	1.057
Mof_H 	H 	0.3811	0.2348	0.2966	0.152
Mof_H 	H 	0.4252	0.9245	0.632	-0.027
Mof_H 	H 	0.3192	0.9784	0.3482	0.162
Mof_H 	H 	0.8641	0.4021	0.0442	0.048
Mof_H 	H 	0.8259	0.6732	0.3481	-0.022
Mof_H 	H 	0.6808	0.0216	0.6518	0.162
Mof_H 	H 	0.6267	0.3881	0.4852	0.053
Mof_H 	H 	0.0641	0.3721	0.3552	-0.034
Mof_H 	H 	0.7095	0.5655	0.01	-0.005
Mof_H 	H 	0.7824	0.9527	0.8113	0.162
Mof_H 	H 	0.1444	0.6568	0.0693	0.058
Mof_H 	H 	0.6189	0.7652	0.7034	0.152
Mof_H 	H 	0.5963	0.151	0.7153	-0.021
Mof_H 	H 	0.5515	0.0678	0.2565	0.173
Mof_H 	H 	0.0084	0.8206	0.0039	0.043
Mof_H 	H 	0.1357	0.7079	0.7008	0.162
Mof_H 	H 	0.9257	0.2624	0.8372	0.088
Mof_H 	H 	0.4037	0.849	0.2847	-0.021
Mof_H 	H 	0.6492	0.6144	0.3802	0.099
Mof_H 	H 	0.1167	0.0706	0.8272	0.088
Mof_H 	H 	0.2602	0.2288	0.8368	0.003
Mof_H 	H 	0.0071	0.4444	0.5367	-0.002
Mof_H 	H 	0.883	0.3007	0.411	-0.031
Mof_H 	H 	0.3733	0.6119	0.5148	0.053
Mof_H 	H 	0.8832	0.7459	0.8104	0.048
Mof_H 	H 	0.2939	0.8363	0.9119	0.168
Mof_H 	H 	0.1359	0.5979	0.9558	0.048
Mof_H 	H 	0.609	0.5844	0.6884	-0.028
Mof_H 	H 	0.9028	0.2084	0.7242	-0.027
Mof_H 	H 	0.117	0.6993	0.589	-0.031
Mof_H 	H 	0.9464	0.8054	0.6569	0.163
Mof_H 	H 	0.4598	0.3481	0.5314	0.056
Mof_H 	H 	0.1741	0.3268	0.6519	-0.022
Mof_H 	H 	0.647	0.44	0.8158	0.017
Mof_H 	H 	0.2898	0.9139	0.1235	-0.035
Mof_H 	H 	0.0972	0.7916	0.2758	-0.027
Mof_H 	H 	0.6494	0.3505	0.2595	0.149
Mof_H 	H 	0.3506	0.6495	0.7405	0.149
Mof_H 	H 	0.8216	0.4981	0.4988	0.105
Mof_H 	H 	0.353	0.56	0.1842	0.017
Mof_H 	H 	0.7853	0.5867	0.8091	0.089
Mof_H 	H 	0.8496	0.7143	0.0092	0.088
Mof_H 	H 	0.2176	0.0473	0.1887	0.162
Mof_H 	H 	0.9359	0.6279	0.6448	-0.034
Mof_H 	H 	0.1482	0.9697	0.0053	0.044
Mof_H 	H 	0.5402	0.6519	0.4686	0.056
Mof_H 	H 	0.8556	0.3432	0.9307	0.058
Mof_H 	H 	0.391	0.4156	0.3116	-0.028
Mof_H 	H 	0.9624	0.4916	0.2663	-0.01
Mof_H 	H 	0.3917	0.5258	0.7914	-0.023
Mof_H 	H 	0.8643	0.2921	0.2992	0.162
Mof_H 	H 	0.5516	0.7826	0.0074	0.001
Mof_H 	H 	0.6598	0.2784	0.0346	-0.024
Mof_H 	H 	0.1168	0.2541	0.1896	0.048
Mof_H 	H 	0.3402	0.7216	0.9654	-0.024
Mof_H 	H 	0.6897	0.9384	0.0108	0.089
Mof_H 	H 	0.6083	0.4742	0.2086	-0.023
Mof_H 	H 	0.8833	0.9294	0.1728	0.088
Mof_H 	H 	0.2147	0.4133	0.1909	0.089
Mof_H 	H 	0.9365	0.4297	0.1531	0.09
Mof_H 	H 	0.4484	0.2174	0.9926	0.001
Mof_H 	H 	0.0536	0.1946	0.3431	0.163
Mof_H 	H 	0.0635	0.5703	0.8469	0.09
Mof_H 	H 	0.1784	0.5019	0.5012	0.105
Mof_H 	H 	0.7102	0.0861	0.8765	-0.035
Mof_H 	H 	0.9758	0.1028	0.1882	0.05
Mof_H 	H 	0.1504	0.2857	0.9908	0.088
Mof_H 	H 	0.7398	0.7712	0.1632	0.003
Mof_H 	H 	0.0743	0.7376	0.1628	0.088
Mof_H 	H 	0.3508	0.3856	0.6198	0.099
Mof_H 	H 	0.0376	0.5084	0.7337	-0.01
Mof_H 	H 	0.3103	0.0616	0.9892	0.089
Mof_H 	H 	0.5748	0.0755	0.368	-0.027
Mof_H 	H 	0.8518	0.0303	0.9947	0.044
Mof_H 	H 	0.9916	0.1794	0.9961	0.043
Mof_H 	H 	0.0242	0.8972	0.8118	0.05
Mof_H 	H 	0.4485	0.9322	0.7435	0.173
Mof_H 	H 	0.2905	0.4345	0.99	-0.005
Mof_H 	H 	0.9929	0.5556	0.4633	-0.002
Mof_H 	H 	0.7061	0.1637	0.0881	0.168
Mof_C 	C 	0.1625	0.3309	0.0902	0.089
Mof_C 	C 	0.6191	0.8125	0.0418	0.101
Mof_C 	C 	0.0287	0.4962	0.823	-0.155
Mof_C 	C 	0.7466	0.9941	0.7918	-0.37
Mof_C 	C 	0.0526	0.6852	0.1826	-0.157
Mof_C 	C 	0.9877	0.5412	0.2451	0.097
Mof_C 	C 	0.3169	0.2623	0.3085	-0.336
Mof_C 	C 	0.9365	0.7905	0.8502	-0.049
Mof_C 	C 	0.5249	0.5909	0.4816	-0.04
Mof_C 	C 	0.8099	0.6594	0.9686	-0.154
Mof_C 	C 	0.6854	0.0336	0.6974	-0.359
Mof_C 	C 	0.4036	0.7819	0.1552	0.345
Mof_C 	C 	0.0214	0.8816	0.8512	-0.044
Mof_C 	C 	0.2681	0.809	0.5993	-0.25
Mof_C 	C 	0.9786	0.1184	0.1488	-0.044
Mof_C 	C 	0.7688	0.5868	0.6619	-0.235
Mof_C 	C 	0.1901	0.3406	0.0314	-0.154
Mof_C 	C 	0.272	0.1942	0.8675	0.095
Mof_C 	C 	0.6196	0.115	0.2877	-0.359
Mof_C 	C 	0.7195	0.6046	0.3995	-0.172
Mof_C 	C 	0.3124	0.5035	0.1445	0.081
Mof_C 	C 	0.3502	0.6635	0.7859	-0.328
Mof_C 	C 	0.7046	0.1781	0.2689	0.367
Mof_C 	C 	0.9988	0.4627	0.9305	-0.012
Mof_C 	C 	0.7016	0.0729	0.8306	0.221
Mof_C 	C 	0.3146	0.9664	0.3026	-0.359
Mof_C 	C 	0.0065	0.5764	0.142	0.092
Mof_C 	C 	0.1847	0.7472	0.6202	0.217
Mof_C 	C 	0.2984	0.9271	0.1694	0.221
Mof_C 	C 	0.4235	0.5659	0.5086	-0.039
Mof_C 	C 	0.1964	0.0502	0.9101	0.102
Mof_C 	C 	0.3257	0.7573	0.8246	0.35
Mof_C 	C 	0.343	0.7059	0.9201	0.199
Mof_C 	C 	0.5898	0.4587	0.08	0.427
Mof_C 	C 	0.728	0.8058	0.1325	0.095
Mof_C 	C 	0.9295	0.7644	0.9075	-0.014
Mof_C 	C 	0.0813	0.5574	0.9735	-0.037
Mof_C 	C 	0.4751	0.4091	0.5184	-0.04
Mof_C 	C 	0.826	0.6383	0.3794	0.094
Mof_C 	C 	0.2954	0.8219	0.7311	0.367
Mof_C 	C 	0.1949	0.7513	0.6872	-0.356
Mof_C 	C 	0.6039	0.5258	0.4738	-0.016
Mof_C 	C 	0.2836	0.4439	0.5519	0.111
Mof_C 	C 	0.7239	0.5692	0.9687	0.095
Mof_C 	C 	0.2511	0.8054	0.5271	0.393
Mof_C 	C 	0.3961	0.4742	0.5262	-0.016
Mof_C 	C 	0.1031	0.9508	0.9095	-0.014
Mof_C 	C 	0.2321	0.5306	0.3495	0.379
Mof_C 	C 	0.8375	0.6691	0.9098	0.089
Mof_C 	C 	0.3668	0.8797	0.6451	0.217
Mof_C 	C 	0.9187	0.4426	0.0265	-0.037
Mof_C 	C 	0.5964	0.2181	0.8448	0.345
Mof_C 	C 	0.0669	0.7174	0.2508	0.09
Mof_C 	C 	0.2761	0.4308	0.0313	0.095
Mof_C 	C 	0.6266	0.3892	0.1161	-0.24
Mof_C 	C 	0.6354	0.1125	0.7357	0.2
Mof_C 	C 	0.0012	0.5373	0.0695	-0.012
Mof_C 	C 	0.0635	0.2095	0.1498	-0.049
Mof_C 	C 	0.7679	0.4694	0.6505	0.379
Mof_C 	C 	0.3233	0.371	0.3184	0.204
Mof_C 	C 	0.6743	0.2427	0.1754	0.35
Mof_C 	C 	0.174	0.3617	0.6206	0.094
Mof_C 	C 	0.7862	0.8052	0.6836	0.35
Mof_C 	C 	0.7036	0.9066	0.0428	-0.165
Mof_C 	C 	0.1833	0.0997	0.8622	-0.157
Mof_C 	C 	0.0768	0.43	0.5531	0.112
Mof_C 	C 	0.0109	0.835	0.9642	-0.041
Mof_C 	C 	0.6498	0.3365	0.2141	-0.328
Mof_C 	C 	0.6876	0.4965	0.8555	0.081
Mof_C 	C 	0.6442	0.1329	0.8036	-0.239
Mof_C 	C 	0.4102	0.5413	0.92	0.427
Mof_C 	C 	0.7489	0.1946	0.4729	0.393
Mof_C 	C 	0.8036	0.9498	0.0899	0.102
Mof_C 	C 	0.3734	0.6108	0.8839	-0.24
Mof_C 	C 	0.3558	0.8671	0.1964	-0.239
Mof_C 	C 	0.2138	0.1948	0.3164	0.35
Mof_C 	C 	0.3809	0.1875	0.9582	0.101
Mof_C 	C 	0.0953	0.9252	0.9653	-0.046
Mof_C 	C 	0.7164	0.5561	0.4481	0.111
Mof_C 	C 	0.7319	0.191	0.4007	-0.25
Mof_C 	C 	0.9047	0.0748	0.0347	-0.046
Mof_C 	C 	0.8709	0.655	0.6554	0.209
Mof_C 	C 	0.9891	0.165	0.0358	-0.041
Mof_C 	C 	0.2534	0.0059	0.2082	-0.37
Mof_C 	C 	0.3747	0.5892	0.8166	0.195
Mof_C 	C 	0.2605	0.0245	0.2749	0.373
Mof_C 	C 	0.1798	0.4642	0.531	-0.181
Mof_C 	C 	0.2805	0.3954	0.6005	-0.172
Mof_C 	C 	0.6826	0.2244	0.1117	-0.346
Mof_C 	C 	0.9713	0.5038	0.177	-0.155
Mof_C 	C 	0.8153	0.2528	0.3798	0.217
Mof_C 	C 	0.9232	0.57	0.4469	0.112
Mof_C 	C 	0.8784	0.7617	0.6642	-0.338
Mof_C 	C 	0.8969	0.0492	0.0905	-0.014
Mof_C 	C 	0.6831	0.7377	0.6915	-0.336
Mof_C 	C 	0.0123	0.4588	0.7549	0.097
Mof_C 	C 	0.6767	0.629	0.6816	0.204
Mof_C 	C 	0.7395	0.9755	0.7251	0.373
Mof_C 	C 	0.0855	0.5941	0.0416	-0.051
Mof_C 	C 	0.2312	0.4132	0.3381	-0.235
Mof_C 	C 	0.2278	0.4157	0.1491	-0.144
Mof_C 	C 	0.3804	0.885	0.7123	-0.359
Mof_C 	C 	0.9935	0.4236	0.858	0.092
Mof_C 	C 	0.9331	0.2826	0.7492	0.09
Mof_C 	C 	0.3646	0.8875	0.2643	0.2
Mof_C 	C 	0.9145	0.4059	0.9584	-0.051
Mof_C 	C 	0.1291	0.345	0.3446	0.209
Mof_C 	C 	0.1216	0.2383	0.3358	-0.338
Mof_C 	C 	0.2964	0.0934	0.9572	-0.165
Mof_C 	C 	0.8202	0.5358	0.469	-0.181
Mof_C 	C 	0.6332	0.1203	0.3549	0.217
Mof_C 	C 	0.8167	0.9003	0.1378	-0.157
Mof_C 	C 	0.3174	0.7756	0.8883	-0.346
Mof_C 	C 	0.0705	0.2356	0.0925	-0.014
Mof_C 	C 	0.6253	0.4108	0.1834	0.195
Mof_C 	C 	0.5765	0.4341	0.4914	-0.039
Mof_C 	C 	0.657	0.2941	0.0799	0.199
Mof_C 	C 	0.8051	0.2487	0.3128	-0.356
Mof_C 	C 	0.9474	0.3148	0.8174	-0.157
Mof_C 	C 	0.7722	0.5843	0.8509	-0.144
Mof_N 	N 	0.6605	0.4877	0.9136	-0.228
Mof_N 	N 	0.6284	0.7638	0.0859	-0.227
Mof_N 	N 	0.0708	0.3772	0.5967	-0.245
Mof_N 	N 	0.0395	0.6477	0.2836	-0.253
Mof_N 	N 	0.9605	0.3523	0.7164	-0.253
Mof_N 	N 	0.3395	0.5123	0.0864	-0.228
Mof_N 	N 	0.9292	0.6228	0.4033	-0.245
Mof_N 	N 	0.3716	0.2362	0.9141	-0.227
Mof_O 	O 	0.1517	0.7514	0.4911	-0.433
Mof_O 	O 	0.5281	0.2621	0.8181	-0.369
Mof_O 	O 	0.3117	0.5877	0.3291	-0.287
Mof_O 	O 	0.3048	0.8385	0.7998	-0.332
Mof_O 	O 	0.5934	0.5568	0.1142	-0.425
Mof_O 	O 	0.6243	0.249	0.9083	-0.372
Mof_O 	O 	0.4066	0.4432	0.8858	-0.425
Mof_O 	O 	0.8479	0.4379	0.6221	-0.423
Mof_O 	O 	0.1973	0.0894	0.3131	-0.351
Mof_O 	O 	0.1521	0.5621	0.3779	-0.423
Mof_O 	O 	0.6952	0.1615	0.2002	-0.332
Mof_O 	O 	0.4468	0.5856	0.9822	-0.45
Mof_O 	O 	0.6617	0.1439	0.4914	-0.294
Mof_O 	O 	0.8483	0.2486	0.5089	-0.433
Mof_O 	O 	0.3757	0.751	0.0917	-0.372
Mof_O 	O 	0.3383	0.8561	0.5086	-0.294
Mof_O 	O 	0.6883	0.4123	0.6709	-0.287
Mof_O 	O 	0.5532	0.4144	0.0178	-0.45
Mof_O 	O 	0.8027	0.9106	0.6869	-0.351
Mof_O 	O 	0.4719	0.7379	0.1819	-0.369
_end
