# CIF file generated by openbabel 3.1.0, see https://openbabel.org
data_I
_chemical_name_common 'image0'
_cell_length_a 10.0873
_cell_length_b 10.0873
_cell_length_c 12.9358
_cell_angle_alpha 90
_cell_angle_beta 90
_cell_angle_gamma 90
_space_group_name_H-M_alt 'P 1'
_space_group_name_Hall 'P 1'
loop_
    _symmetry_equiv_pos_as_xyz
    x,y,z
loop_
    _atom_site_label
    _atom_site_type_symbol
    _atom_site_fract_x
    _atom_site_fract_y
    _atom_site_fract_z
    _atom_site_occupancy
    Co1      Co       0.88160    0.13240    0.29890    1.000
    P1       P        0.84460    0.86790    0.18390    1.000
    O1       O        0.72080    0.78480    0.18870    1.000
    O2       O        0.90620    0.85790    0.07610    1.000
    O3       O        0.80750    0.01230    0.20340    1.000
    O4       O        0.88950    0.06290    0.43420    1.000
    O5       O        0.05840    0.18150    0.26470    1.000
    Co2      Co       0.11840    0.86760    0.29890    1.000
    P2       P        0.15540    0.13210    0.18390    1.000
    O6       O        0.27920    0.21520    0.18870    1.000
    O7       O        0.09380    0.14210    0.07610    1.000
    O8       O        0.19250    0.98770    0.20340    1.000
    O9       O        0.11050    0.93710    0.43420    1.000
    O10      O        0.94160    0.81850    0.26470    1.000
    Co3      Co       0.13240    0.11840    0.70110    1.000
    P3       P        0.86790    0.15540    0.81610    1.000
    O11      O        0.78480    0.27920    0.81130    1.000
    O12      O        0.85790    0.09380    0.92390    1.000
    O13      O        0.01230    0.19250    0.79660    1.000
    O14      O        0.06290    0.11050    0.56580    1.000
    O15      O        0.18150    0.94160    0.73530    1.000
    Co4      Co       0.86760    0.88160    0.70110    1.000
    P4       P        0.13210    0.84460    0.81610    1.000
    O16      O        0.21520    0.72080    0.81130    1.000
    O17      O        0.14210    0.90620    0.92390    1.000
    O18      O        0.98770    0.80750    0.79660    1.000
    O19      O        0.93710    0.88950    0.56580    1.000
    O20      O        0.81850    0.05840    0.73530    1.000
    Co5      Co       0.61840    0.63240    0.20110    1.000
    P5       P        0.65540    0.36790    0.31610    1.000
    O21      O        0.77920    0.28480    0.31130    1.000
    O22      O        0.59380    0.35790    0.42390    1.000
    O23      O        0.69250    0.51230    0.29660    1.000
    O24      O        0.61050    0.56290    0.06580    1.000
    O25      O        0.44160    0.68150    0.23530    1.000
    Co6      Co       0.38160    0.36760    0.20110    1.000
    P6       P        0.34460    0.63210    0.31610    1.000
    O26      O        0.22080    0.71520    0.31130    1.000
    O27      O        0.40620    0.64210    0.42390    1.000
    O28      O        0.30750    0.48770    0.29660    1.000
    O29      O        0.38950    0.43710    0.06580    1.000
    O30      O        0.55840    0.31850    0.23530    1.000
    Co7      Co       0.36760    0.61840    0.79890    1.000
    P7       P        0.63210    0.65540    0.68390    1.000
    O31      O        0.71520    0.77920    0.68870    1.000
    O32      O        0.64210    0.59380    0.57610    1.000
    O33      O        0.48770    0.69250    0.70340    1.000
    O34      O        0.43710    0.61050    0.93420    1.000
    O35      O        0.31850    0.44160    0.76470    1.000
    Co8      Co       0.63240    0.38160    0.79890    1.000
    P8       P        0.36790    0.34460    0.68390    1.000
    O36      O        0.28480    0.22080    0.68870    1.000
    O37      O        0.35790    0.40620    0.57610    1.000
    O38      O        0.51230    0.30750    0.70340    1.000
    O39      O        0.56290    0.38950    0.93420    1.000
    O40      O        0.68150    0.55840    0.76470    1.000
    Co9      Co       0.00000    0.00000    0.00000    1.000
    Co10     Co       0.50000    0.50000    0.50000    1.000
    P9       P        0.00000    0.00000    0.50000    1.000
    P10      P        0.50000    0.50000    0.00000    1.000
