data_functionalizedCrystal
_audit_creation_method	'EQeq! by Chris Wilmer'
_symmetry_space_group_name_H-M	'P1'
_symmetry_Int_Tables_number	1
_symmetry_cell_setting	triclinic
loop_
_symmetry_equiv_pos_as_xyz
  x,y,z
_cell_length_a	10.255
_cell_length_b	10.255
_cell_length_c	14.494
_cell_angle_alpha	90
_cell_angle_beta	90
_cell_angle_gamma	90
loop_
_atom_site_label
_atom_site_type_symbol
_atom_site_fract_x
_atom_site_fract_y
_atom_site_fract_z
_atom_site_charge
Mof_Ho	Ho	0.85022	0.84983	0.70535	2.183
Mof_O 	O 	0.9339	0.6643	0.6408	-0.608
Mof_C 	C 	0.909	0.1831	0.7406	0.606
Mof_C 	C 	0.0447	0.3936	0.504	0.254
Mof_H 	H 	0.0756	0.4387	0.4529	-0.052
Mof_C 	C 	0.0844	0.1827	0.4199	0.588
Mof_O 	O 	0.0943	0.2412	0.3443	-0.584
Mof_C 	C 	0.9582	0.3938	0.6583	0.252
Mof_H 	H 	0.9304	0.4393	0.7102	-0.055
Mof_C 	C 	0.002	0.4618	0.5814	-0.327
Mof_O 	O 	0.0789	0.6629	0.5251	-0.595
Mof_C 	C 	0.9558	0.2595	0.6583	-0.341
Mof_O 	O 	0.1082	0.0652	0.4296	-0.6
Mof_C 	C 	0.0412	0.2604	0.5032	-0.339
Mof_C 	C 	0.0036	0.6105	0.5829	0.603
Mof_C 	C 	0.9978	0.1917	0.5797	0.269
Mof_H 	H 	0.9966	0.101	0.5789	-0.076
Mof_O 	O 	0.9053	0.2388	0.8162	-0.587
Mof_O 	O 	0.8798	0.0679	0.7297	-0.6
Mof_Ho	Ho	0.14978	0.15017	0.20535	2.215
Mof_O 	O 	0.0661	0.3357	0.1408	-0.602
Mof_C 	C 	0.091	0.8169	0.2406	0.618
Mof_C 	C 	0.9553	0.6064	0.004	0.451
Mof_H 	H 	0.9244	0.5613	0.9529	-0.192
Mof_C 	C 	0.9156	0.8173	0.9199	0.49
Mof_O 	O 	0.9057	0.7588	0.8443	-0.571
Mof_C 	C 	0.0418	0.6062	0.1583	0.272
Mof_H 	H 	0.0696	0.5607	0.2102	-0.054
Mof_C 	C 	0.998	0.5382	0.0814	-0.368
Mof_O 	O 	0.9211	0.3371	0.0251	-0.513
Mof_C 	C 	0.0442	0.7405	0.1583	-0.337
Mof_O 	O 	0.8918	0.9348	0.9296	-0.582
Mof_C 	C 	0.9588	0.7396	0.0032	-0.277
Mof_C 	C 	0.9964	0.3895	0.0829	0.628
Mof_C 	C 	0.0022	0.8083	0.0797	0.249
Mof_H 	H 	0.0034	0.899	0.0789	-0.045
Mof_O 	O 	0.0947	0.7612	0.3162	-0.601
Mof_O 	O 	0.1202	0.9321	0.2297	-0.61
Mof_Ho	Ho	0.15017	0.85022	0.45535	2.198
Mof_O 	O 	0.3357	0.9339	0.3908	-0.609
Mof_C 	C 	0.8169	0.909	0.4906	0.609
Mof_C 	C 	0.6064	0.0447	0.254	0.235
Mof_H 	H 	0.5613	0.0756	0.2029	-0.032
Mof_C 	C 	0.8173	0.0844	0.1699	0.565
Mof_O 	O 	0.7588	0.0943	0.0943	-0.505
Mof_C 	C 	0.6062	0.9582	0.4083	0.234
Mof_H 	H 	0.5607	0.9304	0.4602	-0.044
Mof_C 	C 	0.5382	0.002	0.3314	-0.306
Mof_O 	O 	0.3371	0.0789	0.2751	-0.591
Mof_C 	C 	0.7405	0.9558	0.4083	-0.325
Mof_O 	O 	0.9348	0.1082	0.1796	-0.576
Mof_C 	C 	0.7396	0.0412	0.2532	-0.306
Mof_C 	C 	0.3895	0.0036	0.3329	0.606
Mof_C 	C 	0.8083	0.9978	0.3297	0.245
Mof_H 	H 	0.899	0.9966	0.3289	-0.07
Mof_O 	O 	0.7612	0.9053	0.5662	-0.599
Mof_O 	O 	0.9321	0.8798	0.4797	-0.606
Mof_Ho	Ho	0.84983	0.14978	0.95535	1.973
Mof_O 	O 	0.6643	0.0661	0.8908	-0.597
Mof_C 	C 	0.1831	0.091	0.9906	0.458
Mof_C 	C 	0.3936	0.9553	0.754	0.235
Mof_H 	H 	0.4387	0.9244	0.7029	-0.047
Mof_C 	C 	0.1827	0.9156	0.6699	0.579
Mof_O 	O 	0.2412	0.9057	0.5943	-0.583
Mof_C 	C 	0.3938	0.0418	0.9083	0.215
Mof_H 	H 	0.4393	0.0696	0.9602	-0.067
Mof_C 	C 	0.4618	0.998	0.8314	-0.316
Mof_O 	O 	0.6629	0.9211	0.7751	-0.593
Mof_C 	C 	0.2595	0.0442	0.9083	-0.301
Mof_O 	O 	0.0652	0.8918	0.6796	-0.599
Mof_C 	C 	0.2604	0.9588	0.7532	-0.324
Mof_C 	C 	0.6105	0.9964	0.8329	0.586
Mof_C 	C 	0.1917	0.0022	0.8297	0.232
Mof_H 	H 	0.101	0.0034	0.8289	-0.063
Mof_O 	O 	0.2388	0.0947	0.0662	-0.486
Mof_O 	O 	0.0679	0.1202	0.9797	-0.587
_end
