data_functionalizedCrystal
_audit_creation_method	'EQeq! by Chris Wilmer'
_symmetry_space_group_name_H-M	'P1'
_symmetry_Int_Tables_number	1
_symmetry_cell_setting	triclinic
loop_
_symmetry_equiv_pos_as_xyz
  x,y,z
_cell_length_a	12.344
_cell_length_b	26.323
_cell_length_c	15.663
_cell_angle_alpha	90
_cell_angle_beta	97.56
_cell_angle_gamma	90
loop_
_atom_site_label
_atom_site_type_symbol
_atom_site_fract_x
_atom_site_fract_y
_atom_site_fract_z
_atom_site_charge
Mof_Zn	Zn	0.22368	0.24099	0.2212	1.215
Mof_Zn	Zn	0.38279	0.26324	0.40834	1.216
Mof_O 	O 	0.4543	0.2975	0.3219	-0.511
Mof_O 	O 	0.3439	0.28881	0.1974	-0.5
Mof_O 	O 	0.6782	0.45522	0.1008	-0.309
Mof_O 	O 	0.508	0.68171	0.1257	-0.344
Mof_O 	O 	0.6777	0.69478	0.0983	-0.484
Mof_O 	O 	0.2599	0.30981	0.4222	-0.484
Mof_O 	O 	0.1546	0.27811	0.3071	-0.515
Mof_O 	O 	0.8295	0.444	0.4101	-0.299
Mof_O 	O 	0.8895	0.66568	0.2558	-0.348
Mof_O 	O 	0.7279	0.67233	0.301	-0.45
Mof_N 	N 	0.4851	0.2746	0.5167	-0.266
Mof_N 	N 	0.779	0.2636	0.7711	-0.07
Mof_N 	N 	0.8256	0.2617	0.8574	-0.072
Mof_N 	N 	0.1196	0.25945	0.1108	-0.252
Mof_C 	C 	0.4247	0.3078	0.2439	0.453
Mof_C 	C 	0.4913	0.3466	0.2057	-0.232
Mof_C 	C 	0.5665	0.3751	0.2587	0.18
Mof_H 	H 	0.5766	0.3689	0.3189	-0.01
Mof_C 	C 	0.6274	0.4126	0.2249	-0.294
Mof_H 	H 	0.6775	0.4328	0.2616	0.144
Mof_C 	C 	0.6133	0.4199	0.1363	0.316
Mof_C 	C 	0.5401	0.3926	0.0831	-0.3
Mof_H 	H 	0.5323	0.3982	0.0227	0.15
Mof_C 	C 	0.4765	0.3562	0.1173	0.183
Mof_H 	H 	0.4229	0.3378	0.0805	-0.02
Mof_C 	C 	0.6562	0.5062	0.11	0.288
Mof_C 	C 	0.7342	0.539	0.0841	-0.247
Mof_H 	H 	0.7984	0.5261	0.0643	0.131
Mof_C 	C 	0.716	0.591	0.0878	0.136
Mof_H 	H 	0.7681	0.6138	0.0696	0.002
Mof_C 	C 	0.6234	0.6101	0.1174	-0.181
Mof_C 	C 	0.5488	0.5765	0.1429	0.14
Mof_H 	H 	0.4847	0.5894	0.1627	-0.001
Mof_C 	C 	0.5642	0.5244	0.1407	-0.265
Mof_H 	H 	0.5124	0.5018	0.1598	0.128
Mof_C 	C 	0.6	0.6654	0.1153	0.341
Mof_C 	C 	0.1725	0.3086	0.3701	0.434
Mof_C 	C 	0.0839	0.3446	0.3825	-0.215
Mof_C 	C 	0.0906	0.3773	0.4524	0.168
Mof_H 	H 	0.1535	0.3767	0.4944	-0.009
Mof_C 	C 	0.0065	0.4107	0.4614	-0.279
Mof_H 	H 	0.0108	0.4325	0.5101	0.139
Mof_C 	C 	0.9173	0.4122	0.4	0.291
Mof_C 	C 	0.9057	0.3792	0.3299	-0.26
Mof_H 	H 	0.8419	0.38	0.2888	0.134
Mof_C 	C 	0.9899	0.3449	0.3213	0.154
Mof_H 	H 	0.9837	0.3219	0.2742	-0.004
Mof_C 	C 	0.8296	0.4929	0.3753	0.261
Mof_C 	C 	0.7389	0.5219	0.388	-0.231
Mof_H 	H 	0.6827	0.5084	0.4174	0.122
Mof_C 	C 	0.733	0.5715	0.3563	0.113
Mof_H 	H 	0.6721	0.592	0.3649	0.011
Mof_C 	C 	0.8142	0.5918	0.3122	-0.159
Mof_C 	C 	0.9017	0.5607	0.2998	0.12
Mof_H 	H 	0.9572	0.5737	0.2692	0.008
Mof_C 	C 	0.9105	0.5113	0.3306	-0.248
Mof_H 	H 	0.9709	0.4907	0.3212	0.121
Mof_C 	C 	0.8124	0.6461	0.2864	0.335
Mof_C 	C 	0.5868	0.2536	0.5294	0.091
Mof_H 	H 	0.6125	0.2367	0.4824	0.002
Mof_C 	C 	0.6532	0.2555	0.6052	-0.158
Mof_H 	H 	0.7247	0.2415	0.6106	0.097
Mof_C 	C 	0.6143	0.2782	0.6745	0.121
Mof_C 	C 	0.5121	0.3019	0.6633	-0.162
Mof_H 	H 	0.4866	0.3199	0.7093	0.101
Mof_C 	C 	0.4498	0.2985	0.5844	0.085
Mof_H 	H 	0.3792	0.3136	0.577	-0.001
Mof_C 	C 	0.6787	0.2788	0.7621	-0.044
Mof_H 	H 	0.6464	0.2901	0.8105	0.077
Mof_C 	C 	0.9227	0.2763	0.8671	-0.035
Mof_H 	H 	0.9546	0.29	0.8201	0.071
Mof_C 	C 	0.9859	0.272	0.9525	0.108
Mof_C 	C 	0.0935	0.2905	0.9669	-0.155
Mof_H 	H 	0.1235	0.3079	0.9223	0.101
Mof_C 	C 	0.155	0.2833	0.0453	0.091
Mof_H 	H 	0.2274	0.2963	0.0533	-0.004
Mof_C 	C 	0.0157	0.2429	0.0997	0.08
Mof_H 	H 	0.9872	0.2272	0.1466	0.005
Mof_C 	C 	0.9492	0.248	0.0223	-0.141
Mof_H 	H 	0.8769	0.2349	0.0166	0.092
Mof_Zn	Zn	0.77632	0.74099	0.2788	1.216
Mof_Zn	Zn	0.61721	0.76324	0.09166	1.217
Mof_O 	O 	0.5457	0.7975	0.1781	-0.51
Mof_O 	O 	0.6561	0.78881	0.3026	-0.499
Mof_O 	O 	0.3218	0.95522	0.3992	-0.31
Mof_O 	O 	0.492	0.18171	0.3743	-0.344
Mof_O 	O 	0.3223	0.19478	0.4017	-0.484
Mof_O 	O 	0.7401	0.80981	0.0778	-0.484
Mof_O 	O 	0.8454	0.77811	0.1929	-0.513
Mof_O 	O 	0.1705	0.944	0.0899	-0.296
Mof_O 	O 	0.1105	0.16568	0.2442	-0.348
Mof_O 	O 	0.2721	0.17233	0.199	-0.45
Mof_N 	N 	0.5149	0.7746	0.9833	-0.266
Mof_N 	N 	0.221	0.7636	0.7289	-0.07
Mof_N 	N 	0.1744	0.7617	0.6426	-0.07
Mof_N 	N 	0.8804	0.75945	0.3892	-0.255
Mof_C 	C 	0.5753	0.8078	0.2561	0.453
Mof_C 	C 	0.5087	0.8466	0.2943	-0.232
Mof_C 	C 	0.4335	0.8751	0.2413	0.18
Mof_H 	H 	0.4234	0.8689	0.1811	-0.01
Mof_C 	C 	0.3726	0.9126	0.2751	-0.294
Mof_H 	H 	0.3225	0.9328	0.2384	0.144
Mof_C 	C 	0.3867	0.9199	0.3637	0.316
Mof_C 	C 	0.4599	0.8926	0.4169	-0.3
Mof_H 	H 	0.4677	0.8982	0.4773	0.15
Mof_C 	C 	0.5235	0.8562	0.3827	0.183
Mof_H 	H 	0.5771	0.8378	0.4195	-0.02
Mof_C 	C 	0.3438	0.0062	0.39	0.289
Mof_C 	C 	0.2658	0.039	0.4159	-0.247
Mof_H 	H 	0.2016	0.0261	0.4357	0.131
Mof_C 	C 	0.284	0.091	0.4122	0.136
Mof_H 	H 	0.2319	0.1138	0.4304	0.002
Mof_C 	C 	0.3766	0.1101	0.3826	-0.182
Mof_C 	C 	0.4512	0.0765	0.3571	0.14
Mof_H 	H 	0.5153	0.0894	0.3373	-0.001
Mof_C 	C 	0.4358	0.0244	0.3593	-0.266
Mof_H 	H 	0.4876	0.0018	0.3402	0.128
Mof_C 	C 	0.4	0.1654	0.3847	0.341
Mof_C 	C 	0.8275	0.8086	0.1299	0.432
Mof_C 	C 	0.9161	0.8446	0.1175	-0.207
Mof_C 	C 	0.9094	0.8773	0.0476	0.159
Mof_H 	H 	0.8465	0.8767	0.0056	-0.006
Mof_C 	C 	0.9935	0.9107	0.0386	-0.266
Mof_H 	H 	0.9892	0.9325	0.9899	0.134
Mof_C 	C 	0.0827	0.9122	0.1	0.281
Mof_C 	C 	0.0943	0.8792	0.1701	-0.253
Mof_H 	H 	0.1581	0.88	0.2112	0.132
Mof_C 	C 	0.0101	0.8449	0.1787	0.146
Mof_H 	H 	0.0163	0.8219	0.2258	-0.002
Mof_C 	C 	0.1704	0.9929	0.1247	0.255
Mof_C 	C 	0.2611	0.0219	0.112	-0.227
Mof_H 	H 	0.3173	0.0084	0.0826	0.121
Mof_C 	C 	0.267	0.0715	0.1437	0.11
Mof_H 	H 	0.3279	0.092	0.1351	0.012
Mof_C 	C 	0.1858	0.0918	0.1878	-0.157
Mof_C 	C 	0.0983	0.0607	0.2002	0.116
Mof_H 	H 	0.0428	0.0737	0.2308	0.009
Mof_C 	C 	0.0895	0.0113	0.1694	-0.241
Mof_H 	H 	0.0291	0.9907	0.1788	0.118
Mof_C 	C 	0.1876	0.1461	0.2136	0.334
Mof_C 	C 	0.4132	0.7536	0.9706	0.093
Mof_H 	H 	0.3875	0.7367	0.0176	0.001
Mof_C 	C 	0.3468	0.7555	0.8948	-0.159
Mof_H 	H 	0.2753	0.7415	0.8894	0.097
Mof_C 	C 	0.3857	0.7782	0.8255	0.121
Mof_C 	C 	0.4879	0.8019	0.8367	-0.163
Mof_H 	H 	0.5134	0.8199	0.7907	0.101
Mof_C 	C 	0.5502	0.7985	0.9156	0.085
Mof_H 	H 	0.6208	0.8136	0.923	-0.001
Mof_C 	C 	0.3213	0.7788	0.7379	-0.044
Mof_H 	H 	0.3536	0.7901	0.6895	0.078
Mof_C 	C 	0.0773	0.7763	0.6329	-0.039
Mof_H 	H 	0.0454	0.79	0.6799	0.073
Mof_C 	C 	0.0141	0.772	0.5475	0.119
Mof_C 	C 	0.9065	0.7905	0.5331	-0.165
Mof_H 	H 	0.8765	0.8079	0.5777	0.104
Mof_C 	C 	0.845	0.7833	0.4547	0.098
Mof_H 	H 	0.7726	0.7963	0.4467	-0.006
Mof_C 	C 	0.9843	0.7429	0.4003	0.091
Mof_H 	H 	0.0128	0.7272	0.3534	0
Mof_C 	C 	0.0508	0.748	0.4777	-0.153
Mof_H 	H 	0.1231	0.7349	0.4834	0.095
Mof_Zn	Zn	0.77632	0.75901	0.7788	1.216
Mof_Zn	Zn	0.61721	0.73676	0.59166	1.217
Mof_O 	O 	0.5457	0.7025	0.6781	-0.51
Mof_O 	O 	0.6561	0.71119	0.8026	-0.499
Mof_O 	O 	0.3218	0.54478	0.8992	-0.309
Mof_O 	O 	0.492	0.31829	0.8743	-0.344
Mof_O 	O 	0.3223	0.30522	0.9017	-0.484
Mof_O 	O 	0.7401	0.69019	0.5778	-0.484
Mof_O 	O 	0.8454	0.72189	0.6929	-0.515
Mof_O 	O 	0.1705	0.556	0.5899	-0.299
Mof_O 	O 	0.1105	0.33432	0.7442	-0.348
Mof_O 	O 	0.2721	0.32767	0.699	-0.45
Mof_N 	N 	0.5149	0.7254	0.4833	-0.266
Mof_N 	N 	0.221	0.7364	0.2289	-0.07
Mof_N 	N 	0.1744	0.7383	0.1426	-0.072
Mof_N 	N 	0.8804	0.74055	0.8892	-0.252
Mof_C 	C 	0.5753	0.6922	0.7561	0.453
Mof_C 	C 	0.5087	0.6534	0.7943	-0.232
Mof_C 	C 	0.4335	0.6249	0.7413	0.18
Mof_H 	H 	0.4234	0.6311	0.6811	-0.01
Mof_C 	C 	0.3726	0.5874	0.7751	-0.294
Mof_H 	H 	0.3225	0.5672	0.7384	0.144
Mof_C 	C 	0.3867	0.5801	0.8637	0.316
Mof_C 	C 	0.4599	0.6074	0.9169	-0.3
Mof_H 	H 	0.4677	0.6018	0.9773	0.15
Mof_C 	C 	0.5235	0.6438	0.8827	0.183
Mof_H 	H 	0.5771	0.6622	0.9195	-0.02
Mof_C 	C 	0.3438	0.4938	0.89	0.288
Mof_C 	C 	0.2658	0.461	0.9159	-0.247
Mof_H 	H 	0.2016	0.4739	0.9357	0.131
Mof_C 	C 	0.284	0.409	0.9122	0.136
Mof_H 	H 	0.2319	0.3862	0.9304	0.002
Mof_C 	C 	0.3766	0.3899	0.8826	-0.181
Mof_C 	C 	0.4512	0.4235	0.8571	0.14
Mof_H 	H 	0.5153	0.4106	0.8373	-0.001
Mof_C 	C 	0.4358	0.4756	0.8593	-0.265
Mof_H 	H 	0.4876	0.4982	0.8402	0.128
Mof_C 	C 	0.4	0.3346	0.8847	0.341
Mof_C 	C 	0.8275	0.6914	0.6299	0.434
Mof_C 	C 	0.9161	0.6554	0.6175	-0.215
Mof_C 	C 	0.9094	0.6227	0.5476	0.168
Mof_H 	H 	0.8465	0.6233	0.5056	-0.009
Mof_C 	C 	0.9935	0.5893	0.5386	-0.279
Mof_H 	H 	0.9892	0.5675	0.4899	0.139
Mof_C 	C 	0.0827	0.5878	0.6	0.291
Mof_C 	C 	0.0943	0.6208	0.6701	-0.26
Mof_H 	H 	0.1581	0.62	0.7112	0.134
Mof_C 	C 	0.0101	0.6551	0.6787	0.154
Mof_H 	H 	0.0163	0.6781	0.7258	-0.004
Mof_C 	C 	0.1704	0.5071	0.6247	0.261
Mof_C 	C 	0.2611	0.4781	0.612	-0.231
Mof_H 	H 	0.3173	0.4916	0.5826	0.122
Mof_C 	C 	0.267	0.4285	0.6437	0.113
Mof_H 	H 	0.3279	0.408	0.6351	0.011
Mof_C 	C 	0.1858	0.4082	0.6878	-0.159
Mof_C 	C 	0.0983	0.4393	0.7002	0.12
Mof_H 	H 	0.0428	0.4263	0.7308	0.008
Mof_C 	C 	0.0895	0.4887	0.6694	-0.248
Mof_H 	H 	0.0291	0.5093	0.6788	0.121
Mof_C 	C 	0.1876	0.3539	0.7136	0.335
Mof_C 	C 	0.4132	0.7464	0.4706	0.091
Mof_H 	H 	0.3875	0.7633	0.5176	0.002
Mof_C 	C 	0.3468	0.7445	0.3948	-0.158
Mof_H 	H 	0.2753	0.7585	0.3894	0.097
Mof_C 	C 	0.3857	0.7218	0.3255	0.121
Mof_C 	C 	0.4879	0.6981	0.3367	-0.162
Mof_H 	H 	0.5134	0.6801	0.2907	0.101
Mof_C 	C 	0.5502	0.7015	0.4156	0.085
Mof_H 	H 	0.6208	0.6864	0.423	-0.001
Mof_C 	C 	0.3213	0.7212	0.2379	-0.044
Mof_H 	H 	0.3536	0.7099	0.1895	0.077
Mof_C 	C 	0.0773	0.7237	0.1329	-0.035
Mof_H 	H 	0.0454	0.71	0.1799	0.071
Mof_C 	C 	0.0141	0.728	0.0475	0.108
Mof_C 	C 	0.9065	0.7095	0.0331	-0.155
Mof_H 	H 	0.8765	0.6921	0.0777	0.101
Mof_C 	C 	0.845	0.7167	0.9547	0.091
Mof_H 	H 	0.7726	0.7037	0.9467	-0.004
Mof_C 	C 	0.9843	0.7571	0.9003	0.08
Mof_H 	H 	0.0128	0.7728	0.8534	0.005
Mof_C 	C 	0.0508	0.752	0.9777	-0.141
Mof_H 	H 	0.1231	0.7651	0.9834	0.092
Mof_Zn	Zn	0.22368	0.25901	0.7212	1.216
Mof_Zn	Zn	0.38279	0.23676	0.90834	1.217
Mof_O 	O 	0.4543	0.2025	0.8219	-0.51
Mof_O 	O 	0.3439	0.21119	0.6974	-0.499
Mof_O 	O 	0.6782	0.04478	0.6008	-0.31
Mof_O 	O 	0.508	0.81829	0.6257	-0.344
Mof_O 	O 	0.6777	0.80522	0.5983	-0.484
Mof_O 	O 	0.2599	0.19019	0.9222	-0.484
Mof_O 	O 	0.1546	0.22189	0.8071	-0.513
Mof_O 	O 	0.8295	0.056	0.9101	-0.296
Mof_O 	O 	0.8895	0.83432	0.7558	-0.348
Mof_O 	O 	0.7279	0.82767	0.801	-0.45
Mof_N 	N 	0.4851	0.2254	0.0167	-0.266
Mof_N 	N 	0.779	0.2364	0.2711	-0.07
Mof_N 	N 	0.8256	0.2383	0.3574	-0.07
Mof_N 	N 	0.1196	0.24055	0.6108	-0.255
Mof_C 	C 	0.4247	0.1922	0.7439	0.453
Mof_C 	C 	0.4913	0.1534	0.7057	-0.232
Mof_C 	C 	0.5665	0.1249	0.7587	0.18
Mof_H 	H 	0.5766	0.1311	0.8189	-0.01
Mof_C 	C 	0.6274	0.0874	0.7249	-0.294
Mof_H 	H 	0.6775	0.0672	0.7616	0.144
Mof_C 	C 	0.6133	0.0801	0.6363	0.316
Mof_C 	C 	0.5401	0.1074	0.5831	-0.3
Mof_H 	H 	0.5323	0.1018	0.5227	0.15
Mof_C 	C 	0.4765	0.1438	0.6173	0.183
Mof_H 	H 	0.4229	0.1622	0.5805	-0.02
Mof_C 	C 	0.6562	0.9938	0.61	0.289
Mof_C 	C 	0.7342	0.961	0.5841	-0.247
Mof_H 	H 	0.7984	0.9739	0.5643	0.131
Mof_C 	C 	0.716	0.909	0.5878	0.136
Mof_H 	H 	0.7681	0.8862	0.5696	0.002
Mof_C 	C 	0.6234	0.8899	0.6174	-0.182
Mof_C 	C 	0.5488	0.9235	0.6429	0.14
Mof_H 	H 	0.4847	0.9106	0.6627	-0.001
Mof_C 	C 	0.5642	0.9756	0.6407	-0.266
Mof_H 	H 	0.5124	0.9982	0.6598	0.128
Mof_C 	C 	0.6	0.8346	0.6153	0.341
Mof_C 	C 	0.1725	0.1914	0.8701	0.432
Mof_C 	C 	0.0839	0.1554	0.8825	-0.207
Mof_C 	C 	0.0906	0.1227	0.9524	0.159
Mof_H 	H 	0.1535	0.1233	0.9944	-0.006
Mof_C 	C 	0.0065	0.0893	0.9614	-0.266
Mof_H 	H 	0.0108	0.0675	0.0101	0.134
Mof_C 	C 	0.9173	0.0878	0.9	0.281
Mof_C 	C 	0.9057	0.1208	0.8299	-0.253
Mof_H 	H 	0.8419	0.12	0.7888	0.132
Mof_C 	C 	0.9899	0.1551	0.8213	0.146
Mof_H 	H 	0.9837	0.1781	0.7742	-0.002
Mof_C 	C 	0.8296	0.0071	0.8753	0.255
Mof_C 	C 	0.7389	0.9781	0.888	-0.227
Mof_H 	H 	0.6827	0.9916	0.9174	0.121
Mof_C 	C 	0.733	0.9285	0.8563	0.11
Mof_H 	H 	0.6721	0.908	0.8649	0.012
Mof_C 	C 	0.8142	0.9082	0.8122	-0.157
Mof_C 	C 	0.9017	0.9393	0.7998	0.116
Mof_H 	H 	0.9572	0.9263	0.7692	0.009
Mof_C 	C 	0.9105	0.9887	0.8306	-0.241
Mof_H 	H 	0.9709	0.0093	0.8212	0.118
Mof_C 	C 	0.8124	0.8539	0.7864	0.334
Mof_C 	C 	0.5868	0.2464	0.0294	0.093
Mof_H 	H 	0.6125	0.2633	0.9824	0.001
Mof_C 	C 	0.6532	0.2445	0.1052	-0.159
Mof_H 	H 	0.7247	0.2585	0.1106	0.097
Mof_C 	C 	0.6143	0.2218	0.1745	0.121
Mof_C 	C 	0.5121	0.1981	0.1633	-0.163
Mof_H 	H 	0.4866	0.1801	0.2093	0.101
Mof_C 	C 	0.4498	0.2015	0.0844	0.085
Mof_H 	H 	0.3792	0.1864	0.077	-0.001
Mof_C 	C 	0.6787	0.2212	0.2621	-0.044
Mof_H 	H 	0.6464	0.2099	0.3105	0.078
Mof_C 	C 	0.9227	0.2237	0.3671	-0.039
Mof_H 	H 	0.9546	0.21	0.3201	0.073
Mof_C 	C 	0.9859	0.228	0.4525	0.119
Mof_C 	C 	0.0935	0.2095	0.4669	-0.165
Mof_H 	H 	0.1235	0.1921	0.4223	0.104
Mof_C 	C 	0.155	0.2167	0.5453	0.098
Mof_H 	H 	0.2274	0.2037	0.5533	-0.006
Mof_C 	C 	0.0157	0.2571	0.5997	0.091
Mof_H 	H 	0.9872	0.2728	0.6466	0
Mof_C 	C 	0.9492	0.252	0.5223	-0.153
Mof_H 	H 	0.8769	0.2651	0.5166	0.095
_end
