# CIF file generated by openbabel 3.1.0, see https://openbabel.org
data_I
_chemical_name_common 'image0'
_cell_length_a 9.749
_cell_length_b 10.658
_cell_length_c 16.414
_cell_angle_alpha 74.83
_cell_angle_beta 82.72
_cell_angle_gamma 63.98
_space_group_name_H-M_alt 'P 1'
_space_group_name_Hall 'P 1'
loop_
    _symmetry_equiv_pos_as_xyz
    x,y,z
loop_
    _atom_site_label
    _atom_site_type_symbol
    _atom_site_fract_x
    _atom_site_fract_y
    _atom_site_fract_z
    _atom_site_occupancy
    La1      La       0.87616    0.03108    0.12561    1.000
    La2      La       0.62951    0.98236    0.37590    1.000
    O1       O        0.41480    0.10690    0.26550    1.000
    O2       O        0.62730    0.10110    0.20280    1.000
    O3       O        0.09410    0.87160    0.04680    1.000
    O4       O        0.27290    0.72710    0.97690    1.000
    O5       O        0.71140    0.80000    0.29180    1.000
    O6       O        0.86440    0.79240    0.17910    1.000
    O7       O        0.70800    0.12640    0.46070    1.000
    O8       O        0.62260    0.23710    0.33280    1.000
    O9       O        0.88540    0.95140    0.31410    1.000
    O10      O        0.09010    0.89010    0.23450    1.000
    O11      O        0.20120    0.25410    0.52450    1.000
    O12      O        0.39290    0.12520    0.45380    1.000
    O13      O        0.08170    0.13240    0.09220    1.000
    C1       C        0.48530    0.14270    0.20110    1.000
    C2       C        0.39800    0.24070    0.12220    1.000
    H1       H        0.46860    0.24390    0.07530    1.000
    H2       H        0.33050    0.20450    0.10820    1.000
    C3       C        0.30720    0.38730    0.13720    1.000
    H3       H        0.21390    0.40530    0.16530    1.000
    C4       C        0.34850    0.49150    0.11400    1.000
    H4       H        0.44310    0.47270    0.08730    1.000
    C5       C        0.25570    0.64030    0.12700    1.000
    H5       H        0.16640    0.64240    0.16120    1.000
    H6       H        0.31590    0.66450    0.15780    1.000
    C6       C        0.20540    0.75110    0.04570    1.000
    C7       C        0.80380    0.73610    0.24230    1.000
    C8       C        0.84300    0.58020    0.25160    1.000
    H7       H        0.80360    0.57070    0.20320    1.000
    H8       H        0.95320    0.52820    0.25000    1.000
    C9       C        0.78390    0.51040    0.32970    1.000
    H9       H        0.82950    0.49960    0.37900    1.000
    C10      C        0.68770    0.46540    0.34040    1.000
    H10      H        0.63290    0.48740    0.29220    1.000
    C11      C        0.64010    0.38080    0.41680    1.000
    H11      H        0.53400    0.43600    0.43030    1.000
    H12      H        0.70120    0.36290    0.46430    1.000
    C12      C        0.65910    0.23990    0.40270    1.000
    C13      C        0.02420    0.87620    0.30580    1.000
    C14      C        0.11610    0.76590    0.37910    1.000
    H13      H        0.04930    0.76370    0.42800    1.000
    H14      H        0.19190    0.79330    0.39220    1.000
    C15      C        0.19540    0.61790    0.36190    1.000
    H15      H        0.27550    0.60080    0.32280    1.000
    C16      C        0.15860    0.51230    0.39860    1.000
    H16      H        0.07940    0.52940    0.43820    1.000
    C17      C        0.23540    0.36460    0.38110    1.000
    H17      H        0.16820    0.35490    0.34680    1.000
    H18      H        0.32770    0.35620    0.34820    1.000
    C18      C        0.27650    0.24300    0.45800    1.000
    H19      H        0.03700    0.20700    0.05700    1.000
    H20      H        0.13300    0.06800    0.06700    1.000
    La3      La       0.12384    0.96892    0.87439    1.000
    La4      La       0.37049    0.01764    0.62410    1.000
    O14      O        0.58520    0.89310    0.73450    1.000
    O15      O        0.37270    0.89890    0.79720    1.000
    O16      O        0.90590    0.12840    0.95320    1.000
    O17      O        0.72710    0.27290    0.02310    1.000
    O18      O        0.28860    0.20000    0.70820    1.000
    O19      O        0.13560    0.20760    0.82090    1.000
    O20      O        0.29200    0.87360    0.53930    1.000
    O21      O        0.37740    0.76290    0.66720    1.000
    O22      O        0.11460    0.04860    0.68590    1.000
    O23      O        0.90990    0.10990    0.76550    1.000
    O24      O        0.79880    0.74590    0.47550    1.000
    O25      O        0.60710    0.87480    0.54620    1.000
    O26      O        0.91830    0.86760    0.90780    1.000
    C19      C        0.51470    0.85730    0.79890    1.000
    C20      C        0.60200    0.75930    0.87780    1.000
    H21      H        0.53140    0.75610    0.92470    1.000
    H22      H        0.66950    0.79550    0.89180    1.000
    C21      C        0.69280    0.61270    0.86280    1.000
    H23      H        0.78610    0.59470    0.83470    1.000
    C22      C        0.65150    0.50850    0.88600    1.000
    H24      H        0.55690    0.52730    0.91270    1.000
    C23      C        0.74430    0.35970    0.87300    1.000
    H25      H        0.83360    0.35760    0.83880    1.000
    H26      H        0.68410    0.33550    0.84220    1.000
    C24      C        0.79460    0.24890    0.95430    1.000
    C25      C        0.19620    0.26390    0.75770    1.000
    C26      C        0.15700    0.41980    0.74840    1.000
    H27      H        0.19640    0.42930    0.79680    1.000
    H28      H        0.04680    0.47180    0.75000    1.000
    C27      C        0.21610    0.48960    0.67030    1.000
    H29      H        0.17050    0.50040    0.62100    1.000
    C28      C        0.31230    0.53460    0.65960    1.000
    H30      H        0.36710    0.51260    0.70780    1.000
    C29      C        0.35990    0.61920    0.58320    1.000
    H31      H        0.46600    0.56400    0.56970    1.000
    H32      H        0.29880    0.63710    0.53570    1.000
    C30      C        0.34090    0.76010    0.59730    1.000
    C31      C        0.97580    0.12380    0.69420    1.000
    C32      C        0.88390    0.23410    0.62090    1.000
    H33      H        0.95070    0.23630    0.57200    1.000
    H34      H        0.80810    0.20670    0.60780    1.000
    C33      C        0.80460    0.38210    0.63810    1.000
    H35      H        0.72450    0.39920    0.67720    1.000
    C34      C        0.84140    0.48770    0.60140    1.000
    H36      H        0.92060    0.47060    0.56180    1.000
    C35      C        0.76460    0.63540    0.61890    1.000
    H37      H        0.83180    0.64510    0.65320    1.000
    H38      H        0.67230    0.64380    0.65180    1.000
    C36      C        0.72350    0.75700    0.54200    1.000
    H39      H        0.96300    0.79300    0.94300    1.000
    H40      H        0.86700    0.93200    0.93300    1.000
