data_functionalizedCrystal
_audit_creation_method	'EQeq! by Chris Wilmer'
_symmetry_space_group_name_H-M	'P1'
_symmetry_Int_Tables_number	1
_symmetry_cell_setting	triclinic
loop_
_symmetry_equiv_pos_as_xyz
  x,y,z
_cell_length_a	11.565
_cell_length_b	17.7233
_cell_length_c	17.7233
_cell_angle_alpha	83.8894
_cell_angle_beta	70.9578
_cell_angle_gamma	70.9577
loop_
_atom_site_label
_atom_site_type_symbol
_atom_site_fract_x
_atom_site_fract_y
_atom_site_fract_z
_atom_site_charge
Mof_Co	Co	0.5774	0.2252	0.6708	1.195
Mof_Co	Co	0.4577	0.4122	0.6676	1.187
Mof_Co	Co	0.9734	0.2748	0.8292	1.223
Mof_Co	Co	0.0375	0.0878	0.8324	1.149
Mof_Co	Co	0.2482	0.3292	0.7252	1.194
Mof_Co	Co	0.1253	0.3324	0.9122	1.187
Mof_Co	Co	0.8026	0.1708	0.7748	1.193
Mof_Co	Co	0.8699	0.1676	0.5878	1.197
Mof_Co	Co	0.4226	0.7748	0.3292	1.196
Mof_Co	Co	0.5423	0.5878	0.3324	1.188
Mof_Co	Co	0.0266	0.7252	0.1708	1.174
Mof_Co	Co	0.9625	0.9122	0.1676	1.214
Mof_Co	Co	0.7518	0.6708	0.2748	1.197
Mof_Co	Co	0.8747	0.6676	0.0878	1.187
Mof_Co	Co	0.1974	0.8292	0.2252	1.198
Mof_Co	Co	0.1301	0.8324	0.4122	1.182
Mof_Co	Co	0.5	0.5	0.5	1.193
Mof_Co	Co	-0	0	-0	1.136
Mof_Co	Co	-0	0.5	-0	1.153
Mof_Co	Co	-2.97754e-17	0	0.5	1.146
Mof_H 	H 	0.4288	0.307	0.6004	0.278
Mof_H 	H 	0.489	0.3902	0.9048	0.388
Mof_H 	H 	0.6105	0.4126	0.8498	0.399
Mof_H 	H 	0.4845	0.44	0.8264	0.386
Mof_H 	H 	0.1136	0.5536	0.5534	0.303
Mof_H 	H 	0.2375	0.5115	0.4857	0.329
Mof_H 	H 	0.1311	0.4695	0.5227	0.314
Mof_H 	H 	0.8502	0.2965	0.4315	0.394
Mof_H 	H 	0.7361	0.2761	0.4199	0.379
Mof_H 	H 	0.7383	0.3647	0.4107	0.391
Mof_H 	H 	0.602	0.5996	0.7158	0.337
Mof_H 	H 	0.4762	0.6626	0.7082	0.326
Mof_H 	H 	0.6054	0.6516	0.638	0.341
Mof_H 	H 	0.8362	0.193	0.8996	0.287
Mof_H 	H 	0.284	0.1098	0.5952	0.36
Mof_H 	H 	0.3729	0.0874	0.6502	0.376
Mof_H 	H 	0.2509	0.06	0.6736	0.355
Mof_H 	H 	0.7206	0.9464	0.9466	0.183
Mof_H 	H 	0.7347	0.9885	0.0143	0.16
Mof_H 	H 	0.6233	0.0305	0.9773	0.151
Mof_H 	H 	0.0782	0.2035	0.0685	0.455
Mof_H 	H 	0.9321	0.2239	0.0801	0.5
Mof_H 	H 	0.0137	0.1353	0.0893	0.456
Mof_H 	H 	0.4174	0.9004	0.7842	0.343
Mof_H 	H 	0.347	0.8374	0.7918	0.328
Mof_H 	H 	0.395	0.8484	0.862	0.346
Mof_H 	H 	0.0292	0.3996	0.807	0.262
Mof_H 	H 	0.3938	0.0952	0.8902	0.371
Mof_H 	H 	0.4603	0.1502	0.9126	0.398
Mof_H 	H 	0.3109	0.1736	0.94	0.384
Mof_H 	H 	0.667	0.4466	0.0536	0.409
Mof_H 	H 	0.7232	0.5143	0.0115	0.421
Mof_H 	H 	0.6538	0.4773	0.9695	0.452
Mof_H 	H 	0.2817	0.5685	0.7965	0.369
Mof_H 	H 	0.156	0.5801	0.7761	0.357
Mof_H 	H 	0.149	0.5893	0.8647	0.374
Mof_H 	H 	0.3178	0.2842	0.0996	0.311
Mof_H 	H 	0.1844	0.2918	0.1626	0.295
Mof_H 	H 	0.2434	0.362	0.1516	0.317
Mof_H 	H 	0.7358	0.1004	0.693	0.278
Mof_H 	H 	0.8792	0.4048	0.6098	0.294
Mof_H 	H 	0.0231	0.3498	0.5874	0.262
Mof_H 	H 	0.9245	0.3264	0.56	0.303
Mof_H 	H 	0.6672	0.0534	0.4464	0.364
Mof_H 	H 	0.749	0.9857	0.4885	0.417
Mof_H 	H 	0.6006	0.0227	0.5305	0.37
Mof_H 	H 	0.1467	0.9315	0.7035	0.262
Mof_H 	H 	0.0122	0.9199	0.7239	0.249
Mof_H 	H 	0.103	0.9107	0.6353	0.262
Mof_H 	H 	0.2016	0.2158	0.4004	0.316
Mof_H 	H 	0.1388	0.2082	0.3374	0.296
Mof_H 	H 	0.257	0.138	0.3484	0.318
Mof_H 	H 	0.5712	0.693	0.3996	0.279
Mof_H 	H 	0.511	0.6098	0.0952	0.359
Mof_H 	H 	0.3895	0.5874	0.1502	0.382
Mof_H 	H 	0.5155	0.56	0.1736	0.368
Mof_H 	H 	0.8864	0.4464	0.4466	0.349
Mof_H 	H 	0.7625	0.4885	0.5143	0.358
Mof_H 	H 	0.8689	0.5305	0.4773	0.354
Mof_H 	H 	0.1498	0.7035	0.5685	0.351
Mof_H 	H 	0.2639	0.7239	0.5801	0.361
Mof_H 	H 	0.2617	0.6353	0.5893	0.37
Mof_H 	H 	0.398	0.4004	0.2842	0.32
Mof_H 	H 	0.5238	0.3374	0.2918	0.312
Mof_H 	H 	0.3946	0.3484	0.362	0.326
Mof_H 	H 	0.1638	0.807	0.1004	0.271
Mof_H 	H 	0.716	0.8902	0.4048	0.387
Mof_H 	H 	0.6271	0.9126	0.3498	0.405
Mof_H 	H 	0.7491	0.94	0.3264	0.394
Mof_H 	H 	0.2794	0.0536	0.0534	0.432
Mof_H 	H 	0.2653	0.0115	0.9857	0.472
Mof_H 	H 	0.3767	0.9695	0.0227	0.473
Mof_H 	H 	0.9218	0.7965	0.9315	0.281
Mof_H 	H 	0.0679	0.7761	0.9199	0.234
Mof_H 	H 	0.9863	0.8647	0.9107	0.296
Mof_H 	H 	0.5826	0.0996	0.2158	0.315
Mof_H 	H 	0.653	0.1626	0.2082	0.309
Mof_H 	H 	0.605	0.1516	0.138	0.321
Mof_H 	H 	0.9708	0.6004	0.193	0.294
Mof_H 	H 	0.6062	0.9048	0.1098	0.376
Mof_H 	H 	0.5397	0.8498	0.0874	0.381
Mof_H 	H 	0.6891	0.8264	0.06	0.367
Mof_H 	H 	0.333	0.5534	0.9464	0.247
Mof_H 	H 	0.2768	0.4857	0.9885	0.268
Mof_H 	H 	0.3462	0.5227	0.0305	0.22
Mof_H 	H 	0.7183	0.4315	0.2035	0.371
Mof_H 	H 	0.844	0.4199	0.2239	0.38
Mof_H 	H 	0.851	0.4107	0.1353	0.385
Mof_H 	H 	0.6822	0.7158	0.9004	0.345
Mof_H 	H 	0.8156	0.7082	0.8374	0.341
Mof_H 	H 	0.7566	0.638	0.8484	0.348
Mof_H 	H 	0.2642	0.8996	0.307	0.282
Mof_H 	H 	0.1208	0.5952	0.3902	0.444
Mof_H 	H 	0.9769	0.6502	0.4126	0.504
Mof_H 	H 	0.0755	0.6736	0.44	0.443
Mof_H 	H 	0.3328	0.9466	0.5536	0.275
Mof_H 	H 	0.251	0.0143	0.5115	0.248
Mof_H 	H 	0.3994	0.9773	0.4695	0.282
Mof_H 	H 	0.8533	0.0685	0.2965	0.442
Mof_H 	H 	0.9878	0.0801	0.2761	0.454
Mof_H 	H 	0.897	0.0893	0.3647	0.462
Mof_H 	H 	0.7984	0.7842	0.5996	0.34
Mof_H 	H 	0.8612	0.7918	0.6626	0.34
Mof_H 	H 	0.743	0.862	0.6516	0.349
Mof_C 	C 	0.5826	0.3219	0.8033	0.733
Mof_C 	C 	0.5378	0.3978	0.8506	-1.255
Mof_C 	C 	0.2395	0.462	0.595	0.639
Mof_C 	C 	0.1747	0.5027	0.5339	-1.094
Mof_C 	C 	0.6872	0.3282	0.5274	0.736
Mof_C 	C 	0.7594	0.3158	0.4394	-1.283
Mof_C 	C 	0.5235	0.5632	0.6458	0.675
Mof_C 	C 	0.5551	0.6247	0.6791	-1.147
Mof_C 	C 	0.2078	0.1781	0.6967	0.713
Mof_C 	C 	0.2862	0.1022	0.6494	-1.209
Mof_C 	C 	0.7965	0.038	0.905	0.463
Mof_C 	C 	0.7113	0.9973	0.9661	-0.564
Mof_C 	C 	0.0428	0.1718	0.9726	0.839
Mof_C 	C 	0.0146	0.1842	0.0606	-1.605
Mof_C 	C 	0.2325	0.9368	0.8542	0.671
Mof_C 	C 	0.3589	0.8753	0.8209	-1.146
Mof_C 	C 	0.3859	0.1967	0.8219	0.728
Mof_C 	C 	0.3884	0.1494	0.8978	-1.245
Mof_C 	C 	0.8345	0.405	0.962	0.765
Mof_C 	C 	0.7086	0.4661	0.0027	-1.437
Mof_C 	C 	0.2146	0.4726	0.8282	0.716
Mof_C 	C 	0.1988	0.5606	0.8158	-1.239
Mof_C 	C 	0.1693	0.3542	0.0632	0.653
Mof_C 	C 	0.2342	0.3209	0.1247	-1.102
Mof_C 	C 	0.9045	0.3033	0.6781	0.647
Mof_C 	C 	0.9356	0.3506	0.6022	-0.936
Mof_C 	C 	0.7015	0.095	0.538	0.69
Mof_C 	C 	0.6774	0.0339	0.4973	-1.285
Mof_C 	C 	0.0154	0.0274	0.6718	0.416
Mof_C 	C 	0.0752	0.9394	0.6842	-0.863
Mof_C 	C 	0.0867	0.1458	0.4368	0.659
Mof_C 	C 	0.1798	0.1791	0.3753	-1.109
Mof_C 	C 	0.4174	0.6781	0.1967	0.718
Mof_C 	C 	0.4622	0.6022	0.1494	-1.217
Mof_C 	C 	0.7605	0.538	0.405	0.664
Mof_C 	C 	0.8253	0.4973	0.4661	-1.164
Mof_C 	C 	0.3128	0.6718	0.4726	0.713
Mof_C 	C 	0.2406	0.6842	0.5606	-1.228
Mof_C 	C 	0.4765	0.4368	0.3542	0.663
Mof_C 	C 	0.4449	0.3753	0.3209	-1.118
Mof_C 	C 	0.7922	0.8219	0.3033	0.736
Mof_C 	C 	0.7138	0.8978	0.3506	-1.261
Mof_C 	C 	0.2035	0.962	0.095	0.793
Mof_C 	C 	0.2887	0.0027	0.0339	-1.55
Mof_C 	C 	0.9572	0.8282	0.0274	0.584
Mof_C 	C 	0.9854	0.8158	0.9394	-0.871
Mof_C 	C 	0.7675	0.0632	0.1458	0.661
Mof_C 	C 	0.6411	0.1247	0.1791	-1.111
Mof_C 	C 	0.6141	0.8033	0.1781	0.721
Mof_C 	C 	0.6116	0.8506	0.1022	-1.223
Mof_C 	C 	0.1655	0.595	0.038	0.541
Mof_C 	C 	0.2914	0.5339	0.9973	-0.833
Mof_C 	C 	0.7854	0.5274	0.1718	0.728
Mof_C 	C 	0.8012	0.4394	0.1842	-1.262
Mof_C 	C 	0.8307	0.6458	0.9368	0.678
Mof_C 	C 	0.7658	0.6791	0.8753	-1.156
Mof_C 	C 	0.0955	0.6967	0.3219	0.796
Mof_C 	C 	0.0644	0.6494	0.3978	-1.501
Mof_C 	C 	0.2985	0.905	0.462	0.595
Mof_C 	C 	0.3226	0.9661	0.5027	-0.914
Mof_C 	C 	0.9846	0.9726	0.3282	0.925
Mof_C 	C 	0.9248	0.0606	0.3158	-1.504
Mof_C 	C 	0.9133	0.8542	0.5632	0.676
Mof_C 	C 	0.8202	0.8209	0.6247	-1.153
Mof_O 	O 	0.4276	0.3096	0.6482	-0.792
Mof_O 	O 	0.5637	0.3261	0.7357	-0.625
Mof_O 	O 	0.1839	0.4185	0.6437	-0.528
Mof_O 	O 	0.3433	0.4748	0.5946	-0.619
Mof_O 	O 	0.7146	0.271	0.574	-0.629
Mof_O 	O 	0.6032	0.3942	0.5518	-0.643
Mof_O 	O 	0.5017	0.5064	0.6912	-0.574
Mof_O 	O 	0.5254	0.569	0.574	-0.561
Mof_O 	O 	0.6347	0.2579	0.8317	-0.557
Mof_O 	O 	0.8854	0.1904	0.8518	-0.774
Mof_O 	O 	0.1255	0.1739	0.7643	-0.647
Mof_O 	O 	0.7461	0.0815	0.8563	-0.47
Mof_O 	O 	0.9127	0.0252	0.9054	-0.539
Mof_O 	O 	0.0596	0.229	0.926	-0.682
Mof_O 	O 	0.0492	0.1058	0.9482	-0.693
Mof_O 	O 	0.1993	0.9936	0.8088	-0.545
Mof_O 	O 	0.1684	0.931	0.926	-0.536
Mof_O 	O 	0.2243	0.2421	0.6683	-0.561
Mof_O 	O 	0.0758	0.3518	0.8096	-0.807
Mof_O 	O 	0.2994	0.2643	0.8261	-0.622
Mof_O 	O 	0.8276	0.3563	0.9185	-0.539
Mof_O 	O 	0.9379	0.4054	0.9748	-0.597
Mof_O 	O 	0.2886	0.426	0.771	-0.628
Mof_O 	O 	0.155	0.4482	0.8942	-0.634
Mof_O 	O 	0.1929	0.3088	0.0064	-0.6
Mof_O 	O 	0.0994	0.426	0.069	-0.579
Mof_O 	O 	0.4664	0.1683	0.7579	-0.561
Mof_O 	O 	0.7372	0.1482	0.6904	-0.793
Mof_O 	O 	0.8898	0.2357	0.6739	-0.589
Mof_O 	O 	0.6024	0.1437	0.5815	-0.538
Mof_O 	O 	0.8181	0.0946	0.5252	-0.625
Mof_O 	O 	0.9856	0.074	0.729	-0.5
Mof_O 	O 	0.9974	0.0518	0.6058	-0.504
Mof_O 	O 	0.0081	0.1912	0.4936	-0.611
Mof_O 	O 	0.0944	0.074	0.431	-0.589
Mof_O 	O 	0.8926	0.3317	0.7421	-0.516
Mof_O 	O 	0.5724	0.6904	0.3518	-0.792
Mof_O 	O 	0.4363	0.6739	0.2643	-0.622
Mof_O 	O 	0.8161	0.5815	0.3563	-0.522
Mof_O 	O 	0.6567	0.5252	0.4054	-0.624
Mof_O 	O 	0.2854	0.729	0.426	-0.63
Mof_O 	O 	0.3968	0.6058	0.4482	-0.637
Mof_O 	O 	0.4983	0.4936	0.3088	-0.574
Mof_O 	O 	0.4746	0.431	0.426	-0.558
Mof_O 	O 	0.3653	0.7421	0.1683	-0.558
Mof_O 	O 	0.1146	0.8096	0.1482	-0.805
Mof_O 	O 	0.8745	0.8261	0.2357	-0.607
Mof_O 	O 	0.2539	0.9185	0.1437	-0.565
Mof_O 	O 	0.0873	0.9748	0.0946	-0.668
Mof_O 	O 	0.9404	0.771	0.074	-0.579
Mof_O 	O 	0.9508	0.8942	0.0518	-0.578
Mof_O 	O 	0.8007	0.0064	0.1912	-0.584
Mof_O 	O 	0.8316	0.069	0.074	-0.55
Mof_O 	O 	0.7757	0.7579	0.3317	-0.555
Mof_O 	O 	0.9242	0.6482	0.1904	-0.781
Mof_O 	O 	0.7006	0.7357	0.1739	-0.626
Mof_O 	O 	0.1724	0.6437	0.0815	-0.509
Mof_O 	O 	0.0621	0.5946	0.0252	-0.631
Mof_O 	O 	0.7114	0.574	0.229	-0.631
Mof_O 	O 	0.845	0.5518	0.1058	-0.637
Mof_O 	O 	0.8071	0.6912	0.9936	-0.54
Mof_O 	O 	0.9006	0.574	0.931	-0.523
Mof_O 	O 	0.5336	0.8317	0.2421	-0.553
Mof_O 	O 	0.2628	0.8518	0.3096	-0.792
Mof_O 	O 	0.1102	0.7643	0.3261	-0.653
Mof_O 	O 	0.3976	0.8563	0.4185	-0.506
Mof_O 	O 	0.1819	0.9054	0.4748	-0.594
Mof_O 	O 	0.0144	0.926	0.271	-0.716
Mof_O 	O 	0.0026	0.9482	0.3942	-0.717
Mof_O 	O 	0.9919	0.8088	0.5064	-0.543
Mof_O 	O 	0.9056	0.926	0.569	-0.521
Mof_O 	O 	0.1074	0.6683	0.2579	-0.594
_end
