data_functionalizedCrystal
_audit_creation_method	'EQeq! by Chris Wilmer'
_symmetry_space_group_name_H-M	'P1'
_symmetry_Int_Tables_number	1
_symmetry_cell_setting	triclinic
loop_
_symmetry_equiv_pos_as_xyz
  x,y,z
_cell_length_a	19.913
_cell_length_b	20.884
_cell_length_c	21.486
_cell_angle_alpha	116.076
_cell_angle_beta	98.55
_cell_angle_gamma	101.661
loop_
_atom_site_label
_atom_site_type_symbol
_atom_site_fract_x
_atom_site_fract_y
_atom_site_fract_z
_atom_site_charge
Mof_C 	C 	0.3415	0.6111	0.067	0.14
Mof_C 	C 	0.3859	0.6577	0.1283	-0.164
Mof_H 	H 	0.3708	0.6901	0.1655	0.088
Mof_C 	C 	0.3667	0.5703	0.0076	-0.185
Mof_H 	H 	0.335	0.5401	0.9621	0.107
Mof_C 	C 	0.6475	0.5758	0.9744	0.374
Mof_C 	C 	0.6074	0.4746	0.1971	0.04
Mof_H 	H 	0.5986	0.4508	0.1473	0.028
Mof_C 	C 	0.4644	0.6596	0.1398	0.064
Mof_H 	H 	0.4961	0.6876	0.1854	0.018
Mof_C 	C 	0.6297	0.4417	0.7487	0.091
Mof_C 	C 	0.6407	0.5306	0.8964	-0.147
Mof_C 	C 	0.6202	0.5556	0.2384	-0.106
Mof_C 	C 	0.6712	0.8608	0.2225	-0.138
Mof_C 	C 	0.6239	0.4003	0.6699	-0.052
Mof_C 	C 	0.5687	0.4579	0.7723	-0.15
Mof_H 	H 	0.5246	0.4404	0.7394	0.091
Mof_C 	C 	0.5767	0.4995	0.8442	0.081
Mof_H 	H 	0.5362	0.5076	0.8591	0.018
Mof_C 	C 	0.6791	0.7871	0.1737	0.38
Mof_C 	C 	0.6578	0.002	0.3061	0.082
Mof_C 	C 	0.2669	0.6067	0.0564	-0.094
Mof_H 	H 	0.2375	0.5706	0.0111	0.07
Mof_C 	C 	0.2363	0.6442	0.0992	-0.086
Mof_H 	H 	0.2625	0.6751	0.147	0.058
Mof_C 	C 	0.0426	0.5964	0.0183	0.12
Mof_H 	H 	0.0077	0.5608	0.9763	-0.01
Mof_C 	C 	0.6161	0.5996	0.1994	0.33
Mof_C 	C 	0.695	0.4729	0.8026	-0.146
Mof_H 	H 	0.7358	0.4644	0.7886	0.087
Mof_C 	C 	0.1608	0.6431	0.0793	0.16
Mof_C 	C 	0.4359	0.5751	0.0166	0.107
Mof_H 	H 	0.4503	0.5469	0.9766	-0.003
Mof_C 	C 	0.6086	0.4353	0.2325	-0.133
Mof_H 	H 	0.5991	0.3839	0.205	0.077
Mof_C 	C 	0.1077	0.5872	0.0325	-0.224
Mof_H 	H 	0.1137	0.5403	0.0082	0.12
Mof_C 	C 	0.6229	0.465	0.3072	0.083
Mof_C 	C 	0.157	0.7016	0.1376	-0.163
Mof_H 	H 	0.1951	0.7337	0.178	0.087
Mof_C 	C 	0.701	0.5144	0.873	0.07
Mof_H 	H 	0.7449	0.5325	0.9065	0.024
Mof_C 	C 	0.0765	0.7092	0.1285	0.061
Mof_H 	H 	0.0647	0.7467	0.1646	0.022
Mof_C 	C 	0.623	0.3345	0.4145	0.134
Mof_C 	C 	0.636	0.2231	0.4179	0.125
Mof_C 	C 	0.6685	0.3546	0.6469	0.017
Mof_H 	H 	0.6992	0.3494	0.6803	0.022
Mof_C 	C 	0.63	0.5435	0.3474	-0.127
Mof_H 	H 	0.6341	0.5648	0.3965	0.074
Mof_C 	C 	0.5786	0.4081	0.6192	0.019
Mof_H 	H 	0.5511	0.4401	0.6342	0.025
Mof_C 	C 	0.7307	0.9958	0.3063	-0.126
Mof_H 	H 	0.7714	0.0367	0.332	0.078
Mof_C 	C 	0.6311	0.5875	0.315	0.035
Mof_H 	H 	0.6389	0.6386	0.343	0.031
Mof_C 	C 	0.6501	0.0791	0.3459	-0.048
Mof_C 	C 	0.6086	0.8697	0.2287	0.073
Mof_H 	H 	0.5686	0.8278	0.2053	0.021
Mof_C 	C 	0.7329	0.9222	0.264	0.051
Mof_H 	H 	0.777	0.914	0.2636	0.032
Mof_C 	C 	0.5996	0.941	0.2697	-0.145
Mof_H 	H 	0.5544	0.9456	0.2716	0.083
Mof_C 	C 	0.6241	0.4208	0.3428	-0.075
Mof_C 	C 	0.6602	0.4534	0.4155	0.034
Mof_H 	H 	0.6837	0.5045	0.4405	0.017
Mof_C 	C 	0.6663	0.3182	0.5759	-0.137
Mof_H 	H 	0.6956	0.288	0.5608	0.081
Mof_C 	C 	0.6625	0.4143	0.4502	-0.152
Mof_H 	H 	0.6896	0.4379	0.4978	0.088
Mof_C 	C 	0.5745	0.3686	0.5468	-0.146
Mof_H 	H 	0.5413	0.3709	0.5131	0.086
Mof_C 	C 	0.619	0.3262	0.5246	0.129
Mof_C 	C 	0.604	0.095	0.3885	0.01
Mof_H 	H 	0.5792	0.0564	0.3947	0.028
Mof_C 	C 	0.5864	0.302	0.3404	-0.164
Mof_H 	H 	0.562	0.2511	0.3136	0.092
Mof_C 	C 	0.5878	0.3448	0.3112	0.047
Mof_H 	H 	0.5615	0.3221	0.2634	0.013
Mof_C 	C 	0.6903	0.1374	0.3423	0.009
Mof_H 	H 	0.7226	0.1292	0.3147	0.031
Mof_C 	C 	0.6846	0.2112	0.3796	-0.145
Mof_H 	H 	0.714	0.2505	0.3776	0.086
Mof_C 	C 	0.591	0.1632	0.4231	-0.134
Mof_H 	H 	0.5561	0.1698	0.4476	0.082
Mof_N 	N 	0.0286	0.6587	0.0664	-0.202
Mof_N 	N 	0.4866	0.6187	0.0809	-0.219
Mof_N 	N 	0.6204	0.2935	0.4506	-0.17
Mof_O 	O 	0.7394	0.7808	0.1716	-0.416
Mof_O 	O 	0.6162	0.57	0.1365	-0.406
Mof_O 	O 	0.5902	0.5835	0.9907	-0.415
Mof_O 	O 	0.6075	0.6641	0.234	-0.286
Mof_O 	O 	0.6203	0.7349	0.1358	-0.431
Mof_O 	O 	0.7075	0.6021	0.0185	-0.441
Mof_Cu	Cu	0.58952	0.62921	0.09287	0.92
Mof_Cu	Cu	0.76347	0.70376	0.09075	0.914
Mof_C 	C 	0.9035	0.8766	0.165	-0.186
Mof_C 	C 	0.8897	0.0167	0.236	0.139
Mof_C 	C 	0.8832	0.0972	0.2783	-0.085
Mof_C 	C 	0.8526	0.1265	0.2439	0.044
Mof_H 	H 	0.8375	0.1001	0.1939	0.015
Mof_C 	C 	0.9091	0.1356	0.3499	0.034
Mof_H 	H 	0.9297	0.1136	0.3739	0.017
Mof_C 	C 	0.9515	0.9244	0.2248	0.12
Mof_H 	H 	0.9874	0.9108	0.2442	0.002
Mof_C 	C 	0.8437	0.9644	0.1735	-0.208
Mof_H 	H 	0.8063	0.9762	0.1539	0.104
Mof_C 	C 	0.8442	0.6186	0.1357	0.366
Mof_C 	C 	0.8496	0.8947	0.1374	0.135
Mof_H 	H 	0.8166	0.8595	0.0939	-0.021
Mof_C 	C 	0.9469	0.9985	0.2593	-0.185
Mof_H 	H 	0.9837	0.0355	0.2988	0.096
Mof_C 	C 	0.87	0.2406	0.3539	0.148
Mof_C 	C 	0.8514	0.4859	0.2426	0.092
Mof_C 	C 	0.8485	0.5765	0.1751	-0.129
Mof_C 	C 	0.8843	0.4914	0.8042	0.105
Mof_H 	H 	0.8787	0.4666	0.8309	0.007
Mof_C 	C 	0.9095	0.4306	0.5047	-0.155
Mof_H 	H 	0.9289	0.4547	0.481	0.089
Mof_C 	C 	0.8447	0.3202	0.5041	-0.167
Mof_H 	H 	0.8226	0.2689	0.4802	0.091
Mof_C 	C 	0.7977	0.5654	0.2093	0.055
Mof_H 	H 	0.761	0.5867	0.2087	0.033
Mof_C 	C 	0.8802	0.4509	0.7347	-0.191
Mof_H 	H 	0.8719	0.3996	0.7154	0.096
Mof_C 	C 	0.8861	0.4359	0.6126	-0.082
Mof_C 	C 	0.8968	0.57	0.84	-0.17
Mof_C 	C 	0.8533	0.4404	0.2816	-0.066
Mof_C 	C 	0.901	0.6173	0.913	0.37
Mof_C 	C 	0.8745	0.3539	0.4678	0.134
Mof_C 	C 	0.8417	0.1977	0.2806	-0.166
Mof_H 	H 	0.8156	0.215	0.2552	0.093
Mof_C 	C 	0.904	0.6027	0.7948	0.092
Mof_H 	H 	0.9124	0.6539	0.8136	0.011
Mof_C 	C 	0.8587	0.3556	0.3508	0.144
Mof_C 	C 	0.8475	0.3616	0.574	0.05
Mof_H 	H 	0.8228	0.3394	0.5964	0.009
Mof_C 	C 	0.9057	0.4071	0.2811	0.02
Mof_H 	H 	0.9382	0.4113	0.2551	0.026
Mof_C 	C 	0.7992	0.5221	0.2458	-0.136
Mof_H 	H 	0.7659	0.5183	0.2711	0.085
Mof_C 	C 	0.8035	0.3855	0.3486	-0.172
Mof_H 	H 	0.7658	0.376	0.3673	0.096
Mof_C 	C 	0.9146	0.4699	0.5771	0.04
Mof_H 	H 	0.9382	0.5209	0.6023	0.014
Mof_C 	C 	0.9056	0.2101	0.3901	-0.159
Mof_H 	H 	0.9267	0.2378	0.4395	0.089
Mof_C 	C 	0.8878	0.4817	0.6911	0.122
Mof_C 	C 	0.898	0.5379	0.1739	0.065
Mof_H 	H 	0.9273	0.5366	0.1438	0.024
Mof_C 	C 	0.9079	0.5013	0.2132	-0.144
Mof_H 	H 	0.949	0.4877	0.2199	0.086
Mof_C 	C 	0.9125	0.3651	0.3199	-0.154
Mof_H 	H 	0.9506	0.3462	0.3232	0.088
Mof_C 	C 	0.9119	0.7986	0.1238	0.356
Mof_C 	C 	0.8074	0.4298	0.3173	0.046
Mof_H 	H 	0.774	0.4557	0.3215	0.016
Mof_C 	C 	0.8989	0.5595	0.7248	-0.173
Mof_H 	H 	0.9029	0.5827	0.6966	0.09
Mof_N 	N 	0.8674	0.3136	0.3885	-0.175
Mof_O 	O 	0.805	0.663	0.1527	-0.374
Mof_O 	O 	0.853	0.7425	0.0748	-0.456
Mof_O 	O 	0.9658	0.7834	0.1293	-0.373
Mof_O 	O 	0.9305	0.6835	0.9487	-0.339
Mof_O 	O 	0.8832	0.5825	0.9469	-0.379
Mof_O 	O 	0.8904	0.6159	0.1027	-0.412
Mof_Cu	Cu	0.92389	0.66733	0.04995	0.922
Mof_C 	C 	0.6585	0.3889	0.933	0.141
Mof_C 	C 	0.6141	0.3423	0.8717	-0.163
Mof_H 	H 	0.6292	0.3099	0.8345	0.089
Mof_C 	C 	0.6333	0.4297	0.9924	-0.184
Mof_H 	H 	0.665	0.4599	0.0379	0.107
Mof_C 	C 	0.3525	0.4242	0.0256	0.374
Mof_C 	C 	0.3926	0.5254	0.8029	0.04
Mof_H 	H 	0.4014	0.5492	0.8527	0.028
Mof_C 	C 	0.5356	0.3404	0.8602	0.064
Mof_H 	H 	0.5039	0.3124	0.8146	0.018
Mof_C 	C 	0.3703	0.5583	0.2513	0.091
Mof_C 	C 	0.3593	0.4694	0.1036	-0.147
Mof_C 	C 	0.3798	0.4444	0.7616	-0.106
Mof_C 	C 	0.3288	0.1392	0.7775	-0.138
Mof_C 	C 	0.3761	0.5997	0.3301	-0.052
Mof_C 	C 	0.4313	0.5421	0.2277	-0.15
Mof_H 	H 	0.4754	0.5596	0.2606	0.091
Mof_C 	C 	0.4233	0.5005	0.1558	0.081
Mof_H 	H 	0.4638	0.4924	0.1409	0.018
Mof_C 	C 	0.3209	0.2129	0.8263	0.38
Mof_C 	C 	0.3422	0.998	0.6939	0.082
Mof_C 	C 	0.7331	0.3933	0.9436	-0.094
Mof_H 	H 	0.7625	0.4294	0.9889	0.07
Mof_C 	C 	0.7637	0.3558	0.9008	-0.086
Mof_H 	H 	0.7375	0.3249	0.853	0.058
Mof_C 	C 	0.9574	0.4036	0.9817	0.12
Mof_H 	H 	0.9923	0.4392	0.0237	-0.01
Mof_C 	C 	0.3839	0.4004	0.8006	0.33
Mof_C 	C 	0.305	0.5271	0.1974	-0.146
Mof_H 	H 	0.2642	0.5356	0.2114	0.087
Mof_C 	C 	0.8392	0.3569	0.9207	0.16
Mof_C 	C 	0.5641	0.4249	0.9834	0.107
Mof_H 	H 	0.5497	0.4531	0.0234	-0.003
Mof_C 	C 	0.3914	0.5647	0.7675	-0.133
Mof_H 	H 	0.4009	0.6161	0.795	0.077
Mof_C 	C 	0.8923	0.4128	0.9675	-0.224
Mof_H 	H 	0.8863	0.4597	0.9918	0.12
Mof_C 	C 	0.3771	0.535	0.6928	0.083
Mof_C 	C 	0.843	0.2984	0.8624	-0.163
Mof_H 	H 	0.8049	0.2663	0.822	0.087
Mof_C 	C 	0.299	0.4856	0.127	0.07
Mof_H 	H 	0.2551	0.4675	0.0935	0.024
Mof_C 	C 	0.9235	0.2908	0.8715	0.061
Mof_H 	H 	0.9353	0.2533	0.8354	0.022
Mof_C 	C 	0.377	0.6655	0.5855	0.134
Mof_C 	C 	0.364	0.7769	0.5821	0.125
Mof_C 	C 	0.3315	0.6454	0.3531	0.017
Mof_H 	H 	0.3008	0.6506	0.3197	0.022
Mof_C 	C 	0.37	0.4565	0.6526	-0.127
Mof_H 	H 	0.3659	0.4352	0.6035	0.074
Mof_C 	C 	0.4214	0.5919	0.3808	0.019
Mof_H 	H 	0.4489	0.5599	0.3658	0.025
Mof_C 	C 	0.2693	0.0042	0.6937	-0.126
Mof_H 	H 	0.2286	0.9633	0.668	0.078
Mof_C 	C 	0.3689	0.4125	0.685	0.035
Mof_H 	H 	0.3611	0.3614	0.657	0.031
Mof_C 	C 	0.3499	0.9209	0.6541	-0.048
Mof_C 	C 	0.3914	0.1303	0.7713	0.073
Mof_H 	H 	0.4314	0.1722	0.7947	0.021
Mof_C 	C 	0.2671	0.0778	0.736	0.051
Mof_H 	H 	0.223	0.086	0.7364	0.032
Mof_C 	C 	0.4004	0.059	0.7303	-0.145
Mof_H 	H 	0.4456	0.0544	0.7284	0.083
Mof_C 	C 	0.3759	0.5792	0.6572	-0.075
Mof_C 	C 	0.3398	0.5466	0.5845	0.034
Mof_H 	H 	0.3163	0.4955	0.5595	0.017
Mof_C 	C 	0.3337	0.6818	0.4241	-0.137
Mof_H 	H 	0.3044	0.712	0.4392	0.081
Mof_C 	C 	0.3375	0.5857	0.5498	-0.152
Mof_H 	H 	0.3104	0.5621	0.5022	0.088
Mof_C 	C 	0.4255	0.6314	0.4532	-0.146
Mof_H 	H 	0.4587	0.6291	0.4869	0.086
Mof_C 	C 	0.381	0.6738	0.4754	0.129
Mof_C 	C 	0.396	0.905	0.6115	0.01
Mof_H 	H 	0.4208	0.9436	0.6053	0.028
Mof_C 	C 	0.4136	0.698	0.6596	-0.164
Mof_H 	H 	0.438	0.7489	0.6864	0.092
Mof_C 	C 	0.4122	0.6552	0.6888	0.047
Mof_H 	H 	0.4385	0.6779	0.7366	0.013
Mof_C 	C 	0.3097	0.8626	0.6577	0.009
Mof_H 	H 	0.2774	0.8708	0.6853	0.031
Mof_C 	C 	0.3154	0.7888	0.6204	-0.145
Mof_H 	H 	0.286	0.7495	0.6224	0.086
Mof_C 	C 	0.409	0.8368	0.5769	-0.134
Mof_H 	H 	0.4439	0.8302	0.5524	0.082
Mof_N 	N 	0.9714	0.3413	0.9336	-0.202
Mof_N 	N 	0.5134	0.3813	0.9191	-0.219
Mof_N 	N 	0.3796	0.7065	0.5494	-0.17
Mof_O 	O 	0.2606	0.2192	0.8284	-0.416
Mof_O 	O 	0.3838	0.43	0.8635	-0.406
Mof_O 	O 	0.4098	0.4165	0.0093	-0.415
Mof_O 	O 	0.3925	0.3359	0.766	-0.286
Mof_O 	O 	0.3797	0.2651	0.8642	-0.431
Mof_O 	O 	0.2925	0.3979	0.9815	-0.441
Mof_Cu	Cu	0.41048	0.37079	0.90713	0.92
Mof_Cu	Cu	0.23653	0.29624	0.90925	0.914
Mof_C 	C 	0.0965	0.1234	0.835	-0.186
Mof_C 	C 	0.1103	0.9833	0.764	0.139
Mof_C 	C 	0.1168	0.9028	0.7217	-0.085
Mof_C 	C 	0.1474	0.8735	0.7561	0.044
Mof_H 	H 	0.1625	0.8999	0.8061	0.015
Mof_C 	C 	0.0909	0.8644	0.6501	0.034
Mof_H 	H 	0.0703	0.8864	0.6261	0.017
Mof_C 	C 	0.0485	0.0756	0.7752	0.12
Mof_H 	H 	0.0126	0.0892	0.7558	0.002
Mof_C 	C 	0.1563	0.0356	0.8265	-0.208
Mof_H 	H 	0.1937	0.0238	0.8461	0.104
Mof_C 	C 	0.1558	0.3814	0.8643	0.366
Mof_C 	C 	0.1504	0.1053	0.8626	0.135
Mof_H 	H 	0.1834	0.1405	0.9061	-0.021
Mof_C 	C 	0.0531	0.0015	0.7407	-0.185
Mof_H 	H 	0.0163	0.9645	0.7012	0.096
Mof_C 	C 	0.13	0.7594	0.6461	0.148
Mof_C 	C 	0.1486	0.5141	0.7574	0.092
Mof_C 	C 	0.1515	0.4235	0.8249	-0.129
Mof_C 	C 	0.1157	0.5086	0.1958	0.105
Mof_H 	H 	0.1213	0.5334	0.1691	0.007
Mof_C 	C 	0.0905	0.5694	0.4953	-0.155
Mof_H 	H 	0.0711	0.5453	0.519	0.089
Mof_C 	C 	0.1553	0.6798	0.4959	-0.167
Mof_H 	H 	0.1774	0.7311	0.5198	0.091
Mof_C 	C 	0.2023	0.4346	0.7907	0.055
Mof_H 	H 	0.239	0.4133	0.7913	0.033
Mof_C 	C 	0.1198	0.5491	0.2653	-0.191
Mof_H 	H 	0.1281	0.6004	0.2846	0.096
Mof_C 	C 	0.1139	0.5641	0.3874	-0.082
Mof_C 	C 	0.1032	0.43	0.16	-0.17
Mof_C 	C 	0.1467	0.5596	0.7184	-0.066
Mof_C 	C 	0.099	0.3827	0.087	0.37
Mof_C 	C 	0.1255	0.6461	0.5322	0.134
Mof_C 	C 	0.1583	0.8023	0.7194	-0.166
Mof_H 	H 	0.1844	0.785	0.7448	0.093
Mof_C 	C 	0.096	0.3973	0.2052	0.092
Mof_H 	H 	0.0876	0.3461	0.1864	0.011
Mof_C 	C 	0.1413	0.6444	0.6492	0.144
Mof_C 	C 	0.1525	0.6384	0.426	0.05
Mof_H 	H 	0.1772	0.6606	0.4036	0.009
Mof_C 	C 	0.0943	0.5929	0.7189	0.02
Mof_H 	H 	0.0618	0.5887	0.7449	0.026
Mof_C 	C 	0.2008	0.4779	0.7542	-0.136
Mof_H 	H 	0.2341	0.4817	0.7289	0.085
Mof_C 	C 	0.1965	0.6145	0.6514	-0.172
Mof_H 	H 	0.2342	0.624	0.6327	0.096
Mof_C 	C 	0.0854	0.5301	0.4229	0.04
Mof_H 	H 	0.0618	0.4791	0.3977	0.014
Mof_C 	C 	0.0944	0.7899	0.6099	-0.159
Mof_H 	H 	0.0733	0.7622	0.5605	0.089
Mof_C 	C 	0.1122	0.5183	0.3089	0.122
Mof_C 	C 	0.102	0.4621	0.8261	0.065
Mof_H 	H 	0.0727	0.4634	0.8562	0.024
Mof_C 	C 	0.0921	0.4987	0.7868	-0.144
Mof_H 	H 	0.051	0.5123	0.7801	0.086
Mof_C 	C 	0.0875	0.6349	0.6801	-0.154
Mof_H 	H 	0.0494	0.6538	0.6768	0.088
Mof_C 	C 	0.0881	0.2014	0.8762	0.356
Mof_C 	C 	0.1926	0.5702	0.6827	0.046
Mof_H 	H 	0.226	0.5443	0.6785	0.016
Mof_C 	C 	0.1011	0.4405	0.2752	-0.173
Mof_H 	H 	0.0971	0.4173	0.3034	0.09
Mof_N 	N 	0.1326	0.6864	0.6115	-0.175
Mof_O 	O 	0.195	0.337	0.8473	-0.374
Mof_O 	O 	0.147	0.2575	0.9252	-0.456
Mof_O 	O 	0.0342	0.2166	0.8707	-0.373
Mof_O 	O 	0.0695	0.3165	0.0513	-0.339
Mof_O 	O 	0.1168	0.4175	0.0531	-0.379
Mof_O 	O 	0.1096	0.3841	0.8973	-0.412
Mof_Cu	Cu	0.07611	0.33267	0.95005	0.922
_end
