# CIF file generated by openbabel 3.1.0, see https://openbabel.org
data_I
_chemical_name_common 'image0'
_cell_length_a 9.6767
_cell_length_b 9.6767
_cell_length_c 20.172
_cell_angle_alpha 90
_cell_angle_beta 90
_cell_angle_gamma 120
_space_group_name_H-M_alt 'P 1'
_space_group_name_Hall 'P 1'
loop_
    _symmetry_equiv_pos_as_xyz
    x,y,z
loop_
    _atom_site_label
    _atom_site_type_symbol
    _atom_site_fract_x
    _atom_site_fract_y
    _atom_site_fract_z
    _atom_site_occupancy
    Zn1      Zn       0.93515    0.50554    0.41626    1.000
    N1       N        0.34770    0.83110    0.51312    1.000
    N2       N        0.40750    0.81440    0.45271    1.000
    N3       N        0.14130    0.68250    0.44879    1.000
    N4       N        0.08650    0.74560    0.55654    1.000
    H1       H        0.98920    0.65080    0.56290    1.000
    H2       H        0.11960    0.79100    0.59710    1.000
    N5       N        0.21610    0.42110    0.28851    1.000
    N6       N        0.03100    0.42810    0.34960    1.000
    N7       N        0.96120    0.27480    0.32264    1.000
    N8       N        0.06100    0.15150    0.24920    1.000
    H3       H        0.95620    0.06650    0.24640    1.000
    H4       H        0.09090    0.16370    0.20660    1.000
    C1       C        0.18870    0.75120    0.50880    1.000
    C2       C        0.28120    0.72540    0.41720    1.000
    C3       C        0.29260    0.67950    0.34580    1.000
    H5       H        0.27280    0.74830    0.31560    1.000
    H6       H        0.40280    0.70170    0.33770    1.000
    C4       C        0.17930    0.50920    0.32891    1.000
    C5       C        0.07720    0.28000    0.28560    1.000
    Zn2      Zn       0.49446    0.42961    0.74959    1.000
    N9       N        0.16890    0.51660    0.84645    1.000
    N10      N        0.18560    0.59310    0.78604    1.000
    N11      N        0.31750    0.45880    0.78212    1.000
    N12      N        0.25440    0.34090    0.88987    1.000
    H7       H        0.34920    0.33840    0.89623    1.000
    H8       H        0.20900    0.32860    0.93043    1.000
    N13      N        0.57890    0.79500    0.62184    1.000
    N14      N        0.57190    0.60290    0.68293    1.000
    N15      N        0.72520    0.68640    0.65597    1.000
    N16      N        0.84850    0.90950    0.58253    1.000
    H9       H        0.93350    0.88970    0.57973    1.000
    H10      H        0.83630    0.92720    0.53993    1.000
    C6       C        0.24880    0.43750    0.84213    1.000
    C7       C        0.27460    0.55580    0.75053    1.000
    C8       C        0.32050    0.61310    0.67913    1.000
    H11      H        0.25170    0.52450    0.64893    1.000
    H12      H        0.29830    0.70110    0.67103    1.000
    C9       C        0.49080    0.67010    0.66224    1.000
    C10      C        0.72000    0.79720    0.61893    1.000
    Zn3      Zn       0.57039    0.06485    0.08293    1.000
    N17      N        0.48340    0.65230    0.17979    1.000
    N18      N        0.40690    0.59250    0.11938    1.000
    N19      N        0.54120    0.85870    0.11546    1.000
    N20      N        0.65910    0.91350    0.22321    1.000
    H13      H        0.66160    0.01080    0.22957    1.000
    H14      H        0.67140    0.88040    0.26377    1.000
    N21      N        0.20500    0.78390    0.95518    1.000
    N22      N        0.39710    0.96900    0.01627    1.000
    N23      N        0.31360    0.03880    0.98931    1.000
    N24      N        0.09050    0.93900    0.91587    1.000
    H15      H        0.11030    0.04380    0.91307    1.000
    H16      H        0.07280    0.90910    0.87327    1.000
    C11      C        0.56250    0.81130    0.17547    1.000
    C12      C        0.44420    0.71880    0.08387    1.000
    C13      C        0.38690    0.70740    0.01247    1.000
    H17      H        0.47550    0.72720    0.98227    1.000
    H18      H        0.29890    0.59720    0.00437    1.000
    C14      C        0.32990    0.82070    0.99558    1.000
    C15      C        0.20280    0.92280    0.95227    1.000
    Zn4      Zn       0.50554    0.93515    0.58374    1.000
    N25      N        0.83110    0.34770    0.48688    1.000
    N26      N        0.81440    0.40750    0.54729    1.000
    N27      N        0.68250    0.14130    0.55121    1.000
    N28      N        0.74560    0.08650    0.44346    1.000
    H19      H        0.65080    0.98920    0.43710    1.000
    H20      H        0.79100    0.11960    0.40290    1.000
    N29      N        0.42110    0.21610    0.71149    1.000
    N30      N        0.42810    0.03100    0.65040    1.000
    N31      N        0.27480    0.96120    0.67736    1.000
    N32      N        0.15150    0.06100    0.75080    1.000
    H21      H        0.06650    0.95620    0.75360    1.000
    H22      H        0.16370    0.09090    0.79340    1.000
    C16      C        0.75120    0.18870    0.49120    1.000
    C17      C        0.72540    0.28120    0.58280    1.000
    C18      C        0.67950    0.29260    0.65420    1.000
    H23      H        0.74830    0.27280    0.68440    1.000
    H24      H        0.70170    0.40280    0.66230    1.000
    C19      C        0.50920    0.17930    0.67109    1.000
    C20      C        0.28000    0.07720    0.71440    1.000
    Zn5      Zn       0.42961    0.49446    0.25041    1.000
    N33      N        0.51660    0.16890    0.15355    1.000
    N34      N        0.59310    0.18560    0.21396    1.000
    N35      N        0.45880    0.31750    0.21788    1.000
    N36      N        0.34090    0.25440    0.11013    1.000
    H25      H        0.33840    0.34920    0.10377    1.000
    H26      H        0.32860    0.20900    0.06957    1.000
    N37      N        0.79500    0.57890    0.37816    1.000
    N38      N        0.60290    0.57190    0.31707    1.000
    N39      N        0.68640    0.72520    0.34403    1.000
    N40      N        0.90950    0.84850    0.41747    1.000
    H27      H        0.88970    0.93350    0.42027    1.000
    H28      H        0.92720    0.83630    0.46007    1.000
    C21      C        0.43750    0.24880    0.15787    1.000
    C22      C        0.55580    0.27460    0.24947    1.000
    C23      C        0.61310    0.32050    0.32087    1.000
    H29      H        0.52450    0.25170    0.35107    1.000
    H30      H        0.70110    0.29830    0.32897    1.000
    C24      C        0.67010    0.49080    0.33776    1.000
    C25      C        0.79720    0.72000    0.38107    1.000
    Zn6      Zn       0.06485    0.57039    0.91707    1.000
    N41      N        0.65230    0.48340    0.82021    1.000
    N42      N        0.59250    0.40690    0.88062    1.000
    N43      N        0.85870    0.54120    0.88454    1.000
    N44      N        0.91350    0.65910    0.77679    1.000
    H31      H        0.01080    0.66160    0.77043    1.000
    H32      H        0.88040    0.67140    0.73623    1.000
    N45      N        0.78390    0.20500    0.04482    1.000
    N46      N        0.96900    0.39710    0.98373    1.000
    N47      N        0.03880    0.31360    0.01069    1.000
    N48      N        0.93900    0.09050    0.08413    1.000
    H33      H        0.04380    0.11030    0.08693    1.000
    H34      H        0.90910    0.07280    0.12673    1.000
    C26      C        0.81130    0.56250    0.82453    1.000
    C27      C        0.71880    0.44420    0.91613    1.000
    C28      C        0.70740    0.38690    0.98753    1.000
    H35      H        0.72720    0.47550    0.01773    1.000
    H36      H        0.59720    0.29890    0.99563    1.000
    C29      C        0.82070    0.32990    0.00442    1.000
    C30      C        0.92280    0.20280    0.04773    1.000
