data_functionalizedCrystal
_audit_creation_method	'EQeq! by Chris Wilmer'
_symmetry_space_group_name_H-M	'P1'
_symmetry_Int_Tables_number	1
_symmetry_cell_setting	triclinic
loop_
_symmetry_equiv_pos_as_xyz
  x,y,z
_cell_length_a	20.639
_cell_length_b	22.923
_cell_length_c	23.247
_cell_angle_alpha	82.718
_cell_angle_beta	71.061
_cell_angle_gamma	80.352
loop_
_atom_site_label
_atom_site_type_symbol
_atom_site_fract_x
_atom_site_fract_y
_atom_site_fract_z
_atom_site_charge
Mof_Cu	Cu	0.04179	0.26287	0.27723	0.91
Mof_Cu	Cu	0.95821	0.73713	0.72277	0.91
Mof_Cu	Cu	0.04141	0.76321	0.77723	0.91
Mof_Cu	Cu	0.95859	0.23679	0.22277	0.91
Mof_Cu	Cu	0.55545	0.22554	0.26267	0.91
Mof_Cu	Cu	0.44393	0.27489	0.23729	0.908
Mof_Cu	Cu	0.55607	0.72511	0.76271	0.908
Mof_Cu	Cu	0.44455	0.77446	0.73733	0.91
Mof_H 	H 	0.6782	0.6705	0.5879	0.021
Mof_H 	H 	0.3016	0.2363	0.7358	0.208
Mof_H 	H 	0.5627	0.6809	0.2636	0.199
Mof_H 	H 	0.6471	0.0352	0.9705	0.063
Mof_H 	H 	0.0695	0.0691	0.1565	0.019
Mof_H 	H 	0.8562	0.0192	0.8691	0.096
Mof_H 	H 	0.7059	0.4735	0.4942	0.073
Mof_H 	H 	0.459	0.9572	0.3329	0.079
Mof_H 	H 	0.1754	0.0992	0.2669	0.016
Mof_H 	H 	0.9428	0.1956	0.4606	0.022
Mof_H 	H 	0.1402	0.4788	0.634	0.094
Mof_H 	H 	0.6166	0.0943	0.7327	0.014
Mof_H 	H 	0.3231	0.8293	0.9127	0.025
Mof_H 	H 	0.682	0.2693	0.6922	0.229
Mof_H 	H 	0.3029	0.5286	0.5714	0.075
Mof_H 	H 	0.8215	0.0408	0.5185	0.07
Mof_H 	H 	0.5692	0.2351	0.7983	0.184
Mof_H 	H 	0.2941	0.5265	0.5058	0.073
Mof_H 	H 	0.5592	0.1758	0.7744	0.188
Mof_H 	H 	0.318	0.7307	0.3078	0.229
Mof_H 	H 	0.7496	0.4899	0.2598	0.088
Mof_H 	H 	0.7928	0.9879	0.4997	0.073
Mof_H 	H 	0.2465	0.9084	0.2578	0.023
Mof_H 	H 	0.1438	0.9808	0.1309	0.096
Mof_H 	H 	0.4936	0.2187	0.0537	0.023
Mof_H 	H 	0.1584	0.4679	0.9893	0.098
Mof_H 	H 	0.8175	0.4785	0.0603	0.093
Mof_H 	H 	0.8223	0.4007	0.2349	0.013
Mof_H 	H 	0.5431	0.1839	0.9565	0.074
Mof_H 	H 	0.2701	0.5449	0.8431	0.082
Mof_H 	H 	0.6971	0.4714	0.4286	0.075
Mof_H 	H 	0.568	0.2351	0.7298	0.184
Mof_H 	H 	0.7038	0.7683	0.1936	0.205
Mof_H 	H 	0.3599	0.4893	0.5216	0.073
Mof_H 	H 	0.1992	0.3229	0.1203	0.027
Mof_H 	H 	0.7281	0.6366	0.4903	0.093
Mof_H 	H 	0.4945	0.7165	0.5548	0.02
Mof_H 	H 	0.419	0.2609	0.781	0.197
Mof_H 	H 	0.5052	0.0469	0.3057	0.021
Mof_H 	H 	0.5396	0.5453	0.1713	0.079
Mof_H 	H 	0.5444	0.6826	0.4572	0.078
Mof_H 	H 	0.7027	0.9884	0.9926	0.066
Mof_H 	H 	0.8014	0.1782	0.3792	0.024
Mof_H 	H 	0.6812	0.2688	0.7614	0.232
Mof_H 	H 	0.7299	0.4551	0.1569	0.082
Mof_H 	H 	0.2081	0.0108	0.4314	0.065
Mof_H 	H 	0.1312	0.3374	0.945	0.076
Mof_H 	H 	0.4948	0.9531	0.6943	0.021
Mof_H 	H 	0.6984	0.7637	0.2642	0.208
Mof_H 	H 	0.7538	0.5904	0.2433	0.026
Mof_H 	H 	0.7504	0.9891	0.7588	0.085
Mof_H 	H 	0.2719	0.3634	0.5097	0.093
Mof_H 	H 	0.432	0.7649	0.2702	0.184
Mof_H 	H 	0.2715	0.8562	0.527	0.092
Mof_H 	H 	0.2462	0.4096	0.7567	0.026
Mof_H 	H 	0.9325	0.432	0.3411	0.015
Mof_H 	H 	0.6845	0.8654	0.6876	0.023
Mof_H 	H 	0.811	0.4794	0.9934	0.099
Mof_H 	H 	0.7497	0.7033	0.1244	0.014
Mof_H 	H 	0.2726	0.3558	0.026	0.087
Mof_H 	H 	0.2496	0.0109	0.2412	0.085
Mof_H 	H 	0.0675	0.568	0.6589	0.015
Mof_H 	H 	0.3834	0.9057	0.2673	0.014
Mof_H 	H 	0.9422	0.6955	0.9608	0.025
Mof_H 	H 	0.0572	0.8044	0.5394	0.022
Mof_H 	H 	0.2504	0.5101	0.7402	0.088
Mof_H 	H 	0.3019	0.0116	0.0749	0.065
Mof_H 	H 	0.4917	0.4565	0.2012	0.02
Mof_H 	H 	0.6206	0.5915	0.2347	0.018
Mof_H 	H 	0.1986	0.8218	0.6208	0.024
Mof_H 	H 	0.5083	0.5435	0.7988	0.02
Mof_H 	H 	0.1785	0.9592	0.4815	0.07
Mof_H 	H 	0.3218	0.3295	0.4121	0.021
Mof_H 	H 	0.6401	0.5107	0.4784	0.073
Mof_H 	H 	0.7919	0.9892	0.5686	0.065
Mof_H 	H 	0.8416	0.5321	0.0107	0.098
Mof_H 	H 	0.5064	0.7813	0.9463	0.023
Mof_H 	H 	0.3529	0.9648	0.0295	0.063
Mof_H 	H 	0.2532	0.7636	0.2876	0.234
Mof_H 	H 	0.3179	0.6338	0.8132	0.022
Mof_H 	H 	0.6981	0.9884	0.9251	0.065
Mof_H 	H 	0.76	0.7244	0.2178	0.21
Mof_H 	H 	0.3794	0.4085	0.7653	0.018
Mof_H 	H 	0.2962	0.2317	0.8064	0.205
Mof_H 	H 	0.75	0.2032	0.6233	0.01
Mof_H 	H 	0.8246	0.9008	0.7331	0.016
Mof_H 	H 	0.9305	0.9309	0.8435	0.019
Mof_H 	H 	0.4604	0.4547	0.8287	0.079
Mof_H 	H 	0.6207	0.7045	0.3613	0.012
Mof_H 	H 	0.4408	0.8242	0.2256	0.188
Mof_H 	H 	0.379	0.7942	0.1396	0.008
Mof_H 	H 	0.7535	0.0916	0.7422	0.023
Mof_H 	H 	0.7263	0.1359	0.99	0.094
Mof_H 	H 	0.5055	0.2835	0.4452	0.02
Mof_H 	H 	0.3793	0.2955	0.6387	0.012
Mof_H 	H 	0.1301	0.8388	0.4456	0.079
Mof_H 	H 	0.189	0.5206	0.0066	0.099
Mof_H 	H 	0.4263	0.2614	0.7103	0.197
Mof_H 	H 	0.2737	0.8641	0.01	0.094
Mof_H 	H 	0.0578	0.3045	0.0392	0.025
Mof_H 	H 	0.8688	0.6626	0.055	0.076
Mof_H 	H 	0.541	0.0428	0.6671	0.079
Mof_H 	H 	0.7468	0.2364	0.7124	0.234
Mof_H 	H 	0.25	0.7968	0.3767	0.01
Mof_H 	H 	0.6769	0.1707	0.0873	0.025
Mof_H 	H 	0.3188	0.7312	0.2386	0.232
Mof_H 	H 	0.2973	0.0116	0.0074	0.066
Mof_H 	H 	0.5737	0.7386	0.2897	0.197
Mof_H 	H 	0.7285	0.1438	0.473	0.092
Mof_H 	H 	0.24	0.2756	0.7822	0.21
Mof_H 	H 	0.2072	0.0121	0.5003	0.073
Mof_H 	H 	0.2693	0.0448	0.3397	0.078
Mof_H 	H 	0.7307	0.9552	0.6603	0.078
Mof_H 	H 	0.4373	0.3191	0.7364	0.199
Mof_H 	H 	0.1777	0.5993	0.7651	0.013
Mof_H 	H 	0.7274	0.6442	0.974	0.087
Mof_H 	H 	0.8699	0.1612	0.5544	0.079
Mof_H 	H 	0.4556	0.3174	0.5428	0.078
Mof_H 	H 	0.8598	0.5212	0.366	0.094
Mof_H 	H 	0.1825	0.5215	0.9397	0.093
Mof_H 	H 	0.3155	0.1346	0.3124	0.023
Mof_H 	H 	0.8008	0.6771	0.8797	0.027
Mof_H 	H 	0.581	0.7391	0.219	0.197
Mof_H 	H 	0.6821	0.3662	0.1868	0.022
Mof_H 	H 	0.2503	0.2967	0.8756	0.014
Mof_H 	H 	0.4308	0.7649	0.2017	0.184
Mof_H 	H 	0.621	0.2058	0.8604	0.008
Mof_H 	H 	0.4569	0.8161	0.0435	0.074
Mof_C 	C 	0.6497	0.1734	0.0607	0.06
Mof_C 	C 	0.9294	0.3517	0.2703	0.417
Mof_C 	C 	0.7963	0.0124	0.8164	0.121
Mof_C 	C 	0.6676	0.0653	0.6483	-0.101
Mof_C 	C 	0.4573	0.0465	0.3126	0.063
Mof_C 	C 	0.5427	0.9535	0.6874	0.063
Mof_C 	C 	0.5419	0.7003	0.5417	0.072
Mof_C 	C 	0.5806	0.198	0.0796	-0.121
Mof_C 	C 	0.334	0.8076	0.2599	0.334
Mof_C 	C 	0.5685	0.509	0.1745	-0.15
Mof_C 	C 	0.1701	0.5748	0.7385	0.089
Mof_C 	C 	0.3184	0.5447	0.8341	-0.144
Mof_C 	C 	0.5853	0.9008	0.6935	-0.129
Mof_C 	C 	0.4111	0.2853	0.7455	-0.625
Mof_C 	C 	0.6896	0.4966	0.4619	-0.129
Mof_C 	C 	0.6805	0.1548	0.6853	-0.129
Mof_C 	C 	0.9313	0.8519	0.7711	0.387
Mof_C 	C 	0.6402	0.0074	0.6611	0.117
Mof_C 	C 	0.6696	0.1362	0.9012	-0.098
Mof_C 	C 	0.1007	0.8149	0.5369	0.064
Mof_C 	C 	0.669	0.5645	0.149	-0.096
Mof_C 	C 	0.4284	0.3199	0.5163	-0.153
Mof_C 	C 	0.3475	0.3985	0.8038	0.018
Mof_C 	C 	0.8078	0.5039	0.0261	-0.207
Mof_C 	C 	0.4599	0.5438	0.8078	0.069
Mof_C 	C 	0.7326	0.6019	0.2837	0.017
Mof_C 	C 	0.8986	0.6851	0.9634	0.053
Mof_C 	C 	0.4147	0.0992	0.3065	-0.129
Mof_C 	C 	0.3447	0.0986	0.3166	0.065
Mof_C 	C 	0.0687	0.1481	0.2289	0.387
Mof_C 	C 	0.3606	0.8434	0.0359	0.11
Mof_C 	C 	0.856	0.1646	0.5189	-0.152
Mof_C 	C 	0.3304	0.8638	0.0988	-0.098
Mof_C 	C 	0.359	0.3436	0.5354	0.119
Mof_C 	C 	0.271	0.8319	0.3703	0.031
Mof_C 	C 	0.2131	0.0227	0.224	-0.16
Mof_C 	C 	0.2134	0.9864	0.4678	-0.115
Mof_C 	C 	0.1157	0.592	0.7143	-0.165
Mof_C 	C 	0.729	0.1681	0.6297	0.031
Mof_C 	C 	0.6531	0.4026	0.1836	0.063
Mof_C 	C 	0.8784	0.6894	0.9114	-0.113
Mof_C 	C 	0.6807	0.6528	0.5034	-0.151
Mof_C 	C 	0.9251	0.2122	0.3497	0.372
Mof_C 	C 	0.2838	0.9214	0.4074	0.149
Mof_C 	C 	0.2679	0.8971	0.2173	0.025
Mof_C 	C 	0.8146	0.6742	0.9153	0.054
Mof_C 	C 	0.5822	0.2115	0.7629	-0.584
Mof_C 	C 	0.7162	0.0786	0.5926	0.149
Mof_C 	C 	0.349	0.327	0.4387	0.075
Mof_C 	C 	0.7866	0.0136	0.5322	-0.115
Mof_C 	C 	0.5889	0.7147	0.2545	-0.625
Mof_C 	C 	0.3172	0.0453	0.3328	-0.145
Mof_C 	C 	0.6665	0.6918	0.2404	0.305
Mof_C 	C 	0.4298	0.8188	0.017	-0.146
Mof_C 	C 	0.641	0.6564	0.4646	0.119
Mof_C 	C 	0.8939	0.9427	0.8263	0.077
Mof_C 	C 	0.3292	0.3642	0.598	-0.097
Mof_C 	C 	0.6845	0.6528	0.2946	-0.107
Mof_C 	C 	0.7321	0.1029	0.7827	0.025
Mof_C 	C 	0.2502	0.432	0.6681	-0.101
Mof_C 	C 	0.0706	0.6483	0.7297	0.417
Mof_C 	C 	0.6816	0.4553	0.1659	-0.144
Mof_C 	C 	0.1046	0.5562	0.6754	0.089
Mof_C 	C 	0.3193	0.3472	0.4966	-0.151
Mof_C 	C 	0.228	0.8457	0.5295	-0.149
Mof_C 	C 	0.8993	0.1851	0.4631	0.064
Mof_C 	C 	0.3175	0.3468	0.813	-0.114
Mof_C 	C 	0.331	0.4355	0.851	-0.096
Mof_C 	C 	0.7912	0.6503	0.0234	0.109
Mof_C 	C 	0.5517	0.8436	0.7175	0.41
Mof_C 	C 	0.169	0.0752	0.2393	0.079
Mof_C 	C 	0.2077	0.8507	0.4775	0.115
Mof_C 	C 	0.6498	0.1034	0.6946	0.028
Mof_C 	C 	0.8522	0.4967	0.3394	-0.163
Mof_C 	C 	0.3209	0.8473	0.997	-0.144
Mof_C 	C 	0.6847	0.1542	0.7937	-0.124
Mof_C 	C 	0.2888	0.2585	0.7721	-0.642
Mof_C 	C 	0.7923	0.1493	0.5225	0.115
Mof_C 	C 	0.6553	0.9014	0.6834	0.065
Mof_C 	C 	0.6828	0.9547	0.6672	-0.145
Mof_C 	C 	0.6964	0.2459	0.7254	-0.728
Mof_C 	C 	0.831	0.9248	0.7607	0.079
Mof_C 	C 	0.2037	0.9876	0.1836	0.121
Mof_C 	C 	0.7498	0.568	0.3319	-0.101
Mof_C 	C 	0.1922	0.4961	0.9739	-0.207
Mof_C 	C 	0.3503	0.8266	0.9393	0.06
Mof_C 	C 	0.2674	0.3981	0.7163	0.017
Mof_C 	C 	0.6939	0.0134	0.9578	-0.101
Mof_C 	C 	0.445	0.658	0.7832	0.418
Mof_C 	C 	0.666	0.1924	0.7401	0.334
Mof_C 	C 	0.2811	0.415	0.6089	0.145
Mof_C 	C 	0.0738	0.2878	0.15	0.356
Mof_C 	C 	0.7867	0.4781	0.2763	-0.168
Mof_C 	C 	0.4496	0.2814	0.3581	0.386
Mof_C 	C 	0.2133	0.5219	0.7237	-0.168
Mof_C 	C 	0.8299	0.4252	0.2615	0.089
Mof_C 	C 	0.1854	0.3258	0.0847	0.054
Mof_C 	C 	0.3104	0.5034	0.5381	-0.129
Mof_C 	C 	0.1014	0.3149	0.0366	0.053
Mof_C 	C 	0.2088	0.3497	0.9766	0.109
Mof_C 	C 	0.2516	0.9317	0.169	-0.098
Mof_C 	C 	0.6392	0.5085	0.1613	0.119
Mof_C 	C 	0.5492	0.2181	0.1447	0.374
Mof_C 	C 	0.2829	0.9151	0.1097	0.138
Mof_C 	C 	0.3598	0.9926	0.3389	0.117
Mof_C 	C 	0.7156	0.5793	0.0927	0.144
Mof_C 	C 	0.2844	0.4207	0.9073	0.144
Mof_C 	C 	0.6525	0.6015	0.1962	0.018
Mof_C 	C 	0.3036	0.7541	0.2746	-0.728
Mof_C 	C 	0.7457	0.631	0.0836	-0.097
Mof_C 	C 	0.1061	0.0573	0.1737	0.077
Mof_C 	C 	0.855	0.6656	0.0194	-0.144
Mof_C 	C 	0.772	0.1543	0.4705	-0.149
Mof_C 	C 	0.121	0.8099	0.5889	-0.127
Mof_C 	C 	0.2022	0.4861	0.6847	0.129
Mof_C 	C 	0.3153	0.8458	0.2063	-0.124
Mof_C 	C 	0.1216	0.3106	0.0886	-0.113
Mof_C 	C 	0.771	0.6546	0.9713	-0.14
Mof_C 	C 	0.145	0.3344	0.9806	-0.144
Mof_C 	C 	0.8153	0.1747	0.4147	0.063
Mof_C 	C 	0.2709	0.332	0.8693	0.02
Mof_C 	C 	0.7869	0.9773	0.776	-0.16
Mof_C 	C 	0.3335	0.3082	0.7596	0.305
Mof_C 	C 	0.555	0.342	0.2168	0.418
Mof_C 	C 	0.7171	0.0849	0.8903	0.138
Mof_C 	C 	0.6394	0.1566	0.9641	0.11
Mof_C 	C 	0.4483	0.1564	0.2825	0.41
Mof_C 	C 	0.5824	0.403	0.1968	-0.13
Mof_C 	C 	0.5702	0.1812	0.983	-0.146
Mof_C 	C 	0.5409	0.2019	0.0408	0.058
Mof_C 	C 	0.4194	0.802	0.9204	-0.121
Mof_C 	C 	0.229	0.3454	0.0287	-0.14
Mof_C 	C 	0.8845	0.9075	0.7859	-0.149
Mof_C 	C 	0.4298	0.9932	0.3288	-0.145
Mof_C 	C 	0.7469	0.13	0.5833	-0.106
Mof_C 	C 	0.4178	0.7885	0.2371	-0.584
Mof_C 	C 	0.1502	0.0048	0.1585	-0.155
Mof_C 	C 	0.8498	0.9952	0.8415	-0.155
Mof_C 	C 	0.5504	0.7186	0.6419	0.386
Mof_C 	C 	0.879	0.1901	0.4111	-0.127
Mof_C 	C 	0.1478	0.5033	0.6606	-0.163
Mof_C 	C 	0.1847	0.8253	0.5853	0.063
Mof_C 	C 	0.6791	0.1527	0.003	-0.144
Mof_C 	C 	0.651	0.673	0.5613	0.075
Mof_C 	C 	0.7112	0.7415	0.2279	-0.642
Mof_C 	C 	0.4184	0.3033	0.4195	-0.143
Mof_C 	C 	0.7291	0.668	0.1307	0.02
Mof_C 	C 	0.5702	0.0068	0.6712	-0.145
Mof_C 	C 	0.0749	0.7878	0.6503	0.372
Mof_C 	C 	0.3469	0.5974	0.8164	0.063
Mof_C 	C 	0.6534	0.1708	0.8529	0.027
Mof_C 	C 	0.4591	0.7981	0.9592	0.058
Mof_C 	C 	0.3466	0.8292	0.1471	0.027
Mof_C 	C 	0.2543	0.369	0.9164	-0.097
Mof_C 	C 	0.3195	0.8452	0.3147	-0.129
Mof_C 	C 	0.6536	0.6697	0.3538	0.018
Mof_C 	C 	0.6708	0.6358	0.402	-0.097
Mof_C 	C 	0.9262	0.7122	0.85	0.356
Mof_C 	C 	0.6825	0.6532	0.187	-0.114
Mof_C 	C 	0.8954	0.4438	0.3246	0.089
Mof_C 	C 	0.4176	0.597	0.8032	-0.13
Mof_C 	C 	0.1155	0.0925	0.2141	-0.149
Mof_C 	C 	0.3464	0.3303	0.6462	0.018
Mof_C 	C 	0.4315	0.491	0.8255	-0.15
Mof_C 	C 	0.3155	0.3472	0.7054	-0.107
Mof_C 	C 	0.5716	0.6801	0.4837	-0.153
Mof_C 	C 	0.4581	0.2997	0.4583	0.072
Mof_C 	C 	0.7189	0.585	0.3911	0.145
Mof_C 	C 	0.7978	0.5139	0.3153	0.129
Mof_C 	C 	0.144	0.8354	0.4811	-0.152
Mof_C 	C 	0.3324	0.9347	0.3517	-0.101
Mof_C 	C 	0.3608	0.4915	0.8387	0.119
Mof_C 	C 	0.4508	0.7819	0.8553	0.374
Mof_C 	C 	0.7484	0.0683	0.831	-0.098
Mof_C 	C 	0.3061	0.9866	0.0422	-0.101
Mof_C 	C 	0.5816	0.6967	0.5805	-0.143
Mof_C 	C 	0.5401	0.4562	0.1922	0.069
Mof_C 	C 	0.2531	0.87	0.4167	-0.106
Mof_C 	C 	0.3502	0.8966	0.3054	0.028
Mof_C 	C 	0.8843	0.408	0.2857	-0.165
Mof_O 	O 	0.5876	0.3017	0.2362	-0.448
Mof_O 	O 	0.9141	0.8176	0.7412	-0.415
Mof_O 	O 	0.5899	0.8011	0.7334	-0.425
Mof_O 	O 	0.2735	0.4543	0.5605	-0.191
Mof_O 	O 	0.9076	0.2086	0.304	-0.422
Mof_O 	O 	0.4124	0.6983	0.7638	-0.448
Mof_O 	O 	0.9075	0.7081	0.8035	-0.41
Mof_O 	O 	0.5111	0.7535	0.8421	-0.421
Mof_O 	O 	0.4135	0.2952	0.3222	-0.409
Mof_O 	O 	0.0869	0.6815	0.7585	-0.428
Mof_O 	O 	0.5062	0.6552	0.7837	-0.423
Mof_O 	O 	0.0202	0.2699	0.1494	-0.414
Mof_O 	O 	0.4101	0.1989	0.2666	-0.425
Mof_O 	O 	0.2685	0.4603	0.9514	-0.179
Mof_O 	O 	0.0924	0.7914	0.696	-0.422
Mof_O 	O 	0.4938	0.3448	0.2163	-0.423
Mof_O 	O 	0.9798	0.2302	0.3502	-0.416
Mof_O 	O 	0.7265	0.5457	0.4395	-0.191
Mof_O 	O 	0.4889	0.2465	0.1579	-0.421
Mof_O 	O 	0.019	0.6603	0.7115	-0.421
Mof_O 	O 	0.2771	0.955	0.4543	-0.19
Mof_O 	O 	0.5097	0.2553	0.3428	-0.413
Mof_O 	O 	0.0186	0.161	0.2092	-0.417
Mof_O 	O 	0.414	0.7955	0.822	-0.425
Mof_O 	O 	0.4976	0.8421	0.7092	-0.438
Mof_O 	O 	0.0859	0.1824	0.2588	-0.415
Mof_O 	O 	0.9131	0.3185	0.2415	-0.428
Mof_O 	O 	0.0925	0.2919	0.1965	-0.41
Mof_O 	O 	0.9814	0.839	0.7908	-0.417
Mof_O 	O 	0.2608	0.9487	0.0624	-0.194
Mof_O 	O 	0.981	0.3397	0.2885	-0.421
Mof_O 	O 	0.5024	0.1579	0.2908	-0.438
Mof_O 	O 	0.9798	0.7301	0.8506	-0.414
Mof_O 	O 	0.5865	0.7048	0.6778	-0.409
Mof_O 	O 	0.4903	0.7447	0.6572	-0.413
Mof_O 	O 	0.0202	0.7698	0.6498	-0.416
Mof_O 	O 	0.7229	0.045	0.5457	-0.19
Mof_O 	O 	0.7315	0.5397	0.0486	-0.179
Mof_O 	O 	0.7392	0.0513	0.9376	-0.194
Mof_O 	O 	0.586	0.2045	0.178	-0.425
_end
