data_functionalizedCrystal
_audit_creation_method	'EQeq! by Chris Wilmer'
_symmetry_space_group_name_H-M	'P1'
_symmetry_Int_Tables_number	1
_symmetry_cell_setting	triclinic
loop_
_symmetry_equiv_pos_as_xyz
  x,y,z
_cell_length_a	12.989
_cell_length_b	13.8218
_cell_length_c	9.2766
_cell_angle_alpha	90
_cell_angle_beta	124.43
_cell_angle_gamma	90
loop_
_atom_site_label
_atom_site_type_symbol
_atom_site_fract_x
_atom_site_fract_y
_atom_site_fract_z
_atom_site_charge
Mof_Zn	Zn	0.72046	0.84978	0.38318	1.171
Mof_N 	N 	0.3674	0.7336	0.0439	-0.289
Mof_N 	N 	0.5456	0.8006	0.2324	-0.302
Mof_N 	N 	0.8154	0.9665	0.8535	-0.114
Mof_N 	N 	0.7256	0.9282	0.5802	-0.274
Mof_N 	N 	0.8116	0.9023	0.7488	-0.093
Mof_N 	N 	0.3498	0.8323	0.0469	-0.071
Mof_C 	C 	0.4851	0.7167	0.1572	0.318
Mof_C 	C 	0.6815	0.0128	0.5915	0.285
Mof_N 	N 	0.735	0.0395	0.7567	-0.317
Mof_C 	C 	0.5462	0.6198	0.1993	-0.861
Mof_H 	H 	0.4849	0.5714	0.1282	0.268
Mof_H 	H 	0.5834	0.6054	0.3205	0.259
Mof_H 	H 	0.6096	0.6202	0.1763	0.255
Mof_C 	C 	0.5823	0.0696	0.4334	-0.824
Mof_H 	H 	0.5594	0.0357	0.3289	0.256
Mof_H 	H 	0.6144	0.1323	0.4341	0.24
Mof_H 	H 	0.5103	0.0769	0.4368	0.256
Mof_N 	N 	0.4563	0.8713	0.1612	-0.087
Mof_Zn	Zn	0.22046	0.34978	0.38318	1.173
Mof_N 	N 	0.8674	0.2336	0.0439	-0.272
Mof_N 	N 	0.0456	0.3006	0.2324	-0.261
Mof_N 	N 	0.3154	0.4665	0.8535	-0.116
Mof_N 	N 	0.2256	0.4282	0.5802	-0.276
Mof_N 	N 	0.3116	0.4023	0.7488	-0.091
Mof_N 	N 	0.8498	0.3323	0.0469	-0.079
Mof_C 	C 	0.9851	0.2167	0.1572	0.209
Mof_C 	C 	0.1815	0.5128	0.5915	0.299
Mof_N 	N 	0.235	0.5395	0.7567	-0.316
Mof_C 	C 	0.0462	0.1198	0.1993	-0.604
Mof_H 	H 	0.9849	0.0714	0.1282	0.175
Mof_H 	H 	0.0834	0.1054	0.3205	0.195
Mof_H 	H 	0.1096	0.1202	0.1763	0.191
Mof_C 	C 	0.0823	0.5696	0.4334	-0.858
Mof_H 	H 	0.0594	0.5357	0.3289	0.271
Mof_H 	H 	0.1144	0.6323	0.4341	0.256
Mof_H 	H 	0.0103	0.5769	0.4368	0.275
Mof_N 	N 	0.9563	0.3713	0.1612	-0.109
Mof_Zn	Zn	0.72046	0.15022	0.88318	1.147
Mof_N 	N 	0.3674	0.2664	0.5439	-0.303
Mof_N 	N 	0.5456	0.1994	0.7324	-0.31
Mof_N 	N 	0.8154	0.0335	0.3535	-0.094
Mof_N 	N 	0.7256	0.0718	0.0802	-0.266
Mof_N 	N 	0.8116	0.0977	0.2488	-0.082
Mof_N 	N 	0.3498	0.1677	0.5469	-0.095
Mof_C 	C 	0.4851	0.2833	0.6572	0.274
Mof_C 	C 	0.6815	0.9872	0.0915	0.383
Mof_N 	N 	0.735	0.9605	0.2567	-0.313
Mof_C 	C 	0.5462	0.3802	0.6993	-0.766
Mof_H 	H 	0.4849	0.4286	0.6282	0.217
Mof_H 	H 	0.5834	0.3946	0.8205	0.209
Mof_H 	H 	0.6096	0.3798	0.6763	0.204
Mof_C 	C 	0.5823	0.9304	0.9334	-0.972
Mof_H 	H 	0.5594	0.9643	0.8289	0.281
Mof_H 	H 	0.6144	0.8677	0.9341	0.256
Mof_H 	H 	0.5103	0.9231	0.9368	0.269
Mof_N 	N 	0.4563	0.1287	0.6612	-0.105
Mof_Zn	Zn	0.22046	0.65022	0.88318	1.149
Mof_N 	N 	0.8674	0.7664	0.5439	-0.285
Mof_N 	N 	0.0456	0.6994	0.7324	-0.269
Mof_N 	N 	0.3154	0.5335	0.3535	-0.094
Mof_N 	N 	0.2256	0.5718	0.0802	-0.267
Mof_N 	N 	0.3116	0.5977	0.2488	-0.079
Mof_N 	N 	0.8498	0.6677	0.5469	-0.103
Mof_C 	C 	0.9851	0.7833	0.6572	0.165
Mof_C 	C 	0.1815	0.4872	0.0915	0.398
Mof_N 	N 	0.235	0.4605	0.2567	-0.314
Mof_C 	C 	0.0462	0.8802	0.6993	-0.508
Mof_H 	H 	0.9849	0.9286	0.6282	0.125
Mof_H 	H 	0.0834	0.8946	0.8205	0.147
Mof_H 	H 	0.1096	0.8798	0.6763	0.14
Mof_C 	C 	0.0823	0.4304	0.9334	-1.009
Mof_H 	H 	0.0594	0.4643	0.8289	0.297
Mof_H 	H 	0.1144	0.3677	0.9341	0.272
Mof_H 	H 	0.0103	0.4231	0.9368	0.288
Mof_N 	N 	0.9563	0.6287	0.6612	-0.125
_end
