data_functionalizedCrystal
_audit_creation_method	'EQeq! by Chris Wilmer'
_symmetry_space_group_name_H-M	'P1'
_symmetry_Int_Tables_number	1
_symmetry_cell_setting	triclinic
loop_
_symmetry_equiv_pos_as_xyz
  x,y,z
_cell_length_a	28.503
_cell_length_b	28.503
_cell_length_c	3.5383
_cell_angle_alpha	90
_cell_angle_beta	90
_cell_angle_gamma	90
loop_
_atom_site_label
_atom_site_type_symbol
_atom_site_fract_x
_atom_site_fract_y
_atom_site_fract_z
_atom_site_charge
Mof_Ag	Ag	0.95726	0.9239	0.0113	0.346
Mof_N 	N 	0.8908	0.9441	0.832	-0.202
Mof_N 	N 	0.8777	0.9906	0.827	-0.205
Mof_N 	N 	0.8177	0.9481	0.619	-0.246
Mof_C 	C 	0.8542	0.9213	0.712	0.159
Mof_H 	H 	0.8535	0.8888	0.6915	-0.136
Mof_C 	C 	0.8348	0.9905	0.7	0.169
Mof_C 	C 	0.807	0.033	0.59	0.156
Mof_H 	H 	0.8279	0.0553	0.4738	-0.048
Mof_H 	H 	0.794	0.0468	0.816	-0.028
Mof_H 	H 	0.7829	0.0244	0.4216	-0.05
Mof_C 	C 	0.855	0.8702	0.63	0.143
Mof_H 	H 	0.8828	0.8564	0.7354	-0.039
Mof_H 	H 	0.8559	0.8658	0.3561	-0.046
Mof_H 	H 	0.8278	0.8555	0.7278	-0.05
Mof_H 	H 	0.8174	0.0178	0.6695	-0.143
Mof_Ag	Ag	0.45726	0.4239	0.5113	0.343
Mof_N 	N 	0.3908	0.4441	0.332	-0.204
Mof_N 	N 	0.3777	0.4906	0.327	-0.205
Mof_N 	N 	0.3177	0.4481	0.119	-0.243
Mof_C 	C 	0.3542	0.4213	0.212	0.158
Mof_H 	H 	0.3535	0.3888	0.1915	-0.133
Mof_C 	C 	0.3348	0.4905	0.2	0.166
Mof_C 	C 	0.307	0.533	0.09	0.151
Mof_H 	H 	0.3279	0.5553	0.9738	-0.047
Mof_H 	H 	0.294	0.5468	0.316	-0.028
Mof_H 	H 	0.2829	0.5244	0.9216	-0.049
Mof_C 	C 	0.355	0.3702	0.13	0.14
Mof_H 	H 	0.3828	0.3564	0.2354	-0.038
Mof_H 	H 	0.3559	0.3658	0.8561	-0.046
Mof_H 	H 	0.3278	0.3555	0.2278	-0.049
Mof_H 	H 	0.3174	0.5178	0.1695	-0.138
Mof_Ag	Ag	0.04274	0.0761	0.0113	0.345
Mof_N 	N 	0.1092	0.0559	0.832	-0.203
Mof_N 	N 	0.1223	0.0094	0.827	-0.206
Mof_N 	N 	0.1823	0.0519	0.619	-0.247
Mof_C 	C 	0.1458	0.0787	0.712	0.159
Mof_H 	H 	0.1465	0.1112	0.6915	-0.136
Mof_C 	C 	0.1652	0.0095	0.7	0.169
Mof_C 	C 	0.193	0.967	0.59	0.156
Mof_H 	H 	0.1721	0.9447	0.4738	-0.048
Mof_H 	H 	0.206	0.9532	0.816	-0.028
Mof_H 	H 	0.2171	0.9756	0.4216	-0.05
Mof_C 	C 	0.145	0.1298	0.63	0.143
Mof_H 	H 	0.1172	0.1436	0.7354	-0.039
Mof_H 	H 	0.1441	0.1342	0.3561	-0.046
Mof_H 	H 	0.1722	0.1445	0.7278	-0.05
Mof_H 	H 	0.1826	0.9822	0.6695	-0.143
Mof_Ag	Ag	0.54274	0.5761	0.5113	0.343
Mof_N 	N 	0.6092	0.5559	0.332	-0.204
Mof_N 	N 	0.6223	0.5094	0.327	-0.205
Mof_N 	N 	0.6823	0.5519	0.119	-0.243
Mof_C 	C 	0.6458	0.5787	0.212	0.158
Mof_H 	H 	0.6465	0.6112	0.1915	-0.133
Mof_C 	C 	0.6652	0.5095	0.2	0.166
Mof_C 	C 	0.693	0.467	0.09	0.151
Mof_H 	H 	0.6721	0.4447	0.9738	-0.047
Mof_H 	H 	0.706	0.4532	0.316	-0.028
Mof_H 	H 	0.7171	0.4756	0.9216	-0.049
Mof_C 	C 	0.645	0.6298	0.13	0.14
Mof_H 	H 	0.6172	0.6436	0.2354	-0.038
Mof_H 	H 	0.6441	0.6342	0.8561	-0.046
Mof_H 	H 	0.6722	0.6445	0.2278	-0.049
Mof_H 	H 	0.6826	0.4822	0.1695	-0.138
Mof_Ag	Ag	0.9239	0.04274	0.9887	0.345
Mof_N 	N 	0.9441	0.1092	0.168	-0.203
Mof_N 	N 	0.9906	0.1223	0.173	-0.206
Mof_N 	N 	0.9481	0.1823	0.381	-0.247
Mof_C 	C 	0.9213	0.1458	0.288	0.159
Mof_H 	H 	0.8888	0.1465	0.3085	-0.136
Mof_C 	C 	0.9905	0.1652	0.3	0.169
Mof_C 	C 	0.033	0.193	0.41	0.156
Mof_H 	H 	0.0553	0.1721	0.5262	-0.048
Mof_H 	H 	0.0468	0.206	0.184	-0.028
Mof_H 	H 	0.0244	0.2171	0.5784	-0.05
Mof_C 	C 	0.8702	0.145	0.37	0.143
Mof_H 	H 	0.8564	0.1172	0.2646	-0.039
Mof_H 	H 	0.8658	0.1441	0.6439	-0.046
Mof_H 	H 	0.8555	0.1722	0.2722	-0.05
Mof_H 	H 	0.0178	0.1826	0.3305	-0.143
Mof_Ag	Ag	0.4239	0.54274	0.4887	0.343
Mof_N 	N 	0.4441	0.6092	0.668	-0.204
Mof_N 	N 	0.4906	0.6223	0.673	-0.205
Mof_N 	N 	0.4481	0.6823	0.881	-0.243
Mof_C 	C 	0.4213	0.6458	0.788	0.158
Mof_H 	H 	0.3888	0.6465	0.8085	-0.133
Mof_C 	C 	0.4905	0.6652	0.8	0.166
Mof_C 	C 	0.533	0.693	0.91	0.151
Mof_H 	H 	0.5553	0.6721	0.0262	-0.047
Mof_H 	H 	0.5468	0.706	0.684	-0.028
Mof_H 	H 	0.5244	0.7171	0.0784	-0.049
Mof_C 	C 	0.3702	0.645	0.87	0.14
Mof_H 	H 	0.3564	0.6172	0.7646	-0.038
Mof_H 	H 	0.3658	0.6441	0.1439	-0.046
Mof_H 	H 	0.3555	0.6722	0.7722	-0.049
Mof_H 	H 	0.5178	0.6826	0.8305	-0.138
Mof_Ag	Ag	0.0761	0.95726	0.9887	0.345
Mof_N 	N 	0.0559	0.8908	0.168	-0.203
Mof_N 	N 	0.0094	0.8777	0.173	-0.206
Mof_N 	N 	0.0519	0.8177	0.381	-0.247
Mof_C 	C 	0.0787	0.8542	0.288	0.159
Mof_H 	H 	0.1112	0.8535	0.3085	-0.136
Mof_C 	C 	0.0095	0.8348	0.3	0.169
Mof_C 	C 	0.967	0.807	0.41	0.156
Mof_H 	H 	0.9447	0.8279	0.5262	-0.048
Mof_H 	H 	0.9532	0.794	0.184	-0.028
Mof_H 	H 	0.9756	0.7829	0.5784	-0.05
Mof_C 	C 	0.1298	0.855	0.37	0.143
Mof_H 	H 	0.1436	0.8828	0.2646	-0.039
Mof_H 	H 	0.1342	0.8559	0.6439	-0.046
Mof_H 	H 	0.1445	0.8278	0.2722	-0.05
Mof_H 	H 	0.9822	0.8174	0.3305	-0.143
Mof_Ag	Ag	0.5761	0.45726	0.4887	0.343
Mof_N 	N 	0.5559	0.3908	0.668	-0.204
Mof_N 	N 	0.5094	0.3777	0.673	-0.205
Mof_N 	N 	0.5519	0.3177	0.881	-0.243
Mof_C 	C 	0.5787	0.3542	0.788	0.158
Mof_H 	H 	0.6112	0.3535	0.8085	-0.133
Mof_C 	C 	0.5095	0.3348	0.8	0.166
Mof_C 	C 	0.467	0.307	0.91	0.151
Mof_H 	H 	0.4447	0.3279	0.0262	-0.047
Mof_H 	H 	0.4532	0.294	0.684	-0.028
Mof_H 	H 	0.4756	0.2829	0.0784	-0.049
Mof_C 	C 	0.6298	0.355	0.87	0.14
Mof_H 	H 	0.6436	0.3828	0.7646	-0.038
Mof_H 	H 	0.6342	0.3559	0.1439	-0.046
Mof_H 	H 	0.6445	0.3278	0.7722	-0.049
Mof_H 	H 	0.4822	0.3174	0.8305	-0.138
Mof_Ag	Ag	0.54274	0.9239	0.7387	0.345
Mof_N 	N 	0.6092	0.9441	0.918	-0.2
Mof_N 	N 	0.6223	0.9906	0.923	-0.202
Mof_N 	N 	0.6823	0.9481	0.131	-0.245
Mof_C 	C 	0.6458	0.9213	0.038	0.151
Mof_H 	H 	0.6465	0.8888	0.0585	-0.135
Mof_C 	C 	0.6652	0.9905	0.05	0.163
Mof_C 	C 	0.693	0.033	0.16	0.163
Mof_H 	H 	0.6721	0.0553	0.2762	-0.05
Mof_H 	H 	0.706	0.0468	0.934	-0.027
Mof_H 	H 	0.7171	0.0244	0.3284	-0.052
Mof_C 	C 	0.645	0.8702	0.12	0.145
Mof_H 	H 	0.6172	0.8564	0.0146	-0.042
Mof_H 	H 	0.6441	0.8658	0.3939	-0.045
Mof_H 	H 	0.6722	0.8555	0.0222	-0.053
Mof_H 	H 	0.6826	0.0178	0.0805	-0.148
Mof_Ag	Ag	0.04274	0.4239	0.2387	0.346
Mof_N 	N 	0.1092	0.4441	0.418	-0.204
Mof_N 	N 	0.1223	0.4906	0.423	-0.206
Mof_N 	N 	0.1823	0.4481	0.631	-0.246
Mof_C 	C 	0.1458	0.4213	0.538	0.159
Mof_H 	H 	0.1465	0.3888	0.5585	-0.136
Mof_C 	C 	0.1652	0.4905	0.55	0.169
Mof_C 	C 	0.193	0.533	0.66	0.156
Mof_H 	H 	0.1721	0.5553	0.7762	-0.048
Mof_H 	H 	0.206	0.5468	0.434	-0.028
Mof_H 	H 	0.2171	0.5244	0.8284	-0.05
Mof_C 	C 	0.145	0.3702	0.62	0.143
Mof_H 	H 	0.1172	0.3564	0.5146	-0.039
Mof_H 	H 	0.1441	0.3658	0.8939	-0.048
Mof_H 	H 	0.1722	0.3555	0.5222	-0.05
Mof_H 	H 	0.1826	0.5178	0.5805	-0.143
Mof_Ag	Ag	0.45726	0.0761	0.7387	0.345
Mof_N 	N 	0.3908	0.0559	0.918	-0.2
Mof_N 	N 	0.3777	0.0094	0.923	-0.202
Mof_N 	N 	0.3177	0.0519	0.131	-0.245
Mof_C 	C 	0.3542	0.0787	0.038	0.151
Mof_H 	H 	0.3535	0.1112	0.0585	-0.135
Mof_C 	C 	0.3348	0.0095	0.05	0.163
Mof_C 	C 	0.307	0.967	0.16	0.163
Mof_H 	H 	0.3279	0.9447	0.2762	-0.05
Mof_H 	H 	0.294	0.9532	0.934	-0.027
Mof_H 	H 	0.2829	0.9756	0.3284	-0.052
Mof_C 	C 	0.355	0.1298	0.12	0.145
Mof_H 	H 	0.3828	0.1436	0.0146	-0.042
Mof_H 	H 	0.3559	0.1342	0.3939	-0.045
Mof_H 	H 	0.3278	0.1445	0.0222	-0.053
Mof_H 	H 	0.3174	0.9822	0.0805	-0.148
Mof_Ag	Ag	0.95726	0.5761	0.2387	0.346
Mof_N 	N 	0.8908	0.5559	0.418	-0.204
Mof_N 	N 	0.8777	0.5094	0.423	-0.206
Mof_N 	N 	0.8177	0.5519	0.631	-0.246
Mof_C 	C 	0.8542	0.5787	0.538	0.159
Mof_H 	H 	0.8535	0.6112	0.5585	-0.136
Mof_C 	C 	0.8348	0.5095	0.55	0.169
Mof_C 	C 	0.807	0.467	0.66	0.156
Mof_H 	H 	0.8279	0.4447	0.7762	-0.048
Mof_H 	H 	0.794	0.4532	0.434	-0.028
Mof_H 	H 	0.7829	0.4756	0.8284	-0.05
Mof_C 	C 	0.855	0.6298	0.62	0.143
Mof_H 	H 	0.8828	0.6436	0.5146	-0.039
Mof_H 	H 	0.8559	0.6342	0.8939	-0.048
Mof_H 	H 	0.8278	0.6445	0.5222	-0.05
Mof_H 	H 	0.8174	0.4822	0.5805	-0.143
Mof_Ag	Ag	0.5761	0.04274	0.7613	0.346
Mof_N 	N 	0.5559	0.1092	0.582	-0.204
Mof_N 	N 	0.5094	0.1223	0.577	-0.206
Mof_N 	N 	0.5519	0.1823	0.369	-0.246
Mof_C 	C 	0.5787	0.1458	0.462	0.159
Mof_H 	H 	0.6112	0.1465	0.4415	-0.136
Mof_C 	C 	0.5095	0.1652	0.45	0.169
Mof_C 	C 	0.467	0.193	0.34	0.156
Mof_H 	H 	0.4447	0.1721	0.2238	-0.048
Mof_H 	H 	0.4532	0.206	0.566	-0.028
Mof_H 	H 	0.4756	0.2171	0.1716	-0.05
Mof_C 	C 	0.6298	0.145	0.38	0.143
Mof_H 	H 	0.6436	0.1172	0.4854	-0.039
Mof_H 	H 	0.6342	0.1441	0.1061	-0.048
Mof_H 	H 	0.6445	0.1722	0.4778	-0.05
Mof_H 	H 	0.4822	0.1826	0.4195	-0.143
Mof_Ag	Ag	0.0761	0.54274	0.2613	0.345
Mof_N 	N 	0.0559	0.6092	0.082	-0.2
Mof_N 	N 	0.0094	0.6223	0.077	-0.202
Mof_N 	N 	0.0519	0.6823	0.869	-0.245
Mof_C 	C 	0.0787	0.6458	0.962	0.151
Mof_H 	H 	0.1112	0.6465	0.9415	-0.135
Mof_C 	C 	0.0095	0.6652	0.95	0.163
Mof_C 	C 	0.967	0.693	0.84	0.163
Mof_H 	H 	0.9447	0.6721	0.7238	-0.05
Mof_H 	H 	0.9532	0.706	0.066	-0.027
Mof_H 	H 	0.9756	0.7171	0.6716	-0.052
Mof_C 	C 	0.1298	0.645	0.88	0.145
Mof_H 	H 	0.1436	0.6172	0.9854	-0.042
Mof_H 	H 	0.1342	0.6441	0.6061	-0.045
Mof_H 	H 	0.1445	0.6722	0.9778	-0.053
Mof_H 	H 	0.9822	0.6826	0.9195	-0.148
Mof_Ag	Ag	0.4239	0.95726	0.7613	0.346
Mof_N 	N 	0.4441	0.8908	0.582	-0.204
Mof_N 	N 	0.4906	0.8777	0.577	-0.206
Mof_N 	N 	0.4481	0.8177	0.369	-0.246
Mof_C 	C 	0.4213	0.8542	0.462	0.159
Mof_H 	H 	0.3888	0.8535	0.4415	-0.136
Mof_C 	C 	0.4905	0.8348	0.45	0.169
Mof_C 	C 	0.533	0.807	0.34	0.156
Mof_H 	H 	0.5553	0.8279	0.2238	-0.048
Mof_H 	H 	0.5468	0.794	0.566	-0.028
Mof_H 	H 	0.5244	0.7829	0.1716	-0.05
Mof_C 	C 	0.3702	0.855	0.38	0.143
Mof_H 	H 	0.3564	0.8828	0.4854	-0.039
Mof_H 	H 	0.3658	0.8559	0.1061	-0.048
Mof_H 	H 	0.3555	0.8278	0.4778	-0.05
Mof_H 	H 	0.5178	0.8174	0.4195	-0.143
Mof_Ag	Ag	0.9239	0.45726	0.2613	0.345
Mof_N 	N 	0.9441	0.3908	0.082	-0.2
Mof_N 	N 	0.9906	0.3777	0.077	-0.202
Mof_N 	N 	0.9481	0.3177	0.869	-0.245
Mof_C 	C 	0.9213	0.3542	0.962	0.151
Mof_H 	H 	0.8888	0.3535	0.9415	-0.135
Mof_C 	C 	0.9905	0.3348	0.95	0.163
Mof_C 	C 	0.033	0.307	0.84	0.163
Mof_H 	H 	0.0553	0.3279	0.7238	-0.05
Mof_H 	H 	0.0468	0.294	0.066	-0.027
Mof_H 	H 	0.0244	0.2829	0.6716	-0.052
Mof_C 	C 	0.8702	0.355	0.88	0.145
Mof_H 	H 	0.8564	0.3828	0.9854	-0.042
Mof_H 	H 	0.8658	0.3559	0.6061	-0.045
Mof_H 	H 	0.8555	0.3278	0.9778	-0.053
Mof_H 	H 	0.0178	0.3174	0.9195	-0.148
Mof_Ag	Ag	0.75	0.9281	0.375	0.454
Mof_Ag	Ag	0.25	0.4281	0.875	0.448
Mof_Ag	Ag	0.25	0.0719	0.375	0.454
Mof_Ag	Ag	0.75	0.5719	0.875	0.448
Mof_Ag	Ag	0.9281	0.25	0.625	0.454
Mof_Ag	Ag	0.0719	0.75	0.625	0.454
Mof_Ag	Ag	0.5719	0.25	0.125	0.448
Mof_Ag	Ag	0.4281	0.75	0.125	0.448
_end
