data_functionalizedCrystal
_audit_creation_method	'EQeq! by Chris Wilmer'
_symmetry_space_group_name_H-M	'P1'
_symmetry_Int_Tables_number	1
_symmetry_cell_setting	triclinic
loop_
_symmetry_equiv_pos_as_xyz
  x,y,z
_cell_length_a	7.7286
_cell_length_b	7.5874
_cell_length_c	17.9816
_cell_angle_alpha	90
_cell_angle_beta	98.214
_cell_angle_gamma	90
loop_
_atom_site_label
_atom_site_type_symbol
_atom_site_fract_x
_atom_site_fract_y
_atom_site_fract_z
_atom_site_charge
Mof_Fe	Fe	0.62459	0.93867	0.36313	0.873
Mof_Fe	Fe	0.72445	0.81528	0.6925	0.879
Mof_P 	P 	0.55016	0.07134	0.1901	0.6
Mof_H 	H 	0.658	0.1403	0.2011	-0.149
Mof_O 	O 	0.4231	0.1797	0.13555	-0.343
Mof_O 	O 	0.2077	0.6538	0.12343	-0.293
Mof_O 	O 	0.5934	0.9614	0.59293	-0.372
Mof_O 	O 	0.479	0.0455	0.26443	-0.434
Mof_O 	O 	0.2989	0.0909	0.51394	-0.274
Mof_O 	O 	0.1549	0.3592	0.20149	-0.337
Mof_O 	O 	0.5973	0.9011	0.15513	-0.351
Mof_O 	O 	0.8977	0.4717	0.22425	-0.297
Mof_O 	O 	0.9476	0.7529	0.14086	-0.268
Mof_C 	C 	0.0369	0.4753	0.1963	0.25
Mof_C 	C 	0.0668	0.6412	0.1495	0.247
Mof_C 	C 	0.5864	0.9618	0.5218	0.266
Mof_Fe	Fe	0.37541	0.43867	0.13687	0.875
Mof_Fe	Fe	0.27555	0.31528	0.8075	0.88
Mof_P 	P 	0.44984	0.57134	0.3099	0.6
Mof_H 	H 	0.342	0.6403	0.2989	-0.149
Mof_O 	O 	0.5769	0.6797	0.36445	-0.343
Mof_O 	O 	0.7923	0.1538	0.37657	-0.293
Mof_O 	O 	0.4066	0.4614	0.90707	-0.372
Mof_O 	O 	0.521	0.5455	0.23557	-0.434
Mof_O 	O 	0.7011	0.5909	0.98606	-0.274
Mof_O 	O 	0.8451	0.8592	0.29851	-0.336
Mof_O 	O 	0.4027	0.4011	0.34487	-0.351
Mof_O 	O 	0.1023	0.9717	0.27575	-0.295
Mof_O 	O 	0.0524	0.2529	0.35914	-0.269
Mof_C 	C 	0.9631	0.9753	0.3037	0.247
Mof_C 	C 	0.9332	0.1412	0.3505	0.25
Mof_C 	C 	0.4136	0.4618	0.9782	0.266
Mof_Fe	Fe	0.37541	0.06133	0.63687	0.874
Mof_Fe	Fe	0.27555	0.18472	0.3075	0.88
Mof_P 	P 	0.44984	0.92866	0.8099	0.6
Mof_H 	H 	0.342	0.8597	0.7989	-0.149
Mof_O 	O 	0.5769	0.8203	0.86445	-0.343
Mof_O 	O 	0.7923	0.3462	0.87657	-0.293
Mof_O 	O 	0.4066	0.0386	0.40707	-0.372
Mof_O 	O 	0.521	0.9545	0.73557	-0.434
Mof_O 	O 	0.7011	0.9091	0.48606	-0.274
Mof_O 	O 	0.8451	0.6408	0.79851	-0.337
Mof_O 	O 	0.4027	0.0989	0.84487	-0.351
Mof_O 	O 	0.1023	0.5283	0.77575	-0.297
Mof_O 	O 	0.0524	0.2471	0.85914	-0.268
Mof_C 	C 	0.9631	0.5247	0.8037	0.25
Mof_C 	C 	0.9332	0.3588	0.8505	0.247
Mof_C 	C 	0.4136	0.0382	0.4782	0.266
Mof_Fe	Fe	0.62459	0.56133	0.86313	0.875
Mof_Fe	Fe	0.72445	0.68472	0.1925	0.88
Mof_P 	P 	0.55016	0.42866	0.6901	0.6
Mof_H 	H 	0.658	0.3597	0.7011	-0.149
Mof_O 	O 	0.4231	0.3203	0.63555	-0.343
Mof_O 	O 	0.2077	0.8462	0.62343	-0.293
Mof_O 	O 	0.5934	0.5386	0.09293	-0.372
Mof_O 	O 	0.479	0.4545	0.76443	-0.434
Mof_O 	O 	0.2989	0.4091	0.01394	-0.274
Mof_O 	O 	0.1549	0.1408	0.70149	-0.336
Mof_O 	O 	0.5973	0.5989	0.65513	-0.351
Mof_O 	O 	0.8977	0.0283	0.72425	-0.295
Mof_O 	O 	0.9476	0.7471	0.64086	-0.269
Mof_C 	C 	0.0369	0.0247	0.6963	0.247
Mof_C 	C 	0.0668	0.8588	0.6495	0.25
Mof_C 	C 	0.5864	0.5382	0.0218	0.266
_end
