data_functionalizedCrystal
_audit_creation_method	'EQeq! by Chris Wilmer'
_symmetry_space_group_name_H-M	'P1'
_symmetry_Int_Tables_number	1
_symmetry_cell_setting	triclinic
loop_
_symmetry_equiv_pos_as_xyz
  x,y,z
_cell_length_a	7.2835
_cell_length_b	7.2835
_cell_length_c	8.2172
_cell_angle_alpha	90
_cell_angle_beta	90
_cell_angle_gamma	120
loop_
_atom_site_label
_atom_site_type_symbol
_atom_site_fract_x
_atom_site_fract_y
_atom_site_fract_z
_atom_site_charge
Mof_O 	O 	0.89071	0.31048	0.89425	-0.289
Mof_O 	O 	0.68952	0.58023	0.89425	-0.317
Mof_O 	O 	0.41977	0.10929	0.89425	-0.325
Mof_O 	O 	0.10929	0.68952	0.39425	-0.427
Mof_O 	O 	0.31048	0.41977	0.39425	-0.467
Mof_O 	O 	0.58023	0.89071	0.39425	-0.361
Mof_O 	O 	0.31048	0.89071	0.10575	-0.344
Mof_O 	O 	0.58023	0.68952	0.10575	-0.401
Mof_O 	O 	0.10929	0.41977	0.10575	-0.418
Mof_O 	O 	0.68952	0.10929	0.60575	-0.418
Mof_O 	O 	0.41977	0.31048	0.60575	-0.459
Mof_O 	O 	0.89071	0.58023	0.60575	-0.375
Mof_Mg	Mg	0.66667	0.33333	0.75	1.479
Mof_Mg	Mg	0.33333	0.66667	0.25	1.478
Mof_C 	C 	-3.76431e-17	0.439	-0	0.285
Mof_H 	H 	3.76431e-17	0.5667	-0	-0.089
Mof_C 	C 	0.561	0.561	-0	0.369
Mof_H 	H 	0.4333	0.4333	-0	-0.112
Mof_C 	C 	0.439	0	-0	0.242
Mof_H 	H 	0.5667	0	-0	-0.084
Mof_C 	C 	-3.14388e-17	0.561	0.5	0.445
Mof_H 	H 	6.20426e-18	0.4333	0.5	-0.12
Mof_C 	C 	0.439	0.439	0.5	0.537
Mof_H 	H 	0.5667	0.5667	0.5	-0.123
Mof_C 	C 	0.561	0	0.5	0.408
Mof_H 	H 	0.4333	0	0.5	-0.114
_end
