# CIF file generated by openbabel 3.1.0, see https://openbabel.org
data_I
_chemical_name_common 'image0'
_cell_length_a 18.819
_cell_length_b 18.819
_cell_length_c 38.603
_cell_angle_alpha 90
_cell_angle_beta 90
_cell_angle_gamma 120
_space_group_name_H-M_alt 'P 1'
_space_group_name_Hall 'P 1'
loop_
    _symmetry_equiv_pos_as_xyz
    x,y,z
loop_
    _atom_site_label
    _atom_site_type_symbol
    _atom_site_fract_x
    _atom_site_fract_y
    _atom_site_fract_z
    _atom_site_occupancy
    C1       C        0.76098    0.97274    0.30740    1.000
    C2       C        0.81992    0.05228    0.29015    1.000
    C3       C        0.80553    0.06680    0.25632    1.000
    H1       H        0.75750    0.02900    0.24520    1.000
    C4       C        0.91020    0.18700    0.17810    1.000
    C5       C        0.86790    0.22980    0.19010    1.000
    N1       N        0.99260    0.19700    0.18170    1.000
    O1       O        0.77750    0.96167    0.33775    1.000
    O2       O        0.69971    0.92281    0.28981    1.000
    S1       S        0.04430    0.24360    0.14788    1.000
    N2       N        0.89740    0.30190    0.21040    1.000
    C6       C        0.42765    0.30607    0.64073    1.000
    C7       C        0.48659    0.38561    0.62348    1.000
    C8       C        0.47220    0.40013    0.58965    1.000
    H2       H        0.42417    0.36233    0.57853    1.000
    C9       C        0.57687    0.52033    0.51143    1.000
    C10      C        0.53457    0.56313    0.52343    1.000
    N3       N        0.65927    0.53033    0.51503    1.000
    O3       O        0.44417    0.29500    0.67108    1.000
    O4       O        0.36638    0.25614    0.62314    1.000
    S2       S        0.71097    0.57693    0.48121    1.000
    N4       N        0.56407    0.63523    0.54373    1.000
    C11      C        0.09431    0.63941    0.97407    1.000
    C12      C        0.15325    0.71895    0.95682    1.000
    C13      C        0.13886    0.73347    0.92299    1.000
    H3       H        0.09083    0.69567    0.91187    1.000
    C14      C        0.24353    0.85367    0.84477    1.000
    C15      C        0.20123    0.89647    0.85677    1.000
    N5       N        0.32593    0.86367    0.84837    1.000
    O5       O        0.11083    0.62834    0.00442    1.000
    O6       O        0.03304    0.58948    0.95648    1.000
    S3       S        0.37763    0.91027    0.81455    1.000
    N6       N        0.23073    0.96857    0.87707    1.000
    C16      C        0.02726    0.78824    0.30740    1.000
    C17      C        0.94772    0.76764    0.29015    1.000
    C18      C        0.93320    0.73873    0.25632    1.000
    H4       H        0.97100    0.72850    0.24520    1.000
    C19      C        0.81300    0.72320    0.17810    1.000
    C20      C        0.77020    0.63810    0.19010    1.000
    N7       N        0.80300    0.79560    0.18170    1.000
    O7       O        0.03833    0.81583    0.33775    1.000
    O8       O        0.07719    0.77690    0.28981    1.000
    S4       S        0.75640    0.80070    0.14788    1.000
    N8       N        0.69810    0.59550    0.21040    1.000
    C21      C        0.69393    0.12157    0.64073    1.000
    C22      C        0.61439    0.10097    0.62348    1.000
    C23      C        0.59987    0.07206    0.58965    1.000
    H5       H        0.63767    0.06183    0.57853    1.000
    C24      C        0.47967    0.05653    0.51143    1.000
    C25      C        0.43687    0.97143    0.52343    1.000
    N9       N        0.46967    0.12893    0.51503    1.000
    O9       O        0.70500    0.14916    0.67108    1.000
    O10      O        0.74386    0.11023    0.62314    1.000
    S5       S        0.42307    0.13403    0.48121    1.000
    N10      N        0.36477    0.92883    0.54373    1.000
    C26      C        0.36059    0.45491    0.97407    1.000
    C27      C        0.28105    0.43431    0.95682    1.000
    C28      C        0.26653    0.40540    0.92299    1.000
    H6       H        0.30433    0.39517    0.91187    1.000
    C29      C        0.14633    0.38987    0.84477    1.000
    C30      C        0.10353    0.30477    0.85677    1.000
    N11      N        0.13633    0.46227    0.84837    1.000
    O11      O        0.37166    0.48250    0.00442    1.000
    O12      O        0.41052    0.44357    0.95648    1.000
    S6       S        0.08973    0.46737    0.81455    1.000
    N12      N        0.03143    0.26217    0.87707    1.000
    C31      C        0.21176    0.23902    0.30740    1.000
    C32      C        0.23236    0.18008    0.29015    1.000
    C33      C        0.26127    0.19447    0.25632    1.000
    H7       H        0.27150    0.24250    0.24520    1.000
    C34      C        0.27680    0.08980    0.17810    1.000
    C35      C        0.36190    0.13210    0.19010    1.000
    N13      N        0.20440    0.00740    0.18170    1.000
    O13      O        0.18417    0.22250    0.33775    1.000
    O14      O        0.22310    0.30029    0.28981    1.000
    S7       S        0.19930    0.95570    0.14788    1.000
    N14      N        0.40450    0.10260    0.21040    1.000
    C36      C        0.87843    0.57235    0.64073    1.000
    C37      C        0.89903    0.51341    0.62348    1.000
    C38      C        0.92794    0.52780    0.58965    1.000
    H8       H        0.93817    0.57583    0.57853    1.000
    C39      C        0.94347    0.42313    0.51143    1.000
    C40      C        0.02857    0.46543    0.52343    1.000
    N15      N        0.87107    0.34073    0.51503    1.000
    O15      O        0.85084    0.55583    0.67108    1.000
    O16      O        0.88977    0.63362    0.62314    1.000
    S8       S        0.86597    0.28903    0.48121    1.000
    N16      N        0.07117    0.43593    0.54373    1.000
    C41      C        0.54509    0.90569    0.97407    1.000
    C42      C        0.56569    0.84675    0.95682    1.000
    C43      C        0.59460    0.86114    0.92299    1.000
    H9       H        0.60483    0.90917    0.91187    1.000
    C44      C        0.61013    0.75647    0.84477    1.000
    C45      C        0.69523    0.79877    0.85677    1.000
    N17      N        0.53773    0.67407    0.84837    1.000
    O17      O        0.51750    0.88917    0.00442    1.000
    O18      O        0.55643    0.96696    0.95648    1.000
    S9       S        0.53263    0.62237    0.81455    1.000
    N18      N        0.73783    0.76927    0.87707    1.000
    C46      C        0.97274    0.76098    0.69260    1.000
    C47      C        0.05228    0.81992    0.70985    1.000
    C48      C        0.06680    0.80553    0.74368    1.000
    H10      H        0.02900    0.75750    0.75480    1.000
    C49      C        0.18700    0.91020    0.82190    1.000
    C50      C        0.22980    0.86790    0.80990    1.000
    N19      N        0.19700    0.99260    0.81830    1.000
    O19      O        0.96167    0.77750    0.66225    1.000
    O20      O        0.92281    0.69971    0.71019    1.000
    S10      S        0.24360    0.04430    0.85212    1.000
    N20      N        0.30190    0.89740    0.78960    1.000
    C51      C        0.63941    0.09431    0.02593    1.000
    C52      C        0.71895    0.15325    0.04318    1.000
    C53      C        0.73347    0.13886    0.07701    1.000
    H11      H        0.69567    0.09083    0.08813    1.000
    C54      C        0.85367    0.24353    0.15523    1.000
    C55      C        0.89647    0.20123    0.14323    1.000
    N21      N        0.86367    0.32593    0.15163    1.000
    O21      O        0.62834    0.11083    0.99558    1.000
    O22      O        0.58948    0.03304    0.04352    1.000
    S11      S        0.91027    0.37763    0.18545    1.000
    N22      N        0.96857    0.23073    0.12293    1.000
    C56      C        0.30607    0.42765    0.35927    1.000
    C57      C        0.38561    0.48659    0.37652    1.000
    C58      C        0.40013    0.47220    0.41035    1.000
    H12      H        0.36233    0.42417    0.42147    1.000
    C59      C        0.52033    0.57687    0.48857    1.000
    C60      C        0.56313    0.53457    0.47657    1.000
    N23      N        0.53033    0.65927    0.48497    1.000
    O23      O        0.29500    0.44417    0.32892    1.000
    O24      O        0.25614    0.36638    0.37686    1.000
    S12      S        0.57693    0.71097    0.51879    1.000
    N24      N        0.63523    0.56407    0.45627    1.000
    C61      C        0.78824    0.02726    0.69260    1.000
    C62      C        0.76764    0.94772    0.70985    1.000
    C63      C        0.73873    0.93320    0.74368    1.000
    H13      H        0.72850    0.97100    0.75480    1.000
    C64      C        0.72320    0.81300    0.82190    1.000
    C65      C        0.63810    0.77020    0.80990    1.000
    N25      N        0.79560    0.80300    0.81830    1.000
    O25      O        0.81583    0.03833    0.66225    1.000
    O26      O        0.77690    0.07719    0.71019    1.000
    S13      S        0.80070    0.75640    0.85212    1.000
    N26      N        0.59550    0.69810    0.78960    1.000
    C66      C        0.45491    0.36059    0.02593    1.000
    C67      C        0.43431    0.28105    0.04318    1.000
    C68      C        0.40540    0.26653    0.07701    1.000
    H14      H        0.39517    0.30433    0.08813    1.000
    C69      C        0.38987    0.14633    0.15523    1.000
    C70      C        0.30477    0.10353    0.14323    1.000
    N27      N        0.46227    0.13633    0.15163    1.000
    O27      O        0.48250    0.37166    0.99558    1.000
    O28      O        0.44357    0.41052    0.04352    1.000
    S14      S        0.46737    0.08973    0.18545    1.000
    N28      N        0.26217    0.03143    0.12293    1.000
    C71      C        0.12157    0.69393    0.35927    1.000
    C72      C        0.10097    0.61439    0.37652    1.000
    C73      C        0.07206    0.59987    0.41035    1.000
    H15      H        0.06183    0.63767    0.42147    1.000
    C74      C        0.05653    0.47967    0.48857    1.000
    C75      C        0.97143    0.43687    0.47657    1.000
    N29      N        0.12893    0.46967    0.48497    1.000
    O29      O        0.14916    0.70500    0.32892    1.000
    O30      O        0.11023    0.74386    0.37686    1.000
    S15      S        0.13403    0.42307    0.51879    1.000
    N30      N        0.92883    0.36477    0.45627    1.000
    C76      C        0.23902    0.21176    0.69260    1.000
    C77      C        0.18008    0.23236    0.70985    1.000
    C78      C        0.19447    0.26127    0.74368    1.000
    H16      H        0.24250    0.27150    0.75480    1.000
    C79      C        0.08980    0.27680    0.82190    1.000
    C80      C        0.13210    0.36190    0.80990    1.000
    N31      N        0.00740    0.20440    0.81830    1.000
    O31      O        0.22250    0.18417    0.66225    1.000
    O32      O        0.30029    0.22310    0.71019    1.000
    S16      S        0.95570    0.19930    0.85212    1.000
    N32      N        0.10260    0.40450    0.78960    1.000
    C81      C        0.90569    0.54509    0.02593    1.000
    C82      C        0.84675    0.56569    0.04318    1.000
    C83      C        0.86114    0.59460    0.07701    1.000
    H17      H        0.90917    0.60483    0.08813    1.000
    C84      C        0.75647    0.61013    0.15523    1.000
    C85      C        0.79877    0.69523    0.14323    1.000
    N33      N        0.67407    0.53773    0.15163    1.000
    O33      O        0.88917    0.51750    0.99558    1.000
    O34      O        0.96696    0.55643    0.04352    1.000
    S17      S        0.62237    0.53263    0.18545    1.000
    N34      N        0.76927    0.73783    0.12293    1.000
    C86      C        0.57235    0.87843    0.35927    1.000
    C87      C        0.51341    0.89903    0.37652    1.000
    C88      C        0.52780    0.92794    0.41035    1.000
    H18      H        0.57583    0.93817    0.42147    1.000
    C89      C        0.42313    0.94347    0.48857    1.000
    C90      C        0.46543    0.02857    0.47657    1.000
    N35      N        0.34073    0.87107    0.48497    1.000
    O35      O        0.55583    0.85084    0.32892    1.000
    O36      O        0.63362    0.88977    0.37686    1.000
    S18      S        0.28903    0.86597    0.51879    1.000
    N36      N        0.43593    0.07117    0.45627    1.000
    C91      C        0.23902    0.02726    0.69260    1.000
    C92      C        0.18008    0.94772    0.70985    1.000
    C93      C        0.19447    0.93320    0.74368    1.000
    H19      H        0.24250    0.97100    0.75480    1.000
    C94      C        0.08980    0.81300    0.82190    1.000
    C95      C        0.13210    0.77020    0.80990    1.000
    N37      N        0.00740    0.80300    0.81830    1.000
    O37      O        0.22250    0.03833    0.66225    1.000
    O38      O        0.30029    0.07719    0.71019    1.000
    S19      S        0.95570    0.75640    0.85212    1.000
    N38      N        0.10260    0.69810    0.78960    1.000
    C96      C        0.90569    0.36059    0.02593    1.000
    C97      C        0.84675    0.28105    0.04318    1.000
    C98      C        0.86114    0.26653    0.07701    1.000
    H20      H        0.90917    0.30433    0.08813    1.000
    C99      C        0.75647    0.14633    0.15523    1.000
    C100     C        0.79877    0.10353    0.14323    1.000
    N39      N        0.67407    0.13633    0.15163    1.000
    O39      O        0.88917    0.37166    0.99558    1.000
    O40      O        0.96696    0.41052    0.04352    1.000
    S20      S        0.62237    0.08973    0.18545    1.000
    N40      N        0.76927    0.03143    0.12293    1.000
    C101     C        0.57235    0.69393    0.35927    1.000
    C102     C        0.51341    0.61439    0.37652    1.000
    C103     C        0.52780    0.59987    0.41035    1.000
    H21      H        0.57583    0.63767    0.42147    1.000
    C104     C        0.42313    0.47967    0.48857    1.000
    C105     C        0.46543    0.43687    0.47657    1.000
    N41      N        0.34073    0.46967    0.48497    1.000
    O41      O        0.55583    0.70500    0.32892    1.000
    O42      O        0.63362    0.74386    0.37686    1.000
    S21      S        0.28903    0.42307    0.51879    1.000
    N42      N        0.43593    0.36477    0.45627    1.000
    C106     C        0.97274    0.21176    0.69260    1.000
    C107     C        0.05228    0.23236    0.70985    1.000
    C108     C        0.06680    0.26127    0.74368    1.000
    H22      H        0.02900    0.27150    0.75480    1.000
    C109     C        0.18700    0.27680    0.82190    1.000
    C110     C        0.22980    0.36190    0.80990    1.000
    N43      N        0.19700    0.20440    0.81830    1.000
    O43      O        0.96167    0.18417    0.66225    1.000
    O44      O        0.92281    0.22310    0.71019    1.000
    S22      S        0.24360    0.19930    0.85212    1.000
    N44      N        0.30190    0.40450    0.78960    1.000
    C111     C        0.63941    0.54509    0.02593    1.000
    C112     C        0.71895    0.56569    0.04318    1.000
    C113     C        0.73347    0.59460    0.07701    1.000
    H23      H        0.69567    0.60483    0.08813    1.000
    C114     C        0.85367    0.61013    0.15523    1.000
    C115     C        0.89647    0.69523    0.14323    1.000
    N45      N        0.86367    0.53773    0.15163    1.000
    O45      O        0.62834    0.51750    0.99558    1.000
    O46      O        0.58948    0.55643    0.04352    1.000
    S23      S        0.91027    0.53263    0.18545    1.000
    N46      N        0.96857    0.73783    0.12293    1.000
    C116     C        0.30607    0.87843    0.35927    1.000
    C117     C        0.38561    0.89903    0.37652    1.000
    C118     C        0.40013    0.92794    0.41035    1.000
    H24      H        0.36233    0.93817    0.42147    1.000
    C119     C        0.52033    0.94347    0.48857    1.000
    C120     C        0.56313    0.02857    0.47657    1.000
    N47      N        0.53033    0.87107    0.48497    1.000
    O47      O        0.29500    0.85084    0.32892    1.000
    O48      O        0.25614    0.88977    0.37686    1.000
    S24      S        0.57693    0.86597    0.51879    1.000
    N48      N        0.63523    0.07117    0.45627    1.000
    C121     C        0.78824    0.76098    0.69260    1.000
    C122     C        0.76764    0.81992    0.70985    1.000
    C123     C        0.73873    0.80553    0.74368    1.000
    H25      H        0.72850    0.75750    0.75480    1.000
    C124     C        0.72320    0.91020    0.82190    1.000
    C125     C        0.63810    0.86790    0.80990    1.000
    N49      N        0.79560    0.99260    0.81830    1.000
    O49      O        0.81583    0.77750    0.66225    1.000
    O50      O        0.77690    0.69971    0.71019    1.000
    S25      S        0.80070    0.04430    0.85212    1.000
    N50      N        0.59550    0.89740    0.78960    1.000
    C126     C        0.45491    0.09431    0.02593    1.000
    C127     C        0.43431    0.15325    0.04318    1.000
    C128     C        0.40540    0.13886    0.07701    1.000
    H26      H        0.39517    0.09083    0.08813    1.000
    C129     C        0.38987    0.24353    0.15523    1.000
    C130     C        0.30477    0.20123    0.14323    1.000
    N51      N        0.46227    0.32593    0.15163    1.000
    O51      O        0.48250    0.11083    0.99558    1.000
    O52      O        0.44357    0.03304    0.04352    1.000
    S26      S        0.46737    0.37763    0.18545    1.000
    N52      N        0.26217    0.23073    0.12293    1.000
    C131     C        0.12157    0.42765    0.35927    1.000
    C132     C        0.10097    0.48659    0.37652    1.000
    C133     C        0.07206    0.47220    0.41035    1.000
    H27      H        0.06183    0.42417    0.42147    1.000
    C134     C        0.05653    0.57687    0.48857    1.000
    C135     C        0.97143    0.53457    0.47657    1.000
    N53      N        0.12893    0.65927    0.48497    1.000
    O53      O        0.14916    0.44417    0.32892    1.000
    O54      O        0.11023    0.36638    0.37686    1.000
    S27      S        0.13403    0.71097    0.51879    1.000
    N54      N        0.92883    0.56407    0.45627    1.000
    C136     C        0.02726    0.23902    0.30740    1.000
    C137     C        0.94772    0.18008    0.29015    1.000
    C138     C        0.93320    0.19447    0.25632    1.000
    H28      H        0.97100    0.24250    0.24520    1.000
    C139     C        0.81300    0.08980    0.17810    1.000
    C140     C        0.77020    0.13210    0.19010    1.000
    N55      N        0.80300    0.00740    0.18170    1.000
    O55      O        0.03833    0.22250    0.33775    1.000
    O56      O        0.07719    0.30029    0.28981    1.000
    S28      S        0.75640    0.95570    0.14788    1.000
    N56      N        0.69810    0.10260    0.21040    1.000
    C141     C        0.69393    0.57235    0.64073    1.000
    C142     C        0.61439    0.51341    0.62348    1.000
    C143     C        0.59987    0.52780    0.58965    1.000
    H29      H        0.63767    0.57583    0.57853    1.000
    C144     C        0.47967    0.42313    0.51143    1.000
    C145     C        0.43687    0.46543    0.52343    1.000
    N57      N        0.46967    0.34073    0.51503    1.000
    O57      O        0.70500    0.55583    0.67108    1.000
    O58      O        0.74386    0.63362    0.62314    1.000
    S29      S        0.42307    0.28903    0.48121    1.000
    N58      N        0.36477    0.43593    0.54373    1.000
    C146     C        0.36059    0.90569    0.97407    1.000
    C147     C        0.28105    0.84675    0.95682    1.000
    C148     C        0.26653    0.86114    0.92299    1.000
    H30      H        0.30433    0.90917    0.91187    1.000
    C149     C        0.14633    0.75647    0.84477    1.000
    C150     C        0.10353    0.79877    0.85677    1.000
    N59      N        0.13633    0.67407    0.84837    1.000
    O59      O        0.37166    0.88917    0.00442    1.000
    O60      O        0.41052    0.96696    0.95648    1.000
    S30      S        0.08973    0.62237    0.81455    1.000
    N60      N        0.03143    0.76927    0.87707    1.000
    C151     C        0.21176    0.97274    0.30740    1.000
    C152     C        0.23236    0.05228    0.29015    1.000
    C153     C        0.26127    0.06680    0.25632    1.000
    H31      H        0.27150    0.02900    0.24520    1.000
    C154     C        0.27680    0.18700    0.17810    1.000
    C155     C        0.36190    0.22980    0.19010    1.000
    N61      N        0.20440    0.19700    0.18170    1.000
    O61      O        0.18417    0.96167    0.33775    1.000
    O62      O        0.22310    0.92281    0.28981    1.000
    S31      S        0.19930    0.24360    0.14788    1.000
    N62      N        0.40450    0.30190    0.21040    1.000
    C156     C        0.87843    0.30607    0.64073    1.000
    C157     C        0.89903    0.38561    0.62348    1.000
    C158     C        0.92794    0.40013    0.58965    1.000
    H32      H        0.93817    0.36233    0.57853    1.000
    C159     C        0.94347    0.52033    0.51143    1.000
    C160     C        0.02857    0.56313    0.52343    1.000
    N63      N        0.87107    0.53033    0.51503    1.000
    O63      O        0.85084    0.29500    0.67108    1.000
    O64      O        0.88977    0.25614    0.62314    1.000
    S32      S        0.86597    0.57693    0.48121    1.000
    N64      N        0.07117    0.63523    0.54373    1.000
    C161     C        0.54509    0.63941    0.97407    1.000
    C162     C        0.56569    0.71895    0.95682    1.000
    C163     C        0.59460    0.73347    0.92299    1.000
    H33      H        0.60483    0.69567    0.91187    1.000
    C164     C        0.61013    0.85367    0.84477    1.000
    C165     C        0.69523    0.89647    0.85677    1.000
    N65      N        0.53773    0.86367    0.84837    1.000
    O65      O        0.51750    0.62834    0.00442    1.000
    O66      O        0.55643    0.58948    0.95648    1.000
    S33      S        0.53263    0.91027    0.81455    1.000
    N66      N        0.73783    0.96857    0.87707    1.000
    C166     C        0.76098    0.78824    0.30740    1.000
    C167     C        0.81992    0.76764    0.29015    1.000
    C168     C        0.80553    0.73873    0.25632    1.000
    H34      H        0.75750    0.72850    0.24520    1.000
    C169     C        0.91020    0.72320    0.17810    1.000
    C170     C        0.86790    0.63810    0.19010    1.000
    N67      N        0.99260    0.79560    0.18170    1.000
    O67      O        0.77750    0.81583    0.33775    1.000
    O68      O        0.69971    0.77690    0.28981    1.000
    S34      S        0.04430    0.80070    0.14788    1.000
    N68      N        0.89740    0.59550    0.21040    1.000
    C171     C        0.42765    0.12157    0.64073    1.000
    C172     C        0.48659    0.10097    0.62348    1.000
    C173     C        0.47220    0.07206    0.58965    1.000
    H35      H        0.42417    0.06183    0.57853    1.000
    C174     C        0.57687    0.05653    0.51143    1.000
    C175     C        0.53457    0.97143    0.52343    1.000
    N69      N        0.65927    0.12893    0.51503    1.000
    O69      O        0.44417    0.14916    0.67108    1.000
    O70      O        0.36638    0.11023    0.62314    1.000
    S35      S        0.71097    0.13403    0.48121    1.000
    N70      N        0.56407    0.92883    0.54373    1.000
    C176     C        0.09431    0.45491    0.97407    1.000
    C177     C        0.15325    0.43431    0.95682    1.000
    C178     C        0.13886    0.40540    0.92299    1.000
    H36      H        0.09083    0.39517    0.91187    1.000
    C179     C        0.24353    0.38987    0.84477    1.000
    C180     C        0.20123    0.30477    0.85677    1.000
    N71      N        0.32593    0.46227    0.84837    1.000
    O71      O        0.11083    0.48250    0.00442    1.000
    O72      O        0.03304    0.44357    0.95648    1.000
    S36      S        0.37763    0.46737    0.81455    1.000
    N72      N        0.23073    0.26217    0.87707    1.000
    C181     C        0.89135    0.10865    0.30705    1.000
    H37      H        0.90140    0.09860    0.32960    1.000
    C182     C        0.86235    0.13765    0.23871    1.000
    C183     C        0.84740    0.15260    0.20237    1.000
    C184     C        0.55802    0.44198    0.64038    1.000
    H38      H        0.56807    0.43193    0.66293    1.000
    C185     C        0.52902    0.47098    0.57204    1.000
    C186     C        0.51407    0.48593    0.53570    1.000
    C187     C        0.22468    0.77532    0.97372    1.000
    H39      H        0.23473    0.76527    0.99627    1.000
    C188     C        0.19568    0.80432    0.90538    1.000
    C189     C        0.18073    0.81927    0.86904    1.000
    C190     C        0.89135    0.78270    0.30705    1.000
    H40      H        0.90140    0.80280    0.32960    1.000
    C191     C        0.86235    0.72470    0.23871    1.000
    C192     C        0.84740    0.69480    0.20237    1.000
    C193     C        0.55802    0.11603    0.64038    1.000
    H41      H        0.56807    0.13613    0.66293    1.000
    C194     C        0.52902    0.05803    0.57204    1.000
    C195     C        0.51407    0.02813    0.53570    1.000
    C196     C        0.22468    0.44937    0.97372    1.000
    H42      H        0.23473    0.46947    0.99627    1.000
    C197     C        0.19568    0.39137    0.90538    1.000
    C198     C        0.18073    0.36147    0.86904    1.000
    C199     C        0.21730    0.10865    0.30705    1.000
    H43      H        0.19720    0.09860    0.32960    1.000
    C200     C        0.27530    0.13765    0.23871    1.000
    C201     C        0.30520    0.15260    0.20237    1.000
    C202     C        0.88397    0.44198    0.64038    1.000
    H44      H        0.86387    0.43193    0.66293    1.000
    C203     C        0.94197    0.47098    0.57204    1.000
    C204     C        0.97187    0.48593    0.53570    1.000
    C205     C        0.55063    0.77532    0.97372    1.000
    H45      H        0.53053    0.76527    0.99627    1.000
    C206     C        0.60863    0.80432    0.90538    1.000
    C207     C        0.63853    0.81927    0.86904    1.000
    C208     C        0.10865    0.89135    0.69295    1.000
    H46      H        0.09860    0.90140    0.67040    1.000
    C209     C        0.13765    0.86235    0.76129    1.000
    C210     C        0.15260    0.84740    0.79763    1.000
    C211     C        0.77532    0.22468    0.02628    1.000
    H47      H        0.76527    0.23473    0.00373    1.000
    C212     C        0.80432    0.19568    0.09462    1.000
    C213     C        0.81927    0.18073    0.13096    1.000
    C214     C        0.44198    0.55802    0.35962    1.000
    H48      H        0.43193    0.56807    0.33707    1.000
    C215     C        0.47098    0.52902    0.42796    1.000
    C216     C        0.48593    0.51407    0.46430    1.000
    C217     C        0.78270    0.89135    0.69295    1.000
    H49      H        0.80280    0.90140    0.67040    1.000
    C218     C        0.72470    0.86235    0.76129    1.000
    C219     C        0.69480    0.84740    0.79763    1.000
    C220     C        0.44937    0.22468    0.02628    1.000
    H50      H        0.46947    0.23473    0.00373    1.000
    C221     C        0.39137    0.19568    0.09462    1.000
    C222     C        0.36147    0.18073    0.13096    1.000
    C223     C        0.11603    0.55802    0.35962    1.000
    H51      H        0.13613    0.56807    0.33707    1.000
    C224     C        0.05803    0.52902    0.42796    1.000
    C225     C        0.02813    0.51407    0.46430    1.000
    C226     C        0.10865    0.21730    0.69295    1.000
    H52      H        0.09860    0.19720    0.67040    1.000
    C227     C        0.13765    0.27530    0.76129    1.000
    C228     C        0.15260    0.30520    0.79763    1.000
    C229     C        0.77532    0.55063    0.02628    1.000
    H53      H        0.76527    0.53053    0.00373    1.000
    C230     C        0.80432    0.60863    0.09462    1.000
    C231     C        0.81927    0.63853    0.13096    1.000
    C232     C        0.44198    0.88397    0.35962    1.000
    H54      H        0.43193    0.86387    0.33707    1.000
    C233     C        0.47098    0.94197    0.42796    1.000
    C234     C        0.48593    0.97187    0.46430    1.000
    O73      O        0.78030    0.89015    0.40982    1.000
    H55      H        0.74990    0.87495    0.42770    1.000
    Cu1      Cu       0.71230    0.85615    0.36169    1.000
    O74      O        0.44697    0.22348    0.74315    1.000
    H56      H        0.41657    0.20828    0.76103    1.000
    Cu2      Cu       0.37897    0.18948    0.69502    1.000
    O75      O        0.11363    0.55682    0.07649    1.000
    H57      H        0.08323    0.54162    0.09437    1.000
    Cu3      Cu       0.04563    0.52282    0.02835    1.000
    O76      O        0.10985    0.89015    0.40982    1.000
    H58      H        0.12505    0.87495    0.42770    1.000
    Cu4      Cu       0.14385    0.85615    0.36169    1.000
    O77      O        0.77652    0.22348    0.74315    1.000
    H59      H        0.79172    0.20828    0.76103    1.000
    Cu5      Cu       0.81052    0.18948    0.69502    1.000
    O78      O        0.44318    0.55682    0.07649    1.000
    H60      H        0.45838    0.54162    0.09437    1.000
    Cu6      Cu       0.47718    0.52282    0.02835    1.000
    O79      O        0.10985    0.21970    0.40982    1.000
    H61      H        0.12505    0.25010    0.42770    1.000
    Cu7      Cu       0.14385    0.28770    0.36169    1.000
    O80      O        0.77652    0.55303    0.74315    1.000
    H62      H        0.79172    0.58343    0.76103    1.000
    Cu8      Cu       0.81052    0.62103    0.69502    1.000
    O81      O        0.44318    0.88637    0.07649    1.000
    H63      H        0.45838    0.91677    0.09437    1.000
    Cu9      Cu       0.47718    0.95437    0.02835    1.000
    O82      O        0.89015    0.78030    0.59018    1.000
    H64      H        0.87495    0.74990    0.57230    1.000
    Cu10     Cu       0.85615    0.71230    0.63831    1.000
    O83      O        0.55682    0.11363    0.92351    1.000
    H65      H        0.54162    0.08323    0.90563    1.000
    Cu11     Cu       0.52282    0.04563    0.97165    1.000
    O84      O        0.22348    0.44697    0.25685    1.000
    H66      H        0.20828    0.41657    0.23897    1.000
    Cu12     Cu       0.18948    0.37897    0.30498    1.000
    O85      O        0.89015    0.10985    0.59018    1.000
    H67      H        0.87495    0.12505    0.57230    1.000
    Cu13     Cu       0.85615    0.14385    0.63831    1.000
    O86      O        0.55682    0.44318    0.92351    1.000
    H68      H        0.54162    0.45838    0.90563    1.000
    Cu14     Cu       0.52282    0.47718    0.97165    1.000
    O87      O        0.22348    0.77652    0.25685    1.000
    H69      H        0.20828    0.79172    0.23897    1.000
    Cu15     Cu       0.18948    0.81052    0.30498    1.000
    O88      O        0.21970    0.10985    0.59018    1.000
    H70      H        0.25010    0.12505    0.57230    1.000
    Cu16     Cu       0.28770    0.14385    0.63831    1.000
    O89      O        0.88637    0.44318    0.92351    1.000
    H71      H        0.91677    0.45838    0.90563    1.000
    Cu17     Cu       0.95437    0.47718    0.97165    1.000
    O90      O        0.55303    0.77652    0.25685    1.000
    H72      H        0.58343    0.79172    0.23897    1.000
    Cu18     Cu       0.62103    0.81052    0.30498    1.000
