# CIF file generated by openbabel 3.1.0, see https://openbabel.org
data_I
_chemical_name_common 'image0'
_cell_length_a 18.4
_cell_length_b 11.3877
_cell_length_c 18.923
_cell_angle_alpha 90
_cell_angle_beta 108.246
_cell_angle_gamma 90
_space_group_name_H-M_alt 'P 1'
_space_group_name_Hall 'P 1'
loop_
    _symmetry_equiv_pos_as_xyz
    x,y,z
loop_
    _atom_site_label
    _atom_site_type_symbol
    _atom_site_fract_x
    _atom_site_fract_y
    _atom_site_fract_z
    _atom_site_occupancy
    C1       C        0.89750    0.83010    0.92770    1.000
    C2       C        0.83040    0.75410    0.89010    1.000
    C3       C        0.79290    0.69840    0.93390    1.000
    H1       H        0.81380    0.70190    0.98540    1.000
    C4       C        0.72580    0.63790    0.90311    1.000
    H2       H        0.70100    0.60280    0.93360    1.000
    C5       C        0.69508    0.62970    0.82596    1.000
    C6       C        0.73340    0.67950    0.78160    1.000
    H3       H        0.71400    0.67070    0.73030    1.000
    C7       C        0.80090    0.74320    0.81230    1.000
    C8       C        0.61957    0.57000    0.79188    1.000
    C9       C        0.88370    0.15420    0.97140    1.000
    C10      C        0.81523    0.20570    0.98625    1.000
    C11      C        0.79050    0.15950    0.04230    1.000
    H4       H        0.82000    0.09900    0.07100    1.000
    C12      C        0.78020    0.30760    0.94810    1.000
    N1       N        0.79620    0.35670    0.88920    1.000
    H5       H        0.83200    0.33400    0.87300    1.000
    H6       H        0.78100    0.42400    0.87200    1.000
    N2       N        0.83360    0.79100    0.76290    1.000
    H7       H        0.81000    0.80200    0.71560    1.000
    H8       H        0.86800    0.84600    0.77700    1.000
    O1       O        0.92365    0.89580    0.88830    1.000
    O2       O        0.92364    0.82480    0.99753    1.000
    O3       O        0.58862    0.52210    0.83565    1.000
    O4       O        0.59127    0.56990    0.72308    1.000
    O5       O        0.92064    0.07300    0.01121    1.000
    O6       O        0.90226    0.19260    0.91736    1.000
    Nd1      Nd       0.00079    0.06512    0.89819    1.000
    C13      C        0.76910    0.29070    0.93880    1.000
    H9       H        0.77880    0.31290    0.89530    1.000
    C14      C        0.39750    0.33010    0.92770    1.000
    C15      C        0.33040    0.25410    0.89010    1.000
    C16      C        0.29290    0.19840    0.93390    1.000
    H10      H        0.31380    0.20190    0.98540    1.000
    C17      C        0.22580    0.13790    0.90311    1.000
    H11      H        0.20100    0.10280    0.93360    1.000
    C18      C        0.19508    0.12970    0.82596    1.000
    C19      C        0.23340    0.17950    0.78160    1.000
    H12      H        0.21400    0.17070    0.73030    1.000
    C20      C        0.30090    0.24320    0.81230    1.000
    C21      C        0.11957    0.07000    0.79188    1.000
    C22      C        0.38370    0.65420    0.97140    1.000
    C23      C        0.31523    0.70570    0.98625    1.000
    C24      C        0.29050    0.65950    0.04230    1.000
    H13      H        0.32000    0.59900    0.07100    1.000
    C25      C        0.28020    0.80760    0.94810    1.000
    N3       N        0.29620    0.85670    0.88920    1.000
    H14      H        0.33200    0.83400    0.87300    1.000
    H15      H        0.28100    0.92400    0.87200    1.000
    N4       N        0.33360    0.29100    0.76290    1.000
    H16      H        0.31000    0.30200    0.71560    1.000
    H17      H        0.36800    0.34600    0.77700    1.000
    O7       O        0.42365    0.39580    0.88830    1.000
    O8       O        0.42364    0.32480    0.99753    1.000
    O9       O        0.08862    0.02210    0.83565    1.000
    O10      O        0.09127    0.06990    0.72308    1.000
    O11      O        0.42064    0.57300    0.01121    1.000
    O12      O        0.40226    0.69260    0.91736    1.000
    Nd2      Nd       0.50079    0.56512    0.89819    1.000
    C26      C        0.26910    0.79070    0.93880    1.000
    H18      H        0.27880    0.81290    0.89530    1.000
    C27      C        0.10250    0.83010    0.57230    1.000
    C28      C        0.16960    0.75410    0.60990    1.000
    C29      C        0.20710    0.69840    0.56610    1.000
    H19      H        0.18620    0.70190    0.51460    1.000
    C30      C        0.27420    0.63790    0.59689    1.000
    H20      H        0.29900    0.60280    0.56640    1.000
    C31      C        0.30492    0.62970    0.67404    1.000
    C32      C        0.26660    0.67950    0.71840    1.000
    H21      H        0.28600    0.67070    0.76970    1.000
    C33      C        0.19910    0.74320    0.68770    1.000
    C34      C        0.38043    0.57000    0.70812    1.000
    C35      C        0.11630    0.15420    0.52860    1.000
    C36      C        0.18477    0.20570    0.51375    1.000
    C37      C        0.20950    0.15950    0.45770    1.000
    H22      H        0.18000    0.09900    0.42900    1.000
    C38      C        0.21980    0.30760    0.55190    1.000
    N5       N        0.20380    0.35670    0.61080    1.000
    H23      H        0.16800    0.33400    0.62700    1.000
    H24      H        0.21900    0.42400    0.62800    1.000
    N6       N        0.16640    0.79100    0.73710    1.000
    H25      H        0.19000    0.80200    0.78440    1.000
    H26      H        0.13200    0.84600    0.72300    1.000
    O13      O        0.07635    0.89580    0.61170    1.000
    O14      O        0.07636    0.82480    0.50247    1.000
    O15      O        0.41138    0.52210    0.66435    1.000
    O16      O        0.40873    0.56990    0.77692    1.000
    O17      O        0.07936    0.07300    0.48879    1.000
    O18      O        0.09774    0.19260    0.58264    1.000
    Nd3      Nd       0.99921    0.06512    0.60181    1.000
    C39      C        0.23090    0.29070    0.56120    1.000
    H27      H        0.22120    0.31290    0.60470    1.000
    C40      C        0.60250    0.33010    0.57230    1.000
    C41      C        0.66960    0.25410    0.60990    1.000
    C42      C        0.70710    0.19840    0.56610    1.000
    H28      H        0.68620    0.20190    0.51460    1.000
    C43      C        0.77420    0.13790    0.59689    1.000
    H29      H        0.79900    0.10280    0.56640    1.000
    C44      C        0.80492    0.12970    0.67404    1.000
    C45      C        0.76660    0.17950    0.71840    1.000
    H30      H        0.78600    0.17070    0.76970    1.000
    C46      C        0.69910    0.24320    0.68770    1.000
    C47      C        0.88043    0.07000    0.70812    1.000
    C48      C        0.61630    0.65420    0.52860    1.000
    C49      C        0.68477    0.70570    0.51375    1.000
    C50      C        0.70950    0.65950    0.45770    1.000
    H31      H        0.68000    0.59900    0.42900    1.000
    C51      C        0.71980    0.80760    0.55190    1.000
    N7       N        0.70380    0.85670    0.61080    1.000
    H32      H        0.66800    0.83400    0.62700    1.000
    H33      H        0.71900    0.92400    0.62800    1.000
    N8       N        0.66640    0.29100    0.73710    1.000
    H34      H        0.69000    0.30200    0.78440    1.000
    H35      H        0.63200    0.34600    0.72300    1.000
    O19      O        0.57635    0.39580    0.61170    1.000
    O20      O        0.57636    0.32480    0.50247    1.000
    O21      O        0.91138    0.02210    0.66435    1.000
    O22      O        0.90873    0.06990    0.77692    1.000
    O23      O        0.57936    0.57300    0.48879    1.000
    O24      O        0.59774    0.69260    0.58264    1.000
    Nd4      Nd       0.49921    0.56512    0.60181    1.000
    C52      C        0.73090    0.79070    0.56120    1.000
    H36      H        0.72120    0.81290    0.60470    1.000
    C53      C        0.10250    0.16990    0.07230    1.000
    C54      C        0.16960    0.24590    0.10990    1.000
    C55      C        0.20710    0.30160    0.06610    1.000
    H37      H        0.18620    0.29810    0.01460    1.000
    C56      C        0.27420    0.36210    0.09689    1.000
    H38      H        0.29900    0.39720    0.06640    1.000
    C57      C        0.30492    0.37030    0.17404    1.000
    C58      C        0.26660    0.32050    0.21840    1.000
    H39      H        0.28600    0.32930    0.26970    1.000
    C59      C        0.19910    0.25680    0.18770    1.000
    C60      C        0.38043    0.43000    0.20812    1.000
    C61      C        0.11630    0.84580    0.02860    1.000
    C62      C        0.18477    0.79430    0.01375    1.000
    C63      C        0.20950    0.84050    0.95770    1.000
    H40      H        0.18000    0.90100    0.92900    1.000
    C64      C        0.21980    0.69240    0.05190    1.000
    N9       N        0.20380    0.64330    0.11080    1.000
    H41      H        0.16800    0.66600    0.12700    1.000
    H42      H        0.21900    0.57600    0.12800    1.000
    N10      N        0.16640    0.20900    0.23710    1.000
    H43      H        0.19000    0.19800    0.28440    1.000
    H44      H        0.13200    0.15400    0.22300    1.000
    O25      O        0.07635    0.10420    0.11170    1.000
    O26      O        0.07636    0.17520    0.00247    1.000
    O27      O        0.41138    0.47790    0.16435    1.000
    O28      O        0.40873    0.43010    0.27692    1.000
    O29      O        0.07936    0.92700    0.98879    1.000
    O30      O        0.09774    0.80740    0.08264    1.000
    Nd5      Nd       0.99921    0.93488    0.10181    1.000
    C65      C        0.23090    0.70930    0.06120    1.000
    H45      H        0.22120    0.68710    0.10470    1.000
    C66      C        0.60250    0.66990    0.07230    1.000
    C67      C        0.66960    0.74590    0.10990    1.000
    C68      C        0.70710    0.80160    0.06610    1.000
    H46      H        0.68620    0.79810    0.01460    1.000
    C69      C        0.77420    0.86210    0.09689    1.000
    H47      H        0.79900    0.89720    0.06640    1.000
    C70      C        0.80492    0.87030    0.17404    1.000
    C71      C        0.76660    0.82050    0.21840    1.000
    H48      H        0.78600    0.82930    0.26970    1.000
    C72      C        0.69910    0.75680    0.18770    1.000
    C73      C        0.88043    0.93000    0.20812    1.000
    C74      C        0.61630    0.34580    0.02860    1.000
    C75      C        0.68477    0.29430    0.01375    1.000
    C76      C        0.70950    0.34050    0.95770    1.000
    H49      H        0.68000    0.40100    0.92900    1.000
    C77      C        0.71980    0.19240    0.05190    1.000
    N11      N        0.70380    0.14330    0.11080    1.000
    H50      H        0.66800    0.16600    0.12700    1.000
    H51      H        0.71900    0.07600    0.12800    1.000
    N12      N        0.66640    0.70900    0.23710    1.000
    H52      H        0.69000    0.69800    0.28440    1.000
    H53      H        0.63200    0.65400    0.22300    1.000
    O31      O        0.57635    0.60420    0.11170    1.000
    O32      O        0.57636    0.67520    0.00247    1.000
    O33      O        0.91138    0.97790    0.16435    1.000
    O34      O        0.90873    0.93010    0.27692    1.000
    O35      O        0.57936    0.42700    0.98879    1.000
    O36      O        0.59774    0.30740    0.08264    1.000
    Nd6      Nd       0.49921    0.43488    0.10181    1.000
    C78      C        0.73090    0.20930    0.06120    1.000
    H54      H        0.72120    0.18710    0.10470    1.000
    C79      C        0.89750    0.16990    0.42770    1.000
    C80      C        0.83040    0.24590    0.39010    1.000
    C81      C        0.79290    0.30160    0.43390    1.000
    H55      H        0.81380    0.29810    0.48540    1.000
    C82      C        0.72580    0.36210    0.40311    1.000
    H56      H        0.70100    0.39720    0.43360    1.000
    C83      C        0.69508    0.37030    0.32596    1.000
    C84      C        0.73340    0.32050    0.28160    1.000
    H57      H        0.71400    0.32930    0.23030    1.000
    C85      C        0.80090    0.25680    0.31230    1.000
    C86      C        0.61957    0.43000    0.29188    1.000
    C87      C        0.88370    0.84580    0.47140    1.000
    C88      C        0.81523    0.79430    0.48625    1.000
    C89      C        0.79050    0.84050    0.54230    1.000
    H58      H        0.82000    0.90100    0.57100    1.000
    C90      C        0.78020    0.69240    0.44810    1.000
    N13      N        0.79620    0.64330    0.38920    1.000
    H59      H        0.83200    0.66600    0.37300    1.000
    H60      H        0.78100    0.57600    0.37200    1.000
    N14      N        0.83360    0.20900    0.26290    1.000
    H61      H        0.81000    0.19800    0.21560    1.000
    H62      H        0.86800    0.15400    0.27700    1.000
    O37      O        0.92365    0.10420    0.38830    1.000
    O38      O        0.92364    0.17520    0.49753    1.000
    O39      O        0.58862    0.47790    0.33565    1.000
    O40      O        0.59127    0.43010    0.22308    1.000
    O41      O        0.92064    0.92700    0.51121    1.000
    O42      O        0.90226    0.80740    0.41736    1.000
    Nd7      Nd       0.00079    0.93488    0.39819    1.000
    C91      C        0.76910    0.70930    0.43880    1.000
    H63      H        0.77880    0.68710    0.39530    1.000
    C92      C        0.39750    0.66990    0.42770    1.000
    C93      C        0.33040    0.74590    0.39010    1.000
    C94      C        0.29290    0.80160    0.43390    1.000
    H64      H        0.31380    0.79810    0.48540    1.000
    C95      C        0.22580    0.86210    0.40311    1.000
    H65      H        0.20100    0.89720    0.43360    1.000
    C96      C        0.19508    0.87030    0.32596    1.000
    C97      C        0.23340    0.82050    0.28160    1.000
    H66      H        0.21400    0.82930    0.23030    1.000
    C98      C        0.30090    0.75680    0.31230    1.000
    C99      C        0.11957    0.93000    0.29188    1.000
    C100     C        0.38370    0.34580    0.47140    1.000
    C101     C        0.31523    0.29430    0.48625    1.000
    C102     C        0.29050    0.34050    0.54230    1.000
    H67      H        0.32000    0.40100    0.57100    1.000
    C103     C        0.28020    0.19240    0.44810    1.000
    N15      N        0.29620    0.14330    0.38920    1.000
    H68      H        0.33200    0.16600    0.37300    1.000
    H69      H        0.28100    0.07600    0.37200    1.000
    N16      N        0.33360    0.70900    0.26290    1.000
    H70      H        0.31000    0.69800    0.21560    1.000
    H71      H        0.36800    0.65400    0.27700    1.000
    O43      O        0.42365    0.60420    0.38830    1.000
    O44      O        0.42364    0.67520    0.49753    1.000
    O45      O        0.08862    0.97790    0.33565    1.000
    O46      O        0.09127    0.93010    0.22308    1.000
    O47      O        0.42064    0.42700    0.51121    1.000
    O48      O        0.40226    0.30740    0.41736    1.000
    Nd8      Nd       0.50079    0.43488    0.39819    1.000
    C104     C        0.26910    0.20930    0.43880    1.000
    H72      H        0.27880    0.18710    0.39530    1.000
