# CIF file generated by openbabel 3.1.0, see https://openbabel.org
data_I
_chemical_name_common 'NUYWOU_clean'
_cell_length_a 13.139
_cell_length_b 14.865
_cell_length_c 14.865
_cell_angle_alpha 90
_cell_angle_beta 90
_cell_angle_gamma 90
_space_group_name_H-M_alt 'P 1'
_space_group_name_Hall 'P 1'
loop_
    _symmetry_equiv_pos_as_xyz
    x,y,z
loop_
    _atom_site_label
    _atom_site_type_symbol
    _atom_site_fract_x
    _atom_site_fract_y
    _atom_site_fract_z
    _atom_site_occupancy
    Cd1      Cd       0.50000    0.73053    0.73053    1.000
    H1       H        0.41870    0.95350    0.68700    1.000
    H2       H        0.26990    0.99460    0.59690    1.000
    H3       H        0.29940    0.72820    0.59580    1.000
    H4       H        0.19620    0.95040    0.43960    1.000
    H5       H        0.05560    0.93120    0.34490    1.000
    H6       H        0.96630    0.72070    0.49380    1.000
    H7       H        0.10890    0.73720    0.58620    1.000
    H8       H        0.45660    0.52450    0.70130    1.000
    H9       H        0.45900    0.40320    0.59270    1.000
    H10      H        0.58130    0.68700    0.95350    1.000
    H11      H        0.73010    0.59690    0.99460    1.000
    H12      H        0.70060    0.59580    0.72820    1.000
    H13      H        0.80380    0.43960    0.95040    1.000
    H14      H        0.94440    0.34490    0.93120    1.000
    H15      H        0.03370    0.49380    0.72070    1.000
    H16      H        0.89110    0.58620    0.73720    1.000
    H17      H        0.54340    0.70130    0.52450    1.000
    H18      H        0.54100    0.59270    0.40320    1.000
    H19      H        0.50000    0.44590    0.44590    1.000
    C1       C        0.37610    0.91360    0.65700    1.000
    C2       C        0.29390    0.93680    0.60770    1.000
    C3       C        0.31120    0.78870    0.60730    1.000
    C4       C        0.16410    0.84590    0.52130    1.000
    C5       C        0.15020    0.90400    0.44990    1.000
    C6       C        0.06600    0.89230    0.39300    1.000
    C7       C        0.99840    0.82250    0.40890    1.000
    C8       C        0.01320    0.76600    0.48200    1.000
    C9       C        0.09780    0.77630    0.53840    1.000
    C10      C        0.90810    0.80740    0.34820    1.000
    C11      C        0.47500    0.53640    0.64200    1.000
    C12      C        0.47400    0.46230    0.57750    1.000
    C13      C        0.62390    0.65700    0.91360    1.000
    C14      C        0.70610    0.60770    0.93680    1.000
    C15      C        0.68880    0.60730    0.78870    1.000
    C16      C        0.83590    0.52130    0.84590    1.000
    C17      C        0.84980    0.44990    0.90400    1.000
    C18      C        0.93400    0.39300    0.89230    1.000
    C19      C        0.00160    0.40890    0.82250    1.000
    C20      C        0.98680    0.48200    0.76600    1.000
    C21      C        0.90220    0.53840    0.77630    1.000
    C22      C        0.09190    0.34820    0.80740    1.000
    C23      C        0.52500    0.64200    0.53640    1.000
    C24      C        0.52600    0.57750    0.46230    1.000
    C25      C        0.50000    0.49010    0.49010    1.000
    N1       N        0.38720    0.81990    0.65580    1.000
    N2       N        0.25270    0.85720    0.57660    1.000
    N3       N        0.61280    0.65580    0.81990    1.000
    N4       N        0.74730    0.57660    0.85720    1.000
    N5       N        0.50000    0.61980    0.61980    1.000
    O1       O        0.89870    0.85940    0.28200    1.000
    O2       O        0.84750    0.74460    0.36480    1.000
    O3       O        0.10130    0.28200    0.85940    1.000
    O4       O        0.15250    0.36480    0.74460    1.000
    Cd2      Cd       0.00000    0.26947    0.26947    1.000
    H20      H        0.91870    0.04650    0.31300    1.000
    H21      H        0.76990    0.00540    0.40310    1.000
    H22      H        0.79940    0.27180    0.40420    1.000
    H23      H        0.69620    0.04960    0.56040    1.000
    H24      H        0.55560    0.06880    0.65510    1.000
    H25      H        0.46630    0.27930    0.50620    1.000
    H26      H        0.60890    0.26280    0.41380    1.000
    H27      H        0.95660    0.47550    0.29870    1.000
    H28      H        0.95900    0.59680    0.40730    1.000
    H29      H        0.08130    0.31300    0.04650    1.000
    H30      H        0.23010    0.40310    0.00540    1.000
    H31      H        0.20060    0.40420    0.27180    1.000
    H32      H        0.30380    0.56040    0.04960    1.000
    H33      H        0.44440    0.65510    0.06880    1.000
    H34      H        0.53370    0.50620    0.27930    1.000
    H35      H        0.39110    0.41380    0.26280    1.000
    H36      H        0.04340    0.29870    0.47550    1.000
    H37      H        0.04100    0.40730    0.59680    1.000
    H38      H        0.00000    0.55410    0.55410    1.000
    C26      C        0.87610    0.08640    0.34300    1.000
    C27      C        0.79390    0.06320    0.39230    1.000
    C28      C        0.81120    0.21130    0.39270    1.000
    C29      C        0.66410    0.15410    0.47870    1.000
    C30      C        0.65020    0.09600    0.55010    1.000
    C31      C        0.56600    0.10770    0.60700    1.000
    C32      C        0.49840    0.17750    0.59110    1.000
    C33      C        0.51320    0.23400    0.51800    1.000
    C34      C        0.59780    0.22370    0.46160    1.000
    C35      C        0.40810    0.19260    0.65180    1.000
    C36      C        0.97500    0.46360    0.35800    1.000
    C37      C        0.97400    0.53770    0.42250    1.000
    C38      C        0.12390    0.34300    0.08640    1.000
    C39      C        0.20610    0.39230    0.06320    1.000
    C40      C        0.18880    0.39270    0.21130    1.000
    C41      C        0.33590    0.47870    0.15410    1.000
    C42      C        0.34980    0.55010    0.09600    1.000
    C43      C        0.43400    0.60700    0.10770    1.000
    C44      C        0.50160    0.59110    0.17750    1.000
    C45      C        0.48680    0.51800    0.23400    1.000
    C46      C        0.40220    0.46160    0.22370    1.000
    C47      C        0.59190    0.65180    0.19260    1.000
    C48      C        0.02500    0.35800    0.46360    1.000
    C49      C        0.02600    0.42250    0.53770    1.000
    C50      C        0.00000    0.50990    0.50990    1.000
    N6       N        0.88720    0.18010    0.34420    1.000
    N7       N        0.75270    0.14280    0.42340    1.000
    N8       N        0.11280    0.34420    0.18010    1.000
    N9       N        0.24730    0.42340    0.14280    1.000
    N10      N        0.00000    0.38020    0.38020    1.000
    O5       O        0.39870    0.14060    0.71800    1.000
    O6       O        0.34750    0.25540    0.63520    1.000
    O7       O        0.60130    0.71800    0.14060    1.000
    O8       O        0.65250    0.63520    0.25540    1.000
    Cd3      Cd       0.75000    0.76947    0.23053    1.000
    H39      H        0.66870    0.81300    0.45350    1.000
    H40      H        0.51990    0.90310    0.49460    1.000
    H41      H        0.54940    0.90420    0.22820    1.000
    H42      H        0.44620    0.06040    0.45040    1.000
    H43      H        0.30560    0.15510    0.43120    1.000
    H44      H        0.21630    0.00620    0.22070    1.000
    H45      H        0.35890    0.91380    0.23720    1.000
    H46      H        0.70660    0.79870    0.02450    1.000
    H47      H        0.70900    0.90730    0.90320    1.000
    H48      H        0.83130    0.54650    0.18700    1.000
    H49      H        0.98010    0.50540    0.09690    1.000
    H50      H        0.95060    0.77180    0.09580    1.000
    H51      H        0.05380    0.54960    0.93960    1.000
    H52      H        0.19440    0.56880    0.84490    1.000
    H53      H        0.28370    0.77930    0.99380    1.000
    H54      H        0.14110    0.76280    0.08620    1.000
    H55      H        0.79340    0.97550    0.20130    1.000
    H56      H        0.79100    0.09680    0.09270    1.000
    H57      H        0.75000    0.05410    0.94590    1.000
    C51      C        0.62610    0.84300    0.41360    1.000
    C52      C        0.54390    0.89230    0.43680    1.000
    C53      C        0.56120    0.89270    0.28870    1.000
    C54      C        0.41410    0.97870    0.34590    1.000
    C55      C        0.40020    0.05010    0.40400    1.000
    C56      C        0.31600    0.10700    0.39230    1.000
    C57      C        0.24840    0.09110    0.32250    1.000
    C58      C        0.26320    0.01800    0.26600    1.000
    C59      C        0.34780    0.96160    0.27630    1.000
    C60      C        0.15810    0.15180    0.30740    1.000
    C61      C        0.72500    0.85800    0.03640    1.000
    C62      C        0.72400    0.92250    0.96230    1.000
    C63      C        0.87390    0.58640    0.15700    1.000
    C64      C        0.95610    0.56320    0.10770    1.000
    C65      C        0.93880    0.71130    0.10730    1.000
    C66      C        0.08590    0.65410    0.02130    1.000
    C67      C        0.09980    0.59600    0.94990    1.000
    C68      C        0.18400    0.60770    0.89300    1.000
    C69      C        0.25160    0.67750    0.90890    1.000
    C70      C        0.23680    0.73400    0.98200    1.000
    C71      C        0.15220    0.72370    0.03840    1.000
    C72      C        0.34190    0.69260    0.84820    1.000
    C73      C        0.77500    0.96360    0.14200    1.000
    C74      C        0.77600    0.03770    0.07750    1.000
    C75      C        0.75000    0.00990    0.99010    1.000
    N11      N        0.63720    0.84420    0.31990    1.000
    N12      N        0.50270    0.92340    0.35720    1.000
    N13      N        0.86280    0.68010    0.15580    1.000
    N14      N        0.99730    0.64280    0.07660    1.000
    N15      N        0.75000    0.88020    0.11980    1.000
    O9       O        0.14870    0.21800    0.35940    1.000
    O10      O        0.09750    0.13520    0.24460    1.000
    O11      O        0.35130    0.64060    0.78200    1.000
    O12      O        0.40250    0.75540    0.86480    1.000
    Cd4      Cd       0.25000    0.23053    0.76947    1.000
    H58      H        0.16870    0.18700    0.54650    1.000
    H59      H        0.01990    0.09690    0.50540    1.000
    H60      H        0.04940    0.09580    0.77180    1.000
    H61      H        0.94620    0.93960    0.54960    1.000
    H62      H        0.80560    0.84490    0.56880    1.000
    H63      H        0.71630    0.99380    0.77930    1.000
    H64      H        0.85890    0.08620    0.76280    1.000
    H65      H        0.20660    0.20130    0.97550    1.000
    H66      H        0.20900    0.09270    0.09680    1.000
    H67      H        0.33130    0.45350    0.81300    1.000
    H68      H        0.48010    0.49460    0.90310    1.000
    H69      H        0.45060    0.22820    0.90420    1.000
    H70      H        0.55380    0.45040    0.06040    1.000
    H71      H        0.69440    0.43120    0.15510    1.000
    H72      H        0.78370    0.22070    0.00620    1.000
    H73      H        0.64110    0.23720    0.91380    1.000
    H74      H        0.29340    0.02450    0.79870    1.000
    H75      H        0.29100    0.90320    0.90730    1.000
    H76      H        0.25000    0.94590    0.05410    1.000
    C76      C        0.12610    0.15700    0.58640    1.000
    C77      C        0.04390    0.10770    0.56320    1.000
    C78      C        0.06120    0.10730    0.71130    1.000
    C79      C        0.91410    0.02130    0.65410    1.000
    C80      C        0.90020    0.94990    0.59600    1.000
    C81      C        0.81600    0.89300    0.60770    1.000
    C82      C        0.74840    0.90890    0.67750    1.000
    C83      C        0.76320    0.98200    0.73400    1.000
    C84      C        0.84780    0.03840    0.72370    1.000
    C85      C        0.65810    0.84820    0.69260    1.000
    C86      C        0.22500    0.14200    0.96360    1.000
    C87      C        0.22400    0.07750    0.03770    1.000
    C88      C        0.37390    0.41360    0.84300    1.000
    C89      C        0.45610    0.43680    0.89230    1.000
    C90      C        0.43880    0.28870    0.89270    1.000
    C91      C        0.58590    0.34590    0.97870    1.000
    C92      C        0.59980    0.40400    0.05010    1.000
    C93      C        0.68400    0.39230    0.10700    1.000
    C94      C        0.75160    0.32250    0.09110    1.000
    C95      C        0.73680    0.26600    0.01800    1.000
    C96      C        0.65220    0.27630    0.96160    1.000
    C97      C        0.84190    0.30740    0.15180    1.000
    C98      C        0.27500    0.03640    0.85800    1.000
    C99      C        0.27600    0.96230    0.92250    1.000
    C100     C        0.25000    0.99010    0.00990    1.000
    N16      N        0.13720    0.15580    0.68010    1.000
    N17      N        0.00270    0.07660    0.64280    1.000
    N18      N        0.36280    0.31990    0.84420    1.000
    N19      N        0.49730    0.35720    0.92340    1.000
    N20      N        0.25000    0.11980    0.88020    1.000
    O13      O        0.64870    0.78200    0.64060    1.000
    O14      O        0.59750    0.86480    0.75540    1.000
    O15      O        0.85130    0.35940    0.21800    1.000
    O16      O        0.90250    0.24460    0.13520    1.000
