data_functionalizedCrystal
_audit_creation_method	'EQeq! by Chris Wilmer'
_symmetry_space_group_name_H-M	'P1'
_symmetry_Int_Tables_number	1
_symmetry_cell_setting	triclinic
loop_
_symmetry_equiv_pos_as_xyz
  x,y,z
_cell_length_a	14.7079
_cell_length_b	12.3931
_cell_length_c	16.6458
_cell_angle_alpha	90
_cell_angle_beta	90
_cell_angle_gamma	90
loop_
_atom_site_label
_atom_site_type_symbol
_atom_site_fract_x
_atom_site_fract_y
_atom_site_fract_z
_atom_site_charge
Mof_O 	O 	0.50141	0.0806	0.87398	-0.342
Mof_O 	O 	0.5952	0.3468	0.6666	-0.314
Mof_O 	O 	0.52422	0.1201	0.00315	-0.37
Mof_O 	O 	0.6741	0.4887	0.70191	-0.296
Mof_C 	C 	0.5376	0.1371	0.9291	0.357
Mof_C 	C 	0.5932	0.2675	0.8258	0.04
Mof_H 	H 	0.5576	0.2305	0.787	0.061
Mof_C 	C 	0.7687	0.4254	0.9951	0.327
Mof_O 	O 	0.7907	0.5191	0.98469	-0.344
Mof_C 	C 	0.6528	0.2812	0.9597	0.056
Mof_H 	H 	0.6572	0.2541	0.013	0.04
Mof_C 	C 	0.703	0.3715	0.9376	-0.085
Mof_C 	C 	0.6954	0.4113	0.8599	0.034
Mof_H 	H 	0.7271	0.4752	0.8454	0.06
Mof_C 	C 	0.5964	0.2302	0.9047	-0.099
Mof_C 	C 	0.6424	0.3592	0.8034	-0.075
Mof_C 	C 	0.6377	0.3984	0.7175	0.31
Mof_O 	O 	0.8017	0.3687	0.05136	-0.296
Mof_Mn	Mn	0.60497	0.48245	0.57893	0.946
Mof_O 	O 	0.99859	0.9194	0.37398	-0.343
Mof_O 	O 	0.9048	0.6532	0.1666	-0.315
Mof_O 	O 	0.97578	0.8799	0.50315	-0.367
Mof_O 	O 	0.8259	0.5113	0.20191	-0.297
Mof_C 	C 	0.9624	0.8629	0.4291	0.35
Mof_C 	C 	0.9068	0.7325	0.3258	0.036
Mof_H 	H 	0.9424	0.7695	0.287	0.061
Mof_C 	C 	0.7313	0.5746	0.4951	0.323
Mof_O 	O 	0.7093	0.4809	0.48469	-0.343
Mof_C 	C 	0.8472	0.7188	0.4597	0.048
Mof_H 	H 	0.8428	0.7459	0.513	0.044
Mof_C 	C 	0.797	0.6285	0.4376	-0.081
Mof_C 	C 	0.8046	0.5887	0.3599	0.031
Mof_H 	H 	0.7729	0.5248	0.3454	0.06
Mof_C 	C 	0.9036	0.7698	0.4047	-0.095
Mof_C 	C 	0.8576	0.6408	0.3034	-0.073
Mof_C 	C 	0.8623	0.6016	0.2175	0.309
Mof_O 	O 	0.6983	0.6313	0.55136	-0.295
Mof_Mn	Mn	0.89503	0.51755	0.07893	0.946
Mof_O 	O 	0.49859	0.5806	0.62602	-0.344
Mof_O 	O 	0.4048	0.8468	0.8334	-0.315
Mof_O 	O 	0.47578	0.6201	0.49685	-0.367
Mof_O 	O 	0.3259	0.9887	0.79809	-0.298
Mof_C 	C 	0.4624	0.6371	0.5709	0.35
Mof_C 	C 	0.4068	0.7675	0.6742	0.036
Mof_H 	H 	0.4424	0.7305	0.713	0.061
Mof_C 	C 	0.2313	0.9254	0.5049	0.323
Mof_O 	O 	0.2093	0.0191	0.51531	-0.342
Mof_C 	C 	0.3472	0.7812	0.5403	0.048
Mof_H 	H 	0.3428	0.7541	0.487	0.044
Mof_C 	C 	0.297	0.8715	0.5624	-0.081
Mof_C 	C 	0.3046	0.9113	0.6401	0.031
Mof_H 	H 	0.2729	0.9752	0.6546	0.06
Mof_C 	C 	0.4036	0.7302	0.5953	-0.095
Mof_C 	C 	0.3576	0.8592	0.6966	-0.073
Mof_C 	C 	0.3623	0.8984	0.7825	0.31
Mof_O 	O 	0.1983	0.8687	0.44864	-0.294
Mof_Mn	Mn	0.39503	0.98245	0.92107	0.94
Mof_O 	O 	0.00141	0.4194	0.12602	-0.344
Mof_O 	O 	0.0952	0.1532	0.3334	-0.315
Mof_O 	O 	0.02422	0.3799	0.99685	-0.365
Mof_O 	O 	0.1741	0.0113	0.29809	-0.297
Mof_C 	C 	0.0376	0.3629	0.0709	0.346
Mof_C 	C 	0.0932	0.2325	0.1742	0.032
Mof_H 	H 	0.0576	0.2695	0.213	0.062
Mof_C 	C 	0.2687	0.0746	0.0049	0.309
Mof_O 	O 	0.2907	0.9809	0.01531	-0.333
Mof_C 	C 	0.1528	0.2188	0.0403	0.037
Mof_H 	H 	0.1572	0.2459	0.987	0.05
Mof_C 	C 	0.203	0.1285	0.0624	-0.074
Mof_C 	C 	0.1954	0.0887	0.1401	0.026
Mof_H 	H 	0.2271	0.0248	0.1546	0.061
Mof_C 	C 	0.0964	0.2698	0.0953	-0.09
Mof_C 	C 	0.1424	0.1408	0.1966	-0.07
Mof_C 	C 	0.1377	0.1016	0.2825	0.308
Mof_O 	O 	0.3017	0.1313	0.94864	-0.287
Mof_Mn	Mn	0.10497	0.01755	0.42107	0.945
Mof_O 	O 	0.49859	0.9194	0.12602	-0.343
Mof_O 	O 	0.4048	0.6532	0.3334	-0.315
Mof_O 	O 	0.47578	0.8799	0.99685	-0.371
Mof_O 	O 	0.3259	0.5113	0.29809	-0.297
Mof_C 	C 	0.4624	0.8629	0.0709	0.356
Mof_C 	C 	0.4068	0.7325	0.1742	0.039
Mof_H 	H 	0.4424	0.7695	0.213	0.06
Mof_C 	C 	0.2313	0.5746	0.0049	0.326
Mof_O 	O 	0.2093	0.4809	0.01531	-0.344
Mof_C 	C 	0.3472	0.7188	0.0403	0.056
Mof_H 	H 	0.3428	0.7459	0.987	0.04
Mof_C 	C 	0.297	0.6285	0.0624	-0.085
Mof_C 	C 	0.3046	0.5887	0.1401	0.034
Mof_H 	H 	0.2729	0.5248	0.1546	0.06
Mof_C 	C 	0.4036	0.7698	0.0953	-0.099
Mof_C 	C 	0.3576	0.6408	0.1966	-0.075
Mof_C 	C 	0.3623	0.6016	0.2825	0.31
Mof_O 	O 	0.1983	0.6313	0.94864	-0.296
Mof_Mn	Mn	0.39503	0.51755	0.42107	0.946
Mof_O 	O 	0.00141	0.0806	0.62602	-0.343
Mof_O 	O 	0.0952	0.3468	0.8334	-0.315
Mof_O 	O 	0.02422	0.1201	0.49685	-0.367
Mof_O 	O 	0.1741	0.4887	0.79809	-0.297
Mof_C 	C 	0.0376	0.1371	0.5709	0.35
Mof_C 	C 	0.0932	0.2675	0.6742	0.036
Mof_H 	H 	0.0576	0.2305	0.713	0.061
Mof_C 	C 	0.2687	0.4254	0.5049	0.323
Mof_O 	O 	0.2907	0.5191	0.51531	-0.343
Mof_C 	C 	0.1528	0.2812	0.5403	0.048
Mof_H 	H 	0.1572	0.2541	0.487	0.044
Mof_C 	C 	0.203	0.3715	0.5624	-0.081
Mof_C 	C 	0.1954	0.4113	0.6401	0.031
Mof_H 	H 	0.2271	0.4752	0.6546	0.06
Mof_C 	C 	0.0964	0.2302	0.5953	-0.095
Mof_C 	C 	0.1424	0.3592	0.6966	-0.073
Mof_C 	C 	0.1377	0.3984	0.7825	0.309
Mof_O 	O 	0.3017	0.3687	0.44864	-0.295
Mof_Mn	Mn	0.10497	0.48245	0.92107	0.946
Mof_O 	O 	0.50141	0.4194	0.37398	-0.344
Mof_O 	O 	0.5952	0.1532	0.1666	-0.315
Mof_O 	O 	0.52422	0.3799	0.50315	-0.367
Mof_O 	O 	0.6741	0.0113	0.20191	-0.298
Mof_C 	C 	0.5376	0.3629	0.4291	0.35
Mof_C 	C 	0.5932	0.2325	0.3258	0.036
Mof_H 	H 	0.5576	0.2695	0.287	0.061
Mof_C 	C 	0.7687	0.0746	0.4951	0.323
Mof_O 	O 	0.7907	0.9809	0.48469	-0.342
Mof_C 	C 	0.6528	0.2188	0.4597	0.048
Mof_H 	H 	0.6572	0.2459	0.513	0.044
Mof_C 	C 	0.703	0.1285	0.4376	-0.081
Mof_C 	C 	0.6954	0.0887	0.3599	0.031
Mof_H 	H 	0.7271	0.0248	0.3454	0.06
Mof_C 	C 	0.5964	0.2698	0.4047	-0.095
Mof_C 	C 	0.6424	0.1408	0.3034	-0.073
Mof_C 	C 	0.6377	0.1016	0.2175	0.31
Mof_O 	O 	0.8017	0.1313	0.55136	-0.294
Mof_Mn	Mn	0.60497	0.01755	0.07893	0.94
Mof_O 	O 	0.99859	0.5806	0.87398	-0.344
Mof_O 	O 	0.9048	0.8468	0.6666	-0.315
Mof_O 	O 	0.97578	0.6201	0.00315	-0.365
Mof_O 	O 	0.8259	0.9887	0.70191	-0.297
Mof_C 	C 	0.9624	0.6371	0.9291	0.346
Mof_C 	C 	0.9068	0.7675	0.8258	0.032
Mof_H 	H 	0.9424	0.7305	0.787	0.062
Mof_C 	C 	0.7313	0.9254	0.9951	0.309
Mof_O 	O 	0.7093	0.0191	0.98469	-0.333
Mof_C 	C 	0.8472	0.7812	0.9597	0.037
Mof_H 	H 	0.8428	0.7541	0.013	0.05
Mof_C 	C 	0.797	0.8715	0.9376	-0.074
Mof_C 	C 	0.8046	0.9113	0.8599	0.026
Mof_H 	H 	0.7729	0.9752	0.8454	0.061
Mof_C 	C 	0.9036	0.7302	0.9047	-0.09
Mof_C 	C 	0.8576	0.8592	0.8034	-0.07
Mof_C 	C 	0.8623	0.8984	0.7175	0.308
Mof_O 	O 	0.6983	0.8687	0.05136	-0.287
Mof_Mn	Mn	0.89503	0.98245	0.57893	0.945
_end
