# CIF file generated by openbabel 3.1.0, see https://openbabel.org
data_I
_chemical_name_common 'image0'
_cell_length_a 7.7389
_cell_length_b 7.7389
_cell_length_c 27.1545
_cell_angle_alpha 90
_cell_angle_beta 90
_cell_angle_gamma 120
_space_group_name_H-M_alt 'P 1'
_space_group_name_Hall 'P 1'
loop_
    _symmetry_equiv_pos_as_xyz
    x,y,z
loop_
    _atom_site_label
    _atom_site_type_symbol
    _atom_site_fract_x
    _atom_site_fract_y
    _atom_site_fract_z
    _atom_site_occupancy
    O1       O        0.57310    0.37500    0.36702    1.000
    O2       O        0.68000    0.18630    0.33289    1.000
    H1       H        0.88600    0.31400    0.40900    1.000
    C1       C        0.65840    0.27400    0.36937    1.000
    O3       O        0.62500    0.19810    0.70035    1.000
    O4       O        0.81370    0.49370    0.66622    1.000
    H2       H        0.68600    0.57200    0.74233    1.000
    C2       C        0.72600    0.38440    0.70270    1.000
    O5       O        0.80190    0.42690    0.03369    1.000
    O6       O        0.50630    0.32000    0.99956    1.000
    H3       H        0.42800    0.11400    0.07567    1.000
    C3       C        0.61560    0.34160    0.03604    1.000
    O7       O        0.42690    0.62500    0.86702    1.000
    O8       O        0.32000    0.81370    0.83289    1.000
    H4       H        0.11400    0.68600    0.90900    1.000
    C4       C        0.34160    0.72600    0.86937    1.000
    O9       O        0.37500    0.80190    0.20035    1.000
    O10      O        0.18630    0.50630    0.16622    1.000
    H5       H        0.31400    0.42800    0.24233    1.000
    C5       C        0.27400    0.61560    0.20270    1.000
    O11      O        0.19810    0.57310    0.53369    1.000
    O12      O        0.49370    0.68000    0.49956    1.000
    H6       H        0.57200    0.88600    0.57567    1.000
    C6       C        0.38440    0.65840    0.53604    1.000
    O13      O        0.37500    0.57310    0.96631    1.000
    O14      O        0.18630    0.68000    0.00044    1.000
    H7       H        0.31400    0.88600    0.92433    1.000
    C7       C        0.27400    0.65840    0.96396    1.000
    O15      O        0.19810    0.62500    0.63298    1.000
    O16      O        0.49370    0.81370    0.66711    1.000
    H8       H        0.57200    0.68600    0.59100    1.000
    C8       C        0.38440    0.72600    0.63063    1.000
    O17      O        0.42690    0.80190    0.29965    1.000
    O18      O        0.32000    0.50630    0.33378    1.000
    H9       H        0.11400    0.42800    0.25767    1.000
    C9       C        0.34160    0.61560    0.29730    1.000
    O19      O        0.62500    0.42690    0.46631    1.000
    O20      O        0.81370    0.32000    0.50044    1.000
    H10      H        0.68600    0.11400    0.42433    1.000
    C10      C        0.72600    0.34160    0.46396    1.000
    O21      O        0.80190    0.37500    0.13298    1.000
    O22      O        0.50630    0.18630    0.16711    1.000
    H11      H        0.42800    0.31400    0.09100    1.000
    C11      C        0.61560    0.27400    0.13063    1.000
    O23      O        0.57310    0.19810    0.79965    1.000
    O24      O        0.68000    0.49370    0.83378    1.000
    H12      H        0.88600    0.57200    0.75767    1.000
    C12      C        0.65840    0.38440    0.79730    1.000
    U1       U        0.45237    0.54762    0.41667    1.000
    C13      C        0.74760    0.25240    0.41667    1.000
    U2       U        0.45237    0.90475    0.75000    1.000
    C14      C        0.74760    0.49520    0.75000    1.000
    U3       U        0.09525    0.54762    0.08333    1.000
    C15      C        0.50480    0.25240    0.08333    1.000
    U4       U        0.54762    0.45237    0.91667    1.000
    C16      C        0.25240    0.74760    0.91667    1.000
    U5       U        0.54762    0.09525    0.25000    1.000
    C17      C        0.25240    0.50480    0.25000    1.000
    U6       U        0.90475    0.45237    0.58333    1.000
    C18      C        0.49520    0.74760    0.58333    1.000
