data_functionalizedCrystal
_audit_creation_method	'EQeq! by Chris Wilmer'
_symmetry_space_group_name_H-M	'P1'
_symmetry_Int_Tables_number	1
_symmetry_cell_setting	triclinic
loop_
_symmetry_equiv_pos_as_xyz
  x,y,z
_cell_length_a	7.2953
_cell_length_b	13.2981
_cell_length_c	30.7597
_cell_angle_alpha	88.2585
_cell_angle_beta	83.639
_cell_angle_gamma	74.0798
loop_
_atom_site_label
_atom_site_type_symbol
_atom_site_fract_x
_atom_site_fract_y
_atom_site_fract_z
_atom_site_charge
Mof_Cd	Cd	0.15524	0.68952	0.25	0.495
Mof_Cd	Cd	0.84476	0.31048	0.75	0.507
Mof_H 	H 	0.9032	0.1988	0.1443	0.062
Mof_H 	H 	0.2122	0.0758	0.1448	0.063
Mof_H 	H 	0.6536	0.7872	0.0364	0.068
Mof_H 	H 	0.6199	0.7136	0.9667	0.064
Mof_H 	H 	0.3166	0.8426	0.1458	0.115
Mof_H 	H 	0.5288	0.7878	0.1966	0.049
Mof_H 	H 	0.9057	0.9112	0.1267	0.029
Mof_H 	H 	0.6949	0.9652	0.0756	0.095
Mof_H 	H 	0.3877	0.219	0.1181	0.085
Mof_H 	H 	0.2198	0.3528	0.1659	0.028
Mof_H 	H 	0.6237	0.5042	0.1354	0.038
Mof_H 	H 	0.7914	0.3706	0.0876	0.092
Mof_H 	H 	0.898	0.1988	0.3557	0.082
Mof_H 	H 	0.712	0.0758	0.3552	0.05
Mof_H 	H 	0.5592	0.7872	0.4636	0.063
Mof_H 	H 	0.6665	0.7136	0.5333	0.066
Mof_H 	H 	0.8408	0.8426	0.3542	0.121
Mof_H 	H 	0.6834	0.7878	0.3034	0.052
Mof_H 	H 	0.1831	0.9112	0.3733	0.02
Mof_H 	H 	0.3399	0.9652	0.4244	0.09
Mof_H 	H 	0.3933	0.219	0.3819	0.087
Mof_H 	H 	0.4274	0.3528	0.3341	0.03
Mof_H 	H 	0.8721	0.5042	0.3646	0.034
Mof_H 	H 	0.838	0.3706	0.4124	0.087
Mof_H 	H 	0.0968	0.8012	0.8557	0.078
Mof_H 	H 	0.7878	0.9242	0.8552	0.069
Mof_H 	H 	0.3464	0.2128	0.9636	0.062
Mof_H 	H 	0.3801	0.2864	0.0333	0.066
Mof_H 	H 	0.6834	0.1574	0.8542	0.12
Mof_H 	H 	0.4712	0.2122	0.8034	0.046
Mof_H 	H 	0.0943	0.0888	0.8733	0.004
Mof_H 	H 	0.3051	0.0348	0.9244	0.082
Mof_H 	H 	0.6123	0.781	0.8819	0.091
Mof_H 	H 	0.7802	0.6472	0.8341	0.039
Mof_H 	H 	0.3763	0.4958	0.8646	0.037
Mof_H 	H 	0.2086	0.6294	0.9124	0.084
Mof_H 	H 	0.102	0.8012	0.6443	0.056
Mof_H 	H 	0.288	0.9242	0.6448	0.086
Mof_H 	H 	0.4408	0.2128	0.5364	0.069
Mof_H 	H 	0.3335	0.2864	0.4667	0.064
Mof_H 	H 	0.1592	0.1574	0.6458	0.113
Mof_H 	H 	0.3166	0.2122	0.6966	0.04
Mof_H 	H 	0.8169	0.0888	0.6267	0.016
Mof_H 	H 	0.6601	0.0348	0.5756	0.087
Mof_H 	H 	0.6067	0.781	0.6181	0.088
Mof_H 	H 	0.5726	0.6472	0.6659	0.037
Mof_H 	H 	0.1279	0.4958	0.6354	0.043
Mof_H 	H 	0.162	0.6294	0.5876	0.089
Mof_Pd	Pd	-0	0	-0	0.444
Mof_Pd	Pd	-5.58047e-17	0	0.5	0.452
Mof_C 	C 	0.8944	0.1384	0.0816	0.122
Mof_C 	C 	0.9653	0.1512	0.1223	-0.06
Mof_C 	C 	0.1337	0.0834	0.1224	-0.104
Mof_C 	C 	0.1793	0.0228	0.0832	0.077
Mof_C 	C 	0.3436	0.945	0.0713	-0.099
Mof_C 	C 	0.3844	0.8894	0.032	0.107
Mof_C 	C 	0.549	0.8094	0.0203	-0.096
Mof_C 	C 	0.532	0.769	0.9818	-0.072
Mof_C 	C 	0.3547	0.8274	0.9691	0.111
Mof_C 	C 	0.7207	0.1934	0.0695	-0.137
Mof_C 	C 	0.4823	0.9106	0.105	0.127
Mof_C 	C 	0.4355	0.8564	0.1417	-0.163
Mof_C 	C 	0.5632	0.8232	0.1719	0.077
Mof_C 	C 	0.7423	0.8408	0.1664	-0.117
Mof_C 	C 	0.7877	0.8962	0.1305	0.077
Mof_C 	C 	0.6605	0.9292	0.1002	-0.162
Mof_C 	C 	0.8872	0.795	0.1987	0.347
Mof_C 	C 	0.6062	0.2816	0.0981	0.121
Mof_C 	C 	0.435	0.2762	0.1216	-0.156
Mof_C 	C 	0.3344	0.3564	0.1502	0.055
Mof_C 	C 	0.4051	0.4418	0.1554	-0.099
Mof_C 	C 	0.5765	0.447	0.1319	0.053
Mof_C 	C 	0.6769	0.367	0.1033	-0.152
Mof_C 	C 	0.3083	0.5274	0.1888	0.319
Mof_C 	C 	0.9672	0.1384	0.4184	0.143
Mof_C 	C 	0.8835	0.1512	0.3777	-0.111
Mof_C 	C 	0.7829	0.0834	0.3776	-0.053
Mof_C 	C 	0.7979	0.0228	0.4168	0.068
Mof_C 	C 	0.7114	0.945	0.4287	-0.091
Mof_C 	C 	0.7262	0.8894	0.468	0.109
Mof_C 	C 	0.6416	0.8094	0.4797	-0.082
Mof_C 	C 	0.699	0.769	0.5182	-0.084
Mof_C 	C 	0.8179	0.8274	0.5309	0.112
Mof_C 	C 	0.0859	0.1934	0.4305	-0.158
Mof_C 	C 	0.6071	0.9106	0.395	0.125
Mof_C 	C 	0.7081	0.8564	0.3583	-0.161
Mof_C 	C 	0.6136	0.8232	0.3281	0.075
Mof_C 	C 	0.4169	0.8408	0.3336	-0.115
Mof_C 	C 	0.3161	0.8962	0.3695	0.074
Mof_C 	C 	0.4103	0.9292	0.3998	-0.162
Mof_C 	C 	0.3178	0.795	0.3013	0.329
Mof_C 	C 	0.1122	0.2816	0.4019	0.107
Mof_C 	C 	0.2888	0.2762	0.3784	-0.156
Mof_C 	C 	0.3092	0.3564	0.3498	0.059
Mof_C 	C 	0.1531	0.4418	0.3446	-0.118
Mof_C 	C 	0.9765	0.447	0.3681	0.072
Mof_C 	C 	0.9561	0.367	0.3967	-0.137
Mof_C 	C 	0.1643	0.5274	0.3112	0.323
Mof_C 	C 	0.1056	0.8616	0.9184	0.109
Mof_C 	C 	0.0347	0.8488	0.8777	-0.116
Mof_C 	C 	0.8663	0.9166	0.8776	-0.051
Mof_C 	C 	0.8207	0.9772	0.9168	0.145
Mof_C 	C 	0.6564	0.055	0.9287	-0.167
Mof_C 	C 	0.6156	0.1106	0.968	0.127
Mof_C 	C 	0.451	0.1906	0.9797	-0.084
Mof_C 	C 	0.468	0.231	0.0182	-0.099
Mof_C 	C 	0.6453	0.1726	0.0309	0.116
Mof_C 	C 	0.2793	0.8066	0.9305	-0.125
Mof_C 	C 	0.5177	0.0894	0.895	0.141
Mof_C 	C 	0.5645	0.1436	0.8583	-0.182
Mof_C 	C 	0.4368	0.1768	0.8281	0.079
Mof_C 	C 	0.2577	0.1592	0.8336	-0.121
Mof_C 	C 	0.2123	0.1038	0.8695	0.077
Mof_C 	C 	0.3395	0.0708	0.8998	-0.182
Mof_C 	C 	0.1128	0.205	0.8013	0.298
Mof_C 	C 	0.3938	0.7184	0.9019	0.116
Mof_C 	C 	0.565	0.7238	0.8784	-0.147
Mof_C 	C 	0.6656	0.6436	0.8498	0.051
Mof_C 	C 	0.5949	0.5582	0.8446	-0.091
Mof_C 	C 	0.4235	0.553	0.8681	0.047
Mof_C 	C 	0.3231	0.633	0.8967	-0.147
Mof_C 	C 	0.6917	0.4726	0.8112	0.315
Mof_C 	C 	0.0328	0.8616	0.5816	0.082
Mof_C 	C 	0.1165	0.8488	0.6223	-0.053
Mof_C 	C 	0.2171	0.9166	0.6224	-0.116
Mof_C 	C 	0.2021	0.9772	0.5832	0.161
Mof_C 	C 	0.2886	0.055	0.5713	-0.182
Mof_C 	C 	0.2738	0.1106	0.532	0.127
Mof_C 	C 	0.3584	0.1906	0.5203	-0.101
Mof_C 	C 	0.301	0.231	0.4818	-0.085
Mof_C 	C 	0.1821	0.1726	0.4691	0.113
Mof_C 	C 	0.9141	0.8066	0.5695	-0.101
Mof_C 	C 	0.3929	0.0894	0.605	0.146
Mof_C 	C 	0.2919	0.1436	0.6417	-0.187
Mof_C 	C 	0.3864	0.1768	0.6719	0.083
Mof_C 	C 	0.5831	0.1592	0.6664	-0.126
Mof_C 	C 	0.6839	0.1038	0.6305	0.083
Mof_C 	C 	0.5897	0.0708	0.6002	-0.185
Mof_C 	C 	0.6822	0.205	0.6987	0.329
Mof_C 	C 	0.8878	0.7184	0.5981	0.131
Mof_C 	C 	0.7112	0.7238	0.6216	-0.144
Mof_C 	C 	0.6908	0.6436	0.6502	0.042
Mof_C 	C 	0.8469	0.5582	0.6554	-0.063
Mof_C 	C 	0.0235	0.553	0.6319	0.017
Mof_C 	C 	0.0439	0.633	0.6033	-0.162
Mof_C 	C 	0.8357	0.4726	0.6888	0.309
Mof_N 	N 	0.0258	0.059	0.0585	-0.202
Mof_N 	N 	0.2631	0.9004	0.9997	-0.18
Mof_N 	N 	0.9152	0.059	0.4415	-0.187
Mof_N 	N 	0.8365	0.9004	0.5003	-0.178
Mof_N 	N 	0.9742	0.941	0.9415	-0.17
Mof_N 	N 	0.7369	0.0996	0.0003	-0.199
Mof_N 	N 	0.0848	0.941	0.5585	-0.187
Mof_N 	N 	0.1635	0.0996	0.4997	-0.205
Mof_O 	O 	0.8463	0.7372	0.22808	-0.251
Mof_O 	O 	0.0434	0.8162	0.1943	-0.289
Mof_O 	O 	0.149	0.528	0.2022	-0.261
Mof_O 	O 	0.3997	0.5946	0.1961	-0.244
Mof_O 	O 	0.4165	0.7372	0.27192	-0.252
Mof_O 	O 	0.1404	0.8162	0.3057	-0.278
Mof_O 	O 	0.323	0.528	0.2978	-0.256
Mof_O 	O 	0.0057	0.5946	0.3039	-0.253
Mof_O 	O 	0.1537	0.2628	0.77192	-0.258
Mof_O 	O 	0.9566	0.1838	0.8057	-0.254
Mof_O 	O 	0.851	0.472	0.7978	-0.246
Mof_O 	O 	0.6003	0.4054	0.8039	-0.244
Mof_O 	O 	0.5835	0.2628	0.72808	-0.256
Mof_O 	O 	0.8596	0.1838	0.6943	-0.272
Mof_O 	O 	0.677	0.472	0.7022	-0.253
Mof_O 	O 	0.9943	0.4054	0.6961	-0.23
_end
