data_functionalizedCrystal
_audit_creation_method	'EQeq! by Chris Wilmer'
_symmetry_space_group_name_H-M	'P1'
_symmetry_Int_Tables_number	1
_symmetry_cell_setting	triclinic
loop_
_symmetry_equiv_pos_as_xyz
  x,y,z
_cell_length_a	15.8698
_cell_length_b	15.8698
_cell_length_c	21.641
_cell_angle_alpha	90
_cell_angle_beta	90
_cell_angle_gamma	90
loop_
_atom_site_label
_atom_site_type_symbol
_atom_site_fract_x
_atom_site_fract_y
_atom_site_fract_z
_atom_site_charge
Mof_C 	C 	0.4629	0.7458	0.0358	0.077
Mof_H 	H 	0.4926	0.7405	0.0726	0.007
Mof_C 	C 	0.407	0.8126	0.0303	-0.15
Mof_H 	H 	0.4011	0.851	0.0624	0.081
Mof_C 	C 	0.3601	0.8218	0.9768	0.08
Mof_C 	C 	0.3763	0.7636	0.9303	-0.144
Mof_H 	H 	0.3484	0.7679	0.8927	0.077
Mof_C 	C 	0.4337	0.6993	0.9399	0.086
Mof_H 	H 	0.4426	0.6611	0.908	0.01
Mof_C 	C 	0.2936	0.8879	0.9706	0.028
Mof_C 	C 	0.2942	0.959	0.0074	-0.095
Mof_H 	H 	0.3375	0.9669	0.0358	0.059
Mof_C 	C 	0.2311	0.0185	0.0024	0.004
Mof_H 	H 	0.2332	0.067	0.0264	0.023
Mof_C 	C 	0.165	0.0064	0.9621	-0.081
Mof_H 	H 	0.1222	0.0463	0.9593	0.063
Mof_C 	C 	0.1622	0.9342	0.9255	0.028
Mof_C 	C 	0.2264	0.8758	0.93	-0.092
Mof_H 	H 	0.2248	0.8276	0.9056	0.068
Mof_C 	C 	0.092	0.926	0.88171	0.09
Mof_C 	C 	0.9958	0.8752	0.81976	0.089
Mof_C 	C 	0.9404	0.8132	0.78924	0.024
Mof_C 	C 	0.9567	0.7823	0.73	-0.088
Mof_H 	H 	0.0041	0.8	0.7083	0.068
Mof_C 	C 	0.9016	0.7254	0.7041	0.011
Mof_H 	H 	0.9112	0.7062	0.6641	0.025
Mof_C 	C 	0.8324	0.6962	0.7363	-0.091
Mof_H 	H 	0.7965	0.6569	0.7182	0.063
Mof_C 	C 	0.8161	0.7254	0.796	0.024
Mof_C 	C 	0.8704	0.7841	0.8214	-0.09
Mof_H 	H 	0.8598	0.8047	0.8609	0.061
Mof_C 	C 	0.7437	0.6934	0.8335	0.07
Mof_C 	C 	0.7163	0.737	0.8855	-0.144
Mof_H 	H 	0.7383	0.7899	0.8946	0.078
Mof_C 	C 	0.6572	0.702	0.923	0.078
Mof_H 	H 	0.6412	0.7319	0.958	0.007
Mof_C 	C 	0.6412	0.5883	0.8598	0.079
Mof_H 	H 	0.6135	0.5387	0.8494	0.012
Mof_C 	C 	0.7015	0.6183	0.8198	-0.14
Mof_H 	H 	0.7142	0.5888	0.7839	0.08
Mof_N 	N 	0.0537	0.9899	0.85555	-0.101
Mof_N 	N 	0.9933	0.9577	0.81631	-0.115
Mof_N 	N 	0.0571	0.8529	0.86048	-0.106
Mof_N 	N 	0.0772	0.7709	0.8803	-0.222
Mof_H 	H 	0.0965	0.7414	0.8483	0.118
Mof_H 	H 	0.0312	0.7461	0.8953	0.119
Mof_N 	N 	0.4767	0.6887	0.99175	-0.149
Mof_N 	N 	0.6201	0.6265	0.91276	-0.152
Mof_C 	C 	0.5371	0.2542	0.5358	0.08
Mof_H 	H 	0.5074	0.2595	0.5726	0.006
Mof_C 	C 	0.593	0.1874	0.5303	-0.143
Mof_H 	H 	0.5989	0.149	0.5624	0.078
Mof_C 	C 	0.6399	0.1782	0.4768	0.071
Mof_C 	C 	0.6237	0.2364	0.4303	-0.141
Mof_H 	H 	0.6516	0.2321	0.3927	0.077
Mof_C 	C 	0.5663	0.3007	0.4399	0.083
Mof_H 	H 	0.5574	0.3389	0.408	0.01
Mof_C 	C 	0.7064	0.1121	0.4706	0.023
Mof_C 	C 	0.7058	0.041	0.5074	-0.089
Mof_H 	H 	0.6625	0.0331	0.5358	0.059
Mof_C 	C 	0.7689	0.9815	0.5024	0.011
Mof_H 	H 	0.7668	0.933	0.5264	0.022
Mof_C 	C 	0.835	0.9936	0.4621	-0.09
Mof_H 	H 	0.8778	0.9537	0.4593	0.065
Mof_C 	C 	0.8378	0.0658	0.4255	0.029
Mof_C 	C 	0.7736	0.1242	0.43	-0.093
Mof_H 	H 	0.7752	0.1724	0.4056	0.068
Mof_C 	C 	0.908	0.074	0.38171	0.089
Mof_C 	C 	0.0042	0.1248	0.31976	0.089
Mof_C 	C 	0.0596	0.1868	0.28924	0.024
Mof_C 	C 	0.0433	0.2177	0.23	-0.088
Mof_H 	H 	0.9959	0.2	0.2083	0.068
Mof_C 	C 	0.0984	0.2746	0.2041	0.011
Mof_H 	H 	0.0888	0.2938	0.1641	0.024
Mof_C 	C 	0.1676	0.3038	0.2363	-0.091
Mof_H 	H 	0.2035	0.3431	0.2182	0.063
Mof_C 	C 	0.1839	0.2746	0.296	0.024
Mof_C 	C 	0.1296	0.2159	0.3214	-0.09
Mof_H 	H 	0.1402	0.1953	0.3609	0.061
Mof_C 	C 	0.2563	0.3066	0.3335	0.07
Mof_C 	C 	0.2837	0.263	0.3855	-0.144
Mof_H 	H 	0.2617	0.2101	0.3946	0.077
Mof_C 	C 	0.3428	0.298	0.423	0.078
Mof_H 	H 	0.3588	0.2681	0.458	0.005
Mof_C 	C 	0.3588	0.4117	0.3598	0.079
Mof_H 	H 	0.3865	0.4613	0.3494	0.012
Mof_C 	C 	0.2985	0.3817	0.3198	-0.14
Mof_H 	H 	0.2858	0.4112	0.2839	0.08
Mof_N 	N 	0.9463	0.0101	0.35555	-0.101
Mof_N 	N 	0.0067	0.0423	0.31631	-0.115
Mof_N 	N 	0.9429	0.1471	0.36048	-0.106
Mof_N 	N 	0.9228	0.2291	0.3803	-0.222
Mof_H 	H 	0.9035	0.2586	0.3483	0.117
Mof_H 	H 	0.9688	0.2539	0.3953	0.117
Mof_N 	N 	0.5233	0.3113	0.49175	-0.153
Mof_N 	N 	0.3799	0.3735	0.41276	-0.154
Mof_C 	C 	0.7542	0.9629	0.7858	0.08
Mof_H 	H 	0.7595	0.9926	0.8226	0.006
Mof_C 	C 	0.6874	0.907	0.7803	-0.143
Mof_H 	H 	0.649	0.9011	0.8124	0.078
Mof_C 	C 	0.6782	0.8601	0.7268	0.071
Mof_C 	C 	0.7364	0.8763	0.6803	-0.141
Mof_H 	H 	0.7321	0.8484	0.6427	0.077
Mof_C 	C 	0.8007	0.9337	0.6899	0.083
Mof_H 	H 	0.8389	0.9426	0.658	0.01
Mof_C 	C 	0.6121	0.7936	0.7206	0.023
Mof_C 	C 	0.541	0.7942	0.7574	-0.088
Mof_H 	H 	0.5331	0.8375	0.7858	0.059
Mof_C 	C 	0.4815	0.7311	0.7524	0.011
Mof_H 	H 	0.433	0.7332	0.7764	0.022
Mof_C 	C 	0.4936	0.665	0.7121	-0.091
Mof_H 	H 	0.4537	0.6222	0.7093	0.065
Mof_C 	C 	0.5658	0.6622	0.6755	0.03
Mof_C 	C 	0.6242	0.7264	0.68	-0.093
Mof_H 	H 	0.6724	0.7248	0.6556	0.068
Mof_C 	C 	0.574	0.592	0.63171	0.089
Mof_C 	C 	0.6248	0.4958	0.56976	0.088
Mof_C 	C 	0.6868	0.4404	0.53924	0.025
Mof_C 	C 	0.7177	0.4567	0.48	-0.09
Mof_H 	H 	0.7	0.5041	0.4583	0.069
Mof_C 	C 	0.7746	0.4016	0.4541	0.012
Mof_H 	H 	0.7938	0.4112	0.4141	0.024
Mof_C 	C 	0.8038	0.3324	0.4863	-0.092
Mof_H 	H 	0.8431	0.2965	0.4682	0.064
Mof_C 	C 	0.7746	0.3161	0.546	0.024
Mof_C 	C 	0.7159	0.3704	0.5714	-0.091
Mof_H 	H 	0.6953	0.3598	0.6109	0.061
Mof_C 	C 	0.8066	0.2437	0.5835	0.07
Mof_C 	C 	0.763	0.2163	0.6355	-0.144
Mof_H 	H 	0.7101	0.2383	0.6446	0.077
Mof_C 	C 	0.798	0.1572	0.673	0.078
Mof_H 	H 	0.7681	0.1412	0.708	0.004
Mof_C 	C 	0.9117	0.1412	0.6098	0.079
Mof_H 	H 	0.9613	0.1135	0.5994	0.011
Mof_C 	C 	0.8817	0.2015	0.5698	-0.14
Mof_H 	H 	0.9112	0.2142	0.5339	0.08
Mof_N 	N 	0.5101	0.5537	0.60555	-0.101
Mof_N 	N 	0.5423	0.4933	0.56631	-0.115
Mof_N 	N 	0.6471	0.5571	0.61048	-0.105
Mof_N 	N 	0.7291	0.5772	0.6303	-0.222
Mof_H 	H 	0.7586	0.5965	0.5983	0.118
Mof_H 	H 	0.7539	0.5312	0.6453	0.118
Mof_N 	N 	0.8113	0.9767	0.74175	-0.153
Mof_N 	N 	0.8735	0.1201	0.66276	-0.154
Mof_C 	C 	0.2458	0.0371	0.2858	0.08
Mof_H 	H 	0.2405	0.0074	0.3226	0.006
Mof_C 	C 	0.3126	0.093	0.2803	-0.143
Mof_H 	H 	0.351	0.0989	0.3124	0.078
Mof_C 	C 	0.3218	0.1399	0.2268	0.071
Mof_C 	C 	0.2636	0.1237	0.1803	-0.141
Mof_H 	H 	0.2679	0.1516	0.1427	0.076
Mof_C 	C 	0.1993	0.0663	0.1899	0.083
Mof_H 	H 	0.1611	0.0574	0.158	0.01
Mof_C 	C 	0.3879	0.2064	0.2206	0.022
Mof_C 	C 	0.459	0.2058	0.2574	-0.088
Mof_H 	H 	0.4669	0.1625	0.2858	0.058
Mof_C 	C 	0.5185	0.2689	0.2524	0.011
Mof_H 	H 	0.567	0.2668	0.2764	0.022
Mof_C 	C 	0.5064	0.335	0.2121	-0.091
Mof_H 	H 	0.5463	0.3778	0.2093	0.065
Mof_C 	C 	0.4342	0.3378	0.1755	0.03
Mof_C 	C 	0.3758	0.2736	0.18	-0.093
Mof_H 	H 	0.3276	0.2752	0.1556	0.067
Mof_C 	C 	0.426	0.408	0.13171	0.088
Mof_C 	C 	0.3752	0.5042	0.06976	0.093
Mof_C 	C 	0.3132	0.5596	0.03924	0.004
Mof_C 	C 	0.2823	0.5433	0.98	-0.063
Mof_H 	H 	0.3	0.4959	0.9583	0.061
Mof_C 	C 	0.2254	0.5984	0.9541	-0.012
Mof_H 	H 	0.2062	0.5888	0.9141	0.033
Mof_C 	C 	0.1962	0.6676	0.9863	-0.064
Mof_H 	H 	0.1569	0.7035	0.9682	0.056
Mof_C 	C 	0.2254	0.6839	0.046	0.002
Mof_C 	C 	0.2841	0.6296	0.0714	-0.073
Mof_H 	H 	0.3047	0.6402	0.1109	0.055
Mof_C 	C 	0.1934	0.7563	0.0835	0.078
Mof_C 	C 	0.237	0.7837	0.1355	-0.15
Mof_H 	H 	0.2899	0.7617	0.1446	0.079
Mof_C 	C 	0.202	0.8428	0.173	0.081
Mof_H 	H 	0.2319	0.8588	0.208	0.003
Mof_C 	C 	0.0883	0.8588	0.1098	0.081
Mof_H 	H 	0.0387	0.8865	0.0994	0.009
Mof_C 	C 	0.1183	0.7985	0.0698	-0.147
Mof_H 	H 	0.0888	0.7858	0.0339	0.08
Mof_N 	N 	0.4899	0.4463	0.10555	-0.101
Mof_N 	N 	0.4577	0.5067	0.06631	-0.117
Mof_N 	N 	0.3529	0.4429	0.11048	-0.107
Mof_N 	N 	0.2709	0.4228	0.1303	-0.222
Mof_H 	H 	0.2414	0.4035	0.0983	0.116
Mof_H 	H 	0.2461	0.4688	0.1453	0.117
Mof_N 	N 	0.1887	0.0233	0.24175	-0.153
Mof_N 	N 	0.1265	0.8799	0.16276	-0.155
Mof_C 	C 	0.0371	0.2458	0.7142	0.08
Mof_H 	H 	0.0074	0.2405	0.6774	0.006
Mof_C 	C 	0.093	0.3126	0.7197	-0.143
Mof_H 	H 	0.0989	0.351	0.6876	0.078
Mof_C 	C 	0.1399	0.3218	0.7732	0.071
Mof_C 	C 	0.1237	0.2636	0.8197	-0.141
Mof_H 	H 	0.1516	0.2679	0.8573	0.077
Mof_C 	C 	0.0663	0.1993	0.8101	0.084
Mof_H 	H 	0.0574	0.1611	0.842	0.011
Mof_C 	C 	0.2064	0.3879	0.7794	0.023
Mof_C 	C 	0.2058	0.459	0.7426	-0.088
Mof_H 	H 	0.1625	0.4669	0.7142	0.059
Mof_C 	C 	0.2689	0.5185	0.7476	0.011
Mof_H 	H 	0.2668	0.567	0.7236	0.022
Mof_C 	C 	0.335	0.5064	0.7879	-0.091
Mof_H 	H 	0.3778	0.5463	0.7907	0.065
Mof_C 	C 	0.3378	0.4342	0.8245	0.03
Mof_C 	C 	0.2736	0.3758	0.82	-0.093
Mof_H 	H 	0.2752	0.3276	0.8444	0.068
Mof_C 	C 	0.408	0.426	0.86829	0.089
Mof_C 	C 	0.5042	0.3752	0.93024	0.084
Mof_C 	C 	0.5596	0.3132	0.96076	0.045
Mof_C 	C 	0.5433	0.2823	0.02	-0.115
Mof_H 	H 	0.4959	0.3	0.0417	0.077
Mof_C 	C 	0.5984	0.2254	0.0459	0.034
Mof_H 	H 	0.5888	0.2062	0.0859	0.016
Mof_C 	C 	0.6676	0.1962	0.0137	-0.117
Mof_H 	H 	0.7035	0.1569	0.0318	0.071
Mof_C 	C 	0.6839	0.2254	0.954	0.045
Mof_C 	C 	0.6296	0.2841	0.9286	-0.107
Mof_H 	H 	0.6402	0.3047	0.8891	0.066
Mof_C 	C 	0.7563	0.1934	0.9165	0.062
Mof_C 	C 	0.7837	0.237	0.8645	-0.139
Mof_H 	H 	0.7617	0.2899	0.8554	0.075
Mof_C 	C 	0.8428	0.202	0.827	0.075
Mof_H 	H 	0.8588	0.2319	0.792	0.005
Mof_C 	C 	0.8588	0.0883	0.8902	0.076
Mof_H 	H 	0.8865	0.0387	0.9006	0.013
Mof_C 	C 	0.7985	0.1183	0.9302	-0.135
Mof_H 	H 	0.7858	0.0888	0.9661	0.08
Mof_N 	N 	0.4463	0.4899	0.89445	-0.1
Mof_N 	N 	0.5067	0.4577	0.93369	-0.112
Mof_N 	N 	0.4429	0.3529	0.88952	-0.104
Mof_N 	N 	0.4228	0.2709	0.8697	-0.223
Mof_H 	H 	0.4035	0.2414	0.9017	0.119
Mof_H 	H 	0.4688	0.2461	0.8547	0.118
Mof_N 	N 	0.0233	0.1887	0.75825	-0.153
Mof_N 	N 	0.8799	0.1265	0.83724	-0.153
Mof_C 	C 	0.9629	0.7542	0.2142	0.08
Mof_H 	H 	0.9926	0.7595	0.1774	0.006
Mof_C 	C 	0.907	0.6874	0.2197	-0.143
Mof_H 	H 	0.9011	0.649	0.1876	0.078
Mof_C 	C 	0.8601	0.6782	0.2732	0.071
Mof_C 	C 	0.8763	0.7364	0.3197	-0.141
Mof_H 	H 	0.8484	0.7321	0.3573	0.077
Mof_C 	C 	0.9337	0.8007	0.3101	0.083
Mof_H 	H 	0.9426	0.8389	0.342	0.01
Mof_C 	C 	0.7936	0.6121	0.2794	0.022
Mof_C 	C 	0.7942	0.541	0.2426	-0.088
Mof_H 	H 	0.8375	0.5331	0.2142	0.058
Mof_C 	C 	0.7311	0.4815	0.2476	0.011
Mof_H 	H 	0.7332	0.433	0.2236	0.022
Mof_C 	C 	0.665	0.4936	0.2879	-0.091
Mof_H 	H 	0.6222	0.4537	0.2907	0.065
Mof_C 	C 	0.6622	0.5658	0.3245	0.03
Mof_C 	C 	0.7264	0.6242	0.32	-0.093
Mof_H 	H 	0.7248	0.6724	0.3444	0.068
Mof_C 	C 	0.592	0.574	0.36829	0.089
Mof_C 	C 	0.4958	0.6248	0.43024	0.088
Mof_C 	C 	0.4404	0.6868	0.46076	0.025
Mof_C 	C 	0.4567	0.7177	0.52	-0.09
Mof_H 	H 	0.5041	0.7	0.5417	0.069
Mof_C 	C 	0.4016	0.7746	0.5459	0.012
Mof_H 	H 	0.4112	0.7938	0.5859	0.024
Mof_C 	C 	0.3324	0.8038	0.5137	-0.092
Mof_H 	H 	0.2965	0.8431	0.5318	0.064
Mof_C 	C 	0.3161	0.7746	0.454	0.024
Mof_C 	C 	0.3704	0.7159	0.4286	-0.091
Mof_H 	H 	0.3598	0.6953	0.3891	0.061
Mof_C 	C 	0.2437	0.8066	0.4165	0.07
Mof_C 	C 	0.2163	0.763	0.3645	-0.144
Mof_H 	H 	0.2383	0.7101	0.3554	0.077
Mof_C 	C 	0.1572	0.798	0.327	0.078
Mof_H 	H 	0.1412	0.7681	0.292	0.004
Mof_C 	C 	0.1412	0.9117	0.3902	0.079
Mof_H 	H 	0.1135	0.9613	0.4006	0.011
Mof_C 	C 	0.2015	0.8817	0.4302	-0.14
Mof_H 	H 	0.2142	0.9112	0.4661	0.08
Mof_N 	N 	0.5537	0.5101	0.39445	-0.101
Mof_N 	N 	0.4933	0.5423	0.43369	-0.115
Mof_N 	N 	0.5571	0.6471	0.38952	-0.105
Mof_N 	N 	0.5772	0.7291	0.3697	-0.222
Mof_H 	H 	0.5965	0.7586	0.4017	0.118
Mof_H 	H 	0.5312	0.7539	0.3547	0.118
Mof_N 	N 	0.9767	0.8113	0.25825	-0.153
Mof_N 	N 	0.1201	0.8735	0.33724	-0.154
Mof_C 	C 	0.7458	0.4629	0.9642	0.083
Mof_H 	H 	0.7405	0.4926	0.9274	0.005
Mof_C 	C 	0.8126	0.407	0.9697	-0.134
Mof_H 	H 	0.851	0.4011	0.9376	0.076
Mof_C 	C 	0.8218	0.3601	0.0232	0.062
Mof_C 	C 	0.7636	0.3763	0.0697	-0.138
Mof_H 	H 	0.7679	0.3484	0.1073	0.075
Mof_C 	C 	0.6993	0.4337	0.0601	0.08
Mof_H 	H 	0.6611	0.4426	0.092	0.011
Mof_C 	C 	0.8879	0.2936	0.0294	0.021
Mof_C 	C 	0.959	0.2942	0.9926	-0.088
Mof_H 	H 	0.9669	0.3375	0.9642	0.06
Mof_C 	C 	0.0185	0.2311	0.9976	0.025
Mof_H 	H 	0.067	0.2332	0.9736	0.018
Mof_C 	C 	0.0064	0.165	0.0379	-0.105
Mof_H 	H 	0.0463	0.1222	0.0407	0.068
Mof_C 	C 	0.9342	0.1622	0.0745	0.034
Mof_C 	C 	0.8758	0.2264	0.07	-0.097
Mof_H 	H 	0.8276	0.2248	0.0944	0.069
Mof_C 	C 	0.926	0.092	0.11829	0.087
Mof_C 	C 	0.8752	0.9958	0.18024	0.089
Mof_C 	C 	0.8132	0.9404	0.21076	0.024
Mof_C 	C 	0.7823	0.9567	0.27	-0.088
Mof_H 	H 	0.8	0.0041	0.2917	0.068
Mof_C 	C 	0.7254	0.9016	0.2959	0.01
Mof_H 	H 	0.7062	0.9112	0.3359	0.025
Mof_C 	C 	0.6962	0.8324	0.2637	-0.091
Mof_H 	H 	0.6569	0.7965	0.2818	0.063
Mof_C 	C 	0.7254	0.8161	0.204	0.023
Mof_C 	C 	0.7841	0.8704	0.1786	-0.09
Mof_H 	H 	0.8047	0.8598	0.1391	0.06
Mof_C 	C 	0.6934	0.7437	0.1665	0.07
Mof_C 	C 	0.737	0.7163	0.1145	-0.145
Mof_H 	H 	0.7899	0.7383	0.1054	0.076
Mof_C 	C 	0.702	0.6572	0.077	0.078
Mof_H 	H 	0.7319	0.6412	0.042	0.003
Mof_C 	C 	0.5883	0.6412	0.1402	0.079
Mof_H 	H 	0.5387	0.6135	0.1506	0.012
Mof_C 	C 	0.6183	0.7015	0.1802	-0.141
Mof_H 	H 	0.5888	0.7142	0.2161	0.08
Mof_N 	N 	0.9899	0.0537	0.14445	-0.101
Mof_N 	N 	0.9577	0.9933	0.18369	-0.115
Mof_N 	N 	0.8529	0.0571	0.13952	-0.106
Mof_N 	N 	0.7709	0.0772	0.1197	-0.223
Mof_H 	H 	0.7414	0.0965	0.1517	0.117
Mof_H 	H 	0.7461	0.0312	0.1047	0.117
Mof_N 	N 	0.6887	0.4767	0.00825	-0.156
Mof_N 	N 	0.6265	0.6201	0.08724	-0.154
Mof_C 	C 	0.2542	0.5371	0.4642	0.08
Mof_H 	H 	0.2595	0.5074	0.4274	0.006
Mof_C 	C 	0.1874	0.593	0.4697	-0.143
Mof_H 	H 	0.149	0.5989	0.4376	0.078
Mof_C 	C 	0.1782	0.6399	0.5232	0.071
Mof_C 	C 	0.2364	0.6237	0.5697	-0.141
Mof_H 	H 	0.2321	0.6516	0.6073	0.077
Mof_C 	C 	0.3007	0.5663	0.5601	0.083
Mof_H 	H 	0.3389	0.5574	0.592	0.01
Mof_C 	C 	0.1121	0.7064	0.5294	0.023
Mof_C 	C 	0.041	0.7058	0.4926	-0.088
Mof_H 	H 	0.0331	0.6625	0.4642	0.059
Mof_C 	C 	0.9815	0.7689	0.4976	0.011
Mof_H 	H 	0.933	0.7668	0.4736	0.022
Mof_C 	C 	0.9936	0.835	0.5379	-0.09
Mof_H 	H 	0.9537	0.8778	0.5407	0.065
Mof_C 	C 	0.0658	0.8378	0.5745	0.029
Mof_C 	C 	0.1242	0.7736	0.57	-0.093
Mof_H 	H 	0.1724	0.7752	0.5944	0.068
Mof_C 	C 	0.074	0.908	0.61829	0.089
Mof_C 	C 	0.1248	0.0042	0.68024	0.089
Mof_C 	C 	0.1868	0.0596	0.71076	0.024
Mof_C 	C 	0.2177	0.0433	0.77	-0.088
Mof_H 	H 	0.2	0.9959	0.7917	0.068
Mof_C 	C 	0.2746	0.0984	0.7959	0.011
Mof_H 	H 	0.2938	0.0888	0.8359	0.025
Mof_C 	C 	0.3038	0.1676	0.7637	-0.091
Mof_H 	H 	0.3431	0.2035	0.7818	0.063
Mof_C 	C 	0.2746	0.1839	0.704	0.024
Mof_C 	C 	0.2159	0.1296	0.6786	-0.09
Mof_H 	H 	0.1953	0.1402	0.6391	0.061
Mof_C 	C 	0.3066	0.2563	0.6665	0.07
Mof_C 	C 	0.263	0.2837	0.6145	-0.145
Mof_H 	H 	0.2101	0.2617	0.6054	0.077
Mof_C 	C 	0.298	0.3428	0.577	0.078
Mof_H 	H 	0.2681	0.3588	0.542	0.005
Mof_C 	C 	0.4117	0.3588	0.6402	0.079
Mof_H 	H 	0.4613	0.3865	0.6506	0.011
Mof_C 	C 	0.3817	0.2985	0.6802	-0.141
Mof_H 	H 	0.4112	0.2858	0.7161	0.08
Mof_N 	N 	0.0101	0.9463	0.64445	-0.101
Mof_N 	N 	0.0423	0.0067	0.68369	-0.115
Mof_N 	N 	0.1471	0.9429	0.63952	-0.106
Mof_N 	N 	0.2291	0.9228	0.6197	-0.222
Mof_H 	H 	0.2586	0.9035	0.6517	0.118
Mof_H 	H 	0.2539	0.9688	0.6047	0.118
Mof_N 	N 	0.3113	0.5233	0.50825	-0.153
Mof_N 	N 	0.3735	0.3799	0.58724	-0.154
Mof_Cd	Cd	0.94014	0.05986	0.75	0.381
Mof_Cd	Cd	0.05986	0.94014	0.25	0.381
Mof_Cd	Cd	0.44014	0.44014	0.5	0.382
Mof_Cd	Cd	0.55986	0.55986	-0	0.376
_end
