# CIF file generated by openbabel 3.1.0, see https://openbabel.org
data_I
_chemical_name_common 'image0'
_cell_length_a 9.63
_cell_length_b 10.0916
_cell_length_c 11.7335
_cell_angle_alpha 87.958
_cell_angle_beta 67.638
_cell_angle_gamma 68.181
_space_group_name_H-M_alt 'P 1'
_space_group_name_Hall 'P 1'
loop_
    _symmetry_equiv_pos_as_xyz
    x,y,z
loop_
    _atom_site_label
    _atom_site_type_symbol
    _atom_site_fract_x
    _atom_site_fract_y
    _atom_site_fract_z
    _atom_site_occupancy
    Pr1      Pr       0.29076    0.96267    0.02245    1.000
    O1       O        0.47650    0.17290    0.17300    1.000
    O2       O        0.25350    0.14230    0.18360    1.000
    O3       O        0.54930    0.27980    0.93120    1.000
    O4       O        0.44220    0.12180    0.92500    1.000
    O5       O        0.16930    0.79880    0.00000    1.000
    O6       O        0.98350    0.86120    0.91820    1.000
    N1       N        0.09480    0.34740    0.61070    1.000
    C1       C        0.43910    0.24740    0.91820    1.000
    C2       C        0.30700    0.36330    0.89240    1.000
    C3       C        0.22390    0.32550    0.83380    1.000
    C4       C        0.10250    0.43130    0.80850    1.000
    C5       C        0.06060    0.57610    0.84200    1.000
    C6       C        0.14320    0.61330    0.90280    1.000
    C7       C        0.26530    0.50730    0.92870    1.000
    C8       C        0.09440    0.76940    0.94310    1.000
    C9       C        0.00710    0.38970    0.74770    1.000
    C10      C        0.24750    0.33810    0.54710    1.000
    C11      C        0.32460    0.28900    0.42050    1.000
    C12      C        0.24670    0.24720    0.36240    1.000
    C13      C        0.08640    0.26040    0.42870    1.000
    C14      C        0.01150    0.31210    0.55460    1.000
    C15      C        0.33640    0.18080    0.22580    1.000
    Pr2      Pr       0.70924    0.03733    0.97755    1.000
    O7       O        0.52350    0.82710    0.82700    1.000
    O8       O        0.74650    0.85770    0.81640    1.000
    O9       O        0.45070    0.72020    0.06880    1.000
    O10      O        0.55780    0.87820    0.07500    1.000
    O11      O        0.83070    0.20120    0.00000    1.000
    O12      O        0.01650    0.13880    0.08180    1.000
    N2       N        0.90520    0.65260    0.38930    1.000
    C16      C        0.56090    0.75260    0.08180    1.000
    C17      C        0.69300    0.63670    0.10760    1.000
    C18      C        0.77610    0.67450    0.16620    1.000
    C19      C        0.89750    0.56870    0.19150    1.000
    C20      C        0.93940    0.42390    0.15800    1.000
    C21      C        0.85680    0.38670    0.09720    1.000
    C22      C        0.73470    0.49270    0.07130    1.000
    C23      C        0.90560    0.23060    0.05690    1.000
    C24      C        0.99290    0.61030    0.25230    1.000
    C25      C        0.75250    0.66190    0.45290    1.000
    C26      C        0.67540    0.71100    0.57950    1.000
    C27      C        0.75330    0.75280    0.63760    1.000
    C28      C        0.91360    0.73960    0.57130    1.000
    C29      C        0.98850    0.68790    0.44540    1.000
    C30      C        0.66360    0.81920    0.77420    1.000
