data_functionalizedCrystal
_audit_creation_method	'EQeq! by Chris Wilmer'
_symmetry_space_group_name_H-M	'P1'
_symmetry_Int_Tables_number	1
_symmetry_cell_setting	triclinic
loop_
_symmetry_equiv_pos_as_xyz
  x,y,z
_cell_length_a	12.359
_cell_length_b	33.229
_cell_length_c	12.887
_cell_angle_alpha	90
_cell_angle_beta	96.42
_cell_angle_gamma	90
loop_
_atom_site_label
_atom_site_type_symbol
_atom_site_fract_x
_atom_site_fract_y
_atom_site_fract_z
_atom_site_charge
Mof_Mn	Mn	0.20042	0.06984	0.60195	0.895
Mof_C 	C 	0.4005	0.94832	0.7112	0.17
Mof_H 	H 	0.43	0.9745	0.7236	-0.027
Mof_C 	C 	0.4633	0.91553	0.7409	-0.275
Mof_H 	H 	0.5339	0.9196	0.7769	0.117
Mof_C 	C 	0.322	0.87345	0.6777	-0.272
Mof_H 	H 	0.2923	0.8473	0.6654	0.11
Mof_C 	C 	0.2571	0.90603	0.6521	0.171
Mof_H 	H 	0.1832	0.9021	0.6251	-0.023
Mof_C 	C 	0.4975	0.84075	0.7459	-0.292
Mof_C 	C 	0.4828	0.81384	0.8245	0.282
Mof_N 	N 	0.564	0.78603	0.8196	-0.14
Mof_C 	C 	0.5833	0.82623	0.6945	0.286
Mof_C 	C 	0.4276	0.87688	0.7203	0.235
Mof_N 	N 	0.3593	0.10107	0.6222	-0.192
Mof_N 	N 	0.1972	0.08994	0.7699	-0.188
Mof_N 	N 	0.3798	0.13386	0.6845	-0.136
Mof_C 	C 	0.4882	0.14256	0.6994	0.247
Mof_C 	C 	0.5388	0.11403	0.6441	-0.262
Mof_C 	C 	0.4562	0.08859	0.5986	0.283
Mof_C 	C 	0.464	0.05317	0.5292	-0.66
Mof_H 	H 	0.4521	0.0285	0.5678	0.213
Mof_H 	H 	0.5365	0.0524	0.5052	0.214
Mof_H 	H 	0.4086	0.0553	0.4688	0.212
Mof_C 	C 	0.5337	0.17727	0.7632	-0.584
Mof_H 	H 	0.5281	0.2017	0.7205	0.174
Mof_H 	H 	0.6103	0.1721	0.7878	0.184
Mof_H 	H 	0.4925	0.1808	0.8233	0.172
Mof_C 	C 	0.6562	0.10976	0.6343	0.19
Mof_C 	C 	0.7065	0.07232	0.6517	-0.218
Mof_H 	H 	0.6656	0.0502	0.6733	0.095
Mof_C 	C 	0.7185	0.14236	0.6071	-0.216
Mof_H 	H 	0.6863	0.1682	0.5969	0.092
Mof_C 	C 	0.2889	0.15139	0.731	0.02
Mof_H 	H 	0.3123	0.1769	0.7662	0.007
Mof_H 	H 	0.2291	0.1575	0.6756	0.023
Mof_N 	N 	0.2502	0.12417	0.8058	-0.137
Mof_C 	C 	0.2569	0.12662	0.9114	0.272
Mof_C 	C 	0.2049	0.09291	0.9446	-0.304
Mof_C 	C 	0.1686	0.07121	0.8533	0.289
Mof_C 	C 	0.1072	0.03247	0.843	-0.633
Mof_H 	H 	0.0726	0.0295	0.7712	0.205
Mof_H 	H 	0.0512	0.0324	0.8912	0.192
Mof_H 	H 	0.1575	0.01	0.8599	0.199
Mof_C 	C 	0.3129	0.16039	0.9707	-0.606
Mof_H 	H 	0.3863	0.1636	0.9499	0.183
Mof_H 	H 	0.3178	0.1546	0.0456	0.19
Mof_H 	H 	0.2715	0.1853	0.9557	0.183
Mof_O 	O 	0.02694	0.05648	0.59437	-0.486
Mof_O 	O 	0.0547	0.12174	0.5824	-0.376
Mof_C 	C 	0.992	0.09279	0.5928	0.448
Mof_C 	C 	0.8748	0.0991	0.6077	-0.193
Mof_C 	C 	0.8143	0.06699	0.638	0.121
Mof_H 	H 	0.8472	0.0413	0.6493	0.004
Mof_C 	C 	0.8272	0.13689	0.595	0.119
Mof_H 	H 	0.8699	0.1592	0.5778	-0.001
Mof_C 	C 	0.2974	0.94445	0.6647	-0.248
Mof_C 	C 	0.2285	0.97996	0.6309	0.441
Mof_O 	O 	0.2683	0.01414	0.6451	-0.436
Mof_C 	C 	0.1903	0.08259	0.0534	0.315
Mof_O 	O 	0.1322	0.9729	0.59	-0.411
Mof_N 	N 	0.6238	0.79315	0.7399	-0.219
Mof_C 	C 	0.6258	0.8439	0.6017	-0.65
Mof_H 	H 	0.6973	0.8323	0.5938	0.189
Mof_H 	H 	0.6327	0.8731	0.6105	0.219
Mof_H 	H 	0.5754	0.838	0.5393	0.205
Mof_C 	C 	0.4037	0.81295	0.8982	-0.646
Mof_H 	H 	0.3489	0.7923	0.8773	0.19
Mof_H 	H 	0.3682	0.8393	0.8996	0.199
Mof_H 	H 	0.44	0.8067	0.9678	0.188
Mof_O 	O 	0.2013	0.07439	0.4401	-0.435
Mof_O 	O 	0.0975	0.02333	0.3875	-0.44
Mof_C 	C 	0.1656	0.06284	0.2605	-0.259
Mof_C 	C 	0.1517	0.05257	0.3714	0.467
Mof_C 	C 	0.2044	0.04196	0.0915	-0.142
Mof_H 	H 	0.2245	0.0215	0.0459	0.064
Mof_C 	C 	0.1775	0.11132	0.1274	-0.003
Mof_H 	H 	0.1756	0.1388	0.107	0.007
Mof_C 	C 	0.1893	0.03215	0.1942	0.043
Mof_H 	H 	0.195	0.0051	0.2179	0.005
Mof_C 	C 	0.1671	0.10201	0.2308	-0.053
Mof_H 	H 	0.1611	0.1228	0.2803	0.034
Mof_C 	C 	0.0833	0.0687	0.0759	-0.239
Mof_H 	H 	0.0237	0.0665	0.0229	0.085
Mof_C 	C 	0.0735	0.0589	0.1795	0.135
Mof_H 	H 	0.0056	0.0494	0.1979	-0.031
Mof_C 	C 	0.2553	0.0791	0.2271	0.242
Mof_H 	H 	0.3178	0.082	0.2766	-0.066
Mof_C 	C 	0.263	0.0918	0.1263	-0.347
Mof_H 	H 	0.3236	0.1075	0.1116	0.13
Mof_Mn	Mn	0.79958	0.56984	0.39805	0.894
Mof_C 	C 	0.5995	0.44832	0.2888	0.163
Mof_H 	H 	0.57	0.4745	0.2764	-0.027
Mof_C 	C 	0.5367	0.41553	0.2591	-0.27
Mof_H 	H 	0.4661	0.4196	0.2231	0.115
Mof_C 	C 	0.678	0.37345	0.3223	-0.265
Mof_H 	H 	0.7077	0.3473	0.3346	0.114
Mof_C 	C 	0.7429	0.40603	0.3479	0.165
Mof_H 	H 	0.8168	0.4021	0.3749	-0.01
Mof_C 	C 	0.5025	0.34075	0.2541	-0.293
Mof_C 	C 	0.5172	0.31384	0.1755	0.289
Mof_N 	N 	0.436	0.28603	0.1804	-0.142
Mof_C 	C 	0.4167	0.32623	0.3055	0.285
Mof_C 	C 	0.5724	0.37688	0.2797	0.233
Mof_N 	N 	0.6407	0.60107	0.3778	-0.192
Mof_N 	N 	0.8028	0.58994	0.2301	-0.188
Mof_N 	N 	0.6202	0.63386	0.3155	-0.135
Mof_C 	C 	0.5118	0.64256	0.3006	0.24
Mof_C 	C 	0.4612	0.61403	0.3559	-0.253
Mof_C 	C 	0.5438	0.58859	0.4014	0.28
Mof_C 	C 	0.536	0.55317	0.4708	-0.66
Mof_H 	H 	0.5479	0.5285	0.4322	0.215
Mof_H 	H 	0.4635	0.5524	0.4948	0.215
Mof_H 	H 	0.5914	0.5553	0.5312	0.213
Mof_C 	C 	0.4663	0.67727	0.2368	-0.573
Mof_H 	H 	0.4719	0.7017	0.2795	0.169
Mof_H 	H 	0.3897	0.6721	0.2122	0.177
Mof_H 	H 	0.5075	0.6808	0.1767	0.169
Mof_C 	C 	0.3438	0.60976	0.3657	0.166
Mof_C 	C 	0.2935	0.57232	0.3483	-0.188
Mof_H 	H 	0.3344	0.5502	0.3267	0.086
Mof_C 	C 	0.2815	0.64236	0.3929	-0.189
Mof_H 	H 	0.3137	0.6682	0.4031	0.079
Mof_C 	C 	0.7111	0.65139	0.269	0.019
Mof_H 	H 	0.6877	0.6769	0.2338	0.01
Mof_H 	H 	0.7709	0.6575	0.3244	0.027
Mof_N 	N 	0.7498	0.62417	0.1942	-0.135
Mof_C 	C 	0.7431	0.62662	0.0886	0.277
Mof_C 	C 	0.7951	0.59291	0.0554	-0.305
Mof_C 	C 	0.8314	0.57121	0.1467	0.31
Mof_C 	C 	0.8928	0.53247	0.157	-0.683
Mof_H 	H 	0.9274	0.5295	0.2288	0.237
Mof_H 	H 	0.9488	0.5324	0.1088	0.227
Mof_H 	H 	0.8425	0.51	0.1401	0.225
Mof_C 	C 	0.6871	0.66039	0.0293	-0.606
Mof_H 	H 	0.6137	0.6636	0.0501	0.184
Mof_H 	H 	0.6822	0.6546	0.9544	0.189
Mof_H 	H 	0.7285	0.6853	0.0443	0.188
Mof_O 	O 	0.97306	0.55648	0.40563	-0.386
Mof_O 	O 	0.9453	0.62174	0.4176	-0.277
Mof_C 	C 	0.008	0.59279	0.4072	0.259
Mof_C 	C 	0.1252	0.5991	0.3923	-0.133
Mof_C 	C 	0.1857	0.56699	0.362	0.071
Mof_H 	H 	0.1528	0.5413	0.3507	0.012
Mof_C 	C 	0.1728	0.63689	0.405	0.07
Mof_H 	H 	0.1301	0.6592	0.4222	-0.003
Mof_C 	C 	0.7026	0.44445	0.3353	-0.237
Mof_C 	C 	0.7715	0.47996	0.3691	0.424
Mof_O 	O 	0.7317	0.51414	0.3549	-0.425
Mof_C 	C 	0.8097	0.58259	0.9466	0.311
Mof_O 	O 	0.8678	0.4729	0.41	-0.391
Mof_N 	N 	0.3762	0.29315	0.2601	-0.218
Mof_C 	C 	0.3742	0.3439	0.3983	-0.647
Mof_H 	H 	0.3027	0.3323	0.4062	0.185
Mof_H 	H 	0.3673	0.3731	0.3895	0.218
Mof_H 	H 	0.4246	0.338	0.4607	0.204
Mof_C 	C 	0.5963	0.31295	0.1018	-0.665
Mof_H 	H 	0.6511	0.2923	0.1227	0.203
Mof_H 	H 	0.6318	0.3393	0.1004	0.211
Mof_H 	H 	0.56	0.3067	0.0322	0.196
Mof_O 	O 	0.7987	0.57439	0.5599	-0.43
Mof_O 	O 	0.9025	0.52333	0.6125	-0.414
Mof_C 	C 	0.8344	0.56284	0.7395	-0.25
Mof_C 	C 	0.8483	0.55257	0.6286	0.463
Mof_C 	C 	0.7956	0.54196	0.9085	-0.14
Mof_H 	H 	0.7755	0.5215	0.9541	0.069
Mof_C 	C 	0.8225	0.61132	0.8726	-0.003
Mof_H 	H 	0.8244	0.6388	0.893	0.012
Mof_C 	C 	0.8107	0.53215	0.8058	0.045
Mof_H 	H 	0.805	0.5051	0.7821	0.015
Mof_C 	C 	0.8329	0.60201	0.7692	-0.048
Mof_H 	H 	0.8389	0.6228	0.7197	0.039
Mof_C 	C 	0.9167	0.5687	0.9241	-0.229
Mof_H 	H 	0.9763	0.5665	0.9771	0.099
Mof_C 	C 	0.9265	0.5589	0.8205	0.133
Mof_H 	H 	0.9944	0.5494	0.8021	-0.004
Mof_C 	C 	0.7447	0.5791	0.7729	0.231
Mof_H 	H 	0.6822	0.582	0.7234	-0.063
Mof_C 	C 	0.737	0.5918	0.8737	-0.34
Mof_H 	H 	0.6764	0.6075	0.8884	0.128
Mof_Mn	Mn	0.79958	0.93016	0.39805	0.895
Mof_C 	C 	0.5995	0.05168	0.2888	0.16
Mof_H 	H 	0.57	0.0255	0.2764	-0.028
Mof_C 	C 	0.5367	0.08447	0.2591	-0.268
Mof_H 	H 	0.4661	0.0804	0.2231	0.114
Mof_C 	C 	0.678	0.12655	0.3223	-0.263
Mof_H 	H 	0.7077	0.1527	0.3346	0.113
Mof_C 	C 	0.7429	0.09397	0.3479	0.162
Mof_H 	H 	0.8168	0.0979	0.3749	-0.009
Mof_C 	C 	0.5025	0.15925	0.2541	-0.292
Mof_C 	C 	0.5172	0.18616	0.1755	0.289
Mof_N 	N 	0.436	0.21397	0.1804	-0.142
Mof_C 	C 	0.4167	0.17377	0.3055	0.285
Mof_C 	C 	0.5724	0.12312	0.2797	0.231
Mof_N 	N 	0.6407	0.89893	0.3778	-0.192
Mof_N 	N 	0.8028	0.91006	0.2301	-0.188
Mof_N 	N 	0.6202	0.86614	0.3155	-0.135
Mof_C 	C 	0.5118	0.85744	0.3006	0.24
Mof_C 	C 	0.4612	0.88597	0.3559	-0.253
Mof_C 	C 	0.5438	0.91141	0.4014	0.282
Mof_C 	C 	0.536	0.94683	0.4708	-0.665
Mof_H 	H 	0.5479	0.9715	0.4322	0.219
Mof_H 	H 	0.4635	0.9476	0.4948	0.218
Mof_H 	H 	0.5914	0.9447	0.5312	0.215
Mof_C 	C 	0.4663	0.82273	0.2368	-0.573
Mof_H 	H 	0.4719	0.7983	0.2795	0.169
Mof_H 	H 	0.3897	0.8279	0.2122	0.177
Mof_H 	H 	0.5075	0.8192	0.1767	0.169
Mof_C 	C 	0.3438	0.89024	0.3657	0.166
Mof_C 	C 	0.2935	0.92768	0.3483	-0.187
Mof_H 	H 	0.3344	0.9498	0.3267	0.088
Mof_C 	C 	0.2815	0.85764	0.3929	-0.188
Mof_H 	H 	0.3137	0.8318	0.4031	0.079
Mof_C 	C 	0.7111	0.84861	0.269	0.019
Mof_H 	H 	0.6877	0.8231	0.2338	0.01
Mof_H 	H 	0.7709	0.8425	0.3244	0.027
Mof_N 	N 	0.7498	0.87583	0.1942	-0.135
Mof_C 	C 	0.7431	0.87338	0.0886	0.277
Mof_C 	C 	0.7951	0.90709	0.0554	-0.305
Mof_C 	C 	0.8314	0.92879	0.1467	0.312
Mof_C 	C 	0.8928	0.96753	0.157	-0.69
Mof_H 	H 	0.9274	0.9705	0.2288	0.241
Mof_H 	H 	0.9488	0.9676	0.1088	0.231
Mof_H 	H 	0.8425	0.99	0.1401	0.229
Mof_C 	C 	0.6871	0.83961	0.0293	-0.606
Mof_H 	H 	0.6137	0.8364	0.0501	0.184
Mof_H 	H 	0.6822	0.8454	0.9544	0.189
Mof_H 	H 	0.7285	0.8147	0.0443	0.188
Mof_O 	O 	0.97306	0.94352	0.40563	-0.382
Mof_O 	O 	0.9453	0.87826	0.4176	-0.277
Mof_C 	C 	0.008	0.90721	0.4072	0.258
Mof_C 	C 	0.1252	0.9009	0.3923	-0.131
Mof_C 	C 	0.1857	0.93301	0.362	0.07
Mof_H 	H 	0.1528	0.9587	0.3507	0.015
Mof_C 	C 	0.1728	0.86311	0.405	0.069
Mof_H 	H 	0.1301	0.8408	0.4222	-0.002
Mof_C 	C 	0.7026	0.05555	0.3353	-0.233
Mof_C 	C 	0.7715	0.02004	0.3691	0.411
Mof_O 	O 	0.7317	0.98586	0.3549	-0.415
Mof_C 	C 	0.8097	0.91741	0.9466	0.311
Mof_O 	O 	0.8678	0.0271	0.41	-0.389
Mof_N 	N 	0.3762	0.20685	0.2601	-0.218
Mof_C 	C 	0.3742	0.1561	0.3983	-0.647
Mof_H 	H 	0.3027	0.1677	0.4062	0.185
Mof_H 	H 	0.3673	0.1269	0.3895	0.218
Mof_H 	H 	0.4246	0.162	0.4607	0.204
Mof_C 	C 	0.5963	0.18705	0.1018	-0.664
Mof_H 	H 	0.6511	0.2077	0.1227	0.202
Mof_H 	H 	0.6318	0.1607	0.1004	0.21
Mof_H 	H 	0.56	0.1933	0.0322	0.195
Mof_O 	O 	0.7987	0.92561	0.5599	-0.429
Mof_O 	O 	0.9025	0.97667	0.6125	-0.408
Mof_C 	C 	0.8344	0.93716	0.7395	-0.248
Mof_C 	C 	0.8483	0.94743	0.6286	0.462
Mof_C 	C 	0.7956	0.95804	0.9085	-0.139
Mof_H 	H 	0.7755	0.9785	0.9541	0.07
Mof_C 	C 	0.8225	0.88868	0.8726	-0.003
Mof_H 	H 	0.8244	0.8612	0.893	0.012
Mof_C 	C 	0.8107	0.96785	0.8058	0.044
Mof_H 	H 	0.805	0.9949	0.7821	0.018
Mof_C 	C 	0.8329	0.89799	0.7692	-0.049
Mof_H 	H 	0.8389	0.8772	0.7197	0.04
Mof_C 	C 	0.9167	0.9313	0.9241	-0.228
Mof_H 	H 	0.9763	0.9335	0.9771	0.099
Mof_C 	C 	0.9265	0.9411	0.8205	0.132
Mof_H 	H 	0.9944	0.9506	0.8021	-0.002
Mof_C 	C 	0.7447	0.9209	0.7729	0.231
Mof_H 	H 	0.6822	0.918	0.7234	-0.062
Mof_C 	C 	0.737	0.9082	0.8737	-0.339
Mof_H 	H 	0.6764	0.8925	0.8884	0.128
Mof_Mn	Mn	0.20042	0.43016	0.60195	0.895
Mof_C 	C 	0.4005	0.55168	0.7112	0.167
Mof_H 	H 	0.43	0.5255	0.7236	-0.028
Mof_C 	C 	0.4633	0.58447	0.7409	-0.274
Mof_H 	H 	0.5339	0.5804	0.7769	0.116
Mof_C 	C 	0.322	0.62655	0.6777	-0.27
Mof_H 	H 	0.2923	0.6527	0.6654	0.109
Mof_C 	C 	0.2571	0.59397	0.6521	0.168
Mof_H 	H 	0.1832	0.5979	0.6251	-0.022
Mof_C 	C 	0.4975	0.65925	0.7459	-0.292
Mof_C 	C 	0.4828	0.68616	0.8245	0.282
Mof_N 	N 	0.564	0.71397	0.8196	-0.14
Mof_C 	C 	0.5833	0.67377	0.6945	0.286
Mof_C 	C 	0.4276	0.62312	0.7203	0.233
Mof_N 	N 	0.3593	0.39893	0.6222	-0.193
Mof_N 	N 	0.1972	0.41006	0.7699	-0.188
Mof_N 	N 	0.3798	0.36614	0.6845	-0.136
Mof_C 	C 	0.4882	0.35744	0.6994	0.247
Mof_C 	C 	0.5388	0.38597	0.6441	-0.263
Mof_C 	C 	0.4562	0.41141	0.5986	0.284
Mof_C 	C 	0.464	0.44683	0.5292	-0.665
Mof_H 	H 	0.4521	0.4715	0.5678	0.216
Mof_H 	H 	0.5365	0.4476	0.5052	0.217
Mof_H 	H 	0.4086	0.4447	0.4688	0.215
Mof_C 	C 	0.5337	0.32273	0.7632	-0.584
Mof_H 	H 	0.5281	0.2983	0.7205	0.174
Mof_H 	H 	0.6103	0.3279	0.7878	0.185
Mof_H 	H 	0.4925	0.3192	0.8233	0.173
Mof_C 	C 	0.6562	0.39024	0.6343	0.191
Mof_C 	C 	0.7065	0.42768	0.6517	-0.218
Mof_H 	H 	0.6656	0.4498	0.6733	0.097
Mof_C 	C 	0.7185	0.35764	0.6071	-0.216
Mof_H 	H 	0.6863	0.3318	0.5969	0.092
Mof_C 	C 	0.2889	0.34861	0.731	0.02
Mof_H 	H 	0.3123	0.3231	0.7662	0.007
Mof_H 	H 	0.2291	0.3425	0.6756	0.023
Mof_N 	N 	0.2502	0.37583	0.8058	-0.137
Mof_C 	C 	0.2569	0.37338	0.9114	0.273
Mof_C 	C 	0.2049	0.40709	0.9446	-0.305
Mof_C 	C 	0.1686	0.42879	0.8533	0.291
Mof_C 	C 	0.1072	0.46753	0.843	-0.639
Mof_H 	H 	0.0726	0.4705	0.7712	0.209
Mof_H 	H 	0.0512	0.4676	0.8912	0.195
Mof_H 	H 	0.1575	0.49	0.8599	0.203
Mof_C 	C 	0.3129	0.33961	0.9707	-0.607
Mof_H 	H 	0.3863	0.3364	0.9499	0.183
Mof_H 	H 	0.3178	0.3454	0.0456	0.19
Mof_H 	H 	0.2715	0.3147	0.9557	0.183
Mof_O 	O 	0.02694	0.44352	0.59437	-0.486
Mof_O 	O 	0.0547	0.37826	0.5824	-0.376
Mof_C 	C 	0.992	0.40721	0.5928	0.448
Mof_C 	C 	0.8748	0.4009	0.6077	-0.193
Mof_C 	C 	0.8143	0.43301	0.638	0.122
Mof_H 	H 	0.8472	0.4587	0.6493	0.006
Mof_C 	C 	0.8272	0.36311	0.595	0.119
Mof_H 	H 	0.8699	0.3408	0.5778	-0.001
Mof_C 	C 	0.2974	0.55555	0.6647	-0.246
Mof_C 	C 	0.2285	0.52004	0.6309	0.43
Mof_O 	O 	0.2683	0.48586	0.6451	-0.427
Mof_C 	C 	0.1903	0.41741	0.0534	0.316
Mof_O 	O 	0.1322	0.5271	0.59	-0.413
Mof_N 	N 	0.6238	0.70685	0.7399	-0.219
Mof_C 	C 	0.6258	0.6561	0.6017	-0.65
Mof_H 	H 	0.6973	0.6677	0.5938	0.189
Mof_H 	H 	0.6327	0.6269	0.6105	0.219
Mof_H 	H 	0.5754	0.662	0.5393	0.205
Mof_C 	C 	0.4037	0.68705	0.8982	-0.646
Mof_H 	H 	0.3489	0.7077	0.8773	0.19
Mof_H 	H 	0.3682	0.6607	0.8996	0.199
Mof_H 	H 	0.44	0.6933	0.9678	0.187
Mof_O 	O 	0.2013	0.42561	0.4401	-0.435
Mof_O 	O 	0.0975	0.47667	0.3875	-0.439
Mof_C 	C 	0.1656	0.43716	0.2605	-0.259
Mof_C 	C 	0.1517	0.44743	0.3714	0.467
Mof_C 	C 	0.2044	0.45804	0.0915	-0.142
Mof_H 	H 	0.2245	0.4785	0.0459	0.066
Mof_C 	C 	0.1775	0.38868	0.1274	-0.003
Mof_H 	H 	0.1756	0.3612	0.107	0.007
Mof_C 	C 	0.1893	0.46785	0.1942	0.043
Mof_H 	H 	0.195	0.4949	0.2179	0.008
Mof_C 	C 	0.1671	0.39799	0.2308	-0.054
Mof_H 	H 	0.1611	0.3772	0.2803	0.034
Mof_C 	C 	0.0833	0.4313	0.0759	-0.239
Mof_H 	H 	0.0237	0.4335	0.0229	0.086
Mof_C 	C 	0.0735	0.4411	0.1795	0.135
Mof_H 	H 	0.0056	0.4506	0.1979	-0.03
Mof_C 	C 	0.2553	0.4209	0.2271	0.243
Mof_H 	H 	0.3178	0.418	0.2766	-0.066
Mof_C 	C 	0.263	0.4082	0.1263	-0.347
Mof_H 	H 	0.3236	0.3925	0.1116	0.131
Mof_Mn	Mn	1.08084e-17	-2.39994e-33	0.5	0.966
Mof_Mn	Mn	2.17337e-33	0.5	0.5	0.978
Mof_Rh	Rh	0.72975	0.75	0.70573	0.55
Mof_C 	C 	0.5818	0.75	0.8853	0.008
Mof_H 	H 	0.6571	0.75	0.9209	-0
Mof_H 	H 	0.5309	0.75	0.9393	0.003
Mof_Rh	Rh	0.27025	0.25	0.29427	0.529
Mof_C 	C 	0.4182	0.25	0.1147	0.011
Mof_H 	H 	0.3429	0.25	0.0791	-0.002
Mof_H 	H 	0.4691	0.25	0.0607	0.003
_end
