# CIF file generated by openbabel 3.1.0, see https://openbabel.org
data_I
_chemical_name_common 'image0'
_cell_length_a 22.8104
_cell_length_b 22.8104
_cell_length_c 16.8099
_cell_angle_alpha 90
_cell_angle_beta 90
_cell_angle_gamma 120
_space_group_name_H-M_alt 'P 1'
_space_group_name_Hall 'P 1'
loop_
    _symmetry_equiv_pos_as_xyz
    x,y,z
loop_
    _atom_site_label
    _atom_site_type_symbol
    _atom_site_fract_x
    _atom_site_fract_y
    _atom_site_fract_z
    _atom_site_occupancy
    Mg1      Mg       0.73482    0.96172    0.70670    1.000
    Mg2      Mg       0.56031    0.93167    0.73232    1.000
    Mg3      Mg       0.70616    0.10765    0.71200    1.000
    C1       C        0.60450    0.76170    0.05320    1.000
    C2       C        0.55430    0.77680    0.02970    1.000
    H1       H        0.51520    0.76130    0.06020    1.000
    C3       C        0.56250    0.81540    0.96050    1.000
    H2       H        0.52810    0.82310    0.94370    1.000
    C4       C        0.62230    0.84150    0.91820    1.000
    C5       C        0.67220    0.83020    0.94480    1.000
    H3       H        0.71370    0.85100    0.91860    1.000
    C6       C        0.66360    0.78910    0.00920    1.000
    H4       H        0.69760    0.77970    0.02300    1.000
    C7       C        0.59400    0.71880    0.12400    1.000
    C8       C        0.63090    0.87950    0.84050    1.000
    C9       C        0.81680    0.09830    0.51120    1.000
    C10      C        0.81940    0.15820    0.48330    1.000
    H5       H        0.79700    0.17690    0.51020    1.000
    C11      C        0.85680    0.18870    0.41410    1.000
    H6       H        0.85660    0.22640    0.39330    1.000
    C12      C        0.89230    0.16510    0.37800    1.000
    C13      C        0.88760    0.10610    0.40290    1.000
    H7       H        0.90830    0.08680    0.37360    1.000
    C14      C        0.85190    0.07430    0.47220    1.000
    H8       H        0.85240    0.03630    0.49150    1.000
    C15      C        0.77610    0.06920    0.58240    1.000
    C16      C        0.94150    0.19920    0.30140    1.000
    C17      C        0.54660    0.04880    0.54060    1.000
    C18      C        0.56450    0.11530    0.50990    1.000
    H9       H        0.59790    0.15380    0.53510    1.000
    C19      C        0.53190    0.12190    0.44250    1.000
    H10      H        0.54220    0.16440    0.42360    1.000
    C20      C        0.48320    0.06230    0.40460    1.000
    C21      C        0.45720    0.00050    0.43380    1.000
    H11      H        0.41990    0.96370    0.41080    1.000
    C22      C        0.48920    0.99350    0.50190    1.000
    H12      H        0.47230    0.95040    0.52320    1.000
    C23      C        0.57970    0.04090    0.60890    1.000
    C24      C        0.44570    0.07150    0.33060    1.000
    O1       O        0.64360    0.71920    0.15530    1.000
    O2       O        0.53420    0.68390    0.14930    1.000
    O3       O        0.68610    0.90820    0.80850    1.000
    O4       O        0.57750    0.88280    0.81790    1.000
    O5       O        0.74730    0.09830    0.61470    1.000
    O6       O        0.78130    0.02100    0.60810    1.000
    O7       O        0.97960    0.18230    0.28130    1.000
    O8       O        0.94080    0.25150    0.27190    1.000
    O9       O        0.62490    0.09150    0.64040    1.000
    O10      O        0.55300    0.98200    0.63950    1.000
    O11      O        0.46060    0.12850    0.31120    1.000
    O12      O        0.40720    0.02060    0.29100    1.000
    Mg4      Mg       0.03828    0.77310    0.70670    1.000
    Mg5      Mg       0.06833    0.62864    0.73232    1.000
    Mg6      Mg       0.89235    0.59851    0.71200    1.000
    C25      C        0.23830    0.84280    0.05320    1.000
    C26      C        0.22320    0.77750    0.02970    1.000
    H13      H        0.23870    0.75390    0.06020    1.000
    C27      C        0.18460    0.74710    0.96050    1.000
    H14      H        0.17690    0.70500    0.94370    1.000
    C28      C        0.15850    0.78080    0.91820    1.000
    C29      C        0.16980    0.84200    0.94480    1.000
    H15      H        0.14900    0.86270    0.91860    1.000
    C30      C        0.21090    0.87450    0.00920    1.000
    H16      H        0.22030    0.91790    0.02300    1.000
    C31      C        0.28120    0.87520    0.12400    1.000
    C32      C        0.12050    0.75140    0.84050    1.000
    C33      C        0.90170    0.71850    0.51120    1.000
    C34      C        0.84180    0.66120    0.48330    1.000
    H17      H        0.82310    0.62010    0.51020    1.000
    C35      C        0.81130    0.66810    0.41410    1.000
    H18      H        0.77360    0.63020    0.39330    1.000
    C36      C        0.83490    0.72720    0.37800    1.000
    C37      C        0.89390    0.78150    0.40290    1.000
    H19      H        0.91320    0.82150    0.37360    1.000
    C38      C        0.92570    0.77760    0.47220    1.000
    H20      H        0.96370    0.81610    0.49150    1.000
    C39      C        0.93080    0.70690    0.58240    1.000
    C40      C        0.80080    0.74230    0.30140    1.000
    C41      C        0.95120    0.49780    0.54060    1.000
    C42      C        0.88470    0.44920    0.50990    1.000
    H21      H        0.84620    0.44410    0.53510    1.000
    C43      C        0.87810    0.41000    0.44250    1.000
    H22      H        0.83560    0.37780    0.42360    1.000
    C44      C        0.93770    0.42090    0.40460    1.000
    C45      C        0.99950    0.45670    0.43380    1.000
    H23      H        0.03630    0.45620    0.41080    1.000
    C46      C        0.00650    0.49570    0.50190    1.000
    H24      H        0.04960    0.52190    0.52320    1.000
    C47      C        0.95910    0.53880    0.60890    1.000
    C48      C        0.92850    0.37420    0.33060    1.000
    O13      O        0.28080    0.92440    0.15530    1.000
    O14      O        0.31610    0.85030    0.14930    1.000
    O15      O        0.09180    0.77790    0.80850    1.000
    O16      O        0.11720    0.69470    0.81790    1.000
    O17      O        0.90170    0.64900    0.61470    1.000
    O18      O        0.97900    0.76030    0.60810    1.000
    O19      O        0.81770    0.79730    0.28130    1.000
    O20      O        0.74850    0.68930    0.27190    1.000
    O21      O        0.90850    0.53340    0.64040    1.000
    O22      O        0.01800    0.57100    0.63950    1.000
    O23      O        0.87150    0.33210    0.31120    1.000
    O24      O        0.97940    0.38660    0.29100    1.000
    Mg7      Mg       0.22690    0.26518    0.70670    1.000
    Mg8      Mg       0.37136    0.43969    0.73232    1.000
    Mg9      Mg       0.40149    0.29384    0.71200    1.000
    C49      C        0.15720    0.39550    0.05320    1.000
    C50      C        0.22250    0.44570    0.02970    1.000
    H25      H        0.24610    0.48480    0.06020    1.000
    C51      C        0.25290    0.43750    0.96050    1.000
    H26      H        0.29500    0.47190    0.94370    1.000
    C52      C        0.21920    0.37770    0.91820    1.000
    C53      C        0.15800    0.32780    0.94480    1.000
    H27      H        0.13730    0.28630    0.91860    1.000
    C54      C        0.12550    0.33640    0.00920    1.000
    H28      H        0.08210    0.30240    0.02300    1.000
    C55      C        0.12480    0.40600    0.12400    1.000
    C56      C        0.24860    0.36910    0.84050    1.000
    C57      C        0.28150    0.18320    0.51120    1.000
    C58      C        0.33880    0.18060    0.48330    1.000
    H29      H        0.37990    0.20300    0.51020    1.000
    C59      C        0.33190    0.14320    0.41410    1.000
    H30      H        0.36980    0.14340    0.39330    1.000
    C60      C        0.27280    0.10770    0.37800    1.000
    C61      C        0.21850    0.11240    0.40290    1.000
    H31      H        0.17850    0.09170    0.37360    1.000
    C62      C        0.22240    0.14810    0.47220    1.000
    H32      H        0.18390    0.14760    0.49150    1.000
    C63      C        0.29310    0.22390    0.58240    1.000
    C64      C        0.25770    0.05850    0.30140    1.000
    C65      C        0.50220    0.45340    0.54060    1.000
    C66      C        0.55080    0.43550    0.50990    1.000
    H33      H        0.55590    0.40210    0.53510    1.000
    C67      C        0.59000    0.46810    0.44250    1.000
    H34      H        0.62220    0.45780    0.42360    1.000
    C68      C        0.57910    0.51680    0.40460    1.000
    C69      C        0.54330    0.54280    0.43380    1.000
    H35      H        0.54380    0.58010    0.41080    1.000
    C70      C        0.50430    0.51080    0.50190    1.000
    H36      H        0.47810    0.52770    0.52320    1.000
    C71      C        0.46120    0.42030    0.60890    1.000
    C72      C        0.62580    0.55430    0.33060    1.000
    O25      O        0.07560    0.35640    0.15530    1.000
    O26      O        0.14970    0.46580    0.14930    1.000
    O27      O        0.22210    0.31390    0.80850    1.000
    O28      O        0.30530    0.42250    0.81790    1.000
    O29      O        0.35100    0.25270    0.61470    1.000
    O30      O        0.23970    0.21870    0.60810    1.000
    O31      O        0.20270    0.02040    0.28130    1.000
    O32      O        0.31070    0.05920    0.27190    1.000
    O33      O        0.46660    0.37510    0.64040    1.000
    O34      O        0.42900    0.44700    0.63950    1.000
    O35      O        0.66790    0.53940    0.31120    1.000
    O36      O        0.61340    0.59280    0.29100    1.000
    Mg10     Mg       0.03828    0.26518    0.20670    1.000
    Mg11     Mg       0.06833    0.43969    0.23232    1.000
    Mg12     Mg       0.89235    0.29384    0.21200    1.000
    C73      C        0.23830    0.39550    0.55320    1.000
    C74      C        0.22320    0.44570    0.52970    1.000
    H37      H        0.23870    0.48480    0.56020    1.000
    C75      C        0.18460    0.43750    0.46050    1.000
    H38      H        0.17690    0.47190    0.44370    1.000
    C76      C        0.15850    0.37770    0.41820    1.000
    C77      C        0.16980    0.32780    0.44480    1.000
    H39      H        0.14900    0.28630    0.41860    1.000
    C78      C        0.21090    0.33640    0.50920    1.000
    H40      H        0.22030    0.30240    0.52300    1.000
    C79      C        0.28120    0.40600    0.62400    1.000
    C80      C        0.12050    0.36910    0.34050    1.000
    C81      C        0.90170    0.18320    0.01120    1.000
    C82      C        0.84180    0.18060    0.98330    1.000
    H41      H        0.82310    0.20300    0.01020    1.000
    C83      C        0.81130    0.14320    0.91410    1.000
    H42      H        0.77360    0.14340    0.89330    1.000
    C84      C        0.83490    0.10770    0.87800    1.000
    C85      C        0.89390    0.11240    0.90290    1.000
    H43      H        0.91320    0.09170    0.87360    1.000
    C86      C        0.92570    0.14810    0.97220    1.000
    H44      H        0.96370    0.14760    0.99150    1.000
    C87      C        0.93080    0.22390    0.08240    1.000
    C88      C        0.80080    0.05850    0.80140    1.000
    C89      C        0.95120    0.45340    0.04060    1.000
    C90      C        0.88470    0.43550    0.00990    1.000
    H45      H        0.84620    0.40210    0.03510    1.000
    C91      C        0.87810    0.46810    0.94250    1.000
    H46      H        0.83560    0.45780    0.92360    1.000
    C92      C        0.93770    0.51680    0.90460    1.000
    C93      C        0.99950    0.54280    0.93380    1.000
    H47      H        0.03630    0.58010    0.91080    1.000
    C94      C        0.00650    0.51080    0.00190    1.000
    H48      H        0.04960    0.52770    0.02320    1.000
    C95      C        0.95910    0.42030    0.10890    1.000
    C96      C        0.92850    0.55430    0.83060    1.000
    O37      O        0.28080    0.35640    0.65530    1.000
    O38      O        0.31610    0.46580    0.64930    1.000
    O39      O        0.09180    0.31390    0.30850    1.000
    O40      O        0.11720    0.42250    0.31790    1.000
    O41      O        0.90170    0.25270    0.11470    1.000
    O42      O        0.97900    0.21870    0.10810    1.000
    O43      O        0.81770    0.02040    0.78130    1.000
    O44      O        0.74850    0.05920    0.77190    1.000
    O45      O        0.90850    0.37510    0.14040    1.000
    O46      O        0.01800    0.44700    0.13950    1.000
    O47      O        0.87150    0.53940    0.81120    1.000
    O48      O        0.97940    0.59280    0.79100    1.000
    Mg13     Mg       0.22690    0.96172    0.20670    1.000
    Mg14     Mg       0.37136    0.93167    0.23232    1.000
    Mg15     Mg       0.40149    0.10765    0.21200    1.000
    C97      C        0.15720    0.76170    0.55320    1.000
    C98      C        0.22250    0.77680    0.52970    1.000
    H49      H        0.24610    0.76130    0.56020    1.000
    C99      C        0.25290    0.81540    0.46050    1.000
    H50      H        0.29500    0.82310    0.44370    1.000
    C100     C        0.21920    0.84150    0.41820    1.000
    C101     C        0.15800    0.83020    0.44480    1.000
    H51      H        0.13730    0.85100    0.41860    1.000
    C102     C        0.12550    0.78910    0.50920    1.000
    H52      H        0.08210    0.77970    0.52300    1.000
    C103     C        0.12480    0.71880    0.62400    1.000
    C104     C        0.24860    0.87950    0.34050    1.000
    C105     C        0.28150    0.09830    0.01120    1.000
    C106     C        0.33880    0.15820    0.98330    1.000
    H53      H        0.37990    0.17690    0.01020    1.000
    C107     C        0.33190    0.18870    0.91410    1.000
    H54      H        0.36980    0.22640    0.89330    1.000
    C108     C        0.27280    0.16510    0.87800    1.000
    C109     C        0.21850    0.10610    0.90290    1.000
    H55      H        0.17850    0.08680    0.87360    1.000
    C110     C        0.22240    0.07430    0.97220    1.000
    H56      H        0.18390    0.03630    0.99150    1.000
    C111     C        0.29310    0.06920    0.08240    1.000
    C112     C        0.25770    0.19920    0.80140    1.000
    C113     C        0.50220    0.04880    0.04060    1.000
    C114     C        0.55080    0.11530    0.00990    1.000
    H57      H        0.55590    0.15380    0.03510    1.000
    C115     C        0.59000    0.12190    0.94250    1.000
    H58      H        0.62220    0.16440    0.92360    1.000
    C116     C        0.57910    0.06230    0.90460    1.000
    C117     C        0.54330    0.00050    0.93380    1.000
    H59      H        0.54380    0.96370    0.91080    1.000
    C118     C        0.50430    0.99350    0.00190    1.000
    H60      H        0.47810    0.95040    0.02320    1.000
    C119     C        0.46120    0.04090    0.10890    1.000
    C120     C        0.62580    0.07150    0.83060    1.000
    O49      O        0.07560    0.71920    0.65530    1.000
    O50      O        0.14970    0.68390    0.64930    1.000
    O51      O        0.22210    0.90820    0.30850    1.000
    O52      O        0.30530    0.88280    0.31790    1.000
    O53      O        0.35100    0.09830    0.11470    1.000
    O54      O        0.23970    0.02100    0.10810    1.000
    O55      O        0.20270    0.18230    0.78130    1.000
    O56      O        0.31070    0.25150    0.77190    1.000
    O57      O        0.46660    0.09150    0.14040    1.000
    O58      O        0.42900    0.98200    0.13950    1.000
    O59      O        0.66790    0.12850    0.81120    1.000
    O60      O        0.61340    0.02060    0.79100    1.000
    Mg16     Mg       0.73482    0.77310    0.20670    1.000
    Mg17     Mg       0.56031    0.62864    0.23232    1.000
    Mg18     Mg       0.70616    0.59851    0.21200    1.000
    C121     C        0.60450    0.84280    0.55320    1.000
    C122     C        0.55430    0.77750    0.52970    1.000
    H61      H        0.51520    0.75390    0.56020    1.000
    C123     C        0.56250    0.74710    0.46050    1.000
    H62      H        0.52810    0.70500    0.44370    1.000
    C124     C        0.62230    0.78080    0.41820    1.000
    C125     C        0.67220    0.84200    0.44480    1.000
    H63      H        0.71370    0.86270    0.41860    1.000
    C126     C        0.66360    0.87450    0.50920    1.000
    H64      H        0.69760    0.91790    0.52300    1.000
    C127     C        0.59400    0.87520    0.62400    1.000
    C128     C        0.63090    0.75140    0.34050    1.000
    C129     C        0.81680    0.71850    0.01120    1.000
    C130     C        0.81940    0.66120    0.98330    1.000
    H65      H        0.79700    0.62010    0.01020    1.000
    C131     C        0.85680    0.66810    0.91410    1.000
    H66      H        0.85660    0.63020    0.89330    1.000
    C132     C        0.89230    0.72720    0.87800    1.000
    C133     C        0.88760    0.78150    0.90290    1.000
    H67      H        0.90830    0.82150    0.87360    1.000
    C134     C        0.85190    0.77760    0.97220    1.000
    H68      H        0.85240    0.81610    0.99150    1.000
    C135     C        0.77610    0.70690    0.08240    1.000
    C136     C        0.94150    0.74230    0.80140    1.000
    C137     C        0.54660    0.49780    0.04060    1.000
    C138     C        0.56450    0.44920    0.00990    1.000
    H69      H        0.59790    0.44410    0.03510    1.000
    C139     C        0.53190    0.41000    0.94250    1.000
    H70      H        0.54220    0.37780    0.92360    1.000
    C140     C        0.48320    0.42090    0.90460    1.000
    C141     C        0.45720    0.45670    0.93380    1.000
    H71      H        0.41990    0.45620    0.91080    1.000
    C142     C        0.48920    0.49570    0.00190    1.000
    H72      H        0.47230    0.52190    0.02320    1.000
    C143     C        0.57970    0.53880    0.10890    1.000
    C144     C        0.44570    0.37420    0.83060    1.000
    O61      O        0.64360    0.92440    0.65530    1.000
    O62      O        0.53420    0.85030    0.64930    1.000
    O63      O        0.68610    0.77790    0.30850    1.000
    O64      O        0.57750    0.69470    0.31790    1.000
    O65      O        0.74730    0.64900    0.11470    1.000
    O66      O        0.78130    0.76030    0.10810    1.000
    O67      O        0.97960    0.79730    0.78130    1.000
    O68      O        0.94080    0.68930    0.77190    1.000
    O69      O        0.62490    0.53340    0.14040    1.000
    O70      O        0.55300    0.57100    0.13950    1.000
    O71      O        0.46060    0.33210    0.81120    1.000
    O72      O        0.40720    0.38660    0.79100    1.000
