# CIF file generated by openbabel 3.1.0, see https://openbabel.org
data_I
_chemical_name_common 'FEDJUU_charged'
_cell_length_a 11.269
_cell_length_b 13.1064
_cell_length_c 13.1064
_cell_angle_alpha 90
_cell_angle_beta 90
_cell_angle_gamma 90
_space_group_name_H-M_alt 'P 1'
_space_group_name_Hall 'P 1'
loop_
    _symmetry_equiv_pos_as_xyz
    x,y,z
loop_
    _atom_site_label
    _atom_site_type_symbol
    _atom_site_fract_x
    _atom_site_fract_y
    _atom_site_fract_z
    _atom_site_occupancy
    Zn1      Zn       0.00000    0.00000    0.50000    1.000
    Zn2      Zn       0.50000    0.50000    0.00000    1.000
    H1       H        0.26430    0.76820    0.55600    1.000
    H2       H        0.42880    0.67180    0.60030    1.000
    H3       H        0.49730    0.86110    0.82370    1.000
    H4       H        0.33180    0.95470    0.78670    1.000
    H5       H        0.59030    0.69510    0.81940    1.000
    H6       H        0.57760    0.62930    0.71990    1.000
    H7       H        0.69260    0.82080    0.71650    1.000
    H8       H        0.69590    0.73910    0.62900    1.000
    H9       H        0.26430    0.23180    0.44400    1.000
    H10      H        0.42880    0.32820    0.39970    1.000
    H11      H        0.49730    0.13890    0.17630    1.000
    H12      H        0.33180    0.04530    0.21330    1.000
    H13      H        0.59030    0.30490    0.18060    1.000
    H14      H        0.57760    0.37070    0.28010    1.000
    H15      H        0.69260    0.17920    0.28350    1.000
    H16      H        0.69590    0.26090    0.37100    1.000
    H17      H        0.76430    0.44400    0.76820    1.000
    H18      H        0.92880    0.39970    0.67180    1.000
    H19      H        0.99730    0.17630    0.86110    1.000
    H20      H        0.83180    0.21330    0.95470    1.000
    H21      H        0.09030    0.18060    0.69510    1.000
    H22      H        0.07760    0.28010    0.62930    1.000
    H23      H        0.19260    0.28350    0.82080    1.000
    H24      H        0.19590    0.37100    0.73910    1.000
    H25      H        0.76430    0.55600    0.23180    1.000
    H26      H        0.92880    0.60030    0.32820    1.000
    H27      H        0.99730    0.82370    0.13890    1.000
    H28      H        0.83180    0.78670    0.04530    1.000
    H29      H        0.09030    0.81940    0.30490    1.000
    H30      H        0.07760    0.71990    0.37070    1.000
    H31      H        0.19260    0.71650    0.17920    1.000
    H32      H        0.19590    0.62900    0.26090    1.000
    H33      H        0.73570    0.23180    0.55600    1.000
    H34      H        0.57120    0.32820    0.60030    1.000
    H35      H        0.50270    0.13890    0.82370    1.000
    H36      H        0.66820    0.04530    0.78670    1.000
    H37      H        0.40970    0.30490    0.81940    1.000
    H38      H        0.42240    0.37070    0.71990    1.000
    H39      H        0.30740    0.17920    0.71650    1.000
    H40      H        0.30410    0.26090    0.62900    1.000
    H41      H        0.73570    0.76820    0.44400    1.000
    H42      H        0.57120    0.67180    0.39970    1.000
    H43      H        0.50270    0.86110    0.17630    1.000
    H44      H        0.66820    0.95470    0.21330    1.000
    H45      H        0.40970    0.69510    0.18060    1.000
    H46      H        0.42240    0.62930    0.28010    1.000
    H47      H        0.30740    0.82080    0.28350    1.000
    H48      H        0.30410    0.73910    0.37100    1.000
    H49      H        0.23570    0.55600    0.76820    1.000
    H50      H        0.07120    0.60030    0.67180    1.000
    H51      H        0.00270    0.82370    0.86110    1.000
    H52      H        0.16820    0.78670    0.95470    1.000
    H53      H        0.90970    0.81940    0.69510    1.000
    H54      H        0.92240    0.71990    0.62930    1.000
    H55      H        0.80740    0.71650    0.82080    1.000
    H56      H        0.80410    0.62900    0.73910    1.000
    H57      H        0.23570    0.44400    0.23180    1.000
    H58      H        0.07120    0.39970    0.32820    1.000
    H59      H        0.00270    0.17630    0.13890    1.000
    H60      H        0.16820    0.21330    0.04530    1.000
    H61      H        0.90970    0.18060    0.30490    1.000
    H62      H        0.92240    0.28010    0.37070    1.000
    H63      H        0.80740    0.28350    0.17920    1.000
    H64      H        0.80410    0.37100    0.26090    1.000
    C1       C        0.17000    0.93470    0.64000    1.000
    C2       C        0.27960    0.87070    0.66680    1.000
    C3       C        0.31010    0.78720    0.61190    1.000
    C4       C        0.40910    0.72940    0.63810    1.000
    C5       C        0.44840    0.84090    0.77020    1.000
    C6       C        0.35050    0.89770    0.74750    1.000
    C7       C        0.58400    0.69850    0.74570    1.000
    C8       C        0.69450    0.74820    0.70240    1.000
    C9       C        0.17000    0.06530    0.36000    1.000
    C10      C        0.27960    0.12930    0.33320    1.000
    C11      C        0.31010    0.21280    0.38810    1.000
    C12      C        0.40910    0.27060    0.36190    1.000
    C13      C        0.44840    0.15910    0.22980    1.000
    C14      C        0.35050    0.10230    0.25250    1.000
    C15      C        0.58400    0.30150    0.25430    1.000
    C16      C        0.69450    0.25180    0.29760    1.000
    C17      C        0.67000    0.36000    0.93470    1.000
    C18      C        0.77960    0.33320    0.87070    1.000
    C19      C        0.81010    0.38810    0.78720    1.000
    C20      C        0.90910    0.36190    0.72940    1.000
    C21      C        0.94840    0.22980    0.84090    1.000
    C22      C        0.85050    0.25250    0.89770    1.000
    C23      C        0.08400    0.25430    0.69850    1.000
    C24      C        0.19450    0.29760    0.74820    1.000
    C25      C        0.67000    0.64000    0.06530    1.000
    C26      C        0.77960    0.66680    0.12930    1.000
    C27      C        0.81010    0.61190    0.21280    1.000
    C28      C        0.90910    0.63810    0.27060    1.000
    C29      C        0.94840    0.77020    0.15910    1.000
    C30      C        0.85050    0.74750    0.10230    1.000
    C31      C        0.08400    0.74570    0.30150    1.000
    C32      C        0.19450    0.70240    0.25180    1.000
    C33      C        0.83000    0.06530    0.64000    1.000
    C34      C        0.72040    0.12930    0.66680    1.000
    C35      C        0.68990    0.21280    0.61190    1.000
    C36      C        0.59090    0.27060    0.63810    1.000
    C37      C        0.55160    0.15910    0.77020    1.000
    C38      C        0.64950    0.10230    0.74750    1.000
    C39      C        0.41600    0.30150    0.74570    1.000
    C40      C        0.30550    0.25180    0.70240    1.000
    C41      C        0.83000    0.93470    0.36000    1.000
    C42      C        0.72040    0.87070    0.33320    1.000
    C43      C        0.68990    0.78720    0.38810    1.000
    C44      C        0.59090    0.72940    0.36190    1.000
    C45      C        0.55160    0.84090    0.22980    1.000
    C46      C        0.64950    0.89770    0.25250    1.000
    C47      C        0.41600    0.69850    0.25430    1.000
    C48      C        0.30550    0.74820    0.29760    1.000
    C49      C        0.33000    0.64000    0.93470    1.000
    C50      C        0.22040    0.66680    0.87070    1.000
    C51      C        0.18990    0.61190    0.78720    1.000
    C52      C        0.09090    0.63810    0.72940    1.000
    C53      C        0.05160    0.77020    0.84090    1.000
    C54      C        0.14950    0.74750    0.89770    1.000
    C55      C        0.91600    0.74570    0.69850    1.000
    C56      C        0.80550    0.70240    0.74820    1.000
    C57      C        0.33000    0.36000    0.06530    1.000
    C58      C        0.22040    0.33320    0.12930    1.000
    C59      C        0.18990    0.38810    0.21280    1.000
    C60      C        0.09090    0.36190    0.27060    1.000
    C61      C        0.05160    0.22980    0.15910    1.000
    C62      C        0.14950    0.25250    0.10230    1.000
    C63      C        0.91600    0.25430    0.30150    1.000
    C64      C        0.80550    0.29760    0.25180    1.000
    N1       N        0.47560    0.75690    0.71730    1.000
    N2       N        0.47560    0.24310    0.28270    1.000
    N3       N        0.97560    0.28270    0.75690    1.000
    N4       N        0.97560    0.71730    0.24310    1.000
    N5       N        0.52440    0.24310    0.71730    1.000
    N6       N        0.52440    0.75690    0.28270    1.000
    N7       N        0.02440    0.71730    0.75690    1.000
    N8       N        0.02440    0.28270    0.24310    1.000
    O1       O        0.11300    0.90440    0.56340    1.000
    O2       O        0.14600    0.00810    0.69540    1.000
    O3       O        0.11300    0.09560    0.43660    1.000
    O4       O        0.14600    0.99190    0.30460    1.000
    O5       O        0.61300    0.43660    0.90440    1.000
    O6       O        0.64600    0.30460    0.00810    1.000
    O7       O        0.61300    0.56340    0.09560    1.000
    O8       O        0.64600    0.69540    0.99190    1.000
    O9       O        0.88700    0.09560    0.56340    1.000
    O10      O        0.85400    0.99190    0.69540    1.000
    O11      O        0.88700    0.90440    0.43660    1.000
    O12      O        0.85400    0.00810    0.30460    1.000
    O13      O        0.38700    0.56340    0.90440    1.000
    O14      O        0.35400    0.69540    0.00810    1.000
    O15      O        0.38700    0.43660    0.09560    1.000
    O16      O        0.35400    0.30460    0.99190    1.000
    Cl1      Cl       0.00000    0.50000    0.00000    1.000
    O17      O        0.07230    0.56270    0.06340    1.000
    O18      O        0.07230    0.43730    0.93660    1.000
    O19      O        0.92770    0.43730    0.06340    1.000
    O20      O        0.92770    0.56270    0.93660    1.000
    Cl2      Cl       0.50000    0.00000    0.50000    1.000
    O21      O        0.57230    0.93660    0.56270    1.000
    O22      O        0.57230    0.06340    0.43730    1.000
    O23      O        0.42770    0.06340    0.56270    1.000
    O24      O        0.42770    0.93660    0.43730    1.000
    Cl3      Cl       0.75000    0.50000    0.50000    1.000
    O25      O        0.82110    0.58860    0.50210    1.000
    O26      O        0.82110    0.41140    0.49790    1.000
    O27      O        0.67890    0.50210    0.58860    1.000
    O28      O        0.67890    0.49790    0.41140    1.000
    Cl4      Cl       0.25000    0.50000    0.50000    1.000
    O29      O        0.32110    0.49790    0.58860    1.000
    O30      O        0.32110    0.50210    0.41140    1.000
    O31      O        0.17890    0.41140    0.50210    1.000
    O32      O        0.17890    0.58860    0.49790    1.000
