# CIF file generated by openbabel 3.1.0, see https://openbabel.org
data_I
_chemical_name_common 'image0'
_cell_length_a 7.2127
_cell_length_b 23.7652
_cell_length_c 30.732
_cell_angle_alpha 90
_cell_angle_beta 90
_cell_angle_gamma 90
_space_group_name_H-M_alt 'P 1'
_space_group_name_Hall 'P 1'
loop_
    _symmetry_equiv_pos_as_xyz
    x,y,z
loop_
    _atom_site_label
    _atom_site_type_symbol
    _atom_site_fract_x
    _atom_site_fract_y
    _atom_site_fract_z
    _atom_site_occupancy
    Ag1      Ag       0.19524    0.77001    0.29069    1.000
    Ag2      Ag       0.52785    0.44257    0.48416    1.000
    O1       O        0.34360    0.69592    0.31402    1.000
    O2       O        0.45270    0.66747    0.24954    1.000
    O3       O        0.47940    0.58787    0.44635    1.000
    O4       O        0.65830    0.51167    0.44176    1.000
    N1       N        0.10860    0.81264    0.35754    1.000
    N2       N        0.01910    0.87421    0.43152    1.000
    C1       C        0.00090    0.85818    0.35563    1.000
    H1       H        0.95390    0.86990    0.32860    1.000
    C2       C        0.95710    0.88841    0.39255    1.000
    H2       H        0.88060    0.92020    0.38990    1.000
    C3       C        0.12460    0.82818    0.43338    1.000
    H3       H        0.16950    0.81610    0.46050    1.000
    C4       C        0.16960    0.79793    0.39675    1.000
    H4       H        0.24550    0.76600    0.39950    1.000
    C5       C        0.43340    0.66338    0.28997    1.000
    C6       C        0.52880    0.61452    0.31183    1.000
    C7       C        0.63680    0.57723    0.28805    1.000
    H5       H        0.64740    0.58140    0.25770    1.000
    C8       C        0.72890    0.53392    0.30888    1.000
    H6       H        0.80320    0.50900    0.29270    1.000
    C9       C        0.71230    0.52716    0.35301    1.000
    H7       H        0.77650    0.49780    0.36690    1.000
    C10      C        0.60140    0.56326    0.37751    1.000
    C11      C        0.51130    0.60719    0.35654    1.000
    H8       H        0.43770    0.63220    0.37270    1.000
    C12      C        0.57830    0.55376    0.42535    1.000
    Ag3      Ag       0.69524    0.27001    0.79069    1.000
    Ag4      Ag       0.02785    0.94257    0.98416    1.000
    O5       O        0.84360    0.19592    0.81402    1.000
    O6       O        0.95270    0.16747    0.74954    1.000
    O7       O        0.97940    0.08787    0.94635    1.000
    O8       O        0.15830    0.01167    0.94176    1.000
    N3       N        0.60860    0.31264    0.85754    1.000
    N4       N        0.51910    0.37421    0.93152    1.000
    C13      C        0.50090    0.35818    0.85563    1.000
    H9       H        0.45390    0.36990    0.82860    1.000
    C14      C        0.45710    0.38841    0.89255    1.000
    H10      H        0.38060    0.42020    0.88990    1.000
    C15      C        0.62460    0.32818    0.93338    1.000
    H11      H        0.66950    0.31610    0.96050    1.000
    C16      C        0.66960    0.29793    0.89675    1.000
    H12      H        0.74550    0.26600    0.89950    1.000
    C17      C        0.93340    0.16338    0.78997    1.000
    C18      C        0.02880    0.11452    0.81183    1.000
    C19      C        0.13680    0.07723    0.78805    1.000
    H13      H        0.14740    0.08140    0.75770    1.000
    C20      C        0.22890    0.03392    0.80888    1.000
    H14      H        0.30320    0.00900    0.79270    1.000
    C21      C        0.21230    0.02716    0.85301    1.000
    H15      H        0.27650    0.99780    0.86690    1.000
    C22      C        0.10140    0.06326    0.87751    1.000
    C23      C        0.01130    0.10719    0.85654    1.000
    H16      H        0.93770    0.13220    0.87270    1.000
    C24      C        0.07830    0.05376    0.92535    1.000
    Ag5      Ag       0.30476    0.22999    0.79069    1.000
    Ag6      Ag       0.97215    0.55743    0.98416    1.000
    O9       O        0.15640    0.30408    0.81402    1.000
    O10      O        0.04730    0.33253    0.74954    1.000
    O11      O        0.02060    0.41213    0.94635    1.000
    O12      O        0.84170    0.48833    0.94176    1.000
    N5       N        0.39140    0.18736    0.85754    1.000
    N6       N        0.48090    0.12579    0.93152    1.000
    C25      C        0.49910    0.14182    0.85563    1.000
    H17      H        0.54610    0.13010    0.82860    1.000
    C26      C        0.54290    0.11159    0.89255    1.000
    H18      H        0.61940    0.07980    0.88990    1.000
    C27      C        0.37540    0.17182    0.93338    1.000
    H19      H        0.33050    0.18390    0.96050    1.000
    C28      C        0.33040    0.20207    0.89675    1.000
    H20      H        0.25450    0.23400    0.89950    1.000
    C29      C        0.06660    0.33662    0.78997    1.000
    C30      C        0.97120    0.38548    0.81183    1.000
    C31      C        0.86320    0.42277    0.78805    1.000
    H21      H        0.85260    0.41860    0.75770    1.000
    C32      C        0.77110    0.46608    0.80888    1.000
    H22      H        0.69680    0.49100    0.79270    1.000
    C33      C        0.78770    0.47284    0.85301    1.000
    H23      H        0.72350    0.50220    0.86690    1.000
    C34      C        0.89860    0.43674    0.87751    1.000
    C35      C        0.98870    0.39281    0.85654    1.000
    H24      H        0.06230    0.36780    0.87270    1.000
    C36      C        0.92170    0.44624    0.92535    1.000
    Ag7      Ag       0.80476    0.72999    0.29069    1.000
    Ag8      Ag       0.47215    0.05743    0.48416    1.000
    O13      O        0.65640    0.80408    0.31402    1.000
    O14      O        0.54730    0.83253    0.24954    1.000
    O15      O        0.52060    0.91213    0.44635    1.000
    O16      O        0.34170    0.98833    0.44176    1.000
    N7       N        0.89140    0.68736    0.35754    1.000
    N8       N        0.98090    0.62579    0.43152    1.000
    C37      C        0.99910    0.64182    0.35563    1.000
    H25      H        0.04610    0.63010    0.32860    1.000
    C38      C        0.04290    0.61159    0.39255    1.000
    H26      H        0.11940    0.57980    0.38990    1.000
    C39      C        0.87540    0.67182    0.43338    1.000
    H27      H        0.83050    0.68390    0.46050    1.000
    C40      C        0.83040    0.70207    0.39675    1.000
    H28      H        0.75450    0.73400    0.39950    1.000
    C41      C        0.56660    0.83662    0.28997    1.000
    C42      C        0.47120    0.88548    0.31183    1.000
    C43      C        0.36320    0.92277    0.28805    1.000
    H29      H        0.35260    0.91860    0.25770    1.000
    C44      C        0.27110    0.96608    0.30888    1.000
    H30      H        0.19680    0.99100    0.29270    1.000
    C45      C        0.28770    0.97284    0.35301    1.000
    H31      H        0.22350    0.00220    0.36690    1.000
    C46      C        0.39860    0.93674    0.37751    1.000
    C47      C        0.48870    0.89281    0.35654    1.000
    H32      H        0.56230    0.86780    0.37270    1.000
    C48      C        0.42170    0.94624    0.42535    1.000
    Ag9      Ag       0.80476    0.27001    0.20931    1.000
    Ag10     Ag       0.47215    0.94257    0.01584    1.000
    O17      O        0.65640    0.19592    0.18598    1.000
    O18      O        0.54730    0.16747    0.25046    1.000
    O19      O        0.52060    0.08787    0.05365    1.000
    O20      O        0.34170    0.01167    0.05824    1.000
    N9       N        0.89140    0.31264    0.14246    1.000
    N10      N        0.98090    0.37421    0.06848    1.000
    C49      C        0.99910    0.35818    0.14437    1.000
    H33      H        0.04610    0.36990    0.17140    1.000
    C50      C        0.04290    0.38841    0.10745    1.000
    H34      H        0.11940    0.42020    0.11010    1.000
    C51      C        0.87540    0.32818    0.06662    1.000
    H35      H        0.83050    0.31610    0.03950    1.000
    C52      C        0.83040    0.29793    0.10325    1.000
    H36      H        0.75450    0.26600    0.10050    1.000
    C53      C        0.56660    0.16338    0.21003    1.000
    C54      C        0.47120    0.11452    0.18817    1.000
    C55      C        0.36320    0.07723    0.21195    1.000
    H37      H        0.35260    0.08140    0.24230    1.000
    C56      C        0.27110    0.03392    0.19112    1.000
    H38      H        0.19680    0.00900    0.20730    1.000
    C57      C        0.28770    0.02716    0.14699    1.000
    H39      H        0.22350    0.99780    0.13310    1.000
    C58      C        0.39860    0.06326    0.12249    1.000
    C59      C        0.48870    0.10719    0.14346    1.000
    H40      H        0.56230    0.13220    0.12730    1.000
    C60      C        0.42170    0.05376    0.07465    1.000
    Ag11     Ag       0.30476    0.77001    0.70931    1.000
    Ag12     Ag       0.97215    0.44257    0.51584    1.000
    O21      O        0.15640    0.69592    0.68598    1.000
    O22      O        0.04730    0.66747    0.75046    1.000
    O23      O        0.02060    0.58787    0.55365    1.000
    O24      O        0.84170    0.51167    0.55824    1.000
    N11      N        0.39140    0.81264    0.64246    1.000
    N12      N        0.48090    0.87421    0.56848    1.000
    C61      C        0.49910    0.85818    0.64437    1.000
    H41      H        0.54610    0.86990    0.67140    1.000
    C62      C        0.54290    0.88841    0.60745    1.000
    H42      H        0.61940    0.92020    0.61010    1.000
    C63      C        0.37540    0.82818    0.56662    1.000
    H43      H        0.33050    0.81610    0.53950    1.000
    C64      C        0.33040    0.79793    0.60325    1.000
    H44      H        0.25450    0.76600    0.60050    1.000
    C65      C        0.06660    0.66338    0.71003    1.000
    C66      C        0.97120    0.61452    0.68817    1.000
    C67      C        0.86320    0.57723    0.71195    1.000
    H45      H        0.85260    0.58140    0.74230    1.000
    C68      C        0.77110    0.53392    0.69112    1.000
    H46      H        0.69680    0.50900    0.70730    1.000
    C69      C        0.78770    0.52716    0.64699    1.000
    H47      H        0.72350    0.49780    0.63310    1.000
    C70      C        0.89860    0.56326    0.62249    1.000
    C71      C        0.98870    0.60719    0.64346    1.000
    H48      H        0.06230    0.63220    0.62730    1.000
    C72      C        0.92170    0.55376    0.57465    1.000
    Ag13     Ag       0.69524    0.72999    0.70931    1.000
    Ag14     Ag       0.02785    0.05743    0.51584    1.000
    O25      O        0.84360    0.80408    0.68598    1.000
    O26      O        0.95270    0.83253    0.75046    1.000
    O27      O        0.97940    0.91213    0.55365    1.000
    O28      O        0.15830    0.98833    0.55824    1.000
    N13      N        0.60860    0.68736    0.64246    1.000
    N14      N        0.51910    0.62579    0.56848    1.000
    C73      C        0.50090    0.64182    0.64437    1.000
    H49      H        0.45390    0.63010    0.67140    1.000
    C74      C        0.45710    0.61159    0.60745    1.000
    H50      H        0.38060    0.57980    0.61010    1.000
    C75      C        0.62460    0.67182    0.56662    1.000
    H51      H        0.66950    0.68390    0.53950    1.000
    C76      C        0.66960    0.70207    0.60325    1.000
    H52      H        0.74550    0.73400    0.60050    1.000
    C77      C        0.93340    0.83662    0.71003    1.000
    C78      C        0.02880    0.88548    0.68817    1.000
    C79      C        0.13680    0.92277    0.71195    1.000
    H53      H        0.14740    0.91860    0.74230    1.000
    C80      C        0.22890    0.96608    0.69112    1.000
    H54      H        0.30320    0.99100    0.70730    1.000
    C81      C        0.21230    0.97284    0.64699    1.000
    H55      H        0.27650    0.00220    0.63310    1.000
    C82      C        0.10140    0.93674    0.62249    1.000
    C83      C        0.01130    0.89281    0.64346    1.000
    H56      H        0.93770    0.86780    0.62730    1.000
    C84      C        0.07830    0.94624    0.57465    1.000
    Ag15     Ag       0.19524    0.22999    0.20931    1.000
    Ag16     Ag       0.52785    0.55743    0.01584    1.000
    O29      O        0.34360    0.30408    0.18598    1.000
    O30      O        0.45270    0.33253    0.25046    1.000
    O31      O        0.47940    0.41213    0.05365    1.000
    O32      O        0.65830    0.48833    0.05824    1.000
    N15      N        0.10860    0.18736    0.14246    1.000
    N16      N        0.01910    0.12579    0.06848    1.000
    C85      C        0.00090    0.14182    0.14437    1.000
    H57      H        0.95390    0.13010    0.17140    1.000
    C86      C        0.95710    0.11159    0.10745    1.000
    H58      H        0.88060    0.07980    0.11010    1.000
    C87      C        0.12460    0.17182    0.06662    1.000
    H59      H        0.16950    0.18390    0.03950    1.000
    C88      C        0.16960    0.20207    0.10325    1.000
    H60      H        0.24550    0.23400    0.10050    1.000
    C89      C        0.43340    0.33662    0.21003    1.000
    C90      C        0.52880    0.38548    0.18817    1.000
    C91      C        0.63680    0.42277    0.21195    1.000
    H61      H        0.64740    0.41860    0.24230    1.000
    C92      C        0.72890    0.46608    0.19112    1.000
    H62      H        0.80320    0.49100    0.20730    1.000
    C93      C        0.71230    0.47284    0.14699    1.000
    H63      H        0.77650    0.50220    0.13310    1.000
    C94      C        0.60140    0.43674    0.12249    1.000
    C95      C        0.51130    0.39281    0.14346    1.000
    H64      H        0.43770    0.36780    0.12730    1.000
    C96      C        0.57830    0.44624    0.07465    1.000
    Ag17     Ag       0.80476    0.22999    0.70931    1.000
    Ag18     Ag       0.47215    0.55743    0.51584    1.000
    O33      O        0.65640    0.30408    0.68598    1.000
    O34      O        0.54730    0.33253    0.75046    1.000
    O35      O        0.52060    0.41213    0.55365    1.000
    O36      O        0.34170    0.48833    0.55824    1.000
    N17      N        0.89140    0.18736    0.64246    1.000
    N18      N        0.98090    0.12579    0.56848    1.000
    C97      C        0.99910    0.14182    0.64437    1.000
    H65      H        0.04610    0.13010    0.67140    1.000
    C98      C        0.04290    0.11159    0.60745    1.000
    H66      H        0.11940    0.07980    0.61010    1.000
    C99      C        0.87540    0.17182    0.56662    1.000
    H67      H        0.83050    0.18390    0.53950    1.000
    C100     C        0.83040    0.20207    0.60325    1.000
    H68      H        0.75450    0.23400    0.60050    1.000
    C101     C        0.56660    0.33662    0.71003    1.000
    C102     C        0.47120    0.38548    0.68817    1.000
    C103     C        0.36320    0.42277    0.71195    1.000
    H69      H        0.35260    0.41860    0.74230    1.000
    C104     C        0.27110    0.46608    0.69112    1.000
    H70      H        0.19680    0.49100    0.70730    1.000
    C105     C        0.28770    0.47284    0.64699    1.000
    H71      H        0.22350    0.50220    0.63310    1.000
    C106     C        0.39860    0.43674    0.62249    1.000
    C107     C        0.48870    0.39281    0.64346    1.000
    H72      H        0.56230    0.36780    0.62730    1.000
    C108     C        0.42170    0.44624    0.57465    1.000
    Ag19     Ag       0.30476    0.72999    0.20931    1.000
    Ag20     Ag       0.97215    0.05743    0.01584    1.000
    O37      O        0.15640    0.80408    0.18598    1.000
    O38      O        0.04730    0.83253    0.25046    1.000
    O39      O        0.02060    0.91213    0.05365    1.000
    O40      O        0.84170    0.98833    0.05824    1.000
    N19      N        0.39140    0.68736    0.14246    1.000
    N20      N        0.48090    0.62579    0.06848    1.000
    C109     C        0.49910    0.64182    0.14437    1.000
    H73      H        0.54610    0.63010    0.17140    1.000
    C110     C        0.54290    0.61159    0.10745    1.000
    H74      H        0.61940    0.57980    0.11010    1.000
    C111     C        0.37540    0.67182    0.06662    1.000
    H75      H        0.33050    0.68390    0.03950    1.000
    C112     C        0.33040    0.70207    0.10325    1.000
    H76      H        0.25450    0.73400    0.10050    1.000
    C113     C        0.06660    0.83662    0.21003    1.000
    C114     C        0.97120    0.88548    0.18817    1.000
    C115     C        0.86320    0.92277    0.21195    1.000
    H77      H        0.85260    0.91860    0.24230    1.000
    C116     C        0.77110    0.96608    0.19112    1.000
    H78      H        0.69680    0.99100    0.20730    1.000
    C117     C        0.78770    0.97284    0.14699    1.000
    H79      H        0.72350    0.00220    0.13310    1.000
    C118     C        0.89860    0.93674    0.12249    1.000
    C119     C        0.98870    0.89281    0.14346    1.000
    H80      H        0.06230    0.86780    0.12730    1.000
    C120     C        0.92170    0.94624    0.07465    1.000
    Ag21     Ag       0.69524    0.77001    0.20931    1.000
    Ag22     Ag       0.02785    0.44257    0.01584    1.000
    O41      O        0.84360    0.69592    0.18598    1.000
    O42      O        0.95270    0.66747    0.25046    1.000
    O43      O        0.97940    0.58787    0.05365    1.000
    O44      O        0.15830    0.51167    0.05824    1.000
    N21      N        0.60860    0.81264    0.14246    1.000
    N22      N        0.51910    0.87421    0.06848    1.000
    C121     C        0.50090    0.85818    0.14437    1.000
    H81      H        0.45390    0.86990    0.17140    1.000
    C122     C        0.45710    0.88841    0.10745    1.000
    H82      H        0.38060    0.92020    0.11010    1.000
    C123     C        0.62460    0.82818    0.06662    1.000
    H83      H        0.66950    0.81610    0.03950    1.000
    C124     C        0.66960    0.79793    0.10325    1.000
    H84      H        0.74550    0.76600    0.10050    1.000
    C125     C        0.93340    0.66338    0.21003    1.000
    C126     C        0.02880    0.61452    0.18817    1.000
    C127     C        0.13680    0.57723    0.21195    1.000
    H85      H        0.14740    0.58140    0.24230    1.000
    C128     C        0.22890    0.53392    0.19112    1.000
    H86      H        0.30320    0.50900    0.20730    1.000
    C129     C        0.21230    0.52716    0.14699    1.000
    H87      H        0.27650    0.49780    0.13310    1.000
    C130     C        0.10140    0.56326    0.12249    1.000
    C131     C        0.01130    0.60719    0.14346    1.000
    H88      H        0.93770    0.63220    0.12730    1.000
    C132     C        0.07830    0.55376    0.07465    1.000
    Ag23     Ag       0.19524    0.27001    0.70931    1.000
    Ag24     Ag       0.52785    0.94257    0.51584    1.000
    O45      O        0.34360    0.19592    0.68598    1.000
    O46      O        0.45270    0.16747    0.75046    1.000
    O47      O        0.47940    0.08787    0.55365    1.000
    O48      O        0.65830    0.01167    0.55824    1.000
    N23      N        0.10860    0.31264    0.64246    1.000
    N24      N        0.01910    0.37421    0.56848    1.000
    C133     C        0.00090    0.35818    0.64437    1.000
    H89      H        0.95390    0.36990    0.67140    1.000
    C134     C        0.95710    0.38841    0.60745    1.000
    H90      H        0.88060    0.42020    0.61010    1.000
    C135     C        0.12460    0.32818    0.56662    1.000
    H91      H        0.16950    0.31610    0.53950    1.000
    C136     C        0.16960    0.29793    0.60325    1.000
    H92      H        0.24550    0.26600    0.60050    1.000
    C137     C        0.43340    0.16338    0.71003    1.000
    C138     C        0.52880    0.11452    0.68817    1.000
    C139     C        0.63680    0.07723    0.71195    1.000
    H93      H        0.64740    0.08140    0.74230    1.000
    C140     C        0.72890    0.03392    0.69112    1.000
    H94      H        0.80320    0.00900    0.70730    1.000
    C141     C        0.71230    0.02716    0.64699    1.000
    H95      H        0.77650    0.99780    0.63310    1.000
    C142     C        0.60140    0.06326    0.62249    1.000
    C143     C        0.51130    0.10719    0.64346    1.000
    H96      H        0.43770    0.13220    0.62730    1.000
    C144     C        0.57830    0.05376    0.57465    1.000
    Ag25     Ag       0.19524    0.72999    0.79069    1.000
    Ag26     Ag       0.52785    0.05743    0.98416    1.000
    O49      O        0.34360    0.80408    0.81402    1.000
    O50      O        0.45270    0.83253    0.74954    1.000
    O51      O        0.47940    0.91213    0.94635    1.000
    O52      O        0.65830    0.98833    0.94176    1.000
    N25      N        0.10860    0.68736    0.85754    1.000
    N26      N        0.01910    0.62579    0.93152    1.000
    C145     C        0.00090    0.64182    0.85563    1.000
    H97      H        0.95390    0.63010    0.82860    1.000
    C146     C        0.95710    0.61159    0.89255    1.000
    H98      H        0.88060    0.57980    0.88990    1.000
    C147     C        0.12460    0.67182    0.93338    1.000
    H99      H        0.16950    0.68390    0.96050    1.000
    C148     C        0.16960    0.70207    0.89675    1.000
    H100     H        0.24550    0.73400    0.89950    1.000
    C149     C        0.43340    0.83662    0.78997    1.000
    C150     C        0.52880    0.88548    0.81183    1.000
    C151     C        0.63680    0.92277    0.78805    1.000
    H101     H        0.64740    0.91860    0.75770    1.000
    C152     C        0.72890    0.96608    0.80888    1.000
    H102     H        0.80320    0.99100    0.79270    1.000
    C153     C        0.71230    0.97284    0.85301    1.000
    H103     H        0.77650    0.00220    0.86690    1.000
    C154     C        0.60140    0.93674    0.87751    1.000
    C155     C        0.51130    0.89281    0.85654    1.000
    H104     H        0.43770    0.86780    0.87270    1.000
    C156     C        0.57830    0.94624    0.92535    1.000
    Ag27     Ag       0.69524    0.22999    0.29069    1.000
    Ag28     Ag       0.02785    0.55743    0.48416    1.000
    O53      O        0.84360    0.30408    0.31402    1.000
    O54      O        0.95270    0.33253    0.24954    1.000
    O55      O        0.97940    0.41213    0.44635    1.000
    O56      O        0.15830    0.48833    0.44176    1.000
    N27      N        0.60860    0.18736    0.35754    1.000
    N28      N        0.51910    0.12579    0.43152    1.000
    C157     C        0.50090    0.14182    0.35563    1.000
    H105     H        0.45390    0.13010    0.32860    1.000
    C158     C        0.45710    0.11159    0.39255    1.000
    H106     H        0.38060    0.07980    0.38990    1.000
    C159     C        0.62460    0.17182    0.43338    1.000
    H107     H        0.66950    0.18390    0.46050    1.000
    C160     C        0.66960    0.20207    0.39675    1.000
    H108     H        0.74550    0.23400    0.39950    1.000
    C161     C        0.93340    0.33662    0.28997    1.000
    C162     C        0.02880    0.38548    0.31183    1.000
    C163     C        0.13680    0.42277    0.28805    1.000
    H109     H        0.14740    0.41860    0.25770    1.000
    C164     C        0.22890    0.46608    0.30888    1.000
    H110     H        0.30320    0.49100    0.29270    1.000
    C165     C        0.21230    0.47284    0.35301    1.000
    H111     H        0.27650    0.50220    0.36690    1.000
    C166     C        0.10140    0.43674    0.37751    1.000
    C167     C        0.01130    0.39281    0.35654    1.000
    H112     H        0.93770    0.36780    0.37270    1.000
    C168     C        0.07830    0.44624    0.42535    1.000
    Ag29     Ag       0.30476    0.27001    0.29069    1.000
    Ag30     Ag       0.97215    0.94257    0.48416    1.000
    O57      O        0.15640    0.19592    0.31402    1.000
    O58      O        0.04730    0.16747    0.24954    1.000
    O59      O        0.02060    0.08787    0.44635    1.000
    O60      O        0.84170    0.01167    0.44176    1.000
    N29      N        0.39140    0.31264    0.35754    1.000
    N30      N        0.48090    0.37421    0.43152    1.000
    C169     C        0.49910    0.35818    0.35563    1.000
    H113     H        0.54610    0.36990    0.32860    1.000
    C170     C        0.54290    0.38841    0.39255    1.000
    H114     H        0.61940    0.42020    0.38990    1.000
    C171     C        0.37540    0.32818    0.43338    1.000
    H115     H        0.33050    0.31610    0.46050    1.000
    C172     C        0.33040    0.29793    0.39675    1.000
    H116     H        0.25450    0.26600    0.39950    1.000
    C173     C        0.06660    0.16338    0.28997    1.000
    C174     C        0.97120    0.11452    0.31183    1.000
    C175     C        0.86320    0.07723    0.28805    1.000
    H117     H        0.85260    0.08140    0.25770    1.000
    C176     C        0.77110    0.03392    0.30888    1.000
    H118     H        0.69680    0.00900    0.29270    1.000
    C177     C        0.78770    0.02716    0.35301    1.000
    H119     H        0.72350    0.99780    0.36690    1.000
    C178     C        0.89860    0.06326    0.37751    1.000
    C179     C        0.98870    0.10719    0.35654    1.000
    H120     H        0.06230    0.13220    0.37270    1.000
    C180     C        0.92170    0.05376    0.42535    1.000
    Ag31     Ag       0.80476    0.77001    0.79069    1.000
    Ag32     Ag       0.47215    0.44257    0.98416    1.000
    O61      O        0.65640    0.69592    0.81402    1.000
    O62      O        0.54730    0.66747    0.74954    1.000
    O63      O        0.52060    0.58787    0.94635    1.000
    O64      O        0.34170    0.51167    0.94176    1.000
    N31      N        0.89140    0.81264    0.85754    1.000
    N32      N        0.98090    0.87421    0.93152    1.000
    C181     C        0.99910    0.85818    0.85563    1.000
    H121     H        0.04610    0.86990    0.82860    1.000
    C182     C        0.04290    0.88841    0.89255    1.000
    H122     H        0.11940    0.92020    0.88990    1.000
    C183     C        0.87540    0.82818    0.93338    1.000
    H123     H        0.83050    0.81610    0.96050    1.000
    C184     C        0.83040    0.79793    0.89675    1.000
    H124     H        0.75450    0.76600    0.89950    1.000
    C185     C        0.56660    0.66338    0.78997    1.000
    C186     C        0.47120    0.61452    0.81183    1.000
    C187     C        0.36320    0.57723    0.78805    1.000
    H125     H        0.35260    0.58140    0.75770    1.000
    C188     C        0.27110    0.53392    0.80888    1.000
    H126     H        0.19680    0.50900    0.79270    1.000
    C189     C        0.28770    0.52716    0.85301    1.000
    H127     H        0.22350    0.49780    0.86690    1.000
    C190     C        0.39860    0.56326    0.87751    1.000
    C191     C        0.48870    0.60719    0.85654    1.000
    H128     H        0.56230    0.63220    0.87270    1.000
    C192     C        0.42170    0.55376    0.92535    1.000
