data_functionalizedCrystal
_audit_creation_method	'EQeq! by Chris Wilmer'
_symmetry_space_group_name_H-M	'P1'
_symmetry_Int_Tables_number	1
_symmetry_cell_setting	triclinic
loop_
_symmetry_equiv_pos_as_xyz
  x,y,z
_cell_length_a	19.862
_cell_length_b	11.645
_cell_length_c	22.813
_cell_angle_alpha	90
_cell_angle_beta	90
_cell_angle_gamma	90
loop_
_atom_site_label
_atom_site_type_symbol
_atom_site_fract_x
_atom_site_fract_y
_atom_site_fract_z
_atom_site_charge
Mof_Zn	Zn	0.08241	0.57661	0.61832	1.196
Mof_O 	O 	0.07305	0.68257	0.53751	-0.39
Mof_O 	O 	0.05825	0.66067	0.44047	-0.259
Mof_O 	O 	0.09746	0.41549	0.66211	-0.388
Mof_O 	O 	0.10072	0.22497	0.64604	-0.249
Mof_O 	O 	0.18658	0.14096	0.52683	-0.447
Mof_O 	O 	0.08076	0.07103	0.53086	-0.287
Mof_O 	O 	0.13139	0.47699	0.36132	-0.235
Mof_O 	O 	0.02137	0.44064	0.36207	-0.398
Mof_N 	N 	0.08479	0.46036	0.55138	-0.221
Mof_N 	N 	0.09457	0.30522	0.46181	-0.093
Mof_N 	N 	0.08405	0.70498	0.67974	-0.264
Mof_N 	N 	0.05826	0.14693	0.88645	-0.214
Mof_H 	H 	0.0542	0.2057	0.9122	0.17
Mof_C 	C 	0.06981	0.62496	0.49081	0.296
Mof_C 	C 	0.07957	0.49638	0.49644	-0.021
Mof_C 	C 	0.08325	0.41701	0.4506	-0.017
Mof_C 	C 	0.07778	0.44974	0.38612	0.334
Mof_C 	C 	0.09803	0.32554	0.62982	0.294
Mof_C 	C 	0.09425	0.35067	0.56419	-0.015
Mof_C 	C 	0.10044	0.27229	0.51816	0.004
Mof_C 	C 	0.12252	0.14889	0.52689	0.331
Mof_C 	C 	0.08766	0.68327	0.73726	0.074
Mof_H 	H 	0.0895	0.6073	0.7497	0.014
Mof_C 	C 	0.08871	0.76919	0.77878	-0.117
Mof_H 	H 	0.0917	0.7507	0.8184	0.086
Mof_C 	C 	0.08523	0.88321	0.76155	0.048
Mof_C 	C 	0.0844	0.90585	0.70147	-0.122
Mof_H 	H 	0.0843	0.9811	0.6878	0.104
Mof_C 	C 	0.08367	0.81497	0.66262	0.07
Mof_H 	H 	0.0829	0.8309	0.6227	0
Mof_C 	C 	0.0785	0.97688	0.80526	0.116
Mof_C 	C 	0.07214	0.95114	0.86507	-0.102
Mof_H 	H 	0.0753	0.8755	0.8779	0.081
Mof_C 	C 	0.06126	0.03811	0.90462	0.062
Mof_H 	H 	0.056	0.0211	0.9442	0.028
Mof_C 	C 	0.06469	0.17538	0.82992	0.143
Mof_H 	H 	0.0623	0.2521	0.8188	0.011
Mof_C 	C 	0.07483	0.0918	0.78818	-0.218
Mof_H 	H 	0.0792	0.1118	0.7489	0.117
Mof_C 	C 	0.23818	0.09632	0.65288	0.064
Mof_H 	H 	0.2303	0.164	0.6323	-0.003
Mof_C 	C 	0.23718	0.09998	0.71366	-0.12
Mof_H 	H 	0.228	0.1685	0.733	0.079
Mof_C 	C 	0.24006	0.10069	0.84304	-0.117
Mof_H 	H 	0.2334	0.1701	0.8237	0.08
Mof_C 	C 	0.24011	0.09708	0.90368	0.067
Mof_H 	H 	0.233	0.165	0.9242	-0.001
Mof_Zn	Zn	0.41759	0.42339	0.61832	1.197
Mof_O 	O 	0.42695	0.31743	0.53751	-0.394
Mof_O 	O 	0.44175	0.33933	0.44047	-0.259
Mof_O 	O 	0.40254	0.58451	0.66211	-0.386
Mof_O 	O 	0.39928	0.77503	0.64604	-0.237
Mof_O 	O 	0.31342	0.85904	0.52683	-0.426
Mof_O 	O 	0.41924	0.92897	0.53086	-0.252
Mof_O 	O 	0.36861	0.52301	0.36132	-0.234
Mof_O 	O 	0.47863	0.55936	0.36207	-0.397
Mof_N 	N 	0.41521	0.53964	0.55138	-0.22
Mof_N 	N 	0.40543	0.69478	0.46181	-0.089
Mof_N 	N 	0.41595	0.29502	0.67974	-0.264
Mof_N 	N 	0.44174	0.85307	0.88645	-0.223
Mof_H 	H 	0.4458	0.7943	0.9122	0.175
Mof_C 	C 	0.43019	0.37504	0.49081	0.296
Mof_C 	C 	0.42043	0.50362	0.49644	-0.021
Mof_C 	C 	0.41675	0.58299	0.4506	-0.017
Mof_C 	C 	0.42222	0.55026	0.38612	0.335
Mof_C 	C 	0.40197	0.67446	0.62982	0.291
Mof_C 	C 	0.40575	0.64933	0.56419	-0.014
Mof_C 	C 	0.39956	0.72771	0.51816	0.008
Mof_C 	C 	0.37748	0.85111	0.52689	0.327
Mof_C 	C 	0.41234	0.31673	0.73726	0.077
Mof_H 	H 	0.4105	0.3927	0.7497	0.013
Mof_C 	C 	0.41129	0.23081	0.77878	-0.125
Mof_H 	H 	0.4083	0.2493	0.8184	0.088
Mof_C 	C 	0.41477	0.11679	0.76155	0.057
Mof_C 	C 	0.4156	0.09415	0.70147	-0.132
Mof_H 	H 	0.4157	0.0189	0.6878	0.079
Mof_C 	C 	0.41633	0.18503	0.66262	0.071
Mof_H 	H 	0.4171	0.1691	0.6227	-0.01
Mof_C 	C 	0.4215	0.02312	0.80526	0.05
Mof_C 	C 	0.42786	0.04886	0.86507	-0.204
Mof_H 	H 	0.4247	0.1245	0.8779	0.107
Mof_C 	C 	0.43874	0.96189	0.90462	0.178
Mof_H 	H 	0.444	0.9789	0.9442	0.016
Mof_C 	C 	0.43531	0.82462	0.82992	0.115
Mof_H 	H 	0.4377	0.7479	0.8188	0.022
Mof_C 	C 	0.42517	0.9082	0.78818	-0.11
Mof_H 	H 	0.4208	0.8882	0.7489	0.098
Mof_C 	C 	0.26182	0.90368	0.65288	0.103
Mof_H 	H 	0.2697	0.836	0.6323	-0.01
Mof_C 	C 	0.26282	0.90002	0.71366	-0.087
Mof_H 	H 	0.272	0.8315	0.733	0.072
Mof_C 	C 	0.25994	0.89931	0.84304	-0.085
Mof_H 	H 	0.2666	0.8299	0.8237	0.074
Mof_C 	C 	0.25989	0.90292	0.90368	0.104
Mof_H 	H 	0.267	0.835	0.9242	-0.007
Mof_Zn	Zn	0.91759	0.57661	0.88168	1.197
Mof_O 	O 	0.92695	0.68257	0.96249	-0.389
Mof_O 	O 	0.94175	0.66067	0.05953	-0.258
Mof_O 	O 	0.90254	0.41549	0.83789	-0.387
Mof_O 	O 	0.89928	0.22497	0.85396	-0.248
Mof_O 	O 	0.81342	0.14096	0.97317	-0.446
Mof_O 	O 	0.91924	0.07103	0.96914	-0.286
Mof_O 	O 	0.86861	0.47699	0.13868	-0.234
Mof_O 	O 	0.97863	0.44064	0.13793	-0.397
Mof_N 	N 	0.91521	0.46036	0.94862	-0.22
Mof_N 	N 	0.90543	0.30522	0.03819	-0.091
Mof_N 	N 	0.91595	0.70498	0.82026	-0.263
Mof_N 	N 	0.94174	0.14693	0.61355	-0.214
Mof_H 	H 	0.9458	0.2057	0.5878	0.17
Mof_C 	C 	0.93019	0.62496	0.00919	0.296
Mof_C 	C 	0.92043	0.49638	0.00356	-0.02
Mof_C 	C 	0.91675	0.41701	0.0494	-0.017
Mof_C 	C 	0.92222	0.44974	0.11388	0.334
Mof_C 	C 	0.90197	0.32554	0.87018	0.294
Mof_C 	C 	0.90575	0.35067	0.93581	-0.015
Mof_C 	C 	0.89956	0.27229	0.98184	0.004
Mof_C 	C 	0.87748	0.14889	0.97311	0.331
Mof_C 	C 	0.91234	0.68327	0.76274	0.074
Mof_H 	H 	0.9105	0.6073	0.7503	0.014
Mof_C 	C 	0.91129	0.76919	0.72122	-0.117
Mof_H 	H 	0.9083	0.7507	0.6816	0.086
Mof_C 	C 	0.91477	0.88321	0.73845	0.048
Mof_C 	C 	0.9156	0.90585	0.79853	-0.122
Mof_H 	H 	0.9157	0.9811	0.8122	0.104
Mof_C 	C 	0.91633	0.81497	0.83738	0.07
Mof_H 	H 	0.9171	0.8309	0.8773	0
Mof_C 	C 	0.9215	0.97688	0.69474	0.116
Mof_C 	C 	0.92786	0.95114	0.63493	-0.102
Mof_H 	H 	0.9247	0.8755	0.6221	0.081
Mof_C 	C 	0.93874	0.03811	0.59538	0.062
Mof_H 	H 	0.944	0.0211	0.5558	0.028
Mof_C 	C 	0.93531	0.17538	0.67008	0.143
Mof_H 	H 	0.9377	0.2521	0.6812	0.011
Mof_C 	C 	0.92517	0.0918	0.71182	-0.218
Mof_H 	H 	0.9208	0.1118	0.7511	0.117
Mof_C 	C 	0.76182	0.09632	0.84712	0.064
Mof_H 	H 	0.7697	0.164	0.8677	-0.003
Mof_C 	C 	0.76282	0.09998	0.78634	-0.12
Mof_H 	H 	0.772	0.1685	0.767	0.079
Mof_C 	C 	0.75994	0.10069	0.65696	-0.117
Mof_H 	H 	0.7666	0.1701	0.6763	0.08
Mof_C 	C 	0.75989	0.09708	0.59632	0.067
Mof_H 	H 	0.767	0.165	0.5758	-0.001
Mof_Zn	Zn	0.58241	0.42339	0.88168	1.197
Mof_O 	O 	0.57305	0.31743	0.96249	-0.394
Mof_O 	O 	0.55825	0.33933	0.05953	-0.259
Mof_O 	O 	0.59746	0.58451	0.83789	-0.386
Mof_O 	O 	0.60072	0.77503	0.85396	-0.237
Mof_O 	O 	0.68658	0.85904	0.97317	-0.426
Mof_O 	O 	0.58076	0.92897	0.96914	-0.253
Mof_O 	O 	0.63139	0.52301	0.13868	-0.234
Mof_O 	O 	0.52137	0.55936	0.13793	-0.397
Mof_N 	N 	0.58479	0.53964	0.94862	-0.22
Mof_N 	N 	0.59457	0.69478	0.03819	-0.089
Mof_N 	N 	0.58405	0.29502	0.82026	-0.264
Mof_N 	N 	0.55826	0.85307	0.61355	-0.223
Mof_H 	H 	0.5542	0.7943	0.5878	0.175
Mof_C 	C 	0.56981	0.37504	0.00919	0.296
Mof_C 	C 	0.57957	0.50362	0.00356	-0.021
Mof_C 	C 	0.58325	0.58299	0.0494	-0.017
Mof_C 	C 	0.57778	0.55026	0.11388	0.335
Mof_C 	C 	0.59803	0.67446	0.87018	0.291
Mof_C 	C 	0.59425	0.64933	0.93581	-0.014
Mof_C 	C 	0.60044	0.72771	0.98184	0.008
Mof_C 	C 	0.62252	0.85111	0.97311	0.327
Mof_C 	C 	0.58766	0.31673	0.76274	0.077
Mof_H 	H 	0.5895	0.3927	0.7503	0.013
Mof_C 	C 	0.58871	0.23081	0.72122	-0.125
Mof_H 	H 	0.5917	0.2493	0.6816	0.088
Mof_C 	C 	0.58523	0.11679	0.73845	0.057
Mof_C 	C 	0.5844	0.09415	0.79853	-0.132
Mof_H 	H 	0.5843	0.0189	0.8122	0.079
Mof_C 	C 	0.58367	0.18503	0.83738	0.071
Mof_H 	H 	0.5829	0.1691	0.8773	-0.01
Mof_C 	C 	0.5785	0.02312	0.69474	0.05
Mof_C 	C 	0.57214	0.04886	0.63493	-0.205
Mof_H 	H 	0.5753	0.1245	0.6221	0.108
Mof_C 	C 	0.56126	0.96189	0.59538	0.178
Mof_H 	H 	0.556	0.9789	0.5558	0.016
Mof_C 	C 	0.56469	0.82462	0.67008	0.115
Mof_H 	H 	0.5623	0.7479	0.6812	0.022
Mof_C 	C 	0.57483	0.9082	0.71182	-0.11
Mof_H 	H 	0.5792	0.8882	0.7511	0.098
Mof_C 	C 	0.73818	0.90368	0.84712	0.102
Mof_H 	H 	0.7303	0.836	0.8677	-0.01
Mof_C 	C 	0.73718	0.90002	0.78634	-0.087
Mof_H 	H 	0.728	0.8315	0.767	0.072
Mof_C 	C 	0.74006	0.89931	0.65696	-0.085
Mof_H 	H 	0.7334	0.8299	0.6763	0.074
Mof_C 	C 	0.74011	0.90292	0.59632	0.104
Mof_H 	H 	0.733	0.835	0.5758	-0.007
Mof_Zn	Zn	0.91759	0.42339	0.38168	1.197
Mof_O 	O 	0.92695	0.31743	0.46249	-0.394
Mof_O 	O 	0.94175	0.33933	0.55953	-0.259
Mof_O 	O 	0.90254	0.58451	0.33789	-0.386
Mof_O 	O 	0.89928	0.77503	0.35396	-0.237
Mof_O 	O 	0.81342	0.85904	0.47317	-0.426
Mof_O 	O 	0.91924	0.92897	0.46914	-0.253
Mof_O 	O 	0.86861	0.52301	0.63868	-0.234
Mof_O 	O 	0.97863	0.55936	0.63793	-0.397
Mof_N 	N 	0.91521	0.53964	0.44862	-0.22
Mof_N 	N 	0.90543	0.69478	0.53819	-0.089
Mof_N 	N 	0.91595	0.29502	0.32026	-0.264
Mof_N 	N 	0.94174	0.85307	0.11355	-0.223
Mof_H 	H 	0.9458	0.7943	0.0878	0.175
Mof_C 	C 	0.93019	0.37504	0.50919	0.296
Mof_C 	C 	0.92043	0.50362	0.50356	-0.021
Mof_C 	C 	0.91675	0.58299	0.5494	-0.017
Mof_C 	C 	0.92222	0.55026	0.61388	0.335
Mof_C 	C 	0.90197	0.67446	0.37018	0.291
Mof_C 	C 	0.90575	0.64933	0.43581	-0.014
Mof_C 	C 	0.89956	0.72771	0.48184	0.008
Mof_C 	C 	0.87748	0.85111	0.47311	0.327
Mof_C 	C 	0.91234	0.31673	0.26274	0.077
Mof_H 	H 	0.9105	0.3927	0.2503	0.013
Mof_C 	C 	0.91129	0.23081	0.22122	-0.125
Mof_H 	H 	0.9083	0.2493	0.1816	0.088
Mof_C 	C 	0.91477	0.11679	0.23845	0.057
Mof_C 	C 	0.9156	0.09415	0.29853	-0.132
Mof_H 	H 	0.9157	0.0189	0.3122	0.079
Mof_C 	C 	0.91633	0.18503	0.33738	0.071
Mof_H 	H 	0.9171	0.1691	0.3773	-0.01
Mof_C 	C 	0.9215	0.02312	0.19474	0.051
Mof_C 	C 	0.92786	0.04886	0.13493	-0.204
Mof_H 	H 	0.9247	0.1245	0.1221	0.107
Mof_C 	C 	0.93874	0.96189	0.09538	0.177
Mof_H 	H 	0.944	0.9789	0.0558	0.017
Mof_C 	C 	0.93531	0.82462	0.17008	0.115
Mof_H 	H 	0.9377	0.7479	0.1812	0.022
Mof_C 	C 	0.92517	0.9082	0.21182	-0.111
Mof_H 	H 	0.9208	0.8882	0.2511	0.098
Mof_C 	C 	0.76182	0.90368	0.34712	0.103
Mof_H 	H 	0.7697	0.836	0.3677	-0.01
Mof_C 	C 	0.76282	0.90002	0.28634	-0.087
Mof_H 	H 	0.772	0.8315	0.267	0.072
Mof_C 	C 	0.75994	0.89931	0.15696	-0.085
Mof_H 	H 	0.7666	0.8299	0.1763	0.074
Mof_C 	C 	0.75989	0.90292	0.09632	0.104
Mof_H 	H 	0.767	0.835	0.0758	-0.007
Mof_Zn	Zn	0.58241	0.57661	0.38168	1.197
Mof_O 	O 	0.57305	0.68257	0.46249	-0.389
Mof_O 	O 	0.55825	0.66067	0.55953	-0.258
Mof_O 	O 	0.59746	0.41549	0.33789	-0.387
Mof_O 	O 	0.60072	0.22497	0.35396	-0.248
Mof_O 	O 	0.68658	0.14096	0.47317	-0.446
Mof_O 	O 	0.58076	0.07103	0.46914	-0.286
Mof_O 	O 	0.63139	0.47699	0.63868	-0.234
Mof_O 	O 	0.52137	0.44064	0.63793	-0.397
Mof_N 	N 	0.58479	0.46036	0.44862	-0.22
Mof_N 	N 	0.59457	0.30522	0.53819	-0.092
Mof_N 	N 	0.58405	0.70498	0.32026	-0.263
Mof_N 	N 	0.55826	0.14693	0.11355	-0.214
Mof_H 	H 	0.5542	0.2057	0.0878	0.17
Mof_C 	C 	0.56981	0.62496	0.50919	0.296
Mof_C 	C 	0.57957	0.49638	0.50356	-0.02
Mof_C 	C 	0.58325	0.41701	0.5494	-0.017
Mof_C 	C 	0.57778	0.44974	0.61388	0.334
Mof_C 	C 	0.59803	0.32554	0.37018	0.294
Mof_C 	C 	0.59425	0.35067	0.43581	-0.015
Mof_C 	C 	0.60044	0.27229	0.48184	0.004
Mof_C 	C 	0.62252	0.14889	0.47311	0.331
Mof_C 	C 	0.58766	0.68327	0.26274	0.074
Mof_H 	H 	0.5895	0.6073	0.2503	0.014
Mof_C 	C 	0.58871	0.76919	0.22122	-0.117
Mof_H 	H 	0.5917	0.7507	0.1816	0.086
Mof_C 	C 	0.58523	0.88321	0.23845	0.048
Mof_C 	C 	0.5844	0.90585	0.29853	-0.122
Mof_H 	H 	0.5843	0.9811	0.3122	0.104
Mof_C 	C 	0.58367	0.81497	0.33738	0.07
Mof_H 	H 	0.5829	0.8309	0.3773	0
Mof_C 	C 	0.5785	0.97688	0.19474	0.116
Mof_C 	C 	0.57214	0.95114	0.13493	-0.102
Mof_H 	H 	0.5753	0.8755	0.1221	0.081
Mof_C 	C 	0.56126	0.03811	0.09538	0.062
Mof_H 	H 	0.556	0.0211	0.0558	0.028
Mof_C 	C 	0.56469	0.17538	0.17008	0.144
Mof_H 	H 	0.5623	0.2521	0.1812	0.011
Mof_C 	C 	0.57483	0.0918	0.21182	-0.218
Mof_H 	H 	0.5792	0.1118	0.2511	0.118
Mof_C 	C 	0.73818	0.09632	0.34712	0.064
Mof_H 	H 	0.7303	0.164	0.3677	-0.003
Mof_C 	C 	0.73718	0.09998	0.28634	-0.12
Mof_H 	H 	0.728	0.1685	0.267	0.079
Mof_C 	C 	0.74006	0.10069	0.15696	-0.117
Mof_H 	H 	0.7334	0.1701	0.1763	0.08
Mof_C 	C 	0.74011	0.09708	0.09632	0.067
Mof_H 	H 	0.733	0.165	0.0758	-0.001
Mof_Zn	Zn	0.08241	0.42339	0.11832	1.196
Mof_O 	O 	0.07305	0.31743	0.03751	-0.394
Mof_O 	O 	0.05825	0.33933	0.94047	-0.259
Mof_O 	O 	0.09746	0.58451	0.16211	-0.386
Mof_O 	O 	0.10072	0.77503	0.14604	-0.237
Mof_O 	O 	0.18658	0.85904	0.02683	-0.426
Mof_O 	O 	0.08076	0.92897	0.03086	-0.253
Mof_O 	O 	0.13139	0.52301	0.86132	-0.234
Mof_O 	O 	0.02137	0.55936	0.86207	-0.397
Mof_N 	N 	0.08479	0.53964	0.05138	-0.22
Mof_N 	N 	0.09457	0.69478	0.96181	-0.089
Mof_N 	N 	0.08405	0.29502	0.17974	-0.264
Mof_N 	N 	0.05826	0.85307	0.38645	-0.223
Mof_H 	H 	0.0542	0.7943	0.4122	0.175
Mof_C 	C 	0.06981	0.37504	0.99081	0.297
Mof_C 	C 	0.07957	0.50362	0.99644	-0.021
Mof_C 	C 	0.08325	0.58299	0.9506	-0.017
Mof_C 	C 	0.07778	0.55026	0.88612	0.335
Mof_C 	C 	0.09803	0.67446	0.12982	0.291
Mof_C 	C 	0.09425	0.64933	0.06419	-0.014
Mof_C 	C 	0.10044	0.72771	0.01816	0.008
Mof_C 	C 	0.12252	0.85111	0.02689	0.327
Mof_C 	C 	0.08766	0.31673	0.23726	0.077
Mof_H 	H 	0.0895	0.3927	0.2497	0.013
Mof_C 	C 	0.08871	0.23081	0.27878	-0.125
Mof_H 	H 	0.0917	0.2493	0.3184	0.088
Mof_C 	C 	0.08523	0.11679	0.26155	0.057
Mof_C 	C 	0.0844	0.09415	0.20147	-0.132
Mof_H 	H 	0.0843	0.0189	0.1878	0.079
Mof_C 	C 	0.08367	0.18503	0.16262	0.071
Mof_H 	H 	0.0829	0.1691	0.1227	-0.01
Mof_C 	C 	0.0785	0.02312	0.30526	0.051
Mof_C 	C 	0.07214	0.04886	0.36507	-0.204
Mof_H 	H 	0.0753	0.1245	0.3779	0.107
Mof_C 	C 	0.06126	0.96189	0.40462	0.177
Mof_H 	H 	0.056	0.9789	0.4442	0.016
Mof_C 	C 	0.06469	0.82462	0.32992	0.115
Mof_H 	H 	0.0623	0.7479	0.3188	0.022
Mof_C 	C 	0.07483	0.9082	0.28818	-0.111
Mof_H 	H 	0.0792	0.8882	0.2489	0.098
Mof_C 	C 	0.23818	0.90368	0.15288	0.102
Mof_H 	H 	0.2303	0.836	0.1323	-0.01
Mof_C 	C 	0.23718	0.90002	0.21366	-0.087
Mof_H 	H 	0.228	0.8315	0.233	0.072
Mof_C 	C 	0.24006	0.89931	0.34304	-0.085
Mof_H 	H 	0.2334	0.8299	0.3237	0.074
Mof_C 	C 	0.24011	0.90292	0.40368	0.104
Mof_H 	H 	0.233	0.835	0.4242	-0.007
Mof_Zn	Zn	0.41759	0.57661	0.11832	1.197
Mof_O 	O 	0.42695	0.68257	0.03751	-0.389
Mof_O 	O 	0.44175	0.66067	0.94047	-0.258
Mof_O 	O 	0.40254	0.41549	0.16211	-0.387
Mof_O 	O 	0.39928	0.22497	0.14604	-0.248
Mof_O 	O 	0.31342	0.14096	0.02683	-0.446
Mof_O 	O 	0.41924	0.07103	0.03086	-0.286
Mof_O 	O 	0.36861	0.47699	0.86132	-0.234
Mof_O 	O 	0.47863	0.44064	0.86207	-0.397
Mof_N 	N 	0.41521	0.46036	0.05138	-0.22
Mof_N 	N 	0.40543	0.30522	0.96181	-0.092
Mof_N 	N 	0.41595	0.70498	0.17974	-0.263
Mof_N 	N 	0.44174	0.14693	0.38645	-0.214
Mof_H 	H 	0.4458	0.2057	0.4122	0.17
Mof_C 	C 	0.43019	0.62496	0.99081	0.296
Mof_C 	C 	0.42043	0.49638	0.99644	-0.02
Mof_C 	C 	0.41675	0.41701	0.9506	-0.017
Mof_C 	C 	0.42222	0.44974	0.88612	0.334
Mof_C 	C 	0.40197	0.32554	0.12982	0.294
Mof_C 	C 	0.40575	0.35067	0.06419	-0.015
Mof_C 	C 	0.39956	0.27229	0.01816	0.004
Mof_C 	C 	0.37748	0.14889	0.02689	0.331
Mof_C 	C 	0.41234	0.68327	0.23726	0.074
Mof_H 	H 	0.4105	0.6073	0.2497	0.014
Mof_C 	C 	0.41129	0.76919	0.27878	-0.117
Mof_H 	H 	0.4083	0.7507	0.3184	0.086
Mof_C 	C 	0.41477	0.88321	0.26155	0.048
Mof_C 	C 	0.4156	0.90585	0.20147	-0.122
Mof_H 	H 	0.4157	0.9811	0.1878	0.104
Mof_C 	C 	0.41633	0.81497	0.16262	0.07
Mof_H 	H 	0.4171	0.8309	0.1227	0
Mof_C 	C 	0.4215	0.97688	0.30526	0.116
Mof_C 	C 	0.42786	0.95114	0.36507	-0.101
Mof_H 	H 	0.4247	0.8755	0.3779	0.081
Mof_C 	C 	0.43874	0.03811	0.40462	0.061
Mof_H 	H 	0.444	0.0211	0.4442	0.028
Mof_C 	C 	0.43531	0.17538	0.32992	0.144
Mof_H 	H 	0.4377	0.2521	0.3188	0.011
Mof_C 	C 	0.42517	0.0918	0.28818	-0.218
Mof_H 	H 	0.4208	0.1118	0.2489	0.118
Mof_C 	C 	0.26182	0.09632	0.15288	0.064
Mof_H 	H 	0.2697	0.164	0.1323	-0.003
Mof_C 	C 	0.26282	0.09998	0.21366	-0.12
Mof_H 	H 	0.272	0.1685	0.233	0.079
Mof_C 	C 	0.25994	0.10069	0.34304	-0.117
Mof_H 	H 	0.2666	0.1701	0.3237	0.08
Mof_C 	C 	0.25989	0.09708	0.40368	0.067
Mof_H 	H 	0.267	0.165	0.4242	-0.001
Mof_Zn	Zn	0.25	0	0.52911	1.175
Mof_N 	N 	0.25	0	0.62225	-0.277
Mof_N 	N 	0.25	0	0.93419	-0.268
Mof_C 	C 	0.25	0	0.74548	0.02
Mof_C 	C 	0.25	0	0.81083	0.02
Mof_Zn	Zn	0.75	0	0.97089	1.175
Mof_N 	N 	0.75	0	0.87775	-0.277
Mof_N 	N 	0.75	0	0.56581	-0.269
Mof_C 	C 	0.75	0	0.75452	0.02
Mof_C 	C 	0.75	0	0.68917	0.02
Mof_Zn	Zn	0.75	0	0.47089	1.175
Mof_N 	N 	0.75	0	0.37775	-0.277
Mof_N 	N 	0.75	0	0.06581	-0.268
Mof_C 	C 	0.75	0	0.25452	0.02
Mof_C 	C 	0.75	0	0.18917	0.02
Mof_Zn	Zn	0.25	0	0.02911	1.175
Mof_N 	N 	0.25	-2.39208e-33	0.12225	-0.277
Mof_N 	N 	0.25	0	0.43419	-0.269
Mof_C 	C 	0.25	0	0.24548	0.02
Mof_C 	C 	0.25	0	0.31083	0.02
_end
