data_functionalizedCrystal
_audit_creation_method	'EQeq! by Chris Wilmer'
_symmetry_space_group_name_H-M	'P1'
_symmetry_Int_Tables_number	1
_symmetry_cell_setting	triclinic
loop_
_symmetry_equiv_pos_as_xyz
  x,y,z
_cell_length_a	6.0327
_cell_length_b	12.7752
_cell_length_c	13.1775
_cell_angle_alpha	118.99
_cell_angle_beta	90.575
_cell_angle_gamma	91.67
loop_
_atom_site_label
_atom_site_type_symbol
_atom_site_fract_x
_atom_site_fract_y
_atom_site_fract_z
_atom_site_charge
Mof_Er	Er	0.27633	0.16011	0.32198	1.646
Mof_N 	N 	0.414	0.073	0.1091	-0.17
Mof_N 	N 	0.0768	0.0479	0.4311	-0.176
Mof_N 	N 	0.4305	0.3795	0.445	-0.176
Mof_O 	O 	0.6631	0.1655	0.2973	-0.453
Mof_O 	O 	0.449	0.179	0.4855	-0.45
Mof_O 	O 	0.1919	0.285	0.2481	-0.427
Mof_O 	O 	0.9605	0.0679	0.2034	-0.462
Mof_C 	C 	0.6245	0.0397	0.0966	-0.085
Mof_C 	C 	0.2901	0.0346	0.0109	0.076
Mof_C 	C 	0.1879	0.0659	0.5267	-0.064
Mof_C 	C 	0.8893	0.9814	0.4045	0.078
Mof_C 	C 	0.385	0.4507	0.4001	-0.059
Mof_C 	C 	0.5443	0.4298	0.5451	0.058
Mof_C 	C 	0.7613	0.0942	0.2073	0.405
Mof_C 	C 	0.4018	0.1397	0.5538	0.356
Mof_C 	C 	0.2496	0.3936	0.2878	0.341
Mof_H 	H 	0.1447	0.0585	0.0156	0.02
Mof_H 	H 	0.8079	0.9663	0.3381	0.004
Mof_H 	H 	0.5777	0.3834	0.5796	0.037
Mof_O 	O 	0.5192	0.1559	0.6387	-0.263
Mof_O 	O 	0.2026	0.4566	0.2433	-0.237
Mof_Er	Er	0.72367	0.83989	0.67802	1.647
Mof_N 	N 	0.586	0.927	0.8909	-0.169
Mof_N 	N 	0.9232	0.9521	0.5689	-0.176
Mof_N 	N 	0.5695	0.6205	0.555	-0.176
Mof_O 	O 	0.3369	0.8345	0.7027	-0.453
Mof_O 	O 	0.551	0.821	0.5145	-0.45
Mof_O 	O 	0.8081	0.715	0.7519	-0.427
Mof_O 	O 	0.0395	0.9321	0.7966	-0.462
Mof_C 	C 	0.3755	0.9603	0.9034	-0.085
Mof_C 	C 	0.7099	0.9654	0.9891	0.076
Mof_C 	C 	0.8121	0.9341	0.4733	-0.064
Mof_C 	C 	0.1107	0.0186	0.5955	0.078
Mof_C 	C 	0.615	0.5493	0.5999	-0.059
Mof_C 	C 	0.4557	0.5702	0.4549	0.058
Mof_C 	C 	0.2387	0.9058	0.7927	0.405
Mof_C 	C 	0.5982	0.8603	0.4462	0.356
Mof_C 	C 	0.7504	0.6064	0.7122	0.341
Mof_H 	H 	0.8553	0.9415	0.9844	0.02
Mof_H 	H 	0.1921	0.0337	0.6619	0.004
Mof_H 	H 	0.4223	0.6166	0.4204	0.037
Mof_O 	O 	0.4808	0.8441	0.3613	-0.263
Mof_O 	O 	0.7974	0.5434	0.7567	-0.237
_end
