data_functionalizedCrystal
_audit_creation_method	'EQeq! by Chris Wilmer'
_symmetry_space_group_name_H-M	'P1'
_symmetry_Int_Tables_number	1
_symmetry_cell_setting	triclinic
loop_
_symmetry_equiv_pos_as_xyz
  x,y,z
_cell_length_a	10.2454
_cell_length_b	33.542
_cell_length_c	13.4739
_cell_angle_alpha	90
_cell_angle_beta	90
_cell_angle_gamma	90
loop_
_atom_site_label
_atom_site_type_symbol
_atom_site_fract_x
_atom_site_fract_y
_atom_site_fract_z
_atom_site_charge
Mof_C 	C 	0.259	0.205	0.2678	0.094
Mof_H 	H 	0.2801	0.2014	0.1998	-0.007
Mof_C 	C 	0.2651	0.22347	0.415	0.096
Mof_H 	H 	0.2907	0.236	0.4752	0
Mof_C 	C 	0.2601	0.14553	0.632	0.098
Mof_H 	H 	0.2803	0.1288	0.5772	0.022
Mof_C 	C 	0.2695	0.17465	0.768	0.097
Mof_H 	H 	0.2981	0.1833	0.8315	0.006
Mof_C 	C 	0.2557	0.04642	0.1777	0.096
Mof_H 	H 	0.2721	0.0233	0.139	0.001
Mof_C 	C 	0.2714	0.09097	0.2844	0.108
Mof_H 	H 	0.3015	0.1067	0.3384	0.018
Mof_C 	C 	0.2452	0.0813	0.8983	0.105
Mof_H 	H 	0.2298	0.1088	0.9101	0.009
Mof_C 	C 	0.2277	0.01959	0.8993	0.097
Mof_H 	H 	0.1968	0.9933	0.9115	0.03
Mof_N 	N 	0.1564	0.18902	0.3102	-0.118
Mof_N 	N 	0.1601	0.20083	0.4073	-0.118
Mof_N 	N 	0.3317	0.22705	0.3308	-0.164
Mof_N 	N 	0.1556	0.16898	0.6354	-0.117
Mof_N 	N 	0.1613	0.18806	0.7249	-0.123
Mof_N 	N 	0.3341	0.14787	0.7139	-0.16
Mof_N 	N 	0.1555	0.06994	0.1632	-0.124
Mof_N 	N 	0.165	0.09931	0.2334	-0.111
Mof_N 	N 	0.3331	0.05812	0.2526	-0.16
Mof_N 	N 	0.3454	0.06806	0.8469	-0.118
Mof_N 	N 	0.3345	0.02736	0.848	-0.113
Mof_N 	N 	0.1673	0.05247	0.9323	-0.146
Mof_N 	N 	0.9768	0.09068	0.4517	0.22
Mof_O 	O 	0.0286	0.12345	0.4299	-0.397
Mof_O 	O 	0.035	0.0591	0.4293	-0.096
Mof_O 	O 	0.8722	0.0883	0.4935	-0.168
Mof_C 	C 	0.759	0.705	0.2678	0.097
Mof_H 	H 	0.7801	0.7014	0.1998	-0.001
Mof_C 	C 	0.7651	0.72347	0.415	0.1
Mof_H 	H 	0.7907	0.736	0.4752	0.008
Mof_C 	C 	0.7601	0.64553	0.632	0.101
Mof_H 	H 	0.7803	0.6288	0.5772	0.029
Mof_C 	C 	0.7695	0.67465	0.768	0.099
Mof_H 	H 	0.7981	0.6833	0.8315	0.011
Mof_C 	C 	0.7557	0.54642	0.1777	0.099
Mof_H 	H 	0.7721	0.5233	0.139	0.011
Mof_C 	C 	0.7714	0.59097	0.2844	0.109
Mof_H 	H 	0.8015	0.6067	0.3384	0.023
Mof_C 	C 	0.7452	0.5813	0.8983	0.11
Mof_H 	H 	0.7298	0.6088	0.9101	0.012
Mof_C 	C 	0.7277	0.51959	0.8993	0.104
Mof_H 	H 	0.6968	0.4933	0.9115	0.036
Mof_N 	N 	0.6564	0.68902	0.3102	-0.118
Mof_N 	N 	0.6601	0.70083	0.4073	-0.119
Mof_N 	N 	0.8317	0.72705	0.3308	-0.151
Mof_N 	N 	0.6556	0.66898	0.6354	-0.115
Mof_N 	N 	0.6613	0.68806	0.7249	-0.121
Mof_N 	N 	0.8341	0.64787	0.7139	-0.147
Mof_N 	N 	0.6555	0.56994	0.1632	-0.121
Mof_N 	N 	0.665	0.59931	0.2334	-0.112
Mof_N 	N 	0.8331	0.55812	0.2526	-0.145
Mof_N 	N 	0.8454	0.56806	0.8469	-0.104
Mof_N 	N 	0.8345	0.52736	0.848	-0.099
Mof_N 	N 	0.6673	0.55247	0.9323	-0.144
Mof_N 	N 	0.4768	0.59068	0.4517	0.036
Mof_O 	O 	0.5286	0.62345	0.4299	-0.085
Mof_O 	O 	0.535	0.5591	0.4293	-0.06
Mof_O 	O 	0.3722	0.5883	0.4935	-0.11
Mof_C 	C 	0.741	0.795	0.7678	0.098
Mof_H 	H 	0.7199	0.7986	0.6998	0.003
Mof_C 	C 	0.7349	0.77653	0.915	0.102
Mof_H 	H 	0.7093	0.764	0.9752	0.018
Mof_C 	C 	0.7399	0.85447	0.132	0.095
Mof_H 	H 	0.7197	0.8712	0.0772	0.01
Mof_C 	C 	0.7305	0.82535	0.268	0.097
Mof_H 	H 	0.7019	0.8167	0.3315	0.003
Mof_C 	C 	0.7443	0.95358	0.6777	0.101
Mof_H 	H 	0.7279	0.9767	0.639	0.011
Mof_C 	C 	0.7286	0.90903	0.7844	0.107
Mof_H 	H 	0.6985	0.8933	0.8384	0.019
Mof_C 	C 	0.7548	0.9187	0.3983	0.102
Mof_H 	H 	0.7702	0.8912	0.4101	0.01
Mof_C 	C 	0.7723	0.98041	0.3993	0.096
Mof_H 	H 	0.8032	0.0067	0.4115	0.031
Mof_N 	N 	0.8436	0.81098	0.8102	-0.108
Mof_N 	N 	0.8399	0.79917	0.9073	-0.1
Mof_N 	N 	0.6683	0.77295	0.8308	-0.16
Mof_N 	N 	0.8444	0.83102	0.1354	-0.111
Mof_N 	N 	0.8387	0.81194	0.2249	-0.11
Mof_N 	N 	0.6659	0.85213	0.2139	-0.161
Mof_N 	N 	0.8445	0.93006	0.6632	-0.106
Mof_N 	N 	0.835	0.90069	0.7334	-0.104
Mof_N 	N 	0.6669	0.94188	0.7526	-0.157
Mof_N 	N 	0.6546	0.93194	0.3469	-0.12
Mof_N 	N 	0.6655	0.97264	0.348	-0.114
Mof_N 	N 	0.8327	0.94753	0.4323	-0.146
Mof_N 	N 	0.0232	0.90932	0.9517	-0.137
Mof_O 	O 	0.9714	0.87655	0.9299	0.233
Mof_O 	O 	0.965	0.9409	0.9293	-0.02
Mof_O 	O 	0.1278	0.9117	0.9935	-0.03
Mof_C 	C 	0.241	0.295	0.7678	0.094
Mof_H 	H 	0.2199	0.2986	0.6998	-0.006
Mof_C 	C 	0.2349	0.27653	0.915	0.099
Mof_H 	H 	0.2093	0.264	0.9752	0.013
Mof_C 	C 	0.2399	0.35447	0.132	0.091
Mof_H 	H 	0.2197	0.3712	0.0772	0.007
Mof_C 	C 	0.2305	0.32535	0.268	0.093
Mof_H 	H 	0.2019	0.3167	0.3315	-0.005
Mof_C 	C 	0.2443	0.45358	0.6777	0.098
Mof_H 	H 	0.2279	0.4767	0.639	0.008
Mof_C 	C 	0.2286	0.40903	0.7844	0.106
Mof_H 	H 	0.1985	0.3933	0.8384	0.018
Mof_C 	C 	0.2548	0.4187	0.3983	0.099
Mof_H 	H 	0.2702	0.3912	0.4101	-0.001
Mof_C 	C 	0.2723	0.48041	0.3993	0.093
Mof_H 	H 	0.3032	0.5067	0.4115	0.027
Mof_N 	N 	0.3436	0.31098	0.8102	-0.117
Mof_N 	N 	0.3399	0.29917	0.9073	-0.107
Mof_N 	N 	0.1683	0.27295	0.8308	-0.162
Mof_N 	N 	0.3444	0.33102	0.1354	-0.122
Mof_N 	N 	0.3387	0.31194	0.2249	-0.124
Mof_N 	N 	0.1659	0.35213	0.2139	-0.164
Mof_N 	N 	0.3445	0.43006	0.6632	-0.119
Mof_N 	N 	0.335	0.40069	0.7334	-0.112
Mof_N 	N 	0.1669	0.44188	0.7526	-0.159
Mof_N 	N 	0.1546	0.43194	0.3469	-0.123
Mof_N 	N 	0.1655	0.47264	0.348	-0.116
Mof_N 	N 	0.3327	0.44753	0.4323	-0.158
Mof_N 	N 	0.5232	0.40932	0.9517	0.039
Mof_O 	O 	0.4714	0.37655	0.9299	-0.074
Mof_O 	O 	0.465	0.4409	0.9293	-0.055
Mof_O 	O 	0.6278	0.4117	0.9935	-0.084
Mof_C 	C 	0.259	0.795	0.7678	0.095
Mof_H 	H 	0.2801	0.7986	0.6998	-0.002
Mof_C 	C 	0.2651	0.77653	0.915	0.099
Mof_H 	H 	0.2907	0.764	0.9752	0.015
Mof_C 	C 	0.2601	0.85447	0.132	0.092
Mof_H 	H 	0.2803	0.8712	0.0772	0.009
Mof_C 	C 	0.2695	0.82535	0.268	0.094
Mof_H 	H 	0.2981	0.8167	0.3315	-0
Mof_C 	C 	0.2557	0.95358	0.6777	0.099
Mof_H 	H 	0.2721	0.9767	0.639	0.006
Mof_C 	C 	0.2714	0.90903	0.7844	0.11
Mof_H 	H 	0.3015	0.8933	0.8384	0.025
Mof_C 	C 	0.2452	0.9187	0.3983	0.098
Mof_H 	H 	0.2298	0.8912	0.4101	0.001
Mof_C 	C 	0.2277	0.98041	0.3993	0.09
Mof_H 	H 	0.1968	0.0067	0.4115	0.025
Mof_N 	N 	0.1564	0.81098	0.8102	-0.115
Mof_N 	N 	0.1601	0.79917	0.9073	-0.105
Mof_N 	N 	0.3317	0.77295	0.8308	-0.16
Mof_N 	N 	0.1556	0.83102	0.1354	-0.122
Mof_N 	N 	0.1613	0.81194	0.2249	-0.125
Mof_N 	N 	0.3341	0.85213	0.2139	-0.162
Mof_N 	N 	0.1555	0.93006	0.6632	-0.121
Mof_N 	N 	0.165	0.90069	0.7334	-0.109
Mof_N 	N 	0.3331	0.94188	0.7526	-0.158
Mof_N 	N 	0.3454	0.93194	0.3469	-0.121
Mof_N 	N 	0.3345	0.97264	0.348	-0.115
Mof_N 	N 	0.1673	0.94753	0.4323	-0.16
Mof_N 	N 	0.9768	0.90932	0.9517	0.21
Mof_O 	O 	0.0286	0.87655	0.9299	-0.376
Mof_O 	O 	0.035	0.9409	0.9293	-0.091
Mof_O 	O 	0.8722	0.9117	0.9935	-0.143
Mof_C 	C 	0.759	0.295	0.7678	0.099
Mof_H 	H 	0.7801	0.2986	0.6998	0.004
Mof_C 	C 	0.7651	0.27653	0.915	0.103
Mof_H 	H 	0.7907	0.264	0.9752	0.024
Mof_C 	C 	0.7601	0.35447	0.132	0.096
Mof_H 	H 	0.7803	0.3712	0.0772	0.017
Mof_C 	C 	0.7695	0.32535	0.268	0.097
Mof_H 	H 	0.7981	0.3167	0.3315	0.007
Mof_C 	C 	0.7557	0.45358	0.6777	0.103
Mof_H 	H 	0.7721	0.4767	0.639	0.017
Mof_C 	C 	0.7714	0.40903	0.7844	0.111
Mof_H 	H 	0.8015	0.3933	0.8384	0.029
Mof_C 	C 	0.7452	0.4187	0.3983	0.103
Mof_H 	H 	0.7298	0.3912	0.4101	0.005
Mof_C 	C 	0.7277	0.48041	0.3993	0.097
Mof_H 	H 	0.6968	0.5067	0.4115	0.03
Mof_N 	N 	0.6564	0.31098	0.8102	-0.116
Mof_N 	N 	0.6601	0.29917	0.9073	-0.106
Mof_N 	N 	0.8317	0.27295	0.8308	-0.148
Mof_N 	N 	0.6556	0.33102	0.1354	-0.12
Mof_N 	N 	0.6613	0.31194	0.2249	-0.122
Mof_N 	N 	0.8341	0.35213	0.2139	-0.149
Mof_N 	N 	0.6555	0.43006	0.6632	-0.118
Mof_N 	N 	0.665	0.40069	0.7334	-0.111
Mof_N 	N 	0.8331	0.44188	0.7526	-0.144
Mof_N 	N 	0.8454	0.43194	0.3469	-0.106
Mof_N 	N 	0.8345	0.47264	0.348	-0.101
Mof_N 	N 	0.6673	0.44753	0.4323	-0.157
Mof_N 	N 	0.4768	0.40932	0.9517	0.034
Mof_O 	O 	0.5286	0.37655	0.9299	-0.077
Mof_O 	O 	0.535	0.4409	0.9293	-0.056
Mof_O 	O 	0.3722	0.4117	0.9935	-0.087
Mof_C 	C 	0.741	0.205	0.2678	0.097
Mof_H 	H 	0.7199	0.2014	0.1998	-0.003
Mof_C 	C 	0.7349	0.22347	0.415	0.099
Mof_H 	H 	0.7093	0.236	0.4752	0.002
Mof_C 	C 	0.7399	0.14553	0.632	0.1
Mof_H 	H 	0.7197	0.1288	0.5772	0.022
Mof_C 	C 	0.7305	0.17465	0.768	0.099
Mof_H 	H 	0.7019	0.1833	0.8315	0.008
Mof_C 	C 	0.7443	0.04642	0.1777	0.097
Mof_H 	H 	0.7279	0.0233	0.139	0.005
Mof_C 	C 	0.7286	0.09097	0.2844	0.105
Mof_H 	H 	0.6985	0.1067	0.3384	0.012
Mof_C 	C 	0.7548	0.0813	0.8983	0.109
Mof_H 	H 	0.7702	0.1088	0.9101	0.017
Mof_C 	C 	0.7723	0.01959	0.8993	0.104
Mof_H 	H 	0.8032	0.9933	0.9115	0.036
Mof_N 	N 	0.8436	0.18902	0.3102	-0.11
Mof_N 	N 	0.8399	0.20083	0.4073	-0.113
Mof_N 	N 	0.6683	0.22705	0.3308	-0.163
Mof_N 	N 	0.8444	0.16898	0.6354	-0.106
Mof_N 	N 	0.8387	0.18806	0.7249	-0.109
Mof_N 	N 	0.6659	0.14787	0.7139	-0.159
Mof_N 	N 	0.8445	0.06994	0.1632	-0.109
Mof_N 	N 	0.835	0.09931	0.2334	-0.105
Mof_N 	N 	0.6669	0.05812	0.2526	-0.159
Mof_N 	N 	0.6546	0.06806	0.8469	-0.117
Mof_N 	N 	0.6655	0.02736	0.848	-0.112
Mof_N 	N 	0.8327	0.05247	0.9323	-0.133
Mof_N 	N 	0.0232	0.09068	0.4517	-0.142
Mof_O 	O 	0.9714	0.12345	0.4299	0.239
Mof_O 	O 	0.965	0.0591	0.4293	-0.021
Mof_O 	O 	0.1278	0.0883	0.4935	-0.05
Mof_C 	C 	0.241	0.705	0.2678	0.092
Mof_H 	H 	0.2199	0.7014	0.1998	-0.012
Mof_C 	C 	0.2349	0.72347	0.415	0.095
Mof_H 	H 	0.2093	0.736	0.4752	-0.003
Mof_C 	C 	0.2399	0.64553	0.632	0.097
Mof_H 	H 	0.2197	0.6288	0.5772	0.019
Mof_C 	C 	0.2305	0.67465	0.768	0.095
Mof_H 	H 	0.2019	0.6833	0.8315	0
Mof_C 	C 	0.2443	0.54642	0.1777	0.094
Mof_H 	H 	0.2279	0.5233	0.139	0.001
Mof_C 	C 	0.2286	0.59097	0.2844	0.104
Mof_H 	H 	0.1985	0.6067	0.3384	0.011
Mof_C 	C 	0.2548	0.5813	0.8983	0.106
Mof_H 	H 	0.2702	0.6088	0.9101	0.007
Mof_C 	C 	0.2723	0.51959	0.8993	0.1
Mof_H 	H 	0.3032	0.4933	0.9115	0.033
Mof_N 	N 	0.3436	0.68902	0.3102	-0.12
Mof_N 	N 	0.3399	0.70083	0.4073	-0.121
Mof_N 	N 	0.1683	0.72705	0.3308	-0.166
Mof_N 	N 	0.3444	0.66898	0.6354	-0.117
Mof_N 	N 	0.3387	0.68806	0.7249	-0.122
Mof_N 	N 	0.1659	0.64787	0.7139	-0.162
Mof_N 	N 	0.3445	0.56994	0.1632	-0.122
Mof_N 	N 	0.335	0.59931	0.2334	-0.114
Mof_N 	N 	0.1669	0.55812	0.2526	-0.161
Mof_N 	N 	0.1546	0.56806	0.8469	-0.12
Mof_N 	N 	0.1655	0.52736	0.848	-0.113
Mof_N 	N 	0.3327	0.55247	0.9323	-0.145
Mof_N 	N 	0.5232	0.59068	0.4517	0.042
Mof_O 	O 	0.4714	0.62345	0.4299	-0.081
Mof_O 	O 	0.465	0.5591	0.4293	-0.059
Mof_O 	O 	0.6278	0.5883	0.4935	-0.106
Mof_Cd	Cd	-1.15748e-33	0.06375	0.04167	0.307
Mof_Cd	Cd	1.23366e-33	0.14543	0.25019	0.369
Mof_Cd	Cd	2.56081e-33	0.18427	0.51934	0.348
Mof_Cd	Cd	-7.01296e-33	0.23077	0.78903	0.328
Mof_C 	C 	-2.81408e-32	0.15322	0.9268	0.138
Mof_H 	H 	-6.64131e-33	0.1401	0.8644	-0.011
Mof_C 	C 	1.74061e-34	0.19756	0.0353	0.029
Mof_H 	H 	4.41971e-33	0.2228	0.0671	-0
Mof_N 	N 	-7.94151e-34	0.13417	0.0117	-0.156
Mof_N 	N 	-9.12397e-33	0.1631	0.0845	-0.122
Mof_N 	N 	4.61729e-33	0.19301	0.9364	-0.143
Mof_Cd	Cd	0.5	0.56375	0.04167	0.338
Mof_Cd	Cd	0.5	0.64543	0.25019	0.399
Mof_Cd	Cd	0.5	0.68427	0.51934	0.383
Mof_Cd	Cd	0.5	0.73077	0.78903	0.358
Mof_C 	C 	0.5	0.65322	0.9268	0.144
Mof_H 	H 	0.5	0.6401	0.8644	-0.004
Mof_C 	C 	0.5	0.69756	0.0353	0.036
Mof_H 	H 	0.5	0.7228	0.0671	0.008
Mof_N 	N 	0.5	0.63417	0.0117	-0.152
Mof_N 	N 	0.5	0.6631	0.0845	-0.118
Mof_N 	N 	0.5	0.69301	0.9364	-0.139
Mof_Cd	Cd	2.67092e-33	0.93625	0.54167	0.346
Mof_Cd	Cd	-2.90116e-32	0.85457	0.75019	0.375
Mof_Cd	Cd	9.97674e-33	0.81573	0.01934	0.299
Mof_Cd	Cd	6.87697e-33	0.76923	0.28903	0.32
Mof_C 	C 	1.30081e-32	0.84678	0.4268	0.085
Mof_H 	H 	-3.65497e-33	0.8599	0.3644	0.001
Mof_C 	C 	2.63951e-33	0.80244	0.5353	0.084
Mof_H 	H 	-2.65548e-33	0.7772	0.5671	-0.005
Mof_N 	N 	-8.38044e-33	0.86583	0.5117	-0.124
Mof_N 	N 	2.46893e-32	0.8369	0.5845	-0.126
Mof_N 	N 	-2.51071e-32	0.80699	0.4364	-0.162
Mof_Cd	Cd	0.5	0.43625	0.54167	0.376
Mof_Cd	Cd	0.5	0.35457	0.75019	0.404
Mof_Cd	Cd	0.5	0.31573	0.01934	0.334
Mof_Cd	Cd	0.5	0.26923	0.28903	0.351
Mof_C 	C 	0.5	0.34678	0.4268	0.092
Mof_H 	H 	0.5	0.3599	0.3644	0.009
Mof_C 	C 	0.5	0.30244	0.5353	0.091
Mof_H 	H 	0.5	0.2772	0.5671	0.003
Mof_N 	N 	0.5	0.36583	0.5117	-0.119
Mof_N 	N 	0.5	0.3369	0.5845	-0.122
Mof_N 	N 	0.5	0.30699	0.4364	-0.157
Mof_Cd	Cd	0.5	0.01625	0.30399	0.382
Mof_Cd	Cd	0.5	0.10457	0.76184	0.374
Mof_C 	C 	0.5	0.9323	0.0316	0.059
Mof_H 	H 	0.5	0.9063	0.0031	0.002
Mof_C 	C 	0.5	0.99343	0.0477	0.048
Mof_H 	H 	0.5	0.0211	0.0325	0.007
Mof_N 	N 	0.5	0.93831	0.1287	-0.114
Mof_N 	N 	0.5	0.97966	0.1398	-0.107
Mof_N 	N 	0.5	0.96502	0.9775	-0.106
Mof_Cd	Cd	-1.21305e-32	0.51625	0.30399	0.354
Mof_Cd	Cd	3.75656e-33	0.60457	0.76184	0.342
Mof_C 	C 	-1.96069e-32	0.4323	0.0316	0.052
Mof_H 	H 	1.16527e-33	0.4063	0.0031	-0.006
Mof_C 	C 	3.22645e-32	0.49343	0.0477	0.041
Mof_H 	H 	4.93057e-33	0.5211	0.0325	-0.001
Mof_N 	N 	6.34607e-34	0.43831	0.1287	-0.119
Mof_N 	N 	-6.73608e-34	0.47966	0.1398	-0.113
Mof_N 	N 	-1.69872e-32	0.46502	0.9775	-0.11
Mof_Cd	Cd	0.5	0.98375	0.80399	0.39
Mof_Cd	Cd	0.5	0.89543	0.26184	0.366
Mof_C 	C 	0.5	0.0677	0.5316	0.11
Mof_H 	H 	0.5	0.0937	0.5031	0.003
Mof_C 	C 	0.5	0.00657	0.5477	0.096
Mof_H 	H 	0.5	0.9789	0.5325	0.008
Mof_N 	N 	0.5	0.06169	0.6287	-0.119
Mof_N 	N 	0.5	0.02034	0.6398	-0.112
Mof_N 	N 	0.5	0.03498	0.4775	-0.155
Mof_Cd	Cd	-1.78428e-32	0.48375	0.80399	0.362
Mof_Cd	Cd	-1.23384e-32	0.39543	0.26184	0.334
Mof_C 	C 	-8.28232e-33	0.5677	0.5316	0.103
Mof_H 	H 	-1.38746e-32	0.5937	0.5031	-0.006
Mof_C 	C 	-8.20293e-33	0.50657	0.5477	0.089
Mof_H 	H 	-8.27788e-33	0.4789	0.5325	-0
Mof_N 	N 	-1.87071e-32	0.56169	0.6287	-0.124
Mof_N 	N 	-1.86524e-32	0.52034	0.6398	-0.118
Mof_N 	N 	-8.54908e-33	0.53498	0.4775	-0.159
_end
