# CIF file generated by openbabel 3.1.0, see https://openbabel.org
data_I
_chemical_name_common 'image0'
_cell_length_a 13.504
_cell_length_b 7.4447
_cell_length_c 8.2059
_cell_angle_alpha 90
_cell_angle_beta 90
_cell_angle_gamma 90
_space_group_name_H-M_alt 'P 1'
_space_group_name_Hall 'P 1'
loop_
    _symmetry_equiv_pos_as_xyz
    x,y,z
loop_
    _atom_site_label
    _atom_site_type_symbol
    _atom_site_fract_x
    _atom_site_fract_y
    _atom_site_fract_z
    _atom_site_occupancy
    Cu1      Cu       0.43512    0.15208    0.03785    1.000
    Cu2      Cu       0.06663    0.15093    0.14566    1.000
    N1       N        0.29300    0.16880    0.08040    1.000
    C1       C        0.20890    0.17010    0.11070    1.000
    N2       N        0.45970    0.50640    0.84680    1.000
    C2       C        0.48550    0.42110    0.95510    1.000
    N3       N        0.46280    0.99970    0.84760    1.000
    C3       C        0.48350    0.91360    0.73630    1.000
    Cu3      Cu       0.56488    0.84792    0.53785    1.000
    Cu4      Cu       0.93337    0.84907    0.64566    1.000
    N4       N        0.70700    0.83120    0.58040    1.000
    C4       C        0.79110    0.82990    0.61070    1.000
    N5       N        0.54030    0.49360    0.34680    1.000
    C5       C        0.51450    0.57890    0.45510    1.000
    N6       N        0.53720    0.00030    0.34760    1.000
    C6       C        0.51650    0.08640    0.23630    1.000
    Cu5      Cu       0.93512    0.34792    0.03785    1.000
    Cu6      Cu       0.56663    0.34907    0.14566    1.000
    N7       N        0.79300    0.33120    0.08040    1.000
    C7       C        0.70890    0.32990    0.11070    1.000
    N8       N        0.95970    0.99360    0.84680    1.000
    C8       C        0.98550    0.07890    0.95510    1.000
    N9       N        0.96280    0.50030    0.84760    1.000
    C9       C        0.98350    0.58640    0.73630    1.000
    Cu7      Cu       0.06488    0.65208    0.53785    1.000
    Cu8      Cu       0.43337    0.65093    0.64566    1.000
    N10      N        0.20700    0.66880    0.58040    1.000
    C10      C        0.29110    0.67010    0.61070    1.000
    N11      N        0.04030    0.00640    0.34680    1.000
    C11      C        0.01450    0.92110    0.45510    1.000
    N12      N        0.03720    0.49970    0.34760    1.000
    C12      C        0.01650    0.41360    0.23630    1.000
