# CIF file generated by openbabel 3.1.0, see https://openbabel.org
data_I
_chemical_name_common 'SIQQEO_clean'
_cell_length_a 11.0711
_cell_length_b 11.0711
_cell_length_c 11.6224
_cell_angle_alpha 117.998
_cell_angle_beta 117.998
_cell_angle_gamma 90.8234
_space_group_name_H-M_alt 'P 1'
_space_group_name_Hall 'P 1'
loop_
    _symmetry_equiv_pos_as_xyz
    x,y,z
loop_
    _atom_site_label
    _atom_site_type_symbol
    _atom_site_fract_x
    _atom_site_fract_y
    _atom_site_fract_z
    _atom_site_occupancy
    Sr1      Sr       0.73354    0.26646    0.00000    1.000
    Sr2      Sr       0.98354    0.01646    0.50000    1.000
    H1       H        0.74870    0.86050    0.60640    1.000
    H2       H        0.80690    0.86650    0.87480    1.000
    H3       H        0.92550    0.87830    0.83560    1.000
    H4       H        0.79520    0.73360    0.72640    1.000
    H5       H        0.54120    0.74940    0.57400    1.000
    H6       H        0.53080    0.89420    0.57580    1.000
    H7       H        0.56990    0.89230    0.72600    1.000
    H8       H        0.13950    0.25130    0.39360    1.000
    H9       H        0.13350    0.19310    0.12520    1.000
    H10      H        0.12170    0.07450    0.16440    1.000
    H11      H        0.26640    0.20480    0.27360    1.000
    H12      H        0.25060    0.45880    0.42600    1.000
    H13      H        0.10580    0.46920    0.42420    1.000
    H14      H        0.10770    0.43010    0.27400    1.000
    H15      H        0.99590    0.60770    0.10640    1.000
    H16      H        0.25830    0.81790    0.37480    1.000
    H17      H        0.20730    0.66010    0.33560    1.000
    H18      H        0.24280    0.68120    0.22640    1.000
    H19      H        0.07460    0.78280    0.07400    1.000
    H20      H        0.93160    0.79500    0.07580    1.000
    H21      H        0.08370    0.90610    0.22600    1.000
    H22      H        0.39230    0.00410    0.89360    1.000
    H23      H        0.18210    0.74170    0.62520    1.000
    H24      H        0.33990    0.79270    0.66440    1.000
    H25      H        0.31880    0.75720    0.77360    1.000
    H26      H        0.21720    0.92540    0.92600    1.000
    H27      H        0.20500    0.06840    0.92420    1.000
    H28      H        0.09390    0.91630    0.77400    1.000
    C1       C        0.87900    0.11700    0.21780    1.000
    C2       C        0.73700    0.89440    0.69580    1.000
    C3       C        0.82350    0.83850    0.79120    1.000
    C4       C        0.58140    0.85400    0.63800    1.000
    C5       C        0.88300    0.12100    0.78220    1.000
    C6       C        0.10560    0.26300    0.30420    1.000
    C7       C        0.16150    0.17650    0.20880    1.000
    C8       C        0.14600    0.41860    0.36200    1.000
    C9       C        0.35080    0.08880    0.71780    1.000
    C10      C        0.05140    0.70880    0.19580    1.000
    C11      C        0.20270    0.71770    0.29120    1.000
    C12      C        0.03400    0.80660    0.13800    1.000
    C13      C        0.91120    0.64920    0.28220    1.000
    C14      C        0.29120    0.94860    0.80420    1.000
    C15      C        0.28230    0.79730    0.70880    1.000
    C16      C        0.19340    0.96600    0.86200    1.000
    S1       S        0.69835    0.05391    0.08846    1.000
    S2       S        0.94609    0.30165    0.91154    1.000
    S3       S        0.28455    0.14011    0.58846    1.000
    S4       S        0.85989    0.71545    0.41154    1.000
    O1       O        0.94770    0.08850    0.31420    1.000
    O2       O        0.94720    0.21140    0.20660    1.000
    O3       O        0.91150    0.05230    0.68580    1.000
    O4       O        0.78860    0.05280    0.79340    1.000
    O5       O        0.47570    0.11650    0.81420    1.000
    O6       O        0.24520    0.00940    0.70660    1.000
    O7       O        0.88350    0.52430    0.18580    1.000
    O8       O        0.99060    0.75480    0.29340    1.000
