# CIF file generated by openbabel 3.1.0, see https://openbabel.org
data_I
_chemical_name_common 'JEMNAR_clean'
_cell_length_a 9.3549
_cell_length_b 13.104
_cell_length_c 10.883
_cell_angle_alpha 113.08
_cell_angle_beta 90
_cell_angle_gamma 90
_space_group_name_H-M_alt 'P 1'
_space_group_name_Hall 'P 1'
loop_
    _symmetry_equiv_pos_as_xyz
    x,y,z
loop_
    _atom_site_label
    _atom_site_type_symbol
    _atom_site_fract_x
    _atom_site_fract_y
    _atom_site_fract_z
    _atom_site_occupancy
    Ni1      Ni       0.76161    0.57437    0.80666    1.000
    Ni2      Ni       0.26161    0.42563    0.69334    1.000
    Ni3      Ni       0.23839    0.42563    0.19334    1.000
    Ni4      Ni       0.73839    0.57437    0.30666    1.000
    H1       H        0.62030    0.35300    0.50300    1.000
    H2       H        0.84410    0.28270    0.49500    1.000
    H3       H        0.85380    0.36170    0.41860    1.000
    H4       H        0.89370    0.73110    0.70690    1.000
    H5       H        0.99180    0.90400    0.77660    1.000
    H6       H        0.92650    0.93640    0.15200    1.000
    H7       H        0.83570    0.75980    0.07180    1.000
    H8       H        0.12030    0.64700    0.99700    1.000
    H9       H        0.34410    0.71730    0.00500    1.000
    H10      H        0.35380    0.63830    0.08140    1.000
    H11      H        0.39370    0.26890    0.79310    1.000
    H12      H        0.49180    0.09600    0.72340    1.000
    H13      H        0.42650    0.06360    0.34800    1.000
    H14      H        0.33570    0.24020    0.42820    1.000
    H15      H        0.37970    0.64700    0.49700    1.000
    H16      H        0.15590    0.71730    0.50500    1.000
    H17      H        0.14620    0.63830    0.58140    1.000
    H18      H        0.10630    0.26890    0.29310    1.000
    H19      H        0.00820    0.09600    0.22340    1.000
    H20      H        0.07350    0.06360    0.84800    1.000
    H21      H        0.16430    0.24020    0.92820    1.000
    H22      H        0.87970    0.35300    0.00300    1.000
    H23      H        0.65590    0.28270    0.99500    1.000
    H24      H        0.64620    0.36170    0.91860    1.000
    H25      H        0.60630    0.73110    0.20690    1.000
    H26      H        0.50820    0.90400    0.27660    1.000
    H27      H        0.57350    0.93640    0.65200    1.000
    H28      H        0.66430    0.75980    0.57180    1.000
    C1       C        0.66800    0.51800    0.54780    1.000
    C2       C        0.69250    0.40560    0.55730    1.000
    C3       C        0.84060    0.35980    0.50600    1.000
    C4       C        0.96360    0.42070    0.59450    1.000
    C5       C        0.89960    0.77330    0.79820    1.000
    C6       C        0.95870    0.87740    0.83910    1.000
    C7       C        0.96840    0.94270    0.97530    1.000
    C8       C        0.92100    0.89620    0.06030    1.000
    C9       C        0.86470    0.79000    0.01140    1.000
    C10      C        0.16800    0.48200    0.95220    1.000
    C11      C        0.19250    0.59440    0.94270    1.000
    C12      C        0.34060    0.64020    0.99400    1.000
    C13      C        0.46360    0.57930    0.90550    1.000
    C14      C        0.39960    0.22670    0.70180    1.000
    C15      C        0.45870    0.12260    0.66090    1.000
    C16      C        0.46840    0.05730    0.52470    1.000
    C17      C        0.42100    0.10380    0.43970    1.000
    C18      C        0.36470    0.21000    0.48860    1.000
    C19      C        0.33200    0.48200    0.45220    1.000
    C20      C        0.30750    0.59440    0.44270    1.000
    C21      C        0.15940    0.64020    0.49400    1.000
    C22      C        0.03640    0.57930    0.40550    1.000
    C23      C        0.10040    0.22670    0.20180    1.000
    C24      C        0.04130    0.12260    0.16090    1.000
    C25      C        0.03160    0.05730    0.02470    1.000
    C26      C        0.07900    0.10380    0.93970    1.000
    C27      C        0.13530    0.21000    0.98860    1.000
    C28      C        0.83200    0.51800    0.04780    1.000
    C29      C        0.80750    0.40560    0.05730    1.000
    C30      C        0.65940    0.35980    0.00600    1.000
    C31      C        0.53640    0.42070    0.09450    1.000
    C32      C        0.60040    0.77330    0.29820    1.000
    C33      C        0.54130    0.87740    0.33910    1.000
    C34      C        0.53160    0.94270    0.47530    1.000
    C35      C        0.57900    0.89620    0.56030    1.000
    C36      C        0.63530    0.79000    0.51140    1.000
    N1       N        0.85060    0.72910    0.88060    1.000
    N2       N        0.35060    0.27090    0.61940    1.000
    N3       N        0.14940    0.27090    0.11940    1.000
    N4       N        0.64940    0.72910    0.38060    1.000
    O1       O        0.66900    0.60380    0.65380    1.000
    O2       O        0.64550    0.51380    0.43260    1.000
    O3       O        0.68090    0.41460    0.69330    1.000
    O4       O        0.94240    0.51590    0.68560    1.000
    O5       O        0.08440    0.37450    0.57120    1.000
    O6       O        0.16900    0.39620    0.84620    1.000
    O7       O        0.14550    0.48620    0.06740    1.000
    O8       O        0.18090    0.58540    0.80670    1.000
    O9       O        0.44240    0.48410    0.81440    1.000
    O10      O        0.58440    0.62550    0.92880    1.000
    O11      O        0.33100    0.39620    0.34620    1.000
    O12      O        0.35450    0.48620    0.56740    1.000
    O13      O        0.31910    0.58540    0.30670    1.000
    O14      O        0.05760    0.48410    0.31440    1.000
    O15      O        0.91560    0.62550    0.42880    1.000
    O16      O        0.83100    0.60380    0.15380    1.000
    O17      O        0.85450    0.51380    0.93260    1.000
    O18      O        0.81910    0.41460    0.19330    1.000
    O19      O        0.55760    0.51590    0.18560    1.000
    O20      O        0.41560    0.37450    0.07120    1.000
