data_functionalizedCrystal
_audit_creation_method	'EQeq! by Chris Wilmer'
_symmetry_space_group_name_H-M	'P1'
_symmetry_Int_Tables_number	1
_symmetry_cell_setting	triclinic
loop_
_symmetry_equiv_pos_as_xyz
  x,y,z
_cell_length_a	14.004
_cell_length_b	23.292
_cell_length_c	23.479
_cell_angle_alpha	107.51
_cell_angle_beta	90
_cell_angle_gamma	90
loop_
_atom_site_label
_atom_site_type_symbol
_atom_site_fract_x
_atom_site_fract_y
_atom_site_fract_z
_atom_site_charge
Mof_Pr	Pr	0.20346	0.511	0.77365	1.816
Mof_Pr	Pr	0.85846	0.74263	0.79005	1.814
Mof_Pr	Pr	0.94211	0.25249	0.70812	1.779
Mof_Pr	Pr	0.29937	0.27652	0.50359	1.808
Mof_Pr	Pr	0.70346	0.989	0.72635	1.816
Mof_Pr	Pr	0.35846	0.75737	0.70995	1.816
Mof_Pr	Pr	0.44211	0.24751	0.79188	1.781
Mof_Pr	Pr	0.79937	0.22348	0.99641	1.799
Mof_Pr	Pr	0.79654	0.489	0.22635	1.815
Mof_Pr	Pr	0.14154	0.25737	0.20995	1.813
Mof_Pr	Pr	0.05789	0.74751	0.29188	1.778
Mof_Pr	Pr	0.70063	0.72348	0.49641	1.807
Mof_Pr	Pr	0.29654	0.011	0.27365	1.815
Mof_Pr	Pr	0.64154	0.24263	0.29005	1.815
Mof_Pr	Pr	0.55789	0.75249	0.20812	1.781
Mof_Pr	Pr	0.20063	0.77652	0.00359	1.799
Mof_H 	H 	0.031	0.6402	0.8328	-0.065
Mof_H 	H 	0.0553	0.5445	0.6636	-0.006
Mof_H 	H 	0.913	0.6089	0.6737	-0.011
Mof_H 	H 	0.232	0.645	0.7473	-0.084
Mof_H 	H 	0.3428	0.5063	0.6281	-0.008
Mof_H 	H 	0.4018	0.5965	0.6059	0.012
Mof_H 	H 	0.1087	0.371	0.7717	-0.069
Mof_H 	H 	0.935	0.5043	0.7736	0.003
Mof_H 	H 	0.8457	0.4085	0.7347	0
Mof_H 	H 	0.3668	0.3767	0.7448	-0.062
Mof_H 	H 	0.2224	0.4451	0.894	-0.011
Mof_H 	H 	0.331	0.3678	0.9086	-0.008
Mof_H 	H 	0.3191	0.3949	0.6518	-0.065
Mof_H 	H 	0.5576	0.6263	0.8237	0.109
Mof_H 	H 	0.048	0.4371	0.6485	-0.003
Mof_H 	H 	0.0919	0.367	0.5496	-0.017
Mof_H 	H 	0.2693	0.6382	0.8894	-0.065
Mof_H 	H 	0.0431	0.5474	0.9084	-0.008
Mof_H 	H 	0.0374	0.6477	0.9847	-0.007
Mof_H 	H 	0.4146	0.6019	0.7622	-0.05
Mof_H 	H 	0.4019	0.5133	0.8809	-0.001
Mof_H 	H 	0.5545	0.572	0.8991	0.017
Mof_H 	H 	0.6315	0.6906	0.9617	0.011
Mof_H 	H 	0.5956	0.8049	0.7697	-0.055
Mof_H 	H 	0.7004	0.6388	0.7284	-0.02
Mof_H 	H 	0.5328	0.6325	0.6954	-0.001
Mof_H 	H 	0.7289	0.7645	0.661	-0.063
Mof_H 	H 	0.9957	0.7073	0.6452	-0.008
Mof_H 	H 	0.9451	0.713	0.5468	-0.003
Mof_H 	H 	0.0718	0.7666	0.884	-0.076
Mof_H 	H 	0.8109	0.7971	0.9498	-0.003
Mof_H 	H 	0.8485	0.3641	0.5415	0.104
Mof_H 	H 	0.9222	0.7974	0.0314	0.007
Mof_H 	H 	0.6357	0.727	0.8744	0.002
Mof_H 	H 	0.323	0.456	0.3915	0.104
Mof_H 	H 	0.8712	0.631	0.8712	-0.04
Mof_H 	H 	0.7741	0.6306	0.9578	0.102
Mof_H 	H 	0.7033	0.1959	0.7142	-0.056
Mof_H 	H 	0.7681	0.3639	0.8001	-0.011
Mof_H 	H 	0.5983	0.3506	0.8167	-0.015
Mof_H 	H 	0.8294	0.2837	0.8625	-0.061
Mof_H 	H 	0.0452	0.1716	0.803	0.003
Mof_H 	H 	0.986	0.1564	0.8967	-0.012
Mof_H 	H 	0.1512	0.274	0.633	-0.07
Mof_H 	H 	0.9659	0.1554	0.5415	-0.004
Mof_H 	H 	0.0915	0.1663	0.4706	0.007
Mof_H 	H 	0.9549	0.3043	0.5777	-0.046
Mof_H 	H 	0.7074	0.307	0.6576	0.009
Mof_H 	H 	0.6948	0.3723	0.5932	0.01
Mof_H 	H 	0.2501	0.3618	0.3914	-0.046
Mof_H 	H 	0.4142	0.4257	0.5374	0.004
Mof_H 	H 	0.4127	0.4992	0.4799	0.003
Mof_H 	H 	0.531	0.8598	0.6672	-0.065
Mof_H 	H 	0.5553	0.9555	0.8364	-0.005
Mof_H 	H 	0.413	0.8911	0.8263	-0.012
Mof_H 	H 	0.732	0.855	0.7527	-0.084
Mof_H 	H 	0.8428	0.9937	0.8719	-0.008
Mof_H 	H 	0.9018	0.9035	0.8941	0.011
Mof_H 	H 	0.6087	0.129	0.7283	-0.069
Mof_H 	H 	0.435	0.9957	0.7264	0.003
Mof_H 	H 	0.3457	0.0915	0.7653	0.001
Mof_H 	H 	0.8668	0.1233	0.7552	-0.062
Mof_H 	H 	0.7224	0.0549	0.606	-0.012
Mof_H 	H 	0.831	0.1322	0.5914	-0.008
Mof_H 	H 	0.8191	0.1051	0.8482	-0.065
Mof_H 	H 	0.0576	0.8737	0.6763	0.109
Mof_H 	H 	0.548	0.0629	0.8515	-0.004
Mof_H 	H 	0.5919	0.133	0.9504	-0.017
Mof_H 	H 	0.7693	0.8618	0.6106	-0.065
Mof_H 	H 	0.5431	0.9526	0.5916	-0.009
Mof_H 	H 	0.5374	0.8523	0.5153	-0.008
Mof_H 	H 	0.9146	0.8981	0.7378	-0.05
Mof_H 	H 	0.9019	0.9867	0.6191	-0
Mof_H 	H 	0.0545	0.928	0.6009	0.017
Mof_H 	H 	0.1315	0.8094	0.5383	0.011
Mof_H 	H 	0.0956	0.6951	0.7303	-0.054
Mof_H 	H 	0.2004	0.8612	0.7716	-0.02
Mof_H 	H 	0.0328	0.8675	0.8046	-0.001
Mof_H 	H 	0.2289	0.7355	0.839	-0.063
Mof_H 	H 	0.4957	0.7927	0.8548	-0.007
Mof_H 	H 	0.4451	0.787	0.9532	-0.003
Mof_H 	H 	0.5718	0.7334	0.616	-0.075
Mof_H 	H 	0.3109	0.7029	0.5502	-0.001
Mof_H 	H 	0.3485	0.1359	0.9585	0.105
Mof_H 	H 	0.4222	0.7026	0.4686	0.001
Mof_H 	H 	0.1357	0.773	0.6256	0.002
Mof_H 	H 	0.823	0.044	0.1085	0.105
Mof_H 	H 	0.3712	0.869	0.6288	-0.039
Mof_H 	H 	0.2741	0.8694	0.5422	0.103
Mof_H 	H 	0.2033	0.3041	0.7858	-0.056
Mof_H 	H 	0.2681	0.1361	0.6999	-0.01
Mof_H 	H 	0.0983	0.1494	0.6833	-0.014
Mof_H 	H 	0.3294	0.2163	0.6375	-0.061
Mof_H 	H 	0.5452	0.3284	0.697	-0
Mof_H 	H 	0.486	0.3436	0.6033	-0.01
Mof_H 	H 	0.6512	0.226	0.867	-0.07
Mof_H 	H 	0.4659	0.3446	0.9585	-0.004
Mof_H 	H 	0.5915	0.3337	0.0294	0.008
Mof_H 	H 	0.4549	0.1957	0.9223	-0.046
Mof_H 	H 	0.2074	0.193	0.8424	0.009
Mof_H 	H 	0.1948	0.1277	0.9068	0.011
Mof_H 	H 	0.7501	0.1382	0.1086	-0.046
Mof_H 	H 	0.9142	0.0743	0.9626	0.006
Mof_H 	H 	0.9127	0.0008	0.0201	0.002
Mof_H 	H 	0.969	0.3598	0.1672	-0.065
Mof_H 	H 	0.9447	0.4555	0.3364	-0.006
Mof_H 	H 	0.087	0.3911	0.3263	-0.011
Mof_H 	H 	0.768	0.355	0.2527	-0.084
Mof_H 	H 	0.6572	0.4937	0.3719	-0.008
Mof_H 	H 	0.5982	0.4035	0.3941	0.012
Mof_H 	H 	0.8913	0.629	0.2283	-0.069
Mof_H 	H 	0.065	0.4957	0.2264	0.003
Mof_H 	H 	0.1543	0.5915	0.2653	0
Mof_H 	H 	0.6332	0.6233	0.2552	-0.062
Mof_H 	H 	0.7776	0.5549	0.106	-0.011
Mof_H 	H 	0.669	0.6322	0.0914	-0.008
Mof_H 	H 	0.6809	0.6051	0.3482	-0.065
Mof_H 	H 	0.4424	0.3737	0.1763	0.109
Mof_H 	H 	0.952	0.5629	0.3515	-0.003
Mof_H 	H 	0.9081	0.633	0.4504	-0.017
Mof_H 	H 	0.7307	0.3618	0.1106	-0.065
Mof_H 	H 	0.9569	0.4526	0.0916	-0.008
Mof_H 	H 	0.9626	0.3523	0.0153	-0.007
Mof_H 	H 	0.5854	0.3981	0.2378	-0.05
Mof_H 	H 	0.5981	0.4867	0.1191	-0.001
Mof_H 	H 	0.4455	0.428	0.1009	0.017
Mof_H 	H 	0.3685	0.3094	0.0383	0.011
Mof_H 	H 	0.4044	0.1951	0.2303	-0.055
Mof_H 	H 	0.2996	0.3612	0.2716	-0.02
Mof_H 	H 	0.4672	0.3675	0.3046	-0.001
Mof_H 	H 	0.2711	0.2355	0.339	-0.063
Mof_H 	H 	0.0043	0.2927	0.3548	-0.008
Mof_H 	H 	0.0549	0.287	0.4532	-0.003
Mof_H 	H 	0.9282	0.2334	0.116	-0.076
Mof_H 	H 	0.1891	0.2029	0.0502	-0.003
Mof_H 	H 	0.1515	0.6359	0.4585	0.104
Mof_H 	H 	0.0778	0.2026	0.9686	0.007
Mof_H 	H 	0.3643	0.273	0.1256	0.002
Mof_H 	H 	0.677	0.544	0.6085	0.104
Mof_H 	H 	0.1288	0.369	0.1288	-0.04
Mof_H 	H 	0.2259	0.3694	0.0422	0.102
Mof_H 	H 	0.2967	0.8041	0.2858	-0.056
Mof_H 	H 	0.2319	0.6361	0.1999	-0.011
Mof_H 	H 	0.4017	0.6494	0.1833	-0.015
Mof_H 	H 	0.1706	0.7163	0.1375	-0.061
Mof_H 	H 	0.9548	0.8284	0.197	0.003
Mof_H 	H 	0.014	0.8436	0.1033	-0.012
Mof_H 	H 	0.8488	0.726	0.367	-0.07
Mof_H 	H 	0.0341	0.8446	0.4585	-0.004
Mof_H 	H 	0.9085	0.8337	0.5294	0.007
Mof_H 	H 	0.0451	0.6957	0.4223	-0.046
Mof_H 	H 	0.2926	0.693	0.3424	0.009
Mof_H 	H 	0.3052	0.6277	0.4068	0.01
Mof_H 	H 	0.7499	0.6382	0.6086	-0.046
Mof_H 	H 	0.5858	0.5743	0.4626	0.004
Mof_H 	H 	0.5873	0.5008	0.5201	0.003
Mof_H 	H 	0.469	0.1402	0.3328	-0.065
Mof_H 	H 	0.4447	0.0445	0.1636	-0.005
Mof_H 	H 	0.587	0.1089	0.1737	-0.012
Mof_H 	H 	0.268	0.145	0.2473	-0.084
Mof_H 	H 	0.1572	0.0063	0.1281	-0.008
Mof_H 	H 	0.0982	0.0965	0.1059	0.011
Mof_H 	H 	0.3913	0.871	0.2717	-0.069
Mof_H 	H 	0.565	0.0043	0.2736	0.003
Mof_H 	H 	0.6543	0.9085	0.2347	0.001
Mof_H 	H 	0.1332	0.8767	0.2448	-0.062
Mof_H 	H 	0.2776	0.9451	0.394	-0.012
Mof_H 	H 	0.169	0.8678	0.4086	-0.008
Mof_H 	H 	0.1809	0.8949	0.1518	-0.065
Mof_H 	H 	0.9424	0.1263	0.3237	0.109
Mof_H 	H 	0.452	0.9371	0.1485	-0.004
Mof_H 	H 	0.4081	0.867	0.0496	-0.017
Mof_H 	H 	0.2307	0.1382	0.3894	-0.065
Mof_H 	H 	0.4569	0.0474	0.4084	-0.009
Mof_H 	H 	0.4626	0.1477	0.4847	-0.008
Mof_H 	H 	0.0854	0.1019	0.2622	-0.05
Mof_H 	H 	0.0981	0.0133	0.3809	-0
Mof_H 	H 	0.9455	0.072	0.3991	0.017
Mof_H 	H 	0.8685	0.1906	0.4617	0.011
Mof_H 	H 	0.9044	0.3049	0.2697	-0.054
Mof_H 	H 	0.7996	0.1388	0.2284	-0.02
Mof_H 	H 	0.9672	0.1325	0.1954	-0.001
Mof_H 	H 	0.7711	0.2645	0.161	-0.063
Mof_H 	H 	0.5043	0.2073	0.1452	-0.007
Mof_H 	H 	0.5549	0.213	0.0468	-0.003
Mof_H 	H 	0.4282	0.2666	0.384	-0.075
Mof_H 	H 	0.6891	0.2971	0.4498	-0.001
Mof_H 	H 	0.6515	0.8641	0.0415	0.105
Mof_H 	H 	0.5778	0.2974	0.5314	0.001
Mof_H 	H 	0.8643	0.227	0.3744	0.002
Mof_H 	H 	0.177	0.956	0.8915	0.105
Mof_H 	H 	0.6288	0.131	0.3712	-0.039
Mof_H 	H 	0.7259	0.1306	0.4578	0.103
Mof_H 	H 	0.7967	0.6959	0.2142	-0.056
Mof_H 	H 	0.7319	0.8639	0.3001	-0.01
Mof_H 	H 	0.9017	0.8506	0.3167	-0.014
Mof_H 	H 	0.6706	0.7837	0.3625	-0.061
Mof_H 	H 	0.4548	0.6716	0.303	-0
Mof_H 	H 	0.514	0.6564	0.3967	-0.01
Mof_H 	H 	0.3488	0.774	0.133	-0.07
Mof_H 	H 	0.5341	0.6554	0.0415	-0.004
Mof_H 	H 	0.4085	0.6663	0.9706	0.008
Mof_H 	H 	0.5451	0.8043	0.0777	-0.046
Mof_H 	H 	0.7926	0.807	0.1576	0.009
Mof_H 	H 	0.8052	0.8723	0.0932	0.011
Mof_H 	H 	0.2499	0.8618	0.8914	-0.046
Mof_H 	H 	0.0858	0.9257	0.0374	0.006
Mof_H 	H 	0.0873	0.9992	0.9799	0.002
Mof_C 	C 	0.0186	0.6236	0.7913	0.126
Mof_C 	C 	0.032	0.5714	0.6998	-0.003
Mof_C 	C 	0.9544	0.6079	0.7055	-0.003
Mof_C 	C 	0.2677	0.6212	0.7142	0.125
Mof_C 	C 	0.3271	0.5464	0.6504	0.018
Mof_C 	C 	0.3599	0.5958	0.6375	-0.021
Mof_C 	C 	0.0529	0.3928	0.768	0.113
Mof_C 	C 	0.9601	0.4653	0.7689	-0.005
Mof_C 	C 	0.9104	0.4124	0.7476	-0.002
Mof_C 	C 	0.3453	0.3852	0.7848	0.115
Mof_C 	C 	0.2666	0.4225	0.8652	-0.002
Mof_C 	C 	0.326	0.3792	0.8731	-0.007
Mof_C 	C 	0.2549	0.3962	0.6391	0.115
Mof_C 	C 	0.1094	0.4198	0.6379	-0.009
Mof_C 	C 	0.1337	0.3802	0.5829	0.012
Mof_C 	C 	0.2105	0.6279	0.9041	0.109
Mof_C 	C 	0.0895	0.5783	0.9132	0.01
Mof_C 	C 	0.0866	0.6339	0.9559	-0.002
Mof_C 	C 	0.4302	0.5871	0.7946	0.119
Mof_C 	C 	0.4237	0.5391	0.859	0.003
Mof_C 	C 	0.5082	0.5713	0.8693	0.005
Mof_C 	C 	0.6808	0.683	0.9326	0.02
Mof_C 	C 	0.6007	0.7624	0.7549	0.121
Mof_C 	C 	0.6591	0.6723	0.7329	-0.01
Mof_C 	C 	0.5667	0.6685	0.7145	0.002
Mof_C 	C 	0.7895	0.7503	0.6447	0.103
Mof_C 	C 	0.9341	0.7195	0.6364	0.008
Mof_C 	C 	0.9064	0.7225	0.5816	-0.009
Mof_C 	C 	0.0195	0.7735	0.911	0.115
Mof_C 	C 	0.8778	0.7905	0.9456	0.003
Mof_C 	C 	0.9393	0.7902	0.9907	0.003
Mof_C 	C 	0.6839	0.7035	0.8852	-0.011
Mof_C 	C 	0.8122	0.6512	0.8829	0.106
Mof_C 	C 	0.6989	0.2368	0.738	0.123
Mof_C 	C 	0.7338	0.3274	0.784	0.02
Mof_C 	C 	0.6402	0.3202	0.7939	-0.035
Mof_C 	C 	0.8772	0.254	0.8599	0.128
Mof_C 	C 	0.9941	0.1929	0.8268	-0.017
Mof_C 	C 	0.9617	0.1849	0.8788	-0.006
Mof_C 	C 	0.1203	0.2455	0.6006	0.124
Mof_C 	C 	0.0199	0.1812	0.5514	0.012
Mof_C 	C 	0.089	0.1873	0.512	-0.012
Mof_C 	C 	0.8901	0.312	0.5895	0.123
Mof_C 	C 	0.7569	0.3141	0.6329	-0.007
Mof_C 	C 	0.7492	0.3495	0.5974	0.014
Mof_C 	C 	0.2913	0.386	0.4212	0.123
Mof_C 	C 	0.3807	0.4219	0.5012	-0.03
Mof_C 	C 	0.381	0.4614	0.4689	0.039
Mof_C 	C 	0.5186	0.8764	0.7087	0.124
Mof_C 	C 	0.532	0.9286	0.8002	-0.006
Mof_C 	C 	0.4544	0.8921	0.7945	0.001
Mof_C 	C 	0.7677	0.8788	0.7858	0.124
Mof_C 	C 	0.8271	0.9536	0.8496	0.017
Mof_C 	C 	0.8599	0.9042	0.8625	-0.021
Mof_C 	C 	0.5529	0.1072	0.732	0.111
Mof_C 	C 	0.4601	0.0347	0.7311	-0.003
Mof_C 	C 	0.4104	0.0876	0.7524	-0.002
Mof_C 	C 	0.8453	0.1148	0.7152	0.115
Mof_C 	C 	0.7666	0.0775	0.6348	-0.002
Mof_C 	C 	0.826	0.1208	0.6269	-0.007
Mof_C 	C 	0.7549	0.1038	0.8609	0.115
Mof_C 	C 	0.6094	0.0802	0.8621	-0.009
Mof_C 	C 	0.6337	0.1198	0.9171	0.012
Mof_C 	C 	0.7105	0.8721	0.5959	0.109
Mof_C 	C 	0.5895	0.9217	0.5868	0.01
Mof_C 	C 	0.5866	0.8661	0.5441	-0.002
Mof_C 	C 	0.9302	0.9129	0.7054	0.117
Mof_C 	C 	0.9237	0.9609	0.641	0.001
Mof_C 	C 	0.0082	0.9287	0.6307	0.008
Mof_C 	C 	0.1808	0.817	0.5674	0.021
Mof_C 	C 	0.1007	0.7376	0.7451	0.121
Mof_C 	C 	0.1591	0.8277	0.7671	-0.01
Mof_C 	C 	0.0667	0.8315	0.7855	0.002
Mof_C 	C 	0.2895	0.7497	0.8553	0.103
Mof_C 	C 	0.4341	0.7805	0.8636	0.008
Mof_C 	C 	0.4064	0.7775	0.9184	-0.009
Mof_C 	C 	0.5195	0.7265	0.589	0.112
Mof_C 	C 	0.3778	0.7095	0.5544	-0.001
Mof_C 	C 	0.4393	0.7098	0.5093	0.013
Mof_C 	C 	0.1839	0.7965	0.6148	-0.011
Mof_C 	C 	0.3122	0.8488	0.6171	0.106
Mof_C 	C 	0.1989	0.2632	0.762	0.123
Mof_C 	C 	0.2338	0.1726	0.716	0.02
Mof_C 	C 	0.1402	0.1798	0.7061	-0.035
Mof_C 	C 	0.3772	0.246	0.6401	0.129
Mof_C 	C 	0.4941	0.3071	0.6732	-0.013
Mof_C 	C 	0.4617	0.3151	0.6212	-0.007
Mof_C 	C 	0.6203	0.2545	0.8994	0.124
Mof_C 	C 	0.5199	0.3188	0.9486	0.013
Mof_C 	C 	0.589	0.3127	0.988	-0.014
Mof_C 	C 	0.3901	0.188	0.9105	0.123
Mof_C 	C 	0.2569	0.1859	0.8671	-0.007
Mof_C 	C 	0.2492	0.1505	0.9026	0.014
Mof_C 	C 	0.7913	0.114	0.0788	0.124
Mof_C 	C 	0.8807	0.0781	0.9988	-0.039
Mof_C 	C 	0.881	0.0386	0.0311	0.046
Mof_C 	C 	0.9814	0.3764	0.2087	0.126
Mof_C 	C 	0.968	0.4286	0.3002	-0.003
Mof_C 	C 	0.0456	0.3921	0.2945	-0.003
Mof_C 	C 	0.7323	0.3788	0.2858	0.125
Mof_C 	C 	0.6729	0.4536	0.3496	0.018
Mof_C 	C 	0.6401	0.4042	0.3625	-0.021
Mof_C 	C 	0.9471	0.6072	0.232	0.113
Mof_C 	C 	0.0399	0.5347	0.2311	-0.005
Mof_C 	C 	0.0896	0.5876	0.2524	-0.002
Mof_C 	C 	0.6547	0.6148	0.2152	0.115
Mof_C 	C 	0.7334	0.5775	0.1348	-0.002
Mof_C 	C 	0.674	0.6208	0.1269	-0.007
Mof_C 	C 	0.7451	0.6038	0.3609	0.115
Mof_C 	C 	0.8906	0.5802	0.3621	-0.009
Mof_C 	C 	0.8663	0.6198	0.4171	0.012
Mof_C 	C 	0.7895	0.3721	0.0959	0.109
Mof_C 	C 	0.9105	0.4217	0.0868	0.01
Mof_C 	C 	0.9134	0.3661	0.0441	-0.002
Mof_C 	C 	0.5698	0.4129	0.2054	0.119
Mof_C 	C 	0.5763	0.4609	0.141	0.003
Mof_C 	C 	0.4918	0.4287	0.1307	0.005
Mof_C 	C 	0.3192	0.317	0.0674	0.02
Mof_C 	C 	0.3993	0.2376	0.2451	0.121
Mof_C 	C 	0.3409	0.3277	0.2671	-0.01
Mof_C 	C 	0.4333	0.3315	0.2855	0.002
Mof_C 	C 	0.2105	0.2497	0.3553	0.103
Mof_C 	C 	0.0659	0.2805	0.3636	0.008
Mof_C 	C 	0.0936	0.2775	0.4184	-0.009
Mof_C 	C 	0.9805	0.2265	0.089	0.115
Mof_C 	C 	0.1222	0.2095	0.0544	0.003
Mof_C 	C 	0.0607	0.2098	0.0093	0.003
Mof_C 	C 	0.3161	0.2965	0.1148	-0.011
Mof_C 	C 	0.1878	0.3488	0.1171	0.106
Mof_C 	C 	0.3011	0.7632	0.262	0.123
Mof_C 	C 	0.2662	0.6726	0.216	0.02
Mof_C 	C 	0.3598	0.6798	0.2061	-0.035
Mof_C 	C 	0.1228	0.746	0.1401	0.128
Mof_C 	C 	0.0059	0.8071	0.1732	-0.017
Mof_C 	C 	0.0383	0.8151	0.1212	-0.006
Mof_C 	C 	0.8797	0.7545	0.3994	0.124
Mof_C 	C 	0.9801	0.8188	0.4486	0.012
Mof_C 	C 	0.911	0.8127	0.488	-0.012
Mof_C 	C 	0.1099	0.688	0.4105	0.123
Mof_C 	C 	0.2431	0.6859	0.3671	-0.007
Mof_C 	C 	0.2508	0.6505	0.4026	0.014
Mof_C 	C 	0.7087	0.614	0.5788	0.123
Mof_C 	C 	0.6193	0.5781	0.4988	-0.03
Mof_C 	C 	0.619	0.5386	0.5311	0.039
Mof_C 	C 	0.4814	0.1236	0.2913	0.124
Mof_C 	C 	0.468	0.0714	0.1998	-0.006
Mof_C 	C 	0.5456	0.1079	0.2055	0.001
Mof_C 	C 	0.2323	0.1212	0.2142	0.124
Mof_C 	C 	0.1729	0.0464	0.1504	0.017
Mof_C 	C 	0.1401	0.0958	0.1375	-0.021
Mof_C 	C 	0.4471	0.8928	0.268	0.111
Mof_C 	C 	0.5399	0.9653	0.2689	-0.003
Mof_C 	C 	0.5896	0.9124	0.2476	-0.002
Mof_C 	C 	0.1547	0.8852	0.2848	0.115
Mof_C 	C 	0.2334	0.9225	0.3652	-0.002
Mof_C 	C 	0.174	0.8792	0.3731	-0.007
Mof_C 	C 	0.2451	0.8962	0.1391	0.115
Mof_C 	C 	0.3906	0.9198	0.1379	-0.009
Mof_C 	C 	0.3663	0.8802	0.0829	0.012
Mof_C 	C 	0.2895	0.1279	0.4041	0.109
Mof_C 	C 	0.4105	0.0783	0.4132	0.01
Mof_C 	C 	0.4134	0.1339	0.4559	-0.002
Mof_C 	C 	0.0698	0.0871	0.2946	0.117
Mof_C 	C 	0.0763	0.0391	0.359	0.001
Mof_C 	C 	0.9918	0.0713	0.3693	0.008
Mof_C 	C 	0.8192	0.183	0.4326	0.021
Mof_C 	C 	0.8993	0.2624	0.2549	0.121
Mof_C 	C 	0.8409	0.1723	0.2329	-0.01
Mof_C 	C 	0.9333	0.1685	0.2145	0.002
Mof_C 	C 	0.7105	0.2503	0.1447	0.103
Mof_C 	C 	0.5659	0.2195	0.1364	0.008
Mof_C 	C 	0.5936	0.2225	0.0816	-0.009
Mof_C 	C 	0.4805	0.2735	0.411	0.112
Mof_C 	C 	0.6222	0.2905	0.4456	-0.001
Mof_C 	C 	0.5607	0.2902	0.4907	0.013
Mof_C 	C 	0.8161	0.2035	0.3852	-0.011
Mof_C 	C 	0.6878	0.1512	0.3829	0.106
Mof_C 	C 	0.8011	0.7368	0.238	0.123
Mof_C 	C 	0.7662	0.8274	0.284	0.02
Mof_C 	C 	0.8598	0.8202	0.2939	-0.035
Mof_C 	C 	0.6228	0.754	0.3599	0.129
Mof_C 	C 	0.5059	0.6929	0.3268	-0.013
Mof_C 	C 	0.5383	0.6849	0.3788	-0.007
Mof_C 	C 	0.3797	0.7455	0.1006	0.124
Mof_C 	C 	0.4801	0.6812	0.0514	0.013
Mof_C 	C 	0.411	0.6873	0.012	-0.014
Mof_C 	C 	0.6099	0.812	0.0895	0.123
Mof_C 	C 	0.7431	0.8141	0.1329	-0.007
Mof_C 	C 	0.7508	0.8495	0.0974	0.014
Mof_C 	C 	0.2087	0.886	0.9212	0.124
Mof_C 	C 	0.1193	0.9219	0.0012	-0.039
Mof_C 	C 	0.119	0.9614	0.9689	0.046
Mof_N 	N 	0.0711	0.5804	0.7558	-0.272
Mof_N 	N 	0.9446	0.6425	0.763	-0.282
Mof_N 	N 	0.2673	0.5615	0.7004	-0.285
Mof_N 	N 	0.3186	0.6469	0.6812	-0.283
Mof_N 	N 	0.0523	0.453	0.7825	-0.271
Mof_N 	N 	0.9713	0.3653	0.7482	-0.282
Mof_N 	N 	0.2805	0.4287	0.809	-0.278
Mof_N 	N 	0.3772	0.3547	0.8217	-0.275
Mof_N 	N 	0.188	0.4302	0.6746	-0.282
Mof_N 	N 	0.2241	0.3636	0.5835	-0.278
Mof_N 	N 	0.1681	0.5748	0.8798	-0.283
Mof_N 	N 	0.1649	0.6658	0.9503	-0.277
Mof_N 	N 	0.3766	0.5503	0.8126	-0.261
Mof_N 	N 	0.512	0.602	0.828	-0.206
Mof_N 	N 	0.684	0.7308	0.7586	-0.273
Mof_N 	N 	0.5301	0.7271	0.7287	-0.271
Mof_N 	N 	0.8605	0.7365	0.6771	-0.266
Mof_N 	N 	0.813	0.7417	0.5854	-0.271
Mof_N 	N 	0.9283	0.7796	0.8935	-0.279
Mof_N 	N 	0.0303	0.7778	0.9678	-0.276
Mof_N 	N 	0.7687	0.6852	0.8544	-0.253
Mof_N 	N 	0.7737	0.2744	0.7469	-0.28
Mof_N 	N 	0.6158	0.2614	0.7656	-0.268
Mof_N 	N 	0.9385	0.2382	0.8148	-0.263
Mof_N 	N 	0.8867	0.2255	0.9017	-0.28
Mof_N 	N 	0.0418	0.2184	0.6072	-0.262
Mof_N 	N 	0.155	0.23	0.5441	-0.265
Mof_N 	N 	0.8481	0.2893	0.6282	-0.256
Mof_N 	N 	0.8339	0.3465	0.5687	-0.211
Mof_N 	N 	0.3191	0.3729	0.4694	-0.256
Mof_N 	N 	0.3304	0.4392	0.4202	-0.213
Mof_N 	N 	0.7593	0.6497	0.9319	-0.204
Mof_N 	N 	0.5711	0.9196	0.7442	-0.272
Mof_N 	N 	0.4446	0.8575	0.737	-0.281
Mof_N 	N 	0.7673	0.9385	0.7996	-0.285
Mof_N 	N 	0.8186	0.8531	0.8188	-0.283
Mof_N 	N 	0.5523	0.047	0.7175	-0.272
Mof_N 	N 	0.4713	0.1347	0.7518	-0.281
Mof_N 	N 	0.7805	0.0713	0.691	-0.278
Mof_N 	N 	0.8772	0.1453	0.6783	-0.275
Mof_N 	N 	0.688	0.0698	0.8254	-0.282
Mof_N 	N 	0.7241	0.1364	0.9165	-0.277
Mof_N 	N 	0.6681	0.9252	0.6202	-0.283
Mof_N 	N 	0.6649	0.8342	0.5497	-0.278
Mof_N 	N 	0.8766	0.9497	0.6874	-0.261
Mof_N 	N 	0.012	0.898	0.672	-0.205
Mof_N 	N 	0.184	0.7692	0.7414	-0.273
Mof_N 	N 	0.0301	0.7729	0.7713	-0.27
Mof_N 	N 	0.3605	0.7635	0.8229	-0.266
Mof_N 	N 	0.313	0.7583	0.9146	-0.271
Mof_N 	N 	0.4283	0.7204	0.6065	-0.276
Mof_N 	N 	0.5303	0.7222	0.5322	-0.28
Mof_N 	N 	0.2687	0.8148	0.6456	-0.253
Mof_N 	N 	0.2737	0.2256	0.7531	-0.28
Mof_N 	N 	0.1158	0.2386	0.7344	-0.267
Mof_N 	N 	0.4385	0.2618	0.6852	-0.263
Mof_N 	N 	0.3867	0.2745	0.5983	-0.279
Mof_N 	N 	0.5418	0.2816	0.8928	-0.263
Mof_N 	N 	0.655	0.27	0.9559	-0.265
Mof_N 	N 	0.3481	0.2107	0.8718	-0.256
Mof_N 	N 	0.3339	0.1535	0.9313	-0.21
Mof_N 	N 	0.8191	0.1271	0.0306	-0.253
Mof_N 	N 	0.8304	0.0608	0.0798	-0.214
Mof_N 	N 	0.2593	0.8503	0.5681	-0.204
Mof_N 	N 	0.9289	0.4196	0.2442	-0.272
Mof_N 	N 	0.0554	0.3575	0.237	-0.282
Mof_N 	N 	0.7327	0.4385	0.2996	-0.285
Mof_N 	N 	0.6814	0.3531	0.3188	-0.283
Mof_N 	N 	0.9477	0.547	0.2175	-0.271
Mof_N 	N 	0.0287	0.6347	0.2518	-0.282
Mof_N 	N 	0.7195	0.5713	0.191	-0.278
Mof_N 	N 	0.6228	0.6453	0.1783	-0.275
Mof_N 	N 	0.812	0.5698	0.3254	-0.282
Mof_N 	N 	0.7759	0.6364	0.4165	-0.278
Mof_N 	N 	0.8319	0.4252	0.1202	-0.283
Mof_N 	N 	0.8351	0.3342	0.0497	-0.277
Mof_N 	N 	0.6234	0.4497	0.1874	-0.261
Mof_N 	N 	0.488	0.398	0.172	-0.206
Mof_N 	N 	0.316	0.2692	0.2414	-0.273
Mof_N 	N 	0.4699	0.2729	0.2713	-0.271
Mof_N 	N 	0.1395	0.2635	0.3229	-0.266
Mof_N 	N 	0.187	0.2583	0.4146	-0.271
Mof_N 	N 	0.0717	0.2204	0.1065	-0.279
Mof_N 	N 	0.9697	0.2222	0.0322	-0.276
Mof_N 	N 	0.2313	0.3148	0.1456	-0.253
Mof_N 	N 	0.2263	0.7256	0.2531	-0.28
Mof_N 	N 	0.3842	0.7386	0.2344	-0.268
Mof_N 	N 	0.0615	0.7618	0.1852	-0.263
Mof_N 	N 	0.1133	0.7745	0.0983	-0.28
Mof_N 	N 	0.9582	0.7816	0.3928	-0.262
Mof_N 	N 	0.845	0.77	0.4559	-0.265
Mof_N 	N 	0.1519	0.7107	0.3718	-0.256
Mof_N 	N 	0.1661	0.6535	0.4313	-0.211
Mof_N 	N 	0.6809	0.6271	0.5306	-0.256
Mof_N 	N 	0.6696	0.5608	0.5798	-0.213
Mof_N 	N 	0.2407	0.3503	0.0681	-0.204
Mof_N 	N 	0.4289	0.0804	0.2558	-0.272
Mof_N 	N 	0.5554	0.1425	0.263	-0.281
Mof_N 	N 	0.2327	0.0615	0.2004	-0.285
Mof_N 	N 	0.1814	0.1469	0.1812	-0.283
Mof_N 	N 	0.4477	0.953	0.2825	-0.272
Mof_N 	N 	0.5287	0.8653	0.2482	-0.281
Mof_N 	N 	0.2195	0.9287	0.309	-0.278
Mof_N 	N 	0.1228	0.8547	0.3217	-0.275
Mof_N 	N 	0.312	0.9302	0.1746	-0.282
Mof_N 	N 	0.2759	0.8636	0.0835	-0.277
Mof_N 	N 	0.3319	0.0748	0.3798	-0.283
Mof_N 	N 	0.3351	0.1658	0.4503	-0.278
Mof_N 	N 	0.1234	0.0503	0.3126	-0.261
Mof_N 	N 	0.988	0.102	0.328	-0.205
Mof_N 	N 	0.816	0.2308	0.2586	-0.273
Mof_N 	N 	0.9699	0.2271	0.2287	-0.27
Mof_N 	N 	0.6395	0.2365	0.1771	-0.266
Mof_N 	N 	0.687	0.2417	0.0854	-0.271
Mof_N 	N 	0.5717	0.2796	0.3935	-0.276
Mof_N 	N 	0.4697	0.2778	0.4678	-0.28
Mof_N 	N 	0.7313	0.1852	0.3544	-0.253
Mof_N 	N 	0.7263	0.7744	0.2469	-0.28
Mof_N 	N 	0.8842	0.7614	0.2656	-0.267
Mof_N 	N 	0.5615	0.7382	0.3148	-0.263
Mof_N 	N 	0.6133	0.7255	0.4017	-0.279
Mof_N 	N 	0.4582	0.7184	0.1072	-0.263
Mof_N 	N 	0.345	0.73	0.0441	-0.265
Mof_N 	N 	0.6519	0.7893	0.1282	-0.256
Mof_N 	N 	0.6661	0.8465	0.0687	-0.21
Mof_N 	N 	0.1809	0.8729	0.9694	-0.253
Mof_N 	N 	0.1696	0.9392	0.9202	-0.214
Mof_N 	N 	0.7407	0.1497	0.4319	-0.204
_end
