# CIF file generated by openbabel 3.1.0, see https://openbabel.org
data_I
_chemical_name_common 'MIDSUP01_clean'
_cell_length_a 9.4344
_cell_length_b 18.5174
_cell_length_c 18.5174
_cell_angle_alpha 90
_cell_angle_beta 90
_cell_angle_gamma 90
_space_group_name_H-M_alt 'P 1'
_space_group_name_Hall 'P 1'
loop_
    _symmetry_equiv_pos_as_xyz
    x,y,z
loop_
    _atom_site_label
    _atom_site_type_symbol
    _atom_site_fract_x
    _atom_site_fract_y
    _atom_site_fract_z
    _atom_site_occupancy
    Ni1      Ni       0.69220    0.24837    0.25249    1.000
    Ni2      Ni       0.43385    0.24733    0.25340    1.000
    Ni3      Ni       0.30820    0.74858    0.75257    1.000
    Ni4      Ni       0.56681    0.74717    0.75350    1.000
    H1       H        0.19050    0.49821    0.48973    1.000
    H2       H        0.81151    0.99947    0.51780    1.000
    H3       H        0.18377    0.21654    0.13928    1.000
    H4       H        0.33129    0.09231    0.09449    1.000
    H5       H        0.79578    0.39914    0.09207    1.000
    H6       H        0.05306    0.83243    0.67281    1.000
    H7       H        0.05683    0.77209    0.86380    1.000
    H8       H        0.05906    0.63615    0.71584    1.000
    H9       H        0.19763    0.00101    0.49233    1.000
    H10      H        0.80349    0.09956    0.41698    1.000
    H11      H        0.79730    0.79414    0.85797    1.000
    H12      H        0.81699    0.71528    0.63918    1.000
    H13      H        0.19013    0.49934    0.01816    1.000
    H14      H        0.91958    0.14960    0.31471    1.000
    H15      H        0.20620    0.89927    0.59278    1.000
    H16      H        0.79448    0.81416    0.65677    1.000
    H17      H        0.20279    0.29321    0.35894    1.000
    H18      H        0.81761    0.85812    0.78023    1.000
    H19      H        0.32631    0.41412    0.10370    1.000
    H20      H        0.33335    0.08687    0.40763    1.000
    H21      H        0.19760    0.59966    0.91754    1.000
    H22      H        0.20380    0.12961    0.23931    1.000
    H23      H        0.92121    0.24134    0.13387    1.000
    H24      H        0.80456    0.50491    0.51116    1.000
    H25      H        0.81001    0.99797    0.99016    1.000
    H26      H        0.82198    0.66471    0.83372    1.000
    H27      H        0.17821    0.16441    0.33354    1.000
    H28      H        0.19565    0.00483    0.01098    1.000
    H29      H        0.80381    0.50087    0.99202    1.000
    H30      H        0.80139    0.09729    0.09248    1.000
    H31      H        0.67350    0.90897    0.90757    1.000
    H32      H        0.18324    0.35802    0.28186    1.000
    H33      H        0.79673    0.62933    0.73970    1.000
    H34      H        0.66871    0.59232    0.59475    1.000
    H35      H        0.20585    0.31529    0.15785    1.000
    H36      H        0.94175    0.13670    0.21514    1.000
    H37      H        0.20153    0.90356    0.91107    1.000
    H38      H        0.07709    0.85197    0.80237    1.000
    H39      H        0.67585    0.91457    0.60381    1.000
    H40      H        0.94737    0.33331    0.17384    1.000
    H41      H        0.66780    0.58701    0.90764    1.000
    H42      H        0.79900    0.40379    0.41124    1.000
    H43      H        0.94283    0.27174    0.36428    1.000
    H44      H        0.08072    0.65001    0.81530    1.000
    H45      H        0.32719    0.40950    0.40700    1.000
    H46      H        0.92359    0.35189    0.30312    1.000
    H47      H        0.19861    0.59720    0.59253    1.000
    H48      H        0.07953    0.74011    0.63375    1.000
    C1       C        0.43449    0.06922    0.06977    1.000
    C2       C        0.02008    0.79683    0.80922    1.000
    C3       C        0.70207    0.07256    0.43925    1.000
    C4       C        0.70335    0.01847    0.01342    1.000
    C5       C        0.97880    0.17095    0.26413    1.000
    C6       C        0.14436    0.17251    0.27391    1.000
    C7       C        0.01930    0.77248    0.67805    1.000
    C8       C        0.43577    0.65306    0.85027    1.000
    C9       C        0.85608    0.67246    0.77407    1.000
    C10      C        0.29645    0.51934    0.99410    1.000
    C11      C        0.02169    0.67083    0.76446    1.000
    C12      C        0.56196    0.34455    0.34858    1.000
    C13      C        0.56213    0.40326    0.40580    1.000
    C14      C        0.98118    0.27329    0.17856    1.000
    C15      C        0.14675    0.26354    0.17630    1.000
    C16      C        0.70503    0.01938    0.49386    1.000
    C17      C        0.42883    0.48831    0.02095    1.000
    C18      C        0.29985    0.57180    0.56800    1.000
    C19      C        0.57186    0.93430    0.57727    1.000
    C20      C        0.42992    0.43412    0.07710    1.000
    C21      C        0.56951    0.93178    0.93153    1.000
    C22      C        0.56086    0.34505    0.15813    1.000
    C23      C        0.56514    0.09701    0.09633    1.000
    C24      C        0.69782    0.48137    0.01680    1.000
    C25      C        0.44024    0.84517    0.65829    1.000
    C26      C        0.56514    0.15301    0.35014    1.000
    C27      C        0.43383    0.59642    0.90943    1.000
    C28      C        0.85464    0.80280    0.80318    1.000
    C29      C        0.57273    0.98844    0.52101    1.000
    C30      C        0.14574    0.30252    0.30417    1.000
    C31      C        0.85377    0.76267    0.67574    1.000
    C32      C        0.42968    0.48820    0.48560    1.000
    C33      C        0.56737    0.09615    0.40905    1.000
    C34      C        0.43610    0.01290    0.49067    1.000
    C35      C        0.56438    0.56690    0.93444    1.000
    C36      C        0.43713    0.65357    0.65554    1.000
    C37      C        0.69879    0.48382    0.48747    1.000
    C38      C        0.44120    0.90401    0.60131    1.000
    C39      C        0.56058    0.40389    0.10115    1.000
    C40      C        0.56559    0.56933    0.56990    1.000
    C41      C        0.98022    0.29666    0.30989    1.000
    C42      C        0.30364    0.98155    0.51711    1.000
    C43      C        0.69508    0.42748    0.07069    1.000
    C44      C        0.56291    0.15335    0.15558    1.000
    C45      C        0.30659    0.92764    0.57102    1.000
    C46      C        0.57074    0.98792    0.98585    1.000
    C47      C        0.30374    0.92917    0.93411    1.000
    C48      C        0.43394    0.01401    0.01468    1.000
    C49      C        0.43837    0.84418    0.84888    1.000
    C50      C        0.30144    0.98364    0.98741    1.000
    C51      C        0.29705    0.51869    0.51321    1.000
    C52      C        0.43848    0.90279    0.90616    1.000
    C53      C        0.70030    0.07171    0.06806    1.000
    C54      C        0.29925    0.57281    0.93977    1.000
    C55      C        0.69671    0.42948    0.43401    1.000
    C56      C        0.43108    0.43224    0.43107    1.000
    C57      C        0.43690    0.06668    0.43423    1.000
    C58      C        0.56536    0.51287    0.99064    1.000
    C59      C        0.43484    0.59717    0.59636    1.000
    C60      C        0.56623    0.51420    0.51471    1.000
    N1       N        0.07807    0.74704    0.75060    1.000
    N2       N        0.92237    0.24719    0.25085    1.000
    N3       N        0.20337    0.24605    0.25172    1.000
    N4       N        0.79709    0.74583    0.75130    1.000
    O1       O        0.68685    0.16644    0.18717    1.000
    O2       O        0.44082    0.16458    0.31835    1.000
    O3       O        0.43796    0.18352    0.17006    1.000
    O4       O        0.56229    0.68343    0.67015    1.000
    O5       O        0.68815    0.18568    0.33658    1.000
    O6       O        0.56111    0.81105    0.83673    1.000
    O7       O        0.31305    0.66696    0.68695    1.000
    O8       O        0.31272    0.68549    0.83650    1.000
    O9       O        0.43790    0.33163    0.19081    1.000
    O10      O        0.68519    0.33172    0.31609    1.000
    O11      O        0.68461    0.31256    0.16940    1.000
    O12      O        0.56006    0.66458    0.81843    1.000
    O13      O        0.43886    0.31169    0.33649    1.000
    O14      O        0.31512    0.83189    0.81622    1.000
    O15      O        0.31612    0.81303    0.66958    1.000
    O16      O        0.56315    0.83148    0.69094    1.000
