data_functionalizedCrystal
_audit_creation_method	'EQeq! by Chris Wilmer'
_symmetry_space_group_name_H-M	'P1'
_symmetry_Int_Tables_number	1
_symmetry_cell_setting	triclinic
loop_
_symmetry_equiv_pos_as_xyz
  x,y,z
_cell_length_a	17.4941
_cell_length_b	32.393
_cell_length_c	10.0749
_cell_angle_alpha	90
_cell_angle_beta	90
_cell_angle_gamma	90
loop_
_atom_site_label
_atom_site_type_symbol
_atom_site_fract_x
_atom_site_fract_y
_atom_site_fract_z
_atom_site_charge
Mof_Ga	Ga	0.42596	0.92055	0.06059	3.949
Mof_Ga	Ga	0.48608	0.0256	0.03538	4.028
Mof_Ga	Ga	0.15986	0.9925	0.87555	4.204
Mof_Ga	Ga	0.34307	0.5061	0.59414	4.105
Mof_Ga	Ga	0.0802	0.58125	0.41799	4.118
Mof_Ga	Ga	0.01609	0.47561	0.44141	4.255
Mof_Ga	Ga	0.34114	0.66766	0.59885	4.062
Mof_Ga	Ga	0.15626	0.82191	0.87423	3.423
Mof_Ga	Ga	0.30031	0.75887	0.92093	3.839
Mof_P 	P 	0.3131	0.99637	0.0605	0.988
Mof_P 	P 	0.5214	0.95334	0.8344	0.964
Mof_P 	P 	0.0679	0.90707	0.8544	0.994
Mof_P 	P 	0.9814	0.54812	0.6413	0.939
Mof_P 	P 	0.1886	0.50369	0.4089	1.062
Mof_P 	P 	0.437	0.59057	0.6258	0.958
Mof_P 	P 	0.35025	0.75867	0.6146	0.871
Mof_P 	P 	0.3185	0.84055	0.0473	0.828
Mof_P 	P 	0.3098	0.66274	0.9115	1.075
Mof_O 	O 	0.3671	0.5614	0.6382	-1.229
Mof_O 	O 	0.1343	0.9377	0.8343	-1.228
Mof_O 	O 	0.1277	0.4724	0.4406	-1.028
Mof_O 	O 	0.3602	0.7712	0.7598	-0.913
Mof_O 	O 	0.023	0.5082	0.6025	-1.127
Mof_O 	O 	0.2086	0.7702	0.8265	-1.407
Mof_O 	O 	0.3757	0.0295	0.0372	-1.018
Mof_O 	O 	0.4805	0.993	0.8753	-1.068
Mof_O 	O 	0.2648	0.7511	0.585	-1.001
Mof_O 	O 	0.2441	0.8435	0.9689	-0.922
Mof_O 	O 	0.2587	0.4924	0.4953	-1.069
Mof_O 	O 	0.3416	0.7056	0.9411	-1.106
Mof_O 	O 	0.2467	0.007	0.9706	-1.012
Mof_O 	O 	0.0007	0.9254	0.9291	-0.937
Mof_O 	O 	0.3548	0.7972	0.0262	-1.065
Mof_O 	O 	0.5067	0.5727	0.5562	-0.973
Mof_O 	O 	0.4956	0.9169	0.9227	-0.987
Mof_O 	O 	0.012	0.5857	0.5595	-1.045
Mof_O 	O 	0.6082	0.9582	0.848	-1.113
Mof_O 	O 	0.3393	0.952	0.0249	-1.163
Mof_O 	O 	0.1663	0.5488	0.4488	-1.176
Mof_O 	O 	0.895	0.5439	0.6162	-1.094
Mof_O 	O 	0.2978	0.6554	0.7589	-1.241
Mof_O 	O 	0.5001	0.9414	0.6924	-0.966
Mof_O 	O 	0.2839	0.9971	0.2056	-0.975
Mof_O 	O 	0.2123	0.5024	0.2617	-1.005
Mof_O 	O 	0.3053	0.8468	0.1961	-0.828
Mof_O 	O 	0.4576	0.6058	0.7663	-1.152
Mof_O 	O 	0.9962	0.5586	0.7885	-1.002
Mof_O 	O 	0.4118	0.6293	0.5429	-1.093
Mof_O 	O 	0.0411	0.8929	0.7121	-1.115
Mof_O 	O 	0.0962	0.8682	0.9255	-0.897
Mof_O 	O 	0.3752	0.8722	0.9921	-0.885
Mof_O 	O 	0.3636	0.6309	0.9729	-1.017
Mof_O 	O 	0.3872	0.7919	0.5263	-0.839
Mof_O 	O 	0.2284	0.6584	0.9676	-1.158
Mof_O 	O 	0.3923	0.7166	0.591	-1.158
Mof_F 	F 	0.6003	0.0159	0.0416	-1.364
Mof_F 	F 	0.0258	0.5295	0.3494	-1.393
Mof_F 	F 	0.4776	0.9717	0.1313	-1.374
Mof_F 	F 	0.404	0.5152	0.429	-1.366
Mof_Ga	Ga	0.57404	0.07945	0.56059	4.219
Mof_Ga	Ga	0.51392	0.9744	0.53538	4.255
Mof_Ga	Ga	0.84014	0.0075	0.37555	4.106
Mof_Ga	Ga	0.65693	0.4939	0.09414	3.942
Mof_Ga	Ga	0.9198	0.41875	0.91799	4.22
Mof_Ga	Ga	0.98391	0.52439	0.94141	4.412
Mof_Ga	Ga	0.65886	0.33234	0.09885	3.934
Mof_Ga	Ga	0.84374	0.17809	0.37423	3.322
Mof_Ga	Ga	0.69969	0.24113	0.42093	3.656
Mof_P 	P 	0.6869	0.00363	0.5605	1.053
Mof_P 	P 	0.4786	0.04666	0.3344	0.97
Mof_P 	P 	0.9321	0.09293	0.3544	0.989
Mof_P 	P 	0.0186	0.45188	0.1413	0.927
Mof_P 	P 	0.8114	0.49631	0.9089	1.066
Mof_P 	P 	0.563	0.40943	0.1258	0.952
Mof_P 	P 	0.64975	0.24133	0.1146	0.87
Mof_P 	P 	0.6815	0.15945	0.5473	0.929
Mof_P 	P 	0.6902	0.33726	0.4115	1.069
Mof_O 	O 	0.6329	0.4386	0.1382	-1.21
Mof_O 	O 	0.8657	0.0623	0.3343	-1.217
Mof_O 	O 	0.8723	0.5276	0.9406	-1.036
Mof_O 	O 	0.6398	0.2288	0.2598	-0.898
Mof_O 	O 	0.977	0.4918	0.1025	-1.165
Mof_O 	O 	0.7914	0.2298	0.3265	-1.382
Mof_O 	O 	0.6243	0.9705	0.5372	-1.034
Mof_O 	O 	0.5195	0.007	0.3753	-1.142
Mof_O 	O 	0.7352	0.2489	0.085	-1.048
Mof_O 	O 	0.7559	0.1565	0.4689	-0.964
Mof_O 	O 	0.7413	0.5076	0.9953	-1.01
Mof_O 	O 	0.6584	0.2944	0.4411	-1.092
Mof_O 	O 	0.7533	0.993	0.4706	-1.06
Mof_O 	O 	0.9993	0.0746	0.4291	-1.004
Mof_O 	O 	0.6452	0.2028	0.5262	-1.008
Mof_O 	O 	0.4933	0.4273	0.0562	-1.021
Mof_O 	O 	0.5044	0.0831	0.4227	-1.077
Mof_O 	O 	0.988	0.4143	0.0595	-1.093
Mof_O 	O 	0.3918	0.0418	0.348	-1.114
Mof_O 	O 	0.6607	0.048	0.5249	-1.187
Mof_O 	O 	0.8337	0.4512	0.9488	-1.181
Mof_O 	O 	0.105	0.4561	0.1162	-1.083
Mof_O 	O 	0.7022	0.3446	0.2589	-1.223
Mof_O 	O 	0.4999	0.0586	0.1924	-0.948
Mof_O 	O 	0.7161	0.0029	0.7056	-0.986
Mof_O 	O 	0.7877	0.4976	0.7617	-1.02
Mof_O 	O 	0.6947	0.1532	0.6961	-0.847
Mof_O 	O 	0.5424	0.3942	0.2663	-1.139
Mof_O 	O 	0.0038	0.4414	0.2885	-0.991
Mof_O 	O 	0.5882	0.3707	0.0429	-1.088
Mof_O 	O 	0.9589	0.1071	0.2121	-1.083
Mof_O 	O 	0.9038	0.1318	0.4255	-0.904
Mof_O 	O 	0.6248	0.1278	0.4921	-1.006
Mof_O 	O 	0.6364	0.3691	0.4729	-1.018
Mof_O 	O 	0.6128	0.2081	0.0263	-0.896
Mof_O 	O 	0.7716	0.3416	0.4676	-1.215
Mof_O 	O 	0.6077	0.2834	0.091	-1.148
Mof_F 	F 	0.3997	0.9841	0.5416	-1.334
Mof_F 	F 	0.9742	0.4705	0.8494	-1.412
Mof_F 	F 	0.5224	0.0283	0.6313	-1.417
Mof_F 	F 	0.596	0.4848	0.929	-1.34
Mof_Ga	Ga	0.92596	0.07945	0.06059	3.955
Mof_Ga	Ga	0.98608	0.9744	0.03538	4.034
Mof_Ga	Ga	0.65986	0.0075	0.87555	4.204
Mof_Ga	Ga	0.84307	0.4939	0.59414	4.107
Mof_Ga	Ga	0.5802	0.41875	0.41799	4.119
Mof_Ga	Ga	0.51609	0.52439	0.44141	4.261
Mof_Ga	Ga	0.84114	0.33234	0.59885	4.062
Mof_Ga	Ga	0.65626	0.17809	0.87423	3.423
Mof_Ga	Ga	0.80031	0.24113	0.92093	3.835
Mof_P 	P 	0.8131	0.00363	0.0605	0.99
Mof_P 	P 	0.0214	0.04666	0.8344	0.959
Mof_P 	P 	0.5679	0.09293	0.8544	0.993
Mof_P 	P 	0.4814	0.45188	0.6413	0.935
Mof_P 	P 	0.6886	0.49631	0.4089	1.062
Mof_P 	P 	0.937	0.40943	0.6258	0.96
Mof_P 	P 	0.85025	0.24133	0.6146	0.871
Mof_P 	P 	0.8185	0.15945	0.0473	0.83
Mof_P 	P 	0.8098	0.33726	0.9115	1.075
Mof_O 	O 	0.8671	0.4386	0.6382	-1.23
Mof_O 	O 	0.6343	0.0623	0.8343	-1.228
Mof_O 	O 	0.6277	0.5276	0.4406	-1.029
Mof_O 	O 	0.8602	0.2288	0.7598	-0.912
Mof_O 	O 	0.523	0.4918	0.6025	-1.125
Mof_O 	O 	0.7086	0.2298	0.8265	-1.406
Mof_O 	O 	0.8757	0.9705	0.0372	-1.018
Mof_O 	O 	0.9805	0.007	0.8753	-1.067
Mof_O 	O 	0.7648	0.2489	0.585	-1.001
Mof_O 	O 	0.7441	0.1565	0.9689	-0.923
Mof_O 	O 	0.7587	0.5076	0.4953	-1.069
Mof_O 	O 	0.8416	0.2944	0.9411	-1.105
Mof_O 	O 	0.7467	0.993	0.9706	-1.013
Mof_O 	O 	0.5007	0.0746	0.9291	-0.935
Mof_O 	O 	0.8548	0.2028	0.0262	-1.063
Mof_O 	O 	0.0067	0.4273	0.5562	-0.975
Mof_O 	O 	0.9956	0.0831	0.9227	-0.987
Mof_O 	O 	0.512	0.4143	0.5595	-1.043
Mof_O 	O 	0.1082	0.0418	0.848	-1.114
Mof_O 	O 	0.8393	0.048	0.0249	-1.164
Mof_O 	O 	0.6663	0.4512	0.4488	-1.176
Mof_O 	O 	0.395	0.4561	0.6162	-1.095
Mof_O 	O 	0.7978	0.3446	0.7589	-1.241
Mof_O 	O 	0.0001	0.0586	0.6924	-0.966
Mof_O 	O 	0.7839	0.0029	0.2056	-0.975
Mof_O 	O 	0.7123	0.4976	0.2617	-1.005
Mof_O 	O 	0.8053	0.1532	0.1961	-0.828
Mof_O 	O 	0.9576	0.3942	0.7663	-1.152
Mof_O 	O 	0.4962	0.4414	0.7885	-1.003
Mof_O 	O 	0.9118	0.3707	0.5429	-1.093
Mof_O 	O 	0.5411	0.1071	0.7121	-1.114
Mof_O 	O 	0.5962	0.1318	0.9255	-0.896
Mof_O 	O 	0.8752	0.1278	0.9921	-0.888
Mof_O 	O 	0.8636	0.3691	0.9729	-1.016
Mof_O 	O 	0.8872	0.2081	0.5263	-0.839
Mof_O 	O 	0.7284	0.3416	0.9676	-1.159
Mof_O 	O 	0.8923	0.2834	0.591	-1.157
Mof_F 	F 	0.1003	0.9841	0.0416	-1.366
Mof_F 	F 	0.5258	0.4705	0.3494	-1.393
Mof_F 	F 	0.9776	0.0283	0.1313	-1.374
Mof_F 	F 	0.904	0.4848	0.429	-1.364
Mof_Ga	Ga	0.07404	0.92055	0.56059	4.219
Mof_Ga	Ga	0.01392	0.0256	0.53538	4.239
Mof_Ga	Ga	0.34014	0.9925	0.37555	4.102
Mof_Ga	Ga	0.15693	0.5061	0.09414	3.936
Mof_Ga	Ga	0.4198	0.58125	0.91799	4.225
Mof_Ga	Ga	0.48391	0.47561	0.94141	4.417
Mof_Ga	Ga	0.15886	0.66766	0.09885	3.93
Mof_Ga	Ga	0.34374	0.82191	0.37423	3.321
Mof_Ga	Ga	0.19969	0.75887	0.42093	3.656
Mof_P 	P 	0.1869	0.99637	0.5605	1.053
Mof_P 	P 	0.9786	0.95334	0.3344	0.972
Mof_P 	P 	0.4321	0.90707	0.3544	0.989
Mof_P 	P 	0.5186	0.54812	0.1413	0.934
Mof_P 	P 	0.3114	0.50369	0.9089	1.066
Mof_P 	P 	0.063	0.59057	0.1258	0.949
Mof_P 	P 	0.14975	0.75867	0.1146	0.87
Mof_P 	P 	0.1815	0.84055	0.5473	0.928
Mof_P 	P 	0.1902	0.66274	0.4115	1.069
Mof_O 	O 	0.1329	0.5614	0.1382	-1.209
Mof_O 	O 	0.3657	0.9377	0.3343	-1.217
Mof_O 	O 	0.3723	0.4724	0.9406	-1.037
Mof_O 	O 	0.1398	0.7712	0.2598	-0.898
Mof_O 	O 	0.477	0.5082	0.1025	-1.171
Mof_O 	O 	0.2914	0.7702	0.3265	-1.382
Mof_O 	O 	0.1243	0.0295	0.5372	-1.032
Mof_O 	O 	0.0195	0.993	0.3753	-1.142
Mof_O 	O 	0.2352	0.7511	0.085	-1.05
Mof_O 	O 	0.2559	0.8435	0.4689	-0.964
Mof_O 	O 	0.2413	0.4924	0.9953	-1.008
Mof_O 	O 	0.1584	0.7056	0.4411	-1.092
Mof_O 	O 	0.2533	0.007	0.4706	-1.059
Mof_O 	O 	0.4993	0.9254	0.4291	-1.009
Mof_O 	O 	0.1452	0.7972	0.5262	-1.008
Mof_O 	O 	0.9933	0.5727	0.0562	-1.016
Mof_O 	O 	0.0044	0.9169	0.4227	-1.078
Mof_O 	O 	0.488	0.5857	0.0595	-1.098
Mof_O 	O 	0.8918	0.9582	0.348	-1.114
Mof_O 	O 	0.1607	0.952	0.5249	-1.187
Mof_O 	O 	0.3337	0.5488	0.9488	-1.181
Mof_O 	O 	0.605	0.5439	0.1162	-1.083
Mof_O 	O 	0.2022	0.6554	0.2589	-1.222
Mof_O 	O 	0.9999	0.9414	0.1924	-0.948
Mof_O 	O 	0.2161	0.9971	0.7056	-0.986
Mof_O 	O 	0.2877	0.5024	0.7617	-1.02
Mof_O 	O 	0.1947	0.8468	0.6961	-0.847
Mof_O 	O 	0.0424	0.6058	0.2663	-1.139
Mof_O 	O 	0.5038	0.5586	0.2885	-0.991
Mof_O 	O 	0.0882	0.6293	0.0429	-1.088
Mof_O 	O 	0.4589	0.8929	0.2121	-1.082
Mof_O 	O 	0.4038	0.8682	0.4255	-0.905
Mof_O 	O 	0.1248	0.8722	0.4921	-1.006
Mof_O 	O 	0.1364	0.6309	0.4729	-1.018
Mof_O 	O 	0.1128	0.7919	0.0263	-0.897
Mof_O 	O 	0.2716	0.6584	0.4676	-1.215
Mof_O 	O 	0.1077	0.7166	0.091	-1.148
Mof_F 	F 	0.8997	0.0159	0.5416	-1.331
Mof_F 	F 	0.4742	0.5295	0.8494	-1.414
Mof_F 	F 	0.0224	0.9717	0.6313	-1.415
Mof_F 	F 	0.096	0.5152	0.929	-1.339
_end
