# CIF file generated by openbabel 3.1.0, see https://openbabel.org
data_I
_chemical_name_common 'FEVSAC_clean'
_cell_length_a 10.2403
_cell_length_b 20.417
_cell_length_c 21.7334
_cell_angle_alpha 90
_cell_angle_beta 90
_cell_angle_gamma 95.301
_space_group_name_H-M_alt 'P 1'
_space_group_name_Hall 'P 1'
loop_
    _symmetry_equiv_pos_as_xyz
    x,y,z
loop_
    _atom_site_label
    _atom_site_type_symbol
    _atom_site_fract_x
    _atom_site_fract_y
    _atom_site_fract_z
    _atom_site_occupancy
    Rb1      Rb       0.36772    0.64834    0.88253    1.000
    Rb2      Rb       0.42993    0.03580    0.90319    1.000
    Rb3      Rb       0.37725    0.14114    0.63603    1.000
    Rb4      Rb       0.13228    0.85166    0.38253    1.000
    Rb5      Rb       0.07007    0.46420    0.40319    1.000
    Rb6      Rb       0.12275    0.35886    0.13603    1.000
    Rb7      Rb       0.63228    0.35166    0.11747    1.000
    Rb8      Rb       0.57007    0.96420    0.09681    1.000
    Rb9      Rb       0.62275    0.85886    0.36397    1.000
    Rb10     Rb       0.86772    0.14834    0.61747    1.000
    Rb11     Rb       0.92993    0.53580    0.59681    1.000
    Rb12     Rb       0.87725    0.64114    0.86397    1.000
    H1       H        0.11860    0.92040    0.06860    1.000
    H2       H        0.05750    0.98750    0.07630    1.000
    H3       H        0.18420    0.97430    0.11300    1.000
    H4       H        0.38140    0.57960    0.56860    1.000
    H5       H        0.44250    0.51250    0.57630    1.000
    H6       H        0.31580    0.52570    0.61300    1.000
    H7       H        0.88140    0.07960    0.93140    1.000
    H8       H        0.94250    0.01250    0.92370    1.000
    H9       H        0.81580    0.02570    0.88700    1.000
    H10      H        0.61860    0.42040    0.43140    1.000
    H11      H        0.55750    0.48750    0.42370    1.000
    H12      H        0.68420    0.47430    0.38700    1.000
    C1       C        0.22180    0.90076    0.78507    1.000
    C2       C        0.24320    0.94713    0.65032    1.000
    C3       C        0.19860    0.82496    0.56689    1.000
    C4       C        0.14570    0.70322    0.65009    1.000
    C5       C        0.15640    0.74978    0.78538    1.000
    C6       C        0.20310    0.85976    0.73193    1.000
    C7       C        0.21410    0.88092    0.66997    1.000
    C8       C        0.19510    0.82503    0.63250    1.000
    C9       C        0.17150    0.76941    0.67031    1.000
    C10      C        0.17580    0.79081    0.73162    1.000
    C11      C        0.56970    0.93341    0.77068    1.000
    C12      C        0.59730    0.99729    0.64463    1.000
    C13      C        0.55220    0.88706    0.54547    1.000
    C14      C        0.49280    0.75548    0.61368    1.000
    C15      C        0.50250    0.78280    0.75177    1.000
    C16      C        0.55500    0.89911    0.71361    1.000
    C17      C        0.56750    0.92892    0.65482    1.000
    C18      C        0.54720    0.87941    0.61046    1.000
    C19      C        0.52150    0.81867    0.64102    1.000
    C20      C        0.52600    0.83149    0.70509    1.000
    C21      C        0.13780    0.96680    0.07486    1.000
    C22      C        0.34210    0.27090    0.78339    1.000
    C23      C        0.39410    0.42120    0.78718    1.000
    C24      C        0.40410    0.46473    0.92219    1.000
    C25      C        0.36660    0.33817    0.00390    1.000
    C26      C        0.32840    0.21918    0.91702    1.000
    C27      C        0.35640    0.30947    0.83798    1.000
    C28      C        0.37990    0.37852    0.83965    1.000
    C29      C        0.38720    0.39833    0.90196    1.000
    C30      C        0.36800    0.34098    0.93826    1.000
    C31      C        0.34920    0.28630    0.89917    1.000
    C32      C        0.27820    0.59924    0.28507    1.000
    C33      C        0.25680    0.55287    0.15032    1.000
    C34      C        0.30140    0.67504    0.06689    1.000
    C35      C        0.35430    0.79678    0.15009    1.000
    C36      C        0.34360    0.75022    0.28538    1.000
    C37      C        0.29690    0.64024    0.23193    1.000
    C38      C        0.28590    0.61908    0.16997    1.000
    C39      C        0.30490    0.67497    0.13250    1.000
    C40      C        0.32850    0.73059    0.17031    1.000
    C41      C        0.32420    0.70919    0.23162    1.000
    C42      C        0.93030    0.56659    0.27068    1.000
    C43      C        0.90270    0.50271    0.14463    1.000
    C44      C        0.94780    0.61294    0.04547    1.000
    C45      C        0.00720    0.74452    0.11368    1.000
    C46      C        0.99750    0.71720    0.25177    1.000
    C47      C        0.94500    0.60089    0.21361    1.000
    C48      C        0.93250    0.57108    0.15482    1.000
    C49      C        0.95280    0.62059    0.11046    1.000
    C50      C        0.97850    0.68133    0.14102    1.000
    C51      C        0.97400    0.66851    0.20509    1.000
    C52      C        0.36220    0.53320    0.57486    1.000
    C53      C        0.15790    0.22910    0.28339    1.000
    C54      C        0.10590    0.07880    0.28718    1.000
    C55      C        0.09590    0.03527    0.42219    1.000
    C56      C        0.13340    0.16183    0.50390    1.000
    C57      C        0.17160    0.28082    0.41702    1.000
    C58      C        0.14360    0.19053    0.33798    1.000
    C59      C        0.12010    0.12148    0.33965    1.000
    C60      C        0.11280    0.10167    0.40196    1.000
    C61      C        0.13200    0.15902    0.43826    1.000
    C62      C        0.15080    0.21370    0.39917    1.000
    C63      C        0.77820    0.09924    0.21493    1.000
    C64      C        0.75680    0.05287    0.34968    1.000
    C65      C        0.80140    0.17504    0.43311    1.000
    C66      C        0.85430    0.29678    0.34991    1.000
    C67      C        0.84360    0.25022    0.21462    1.000
    C68      C        0.79690    0.14024    0.26807    1.000
    C69      C        0.78590    0.11908    0.33003    1.000
    C70      C        0.80490    0.17497    0.36750    1.000
    C71      C        0.82850    0.23059    0.32969    1.000
    C72      C        0.82420    0.20919    0.26838    1.000
    C73      C        0.43030    0.06659    0.22932    1.000
    C74      C        0.40270    0.00271    0.35537    1.000
    C75      C        0.44780    0.11294    0.45453    1.000
    C76      C        0.50720    0.24452    0.38632    1.000
    C77      C        0.49750    0.21720    0.24823    1.000
    C78      C        0.44500    0.10089    0.28639    1.000
    C79      C        0.43250    0.07108    0.34518    1.000
    C80      C        0.45280    0.12059    0.38954    1.000
    C81      C        0.47850    0.18133    0.35898    1.000
    C82      C        0.47400    0.16851    0.29491    1.000
    C83      C        0.86220    0.03320    0.92514    1.000
    C84      C        0.65790    0.72910    0.21661    1.000
    C85      C        0.60590    0.57880    0.21282    1.000
    C86      C        0.59590    0.53527    0.07781    1.000
    C87      C        0.63340    0.66183    0.99610    1.000
    C88      C        0.67160    0.78082    0.08298    1.000
    C89      C        0.64360    0.69053    0.16202    1.000
    C90      C        0.62010    0.62148    0.16035    1.000
    C91      C        0.61280    0.60167    0.09804    1.000
    C92      C        0.63200    0.65902    0.06174    1.000
    C93      C        0.65080    0.71370    0.10083    1.000
    C94      C        0.72180    0.40076    0.71493    1.000
    C95      C        0.74320    0.44713    0.84968    1.000
    C96      C        0.69860    0.32496    0.93311    1.000
    C97      C        0.64570    0.20322    0.84991    1.000
    C98      C        0.65640    0.24978    0.71462    1.000
    C99      C        0.70310    0.35976    0.76807    1.000
    C100     C        0.71410    0.38092    0.83003    1.000
    C101     C        0.69510    0.32503    0.86750    1.000
    C102     C        0.67150    0.26941    0.82969    1.000
    C103     C        0.67580    0.29081    0.76838    1.000
    C104     C        0.06970    0.43341    0.72932    1.000
    C105     C        0.09730    0.49729    0.85537    1.000
    C106     C        0.05220    0.38706    0.95453    1.000
    C107     C        0.99280    0.25548    0.88632    1.000
    C108     C        0.00250    0.28280    0.74823    1.000
    C109     C        0.05500    0.39911    0.78639    1.000
    C110     C        0.06750    0.42892    0.84518    1.000
    C111     C        0.04720    0.37941    0.88954    1.000
    C112     C        0.02150    0.31867    0.85898    1.000
    C113     C        0.02600    0.33149    0.79491    1.000
    C114     C        0.63780    0.46680    0.42514    1.000
    C115     C        0.84210    0.77090    0.71661    1.000
    C116     C        0.89410    0.92120    0.71282    1.000
    C117     C        0.90410    0.96473    0.57781    1.000
    C118     C        0.86660    0.83817    0.49610    1.000
    C119     C        0.82840    0.71918    0.58298    1.000
    C120     C        0.85640    0.80947    0.66202    1.000
    C121     C        0.87990    0.87852    0.66035    1.000
    C122     C        0.88720    0.89833    0.59804    1.000
    C123     C        0.86800    0.84098    0.56174    1.000
    C124     C        0.84920    0.78630    0.60083    1.000
    N1       N        0.23930    0.93353    0.82750    1.000
    N2       N        0.26700    0.99986    0.63481    1.000
    N3       N        0.20170    0.82461    0.51434    1.000
    N4       N        0.12420    0.64990    0.63320    1.000
    N5       N        0.14140    0.71806    0.82809    1.000
    N6       N        0.58090    0.96129    0.81600    1.000
    N7       N        0.62190    0.05263    0.63778    1.000
    N8       N        0.55840    0.89113    0.49320    1.000
    N9       N        0.46910    0.70464    0.59274    1.000
    N10      N        0.48200    0.74338    0.78861    1.000
    N11      N        0.21990    0.99492    0.02369    1.000
    N12      N        0.33190    0.24118    0.73904    1.000
    N13      N        0.40460    0.45390    0.74515    1.000
    N14      N        0.41640    0.51836    0.93630    1.000
    N15      N        0.36460    0.33429    0.05642    1.000
    N16      N        0.31260    0.16488    0.93050    1.000
    N17      N        0.26070    0.56647    0.32750    1.000
    N18      N        0.23300    0.50014    0.13481    1.000
    N19      N        0.29830    0.67539    0.01434    1.000
    N20      N        0.37580    0.85010    0.13320    1.000
    N21      N        0.35860    0.78194    0.32809    1.000
    N22      N        0.91910    0.53871    0.31600    1.000
    N23      N        0.87810    0.44737    0.13778    1.000
    N24      N        0.94160    0.60887    0.99320    1.000
    N25      N        0.03090    0.79536    0.09274    1.000
    N26      N        0.01800    0.75662    0.28861    1.000
    N27      N        0.28010    0.50508    0.52369    1.000
    N28      N        0.16810    0.25882    0.23904    1.000
    N29      N        0.09540    0.04610    0.24515    1.000
    N30      N        0.08360    0.98164    0.43630    1.000
    N31      N        0.13540    0.16571    0.55642    1.000
    N32      N        0.18740    0.33512    0.43050    1.000
    N33      N        0.76070    0.06647    0.17250    1.000
    N34      N        0.73300    0.00014    0.36519    1.000
    N35      N        0.79830    0.17539    0.48566    1.000
    N36      N        0.87580    0.35010    0.36680    1.000
    N37      N        0.85860    0.28194    0.17191    1.000
    N38      N        0.41910    0.03871    0.18400    1.000
    N39      N        0.37810    0.94737    0.36222    1.000
    N40      N        0.44160    0.10887    0.50680    1.000
    N41      N        0.53090    0.29536    0.40726    1.000
    N42      N        0.51800    0.25662    0.21139    1.000
    N43      N        0.78010    0.00508    0.97631    1.000
    N44      N        0.66810    0.75882    0.26096    1.000
    N45      N        0.59540    0.54610    0.25485    1.000
    N46      N        0.58360    0.48164    0.06370    1.000
    N47      N        0.63540    0.66571    0.94358    1.000
    N48      N        0.68740    0.83512    0.06950    1.000
    N49      N        0.73930    0.43353    0.67250    1.000
    N50      N        0.76700    0.49986    0.86519    1.000
    N51      N        0.70170    0.32461    0.98566    1.000
    N52      N        0.62420    0.14990    0.86680    1.000
    N53      N        0.64140    0.21806    0.67191    1.000
    N54      N        0.08090    0.46129    0.68400    1.000
    N55      N        0.12190    0.55263    0.86222    1.000
    N56      N        0.05840    0.39113    0.00680    1.000
    N57      N        0.96910    0.20464    0.90726    1.000
    N58      N        0.98200    0.24338    0.71139    1.000
    N59      N        0.71990    0.49492    0.47631    1.000
    N60      N        0.83190    0.74118    0.76096    1.000
    N61      N        0.90460    0.95390    0.75485    1.000
    N62      N        0.91640    0.01836    0.56370    1.000
    N63      N        0.86460    0.83429    0.44358    1.000
    N64      N        0.81260    0.66488    0.56950    1.000
    O1       O        0.33440    0.01365    0.03381    1.000
    O2       O        0.17000    0.99723    0.97265    1.000
    O3       O        0.16560    0.48635    0.53381    1.000
    O4       O        0.33000    0.50277    0.47265    1.000
    O5       O        0.66560    0.98635    0.96619    1.000
    O6       O        0.83000    0.00277    0.02735    1.000
    O7       O        0.83440    0.51365    0.46619    1.000
    O8       O        0.67000    0.49723    0.52735    1.000
