# CIF file generated by openbabel 3.1.0, see https://openbabel.org
data_I
_chemical_name_common 'image0'
_cell_length_a 33.2737
_cell_length_b 9.8531
_cell_length_c 18.218
_cell_angle_alpha 90
_cell_angle_beta 90
_cell_angle_gamma 90
_space_group_name_H-M_alt 'P 1'
_space_group_name_Hall 'P 1'
loop_
    _symmetry_equiv_pos_as_xyz
    x,y,z
loop_
    _atom_site_label
    _atom_site_type_symbol
    _atom_site_fract_x
    _atom_site_fract_y
    _atom_site_fract_z
    _atom_site_occupancy
    Zn1      Zn       0.59650    0.44929    0.49513    1.000
    C1       C        0.67388    0.39140    0.49250    1.000
    C2       C        0.71329    0.31730    0.49620    1.000
    C3       C        0.74900    0.38680    0.49630    1.000
    H1       H        0.74860    0.48120    0.49640    1.000
    C4       C        0.71467    0.17910    0.49610    1.000
    H2       H        0.69090    0.12930    0.49590    1.000
    C5       C        0.54670    0.23660    0.46110    1.000
    C6       C        0.52136    0.11610    0.48090    1.000
    C7       C        0.51956    0.00650    0.43330    1.000
    H3       H        0.53270    0.01070    0.38830    1.000
    C8       C        0.49839    0.89080    0.45210    1.000
    H4       H        0.49740    0.81770    0.41990    1.000
    C9       C        0.55704    0.59130    0.37813    1.000
    C10      C        0.55955    0.66590    0.30620    1.000
    C11      C        0.59604    0.71290    0.27960    1.000
    H5       H        0.61950    0.69720    0.30590    1.000
    C12      C        0.52461    0.69040    0.26650    1.000
    H6       H        0.50000    0.66020    0.28440    1.000
    C13      C        0.59751    0.78260    0.21410    1.000
    H7       H        0.62210    0.81370    0.19660    1.000
    C14      C        0.52628    0.75910    0.20090    1.000
    H8       H        0.50280    0.77360    0.17430    1.000
    C15      C        0.56275    0.80730    0.17391    1.000
    C16      C        0.56399    0.88140    0.10276    1.000
    O1       O        0.64277    0.32640    0.50291    1.000
    O2       O        0.67347    0.51310    0.47880    1.000
    O3       O        0.54650    0.33780    0.50741    1.000
    O4       O        0.56736    0.23650    0.40584    1.000
    O5       O        0.59030    0.56190    0.40781    1.000
    O6       O        0.52308    0.56520    0.40220    1.000
    O7       O        0.59542    0.95020    0.08965    1.000
    O8       O        0.53485    0.87060    0.06079    1.000
    Zn2      Zn       0.90350    0.05071    0.49513    1.000
    C17      C        0.82612    0.10860    0.49250    1.000
    C18      C        0.78671    0.18270    0.49620    1.000
    C19      C        0.75100    0.11320    0.49630    1.000
    H9       H        0.75140    0.01880    0.49640    1.000
    C20      C        0.78533    0.32090    0.49610    1.000
    H10      H        0.80910    0.37070    0.49590    1.000
    C21      C        0.95330    0.26340    0.46110    1.000
    C22      C        0.97864    0.38390    0.48090    1.000
    C23      C        0.98044    0.49350    0.43330    1.000
    H11      H        0.96730    0.48930    0.38830    1.000
    C24      C        0.00161    0.60920    0.45210    1.000
    H12      H        0.00260    0.68230    0.41990    1.000
    C25      C        0.94296    0.90870    0.37813    1.000
    C26      C        0.94045    0.83410    0.30620    1.000
    C27      C        0.90396    0.78710    0.27960    1.000
    H13      H        0.88050    0.80280    0.30590    1.000
    C28      C        0.97539    0.80960    0.26650    1.000
    H14      H        0.00000    0.83980    0.28440    1.000
    C29      C        0.90249    0.71740    0.21410    1.000
    H15      H        0.87790    0.68630    0.19660    1.000
    C30      C        0.97372    0.74090    0.20090    1.000
    H16      H        0.99720    0.72640    0.17430    1.000
    C31      C        0.93725    0.69270    0.17391    1.000
    C32      C        0.93601    0.61860    0.10276    1.000
    O9       O        0.85723    0.17360    0.50291    1.000
    O10      O        0.82653    0.98690    0.47880    1.000
    O11      O        0.95350    0.16220    0.50741    1.000
    O12      O        0.93264    0.26350    0.40584    1.000
    O13      O        0.90970    0.93810    0.40781    1.000
    O14      O        0.97692    0.93480    0.40220    1.000
    O15      O        0.90458    0.54980    0.08965    1.000
    O16      O        0.96515    0.62940    0.06079    1.000
    Zn3      Zn       0.40350    0.94929    0.00487    1.000
    C33      C        0.32612    0.89140    0.00750    1.000
    C34      C        0.28671    0.81730    0.00380    1.000
    C35      C        0.25100    0.88680    0.00370    1.000
    H17      H        0.25140    0.98120    0.00360    1.000
    C36      C        0.28533    0.67910    0.00390    1.000
    H18      H        0.30910    0.62930    0.00410    1.000
    C37      C        0.45330    0.73660    0.03890    1.000
    C38      C        0.47864    0.61610    0.01910    1.000
    C39      C        0.48044    0.50650    0.06670    1.000
    H19      H        0.46730    0.51070    0.11170    1.000
    C40      C        0.50161    0.39080    0.04790    1.000
    H20      H        0.50260    0.31770    0.08010    1.000
    C41      C        0.44296    0.09130    0.12187    1.000
    C42      C        0.44045    0.16590    0.19380    1.000
    C43      C        0.40396    0.21290    0.22040    1.000
    H21      H        0.38050    0.19720    0.19410    1.000
    C44      C        0.47539    0.19040    0.23350    1.000
    H22      H        0.50000    0.16020    0.21560    1.000
    C45      C        0.40249    0.28260    0.28590    1.000
    H23      H        0.37790    0.31370    0.30340    1.000
    C46      C        0.47372    0.25910    0.29910    1.000
    H24      H        0.49720    0.27360    0.32570    1.000
    C47      C        0.43725    0.30730    0.32609    1.000
    C48      C        0.43601    0.38140    0.39724    1.000
    O17      O        0.35723    0.82640    0.99709    1.000
    O18      O        0.32653    0.01310    0.02120    1.000
    O19      O        0.45350    0.83780    0.99259    1.000
    O20      O        0.43264    0.73650    0.09416    1.000
    O21      O        0.40970    0.06190    0.09219    1.000
    O22      O        0.47692    0.06520    0.09780    1.000
    O23      O        0.40458    0.45020    0.41035    1.000
    O24      O        0.46515    0.37060    0.43921    1.000
    Zn4      Zn       0.09650    0.55071    0.00487    1.000
    C49      C        0.17388    0.60860    0.00750    1.000
    C50      C        0.21329    0.68270    0.00380    1.000
    C51      C        0.24900    0.61320    0.00370    1.000
    H25      H        0.24860    0.51880    0.00360    1.000
    C52      C        0.21467    0.82090    0.00390    1.000
    H26      H        0.19090    0.87070    0.00410    1.000
    C53      C        0.04670    0.76340    0.03890    1.000
    C54      C        0.02136    0.88390    0.01910    1.000
    C55      C        0.01956    0.99350    0.06670    1.000
    H27      H        0.03270    0.98930    0.11170    1.000
    C56      C        0.99839    0.10920    0.04790    1.000
    H28      H        0.99740    0.18230    0.08010    1.000
    C57      C        0.05704    0.40870    0.12187    1.000
    C58      C        0.05955    0.33410    0.19380    1.000
    C59      C        0.09604    0.28710    0.22040    1.000
    H29      H        0.11950    0.30280    0.19410    1.000
    C60      C        0.02461    0.30960    0.23350    1.000
    H30      H        0.00000    0.33980    0.21560    1.000
    C61      C        0.09751    0.21740    0.28590    1.000
    H31      H        0.12210    0.18630    0.30340    1.000
    C62      C        0.02628    0.24090    0.29910    1.000
    H32      H        0.00280    0.22640    0.32570    1.000
    C63      C        0.06275    0.19270    0.32609    1.000
    C64      C        0.06399    0.11860    0.39724    1.000
    O25      O        0.14277    0.67360    0.99709    1.000
    O26      O        0.17347    0.48690    0.02120    1.000
    O27      O        0.04650    0.66220    0.99259    1.000
    O28      O        0.06736    0.76350    0.09416    1.000
    O29      O        0.09030    0.43810    0.09219    1.000
    O30      O        0.02308    0.43480    0.09780    1.000
    O31      O        0.09542    0.04980    0.41035    1.000
    O32      O        0.03485    0.12940    0.43921    1.000
    Zn5      Zn       0.40350    0.55071    0.50487    1.000
    C65      C        0.32612    0.60860    0.50750    1.000
    C66      C        0.28671    0.68270    0.50380    1.000
    C67      C        0.25100    0.61320    0.50370    1.000
    H33      H        0.25140    0.51880    0.50360    1.000
    C68      C        0.28533    0.82090    0.50390    1.000
    H34      H        0.30910    0.87070    0.50410    1.000
    C69      C        0.45330    0.76340    0.53890    1.000
    C70      C        0.47864    0.88390    0.51910    1.000
    C71      C        0.48044    0.99350    0.56670    1.000
    H35      H        0.46730    0.98930    0.61170    1.000
    C72      C        0.50161    0.10920    0.54790    1.000
    H36      H        0.50260    0.18230    0.58010    1.000
    C73      C        0.44296    0.40870    0.62187    1.000
    C74      C        0.44045    0.33410    0.69380    1.000
    C75      C        0.40396    0.28710    0.72040    1.000
    H37      H        0.38050    0.30280    0.69410    1.000
    C76      C        0.47539    0.30960    0.73350    1.000
    H38      H        0.50000    0.33980    0.71560    1.000
    C77      C        0.40249    0.21740    0.78590    1.000
    H39      H        0.37790    0.18630    0.80340    1.000
    C78      C        0.47372    0.24090    0.79910    1.000
    H40      H        0.49720    0.22640    0.82570    1.000
    C79      C        0.43725    0.19270    0.82609    1.000
    C80      C        0.43601    0.11860    0.89724    1.000
    O33      O        0.35723    0.67360    0.49709    1.000
    O34      O        0.32653    0.48690    0.52120    1.000
    O35      O        0.45350    0.66220    0.49259    1.000
    O36      O        0.43264    0.76350    0.59416    1.000
    O37      O        0.40970    0.43810    0.59219    1.000
    O38      O        0.47692    0.43480    0.59780    1.000
    O39      O        0.40458    0.04980    0.91035    1.000
    O40      O        0.46515    0.12940    0.93921    1.000
    Zn6      Zn       0.09650    0.94929    0.50487    1.000
    C81      C        0.17388    0.89140    0.50750    1.000
    C82      C        0.21329    0.81730    0.50380    1.000
    C83      C        0.24900    0.88680    0.50370    1.000
    H41      H        0.24860    0.98120    0.50360    1.000
    C84      C        0.21467    0.67910    0.50390    1.000
    H42      H        0.19090    0.62930    0.50410    1.000
    C85      C        0.04670    0.73660    0.53890    1.000
    C86      C        0.02136    0.61610    0.51910    1.000
    C87      C        0.01956    0.50650    0.56670    1.000
    H43      H        0.03270    0.51070    0.61170    1.000
    C88      C        0.99839    0.39080    0.54790    1.000
    H44      H        0.99740    0.31770    0.58010    1.000
    C89      C        0.05704    0.09130    0.62187    1.000
    C90      C        0.05955    0.16590    0.69380    1.000
    C91      C        0.09604    0.21290    0.72040    1.000
    H45      H        0.11950    0.19720    0.69410    1.000
    C92      C        0.02461    0.19040    0.73350    1.000
    H46      H        0.00000    0.16020    0.71560    1.000
    C93      C        0.09751    0.28260    0.78590    1.000
    H47      H        0.12210    0.31370    0.80340    1.000
    C94      C        0.02628    0.25910    0.79910    1.000
    H48      H        0.00280    0.27360    0.82570    1.000
    C95      C        0.06275    0.30730    0.82609    1.000
    C96      C        0.06399    0.38140    0.89724    1.000
    O41      O        0.14277    0.82640    0.49709    1.000
    O42      O        0.17347    0.01310    0.52120    1.000
    O43      O        0.04650    0.83780    0.49259    1.000
    O44      O        0.06736    0.73650    0.59416    1.000
    O45      O        0.09030    0.06190    0.59219    1.000
    O46      O        0.02308    0.06520    0.59780    1.000
    O47      O        0.09542    0.45020    0.91035    1.000
    O48      O        0.03485    0.37060    0.93921    1.000
    Zn7      Zn       0.59650    0.05071    0.99513    1.000
    C97      C        0.67388    0.10860    0.99250    1.000
    C98      C        0.71329    0.18270    0.99620    1.000
    C99      C        0.74900    0.11320    0.99630    1.000
    H49      H        0.74860    0.01880    0.99640    1.000
    C100     C        0.71467    0.32090    0.99610    1.000
    H50      H        0.69090    0.37070    0.99590    1.000
    C101     C        0.54670    0.26340    0.96110    1.000
    C102     C        0.52136    0.38390    0.98090    1.000
    C103     C        0.51956    0.49350    0.93330    1.000
    H51      H        0.53270    0.48930    0.88830    1.000
    C104     C        0.49839    0.60920    0.95210    1.000
    H52      H        0.49740    0.68230    0.91990    1.000
    C105     C        0.55704    0.90870    0.87813    1.000
    C106     C        0.55955    0.83410    0.80620    1.000
    C107     C        0.59604    0.78710    0.77960    1.000
    H53      H        0.61950    0.80280    0.80590    1.000
    C108     C        0.52461    0.80960    0.76650    1.000
    H54      H        0.50000    0.83980    0.78440    1.000
    C109     C        0.59751    0.71740    0.71410    1.000
    H55      H        0.62210    0.68630    0.69660    1.000
    C110     C        0.52628    0.74090    0.70090    1.000
    H56      H        0.50280    0.72640    0.67430    1.000
    C111     C        0.56275    0.69270    0.67391    1.000
    C112     C        0.56399    0.61860    0.60276    1.000
    O49      O        0.64277    0.17360    0.00291    1.000
    O50      O        0.67347    0.98690    0.97880    1.000
    O51      O        0.54650    0.16220    0.00741    1.000
    O52      O        0.56736    0.26350    0.90584    1.000
    O53      O        0.59030    0.93810    0.90781    1.000
    O54      O        0.52308    0.93480    0.90220    1.000
    O55      O        0.59542    0.54980    0.58965    1.000
    O56      O        0.53485    0.62940    0.56079    1.000
    Zn8      Zn       0.90350    0.44929    0.99513    1.000
    C113     C        0.82612    0.39140    0.99250    1.000
    C114     C        0.78671    0.31730    0.99620    1.000
    C115     C        0.75100    0.38680    0.99630    1.000
    H57      H        0.75140    0.48120    0.99640    1.000
    C116     C        0.78533    0.17910    0.99610    1.000
    H58      H        0.80910    0.12930    0.99590    1.000
    C117     C        0.95330    0.23660    0.96110    1.000
    C118     C        0.97864    0.11610    0.98090    1.000
    C119     C        0.98044    0.00650    0.93330    1.000
    H59      H        0.96730    0.01070    0.88830    1.000
    C120     C        0.00161    0.89080    0.95210    1.000
    H60      H        0.00260    0.81770    0.91990    1.000
    C121     C        0.94296    0.59130    0.87813    1.000
    C122     C        0.94045    0.66590    0.80620    1.000
    C123     C        0.90396    0.71290    0.77960    1.000
    H61      H        0.88050    0.69720    0.80590    1.000
    C124     C        0.97539    0.69040    0.76650    1.000
    H62      H        0.00000    0.66020    0.78440    1.000
    C125     C        0.90249    0.78260    0.71410    1.000
    H63      H        0.87790    0.81370    0.69660    1.000
    C126     C        0.97372    0.75910    0.70090    1.000
    H64      H        0.99720    0.77360    0.67430    1.000
    C127     C        0.93725    0.80730    0.67391    1.000
    C128     C        0.93601    0.88140    0.60276    1.000
    O57      O        0.85723    0.32640    0.00291    1.000
    O58      O        0.82653    0.51310    0.97880    1.000
    O59      O        0.95350    0.33780    0.00741    1.000
    O60      O        0.93264    0.23650    0.90584    1.000
    O61      O        0.90970    0.56190    0.90781    1.000
    O62      O        0.97692    0.56520    0.90220    1.000
    O63      O        0.90458    0.95020    0.58965    1.000
    O64      O        0.96515    0.87060    0.56079    1.000
    Zn9      Zn       0.50000    0.50000    0.50000    1.000
    Zn10     Zn       0.00000    0.00000    0.50000    1.000
    Zn11     Zn       0.50000    0.00000    0.00000    1.000
    Zn12     Zn       0.00000    0.50000    0.00000    1.000
