# CIF file generated by openbabel 3.1.0, see https://openbabel.org
data_I
_chemical_name_common 'LIFQIC_clean'
_cell_length_a 9.746
_cell_length_b 9.746
_cell_length_c 9.746
_cell_angle_alpha 79.5616
_cell_angle_beta 79.5616
_cell_angle_gamma 79.5616
_space_group_name_H-M_alt 'P 1'
_space_group_name_Hall 'P 1'
loop_
    _symmetry_equiv_pos_as_xyz
    x,y,z
loop_
    _atom_site_label
    _atom_site_type_symbol
    _atom_site_fract_x
    _atom_site_fract_y
    _atom_site_fract_z
    _atom_site_occupancy
    Eu1      Eu       0.50000    0.01164    0.98836    1.000
    Eu2      Eu       0.98836    0.50000    0.01164    1.000
    Eu3      Eu       0.01164    0.98836    0.50000    1.000
    H1       H        0.42495    0.57505    0.00000    1.000
    H2       H        0.00000    0.42495    0.57505    1.000
    H3       H        0.57505    0.00000    0.42495    1.000
    C1       C        0.66665    0.66555    0.00375    1.000
    C2       C        0.63641    0.52011    0.00021    1.000
    C3       C        0.00375    0.66665    0.66555    1.000
    C4       C        0.00021    0.63641    0.52011    1.000
    C5       C        0.66555    0.00375    0.66665    1.000
    C6       C        0.52011    0.00021    0.63641    1.000
    C7       C        0.33445    0.33335    0.99625    1.000
    C8       C        0.47989    0.36359    0.99979    1.000
    C9       C        0.33335    0.99625    0.33445    1.000
    C10      C        0.36359    0.99979    0.47989    1.000
    C11      C        0.99625    0.33445    0.33335    1.000
    C12      C        0.99979    0.47989    0.36359    1.000
    C13      C        0.49945    0.50055    0.00000    1.000
    C14      C        0.71835    0.28165    0.00000    1.000
    C15      C        0.00000    0.49945    0.50055    1.000
    C16      C        0.00000    0.71835    0.28165    1.000
    C17      C        0.50055    0.00000    0.49945    1.000
    C18      C        0.28165    0.00000    0.71835    1.000
    N1       N        0.74488    0.41588    0.00068    1.000
    N2       N        0.00068    0.74488    0.41588    1.000
    N3       N        0.41588    0.00068    0.74488    1.000
    N4       N        0.58412    0.25512    0.99932    1.000
    N5       N        0.25512    0.99932    0.58412    1.000
    N6       N        0.99932    0.58412    0.25512    1.000
    O1       O        0.57006    0.76616    0.98536    1.000
    O2       O        0.78712    0.67422    0.02752    1.000
    O3       O        0.98536    0.57006    0.76616    1.000
    O4       O        0.02752    0.78712    0.67422    1.000
    O5       O        0.76616    0.98536    0.57006    1.000
    O6       O        0.67422    0.02752    0.78712    1.000
    O7       O        0.23384    0.42994    0.01464    1.000
    O8       O        0.32578    0.21288    0.97248    1.000
    O9       O        0.42994    0.01464    0.23384    1.000
    O10      O        0.21288    0.97248    0.32578    1.000
    O11      O        0.01464    0.23384    0.42994    1.000
    O12      O        0.97248    0.32578    0.21288    1.000
    O13      O        0.81895    0.18105    0.00000    1.000
    O14      O        0.00000    0.81895    0.18105    1.000
    O15      O        0.18105    0.00000    0.81895    1.000
