# CIF file generated by openbabel 3.1.0, see https://openbabel.org
data_I
_chemical_name_common 'image0'
_cell_length_a 14.2604
_cell_length_b 11.5999
_cell_length_c 18.3249
_cell_angle_alpha 90
_cell_angle_beta 90.324
_cell_angle_gamma 90
_space_group_name_H-M_alt 'P 1'
_space_group_name_Hall 'P 1'
loop_
    _symmetry_equiv_pos_as_xyz
    x,y,z
loop_
    _atom_site_label
    _atom_site_type_symbol
    _atom_site_fract_x
    _atom_site_fract_y
    _atom_site_fract_z
    _atom_site_occupancy
    P1       P        0.21613    0.59246    0.44011    1.000
    P2       P        0.09130    0.26125    0.42415    1.000
    P3       P        0.12106    0.49380    0.65668    1.000
    Al1      Al       0.22985    0.36237    0.53100    1.000
    Al2      Al       0.12645    0.72171    0.56662    1.000
    Al3      Al       0.08417    0.53896    0.81835    1.000
    F1       F        0.21867    0.20510    0.55387    1.000
    O1       O        0.25440    0.50710    0.49546    1.000
    O2       O        0.14820    0.61570    0.63120    1.000
    O3       O        0.18080    0.40440    0.61912    1.000
    O4       O        0.14840    0.67660    0.47796    1.000
    O5       O        0.14370    0.48520    0.73880    1.000
    O6       O        0.29950    0.66410    0.41080    1.000
    O7       O        0.11220    0.34570    0.48580    1.000
    O8       O        0.98650    0.22540    0.42680    1.000
    O9       O        0.35210    0.35060    0.57178    1.000
    O10      O        0.10890    0.31880    0.34954    1.000
    O11      O        0.16930    0.53810    0.37466    1.000
    O12      O        0.01640    0.47160    0.64320    1.000
    P4       P        0.71613    0.09246    0.44011    1.000
    P5       P        0.59130    0.76125    0.42415    1.000
    P6       P        0.62106    0.99380    0.65668    1.000
    Al4      Al       0.72985    0.86237    0.53100    1.000
    Al5      Al       0.62645    0.22171    0.56662    1.000
    Al6      Al       0.58417    0.03896    0.81835    1.000
    F2       F        0.71867    0.70510    0.55387    1.000
    O13      O        0.75440    0.00710    0.49546    1.000
    O14      O        0.64820    0.11570    0.63120    1.000
    O15      O        0.68080    0.90440    0.61912    1.000
    O16      O        0.64840    0.17660    0.47796    1.000
    O17      O        0.64370    0.98520    0.73880    1.000
    O18      O        0.79950    0.16410    0.41080    1.000
    O19      O        0.61220    0.84570    0.48580    1.000
    O20      O        0.48650    0.72540    0.42680    1.000
    O21      O        0.85210    0.85060    0.57178    1.000
    O22      O        0.60890    0.81880    0.34954    1.000
    O23      O        0.66930    0.03810    0.37466    1.000
    O24      O        0.51640    0.97160    0.64320    1.000
    P7       P        0.78387    0.59246    0.05989    1.000
    P8       P        0.90870    0.26125    0.07585    1.000
    P9       P        0.87894    0.49380    0.84332    1.000
    Al7      Al       0.77015    0.36237    0.96900    1.000
    Al8      Al       0.87355    0.72171    0.93338    1.000
    Al9      Al       0.91583    0.53896    0.68165    1.000
    F3       F        0.78133    0.20510    0.94613    1.000
    O25      O        0.74560    0.50710    0.00454    1.000
    O26      O        0.85180    0.61570    0.86880    1.000
    O27      O        0.81920    0.40440    0.88088    1.000
    O28      O        0.85160    0.67660    0.02204    1.000
    O29      O        0.85630    0.48520    0.76120    1.000
    O30      O        0.70050    0.66410    0.08920    1.000
    O31      O        0.88780    0.34570    0.01420    1.000
    O32      O        0.01350    0.22540    0.07320    1.000
    O33      O        0.64790    0.35060    0.92822    1.000
    O34      O        0.89110    0.31880    0.15046    1.000
    O35      O        0.83070    0.53810    0.12534    1.000
    O36      O        0.98360    0.47160    0.85680    1.000
    P10      P        0.28387    0.09246    0.05989    1.000
    P11      P        0.40870    0.76125    0.07585    1.000
    P12      P        0.37894    0.99380    0.84332    1.000
    Al10     Al       0.27015    0.86237    0.96900    1.000
    Al11     Al       0.37355    0.22171    0.93338    1.000
    Al12     Al       0.41583    0.03896    0.68165    1.000
    F4       F        0.28133    0.70510    0.94613    1.000
    O37      O        0.24560    0.00710    0.00454    1.000
    O38      O        0.35180    0.11570    0.86880    1.000
    O39      O        0.31920    0.90440    0.88088    1.000
    O40      O        0.35160    0.17660    0.02204    1.000
    O41      O        0.35630    0.98520    0.76120    1.000
    O42      O        0.20050    0.16410    0.08920    1.000
    O43      O        0.38780    0.84570    0.01420    1.000
    O44      O        0.51350    0.72540    0.07320    1.000
    O45      O        0.14790    0.85060    0.92822    1.000
    O46      O        0.39110    0.81880    0.15046    1.000
    O47      O        0.33070    0.03810    0.12534    1.000
    O48      O        0.48360    0.97160    0.85680    1.000
    P13      P        0.78387    0.40754    0.55989    1.000
    P14      P        0.90870    0.73875    0.57585    1.000
    P15      P        0.87894    0.50620    0.34332    1.000
    Al13     Al       0.77015    0.63763    0.46900    1.000
    Al14     Al       0.87355    0.27829    0.43338    1.000
    Al15     Al       0.91583    0.46104    0.18165    1.000
    F5       F        0.78133    0.79490    0.44613    1.000
    O49      O        0.74560    0.49290    0.50454    1.000
    O50      O        0.85180    0.38430    0.36880    1.000
    O51      O        0.81920    0.59560    0.38088    1.000
    O52      O        0.85160    0.32340    0.52204    1.000
    O53      O        0.85630    0.51480    0.26120    1.000
    O54      O        0.70050    0.33590    0.58920    1.000
    O55      O        0.88780    0.65430    0.51420    1.000
    O56      O        0.01350    0.77460    0.57320    1.000
    O57      O        0.64790    0.64940    0.42822    1.000
    O58      O        0.89110    0.68120    0.65046    1.000
    O59      O        0.83070    0.46190    0.62534    1.000
    O60      O        0.98360    0.52840    0.35680    1.000
    P16      P        0.28387    0.90754    0.55989    1.000
    P17      P        0.40870    0.23875    0.57585    1.000
    P18      P        0.37894    0.00620    0.34332    1.000
    Al16     Al       0.27015    0.13763    0.46900    1.000
    Al17     Al       0.37355    0.77829    0.43338    1.000
    Al18     Al       0.41583    0.96104    0.18165    1.000
    F6       F        0.28133    0.29490    0.44613    1.000
    O61      O        0.24560    0.99290    0.50454    1.000
    O62      O        0.35180    0.88430    0.36880    1.000
    O63      O        0.31920    0.09560    0.38088    1.000
    O64      O        0.35160    0.82340    0.52204    1.000
    O65      O        0.35630    0.01480    0.26120    1.000
    O66      O        0.20050    0.83590    0.58920    1.000
    O67      O        0.38780    0.15430    0.51420    1.000
    O68      O        0.51350    0.27460    0.57320    1.000
    O69      O        0.14790    0.14940    0.42822    1.000
    O70      O        0.39110    0.18120    0.65046    1.000
    O71      O        0.33070    0.96190    0.62534    1.000
    O72      O        0.48360    0.02840    0.35680    1.000
    P19      P        0.21613    0.40754    0.94011    1.000
    P20      P        0.09130    0.73875    0.92415    1.000
    P21      P        0.12106    0.50620    0.15668    1.000
    Al19     Al       0.22985    0.63763    0.03100    1.000
    Al20     Al       0.12645    0.27829    0.06662    1.000
    Al21     Al       0.08417    0.46104    0.31835    1.000
    F7       F        0.21867    0.79490    0.05387    1.000
    O73      O        0.25440    0.49290    0.99546    1.000
    O74      O        0.14820    0.38430    0.13120    1.000
    O75      O        0.18080    0.59560    0.11912    1.000
    O76      O        0.14840    0.32340    0.97796    1.000
    O77      O        0.14370    0.51480    0.23880    1.000
    O78      O        0.29950    0.33590    0.91080    1.000
    O79      O        0.11220    0.65430    0.98580    1.000
    O80      O        0.98650    0.77460    0.92680    1.000
    O81      O        0.35210    0.64940    0.07178    1.000
    O82      O        0.10890    0.68120    0.84954    1.000
    O83      O        0.16930    0.46190    0.87466    1.000
    O84      O        0.01640    0.52840    0.14320    1.000
    P22      P        0.71613    0.90754    0.94011    1.000
    P23      P        0.59130    0.23875    0.92415    1.000
    P24      P        0.62106    0.00620    0.15668    1.000
    Al22     Al       0.72985    0.13763    0.03100    1.000
    Al23     Al       0.62645    0.77829    0.06662    1.000
    Al24     Al       0.58417    0.96104    0.31835    1.000
    F8       F        0.71867    0.29490    0.05387    1.000
    O85      O        0.75440    0.99290    0.99546    1.000
    O86      O        0.64820    0.88430    0.13120    1.000
    O87      O        0.68080    0.09560    0.11912    1.000
    O88      O        0.64840    0.82340    0.97796    1.000
    O89      O        0.64370    0.01480    0.23880    1.000
    O90      O        0.79950    0.83590    0.91080    1.000
    O91      O        0.61220    0.15430    0.98580    1.000
    O92      O        0.48650    0.27460    0.92680    1.000
    O93      O        0.85210    0.14940    0.07178    1.000
    O94      O        0.60890    0.18120    0.84954    1.000
    O95      O        0.66930    0.96190    0.87466    1.000
    O96      O        0.51640    0.02840    0.14320    1.000
    F9       F        0.00000    0.60930    0.75000    1.000
    F10      F        0.50000    0.10930    0.75000    1.000
    F11      F        0.00000    0.39070    0.25000    1.000
    F12      F        0.50000    0.89070    0.25000    1.000
