# CIF file generated by openbabel 3.1.0, see https://openbabel.org
data_I
_chemical_name_common 'ECAHEX_clean'
_cell_length_a 7.7554
_cell_length_b 15.6408
_cell_length_c 15.6408
_cell_angle_alpha 62.6759
_cell_angle_beta 80.4864
_cell_angle_gamma 99.5136
_space_group_name_H-M_alt 'P 1'
_space_group_name_Hall 'P 1'
loop_
    _symmetry_equiv_pos_as_xyz
    x,y,z
loop_
    _atom_site_label
    _atom_site_type_symbol
    _atom_site_fract_x
    _atom_site_fract_y
    _atom_site_fract_z
    _atom_site_occupancy
    Cu1      Cu       0.50000    0.00000    0.50000    1.000
    H1       H        0.81040    0.94240    0.72980    1.000
    H2       H        0.64030    0.88740    0.82330    1.000
    H3       H        0.69510    0.00420    0.75710    1.000
    H4       H        0.40400    0.80290    0.80240    1.000
    H5       H        0.19390    0.66980    0.87390    1.000
    H6       H        0.95470    0.81590    0.66450    1.000
    H7       H        0.68480    0.70120    0.76790    1.000
    H8       H        0.91680    0.56070    0.96970    1.000
    H9       H        0.18960    0.05760    0.27020    1.000
    H10      H        0.35970    0.11260    0.17670    1.000
    H11      H        0.30490    0.99580    0.24290    1.000
    H12      H        0.59600    0.19710    0.19760    1.000
    H13      H        0.80610    0.33020    0.12610    1.000
    H14      H        0.04530    0.18410    0.33550    1.000
    H15      H        0.31520    0.29880    0.23210    1.000
    H16      H        0.08320    0.43930    0.03030    1.000
    C1       C        0.69010    0.94290    0.75640    1.000
    C2       C        0.57212    0.93432    0.69226    1.000
    C3       C        0.41741    0.85258    0.73715    1.000
    C4       C        0.28258    0.83920    0.69296    1.000
    C5       C        0.10829    0.75910    0.75773    1.000
    C6       C        0.09211    0.67918    0.85025    1.000
    C7       C        0.95085    0.76483    0.72728    1.000
    C8       C        0.78874    0.69514    0.78992    1.000
    C9       C        0.92442    0.61368    0.90712    1.000
    C10      C        0.30990    0.05710    0.24360    1.000
    C11      C        0.42788    0.06568    0.30774    1.000
    C12      C        0.58259    0.14742    0.26285    1.000
    C13      C        0.71742    0.16080    0.30704    1.000
    C14      C        0.89171    0.24090    0.24227    1.000
    C15      C        0.90789    0.32082    0.14975    1.000
    C16      C        0.04915    0.23517    0.27272    1.000
    C17      C        0.21126    0.30486    0.21008    1.000
    C18      C        0.07558    0.38632    0.09288    1.000
    N1       N        0.77207    0.62009    0.87978    1.000
    N2       N        0.22793    0.37991    0.12022    1.000
    O1       O        0.28831    0.89188    0.60155    1.000
    O2       O        0.62032    0.00246    0.60200    1.000
    O3       O        0.71169    0.10812    0.39845    1.000
    O4       O        0.37968    0.99754    0.39800    1.000
    Cu2      Cu       0.00000    0.50000    0.50000    1.000
    H17      H        0.54020    0.72980    0.32780    1.000
    H18      H        0.46360    0.82330    0.28930    1.000
    H19      H        0.45220    0.75710    0.23870    1.000
    H20      H        0.20640    0.80240    0.39470    1.000
    H21      H        0.06780    0.87390    0.45630    1.000
    H22      H        0.61920    0.66450    0.51960    1.000
    H23      H        0.45270    0.76790    0.53090    1.000
    H24      H        0.88650    0.96970    0.46960    1.000
    H25      H        0.45980    0.27020    0.67220    1.000
    H26      H        0.53640    0.17670    0.71070    1.000
    H27      H        0.54780    0.24290    0.76130    1.000
    H28      H        0.79360    0.19760    0.60530    1.000
    H29      H        0.93220    0.12610    0.54370    1.000
    H30      H        0.38080    0.33550    0.48040    1.000
    H31      H        0.54730    0.23210    0.46910    1.000
    H32      H        0.11350    0.03030    0.53040    1.000
    C19      C        0.44650    0.75640    0.30070    1.000
    C20      C        0.26438    0.69226    0.37342    1.000
    C21      C        0.15456    0.73715    0.41027    1.000
    C22      C        0.97554    0.69296    0.46784    1.000
    C23      C        0.86602    0.75773    0.48317    1.000
    C24      C        0.94236    0.85025    0.47057    1.000
    C25      C        0.67813    0.72728    0.50789    1.000
    C26      C        0.57866    0.78992    0.51494    1.000
    C27      C        0.83154    0.90712    0.47920    1.000
    C28      C        0.55350    0.24360    0.69930    1.000
    C29      C        0.73562    0.30774    0.62658    1.000
    C30      C        0.84544    0.26285    0.58973    1.000
    C31      C        0.02446    0.30704    0.53216    1.000
    C32      C        0.13398    0.24227    0.51683    1.000
    C33      C        0.05764    0.14975    0.52943    1.000
    C34      C        0.32187    0.27272    0.49211    1.000
    C35      C        0.42134    0.21008    0.48506    1.000
    C36      C        0.16846    0.09288    0.52080    1.000
    N3       N        0.65185    0.87978    0.50013    1.000
    N4       N        0.34815    0.12022    0.49987    1.000
    O5       O        0.88986    0.60155    0.50657    1.000
    O6       O        0.22232    0.60200    0.39554    1.000
    O7       O        0.11014    0.39845    0.49343    1.000
    O8       O        0.77768    0.39800    0.60446    1.000
    Cu3      Cu       0.50000    0.50000    0.00000    1.000
    H33      H        0.86800    0.32780    0.94240    1.000
    H34      H        0.75290    0.28930    0.88740    1.000
    H35      H        0.69090    0.23870    0.00420    1.000
    H36      H        0.60110    0.39470    0.80290    1.000
    H37      H        0.52410    0.45630    0.66980    1.000
    H38      H        0.13880    0.51960    0.81590    1.000
    H39      H        0.98360    0.53090    0.70120    1.000
    H40      H        0.35610    0.46960    0.56070    1.000
    H41      H        0.13200    0.67220    0.05760    1.000
    H42      H        0.24710    0.71070    0.11260    1.000
    H43      H        0.30910    0.76130    0.99580    1.000
    H44      H        0.39890    0.60530    0.19710    1.000
    H45      H        0.47590    0.54370    0.33020    1.000
    H46      H        0.86120    0.48040    0.18410    1.000
    H47      H        0.01640    0.46910    0.29880    1.000
    H48      H        0.64390    0.53040    0.43930    1.000
    C37      C        0.74720    0.30070    0.94290    1.000
    C38      C        0.63780    0.37342    0.93432    1.000
    C39      C        0.56483    0.41027    0.85258    1.000
    C40      C        0.44338    0.46784    0.83920    1.000
    C41      C        0.34919    0.48317    0.75910    1.000
    C42      C        0.41293    0.47057    0.67918    1.000
    C43      C        0.18602    0.50789    0.76483    1.000
    C44      C        0.09360    0.51494    0.69514    1.000
    C45      C        0.31074    0.47920    0.61368    1.000
    C46      C        0.25280    0.69930    0.05710    1.000
    C47      C        0.36220    0.62658    0.06568    1.000
    C48      C        0.43517    0.58973    0.14742    1.000
    C49      C        0.55662    0.53216    0.16080    1.000
    C50      C        0.65081    0.51683    0.24090    1.000
    C51      C        0.58707    0.52943    0.32082    1.000
    C52      C        0.81398    0.49211    0.23517    1.000
    C53      C        0.90640    0.48506    0.30486    1.000
    C54      C        0.68926    0.52080    0.38632    1.000
    N5       N        0.15198    0.50013    0.62009    1.000
    N6       N        0.84802    0.49987    0.37991    1.000
    O9       O        0.39643    0.50657    0.89188    1.000
    O10      O        0.61786    0.39554    0.00246    1.000
    O11      O        0.60357    0.49343    0.10812    1.000
    O12      O        0.38214    0.60446    0.99754    1.000
