# CIF file generated by openbabel 3.1.0, see https://openbabel.org
data_I
_chemical_name_common 'image0'
_cell_length_a 9.5454
_cell_length_b 14.6719
_cell_length_c 9.479
_cell_angle_alpha 90
_cell_angle_beta 110.419
_cell_angle_gamma 90
_space_group_name_H-M_alt 'P 1'
_space_group_name_Hall 'P 1'
loop_
    _symmetry_equiv_pos_as_xyz
    x,y,z
loop_
    _atom_site_label
    _atom_site_type_symbol
    _atom_site_fract_x
    _atom_site_fract_y
    _atom_site_fract_z
    _atom_site_occupancy
    O1       O        0.76530    0.84540    0.41450    1.000
    O2       O        0.88170    0.93640    0.73940    1.000
    O3       O        0.78430    0.02170    0.87310    1.000
    N1       N        0.93850    0.60800    0.58990    1.000
    N2       N        0.03050    0.65540    0.71000    1.000
    N3       N        0.81090    0.71860    0.62820    1.000
    N4       N        0.69850    0.78300    0.60220    1.000
    H1       H        0.63160    0.78070    0.64660    1.000
    C1       C        0.80810    0.64530    0.54300    1.000
    H2       H        0.72400    0.62430    0.46150    1.000
    C2       C        0.95170    0.72400    0.73030    1.000
    H3       H        0.98750    0.77010    0.80460    1.000
    C3       C        0.69870    0.85030    0.50260    1.000
    C4       C        0.59610    0.92830    0.50330    1.000
    C5       C        0.63330    0.99070    0.62470    1.000
    C6       C        0.53410    0.06140    0.61650    1.000
    H4       H        0.55740    0.10410    0.69680    1.000
    C7       C        0.78000    0.98190    0.75300    1.000
    O4       O        0.23470    0.34540    0.08550    1.000
    O5       O        0.11830    0.43640    0.76060    1.000
    O6       O        0.21570    0.52170    0.62690    1.000
    N5       N        0.06150    0.10800    0.91010    1.000
    N6       N        0.96950    0.15540    0.79000    1.000
    N7       N        0.18910    0.21860    0.87180    1.000
    N8       N        0.30150    0.28300    0.89780    1.000
    H5       H        0.36840    0.28070    0.85340    1.000
    C8       C        0.19190    0.14530    0.95700    1.000
    H6       H        0.27600    0.12430    0.03850    1.000
    C9       C        0.04830    0.22400    0.76970    1.000
    H7       H        0.01250    0.27010    0.69540    1.000
    C10      C        0.30130    0.35030    0.99740    1.000
    C11      C        0.40390    0.42830    0.99670    1.000
    C12      C        0.36670    0.49070    0.87530    1.000
    C13      C        0.46590    0.56140    0.88350    1.000
    H8       H        0.44260    0.60410    0.80320    1.000
    C14      C        0.22000    0.48190    0.74700    1.000
    O7       O        0.23470    0.15460    0.58550    1.000
    O8       O        0.11830    0.06360    0.26060    1.000
    O9       O        0.21570    0.97830    0.12690    1.000
    N9       N        0.06150    0.39200    0.41010    1.000
    N10      N        0.96950    0.34460    0.29000    1.000
    N11      N        0.18910    0.28140    0.37180    1.000
    N12      N        0.30150    0.21700    0.39780    1.000
    H9       H        0.36840    0.21930    0.35340    1.000
    C15      C        0.19190    0.35470    0.45700    1.000
    H10      H        0.27600    0.37570    0.53850    1.000
    C16      C        0.04830    0.27600    0.26970    1.000
    H11      H        0.01250    0.22990    0.19540    1.000
    C17      C        0.30130    0.14970    0.49740    1.000
    C18      C        0.40390    0.07170    0.49670    1.000
    C19      C        0.36670    0.00930    0.37530    1.000
    C20      C        0.46590    0.93860    0.38350    1.000
    H12      H        0.44260    0.89590    0.30320    1.000
    C21      C        0.22000    0.01810    0.24700    1.000
    O10      O        0.76530    0.65460    0.91450    1.000
    O11      O        0.88170    0.56360    0.23940    1.000
    O12      O        0.78430    0.47830    0.37310    1.000
    N13      N        0.93850    0.89200    0.08990    1.000
    N14      N        0.03050    0.84460    0.21000    1.000
    N15      N        0.81090    0.78140    0.12820    1.000
    N16      N        0.69850    0.71700    0.10220    1.000
    H13      H        0.63160    0.71930    0.14660    1.000
    C22      C        0.80810    0.85470    0.04300    1.000
    H14      H        0.72400    0.87570    0.96150    1.000
    C23      C        0.95170    0.77600    0.23030    1.000
    H15      H        0.98750    0.72990    0.30460    1.000
    C24      C        0.69870    0.64970    0.00260    1.000
    C25      C        0.59610    0.57170    0.00330    1.000
    C26      C        0.63330    0.50930    0.12470    1.000
    C27      C        0.53410    0.43860    0.11650    1.000
    H16      H        0.55740    0.39590    0.19680    1.000
    C28      C        0.78000    0.51810    0.25300    1.000
    Cu1      Cu       0.00000    0.50000    0.50000    1.000
    Cu2      Cu       0.00000    0.00000    0.00000    1.000
