data_functionalizedCrystal
_audit_creation_method	'EQeq! by Chris Wilmer'
_symmetry_space_group_name_H-M	'P1'
_symmetry_Int_Tables_number	1
_symmetry_cell_setting	triclinic
loop_
_symmetry_equiv_pos_as_xyz
  x,y,z
_cell_length_a	16.7372
_cell_length_b	16.7372
_cell_length_c	16.7372
_cell_angle_alpha	90
_cell_angle_beta	90
_cell_angle_gamma	90
loop_
_atom_site_label
_atom_site_type_symbol
_atom_site_fract_x
_atom_site_fract_y
_atom_site_fract_z
_atom_site_charge
Mof_O 	O 	0.695	0.9788	0.4068	-0.527
Mof_O 	O 	0.195	0.4788	0.9068	-0.56
Mof_O 	O 	0.305	0.0212	0.4068	-0.89
Mof_O 	O 	0.805	0.5212	0.9068	-0.545
Mof_O 	O 	0.305	0.9788	0.5932	-0.511
Mof_O 	O 	0.805	0.4788	0.0932	-0.788
Mof_O 	O 	0.695	0.0212	0.5932	-0.875
Mof_O 	O 	0.195	0.5212	0.0932	-0.802
Mof_O 	O 	0.4068	0.695	0.9788	-0.526
Mof_O 	O 	0.9068	0.195	0.4788	-0.559
Mof_O 	O 	0.4068	0.305	0.0212	-0.889
Mof_O 	O 	0.9068	0.805	0.5212	-0.545
Mof_O 	O 	0.5932	0.305	0.9788	-0.511
Mof_O 	O 	0.0932	0.805	0.4788	-0.788
Mof_O 	O 	0.5932	0.695	0.0212	-0.875
Mof_O 	O 	0.0932	0.195	0.5212	-0.802
Mof_O 	O 	0.9788	0.4068	0.695	-0.526
Mof_O 	O 	0.4788	0.9068	0.195	-0.559
Mof_O 	O 	0.0212	0.4068	0.305	-0.889
Mof_O 	O 	0.5212	0.9068	0.805	-0.545
Mof_O 	O 	0.9788	0.5932	0.305	-0.511
Mof_O 	O 	0.4788	0.0932	0.805	-0.788
Mof_O 	O 	0.0212	0.5932	0.695	-0.875
Mof_O 	O 	0.5212	0.0932	0.195	-0.802
Mof_O 	O 	0.9788	0.695	0.4068	-0.526
Mof_O 	O 	0.4788	0.195	0.9068	-0.559
Mof_O 	O 	0.0212	0.305	0.4068	-0.889
Mof_O 	O 	0.5212	0.805	0.9068	-0.545
Mof_O 	O 	0.9788	0.305	0.5932	-0.511
Mof_O 	O 	0.4788	0.805	0.0932	-0.788
Mof_O 	O 	0.0212	0.695	0.5932	-0.875
Mof_O 	O 	0.5212	0.195	0.0932	-0.802
Mof_O 	O 	0.695	0.4068	0.9788	-0.526
Mof_O 	O 	0.195	0.9068	0.4788	-0.559
Mof_O 	O 	0.305	0.4068	0.0212	-0.889
Mof_O 	O 	0.805	0.9068	0.5212	-0.545
Mof_O 	O 	0.305	0.5932	0.9788	-0.511
Mof_O 	O 	0.805	0.0932	0.4788	-0.788
Mof_O 	O 	0.695	0.5932	0.0212	-0.875
Mof_O 	O 	0.195	0.0932	0.5212	-0.802
Mof_O 	O 	0.4068	0.9788	0.695	-0.526
Mof_O 	O 	0.9068	0.4788	0.195	-0.559
Mof_O 	O 	0.4068	0.0212	0.305	-0.889
Mof_O 	O 	0.9068	0.5212	0.805	-0.545
Mof_O 	O 	0.5932	0.9788	0.305	-0.511
Mof_O 	O 	0.0932	0.4788	0.805	-0.788
Mof_O 	O 	0.5932	0.0212	0.695	-0.875
Mof_O 	O 	0.0932	0.5212	0.195	-0.802
Mof_Al	Al	0.5	0	0.5	2.309
Mof_Al	Al	-0	0.5	-0	0.303
Mof_Al	Al	0.5	0.5	-0	2.309
Mof_Al	Al	1.8747e-33	0	0.5	0.303
Mof_Al	Al	1.8747e-33	0.5	0.5	2.309
Mof_Al	Al	0.5	0	-0	0.303
Mof_Al	Al	0.75	0	0.5	2.184
Mof_Al	Al	0.25	0	0.5	2.065
Mof_Al	Al	0.5	0.75	-0	2.184
Mof_Al	Al	0.5	0.25	-0	2.065
Mof_Al	Al	-7.95587e-33	0.5	0.75	2.184
Mof_Al	Al	-4.44661e-33	0.5	0.25	2.065
Mof_Al	Al	-8.89322e-33	0.75	0.5	2.184
Mof_Al	Al	-8.89322e-33	0.25	0.5	2.065
Mof_Al	Al	0.75	0.5	-0	2.184
Mof_Al	Al	0.25	0.5	-0	2.065
Mof_Al	Al	0.5	-5.38396e-33	0.75	2.184
Mof_Al	Al	0.5	0	0.25	2.065
Mof_P 	P 	0.63254	0.9324	0.36746	0.772
Mof_O 	O 	0.6444	0.8469	0.3556	-0.237
Mof_O 	O 	0.558	0.9327	0.442	-0.587
Mof_P 	P 	0.13254	0.4324	0.86746	0.725
Mof_O 	O 	0.1444	0.3469	0.8556	-0.296
Mof_O 	O 	0.058	0.4327	0.942	-0.28
Mof_P 	P 	0.36746	0.0676	0.36746	0.785
Mof_O 	O 	0.3556	0.1531	0.3556	-0.34
Mof_O 	O 	0.442	0.0673	0.442	-0.86
Mof_P 	P 	0.86746	0.5676	0.86746	0.725
Mof_O 	O 	0.8556	0.6531	0.8556	-0.085
Mof_O 	O 	0.942	0.5673	0.942	0.068
Mof_P 	P 	0.36746	0.9324	0.63254	0.772
Mof_O 	O 	0.3556	0.8469	0.6444	-0.237
Mof_O 	O 	0.442	0.9327	0.558	-0.587
Mof_P 	P 	0.86746	0.4324	0.13254	0.725
Mof_O 	O 	0.8556	0.3469	0.1444	-0.296
Mof_O 	O 	0.942	0.4327	0.058	-0.28
Mof_P 	P 	0.63254	0.0676	0.63254	0.808
Mof_O 	O 	0.6444	0.1531	0.6444	-0.287
Mof_O 	O 	0.558	0.0673	0.558	-0.864
Mof_P 	P 	0.13254	0.5676	0.13254	0.722
Mof_O 	O 	0.1444	0.6531	0.1444	-0.399
Mof_O 	O 	0.058	0.5673	0.058	-0.586
Mof_P 	P 	0.36746	0.63254	0.9324	0.772
Mof_O 	O 	0.3556	0.6444	0.8469	-0.237
Mof_O 	O 	0.442	0.558	0.9327	-0.587
Mof_P 	P 	0.86746	0.13254	0.4324	0.725
Mof_O 	O 	0.8556	0.1444	0.3469	-0.296
Mof_O 	O 	0.942	0.058	0.4327	-0.28
Mof_P 	P 	0.36746	0.36746	0.0676	0.785
Mof_O 	O 	0.3556	0.3556	0.1531	-0.34
Mof_O 	O 	0.442	0.442	0.0673	-0.86
Mof_P 	P 	0.86746	0.86746	0.5676	0.725
Mof_O 	O 	0.8556	0.8556	0.6531	-0.085
Mof_O 	O 	0.942	0.942	0.5673	0.068
Mof_P 	P 	0.63254	0.36746	0.9324	0.772
Mof_O 	O 	0.6444	0.3556	0.8469	-0.237
Mof_O 	O 	0.558	0.442	0.9327	-0.587
Mof_P 	P 	0.13254	0.86746	0.4324	0.725
Mof_O 	O 	0.1444	0.8556	0.3469	-0.296
Mof_O 	O 	0.058	0.942	0.4327	-0.28
Mof_P 	P 	0.63254	0.63254	0.0676	0.808
Mof_O 	O 	0.6444	0.6444	0.1531	-0.287
Mof_O 	O 	0.558	0.558	0.0673	-0.864
Mof_P 	P 	0.13254	0.13254	0.5676	0.722
Mof_O 	O 	0.1444	0.1444	0.6531	-0.399
Mof_O 	O 	0.058	0.058	0.5673	-0.586
Mof_P 	P 	0.9324	0.36746	0.63254	0.772
Mof_O 	O 	0.8469	0.3556	0.6444	-0.237
Mof_O 	O 	0.9327	0.442	0.558	-0.587
Mof_P 	P 	0.4324	0.86746	0.13254	0.725
Mof_O 	O 	0.3469	0.8556	0.1444	-0.296
Mof_O 	O 	0.4327	0.942	0.058	-0.28
Mof_P 	P 	0.0676	0.36746	0.36746	0.785
Mof_O 	O 	0.1531	0.3556	0.3556	-0.34
Mof_O 	O 	0.0673	0.442	0.442	-0.86
Mof_P 	P 	0.5676	0.86746	0.86746	0.725
Mof_O 	O 	0.6531	0.8556	0.8556	-0.085
Mof_O 	O 	0.5673	0.942	0.942	0.068
Mof_P 	P 	0.9324	0.63254	0.36746	0.772
Mof_O 	O 	0.8469	0.6444	0.3556	-0.237
Mof_O 	O 	0.9327	0.558	0.442	-0.587
Mof_P 	P 	0.4324	0.13254	0.86746	0.725
Mof_O 	O 	0.3469	0.1444	0.8556	-0.296
Mof_O 	O 	0.4327	0.058	0.942	-0.28
Mof_P 	P 	0.0676	0.63254	0.63254	0.808
Mof_O 	O 	0.1531	0.6444	0.6444	-0.287
Mof_O 	O 	0.0673	0.558	0.558	-0.864
Mof_P 	P 	0.5676	0.13254	0.13254	0.722
Mof_O 	O 	0.6531	0.1444	0.1444	-0.399
Mof_O 	O 	0.5673	0.058	0.058	-0.586
_end
