data_functionalizedCrystal
_audit_creation_method	'EQeq! by Chris Wilmer'
_symmetry_space_group_name_H-M	'P1'
_symmetry_Int_Tables_number	1
_symmetry_cell_setting	triclinic
loop_
_symmetry_equiv_pos_as_xyz
  x,y,z
_cell_length_a	16.8167
_cell_length_b	14.2636
_cell_length_c	12.007
_cell_angle_alpha	90
_cell_angle_beta	118.469
_cell_angle_gamma	90
loop_
_atom_site_label
_atom_site_type_symbol
_atom_site_fract_x
_atom_site_fract_y
_atom_site_fract_z
_atom_site_charge
Mof_Co	Co	0.40322	0.82699	0.59902	1.147
Mof_O 	O 	0.29843	0.90603	0.5858	-0.443
Mof_O 	O 	0.36117	0.00405	0.7501	-0.334
Mof_C 	C 	0.2957	0.9744	0.6503	0.347
Mof_C 	C 	0.2056	0.024	0.5984	-0.094
Mof_C 	C 	0.1883	0.0898	0.6688	0.061
Mof_H 	H 	0.2325	0.103	0.7535	0.015
Mof_C 	C 	0.1047	0.1369	0.6142	-0.145
Mof_C 	C 	0.0792	0.2103	0.6824	0.434
Mof_O 	O 	0.12989	0.22675	0.797	-0.433
Mof_O 	O 	0.00576	0.2477	0.6147	-0.47
Mof_C 	C 	0.0412	0.1168	0.4894	0.081
Mof_H 	H 	0.985	0.149	0.4513	-0.002
Mof_C 	C 	0.0591	0.0509	0.4207	0.055
Mof_C 	C 	0.1412	0.0042	0.4742	-0.034
Mof_H 	H 	0.1535	0.9589	0.4264	0.06
Mof_O 	O 	0.9958	0.065	0.2893	-0.439
Mof_C 	C 	0.0145	0.0111	0.2056	0.594
Mof_H 	H 	0.0067	0.9444	0.2131	-0.132
Mof_H 	H 	0.0748	0.023	0.2173	-0.084
Mof_H 	H 	0.5359	0.9617	0.7528	0.192
Mof_H 	H 	0.4808	0.9331	0.8046	0.186
Mof_Co	Co	0.90322	0.32699	0.59902	1.133
Mof_O 	O 	0.79843	0.40603	0.5858	-0.448
Mof_O 	O 	0.86117	0.50405	0.7501	-0.341
Mof_C 	C 	0.7957	0.4744	0.6503	0.355
Mof_C 	C 	0.7056	0.524	0.5984	-0.103
Mof_C 	C 	0.6883	0.5898	0.6688	0.057
Mof_H 	H 	0.7325	0.603	0.7535	0.013
Mof_C 	C 	0.6047	0.6369	0.6142	-0.131
Mof_C 	C 	0.5792	0.7103	0.6824	0.429
Mof_O 	O 	0.62989	0.72675	0.797	-0.438
Mof_O 	O 	0.50576	0.7477	0.6147	-0.494
Mof_C 	C 	0.5412	0.6168	0.4894	0.018
Mof_H 	H 	0.485	0.649	0.4513	0.049
Mof_C 	C 	0.5591	0.5509	0.4207	0.013
Mof_C 	C 	0.6412	0.5042	0.4742	-0.017
Mof_H 	H 	0.6535	0.4589	0.4264	0.049
Mof_O 	O 	0.4958	0.565	0.2893	-0.411
Mof_C 	C 	0.5145	0.5111	0.2056	0.546
Mof_H 	H 	0.5067	0.4444	0.2131	-0.145
Mof_H 	H 	0.5748	0.523	0.2173	-0.07
Mof_H 	H 	0.0359	0.4617	0.7528	0.192
Mof_H 	H 	0.9808	0.4331	0.8046	0.151
Mof_Co	Co	0.59678	0.82699	0.90098	1.147
Mof_O 	O 	0.70157	0.90603	0.9142	-0.443
Mof_O 	O 	0.63883	0.00405	0.7499	-0.331
Mof_C 	C 	0.7043	0.9744	0.8497	0.34
Mof_C 	C 	0.7944	0.024	0.9016	-0.073
Mof_C 	C 	0.8117	0.0898	0.8312	0.027
Mof_H 	H 	0.7675	0.103	0.7465	0.024
Mof_C 	C 	0.8953	0.1369	0.8858	-0.088
Mof_C 	C 	0.9208	0.2103	0.8176	0.414
Mof_O 	O 	0.87011	0.22675	0.703	-0.441
Mof_O 	O 	0.99424	0.2477	0.8853	-0.516
Mof_C 	C 	0.9588	0.1168	0.0106	-0.08
Mof_H 	H 	0.015	0.149	0.0487	0.11
Mof_C 	C 	0.9409	0.0509	0.0793	-0.002
Mof_C 	C 	0.8588	0.0042	0.0258	-0.043
Mof_H 	H 	0.8465	0.9589	0.0736	0.056
Mof_O 	O 	0.0042	0.065	0.2107	-0.371
Mof_C 	C 	0.9855	0.0111	0.2944	0.466
Mof_H 	H 	0.9933	0.9444	0.2869	-0.147
Mof_H 	H 	0.9252	0.023	0.2827	-0.049
Mof_H 	H 	0.4641	0.9617	0.7472	0.192
Mof_H 	H 	0.5192	0.9331	0.6954	0.186
Mof_Co	Co	0.09678	0.32699	0.90098	1.157
Mof_O 	O 	0.20157	0.40603	0.9142	-0.441
Mof_O 	O 	0.13883	0.50405	0.7499	-0.327
Mof_C 	C 	0.2043	0.4744	0.8497	0.352
Mof_C 	C 	0.2944	0.524	0.9016	-0.097
Mof_C 	C 	0.3117	0.5898	0.8312	0.055
Mof_H 	H 	0.2675	0.603	0.7465	0.018
Mof_C 	C 	0.3953	0.6369	0.8858	-0.128
Mof_C 	C 	0.4208	0.7103	0.8176	0.428
Mof_O 	O 	0.37011	0.72675	0.703	-0.436
Mof_O 	O 	0.49424	0.7477	0.8853	-0.494
Mof_C 	C 	0.4588	0.6168	0.0106	0.017
Mof_H 	H 	0.515	0.649	0.0487	0.049
Mof_C 	C 	0.4409	0.5509	0.0793	0.015
Mof_C 	C 	0.3588	0.5042	0.0258	-0.02
Mof_H 	H 	0.3465	0.4589	0.0736	0.051
Mof_O 	O 	0.5042	0.565	0.2107	-0.411
Mof_C 	C 	0.4855	0.5111	0.2944	0.546
Mof_H 	H 	0.4933	0.4444	0.2869	-0.145
Mof_H 	H 	0.4252	0.523	0.2827	-0.069
Mof_H 	H 	0.9641	0.4617	0.7472	0.164
Mof_H 	H 	0.0192	0.4331	0.6954	0.174
Mof_O 	O 	0.5	0.914	0.75	-0.944
Mof_O 	O 	-4.49035e-17	0.414	0.75	-0.861
Mof_Co	Co	0.59678	0.17301	0.40098	1.147
Mof_O 	O 	0.70157	0.09397	0.4142	-0.445
Mof_O 	O 	0.63883	0.99595	0.2499	-0.334
Mof_C 	C 	0.7043	0.0256	0.3497	0.349
Mof_C 	C 	0.7944	0.976	0.4016	-0.099
Mof_C 	C 	0.8117	0.9102	0.3312	0.047
Mof_H 	H 	0.7675	0.897	0.2465	0.018
Mof_C 	C 	0.8953	0.8631	0.3858	-0.111
Mof_C 	C 	0.9208	0.7897	0.3176	0.422
Mof_O 	O 	0.87011	0.77325	0.203	-0.443
Mof_O 	O 	0.99424	0.7523	0.3853	-0.521
Mof_C 	C 	0.9588	0.8832	0.5106	-0.048
Mof_H 	H 	0.015	0.851	0.5487	0.099
Mof_C 	C 	0.9409	0.9491	0.5793	-0.017
Mof_C 	C 	0.8588	0.9958	0.5258	-0.009
Mof_H 	H 	0.8465	0.0411	0.5736	0.042
Mof_O 	O 	0.0042	0.935	0.7107	-0.372
Mof_C 	C 	0.9855	0.9889	0.7944	0.47
Mof_H 	H 	0.9933	0.0556	0.7869	-0.147
Mof_H 	H 	0.9252	0.977	0.7827	-0.049
Mof_H 	H 	0.4641	0.0383	0.2472	0.192
Mof_H 	H 	0.5192	0.0669	0.1954	0.186
Mof_Co	Co	0.09678	0.67301	0.40098	1.157
Mof_O 	O 	0.20157	0.59397	0.4142	-0.442
Mof_O 	O 	0.13883	0.49595	0.2499	-0.327
Mof_C 	C 	0.2043	0.5256	0.3497	0.353
Mof_C 	C 	0.2944	0.476	0.4016	-0.098
Mof_C 	C 	0.3117	0.4102	0.3312	0.056
Mof_H 	H 	0.2675	0.397	0.2465	0.018
Mof_C 	C 	0.3953	0.3631	0.3858	-0.129
Mof_C 	C 	0.4208	0.2897	0.3176	0.429
Mof_O 	O 	0.37011	0.27325	0.203	-0.437
Mof_O 	O 	0.49424	0.2523	0.3853	-0.494
Mof_C 	C 	0.4588	0.3832	0.5106	0.017
Mof_H 	H 	0.515	0.351	0.5487	0.049
Mof_C 	C 	0.4409	0.4491	0.5793	0.015
Mof_C 	C 	0.3588	0.4958	0.5258	-0.019
Mof_H 	H 	0.3465	0.5411	0.5736	0.051
Mof_O 	O 	0.5042	0.435	0.7107	-0.412
Mof_C 	C 	0.4855	0.4889	0.7944	0.547
Mof_H 	H 	0.4933	0.5556	0.7869	-0.145
Mof_H 	H 	0.4252	0.477	0.7827	-0.069
Mof_H 	H 	0.9641	0.5383	0.2472	0.162
Mof_H 	H 	0.0192	0.5669	0.1954	0.172
Mof_Co	Co	0.40322	0.17301	0.09902	1.147
Mof_O 	O 	0.29843	0.09397	0.0858	-0.442
Mof_O 	O 	0.36117	0.99595	0.2501	-0.331
Mof_C 	C 	0.2957	0.0256	0.1503	0.341
Mof_C 	C 	0.2056	0.976	0.0984	-0.075
Mof_C 	C 	0.1883	0.9102	0.1688	0.047
Mof_H 	H 	0.2325	0.897	0.2535	0.019
Mof_C 	C 	0.1047	0.8631	0.1142	-0.129
Mof_C 	C 	0.0792	0.7897	0.1824	0.429
Mof_O 	O 	0.12989	0.77325	0.297	-0.432
Mof_O 	O 	0.00576	0.7523	0.1147	-0.468
Mof_C 	C 	0.0412	0.8832	0.9894	0.056
Mof_H 	H 	0.985	0.851	0.9513	0.009
Mof_C 	C 	0.0591	0.9491	0.9207	0.065
Mof_C 	C 	0.1412	0.9958	0.9742	-0.06
Mof_H 	H 	0.1535	0.0411	0.9264	0.072
Mof_O 	O 	0.9958	0.935	0.7893	-0.439
Mof_C 	C 	0.0145	0.9889	0.7056	0.592
Mof_H 	H 	0.0067	0.0556	0.7131	-0.132
Mof_H 	H 	0.0748	0.977	0.7173	-0.084
Mof_H 	H 	0.5359	0.0383	0.2528	0.192
Mof_H 	H 	0.4808	0.0669	0.3046	0.187
Mof_Co	Co	0.90322	0.67301	0.09902	1.132
Mof_O 	O 	0.79843	0.59397	0.0858	-0.449
Mof_O 	O 	0.86117	0.49595	0.2501	-0.343
Mof_C 	C 	0.7957	0.5256	0.1503	0.357
Mof_C 	C 	0.7056	0.476	0.0984	-0.11
Mof_C 	C 	0.6883	0.4102	0.1688	0.063
Mof_H 	H 	0.7325	0.397	0.2535	0.011
Mof_C 	C 	0.6047	0.3631	0.1142	-0.139
Mof_C 	C 	0.5792	0.2897	0.1824	0.431
Mof_O 	O 	0.62989	0.27325	0.297	-0.439
Mof_O 	O 	0.50576	0.2523	0.1147	-0.496
Mof_C 	C 	0.5412	0.3832	0.9894	0.028
Mof_H 	H 	0.485	0.351	0.9513	0.047
Mof_C 	C 	0.5591	0.4491	0.9207	0.008
Mof_C 	C 	0.6412	0.4958	0.9742	-0.008
Mof_H 	H 	0.6535	0.5411	0.9264	0.047
Mof_O 	O 	0.4958	0.435	0.7893	-0.41
Mof_C 	C 	0.5145	0.4889	0.7056	0.547
Mof_H 	H 	0.5067	0.5556	0.7131	-0.145
Mof_H 	H 	0.5748	0.477	0.7173	-0.069
Mof_H 	H 	0.0359	0.5383	0.2528	0.192
Mof_H 	H 	0.9808	0.5669	0.3046	0.148
Mof_O 	O 	0.5	0.086	0.25	-0.943
Mof_O 	O 	-2.24517e-17	0.586	0.25	-0.855
_end
