# CIF file generated by openbabel 3.1.0, see https://openbabel.org
data_I
_chemical_name_common 'image0'
_cell_length_a 14.323
_cell_length_b 16.34
_cell_length_c 8.751
_cell_angle_alpha 90
_cell_angle_beta 90
_cell_angle_gamma 90
_space_group_name_H-M_alt 'P 1'
_space_group_name_Hall 'P 1'
loop_
    _symmetry_equiv_pos_as_xyz
    x,y,z
loop_
    _atom_site_label
    _atom_site_type_symbol
    _atom_site_fract_x
    _atom_site_fract_y
    _atom_site_fract_z
    _atom_site_occupancy
    Ga1      Ga       0.13618    0.03473    0.57256    1.000
    Ga2      Ga       0.04135    0.27178    0.63290    1.000
    Ga3      Ga       0.52614    0.12637    0.41143    1.000
    Ga4      Ga       0.36622    0.16095    0.81415    1.000
    P1       P        0.14740    0.15203    0.84890    1.000
    P2       P        0.64008    0.96898    0.44670    1.000
    P3       P        0.47310    0.21915    0.11120    1.000
    P4       P        0.97074    0.13215    0.41500    1.000
    O1       O        0.44790    0.16370    0.97790    1.000
    O2       O        0.53640    0.17130    0.21980    1.000
    O3       O        0.96460    0.19680    0.54070    1.000
    O4       O        0.63050    0.06240    0.44020    1.000
    O5       O        0.96210    0.32730    0.75750    1.000
    O6       O        0.24940    0.14830    0.89610    1.000
    O7       O        0.13520    0.22530    0.74410    1.000
    O8       O        0.08840    0.15860    0.99180    1.000
    O9       O        0.11710    0.07380    0.76930    1.000
    O10      O        0.38420    0.25240    0.69120    1.000
    O11      O        0.41980    0.06420    0.42280    1.000
    O12      O        0.06260    0.08630    0.42340    1.000
    O13      O        0.25960    0.05300    0.51720    1.000
    O14      O        0.39320    0.06580    0.70630    1.000
    O15      O        0.53080    0.29290    0.05810    1.000
    O16      O        0.11290    0.92280    0.56620    1.000
    Ga5      Ga       0.86382    0.53473    0.92744    1.000
    Ga6      Ga       0.95865    0.77178    0.86710    1.000
    Ga7      Ga       0.47386    0.62637    0.08857    1.000
    Ga8      Ga       0.63378    0.66095    0.68585    1.000
    P5       P        0.85260    0.65203    0.65110    1.000
    P6       P        0.35992    0.46898    0.05330    1.000
    P7       P        0.52690    0.71915    0.38880    1.000
    P8       P        0.02926    0.63215    0.08500    1.000
    O17      O        0.55210    0.66370    0.52210    1.000
    O18      O        0.46360    0.67130    0.28020    1.000
    O19      O        0.03540    0.69680    0.95930    1.000
    O20      O        0.36950    0.56240    0.05980    1.000
    O21      O        0.03790    0.82730    0.74250    1.000
    O22      O        0.75060    0.64830    0.60390    1.000
    O23      O        0.86480    0.72530    0.75590    1.000
    O24      O        0.91160    0.65860    0.50820    1.000
    O25      O        0.88290    0.57380    0.73070    1.000
    O26      O        0.61580    0.75240    0.80880    1.000
    O27      O        0.58020    0.56420    0.07720    1.000
    O28      O        0.93740    0.58630    0.07660    1.000
    O29      O        0.74040    0.55300    0.98280    1.000
    O30      O        0.60680    0.56580    0.79370    1.000
    O31      O        0.46920    0.79290    0.44190    1.000
    O32      O        0.88710    0.42280    0.93380    1.000
    Ga9      Ga       0.86382    0.96527    0.42744    1.000
    Ga10     Ga       0.95865    0.72822    0.36710    1.000
    Ga11     Ga       0.47386    0.87363    0.58857    1.000
    Ga12     Ga       0.63378    0.83905    0.18585    1.000
    P9       P        0.85260    0.84797    0.15110    1.000
    P10      P        0.35992    0.03102    0.55330    1.000
    P11      P        0.52690    0.78085    0.88880    1.000
    P12      P        0.02926    0.86785    0.58500    1.000
    O33      O        0.55210    0.83630    0.02210    1.000
    O34      O        0.46360    0.82870    0.78020    1.000
    O35      O        0.03540    0.80320    0.45930    1.000
    O36      O        0.36950    0.93760    0.55980    1.000
    O37      O        0.03790    0.67270    0.24250    1.000
    O38      O        0.75060    0.85170    0.10390    1.000
    O39      O        0.86480    0.77470    0.25590    1.000
    O40      O        0.91160    0.84140    0.00820    1.000
    O41      O        0.88290    0.92620    0.23070    1.000
    O42      O        0.61580    0.74760    0.30880    1.000
    O43      O        0.58020    0.93580    0.57720    1.000
    O44      O        0.93740    0.91370    0.57660    1.000
    O45      O        0.74040    0.94700    0.48280    1.000
    O46      O        0.60680    0.93420    0.29370    1.000
    O47      O        0.46920    0.70710    0.94190    1.000
    O48      O        0.88710    0.07720    0.43380    1.000
    Ga13     Ga       0.13618    0.46527    0.07256    1.000
    Ga14     Ga       0.04135    0.22822    0.13290    1.000
    Ga15     Ga       0.52614    0.37363    0.91143    1.000
    Ga16     Ga       0.36622    0.33905    0.31415    1.000
    P13      P        0.14740    0.34797    0.34890    1.000
    P14      P        0.64008    0.53102    0.94670    1.000
    P15      P        0.47310    0.28085    0.61120    1.000
    P16      P        0.97074    0.36785    0.91500    1.000
    O49      O        0.44790    0.33630    0.47790    1.000
    O50      O        0.53640    0.32870    0.71980    1.000
    O51      O        0.96460    0.30320    0.04070    1.000
    O52      O        0.63050    0.43760    0.94020    1.000
    O53      O        0.96210    0.17270    0.25750    1.000
    O54      O        0.24940    0.35170    0.39610    1.000
    O55      O        0.13520    0.27470    0.24410    1.000
    O56      O        0.08840    0.34140    0.49180    1.000
    O57      O        0.11710    0.42620    0.26930    1.000
    O58      O        0.38420    0.24760    0.19120    1.000
    O59      O        0.41980    0.43580    0.92280    1.000
    O60      O        0.06260    0.41370    0.92340    1.000
    O61      O        0.25960    0.44700    0.01720    1.000
    O62      O        0.39320    0.43420    0.20630    1.000
    O63      O        0.53080    0.20710    0.55810    1.000
    O64      O        0.11290    0.57720    0.06620    1.000
