data_functionalizedCrystal
_audit_creation_method	'EQeq! by Chris Wilmer'
_symmetry_space_group_name_H-M	'P1'
_symmetry_Int_Tables_number	1
_symmetry_cell_setting	triclinic
loop_
_symmetry_equiv_pos_as_xyz
  x,y,z
_cell_length_a	23.169
_cell_length_b	23.169
_cell_length_c	26.9503
_cell_angle_alpha	64.5421
_cell_angle_beta	64.5421
_cell_angle_gamma	89.9999
loop_
_atom_site_label
_atom_site_type_symbol
_atom_site_fract_x
_atom_site_fract_y
_atom_site_fract_z
_atom_site_charge
Mof_Co	Co	0.34278	0.94271	0.85014	1.096
Mof_Co	Co	0.30708	0.20715	0.85014	1.097
Mof_Co	Co	0.44271	0.80708	0.35014	1.097
Mof_Co	Co	0.70715	0.84278	0.35014	1.097
Mof_Co	Co	0.65722	0.05729	0.14986	1.096
Mof_Co	Co	0.69292	0.79285	0.14986	1.097
Mof_Co	Co	0.55729	0.19292	0.64986	1.097
Mof_Co	Co	0.29285	0.15722	0.64986	1.097
Mof_Co	Co	0.375	0.125	0.75	1.08
Mof_Co	Co	0.625	0.875	0.25	1.08
Mof_H 	H 	0.259	0.8567	0.8218	0.055
Mof_H 	H 	0.2007	0.8308	0.781	0.035
Mof_H 	H 	0.1774	0.9112	0.7086	0.034
Mof_H 	H 	0.2137	0.0223	0.6736	0.054
Mof_H 	H 	0.2602	0.8967	0.0046	0.06
Mof_H 	H 	0.2084	0.9018	0.097	0.044
Mof_H 	H 	0.1196	0.8515	0.9108	0.058
Mof_H 	H 	0.0264	0.8543	0.902	0.057
Mof_H 	H 	0.9201	0.7965	0.0866	0.056
Mof_H 	H 	0.0135	0.7912	0.0956	0.058
Mof_H 	H 	0.4192	0.3215	0.8218	0.056
Mof_H 	H 	0.5183	0.3882	0.781	0.034
Mof_H 	H 	0.614	0.3802	0.7086	0.035
Mof_H 	H 	0.6127	0.3041	0.6736	0.053
Mof_H 	H 	0.2352	0.0987	0.0046	0.061
Mof_H 	H 	0.1946	0.0012	0.097	0.043
Mof_H 	H 	0.4696	0.2377	0.9108	0.057
Mof_H 	H 	0.5716	0.2437	0.902	0.058
Mof_H 	H 	0.4933	0.1169	0.0866	0.058
Mof_H 	H 	0.3909	0.1132	0.0956	0.058
Mof_H 	H 	0.3567	0.9192	0.3218	0.057
Mof_H 	H 	0.3308	0.0183	0.281	0.036
Mof_H 	H 	0.4112	0.114	0.2086	0.036
Mof_H 	H 	0.5223	0.1127	0.1736	0.053
Mof_H 	H 	0.3967	0.7352	0.5046	0.062
Mof_H 	H 	0.4018	0.6946	0.597	0.045
Mof_H 	H 	0.3515	0.9696	0.4108	0.058
Mof_H 	H 	0.3543	0.0716	0.402	0.058
Mof_H 	H 	0.2965	0.9933	0.5866	0.058
Mof_H 	H 	0.2912	0.8909	0.5956	0.059
Mof_H 	H 	0.8215	0.759	0.3218	0.057
Mof_H 	H 	0.8882	0.7007	0.281	0.035
Mof_H 	H 	0.8802	0.6774	0.2086	0.036
Mof_H 	H 	0.8041	0.7137	0.1736	0.054
Mof_H 	H 	0.5987	0.7602	0.5046	0.062
Mof_H 	H 	0.5012	0.7084	0.597	0.045
Mof_H 	H 	0.7377	0.6196	0.4108	0.058
Mof_H 	H 	0.7437	0.5264	0.402	0.058
Mof_H 	H 	0.6169	0.4201	0.5866	0.058
Mof_H 	H 	0.6132	0.5135	0.5956	0.059
Mof_H 	H 	0.741	0.1433	0.1782	0.056
Mof_H 	H 	0.7993	0.1692	0.219	0.036
Mof_H 	H 	0.8226	0.0888	0.2914	0.035
Mof_H 	H 	0.7863	0.9777	0.3264	0.055
Mof_H 	H 	0.7398	0.1033	0.9954	0.061
Mof_H 	H 	0.7916	0.0982	0.903	0.045
Mof_H 	H 	0.8804	0.1485	0.0892	0.059
Mof_H 	H 	0.9736	0.1457	0.098	0.058
Mof_H 	H 	0.0799	0.2035	0.9134	0.057
Mof_H 	H 	0.9865	0.2088	0.9044	0.059
Mof_H 	H 	0.5808	0.6785	0.1782	0.057
Mof_H 	H 	0.4817	0.6118	0.219	0.035
Mof_H 	H 	0.386	0.6198	0.2914	0.036
Mof_H 	H 	0.3873	0.6959	0.3264	0.054
Mof_H 	H 	0.7648	0.9013	0.9954	0.062
Mof_H 	H 	0.8054	0.9988	0.903	0.044
Mof_H 	H 	0.5304	0.7623	0.0892	0.058
Mof_H 	H 	0.4284	0.7563	0.098	0.059
Mof_H 	H 	0.5067	0.8831	0.9134	0.058
Mof_H 	H 	0.6091	0.8868	0.9044	0.058
Mof_H 	H 	0.6433	0.0808	0.6782	0.057
Mof_H 	H 	0.6692	0.9817	0.719	0.036
Mof_H 	H 	0.5888	0.886	0.7914	0.036
Mof_H 	H 	0.4777	0.8873	0.8264	0.053
Mof_H 	H 	0.6033	0.2648	0.4954	0.062
Mof_H 	H 	0.5982	0.3054	0.403	0.045
Mof_H 	H 	0.6485	0.0304	0.5892	0.058
Mof_H 	H 	0.6457	0.9284	0.598	0.058
Mof_H 	H 	0.7035	0.0067	0.4134	0.058
Mof_H 	H 	0.7088	0.1091	0.4044	0.059
Mof_H 	H 	0.1785	0.241	0.6782	0.057
Mof_H 	H 	0.1118	0.2993	0.719	0.035
Mof_H 	H 	0.1198	0.3226	0.7914	0.036
Mof_H 	H 	0.1959	0.2863	0.8264	0.054
Mof_H 	H 	0.4013	0.2398	0.4954	0.062
Mof_H 	H 	0.4988	0.2916	0.403	0.045
Mof_H 	H 	0.2623	0.3804	0.5892	0.058
Mof_H 	H 	0.2563	0.4736	0.598	0.058
Mof_H 	H 	0.3831	0.5799	0.4134	0.058
Mof_H 	H 	0.3868	0.4865	0.4044	0.059
Mof_C 	C 	0.27316	0.95609	0.7704	0.048
Mof_C 	C 	0.25054	0.88934	0.79212	-0.108
Mof_C 	C 	0.21581	0.87461	0.76798	-0.02
Mof_C 	C 	0.20186	0.92356	0.72368	-0.023
Mof_C 	C 	0.2235	0.9898	0.7022	-0.113
Mof_C 	C 	0.26073	0.00496	0.72594	0.056
Mof_C 	C 	0.27985	0.99615	0.9481	0.054
Mof_C 	C 	0.25547	0.93657	0.00446	-0.097
Mof_C 	C 	0.22445	0.94005	0.0591	-0.021
Mof_C 	C 	0.13421	0.79071	0.06858	0.108
Mof_C 	C 	0.19863	0.84696	0.95728	0.129
Mof_C 	C 	0.13604	0.81654	0.00992	-0.127
Mof_C 	C 	0.07796	0.81896	0.00428	0.073
Mof_C 	C 	0.07934	0.83924	0.94632	-0.073
Mof_C 	C 	0.02381	0.84151	0.94078	-0.066
Mof_C 	C 	0.96133	0.82443	0.99414	0.069
Mof_C 	C 	0.9601	0.8066	0.0514	-0.07
Mof_C 	C 	0.01597	0.80357	0.05686	-0.071
Mof_C 	C 	0.90268	0.82658	0.98884	-0.125
Mof_C 	C 	0.84134	0.81552	0.03976	0.131
Mof_C 	C 	0.90116	0.84176	0.93288	0.106
Mof_C 	C 	0.45644	0.27351	0.7704	0.05
Mof_C 	C 	0.45734	0.31854	0.79212	-0.11
Mof_C 	C 	0.51621	0.35741	0.76798	-0.017
Mof_C 	C 	0.57446	0.35276	0.72368	-0.025
Mof_C 	C 	0.5743	0.308	0.7022	-0.109
Mof_C 	C 	0.51333	0.2691	0.72594	0.053
Mof_C 	C 	0.27205	0.05575	0.9481	0.062
Mof_C 	C 	0.24007	0.05897	0.00446	-0.104
Mof_C 	C 	0.21645	0.00085	0.0591	-0.019
Mof_C 	C 	0.29721	0.14071	0.06858	0.107
Mof_C 	C 	0.34409	0.19576	0.95728	0.131
Mof_C 	C 	0.35404	0.17354	0.00992	-0.128
Mof_C 	C 	0.41776	0.17676	0.00428	0.07
Mof_C 	C 	0.47434	0.21444	0.94632	-0.069
Mof_C 	C 	0.53541	0.21771	0.94078	-0.068
Mof_C 	C 	0.54453	0.18143	0.99414	0.071
Mof_C 	C 	0.4885	0.142	0.0514	-0.073
Mof_C 	C 	0.42717	0.13957	0.05686	-0.068
Mof_C 	C 	0.60848	0.18458	0.98884	-0.125
Mof_C 	C 	0.6189	0.14472	0.03976	0.129
Mof_C 	C 	0.66596	0.22536	0.93288	0.107
Mof_C 	C 	0.45609	0.95644	0.2704	0.05
Mof_C 	C 	0.38934	0.95734	0.29212	-0.109
Mof_C 	C 	0.37461	0.01621	0.26798	-0.018
Mof_C 	C 	0.42356	0.07446	0.22368	-0.025
Mof_C 	C 	0.4898	0.0743	0.2022	-0.109
Mof_C 	C 	0.50496	0.01333	0.22594	0.052
Mof_C 	C 	0.49615	0.77205	0.4481	0.058
Mof_C 	C 	0.43657	0.74007	0.50446	-0.101
Mof_C 	C 	0.44005	0.71645	0.5591	-0.02
Mof_C 	C 	0.29071	0.79721	0.56858	0.107
Mof_C 	C 	0.34696	0.84409	0.45728	0.13
Mof_C 	C 	0.31654	0.85404	0.50992	-0.127
Mof_C 	C 	0.31896	0.91776	0.50428	0.071
Mof_C 	C 	0.33924	0.97434	0.44632	-0.071
Mof_C 	C 	0.34151	0.03541	0.44078	-0.067
Mof_C 	C 	0.32443	0.04453	0.49414	0.07
Mof_C 	C 	0.3066	0.9885	0.5514	-0.071
Mof_C 	C 	0.30357	0.92717	0.55686	-0.07
Mof_C 	C 	0.32658	0.10848	0.48884	-0.125
Mof_C 	C 	0.31552	0.1189	0.53976	0.13
Mof_C 	C 	0.34176	0.16596	0.43288	0.107
Mof_C 	C 	0.77351	0.77316	0.2704	0.05
Mof_C 	C 	0.81854	0.75054	0.29212	-0.11
Mof_C 	C 	0.85741	0.71581	0.26798	-0.017
Mof_C 	C 	0.85276	0.70186	0.22368	-0.025
Mof_C 	C 	0.808	0.7235	0.2022	-0.109
Mof_C 	C 	0.7691	0.76073	0.22594	0.053
Mof_C 	C 	0.55575	0.77985	0.4481	0.058
Mof_C 	C 	0.55897	0.75547	0.50446	-0.101
Mof_C 	C 	0.50085	0.72445	0.5591	-0.02
Mof_C 	C 	0.64071	0.63421	0.56858	0.108
Mof_C 	C 	0.69576	0.69863	0.45728	0.13
Mof_C 	C 	0.67354	0.63604	0.50992	-0.127
Mof_C 	C 	0.67676	0.57796	0.50428	0.072
Mof_C 	C 	0.71444	0.57934	0.44632	-0.072
Mof_C 	C 	0.71771	0.52381	0.44078	-0.066
Mof_C 	C 	0.68143	0.46133	0.49414	0.07
Mof_C 	C 	0.642	0.4601	0.5514	-0.071
Mof_C 	C 	0.63957	0.51597	0.55686	-0.07
Mof_C 	C 	0.68458	0.40268	0.48884	-0.125
Mof_C 	C 	0.64472	0.34134	0.53976	0.13
Mof_C 	C 	0.72536	0.40116	0.43288	0.107
Mof_C 	C 	0.72684	0.04391	0.2296	0.048
Mof_C 	C 	0.74946	0.11066	0.20788	-0.108
Mof_C 	C 	0.78419	0.12539	0.23202	-0.02
Mof_C 	C 	0.79814	0.07644	0.27632	-0.023
Mof_C 	C 	0.7765	0.0102	0.2978	-0.113
Mof_C 	C 	0.73927	0.99504	0.27406	0.056
Mof_C 	C 	0.72015	0.00385	0.0519	0.054
Mof_C 	C 	0.74453	0.06343	0.99554	-0.097
Mof_C 	C 	0.77555	0.05995	0.9409	-0.021
Mof_C 	C 	0.86579	0.20929	0.93142	0.108
Mof_C 	C 	0.80137	0.15304	0.04272	0.129
Mof_C 	C 	0.86396	0.18346	0.99008	-0.127
Mof_C 	C 	0.92204	0.18104	0.99572	0.073
Mof_C 	C 	0.92066	0.16076	0.05368	-0.073
Mof_C 	C 	0.97619	0.15849	0.05922	-0.066
Mof_C 	C 	0.03867	0.17557	0.00586	0.069
Mof_C 	C 	0.0399	0.1934	0.9486	-0.07
Mof_C 	C 	0.98403	0.19643	0.94314	-0.071
Mof_C 	C 	0.09732	0.17342	0.01116	-0.125
Mof_C 	C 	0.15866	0.18448	0.96024	0.131
Mof_C 	C 	0.09884	0.15824	0.06712	0.106
Mof_C 	C 	0.54356	0.72649	0.2296	0.05
Mof_C 	C 	0.54266	0.68146	0.20788	-0.11
Mof_C 	C 	0.48379	0.64259	0.23202	-0.017
Mof_C 	C 	0.42554	0.64724	0.27632	-0.025
Mof_C 	C 	0.4257	0.692	0.2978	-0.109
Mof_C 	C 	0.48667	0.7309	0.27406	0.053
Mof_C 	C 	0.72795	0.94425	0.0519	0.062
Mof_C 	C 	0.75993	0.94103	0.99554	-0.104
Mof_C 	C 	0.78355	0.99915	0.9409	-0.019
Mof_C 	C 	0.70279	0.85929	0.93142	0.107
Mof_C 	C 	0.65591	0.80424	0.04272	0.131
Mof_C 	C 	0.64596	0.82646	0.99008	-0.128
Mof_C 	C 	0.58224	0.82324	0.99572	0.07
Mof_C 	C 	0.52566	0.78556	0.05368	-0.069
Mof_C 	C 	0.46459	0.78229	0.05922	-0.068
Mof_C 	C 	0.45547	0.81857	0.00586	0.071
Mof_C 	C 	0.5115	0.858	0.9486	-0.073
Mof_C 	C 	0.57283	0.86043	0.94314	-0.068
Mof_C 	C 	0.39152	0.81542	0.01116	-0.125
Mof_C 	C 	0.3811	0.85528	0.96024	0.129
Mof_C 	C 	0.33404	0.77464	0.06712	0.107
Mof_C 	C 	0.54391	0.04356	0.7296	0.05
Mof_C 	C 	0.61066	0.04266	0.70788	-0.109
Mof_C 	C 	0.62539	0.98379	0.73202	-0.018
Mof_C 	C 	0.57644	0.92554	0.77632	-0.025
Mof_C 	C 	0.5102	0.9257	0.7978	-0.109
Mof_C 	C 	0.49504	0.98667	0.77406	0.052
Mof_C 	C 	0.50385	0.22795	0.5519	0.058
Mof_C 	C 	0.56343	0.25993	0.49554	-0.101
Mof_C 	C 	0.55995	0.28355	0.4409	-0.02
Mof_C 	C 	0.70929	0.20279	0.43142	0.107
Mof_C 	C 	0.65304	0.15591	0.54272	0.13
Mof_C 	C 	0.68346	0.14596	0.49008	-0.127
Mof_C 	C 	0.68104	0.08224	0.49572	0.071
Mof_C 	C 	0.66076	0.02566	0.55368	-0.071
Mof_C 	C 	0.65849	0.96459	0.55922	-0.067
Mof_C 	C 	0.67557	0.95547	0.50586	0.07
Mof_C 	C 	0.6934	0.0115	0.4486	-0.071
Mof_C 	C 	0.69643	0.07283	0.44314	-0.07
Mof_C 	C 	0.67342	0.89152	0.51116	-0.125
Mof_C 	C 	0.68448	0.8811	0.46024	0.13
Mof_C 	C 	0.65824	0.83404	0.56712	0.107
Mof_C 	C 	0.22649	0.22684	0.7296	0.05
Mof_C 	C 	0.18146	0.24946	0.70788	-0.11
Mof_C 	C 	0.14259	0.28419	0.73202	-0.017
Mof_C 	C 	0.14724	0.29814	0.77632	-0.025
Mof_C 	C 	0.192	0.2765	0.7978	-0.109
Mof_C 	C 	0.2309	0.23927	0.77406	0.053
Mof_C 	C 	0.44425	0.22015	0.5519	0.058
Mof_C 	C 	0.44103	0.24453	0.49554	-0.101
Mof_C 	C 	0.49915	0.27555	0.4409	-0.02
Mof_C 	C 	0.35929	0.36579	0.43142	0.108
Mof_C 	C 	0.30424	0.30137	0.54272	0.13
Mof_C 	C 	0.32646	0.36396	0.49008	-0.127
Mof_C 	C 	0.32324	0.42204	0.49572	0.072
Mof_C 	C 	0.28556	0.42066	0.55368	-0.072
Mof_C 	C 	0.28229	0.47619	0.55922	-0.066
Mof_C 	C 	0.31857	0.53867	0.50586	0.07
Mof_C 	C 	0.358	0.5399	0.4486	-0.071
Mof_C 	C 	0.36043	0.48403	0.44314	-0.07
Mof_C 	C 	0.31542	0.59732	0.51116	-0.125
Mof_C 	C 	0.35528	0.65866	0.46024	0.13
Mof_C 	C 	0.27464	0.59884	0.56712	0.107
Mof_N 	N 	0.31007	0.98716	0.78422	-0.222
Mof_N 	N 	0.31925	0.0512	0.74952	-0.183
Mof_N 	N 	0.29053	0.06398	0.71358	-0.224
Mof_N 	N 	0.31261	0.00885	0.88722	-0.209
Mof_N 	N 	0.13177	0.77027	0.11646	-0.141
Mof_N 	N 	0.25037	0.87429	0.91618	-0.269
Mof_N 	N 	0.79127	0.80717	0.08096	-0.268
Mof_N 	N 	0.90209	0.85459	0.88622	-0.146
Mof_N 	N 	0.40571	0.22862	0.78422	-0.222
Mof_N 	N 	0.43123	0.19928	0.74952	-0.183
Mof_N 	N 	0.49589	0.22244	0.71358	-0.223
Mof_N 	N 	0.30017	0.10393	0.88722	-0.211
Mof_N 	N 	0.25177	0.11327	0.11646	-0.141
Mof_N 	N 	0.33345	0.20953	0.91618	-0.269
Mof_N 	N 	0.62777	0.11187	0.08096	-0.268
Mof_N 	N 	0.71169	0.25919	0.88622	-0.146
Mof_N 	N 	0.48716	0.90571	0.28422	-0.222
Mof_N 	N 	0.5512	0.93123	0.24952	-0.183
Mof_N 	N 	0.56398	0.99589	0.21358	-0.223
Mof_N 	N 	0.50885	0.80017	0.38722	-0.21
Mof_N 	N 	0.27027	0.75177	0.61646	-0.141
Mof_N 	N 	0.37429	0.83345	0.41618	-0.269
Mof_N 	N 	0.30717	0.12777	0.58096	-0.268
Mof_N 	N 	0.35459	0.21169	0.38622	-0.146
Mof_N 	N 	0.72862	0.81007	0.28422	-0.222
Mof_N 	N 	0.69928	0.81925	0.24952	-0.183
Mof_N 	N 	0.72244	0.79053	0.21358	-0.223
Mof_N 	N 	0.60393	0.81261	0.38722	-0.21
Mof_N 	N 	0.61327	0.63177	0.61646	-0.141
Mof_N 	N 	0.70953	0.75037	0.41618	-0.269
Mof_N 	N 	0.61187	0.29127	0.58096	-0.268
Mof_N 	N 	0.75919	0.40209	0.38622	-0.146
Mof_N 	N 	0.68993	0.01284	0.21578	-0.222
Mof_N 	N 	0.68075	0.9488	0.25048	-0.183
Mof_N 	N 	0.70947	0.93602	0.28642	-0.224
Mof_N 	N 	0.68739	0.99115	0.11278	-0.209
Mof_N 	N 	0.86823	0.22973	0.88354	-0.141
Mof_N 	N 	0.74963	0.12571	0.08382	-0.269
Mof_N 	N 	0.20873	0.19283	0.91904	-0.268
Mof_N 	N 	0.09791	0.14541	0.11378	-0.146
Mof_N 	N 	0.59429	0.77138	0.21578	-0.222
Mof_N 	N 	0.56877	0.80072	0.25048	-0.183
Mof_N 	N 	0.50411	0.77756	0.28642	-0.223
Mof_N 	N 	0.69983	0.89607	0.11278	-0.211
Mof_N 	N 	0.74823	0.88673	0.88354	-0.141
Mof_N 	N 	0.66655	0.79047	0.08382	-0.269
Mof_N 	N 	0.37223	0.88813	0.91904	-0.268
Mof_N 	N 	0.28831	0.74081	0.11378	-0.146
Mof_N 	N 	0.51284	0.09429	0.71578	-0.222
Mof_N 	N 	0.4488	0.06877	0.75048	-0.183
Mof_N 	N 	0.43602	0.00411	0.78642	-0.223
Mof_N 	N 	0.49115	0.19983	0.61278	-0.21
Mof_N 	N 	0.72973	0.24823	0.38354	-0.141
Mof_N 	N 	0.62571	0.16655	0.58382	-0.269
Mof_N 	N 	0.69283	0.87223	0.41904	-0.268
Mof_N 	N 	0.64541	0.78831	0.61378	-0.146
Mof_N 	N 	0.27138	0.18993	0.71578	-0.222
Mof_N 	N 	0.30072	0.18075	0.75048	-0.183
Mof_N 	N 	0.27756	0.20947	0.78642	-0.223
Mof_N 	N 	0.39607	0.18739	0.61278	-0.21
Mof_N 	N 	0.38673	0.36823	0.38354	-0.141
Mof_N 	N 	0.29047	0.24963	0.58382	-0.269
Mof_N 	N 	0.38813	0.70873	0.41904	-0.268
Mof_N 	N 	0.24081	0.59791	0.61378	-0.146
Mof_N 	N 	0.32371	0.07371	0.85258	-0.178
Mof_N 	N 	0.57371	0.82371	0.35258	-0.179
Mof_N 	N 	0.67629	0.92629	0.14742	-0.178
Mof_N 	N 	0.42629	0.17629	0.64742	-0.179
Mof_Co	Co	0.19292	0.55729	0.14986	1.098
Mof_Co	Co	0.15722	0.29285	0.14986	1.098
Mof_Co	Co	0.79285	0.69292	0.64986	1.098
Mof_Co	Co	0.05729	0.65722	0.64986	1.098
Mof_Co	Co	0.80708	0.44271	0.85014	1.098
Mof_Co	Co	0.84278	0.70715	0.85014	1.098
Mof_Co	Co	0.20715	0.30708	0.35014	1.098
Mof_Co	Co	0.94271	0.34278	0.35014	1.098
Mof_Co	Co	0.125	0.375	0.25	1.081
Mof_Co	Co	0.875	0.625	0.75	1.081
Mof_H 	H 	0.0808	0.6433	0.1782	0.057
Mof_H 	H 	0.9817	0.6692	0.219	0.035
Mof_H 	H 	0.886	0.5888	0.2914	0.036
Mof_H 	H 	0.8873	0.4777	0.3264	0.054
Mof_H 	H 	0.2648	0.6033	0.9954	0.062
Mof_H 	H 	0.3054	0.5982	0.903	0.045
Mof_H 	H 	0.0304	0.6485	0.0892	0.058
Mof_H 	H 	0.9284	0.6457	0.098	0.058
Mof_H 	H 	0.0067	0.7035	0.9134	0.058
Mof_H 	H 	0.1091	0.7088	0.9044	0.059
Mof_H 	H 	0.241	0.1785	0.1782	0.057
Mof_H 	H 	0.2993	0.1118	0.219	0.035
Mof_H 	H 	0.3226	0.1198	0.2914	0.036
Mof_H 	H 	0.2863	0.1959	0.3264	0.054
Mof_H 	H 	0.2398	0.4013	0.9954	0.062
Mof_H 	H 	0.2916	0.4988	0.903	0.045
Mof_H 	H 	0.3804	0.2623	0.0892	0.059
Mof_H 	H 	0.4736	0.2563	0.098	0.058
Mof_H 	H 	0.5799	0.3831	0.9134	0.057
Mof_H 	H 	0.4865	0.3868	0.9044	0.059
Mof_H 	H 	0.6785	0.5808	0.6782	0.057
Mof_H 	H 	0.6118	0.4817	0.719	0.035
Mof_H 	H 	0.6198	0.386	0.7914	0.036
Mof_H 	H 	0.6959	0.3873	0.8264	0.054
Mof_H 	H 	0.9013	0.7648	0.4954	0.062
Mof_H 	H 	0.9988	0.8054	0.403	0.045
Mof_H 	H 	0.7623	0.5304	0.5892	0.058
Mof_H 	H 	0.7563	0.4284	0.598	0.058
Mof_H 	H 	0.8831	0.5067	0.4134	0.058
Mof_H 	H 	0.8868	0.6091	0.4044	0.059
Mof_H 	H 	0.1433	0.741	0.6782	0.057
Mof_H 	H 	0.1692	0.7993	0.719	0.036
Mof_H 	H 	0.0888	0.8226	0.7914	0.035
Mof_H 	H 	0.9777	0.7863	0.8264	0.054
Mof_H 	H 	0.1033	0.7398	0.4954	0.061
Mof_H 	H 	0.0982	0.7916	0.403	0.045
Mof_H 	H 	0.1485	0.8804	0.5892	0.058
Mof_H 	H 	0.1457	0.9736	0.598	0.058
Mof_H 	H 	0.2035	0.0799	0.4134	0.058
Mof_H 	H 	0.2088	0.9865	0.4044	0.059
Mof_H 	H 	0.9192	0.3567	0.8218	0.057
Mof_H 	H 	0.0183	0.3308	0.781	0.035
Mof_H 	H 	0.114	0.4112	0.7086	0.036
Mof_H 	H 	0.1127	0.5223	0.6736	0.054
Mof_H 	H 	0.7352	0.3967	0.0046	0.062
Mof_H 	H 	0.6946	0.4018	0.097	0.045
Mof_H 	H 	0.9696	0.3515	0.9108	0.058
Mof_H 	H 	0.0716	0.3543	0.902	0.058
Mof_H 	H 	0.9933	0.2965	0.0866	0.058
Mof_H 	H 	0.8909	0.2912	0.0956	0.059
Mof_H 	H 	0.759	0.8215	0.8218	0.057
Mof_H 	H 	0.7007	0.8882	0.781	0.035
Mof_H 	H 	0.6774	0.8802	0.7086	0.036
Mof_H 	H 	0.7137	0.8041	0.6736	0.054
Mof_H 	H 	0.7602	0.5987	0.0046	0.062
Mof_H 	H 	0.7084	0.5012	0.097	0.045
Mof_H 	H 	0.6196	0.7377	0.9108	0.059
Mof_H 	H 	0.5264	0.7437	0.902	0.058
Mof_H 	H 	0.4201	0.6169	0.0866	0.057
Mof_H 	H 	0.5135	0.6132	0.0956	0.059
Mof_H 	H 	0.3215	0.4192	0.3218	0.057
Mof_H 	H 	0.3882	0.5183	0.281	0.035
Mof_H 	H 	0.3802	0.614	0.2086	0.036
Mof_H 	H 	0.3041	0.6127	0.1736	0.054
Mof_H 	H 	0.0987	0.2352	0.5046	0.062
Mof_H 	H 	0.0012	0.1946	0.597	0.045
Mof_H 	H 	0.2377	0.4696	0.4108	0.058
Mof_H 	H 	0.2437	0.5716	0.402	0.058
Mof_H 	H 	0.1169	0.4933	0.5866	0.058
Mof_H 	H 	0.1132	0.3909	0.5956	0.059
Mof_H 	H 	0.8567	0.259	0.3218	0.057
Mof_H 	H 	0.8308	0.2007	0.281	0.036
Mof_H 	H 	0.9112	0.1774	0.2086	0.035
Mof_H 	H 	0.0223	0.2137	0.1736	0.054
Mof_H 	H 	0.8967	0.2602	0.5046	0.061
Mof_H 	H 	0.9018	0.2084	0.597	0.045
Mof_H 	H 	0.8515	0.1196	0.4108	0.058
Mof_H 	H 	0.8543	0.0264	0.402	0.058
Mof_H 	H 	0.7965	0.9201	0.5866	0.058
Mof_H 	H 	0.7912	0.0135	0.5956	0.059
Mof_C 	C 	0.04356	0.54391	0.2296	0.05
Mof_C 	C 	0.04266	0.61066	0.20788	-0.11
Mof_C 	C 	0.98379	0.62539	0.23202	-0.017
Mof_C 	C 	0.92554	0.57644	0.27632	-0.025
Mof_C 	C 	0.9257	0.5102	0.2978	-0.109
Mof_C 	C 	0.98667	0.49504	0.27406	0.053
Mof_C 	C 	0.22795	0.50385	0.0519	0.059
Mof_C 	C 	0.25993	0.56343	0.99554	-0.101
Mof_C 	C 	0.28355	0.55995	0.9409	-0.02
Mof_C 	C 	0.20279	0.70929	0.93142	0.107
Mof_C 	C 	0.15591	0.65304	0.04272	0.131
Mof_C 	C 	0.14596	0.68346	0.99008	-0.127
Mof_C 	C 	0.08224	0.68104	0.99572	0.07
Mof_C 	C 	0.02566	0.66076	0.05368	-0.069
Mof_C 	C 	0.96459	0.65849	0.05922	-0.068
Mof_C 	C 	0.95547	0.67557	0.00586	0.071
Mof_C 	C 	0.0115	0.6934	0.9486	-0.073
Mof_C 	C 	0.07283	0.69643	0.94314	-0.069
Mof_C 	C 	0.89152	0.67342	0.01116	-0.125
Mof_C 	C 	0.8811	0.68448	0.96024	0.13
Mof_C 	C 	0.83404	0.65824	0.06712	0.107
Mof_C 	C 	0.22684	0.22649	0.2296	0.05
Mof_C 	C 	0.24946	0.18146	0.20788	-0.11
Mof_C 	C 	0.28419	0.14259	0.23202	-0.017
Mof_C 	C 	0.29814	0.14724	0.27632	-0.025
Mof_C 	C 	0.2765	0.192	0.2978	-0.109
Mof_C 	C 	0.23927	0.2309	0.27406	0.053
Mof_C 	C 	0.22015	0.44425	0.0519	0.058
Mof_C 	C 	0.24453	0.44103	0.99554	-0.101
Mof_C 	C 	0.27555	0.49915	0.9409	-0.02
Mof_C 	C 	0.36579	0.35929	0.93142	0.108
Mof_C 	C 	0.30137	0.30424	0.04272	0.13
Mof_C 	C 	0.36396	0.32646	0.99008	-0.127
Mof_C 	C 	0.42204	0.32324	0.99572	0.073
Mof_C 	C 	0.42066	0.28556	0.05368	-0.073
Mof_C 	C 	0.47619	0.28229	0.05922	-0.066
Mof_C 	C 	0.53867	0.31857	0.00586	0.069
Mof_C 	C 	0.5399	0.358	0.9486	-0.07
Mof_C 	C 	0.48403	0.36043	0.94314	-0.071
Mof_C 	C 	0.59732	0.31542	0.01116	-0.125
Mof_C 	C 	0.65866	0.35528	0.96024	0.13
Mof_C 	C 	0.59884	0.27464	0.06712	0.106
Mof_C 	C 	0.72649	0.54356	0.7296	0.05
Mof_C 	C 	0.68146	0.54266	0.70788	-0.11
Mof_C 	C 	0.64259	0.48379	0.73202	-0.017
Mof_C 	C 	0.64724	0.42554	0.77632	-0.025
Mof_C 	C 	0.692	0.4257	0.7978	-0.109
Mof_C 	C 	0.7309	0.48667	0.77406	0.053
Mof_C 	C 	0.94425	0.72795	0.5519	0.058
Mof_C 	C 	0.94103	0.75993	0.49554	-0.101
Mof_C 	C 	0.99915	0.78355	0.4409	-0.02
Mof_C 	C 	0.85929	0.70279	0.43142	0.107
Mof_C 	C 	0.80424	0.65591	0.54272	0.13
Mof_C 	C 	0.82646	0.64596	0.49008	-0.127
Mof_C 	C 	0.82324	0.58224	0.49572	0.072
Mof_C 	C 	0.78556	0.52566	0.55368	-0.072
Mof_C 	C 	0.78229	0.46459	0.55922	-0.066
Mof_C 	C 	0.81857	0.45547	0.50586	0.07
Mof_C 	C 	0.858	0.5115	0.4486	-0.071
Mof_C 	C 	0.86043	0.57283	0.44314	-0.07
Mof_C 	C 	0.81542	0.39152	0.51116	-0.125
Mof_C 	C 	0.85528	0.3811	0.46024	0.13
Mof_C 	C 	0.77464	0.33404	0.56712	0.107
Mof_C 	C 	0.04391	0.72684	0.7296	0.049
Mof_C 	C 	0.11066	0.74946	0.70788	-0.109
Mof_C 	C 	0.12539	0.78419	0.73202	-0.018
Mof_C 	C 	0.07644	0.79814	0.77632	-0.024
Mof_C 	C 	0.0102	0.7765	0.7978	-0.111
Mof_C 	C 	0.99504	0.73927	0.77406	0.054
Mof_C 	C 	0.00385	0.72015	0.5519	0.058
Mof_C 	C 	0.06343	0.74453	0.49554	-0.1
Mof_C 	C 	0.05995	0.77555	0.4409	-0.02
Mof_C 	C 	0.20929	0.86579	0.43142	0.108
Mof_C 	C 	0.15304	0.80137	0.54272	0.13
Mof_C 	C 	0.18346	0.86396	0.49008	-0.127
Mof_C 	C 	0.18104	0.92204	0.49572	0.072
Mof_C 	C 	0.16076	0.92066	0.55368	-0.071
Mof_C 	C 	0.15849	0.97619	0.55922	-0.067
Mof_C 	C 	0.17557	0.03867	0.50586	0.07
Mof_C 	C 	0.1934	0.0399	0.4486	-0.071
Mof_C 	C 	0.19643	0.98403	0.44314	-0.07
Mof_C 	C 	0.17342	0.09732	0.51116	-0.125
Mof_C 	C 	0.18448	0.15866	0.46024	0.13
Mof_C 	C 	0.15824	0.09884	0.56712	0.107
Mof_C 	C 	0.95644	0.45609	0.7704	0.05
Mof_C 	C 	0.95734	0.38934	0.79212	-0.11
Mof_C 	C 	0.01621	0.37461	0.76798	-0.017
Mof_C 	C 	0.07446	0.42356	0.72368	-0.025
Mof_C 	C 	0.0743	0.4898	0.7022	-0.109
Mof_C 	C 	0.01333	0.50496	0.72594	0.053
Mof_C 	C 	0.77205	0.49615	0.9481	0.059
Mof_C 	C 	0.74007	0.43657	0.00446	-0.101
Mof_C 	C 	0.71645	0.44005	0.0591	-0.02
Mof_C 	C 	0.79721	0.29071	0.06858	0.107
Mof_C 	C 	0.84409	0.34696	0.95728	0.131
Mof_C 	C 	0.85404	0.31654	0.00992	-0.127
Mof_C 	C 	0.91776	0.31896	0.00428	0.07
Mof_C 	C 	0.97434	0.33924	0.94632	-0.069
Mof_C 	C 	0.03541	0.34151	0.94078	-0.068
Mof_C 	C 	0.04453	0.32443	0.99414	0.071
Mof_C 	C 	0.9885	0.3066	0.0514	-0.073
Mof_C 	C 	0.92717	0.30357	0.05686	-0.069
Mof_C 	C 	0.10848	0.32658	0.98884	-0.125
Mof_C 	C 	0.1189	0.31552	0.03976	0.13
Mof_C 	C 	0.16596	0.34176	0.93288	0.107
Mof_C 	C 	0.77316	0.77351	0.7704	0.05
Mof_C 	C 	0.75054	0.81854	0.79212	-0.11
Mof_C 	C 	0.71581	0.85741	0.76798	-0.017
Mof_C 	C 	0.70186	0.85276	0.72368	-0.025
Mof_C 	C 	0.7235	0.808	0.7022	-0.109
Mof_C 	C 	0.76073	0.7691	0.72594	0.053
Mof_C 	C 	0.77985	0.55575	0.9481	0.058
Mof_C 	C 	0.75547	0.55897	0.00446	-0.101
Mof_C 	C 	0.72445	0.50085	0.0591	-0.02
Mof_C 	C 	0.63421	0.64071	0.06858	0.108
Mof_C 	C 	0.69863	0.69576	0.95728	0.13
Mof_C 	C 	0.63604	0.67354	0.00992	-0.127
Mof_C 	C 	0.57796	0.67676	0.00428	0.073
Mof_C 	C 	0.57934	0.71444	0.94632	-0.073
Mof_C 	C 	0.52381	0.71771	0.94078	-0.066
Mof_C 	C 	0.46133	0.68143	0.99414	0.069
Mof_C 	C 	0.4601	0.642	0.0514	-0.07
Mof_C 	C 	0.51597	0.63957	0.05686	-0.071
Mof_C 	C 	0.40268	0.68458	0.98884	-0.125
Mof_C 	C 	0.34134	0.64472	0.03976	0.13
Mof_C 	C 	0.40116	0.72536	0.93288	0.106
Mof_C 	C 	0.27351	0.45644	0.2704	0.05
Mof_C 	C 	0.31854	0.45734	0.29212	-0.11
Mof_C 	C 	0.35741	0.51621	0.26798	-0.017
Mof_C 	C 	0.35276	0.57446	0.22368	-0.025
Mof_C 	C 	0.308	0.5743	0.2022	-0.109
Mof_C 	C 	0.2691	0.51333	0.22594	0.053
Mof_C 	C 	0.05575	0.27205	0.4481	0.058
Mof_C 	C 	0.05897	0.24007	0.50446	-0.101
Mof_C 	C 	0.00085	0.21645	0.5591	-0.02
Mof_C 	C 	0.14071	0.29721	0.56858	0.107
Mof_C 	C 	0.19576	0.34409	0.45728	0.13
Mof_C 	C 	0.17354	0.35404	0.50992	-0.127
Mof_C 	C 	0.17676	0.41776	0.50428	0.072
Mof_C 	C 	0.21444	0.47434	0.44632	-0.072
Mof_C 	C 	0.21771	0.53541	0.44078	-0.066
Mof_C 	C 	0.18143	0.54453	0.49414	0.07
Mof_C 	C 	0.142	0.4885	0.5514	-0.071
Mof_C 	C 	0.13957	0.42717	0.55686	-0.07
Mof_C 	C 	0.18458	0.60848	0.48884	-0.125
Mof_C 	C 	0.14472	0.6189	0.53976	0.13
Mof_C 	C 	0.22536	0.66596	0.43288	0.107
Mof_C 	C 	0.95609	0.27316	0.2704	0.049
Mof_C 	C 	0.88934	0.25054	0.29212	-0.109
Mof_C 	C 	0.87461	0.21581	0.26798	-0.018
Mof_C 	C 	0.92356	0.20186	0.22368	-0.024
Mof_C 	C 	0.9898	0.2235	0.2022	-0.111
Mof_C 	C 	0.00496	0.26073	0.22594	0.054
Mof_C 	C 	0.99615	0.27985	0.4481	0.058
Mof_C 	C 	0.93657	0.25547	0.50446	-0.1
Mof_C 	C 	0.94005	0.22445	0.5591	-0.02
Mof_C 	C 	0.79071	0.13421	0.56858	0.108
Mof_C 	C 	0.84696	0.19863	0.45728	0.13
Mof_C 	C 	0.81654	0.13604	0.50992	-0.127
Mof_C 	C 	0.81896	0.07796	0.50428	0.072
Mof_C 	C 	0.83924	0.07934	0.44632	-0.071
Mof_C 	C 	0.84151	0.02381	0.44078	-0.067
Mof_C 	C 	0.82443	0.96133	0.49414	0.07
Mof_C 	C 	0.8066	0.9601	0.5514	-0.071
Mof_C 	C 	0.80357	0.01597	0.55686	-0.07
Mof_C 	C 	0.82658	0.90268	0.48884	-0.125
Mof_C 	C 	0.81552	0.84134	0.53976	0.13
Mof_C 	C 	0.84176	0.90116	0.43288	0.107
Mof_N 	N 	0.09429	0.51284	0.21578	-0.222
Mof_N 	N 	0.06877	0.4488	0.25048	-0.183
Mof_N 	N 	0.00411	0.43602	0.28642	-0.223
Mof_N 	N 	0.19983	0.49115	0.11278	-0.21
Mof_N 	N 	0.24823	0.72973	0.88354	-0.141
Mof_N 	N 	0.16655	0.62571	0.08382	-0.269
Mof_N 	N 	0.87223	0.69283	0.91904	-0.268
Mof_N 	N 	0.78831	0.64541	0.11378	-0.146
Mof_N 	N 	0.18993	0.27138	0.21578	-0.222
Mof_N 	N 	0.18075	0.30072	0.25048	-0.183
Mof_N 	N 	0.20947	0.27756	0.28642	-0.223
Mof_N 	N 	0.18739	0.39607	0.11278	-0.21
Mof_N 	N 	0.36823	0.38673	0.88354	-0.141
Mof_N 	N 	0.24963	0.29047	0.08382	-0.269
Mof_N 	N 	0.70873	0.38813	0.91904	-0.268
Mof_N 	N 	0.59791	0.24081	0.11378	-0.146
Mof_N 	N 	0.77138	0.59429	0.71578	-0.222
Mof_N 	N 	0.80072	0.56877	0.75048	-0.183
Mof_N 	N 	0.77756	0.50411	0.78642	-0.223
Mof_N 	N 	0.89607	0.69983	0.61278	-0.21
Mof_N 	N 	0.88673	0.74823	0.38354	-0.141
Mof_N 	N 	0.79047	0.66655	0.58382	-0.269
Mof_N 	N 	0.88813	0.37223	0.41904	-0.268
Mof_N 	N 	0.74081	0.28831	0.61378	-0.146
Mof_N 	N 	0.01284	0.68993	0.71578	-0.222
Mof_N 	N 	0.9488	0.68075	0.75048	-0.183
Mof_N 	N 	0.93602	0.70947	0.78642	-0.224
Mof_N 	N 	0.99115	0.68739	0.61278	-0.21
Mof_N 	N 	0.22973	0.86823	0.38354	-0.141
Mof_N 	N 	0.12571	0.74963	0.58382	-0.269
Mof_N 	N 	0.19283	0.20873	0.41904	-0.268
Mof_N 	N 	0.14541	0.09791	0.61378	-0.146
Mof_N 	N 	0.90571	0.48716	0.78422	-0.222
Mof_N 	N 	0.93123	0.5512	0.74952	-0.183
Mof_N 	N 	0.99589	0.56398	0.71358	-0.223
Mof_N 	N 	0.80017	0.50885	0.88722	-0.21
Mof_N 	N 	0.75177	0.27027	0.11646	-0.141
Mof_N 	N 	0.83345	0.37429	0.91618	-0.269
Mof_N 	N 	0.12777	0.30717	0.08096	-0.268
Mof_N 	N 	0.21169	0.35459	0.88622	-0.146
Mof_N 	N 	0.81007	0.72862	0.78422	-0.222
Mof_N 	N 	0.81925	0.69928	0.74952	-0.183
Mof_N 	N 	0.79053	0.72244	0.71358	-0.223
Mof_N 	N 	0.81261	0.60393	0.88722	-0.21
Mof_N 	N 	0.63177	0.61327	0.11646	-0.141
Mof_N 	N 	0.75037	0.70953	0.91618	-0.269
Mof_N 	N 	0.29127	0.61187	0.08096	-0.268
Mof_N 	N 	0.40209	0.75919	0.88622	-0.146
Mof_N 	N 	0.22862	0.40571	0.28422	-0.222
Mof_N 	N 	0.19928	0.43123	0.24952	-0.183
Mof_N 	N 	0.22244	0.49589	0.21358	-0.223
Mof_N 	N 	0.10393	0.30017	0.38722	-0.21
Mof_N 	N 	0.11327	0.25177	0.61646	-0.141
Mof_N 	N 	0.20953	0.33345	0.41618	-0.269
Mof_N 	N 	0.11187	0.62777	0.58096	-0.268
Mof_N 	N 	0.25919	0.71169	0.38622	-0.146
Mof_N 	N 	0.98716	0.31007	0.28422	-0.222
Mof_N 	N 	0.0512	0.31925	0.24952	-0.183
Mof_N 	N 	0.06398	0.29053	0.21358	-0.224
Mof_N 	N 	0.00885	0.31261	0.38722	-0.21
Mof_N 	N 	0.77027	0.13177	0.61646	-0.141
Mof_N 	N 	0.87429	0.25037	0.41618	-0.269
Mof_N 	N 	0.80717	0.79127	0.58096	-0.268
Mof_N 	N 	0.85459	0.90209	0.38622	-0.146
Mof_N 	N 	0.17629	0.42629	0.14742	-0.179
Mof_N 	N 	0.92629	0.67629	0.64742	-0.179
Mof_N 	N 	0.82371	0.57371	0.85258	-0.179
Mof_N 	N 	0.07371	0.32371	0.35258	-0.179
_end
