data_functionalizedCrystal
_audit_creation_method	'EQeq! by Chris Wilmer'
_symmetry_space_group_name_H-M	'P1'
_symmetry_Int_Tables_number	1
_symmetry_cell_setting	triclinic
loop_
_symmetry_equiv_pos_as_xyz
  x,y,z
_cell_length_a	7.412
_cell_length_b	16.4666
_cell_length_c	14.5028
_cell_angle_alpha	90
_cell_angle_beta	95.352
_cell_angle_gamma	90
loop_
_atom_site_label
_atom_site_type_symbol
_atom_site_fract_x
_atom_site_fract_y
_atom_site_fract_z
_atom_site_charge
Mof_Co	Co	0.70914	0.01325	0.67671	1.133
Mof_Co	Co	0.68901	0.12792	0.47337	1.167
Mof_O 	O 	0.7411	0.01656	0.54	-0.59
Mof_O 	O 	0.514	0.10296	0.68147	-0.455
Mof_O 	O 	0.463	0.15546	0.53953	-0.439
Mof_O 	O 	0.0193	0.41761	0.86439	-0.467
Mof_O 	O 	0.1021	0.09416	0.58245	-0.443
Mof_O 	O 	0.9314	0.45194	0.7225	-0.34
Mof_O 	O 	0.4006	0.41528	0.89689	-0.523
Mof_O 	O 	0.8731	0.18302	0.56473	-0.441
Mof_O 	O 	0.5923	0.42304	0.78864	-0.437
Mof_C 	C 	0.4426	0.15208	0.6247	0.398
Mof_C 	C 	0.3373	0.34009	0.75787	-0.13
Mof_C 	C 	0.1441	0.22485	0.64697	-0.016
Mof_C 	C 	0.4525	0.39785	0.81845	0.413
Mof_C 	C 	0.3314	0.21897	0.66296	-0.097
Mof_C 	C 	0.0566	0.28984	0.68348	-0.095
Mof_H 	H 	0.9323	0.2956	0.6692	0.1
Mof_C 	C 	0.0316	0.16223	0.59279	0.306
Mof_C 	C 	0.426	0.27748	0.71695	0.05
Mof_H 	H 	0.5517	0.2746	0.7258	0.026
Mof_C 	C 	0.1476	0.34654	0.74038	-0.024
Mof_C 	C 	0.0301	0.41013	0.77859	0.274
Mof_Co	Co	0.79086	0.51325	0.82329	1.16
Mof_Co	Co	0.81099	0.62792	0.02663	1.137
Mof_O 	O 	0.7589	0.51656	0.96	-0.522
Mof_O 	O 	0.986	0.60296	0.81853	-0.402
Mof_O 	O 	0.037	0.65546	0.96047	-0.396
Mof_O 	O 	0.4807	0.91761	0.63561	-0.461
Mof_O 	O 	0.3979	0.59416	0.91755	-0.411
Mof_O 	O 	0.5686	0.95194	0.7775	-0.332
Mof_O 	O 	0.0994	0.91528	0.60311	-0.521
Mof_O 	O 	0.6269	0.68302	0.93527	-0.439
Mof_O 	O 	0.9077	0.92304	0.71136	-0.38
Mof_C 	C 	0.0574	0.65208	0.8753	0.335
Mof_C 	C 	0.1627	0.84009	0.74213	-0.064
Mof_C 	C 	0.3559	0.72485	0.85303	-0.068
Mof_C 	C 	0.0475	0.89785	0.68155	0.357
Mof_C 	C 	0.1686	0.71897	0.83704	-0.026
Mof_C 	C 	0.4434	0.78984	0.81652	0.012
Mof_H 	H 	0.5677	0.7956	0.8308	0.054
Mof_C 	C 	0.4684	0.66223	0.90721	0.357
Mof_C 	C 	0.074	0.77748	0.78305	-0.059
Mof_H 	H 	0.9483	0.7746	0.7742	0.081
Mof_C 	C 	0.3524	0.84654	0.75962	-0.078
Mof_C 	C 	0.4699	0.91013	0.72141	0.328
Mof_Co	Co	0.29086	0.98675	0.32329	1.178
Mof_Co	Co	0.31099	0.87208	0.52663	1.167
Mof_O 	O 	0.2589	0.98344	0.46	-0.538
Mof_O 	O 	0.486	0.89704	0.31853	-0.428
Mof_O 	O 	0.537	0.84454	0.46047	-0.421
Mof_O 	O 	0.9807	0.58239	0.13561	-0.494
Mof_O 	O 	0.8979	0.90584	0.41755	-0.408
Mof_O 	O 	0.0686	0.54806	0.2775	-0.401
Mof_O 	O 	0.5994	0.58472	0.10311	-0.562
Mof_O 	O 	0.1269	0.81698	0.43527	-0.495
Mof_O 	O 	0.4077	0.57696	0.21136	-0.446
Mof_C 	C 	0.5574	0.84792	0.3753	0.382
Mof_C 	C 	0.6627	0.65991	0.24213	-0.095
Mof_C 	C 	0.8559	0.77515	0.35303	-0.089
Mof_C 	C 	0.5475	0.60215	0.18155	0.405
Mof_C 	C 	0.6686	0.78103	0.33704	-0.052
Mof_C 	C 	0.9434	0.71016	0.31652	0.07
Mof_H 	H 	0.0677	0.7044	0.3308	0.007
Mof_C 	C 	0.9684	0.83777	0.40721	0.393
Mof_C 	C 	0.574	0.72252	0.28305	0.009
Mof_H 	H 	0.4483	0.7254	0.2742	0.032
Mof_C 	C 	0.8524	0.65346	0.25962	-0.105
Mof_C 	C 	0.9699	0.58987	0.22141	0.372
Mof_Co	Co	0.20914	0.48675	0.17671	1.152
Mof_Co	Co	0.18901	0.37208	0.97337	1.194
Mof_O 	O 	0.2411	0.48344	0.04	-0.608
Mof_O 	O 	0.014	0.39704	0.18147	-0.477
Mof_O 	O 	0.963	0.34454	0.03953	-0.463
Mof_O 	O 	0.5193	0.08239	0.36439	-0.497
Mof_O 	O 	0.6021	0.40584	0.08245	-0.443
Mof_O 	O 	0.4314	0.04806	0.2225	-0.408
Mof_O 	O 	0.9006	0.08472	0.39689	-0.559
Mof_O 	O 	0.3731	0.31698	0.06473	-0.497
Mof_O 	O 	0.0923	0.07696	0.28864	-0.499
Mof_C 	C 	0.9426	0.34792	0.1247	0.438
Mof_C 	C 	0.8373	0.15991	0.25787	-0.154
Mof_C 	C 	0.6441	0.27515	0.14697	-0.042
Mof_C 	C 	0.9525	0.10215	0.31845	0.455
Mof_C 	C 	0.8314	0.28103	0.16296	-0.116
Mof_C 	C 	0.5566	0.21016	0.18348	-0.026
Mof_H 	H 	0.4323	0.2044	0.1692	0.049
Mof_C 	C 	0.5316	0.33777	0.09279	0.348
Mof_C 	C 	0.926	0.22252	0.21695	0.107
Mof_H 	H 	0.0517	0.2254	0.2258	-0.018
Mof_C 	C 	0.6476	0.15346	0.24038	-0.056
Mof_C 	C 	0.5301	0.08987	0.27859	0.324
Mof_Co	Co	4.0103e-33	0	0.5	1.137
Mof_Co	Co	0.5	0.5	-0	1.146
_end
