# CIF file generated by openbabel 3.1.0, see https://openbabel.org
data_I
_chemical_name_common 'XUBJAF02_clean'
_cell_length_a 10.5303
_cell_length_b 10.5303
_cell_length_c 10.8801
_cell_angle_alpha 78.9016
_cell_angle_beta 62.4926
_cell_angle_gamma 108.899
_space_group_name_H-M_alt 'P 1'
_space_group_name_Hall 'P 1'
loop_
    _symmetry_equiv_pos_as_xyz
    x,y,z
loop_
    _atom_site_label
    _atom_site_type_symbol
    _atom_site_fract_x
    _atom_site_fract_y
    _atom_site_fract_z
    _atom_site_occupancy
    Eu1      Eu       0.55176    0.36522    0.37971    1.000
    Eu2      Eu       0.24493    0.93147    0.12029    1.000
    Eu3      Eu       0.44824    0.63478    0.62029    1.000
    Eu4      Eu       0.75507    0.06853    0.87971    1.000
    H1       H        0.96840    0.38720    0.31200    1.000
    H2       H        0.10700    0.49270    0.14250    1.000
    H3       H        0.60300    0.45300    0.78800    1.000
    H4       H        0.19920    0.28040    0.18800    1.000
    H5       H        0.13520    0.24950    0.35750    1.000
    H6       H        0.74100    0.39100    0.71200    1.000
    H7       H        0.03160    0.61280    0.68800    1.000
    H8       H        0.89300    0.50730    0.85750    1.000
    H9       H        0.39700    0.54700    0.21200    1.000
    H10      H        0.80080    0.71960    0.81200    1.000
    H11      H        0.86480    0.75050    0.64250    1.000
    H12      H        0.25900    0.60900    0.28800    1.000
    C1       C        0.90240    0.35100    0.16780    1.000
    C2       C        0.99110    0.44910    0.21820    1.000
    C3       C        0.95160    0.57190    0.24370    1.000
    C4       C        0.59950    0.37510    0.62360    1.000
    C5       C        0.01880    0.07020    0.33220    1.000
    C6       C        0.16730    0.20930    0.28180    1.000
    C7       C        0.31560    0.19530    0.25630    1.000
    C8       C        0.49870    0.22310    0.87640    1.000
    C9       C        0.09760    0.64900    0.83220    1.000
    C10      C        0.00890    0.55090    0.78180    1.000
    C11      C        0.04840    0.42810    0.75630    1.000
    C12      C        0.40050    0.62490    0.37640    1.000
    C13      C        0.98120    0.92980    0.66780    1.000
    C14      C        0.83270    0.79070    0.71820    1.000
    C15      C        0.68440    0.80470    0.74370    1.000
    C16      C        0.50130    0.77690    0.12360    1.000
    C17      C        0.62540    0.37540    0.75000    1.000
    C18      C        0.37460    0.62460    0.25000    1.000
    O1       O        0.75370    0.30970    0.22540    1.000
    O2       O        0.98390    0.31260    0.07210    1.000
    O3       O        0.06830    0.68580    0.21410    1.000
    O4       O        0.53890    0.45080    0.59170    1.000
    O5       O        0.63170    0.29320    0.55830    1.000
    O6       O        0.81350    0.55730    0.29180    1.000
    O7       O        0.03510    0.97910    0.27460    1.000
    O8       O        0.88470    0.05600    0.42790    1.000
    O9       O        0.39990    0.28240    0.28590    1.000
    O10      O        0.54250    0.13060    0.90830    1.000
    O11      O        0.35150    0.19000    0.94170    1.000
    O12      O        0.34910    0.10530    0.20820    1.000
    O13      O        0.24630    0.69030    0.77460    1.000
    O14      O        0.01610    0.68740    0.92790    1.000
    O15      O        0.93170    0.31420    0.78590    1.000
    O16      O        0.46110    0.54920    0.40830    1.000
    O17      O        0.36830    0.70680    0.44170    1.000
    O18      O        0.18650    0.44270    0.70820    1.000
    O19      O        0.96490    0.02090    0.72540    1.000
    O20      O        0.11530    0.94400    0.57210    1.000
    O21      O        0.60010    0.71760    0.71410    1.000
    O22      O        0.45750    0.86940    0.09170    1.000
    O23      O        0.64850    0.81000    0.05830    1.000
    O24      O        0.65090    0.89470    0.79180    1.000
