# CIF file generated by openbabel 3.1.0, see https://openbabel.org
data_I
_chemical_name_common 'image0'
_cell_length_a 8.7407
_cell_length_b 33.9886
_cell_length_c 8.6771
_cell_angle_alpha 90
_cell_angle_beta 107.725
_cell_angle_gamma 90
_space_group_name_H-M_alt 'P 1'
_space_group_name_Hall 'P 1'
loop_
    _symmetry_equiv_pos_as_xyz
    x,y,z
loop_
    _atom_site_label
    _atom_site_type_symbol
    _atom_site_fract_x
    _atom_site_fract_y
    _atom_site_fract_z
    _atom_site_occupancy
    Cu1      Cu       0.75056    0.20358    0.48505    1.000
    Cu2      Cu       0.73980    0.04573    0.49924    1.000
    O1       O        0.89473    0.15418    0.61385    1.000
    O2       O        0.85291    0.09015    0.62873    1.000
    O3       O        0.62214    0.15999    0.36275    1.000
    O4       O        0.61336    0.09483    0.34455    1.000
    O5       O        0.62455    0.20662    0.64769    1.000
    O6       O        0.59390    0.24887    0.83124    1.000
    O7       O        0.87701    0.24604    0.62147    1.000
    O8       O        0.86306    0.28760    0.81487    1.000
    O9       O        0.90824    0.04043    0.38239    1.000
    O10      O        0.09030    0.99898    0.34643    1.000
    O11      O        0.57119    0.04163    0.61623    1.000
    O12      O        0.38003    0.99931    0.62748    1.000
    C1       C        0.81980    0.12349    0.56470    1.000
    C2       C        0.67110    0.12601    0.40970    1.000
    C3       C        0.81470    0.25886    0.72450    1.000
    C4       C        0.66440    0.23658    0.73810    1.000
    C5       C        0.00090    0.01105    0.42160    1.000
    C6       C        0.48560    0.01185    0.57060    1.000
    Cu3      Cu       0.24944    0.70358    0.01495    1.000
    Cu4      Cu       0.26020    0.54573    0.00076    1.000
    O13      O        0.10527    0.65418    0.88615    1.000
    O14      O        0.14709    0.59015    0.87127    1.000
    O15      O        0.37786    0.65999    0.13725    1.000
    O16      O        0.38664    0.59483    0.15545    1.000
    O17      O        0.37545    0.70662    0.85231    1.000
    O18      O        0.40610    0.74887    0.66876    1.000
    O19      O        0.12299    0.74604    0.87853    1.000
    O20      O        0.13694    0.78760    0.68513    1.000
    O21      O        0.09176    0.54043    0.11761    1.000
    O22      O        0.90970    0.49898    0.15357    1.000
    O23      O        0.42881    0.54163    0.88377    1.000
    O24      O        0.61997    0.49931    0.87252    1.000
    C7       C        0.18020    0.62349    0.93530    1.000
    C8       C        0.32890    0.62601    0.09030    1.000
    C9       C        0.18530    0.75886    0.77550    1.000
    C10      C        0.33560    0.73658    0.76190    1.000
    C11      C        0.99910    0.51105    0.07840    1.000
    C12      C        0.51440    0.51185    0.92940    1.000
    Cu5      Cu       0.24944    0.79642    0.51495    1.000
    Cu6      Cu       0.26020    0.95427    0.50076    1.000
    O25      O        0.10527    0.84582    0.38615    1.000
    O26      O        0.14709    0.90985    0.37127    1.000
    O27      O        0.37786    0.84001    0.63725    1.000
    O28      O        0.38664    0.90517    0.65545    1.000
    O29      O        0.37545    0.79338    0.35231    1.000
    O30      O        0.40610    0.75113    0.16876    1.000
    O31      O        0.12299    0.75396    0.37853    1.000
    O32      O        0.13694    0.71240    0.18513    1.000
    O33      O        0.09176    0.95957    0.61761    1.000
    O34      O        0.90970    0.00102    0.65357    1.000
    O35      O        0.42881    0.95837    0.38377    1.000
    O36      O        0.61997    0.00069    0.37252    1.000
    C13      C        0.18020    0.87651    0.43530    1.000
    C14      C        0.32890    0.87399    0.59030    1.000
    C15      C        0.18530    0.74114    0.27550    1.000
    C16      C        0.33560    0.76342    0.26190    1.000
    C17      C        0.99910    0.98895    0.57840    1.000
    C18      C        0.51440    0.98815    0.42940    1.000
    Cu7      Cu       0.75056    0.29642    0.98505    1.000
    Cu8      Cu       0.73980    0.45427    0.99924    1.000
    O37      O        0.89473    0.34582    0.11385    1.000
    O38      O        0.85291    0.40985    0.12873    1.000
    O39      O        0.62214    0.34001    0.86275    1.000
    O40      O        0.61336    0.40517    0.84455    1.000
    O41      O        0.62455    0.29338    0.14769    1.000
    O42      O        0.59390    0.25113    0.33124    1.000
    O43      O        0.87701    0.25396    0.12147    1.000
    O44      O        0.86306    0.21240    0.31487    1.000
    O45      O        0.90824    0.45957    0.88239    1.000
    O46      O        0.09030    0.50102    0.84643    1.000
    O47      O        0.57119    0.45837    0.11623    1.000
    O48      O        0.38003    0.50069    0.12748    1.000
    C19      C        0.81980    0.37651    0.06470    1.000
    C20      C        0.67110    0.37399    0.90970    1.000
    C21      C        0.81470    0.24114    0.22450    1.000
    C22      C        0.66440    0.26342    0.23810    1.000
    C23      C        0.00090    0.48895    0.92160    1.000
    C24      C        0.48560    0.48815    0.07060    1.000
