# CIF file generated by openbabel 3.1.0, see https://openbabel.org
data_I
_chemical_name_common 'image0'
_cell_length_a 13.5293
_cell_length_b 13.5293
_cell_length_c 8.0707
_cell_angle_alpha 90
_cell_angle_beta 90
_cell_angle_gamma 120
_space_group_name_H-M_alt 'P 1'
_space_group_name_Hall 'P 1'
loop_
    _symmetry_equiv_pos_as_xyz
    x,y,z
loop_
    _atom_site_label
    _atom_site_type_symbol
    _atom_site_fract_x
    _atom_site_fract_y
    _atom_site_fract_z
    _atom_site_occupancy
    Mn1      Mn       0.30199    0.33804    0.54555    1.000
    O1       O        0.23050    0.18151    0.40740    1.000
    C1       C        0.53510    0.32270    0.54880    1.000
    C2       C        0.35390    0.56000    0.77600    1.000
    O2       O        0.24620    0.05810    0.24740    1.000
    C3       C        0.26780    0.15740    0.28110    1.000
    N1       N        0.34620    0.20800    0.00060    1.000
    H1       H        0.41020    0.25600    0.94520    1.000
    H2       H        0.28550    0.19780    0.94110    1.000
    C4       C        0.34570    0.25410    0.16410    1.000
    H3       H        0.42330    0.28650    0.20800    1.000
    N2       N        0.36620    0.42740    0.30230    1.000
    H4       H        0.34880    0.48330    0.29440    1.000
    H5       H        0.44280    0.46040    0.30050    1.000
    C5       C        0.31930    0.35210    0.15720    1.000
    H6       H        0.35180    0.39620    0.05700    1.000
    H7       H        0.23740    0.32080    0.15330    1.000
    N3       N        0.45630    0.32130    0.60470    1.000
    N4       N        0.36820    0.50060    0.69010    1.000
    Mn2      Mn       0.66196    0.96395    0.54555    1.000
    O3       O        0.81849    0.04899    0.40740    1.000
    C6       C        0.67730    0.21240    0.54880    1.000
    C7       C        0.44000    0.79390    0.77600    1.000
    O4       O        0.94190    0.18810    0.24740    1.000
    C8       C        0.84260    0.11040    0.28110    1.000
    N5       N        0.79200    0.13820    0.00060    1.000
    H8       H        0.74400    0.15420    0.94520    1.000
    H9       H        0.80220    0.08770    0.94110    1.000
    C9       C        0.74590    0.09160    0.16410    1.000
    H10      H        0.71350    0.13680    0.20800    1.000
    N6       N        0.57260    0.93880    0.30230    1.000
    H11      H        0.51670    0.86550    0.29440    1.000
    H12      H        0.53960    0.98240    0.30050    1.000
    C10      C        0.64790    0.96720    0.15720    1.000
    H13      H        0.60380    0.95560    0.05700    1.000
    H14      H        0.67920    0.91660    0.15330    1.000
    N7       N        0.67870    0.13500    0.60470    1.000
    N8       N        0.49940    0.86760    0.69010    1.000
    Mn3      Mn       0.03605    0.69801    0.54555    1.000
    O5       O        0.95101    0.76950    0.40740    1.000
    C11      C        0.78760    0.46490    0.54880    1.000
    C12      C        0.20610    0.64610    0.77600    1.000
    O6       O        0.81190    0.75380    0.24740    1.000
    C13      C        0.88960    0.73220    0.28110    1.000
    N9       N        0.86180    0.65380    0.00060    1.000
    H15      H        0.84580    0.58980    0.94520    1.000
    H16      H        0.91230    0.71450    0.94110    1.000
    C14      C        0.90840    0.65430    0.16410    1.000
    H17      H        0.86320    0.57670    0.20800    1.000
    N10      N        0.06120    0.63380    0.30230    1.000
    H18      H        0.13450    0.65120    0.29440    1.000
    H19      H        0.01760    0.55720    0.30050    1.000
    C15      C        0.03280    0.68070    0.15720    1.000
    H20      H        0.04440    0.64820    0.05700    1.000
    H21      H        0.08340    0.76260    0.15330    1.000
    N11      N        0.86500    0.54370    0.60470    1.000
    N12      N        0.13240    0.63180    0.69010    1.000
    Mn4      Mn       0.69801    0.66196    0.04555    1.000
    O7       O        0.76950    0.81849    0.90740    1.000
    C16      C        0.46490    0.67730    0.04880    1.000
    C17      C        0.64610    0.44000    0.27600    1.000
    O8       O        0.75380    0.94190    0.74740    1.000
    C18      C        0.73220    0.84260    0.78110    1.000
    N13      N        0.65380    0.79200    0.50060    1.000
    H22      H        0.58980    0.74400    0.44520    1.000
    H23      H        0.71450    0.80220    0.44110    1.000
    C19      C        0.65430    0.74590    0.66410    1.000
    H24      H        0.57670    0.71350    0.70800    1.000
    N14      N        0.63380    0.57260    0.80230    1.000
    H25      H        0.65120    0.51670    0.79440    1.000
    H26      H        0.55720    0.53960    0.80050    1.000
    C20      C        0.68070    0.64790    0.65720    1.000
    H27      H        0.64820    0.60380    0.55700    1.000
    H28      H        0.76260    0.67920    0.65330    1.000
    N15      N        0.54370    0.67870    0.10470    1.000
    N16      N        0.63180    0.49940    0.19010    1.000
    Mn5      Mn       0.33804    0.03605    0.04555    1.000
    O9       O        0.18151    0.95101    0.90740    1.000
    C21      C        0.32270    0.78760    0.04880    1.000
    C22      C        0.56000    0.20610    0.27600    1.000
    O10      O        0.05810    0.81190    0.74740    1.000
    C23      C        0.15740    0.88960    0.78110    1.000
    N17      N        0.20800    0.86180    0.50060    1.000
    H29      H        0.25600    0.84580    0.44520    1.000
    H30      H        0.19780    0.91230    0.44110    1.000
    C24      C        0.25410    0.90840    0.66410    1.000
    H31      H        0.28650    0.86320    0.70800    1.000
    N18      N        0.42740    0.06120    0.80230    1.000
    H32      H        0.48330    0.13450    0.79440    1.000
    H33      H        0.46040    0.01760    0.80050    1.000
    C25      C        0.35210    0.03280    0.65720    1.000
    H34      H        0.39620    0.04440    0.55700    1.000
    H35      H        0.32080    0.08340    0.65330    1.000
    N19      N        0.32130    0.86500    0.10470    1.000
    N20      N        0.50060    0.13240    0.19010    1.000
    Mn6      Mn       0.96395    0.30199    0.04555    1.000
    O11      O        0.04899    0.23050    0.90740    1.000
    C26      C        0.21240    0.53510    0.04880    1.000
    C27      C        0.79390    0.35390    0.27600    1.000
    O12      O        0.18810    0.24620    0.74740    1.000
    C28      C        0.11040    0.26780    0.78110    1.000
    N21      N        0.13820    0.34620    0.50060    1.000
    H36      H        0.15420    0.41020    0.44520    1.000
    H37      H        0.08770    0.28550    0.44110    1.000
    C29      C        0.09160    0.34570    0.66410    1.000
    H38      H        0.13680    0.42330    0.70800    1.000
    N22      N        0.93880    0.36620    0.80230    1.000
    H39      H        0.86550    0.34880    0.79440    1.000
    H40      H        0.98240    0.44280    0.80050    1.000
    C30      C        0.96720    0.31930    0.65720    1.000
    H41      H        0.95560    0.35180    0.55700    1.000
    H42      H        0.91660    0.23740    0.65330    1.000
    N23      N        0.13500    0.45630    0.10470    1.000
    N24      N        0.86760    0.36820    0.19010    1.000
    Mn7      Mn       0.33333    0.66667    0.92128    1.000
    Mn8      Mn       0.66667    0.33333    0.42128    1.000
