# CIF file generated by openbabel 3.1.0, see https://openbabel.org
data_I
_chemical_name_common 'image0'
_cell_length_a 13.4154
_cell_length_b 13.4154
_cell_length_c 13.4154
_cell_angle_alpha 90
_cell_angle_beta 90
_cell_angle_gamma 90
_space_group_name_H-M_alt 'P 1'
_space_group_name_Hall 'P 1'
loop_
    _symmetry_equiv_pos_as_xyz
    x,y,z
loop_
    _atom_site_label
    _atom_site_type_symbol
    _atom_site_fract_x
    _atom_site_fract_y
    _atom_site_fract_z
    _atom_site_occupancy
    P1       P        0.27140    0.44800    0.89550    1.000
    O1       O        0.19190    0.52840    0.88660    1.000
    O2       O        0.37430    0.49350    0.90300    1.000
    O3       O        0.26260    0.37000    0.81830    1.000
    P2       P        0.77140    0.94800    0.39550    1.000
    O4       O        0.69190    0.02840    0.38660    1.000
    O5       O        0.87430    0.99350    0.40300    1.000
    O6       O        0.76260    0.87000    0.31830    1.000
    P3       P        0.22860    0.55200    0.39550    1.000
    O7       O        0.30810    0.47160    0.38660    1.000
    O8       O        0.12570    0.50650    0.40300    1.000
    O9       O        0.23740    0.63000    0.31830    1.000
    P4       P        0.72860    0.05200    0.89550    1.000
    O10      O        0.80810    0.97160    0.88660    1.000
    O11      O        0.62570    0.00650    0.90300    1.000
    O12      O        0.73740    0.13000    0.81830    1.000
    P5       P        0.72860    0.94800    0.60450    1.000
    O13      O        0.80810    0.02840    0.61340    1.000
    O14      O        0.62570    0.99350    0.59700    1.000
    O15      O        0.73740    0.87000    0.68170    1.000
    P6       P        0.22860    0.44800    0.10450    1.000
    O16      O        0.30810    0.52840    0.11340    1.000
    O17      O        0.12570    0.49350    0.09700    1.000
    O18      O        0.23740    0.37000    0.18170    1.000
    P7       P        0.77140    0.05200    0.10450    1.000
    O19      O        0.69190    0.97160    0.11340    1.000
    O20      O        0.87430    0.00650    0.09700    1.000
    O21      O        0.76260    0.13000    0.18170    1.000
    P8       P        0.27140    0.55200    0.60450    1.000
    O22      O        0.19190    0.47160    0.61340    1.000
    O23      O        0.37430    0.50650    0.59700    1.000
    O24      O        0.26260    0.63000    0.68170    1.000
    P9       P        0.89550    0.27140    0.44800    1.000
    O25      O        0.88660    0.19190    0.52840    1.000
    O26      O        0.90300    0.37430    0.49350    1.000
    O27      O        0.81830    0.26260    0.37000    1.000
    P10      P        0.39550    0.77140    0.94800    1.000
    O28      O        0.38660    0.69190    0.02840    1.000
    O29      O        0.40300    0.87430    0.99350    1.000
    O30      O        0.31830    0.76260    0.87000    1.000
    P11      P        0.39550    0.22860    0.55200    1.000
    O31      O        0.38660    0.30810    0.47160    1.000
    O32      O        0.40300    0.12570    0.50650    1.000
    O33      O        0.31830    0.23740    0.63000    1.000
    P12      P        0.89550    0.72860    0.05200    1.000
    O34      O        0.88660    0.80810    0.97160    1.000
    O35      O        0.90300    0.62570    0.00650    1.000
    O36      O        0.81830    0.73740    0.13000    1.000
    P13      P        0.60450    0.72860    0.94800    1.000
    O37      O        0.61340    0.80810    0.02840    1.000
    O38      O        0.59700    0.62570    0.99350    1.000
    O39      O        0.68170    0.73740    0.87000    1.000
    P14      P        0.10450    0.22860    0.44800    1.000
    O40      O        0.11340    0.30810    0.52840    1.000
    O41      O        0.09700    0.12570    0.49350    1.000
    O42      O        0.18170    0.23740    0.37000    1.000
    P15      P        0.10450    0.77140    0.05200    1.000
    O43      O        0.11340    0.69190    0.97160    1.000
    O44      O        0.09700    0.87430    0.00650    1.000
    O45      O        0.18170    0.76260    0.13000    1.000
    P16      P        0.60450    0.27140    0.55200    1.000
    O46      O        0.61340    0.19190    0.47160    1.000
    O47      O        0.59700    0.37430    0.50650    1.000
    O48      O        0.68170    0.26260    0.63000    1.000
    P17      P        0.44800    0.89550    0.27140    1.000
    O49      O        0.52840    0.88660    0.19190    1.000
    O50      O        0.49350    0.90300    0.37430    1.000
    O51      O        0.37000    0.81830    0.26260    1.000
    P18      P        0.94800    0.39550    0.77140    1.000
    O52      O        0.02840    0.38660    0.69190    1.000
    O53      O        0.99350    0.40300    0.87430    1.000
    O54      O        0.87000    0.31830    0.76260    1.000
    P19      P        0.55200    0.39550    0.22860    1.000
    O55      O        0.47160    0.38660    0.30810    1.000
    O56      O        0.50650    0.40300    0.12570    1.000
    O57      O        0.63000    0.31830    0.23740    1.000
    P20      P        0.05200    0.89550    0.72860    1.000
    O58      O        0.97160    0.88660    0.80810    1.000
    O59      O        0.00650    0.90300    0.62570    1.000
    O60      O        0.13000    0.81830    0.73740    1.000
    P21      P        0.94800    0.60450    0.72860    1.000
    O61      O        0.02840    0.61340    0.80810    1.000
    O62      O        0.99350    0.59700    0.62570    1.000
    O63      O        0.87000    0.68170    0.73740    1.000
    P22      P        0.44800    0.10450    0.22860    1.000
    O64      O        0.52840    0.11340    0.30810    1.000
    O65      O        0.49350    0.09700    0.12570    1.000
    O66      O        0.37000    0.18170    0.23740    1.000
    P23      P        0.05200    0.10450    0.77140    1.000
    O67      O        0.97160    0.11340    0.69190    1.000
    O68      O        0.00650    0.09700    0.87430    1.000
    O69      O        0.13000    0.18170    0.76260    1.000
    P24      P        0.55200    0.60450    0.27140    1.000
    O70      O        0.47160    0.61340    0.19190    1.000
    O71      O        0.50650    0.59700    0.37430    1.000
    O72      O        0.63000    0.68170    0.26260    1.000
    Er1      Er       0.18513    0.68513    0.81487    1.000
    Er2      Er       0.03164    0.53164    0.96836    1.000
    Er3      Er       0.68513    0.18513    0.31487    1.000
    Er4      Er       0.53164    0.03164    0.46836    1.000
    Er5      Er       0.31487    0.31487    0.31487    1.000
    Er6      Er       0.46836    0.46836    0.46836    1.000
    Er7      Er       0.81487    0.81487    0.81487    1.000
    Er8      Er       0.96836    0.96836    0.96836    1.000
    Er9      Er       0.81487    0.18513    0.68513    1.000
    Er10     Er       0.96836    0.03164    0.53164    1.000
    Er11     Er       0.31487    0.68513    0.18513    1.000
    Er12     Er       0.46836    0.53164    0.03164    1.000
    Er13     Er       0.68513    0.81487    0.18513    1.000
    Er14     Er       0.53164    0.96836    0.03164    1.000
    Er15     Er       0.18513    0.31487    0.68513    1.000
    Er16     Er       0.03164    0.46836    0.53164    1.000
    O73      O        0.25000    0.39320    0.00000    1.000
    O74      O        0.25000    0.60680    0.50000    1.000
    O75      O        0.75000    0.89320    0.50000    1.000
    O76      O        0.75000    0.10680    0.00000    1.000
    O77      O        0.00000    0.25000    0.39320    1.000
    O78      O        0.50000    0.25000    0.60680    1.000
    O79      O        0.50000    0.75000    0.89320    1.000
    O80      O        0.00000    0.75000    0.10680    1.000
    O81      O        0.39320    0.00000    0.25000    1.000
    O82      O        0.60680    0.50000    0.25000    1.000
    O83      O        0.89320    0.50000    0.75000    1.000
    O84      O        0.10680    0.00000    0.75000    1.000
