# CIF file generated by openbabel 3.1.0, see https://openbabel.org
data_I
_chemical_name_common 'image0'
_cell_length_a 9.992
_cell_length_b 11.644
_cell_length_c 12.231
_cell_angle_alpha 90
_cell_angle_beta 90
_cell_angle_gamma 90
_space_group_name_H-M_alt 'P 1'
_space_group_name_Hall 'P 1'
loop_
    _symmetry_equiv_pos_as_xyz
    x,y,z
loop_
    _atom_site_label
    _atom_site_type_symbol
    _atom_site_fract_x
    _atom_site_fract_y
    _atom_site_fract_z
    _atom_site_occupancy
    O1       O        0.03080    0.27510    0.15210    1.000
    O2       O        0.88000    0.12200    0.22230    1.000
    O3       O        0.23850    0.01950    0.10030    1.000
    O4       O        0.61200    0.11230    0.24160    1.000
    O5       O        0.96920    0.72490    0.15210    1.000
    O6       O        0.12000    0.87800    0.22230    1.000
    O7       O        0.76150    0.98050    0.10030    1.000
    O8       O        0.38800    0.88770    0.24160    1.000
    O9       O        0.96920    0.27510    0.34790    1.000
    O10      O        0.12000    0.12200    0.27770    1.000
    O11      O        0.76150    0.01950    0.39970    1.000
    O12      O        0.38800    0.11230    0.25840    1.000
    O13      O        0.03080    0.72490    0.34790    1.000
    O14      O        0.88000    0.87800    0.27770    1.000
    O15      O        0.23850    0.98050    0.39970    1.000
    O16      O        0.61200    0.88770    0.25840    1.000
    O17      O        0.96920    0.72490    0.84790    1.000
    O18      O        0.12000    0.87800    0.77770    1.000
    O19      O        0.76150    0.98050    0.89970    1.000
    O20      O        0.38800    0.88770    0.75840    1.000
    O21      O        0.03080    0.27510    0.84790    1.000
    O22      O        0.88000    0.12200    0.77770    1.000
    O23      O        0.23850    0.01950    0.89970    1.000
    O24      O        0.61200    0.11230    0.75840    1.000
    O25      O        0.03080    0.72490    0.65210    1.000
    O26      O        0.88000    0.87800    0.72230    1.000
    O27      O        0.23850    0.98050    0.60030    1.000
    O28      O        0.61200    0.88770    0.74160    1.000
    O29      O        0.96920    0.27510    0.65210    1.000
    O30      O        0.12000    0.12200    0.72230    1.000
    O31      O        0.76150    0.01950    0.60030    1.000
    O32      O        0.38800    0.11230    0.74160    1.000
    Al1      Al       0.04530    0.27510    0.00000    1.000
    P1       P        0.27420    0.08810    0.00000    1.000
    O33      O        0.21250    0.20680    0.00000    1.000
    O34      O        0.14660    0.42160    0.00000    1.000
    O35      O        0.88760    0.38630    0.00000    1.000
    O36      O        0.43130    0.10930    0.00000    1.000
    C1       C        0.07490    0.51020    0.00000    1.000
    Al2      Al       0.95470    0.72490    0.00000    1.000
    P2       P        0.72580    0.91190    0.00000    1.000
    O37      O        0.78750    0.79320    0.00000    1.000
    O38      O        0.85340    0.57840    0.00000    1.000
    O39      O        0.11240    0.61370    0.00000    1.000
    O40      O        0.56870    0.89070    0.00000    1.000
    C2       C        0.92510    0.48980    0.00000    1.000
    Al3      Al       0.95470    0.27510    0.50000    1.000
    P3       P        0.72580    0.08810    0.50000    1.000
    O41      O        0.78750    0.20680    0.50000    1.000
    O42      O        0.85340    0.42160    0.50000    1.000
    O43      O        0.11240    0.38630    0.50000    1.000
    O44      O        0.56870    0.10930    0.50000    1.000
    C3       C        0.92510    0.51020    0.50000    1.000
    Al4      Al       0.04530    0.72490    0.50000    1.000
    P4       P        0.27420    0.91190    0.50000    1.000
    O45      O        0.21250    0.79320    0.50000    1.000
    O46      O        0.14660    0.57840    0.50000    1.000
    O47      O        0.88760    0.61370    0.50000    1.000
    O48      O        0.43130    0.89070    0.50000    1.000
    C4       C        0.07490    0.48980    0.50000    1.000
    Al5      Al       0.76910    0.00000    0.25000    1.000
    Al6      Al       0.23090    0.00000    0.25000    1.000
    Al7      Al       0.23090    0.00000    0.75000    1.000
    Al8      Al       0.76910    0.00000    0.75000    1.000
    P5       P        0.00000    0.19770    0.25000    1.000
    P6       P        0.00000    0.80230    0.25000    1.000
    P7       P        0.00000    0.80230    0.75000    1.000
    P8       P        0.00000    0.19770    0.75000    1.000
    C5       C        0.50000    0.06590    0.25000    1.000
    C6       C        0.50000    0.93410    0.25000    1.000
    C7       C        0.50000    0.93410    0.75000    1.000
    C8       C        0.50000    0.06590    0.75000    1.000
