# CIF file generated by openbabel 3.1.0, see https://openbabel.org
data_I
_chemical_name_common 'image0'
_cell_length_a 15.3873
_cell_length_b 15.3873
_cell_length_c 9.8582
_cell_angle_alpha 90
_cell_angle_beta 90
_cell_angle_gamma 90
_space_group_name_H-M_alt 'P 1'
_space_group_name_Hall 'P 1'
loop_
    _symmetry_equiv_pos_as_xyz
    x,y,z
loop_
    _atom_site_label
    _atom_site_type_symbol
    _atom_site_fract_x
    _atom_site_fract_y
    _atom_site_fract_z
    _atom_site_occupancy
    O1       O        0.46912    0.62575    0.87610    1.000
    C1       C        0.61560    0.75680    0.87990    1.000
    H1       H        0.59070    0.73800    0.79900    1.000
    C2       C        0.68670    0.80630    0.88160    1.000
    H2       H        0.71010    0.82570    0.80010    1.000
    O2       O        0.53088    0.37425    0.87610    1.000
    C3       C        0.38440    0.24320    0.87990    1.000
    H3       H        0.40930    0.26200    0.79900    1.000
    C4       C        0.31330    0.19370    0.88160    1.000
    H4       H        0.28990    0.17430    0.80010    1.000
    O3       O        0.37425    0.46912    0.87610    1.000
    C5       C        0.24320    0.61560    0.87990    1.000
    H5       H        0.26200    0.59070    0.79900    1.000
    C6       C        0.19370    0.68670    0.88160    1.000
    H6       H        0.17430    0.71010    0.80010    1.000
    O4       O        0.62575    0.53088    0.87610    1.000
    C7       C        0.75680    0.38440    0.87990    1.000
    H7       H        0.73800    0.40930    0.79900    1.000
    C8       C        0.80630    0.31330    0.88160    1.000
    H8       H        0.82570    0.28990    0.80010    1.000
    O5       O        0.53088    0.62575    0.62390    1.000
    C9       C        0.38440    0.75680    0.62010    1.000
    H9       H        0.40930    0.73800    0.70100    1.000
    C10      C        0.31330    0.80630    0.61840    1.000
    H10      H        0.28990    0.82570    0.69990    1.000
    O6       O        0.46912    0.37425    0.62390    1.000
    C11      C        0.61560    0.24320    0.62010    1.000
    H11      H        0.59070    0.26200    0.70100    1.000
    C12      C        0.68670    0.19370    0.61840    1.000
    H12      H        0.71010    0.17430    0.69990    1.000
    O7       O        0.62575    0.46912    0.62390    1.000
    C13      C        0.75680    0.61560    0.62010    1.000
    H13      H        0.73800    0.59070    0.70100    1.000
    C14      C        0.80630    0.68670    0.61840    1.000
    H14      H        0.82570    0.71010    0.69990    1.000
    O8       O        0.37425    0.53088    0.62390    1.000
    C15      C        0.24320    0.38440    0.62010    1.000
    H15      H        0.26200    0.40930    0.70100    1.000
    C16      C        0.19370    0.31330    0.61840    1.000
    H16      H        0.17430    0.28990    0.69990    1.000
    O9       O        0.53088    0.37425    0.12390    1.000
    C17      C        0.38440    0.24320    0.12010    1.000
    H17      H        0.40930    0.26200    0.20100    1.000
    C18      C        0.31330    0.19370    0.11840    1.000
    H18      H        0.28990    0.17430    0.19990    1.000
    O10      O        0.46912    0.62575    0.12390    1.000
    C19      C        0.61560    0.75680    0.12010    1.000
    H19      H        0.59070    0.73800    0.20100    1.000
    C20      C        0.68670    0.80630    0.11840    1.000
    H20      H        0.71010    0.82570    0.19990    1.000
    O11      O        0.62575    0.53088    0.12390    1.000
    C21      C        0.75680    0.38440    0.12010    1.000
    H21      H        0.73800    0.40930    0.20100    1.000
    C22      C        0.80630    0.31330    0.11840    1.000
    H22      H        0.82570    0.28990    0.19990    1.000
    O12      O        0.37425    0.46912    0.12390    1.000
    C23      C        0.24320    0.61560    0.12010    1.000
    H23      H        0.26200    0.59070    0.20100    1.000
    C24      C        0.19370    0.68670    0.11840    1.000
    H24      H        0.17430    0.71010    0.19990    1.000
    O13      O        0.46912    0.37425    0.37610    1.000
    C25      C        0.61560    0.24320    0.37990    1.000
    H25      H        0.59070    0.26200    0.29900    1.000
    C26      C        0.68670    0.19370    0.38160    1.000
    H26      H        0.71010    0.17430    0.30010    1.000
    O14      O        0.53088    0.62575    0.37610    1.000
    C27      C        0.38440    0.75680    0.37990    1.000
    H27      H        0.40930    0.73800    0.29900    1.000
    C28      C        0.31330    0.80630    0.38160    1.000
    H28      H        0.28990    0.82570    0.30010    1.000
    O15      O        0.37425    0.53088    0.37610    1.000
    C29      C        0.24320    0.38440    0.37990    1.000
    H29      H        0.26200    0.40930    0.29900    1.000
    C30      C        0.19370    0.31330    0.38160    1.000
    H30      H        0.17430    0.28990    0.30010    1.000
    O16      O        0.62575    0.46912    0.37610    1.000
    C31      C        0.75680    0.61560    0.37990    1.000
    H31      H        0.73800    0.59070    0.29900    1.000
    C32      C        0.80630    0.68670    0.38160    1.000
    H32      H        0.82570    0.71010    0.30010    1.000
    Gd1      Gd       0.50000    0.50000    0.75000    1.000
    Gd2      Gd       0.50000    0.50000    0.25000    1.000
    S1       S        0.47478    0.67890    0.00000    1.000
    N1       N        0.96800    0.87020    0.00000    1.000
    O17      O        0.41480    0.74480    0.00000    1.000
    C33      C        0.58190    0.73570    0.00000    1.000
    C34      C        0.72560    0.82910    0.00000    1.000
    C35      C        0.81190    0.88030    0.00000    1.000
    C36      C        0.88460    0.83430    0.00000    1.000
    C37      C        0.89420    0.73890    0.00000    1.000
    H33      H        0.84920    0.69850    0.00000    1.000
    C38      C        0.98190    0.72040    0.00000    1.000
    H34      H        0.00720    0.66550    0.00000    1.000
    C39      C        0.02570    0.80060    0.00000    1.000
    S2       S        0.52522    0.32110    0.00000    1.000
    N2       N        0.03200    0.12980    0.00000    1.000
    O18      O        0.58520    0.25520    0.00000    1.000
    C40      C        0.41810    0.26430    0.00000    1.000
    C41      C        0.27440    0.17090    0.00000    1.000
    C42      C        0.18810    0.11970    0.00000    1.000
    C43      C        0.11540    0.16570    0.00000    1.000
    C44      C        0.10580    0.26110    0.00000    1.000
    H35      H        0.15080    0.30150    0.00000    1.000
    C45      C        0.01810    0.27960    0.00000    1.000
    H36      H        0.99280    0.33450    0.00000    1.000
    C46      C        0.97430    0.19940    0.00000    1.000
    S3       S        0.32110    0.47478    0.00000    1.000
    N3       N        0.12980    0.96800    0.00000    1.000
    O19      O        0.25520    0.41480    0.00000    1.000
    C47      C        0.26430    0.58190    0.00000    1.000
    C48      C        0.17090    0.72560    0.00000    1.000
    C49      C        0.11970    0.81190    0.00000    1.000
    C50      C        0.16570    0.88460    0.00000    1.000
    C51      C        0.26110    0.89420    0.00000    1.000
    H37      H        0.30150    0.84920    0.00000    1.000
    C52      C        0.27960    0.98190    0.00000    1.000
    H38      H        0.33450    0.00720    0.00000    1.000
    C53      C        0.19940    0.02570    0.00000    1.000
    S4       S        0.67890    0.52522    0.00000    1.000
    N4       N        0.87020    0.03200    0.00000    1.000
    O20      O        0.74480    0.58520    0.00000    1.000
    C54      C        0.73570    0.41810    0.00000    1.000
    C55      C        0.82910    0.27440    0.00000    1.000
    C56      C        0.88030    0.18810    0.00000    1.000
    C57      C        0.83430    0.11540    0.00000    1.000
    C58      C        0.73890    0.10580    0.00000    1.000
    H39      H        0.69850    0.15080    0.00000    1.000
    C59      C        0.72040    0.01810    0.00000    1.000
    H40      H        0.66550    0.99280    0.00000    1.000
    C60      C        0.80060    0.97430    0.00000    1.000
    S5       S        0.52522    0.67890    0.50000    1.000
    N5       N        0.03200    0.87020    0.50000    1.000
    O21      O        0.58520    0.74480    0.50000    1.000
    C61      C        0.41810    0.73570    0.50000    1.000
    C62      C        0.27440    0.82910    0.50000    1.000
    C63      C        0.18810    0.88030    0.50000    1.000
    C64      C        0.11540    0.83430    0.50000    1.000
    C65      C        0.10580    0.73890    0.50000    1.000
    H41      H        0.15080    0.69850    0.50000    1.000
    C66      C        0.01810    0.72040    0.50000    1.000
    H42      H        0.99280    0.66550    0.50000    1.000
    C67      C        0.97430    0.80060    0.50000    1.000
    S6       S        0.47478    0.32110    0.50000    1.000
    N6       N        0.96800    0.12980    0.50000    1.000
    O22      O        0.41480    0.25520    0.50000    1.000
    C68      C        0.58190    0.26430    0.50000    1.000
    C69      C        0.72560    0.17090    0.50000    1.000
    C70      C        0.81190    0.11970    0.50000    1.000
    C71      C        0.88460    0.16570    0.50000    1.000
    C72      C        0.89420    0.26110    0.50000    1.000
    H43      H        0.84920    0.30150    0.50000    1.000
    C73      C        0.98190    0.27960    0.50000    1.000
    H44      H        0.00720    0.33450    0.50000    1.000
    C74      C        0.02570    0.19940    0.50000    1.000
    S7       S        0.67890    0.47478    0.50000    1.000
    N7       N        0.87020    0.96800    0.50000    1.000
    O23      O        0.74480    0.41480    0.50000    1.000
    C75      C        0.73570    0.58190    0.50000    1.000
    C76      C        0.82910    0.72560    0.50000    1.000
    C77      C        0.88030    0.81190    0.50000    1.000
    C78      C        0.83430    0.88460    0.50000    1.000
    C79      C        0.73890    0.89420    0.50000    1.000
    H45      H        0.69850    0.84920    0.50000    1.000
    C80      C        0.72040    0.98190    0.50000    1.000
    H46      H        0.66550    0.00720    0.50000    1.000
    C81      C        0.80060    0.02570    0.50000    1.000
    S8       S        0.32110    0.52522    0.50000    1.000
    N8       N        0.12980    0.03200    0.50000    1.000
    O24      O        0.25520    0.58520    0.50000    1.000
    C82      C        0.26430    0.41810    0.50000    1.000
    C83      C        0.17090    0.27440    0.50000    1.000
    C84      C        0.11970    0.18810    0.50000    1.000
    C85      C        0.16570    0.11540    0.50000    1.000
    C86      C        0.26110    0.10580    0.50000    1.000
    H47      H        0.30150    0.15080    0.50000    1.000
    C87      C        0.27960    0.01810    0.50000    1.000
    H48      H        0.33450    0.99280    0.50000    1.000
    C88      C        0.19940    0.97430    0.50000    1.000
