data_functionalizedCrystal
_audit_creation_method	'EQeq! by Chris Wilmer'
_symmetry_space_group_name_H-M	'P1'
_symmetry_Int_Tables_number	1
_symmetry_cell_setting	triclinic
loop_
_symmetry_equiv_pos_as_xyz
  x,y,z
_cell_length_a	9.353
_cell_length_b	9.797
_cell_length_c	11.388
_cell_angle_alpha	94.34
_cell_angle_beta	99.407
_cell_angle_gamma	111.455
loop_
_atom_site_label
_atom_site_type_symbol
_atom_site_fract_x
_atom_site_fract_y
_atom_site_fract_z
_atom_site_charge
Mof_Y 	Y 	0.27654	0.5451	0.48855	1.475
Mof_Y 	Y 	0.72346	0.4549	0.51145	1.475
Mof_H 	H 	0.2738	0.2331	0.121	-0.028
Mof_H 	H 	0.1766	0.1018	0.9362	0.148
Mof_H 	H 	0.8451	0.2699	0.8845	0.15
Mof_H 	H 	0.9368	0.3971	0.0781	-0.012
Mof_H 	H 	0.1997	0.2924	0.7228	0.061
Mof_H 	H 	0.3221	0.0025	0.5401	0.043
Mof_H 	H 	0.9205	0.8595	0.6609	0.082
Mof_H 	H 	0.7262	0.7669	0.879	-0.028
Mof_H 	H 	0.8234	0.8982	0.0638	0.148
Mof_H 	H 	0.1549	0.7301	0.1155	0.15
Mof_H 	H 	0.0632	0.6029	0.9219	-0.012
Mof_H 	H 	0.8003	0.7076	0.2772	0.061
Mof_H 	H 	0.6779	0.9975	0.4599	0.043
Mof_H 	H 	0.0795	0.1405	0.3391	0.082
Mof_C 	C 	0.1751	0.4127	0.2452	0.358
Mof_C 	C 	0.1159	0.3277	0.1234	-0.207
Mof_C 	C 	0.1857	0.2396	0.0745	0.198
Mof_C 	C 	0.131	0.1646	0.9638	-0.314
Mof_C 	C 	0.0056	0.1795	0.8889	0.293
Mof_C 	C 	0.932	0.2634	0.9329	-0.271
Mof_C 	C 	0.9863	0.3388	0.0491	0.148
Mof_C 	C 	0.048	0.0775	0.7076	0.155
Mof_C 	C 	0.1803	0.1956	0.691	-0.086
Mof_C 	C 	0.2811	0.1658	0.6267	-0.086
Mof_C 	C 	0.2509	0.0225	0.5796	0.02
Mof_C 	C 	0.1141	0.9063	0.5904	-0.094
Mof_C 	C 	0.0126	0.9356	0.6542	-0.084
Mof_C 	C 	0.4195	0.291	0.6031	0.39
Mof_C 	C 	0.0815	0.7533	0.5332	0.435
Mof_C 	C 	0.8249	0.5873	0.7548	0.358
Mof_C 	C 	0.8841	0.6723	0.8766	-0.207
Mof_C 	C 	0.8143	0.7604	0.9255	0.198
Mof_C 	C 	0.869	0.8354	0.0362	-0.314
Mof_C 	C 	0.9944	0.8205	0.1111	0.293
Mof_C 	C 	0.068	0.7366	0.0671	-0.271
Mof_C 	C 	0.0137	0.6612	0.9509	0.148
Mof_C 	C 	0.952	0.9225	0.2924	0.155
Mof_C 	C 	0.8197	0.8044	0.309	-0.086
Mof_C 	C 	0.7189	0.8342	0.3733	-0.086
Mof_C 	C 	0.7491	0.9775	0.4204	0.02
Mof_C 	C 	0.8859	0.0937	0.4096	-0.094
Mof_C 	C 	0.9874	0.0644	0.3458	-0.084
Mof_C 	C 	0.5805	0.709	0.3969	0.39
Mof_C 	C 	0.9185	0.2467	0.4668	0.435
Mof_O 	O 	0.1222	0.5045	0.2828	-0.355
Mof_O 	O 	0.2815	0.3893	0.3169	-0.374
Mof_O 	O 	0.5466	0.2751	0.6058	-0.393
Mof_O 	O 	0.4023	0.4077	0.5778	-0.47
Mof_O 	O 	0.1891	0.7307	0.4917	-0.452
Mof_O 	O 	0.9496	0.6553	0.5285	-0.465
Mof_O 	O 	0.9452	0.105	0.7726	-0.265
Mof_O 	O 	0.8778	0.4955	0.7172	-0.355
Mof_O 	O 	0.7185	0.6107	0.6831	-0.374
Mof_O 	O 	0.4534	0.7249	0.3942	-0.393
Mof_O 	O 	0.5977	0.5923	0.4222	-0.47
Mof_O 	O 	0.8109	0.2693	0.5083	-0.452
Mof_O 	O 	0.0504	0.3447	0.4715	-0.465
Mof_O 	O 	0.0548	0.895	0.2274	-0.265
_end
