# CIF file generated by openbabel 3.1.0, see https://openbabel.org
data_I
_chemical_name_common 'image0'
_cell_length_a 15.639
_cell_length_b 21.426
_cell_length_c 15.9981
_cell_angle_alpha 90
_cell_angle_beta 94.5887
_cell_angle_gamma 90
_space_group_name_H-M_alt 'P 1'
_space_group_name_Hall 'P 1'
loop_
    _symmetry_equiv_pos_as_xyz
    x,y,z
loop_
    _atom_site_label
    _atom_site_type_symbol
    _atom_site_fract_x
    _atom_site_fract_y
    _atom_site_fract_z
    _atom_site_occupancy
    Zn1      Zn       0.80710    0.76332    0.94616    1.000
    Zn2      Zn       0.32564    0.25657    0.43224    1.000
    O1       O        0.72282    0.71338    0.87196    1.000
    O2       O        0.63603    0.69417    0.97352    1.000
    O3       O        0.38087    0.32679    0.50054    1.000
    O4       O        0.26803    0.34162    0.57603    1.000
    O5       O        0.24294    0.19222    0.38202    1.000
    O6       O        0.16137    0.18214    0.49029    1.000
    O7       O        0.86871    0.81049    0.04220    1.000
    O8       O        0.75877    0.82513    0.12102    1.000
    N1       N        0.89871    0.77527    0.86520    1.000
    N2       N        0.58213    0.74895    0.15004    1.000
    C1       C        0.97260    0.80366    0.88832    1.000
    H1       H        0.98100    0.81970    0.94370    1.000
    C2       C        0.03746    0.81092    0.83565    1.000
    H2       H        0.08930    0.83150    0.85430    1.000
    C3       C        0.02520    0.78759    0.75503    1.000
    C4       C        0.94791    0.75929    0.73036    1.000
    H3       H        0.93710    0.74390    0.67480    1.000
    C5       C        0.88666    0.75361    0.78728    1.000
    H4       H        0.83400    0.73350    0.77020    1.000
    C6       C        0.09119    0.78875    0.69789    1.000
    C7       C        0.14207    0.78514    0.64656    1.000
    C8       C        0.20058    0.77962    0.58075    1.000
    C9       C        0.23224    0.71287    0.56900    1.000
    C10      C        0.21380    0.66175    0.61690    1.000
    H5       H        0.17470    0.66540    0.65910    1.000
    C11      C        0.25280    0.60500    0.60280    1.000
    H6       H        0.24130    0.56990    0.63640    1.000
    C12      C        0.30860    0.59910    0.54000    1.000
    H7       H        0.33530    0.56010    0.53090    1.000
    C13      C        0.32550    0.65034    0.49030    1.000
    H8       H        0.36250    0.64620    0.44640    1.000
    C14      C        0.28789    0.70719    0.50530    1.000
    C15      C        0.30429    0.76906    0.46101    1.000
    C16      C        0.21546    0.79546    0.43130    1.000
    C17      C        0.16039    0.80074    0.49495    1.000
    C18      C        0.07887    0.82435    0.47910    1.000
    H9       H        0.04090    0.82660    0.52250    1.000
    C19      C        0.05300    0.84496    0.39860    1.000
    H10      H        0.99760    0.86270    0.38700    1.000
    C20      C        0.10760    0.83970    0.33550    1.000
    H11      H        0.08920    0.85330    0.28050    1.000
    C21      C        0.18950    0.81477    0.35130    1.000
    H12      H        0.22680    0.81120    0.30750    1.000
    C22      C        0.28331    0.81843    0.59652    1.000
    C23      C        0.30520    0.85541    0.66550    1.000
    H13      H        0.26720    0.85970    0.70850    1.000
    C24      C        0.38300    0.88607    0.67110    1.000
    H14      H        0.39830    0.91220    0.71790    1.000
    C25      C        0.43860    0.87914    0.60930    1.000
    H15      H        0.49230    0.90010    0.61410    1.000
    C26      C        0.41680    0.84158    0.53960    1.000
    H16      H        0.45560    0.83630    0.49750    1.000
    C27      C        0.33864    0.81242    0.53285    1.000
    C28      C        0.36135    0.76342    0.39370    1.000
    C29      C        0.40623    0.75932    0.33710    1.000
    C30      C        0.46401    0.75493    0.27143    1.000
    C31      C        0.53841    0.72021    0.28428    1.000
    H17      H        0.55020    0.69740    0.33480    1.000
    C32      C        0.59550    0.71908    0.22265    1.000
    H18      H        0.64690    0.69570    0.23270    1.000
    C33      C        0.50836    0.78147    0.13749    1.000
    H19      H        0.49730    0.80280    0.08570    1.000
    C34      C        0.44775    0.78556    0.19605    1.000
    H20      H        0.39650    0.80880    0.18450    1.000
    C35      C        0.66146    0.68536    0.90192    1.000
    C36      C        0.61507    0.63752    0.84668    1.000
    C37      C        0.63563    0.62890    0.76463    1.000
    H21      H        0.68050    0.65270    0.74380    1.000
    C38      C        0.59137    0.58593    0.71285    1.000
    H22      H        0.60650    0.58050    0.65700    1.000
    C39      C        0.52501    0.55055    0.74168    1.000
    C40      C        0.50583    0.55901    0.82458    1.000
    H23      H        0.46130    0.53500    0.84580    1.000
    C41      C        0.55003    0.60147    0.87632    1.000
    H24      H        0.53600    0.60610    0.93270    1.000
    C42      C        0.47574    0.50444    0.68797    1.000
    C43      C        0.51168    0.47446    0.62176    1.000
    H25      H        0.56740    0.48600    0.60770    1.000
    C44      C        0.46723    0.42824    0.57641    1.000
    H26      H        0.49270    0.40840    0.53150    1.000
    C45      C        0.38541    0.41046    0.59586    1.000
    C46      C        0.34792    0.44210    0.65887    1.000
    H27      H        0.29130    0.43170    0.67130    1.000
    C47      C        0.39185    0.48874    0.70401    1.000
    H28      H        0.36470    0.51040    0.74640    1.000
    C48      C        0.34071    0.35569    0.55361    1.000
    C49      C        0.18368    0.16713    0.41947    1.000
    C50      C        0.13534    0.11526    0.37442    1.000
    C51      C        0.07437    0.08177    0.41342    1.000
    H29      H        0.06510    0.09030    0.47030    1.000
    C52      C        0.02658    0.03587    0.37030    1.000
    H30      H        0.98570    0.01270    0.39830    1.000
    C53      C        0.03778    0.02334    0.28650    1.000
    C54      C        0.09994    0.05671    0.24768    1.000
    H31      H        0.10900    0.04850    0.19070    1.000
    C55      C        0.14868    0.10173    0.29129    1.000
    H32      H        0.19160    0.12360    0.26430    1.000
    C56      C        0.98481    0.97587    0.23890    1.000
    C57      C        0.90130    0.96300    0.25740    1.000
    H33      H        0.87740    0.98550    0.30110    1.000
    C58      C        0.85220    0.91830    0.21360    1.000
    H34      H        0.79530    0.91030    0.22770    1.000
    C59      C        0.88501    0.88511    0.14966    1.000
    C60      C        0.96843    0.89755    0.13018    1.000
    H35      H        0.99210    0.87510    0.08630    1.000
    C61      C        0.01715    0.94224    0.17423    1.000
    H36      H        0.07400    0.95010    0.16000    1.000
    C62      C        0.83268    0.83679    0.10066    1.000
    Zn3      Zn       0.19290    0.26332    0.55384    1.000
    Zn4      Zn       0.67436    0.75657    0.06776    1.000
    O9       O        0.27718    0.21338    0.62804    1.000
    O10      O        0.36397    0.19417    0.52648    1.000
    O11      O        0.61913    0.82679    0.99946    1.000
    O12      O        0.73197    0.84162    0.92397    1.000
    O13      O        0.75706    0.69222    0.11798    1.000
    O14      O        0.83863    0.68214    0.00971    1.000
    O15      O        0.13129    0.31049    0.45780    1.000
    O16      O        0.24123    0.32513    0.37898    1.000
    N3       N        0.10129    0.27527    0.63480    1.000
    N4       N        0.41787    0.24895    0.34996    1.000
    C63      C        0.02740    0.30366    0.61168    1.000
    H37      H        0.01900    0.31970    0.55630    1.000
    C64      C        0.96254    0.31092    0.66435    1.000
    H38      H        0.91070    0.33150    0.64570    1.000
    C65      C        0.97480    0.28759    0.74497    1.000
    C66      C        0.05209    0.25929    0.76964    1.000
    H39      H        0.06290    0.24390    0.82520    1.000
    C67      C        0.11334    0.25361    0.71272    1.000
    H40      H        0.16600    0.23350    0.72980    1.000
    C68      C        0.90881    0.28875    0.80211    1.000
    C69      C        0.85793    0.28514    0.85344    1.000
    C70      C        0.79942    0.27962    0.91925    1.000
    C71      C        0.76776    0.21287    0.93100    1.000
    C72      C        0.78620    0.16175    0.88310    1.000
    H41      H        0.82530    0.16540    0.84090    1.000
    C73      C        0.74720    0.10500    0.89720    1.000
    H42      H        0.75870    0.06990    0.86360    1.000
    C74      C        0.69140    0.09910    0.96000    1.000
    H43      H        0.66470    0.06010    0.96910    1.000
    C75      C        0.67450    0.15034    0.00970    1.000
    H44      H        0.63750    0.14620    0.05360    1.000
    C76      C        0.71211    0.20719    0.99470    1.000
    C77      C        0.69571    0.26906    0.03899    1.000
    C78      C        0.78454    0.29546    0.06870    1.000
    C79      C        0.83961    0.30074    0.00505    1.000
    C80      C        0.92113    0.32435    0.02090    1.000
    H45      H        0.95910    0.32660    0.97750    1.000
    C81      C        0.94700    0.34496    0.10140    1.000
    H46      H        0.00240    0.36270    0.11300    1.000
    C82      C        0.89240    0.33970    0.16450    1.000
    H47      H        0.91080    0.35330    0.21950    1.000
    C83      C        0.81050    0.31477    0.14870    1.000
    H48      H        0.77320    0.31120    0.19250    1.000
    C84      C        0.71669    0.31843    0.90348    1.000
    C85      C        0.69480    0.35541    0.83450    1.000
    H49      H        0.73280    0.35970    0.79150    1.000
    C86      C        0.61700    0.38607    0.82890    1.000
    H50      H        0.60170    0.41220    0.78210    1.000
    C87      C        0.56140    0.37914    0.89070    1.000
    H51      H        0.50770    0.40010    0.88590    1.000
    C88      C        0.58320    0.34158    0.96040    1.000
    H52      H        0.54440    0.33630    0.00250    1.000
    C89      C        0.66136    0.31242    0.96715    1.000
    C90      C        0.63865    0.26342    0.10630    1.000
    C91      C        0.59377    0.25932    0.16290    1.000
    C92      C        0.53599    0.25493    0.22857    1.000
    C93      C        0.46159    0.22021    0.21572    1.000
    H53      H        0.44980    0.19740    0.16520    1.000
    C94      C        0.40450    0.21908    0.27735    1.000
    H54      H        0.35310    0.19570    0.26730    1.000
    C95      C        0.49164    0.28147    0.36251    1.000
    H55      H        0.50270    0.30280    0.41430    1.000
    C96      C        0.55225    0.28556    0.30395    1.000
    H56      H        0.60350    0.30880    0.31550    1.000
    C97      C        0.33854    0.18536    0.59808    1.000
    C98      C        0.38493    0.13752    0.65332    1.000
    C99      C        0.36437    0.12890    0.73537    1.000
    H57      H        0.31950    0.15270    0.75620    1.000
    C100     C        0.40863    0.08593    0.78715    1.000
    H58      H        0.39350    0.08050    0.84300    1.000
    C101     C        0.47499    0.05055    0.75832    1.000
    C102     C        0.49417    0.05901    0.67542    1.000
    H59      H        0.53870    0.03500    0.65420    1.000
    C103     C        0.44997    0.10147    0.62368    1.000
    H60      H        0.46400    0.10610    0.56730    1.000
    C104     C        0.52426    0.00444    0.81203    1.000
    C105     C        0.48832    0.97446    0.87824    1.000
    H61      H        0.43260    0.98600    0.89230    1.000
    C106     C        0.53277    0.92824    0.92359    1.000
    H62      H        0.50730    0.90840    0.96850    1.000
    C107     C        0.61459    0.91046    0.90414    1.000
    C108     C        0.65208    0.94210    0.84113    1.000
    H63      H        0.70870    0.93170    0.82870    1.000
    C109     C        0.60815    0.98874    0.79599    1.000
    H64      H        0.63530    0.01040    0.75360    1.000
    C110     C        0.65929    0.85569    0.94639    1.000
    C111     C        0.81632    0.66713    0.08053    1.000
    C112     C        0.86466    0.61526    0.12558    1.000
    C113     C        0.92563    0.58177    0.08658    1.000
    H65      H        0.93490    0.59030    0.02970    1.000
    C114     C        0.97342    0.53587    0.12970    1.000
    H66      H        0.01430    0.51270    0.10170    1.000
    C115     C        0.96222    0.52334    0.21350    1.000
    C116     C        0.90006    0.55671    0.25232    1.000
    H67      H        0.89100    0.54850    0.30930    1.000
    C117     C        0.85132    0.60173    0.20871    1.000
    H68      H        0.80840    0.62360    0.23570    1.000
    C118     C        0.01519    0.47587    0.26110    1.000
    C119     C        0.09870    0.46300    0.24260    1.000
    H69      H        0.12260    0.48550    0.19890    1.000
    C120     C        0.14780    0.41830    0.28640    1.000
    H70      H        0.20470    0.41030    0.27230    1.000
    C121     C        0.11499    0.38511    0.35034    1.000
    C122     C        0.03157    0.39755    0.36982    1.000
    H71      H        0.00790    0.37510    0.41370    1.000
    C123     C        0.98285    0.44224    0.32577    1.000
    H72      H        0.92600    0.45010    0.34000    1.000
    C124     C        0.16732    0.33679    0.39934    1.000
    Zn5      Zn       0.19290    0.23668    0.05384    1.000
    Zn6      Zn       0.67436    0.74343    0.56776    1.000
    O17      O        0.27718    0.28662    0.12804    1.000
    O18      O        0.36397    0.30583    0.02648    1.000
    O19      O        0.61913    0.67321    0.49946    1.000
    O20      O        0.73197    0.65838    0.42397    1.000
    O21      O        0.75706    0.80778    0.61798    1.000
    O22      O        0.83863    0.81786    0.50971    1.000
    O23      O        0.13129    0.18951    0.95780    1.000
    O24      O        0.24123    0.17487    0.87898    1.000
    N5       N        0.10129    0.22473    0.13480    1.000
    N6       N        0.41787    0.25105    0.84996    1.000
    C125     C        0.02740    0.19634    0.11168    1.000
    H73      H        0.01900    0.18030    0.05630    1.000
    C126     C        0.96254    0.18908    0.16435    1.000
    H74      H        0.91070    0.16850    0.14570    1.000
    C127     C        0.97480    0.21241    0.24497    1.000
    C128     C        0.05209    0.24071    0.26964    1.000
    H75      H        0.06290    0.25610    0.32520    1.000
    C129     C        0.11334    0.24639    0.21272    1.000
    H76      H        0.16600    0.26650    0.22980    1.000
    C130     C        0.90881    0.21125    0.30211    1.000
    C131     C        0.85793    0.21486    0.35344    1.000
    C132     C        0.79942    0.22038    0.41925    1.000
    C133     C        0.76776    0.28713    0.43100    1.000
    C134     C        0.78620    0.33825    0.38310    1.000
    H77      H        0.82530    0.33460    0.34090    1.000
    C135     C        0.74720    0.39500    0.39720    1.000
    H78      H        0.75870    0.43010    0.36360    1.000
    C136     C        0.69140    0.40090    0.46000    1.000
    H79      H        0.66470    0.43990    0.46910    1.000
    C137     C        0.67450    0.34966    0.50970    1.000
    H80      H        0.63750    0.35380    0.55360    1.000
    C138     C        0.71211    0.29281    0.49470    1.000
    C139     C        0.69571    0.23094    0.53899    1.000
    C140     C        0.78454    0.20454    0.56870    1.000
    C141     C        0.83961    0.19926    0.50505    1.000
    C142     C        0.92113    0.17565    0.52090    1.000
    H81      H        0.95910    0.17340    0.47750    1.000
    C143     C        0.94700    0.15504    0.60140    1.000
    H82      H        0.00240    0.13730    0.61300    1.000
    C144     C        0.89240    0.16030    0.66450    1.000
    H83      H        0.91080    0.14670    0.71950    1.000
    C145     C        0.81050    0.18523    0.64870    1.000
    H84      H        0.77320    0.18880    0.69250    1.000
    C146     C        0.71669    0.18157    0.40348    1.000
    C147     C        0.69480    0.14459    0.33450    1.000
    H85      H        0.73280    0.14030    0.29150    1.000
    C148     C        0.61700    0.11393    0.32890    1.000
    H86      H        0.60170    0.08780    0.28210    1.000
    C149     C        0.56140    0.12086    0.39070    1.000
    H87      H        0.50770    0.09990    0.38590    1.000
    C150     C        0.58320    0.15842    0.46040    1.000
    H88      H        0.54440    0.16370    0.50250    1.000
    C151     C        0.66136    0.18758    0.46715    1.000
    C152     C        0.63865    0.23658    0.60630    1.000
    C153     C        0.59377    0.24068    0.66290    1.000
    C154     C        0.53599    0.24507    0.72857    1.000
    C155     C        0.46159    0.27979    0.71572    1.000
    H89      H        0.44980    0.30260    0.66520    1.000
    C156     C        0.40450    0.28092    0.77735    1.000
    H90      H        0.35310    0.30430    0.76730    1.000
    C157     C        0.49164    0.21853    0.86251    1.000
    H91      H        0.50270    0.19720    0.91430    1.000
    C158     C        0.55225    0.21444    0.80395    1.000
    H92      H        0.60350    0.19120    0.81550    1.000
    C159     C        0.33854    0.31464    0.09808    1.000
    C160     C        0.38493    0.36248    0.15332    1.000
    C161     C        0.36437    0.37110    0.23537    1.000
    H93      H        0.31950    0.34730    0.25620    1.000
    C162     C        0.40863    0.41407    0.28715    1.000
    H94      H        0.39350    0.41950    0.34300    1.000
    C163     C        0.47499    0.44945    0.25832    1.000
    C164     C        0.49417    0.44099    0.17542    1.000
    H95      H        0.53870    0.46500    0.15420    1.000
    C165     C        0.44997    0.39853    0.12368    1.000
    H96      H        0.46400    0.39390    0.06730    1.000
    C166     C        0.52426    0.49556    0.31203    1.000
    C167     C        0.48832    0.52554    0.37824    1.000
    H97      H        0.43260    0.51400    0.39230    1.000
    C168     C        0.53277    0.57176    0.42359    1.000
    H98      H        0.50730    0.59160    0.46850    1.000
    C169     C        0.61459    0.58954    0.40414    1.000
    C170     C        0.65208    0.55790    0.34113    1.000
    H99      H        0.70870    0.56830    0.32870    1.000
    C171     C        0.60815    0.51126    0.29599    1.000
    H100     H        0.63530    0.48960    0.25360    1.000
    C172     C        0.65929    0.64431    0.44639    1.000
    C173     C        0.81632    0.83287    0.58053    1.000
    C174     C        0.86466    0.88474    0.62558    1.000
    C175     C        0.92563    0.91823    0.58658    1.000
    H101     H        0.93490    0.90970    0.52970    1.000
    C176     C        0.97342    0.96413    0.62970    1.000
    H102     H        0.01430    0.98730    0.60170    1.000
    C177     C        0.96222    0.97666    0.71350    1.000
    C178     C        0.90006    0.94329    0.75232    1.000
    H103     H        0.89100    0.95150    0.80930    1.000
    C179     C        0.85132    0.89827    0.70871    1.000
    H104     H        0.80840    0.87640    0.73570    1.000
    C180     C        0.01519    0.02413    0.76110    1.000
    C181     C        0.09870    0.03700    0.74260    1.000
    H105     H        0.12260    0.01450    0.69890    1.000
    C182     C        0.14780    0.08170    0.78640    1.000
    H106     H        0.20470    0.08970    0.77230    1.000
    C183     C        0.11499    0.11489    0.85034    1.000
    C184     C        0.03157    0.10245    0.86982    1.000
    H107     H        0.00790    0.12490    0.91370    1.000
    C185     C        0.98285    0.05776    0.82577    1.000
    H108     H        0.92600    0.04990    0.84000    1.000
    C186     C        0.16732    0.16321    0.89934    1.000
    Zn7      Zn       0.80710    0.73668    0.44616    1.000
    Zn8      Zn       0.32564    0.24343    0.93224    1.000
    O25      O        0.72282    0.78662    0.37196    1.000
    O26      O        0.63603    0.80583    0.47352    1.000
    O27      O        0.38087    0.17321    0.00054    1.000
    O28      O        0.26803    0.15838    0.07603    1.000
    O29      O        0.24294    0.30778    0.88202    1.000
    O30      O        0.16137    0.31786    0.99029    1.000
    O31      O        0.86871    0.68951    0.54220    1.000
    O32      O        0.75877    0.67487    0.62102    1.000
    N7       N        0.89871    0.72473    0.36520    1.000
    N8       N        0.58213    0.75105    0.65004    1.000
    C187     C        0.97260    0.69634    0.38832    1.000
    H109     H        0.98100    0.68030    0.44370    1.000
    C188     C        0.03746    0.68908    0.33565    1.000
    H110     H        0.08930    0.66850    0.35430    1.000
    C189     C        0.02520    0.71241    0.25503    1.000
    C190     C        0.94791    0.74071    0.23036    1.000
    H111     H        0.93710    0.75610    0.17480    1.000
    C191     C        0.88666    0.74639    0.28728    1.000
    H112     H        0.83400    0.76650    0.27020    1.000
    C192     C        0.09119    0.71125    0.19789    1.000
    C193     C        0.14207    0.71486    0.14656    1.000
    C194     C        0.20058    0.72038    0.08075    1.000
    C195     C        0.23224    0.78713    0.06900    1.000
    C196     C        0.21380    0.83825    0.11690    1.000
    H113     H        0.17470    0.83460    0.15910    1.000
    C197     C        0.25280    0.89500    0.10280    1.000
    H114     H        0.24130    0.93010    0.13640    1.000
    C198     C        0.30860    0.90090    0.04000    1.000
    H115     H        0.33530    0.93990    0.03090    1.000
    C199     C        0.32550    0.84966    0.99030    1.000
    H116     H        0.36250    0.85380    0.94640    1.000
    C200     C        0.28789    0.79281    0.00530    1.000
    C201     C        0.30429    0.73094    0.96101    1.000
    C202     C        0.21546    0.70454    0.93130    1.000
    C203     C        0.16039    0.69926    0.99495    1.000
    C204     C        0.07887    0.67565    0.97910    1.000
    H117     H        0.04090    0.67340    0.02250    1.000
    C205     C        0.05300    0.65504    0.89860    1.000
    H118     H        0.99760    0.63730    0.88700    1.000
    C206     C        0.10760    0.66030    0.83550    1.000
    H119     H        0.08920    0.64670    0.78050    1.000
    C207     C        0.18950    0.68523    0.85130    1.000
    H120     H        0.22680    0.68880    0.80750    1.000
    C208     C        0.28331    0.68157    0.09652    1.000
    C209     C        0.30520    0.64459    0.16550    1.000
    H121     H        0.26720    0.64030    0.20850    1.000
    C210     C        0.38300    0.61393    0.17110    1.000
    H122     H        0.39830    0.58780    0.21790    1.000
    C211     C        0.43860    0.62086    0.10930    1.000
    H123     H        0.49230    0.59990    0.11410    1.000
    C212     C        0.41680    0.65842    0.03960    1.000
    H124     H        0.45560    0.66370    0.99750    1.000
    C213     C        0.33864    0.68758    0.03285    1.000
    C214     C        0.36135    0.73658    0.89370    1.000
    C215     C        0.40623    0.74068    0.83710    1.000
    C216     C        0.46401    0.74507    0.77143    1.000
    C217     C        0.53841    0.77979    0.78428    1.000
    H125     H        0.55020    0.80260    0.83480    1.000
    C218     C        0.59550    0.78092    0.72265    1.000
    H126     H        0.64690    0.80430    0.73270    1.000
    C219     C        0.50836    0.71853    0.63749    1.000
    H127     H        0.49730    0.69720    0.58570    1.000
    C220     C        0.44775    0.71444    0.69605    1.000
    H128     H        0.39650    0.69120    0.68450    1.000
    C221     C        0.66146    0.81464    0.40192    1.000
    C222     C        0.61507    0.86248    0.34668    1.000
    C223     C        0.63563    0.87110    0.26463    1.000
    H129     H        0.68050    0.84730    0.24380    1.000
    C224     C        0.59137    0.91407    0.21285    1.000
    H130     H        0.60650    0.91950    0.15700    1.000
    C225     C        0.52501    0.94945    0.24168    1.000
    C226     C        0.50583    0.94099    0.32458    1.000
    H131     H        0.46130    0.96500    0.34580    1.000
    C227     C        0.55003    0.89853    0.37632    1.000
    H132     H        0.53600    0.89390    0.43270    1.000
    C228     C        0.47574    0.99556    0.18797    1.000
    C229     C        0.51168    0.02554    0.12176    1.000
    H133     H        0.56740    0.01400    0.10770    1.000
    C230     C        0.46723    0.07176    0.07641    1.000
    H134     H        0.49270    0.09160    0.03150    1.000
    C231     C        0.38541    0.08954    0.09586    1.000
    C232     C        0.34792    0.05790    0.15887    1.000
    H135     H        0.29130    0.06830    0.17130    1.000
    C233     C        0.39185    0.01126    0.20401    1.000
    H136     H        0.36470    0.98960    0.24640    1.000
    C234     C        0.34071    0.14431    0.05361    1.000
    C235     C        0.18368    0.33287    0.91947    1.000
    C236     C        0.13534    0.38474    0.87442    1.000
    C237     C        0.07437    0.41823    0.91342    1.000
    H137     H        0.06510    0.40970    0.97030    1.000
    C238     C        0.02658    0.46413    0.87030    1.000
    H138     H        0.98570    0.48730    0.89830    1.000
    C239     C        0.03778    0.47666    0.78650    1.000
    C240     C        0.09994    0.44329    0.74768    1.000
    H139     H        0.10900    0.45150    0.69070    1.000
    C241     C        0.14868    0.39827    0.79129    1.000
    H140     H        0.19160    0.37640    0.76430    1.000
    C242     C        0.98481    0.52413    0.73890    1.000
    C243     C        0.90130    0.53700    0.75740    1.000
    H141     H        0.87740    0.51450    0.80110    1.000
    C244     C        0.85220    0.58170    0.71360    1.000
    H142     H        0.79530    0.58970    0.72770    1.000
    C245     C        0.88501    0.61489    0.64966    1.000
    C246     C        0.96843    0.60245    0.63018    1.000
    H143     H        0.99210    0.62490    0.58630    1.000
    C247     C        0.01715    0.55776    0.67423    1.000
    H144     H        0.07400    0.54990    0.66000    1.000
    C248     C        0.83268    0.66321    0.60066    1.000
