# CIF file generated by openbabel 3.1.0, see https://openbabel.org
data_I
_chemical_name_common 'image0'
_cell_length_a 20.4391
_cell_length_b 20.4391
_cell_length_c 20.4391
_cell_angle_alpha 90
_cell_angle_beta 90
_cell_angle_gamma 90
_space_group_name_H-M_alt 'P 1'
_space_group_name_Hall 'P 1'
loop_
    _symmetry_equiv_pos_as_xyz
    x,y,z
loop_
    _atom_site_label
    _atom_site_type_symbol
    _atom_site_fract_x
    _atom_site_fract_y
    _atom_site_fract_z
    _atom_site_occupancy
    O1       O        0.13420    0.81110    0.24240    1.000
    O2       O        0.05860    0.88325    0.21160    1.000
    N1       N        0.99570    0.65000    0.01330    1.000
    H1       H        0.95800    0.66230    0.99650    1.000
    N2       N        0.98770    0.57410    0.93280    1.000
    C1       C        0.08630    0.82890    0.20630    1.000
    C2       C        0.06380    0.78100    0.15650    1.000
    C3       C        0.01320    0.79570    0.11490    1.000
    H2       H        0.99290    0.83740    0.11790    1.000
    C4       C        0.99090    0.75190    0.06910    1.000
    H3       H        0.95540    0.76350    0.04140    1.000
    C5       C        0.02010    0.69060    0.06300    1.000
    C6       C        0.07190    0.67480    0.10520    1.000
    H4       H        0.09290    0.63350    0.10210    1.000
    C7       C        0.09210    0.71920    0.15090    1.000
    H5       H        0.12660    0.70760    0.17990    1.000
    C8       C        0.02150    0.59450    0.98730    1.000
    O3       O        0.36580    0.18890    0.74240    1.000
    O4       O        0.44140    0.11675    0.71160    1.000
    N3       N        0.50430    0.35000    0.51330    1.000
    H6       H        0.54200    0.33770    0.49650    1.000
    N4       N        0.51230    0.42590    0.43280    1.000
    C9       C        0.41370    0.17110    0.70630    1.000
    C10      C        0.43620    0.21900    0.65650    1.000
    C11      C        0.48680    0.20430    0.61490    1.000
    H7       H        0.50710    0.16260    0.61790    1.000
    C12      C        0.50910    0.24810    0.56910    1.000
    H8       H        0.54460    0.23650    0.54140    1.000
    C13      C        0.47990    0.30940    0.56300    1.000
    C14      C        0.42810    0.32520    0.60520    1.000
    H9       H        0.40710    0.36650    0.60210    1.000
    C15      C        0.40790    0.28080    0.65090    1.000
    H10      H        0.37340    0.29240    0.67990    1.000
    C16      C        0.47850    0.40550    0.48730    1.000
    O5       O        0.86580    0.31110    0.25760    1.000
    O6       O        0.94140    0.38325    0.28840    1.000
    N5       N        0.00430    0.15000    0.48670    1.000
    H11      H        0.04200    0.16230    0.50350    1.000
    N6       N        0.01230    0.07410    0.56720    1.000
    C17      C        0.91370    0.32890    0.29370    1.000
    C18      C        0.93620    0.28100    0.34350    1.000
    C19      C        0.98680    0.29570    0.38510    1.000
    H12      H        0.00710    0.33740    0.38210    1.000
    C20      C        0.00910    0.25190    0.43090    1.000
    H13      H        0.04460    0.26350    0.45860    1.000
    C21      C        0.97990    0.19060    0.43700    1.000
    C22      C        0.92810    0.17480    0.39480    1.000
    H14      H        0.90710    0.13350    0.39790    1.000
    C23      C        0.90790    0.21920    0.34910    1.000
    H15      H        0.87340    0.20760    0.32010    1.000
    C24      C        0.97850    0.09450    0.51270    1.000
    O7       O        0.63420    0.68890    0.75760    1.000
    O8       O        0.55860    0.61675    0.78840    1.000
    N7       N        0.49570    0.85000    0.98670    1.000
    H16      H        0.45800    0.83770    0.00350    1.000
    N8       N        0.48770    0.92590    0.06720    1.000
    C25      C        0.58630    0.67110    0.79370    1.000
    C26      C        0.56380    0.71900    0.84350    1.000
    C27      C        0.51320    0.70430    0.88510    1.000
    H17      H        0.49290    0.66260    0.88210    1.000
    C28      C        0.49090    0.74810    0.93090    1.000
    H18      H        0.45540    0.73650    0.95860    1.000
    C29      C        0.52010    0.80940    0.93700    1.000
    C30      C        0.57190    0.82520    0.89480    1.000
    H19      H        0.59290    0.86650    0.89790    1.000
    C31      C        0.59210    0.78080    0.84910    1.000
    H20      H        0.62660    0.79240    0.82010    1.000
    C32      C        0.52150    0.90550    0.01270    1.000
    O9       O        0.24240    0.13420    0.81110    1.000
    O10      O        0.21160    0.05860    0.88325    1.000
    N9       N        0.01330    0.99570    0.65000    1.000
    H21      H        0.99650    0.95800    0.66230    1.000
    N10      N        0.93280    0.98770    0.57410    1.000
    C33      C        0.20630    0.08630    0.82890    1.000
    C34      C        0.15650    0.06380    0.78100    1.000
    C35      C        0.11490    0.01320    0.79570    1.000
    H22      H        0.11790    0.99290    0.83740    1.000
    C36      C        0.06910    0.99090    0.75190    1.000
    H23      H        0.04140    0.95540    0.76350    1.000
    C37      C        0.06300    0.02010    0.69060    1.000
    C38      C        0.10520    0.07190    0.67480    1.000
    H24      H        0.10210    0.09290    0.63350    1.000
    C39      C        0.15090    0.09210    0.71920    1.000
    H25      H        0.17990    0.12660    0.70760    1.000
    C40      C        0.98730    0.02150    0.59450    1.000
    O11      O        0.74240    0.36580    0.18890    1.000
    O12      O        0.71160    0.44140    0.11675    1.000
    N11      N        0.51330    0.50430    0.35000    1.000
    H26      H        0.49650    0.54200    0.33770    1.000
    N12      N        0.43280    0.51230    0.42590    1.000
    C41      C        0.70630    0.41370    0.17110    1.000
    C42      C        0.65650    0.43620    0.21900    1.000
    C43      C        0.61490    0.48680    0.20430    1.000
    H27      H        0.61790    0.50710    0.16260    1.000
    C44      C        0.56910    0.50910    0.24810    1.000
    H28      H        0.54140    0.54460    0.23650    1.000
    C45      C        0.56300    0.47990    0.30940    1.000
    C46      C        0.60520    0.42810    0.32520    1.000
    H29      H        0.60210    0.40710    0.36650    1.000
    C47      C        0.65090    0.40790    0.28080    1.000
    H30      H        0.67990    0.37340    0.29240    1.000
    C48      C        0.48730    0.47850    0.40550    1.000
    O13      O        0.25760    0.86580    0.31110    1.000
    O14      O        0.28840    0.94140    0.38325    1.000
    N13      N        0.48670    0.00430    0.15000    1.000
    H31      H        0.50350    0.04200    0.16230    1.000
    N14      N        0.56720    0.01230    0.07410    1.000
    C49      C        0.29370    0.91370    0.32890    1.000
    C50      C        0.34350    0.93620    0.28100    1.000
    C51      C        0.38510    0.98680    0.29570    1.000
    H32      H        0.38210    0.00710    0.33740    1.000
    C52      C        0.43090    0.00910    0.25190    1.000
    H33      H        0.45860    0.04460    0.26350    1.000
    C53      C        0.43700    0.97990    0.19060    1.000
    C54      C        0.39480    0.92810    0.17480    1.000
    H34      H        0.39790    0.90710    0.13350    1.000
    C55      C        0.34910    0.90790    0.21920    1.000
    H35      H        0.32010    0.87340    0.20760    1.000
    C56      C        0.51270    0.97850    0.09450    1.000
    O15      O        0.75760    0.63420    0.68890    1.000
    O16      O        0.78840    0.55860    0.61675    1.000
    N15      N        0.98670    0.49570    0.85000    1.000
    H36      H        0.00350    0.45800    0.83770    1.000
    N16      N        0.06720    0.48770    0.92590    1.000
    C57      C        0.79370    0.58630    0.67110    1.000
    C58      C        0.84350    0.56380    0.71900    1.000
    C59      C        0.88510    0.51320    0.70430    1.000
    H37      H        0.88210    0.49290    0.66260    1.000
    C60      C        0.93090    0.49090    0.74810    1.000
    H38      H        0.95860    0.45540    0.73650    1.000
    C61      C        0.93700    0.52010    0.80940    1.000
    C62      C        0.89480    0.57190    0.82520    1.000
    H39      H        0.89790    0.59290    0.86650    1.000
    C63      C        0.84910    0.59210    0.78080    1.000
    H40      H        0.82010    0.62660    0.79240    1.000
    C64      C        0.01270    0.52150    0.90550    1.000
    O17      O        0.81110    0.24240    0.13420    1.000
    O18      O        0.88325    0.21160    0.05860    1.000
    N17      N        0.65000    0.01330    0.99570    1.000
    H41      H        0.66230    0.99650    0.95800    1.000
    N18      N        0.57410    0.93280    0.98770    1.000
    C65      C        0.82890    0.20630    0.08630    1.000
    C66      C        0.78100    0.15650    0.06380    1.000
    C67      C        0.79570    0.11490    0.01320    1.000
    H42      H        0.83740    0.11790    0.99290    1.000
    C68      C        0.75190    0.06910    0.99090    1.000
    H43      H        0.76350    0.04140    0.95540    1.000
    C69      C        0.69060    0.06300    0.02010    1.000
    C70      C        0.67480    0.10520    0.07190    1.000
    H44      H        0.63350    0.10210    0.09290    1.000
    C71      C        0.71920    0.15090    0.09210    1.000
    H45      H        0.70760    0.17990    0.12660    1.000
    C72      C        0.59450    0.98730    0.02150    1.000
    O19      O        0.18890    0.74240    0.36580    1.000
    O20      O        0.11675    0.71160    0.44140    1.000
    N19      N        0.35000    0.51330    0.50430    1.000
    H46      H        0.33770    0.49650    0.54200    1.000
    N20      N        0.42590    0.43280    0.51230    1.000
    C73      C        0.17110    0.70630    0.41370    1.000
    C74      C        0.21900    0.65650    0.43620    1.000
    C75      C        0.20430    0.61490    0.48680    1.000
    H47      H        0.16260    0.61790    0.50710    1.000
    C76      C        0.24810    0.56910    0.50910    1.000
    H48      H        0.23650    0.54140    0.54460    1.000
    C77      C        0.30940    0.56300    0.47990    1.000
    C78      C        0.32520    0.60520    0.42810    1.000
    H49      H        0.36650    0.60210    0.40710    1.000
    C79      C        0.28080    0.65090    0.40790    1.000
    H50      H        0.29240    0.67990    0.37340    1.000
    C80      C        0.40550    0.48730    0.47850    1.000
    O21      O        0.31110    0.25760    0.86580    1.000
    O22      O        0.38325    0.28840    0.94140    1.000
    N21      N        0.15000    0.48670    0.00430    1.000
    H51      H        0.16230    0.50350    0.04200    1.000
    N22      N        0.07410    0.56720    0.01230    1.000
    C81      C        0.32890    0.29370    0.91370    1.000
    C82      C        0.28100    0.34350    0.93620    1.000
    C83      C        0.29570    0.38510    0.98680    1.000
    H52      H        0.33740    0.38210    0.00710    1.000
    C84      C        0.25190    0.43090    0.00910    1.000
    H53      H        0.26350    0.45860    0.04460    1.000
    C85      C        0.19060    0.43700    0.97990    1.000
    C86      C        0.17480    0.39480    0.92810    1.000
    H54      H        0.13350    0.39790    0.90710    1.000
    C87      C        0.21920    0.34910    0.90790    1.000
    H55      H        0.20760    0.32010    0.87340    1.000
    C88      C        0.09450    0.51270    0.97850    1.000
    O23      O        0.68890    0.75760    0.63420    1.000
    O24      O        0.61675    0.78840    0.55860    1.000
    N23      N        0.85000    0.98670    0.49570    1.000
    H56      H        0.83770    0.00350    0.45800    1.000
    N24      N        0.92590    0.06720    0.48770    1.000
    C89      C        0.67110    0.79370    0.58630    1.000
    C90      C        0.71900    0.84350    0.56380    1.000
    C91      C        0.70430    0.88510    0.51320    1.000
    H57      H        0.66260    0.88210    0.49290    1.000
    C92      C        0.74810    0.93090    0.49090    1.000
    H58      H        0.73650    0.95860    0.45540    1.000
    C93      C        0.80940    0.93700    0.52010    1.000
    C94      C        0.82520    0.89480    0.57190    1.000
    H59      H        0.86650    0.89790    0.59290    1.000
    C95      C        0.78080    0.84910    0.59210    1.000
    H60      H        0.79240    0.82010    0.62660    1.000
    C96      C        0.90550    0.01270    0.52150    1.000
    Tb1      Tb       0.15466    0.84534    0.34534    1.000
    Tb2      Tb       0.34534    0.15466    0.84534    1.000
    Tb3      Tb       0.84534    0.34534    0.15466    1.000
    Tb4      Tb       0.65466    0.65466    0.65466    1.000
    O25      O        0.23605    0.61931    0.18038    1.000
    O26      O        0.20984    0.53500    0.11568    1.000
    N25      N        0.00920    0.48960    0.35070    1.000
    H61      H        0.99100    0.45210    0.33980    1.000
    N26      N        0.01260    0.57090    0.43060    1.000
    C97      C        0.20270    0.56780    0.16670    1.000
    C98      C        0.15360    0.54790    0.21660    1.000
    C99      C        0.14860    0.57960    0.27550    1.000
    H62      H        0.17790    0.61450    0.28500    1.000
    C100     C        0.10150    0.56190    0.32200    1.000
    H63      H        0.09870    0.58460    0.36240    1.000
    C101     C        0.05900    0.51070    0.30820    1.000
    C102     C        0.06440    0.47780    0.24900    1.000
    H64      H        0.03580    0.44240    0.23960    1.000
    C103     C        0.11080    0.49600    0.20370    1.000
    H65      H        0.11390    0.47310    0.16330    1.000
    C104     C        0.98480    0.51720    0.40560    1.000
    O27      O        0.26395    0.38069    0.68038    1.000
    O28      O        0.29016    0.46500    0.61568    1.000
    N27      N        0.49080    0.51040    0.85070    1.000
    H66      H        0.50900    0.54790    0.83980    1.000
    N28      N        0.48740    0.42910    0.93060    1.000
    C105     C        0.29730    0.43220    0.66670    1.000
    C106     C        0.34640    0.45210    0.71660    1.000
    C107     C        0.35140    0.42040    0.77550    1.000
    H67      H        0.32210    0.38550    0.78500    1.000
    C108     C        0.39850    0.43810    0.82200    1.000
    H68      H        0.40130    0.41540    0.86240    1.000
    C109     C        0.44100    0.48930    0.80820    1.000
    C110     C        0.43560    0.52220    0.74900    1.000
    H69      H        0.46420    0.55760    0.73960    1.000
    C111     C        0.38920    0.50400    0.70370    1.000
    H70      H        0.38610    0.52690    0.66330    1.000
    C112     C        0.51520    0.48280    0.90560    1.000
    O29      O        0.76395    0.11931    0.31962    1.000
    O30      O        0.79016    0.03500    0.38432    1.000
    N29      N        0.99080    0.98960    0.14930    1.000
    H71      H        0.00900    0.95210    0.16020    1.000
    N30      N        0.98740    0.07090    0.06940    1.000
    C113     C        0.79730    0.06780    0.33330    1.000
    C114     C        0.84640    0.04790    0.28340    1.000
    C115     C        0.85140    0.07960    0.22450    1.000
    H72      H        0.82210    0.11450    0.21500    1.000
    C116     C        0.89850    0.06190    0.17800    1.000
    H73      H        0.90130    0.08460    0.13760    1.000
    C117     C        0.94100    0.01070    0.19180    1.000
    C118     C        0.93560    0.97780    0.25100    1.000
    H74      H        0.96420    0.94240    0.26040    1.000
    C119     C        0.88920    0.99600    0.29630    1.000
    H75      H        0.88610    0.97310    0.33670    1.000
    C120     C        0.01520    0.01720    0.09440    1.000
    O31      O        0.73605    0.88069    0.81962    1.000
    O32      O        0.70984    0.96500    0.88432    1.000
    N31      N        0.50920    0.01040    0.64930    1.000
    H76      H        0.49100    0.04790    0.66020    1.000
    N32      N        0.51260    0.92910    0.56940    1.000
    C121     C        0.70270    0.93220    0.83330    1.000
    C122     C        0.65360    0.95210    0.78340    1.000
    C123     C        0.64860    0.92040    0.72450    1.000
    H77      H        0.67790    0.88550    0.71500    1.000
    C124     C        0.60150    0.93810    0.67800    1.000
    H78      H        0.59870    0.91540    0.63760    1.000
    C125     C        0.55900    0.98930    0.69180    1.000
    C126     C        0.56440    0.02220    0.75100    1.000
    H79      H        0.53580    0.05760    0.76040    1.000
    C127     C        0.61080    0.00400    0.79630    1.000
    H80      H        0.61390    0.02690    0.83670    1.000
    C128     C        0.48480    0.98280    0.59440    1.000
    O33      O        0.18038    0.23605    0.61931    1.000
    O34      O        0.11568    0.20984    0.53500    1.000
    N33      N        0.35070    0.00920    0.48960    1.000
    H81      H        0.33980    0.99100    0.45210    1.000
    N34      N        0.43060    0.01260    0.57090    1.000
    C129     C        0.16670    0.20270    0.56780    1.000
    C130     C        0.21660    0.15360    0.54790    1.000
    C131     C        0.27550    0.14860    0.57960    1.000
    H82      H        0.28500    0.17790    0.61450    1.000
    C132     C        0.32200    0.10150    0.56190    1.000
    H83      H        0.36240    0.09870    0.58460    1.000
    C133     C        0.30820    0.05900    0.51070    1.000
    C134     C        0.24900    0.06440    0.47780    1.000
    H84      H        0.23960    0.03580    0.44240    1.000
    C135     C        0.20370    0.11080    0.49600    1.000
    H85      H        0.16330    0.11390    0.47310    1.000
    C136     C        0.40560    0.98480    0.51720    1.000
    O35      O        0.68038    0.26395    0.38069    1.000
    O36      O        0.61568    0.29016    0.46500    1.000
    N35      N        0.85070    0.49080    0.51040    1.000
    H86      H        0.83980    0.50900    0.54790    1.000
    N36      N        0.93060    0.48740    0.42910    1.000
    C137     C        0.66670    0.29730    0.43220    1.000
    C138     C        0.71660    0.34640    0.45210    1.000
    C139     C        0.77550    0.35140    0.42040    1.000
    H87      H        0.78500    0.32210    0.38550    1.000
    C140     C        0.82200    0.39850    0.43810    1.000
    H88      H        0.86240    0.40130    0.41540    1.000
    C141     C        0.80820    0.44100    0.48930    1.000
    C142     C        0.74900    0.43560    0.52220    1.000
    H89      H        0.73960    0.46420    0.55760    1.000
    C143     C        0.70370    0.38920    0.50400    1.000
    H90      H        0.66330    0.38610    0.52690    1.000
    C144     C        0.90560    0.51520    0.48280    1.000
    O37      O        0.31962    0.76395    0.11931    1.000
    O38      O        0.38432    0.79016    0.03500    1.000
    N37      N        0.14930    0.99080    0.98960    1.000
    H91      H        0.16020    0.00900    0.95210    1.000
    N38      N        0.06940    0.98740    0.07090    1.000
    C145     C        0.33330    0.79730    0.06780    1.000
    C146     C        0.28340    0.84640    0.04790    1.000
    C147     C        0.22450    0.85140    0.07960    1.000
    H92      H        0.21500    0.82210    0.11450    1.000
    C148     C        0.17800    0.89850    0.06190    1.000
    H93      H        0.13760    0.90130    0.08460    1.000
    C149     C        0.19180    0.94100    0.01070    1.000
    C150     C        0.25100    0.93560    0.97780    1.000
    H94      H        0.26040    0.96420    0.94240    1.000
    C151     C        0.29630    0.88920    0.99600    1.000
    H95      H        0.33670    0.88610    0.97310    1.000
    C152     C        0.09440    0.01520    0.01720    1.000
    O39      O        0.81962    0.73605    0.88069    1.000
    O40      O        0.88432    0.70984    0.96500    1.000
    N39      N        0.64930    0.50920    0.01040    1.000
    H96      H        0.66020    0.49100    0.04790    1.000
    N40      N        0.56940    0.51260    0.92910    1.000
    C153     C        0.83330    0.70270    0.93220    1.000
    C154     C        0.78340    0.65360    0.95210    1.000
    C155     C        0.72450    0.64860    0.92040    1.000
    H97      H        0.71500    0.67790    0.88550    1.000
    C156     C        0.67800    0.60150    0.93810    1.000
    H98      H        0.63760    0.59870    0.91540    1.000
    C157     C        0.69180    0.55900    0.98930    1.000
    C158     C        0.75100    0.56440    0.02220    1.000
    H99      H        0.76040    0.53580    0.05760    1.000
    C159     C        0.79630    0.61080    0.00400    1.000
    H100     H        0.83670    0.61390    0.02690    1.000
    C160     C        0.59440    0.48480    0.98280    1.000
    O41      O        0.61931    0.18038    0.23605    1.000
    O42      O        0.53500    0.11568    0.20984    1.000
    N41      N        0.48960    0.35070    0.00920    1.000
    H101     H        0.45210    0.33980    0.99100    1.000
    N42      N        0.57090    0.43060    0.01260    1.000
    C161     C        0.56780    0.16670    0.20270    1.000
    C162     C        0.54790    0.21660    0.15360    1.000
    C163     C        0.57960    0.27550    0.14860    1.000
    H102     H        0.61450    0.28500    0.17790    1.000
    C164     C        0.56190    0.32200    0.10150    1.000
    H103     H        0.58460    0.36240    0.09870    1.000
    C165     C        0.51070    0.30820    0.05900    1.000
    C166     C        0.47780    0.24900    0.06440    1.000
    H104     H        0.44240    0.23960    0.03580    1.000
    C167     C        0.49600    0.20370    0.11080    1.000
    H105     H        0.47310    0.16330    0.11390    1.000
    C168     C        0.51720    0.40560    0.98480    1.000
    O43      O        0.38069    0.68038    0.26395    1.000
    O44      O        0.46500    0.61568    0.29016    1.000
    N43      N        0.51040    0.85070    0.49080    1.000
    H106     H        0.54790    0.83980    0.50900    1.000
    N44      N        0.42910    0.93060    0.48740    1.000
    C169     C        0.43220    0.66670    0.29730    1.000
    C170     C        0.45210    0.71660    0.34640    1.000
    C171     C        0.42040    0.77550    0.35140    1.000
    H107     H        0.38550    0.78500    0.32210    1.000
    C172     C        0.43810    0.82200    0.39850    1.000
    H108     H        0.41540    0.86240    0.40130    1.000
    C173     C        0.48930    0.80820    0.44100    1.000
    C174     C        0.52220    0.74900    0.43560    1.000
    H109     H        0.55760    0.73960    0.46420    1.000
    C175     C        0.50400    0.70370    0.38920    1.000
    H110     H        0.52690    0.66330    0.38610    1.000
    C176     C        0.48280    0.90560    0.51520    1.000
    O45      O        0.11931    0.31962    0.76395    1.000
    O46      O        0.03500    0.38432    0.79016    1.000
    N45      N        0.98960    0.14930    0.99080    1.000
    H111     H        0.95210    0.16020    0.00900    1.000
    N46      N        0.07090    0.06940    0.98740    1.000
    C177     C        0.06780    0.33330    0.79730    1.000
    C178     C        0.04790    0.28340    0.84640    1.000
    C179     C        0.07960    0.22450    0.85140    1.000
    H112     H        0.11450    0.21500    0.82210    1.000
    C180     C        0.06190    0.17800    0.89850    1.000
    H113     H        0.08460    0.13760    0.90130    1.000
    C181     C        0.01070    0.19180    0.94100    1.000
    C182     C        0.97780    0.25100    0.93560    1.000
    H114     H        0.94240    0.26040    0.96420    1.000
    C183     C        0.99600    0.29630    0.88920    1.000
    H115     H        0.97310    0.33670    0.88610    1.000
    C184     C        0.01720    0.09440    0.01520    1.000
    O47      O        0.88069    0.81962    0.73605    1.000
    O48      O        0.96500    0.88432    0.70984    1.000
    N47      N        0.01040    0.64930    0.50920    1.000
    H116     H        0.04790    0.66020    0.49100    1.000
    N48      N        0.92910    0.56940    0.51260    1.000
    C185     C        0.93220    0.83330    0.70270    1.000
    C186     C        0.95210    0.78340    0.65360    1.000
    C187     C        0.92040    0.72450    0.64860    1.000
    H117     H        0.88550    0.71500    0.67790    1.000
    C188     C        0.93810    0.67800    0.60150    1.000
    H118     H        0.91540    0.63760    0.59870    1.000
    C189     C        0.98930    0.69180    0.55900    1.000
    C190     C        0.02220    0.75100    0.56440    1.000
    H119     H        0.05760    0.76040    0.53580    1.000
    C191     C        0.00400    0.79630    0.61080    1.000
    H120     H        0.02690    0.83670    0.61390    1.000
    C192     C        0.98280    0.59440    0.48480    1.000
    Tb5      Tb       0.33322    0.66678    0.16678    1.000
    Tb6      Tb       0.16678    0.33322    0.66678    1.000
    Tb7      Tb       0.66678    0.16678    0.33322    1.000
    Tb8      Tb       0.83322    0.83322    0.83322    1.000
