data_functionalizedCrystal
_audit_creation_method	'EQeq! by Chris Wilmer'
_symmetry_space_group_name_H-M	'P1'
_symmetry_Int_Tables_number	1
_symmetry_cell_setting	triclinic
loop_
_symmetry_equiv_pos_as_xyz
  x,y,z
_cell_length_a	13.1497
_cell_length_b	13.1497
_cell_length_c	13.1497
_cell_angle_alpha	90
_cell_angle_beta	90
_cell_angle_gamma	90
loop_
_atom_site_label
_atom_site_type_symbol
_atom_site_fract_x
_atom_site_fract_y
_atom_site_fract_z
_atom_site_charge
Mof_N 	N 	0.4376	0.4567	0.13536	-0.265
Mof_N 	N 	0.4813	0.4628	0.21406	-0.054
Mof_N 	N 	0.5192	0.4662	0.2922	-0.362
Mof_N 	N 	0.0624	0.5433	0.63536	-0.214
Mof_N 	N 	0.0187	0.5372	0.71406	-0.163
Mof_N 	N 	0.9808	0.5338	0.7922	-0.02
Mof_N 	N 	0.5624	0.9567	0.36464	-0.129
Mof_N 	N 	0.5187	0.9628	0.28594	-0.017
Mof_N 	N 	0.4808	0.9662	0.2078	-0.187
Mof_N 	N 	0.9376	0.0433	0.86464	-0.024
Mof_N 	N 	0.9813	0.0372	0.78594	0.086
Mof_N 	N 	0.0192	0.0338	0.7078	-0.385
Mof_N 	N 	0.13536	0.4376	0.4567	-0.264
Mof_N 	N 	0.21406	0.4813	0.4628	-0.053
Mof_N 	N 	0.2922	0.5192	0.4662	-0.361
Mof_N 	N 	0.63536	0.0624	0.5433	-0.213
Mof_N 	N 	0.71406	0.0187	0.5372	-0.162
Mof_N 	N 	0.7922	0.9808	0.5338	-0.019
Mof_N 	N 	0.36464	0.5624	0.9567	-0.128
Mof_N 	N 	0.28594	0.5187	0.9628	-0.017
Mof_N 	N 	0.2078	0.4808	0.9662	-0.187
Mof_N 	N 	0.86464	0.9376	0.0433	-0.024
Mof_N 	N 	0.78594	0.9813	0.0372	0.086
Mof_N 	N 	0.7078	0.0192	0.0338	-0.385
Mof_N 	N 	0.4567	0.13536	0.4376	-0.264
Mof_N 	N 	0.4628	0.21406	0.4813	-0.053
Mof_N 	N 	0.4662	0.2922	0.5192	-0.361
Mof_N 	N 	0.5433	0.63536	0.0624	-0.213
Mof_N 	N 	0.5372	0.71406	0.0187	-0.162
Mof_N 	N 	0.5338	0.7922	0.9808	-0.019
Mof_N 	N 	0.9567	0.36464	0.5624	-0.128
Mof_N 	N 	0.9628	0.28594	0.5187	-0.017
Mof_N 	N 	0.9662	0.2078	0.4808	-0.187
Mof_N 	N 	0.0433	0.86464	0.9376	-0.024
Mof_N 	N 	0.0372	0.78594	0.9813	0.086
Mof_N 	N 	0.0338	0.7078	0.0192	-0.385
Mof_N 	N 	0.5624	0.5433	0.86464	-0.126
Mof_N 	N 	0.5187	0.5372	0.78594	-0.027
Mof_N 	N 	0.4808	0.5338	0.7078	-0.335
Mof_N 	N 	0.9376	0.4567	0.36464	-0.164
Mof_N 	N 	0.9813	0.4628	0.28594	0.09
Mof_N 	N 	0.0192	0.4662	0.2078	-0.396
Mof_N 	N 	0.4376	0.0433	0.63536	-0.243
Mof_N 	N 	0.4813	0.0372	0.71406	-0.061
Mof_N 	N 	0.5192	0.0338	0.7922	-0.22
Mof_N 	N 	0.0624	0.9567	0.13536	-0.095
Mof_N 	N 	0.0187	0.9628	0.21406	-0.144
Mof_N 	N 	0.9808	0.9662	0.2922	-0.006
Mof_N 	N 	0.86464	0.5624	0.5433	-0.126
Mof_N 	N 	0.78594	0.5187	0.5372	-0.027
Mof_N 	N 	0.7078	0.4808	0.5338	-0.335
Mof_N 	N 	0.36464	0.9376	0.4567	-0.164
Mof_N 	N 	0.28594	0.9813	0.4628	0.09
Mof_N 	N 	0.2078	0.0192	0.4662	-0.396
Mof_N 	N 	0.63536	0.4376	0.0433	-0.243
Mof_N 	N 	0.71406	0.4813	0.0372	-0.061
Mof_N 	N 	0.7922	0.5192	0.0338	-0.22
Mof_N 	N 	0.13536	0.0624	0.9567	-0.095
Mof_N 	N 	0.21406	0.0187	0.9628	-0.144
Mof_N 	N 	0.2922	0.9808	0.9662	-0.006
Mof_N 	N 	0.5433	0.86464	0.5624	-0.126
Mof_N 	N 	0.5372	0.78594	0.5187	-0.027
Mof_N 	N 	0.5338	0.7078	0.4808	-0.335
Mof_N 	N 	0.4567	0.36464	0.9376	-0.164
Mof_N 	N 	0.4628	0.28594	0.9813	0.09
Mof_N 	N 	0.4662	0.2078	0.0192	-0.396
Mof_N 	N 	0.0433	0.63536	0.4376	-0.243
Mof_N 	N 	0.0372	0.71406	0.4813	-0.061
Mof_N 	N 	0.0338	0.7922	0.5192	-0.22
Mof_N 	N 	0.9567	0.13536	0.0624	-0.095
Mof_N 	N 	0.9628	0.21406	0.0187	-0.144
Mof_N 	N 	0.9662	0.2922	0.9808	-0.006
Mof_Cr	Cr	0.5	0.5	-0	0.922
Mof_Cr	Cr	-9.22734e-33	0.5	0.5	0.922
Mof_Cr	Cr	0.5	-5.55102e-33	0.5	0.922
Mof_Cr	Cr	-0	0	-0	0.012
Mof_K 	K 	0.5	0.5	0.5	3.034
Mof_K 	K 	-5.55102e-33	0.5	-0	1.519
Mof_K 	K 	0.5	0	-0	1.519
Mof_K 	K 	-3.67632e-33	-5.55102e-33	0.5	1.519
_end
