# CIF file generated by openbabel 3.1.0, see https://openbabel.org
data_I
_chemical_name_common 'image0'
_cell_length_a 13.717
_cell_length_b 8.9401
_cell_length_c 16.635
_cell_angle_alpha 90
_cell_angle_beta 93.6
_cell_angle_gamma 90
_space_group_name_H-M_alt 'P 1'
_space_group_name_Hall 'P 1'
loop_
    _symmetry_equiv_pos_as_xyz
    x,y,z
loop_
    _atom_site_label
    _atom_site_type_symbol
    _atom_site_fract_x
    _atom_site_fract_y
    _atom_site_fract_z
    _atom_site_occupancy
    Ag1      Ag       0.63912    0.32627    0.56640    1.000
    Ag2      Ag       0.90361    0.61652    0.30017    1.000
    N1       N        0.68520    0.37970    0.44340    1.000
    H1       H        0.74530    0.34170    0.43860    1.000
    H2       H        0.64440    0.33260    0.40720    1.000
    N2       N        0.49410    0.84130    0.44280    1.000
    H3       H        0.47910    0.92090    0.41140    1.000
    H4       H        0.50200    0.87430    0.49400    1.000
    N3       N        0.80170    0.80450    0.36060    1.000
    H5       H        0.83270    0.89290    0.35760    1.000
    H6       H        0.74610    0.81180    0.32920    1.000
    N4       N        0.82000    0.94210    0.68590    1.000
    H7       H        0.85270    0.90620    0.64480    1.000
    H8       H        0.76220    0.89440    0.68490    1.000
    N5       N        0.96800    0.41910    0.61540    1.000
    H9       H        0.95740    0.51820    0.61090    1.000
    H10      H        0.98250    0.38530    0.56660    1.000
    N6       N        0.65970    0.38560    0.69720    1.000
    H11      H        0.65370    0.48560    0.70100    1.000
    H12      H        0.60960    0.34520    0.72200    1.000
    C1       C        0.68720    0.54100    0.42210    1.000
    H13      H        0.69530    0.55050    0.36420    1.000
    C2       C        0.59210    0.61320    0.44120    1.000
    H14      H        0.58300    0.60210    0.49820    1.000
    H15      H        0.53860    0.56200    0.41170    1.000
    C3       C        0.58880    0.77920    0.41940    1.000
    H16      H        0.59200    0.78910    0.36090    1.000
    C4       C        0.67680    0.86060    0.46110    1.000
    H17      H        0.67780    0.96310    0.44200    1.000
    H18      H        0.66920    0.86310    0.51870    1.000
    C5       C        0.77370    0.78620    0.44560    1.000
    H19      H        0.82450    0.83390    0.48090    1.000
    C6       C        0.77110    0.61980    0.46770    1.000
    H20      H        0.83220    0.57310    0.45530    1.000
    H21      H        0.76420    0.60960    0.52520    1.000
    C7       C        0.80110    0.10280    0.67120    1.000
    H22      H        0.75190    0.11340    0.62620    1.000
    C8       C        0.89350    0.18100    0.65000    1.000
    H23      H        0.91680    0.13720    0.60140    1.000
    H24      H        0.94350    0.16680    0.69320    1.000
    C9       C        0.87590    0.34710    0.63690    1.000
    H25      H        0.82670    0.36020    0.59220    1.000
    C10      C        0.83910    0.41970    0.71150    1.000
    H26      H        0.82250    0.52300    0.69910    1.000
    H27      H        0.89150    0.42010    0.75340    1.000
    C11      C        0.75020    0.34310    0.74400    1.000
    H28      H        0.74460    0.37760    0.79940    1.000
    C12      C        0.76180    0.17200    0.74640    1.000
    H29      H        0.80550    0.14590    0.79240    1.000
    H30      H        0.69870    0.12770    0.75480    1.000
    Ag3      Ag       0.36088    0.82627    0.93360    1.000
    Ag4      Ag       0.09639    0.11652    0.19983    1.000
    N7       N        0.31480    0.87970    0.05660    1.000
    H31      H        0.25470    0.84170    0.06140    1.000
    H32      H        0.35560    0.83260    0.09280    1.000
    N8       N        0.50590    0.34130    0.05720    1.000
    H33      H        0.52090    0.42090    0.08860    1.000
    H34      H        0.49800    0.37430    0.00600    1.000
    N9       N        0.19830    0.30450    0.13940    1.000
    H35      H        0.16730    0.39290    0.14240    1.000
    H36      H        0.25390    0.31180    0.17080    1.000
    N10      N        0.18000    0.44210    0.81410    1.000
    H37      H        0.14730    0.40620    0.85520    1.000
    H38      H        0.23780    0.39440    0.81510    1.000
    N11      N        0.03200    0.91910    0.88460    1.000
    H39      H        0.04260    0.01820    0.88910    1.000
    H40      H        0.01750    0.88530    0.93340    1.000
    N12      N        0.34030    0.88560    0.80280    1.000
    H41      H        0.34630    0.98560    0.79900    1.000
    H42      H        0.39040    0.84520    0.77800    1.000
    C13      C        0.31280    0.04100    0.07790    1.000
    H43      H        0.30470    0.05050    0.13580    1.000
    C14      C        0.40790    0.11320    0.05880    1.000
    H44      H        0.41700    0.10210    0.00180    1.000
    H45      H        0.46140    0.06200    0.08830    1.000
    C15      C        0.41120    0.27920    0.08060    1.000
    H46      H        0.40800    0.28910    0.13910    1.000
    C16      C        0.32320    0.36060    0.03890    1.000
    H47      H        0.32220    0.46310    0.05800    1.000
    H48      H        0.33080    0.36310    0.98130    1.000
    C17      C        0.22630    0.28620    0.05440    1.000
    H49      H        0.17550    0.33390    0.01910    1.000
    C18      C        0.22890    0.11980    0.03230    1.000
    H50      H        0.16780    0.07310    0.04470    1.000
    H51      H        0.23580    0.10960    0.97480    1.000
    C19      C        0.19890    0.60280    0.82880    1.000
    H52      H        0.24810    0.61340    0.87380    1.000
    C20      C        0.10650    0.68100    0.85000    1.000
    H53      H        0.08320    0.63720    0.89860    1.000
    H54      H        0.05650    0.66680    0.80680    1.000
    C21      C        0.12410    0.84710    0.86310    1.000
    H55      H        0.17330    0.86020    0.90780    1.000
    C22      C        0.16090    0.91970    0.78850    1.000
    H56      H        0.17750    0.02300    0.80090    1.000
    H57      H        0.10850    0.92010    0.74660    1.000
    C23      C        0.24980    0.84310    0.75600    1.000
    H58      H        0.25540    0.87760    0.70060    1.000
    C24      C        0.23820    0.67200    0.75360    1.000
    H59      H        0.19450    0.64590    0.70760    1.000
    H60      H        0.30130    0.62770    0.74520    1.000
    Ag5      Ag       0.36088    0.67373    0.43360    1.000
    Ag6      Ag       0.09639    0.38348    0.69983    1.000
    N13      N        0.31480    0.62030    0.55660    1.000
    H61      H        0.25470    0.65830    0.56140    1.000
    H62      H        0.35560    0.66740    0.59280    1.000
    N14      N        0.50590    0.15870    0.55720    1.000
    H63      H        0.52090    0.07910    0.58860    1.000
    H64      H        0.49800    0.12570    0.50600    1.000
    N15      N        0.19830    0.19550    0.63940    1.000
    H65      H        0.16730    0.10710    0.64240    1.000
    H66      H        0.25390    0.18820    0.67080    1.000
    N16      N        0.18000    0.05790    0.31410    1.000
    H67      H        0.14730    0.09380    0.35520    1.000
    H68      H        0.23780    0.10560    0.31510    1.000
    N17      N        0.03200    0.58090    0.38460    1.000
    H69      H        0.04260    0.48180    0.38910    1.000
    H70      H        0.01750    0.61470    0.43340    1.000
    N18      N        0.34030    0.61440    0.30280    1.000
    H71      H        0.34630    0.51440    0.29900    1.000
    H72      H        0.39040    0.65480    0.27800    1.000
    C25      C        0.31280    0.45900    0.57790    1.000
    H73      H        0.30470    0.44950    0.63580    1.000
    C26      C        0.40790    0.38680    0.55880    1.000
    H74      H        0.41700    0.39790    0.50180    1.000
    H75      H        0.46140    0.43800    0.58830    1.000
    C27      C        0.41120    0.22080    0.58060    1.000
    H76      H        0.40800    0.21090    0.63910    1.000
    C28      C        0.32320    0.13940    0.53890    1.000
    H77      H        0.32220    0.03690    0.55800    1.000
    H78      H        0.33080    0.13690    0.48130    1.000
    C29      C        0.22630    0.21380    0.55440    1.000
    H79      H        0.17550    0.16610    0.51910    1.000
    C30      C        0.22890    0.38020    0.53230    1.000
    H80      H        0.16780    0.42690    0.54470    1.000
    H81      H        0.23580    0.39040    0.47480    1.000
    C31      C        0.19890    0.89720    0.32880    1.000
    H82      H        0.24810    0.88660    0.37380    1.000
    C32      C        0.10650    0.81900    0.35000    1.000
    H83      H        0.08320    0.86280    0.39860    1.000
    H84      H        0.05650    0.83320    0.30680    1.000
    C33      C        0.12410    0.65290    0.36310    1.000
    H85      H        0.17330    0.63980    0.40780    1.000
    C34      C        0.16090    0.58030    0.28850    1.000
    H86      H        0.17750    0.47700    0.30090    1.000
    H87      H        0.10850    0.57990    0.24660    1.000
    C35      C        0.24980    0.65690    0.25600    1.000
    H88      H        0.25540    0.62240    0.20060    1.000
    C36      C        0.23820    0.82800    0.25360    1.000
    H89      H        0.19450    0.85410    0.20760    1.000
    H90      H        0.30130    0.87230    0.24520    1.000
    Ag7      Ag       0.63912    0.17373    0.06640    1.000
    Ag8      Ag       0.90361    0.88348    0.80017    1.000
    N19      N        0.68520    0.12030    0.94340    1.000
    H91      H        0.74530    0.15830    0.93860    1.000
    H92      H        0.64440    0.16740    0.90720    1.000
    N20      N        0.49410    0.65870    0.94280    1.000
    H93      H        0.47910    0.57910    0.91140    1.000
    H94      H        0.50200    0.62570    0.99400    1.000
    N21      N        0.80170    0.69550    0.86060    1.000
    H95      H        0.83270    0.60710    0.85760    1.000
    H96      H        0.74610    0.68820    0.82920    1.000
    N22      N        0.82000    0.55790    0.18590    1.000
    H97      H        0.85270    0.59380    0.14480    1.000
    H98      H        0.76220    0.60560    0.18490    1.000
    N23      N        0.96800    0.08090    0.11540    1.000
    H99      H        0.95740    0.98180    0.11090    1.000
    H100     H        0.98250    0.11470    0.06660    1.000
    N24      N        0.65970    0.11440    0.19720    1.000
    H101     H        0.65370    0.01440    0.20100    1.000
    H102     H        0.60960    0.15480    0.22200    1.000
    C37      C        0.68720    0.95900    0.92210    1.000
    H103     H        0.69530    0.94950    0.86420    1.000
    C38      C        0.59210    0.88680    0.94120    1.000
    H104     H        0.58300    0.89790    0.99820    1.000
    H105     H        0.53860    0.93800    0.91170    1.000
    C39      C        0.58880    0.72080    0.91940    1.000
    H106     H        0.59200    0.71090    0.86090    1.000
    C40      C        0.67680    0.63940    0.96110    1.000
    H107     H        0.67780    0.53690    0.94200    1.000
    H108     H        0.66920    0.63690    0.01870    1.000
    C41      C        0.77370    0.71380    0.94560    1.000
    H109     H        0.82450    0.66610    0.98090    1.000
    C42      C        0.77110    0.88020    0.96770    1.000
    H110     H        0.83220    0.92690    0.95530    1.000
    H111     H        0.76420    0.89040    0.02520    1.000
    C43      C        0.80110    0.39720    0.17120    1.000
    H112     H        0.75190    0.38660    0.12620    1.000
    C44      C        0.89350    0.31900    0.15000    1.000
    H113     H        0.91680    0.36280    0.10140    1.000
    H114     H        0.94350    0.33320    0.19320    1.000
    C45      C        0.87590    0.15290    0.13690    1.000
    H115     H        0.82670    0.13980    0.09220    1.000
    C46      C        0.83910    0.08030    0.21150    1.000
    H116     H        0.82250    0.97700    0.19910    1.000
    H117     H        0.89150    0.07990    0.25340    1.000
    C47      C        0.75020    0.15690    0.24400    1.000
    H118     H        0.74460    0.12240    0.29940    1.000
    C48      C        0.76180    0.32800    0.24640    1.000
    H119     H        0.80550    0.35410    0.29240    1.000
    H120     H        0.69870    0.37230    0.25480    1.000
