data_functionalizedCrystal
_audit_creation_method	'EQeq! by Chris Wilmer'
_symmetry_space_group_name_H-M	'P1'
_symmetry_Int_Tables_number	1
_symmetry_cell_setting	triclinic
loop_
_symmetry_equiv_pos_as_xyz
  x,y,z
_cell_length_a	6.961
_cell_length_b	26.303
_cell_length_c	17.797
_cell_angle_alpha	90
_cell_angle_beta	97.86
_cell_angle_gamma	90
loop_
_atom_site_label
_atom_site_type_symbol
_atom_site_fract_x
_atom_site_fract_y
_atom_site_fract_z
_atom_site_charge
Mof_O 	O 	0.6053	0.1183	0.5397	-0.422
Mof_O 	O 	0.3271	0.1571	0.5273	-0.467
Mof_C 	C 	0.5073	0.1579	0.5284	0.339
Mof_O 	O 	0.9549	0.5797	0.4501	-0.527
Mof_C 	C 	0.0227	0.5488	0.4076	0.532
Mof_O 	O 	0.576	0.5375	0.4463	-0.57
Mof_C 	C 	0.656	0.7615	0.329	0.12
Mof_H 	H 	0.7019	0.777	0.3749	-0.013
Mof_N 	N 	0.5959	0.7915	0.2696	-0.17
Mof_C 	C 	0.532	0.7682	0.2048	0.121
Mof_H 	H 	0.4906	0.7879	0.1624	-0.012
Mof_O 	O 	0.6928	0.5514	0.0591	-0.543
Mof_C 	C 	0.6097	0.2079	0.5203	-0.127
Mof_Dy	Dy	0.31803	0.43003	0.06619	1.866
Mof_Dy	Dy	0.23659	0.43175	0.45085	2.016
Mof_O 	O 	0.4323	0.476	0.3753	-0.544
Mof_O 	O 	0.2941	0.3437	0.4856	-0.461
Mof_O 	O 	0.1832	0.5176	0.0801	-0.421
Mof_O 	O 	0.1538	0.4609	0.168	-0.467
Mof_O 	O 	0.5493	0.3841	0.4585	-0.419
Mof_C 	C 	0.5736	0.5235	0.2458	0.194
Mof_H 	H 	0.566	0.4883	0.2428	-0.05
Mof_C 	C 	0.0528	0.5671	0.3283	-0.202
Mof_C 	C 	0.6034	0.5509	0.1832	-0.248
Mof_C 	C 	0.5585	0.5997	0.3161	0.134
Mof_H 	H 	0.5447	0.6158	0.3616	-0.015
Mof_C 	C 	0.5031	0.2515	0.5047	0.051
Mof_H 	H 	0.3684	0.2499	0.4971	0.029
Mof_C 	C 	0.4712	0.3442	0.4803	0.333
Mof_C 	C 	0.148	0.5078	0.1457	0.339
Mof_C 	C 	0.5204	0.5177	0.3836	0.547
Mof_C 	C 	0.0498	0.619	0.3112	0.07
Mof_H 	H 	0.0312	0.6426	0.3483	0.015
Mof_C 	C 	0.0806	0.5326	0.2733	0.126
Mof_H 	H 	0.0823	0.4982	0.2851	-0.025
Mof_C 	C 	0.5821	0.6292	0.2536	-0.144
Mof_C 	C 	0.5547	0.5473	0.3133	-0.256
Mof_C 	C 	0.596	0.2983	0.5001	-0.125
Mof_C 	C 	0.1024	0.5995	0.1835	0.049
Mof_H 	H 	0.1187	0.6099	0.1349	0.018
Mof_C 	C 	0.106	0.5471	0.201	-0.145
Mof_C 	C 	0.6069	0.6043	0.186	0.118
Mof_H 	H 	0.6256	0.623	0.1432	-0.005
Mof_C 	C 	0.6541	0.7101	0.3261	-0.214
Mof_H 	H 	0.6969	0.6912	0.3693	0.114
Mof_C 	C 	0.6238	0.5258	0.1087	0.536
Mof_C 	C 	0.0749	0.6355	0.238	-0.087
Mof_C 	C 	0.5876	0.6856	0.2579	0.169
Mof_C 	C 	0.525	0.7156	0.1976	-0.21
Mof_H 	H 	0.4775	0.701	0.1512	0.11
Mof_C 	C 	0.8104	0.2112	0.5329	0.055
Mof_H 	H 	0.8844	0.1821	0.5439	0.005
Mof_C 	C 	0.064	0.6904	0.2197	0.127
Mof_C 	C 	0.793	0.3015	0.512	0.054
Mof_H 	H 	0.8543	0.3326	0.5088	0.018
Mof_C 	C 	0.9828	0.7088	0.1494	-0.179
Mof_H 	H 	0.939	0.6865	0.1101	0.096
Mof_C 	C 	0.9008	0.2578	0.5291	-0.128
Mof_H 	H 	0.0354	0.2598	0.538	0.077
Mof_C 	C 	0.1268	0.7271	0.2756	-0.174
Mof_H 	H 	0.1846	0.7174	0.3236	0.099
Mof_N 	N 	0.019	0.7956	0.1902	-0.165
Mof_C 	C 	0.1	0.7785	0.2568	0.104
Mof_H 	H 	0.1418	0.8023	0.294	-0.011
Mof_C 	C 	0.968	0.7614	0.1387	0.101
Mof_H 	H 	0.9175	0.7729	0.0906	-0.001
Mof_O 	O 	0.5794	0.4795	0.1013	-0.552
Mof_O 	O 	0.0608	0.5032	0.4223	-0.591
Mof_O 	O 	0.3947	0.6183	0.9603	-0.422
Mof_O 	O 	0.6729	0.6571	0.9727	-0.465
Mof_C 	C 	0.4927	0.6579	0.9716	0.341
Mof_O 	O 	0.0451	0.0797	0.0499	-0.524
Mof_C 	C 	0.9773	0.0488	0.0924	0.532
Mof_O 	O 	0.424	0.0375	0.0537	-0.567
Mof_C 	C 	0.344	0.2615	0.171	0.122
Mof_H 	H 	0.2981	0.277	0.1251	-0.012
Mof_N 	N 	0.4041	0.2915	0.2304	-0.17
Mof_C 	C 	0.468	0.2682	0.2952	0.122
Mof_H 	H 	0.5094	0.2879	0.3376	-0.012
Mof_O 	O 	0.3072	0.0514	0.4409	-0.543
Mof_C 	C 	0.3903	0.7079	0.9797	-0.13
Mof_Dy	Dy	0.68197	0.93003	0.43381	1.864
Mof_Dy	Dy	0.76341	0.93175	0.04915	2.009
Mof_O 	O 	0.5677	0.976	0.1247	-0.545
Mof_O 	O 	0.7059	0.8437	0.0144	-0.461
Mof_O 	O 	0.8168	0.0176	0.4199	-0.422
Mof_O 	O 	0.8462	0.9609	0.332	-0.469
Mof_O 	O 	0.4507	0.8841	0.0415	-0.419
Mof_C 	C 	0.4264	0.0235	0.2542	0.197
Mof_H 	H 	0.434	0.9883	0.2572	-0.051
Mof_C 	C 	0.9472	0.0671	0.1717	-0.204
Mof_C 	C 	0.3966	0.0509	0.3168	-0.249
Mof_C 	C 	0.4415	0.0997	0.1839	0.135
Mof_H 	H 	0.4553	0.1158	0.1384	-0.015
Mof_C 	C 	0.4969	0.7515	0.9953	0.055
Mof_H 	H 	0.6316	0.7499	0.0029	0.027
Mof_C 	C 	0.5288	0.8442	0.0197	0.333
Mof_C 	C 	0.852	0.0078	0.3543	0.341
Mof_C 	C 	0.4796	0.0177	0.1164	0.55
Mof_C 	C 	0.9502	0.119	0.1888	0.071
Mof_H 	H 	0.9688	0.1426	0.1517	0.015
Mof_C 	C 	0.9194	0.0326	0.2267	0.132
Mof_H 	H 	0.9177	0.9982	0.2149	-0.028
Mof_C 	C 	0.4179	0.1292	0.2464	-0.144
Mof_C 	C 	0.4453	0.0473	0.1867	-0.258
Mof_C 	C 	0.404	0.7983	0.9999	-0.125
Mof_C 	C 	0.8976	0.0995	0.3165	0.05
Mof_H 	H 	0.8813	0.1099	0.3651	0.018
Mof_C 	C 	0.894	0.0471	0.299	-0.148
Mof_C 	C 	0.3931	0.1043	0.314	0.119
Mof_H 	H 	0.3744	0.123	0.3568	-0.005
Mof_C 	C 	0.3459	0.2101	0.1739	-0.214
Mof_H 	H 	0.3031	0.1912	0.1307	0.115
Mof_C 	C 	0.3762	0.0258	0.3913	0.537
Mof_C 	C 	0.9251	0.1355	0.262	-0.088
Mof_C 	C 	0.4124	0.1856	0.2421	0.17
Mof_C 	C 	0.475	0.2156	0.3024	-0.21
Mof_H 	H 	0.5225	0.201	0.3488	0.11
Mof_C 	C 	0.1896	0.7112	0.9671	0.058
Mof_H 	H 	0.1156	0.6821	0.9561	0.004
Mof_C 	C 	0.936	0.1904	0.2803	0.127
Mof_C 	C 	0.207	0.8015	0.988	0.056
Mof_H 	H 	0.1457	0.8326	0.9912	0.018
Mof_C 	C 	0.0172	0.2088	0.3506	-0.179
Mof_H 	H 	0.061	0.1865	0.3899	0.096
Mof_C 	C 	0.0992	0.7578	0.9709	-0.132
Mof_H 	H 	0.9646	0.7598	0.962	0.08
Mof_C 	C 	0.8732	0.2271	0.2244	-0.174
Mof_H 	H 	0.8154	0.2174	0.1764	0.099
Mof_N 	N 	0.981	0.2956	0.3098	-0.166
Mof_C 	C 	0.9	0.2785	0.2432	0.104
Mof_H 	H 	0.8582	0.3023	0.206	-0.011
Mof_C 	C 	0.032	0.2614	0.3613	0.102
Mof_H 	H 	0.0825	0.2729	0.4094	-0.001
Mof_O 	O 	0.4206	0.9795	0.3987	-0.553
Mof_O 	O 	0.9392	0.0032	0.0777	-0.589
Mof_O 	O 	0.3947	0.8817	0.4603	-0.421
Mof_O 	O 	0.6729	0.8429	0.4727	-0.466
Mof_C 	C 	0.4927	0.8421	0.4716	0.34
Mof_O 	O 	0.0451	0.4203	0.5499	-0.526
Mof_C 	C 	0.9773	0.4512	0.5924	0.533
Mof_O 	O 	0.424	0.4625	0.5537	-0.569
Mof_C 	C 	0.344	0.2385	0.671	0.121
Mof_H 	H 	0.2981	0.223	0.6251	-0.012
Mof_N 	N 	0.4041	0.2085	0.7304	-0.17
Mof_C 	C 	0.468	0.2318	0.7952	0.121
Mof_H 	H 	0.5094	0.2121	0.8376	-0.012
Mof_O 	O 	0.3072	0.4486	0.9409	-0.543
Mof_C 	C 	0.3903	0.7921	0.4797	-0.127
Mof_Dy	Dy	0.68197	0.56997	0.93381	1.866
Mof_Dy	Dy	0.76341	0.56825	0.54915	2.016
Mof_O 	O 	0.5677	0.524	0.6247	-0.544
Mof_O 	O 	0.7059	0.6563	0.5144	-0.461
Mof_O 	O 	0.8168	0.4824	0.9199	-0.421
Mof_O 	O 	0.8462	0.5391	0.832	-0.467
Mof_O 	O 	0.4507	0.6159	0.5415	-0.419
Mof_C 	C 	0.4264	0.4765	0.7542	0.194
Mof_H 	H 	0.434	0.5117	0.7572	-0.05
Mof_C 	C 	0.9472	0.4329	0.6717	-0.202
Mof_C 	C 	0.3966	0.4491	0.8168	-0.248
Mof_C 	C 	0.4415	0.4003	0.6839	0.134
Mof_H 	H 	0.4553	0.3842	0.6384	-0.015
Mof_C 	C 	0.4969	0.7485	0.4953	0.051
Mof_H 	H 	0.6316	0.7501	0.5029	0.029
Mof_C 	C 	0.5288	0.6558	0.5197	0.333
Mof_C 	C 	0.852	0.4922	0.8543	0.339
Mof_C 	C 	0.4796	0.4823	0.6164	0.547
Mof_C 	C 	0.9502	0.381	0.6888	0.07
Mof_H 	H 	0.9688	0.3574	0.6517	0.015
Mof_C 	C 	0.9194	0.4674	0.7267	0.126
Mof_H 	H 	0.9177	0.5018	0.7149	-0.025
Mof_C 	C 	0.4179	0.3708	0.7464	-0.144
Mof_C 	C 	0.4453	0.4527	0.6867	-0.256
Mof_C 	C 	0.404	0.7017	0.4999	-0.125
Mof_C 	C 	0.8976	0.4005	0.8165	0.049
Mof_H 	H 	0.8813	0.3901	0.8651	0.018
Mof_C 	C 	0.894	0.4529	0.799	-0.145
Mof_C 	C 	0.3931	0.3957	0.814	0.118
Mof_H 	H 	0.3744	0.377	0.8568	-0.005
Mof_C 	C 	0.3459	0.2899	0.6739	-0.214
Mof_H 	H 	0.3031	0.3088	0.6307	0.114
Mof_C 	C 	0.3762	0.4742	0.8913	0.536
Mof_C 	C 	0.9251	0.3645	0.762	-0.087
Mof_C 	C 	0.4124	0.3144	0.7421	0.169
Mof_C 	C 	0.475	0.2844	0.8024	-0.21
Mof_H 	H 	0.5225	0.299	0.8488	0.11
Mof_C 	C 	0.1896	0.7888	0.4671	0.055
Mof_H 	H 	0.1156	0.8179	0.4561	0.005
Mof_C 	C 	0.936	0.3096	0.7803	0.127
Mof_C 	C 	0.207	0.6985	0.488	0.054
Mof_H 	H 	0.1457	0.6674	0.4912	0.018
Mof_C 	C 	0.0172	0.2912	0.8506	-0.179
Mof_H 	H 	0.061	0.3135	0.8899	0.096
Mof_C 	C 	0.0992	0.7422	0.4709	-0.128
Mof_H 	H 	0.9646	0.7402	0.462	0.077
Mof_C 	C 	0.8732	0.2729	0.7244	-0.174
Mof_H 	H 	0.8154	0.2826	0.6764	0.099
Mof_N 	N 	0.981	0.2044	0.8098	-0.165
Mof_C 	C 	0.9	0.2215	0.7432	0.104
Mof_H 	H 	0.8582	0.1977	0.706	-0.011
Mof_C 	C 	0.032	0.2386	0.8613	0.101
Mof_H 	H 	0.0825	0.2271	0.9094	-0.001
Mof_O 	O 	0.4206	0.5205	0.8987	-0.552
Mof_O 	O 	0.9392	0.4968	0.5777	-0.591
Mof_O 	O 	0.6053	0.3817	0.0397	-0.422
Mof_O 	O 	0.3271	0.3429	0.0273	-0.465
Mof_C 	C 	0.5073	0.3421	0.0284	0.341
Mof_O 	O 	0.9549	0.9203	0.9501	-0.524
Mof_C 	C 	0.0227	0.9512	0.9076	0.532
Mof_O 	O 	0.576	0.9625	0.9463	-0.567
Mof_C 	C 	0.656	0.7385	0.829	0.122
Mof_H 	H 	0.7019	0.723	0.8749	-0.012
Mof_N 	N 	0.5959	0.7085	0.7696	-0.17
Mof_C 	C 	0.532	0.7318	0.7048	0.122
Mof_H 	H 	0.4906	0.7121	0.6624	-0.012
Mof_O 	O 	0.6928	0.9486	0.5591	-0.543
Mof_C 	C 	0.6097	0.2921	0.0203	-0.13
Mof_Dy	Dy	0.31803	0.06997	0.56619	1.864
Mof_Dy	Dy	0.23659	0.06825	0.95085	2.009
Mof_O 	O 	0.4323	0.024	0.8753	-0.545
Mof_O 	O 	0.2941	0.1563	0.9856	-0.461
Mof_O 	O 	0.1832	0.9824	0.5801	-0.422
Mof_O 	O 	0.1538	0.0391	0.668	-0.469
Mof_O 	O 	0.5493	0.1159	0.9585	-0.419
Mof_C 	C 	0.5736	0.9765	0.7458	0.197
Mof_H 	H 	0.566	0.0117	0.7428	-0.051
Mof_C 	C 	0.0528	0.9329	0.8283	-0.204
Mof_C 	C 	0.6034	0.9491	0.6832	-0.249
Mof_C 	C 	0.5585	0.9003	0.8161	0.135
Mof_H 	H 	0.5447	0.8842	0.8616	-0.015
Mof_C 	C 	0.5031	0.2485	0.0047	0.055
Mof_H 	H 	0.3684	0.2501	0.9971	0.027
Mof_C 	C 	0.4712	0.1558	0.9803	0.333
Mof_C 	C 	0.148	0.9922	0.6457	0.341
Mof_C 	C 	0.5204	0.9823	0.8836	0.55
Mof_C 	C 	0.0498	0.881	0.8112	0.071
Mof_H 	H 	0.0312	0.8574	0.8483	0.015
Mof_C 	C 	0.0806	0.9674	0.7733	0.132
Mof_H 	H 	0.0823	0.0018	0.7851	-0.028
Mof_C 	C 	0.5821	0.8708	0.7536	-0.144
Mof_C 	C 	0.5547	0.9527	0.8133	-0.258
Mof_C 	C 	0.596	0.2017	0.0001	-0.125
Mof_C 	C 	0.1024	0.9005	0.6835	0.05
Mof_H 	H 	0.1187	0.8901	0.6349	0.018
Mof_C 	C 	0.106	0.9529	0.701	-0.148
Mof_C 	C 	0.6069	0.8957	0.686	0.119
Mof_H 	H 	0.6256	0.877	0.6432	-0.005
Mof_C 	C 	0.6541	0.7899	0.8261	-0.214
Mof_H 	H 	0.6969	0.8088	0.8693	0.115
Mof_C 	C 	0.6238	0.9742	0.6087	0.537
Mof_C 	C 	0.0749	0.8645	0.738	-0.088
Mof_C 	C 	0.5876	0.8144	0.7579	0.17
Mof_C 	C 	0.525	0.7844	0.6976	-0.21
Mof_H 	H 	0.4775	0.799	0.6512	0.11
Mof_C 	C 	0.8104	0.2888	0.0329	0.058
Mof_H 	H 	0.8844	0.3179	0.0439	0.004
Mof_C 	C 	0.064	0.8096	0.7197	0.127
Mof_C 	C 	0.793	0.1985	0.012	0.056
Mof_H 	H 	0.8543	0.1674	0.0088	0.018
Mof_C 	C 	0.9828	0.7912	0.6494	-0.179
Mof_H 	H 	0.939	0.8135	0.6101	0.096
Mof_C 	C 	0.9008	0.2422	0.0291	-0.132
Mof_H 	H 	0.0354	0.2402	0.038	0.08
Mof_C 	C 	0.1268	0.7729	0.7756	-0.174
Mof_H 	H 	0.1846	0.7826	0.8236	0.099
Mof_N 	N 	0.019	0.7044	0.6902	-0.166
Mof_C 	C 	0.1	0.7215	0.7568	0.104
Mof_H 	H 	0.1418	0.6977	0.794	-0.011
Mof_C 	C 	0.968	0.7386	0.6387	0.102
Mof_H 	H 	0.9175	0.7271	0.5906	-0.001
Mof_O 	O 	0.5794	0.0205	0.6013	-0.553
Mof_O 	O 	0.0608	0.9968	0.9223	-0.589
_end
