data_functionalizedCrystal
_audit_creation_method	'EQeq! by Chris Wilmer'
_symmetry_space_group_name_H-M	'P1'
_symmetry_Int_Tables_number	1
_symmetry_cell_setting	triclinic
loop_
_symmetry_equiv_pos_as_xyz
  x,y,z
_cell_length_a	17.3358
_cell_length_b	11.6348
_cell_length_c	18.3198
_cell_angle_alpha	90
_cell_angle_beta	110.426
_cell_angle_gamma	90
loop_
_atom_site_label
_atom_site_type_symbol
_atom_site_fract_x
_atom_site_fract_y
_atom_site_fract_z
_atom_site_charge
Mof_Dy	Dy	0.99896	0.08325	0.09459	2.071
Mof_Dy	Dy	0.50238	0.56961	0.39904	2.161
Mof_S 	S 	0.24476	0.70743	0.11032	0.082
Mof_S 	S 	0.25028	0.20519	0.41012	0.071
Mof_S 	S 	0.26439	0.7266	0.55935	0.082
Mof_O 	O 	0.40533	0.582	0.16394	-0.582
Mof_O 	O 	0.1008	0.0663	0.35163	-0.562
Mof_O 	O 	0.40477	0.5373	0.28222	-0.59
Mof_O 	O 	0.07788	0.0905	0.22507	-0.547
Mof_O 	O 	0.07997	0.9465	0.49354	-0.6
Mof_O 	O 	0.4083	0.5864	0.55928	-0.537
Mof_O 	O 	0.0716	0.9106	0.12457	-0.51
Mof_O 	O 	0.42235	0.6716	0.45477	-0.571
Mof_O 	O 	0.4238	0.4323	0.43359	-0.591
Mof_O 	O 	0.08277	0.8218	0.01959	-0.533
Mof_C 	C 	0.1161	0.1112	0.2952	0.51
Mof_C 	C 	0.3757	0.5871	0.2161	0.527
Mof_O 	O 	0.39578	0.3154	0.51594	-0.523
Mof_O 	O 	0.11628	0.8179	0.58756	-0.506
Mof_C 	C 	0.1861	0.1925	0.3144	-0.184
Mof_C 	C 	0.2993	0.6539	0.2022	-0.189
Mof_C 	C 	0.1745	0.7732	0.1444	-0.14
Mof_C 	C 	0.2015	0.839	0.5119	-0.134
Mof_C 	C 	0.3236	0.7427	0.5017	-0.161
Mof_C 	C 	0.2641	0.6859	0.2552	0.027
Mof_H 	H 	0.2845	0.6642	0.3074	0.008
Mof_C 	C 	0.1042	0.8407	0.0918	0.478
Mof_C 	C 	0.1934	0.7557	0.2224	-0.015
Mof_H 	H 	0.1632	0.7863	0.2509	0.043
Mof_C 	C 	0.3904	0.6601	0.5061	0.511
Mof_C 	C 	0.309	0.3067	0.3852	-0.14
Mof_C 	C 	0.3801	0.3548	0.4479	0.457
Mof_C 	C 	0.1287	0.869	0.532	0.436
Mof_C 	C 	0.2267	0.8869	0.4554	-0.017
Mof_H 	H 	0.2005	0.9484	0.4242	0.047
Mof_C 	C 	0.2096	0.2637	0.2667	0.02
Mof_H 	H 	0.1822	0.2684	0.2132	0.025
Mof_C 	C 	0.2799	0.3294	0.3071	-0.014
Mof_H 	H 	0.3037	0.3823	0.2833	0.044
Mof_C 	C 	0.2967	0.832	0.4503	0.02
Mof_H 	H 	0.3222	0.8539	0.4155	0.021
Mof_Dy	Dy	0.00104	0.08325	0.40541	2.108
Mof_Dy	Dy	0.49762	0.56961	0.10096	2.159
Mof_S 	S 	0.75524	0.70743	0.38968	0.079
Mof_S 	S 	0.74972	0.20519	0.08988	0.064
Mof_S 	S 	0.73561	0.7266	0.94065	0.083
Mof_O 	O 	0.59467	0.582	0.33606	-0.583
Mof_O 	O 	0.8992	0.0663	0.14837	-0.562
Mof_O 	O 	0.59523	0.5373	0.21778	-0.59
Mof_O 	O 	0.92212	0.0905	0.27493	-0.554
Mof_O 	O 	0.92003	0.9465	0.00646	-0.591
Mof_O 	O 	0.5917	0.5864	0.94072	-0.537
Mof_O 	O 	0.9284	0.9106	0.37543	-0.519
Mof_O 	O 	0.57765	0.6716	0.04523	-0.569
Mof_O 	O 	0.5762	0.4323	0.06641	-0.59
Mof_O 	O 	0.91723	0.8218	0.48041	-0.544
Mof_C 	C 	0.8839	0.1112	0.2048	0.51
Mof_C 	C 	0.6243	0.5871	0.2839	0.527
Mof_O 	O 	0.60422	0.3154	0.98406	-0.518
Mof_O 	O 	0.88372	0.8179	0.91244	-0.5
Mof_C 	C 	0.8139	0.1925	0.1856	-0.185
Mof_C 	C 	0.7007	0.6539	0.2978	-0.188
Mof_C 	C 	0.8255	0.7732	0.3556	-0.142
Mof_C 	C 	0.7985	0.839	0.9881	-0.135
Mof_C 	C 	0.6764	0.7427	0.9983	-0.165
Mof_C 	C 	0.7359	0.6859	0.2448	0.026
Mof_H 	H 	0.7155	0.6642	0.1926	0.008
Mof_C 	C 	0.8958	0.8407	0.4082	0.482
Mof_C 	C 	0.8066	0.7557	0.2776	-0.014
Mof_H 	H 	0.8368	0.7863	0.2491	0.042
Mof_C 	C 	0.6096	0.6601	0.9939	0.51
Mof_C 	C 	0.691	0.3067	0.1148	-0.138
Mof_C 	C 	0.6199	0.3548	0.0521	0.451
Mof_C 	C 	0.8713	0.869	0.968	0.431
Mof_C 	C 	0.7733	0.8869	0.0446	-0.016
Mof_H 	H 	0.7995	0.9484	0.0758	0.049
Mof_C 	C 	0.7904	0.2637	0.2333	0.021
Mof_H 	H 	0.8178	0.2684	0.2868	0.024
Mof_C 	C 	0.7201	0.3294	0.1929	-0.016
Mof_H 	H 	0.6963	0.3823	0.2167	0.045
Mof_C 	C 	0.7033	0.832	0.0497	0.024
Mof_H 	H 	0.6778	0.8539	0.0845	0.02
Mof_Dy	Dy	0.00104	0.91675	0.90541	2.07
Mof_Dy	Dy	0.49762	0.43039	0.60096	2.16
Mof_S 	S 	0.75524	0.29257	0.88968	0.081
Mof_S 	S 	0.74972	0.79481	0.58988	0.07
Mof_S 	S 	0.73561	0.2734	0.44065	0.082
Mof_O 	O 	0.59467	0.418	0.83606	-0.582
Mof_O 	O 	0.8992	0.9337	0.64837	-0.562
Mof_O 	O 	0.59523	0.4627	0.71778	-0.59
Mof_O 	O 	0.92212	0.9095	0.77493	-0.547
Mof_O 	O 	0.92003	0.0535	0.50646	-0.6
Mof_O 	O 	0.5917	0.4136	0.44072	-0.537
Mof_O 	O 	0.9284	0.0894	0.87543	-0.51
Mof_O 	O 	0.57765	0.3284	0.54523	-0.571
Mof_O 	O 	0.5762	0.5677	0.56641	-0.591
Mof_O 	O 	0.91723	0.1782	0.98041	-0.533
Mof_C 	C 	0.8839	0.8888	0.7048	0.51
Mof_C 	C 	0.6243	0.4129	0.7839	0.527
Mof_O 	O 	0.60422	0.6846	0.48406	-0.523
Mof_O 	O 	0.88372	0.1821	0.41244	-0.506
Mof_C 	C 	0.8139	0.8075	0.6856	-0.184
Mof_C 	C 	0.7007	0.3461	0.7978	-0.189
Mof_C 	C 	0.8255	0.2268	0.8556	-0.14
Mof_C 	C 	0.7985	0.161	0.4881	-0.134
Mof_C 	C 	0.6764	0.2573	0.4983	-0.161
Mof_C 	C 	0.7359	0.3141	0.7448	0.027
Mof_H 	H 	0.7155	0.3358	0.6926	0.008
Mof_C 	C 	0.8958	0.1593	0.9082	0.478
Mof_C 	C 	0.8066	0.2443	0.7776	-0.015
Mof_H 	H 	0.8368	0.2137	0.7491	0.043
Mof_C 	C 	0.6096	0.3399	0.4939	0.511
Mof_C 	C 	0.691	0.6933	0.6148	-0.14
Mof_C 	C 	0.6199	0.6452	0.5521	0.457
Mof_C 	C 	0.8713	0.131	0.468	0.436
Mof_C 	C 	0.7733	0.1131	0.5446	-0.017
Mof_H 	H 	0.7995	0.0516	0.5758	0.047
Mof_C 	C 	0.7904	0.7363	0.7333	0.02
Mof_H 	H 	0.8178	0.7316	0.7868	0.025
Mof_C 	C 	0.7201	0.6706	0.6929	-0.014
Mof_H 	H 	0.6963	0.6177	0.7167	0.044
Mof_C 	C 	0.7033	0.168	0.5497	0.02
Mof_H 	H 	0.6778	0.1461	0.5845	0.021
Mof_Dy	Dy	0.99896	0.91675	0.59459	2.108
Mof_Dy	Dy	0.50238	0.43039	0.89904	2.159
Mof_S 	S 	0.24476	0.29257	0.61032	0.079
Mof_S 	S 	0.25028	0.79481	0.91012	0.064
Mof_S 	S 	0.26439	0.2734	0.05935	0.083
Mof_O 	O 	0.40533	0.418	0.66394	-0.583
Mof_O 	O 	0.1008	0.9337	0.85163	-0.562
Mof_O 	O 	0.40477	0.4627	0.78222	-0.59
Mof_O 	O 	0.07788	0.9095	0.72507	-0.554
Mof_O 	O 	0.07997	0.0535	0.99354	-0.591
Mof_O 	O 	0.4083	0.4136	0.05928	-0.537
Mof_O 	O 	0.0716	0.0894	0.62457	-0.519
Mof_O 	O 	0.42235	0.3284	0.95477	-0.569
Mof_O 	O 	0.4238	0.5677	0.93359	-0.59
Mof_O 	O 	0.08277	0.1782	0.51959	-0.544
Mof_C 	C 	0.1161	0.8888	0.7952	0.51
Mof_C 	C 	0.3757	0.4129	0.7161	0.527
Mof_O 	O 	0.39578	0.6846	0.01594	-0.518
Mof_O 	O 	0.11628	0.1821	0.08756	-0.5
Mof_C 	C 	0.1861	0.8075	0.8144	-0.185
Mof_C 	C 	0.2993	0.3461	0.7022	-0.188
Mof_C 	C 	0.1745	0.2268	0.6444	-0.142
Mof_C 	C 	0.2015	0.161	0.0119	-0.135
Mof_C 	C 	0.3236	0.2573	0.0017	-0.165
Mof_C 	C 	0.2641	0.3141	0.7552	0.026
Mof_H 	H 	0.2845	0.3358	0.8074	0.008
Mof_C 	C 	0.1042	0.1593	0.5918	0.482
Mof_C 	C 	0.1934	0.2443	0.7224	-0.014
Mof_H 	H 	0.1632	0.2137	0.7509	0.042
Mof_C 	C 	0.3904	0.3399	0.0061	0.51
Mof_C 	C 	0.309	0.6933	0.8852	-0.138
Mof_C 	C 	0.3801	0.6452	0.9479	0.451
Mof_C 	C 	0.1287	0.131	0.032	0.431
Mof_C 	C 	0.2267	0.1131	0.9554	-0.016
Mof_H 	H 	0.2005	0.0516	0.9242	0.049
Mof_C 	C 	0.2096	0.7363	0.7667	0.021
Mof_H 	H 	0.1822	0.7316	0.7132	0.024
Mof_C 	C 	0.2799	0.6706	0.8071	-0.016
Mof_H 	H 	0.3037	0.6177	0.7833	0.045
Mof_C 	C 	0.2967	0.168	0.9503	0.024
Mof_H 	H 	0.3222	0.1461	0.9155	0.02
_end
