data_functionalizedCrystal
_audit_creation_method	'EQeq! by Chris Wilmer'
_symmetry_space_group_name_H-M	'P1'
_symmetry_Int_Tables_number	1
_symmetry_cell_setting	triclinic
loop_
_symmetry_equiv_pos_as_xyz
  x,y,z
_cell_length_a	24.305
_cell_length_b	24.305
_cell_length_c	24.305
_cell_angle_alpha	90
_cell_angle_beta	90
_cell_angle_gamma	90
loop_
_atom_site_label
_atom_site_type_symbol
_atom_site_fract_x
_atom_site_fract_y
_atom_site_fract_z
_atom_site_charge
Mof_C 	C 	0.38476	0.98896	0.44475	0.016
Mof_C 	C 	0.35648	0.98832	0.49492	-0.084
Mof_C 	C 	0.38462	0.98914	0.54513	0.016
Mof_C 	C 	0.44282	0.99051	0.54555	-0.02
Mof_C 	C 	0.47201	0.991	0.495	-0.007
Mof_C 	C 	0.44292	0.99022	0.44442	-0.017
Mof_C 	C 	0.47272	0.99009	0.39484	-0.044
Mof_C 	C 	0.52996	0.99124	0.39488	-0.044
Mof_C 	C 	0.55963	0.992	0.44451	-0.017
Mof_C 	C 	0.53044	0.99197	0.49504	-0.007
Mof_C 	C 	0.47252	0.99121	0.59517	-0.046
Mof_C 	C 	0.52976	0.99292	0.59521	-0.045
Mof_C 	C 	0.55954	0.99305	0.54562	-0.019
Mof_C 	C 	0.61769	0.99473	0.54526	0.02
Mof_C 	C 	0.64597	0.99459	0.49509	-0.089
Mof_C 	C 	0.61782	0.99287	0.44491	0.019
Mof_H 	H 	0.45206	0.98895	0.35541	0.026
Mof_H 	H 	0.55075	0.99145	0.3555	0.029
Mof_H 	H 	0.45176	0.99065	0.63455	0.021
Mof_H 	H 	0.55045	0.99405	0.63462	0.025
Mof_H 	H 	0.31186	0.98722	0.49487	0.035
Mof_H 	H 	0.69059	0.99565	0.49513	0.037
Mof_C 	C 	0.38538	0.44073	0.99271	0.021
Mof_C 	C 	0.35695	0.4908	0.99434	-0.095
Mof_C 	C 	0.38493	0.54109	0.99586	0.039
Mof_C 	C 	0.44312	0.54167	0.99709	-0.094
Mof_C 	C 	0.47249	0.49127	0.99524	0.003
Mof_C 	C 	0.44358	0.44062	0.99273	-0.022
Mof_C 	C 	0.47358	0.39126	0.98956	-0.045
Mof_C 	C 	0.53085	0.39153	0.98964	-0.04
Mof_C 	C 	0.56035	0.44116	0.99301	-0.029
Mof_C 	C 	0.53094	0.49152	0.99558	0.011
Mof_C 	C 	0.47262	0.59133	0.00016	0.04
Mof_C 	C 	0.52989	0.59156	0.00075	0.047
Mof_C 	C 	0.55984	0.54215	0.99816	-0.106
Mof_C 	C 	0.61803	0.54204	0.99808	0.063
Mof_C 	C 	0.64651	0.49207	0.99593	-0.106
Mof_C 	C 	0.61854	0.44182	0.99318	0.03
Mof_H 	H 	0.45303	0.35187	0.98663	0.027
Mof_H 	H 	0.55181	0.35234	0.98685	0.026
Mof_H 	H 	0.45163	0.63056	0.00222	0.049
Mof_H 	H 	0.55051	0.63096	0.00317	0.046
Mof_H 	H 	0.31231	0.49061	0.9939	0.034
Mof_H 	H 	0.69114	0.4923	0.99586	0.044
Mof_C 	C 	0.99992	0.44242	0.37749	0.195
Mof_C 	C 	0.99906	0.49295	0.34986	-0.106
Mof_C 	C 	0.9987	0.54284	0.37863	0.013
Mof_C 	C 	0.99892	0.54256	0.43685	0.014
Mof_C 	C 	0.99937	0.49167	0.46544	0.016
Mof_C 	C 	0.99939	0.44143	0.43571	-0.051
Mof_C 	C 	0.9983	0.39151	0.46491	0.006
Mof_C 	C 	0.99778	0.39088	0.52217	-0.041
Mof_C 	C 	0.99864	0.44014	0.55249	0.01
Mof_C 	C 	0.99932	0.49103	0.52391	0.019
Mof_C 	C 	0.9981	0.59182	0.46716	-0.043
Mof_C 	C 	0.99847	0.5912	0.52443	0.008
Mof_C 	C 	0.99939	0.54128	0.55363	-0.056
Mof_C 	C 	0.99982	0.54029	0.61186	0.204
Mof_C 	C 	0.99875	0.48976	0.63947	-0.113
Mof_C 	C 	0.99792	0.43987	0.61068	0.014
Mof_H 	H 	0.99751	0.35237	0.44369	0.062
Mof_H 	H 	0.99655	0.35127	0.54247	0.066
Mof_H 	H 	0.99713	0.63143	0.44685	0.065
Mof_H 	H 	0.99774	0.63035	0.54563	0.06
Mof_H 	H 	0.99901	0.49347	0.30523	0.088
Mof_H 	H 	0.99847	0.48922	0.6841	0.084
Mof_O 	O 	0.85925	0.99286	0.91977	-0.677
Mof_O 	O 	0.14345	0.98795	0.91973	-0.679
Mof_O 	O 	0.9999	0.06459	0.85237	-0.535
Mof_O 	O 	0.0025	0.91464	0.85407	-0.688
Mof_O 	O 	0.00234	0.84939	0.92273	-0.714
Mof_O 	O 	0.99959	0.13137	0.91957	-0.593
Mof_O 	O 	0.07548	0.9868	0.85344	-0.696
Mof_O 	O 	0.92719	0.9923	0.85346	-0.655
Mof_Zr	Zr	0.00134	0.99011	0.89805	3.216
Mof_O 	O 	0.05142	0.94088	0.94552	-1.327
Mof_O 	O 	0.95134	0.0404	0.94447	-1.223
Mof_C 	C 	0.8761	0.99361	0.86893	0.496
Mof_C 	C 	0.12657	0.98591	0.86893	0.475
Mof_C 	C 	0.99866	0.11558	0.86865	0.447
Mof_C 	C 	0.003	0.86401	0.87143	0.497
Mof_H 	H 	0.07491	0.06312	0.92074	0.321
Mof_O 	O 	0.05157	0.03984	0.94457	-1.526
Mof_H 	H 	0.92757	0.91767	0.92263	0.341
Mof_O 	O 	0.95106	0.94152	0.94575	-1.498
Mof_O 	O 	0.14348	0.99327	0.07017	-0.654
Mof_O 	O 	0.85931	0.991	0.07037	-0.626
Mof_O 	O 	0.07568	0.13201	0.99489	-0.705
Mof_O 	O 	0.07459	0.84997	0.99484	-0.703
Mof_O 	O 	0.92707	0.85061	0.99888	-0.633
Mof_O 	O 	0.92806	0.13252	0.99109	-0.633
Mof_O 	O 	0.00343	0.06793	0.13562	-0.637
Mof_O 	O 	0.99897	0.91798	0.13732	-0.572
Mof_O 	O 	0.0035	0.13318	0.06697	-0.646
Mof_O 	O 	0.99829	0.85117	0.07014	-0.559
Mof_O 	O 	0.14372	0.06599	0.99579	-0.656
Mof_O 	O 	0.85958	0.06693	0.99237	-0.631
Mof_O 	O 	0.859	0.9166	0.99795	-0.651
Mof_O 	O 	0.14315	0.91546	0.99411	-0.678
Mof_O 	O 	0.07547	0.99414	0.13637	-0.708
Mof_O 	O 	0.92743	0.99167	0.13647	-0.643
Mof_Zr	Zr	0.09913	0.99091	0.99492	3.221
Mof_Zr	Zr	0.90359	0.99161	0.995	3.221
Mof_Zr	Zr	0.00173	0.08706	0.99378	3.217
Mof_Zr	Zr	0.00097	0.8955	0.99595	3.217
Mof_Zr	Zr	0.00143	0.99244	0.0917	3.216
Mof_O 	O 	0.951	0.94248	0.04542	-1.224
Mof_O 	O 	0.05189	0.04136	0.0443	-1.222
Mof_C 	C 	0.12658	0.9944	0.121	0.532
Mof_C 	C 	0.87629	0.99098	0.1212	0.462
Mof_C 	C 	0.12682	0.1168	0.99586	0.53
Mof_C 	C 	0.12586	0.86478	0.994	0.494
Mof_C 	C 	0.87596	0.86586	0.99986	0.371
Mof_C 	C 	0.87682	0.11758	0.99056	0.462
Mof_C 	C 	0.00414	0.11857	0.11826	0.471
Mof_C 	C 	0.99722	0.86702	0.12104	0.448
Mof_H 	H 	0.92838	0.0655	0.06715	0.352
Mof_O 	O 	0.95157	0.0414	0.04401	-1.412
Mof_H 	H 	0.0742	0.91868	0.06894	0.322
Mof_O 	O 	0.05116	0.94229	0.04514	-1.528
Mof_C 	C 	0.28537	0.99251	0.29836	-0.17
Mof_C 	C 	0.29088	0.94342	0.3282	-0.027
Mof_C 	C 	0.32413	0.94058	0.37523	0.039
Mof_C 	C 	0.35194	0.98836	0.3933	-0.082
Mof_C 	C 	0.34696	0.03735	0.36314	-0.007
Mof_C 	C 	0.314	0.03999	0.31574	0.152
Mof_C 	C 	0.2457	0.99402	0.25223	0.183
Mof_C 	C 	0.18954	0.98831	0.26345	-0.197
Mof_C 	C 	0.15121	0.98889	0.22082	0.14
Mof_C 	C 	0.16821	0.99479	0.16572	-0.323
Mof_C 	C 	0.22477	0.00031	0.1545	0.34
Mof_C 	C 	0.26324	0.99994	0.19751	-0.381
Mof_C 	C 	0.32858	0.88608	0.40451	-0.181
Mof_H 	H 	0.36827	0.07385	0.37738	0.051
Mof_H 	H 	0.10814	0.98425	0.23124	-0.012
Mof_H 	H 	0.23929	0.00483	0.11263	0.001
Mof_C 	C 	0.308	0.09391	0.28576	-0.224
Mof_H 	H 	0.17536	0.98352	0.30545	0.057
Mof_H 	H 	0.26864	0.90709	0.31489	0.029
Mof_H 	H 	0.30663	0.00376	0.18814	0.178
Mof_H 	H 	0.34266	0.85409	0.37508	0.059
Mof_H 	H 	0.28759	0.87415	0.42078	0.053
Mof_H 	H 	0.35817	0.88675	0.43919	0.066
Mof_H 	H 	0.33118	0.12743	0.30645	0.077
Mof_H 	H 	0.26397	0.10598	0.28424	0.092
Mof_H 	H 	0.32407	0.08991	0.24323	0.091
Mof_C 	C 	0.71796	0.99556	0.29899	-0.126
Mof_C 	C 	0.69216	0.94651	0.31495	-0.045
Mof_C 	C 	0.65897	0.94427	0.36216	0.052
Mof_C 	C 	0.65081	0.99262	0.39356	-0.088
Mof_C 	C 	0.67544	0.04198	0.37671	0.001
Mof_C 	C 	0.70896	0.04406	0.32975	0.135
Mof_C 	C 	0.75753	0.99421	0.2528	0.086
Mof_C 	C 	0.73973	0.98788	0.19823	-0.106
Mof_C 	C 	0.77805	0.98677	0.15507	0.044
Mof_C 	C 	0.83475	0.99139	0.16606	-0.12
Mof_C 	C 	0.85203	0.9969	0.22112	-0.011
Mof_C 	C 	0.81387	0.99821	0.26389	-0.168
Mof_C 	C 	0.63446	0.88953	0.37793	-0.188
Mof_H 	H 	0.66873	0.07893	0.4008	0.048
Mof_H 	H 	0.76332	0.98225	0.11327	0.037
Mof_H 	H 	0.89522	0.0005	0.23145	0.126
Mof_C 	C 	0.73437	0.09802	0.31284	-0.218
Mof_H 	H 	0.69626	0.98428	0.18912	0.05
Mof_H 	H 	0.69941	0.9093	0.29141	0.041
Mof_H 	H 	0.8283	0.00232	0.30586	0.132
Mof_H 	H 	0.66787	0.85883	0.38326	0.065
Mof_H 	H 	0.60647	0.8753	0.34475	0.064
Mof_H 	H 	0.61074	0.89109	0.41683	0.071
Mof_H 	H 	0.72036	0.13239	0.3395	0.079
Mof_H 	H 	0.72259	0.10779	0.26979	0.096
Mof_H 	H 	0.77984	0.09557	0.31585	0.096
Mof_C 	C 	0.71728	0.99569	0.69157	-0.09
Mof_C 	C 	0.70954	0.04447	0.66171	-0.001
Mof_C 	C 	0.6762	0.04577	0.61465	0.13
Mof_C 	C 	0.65052	0.99679	0.59664	-0.1
Mof_C 	C 	0.65775	0.94809	0.62677	-0.055
Mof_C 	C 	0.69087	0.94693	0.67411	0.05
Mof_C 	C 	0.75687	0.99596	0.73783	-0.013
Mof_C 	C 	0.73962	0.98757	0.79232	-0.093
Mof_C 	C 	0.77806	0.98732	0.83532	0.057
Mof_C 	C 	0.83436	0.99541	0.82438	-0.225
Mof_C 	C 	0.85103	0.00464	0.76965	0.137
Mof_C 	C 	0.81269	0.00506	0.72698	-0.017
Mof_C 	C 	0.66946	0.09994	0.5852	-0.213
Mof_H 	H 	0.63809	0.91067	0.61253	0.04
Mof_H 	H 	0.76379	0.98026	0.87694	0.011
Mof_H 	H 	0.89389	0.01151	0.75956	0.061
Mof_C 	C 	0.69948	0.89322	0.70385	-0.185
Mof_H 	H 	0.69647	0.98128	0.80149	0.033
Mof_H 	H 	0.73009	0.08178	0.675	0.047
Mof_H 	H 	0.82667	0.01191	0.6852	0.068
Mof_H 	H 	0.71	0.11379	0.56933	0.083
Mof_H 	H 	0.65355	0.13126	0.61441	0.078
Mof_H 	H 	0.64035	0.09777	0.55017	0.098
Mof_H 	H 	0.68291	0.8961	0.74628	0.059
Mof_H 	H 	0.74408	0.88345	0.70563	0.067
Mof_H 	H 	0.67826	0.85865	0.68282	0.059
Mof_C 	C 	0.28549	0.97996	0.69167	-0.132
Mof_C 	C 	0.31019	0.03003	0.67688	0.02
Mof_C 	C 	0.3429	0.03444	0.62949	0.12
Mof_C 	C 	0.35165	0.98734	0.59646	-0.096
Mof_C 	C 	0.32802	0.93705	0.61188	-0.065
Mof_C 	C 	0.29546	0.93258	0.65929	0.065
Mof_C 	C 	0.24586	0.97972	0.73798	0.088
Mof_C 	C 	0.19035	0.96798	0.72783	-0.118
Mof_C 	C 	0.15204	0.96947	0.77052	0.046
Mof_C 	C 	0.16832	0.98295	0.82446	-0.144
Mof_C 	C 	0.22414	0.99452	0.83463	-0.022
Mof_C 	C 	0.26254	0.99331	0.79159	-0.185
Mof_C 	C 	0.36628	0.0901	0.61529	-0.208
Mof_H 	H 	0.33521	0.90091	0.58671	0.039
Mof_H 	H 	0.1095	0.96012	0.76109	0.016
Mof_H 	H 	0.23799	0.00532	0.87558	0.098
Mof_C 	C 	0.27302	0.87662	0.67386	-0.193
Mof_H 	H 	0.17663	0.95805	0.6866	0.04
Mof_H 	H 	0.30234	0.06643	0.70147	0.037
Mof_H 	H 	0.30522	0.00294	0.80003	0.124
Mof_H 	H 	0.39429	0.10377	0.64869	0.079
Mof_H 	H 	0.33227	0.12033	0.61122	0.073
Mof_H 	H 	0.38969	0.09021	0.57618	0.098
Mof_H 	H 	0.24237	0.86383	0.6425	0.055
Mof_H 	H 	0.25332	0.87553	0.71497	0.067
Mof_H 	H 	0.30709	0.84617	0.67447	0.058
Mof_C 	C 	0.28577	0.29431	0.99428	-0.169
Mof_C 	C 	0.28979	0.32588	0.94612	-0.029
Mof_C 	C 	0.32316	0.37288	0.94382	0.038
Mof_C 	C 	0.35266	0.38918	0.99123	-0.084
Mof_C 	C 	0.3492	0.35727	0.03924	-0.007
Mof_C 	C 	0.3161	0.30993	0.04135	0.15
Mof_C 	C 	0.24604	0.24814	0.99546	0.18
Mof_C 	C 	0.26362	0.19328	0.99985	-0.379
Mof_C 	C 	0.22513	0.15028	0.00019	0.336
Mof_C 	C 	0.16846	0.16157	0.99607	-0.321
Mof_C 	C 	0.15139	0.2168	0.99159	0.137
Mof_C 	C 	0.18975	0.25945	0.99111	-0.196
Mof_C 	C 	0.3259	0.40407	0.89027	-0.18
Mof_H 	H 	0.37175	0.37016	0.0755	0.051
Mof_H 	H 	0.23975	0.10833	0.00355	0.001
Mof_H 	H 	0.10824	0.22731	0.98816	-0.016
Mof_C 	C 	0.31171	0.27821	0.09442	-0.223
Mof_H 	H 	0.30707	0.18379	0.00253	0.176
Mof_H 	H 	0.26631	0.31393	0.9101	0.027
Mof_H 	H 	0.17548	0.30153	0.98751	0.053
Mof_H 	H 	0.28464	0.42101	0.88039	0.05
Mof_H 	H 	0.33863	0.37572	0.85678	0.058
Mof_H 	H 	0.35577	0.43851	0.89113	0.064
Mof_H 	H 	0.32767	0.23585	0.08859	0.091
Mof_H 	H 	0.26805	0.27626	0.10775	0.091
Mof_H 	H 	0.33586	0.29783	0.12789	0.076
Mof_C 	C 	0.28361	0.68629	0.99856	-0.146
Mof_C 	C 	0.3116	0.6719	0.95022	-0.044
Mof_C 	C 	0.34527	0.62501	0.94807	0.042
Mof_C 	C 	0.35172	0.59233	0.99583	-0.107
Mof_C 	C 	0.32488	0.60759	0.04455	0.002
Mof_C 	C 	0.29087	0.65423	0.04652	0.134
Mof_C 	C 	0.24408	0.73256	0.99696	0.113
Mof_C 	C 	0.18759	0.72158	0.99891	-0.242
Mof_C 	C 	0.14957	0.76452	0.99758	0.101
Mof_C 	C 	0.16716	0.81966	0.99409	-0.193
Mof_C 	C 	0.22401	0.83053	0.99133	0.07
Mof_C 	C 	0.26217	0.78722	0.9925	-0.14
Mof_C 	C 	0.37209	0.61091	0.89395	-0.185
Mof_H 	H 	0.33023	0.58252	0.08106	0.043
Mof_H 	H 	0.10626	0.75429	0.99957	-0.021
Mof_H 	H 	0.23901	0.87237	0.9884	0.005
Mof_C 	C 	0.26315	0.66945	0.09985	-0.213
Mof_H 	H 	0.17293	0.67957	0.00149	0.134
Mof_H 	H 	0.30576	0.69644	0.91342	0.03
Mof_H 	H 	0.30574	0.79629	0.99046	0.042
Mof_H 	H 	0.40039	0.64464	0.88179	0.051
Mof_H 	H 	0.33998	0.60623	0.86179	0.055
Mof_H 	H 	0.396	0.57212	0.89537	0.062
Mof_H 	H 	0.21785	0.66612	0.09548	0.079
Mof_H 	H 	0.27412	0.71231	0.11124	0.086
Mof_H 	H 	0.27603	0.64198	0.13403	0.068
Mof_C 	C 	0.71797	0.68785	0.00611	0.09
Mof_C 	C 	0.69325	0.67283	0.95618	-0.197
Mof_C 	C 	0.65999	0.6258	0.9523	0.113
Mof_C 	C 	0.65073	0.59351	0.99981	-0.16
Mof_C 	C 	0.6741	0.60942	0.05008	0.072
Mof_C 	C 	0.70762	0.65631	0.05386	-0.01
Mof_C 	C 	0.75737	0.73427	0.0064	0.078
Mof_C 	C 	0.73979	0.7884	0.99659	-0.124
Mof_C 	C 	0.77799	0.83163	0.99515	-0.073
Mof_C 	C 	0.83443	0.82114	0.00281	0.041
Mof_C 	C 	0.85155	0.76662	0.01251	0.003
Mof_C 	C 	0.81347	0.72376	0.01409	-0.053
Mof_C 	C 	0.63653	0.61118	0.89678	-0.217
Mof_H 	H 	0.66644	0.58467	0.08639	0.029
Mof_H 	H 	0.76344	0.87301	0.98735	0.042
Mof_H 	H 	0.89457	0.75679	0.01864	0.077
Mof_C 	C 	0.7313	0.6724	0.10886	-0.157
Mof_H 	H 	0.69658	0.79708	0.99001	0.032
Mof_H 	H 	0.70137	0.69702	0.91957	0.063
Mof_H 	H 	0.82789	0.68209	0.02066	0.059
Mof_H 	H 	0.67058	0.60578	0.8668	0.066
Mof_H 	H 	0.60938	0.64497	0.88239	0.06
Mof_H 	H 	0.61215	0.57266	0.89721	0.07
Mof_H 	H 	0.7197	0.71549	0.11865	0.068
Mof_H 	H 	0.77677	0.6688	0.1081	0.065
Mof_H 	H 	0.71571	0.64561	0.14244	0.061
Mof_C 	C 	0.71895	0.296	0.98987	-0.124
Mof_C 	C 	0.71223	0.32744	0.94192	-0.046
Mof_C 	C 	0.67873	0.37441	0.94136	0.053
Mof_C 	C 	0.65172	0.39068	0.99024	-0.091
Mof_C 	C 	0.65798	0.35904	0.0381	0.003
Mof_C 	C 	0.69136	0.31185	0.03856	0.133
Mof_C 	C 	0.75837	0.24952	0.98892	0.085
Mof_C 	C 	0.81435	0.26017	0.98044	-0.105
Mof_C 	C 	0.85245	0.21724	0.98047	0.046
Mof_C 	C 	0.83538	0.16247	0.98871	-0.119
Mof_C 	C 	0.77894	0.15176	0.99605	-0.013
Mof_C 	C 	0.74075	0.19498	0.99612	-0.167
Mof_C 	C 	0.6732	0.40564	0.88805	-0.187
Mof_H 	H 	0.63737	0.37199	0.07548	0.05
Mof_H 	H 	0.89544	0.22719	0.97423	0.04
Mof_H 	H 	0.76433	0.11014	0.00229	0.118
Mof_C 	C 	0.69899	0.28061	0.09156	-0.216
Mof_H 	H 	0.82863	0.30197	0.97447	0.051
Mof_H 	H 	0.73367	0.31541	0.90468	0.041
Mof_H 	H 	0.69749	0.18592	0.00178	0.127
Mof_H 	H 	0.65808	0.37747	0.85542	0.063
Mof_H 	H 	0.71402	0.42201	0.87569	0.061
Mof_H 	H 	0.64399	0.44056	0.8907	0.068
Mof_H 	H 	0.67721	0.30073	0.12634	0.078
Mof_H 	H 	0.7434	0.27847	0.10206	0.097
Mof_H 	H 	0.68237	0.23833	0.08727	0.092
Mof_C 	C 	0.99933	0.29743	0.27564	0.277
Mof_C 	C 	0.04743	0.31235	0.30376	-0.315
Mof_C 	C 	0.04898	0.35924	0.33748	0.194
Mof_C 	C 	0.00082	0.39138	0.34389	-0.344
Mof_C 	C 	0.95238	0.37564	0.31677	0.185
Mof_C 	C 	0.95104	0.32903	0.28269	-0.095
Mof_C 	C 	0.00144	0.25108	0.2362	-0.1
Mof_C 	C 	0.00512	0.19642	0.25444	-0.039
Mof_C 	C 	0.00633	0.15302	0.21638	0.021
Mof_C 	C 	0.00439	0.16379	0.15947	-0.138
Mof_C 	C 	0.00176	0.21894	0.14174	0.065
Mof_C 	C 	0.00036	0.26197	0.17967	-0.168
Mof_C 	C 	0.10287	0.37391	0.36443	-0.259
Mof_H 	H 	0.91557	0.40028	0.32204	-0.01
Mof_H 	H 	0.00856	0.11117	0.23149	0.037
Mof_H 	H 	0.00038	0.22909	0.09838	0.022
Mof_C 	C 	0.89803	0.31334	0.25464	-0.115
Mof_H 	H 	0.00641	0.18741	0.29806	0.016
Mof_H 	H 	0.0845	0.28819	0.29803	0.101
Mof_H 	H 	0.99826	0.30398	0.16491	0.147
Mof_H 	H 	0.13511	0.37873	0.33242	0.073
Mof_H 	H 	0.11522	0.34041	0.39292	0.066
Mof_H 	H 	0.10103	0.4128	0.38815	0.056
Mof_H 	H 	0.88685	0.27044	0.26566	0.075
Mof_H 	H 	0.90272	0.31655	0.20935	0.074
Mof_H 	H 	0.86356	0.34062	0.26716	0.055
Mof_C 	C 	0.99649	0.29262	0.70916	0.061
Mof_C 	C 	0.94797	0.32309	0.70213	-0.064
Mof_C 	C 	0.94682	0.37042	0.66915	0.032
Mof_C 	C 	0.99569	0.38811	0.64302	0.093
Mof_C 	C 	0.0441	0.35732	0.64942	-0.185
Mof_C 	C 	0.04513	0.30972	0.68224	-0.035
Mof_C 	C 	0.99622	0.24633	0.74883	0.135
Mof_C 	C 	0.00435	0.19173	0.73172	-0.17
Mof_C 	C 	0.00459	0.14879	0.77031	-0.072
Mof_C 	C 	0.99674	0.15992	0.82661	-0.002
Mof_C 	C 	0.98769	0.21475	0.84311	0.03
Mof_C 	C 	0.9873	0.25731	0.80465	-0.076
Mof_C 	C 	0.89291	0.40053	0.66331	-0.176
Mof_H 	H 	0.08145	0.37128	0.62943	0.044
Mof_H 	H 	0.01144	0.1071	0.75617	0.042
Mof_H 	H 	0.98098	0.22502	0.88594	0.055
Mof_C 	C 	0.09861	0.27937	0.69005	-0.16
Mof_H 	H 	0.01043	0.1824	0.68859	0.046
Mof_H 	H 	0.91076	0.31012	0.72307	0.05
Mof_H 	H 	0.98062	0.29914	0.81856	0.061
Mof_H 	H 	0.87977	0.41629	0.70412	0.064
Mof_H 	H 	0.86105	0.37178	0.64762	0.066
Mof_H 	H 	0.8951	0.43571	0.63439	0.066
Mof_H 	H 	0.09512	0.2371	0.67321	0.05
Mof_H 	H 	0.10886	0.27719	0.73452	0.041
Mof_H 	H 	0.13316	0.30019	0.66858	0.05
Mof_C 	C 	0.9985	0.68516	0.71393	0.352
Mof_C 	C 	0.04668	0.67053	0.68577	-0.359
Mof_C 	C 	0.04847	0.62371	0.65196	0.209
Mof_C 	C 	0.00049	0.59132	0.64549	-0.367
Mof_C 	C 	0.95196	0.60679	0.6726	0.208
Mof_C 	C 	0.95036	0.65335	0.70674	-0.138
Mof_C 	C 	0.00037	0.7315	0.75343	-0.287
Mof_C 	C 	0.00518	0.78612	0.73528	0.007
Mof_C 	C 	0.0063	0.82951	0.77336	0.007
Mof_C 	C 	0.00312	0.81878	0.83022	-0.236
Mof_C 	C 	0.99938	0.76369	0.84789	0.114
Mof_C 	C 	0.99811	0.72067	0.80994	0.11
Mof_C 	C 	0.10244	0.60938	0.62497	-0.265
Mof_H 	H 	0.91528	0.58198	0.66726	-0.02
Mof_H 	H 	0.0095	0.87131	0.75829	0.016
Mof_H 	H 	0.99707	0.75357	0.89122	0.047
Mof_C 	C 	0.89716	0.6688	0.7346	-0.09
Mof_H 	H 	0.00747	0.79511	0.69169	-0.01
Mof_H 	H 	0.08363	0.69487	0.69155	0.103
Mof_H 	H 	0.99526	0.6787	0.82468	0.016
Mof_H 	H 	0.13471	0.60468	0.65696	0.067
Mof_H 	H 	0.1146	0.64302	0.59655	0.062
Mof_H 	H 	0.1008	0.57054	0.60117	0.055
Mof_H 	H 	0.8628	0.64158	0.72169	0.042
Mof_H 	H 	0.886	0.71177	0.72378	0.059
Mof_H 	H 	0.90157	0.66529	0.77988	0.049
Mof_C 	C 	0.99017	0.6903	0.28067	0.055
Mof_C 	C 	0.03988	0.67567	0.30618	-0.15
Mof_C 	C 	0.04404	0.62806	0.33864	-0.069
Mof_C 	C 	0.99705	0.59459	0.34624	0.101
Mof_C 	C 	0.94706	0.60992	0.32193	-0.093
Mof_C 	C 	0.94282	0.65757	0.28967	0.06
Mof_C 	C 	0.99039	0.73656	0.24092	0.135
Mof_C 	C 	0.97911	0.72622	0.18535	-0.077
Mof_C 	C 	0.98087	0.76876	0.14691	0.032
Mof_C 	C 	0.9942	0.82278	0.16305	-0.004
Mof_C 	C 	0.00539	0.83318	0.21891	-0.075
Mof_C 	C 	0.0039	0.79025	0.25748	-0.175
Mof_C 	C 	0.09937	0.61406	0.3629	-0.144
Mof_H 	H 	0.91096	0.58446	0.3283	0.055
Mof_H 	H 	0.97181	0.75912	0.10436	0.064
Mof_H 	H 	0.01607	0.8742	0.23264	0.024
Mof_C 	C 	0.88714	0.67197	0.26642	-0.19
Mof_H 	H 	0.96929	0.68494	0.17168	0.067
Mof_H 	H 	0.07627	0.70051	0.2991	0.046
Mof_H 	H 	0.01319	0.79886	0.3002	0.037
Mof_H 	H 	0.11232	0.64735	0.39137	0.037
Mof_H 	H 	0.13022	0.61041	0.3294	0.045
Mof_H 	H 	0.09932	0.57479	0.38606	0.026
Mof_H 	H 	0.87516	0.64091	0.23514	0.071
Mof_H 	H 	0.88607	0.71333	0.24726	0.075
Mof_H 	H 	0.85608	0.6719	0.29994	0.07
_end
