data_functionalizedCrystal
_audit_creation_method	'EQeq! by Chris Wilmer'
_symmetry_space_group_name_H-M	'P1'
_symmetry_Int_Tables_number	1
_symmetry_cell_setting	triclinic
loop_
_symmetry_equiv_pos_as_xyz
  x,y,z
_cell_length_a	21.501
_cell_length_b	26.51
_cell_length_c	30.067
_cell_angle_alpha	90
_cell_angle_beta	90
_cell_angle_gamma	90
loop_
_atom_site_label
_atom_site_type_symbol
_atom_site_fract_x
_atom_site_fract_y
_atom_site_fract_z
_atom_site_charge
Mof_O 	O 	0.9194	0.9685	0.0433	-0.28
Mof_O 	O 	0.002	0.9292	0.0624	-0.34
Mof_O 	O 	0.8247	0.7679	0.1957	-0.255
Mof_O 	O 	0.7613	0.8294	0.2081	-0.218
Mof_C 	C 	0.9052	0.9057	0.0955	-0.347
Mof_C 	C 	0.8452	0.9165	0.1051	0.604
Mof_C 	C 	0.8124	0.8862	0.1368	0.017
Mof_C 	C 	0.839	0.8451	0.1543	-0.028
Mof_C 	C 	0.9	0.8326	0.1437	-0.123
Mof_H 	H 	0.9191	0.8037	0.1563	0.106
Mof_C 	C 	0.9327	0.8633	0.1139	0.144
Mof_H 	H 	0.9743	0.855	0.1062	0.024
Mof_C 	C 	0.949	0.9353	0.0649	0.477
Mof_C 	C 	0.8083	0.8109	0.1867	0.279
Mof_N 	N 	0.8117	0.9583	0.0916	1.043
Mof_H 	H 	0.7673	0.9704	0.1021	-0.128
Mof_H 	H 	0.8229	0.9863	0.072	-0.104
Mof_H 	H 	0.7652	0.9	0.1453	-0.678
Mof_N 	N 	0.7507	0.9004	0.1387	0.73
Mof_H 	H 	0.738	0.9265	0.1218	-0.099
Mof_H 	H 	0.7236	0.8846	0.1567	-0.027
Mof_H 	H 	0.821	0.9437	0.0889	-1.104
Mof_O 	O 	0.9194	0.4685	0.5433	-0.292
Mof_O 	O 	0.002	0.4292	0.5624	-0.348
Mof_O 	O 	0.8247	0.2679	0.6957	-0.256
Mof_O 	O 	0.7613	0.3294	0.7081	-0.22
Mof_C 	C 	0.9052	0.4057	0.5955	-0.35
Mof_C 	C 	0.8452	0.4165	0.6051	0.598
Mof_C 	C 	0.8124	0.3862	0.6368	0.016
Mof_C 	C 	0.839	0.3451	0.6543	-0.03
Mof_C 	C 	0.9	0.3326	0.6437	-0.124
Mof_H 	H 	0.9191	0.3037	0.6563	0.106
Mof_C 	C 	0.9327	0.3633	0.6139	0.144
Mof_H 	H 	0.9743	0.355	0.6062	0.023
Mof_C 	C 	0.949	0.4353	0.5649	0.48
Mof_C 	C 	0.8083	0.3109	0.6867	0.279
Mof_N 	N 	0.8117	0.4583	0.5916	1.037
Mof_H 	H 	0.7673	0.4704	0.6021	-0.131
Mof_H 	H 	0.8229	0.4863	0.572	-0.108
Mof_H 	H 	0.7652	0.4	0.6453	-0.677
Mof_N 	N 	0.7507	0.4004	0.6387	0.729
Mof_H 	H 	0.738	0.4265	0.6218	-0.102
Mof_H 	H 	0.7236	0.3846	0.6567	-0.028
Mof_H 	H 	0.821	0.4437	0.5889	-1.098
Mof_O 	O 	0.4194	0.9685	0.5433	-0.287
Mof_O 	O 	0.502	0.9292	0.5624	-0.339
Mof_O 	O 	0.3247	0.7679	0.6957	-0.256
Mof_O 	O 	0.2613	0.8294	0.7081	-0.219
Mof_C 	C 	0.4052	0.9057	0.5955	-0.348
Mof_C 	C 	0.3452	0.9165	0.6051	0.599
Mof_C 	C 	0.3124	0.8862	0.6368	0.017
Mof_C 	C 	0.339	0.8451	0.6543	-0.031
Mof_C 	C 	0.4	0.8326	0.6437	-0.124
Mof_H 	H 	0.4191	0.8037	0.6563	0.105
Mof_C 	C 	0.4327	0.8633	0.6139	0.142
Mof_H 	H 	0.4743	0.855	0.6062	0.022
Mof_C 	C 	0.449	0.9353	0.5649	0.471
Mof_C 	C 	0.3083	0.8109	0.6867	0.279
Mof_N 	N 	0.3117	0.9583	0.5916	1.04
Mof_H 	H 	0.2673	0.9704	0.6021	-0.13
Mof_H 	H 	0.3229	0.9863	0.572	-0.106
Mof_H 	H 	0.2652	0.9	0.6453	-0.677
Mof_N 	N 	0.2507	0.9004	0.6387	0.73
Mof_H 	H 	0.238	0.9265	0.6218	-0.101
Mof_H 	H 	0.2236	0.8846	0.6567	-0.028
Mof_H 	H 	0.321	0.9437	0.5889	-1.1
Mof_O 	O 	0.4194	0.4685	0.0433	-0.285
Mof_O 	O 	0.502	0.4292	0.0624	-0.337
Mof_O 	O 	0.3247	0.2679	0.1957	-0.256
Mof_O 	O 	0.2613	0.3294	0.2081	-0.22
Mof_C 	C 	0.4052	0.4057	0.0955	-0.347
Mof_C 	C 	0.3452	0.4165	0.1051	0.601
Mof_C 	C 	0.3124	0.3862	0.1368	0.016
Mof_C 	C 	0.339	0.3451	0.1543	-0.03
Mof_C 	C 	0.4	0.3326	0.1437	-0.123
Mof_H 	H 	0.4191	0.3037	0.1563	0.105
Mof_C 	C 	0.4327	0.3633	0.1139	0.142
Mof_H 	H 	0.4743	0.355	0.1062	0.023
Mof_C 	C 	0.449	0.4353	0.0649	0.47
Mof_C 	C 	0.3083	0.3109	0.1867	0.279
Mof_N 	N 	0.3117	0.4583	0.0916	1.043
Mof_H 	H 	0.2673	0.4704	0.1021	-0.13
Mof_H 	H 	0.3229	0.4863	0.072	-0.106
Mof_H 	H 	0.2652	0.4	0.1453	-0.677
Mof_N 	N 	0.2507	0.4004	0.1387	0.729
Mof_H 	H 	0.238	0.4265	0.1218	-0.1
Mof_H 	H 	0.2236	0.3846	0.1567	-0.028
Mof_H 	H 	0.321	0.4437	0.0889	-1.103
Mof_O 	O 	0.0806	0.0315	0.0433	-0.286
Mof_O 	O 	0.998	0.0708	0.0624	-0.33
Mof_O 	O 	0.1753	0.2321	0.1957	-0.256
Mof_O 	O 	0.2387	0.1706	0.2081	-0.22
Mof_C 	C 	0.0948	0.0943	0.0955	-0.345
Mof_C 	C 	0.1548	0.0835	0.1051	0.599
Mof_C 	C 	0.1876	0.1138	0.1368	0.016
Mof_C 	C 	0.161	0.1549	0.1543	-0.031
Mof_C 	C 	0.1	0.1674	0.1437	-0.123
Mof_H 	H 	0.0809	0.1963	0.1563	0.104
Mof_C 	C 	0.0673	0.1367	0.1139	0.14
Mof_H 	H 	0.0257	0.145	0.1062	0.021
Mof_C 	C 	0.051	0.0647	0.0649	0.461
Mof_C 	C 	0.1917	0.1891	0.1867	0.279
Mof_N 	N 	0.1883	0.0417	0.0916	1.043
Mof_H 	H 	0.2327	0.0296	0.1021	-0.132
Mof_H 	H 	0.1771	0.0137	0.072	-0.109
Mof_H 	H 	0.2348	0.1	0.1453	-0.676
Mof_N 	N 	0.2493	0.0996	0.1387	0.728
Mof_H 	H 	0.262	0.0735	0.1218	-0.101
Mof_H 	H 	0.2764	0.1154	0.1567	-0.028
Mof_H 	H 	0.179	0.0563	0.0889	-1.103
Mof_O 	O 	0.0806	0.5315	0.5433	-0.29
Mof_O 	O 	0.998	0.5708	0.5624	-0.334
Mof_O 	O 	0.1753	0.7321	0.6957	-0.257
Mof_O 	O 	0.2387	0.6706	0.7081	-0.22
Mof_C 	C 	0.0948	0.5943	0.5955	-0.347
Mof_C 	C 	0.1548	0.5835	0.6051	0.597
Mof_C 	C 	0.1876	0.6138	0.6368	0.017
Mof_C 	C 	0.161	0.6549	0.6543	-0.031
Mof_C 	C 	0.1	0.6674	0.6437	-0.123
Mof_H 	H 	0.0809	0.6963	0.6563	0.104
Mof_C 	C 	0.0673	0.6367	0.6139	0.14
Mof_H 	H 	0.0257	0.645	0.6062	0.02
Mof_C 	C 	0.051	0.5647	0.5649	0.463
Mof_C 	C 	0.1917	0.6891	0.6867	0.279
Mof_N 	N 	0.1883	0.5417	0.5916	1.04
Mof_H 	H 	0.2327	0.5296	0.6021	-0.132
Mof_H 	H 	0.1771	0.5137	0.572	-0.109
Mof_H 	H 	0.2348	0.6	0.6453	-0.677
Mof_N 	N 	0.2493	0.5996	0.6387	0.729
Mof_H 	H 	0.262	0.5735	0.6218	-0.102
Mof_H 	H 	0.2764	0.6154	0.6567	-0.028
Mof_H 	H 	0.179	0.5563	0.5889	-1.1
Mof_O 	O 	0.5806	0.0315	0.5433	-0.294
Mof_O 	O 	0.498	0.0708	0.5624	-0.343
Mof_O 	O 	0.6753	0.2321	0.6957	-0.256
Mof_O 	O 	0.7387	0.1706	0.7081	-0.22
Mof_C 	C 	0.5948	0.0943	0.5955	-0.349
Mof_C 	C 	0.6548	0.0835	0.6051	0.596
Mof_C 	C 	0.6876	0.1138	0.6368	0.016
Mof_C 	C 	0.661	0.1549	0.6543	-0.031
Mof_C 	C 	0.6	0.1674	0.6437	-0.124
Mof_H 	H 	0.5809	0.1963	0.6563	0.105
Mof_C 	C 	0.5673	0.1367	0.6139	0.142
Mof_H 	H 	0.5257	0.145	0.6062	0.021
Mof_C 	C 	0.551	0.0647	0.5649	0.471
Mof_C 	C 	0.6917	0.1891	0.6867	0.279
Mof_N 	N 	0.6883	0.0417	0.5916	1.037
Mof_H 	H 	0.7327	0.0296	0.6021	-0.133
Mof_H 	H 	0.6771	0.0137	0.572	-0.111
Mof_H 	H 	0.7348	0.1	0.6453	-0.676
Mof_N 	N 	0.7493	0.0996	0.6387	0.729
Mof_H 	H 	0.762	0.0735	0.6218	-0.102
Mof_H 	H 	0.7764	0.1154	0.6567	-0.029
Mof_H 	H 	0.679	0.0563	0.5889	-1.098
Mof_O 	O 	0.5806	0.5315	0.0433	-0.285
Mof_O 	O 	0.498	0.5708	0.0624	-0.337
Mof_O 	O 	0.6753	0.7321	0.1957	-0.256
Mof_O 	O 	0.7387	0.6706	0.2081	-0.22
Mof_C 	C 	0.5948	0.5943	0.0955	-0.347
Mof_C 	C 	0.6548	0.5835	0.1051	0.601
Mof_C 	C 	0.6876	0.6138	0.1368	0.016
Mof_C 	C 	0.661	0.6549	0.1543	-0.03
Mof_C 	C 	0.6	0.6674	0.1437	-0.123
Mof_H 	H 	0.5809	0.6963	0.1563	0.105
Mof_C 	C 	0.5673	0.6367	0.1139	0.143
Mof_H 	H 	0.5257	0.645	0.1062	0.022
Mof_C 	C 	0.551	0.5647	0.0649	0.47
Mof_C 	C 	0.6917	0.6891	0.1867	0.279
Mof_N 	N 	0.6883	0.5417	0.0916	1.043
Mof_H 	H 	0.7327	0.5296	0.1021	-0.13
Mof_H 	H 	0.6771	0.5137	0.072	-0.106
Mof_H 	H 	0.7348	0.6	0.1453	-0.677
Mof_N 	N 	0.7493	0.5996	0.1387	0.73
Mof_H 	H 	0.762	0.5735	0.1218	-0.1
Mof_H 	H 	0.7764	0.6154	0.1567	-0.027
Mof_H 	H 	0.679	0.5563	0.0889	-1.103
Mof_O 	O 	0.1694	0.2815	0.2933	-0.292
Mof_O 	O 	0.252	0.3208	0.3124	-0.342
Mof_O 	O 	0.0747	0.4821	0.4457	-0.258
Mof_O 	O 	0.0113	0.4206	0.4581	-0.222
Mof_C 	C 	0.1552	0.3443	0.3455	-0.347
Mof_C 	C 	0.0952	0.3335	0.3551	0.595
Mof_C 	C 	0.0624	0.3638	0.3868	0.021
Mof_C 	C 	0.089	0.4049	0.4043	-0.034
Mof_C 	C 	0.15	0.4174	0.3937	-0.122
Mof_H 	H 	0.1691	0.4463	0.4063	0.104
Mof_C 	C 	0.1827	0.3867	0.3639	0.14
Mof_H 	H 	0.2243	0.395	0.3562	0.022
Mof_C 	C 	0.199	0.3147	0.3149	0.471
Mof_C 	C 	0.0583	0.4391	0.4367	0.28
Mof_N 	N 	0.0617	0.2917	0.3416	1.039
Mof_H 	H 	0.0173	0.2796	0.3521	-0.134
Mof_H 	H 	0.0729	0.2637	0.322	-0.11
Mof_H 	H 	0.0152	0.35	0.3953	-0.688
Mof_N 	N 	0.0007	0.3496	0.3887	0.735
Mof_H 	H 	0.988	0.3235	0.3718	-0.099
Mof_H 	H 	0.9736	0.3654	0.4067	-0.025
Mof_H 	H 	0.071	0.3063	0.3389	-1.099
Mof_O 	O 	0.1694	0.7815	0.7933	-0.292
Mof_O 	O 	0.252	0.8208	0.8124	-0.342
Mof_O 	O 	0.0747	0.9821	0.9457	-0.262
Mof_O 	O 	0.0113	0.9206	0.9581	-0.233
Mof_C 	C 	0.1552	0.8443	0.8455	-0.349
Mof_C 	C 	0.0952	0.8335	0.8551	0.595
Mof_C 	C 	0.0624	0.8638	0.8868	0.017
Mof_C 	C 	0.089	0.9049	0.9043	-0.036
Mof_C 	C 	0.15	0.9174	0.8937	-0.124
Mof_H 	H 	0.1691	0.9463	0.9063	0.105
Mof_C 	C 	0.1827	0.8867	0.8639	0.14
Mof_H 	H 	0.2243	0.895	0.8562	0.022
Mof_C 	C 	0.199	0.8147	0.8149	0.471
Mof_C 	C 	0.0583	0.9391	0.9367	0.28
Mof_N 	N 	0.0617	0.7917	0.8416	1.04
Mof_H 	H 	0.0173	0.7796	0.8521	-0.136
Mof_H 	H 	0.0729	0.7637	0.822	-0.11
Mof_H 	H 	0.0152	0.85	0.8953	-0.683
Mof_N 	N 	0.0007	0.8496	0.8887	0.731
Mof_H 	H 	0.988	0.8235	0.8718	-0.1
Mof_H 	H 	0.9736	0.8654	0.9067	-0.028
Mof_H 	H 	0.071	0.8063	0.8389	-1.1
Mof_O 	O 	0.6694	0.2815	0.7933	-0.292
Mof_O 	O 	0.752	0.3208	0.8124	-0.342
Mof_O 	O 	0.5747	0.4821	0.9457	-0.267
Mof_O 	O 	0.5113	0.4206	0.9581	-0.234
Mof_C 	C 	0.6552	0.3443	0.8455	-0.35
Mof_C 	C 	0.5952	0.3335	0.8551	0.597
Mof_C 	C 	0.5624	0.3638	0.8868	0.013
Mof_C 	C 	0.589	0.4049	0.9043	-0.034
Mof_C 	C 	0.65	0.4174	0.8937	-0.125
Mof_H 	H 	0.6691	0.4463	0.9063	0.104
Mof_C 	C 	0.6827	0.3867	0.8639	0.141
Mof_H 	H 	0.7243	0.395	0.8562	0.021
Mof_C 	C 	0.699	0.3147	0.8149	0.471
Mof_C 	C 	0.5583	0.4391	0.9367	0.28
Mof_N 	N 	0.5617	0.2917	0.8416	1.039
Mof_H 	H 	0.5173	0.2796	0.8521	-0.133
Mof_H 	H 	0.5729	0.2637	0.822	-0.11
Mof_H 	H 	0.5152	0.35	0.8953	-0.674
Mof_N 	N 	0.5007	0.3496	0.8887	0.726
Mof_H 	H 	0.488	0.3235	0.8718	-0.103
Mof_H 	H 	0.4736	0.3654	0.9067	-0.031
Mof_H 	H 	0.571	0.3063	0.8389	-1.1
Mof_O 	O 	0.6694	0.7815	0.2933	-0.292
Mof_O 	O 	0.752	0.8208	0.3124	-0.342
Mof_O 	O 	0.5747	0.9821	0.4457	-0.251
Mof_O 	O 	0.5113	0.9206	0.4581	-0.217
Mof_C 	C 	0.6552	0.8443	0.3455	-0.349
Mof_C 	C 	0.5952	0.8335	0.3551	0.598
Mof_C 	C 	0.5624	0.8638	0.3868	0.016
Mof_C 	C 	0.589	0.9049	0.4043	-0.029
Mof_C 	C 	0.65	0.9174	0.3937	-0.124
Mof_H 	H 	0.6691	0.9463	0.4063	0.106
Mof_C 	C 	0.6827	0.8867	0.3639	0.143
Mof_H 	H 	0.7243	0.895	0.3562	0.022
Mof_C 	C 	0.699	0.8147	0.3149	0.472
Mof_C 	C 	0.5583	0.9391	0.4367	0.278
Mof_N 	N 	0.5617	0.7917	0.3416	1.038
Mof_H 	H 	0.5173	0.7796	0.3521	-0.131
Mof_H 	H 	0.5729	0.7637	0.322	-0.109
Mof_H 	H 	0.5152	0.85	0.3953	-0.677
Mof_N 	N 	0.5007	0.8496	0.3887	0.729
Mof_H 	H 	0.488	0.8235	0.3718	-0.102
Mof_H 	H 	0.4736	0.8654	0.4067	-0.028
Mof_H 	H 	0.571	0.8063	0.3389	-1.099
Mof_O 	O 	0.3306	0.2185	0.2933	-0.292
Mof_O 	O 	0.248	0.1792	0.3124	-0.342
Mof_O 	O 	0.4253	0.0179	0.4457	-0.26
Mof_O 	O 	0.4887	0.0794	0.4581	-0.221
Mof_C 	C 	0.3448	0.1557	0.3455	-0.348
Mof_C 	C 	0.4048	0.1665	0.3551	0.597
Mof_C 	C 	0.4376	0.1362	0.3868	0.016
Mof_C 	C 	0.411	0.0951	0.4043	-0.032
Mof_C 	C 	0.35	0.0826	0.3937	-0.124
Mof_H 	H 	0.3309	0.0537	0.4063	0.104
Mof_C 	C 	0.3173	0.1133	0.3639	0.141
Mof_H 	H 	0.2757	0.105	0.3562	0.021
Mof_C 	C 	0.301	0.1853	0.3149	0.471
Mof_C 	C 	0.4417	0.0609	0.4367	0.279
Mof_N 	N 	0.4383	0.2083	0.3416	1.038
Mof_H 	H 	0.4827	0.2204	0.3521	-0.131
Mof_H 	H 	0.4271	0.2363	0.322	-0.109
Mof_H 	H 	0.4848	0.15	0.3953	-0.677
Mof_N 	N 	0.4993	0.1504	0.3887	0.729
Mof_H 	H 	0.512	0.1765	0.3718	-0.102
Mof_H 	H 	0.5264	0.1346	0.4067	-0.029
Mof_H 	H 	0.429	0.1937	0.3389	-1.099
Mof_O 	O 	0.3306	0.7185	0.7933	-0.292
Mof_O 	O 	0.248	0.6792	0.8124	-0.343
Mof_O 	O 	0.4253	0.5179	0.9457	-0.267
Mof_O 	O 	0.4887	0.5794	0.9581	-0.234
Mof_C 	C 	0.3448	0.6557	0.8455	-0.35
Mof_C 	C 	0.4048	0.6665	0.8551	0.597
Mof_C 	C 	0.4376	0.6362	0.8868	0.013
Mof_C 	C 	0.411	0.5951	0.9043	-0.034
Mof_C 	C 	0.35	0.5826	0.8937	-0.125
Mof_H 	H 	0.3309	0.5537	0.9063	0.104
Mof_C 	C 	0.3173	0.6133	0.8639	0.141
Mof_H 	H 	0.2757	0.605	0.8562	0.021
Mof_C 	C 	0.301	0.6853	0.8149	0.471
Mof_C 	C 	0.4417	0.5609	0.9367	0.28
Mof_N 	N 	0.4383	0.7083	0.8416	1.039
Mof_H 	H 	0.4827	0.7204	0.8521	-0.133
Mof_H 	H 	0.4271	0.7363	0.822	-0.11
Mof_H 	H 	0.4848	0.65	0.8953	-0.674
Mof_N 	N 	0.4993	0.6504	0.8887	0.726
Mof_H 	H 	0.512	0.6765	0.8718	-0.103
Mof_H 	H 	0.5264	0.6346	0.9067	-0.031
Mof_H 	H 	0.429	0.6937	0.8389	-1.1
Mof_O 	O 	0.8306	0.2185	0.7933	-0.292
Mof_O 	O 	0.748	0.1792	0.8124	-0.343
Mof_O 	O 	0.9253	0.0179	0.9457	-0.267
Mof_O 	O 	0.9887	0.0794	0.9581	-0.231
Mof_C 	C 	0.8448	0.1557	0.8455	-0.351
Mof_C 	C 	0.9048	0.1665	0.8551	0.6
Mof_C 	C 	0.9376	0.1362	0.8868	0.009
Mof_C 	C 	0.911	0.0951	0.9043	-0.031
Mof_C 	C 	0.85	0.0826	0.8937	-0.127
Mof_H 	H 	0.8309	0.0537	0.9063	0.104
Mof_C 	C 	0.8173	0.1133	0.8639	0.142
Mof_H 	H 	0.7757	0.105	0.8562	0.02
Mof_C 	C 	0.801	0.1853	0.8149	0.471
Mof_C 	C 	0.9417	0.0609	0.9367	0.279
Mof_N 	N 	0.9383	0.2083	0.8416	1.038
Mof_H 	H 	0.9827	0.2204	0.8521	-0.131
Mof_H 	H 	0.9271	0.2363	0.822	-0.109
Mof_H 	H 	0.9848	0.15	0.8953	-0.663
Mof_N 	N 	0.9993	0.1504	0.8887	0.721
Mof_H 	H 	0.012	0.1765	0.8718	-0.106
Mof_H 	H 	0.0264	0.1346	0.9067	-0.035
Mof_H 	H 	0.929	0.1937	0.8389	-1.1
Mof_O 	O 	0.8306	0.7185	0.2933	-0.292
Mof_O 	O 	0.748	0.6792	0.3124	-0.342
Mof_O 	O 	0.9253	0.5179	0.4457	-0.254
Mof_O 	O 	0.9887	0.5794	0.4581	-0.217
Mof_C 	C 	0.8448	0.6557	0.3455	-0.35
Mof_C 	C 	0.9048	0.6665	0.3551	0.6
Mof_C 	C 	0.9376	0.6362	0.3868	0.012
Mof_C 	C 	0.911	0.5951	0.4043	-0.027
Mof_C 	C 	0.85	0.5826	0.3937	-0.126
Mof_H 	H 	0.8309	0.5537	0.4063	0.106
Mof_C 	C 	0.8173	0.6133	0.3639	0.144
Mof_H 	H 	0.7757	0.605	0.3562	0.021
Mof_C 	C 	0.801	0.6853	0.3149	0.472
Mof_C 	C 	0.9417	0.5609	0.4367	0.277
Mof_N 	N 	0.9383	0.7083	0.3416	1.037
Mof_H 	H 	0.9827	0.7204	0.3521	-0.129
Mof_H 	H 	0.9271	0.7363	0.322	-0.108
Mof_H 	H 	0.9848	0.65	0.3953	-0.667
Mof_N 	N 	0.9993	0.6504	0.3887	0.724
Mof_H 	H 	0.012	0.6765	0.3718	-0.105
Mof_H 	H 	0.0264	0.6346	0.4067	-0.032
Mof_H 	H 	0.929	0.6937	0.3389	-1.099
Mof_Cd	Cd	-1.13752e-35	2.30151e-35	0.00222	0.511
Mof_Cd	Cd	2.63322e-33	0.5	0.50222	0.493
Mof_Cd	Cd	0.5	5.89185e-33	0.50222	0.489
Mof_Cd	Cd	0.5	0.5	0.00222	0.527
Mof_Cd	Cd	0.25	0.25	0.25222	0.498
Mof_Cd	Cd	0.25	0.75	0.75222	0.498
Mof_Cd	Cd	0.75	0.25	0.75222	0.498
Mof_Cd	Cd	0.75	0.75	0.25222	0.498
Mof_Cd	Cd	0.41454	0.74939	0.1426	0.503
Mof_O 	O 	0.5022	0.7807	0.1063	-0.251
Mof_O 	O 	0.4168	0.801	0.0712	-0.256
Mof_O 	O 	0.6747	0.9083	0.9428	-0.24
Mof_O 	O 	0.5943	0.9573	0.9314	-0.31
Mof_O 	O 	0.414	0.6728	0.0882	-0.325
Mof_O 	O 	0.3293	0.7112	0.1118	-0.347
Mof_O 	O 	0.2343	0.5231	0.9466	-0.227
Mof_O 	O 	0.1644	0.5777	0.9502	-0.25
Mof_C 	C 	0.5108	0.834	0.0427	0.029
Mof_C 	C 	0.4819	0.8659	0.0149	-0.113
Mof_H 	H 	0.438	0.8695	0.0167	0.092
Mof_C 	C 	0.5161	0.8948	0.9824	0.18
Mof_C 	C 	0.5772	0.89	0.981	-0.185
Mof_C 	C 	0.6084	0.8578	0.0118	0.099
Mof_H 	H 	0.6525	0.8564	0.0127	0.032
Mof_C 	C 	0.5732	0.8291	0.0401	-0.103
Mof_H 	H 	0.5933	0.8049	0.0585	0.093
Mof_C 	C 	0.4746	0.804	0.0772	0.282
Mof_C 	C 	0.6179	0.9229	0.9495	0.354
Mof_C 	C 	0.3173	0.6472	0.0569	-0.847
Mof_C 	C 	0.2543	0.6582	0.0485	0.721
Mof_C 	C 	0.2215	0.6278	0.0195	-0.6
Mof_H 	H 	0.179	0.6353	0.0141	0.253
Mof_C 	C 	0.2472	0.588	0.9984	0.42
Mof_C 	C 	0.3112	0.575	0.0079	-1.008
Mof_H 	H 	0.3301	0.5462	0.9948	0.386
Mof_C 	C 	0.3431	0.6048	0.0357	1.619
Mof_C 	C 	0.3558	0.6792	0.0868	0.593
Mof_C 	C 	0.2114	0.562	0.9621	0.164
Mof_N 	N 	0.4824	0.9243	0.9525	-0.34
Mof_H 	H 	0.5026	0.9386	0.9313	0.206
Mof_H 	H 	0.4427	0.9276	0.9542	0.19
Mof_N 	N 	0.224	0.6989	0.0651	0.287
Mof_H 	H 	0.1771	0.7112	0.0588	0.026
Mof_H 	H 	0.2359	0.7245	0.0868	0.039
Mof_H 	H 	0.378	0.6032	0.0432	-1.024
Mof_N 	N 	0.4084	0.5979	0.0451	0.424
Mof_H 	H 	0.4139	0.6121	0.072	0.073
Mof_H 	H 	0.4299	0.5701	0.0376	-0.025
Mof_H 	H 	0.236	0.6909	0.0583	-0.487
Mof_Cd	Cd	0.41454	0.24939	0.6426	0.502
Mof_O 	O 	0.5022	0.2807	0.6063	-0.252
Mof_O 	O 	0.4168	0.301	0.5712	-0.257
Mof_O 	O 	0.6747	0.4083	0.4428	-0.233
Mof_O 	O 	0.5943	0.4573	0.4314	-0.312
Mof_O 	O 	0.414	0.1728	0.5882	-0.323
Mof_O 	O 	0.3293	0.2112	0.6118	-0.341
Mof_O 	O 	0.2343	0.0231	0.4466	-0.223
Mof_O 	O 	0.1644	0.0777	0.4502	-0.239
Mof_C 	C 	0.5108	0.334	0.5427	0.031
Mof_C 	C 	0.4819	0.3659	0.5149	-0.147
Mof_H 	H 	0.438	0.3695	0.5167	0.094
Mof_C 	C 	0.5161	0.3948	0.4824	0.203
Mof_C 	C 	0.5772	0.39	0.481	-0.159
Mof_C 	C 	0.6084	0.3578	0.5118	0.061
Mof_H 	H 	0.6525	0.3564	0.5127	0.036
Mof_C 	C 	0.5732	0.3291	0.5401	-0.095
Mof_H 	H 	0.5933	0.3049	0.5585	0.088
Mof_C 	C 	0.4746	0.304	0.5772	0.279
Mof_C 	C 	0.6179	0.4229	0.4495	0.351
Mof_C 	C 	0.3173	0.1472	0.5569	-0.787
Mof_C 	C 	0.2543	0.1582	0.5485	0.711
Mof_C 	C 	0.2215	0.1278	0.5195	-0.635
Mof_H 	H 	0.179	0.1353	0.5141	0.256
Mof_C 	C 	0.2472	0.088	0.4984	0.466
Mof_C 	C 	0.3112	0.075	0.5079	-0.988
Mof_H 	H 	0.3301	0.0462	0.4948	0.396
Mof_C 	C 	0.3431	0.1048	0.5357	1.426
Mof_C 	C 	0.3558	0.1792	0.5868	0.567
Mof_C 	C 	0.2114	0.062	0.4621	0.152
Mof_N 	N 	0.4824	0.4243	0.4525	-0.343
Mof_H 	H 	0.5026	0.4386	0.4313	0.206
Mof_H 	H 	0.4427	0.4276	0.4542	0.194
Mof_N 	N 	0.224	0.1989	0.5651	0.292
Mof_H 	H 	0.1771	0.2112	0.5588	0.023
Mof_H 	H 	0.2359	0.2245	0.5868	0.036
Mof_H 	H 	0.378	0.1032	0.5432	-0.844
Mof_N 	N 	0.4084	0.0979	0.5451	0.285
Mof_H 	H 	0.4139	0.1121	0.572	0.097
Mof_H 	H 	0.4299	0.0701	0.5376	0.013
Mof_H 	H 	0.236	0.1909	0.5583	-0.489
Mof_Cd	Cd	0.91454	0.74939	0.6426	0.505
Mof_O 	O 	0.0022	0.7807	0.6063	-0.261
Mof_O 	O 	0.9168	0.801	0.5712	-0.261
Mof_O 	O 	0.1747	0.9083	0.4428	-0.23
Mof_O 	O 	0.0943	0.9573	0.4314	-0.306
Mof_O 	O 	0.914	0.6728	0.5882	-0.322
Mof_O 	O 	0.8293	0.7112	0.6118	-0.341
Mof_O 	O 	0.7343	0.5231	0.4466	-0.22
Mof_O 	O 	0.6644	0.5777	0.4502	-0.238
Mof_C 	C 	0.0108	0.834	0.5427	0.005
Mof_C 	C 	0.9819	0.8659	0.5149	-0.118
Mof_H 	H 	0.938	0.8695	0.5167	0.086
Mof_C 	C 	0.0161	0.8948	0.4824	0.184
Mof_C 	C 	0.0772	0.89	0.481	-0.147
Mof_C 	C 	0.1084	0.8578	0.5118	0.046
Mof_H 	H 	0.1525	0.8564	0.5127	0.041
Mof_C 	C 	0.0732	0.8291	0.5401	-0.077
Mof_H 	H 	0.0933	0.8049	0.5585	0.081
Mof_C 	C 	0.9746	0.804	0.5772	0.297
Mof_C 	C 	0.1179	0.9229	0.4495	0.346
Mof_C 	C 	0.8173	0.6472	0.5569	-0.786
Mof_C 	C 	0.7543	0.6582	0.5485	0.712
Mof_C 	C 	0.7215	0.6278	0.5195	-0.635
Mof_H 	H 	0.679	0.6353	0.5141	0.257
Mof_C 	C 	0.7472	0.588	0.4984	0.468
Mof_C 	C 	0.8112	0.575	0.5079	-0.987
Mof_H 	H 	0.8301	0.5462	0.4948	0.397
Mof_C 	C 	0.8431	0.6048	0.5357	1.425
Mof_C 	C 	0.8558	0.6792	0.5868	0.567
Mof_C 	C 	0.7114	0.562	0.4621	0.151
Mof_N 	N 	0.9824	0.9243	0.4525	-0.333
Mof_H 	H 	0.0026	0.9386	0.4313	0.201
Mof_H 	H 	0.9427	0.9276	0.4542	0.193
Mof_N 	N 	0.724	0.6989	0.5651	0.292
Mof_H 	H 	0.6771	0.7112	0.5588	0.024
Mof_H 	H 	0.7359	0.7245	0.5868	0.037
Mof_H 	H 	0.878	0.6032	0.5432	-0.842
Mof_N 	N 	0.9084	0.5979	0.5451	0.283
Mof_H 	H 	0.9139	0.6121	0.572	0.098
Mof_H 	H 	0.9299	0.5701	0.5376	0.015
Mof_H 	H 	0.736	0.6909	0.5583	-0.489
Mof_Cd	Cd	0.91454	0.24939	0.1426	0.505
Mof_O 	O 	0.0022	0.2807	0.1063	-0.262
Mof_O 	O 	0.9168	0.301	0.0712	-0.26
Mof_O 	O 	0.1747	0.4083	0.9428	-0.241
Mof_O 	O 	0.0943	0.4573	0.9314	-0.313
Mof_O 	O 	0.914	0.1728	0.0882	-0.324
Mof_O 	O 	0.8293	0.2112	0.1118	-0.347
Mof_O 	O 	0.7343	0.0231	0.9466	-0.23
Mof_O 	O 	0.6644	0.0777	0.9502	-0.249
Mof_C 	C 	0.0108	0.334	0.0427	-0.002
Mof_C 	C 	0.9819	0.3659	0.0149	-0.081
Mof_H 	H 	0.938	0.3695	0.0167	0.082
Mof_C 	C 	0.0161	0.3948	0.9824	0.157
Mof_C 	C 	0.0772	0.39	0.981	-0.172
Mof_C 	C 	0.1084	0.3578	0.0118	0.081
Mof_H 	H 	0.1525	0.3564	0.0127	0.037
Mof_C 	C 	0.0732	0.3291	0.0401	-0.082
Mof_H 	H 	0.0933	0.3049	0.0585	0.085
Mof_C 	C 	0.9746	0.304	0.0772	0.303
Mof_C 	C 	0.1179	0.4229	0.9495	0.35
Mof_C 	C 	0.8173	0.1472	0.0569	-0.846
Mof_C 	C 	0.7543	0.1582	0.0485	0.721
Mof_C 	C 	0.7215	0.1278	0.0195	-0.601
Mof_H 	H 	0.679	0.1353	0.0141	0.254
Mof_C 	C 	0.7472	0.088	0.9984	0.42
Mof_C 	C 	0.8112	0.075	0.0079	-1.008
Mof_H 	H 	0.8301	0.0462	0.9948	0.385
Mof_C 	C 	0.8431	0.1048	0.0357	1.616
Mof_C 	C 	0.8558	0.1792	0.0868	0.593
Mof_C 	C 	0.7114	0.062	0.9621	0.164
Mof_N 	N 	0.9824	0.4243	0.9525	-0.328
Mof_H 	H 	0.0026	0.4386	0.9313	0.198
Mof_H 	H 	0.9427	0.4276	0.9542	0.186
Mof_N 	N 	0.724	0.1989	0.0651	0.288
Mof_H 	H 	0.6771	0.2112	0.0588	0.026
Mof_H 	H 	0.7359	0.2245	0.0868	0.039
Mof_H 	H 	0.878	0.1032	0.0432	-1.022
Mof_N 	N 	0.9084	0.0979	0.0451	0.423
Mof_H 	H 	0.9139	0.1121	0.072	0.073
Mof_H 	H 	0.9299	0.0701	0.0376	-0.025
Mof_H 	H 	0.736	0.1909	0.0583	-0.487
Mof_Cd	Cd	0.66454	0.50061	0.3926	0.503
Mof_O 	O 	0.7522	0.4693	0.3563	-0.252
Mof_O 	O 	0.6668	0.449	0.3212	-0.257
Mof_O 	O 	0.9247	0.3417	0.1928	-0.231
Mof_O 	O 	0.8443	0.2927	0.1814	-0.311
Mof_O 	O 	0.664	0.5772	0.3382	-0.323
Mof_O 	O 	0.5793	0.5388	0.3618	-0.341
Mof_O 	O 	0.4843	0.7269	0.1966	-0.22
Mof_O 	O 	0.4144	0.6723	0.2002	-0.238
Mof_C 	C 	0.7608	0.416	0.2927	0.031
Mof_C 	C 	0.7319	0.3841	0.2649	-0.146
Mof_H 	H 	0.688	0.3805	0.2667	0.094
Mof_C 	C 	0.7661	0.3552	0.2324	0.203
Mof_C 	C 	0.8272	0.36	0.231	-0.158
Mof_C 	C 	0.8584	0.3922	0.2618	0.061
Mof_H 	H 	0.9025	0.3936	0.2627	0.037
Mof_C 	C 	0.8232	0.4209	0.2901	-0.095
Mof_H 	H 	0.8433	0.4451	0.3085	0.088
Mof_C 	C 	0.7246	0.446	0.3272	0.279
Mof_C 	C 	0.8679	0.3271	0.1995	0.351
Mof_C 	C 	0.5673	0.6028	0.3069	-0.786
Mof_C 	C 	0.5043	0.5918	0.2985	0.712
Mof_C 	C 	0.4715	0.6222	0.2695	-0.635
Mof_H 	H 	0.429	0.6147	0.2641	0.257
Mof_C 	C 	0.4972	0.662	0.2484	0.468
Mof_C 	C 	0.5612	0.675	0.2579	-0.987
Mof_H 	H 	0.5801	0.7038	0.2448	0.397
Mof_C 	C 	0.5931	0.6452	0.2857	1.425
Mof_C 	C 	0.6058	0.5708	0.3368	0.567
Mof_C 	C 	0.4614	0.688	0.2121	0.151
Mof_N 	N 	0.7324	0.3257	0.2025	-0.343
Mof_H 	H 	0.7526	0.3114	0.1813	0.206
Mof_H 	H 	0.6927	0.3224	0.2042	0.194
Mof_N 	N 	0.474	0.5511	0.3151	0.292
Mof_H 	H 	0.4271	0.5388	0.3088	0.024
Mof_H 	H 	0.4859	0.5255	0.3368	0.037
Mof_H 	H 	0.628	0.6468	0.2932	-0.842
Mof_N 	N 	0.6584	0.6521	0.2951	0.283
Mof_H 	H 	0.6639	0.6379	0.322	0.098
Mof_H 	H 	0.6799	0.6799	0.2876	0.014
Mof_H 	H 	0.486	0.5591	0.3083	-0.489
Mof_Cd	Cd	0.66454	0.00061	0.8926	0.494
Mof_O 	O 	0.7522	0.9693	0.8563	-0.248
Mof_O 	O 	0.6668	0.949	0.8212	-0.255
Mof_O 	O 	0.9247	0.8417	0.6928	-0.231
Mof_O 	O 	0.8443	0.7927	0.6814	-0.312
Mof_O 	O 	0.664	0.0772	0.8382	-0.324
Mof_O 	O 	0.5793	0.0388	0.8618	-0.343
Mof_O 	O 	0.4843	0.2269	0.6966	-0.22
Mof_O 	O 	0.4144	0.1723	0.7002	-0.238
Mof_C 	C 	0.7608	0.916	0.7927	0.032
Mof_C 	C 	0.7319	0.8841	0.7649	-0.147
Mof_H 	H 	0.688	0.8805	0.7667	0.094
Mof_C 	C 	0.7661	0.8552	0.7324	0.203
Mof_C 	C 	0.8272	0.86	0.731	-0.159
Mof_C 	C 	0.8584	0.8922	0.7618	0.061
Mof_H 	H 	0.9025	0.8936	0.7627	0.037
Mof_C 	C 	0.8232	0.9209	0.7901	-0.096
Mof_H 	H 	0.8433	0.9451	0.8085	0.09
Mof_C 	C 	0.7246	0.946	0.8272	0.278
Mof_C 	C 	0.8679	0.8271	0.6995	0.351
Mof_C 	C 	0.5673	0.1028	0.8069	-0.787
Mof_C 	C 	0.5043	0.0918	0.7985	0.71
Mof_C 	C 	0.4715	0.1222	0.7695	-0.635
Mof_H 	H 	0.429	0.1147	0.7641	0.257
Mof_C 	C 	0.4972	0.162	0.7484	0.467
Mof_C 	C 	0.5612	0.175	0.7579	-0.988
Mof_H 	H 	0.5801	0.2038	0.7448	0.397
Mof_C 	C 	0.5931	0.1452	0.7857	1.426
Mof_C 	C 	0.6058	0.0708	0.8368	0.567
Mof_C 	C 	0.4614	0.188	0.7121	0.151
Mof_N 	N 	0.7324	0.8257	0.7025	-0.343
Mof_H 	H 	0.7526	0.8114	0.6813	0.206
Mof_H 	H 	0.6927	0.8224	0.7042	0.194
Mof_N 	N 	0.474	0.0511	0.8151	0.291
Mof_H 	H 	0.4271	0.0388	0.8088	0.022
Mof_H 	H 	0.4859	0.0255	0.8368	0.034
Mof_H 	H 	0.628	0.1468	0.7932	-0.843
Mof_N 	N 	0.6584	0.1521	0.7951	0.284
Mof_H 	H 	0.6639	0.1379	0.822	0.097
Mof_H 	H 	0.6799	0.1799	0.7876	0.014
Mof_H 	H 	0.486	0.0591	0.8083	-0.488
Mof_Cd	Cd	0.16454	0.50061	0.8926	0.502
Mof_O 	O 	0.2522	0.4693	0.8563	-0.253
Mof_O 	O 	0.1668	0.449	0.8212	-0.258
Mof_O 	O 	0.4247	0.3417	0.6928	-0.233
Mof_O 	O 	0.3443	0.2927	0.6814	-0.312
Mof_O 	O 	0.164	0.5772	0.8382	-0.323
Mof_O 	O 	0.0793	0.5388	0.8618	-0.342
Mof_O 	O 	0.9843	0.7269	0.6966	-0.217
Mof_O 	O 	0.9144	0.6723	0.7002	-0.237
Mof_C 	C 	0.2608	0.416	0.7927	0.03
Mof_C 	C 	0.2319	0.3841	0.7649	-0.147
Mof_H 	H 	0.188	0.3805	0.7667	0.094
Mof_C 	C 	0.2661	0.3552	0.7324	0.202
Mof_C 	C 	0.3272	0.36	0.731	-0.159
Mof_C 	C 	0.3584	0.3922	0.7618	0.06
Mof_H 	H 	0.4025	0.3936	0.7627	0.036
Mof_C 	C 	0.3232	0.4209	0.7901	-0.095
Mof_H 	H 	0.3433	0.4451	0.8085	0.087
Mof_C 	C 	0.2246	0.446	0.8272	0.279
Mof_C 	C 	0.3679	0.3271	0.6995	0.351
Mof_C 	C 	0.0673	0.6028	0.8069	-0.784
Mof_C 	C 	0.0043	0.5918	0.7985	0.704
Mof_C 	C 	0.9715	0.6222	0.7695	-0.628
Mof_H 	H 	0.929	0.6147	0.7641	0.255
Mof_C 	C 	0.9972	0.662	0.7484	0.47
Mof_C 	C 	0.0612	0.675	0.7579	-0.99
Mof_H 	H 	0.0801	0.7038	0.7448	0.397
Mof_C 	C 	0.0931	0.6452	0.7857	1.42
Mof_C 	C 	0.1058	0.5708	0.8368	0.565
Mof_C 	C 	0.9614	0.688	0.7121	0.151
Mof_N 	N 	0.2324	0.3257	0.7025	-0.343
Mof_H 	H 	0.2526	0.3114	0.6813	0.206
Mof_H 	H 	0.1927	0.3224	0.7042	0.194
Mof_N 	N 	0.974	0.5511	0.8151	0.305
Mof_H 	H 	0.9271	0.5388	0.8088	0.022
Mof_H 	H 	0.9859	0.5255	0.8368	0.036
Mof_H 	H 	0.128	0.6468	0.7932	-0.838
Mof_N 	N 	0.1584	0.6521	0.7951	0.28
Mof_H 	H 	0.1639	0.6379	0.822	0.097
Mof_H 	H 	0.1799	0.6799	0.7876	0.015
Mof_H 	H 	0.986	0.5591	0.8083	-0.497
Mof_Cd	Cd	0.16454	0.00061	0.3926	0.493
Mof_O 	O 	0.2522	0.9693	0.3563	-0.247
Mof_O 	O 	0.1668	0.949	0.3212	-0.255
Mof_O 	O 	0.4247	0.8417	0.1928	-0.232
Mof_O 	O 	0.3443	0.7927	0.1814	-0.312
Mof_O 	O 	0.164	0.0772	0.3382	-0.324
Mof_O 	O 	0.0793	0.0388	0.3618	-0.345
Mof_O 	O 	0.9843	0.2269	0.1966	-0.217
Mof_O 	O 	0.9144	0.1723	0.2002	-0.237
Mof_C 	C 	0.2608	0.916	0.2927	0.033
Mof_C 	C 	0.2319	0.8841	0.2649	-0.147
Mof_H 	H 	0.188	0.8805	0.2667	0.095
Mof_C 	C 	0.2661	0.8552	0.2324	0.204
Mof_C 	C 	0.3272	0.86	0.231	-0.159
Mof_C 	C 	0.3584	0.8922	0.2618	0.062
Mof_H 	H 	0.4025	0.8936	0.2627	0.036
Mof_C 	C 	0.3232	0.9209	0.2901	-0.096
Mof_H 	H 	0.3433	0.9451	0.3085	0.09
Mof_C 	C 	0.2246	0.946	0.3272	0.278
Mof_C 	C 	0.3679	0.8271	0.1995	0.351
Mof_C 	C 	0.0673	0.1028	0.3069	-0.784
Mof_C 	C 	0.0043	0.0918	0.2985	0.701
Mof_C 	C 	0.9715	0.1222	0.2695	-0.627
Mof_H 	H 	0.929	0.1147	0.2641	0.255
Mof_C 	C 	0.9972	0.162	0.2484	0.471
Mof_C 	C 	0.0612	0.175	0.2579	-0.991
Mof_H 	H 	0.0801	0.2038	0.2448	0.397
Mof_C 	C 	0.0931	0.1452	0.2857	1.421
Mof_C 	C 	0.1058	0.0708	0.3368	0.565
Mof_C 	C 	0.9614	0.188	0.2121	0.151
Mof_N 	N 	0.2324	0.8257	0.2025	-0.344
Mof_H 	H 	0.2526	0.8114	0.1813	0.206
Mof_H 	H 	0.1927	0.8224	0.2042	0.195
Mof_N 	N 	0.974	0.0511	0.3151	0.305
Mof_H 	H 	0.9271	0.0388	0.3088	0.02
Mof_H 	H 	0.9859	0.0255	0.3368	0.033
Mof_H 	H 	0.128	0.1468	0.2932	-0.839
Mof_N 	N 	0.1584	0.1521	0.2951	0.281
Mof_H 	H 	0.1639	0.1379	0.322	0.098
Mof_H 	H 	0.1799	0.1799	0.2876	0.015
Mof_H 	H 	0.986	0.0591	0.3083	-0.496
Mof_Cd	Cd	0.58546	0.25061	0.1426	0.503
Mof_O 	O 	0.4978	0.2193	0.1063	-0.252
Mof_O 	O 	0.5832	0.199	0.0712	-0.256
Mof_O 	O 	0.3253	0.0917	0.9428	-0.244
Mof_O 	O 	0.4057	0.0427	0.9314	-0.319
Mof_O 	O 	0.586	0.3272	0.0882	-0.325
Mof_O 	O 	0.6707	0.2888	0.1118	-0.347
Mof_O 	O 	0.7657	0.4769	0.9466	-0.227
Mof_O 	O 	0.8356	0.4223	0.9502	-0.248
Mof_C 	C 	0.4892	0.166	0.0427	0.028
Mof_C 	C 	0.5181	0.1341	0.0149	-0.113
Mof_H 	H 	0.562	0.1305	0.0167	0.091
Mof_C 	C 	0.4839	0.1052	0.9824	0.179
Mof_C 	C 	0.4228	0.11	0.981	-0.186
Mof_C 	C 	0.3916	0.1422	0.0118	0.098
Mof_H 	H 	0.3475	0.1436	0.0127	0.031
Mof_C 	C 	0.4268	0.1709	0.0401	-0.103
Mof_H 	H 	0.4067	0.1951	0.0585	0.093
Mof_C 	C 	0.5254	0.196	0.0772	0.281
Mof_C 	C 	0.3821	0.0771	0.9495	0.355
Mof_C 	C 	0.6827	0.3528	0.0569	-0.847
Mof_C 	C 	0.7457	0.3418	0.0485	0.722
Mof_C 	C 	0.7785	0.3722	0.0195	-0.601
Mof_H 	H 	0.821	0.3647	0.0141	0.254
Mof_C 	C 	0.7528	0.412	0.9984	0.421
Mof_C 	C 	0.6888	0.425	0.0079	-1.007
Mof_H 	H 	0.6699	0.4538	0.9948	0.386
Mof_C 	C 	0.6569	0.3952	0.0357	1.619
Mof_C 	C 	0.6442	0.3208	0.0868	0.594
Mof_C 	C 	0.7886	0.438	0.9621	0.164
Mof_N 	N 	0.5176	0.0757	0.9525	-0.34
Mof_H 	H 	0.4974	0.0614	0.9313	0.203
Mof_H 	H 	0.5573	0.0724	0.9542	0.188
Mof_N 	N 	0.776	0.3011	0.0651	0.287
Mof_H 	H 	0.8229	0.2888	0.0588	0.027
Mof_H 	H 	0.7641	0.2755	0.0868	0.039
Mof_H 	H 	0.622	0.3968	0.0432	-1.024
Mof_N 	N 	0.5916	0.4021	0.0451	0.424
Mof_H 	H 	0.5861	0.3879	0.072	0.073
Mof_H 	H 	0.5701	0.4299	0.0376	-0.024
Mof_H 	H 	0.764	0.3091	0.0583	-0.487
Mof_Cd	Cd	0.58546	0.75061	0.6426	0.503
Mof_O 	O 	0.4978	0.7193	0.6063	-0.252
Mof_O 	O 	0.5832	0.699	0.5712	-0.257
Mof_O 	O 	0.3253	0.5917	0.4428	-0.233
Mof_O 	O 	0.4057	0.5427	0.4314	-0.312
Mof_O 	O 	0.586	0.8272	0.5882	-0.323
Mof_O 	O 	0.6707	0.7888	0.6118	-0.341
Mof_O 	O 	0.7657	0.9769	0.4466	-0.217
Mof_O 	O 	0.8356	0.9223	0.4502	-0.236
Mof_C 	C 	0.4892	0.666	0.5427	0.031
Mof_C 	C 	0.5181	0.6341	0.5149	-0.147
Mof_H 	H 	0.562	0.6305	0.5167	0.094
Mof_C 	C 	0.4839	0.6052	0.4824	0.203
Mof_C 	C 	0.4228	0.61	0.481	-0.159
Mof_C 	C 	0.3916	0.6422	0.5118	0.061
Mof_H 	H 	0.3475	0.6436	0.5127	0.036
Mof_C 	C 	0.4268	0.6709	0.5401	-0.095
Mof_H 	H 	0.4067	0.6951	0.5585	0.088
Mof_C 	C 	0.5254	0.696	0.5772	0.279
Mof_C 	C 	0.3821	0.5771	0.4495	0.351
Mof_C 	C 	0.6827	0.8528	0.5569	-0.786
Mof_C 	C 	0.7457	0.8418	0.5485	0.713
Mof_C 	C 	0.7785	0.8722	0.5195	-0.636
Mof_H 	H 	0.821	0.8647	0.5141	0.258
Mof_C 	C 	0.7528	0.912	0.4984	0.469
Mof_C 	C 	0.6888	0.925	0.5079	-0.987
Mof_H 	H 	0.6699	0.9538	0.4948	0.399
Mof_C 	C 	0.6569	0.8952	0.5357	1.425
Mof_C 	C 	0.6442	0.8208	0.5868	0.567
Mof_C 	C 	0.7886	0.938	0.4621	0.151
Mof_N 	N 	0.5176	0.5757	0.4525	-0.343
Mof_H 	H 	0.4974	0.5614	0.4313	0.206
Mof_H 	H 	0.5573	0.5724	0.4542	0.194
Mof_N 	N 	0.776	0.8011	0.5651	0.291
Mof_H 	H 	0.8229	0.7888	0.5588	0.025
Mof_H 	H 	0.7641	0.7755	0.5868	0.037
Mof_H 	H 	0.622	0.8968	0.5432	-0.841
Mof_N 	N 	0.5916	0.9021	0.5451	0.282
Mof_H 	H 	0.5861	0.8879	0.572	0.099
Mof_H 	H 	0.5701	0.9299	0.5376	0.017
Mof_H 	H 	0.764	0.8091	0.5583	-0.489
Mof_Cd	Cd	0.08546	0.25061	0.6426	0.5
Mof_O 	O 	0.9978	0.2193	0.6063	-0.241
Mof_O 	O 	0.0832	0.199	0.5712	-0.253
Mof_O 	O 	0.8253	0.0917	0.4428	-0.236
Mof_O 	O 	0.9057	0.0427	0.4314	-0.317
Mof_O 	O 	0.086	0.3272	0.5882	-0.324
Mof_O 	O 	0.1707	0.2888	0.6118	-0.341
Mof_O 	O 	0.2657	0.4769	0.4466	-0.22
Mof_O 	O 	0.3356	0.4223	0.4502	-0.238
Mof_C 	C 	0.9892	0.166	0.5427	0.063
Mof_C 	C 	0.0181	0.1341	0.5149	-0.181
Mof_H 	H 	0.062	0.1305	0.5167	0.104
Mof_C 	C 	0.9839	0.1052	0.4824	0.227
Mof_C 	C 	0.9228	0.11	0.481	-0.174
Mof_C 	C 	0.8916	0.1422	0.5118	0.078
Mof_H 	H 	0.8475	0.1436	0.5127	0.03
Mof_C 	C 	0.9268	0.1709	0.5401	-0.118
Mof_H 	H 	0.9067	0.1951	0.5585	0.096
Mof_C 	C 	0.0254	0.196	0.5772	0.257
Mof_C 	C 	0.8821	0.0771	0.4495	0.357
Mof_C 	C 	0.1827	0.3528	0.5569	-0.787
Mof_C 	C 	0.2457	0.3418	0.5485	0.712
Mof_C 	C 	0.2785	0.3722	0.5195	-0.636
Mof_H 	H 	0.321	0.3647	0.5141	0.257
Mof_C 	C 	0.2528	0.412	0.4984	0.468
Mof_C 	C 	0.1888	0.425	0.5079	-0.988
Mof_H 	H 	0.1699	0.4538	0.4948	0.397
Mof_C 	C 	0.1569	0.3952	0.5357	1.426
Mof_C 	C 	0.1442	0.3208	0.5868	0.567
Mof_C 	C 	0.2886	0.438	0.4621	0.151
Mof_N 	N 	0.0176	0.0757	0.4525	-0.356
Mof_H 	H 	0.9974	0.0614	0.4313	0.212
Mof_H 	H 	0.0573	0.0724	0.4542	0.196
Mof_N 	N 	0.276	0.3011	0.5651	0.292
Mof_H 	H 	0.3229	0.2888	0.5588	0.024
Mof_H 	H 	0.2641	0.2755	0.5868	0.037
Mof_H 	H 	0.122	0.3968	0.5432	-0.843
Mof_N 	N 	0.0916	0.4021	0.5451	0.284
Mof_H 	H 	0.0861	0.3879	0.572	0.098
Mof_H 	H 	0.0701	0.4299	0.5376	0.015
Mof_H 	H 	0.264	0.3091	0.5583	-0.489
Mof_Cd	Cd	0.08546	0.75061	0.1426	0.501
Mof_O 	O 	0.9978	0.7193	0.1063	-0.242
Mof_O 	O 	0.0832	0.699	0.0712	-0.252
Mof_O 	O 	0.8253	0.5917	0.9428	-0.243
Mof_O 	O 	0.9057	0.5427	0.9314	-0.315
Mof_O 	O 	0.086	0.8272	0.0882	-0.327
Mof_O 	O 	0.1707	0.7888	0.1118	-0.347
Mof_O 	O 	0.2657	0.9769	0.9466	-0.224
Mof_O 	O 	0.3356	0.9223	0.9502	-0.248
Mof_C 	C 	0.9892	0.666	0.0427	0.057
Mof_C 	C 	0.0181	0.6341	0.0149	-0.144
Mof_H 	H 	0.062	0.6305	0.0167	0.1
Mof_C 	C 	0.9839	0.6052	0.9824	0.202
Mof_C 	C 	0.9228	0.61	0.981	-0.198
Mof_C 	C 	0.8916	0.6422	0.0118	0.114
Mof_H 	H 	0.8475	0.6436	0.0127	0.027
Mof_C 	C 	0.9268	0.6709	0.0401	-0.123
Mof_H 	H 	0.9067	0.6951	0.0585	0.1
Mof_C 	C 	0.0254	0.696	0.0772	0.262
Mof_C 	C 	0.8821	0.5771	0.9495	0.359
Mof_C 	C 	0.1827	0.8528	0.0569	-0.846
Mof_C 	C 	0.2457	0.8418	0.0485	0.722
Mof_C 	C 	0.2785	0.8722	0.0195	-0.601
Mof_H 	H 	0.321	0.8647	0.0141	0.254
Mof_C 	C 	0.2528	0.912	0.9984	0.422
Mof_C 	C 	0.1888	0.925	0.0079	-1.008
Mof_H 	H 	0.1699	0.9538	0.9948	0.388
Mof_C 	C 	0.1569	0.8952	0.0357	1.618
Mof_C 	C 	0.1442	0.8208	0.0868	0.594
Mof_C 	C 	0.2886	0.938	0.9621	0.163
Mof_N 	N 	0.0176	0.5757	0.9525	-0.352
Mof_H 	H 	0.9974	0.5614	0.9313	0.211
Mof_H 	H 	0.0573	0.5724	0.9542	0.191
Mof_N 	N 	0.276	0.8011	0.0651	0.287
Mof_H 	H 	0.3229	0.7888	0.0588	0.027
Mof_H 	H 	0.2641	0.7755	0.0868	0.039
Mof_H 	H 	0.122	0.8968	0.0432	-1.021
Mof_N 	N 	0.0916	0.9021	0.0451	0.421
Mof_H 	H 	0.0861	0.8879	0.072	0.074
Mof_H 	H 	0.0701	0.9299	0.0376	-0.022
Mof_H 	H 	0.264	0.8091	0.0583	-0.486
Mof_Cd	Cd	0.83546	0.99939	0.3926	0.511
Mof_O 	O 	0.7478	0.0307	0.3563	-0.257
Mof_O 	O 	0.8332	0.051	0.3212	-0.26
Mof_O 	O 	0.5753	0.1583	0.1928	-0.234
Mof_O 	O 	0.6557	0.2073	0.1814	-0.312
Mof_O 	O 	0.836	0.9228	0.3382	-0.322
Mof_O 	O 	0.9207	0.9612	0.3618	-0.337
Mof_O 	O 	0.0157	0.7731	0.1966	-0.223
Mof_O 	O 	0.0856	0.8277	0.2002	-0.238
Mof_C 	C 	0.7392	0.084	0.2927	0.029
Mof_C 	C 	0.7681	0.1159	0.2649	-0.146
Mof_H 	H 	0.812	0.1195	0.2667	0.094
Mof_C 	C 	0.7339	0.1448	0.2324	0.202
Mof_C 	C 	0.6728	0.14	0.231	-0.159
Mof_C 	C 	0.6416	0.1078	0.2618	0.06
Mof_H 	H 	0.5975	0.1064	0.2627	0.035
Mof_C 	C 	0.6768	0.0791	0.2901	-0.095
Mof_H 	H 	0.6567	0.0549	0.3085	0.086
Mof_C 	C 	0.7754	0.054	0.3272	0.279
Mof_C 	C 	0.6321	0.1729	0.1995	0.351
Mof_C 	C 	0.9327	0.8972	0.3069	-0.788
Mof_C 	C 	0.9957	0.9082	0.2985	0.721
Mof_C 	C 	0.0285	0.8778	0.2695	-0.643
Mof_H 	H 	0.071	0.8853	0.2641	0.26
Mof_C 	C 	0.0028	0.838	0.2484	0.465
Mof_C 	C 	0.9388	0.825	0.2579	-0.984
Mof_H 	H 	0.9199	0.7962	0.2448	0.397
Mof_C 	C 	0.9069	0.8548	0.2857	1.428
Mof_C 	C 	0.8942	0.9292	0.3368	0.568
Mof_C 	C 	0.0386	0.812	0.2121	0.152
Mof_N 	N 	0.7676	0.1743	0.2025	-0.343
Mof_H 	H 	0.7474	0.1886	0.1813	0.206
Mof_H 	H 	0.8073	0.1776	0.2042	0.194
Mof_N 	N 	0.026	0.9489	0.3151	0.281
Mof_H 	H 	0.0729	0.9612	0.3088	0.027
Mof_H 	H 	0.0141	0.9745	0.3368	0.04
Mof_H 	H 	0.872	0.8532	0.2932	-0.845
Mof_N 	N 	0.8416	0.8479	0.2951	0.286
Mof_H 	H 	0.8361	0.8621	0.322	0.098
Mof_H 	H 	0.8201	0.8201	0.2876	0.014
Mof_H 	H 	0.014	0.9409	0.3083	-0.484
Mof_Cd	Cd	0.83546	0.49939	0.8926	0.502
Mof_O 	O 	0.7478	0.5307	0.8563	-0.253
Mof_O 	O 	0.8332	0.551	0.8212	-0.257
Mof_O 	O 	0.5753	0.6583	0.6928	-0.233
Mof_O 	O 	0.6557	0.7073	0.6814	-0.312
Mof_O 	O 	0.836	0.4228	0.8382	-0.323
Mof_O 	O 	0.9207	0.4612	0.8618	-0.34
Mof_O 	O 	0.0157	0.2731	0.6966	-0.223
Mof_O 	O 	0.0856	0.3277	0.7002	-0.238
Mof_C 	C 	0.7392	0.584	0.7927	0.031
Mof_C 	C 	0.7681	0.6159	0.7649	-0.147
Mof_H 	H 	0.812	0.6195	0.7667	0.094
Mof_C 	C 	0.7339	0.6448	0.7324	0.203
Mof_C 	C 	0.6728	0.64	0.731	-0.159
Mof_C 	C 	0.6416	0.6078	0.7618	0.06
Mof_H 	H 	0.5975	0.6064	0.7627	0.036
Mof_C 	C 	0.6768	0.5791	0.7901	-0.096
Mof_H 	H 	0.6567	0.5549	0.8085	0.088
Mof_C 	C 	0.7754	0.554	0.8272	0.278
Mof_C 	C 	0.6321	0.6729	0.6995	0.351
Mof_C 	C 	0.9327	0.3972	0.8069	-0.789
Mof_C 	C 	0.9957	0.4082	0.7985	0.72
Mof_C 	C 	0.0285	0.3778	0.7695	-0.643
Mof_H 	H 	0.071	0.3853	0.7641	0.259
Mof_C 	C 	0.0028	0.338	0.7484	0.464
Mof_C 	C 	0.9388	0.325	0.7579	-0.984
Mof_H 	H 	0.9199	0.2962	0.7448	0.397
Mof_C 	C 	0.9069	0.3548	0.7857	1.429
Mof_C 	C 	0.8942	0.4292	0.8368	0.568
Mof_C 	C 	0.0386	0.312	0.7121	0.152
Mof_N 	N 	0.7676	0.6743	0.7025	-0.343
Mof_H 	H 	0.7474	0.6886	0.6813	0.206
Mof_H 	H 	0.8073	0.6776	0.7042	0.194
Mof_N 	N 	0.026	0.4489	0.8151	0.279
Mof_H 	H 	0.0729	0.4612	0.8088	0.026
Mof_H 	H 	0.0141	0.4745	0.8368	0.037
Mof_H 	H 	0.872	0.3532	0.7932	-0.846
Mof_N 	N 	0.8416	0.3479	0.7951	0.287
Mof_H 	H 	0.8361	0.3621	0.822	0.097
Mof_H 	H 	0.8201	0.3201	0.7876	0.013
Mof_H 	H 	0.014	0.4409	0.8083	-0.482
Mof_Cd	Cd	0.33546	0.99939	0.8926	0.511
Mof_O 	O 	0.2478	0.0307	0.8563	-0.258
Mof_O 	O 	0.3332	0.051	0.8212	-0.261
Mof_O 	O 	0.0753	0.1583	0.6928	-0.236
Mof_O 	O 	0.1557	0.2073	0.6814	-0.312
Mof_O 	O 	0.336	0.9228	0.8382	-0.322
Mof_O 	O 	0.4207	0.9612	0.8618	-0.338
Mof_O 	O 	0.5157	0.7731	0.6966	-0.22
Mof_O 	O 	0.5856	0.8277	0.7002	-0.237
Mof_C 	C 	0.2392	0.084	0.7927	0.028
Mof_C 	C 	0.2681	0.1159	0.7649	-0.146
Mof_H 	H 	0.312	0.1195	0.7667	0.094
Mof_C 	C 	0.2339	0.1448	0.7324	0.202
Mof_C 	C 	0.1728	0.14	0.731	-0.16
Mof_C 	C 	0.1416	0.1078	0.7618	0.059
Mof_H 	H 	0.0975	0.1064	0.7627	0.034
Mof_C 	C 	0.1768	0.0791	0.7901	-0.095
Mof_H 	H 	0.1567	0.0549	0.8085	0.085
Mof_C 	C 	0.2754	0.054	0.8272	0.279
Mof_C 	C 	0.1321	0.1729	0.6995	0.351
Mof_C 	C 	0.4327	0.8972	0.8069	-0.786
Mof_C 	C 	0.4957	0.9082	0.7985	0.713
Mof_C 	C 	0.5285	0.8778	0.7695	-0.636
Mof_H 	H 	0.571	0.8853	0.7641	0.258
Mof_C 	C 	0.5028	0.838	0.7484	0.467
Mof_C 	C 	0.4388	0.825	0.7579	-0.986
Mof_H 	H 	0.4199	0.7962	0.7448	0.397
Mof_C 	C 	0.4069	0.8548	0.7857	1.423
Mof_C 	C 	0.3942	0.9292	0.8368	0.567
Mof_C 	C 	0.5386	0.812	0.7121	0.151
Mof_N 	N 	0.2676	0.1743	0.7025	-0.343
Mof_H 	H 	0.2474	0.1886	0.6813	0.206
Mof_H 	H 	0.3073	0.1776	0.7042	0.194
Mof_N 	N 	0.526	0.9489	0.8151	0.294
Mof_H 	H 	0.5729	0.9612	0.8088	0.026
Mof_H 	H 	0.5141	0.9745	0.8368	0.04
Mof_H 	H 	0.372	0.8532	0.7932	-0.841
Mof_N 	N 	0.3416	0.8479	0.7951	0.283
Mof_H 	H 	0.3361	0.8621	0.822	0.097
Mof_H 	H 	0.3201	0.8201	0.7876	0.014
Mof_H 	H 	0.514	0.9409	0.8083	-0.491
Mof_Cd	Cd	0.33546	0.49939	0.3926	0.502
Mof_O 	O 	0.2478	0.5307	0.3563	-0.252
Mof_O 	O 	0.3332	0.551	0.3212	-0.258
Mof_O 	O 	0.0753	0.6583	0.1928	-0.234
Mof_O 	O 	0.1557	0.7073	0.1814	-0.312
Mof_O 	O 	0.336	0.4228	0.3382	-0.323
Mof_O 	O 	0.4207	0.4612	0.3618	-0.341
Mof_O 	O 	0.5157	0.2731	0.1966	-0.22
Mof_O 	O 	0.5856	0.3277	0.2002	-0.238
Mof_C 	C 	0.2392	0.584	0.2927	0.031
Mof_C 	C 	0.2681	0.6159	0.2649	-0.147
Mof_H 	H 	0.312	0.6195	0.2667	0.094
Mof_C 	C 	0.2339	0.6448	0.2324	0.203
Mof_C 	C 	0.1728	0.64	0.231	-0.159
Mof_C 	C 	0.1416	0.6078	0.2618	0.061
Mof_H 	H 	0.0975	0.6064	0.2627	0.035
Mof_C 	C 	0.1768	0.5791	0.2901	-0.096
Mof_H 	H 	0.1567	0.5549	0.3085	0.088
Mof_C 	C 	0.2754	0.554	0.3272	0.279
Mof_C 	C 	0.1321	0.6729	0.1995	0.351
Mof_C 	C 	0.4327	0.3972	0.3069	-0.786
Mof_C 	C 	0.4957	0.4082	0.2985	0.712
Mof_C 	C 	0.5285	0.3778	0.2695	-0.635
Mof_H 	H 	0.571	0.3853	0.2641	0.257
Mof_C 	C 	0.5028	0.338	0.2484	0.468
Mof_C 	C 	0.4388	0.325	0.2579	-0.988
Mof_H 	H 	0.4199	0.2962	0.2448	0.397
Mof_C 	C 	0.4069	0.3548	0.2857	1.425
Mof_C 	C 	0.3942	0.4292	0.3368	0.567
Mof_C 	C 	0.5386	0.312	0.2121	0.151
Mof_N 	N 	0.2676	0.6743	0.2025	-0.344
Mof_H 	H 	0.2474	0.6886	0.1813	0.206
Mof_H 	H 	0.3073	0.6776	0.2042	0.194
Mof_N 	N 	0.526	0.4489	0.3151	0.292
Mof_H 	H 	0.5729	0.4612	0.3088	0.024
Mof_H 	H 	0.5141	0.4745	0.3368	0.037
Mof_H 	H 	0.372	0.3532	0.2932	-0.842
Mof_N 	N 	0.3416	0.3479	0.2951	0.283
Mof_H 	H 	0.3361	0.3621	0.322	0.098
Mof_H 	H 	0.3201	0.3201	0.2876	0.014
Mof_H 	H 	0.514	0.4409	0.3083	-0.489
_end
