data_functionalizedCrystal
_audit_creation_method	'EQeq! by Chris Wilmer'
_symmetry_space_group_name_H-M	'P1'
_symmetry_Int_Tables_number	1
_symmetry_cell_setting	triclinic
loop_
_symmetry_equiv_pos_as_xyz
  x,y,z
_cell_length_a	53.68
_cell_length_b	53.68
_cell_length_c	53.68
_cell_angle_alpha	90
_cell_angle_beta	90
_cell_angle_gamma	90
loop_
_atom_site_label
_atom_site_type_symbol
_atom_site_fract_x
_atom_site_fract_y
_atom_site_fract_z
_atom_site_charge
Mof_Zr	Zr	0.36217	0.40871	0.21244	3.174
Mof_Zr	Zr	0.33279	0.37957	0.16122	3.195
Mof_S 	S 	0.32049	0.43424	0.08554	0.041
Mof_O 	O 	0.3788	0.41471	0.12457	-0.637
Mof_O 	O 	0.33768	0.40663	0.12884	-0.685
Mof_O 	O 	0.28807	0.45769	0.04951	-0.777
Mof_O 	O 	0.3174	0.47566	0.02587	-0.663
Mof_O 	O 	0.29785	0.35911	0.17285	-0.689
Mof_O 	O 	0.30549	0.33958	0.20939	-0.648
Mof_O 	O 	0.32708	0.3626	0.24907	-0.662
Mof_O 	O 	0.33925	0.40284	0.24779	-0.78
Mof_O 	O 	0.37684	0.44537	0.19641	-0.78
Mof_O 	O 	0.40044	0.43558	0.16299	-0.679
Mof_O 	O 	0.36168	0.40157	0.1744	-1.499
Mof_O 	O 	0.33066	0.3834	0.20276	-1.145
Mof_C 	C 	0.35625	0.41657	0.11815	0.51
Mof_C 	C 	0.35056	0.43201	0.09619	-0.134
Mof_C 	C 	0.3666	0.44567	0.08208	0
Mof_H 	H 	0.3837	0.4466	0.0849	0.045
Mof_C 	C 	0.35384	0.45843	0.06235	0.022
Mof_H 	H 	0.3617	0.469	0.0511	0.036
Mof_C 	C 	0.3293	0.45354	0.06179	-0.16
Mof_C 	C 	0.31003	0.4633	0.04429	0.546
Mof_C 	C 	0.29284	0.34391	0.18993	0.517
Mof_C 	C 	0.26946	0.32945	0.18673	-0.142
Mof_C 	C 	0.2612	0.30944	0.19987	0.013
Mof_H 	H 	0.2695	0.3027	0.2135	0.041
Mof_C 	C 	0.32705	0.38468	0.25655	0.535
Mof_C 	C 	0.31055	0.39101	0.27822	-0.171
Mof_C 	C 	0.30704	0.41352	0.28857	0.003
Mof_H 	H 	0.3159	0.4276	0.284	-0.01
Mof_C 	C 	0.39047	0.45064	0.17816	0.536
Mof_C 	C 	0.39471	0.47727	0.17279	-0.153
Mof_C 	C 	0.4069	0.4868	0.1528	0.009
Mof_H 	H 	0.4144	0.4771	0.1405	0.041
Mof_O 	O 	0.31772	0.36107	0.12811	-0.663
Mof_S 	S 	0.26566	0.3212	0.0988	0.021
Mof_C 	C 	0.2437	0.3642	0.1033	-0.045
Mof_C 	C 	0.2827	0.3461	0.1093	-0.089
Mof_C 	C 	0.3089	0.3403	0.1221	0.433
Mof_C 	C 	0.2662	0.3679	0.1097	0.02
Mof_C 	C 	0.2394	0.3385	0.0948	-0.095
Mof_Zr	Zr	0.86217	0.90871	0.71244	3.174
Mof_Zr	Zr	0.83279	0.87957	0.66122	3.195
Mof_S 	S 	0.82049	0.93424	0.58554	0.041
Mof_O 	O 	0.8788	0.91471	0.62457	-0.637
Mof_O 	O 	0.83768	0.90663	0.62884	-0.685
Mof_O 	O 	0.78807	0.95769	0.54951	-0.777
Mof_O 	O 	0.8174	0.97566	0.52587	-0.663
Mof_O 	O 	0.79785	0.85911	0.67285	-0.689
Mof_O 	O 	0.80549	0.83958	0.70939	-0.648
Mof_O 	O 	0.82708	0.8626	0.74907	-0.662
Mof_O 	O 	0.83925	0.90284	0.74779	-0.78
Mof_O 	O 	0.87684	0.94537	0.69641	-0.78
Mof_O 	O 	0.90044	0.93558	0.66299	-0.679
Mof_O 	O 	0.86168	0.90157	0.6744	-1.499
Mof_O 	O 	0.83066	0.8834	0.70276	-1.145
Mof_C 	C 	0.85625	0.91657	0.61815	0.51
Mof_C 	C 	0.85056	0.93201	0.59619	-0.134
Mof_C 	C 	0.8666	0.94567	0.58208	0
Mof_H 	H 	0.8837	0.9466	0.5849	0.045
Mof_C 	C 	0.85384	0.95843	0.56235	0.022
Mof_H 	H 	0.8617	0.969	0.5511	0.036
Mof_C 	C 	0.8293	0.95354	0.56179	-0.16
Mof_C 	C 	0.81003	0.9633	0.54429	0.546
Mof_C 	C 	0.79284	0.84391	0.68993	0.517
Mof_C 	C 	0.76946	0.82945	0.68673	-0.142
Mof_C 	C 	0.7612	0.80944	0.69987	0.013
Mof_H 	H 	0.7695	0.8027	0.7135	0.041
Mof_C 	C 	0.82705	0.88468	0.75655	0.535
Mof_C 	C 	0.81055	0.89101	0.77822	-0.171
Mof_C 	C 	0.80704	0.91352	0.78857	0.003
Mof_H 	H 	0.8159	0.9276	0.784	-0.01
Mof_C 	C 	0.89047	0.95064	0.67816	0.536
Mof_C 	C 	0.89471	0.97727	0.67279	-0.153
Mof_C 	C 	0.9069	0.9868	0.6528	0.009
Mof_H 	H 	0.9144	0.9771	0.6405	0.041
Mof_O 	O 	0.81772	0.86107	0.62811	-0.663
Mof_S 	S 	0.76566	0.8212	0.5988	0.021
Mof_C 	C 	0.7437	0.8642	0.6033	-0.045
Mof_C 	C 	0.7827	0.8461	0.6093	-0.089
Mof_C 	C 	0.8089	0.8403	0.6221	0.433
Mof_C 	C 	0.7662	0.8679	0.6097	0.02
Mof_C 	C 	0.7394	0.8385	0.5948	-0.095
Mof_Zr	Zr	0.63783	0.59129	0.21244	3.174
Mof_Zr	Zr	0.66721	0.62043	0.16122	3.195
Mof_S 	S 	0.67951	0.56576	0.08554	0.041
Mof_O 	O 	0.6212	0.58529	0.12457	-0.637
Mof_O 	O 	0.66232	0.59337	0.12884	-0.685
Mof_O 	O 	0.71193	0.54231	0.04951	-0.777
Mof_O 	O 	0.6826	0.52434	0.02587	-0.663
Mof_O 	O 	0.70215	0.64089	0.17285	-0.689
Mof_O 	O 	0.69451	0.66042	0.20939	-0.648
Mof_O 	O 	0.67292	0.6374	0.24907	-0.662
Mof_O 	O 	0.66075	0.59716	0.24779	-0.78
Mof_O 	O 	0.62316	0.55463	0.19641	-0.78
Mof_O 	O 	0.59956	0.56442	0.16299	-0.679
Mof_O 	O 	0.63832	0.59843	0.1744	-1.499
Mof_O 	O 	0.66934	0.6166	0.20276	-1.145
Mof_C 	C 	0.64375	0.58343	0.11815	0.51
Mof_C 	C 	0.64944	0.56799	0.09619	-0.134
Mof_C 	C 	0.6334	0.55433	0.08208	0
Mof_H 	H 	0.6163	0.5534	0.0849	0.045
Mof_C 	C 	0.64616	0.54157	0.06235	0.022
Mof_H 	H 	0.6383	0.531	0.0511	0.036
Mof_C 	C 	0.6707	0.54646	0.06179	-0.16
Mof_C 	C 	0.68997	0.5367	0.04429	0.546
Mof_C 	C 	0.70716	0.65609	0.18993	0.517
Mof_C 	C 	0.73054	0.67055	0.18673	-0.142
Mof_C 	C 	0.7388	0.69056	0.19987	0.013
Mof_H 	H 	0.7305	0.6973	0.2135	0.041
Mof_C 	C 	0.67295	0.61532	0.25655	0.535
Mof_C 	C 	0.68945	0.60899	0.27822	-0.171
Mof_C 	C 	0.69296	0.58648	0.28857	0.003
Mof_H 	H 	0.6841	0.5724	0.284	-0.01
Mof_C 	C 	0.60953	0.54936	0.17816	0.536
Mof_C 	C 	0.60529	0.52273	0.17279	-0.153
Mof_C 	C 	0.5931	0.5132	0.1528	0.009
Mof_H 	H 	0.5856	0.5229	0.1405	0.041
Mof_O 	O 	0.68228	0.63893	0.12811	-0.663
Mof_S 	S 	0.73434	0.6788	0.0988	0.021
Mof_C 	C 	0.7563	0.6358	0.1033	-0.045
Mof_C 	C 	0.7173	0.6539	0.1093	-0.089
Mof_C 	C 	0.6911	0.6597	0.1221	0.433
Mof_C 	C 	0.7338	0.6321	0.1097	0.02
Mof_C 	C 	0.7606	0.6615	0.0948	-0.095
Mof_Zr	Zr	0.13783	0.09129	0.71244	3.174
Mof_Zr	Zr	0.16721	0.12043	0.66122	3.195
Mof_S 	S 	0.17951	0.06576	0.58554	0.041
Mof_O 	O 	0.1212	0.08529	0.62457	-0.637
Mof_O 	O 	0.16232	0.09337	0.62884	-0.685
Mof_O 	O 	0.21193	0.04231	0.54951	-0.777
Mof_O 	O 	0.1826	0.02434	0.52587	-0.663
Mof_O 	O 	0.20215	0.14089	0.67285	-0.689
Mof_O 	O 	0.19451	0.16042	0.70939	-0.648
Mof_O 	O 	0.17292	0.1374	0.74907	-0.662
Mof_O 	O 	0.16075	0.09716	0.74779	-0.78
Mof_O 	O 	0.12316	0.05463	0.69641	-0.78
Mof_O 	O 	0.09956	0.06442	0.66299	-0.679
Mof_O 	O 	0.13832	0.09843	0.6744	-1.499
Mof_O 	O 	0.16934	0.1166	0.70276	-1.145
Mof_C 	C 	0.14375	0.08343	0.61815	0.51
Mof_C 	C 	0.14944	0.06799	0.59619	-0.134
Mof_C 	C 	0.1334	0.05433	0.58208	0
Mof_H 	H 	0.1163	0.0534	0.5849	0.045
Mof_C 	C 	0.14616	0.04157	0.56235	0.022
Mof_H 	H 	0.1383	0.031	0.5511	0.036
Mof_C 	C 	0.1707	0.04646	0.56179	-0.16
Mof_C 	C 	0.18997	0.0367	0.54429	0.546
Mof_C 	C 	0.20716	0.15609	0.68993	0.517
Mof_C 	C 	0.23054	0.17055	0.68673	-0.142
Mof_C 	C 	0.2388	0.19056	0.69987	0.013
Mof_H 	H 	0.2305	0.1973	0.7135	0.041
Mof_C 	C 	0.17295	0.11532	0.75655	0.535
Mof_C 	C 	0.18945	0.10899	0.77822	-0.171
Mof_C 	C 	0.19296	0.08648	0.78857	0.003
Mof_H 	H 	0.1841	0.0724	0.784	-0.01
Mof_C 	C 	0.10953	0.04936	0.67816	0.536
Mof_C 	C 	0.10529	0.02273	0.67279	-0.153
Mof_C 	C 	0.0931	0.0132	0.6528	0.008
Mof_H 	H 	0.0856	0.0229	0.6405	0.041
Mof_O 	O 	0.18228	0.13893	0.62811	-0.663
Mof_S 	S 	0.23434	0.1788	0.5988	0.021
Mof_C 	C 	0.2563	0.1358	0.6033	-0.045
Mof_C 	C 	0.2173	0.1539	0.6093	-0.089
Mof_C 	C 	0.1911	0.1597	0.6221	0.434
Mof_C 	C 	0.2338	0.1321	0.6097	0.02
Mof_C 	C 	0.2606	0.1615	0.5948	-0.095
Mof_Zr	Zr	0.63783	0.40871	0.78756	3.174
Mof_Zr	Zr	0.66721	0.37957	0.83878	3.195
Mof_S 	S 	0.67951	0.43424	0.91446	0.041
Mof_O 	O 	0.6212	0.41471	0.87543	-0.637
Mof_O 	O 	0.66232	0.40663	0.87116	-0.685
Mof_O 	O 	0.71193	0.45769	0.95049	-0.777
Mof_O 	O 	0.6826	0.47566	0.97413	-0.663
Mof_O 	O 	0.70215	0.35911	0.82715	-0.689
Mof_O 	O 	0.69451	0.33958	0.79061	-0.648
Mof_O 	O 	0.67292	0.3626	0.75093	-0.662
Mof_O 	O 	0.66075	0.40284	0.75221	-0.78
Mof_O 	O 	0.62316	0.44537	0.80359	-0.78
Mof_O 	O 	0.59956	0.43558	0.83701	-0.679
Mof_O 	O 	0.63832	0.40157	0.8256	-1.499
Mof_O 	O 	0.66934	0.3834	0.79724	-1.145
Mof_C 	C 	0.64375	0.41657	0.88185	0.51
Mof_C 	C 	0.64944	0.43201	0.90381	-0.134
Mof_C 	C 	0.6334	0.44567	0.91792	0
Mof_H 	H 	0.6163	0.4466	0.9151	0.045
Mof_C 	C 	0.64616	0.45843	0.93765	0.022
Mof_H 	H 	0.6383	0.469	0.9489	0.036
Mof_C 	C 	0.6707	0.45354	0.93821	-0.16
Mof_C 	C 	0.68997	0.4633	0.95571	0.546
Mof_C 	C 	0.70716	0.34391	0.81007	0.517
Mof_C 	C 	0.73054	0.32945	0.81327	-0.142
Mof_C 	C 	0.7388	0.30944	0.80013	0.013
Mof_H 	H 	0.7305	0.3027	0.7865	0.041
Mof_C 	C 	0.67295	0.38468	0.74345	0.535
Mof_C 	C 	0.68945	0.39101	0.72178	-0.171
Mof_C 	C 	0.69296	0.41352	0.71143	0.003
Mof_H 	H 	0.6841	0.4276	0.716	-0.01
Mof_C 	C 	0.60953	0.45064	0.82184	0.536
Mof_C 	C 	0.60529	0.47727	0.82721	-0.153
Mof_C 	C 	0.5931	0.4868	0.8472	0.009
Mof_H 	H 	0.5856	0.4771	0.8595	0.041
Mof_O 	O 	0.68228	0.36107	0.87189	-0.663
Mof_S 	S 	0.73434	0.3212	0.9012	0.021
Mof_C 	C 	0.7563	0.3642	0.8967	-0.045
Mof_C 	C 	0.7173	0.3461	0.8907	-0.089
Mof_C 	C 	0.6911	0.3403	0.8779	0.434
Mof_C 	C 	0.7338	0.3679	0.8903	0.02
Mof_C 	C 	0.7606	0.3385	0.9052	-0.095
Mof_Zr	Zr	0.13783	0.90871	0.28756	3.174
Mof_Zr	Zr	0.16721	0.87957	0.33878	3.195
Mof_S 	S 	0.17951	0.93424	0.41446	0.041
Mof_O 	O 	0.1212	0.91471	0.37543	-0.637
Mof_O 	O 	0.16232	0.90663	0.37116	-0.685
Mof_O 	O 	0.21193	0.95769	0.45049	-0.777
Mof_O 	O 	0.1826	0.97566	0.47413	-0.663
Mof_O 	O 	0.20215	0.85911	0.32715	-0.689
Mof_O 	O 	0.19451	0.83958	0.29061	-0.648
Mof_O 	O 	0.17292	0.8626	0.25093	-0.662
Mof_O 	O 	0.16075	0.90284	0.25221	-0.78
Mof_O 	O 	0.12316	0.94537	0.30359	-0.78
Mof_O 	O 	0.09956	0.93558	0.33701	-0.679
Mof_O 	O 	0.13832	0.90157	0.3256	-1.499
Mof_O 	O 	0.16934	0.8834	0.29724	-1.145
Mof_C 	C 	0.14375	0.91657	0.38185	0.51
Mof_C 	C 	0.14944	0.93201	0.40381	-0.134
Mof_C 	C 	0.1334	0.94567	0.41792	0
Mof_H 	H 	0.1163	0.9466	0.4151	0.045
Mof_C 	C 	0.14616	0.95843	0.43765	0.022
Mof_H 	H 	0.1383	0.969	0.4489	0.036
Mof_C 	C 	0.1707	0.95354	0.43821	-0.16
Mof_C 	C 	0.18997	0.9633	0.45571	0.546
Mof_C 	C 	0.20716	0.84391	0.31007	0.517
Mof_C 	C 	0.23054	0.82945	0.31327	-0.142
Mof_C 	C 	0.2388	0.80944	0.30013	0.013
Mof_H 	H 	0.2305	0.8027	0.2865	0.041
Mof_C 	C 	0.17295	0.88468	0.24345	0.535
Mof_C 	C 	0.18945	0.89101	0.22178	-0.171
Mof_C 	C 	0.19296	0.91352	0.21143	0.003
Mof_H 	H 	0.1841	0.9276	0.216	-0.01
Mof_C 	C 	0.10953	0.95064	0.32184	0.536
Mof_C 	C 	0.10529	0.97727	0.32721	-0.153
Mof_C 	C 	0.0931	0.9868	0.3472	0.009
Mof_H 	H 	0.0856	0.9771	0.3595	0.041
Mof_O 	O 	0.18228	0.86107	0.37189	-0.663
Mof_S 	S 	0.23434	0.8212	0.4012	0.021
Mof_C 	C 	0.2563	0.8642	0.3967	-0.045
Mof_C 	C 	0.2173	0.8461	0.3907	-0.089
Mof_C 	C 	0.1911	0.8403	0.3779	0.434
Mof_C 	C 	0.2338	0.8679	0.3903	0.02
Mof_C 	C 	0.2606	0.8385	0.4052	-0.095
Mof_Zr	Zr	0.36217	0.59129	0.78756	3.173
Mof_Zr	Zr	0.33279	0.62043	0.83878	3.194
Mof_S 	S 	0.32049	0.56576	0.91446	0.04
Mof_O 	O 	0.3788	0.58529	0.87543	-0.638
Mof_O 	O 	0.33768	0.59337	0.87116	-0.686
Mof_O 	O 	0.28807	0.54231	0.95049	-0.778
Mof_O 	O 	0.3174	0.52434	0.97413	-0.664
Mof_O 	O 	0.29785	0.64089	0.82715	-0.69
Mof_O 	O 	0.30549	0.66042	0.79061	-0.649
Mof_O 	O 	0.32708	0.6374	0.75093	-0.663
Mof_O 	O 	0.33925	0.59716	0.75221	-0.781
Mof_O 	O 	0.37684	0.55463	0.80359	-0.781
Mof_O 	O 	0.40044	0.56442	0.83701	-0.68
Mof_O 	O 	0.36168	0.59843	0.8256	-1.5
Mof_O 	O 	0.33066	0.6166	0.79724	-1.146
Mof_C 	C 	0.35625	0.58343	0.88185	0.509
Mof_C 	C 	0.35056	0.56799	0.90381	-0.135
Mof_C 	C 	0.3666	0.55433	0.91792	-0.001
Mof_H 	H 	0.3837	0.5534	0.9151	0.044
Mof_C 	C 	0.35384	0.54157	0.93765	0.021
Mof_H 	H 	0.3617	0.531	0.9489	0.035
Mof_C 	C 	0.3293	0.54646	0.93821	-0.161
Mof_C 	C 	0.31003	0.5367	0.95571	0.545
Mof_C 	C 	0.29284	0.65609	0.81007	0.516
Mof_C 	C 	0.26946	0.67055	0.81327	-0.143
Mof_C 	C 	0.2612	0.69056	0.80013	0.012
Mof_H 	H 	0.2695	0.6973	0.7865	0.04
Mof_C 	C 	0.32705	0.61532	0.74345	0.534
Mof_C 	C 	0.31055	0.60899	0.72178	-0.172
Mof_C 	C 	0.30704	0.58648	0.71143	0.002
Mof_H 	H 	0.3159	0.5724	0.716	-0.011
Mof_C 	C 	0.39047	0.54936	0.82184	0.535
Mof_C 	C 	0.39471	0.52273	0.82721	-0.154
Mof_C 	C 	0.4069	0.5132	0.8472	0.008
Mof_H 	H 	0.4144	0.5229	0.8595	0.04
Mof_O 	O 	0.31772	0.63893	0.87189	-0.664
Mof_S 	S 	0.26566	0.6788	0.9012	0.02
Mof_C 	C 	0.2437	0.6358	0.8967	-0.046
Mof_C 	C 	0.2827	0.6539	0.8907	-0.09
Mof_C 	C 	0.3089	0.6597	0.8779	0.433
Mof_C 	C 	0.2662	0.6321	0.8903	0.019
Mof_C 	C 	0.2394	0.6615	0.9052	-0.096
Mof_Zr	Zr	0.86217	0.09129	0.28756	3.173
Mof_Zr	Zr	0.83279	0.12043	0.33878	3.194
Mof_S 	S 	0.82049	0.06576	0.41446	0.04
Mof_O 	O 	0.8788	0.08529	0.37543	-0.638
Mof_O 	O 	0.83768	0.09337	0.37116	-0.686
Mof_O 	O 	0.78807	0.04231	0.45049	-0.778
Mof_O 	O 	0.8174	0.02434	0.47413	-0.664
Mof_O 	O 	0.79785	0.14089	0.32715	-0.69
Mof_O 	O 	0.80549	0.16042	0.29061	-0.649
Mof_O 	O 	0.82708	0.1374	0.25093	-0.663
Mof_O 	O 	0.83925	0.09716	0.25221	-0.781
Mof_O 	O 	0.87684	0.05463	0.30359	-0.781
Mof_O 	O 	0.90044	0.06442	0.33701	-0.68
Mof_O 	O 	0.86168	0.09843	0.3256	-1.5
Mof_O 	O 	0.83066	0.1166	0.29724	-1.146
Mof_C 	C 	0.85625	0.08343	0.38185	0.509
Mof_C 	C 	0.85056	0.06799	0.40381	-0.135
Mof_C 	C 	0.8666	0.05433	0.41792	-0.001
Mof_H 	H 	0.8837	0.0534	0.4151	0.044
Mof_C 	C 	0.85384	0.04157	0.43765	0.021
Mof_H 	H 	0.8617	0.031	0.4489	0.035
Mof_C 	C 	0.8293	0.04646	0.43821	-0.161
Mof_C 	C 	0.81003	0.0367	0.45571	0.545
Mof_C 	C 	0.79284	0.15609	0.31007	0.516
Mof_C 	C 	0.76946	0.17055	0.31327	-0.143
Mof_C 	C 	0.7612	0.19056	0.30013	0.012
Mof_H 	H 	0.7695	0.1973	0.2865	0.04
Mof_C 	C 	0.82705	0.11532	0.24345	0.534
Mof_C 	C 	0.81055	0.10899	0.22178	-0.172
Mof_C 	C 	0.80704	0.08648	0.21143	0.002
Mof_H 	H 	0.8159	0.0724	0.216	-0.011
Mof_C 	C 	0.89047	0.04936	0.32184	0.535
Mof_C 	C 	0.89471	0.02273	0.32721	-0.154
Mof_C 	C 	0.9069	0.0132	0.3472	0.007
Mof_H 	H 	0.9144	0.0229	0.3595	0.04
Mof_O 	O 	0.81772	0.13893	0.37189	-0.664
Mof_S 	S 	0.76566	0.1788	0.4012	0.02
Mof_C 	C 	0.7437	0.1358	0.3967	-0.046
Mof_C 	C 	0.7827	0.1539	0.3907	-0.09
Mof_C 	C 	0.8089	0.1597	0.3779	0.433
Mof_C 	C 	0.7662	0.1321	0.3903	0.019
Mof_C 	C 	0.7394	0.1615	0.4052	-0.096
Mof_Zr	Zr	0.21244	0.36217	0.40871	3.173
Mof_Zr	Zr	0.16122	0.33279	0.37957	3.194
Mof_S 	S 	0.08554	0.32049	0.43424	0.04
Mof_O 	O 	0.12457	0.3788	0.41471	-0.638
Mof_O 	O 	0.12884	0.33768	0.40663	-0.686
Mof_O 	O 	0.04951	0.28807	0.45769	-0.778
Mof_O 	O 	0.02587	0.3174	0.47566	-0.664
Mof_O 	O 	0.17285	0.29785	0.35911	-0.69
Mof_O 	O 	0.20939	0.30549	0.33958	-0.649
Mof_O 	O 	0.24907	0.32708	0.3626	-0.663
Mof_O 	O 	0.24779	0.33925	0.40284	-0.781
Mof_O 	O 	0.19641	0.37684	0.44537	-0.781
Mof_O 	O 	0.16299	0.40044	0.43558	-0.68
Mof_O 	O 	0.1744	0.36168	0.40157	-1.5
Mof_O 	O 	0.20276	0.33066	0.3834	-1.146
Mof_C 	C 	0.11815	0.35625	0.41657	0.509
Mof_C 	C 	0.09619	0.35056	0.43201	-0.135
Mof_C 	C 	0.08208	0.3666	0.44567	-0.001
Mof_H 	H 	0.0849	0.3837	0.4466	0.044
Mof_C 	C 	0.06235	0.35384	0.45843	0.021
Mof_H 	H 	0.0511	0.3617	0.469	0.035
Mof_C 	C 	0.06179	0.3293	0.45354	-0.161
Mof_C 	C 	0.04429	0.31003	0.4633	0.545
Mof_C 	C 	0.18993	0.29284	0.34391	0.516
Mof_C 	C 	0.18673	0.26946	0.32945	-0.143
Mof_C 	C 	0.19987	0.2612	0.30944	0.012
Mof_H 	H 	0.2135	0.2695	0.3027	0.04
Mof_C 	C 	0.25655	0.32705	0.38468	0.534
Mof_C 	C 	0.27822	0.31055	0.39101	-0.172
Mof_C 	C 	0.28857	0.30704	0.41352	0.002
Mof_H 	H 	0.284	0.3159	0.4276	-0.011
Mof_C 	C 	0.17816	0.39047	0.45064	0.535
Mof_C 	C 	0.17279	0.39471	0.47727	-0.154
Mof_C 	C 	0.1528	0.4069	0.4868	0.008
Mof_H 	H 	0.1405	0.4144	0.4771	0.04
Mof_O 	O 	0.12811	0.31772	0.36107	-0.664
Mof_S 	S 	0.0988	0.26566	0.3212	0.02
Mof_C 	C 	0.1033	0.2437	0.3642	-0.046
Mof_C 	C 	0.1093	0.2827	0.3461	-0.09
Mof_C 	C 	0.1221	0.3089	0.3403	0.432
Mof_C 	C 	0.1097	0.2662	0.3679	0.019
Mof_C 	C 	0.0948	0.2394	0.3385	-0.096
Mof_Zr	Zr	0.71244	0.86217	0.90871	3.173
Mof_Zr	Zr	0.66122	0.83279	0.87957	3.194
Mof_S 	S 	0.58554	0.82049	0.93424	0.04
Mof_O 	O 	0.62457	0.8788	0.91471	-0.638
Mof_O 	O 	0.62884	0.83768	0.90663	-0.686
Mof_O 	O 	0.54951	0.78807	0.95769	-0.778
Mof_O 	O 	0.52587	0.8174	0.97566	-0.664
Mof_O 	O 	0.67285	0.79785	0.85911	-0.69
Mof_O 	O 	0.70939	0.80549	0.83958	-0.649
Mof_O 	O 	0.74907	0.82708	0.8626	-0.663
Mof_O 	O 	0.74779	0.83925	0.90284	-0.781
Mof_O 	O 	0.69641	0.87684	0.94537	-0.781
Mof_O 	O 	0.66299	0.90044	0.93558	-0.68
Mof_O 	O 	0.6744	0.86168	0.90157	-1.5
Mof_O 	O 	0.70276	0.83066	0.8834	-1.146
Mof_C 	C 	0.61815	0.85625	0.91657	0.509
Mof_C 	C 	0.59619	0.85056	0.93201	-0.135
Mof_C 	C 	0.58208	0.8666	0.94567	-0.001
Mof_H 	H 	0.5849	0.8837	0.9466	0.044
Mof_C 	C 	0.56235	0.85384	0.95843	0.021
Mof_H 	H 	0.5511	0.8617	0.969	0.035
Mof_C 	C 	0.56179	0.8293	0.95354	-0.161
Mof_C 	C 	0.54429	0.81003	0.9633	0.545
Mof_C 	C 	0.68993	0.79284	0.84391	0.516
Mof_C 	C 	0.68673	0.76946	0.82945	-0.143
Mof_C 	C 	0.69987	0.7612	0.80944	0.012
Mof_H 	H 	0.7135	0.7695	0.8027	0.04
Mof_C 	C 	0.75655	0.82705	0.88468	0.534
Mof_C 	C 	0.77822	0.81055	0.89101	-0.172
Mof_C 	C 	0.78857	0.80704	0.91352	0.002
Mof_H 	H 	0.784	0.8159	0.9276	-0.011
Mof_C 	C 	0.67816	0.89047	0.95064	0.535
Mof_C 	C 	0.67279	0.89471	0.97727	-0.154
Mof_C 	C 	0.6528	0.9069	0.9868	0.008
Mof_H 	H 	0.6405	0.9144	0.9771	0.04
Mof_O 	O 	0.62811	0.81772	0.86107	-0.664
Mof_S 	S 	0.5988	0.76566	0.8212	0.02
Mof_C 	C 	0.6033	0.7437	0.8642	-0.046
Mof_C 	C 	0.6093	0.7827	0.8461	-0.09
Mof_C 	C 	0.6221	0.8089	0.8403	0.432
Mof_C 	C 	0.6097	0.7662	0.8679	0.019
Mof_C 	C 	0.5948	0.7394	0.8385	-0.096
Mof_Zr	Zr	0.21244	0.63783	0.59129	3.173
Mof_Zr	Zr	0.16122	0.66721	0.62043	3.194
Mof_S 	S 	0.08554	0.67951	0.56576	0.04
Mof_O 	O 	0.12457	0.6212	0.58529	-0.638
Mof_O 	O 	0.12884	0.66232	0.59337	-0.686
Mof_O 	O 	0.04951	0.71193	0.54231	-0.778
Mof_O 	O 	0.02587	0.6826	0.52434	-0.664
Mof_O 	O 	0.17285	0.70215	0.64089	-0.69
Mof_O 	O 	0.20939	0.69451	0.66042	-0.649
Mof_O 	O 	0.24907	0.67292	0.6374	-0.663
Mof_O 	O 	0.24779	0.66075	0.59716	-0.781
Mof_O 	O 	0.19641	0.62316	0.55463	-0.781
Mof_O 	O 	0.16299	0.59956	0.56442	-0.68
Mof_O 	O 	0.1744	0.63832	0.59843	-1.5
Mof_O 	O 	0.20276	0.66934	0.6166	-1.146
Mof_C 	C 	0.11815	0.64375	0.58343	0.509
Mof_C 	C 	0.09619	0.64944	0.56799	-0.135
Mof_C 	C 	0.08208	0.6334	0.55433	-0.001
Mof_H 	H 	0.0849	0.6163	0.5534	0.044
Mof_C 	C 	0.06235	0.64616	0.54157	0.021
Mof_H 	H 	0.0511	0.6383	0.531	0.035
Mof_C 	C 	0.06179	0.6707	0.54646	-0.161
Mof_C 	C 	0.04429	0.68997	0.5367	0.545
Mof_C 	C 	0.18993	0.70716	0.65609	0.516
Mof_C 	C 	0.18673	0.73054	0.67055	-0.143
Mof_C 	C 	0.19987	0.7388	0.69056	0.012
Mof_H 	H 	0.2135	0.7305	0.6973	0.04
Mof_C 	C 	0.25655	0.67295	0.61532	0.534
Mof_C 	C 	0.27822	0.68945	0.60899	-0.172
Mof_C 	C 	0.28857	0.69296	0.58648	0.002
Mof_H 	H 	0.284	0.6841	0.5724	-0.011
Mof_C 	C 	0.17816	0.60953	0.54936	0.535
Mof_C 	C 	0.17279	0.60529	0.52273	-0.154
Mof_C 	C 	0.1528	0.5931	0.5132	0.008
Mof_H 	H 	0.1405	0.5856	0.5229	0.04
Mof_O 	O 	0.12811	0.68228	0.63893	-0.664
Mof_S 	S 	0.0988	0.73434	0.6788	0.02
Mof_C 	C 	0.1033	0.7563	0.6358	-0.046
Mof_C 	C 	0.1093	0.7173	0.6539	-0.09
Mof_C 	C 	0.1221	0.6911	0.6597	0.432
Mof_C 	C 	0.1097	0.7338	0.6321	0.019
Mof_C 	C 	0.0948	0.7606	0.6615	-0.096
Mof_Zr	Zr	0.71244	0.13783	0.09129	3.173
Mof_Zr	Zr	0.66122	0.16721	0.12043	3.194
Mof_S 	S 	0.58554	0.17951	0.06576	0.04
Mof_O 	O 	0.62457	0.1212	0.08529	-0.638
Mof_O 	O 	0.62884	0.16232	0.09337	-0.686
Mof_O 	O 	0.54951	0.21193	0.04231	-0.778
Mof_O 	O 	0.52587	0.1826	0.02434	-0.664
Mof_O 	O 	0.67285	0.20215	0.14089	-0.69
Mof_O 	O 	0.70939	0.19451	0.16042	-0.649
Mof_O 	O 	0.74907	0.17292	0.1374	-0.663
Mof_O 	O 	0.74779	0.16075	0.09716	-0.781
Mof_O 	O 	0.69641	0.12316	0.05463	-0.781
Mof_O 	O 	0.66299	0.09956	0.06442	-0.68
Mof_O 	O 	0.6744	0.13832	0.09843	-1.5
Mof_O 	O 	0.70276	0.16934	0.1166	-1.146
Mof_C 	C 	0.61815	0.14375	0.08343	0.509
Mof_C 	C 	0.59619	0.14944	0.06799	-0.135
Mof_C 	C 	0.58208	0.1334	0.05433	-0.001
Mof_H 	H 	0.5849	0.1163	0.0534	0.044
Mof_C 	C 	0.56235	0.14616	0.04157	0.021
Mof_H 	H 	0.5511	0.1383	0.031	0.035
Mof_C 	C 	0.56179	0.1707	0.04646	-0.161
Mof_C 	C 	0.54429	0.18997	0.0367	0.545
Mof_C 	C 	0.68993	0.20716	0.15609	0.516
Mof_C 	C 	0.68673	0.23054	0.17055	-0.143
Mof_C 	C 	0.69987	0.2388	0.19056	0.012
Mof_H 	H 	0.7135	0.2305	0.1973	0.04
Mof_C 	C 	0.75655	0.17295	0.11532	0.534
Mof_C 	C 	0.77822	0.18945	0.10899	-0.172
Mof_C 	C 	0.78857	0.19296	0.08648	0.002
Mof_H 	H 	0.784	0.1841	0.0724	-0.011
Mof_C 	C 	0.67816	0.10953	0.04936	0.535
Mof_C 	C 	0.67279	0.10529	0.02273	-0.154
Mof_C 	C 	0.6528	0.0931	0.0132	0.007
Mof_H 	H 	0.6405	0.0856	0.0229	0.04
Mof_O 	O 	0.62811	0.18228	0.13893	-0.664
Mof_S 	S 	0.5988	0.23434	0.1788	0.02
Mof_C 	C 	0.6033	0.2563	0.1358	-0.046
Mof_C 	C 	0.6093	0.2173	0.1539	-0.09
Mof_C 	C 	0.6221	0.1911	0.1597	0.433
Mof_C 	C 	0.6097	0.2338	0.1321	0.019
Mof_C 	C 	0.5948	0.2606	0.1615	-0.096
Mof_Zr	Zr	0.78756	0.63783	0.40871	3.173
Mof_Zr	Zr	0.83878	0.66721	0.37957	3.194
Mof_S 	S 	0.91446	0.67951	0.43424	0.04
Mof_O 	O 	0.87543	0.6212	0.41471	-0.638
Mof_O 	O 	0.87116	0.66232	0.40663	-0.686
Mof_O 	O 	0.95049	0.71193	0.45769	-0.778
Mof_O 	O 	0.97413	0.6826	0.47566	-0.664
Mof_O 	O 	0.82715	0.70215	0.35911	-0.69
Mof_O 	O 	0.79061	0.69451	0.33958	-0.649
Mof_O 	O 	0.75093	0.67292	0.3626	-0.663
Mof_O 	O 	0.75221	0.66075	0.40284	-0.781
Mof_O 	O 	0.80359	0.62316	0.44537	-0.781
Mof_O 	O 	0.83701	0.59956	0.43558	-0.68
Mof_O 	O 	0.8256	0.63832	0.40157	-1.5
Mof_O 	O 	0.79724	0.66934	0.3834	-1.146
Mof_C 	C 	0.88185	0.64375	0.41657	0.509
Mof_C 	C 	0.90381	0.64944	0.43201	-0.135
Mof_C 	C 	0.91792	0.6334	0.44567	-0.001
Mof_H 	H 	0.9151	0.6163	0.4466	0.044
Mof_C 	C 	0.93765	0.64616	0.45843	0.021
Mof_H 	H 	0.9489	0.6383	0.469	0.035
Mof_C 	C 	0.93821	0.6707	0.45354	-0.161
Mof_C 	C 	0.95571	0.68997	0.4633	0.545
Mof_C 	C 	0.81007	0.70716	0.34391	0.516
Mof_C 	C 	0.81327	0.73054	0.32945	-0.143
Mof_C 	C 	0.80013	0.7388	0.30944	0.012
Mof_H 	H 	0.7865	0.7305	0.3027	0.04
Mof_C 	C 	0.74345	0.67295	0.38468	0.534
Mof_C 	C 	0.72178	0.68945	0.39101	-0.172
Mof_C 	C 	0.71143	0.69296	0.41352	0.002
Mof_H 	H 	0.716	0.6841	0.4276	-0.011
Mof_C 	C 	0.82184	0.60953	0.45064	0.535
Mof_C 	C 	0.82721	0.60529	0.47727	-0.154
Mof_C 	C 	0.8472	0.5931	0.4868	0.008
Mof_H 	H 	0.8595	0.5856	0.4771	0.04
Mof_O 	O 	0.87189	0.68228	0.36107	-0.664
Mof_S 	S 	0.9012	0.73434	0.3212	0.02
Mof_C 	C 	0.8967	0.7563	0.3642	-0.046
Mof_C 	C 	0.8907	0.7173	0.3461	-0.09
Mof_C 	C 	0.8779	0.6911	0.3403	0.433
Mof_C 	C 	0.8903	0.7338	0.3679	0.019
Mof_C 	C 	0.9052	0.7606	0.3385	-0.096
Mof_Zr	Zr	0.28756	0.13783	0.90871	3.173
Mof_Zr	Zr	0.33878	0.16721	0.87957	3.194
Mof_S 	S 	0.41446	0.17951	0.93424	0.04
Mof_O 	O 	0.37543	0.1212	0.91471	-0.638
Mof_O 	O 	0.37116	0.16232	0.90663	-0.686
Mof_O 	O 	0.45049	0.21193	0.95769	-0.778
Mof_O 	O 	0.47413	0.1826	0.97566	-0.664
Mof_O 	O 	0.32715	0.20215	0.85911	-0.69
Mof_O 	O 	0.29061	0.19451	0.83958	-0.649
Mof_O 	O 	0.25093	0.17292	0.8626	-0.663
Mof_O 	O 	0.25221	0.16075	0.90284	-0.781
Mof_O 	O 	0.30359	0.12316	0.94537	-0.781
Mof_O 	O 	0.33701	0.09956	0.93558	-0.68
Mof_O 	O 	0.3256	0.13832	0.90157	-1.5
Mof_O 	O 	0.29724	0.16934	0.8834	-1.146
Mof_C 	C 	0.38185	0.14375	0.91657	0.509
Mof_C 	C 	0.40381	0.14944	0.93201	-0.135
Mof_C 	C 	0.41792	0.1334	0.94567	-0.001
Mof_H 	H 	0.4151	0.1163	0.9466	0.044
Mof_C 	C 	0.43765	0.14616	0.95843	0.021
Mof_H 	H 	0.4489	0.1383	0.969	0.035
Mof_C 	C 	0.43821	0.1707	0.95354	-0.161
Mof_C 	C 	0.45571	0.18997	0.9633	0.545
Mof_C 	C 	0.31007	0.20716	0.84391	0.516
Mof_C 	C 	0.31327	0.23054	0.82945	-0.143
Mof_C 	C 	0.30013	0.2388	0.80944	0.012
Mof_H 	H 	0.2865	0.2305	0.8027	0.04
Mof_C 	C 	0.24345	0.17295	0.88468	0.534
Mof_C 	C 	0.22178	0.18945	0.89101	-0.172
Mof_C 	C 	0.21143	0.19296	0.91352	0.002
Mof_H 	H 	0.216	0.1841	0.9276	-0.011
Mof_C 	C 	0.32184	0.10953	0.95064	0.535
Mof_C 	C 	0.32721	0.10529	0.97727	-0.154
Mof_C 	C 	0.3472	0.0931	0.9868	0.008
Mof_H 	H 	0.3595	0.0856	0.9771	0.04
Mof_O 	O 	0.37189	0.18228	0.86107	-0.664
Mof_S 	S 	0.4012	0.23434	0.8212	0.02
Mof_C 	C 	0.3967	0.2563	0.8642	-0.046
Mof_C 	C 	0.3907	0.2173	0.8461	-0.09
Mof_C 	C 	0.3779	0.1911	0.8403	0.433
Mof_C 	C 	0.3903	0.2338	0.8679	0.019
Mof_C 	C 	0.4052	0.2606	0.8385	-0.096
Mof_Zr	Zr	0.78756	0.36217	0.59129	3.173
Mof_Zr	Zr	0.83878	0.33279	0.62043	3.194
Mof_S 	S 	0.91446	0.32049	0.56576	0.04
Mof_O 	O 	0.87543	0.3788	0.58529	-0.638
Mof_O 	O 	0.87116	0.33768	0.59337	-0.686
Mof_O 	O 	0.95049	0.28807	0.54231	-0.778
Mof_O 	O 	0.97413	0.3174	0.52434	-0.664
Mof_O 	O 	0.82715	0.29785	0.64089	-0.69
Mof_O 	O 	0.79061	0.30549	0.66042	-0.649
Mof_O 	O 	0.75093	0.32708	0.6374	-0.663
Mof_O 	O 	0.75221	0.33925	0.59716	-0.781
Mof_O 	O 	0.80359	0.37684	0.55463	-0.781
Mof_O 	O 	0.83701	0.40044	0.56442	-0.68
Mof_O 	O 	0.8256	0.36168	0.59843	-1.5
Mof_O 	O 	0.79724	0.33066	0.6166	-1.146
Mof_C 	C 	0.88185	0.35625	0.58343	0.509
Mof_C 	C 	0.90381	0.35056	0.56799	-0.135
Mof_C 	C 	0.91792	0.3666	0.55433	-0.001
Mof_H 	H 	0.9151	0.3837	0.5534	0.044
Mof_C 	C 	0.93765	0.35384	0.54157	0.021
Mof_H 	H 	0.9489	0.3617	0.531	0.035
Mof_C 	C 	0.93821	0.3293	0.54646	-0.161
Mof_C 	C 	0.95571	0.31003	0.5367	0.545
Mof_C 	C 	0.81007	0.29284	0.65609	0.516
Mof_C 	C 	0.81327	0.26946	0.67055	-0.143
Mof_C 	C 	0.80013	0.2612	0.69056	0.012
Mof_H 	H 	0.7865	0.2695	0.6973	0.04
Mof_C 	C 	0.74345	0.32705	0.61532	0.534
Mof_C 	C 	0.72178	0.31055	0.60899	-0.172
Mof_C 	C 	0.71143	0.30704	0.58648	0.002
Mof_H 	H 	0.716	0.3159	0.5724	-0.011
Mof_C 	C 	0.82184	0.39047	0.54936	0.535
Mof_C 	C 	0.82721	0.39471	0.52273	-0.154
Mof_C 	C 	0.8472	0.4069	0.5132	0.008
Mof_H 	H 	0.8595	0.4144	0.5229	0.04
Mof_O 	O 	0.87189	0.31772	0.63893	-0.664
Mof_S 	S 	0.9012	0.26566	0.6788	0.02
Mof_C 	C 	0.8967	0.2437	0.6358	-0.046
Mof_C 	C 	0.8907	0.2827	0.6539	-0.09
Mof_C 	C 	0.8779	0.3089	0.6597	0.433
Mof_C 	C 	0.8903	0.2662	0.6321	0.019
Mof_C 	C 	0.9052	0.2394	0.6615	-0.096
Mof_Zr	Zr	0.28756	0.86217	0.09129	3.173
Mof_Zr	Zr	0.33878	0.83279	0.12043	3.194
Mof_S 	S 	0.41446	0.82049	0.06576	0.04
Mof_O 	O 	0.37543	0.8788	0.08529	-0.638
Mof_O 	O 	0.37116	0.83768	0.09337	-0.686
Mof_O 	O 	0.45049	0.78807	0.04231	-0.778
Mof_O 	O 	0.47413	0.8174	0.02434	-0.664
Mof_O 	O 	0.32715	0.79785	0.14089	-0.69
Mof_O 	O 	0.29061	0.80549	0.16042	-0.649
Mof_O 	O 	0.25093	0.82708	0.1374	-0.663
Mof_O 	O 	0.25221	0.83925	0.09716	-0.781
Mof_O 	O 	0.30359	0.87684	0.05463	-0.781
Mof_O 	O 	0.33701	0.90044	0.06442	-0.68
Mof_O 	O 	0.3256	0.86168	0.09843	-1.5
Mof_O 	O 	0.29724	0.83066	0.1166	-1.146
Mof_C 	C 	0.38185	0.85625	0.08343	0.509
Mof_C 	C 	0.40381	0.85056	0.06799	-0.135
Mof_C 	C 	0.41792	0.8666	0.05433	-0.001
Mof_H 	H 	0.4151	0.8837	0.0534	0.044
Mof_C 	C 	0.43765	0.85384	0.04157	0.021
Mof_H 	H 	0.4489	0.8617	0.031	0.035
Mof_C 	C 	0.43821	0.8293	0.04646	-0.161
Mof_C 	C 	0.45571	0.81003	0.0367	0.545
Mof_C 	C 	0.31007	0.79284	0.15609	0.516
Mof_C 	C 	0.31327	0.76946	0.17055	-0.143
Mof_C 	C 	0.30013	0.7612	0.19056	0.012
Mof_H 	H 	0.2865	0.7695	0.1973	0.04
Mof_C 	C 	0.24345	0.82705	0.11532	0.534
Mof_C 	C 	0.22178	0.81055	0.10899	-0.172
Mof_C 	C 	0.21143	0.80704	0.08648	0.002
Mof_H 	H 	0.216	0.8159	0.0724	-0.011
Mof_C 	C 	0.32184	0.89047	0.04936	0.535
Mof_C 	C 	0.32721	0.89471	0.02273	-0.154
Mof_C 	C 	0.3472	0.9069	0.0132	0.007
Mof_H 	H 	0.3595	0.9144	0.0229	0.04
Mof_O 	O 	0.37189	0.81772	0.13893	-0.664
Mof_S 	S 	0.4012	0.76566	0.1788	0.02
Mof_C 	C 	0.3967	0.7437	0.1358	-0.046
Mof_C 	C 	0.3907	0.7827	0.1539	-0.09
Mof_C 	C 	0.3779	0.8089	0.1597	0.433
Mof_C 	C 	0.3903	0.7662	0.1321	0.019
Mof_C 	C 	0.4052	0.7394	0.1615	-0.096
Mof_Zr	Zr	0.40871	0.21244	0.36217	3.173
Mof_Zr	Zr	0.37957	0.16122	0.33279	3.194
Mof_S 	S 	0.43424	0.08554	0.32049	0.04
Mof_O 	O 	0.41471	0.12457	0.3788	-0.638
Mof_O 	O 	0.40663	0.12884	0.33768	-0.686
Mof_O 	O 	0.45769	0.04951	0.28807	-0.778
Mof_O 	O 	0.47566	0.02587	0.3174	-0.664
Mof_O 	O 	0.35911	0.17285	0.29785	-0.69
Mof_O 	O 	0.33958	0.20939	0.30549	-0.649
Mof_O 	O 	0.3626	0.24907	0.32708	-0.663
Mof_O 	O 	0.40284	0.24779	0.33925	-0.781
Mof_O 	O 	0.44537	0.19641	0.37684	-0.781
Mof_O 	O 	0.43558	0.16299	0.40044	-0.68
Mof_O 	O 	0.40157	0.1744	0.36168	-1.5
Mof_O 	O 	0.3834	0.20276	0.33066	-1.146
Mof_C 	C 	0.41657	0.11815	0.35625	0.509
Mof_C 	C 	0.43201	0.09619	0.35056	-0.135
Mof_C 	C 	0.44567	0.08208	0.3666	-0.001
Mof_H 	H 	0.4466	0.0849	0.3837	0.044
Mof_C 	C 	0.45843	0.06235	0.35384	0.021
Mof_H 	H 	0.469	0.0511	0.3617	0.035
Mof_C 	C 	0.45354	0.06179	0.3293	-0.161
Mof_C 	C 	0.4633	0.04429	0.31003	0.545
Mof_C 	C 	0.34391	0.18993	0.29284	0.516
Mof_C 	C 	0.32945	0.18673	0.26946	-0.143
Mof_C 	C 	0.30944	0.19987	0.2612	0.012
Mof_H 	H 	0.3027	0.2135	0.2695	0.04
Mof_C 	C 	0.38468	0.25655	0.32705	0.534
Mof_C 	C 	0.39101	0.27822	0.31055	-0.172
Mof_C 	C 	0.41352	0.28857	0.30704	0.002
Mof_H 	H 	0.4276	0.284	0.3159	-0.011
Mof_C 	C 	0.45064	0.17816	0.39047	0.535
Mof_C 	C 	0.47727	0.17279	0.39471	-0.154
Mof_C 	C 	0.4868	0.1528	0.4069	0.008
Mof_H 	H 	0.4771	0.1405	0.4144	0.04
Mof_O 	O 	0.36107	0.12811	0.31772	-0.664
Mof_S 	S 	0.3212	0.0988	0.26566	0.02
Mof_C 	C 	0.3642	0.1033	0.2437	-0.046
Mof_C 	C 	0.3461	0.1093	0.2827	-0.09
Mof_C 	C 	0.3403	0.1221	0.3089	0.432
Mof_C 	C 	0.3679	0.1097	0.2662	0.019
Mof_C 	C 	0.3385	0.0948	0.2394	-0.096
Mof_Zr	Zr	0.90871	0.71244	0.86217	3.173
Mof_Zr	Zr	0.87957	0.66122	0.83279	3.194
Mof_S 	S 	0.93424	0.58554	0.82049	0.04
Mof_O 	O 	0.91471	0.62457	0.8788	-0.638
Mof_O 	O 	0.90663	0.62884	0.83768	-0.686
Mof_O 	O 	0.95769	0.54951	0.78807	-0.778
Mof_O 	O 	0.97566	0.52587	0.8174	-0.664
Mof_O 	O 	0.85911	0.67285	0.79785	-0.69
Mof_O 	O 	0.83958	0.70939	0.80549	-0.649
Mof_O 	O 	0.8626	0.74907	0.82708	-0.663
Mof_O 	O 	0.90284	0.74779	0.83925	-0.781
Mof_O 	O 	0.94537	0.69641	0.87684	-0.781
Mof_O 	O 	0.93558	0.66299	0.90044	-0.68
Mof_O 	O 	0.90157	0.6744	0.86168	-1.5
Mof_O 	O 	0.8834	0.70276	0.83066	-1.146
Mof_C 	C 	0.91657	0.61815	0.85625	0.509
Mof_C 	C 	0.93201	0.59619	0.85056	-0.135
Mof_C 	C 	0.94567	0.58208	0.8666	-0.001
Mof_H 	H 	0.9466	0.5849	0.8837	0.044
Mof_C 	C 	0.95843	0.56235	0.85384	0.021
Mof_H 	H 	0.969	0.5511	0.8617	0.035
Mof_C 	C 	0.95354	0.56179	0.8293	-0.161
Mof_C 	C 	0.9633	0.54429	0.81003	0.545
Mof_C 	C 	0.84391	0.68993	0.79284	0.516
Mof_C 	C 	0.82945	0.68673	0.76946	-0.143
Mof_C 	C 	0.80944	0.69987	0.7612	0.012
Mof_H 	H 	0.8027	0.7135	0.7695	0.04
Mof_C 	C 	0.88468	0.75655	0.82705	0.534
Mof_C 	C 	0.89101	0.77822	0.81055	-0.172
Mof_C 	C 	0.91352	0.78857	0.80704	0.002
Mof_H 	H 	0.9276	0.784	0.8159	-0.011
Mof_C 	C 	0.95064	0.67816	0.89047	0.535
Mof_C 	C 	0.97727	0.67279	0.89471	-0.154
Mof_C 	C 	0.9868	0.6528	0.9069	0.008
Mof_H 	H 	0.9771	0.6405	0.9144	0.04
Mof_O 	O 	0.86107	0.62811	0.81772	-0.664
Mof_S 	S 	0.8212	0.5988	0.76566	0.02
Mof_C 	C 	0.8642	0.6033	0.7437	-0.046
Mof_C 	C 	0.8461	0.6093	0.7827	-0.09
Mof_C 	C 	0.8403	0.6221	0.8089	0.432
Mof_C 	C 	0.8679	0.6097	0.7662	0.019
Mof_C 	C 	0.8385	0.5948	0.7394	-0.096
Mof_Zr	Zr	0.59129	0.21244	0.63783	3.173
Mof_Zr	Zr	0.62043	0.16122	0.66721	3.194
Mof_S 	S 	0.56576	0.08554	0.67951	0.04
Mof_O 	O 	0.58529	0.12457	0.6212	-0.638
Mof_O 	O 	0.59337	0.12884	0.66232	-0.686
Mof_O 	O 	0.54231	0.04951	0.71193	-0.778
Mof_O 	O 	0.52434	0.02587	0.6826	-0.664
Mof_O 	O 	0.64089	0.17285	0.70215	-0.69
Mof_O 	O 	0.66042	0.20939	0.69451	-0.649
Mof_O 	O 	0.6374	0.24907	0.67292	-0.663
Mof_O 	O 	0.59716	0.24779	0.66075	-0.781
Mof_O 	O 	0.55463	0.19641	0.62316	-0.781
Mof_O 	O 	0.56442	0.16299	0.59956	-0.68
Mof_O 	O 	0.59843	0.1744	0.63832	-1.5
Mof_O 	O 	0.6166	0.20276	0.66934	-1.146
Mof_C 	C 	0.58343	0.11815	0.64375	0.509
Mof_C 	C 	0.56799	0.09619	0.64944	-0.135
Mof_C 	C 	0.55433	0.08208	0.6334	-0.001
Mof_H 	H 	0.5534	0.0849	0.6163	0.044
Mof_C 	C 	0.54157	0.06235	0.64616	0.021
Mof_H 	H 	0.531	0.0511	0.6383	0.035
Mof_C 	C 	0.54646	0.06179	0.6707	-0.161
Mof_C 	C 	0.5367	0.04429	0.68997	0.545
Mof_C 	C 	0.65609	0.18993	0.70716	0.516
Mof_C 	C 	0.67055	0.18673	0.73054	-0.143
Mof_C 	C 	0.69056	0.19987	0.7388	0.012
Mof_H 	H 	0.6973	0.2135	0.7305	0.04
Mof_C 	C 	0.61532	0.25655	0.67295	0.534
Mof_C 	C 	0.60899	0.27822	0.68945	-0.172
Mof_C 	C 	0.58648	0.28857	0.69296	0.002
Mof_H 	H 	0.5724	0.284	0.6841	-0.011
Mof_C 	C 	0.54936	0.17816	0.60953	0.535
Mof_C 	C 	0.52273	0.17279	0.60529	-0.154
Mof_C 	C 	0.5132	0.1528	0.5931	0.008
Mof_H 	H 	0.5229	0.1405	0.5856	0.04
Mof_O 	O 	0.63893	0.12811	0.68228	-0.664
Mof_S 	S 	0.6788	0.0988	0.73434	0.02
Mof_C 	C 	0.6358	0.1033	0.7563	-0.046
Mof_C 	C 	0.6539	0.1093	0.7173	-0.09
Mof_C 	C 	0.6597	0.1221	0.6911	0.432
Mof_C 	C 	0.6321	0.1097	0.7338	0.019
Mof_C 	C 	0.6615	0.0948	0.7606	-0.096
Mof_Zr	Zr	0.09129	0.71244	0.13783	3.173
Mof_Zr	Zr	0.12043	0.66122	0.16721	3.194
Mof_S 	S 	0.06576	0.58554	0.17951	0.04
Mof_O 	O 	0.08529	0.62457	0.1212	-0.638
Mof_O 	O 	0.09337	0.62884	0.16232	-0.686
Mof_O 	O 	0.04231	0.54951	0.21193	-0.778
Mof_O 	O 	0.02434	0.52587	0.1826	-0.664
Mof_O 	O 	0.14089	0.67285	0.20215	-0.69
Mof_O 	O 	0.16042	0.70939	0.19451	-0.649
Mof_O 	O 	0.1374	0.74907	0.17292	-0.663
Mof_O 	O 	0.09716	0.74779	0.16075	-0.781
Mof_O 	O 	0.05463	0.69641	0.12316	-0.781
Mof_O 	O 	0.06442	0.66299	0.09956	-0.68
Mof_O 	O 	0.09843	0.6744	0.13832	-1.5
Mof_O 	O 	0.1166	0.70276	0.16934	-1.146
Mof_C 	C 	0.08343	0.61815	0.14375	0.509
Mof_C 	C 	0.06799	0.59619	0.14944	-0.135
Mof_C 	C 	0.05433	0.58208	0.1334	-0.001
Mof_H 	H 	0.0534	0.5849	0.1163	0.044
Mof_C 	C 	0.04157	0.56235	0.14616	0.021
Mof_H 	H 	0.031	0.5511	0.1383	0.035
Mof_C 	C 	0.04646	0.56179	0.1707	-0.161
Mof_C 	C 	0.0367	0.54429	0.18997	0.545
Mof_C 	C 	0.15609	0.68993	0.20716	0.516
Mof_C 	C 	0.17055	0.68673	0.23054	-0.143
Mof_C 	C 	0.19056	0.69987	0.2388	0.012
Mof_H 	H 	0.1973	0.7135	0.2305	0.04
Mof_C 	C 	0.11532	0.75655	0.17295	0.534
Mof_C 	C 	0.10899	0.77822	0.18945	-0.172
Mof_C 	C 	0.08648	0.78857	0.19296	0.002
Mof_H 	H 	0.0724	0.784	0.1841	-0.011
Mof_C 	C 	0.04936	0.67816	0.10953	0.535
Mof_C 	C 	0.02273	0.67279	0.10529	-0.154
Mof_C 	C 	0.0132	0.6528	0.0931	0.007
Mof_H 	H 	0.0229	0.6405	0.0856	0.04
Mof_O 	O 	0.13893	0.62811	0.18228	-0.664
Mof_S 	S 	0.1788	0.5988	0.23434	0.02
Mof_C 	C 	0.1358	0.6033	0.2563	-0.046
Mof_C 	C 	0.1539	0.6093	0.2173	-0.09
Mof_C 	C 	0.1597	0.6221	0.1911	0.433
Mof_C 	C 	0.1321	0.6097	0.2338	0.019
Mof_C 	C 	0.1615	0.5948	0.2606	-0.096
Mof_Zr	Zr	0.40871	0.78756	0.63783	3.173
Mof_Zr	Zr	0.37957	0.83878	0.66721	3.194
Mof_S 	S 	0.43424	0.91446	0.67951	0.04
Mof_O 	O 	0.41471	0.87543	0.6212	-0.638
Mof_O 	O 	0.40663	0.87116	0.66232	-0.686
Mof_O 	O 	0.45769	0.95049	0.71193	-0.778
Mof_O 	O 	0.47566	0.97413	0.6826	-0.664
Mof_O 	O 	0.35911	0.82715	0.70215	-0.69
Mof_O 	O 	0.33958	0.79061	0.69451	-0.649
Mof_O 	O 	0.3626	0.75093	0.67292	-0.663
Mof_O 	O 	0.40284	0.75221	0.66075	-0.781
Mof_O 	O 	0.44537	0.80359	0.62316	-0.781
Mof_O 	O 	0.43558	0.83701	0.59956	-0.68
Mof_O 	O 	0.40157	0.8256	0.63832	-1.5
Mof_O 	O 	0.3834	0.79724	0.66934	-1.146
Mof_C 	C 	0.41657	0.88185	0.64375	0.509
Mof_C 	C 	0.43201	0.90381	0.64944	-0.135
Mof_C 	C 	0.44567	0.91792	0.6334	-0.001
Mof_H 	H 	0.4466	0.9151	0.6163	0.044
Mof_C 	C 	0.45843	0.93765	0.64616	0.021
Mof_H 	H 	0.469	0.9489	0.6383	0.035
Mof_C 	C 	0.45354	0.93821	0.6707	-0.161
Mof_C 	C 	0.4633	0.95571	0.68997	0.545
Mof_C 	C 	0.34391	0.81007	0.70716	0.516
Mof_C 	C 	0.32945	0.81327	0.73054	-0.143
Mof_C 	C 	0.30944	0.80013	0.7388	0.012
Mof_H 	H 	0.3027	0.7865	0.7305	0.04
Mof_C 	C 	0.38468	0.74345	0.67295	0.534
Mof_C 	C 	0.39101	0.72178	0.68945	-0.172
Mof_C 	C 	0.41352	0.71143	0.69296	0.002
Mof_H 	H 	0.4276	0.716	0.6841	-0.011
Mof_C 	C 	0.45064	0.82184	0.60953	0.535
Mof_C 	C 	0.47727	0.82721	0.60529	-0.154
Mof_C 	C 	0.4868	0.8472	0.5931	0.008
Mof_H 	H 	0.4771	0.8595	0.5856	0.04
Mof_O 	O 	0.36107	0.87189	0.68228	-0.664
Mof_S 	S 	0.3212	0.9012	0.73434	0.02
Mof_C 	C 	0.3642	0.8967	0.7563	-0.046
Mof_C 	C 	0.3461	0.8907	0.7173	-0.09
Mof_C 	C 	0.3403	0.8779	0.6911	0.433
Mof_C 	C 	0.3679	0.8903	0.7338	0.019
Mof_C 	C 	0.3385	0.9052	0.7606	-0.096
Mof_Zr	Zr	0.90871	0.28756	0.13783	3.173
Mof_Zr	Zr	0.87957	0.33878	0.16721	3.194
Mof_S 	S 	0.93424	0.41446	0.17951	0.04
Mof_O 	O 	0.91471	0.37543	0.1212	-0.638
Mof_O 	O 	0.90663	0.37116	0.16232	-0.686
Mof_O 	O 	0.95769	0.45049	0.21193	-0.778
Mof_O 	O 	0.97566	0.47413	0.1826	-0.664
Mof_O 	O 	0.85911	0.32715	0.20215	-0.69
Mof_O 	O 	0.83958	0.29061	0.19451	-0.649
Mof_O 	O 	0.8626	0.25093	0.17292	-0.663
Mof_O 	O 	0.90284	0.25221	0.16075	-0.781
Mof_O 	O 	0.94537	0.30359	0.12316	-0.781
Mof_O 	O 	0.93558	0.33701	0.09956	-0.68
Mof_O 	O 	0.90157	0.3256	0.13832	-1.5
Mof_O 	O 	0.8834	0.29724	0.16934	-1.146
Mof_C 	C 	0.91657	0.38185	0.14375	0.509
Mof_C 	C 	0.93201	0.40381	0.14944	-0.135
Mof_C 	C 	0.94567	0.41792	0.1334	-0.001
Mof_H 	H 	0.9466	0.4151	0.1163	0.044
Mof_C 	C 	0.95843	0.43765	0.14616	0.021
Mof_H 	H 	0.969	0.4489	0.1383	0.035
Mof_C 	C 	0.95354	0.43821	0.1707	-0.161
Mof_C 	C 	0.9633	0.45571	0.18997	0.545
Mof_C 	C 	0.84391	0.31007	0.20716	0.516
Mof_C 	C 	0.82945	0.31327	0.23054	-0.143
Mof_C 	C 	0.80944	0.30013	0.2388	0.012
Mof_H 	H 	0.8027	0.2865	0.2305	0.04
Mof_C 	C 	0.88468	0.24345	0.17295	0.534
Mof_C 	C 	0.89101	0.22178	0.18945	-0.172
Mof_C 	C 	0.91352	0.21143	0.19296	0.002
Mof_H 	H 	0.9276	0.216	0.1841	-0.011
Mof_C 	C 	0.95064	0.32184	0.10953	0.535
Mof_C 	C 	0.97727	0.32721	0.10529	-0.154
Mof_C 	C 	0.9868	0.3472	0.0931	0.008
Mof_H 	H 	0.9771	0.3595	0.0856	0.04
Mof_O 	O 	0.86107	0.37189	0.18228	-0.664
Mof_S 	S 	0.8212	0.4012	0.23434	0.02
Mof_C 	C 	0.8642	0.3967	0.2563	-0.046
Mof_C 	C 	0.8461	0.3907	0.2173	-0.09
Mof_C 	C 	0.8403	0.3779	0.1911	0.433
Mof_C 	C 	0.8679	0.3903	0.2338	0.019
Mof_C 	C 	0.8385	0.4052	0.2606	-0.096
Mof_Zr	Zr	0.59129	0.78756	0.36217	3.173
Mof_Zr	Zr	0.62043	0.83878	0.33279	3.194
Mof_S 	S 	0.56576	0.91446	0.32049	0.04
Mof_O 	O 	0.58529	0.87543	0.3788	-0.638
Mof_O 	O 	0.59337	0.87116	0.33768	-0.686
Mof_O 	O 	0.54231	0.95049	0.28807	-0.778
Mof_O 	O 	0.52434	0.97413	0.3174	-0.664
Mof_O 	O 	0.64089	0.82715	0.29785	-0.69
Mof_O 	O 	0.66042	0.79061	0.30549	-0.649
Mof_O 	O 	0.6374	0.75093	0.32708	-0.663
Mof_O 	O 	0.59716	0.75221	0.33925	-0.781
Mof_O 	O 	0.55463	0.80359	0.37684	-0.781
Mof_O 	O 	0.56442	0.83701	0.40044	-0.68
Mof_O 	O 	0.59843	0.8256	0.36168	-1.5
Mof_O 	O 	0.6166	0.79724	0.33066	-1.146
Mof_C 	C 	0.58343	0.88185	0.35625	0.509
Mof_C 	C 	0.56799	0.90381	0.35056	-0.135
Mof_C 	C 	0.55433	0.91792	0.3666	-0.001
Mof_H 	H 	0.5534	0.9151	0.3837	0.044
Mof_C 	C 	0.54157	0.93765	0.35384	0.021
Mof_H 	H 	0.531	0.9489	0.3617	0.035
Mof_C 	C 	0.54646	0.93821	0.3293	-0.161
Mof_C 	C 	0.5367	0.95571	0.31003	0.545
Mof_C 	C 	0.65609	0.81007	0.29284	0.516
Mof_C 	C 	0.67055	0.81327	0.26946	-0.143
Mof_C 	C 	0.69056	0.80013	0.2612	0.012
Mof_H 	H 	0.6973	0.7865	0.2695	0.04
Mof_C 	C 	0.61532	0.74345	0.32705	0.534
Mof_C 	C 	0.60899	0.72178	0.31055	-0.172
Mof_C 	C 	0.58648	0.71143	0.30704	0.002
Mof_H 	H 	0.5724	0.716	0.3159	-0.011
Mof_C 	C 	0.54936	0.82184	0.39047	0.535
Mof_C 	C 	0.52273	0.82721	0.39471	-0.154
Mof_C 	C 	0.5132	0.8472	0.4069	0.008
Mof_H 	H 	0.5229	0.8595	0.4144	0.04
Mof_O 	O 	0.63893	0.87189	0.31772	-0.664
Mof_S 	S 	0.6788	0.9012	0.26566	0.02
Mof_C 	C 	0.6358	0.8967	0.2437	-0.046
Mof_C 	C 	0.6539	0.8907	0.2827	-0.09
Mof_C 	C 	0.6597	0.8779	0.3089	0.433
Mof_C 	C 	0.6321	0.8903	0.2662	0.019
Mof_C 	C 	0.6615	0.9052	0.2394	-0.096
Mof_Zr	Zr	0.09129	0.28756	0.86217	3.173
Mof_Zr	Zr	0.12043	0.33878	0.83279	3.194
Mof_S 	S 	0.06576	0.41446	0.82049	0.04
Mof_O 	O 	0.08529	0.37543	0.8788	-0.638
Mof_O 	O 	0.09337	0.37116	0.83768	-0.686
Mof_O 	O 	0.04231	0.45049	0.78807	-0.778
Mof_O 	O 	0.02434	0.47413	0.8174	-0.664
Mof_O 	O 	0.14089	0.32715	0.79785	-0.69
Mof_O 	O 	0.16042	0.29061	0.80549	-0.649
Mof_O 	O 	0.1374	0.25093	0.82708	-0.663
Mof_O 	O 	0.09716	0.25221	0.83925	-0.781
Mof_O 	O 	0.05463	0.30359	0.87684	-0.781
Mof_O 	O 	0.06442	0.33701	0.90044	-0.68
Mof_O 	O 	0.09843	0.3256	0.86168	-1.5
Mof_O 	O 	0.1166	0.29724	0.83066	-1.146
Mof_C 	C 	0.08343	0.38185	0.85625	0.509
Mof_C 	C 	0.06799	0.40381	0.85056	-0.135
Mof_C 	C 	0.05433	0.41792	0.8666	-0.001
Mof_H 	H 	0.0534	0.4151	0.8837	0.044
Mof_C 	C 	0.04157	0.43765	0.85384	0.021
Mof_H 	H 	0.031	0.4489	0.8617	0.035
Mof_C 	C 	0.04646	0.43821	0.8293	-0.161
Mof_C 	C 	0.0367	0.45571	0.81003	0.545
Mof_C 	C 	0.15609	0.31007	0.79284	0.516
Mof_C 	C 	0.17055	0.31327	0.76946	-0.143
Mof_C 	C 	0.19056	0.30013	0.7612	0.012
Mof_H 	H 	0.1973	0.2865	0.7695	0.04
Mof_C 	C 	0.11532	0.24345	0.82705	0.534
Mof_C 	C 	0.10899	0.22178	0.81055	-0.172
Mof_C 	C 	0.08648	0.21143	0.80704	0.002
Mof_H 	H 	0.0724	0.216	0.8159	-0.011
Mof_C 	C 	0.04936	0.32184	0.89047	0.535
Mof_C 	C 	0.02273	0.32721	0.89471	-0.154
Mof_C 	C 	0.0132	0.3472	0.9069	0.007
Mof_H 	H 	0.0229	0.3595	0.9144	0.04
Mof_O 	O 	0.13893	0.37189	0.81772	-0.664
Mof_S 	S 	0.1788	0.4012	0.76566	0.02
Mof_C 	C 	0.1358	0.3967	0.7437	-0.046
Mof_C 	C 	0.1539	0.3907	0.7827	-0.09
Mof_C 	C 	0.1597	0.3779	0.8089	0.433
Mof_C 	C 	0.1321	0.3903	0.7662	0.019
Mof_C 	C 	0.1615	0.4052	0.7394	-0.096
Mof_Zr	Zr	0.40871	0.36217	0.78756	3.173
Mof_Zr	Zr	0.37957	0.33279	0.83878	3.194
Mof_S 	S 	0.43424	0.32049	0.91446	0.04
Mof_O 	O 	0.41471	0.3788	0.87543	-0.638
Mof_O 	O 	0.40663	0.33768	0.87116	-0.686
Mof_O 	O 	0.45769	0.28807	0.95049	-0.778
Mof_O 	O 	0.47566	0.3174	0.97413	-0.664
Mof_O 	O 	0.35911	0.29785	0.82715	-0.69
Mof_O 	O 	0.33958	0.30549	0.79061	-0.649
Mof_O 	O 	0.3626	0.32708	0.75093	-0.663
Mof_O 	O 	0.40284	0.33925	0.75221	-0.781
Mof_O 	O 	0.44537	0.37684	0.80359	-0.781
Mof_O 	O 	0.43558	0.40044	0.83701	-0.68
Mof_O 	O 	0.40157	0.36168	0.8256	-1.5
Mof_O 	O 	0.3834	0.33066	0.79724	-1.146
Mof_C 	C 	0.41657	0.35625	0.88185	0.509
Mof_C 	C 	0.43201	0.35056	0.90381	-0.135
Mof_C 	C 	0.44567	0.3666	0.91792	-0.001
Mof_H 	H 	0.4466	0.3837	0.9151	0.044
Mof_C 	C 	0.45843	0.35384	0.93765	0.021
Mof_H 	H 	0.469	0.3617	0.9489	0.035
Mof_C 	C 	0.45354	0.3293	0.93821	-0.161
Mof_C 	C 	0.4633	0.31003	0.95571	0.545
Mof_C 	C 	0.34391	0.29284	0.81007	0.516
Mof_C 	C 	0.32945	0.26946	0.81327	-0.143
Mof_C 	C 	0.30944	0.2612	0.80013	0.012
Mof_H 	H 	0.3027	0.2695	0.7865	0.04
Mof_C 	C 	0.38468	0.32705	0.74345	0.534
Mof_C 	C 	0.39101	0.31055	0.72178	-0.172
Mof_C 	C 	0.41352	0.30704	0.71143	0.002
Mof_H 	H 	0.4276	0.3159	0.716	-0.011
Mof_C 	C 	0.45064	0.39047	0.82184	0.535
Mof_C 	C 	0.47727	0.39471	0.82721	-0.154
Mof_C 	C 	0.4868	0.4069	0.8472	0.008
Mof_H 	H 	0.4771	0.4144	0.8595	0.04
Mof_O 	O 	0.36107	0.31772	0.87189	-0.664
Mof_S 	S 	0.3212	0.26566	0.9012	0.02
Mof_C 	C 	0.3642	0.2437	0.8967	-0.046
Mof_C 	C 	0.3461	0.2827	0.8907	-0.09
Mof_C 	C 	0.3403	0.3089	0.8779	0.433
Mof_C 	C 	0.3679	0.2662	0.8903	0.019
Mof_C 	C 	0.3385	0.2394	0.9052	-0.096
Mof_Zr	Zr	0.90871	0.86217	0.28756	3.173
Mof_Zr	Zr	0.87957	0.83279	0.33878	3.194
Mof_S 	S 	0.93424	0.82049	0.41446	0.04
Mof_O 	O 	0.91471	0.8788	0.37543	-0.638
Mof_O 	O 	0.90663	0.83768	0.37116	-0.686
Mof_O 	O 	0.95769	0.78807	0.45049	-0.778
Mof_O 	O 	0.97566	0.8174	0.47413	-0.664
Mof_O 	O 	0.85911	0.79785	0.32715	-0.69
Mof_O 	O 	0.83958	0.80549	0.29061	-0.649
Mof_O 	O 	0.8626	0.82708	0.25093	-0.663
Mof_O 	O 	0.90284	0.83925	0.25221	-0.781
Mof_O 	O 	0.94537	0.87684	0.30359	-0.781
Mof_O 	O 	0.93558	0.90044	0.33701	-0.68
Mof_O 	O 	0.90157	0.86168	0.3256	-1.5
Mof_O 	O 	0.8834	0.83066	0.29724	-1.146
Mof_C 	C 	0.91657	0.85625	0.38185	0.509
Mof_C 	C 	0.93201	0.85056	0.40381	-0.135
Mof_C 	C 	0.94567	0.8666	0.41792	-0.001
Mof_H 	H 	0.9466	0.8837	0.4151	0.044
Mof_C 	C 	0.95843	0.85384	0.43765	0.021
Mof_H 	H 	0.969	0.8617	0.4489	0.035
Mof_C 	C 	0.95354	0.8293	0.43821	-0.161
Mof_C 	C 	0.9633	0.81003	0.45571	0.545
Mof_C 	C 	0.84391	0.79284	0.31007	0.516
Mof_C 	C 	0.82945	0.76946	0.31327	-0.143
Mof_C 	C 	0.80944	0.7612	0.30013	0.012
Mof_H 	H 	0.8027	0.7695	0.2865	0.04
Mof_C 	C 	0.88468	0.82705	0.24345	0.534
Mof_C 	C 	0.89101	0.81055	0.22178	-0.172
Mof_C 	C 	0.91352	0.80704	0.21143	0.002
Mof_H 	H 	0.9276	0.8159	0.216	-0.011
Mof_C 	C 	0.95064	0.89047	0.32184	0.535
Mof_C 	C 	0.97727	0.89471	0.32721	-0.154
Mof_C 	C 	0.9868	0.9069	0.3472	0.008
Mof_H 	H 	0.9771	0.9144	0.3595	0.04
Mof_O 	O 	0.86107	0.81772	0.37189	-0.664
Mof_S 	S 	0.8212	0.76566	0.4012	0.02
Mof_C 	C 	0.8642	0.7437	0.3967	-0.046
Mof_C 	C 	0.8461	0.7827	0.3907	-0.09
Mof_C 	C 	0.8403	0.8089	0.3779	0.432
Mof_C 	C 	0.8679	0.7662	0.3903	0.019
Mof_C 	C 	0.8385	0.7394	0.4052	-0.096
Mof_Zr	Zr	0.59129	0.63783	0.78756	3.173
Mof_Zr	Zr	0.62043	0.66721	0.83878	3.194
Mof_S 	S 	0.56576	0.67951	0.91446	0.04
Mof_O 	O 	0.58529	0.6212	0.87543	-0.638
Mof_O 	O 	0.59337	0.66232	0.87116	-0.686
Mof_O 	O 	0.54231	0.71193	0.95049	-0.778
Mof_O 	O 	0.52434	0.6826	0.97413	-0.664
Mof_O 	O 	0.64089	0.70215	0.82715	-0.69
Mof_O 	O 	0.66042	0.69451	0.79061	-0.649
Mof_O 	O 	0.6374	0.67292	0.75093	-0.663
Mof_O 	O 	0.59716	0.66075	0.75221	-0.781
Mof_O 	O 	0.55463	0.62316	0.80359	-0.781
Mof_O 	O 	0.56442	0.59956	0.83701	-0.68
Mof_O 	O 	0.59843	0.63832	0.8256	-1.5
Mof_O 	O 	0.6166	0.66934	0.79724	-1.146
Mof_C 	C 	0.58343	0.64375	0.88185	0.509
Mof_C 	C 	0.56799	0.64944	0.90381	-0.135
Mof_C 	C 	0.55433	0.6334	0.91792	-0.001
Mof_H 	H 	0.5534	0.6163	0.9151	0.044
Mof_C 	C 	0.54157	0.64616	0.93765	0.021
Mof_H 	H 	0.531	0.6383	0.9489	0.035
Mof_C 	C 	0.54646	0.6707	0.93821	-0.161
Mof_C 	C 	0.5367	0.68997	0.95571	0.545
Mof_C 	C 	0.65609	0.70716	0.81007	0.516
Mof_C 	C 	0.67055	0.73054	0.81327	-0.143
Mof_C 	C 	0.69056	0.7388	0.80013	0.012
Mof_H 	H 	0.6973	0.7305	0.7865	0.04
Mof_C 	C 	0.61532	0.67295	0.74345	0.534
Mof_C 	C 	0.60899	0.68945	0.72178	-0.172
Mof_C 	C 	0.58648	0.69296	0.71143	0.002
Mof_H 	H 	0.5724	0.6841	0.716	-0.011
Mof_C 	C 	0.54936	0.60953	0.82184	0.535
Mof_C 	C 	0.52273	0.60529	0.82721	-0.154
Mof_C 	C 	0.5132	0.5931	0.8472	0.008
Mof_H 	H 	0.5229	0.5856	0.8595	0.04
Mof_O 	O 	0.63893	0.68228	0.87189	-0.664
Mof_S 	S 	0.6788	0.73434	0.9012	0.02
Mof_C 	C 	0.6358	0.7563	0.8967	-0.046
Mof_C 	C 	0.6539	0.7173	0.8907	-0.09
Mof_C 	C 	0.6597	0.6911	0.8779	0.433
Mof_C 	C 	0.6321	0.7338	0.8903	0.019
Mof_C 	C 	0.6615	0.7606	0.9052	-0.096
Mof_Zr	Zr	0.09129	0.13783	0.28756	3.173
Mof_Zr	Zr	0.12043	0.16721	0.33878	3.194
Mof_S 	S 	0.06576	0.17951	0.41446	0.04
Mof_O 	O 	0.08529	0.1212	0.37543	-0.638
Mof_O 	O 	0.09337	0.16232	0.37116	-0.686
Mof_O 	O 	0.04231	0.21193	0.45049	-0.778
Mof_O 	O 	0.02434	0.1826	0.47413	-0.664
Mof_O 	O 	0.14089	0.20215	0.32715	-0.69
Mof_O 	O 	0.16042	0.19451	0.29061	-0.649
Mof_O 	O 	0.1374	0.17292	0.25093	-0.663
Mof_O 	O 	0.09716	0.16075	0.25221	-0.781
Mof_O 	O 	0.05463	0.12316	0.30359	-0.781
Mof_O 	O 	0.06442	0.09956	0.33701	-0.68
Mof_O 	O 	0.09843	0.13832	0.3256	-1.5
Mof_O 	O 	0.1166	0.16934	0.29724	-1.146
Mof_C 	C 	0.08343	0.14375	0.38185	0.509
Mof_C 	C 	0.06799	0.14944	0.40381	-0.135
Mof_C 	C 	0.05433	0.1334	0.41792	-0.001
Mof_H 	H 	0.0534	0.1163	0.4151	0.044
Mof_C 	C 	0.04157	0.14616	0.43765	0.021
Mof_H 	H 	0.031	0.1383	0.4489	0.035
Mof_C 	C 	0.04646	0.1707	0.43821	-0.161
Mof_C 	C 	0.0367	0.18997	0.45571	0.545
Mof_C 	C 	0.15609	0.20716	0.31007	0.516
Mof_C 	C 	0.17055	0.23054	0.31327	-0.143
Mof_C 	C 	0.19056	0.2388	0.30013	0.012
Mof_H 	H 	0.1973	0.2305	0.2865	0.04
Mof_C 	C 	0.11532	0.17295	0.24345	0.534
Mof_C 	C 	0.10899	0.18945	0.22178	-0.172
Mof_C 	C 	0.08648	0.19296	0.21143	0.002
Mof_H 	H 	0.0724	0.1841	0.216	-0.011
Mof_C 	C 	0.04936	0.10953	0.32184	0.535
Mof_C 	C 	0.02273	0.10529	0.32721	-0.154
Mof_C 	C 	0.0132	0.0931	0.3472	0.007
Mof_H 	H 	0.0229	0.0856	0.3595	0.04
Mof_O 	O 	0.13893	0.18228	0.37189	-0.664
Mof_S 	S 	0.1788	0.23434	0.4012	0.02
Mof_C 	C 	0.1358	0.2563	0.3967	-0.046
Mof_C 	C 	0.1539	0.2173	0.3907	-0.09
Mof_C 	C 	0.1597	0.1911	0.3779	0.433
Mof_C 	C 	0.1321	0.2338	0.3903	0.019
Mof_C 	C 	0.1615	0.2606	0.4052	-0.096
Mof_Zr	Zr	0.40871	0.63783	0.21244	3.173
Mof_Zr	Zr	0.37957	0.66721	0.16122	3.194
Mof_S 	S 	0.43424	0.67951	0.08554	0.04
Mof_O 	O 	0.41471	0.6212	0.12457	-0.638
Mof_O 	O 	0.40663	0.66232	0.12884	-0.686
Mof_O 	O 	0.45769	0.71193	0.04951	-0.778
Mof_O 	O 	0.47566	0.6826	0.02587	-0.664
Mof_O 	O 	0.35911	0.70215	0.17285	-0.69
Mof_O 	O 	0.33958	0.69451	0.20939	-0.649
Mof_O 	O 	0.3626	0.67292	0.24907	-0.663
Mof_O 	O 	0.40284	0.66075	0.24779	-0.781
Mof_O 	O 	0.44537	0.62316	0.19641	-0.781
Mof_O 	O 	0.43558	0.59956	0.16299	-0.68
Mof_O 	O 	0.40157	0.63832	0.1744	-1.5
Mof_O 	O 	0.3834	0.66934	0.20276	-1.146
Mof_C 	C 	0.41657	0.64375	0.11815	0.509
Mof_C 	C 	0.43201	0.64944	0.09619	-0.135
Mof_C 	C 	0.44567	0.6334	0.08208	-0.001
Mof_H 	H 	0.4466	0.6163	0.0849	0.044
Mof_C 	C 	0.45843	0.64616	0.06235	0.021
Mof_H 	H 	0.469	0.6383	0.0511	0.035
Mof_C 	C 	0.45354	0.6707	0.06179	-0.161
Mof_C 	C 	0.4633	0.68997	0.04429	0.545
Mof_C 	C 	0.34391	0.70716	0.18993	0.516
Mof_C 	C 	0.32945	0.73054	0.18673	-0.143
Mof_C 	C 	0.30944	0.7388	0.19987	0.012
Mof_H 	H 	0.3027	0.7305	0.2135	0.04
Mof_C 	C 	0.38468	0.67295	0.25655	0.534
Mof_C 	C 	0.39101	0.68945	0.27822	-0.172
Mof_C 	C 	0.41352	0.69296	0.28857	0.002
Mof_H 	H 	0.4276	0.6841	0.284	-0.011
Mof_C 	C 	0.45064	0.60953	0.17816	0.535
Mof_C 	C 	0.47727	0.60529	0.17279	-0.154
Mof_C 	C 	0.4868	0.5931	0.1528	0.008
Mof_H 	H 	0.4771	0.5856	0.1405	0.04
Mof_O 	O 	0.36107	0.68228	0.12811	-0.664
Mof_S 	S 	0.3212	0.73434	0.0988	0.02
Mof_C 	C 	0.3642	0.7563	0.1033	-0.046
Mof_C 	C 	0.3461	0.7173	0.1093	-0.09
Mof_C 	C 	0.3403	0.6911	0.1221	0.432
Mof_C 	C 	0.3679	0.7338	0.1097	0.019
Mof_C 	C 	0.3385	0.7606	0.0948	-0.096
Mof_Zr	Zr	0.90871	0.13783	0.71244	3.173
Mof_Zr	Zr	0.87957	0.16721	0.66122	3.194
Mof_S 	S 	0.93424	0.17951	0.58554	0.04
Mof_O 	O 	0.91471	0.1212	0.62457	-0.638
Mof_O 	O 	0.90663	0.16232	0.62884	-0.686
Mof_O 	O 	0.95769	0.21193	0.54951	-0.778
Mof_O 	O 	0.97566	0.1826	0.52587	-0.664
Mof_O 	O 	0.85911	0.20215	0.67285	-0.69
Mof_O 	O 	0.83958	0.19451	0.70939	-0.649
Mof_O 	O 	0.8626	0.17292	0.74907	-0.663
Mof_O 	O 	0.90284	0.16075	0.74779	-0.781
Mof_O 	O 	0.94537	0.12316	0.69641	-0.781
Mof_O 	O 	0.93558	0.09956	0.66299	-0.68
Mof_O 	O 	0.90157	0.13832	0.6744	-1.5
Mof_O 	O 	0.8834	0.16934	0.70276	-1.146
Mof_C 	C 	0.91657	0.14375	0.61815	0.509
Mof_C 	C 	0.93201	0.14944	0.59619	-0.135
Mof_C 	C 	0.94567	0.1334	0.58208	-0.001
Mof_H 	H 	0.9466	0.1163	0.5849	0.044
Mof_C 	C 	0.95843	0.14616	0.56235	0.021
Mof_H 	H 	0.969	0.1383	0.5511	0.035
Mof_C 	C 	0.95354	0.1707	0.56179	-0.161
Mof_C 	C 	0.9633	0.18997	0.54429	0.545
Mof_C 	C 	0.84391	0.20716	0.68993	0.516
Mof_C 	C 	0.82945	0.23054	0.68673	-0.143
Mof_C 	C 	0.80944	0.2388	0.69987	0.012
Mof_H 	H 	0.8027	0.2305	0.7135	0.04
Mof_C 	C 	0.88468	0.17295	0.75655	0.534
Mof_C 	C 	0.89101	0.18945	0.77822	-0.172
Mof_C 	C 	0.91352	0.19296	0.78857	0.002
Mof_H 	H 	0.9276	0.1841	0.784	-0.011
Mof_C 	C 	0.95064	0.10953	0.67816	0.535
Mof_C 	C 	0.97727	0.10529	0.67279	-0.154
Mof_C 	C 	0.9868	0.0931	0.6528	0.008
Mof_H 	H 	0.9771	0.0856	0.6405	0.04
Mof_O 	O 	0.86107	0.18228	0.62811	-0.664
Mof_S 	S 	0.8212	0.23434	0.5988	0.02
Mof_C 	C 	0.8642	0.2563	0.6033	-0.046
Mof_C 	C 	0.8461	0.2173	0.6093	-0.09
Mof_C 	C 	0.8403	0.1911	0.6221	0.433
Mof_C 	C 	0.8679	0.2338	0.6097	0.019
Mof_C 	C 	0.8385	0.2606	0.5948	-0.096
Mof_Zr	Zr	0.59129	0.36217	0.21244	3.173
Mof_Zr	Zr	0.62043	0.33279	0.16122	3.194
Mof_S 	S 	0.56576	0.32049	0.08554	0.04
Mof_O 	O 	0.58529	0.3788	0.12457	-0.638
Mof_O 	O 	0.59337	0.33768	0.12884	-0.686
Mof_O 	O 	0.54231	0.28807	0.04951	-0.778
Mof_O 	O 	0.52434	0.3174	0.02587	-0.664
Mof_O 	O 	0.64089	0.29785	0.17285	-0.69
Mof_O 	O 	0.66042	0.30549	0.20939	-0.649
Mof_O 	O 	0.6374	0.32708	0.24907	-0.663
Mof_O 	O 	0.59716	0.33925	0.24779	-0.781
Mof_O 	O 	0.55463	0.37684	0.19641	-0.781
Mof_O 	O 	0.56442	0.40044	0.16299	-0.68
Mof_O 	O 	0.59843	0.36168	0.1744	-1.5
Mof_O 	O 	0.6166	0.33066	0.20276	-1.146
Mof_C 	C 	0.58343	0.35625	0.11815	0.509
Mof_C 	C 	0.56799	0.35056	0.09619	-0.135
Mof_C 	C 	0.55433	0.3666	0.08208	-0.001
Mof_H 	H 	0.5534	0.3837	0.0849	0.044
Mof_C 	C 	0.54157	0.35384	0.06235	0.021
Mof_H 	H 	0.531	0.3617	0.0511	0.035
Mof_C 	C 	0.54646	0.3293	0.06179	-0.161
Mof_C 	C 	0.5367	0.31003	0.04429	0.545
Mof_C 	C 	0.65609	0.29284	0.18993	0.516
Mof_C 	C 	0.67055	0.26946	0.18673	-0.143
Mof_C 	C 	0.69056	0.2612	0.19987	0.012
Mof_H 	H 	0.6973	0.2695	0.2135	0.04
Mof_C 	C 	0.61532	0.32705	0.25655	0.534
Mof_C 	C 	0.60899	0.31055	0.27822	-0.172
Mof_C 	C 	0.58648	0.30704	0.28857	0.002
Mof_H 	H 	0.5724	0.3159	0.284	-0.011
Mof_C 	C 	0.54936	0.39047	0.17816	0.535
Mof_C 	C 	0.52273	0.39471	0.17279	-0.154
Mof_C 	C 	0.5132	0.4069	0.1528	0.008
Mof_H 	H 	0.5229	0.4144	0.1405	0.04
Mof_O 	O 	0.63893	0.31772	0.12811	-0.664
Mof_S 	S 	0.6788	0.26566	0.0988	0.02
Mof_C 	C 	0.6358	0.2437	0.1033	-0.046
Mof_C 	C 	0.6539	0.2827	0.1093	-0.09
Mof_C 	C 	0.6597	0.3089	0.1221	0.432
Mof_C 	C 	0.6321	0.2662	0.1097	0.019
Mof_C 	C 	0.6615	0.2394	0.0948	-0.096
Mof_Zr	Zr	0.09129	0.86217	0.71244	3.173
Mof_Zr	Zr	0.12043	0.83279	0.66122	3.194
Mof_S 	S 	0.06576	0.82049	0.58554	0.04
Mof_O 	O 	0.08529	0.8788	0.62457	-0.638
Mof_O 	O 	0.09337	0.83768	0.62884	-0.686
Mof_O 	O 	0.04231	0.78807	0.54951	-0.778
Mof_O 	O 	0.02434	0.8174	0.52587	-0.664
Mof_O 	O 	0.14089	0.79785	0.67285	-0.69
Mof_O 	O 	0.16042	0.80549	0.70939	-0.649
Mof_O 	O 	0.1374	0.82708	0.74907	-0.663
Mof_O 	O 	0.09716	0.83925	0.74779	-0.781
Mof_O 	O 	0.05463	0.87684	0.69641	-0.781
Mof_O 	O 	0.06442	0.90044	0.66299	-0.68
Mof_O 	O 	0.09843	0.86168	0.6744	-1.5
Mof_O 	O 	0.1166	0.83066	0.70276	-1.146
Mof_C 	C 	0.08343	0.85625	0.61815	0.509
Mof_C 	C 	0.06799	0.85056	0.59619	-0.135
Mof_C 	C 	0.05433	0.8666	0.58208	-0.001
Mof_H 	H 	0.0534	0.8837	0.5849	0.044
Mof_C 	C 	0.04157	0.85384	0.56235	0.021
Mof_H 	H 	0.031	0.8617	0.5511	0.035
Mof_C 	C 	0.04646	0.8293	0.56179	-0.161
Mof_C 	C 	0.0367	0.81003	0.54429	0.545
Mof_C 	C 	0.15609	0.79284	0.68993	0.516
Mof_C 	C 	0.17055	0.76946	0.68673	-0.143
Mof_C 	C 	0.19056	0.7612	0.69987	0.012
Mof_H 	H 	0.1973	0.7695	0.7135	0.04
Mof_C 	C 	0.11532	0.82705	0.75655	0.534
Mof_C 	C 	0.10899	0.81055	0.77822	-0.172
Mof_C 	C 	0.08648	0.80704	0.78857	0.002
Mof_H 	H 	0.0724	0.8159	0.784	-0.011
Mof_C 	C 	0.04936	0.89047	0.67816	0.535
Mof_C 	C 	0.02273	0.89471	0.67279	-0.154
Mof_C 	C 	0.0132	0.9069	0.6528	0.007
Mof_H 	H 	0.0229	0.9144	0.6405	0.04
Mof_O 	O 	0.13893	0.81772	0.62811	-0.664
Mof_S 	S 	0.1788	0.76566	0.5988	0.02
Mof_C 	C 	0.1358	0.7437	0.6033	-0.046
Mof_C 	C 	0.1539	0.7827	0.6093	-0.09
Mof_C 	C 	0.1597	0.8089	0.6221	0.433
Mof_C 	C 	0.1321	0.7662	0.6097	0.019
Mof_C 	C 	0.1615	0.7394	0.5948	-0.096
Mof_Zr	Zr	0.36217	0.21244	0.59129	3.173
Mof_Zr	Zr	0.33279	0.16122	0.62043	3.194
Mof_S 	S 	0.32049	0.08554	0.56576	0.04
Mof_O 	O 	0.3788	0.12457	0.58529	-0.638
Mof_O 	O 	0.33768	0.12884	0.59337	-0.686
Mof_O 	O 	0.28807	0.04951	0.54231	-0.778
Mof_O 	O 	0.3174	0.02587	0.52434	-0.664
Mof_O 	O 	0.29785	0.17285	0.64089	-0.69
Mof_O 	O 	0.30549	0.20939	0.66042	-0.649
Mof_O 	O 	0.32708	0.24907	0.6374	-0.663
Mof_O 	O 	0.33925	0.24779	0.59716	-0.781
Mof_O 	O 	0.37684	0.19641	0.55463	-0.781
Mof_O 	O 	0.40044	0.16299	0.56442	-0.68
Mof_O 	O 	0.36168	0.1744	0.59843	-1.5
Mof_O 	O 	0.33066	0.20276	0.6166	-1.146
Mof_C 	C 	0.35625	0.11815	0.58343	0.509
Mof_C 	C 	0.35056	0.09619	0.56799	-0.135
Mof_C 	C 	0.3666	0.08208	0.55433	-0.001
Mof_H 	H 	0.3837	0.0849	0.5534	0.044
Mof_C 	C 	0.35384	0.06235	0.54157	0.021
Mof_H 	H 	0.3617	0.0511	0.531	0.035
Mof_C 	C 	0.3293	0.06179	0.54646	-0.161
Mof_C 	C 	0.31003	0.04429	0.5367	0.545
Mof_C 	C 	0.29284	0.18993	0.65609	0.516
Mof_C 	C 	0.26946	0.18673	0.67055	-0.143
Mof_C 	C 	0.2612	0.19987	0.69056	0.012
Mof_H 	H 	0.2695	0.2135	0.6973	0.04
Mof_C 	C 	0.32705	0.25655	0.61532	0.534
Mof_C 	C 	0.31055	0.27822	0.60899	-0.172
Mof_C 	C 	0.30704	0.28857	0.58648	0.002
Mof_H 	H 	0.3159	0.284	0.5724	-0.011
Mof_C 	C 	0.39047	0.17816	0.54936	0.535
Mof_C 	C 	0.39471	0.17279	0.52273	-0.154
Mof_C 	C 	0.4069	0.1528	0.5132	0.008
Mof_H 	H 	0.4144	0.1405	0.5229	0.04
Mof_O 	O 	0.31772	0.12811	0.63893	-0.664
Mof_S 	S 	0.26566	0.0988	0.6788	0.02
Mof_C 	C 	0.2437	0.1033	0.6358	-0.046
Mof_C 	C 	0.2827	0.1093	0.6539	-0.09
Mof_C 	C 	0.3089	0.1221	0.6597	0.432
Mof_C 	C 	0.2662	0.1097	0.6321	0.019
Mof_C 	C 	0.2394	0.0948	0.6615	-0.096
Mof_Zr	Zr	0.86217	0.71244	0.09129	3.173
Mof_Zr	Zr	0.83279	0.66122	0.12043	3.194
Mof_S 	S 	0.82049	0.58554	0.06576	0.04
Mof_O 	O 	0.8788	0.62457	0.08529	-0.638
Mof_O 	O 	0.83768	0.62884	0.09337	-0.686
Mof_O 	O 	0.78807	0.54951	0.04231	-0.778
Mof_O 	O 	0.8174	0.52587	0.02434	-0.664
Mof_O 	O 	0.79785	0.67285	0.14089	-0.69
Mof_O 	O 	0.80549	0.70939	0.16042	-0.649
Mof_O 	O 	0.82708	0.74907	0.1374	-0.663
Mof_O 	O 	0.83925	0.74779	0.09716	-0.781
Mof_O 	O 	0.87684	0.69641	0.05463	-0.781
Mof_O 	O 	0.90044	0.66299	0.06442	-0.68
Mof_O 	O 	0.86168	0.6744	0.09843	-1.5
Mof_O 	O 	0.83066	0.70276	0.1166	-1.146
Mof_C 	C 	0.85625	0.61815	0.08343	0.509
Mof_C 	C 	0.85056	0.59619	0.06799	-0.135
Mof_C 	C 	0.8666	0.58208	0.05433	-0.001
Mof_H 	H 	0.8837	0.5849	0.0534	0.044
Mof_C 	C 	0.85384	0.56235	0.04157	0.021
Mof_H 	H 	0.8617	0.5511	0.031	0.035
Mof_C 	C 	0.8293	0.56179	0.04646	-0.161
Mof_C 	C 	0.81003	0.54429	0.0367	0.545
Mof_C 	C 	0.79284	0.68993	0.15609	0.516
Mof_C 	C 	0.76946	0.68673	0.17055	-0.143
Mof_C 	C 	0.7612	0.69987	0.19056	0.012
Mof_H 	H 	0.7695	0.7135	0.1973	0.04
Mof_C 	C 	0.82705	0.75655	0.11532	0.534
Mof_C 	C 	0.81055	0.77822	0.10899	-0.172
Mof_C 	C 	0.80704	0.78857	0.08648	0.002
Mof_H 	H 	0.8159	0.784	0.0724	-0.011
Mof_C 	C 	0.89047	0.67816	0.04936	0.535
Mof_C 	C 	0.89471	0.67279	0.02273	-0.154
Mof_C 	C 	0.9069	0.6528	0.0132	0.007
Mof_H 	H 	0.9144	0.6405	0.0229	0.04
Mof_O 	O 	0.81772	0.62811	0.13893	-0.664
Mof_S 	S 	0.76566	0.5988	0.1788	0.02
Mof_C 	C 	0.7437	0.6033	0.1358	-0.046
Mof_C 	C 	0.7827	0.6093	0.1539	-0.09
Mof_C 	C 	0.8089	0.6221	0.1597	0.433
Mof_C 	C 	0.7662	0.6097	0.1321	0.019
Mof_C 	C 	0.7394	0.5948	0.1615	-0.096
Mof_Zr	Zr	0.63783	0.21244	0.40871	3.173
Mof_Zr	Zr	0.66721	0.16122	0.37957	3.194
Mof_S 	S 	0.67951	0.08554	0.43424	0.04
Mof_O 	O 	0.6212	0.12457	0.41471	-0.638
Mof_O 	O 	0.66232	0.12884	0.40663	-0.686
Mof_O 	O 	0.71193	0.04951	0.45769	-0.778
Mof_O 	O 	0.6826	0.02587	0.47566	-0.664
Mof_O 	O 	0.70215	0.17285	0.35911	-0.69
Mof_O 	O 	0.69451	0.20939	0.33958	-0.649
Mof_O 	O 	0.67292	0.24907	0.3626	-0.663
Mof_O 	O 	0.66075	0.24779	0.40284	-0.781
Mof_O 	O 	0.62316	0.19641	0.44537	-0.781
Mof_O 	O 	0.59956	0.16299	0.43558	-0.68
Mof_O 	O 	0.63832	0.1744	0.40157	-1.5
Mof_O 	O 	0.66934	0.20276	0.3834	-1.146
Mof_C 	C 	0.64375	0.11815	0.41657	0.509
Mof_C 	C 	0.64944	0.09619	0.43201	-0.135
Mof_C 	C 	0.6334	0.08208	0.44567	-0.001
Mof_H 	H 	0.6163	0.0849	0.4466	0.044
Mof_C 	C 	0.64616	0.06235	0.45843	0.021
Mof_H 	H 	0.6383	0.0511	0.469	0.035
Mof_C 	C 	0.6707	0.06179	0.45354	-0.161
Mof_C 	C 	0.68997	0.04429	0.4633	0.545
Mof_C 	C 	0.70716	0.18993	0.34391	0.516
Mof_C 	C 	0.73054	0.18673	0.32945	-0.143
Mof_C 	C 	0.7388	0.19987	0.30944	0.012
Mof_H 	H 	0.7305	0.2135	0.3027	0.04
Mof_C 	C 	0.67295	0.25655	0.38468	0.534
Mof_C 	C 	0.68945	0.27822	0.39101	-0.172
Mof_C 	C 	0.69296	0.28857	0.41352	0.002
Mof_H 	H 	0.6841	0.284	0.4276	-0.011
Mof_C 	C 	0.60953	0.17816	0.45064	0.535
Mof_C 	C 	0.60529	0.17279	0.47727	-0.154
Mof_C 	C 	0.5931	0.1528	0.4868	0.008
Mof_H 	H 	0.5856	0.1405	0.4771	0.04
Mof_O 	O 	0.68228	0.12811	0.36107	-0.664
Mof_S 	S 	0.73434	0.0988	0.3212	0.02
Mof_C 	C 	0.7563	0.1033	0.3642	-0.046
Mof_C 	C 	0.7173	0.1093	0.3461	-0.09
Mof_C 	C 	0.6911	0.1221	0.3403	0.432
Mof_C 	C 	0.7338	0.1097	0.3679	0.019
Mof_C 	C 	0.7606	0.0948	0.3385	-0.096
Mof_Zr	Zr	0.13783	0.71244	0.90871	3.173
Mof_Zr	Zr	0.16721	0.66122	0.87957	3.194
Mof_S 	S 	0.17951	0.58554	0.93424	0.04
Mof_O 	O 	0.1212	0.62457	0.91471	-0.638
Mof_O 	O 	0.16232	0.62884	0.90663	-0.686
Mof_O 	O 	0.21193	0.54951	0.95769	-0.778
Mof_O 	O 	0.1826	0.52587	0.97566	-0.664
Mof_O 	O 	0.20215	0.67285	0.85911	-0.69
Mof_O 	O 	0.19451	0.70939	0.83958	-0.649
Mof_O 	O 	0.17292	0.74907	0.8626	-0.663
Mof_O 	O 	0.16075	0.74779	0.90284	-0.781
Mof_O 	O 	0.12316	0.69641	0.94537	-0.781
Mof_O 	O 	0.09956	0.66299	0.93558	-0.68
Mof_O 	O 	0.13832	0.6744	0.90157	-1.5
Mof_O 	O 	0.16934	0.70276	0.8834	-1.146
Mof_C 	C 	0.14375	0.61815	0.91657	0.509
Mof_C 	C 	0.14944	0.59619	0.93201	-0.135
Mof_C 	C 	0.1334	0.58208	0.94567	-0.001
Mof_H 	H 	0.1163	0.5849	0.9466	0.044
Mof_C 	C 	0.14616	0.56235	0.95843	0.021
Mof_H 	H 	0.1383	0.5511	0.969	0.035
Mof_C 	C 	0.1707	0.56179	0.95354	-0.161
Mof_C 	C 	0.18997	0.54429	0.9633	0.545
Mof_C 	C 	0.20716	0.68993	0.84391	0.516
Mof_C 	C 	0.23054	0.68673	0.82945	-0.143
Mof_C 	C 	0.2388	0.69987	0.80944	0.012
Mof_H 	H 	0.2305	0.7135	0.8027	0.04
Mof_C 	C 	0.17295	0.75655	0.88468	0.534
Mof_C 	C 	0.18945	0.77822	0.89101	-0.172
Mof_C 	C 	0.19296	0.78857	0.91352	0.002
Mof_H 	H 	0.1841	0.784	0.9276	-0.011
Mof_C 	C 	0.10953	0.67816	0.95064	0.535
Mof_C 	C 	0.10529	0.67279	0.97727	-0.154
Mof_C 	C 	0.0931	0.6528	0.9868	0.008
Mof_H 	H 	0.0856	0.6405	0.9771	0.04
Mof_O 	O 	0.18228	0.62811	0.86107	-0.664
Mof_S 	S 	0.23434	0.5988	0.8212	0.02
Mof_C 	C 	0.2563	0.6033	0.8642	-0.046
Mof_C 	C 	0.2173	0.6093	0.8461	-0.09
Mof_C 	C 	0.1911	0.6221	0.8403	0.433
Mof_C 	C 	0.2338	0.6097	0.8679	0.019
Mof_C 	C 	0.2606	0.5948	0.8385	-0.096
Mof_Zr	Zr	0.63783	0.78756	0.59129	3.173
Mof_Zr	Zr	0.66721	0.83878	0.62043	3.194
Mof_S 	S 	0.67951	0.91446	0.56576	0.04
Mof_O 	O 	0.6212	0.87543	0.58529	-0.638
Mof_O 	O 	0.66232	0.87116	0.59337	-0.686
Mof_O 	O 	0.71193	0.95049	0.54231	-0.778
Mof_O 	O 	0.6826	0.97413	0.52434	-0.664
Mof_O 	O 	0.70215	0.82715	0.64089	-0.69
Mof_O 	O 	0.69451	0.79061	0.66042	-0.649
Mof_O 	O 	0.67292	0.75093	0.6374	-0.663
Mof_O 	O 	0.66075	0.75221	0.59716	-0.781
Mof_O 	O 	0.62316	0.80359	0.55463	-0.781
Mof_O 	O 	0.59956	0.83701	0.56442	-0.68
Mof_O 	O 	0.63832	0.8256	0.59843	-1.5
Mof_O 	O 	0.66934	0.79724	0.6166	-1.146
Mof_C 	C 	0.64375	0.88185	0.58343	0.509
Mof_C 	C 	0.64944	0.90381	0.56799	-0.135
Mof_C 	C 	0.6334	0.91792	0.55433	-0.001
Mof_H 	H 	0.6163	0.9151	0.5534	0.044
Mof_C 	C 	0.64616	0.93765	0.54157	0.021
Mof_H 	H 	0.6383	0.9489	0.531	0.035
Mof_C 	C 	0.6707	0.93821	0.54646	-0.161
Mof_C 	C 	0.68997	0.95571	0.5367	0.545
Mof_C 	C 	0.70716	0.81007	0.65609	0.516
Mof_C 	C 	0.73054	0.81327	0.67055	-0.143
Mof_C 	C 	0.7388	0.80013	0.69056	0.012
Mof_H 	H 	0.7305	0.7865	0.6973	0.04
Mof_C 	C 	0.67295	0.74345	0.61532	0.534
Mof_C 	C 	0.68945	0.72178	0.60899	-0.172
Mof_C 	C 	0.69296	0.71143	0.58648	0.002
Mof_H 	H 	0.6841	0.716	0.5724	-0.011
Mof_C 	C 	0.60953	0.82184	0.54936	0.535
Mof_C 	C 	0.60529	0.82721	0.52273	-0.154
Mof_C 	C 	0.5931	0.8472	0.5132	0.008
Mof_H 	H 	0.5856	0.8595	0.5229	0.04
Mof_O 	O 	0.68228	0.87189	0.63893	-0.664
Mof_S 	S 	0.73434	0.9012	0.6788	0.02
Mof_C 	C 	0.7563	0.8967	0.6358	-0.046
Mof_C 	C 	0.7173	0.8907	0.6539	-0.09
Mof_C 	C 	0.6911	0.8779	0.6597	0.433
Mof_C 	C 	0.7338	0.8903	0.6321	0.019
Mof_C 	C 	0.7606	0.9052	0.6615	-0.096
Mof_Zr	Zr	0.13783	0.28756	0.09129	3.173
Mof_Zr	Zr	0.16721	0.33878	0.12043	3.194
Mof_S 	S 	0.17951	0.41446	0.06576	0.04
Mof_O 	O 	0.1212	0.37543	0.08529	-0.638
Mof_O 	O 	0.16232	0.37116	0.09337	-0.686
Mof_O 	O 	0.21193	0.45049	0.04231	-0.778
Mof_O 	O 	0.1826	0.47413	0.02434	-0.664
Mof_O 	O 	0.20215	0.32715	0.14089	-0.69
Mof_O 	O 	0.19451	0.29061	0.16042	-0.649
Mof_O 	O 	0.17292	0.25093	0.1374	-0.663
Mof_O 	O 	0.16075	0.25221	0.09716	-0.781
Mof_O 	O 	0.12316	0.30359	0.05463	-0.781
Mof_O 	O 	0.09956	0.33701	0.06442	-0.68
Mof_O 	O 	0.13832	0.3256	0.09843	-1.5
Mof_O 	O 	0.16934	0.29724	0.1166	-1.146
Mof_C 	C 	0.14375	0.38185	0.08343	0.509
Mof_C 	C 	0.14944	0.40381	0.06799	-0.135
Mof_C 	C 	0.1334	0.41792	0.05433	-0.001
Mof_H 	H 	0.1163	0.4151	0.0534	0.044
Mof_C 	C 	0.14616	0.43765	0.04157	0.021
Mof_H 	H 	0.1383	0.4489	0.031	0.035
Mof_C 	C 	0.1707	0.43821	0.04646	-0.161
Mof_C 	C 	0.18997	0.45571	0.0367	0.545
Mof_C 	C 	0.20716	0.31007	0.15609	0.516
Mof_C 	C 	0.23054	0.31327	0.17055	-0.143
Mof_C 	C 	0.2388	0.30013	0.19056	0.012
Mof_H 	H 	0.2305	0.2865	0.1973	0.04
Mof_C 	C 	0.17295	0.24345	0.11532	0.534
Mof_C 	C 	0.18945	0.22178	0.10899	-0.172
Mof_C 	C 	0.19296	0.21143	0.08648	0.002
Mof_H 	H 	0.1841	0.216	0.0724	-0.011
Mof_C 	C 	0.10953	0.32184	0.04936	0.535
Mof_C 	C 	0.10529	0.32721	0.02273	-0.154
Mof_C 	C 	0.0931	0.3472	0.0132	0.007
Mof_H 	H 	0.0856	0.3595	0.0229	0.04
Mof_O 	O 	0.18228	0.37189	0.13893	-0.664
Mof_S 	S 	0.23434	0.4012	0.1788	0.02
Mof_C 	C 	0.2563	0.3967	0.1358	-0.046
Mof_C 	C 	0.2173	0.3907	0.1539	-0.09
Mof_C 	C 	0.1911	0.3779	0.1597	0.433
Mof_C 	C 	0.2338	0.3903	0.1321	0.019
Mof_C 	C 	0.2606	0.4052	0.1615	-0.096
Mof_Zr	Zr	0.36217	0.78756	0.40871	3.173
Mof_Zr	Zr	0.33279	0.83878	0.37957	3.194
Mof_S 	S 	0.32049	0.91446	0.43424	0.04
Mof_O 	O 	0.3788	0.87543	0.41471	-0.638
Mof_O 	O 	0.33768	0.87116	0.40663	-0.686
Mof_O 	O 	0.28807	0.95049	0.45769	-0.778
Mof_O 	O 	0.3174	0.97413	0.47566	-0.664
Mof_O 	O 	0.29785	0.82715	0.35911	-0.69
Mof_O 	O 	0.30549	0.79061	0.33958	-0.649
Mof_O 	O 	0.32708	0.75093	0.3626	-0.663
Mof_O 	O 	0.33925	0.75221	0.40284	-0.781
Mof_O 	O 	0.37684	0.80359	0.44537	-0.781
Mof_O 	O 	0.40044	0.83701	0.43558	-0.68
Mof_O 	O 	0.36168	0.8256	0.40157	-1.5
Mof_O 	O 	0.33066	0.79724	0.3834	-1.146
Mof_C 	C 	0.35625	0.88185	0.41657	0.509
Mof_C 	C 	0.35056	0.90381	0.43201	-0.135
Mof_C 	C 	0.3666	0.91792	0.44567	-0.001
Mof_H 	H 	0.3837	0.9151	0.4466	0.044
Mof_C 	C 	0.35384	0.93765	0.45843	0.021
Mof_H 	H 	0.3617	0.9489	0.469	0.035
Mof_C 	C 	0.3293	0.93821	0.45354	-0.161
Mof_C 	C 	0.31003	0.95571	0.4633	0.545
Mof_C 	C 	0.29284	0.81007	0.34391	0.516
Mof_C 	C 	0.26946	0.81327	0.32945	-0.143
Mof_C 	C 	0.2612	0.80013	0.30944	0.012
Mof_H 	H 	0.2695	0.7865	0.3027	0.04
Mof_C 	C 	0.32705	0.74345	0.38468	0.534
Mof_C 	C 	0.31055	0.72178	0.39101	-0.172
Mof_C 	C 	0.30704	0.71143	0.41352	0.002
Mof_H 	H 	0.3159	0.716	0.4276	-0.011
Mof_C 	C 	0.39047	0.82184	0.45064	0.535
Mof_C 	C 	0.39471	0.82721	0.47727	-0.154
Mof_C 	C 	0.4069	0.8472	0.4868	0.008
Mof_H 	H 	0.4144	0.8595	0.4771	0.04
Mof_O 	O 	0.31772	0.87189	0.36107	-0.664
Mof_S 	S 	0.26566	0.9012	0.3212	0.02
Mof_C 	C 	0.2437	0.8967	0.3642	-0.046
Mof_C 	C 	0.2827	0.8907	0.3461	-0.09
Mof_C 	C 	0.3089	0.8779	0.3403	0.433
Mof_C 	C 	0.2662	0.8903	0.3679	0.019
Mof_C 	C 	0.2394	0.9052	0.3385	-0.096
Mof_Zr	Zr	0.86217	0.28756	0.90871	3.173
Mof_Zr	Zr	0.83279	0.33878	0.87957	3.194
Mof_S 	S 	0.82049	0.41446	0.93424	0.04
Mof_O 	O 	0.8788	0.37543	0.91471	-0.638
Mof_O 	O 	0.83768	0.37116	0.90663	-0.686
Mof_O 	O 	0.78807	0.45049	0.95769	-0.778
Mof_O 	O 	0.8174	0.47413	0.97566	-0.664
Mof_O 	O 	0.79785	0.32715	0.85911	-0.69
Mof_O 	O 	0.80549	0.29061	0.83958	-0.649
Mof_O 	O 	0.82708	0.25093	0.8626	-0.663
Mof_O 	O 	0.83925	0.25221	0.90284	-0.781
Mof_O 	O 	0.87684	0.30359	0.94537	-0.781
Mof_O 	O 	0.90044	0.33701	0.93558	-0.68
Mof_O 	O 	0.86168	0.3256	0.90157	-1.5
Mof_O 	O 	0.83066	0.29724	0.8834	-1.146
Mof_C 	C 	0.85625	0.38185	0.91657	0.509
Mof_C 	C 	0.85056	0.40381	0.93201	-0.135
Mof_C 	C 	0.8666	0.41792	0.94567	-0.001
Mof_H 	H 	0.8837	0.4151	0.9466	0.044
Mof_C 	C 	0.85384	0.43765	0.95843	0.021
Mof_H 	H 	0.8617	0.4489	0.969	0.035
Mof_C 	C 	0.8293	0.43821	0.95354	-0.161
Mof_C 	C 	0.81003	0.45571	0.9633	0.545
Mof_C 	C 	0.79284	0.31007	0.84391	0.516
Mof_C 	C 	0.76946	0.31327	0.82945	-0.143
Mof_C 	C 	0.7612	0.30013	0.80944	0.012
Mof_H 	H 	0.7695	0.2865	0.8027	0.04
Mof_C 	C 	0.82705	0.24345	0.88468	0.534
Mof_C 	C 	0.81055	0.22178	0.89101	-0.172
Mof_C 	C 	0.80704	0.21143	0.91352	0.002
Mof_H 	H 	0.8159	0.216	0.9276	-0.011
Mof_C 	C 	0.89047	0.32184	0.95064	0.535
Mof_C 	C 	0.89471	0.32721	0.97727	-0.154
Mof_C 	C 	0.9069	0.3472	0.9868	0.008
Mof_H 	H 	0.9144	0.3595	0.9771	0.04
Mof_O 	O 	0.81772	0.37189	0.86107	-0.664
Mof_S 	S 	0.76566	0.4012	0.8212	0.02
Mof_C 	C 	0.7437	0.3967	0.8642	-0.046
Mof_C 	C 	0.7827	0.3907	0.8461	-0.09
Mof_C 	C 	0.8089	0.3779	0.8403	0.432
Mof_C 	C 	0.7662	0.3903	0.8679	0.019
Mof_C 	C 	0.7394	0.4052	0.8385	-0.096
Mof_Zr	Zr	0.21244	0.40871	0.63783	3.173
Mof_Zr	Zr	0.16122	0.37957	0.66721	3.194
Mof_S 	S 	0.08554	0.43424	0.67951	0.04
Mof_O 	O 	0.12457	0.41471	0.6212	-0.638
Mof_O 	O 	0.12884	0.40663	0.66232	-0.686
Mof_O 	O 	0.04951	0.45769	0.71193	-0.778
Mof_O 	O 	0.02587	0.47566	0.6826	-0.664
Mof_O 	O 	0.17285	0.35911	0.70215	-0.69
Mof_O 	O 	0.20939	0.33958	0.69451	-0.649
Mof_O 	O 	0.24907	0.3626	0.67292	-0.663
Mof_O 	O 	0.24779	0.40284	0.66075	-0.781
Mof_O 	O 	0.19641	0.44537	0.62316	-0.781
Mof_O 	O 	0.16299	0.43558	0.59956	-0.68
Mof_O 	O 	0.1744	0.40157	0.63832	-1.5
Mof_O 	O 	0.20276	0.3834	0.66934	-1.146
Mof_C 	C 	0.11815	0.41657	0.64375	0.509
Mof_C 	C 	0.09619	0.43201	0.64944	-0.135
Mof_C 	C 	0.08208	0.44567	0.6334	-0.001
Mof_H 	H 	0.0849	0.4466	0.6163	0.044
Mof_C 	C 	0.06235	0.45843	0.64616	0.021
Mof_H 	H 	0.0511	0.469	0.6383	0.035
Mof_C 	C 	0.06179	0.45354	0.6707	-0.161
Mof_C 	C 	0.04429	0.4633	0.68997	0.545
Mof_C 	C 	0.18993	0.34391	0.70716	0.516
Mof_C 	C 	0.18673	0.32945	0.73054	-0.143
Mof_C 	C 	0.19987	0.30944	0.7388	0.012
Mof_H 	H 	0.2135	0.3027	0.7305	0.04
Mof_C 	C 	0.25655	0.38468	0.67295	0.534
Mof_C 	C 	0.27822	0.39101	0.68945	-0.172
Mof_C 	C 	0.28857	0.41352	0.69296	0.002
Mof_H 	H 	0.284	0.4276	0.6841	-0.011
Mof_C 	C 	0.17816	0.45064	0.60953	0.535
Mof_C 	C 	0.17279	0.47727	0.60529	-0.154
Mof_C 	C 	0.1528	0.4868	0.5931	0.008
Mof_H 	H 	0.1405	0.4771	0.5856	0.04
Mof_O 	O 	0.12811	0.36107	0.68228	-0.664
Mof_S 	S 	0.0988	0.3212	0.73434	0.02
Mof_C 	C 	0.1033	0.3642	0.7563	-0.046
Mof_C 	C 	0.1093	0.3461	0.7173	-0.09
Mof_C 	C 	0.1221	0.3403	0.6911	0.432
Mof_C 	C 	0.1097	0.3679	0.7338	0.019
Mof_C 	C 	0.0948	0.3385	0.7606	-0.096
Mof_Zr	Zr	0.71244	0.90871	0.13783	3.173
Mof_Zr	Zr	0.66122	0.87957	0.16721	3.194
Mof_S 	S 	0.58554	0.93424	0.17951	0.04
Mof_O 	O 	0.62457	0.91471	0.1212	-0.638
Mof_O 	O 	0.62884	0.90663	0.16232	-0.686
Mof_O 	O 	0.54951	0.95769	0.21193	-0.778
Mof_O 	O 	0.52587	0.97566	0.1826	-0.664
Mof_O 	O 	0.67285	0.85911	0.20215	-0.69
Mof_O 	O 	0.70939	0.83958	0.19451	-0.649
Mof_O 	O 	0.74907	0.8626	0.17292	-0.663
Mof_O 	O 	0.74779	0.90284	0.16075	-0.781
Mof_O 	O 	0.69641	0.94537	0.12316	-0.781
Mof_O 	O 	0.66299	0.93558	0.09956	-0.68
Mof_O 	O 	0.6744	0.90157	0.13832	-1.5
Mof_O 	O 	0.70276	0.8834	0.16934	-1.146
Mof_C 	C 	0.61815	0.91657	0.14375	0.509
Mof_C 	C 	0.59619	0.93201	0.14944	-0.135
Mof_C 	C 	0.58208	0.94567	0.1334	-0.001
Mof_H 	H 	0.5849	0.9466	0.1163	0.044
Mof_C 	C 	0.56235	0.95843	0.14616	0.021
Mof_H 	H 	0.5511	0.969	0.1383	0.035
Mof_C 	C 	0.56179	0.95354	0.1707	-0.161
Mof_C 	C 	0.54429	0.9633	0.18997	0.545
Mof_C 	C 	0.68993	0.84391	0.20716	0.516
Mof_C 	C 	0.68673	0.82945	0.23054	-0.143
Mof_C 	C 	0.69987	0.80944	0.2388	0.012
Mof_H 	H 	0.7135	0.8027	0.2305	0.04
Mof_C 	C 	0.75655	0.88468	0.17295	0.534
Mof_C 	C 	0.77822	0.89101	0.18945	-0.172
Mof_C 	C 	0.78857	0.91352	0.19296	0.002
Mof_H 	H 	0.784	0.9276	0.1841	-0.011
Mof_C 	C 	0.67816	0.95064	0.10953	0.535
Mof_C 	C 	0.67279	0.97727	0.10529	-0.154
Mof_C 	C 	0.6528	0.9868	0.0931	0.008
Mof_H 	H 	0.6405	0.9771	0.0856	0.04
Mof_O 	O 	0.62811	0.86107	0.18228	-0.664
Mof_S 	S 	0.5988	0.8212	0.23434	0.02
Mof_C 	C 	0.6033	0.8642	0.2563	-0.046
Mof_C 	C 	0.6093	0.8461	0.2173	-0.09
Mof_C 	C 	0.6221	0.8403	0.1911	0.433
Mof_C 	C 	0.6097	0.8679	0.2338	0.019
Mof_C 	C 	0.5948	0.8385	0.2606	-0.096
Mof_Zr	Zr	0.21244	0.59129	0.36217	3.173
Mof_Zr	Zr	0.16122	0.62043	0.33279	3.194
Mof_S 	S 	0.08554	0.56576	0.32049	0.04
Mof_O 	O 	0.12457	0.58529	0.3788	-0.638
Mof_O 	O 	0.12884	0.59337	0.33768	-0.686
Mof_O 	O 	0.04951	0.54231	0.28807	-0.778
Mof_O 	O 	0.02587	0.52434	0.3174	-0.664
Mof_O 	O 	0.17285	0.64089	0.29785	-0.69
Mof_O 	O 	0.20939	0.66042	0.30549	-0.649
Mof_O 	O 	0.24907	0.6374	0.32708	-0.663
Mof_O 	O 	0.24779	0.59716	0.33925	-0.781
Mof_O 	O 	0.19641	0.55463	0.37684	-0.781
Mof_O 	O 	0.16299	0.56442	0.40044	-0.68
Mof_O 	O 	0.1744	0.59843	0.36168	-1.5
Mof_O 	O 	0.20276	0.6166	0.33066	-1.146
Mof_C 	C 	0.11815	0.58343	0.35625	0.509
Mof_C 	C 	0.09619	0.56799	0.35056	-0.135
Mof_C 	C 	0.08208	0.55433	0.3666	-0.001
Mof_H 	H 	0.0849	0.5534	0.3837	0.044
Mof_C 	C 	0.06235	0.54157	0.35384	0.021
Mof_H 	H 	0.0511	0.531	0.3617	0.035
Mof_C 	C 	0.06179	0.54646	0.3293	-0.161
Mof_C 	C 	0.04429	0.5367	0.31003	0.545
Mof_C 	C 	0.18993	0.65609	0.29284	0.516
Mof_C 	C 	0.18673	0.67055	0.26946	-0.143
Mof_C 	C 	0.19987	0.69056	0.2612	0.012
Mof_H 	H 	0.2135	0.6973	0.2695	0.04
Mof_C 	C 	0.25655	0.61532	0.32705	0.534
Mof_C 	C 	0.27822	0.60899	0.31055	-0.172
Mof_C 	C 	0.28857	0.58648	0.30704	0.002
Mof_H 	H 	0.284	0.5724	0.3159	-0.011
Mof_C 	C 	0.17816	0.54936	0.39047	0.535
Mof_C 	C 	0.17279	0.52273	0.39471	-0.154
Mof_C 	C 	0.1528	0.5132	0.4069	0.008
Mof_H 	H 	0.1405	0.5229	0.4144	0.04
Mof_O 	O 	0.12811	0.63893	0.31772	-0.664
Mof_S 	S 	0.0988	0.6788	0.26566	0.02
Mof_C 	C 	0.1033	0.6358	0.2437	-0.046
Mof_C 	C 	0.1093	0.6539	0.2827	-0.09
Mof_C 	C 	0.1221	0.6597	0.3089	0.432
Mof_C 	C 	0.1097	0.6321	0.2662	0.019
Mof_C 	C 	0.0948	0.6615	0.2394	-0.096
Mof_Zr	Zr	0.71244	0.09129	0.86217	3.173
Mof_Zr	Zr	0.66122	0.12043	0.83279	3.194
Mof_S 	S 	0.58554	0.06576	0.82049	0.04
Mof_O 	O 	0.62457	0.08529	0.8788	-0.638
Mof_O 	O 	0.62884	0.09337	0.83768	-0.686
Mof_O 	O 	0.54951	0.04231	0.78807	-0.778
Mof_O 	O 	0.52587	0.02434	0.8174	-0.664
Mof_O 	O 	0.67285	0.14089	0.79785	-0.69
Mof_O 	O 	0.70939	0.16042	0.80549	-0.649
Mof_O 	O 	0.74907	0.1374	0.82708	-0.663
Mof_O 	O 	0.74779	0.09716	0.83925	-0.781
Mof_O 	O 	0.69641	0.05463	0.87684	-0.781
Mof_O 	O 	0.66299	0.06442	0.90044	-0.68
Mof_O 	O 	0.6744	0.09843	0.86168	-1.5
Mof_O 	O 	0.70276	0.1166	0.83066	-1.146
Mof_C 	C 	0.61815	0.08343	0.85625	0.509
Mof_C 	C 	0.59619	0.06799	0.85056	-0.135
Mof_C 	C 	0.58208	0.05433	0.8666	-0.001
Mof_H 	H 	0.5849	0.0534	0.8837	0.044
Mof_C 	C 	0.56235	0.04157	0.85384	0.021
Mof_H 	H 	0.5511	0.031	0.8617	0.035
Mof_C 	C 	0.56179	0.04646	0.8293	-0.161
Mof_C 	C 	0.54429	0.0367	0.81003	0.545
Mof_C 	C 	0.68993	0.15609	0.79284	0.516
Mof_C 	C 	0.68673	0.17055	0.76946	-0.143
Mof_C 	C 	0.69987	0.19056	0.7612	0.012
Mof_H 	H 	0.7135	0.1973	0.7695	0.04
Mof_C 	C 	0.75655	0.11532	0.82705	0.534
Mof_C 	C 	0.77822	0.10899	0.81055	-0.172
Mof_C 	C 	0.78857	0.08648	0.80704	0.002
Mof_H 	H 	0.784	0.0724	0.8159	-0.011
Mof_C 	C 	0.67816	0.04936	0.89047	0.535
Mof_C 	C 	0.67279	0.02273	0.89471	-0.154
Mof_C 	C 	0.6528	0.0132	0.9069	0.007
Mof_H 	H 	0.6405	0.0229	0.9144	0.04
Mof_O 	O 	0.62811	0.13893	0.81772	-0.664
Mof_S 	S 	0.5988	0.1788	0.76566	0.02
Mof_C 	C 	0.6033	0.1358	0.7437	-0.046
Mof_C 	C 	0.6093	0.1539	0.7827	-0.09
Mof_C 	C 	0.6221	0.1597	0.8089	0.433
Mof_C 	C 	0.6097	0.1321	0.7662	0.019
Mof_C 	C 	0.5948	0.1615	0.7394	-0.096
Mof_Zr	Zr	0.78756	0.40871	0.36217	3.173
Mof_Zr	Zr	0.83878	0.37957	0.33279	3.194
Mof_S 	S 	0.91446	0.43424	0.32049	0.04
Mof_O 	O 	0.87543	0.41471	0.3788	-0.638
Mof_O 	O 	0.87116	0.40663	0.33768	-0.686
Mof_O 	O 	0.95049	0.45769	0.28807	-0.778
Mof_O 	O 	0.97413	0.47566	0.3174	-0.664
Mof_O 	O 	0.82715	0.35911	0.29785	-0.69
Mof_O 	O 	0.79061	0.33958	0.30549	-0.649
Mof_O 	O 	0.75093	0.3626	0.32708	-0.663
Mof_O 	O 	0.75221	0.40284	0.33925	-0.781
Mof_O 	O 	0.80359	0.44537	0.37684	-0.781
Mof_O 	O 	0.83701	0.43558	0.40044	-0.68
Mof_O 	O 	0.8256	0.40157	0.36168	-1.5
Mof_O 	O 	0.79724	0.3834	0.33066	-1.146
Mof_C 	C 	0.88185	0.41657	0.35625	0.509
Mof_C 	C 	0.90381	0.43201	0.35056	-0.135
Mof_C 	C 	0.91792	0.44567	0.3666	-0.001
Mof_H 	H 	0.9151	0.4466	0.3837	0.044
Mof_C 	C 	0.93765	0.45843	0.35384	0.021
Mof_H 	H 	0.9489	0.469	0.3617	0.035
Mof_C 	C 	0.93821	0.45354	0.3293	-0.161
Mof_C 	C 	0.95571	0.4633	0.31003	0.545
Mof_C 	C 	0.81007	0.34391	0.29284	0.516
Mof_C 	C 	0.81327	0.32945	0.26946	-0.143
Mof_C 	C 	0.80013	0.30944	0.2612	0.012
Mof_H 	H 	0.7865	0.3027	0.2695	0.04
Mof_C 	C 	0.74345	0.38468	0.32705	0.534
Mof_C 	C 	0.72178	0.39101	0.31055	-0.172
Mof_C 	C 	0.71143	0.41352	0.30704	0.002
Mof_H 	H 	0.716	0.4276	0.3159	-0.011
Mof_C 	C 	0.82184	0.45064	0.39047	0.535
Mof_C 	C 	0.82721	0.47727	0.39471	-0.154
Mof_C 	C 	0.8472	0.4868	0.4069	0.008
Mof_H 	H 	0.8595	0.4771	0.4144	0.04
Mof_O 	O 	0.87189	0.36107	0.31772	-0.664
Mof_S 	S 	0.9012	0.3212	0.26566	0.02
Mof_C 	C 	0.8967	0.3642	0.2437	-0.046
Mof_C 	C 	0.8907	0.3461	0.2827	-0.09
Mof_C 	C 	0.8779	0.3403	0.3089	0.433
Mof_C 	C 	0.8903	0.3679	0.2662	0.019
Mof_C 	C 	0.9052	0.3385	0.2394	-0.096
Mof_Zr	Zr	0.28756	0.90871	0.86217	3.173
Mof_Zr	Zr	0.33878	0.87957	0.83279	3.194
Mof_S 	S 	0.41446	0.93424	0.82049	0.04
Mof_O 	O 	0.37543	0.91471	0.8788	-0.638
Mof_O 	O 	0.37116	0.90663	0.83768	-0.686
Mof_O 	O 	0.45049	0.95769	0.78807	-0.778
Mof_O 	O 	0.47413	0.97566	0.8174	-0.664
Mof_O 	O 	0.32715	0.85911	0.79785	-0.69
Mof_O 	O 	0.29061	0.83958	0.80549	-0.649
Mof_O 	O 	0.25093	0.8626	0.82708	-0.663
Mof_O 	O 	0.25221	0.90284	0.83925	-0.781
Mof_O 	O 	0.30359	0.94537	0.87684	-0.781
Mof_O 	O 	0.33701	0.93558	0.90044	-0.68
Mof_O 	O 	0.3256	0.90157	0.86168	-1.5
Mof_O 	O 	0.29724	0.8834	0.83066	-1.146
Mof_C 	C 	0.38185	0.91657	0.85625	0.509
Mof_C 	C 	0.40381	0.93201	0.85056	-0.135
Mof_C 	C 	0.41792	0.94567	0.8666	-0.001
Mof_H 	H 	0.4151	0.9466	0.8837	0.044
Mof_C 	C 	0.43765	0.95843	0.85384	0.021
Mof_H 	H 	0.4489	0.969	0.8617	0.035
Mof_C 	C 	0.43821	0.95354	0.8293	-0.161
Mof_C 	C 	0.45571	0.9633	0.81003	0.545
Mof_C 	C 	0.31007	0.84391	0.79284	0.516
Mof_C 	C 	0.31327	0.82945	0.76946	-0.143
Mof_C 	C 	0.30013	0.80944	0.7612	0.012
Mof_H 	H 	0.2865	0.8027	0.7695	0.04
Mof_C 	C 	0.24345	0.88468	0.82705	0.534
Mof_C 	C 	0.22178	0.89101	0.81055	-0.172
Mof_C 	C 	0.21143	0.91352	0.80704	0.002
Mof_H 	H 	0.216	0.9276	0.8159	-0.011
Mof_C 	C 	0.32184	0.95064	0.89047	0.535
Mof_C 	C 	0.32721	0.97727	0.89471	-0.154
Mof_C 	C 	0.3472	0.9868	0.9069	0.008
Mof_H 	H 	0.3595	0.9771	0.9144	0.04
Mof_O 	O 	0.37189	0.86107	0.81772	-0.664
Mof_S 	S 	0.4012	0.8212	0.76566	0.02
Mof_C 	C 	0.3967	0.8642	0.7437	-0.046
Mof_C 	C 	0.3907	0.8461	0.7827	-0.09
Mof_C 	C 	0.3779	0.8403	0.8089	0.432
Mof_C 	C 	0.3903	0.8679	0.7662	0.019
Mof_C 	C 	0.4052	0.8385	0.7394	-0.096
Mof_Zr	Zr	0.78756	0.59129	0.63783	3.173
Mof_Zr	Zr	0.83878	0.62043	0.66721	3.194
Mof_S 	S 	0.91446	0.56576	0.67951	0.04
Mof_O 	O 	0.87543	0.58529	0.6212	-0.638
Mof_O 	O 	0.87116	0.59337	0.66232	-0.686
Mof_O 	O 	0.95049	0.54231	0.71193	-0.778
Mof_O 	O 	0.97413	0.52434	0.6826	-0.664
Mof_O 	O 	0.82715	0.64089	0.70215	-0.69
Mof_O 	O 	0.79061	0.66042	0.69451	-0.649
Mof_O 	O 	0.75093	0.6374	0.67292	-0.663
Mof_O 	O 	0.75221	0.59716	0.66075	-0.781
Mof_O 	O 	0.80359	0.55463	0.62316	-0.781
Mof_O 	O 	0.83701	0.56442	0.59956	-0.68
Mof_O 	O 	0.8256	0.59843	0.63832	-1.5
Mof_O 	O 	0.79724	0.6166	0.66934	-1.146
Mof_C 	C 	0.88185	0.58343	0.64375	0.509
Mof_C 	C 	0.90381	0.56799	0.64944	-0.135
Mof_C 	C 	0.91792	0.55433	0.6334	-0.001
Mof_H 	H 	0.9151	0.5534	0.6163	0.044
Mof_C 	C 	0.93765	0.54157	0.64616	0.021
Mof_H 	H 	0.9489	0.531	0.6383	0.035
Mof_C 	C 	0.93821	0.54646	0.6707	-0.161
Mof_C 	C 	0.95571	0.5367	0.68997	0.545
Mof_C 	C 	0.81007	0.65609	0.70716	0.516
Mof_C 	C 	0.81327	0.67055	0.73054	-0.143
Mof_C 	C 	0.80013	0.69056	0.7388	0.012
Mof_H 	H 	0.7865	0.6973	0.7305	0.04
Mof_C 	C 	0.74345	0.61532	0.67295	0.534
Mof_C 	C 	0.72178	0.60899	0.68945	-0.172
Mof_C 	C 	0.71143	0.58648	0.69296	0.002
Mof_H 	H 	0.716	0.5724	0.6841	-0.011
Mof_C 	C 	0.82184	0.54936	0.60953	0.535
Mof_C 	C 	0.82721	0.52273	0.60529	-0.154
Mof_C 	C 	0.8472	0.5132	0.5931	0.008
Mof_H 	H 	0.8595	0.5229	0.5856	0.04
Mof_O 	O 	0.87189	0.63893	0.68228	-0.664
Mof_S 	S 	0.9012	0.6788	0.73434	0.02
Mof_C 	C 	0.8967	0.6358	0.7563	-0.046
Mof_C 	C 	0.8907	0.6539	0.7173	-0.09
Mof_C 	C 	0.8779	0.6597	0.6911	0.433
Mof_C 	C 	0.8903	0.6321	0.7338	0.019
Mof_C 	C 	0.9052	0.6615	0.7606	-0.096
Mof_Zr	Zr	0.28756	0.09129	0.13783	3.173
Mof_Zr	Zr	0.33878	0.12043	0.16721	3.194
Mof_S 	S 	0.41446	0.06576	0.17951	0.04
Mof_O 	O 	0.37543	0.08529	0.1212	-0.638
Mof_O 	O 	0.37116	0.09337	0.16232	-0.686
Mof_O 	O 	0.45049	0.04231	0.21193	-0.778
Mof_O 	O 	0.47413	0.02434	0.1826	-0.664
Mof_O 	O 	0.32715	0.14089	0.20215	-0.69
Mof_O 	O 	0.29061	0.16042	0.19451	-0.649
Mof_O 	O 	0.25093	0.1374	0.17292	-0.663
Mof_O 	O 	0.25221	0.09716	0.16075	-0.781
Mof_O 	O 	0.30359	0.05463	0.12316	-0.781
Mof_O 	O 	0.33701	0.06442	0.09956	-0.68
Mof_O 	O 	0.3256	0.09843	0.13832	-1.5
Mof_O 	O 	0.29724	0.1166	0.16934	-1.146
Mof_C 	C 	0.38185	0.08343	0.14375	0.509
Mof_C 	C 	0.40381	0.06799	0.14944	-0.135
Mof_C 	C 	0.41792	0.05433	0.1334	-0.001
Mof_H 	H 	0.4151	0.0534	0.1163	0.044
Mof_C 	C 	0.43765	0.04157	0.14616	0.021
Mof_H 	H 	0.4489	0.031	0.1383	0.035
Mof_C 	C 	0.43821	0.04646	0.1707	-0.161
Mof_C 	C 	0.45571	0.0367	0.18997	0.545
Mof_C 	C 	0.31007	0.15609	0.20716	0.516
Mof_C 	C 	0.31327	0.17055	0.23054	-0.143
Mof_C 	C 	0.30013	0.19056	0.2388	0.012
Mof_H 	H 	0.2865	0.1973	0.2305	0.04
Mof_C 	C 	0.24345	0.11532	0.17295	0.534
Mof_C 	C 	0.22178	0.10899	0.18945	-0.172
Mof_C 	C 	0.21143	0.08648	0.19296	0.002
Mof_H 	H 	0.216	0.0724	0.1841	-0.011
Mof_C 	C 	0.32184	0.04936	0.10953	0.535
Mof_C 	C 	0.32721	0.02273	0.10529	-0.154
Mof_C 	C 	0.3472	0.0132	0.0931	0.007
Mof_H 	H 	0.3595	0.0229	0.0856	0.04
Mof_O 	O 	0.37189	0.13893	0.18228	-0.664
Mof_S 	S 	0.4012	0.1788	0.23434	0.02
Mof_C 	C 	0.3967	0.1358	0.2563	-0.046
Mof_C 	C 	0.3907	0.1539	0.2173	-0.09
Mof_C 	C 	0.3779	0.1597	0.1911	0.433
Mof_C 	C 	0.3903	0.1321	0.2338	0.019
Mof_C 	C 	0.4052	0.1615	0.2606	-0.096
Mof_Zr	Zr	0.63783	0.59129	0.78756	3.173
Mof_Zr	Zr	0.66721	0.62043	0.83878	3.194
Mof_S 	S 	0.67951	0.56576	0.91446	0.04
Mof_O 	O 	0.6212	0.58529	0.87543	-0.638
Mof_O 	O 	0.66232	0.59337	0.87116	-0.686
Mof_O 	O 	0.71193	0.54231	0.95049	-0.778
Mof_O 	O 	0.6826	0.52434	0.97413	-0.664
Mof_O 	O 	0.70215	0.64089	0.82715	-0.69
Mof_O 	O 	0.69451	0.66042	0.79061	-0.649
Mof_O 	O 	0.67292	0.6374	0.75093	-0.663
Mof_O 	O 	0.66075	0.59716	0.75221	-0.781
Mof_O 	O 	0.62316	0.55463	0.80359	-0.781
Mof_O 	O 	0.59956	0.56442	0.83701	-0.68
Mof_O 	O 	0.63832	0.59843	0.8256	-1.5
Mof_O 	O 	0.66934	0.6166	0.79724	-1.146
Mof_C 	C 	0.64375	0.58343	0.88185	0.509
Mof_C 	C 	0.64944	0.56799	0.90381	-0.135
Mof_C 	C 	0.6334	0.55433	0.91792	-0.001
Mof_H 	H 	0.6163	0.5534	0.9151	0.044
Mof_C 	C 	0.64616	0.54157	0.93765	0.021
Mof_H 	H 	0.6383	0.531	0.9489	0.035
Mof_C 	C 	0.6707	0.54646	0.93821	-0.161
Mof_C 	C 	0.68997	0.5367	0.95571	0.545
Mof_C 	C 	0.70716	0.65609	0.81007	0.516
Mof_C 	C 	0.73054	0.67055	0.81327	-0.143
Mof_C 	C 	0.7388	0.69056	0.80013	0.012
Mof_H 	H 	0.7305	0.6973	0.7865	0.04
Mof_C 	C 	0.67295	0.61532	0.74345	0.534
Mof_C 	C 	0.68945	0.60899	0.72178	-0.172
Mof_C 	C 	0.69296	0.58648	0.71143	0.002
Mof_H 	H 	0.6841	0.5724	0.716	-0.011
Mof_C 	C 	0.60953	0.54936	0.82184	0.535
Mof_C 	C 	0.60529	0.52273	0.82721	-0.154
Mof_C 	C 	0.5931	0.5132	0.8472	0.008
Mof_H 	H 	0.5856	0.5229	0.8595	0.04
Mof_O 	O 	0.68228	0.63893	0.87189	-0.664
Mof_S 	S 	0.73434	0.6788	0.9012	0.02
Mof_C 	C 	0.7563	0.6358	0.8967	-0.046
Mof_C 	C 	0.7173	0.6539	0.8907	-0.09
Mof_C 	C 	0.6911	0.6597	0.8779	0.433
Mof_C 	C 	0.7338	0.6321	0.8903	0.019
Mof_C 	C 	0.7606	0.6615	0.9052	-0.096
Mof_Zr	Zr	0.13783	0.09129	0.28756	3.173
Mof_Zr	Zr	0.16721	0.12043	0.33878	3.194
Mof_S 	S 	0.17951	0.06576	0.41446	0.04
Mof_O 	O 	0.1212	0.08529	0.37543	-0.638
Mof_O 	O 	0.16232	0.09337	0.37116	-0.686
Mof_O 	O 	0.21193	0.04231	0.45049	-0.778
Mof_O 	O 	0.1826	0.02434	0.47413	-0.664
Mof_O 	O 	0.20215	0.14089	0.32715	-0.69
Mof_O 	O 	0.19451	0.16042	0.29061	-0.649
Mof_O 	O 	0.17292	0.1374	0.25093	-0.663
Mof_O 	O 	0.16075	0.09716	0.25221	-0.781
Mof_O 	O 	0.12316	0.05463	0.30359	-0.781
Mof_O 	O 	0.09956	0.06442	0.33701	-0.68
Mof_O 	O 	0.13832	0.09843	0.3256	-1.5
Mof_O 	O 	0.16934	0.1166	0.29724	-1.146
Mof_C 	C 	0.14375	0.08343	0.38185	0.509
Mof_C 	C 	0.14944	0.06799	0.40381	-0.135
Mof_C 	C 	0.1334	0.05433	0.41792	-0.001
Mof_H 	H 	0.1163	0.0534	0.4151	0.044
Mof_C 	C 	0.14616	0.04157	0.43765	0.021
Mof_H 	H 	0.1383	0.031	0.4489	0.035
Mof_C 	C 	0.1707	0.04646	0.43821	-0.161
Mof_C 	C 	0.18997	0.0367	0.45571	0.545
Mof_C 	C 	0.20716	0.15609	0.31007	0.516
Mof_C 	C 	0.23054	0.17055	0.31327	-0.143
Mof_C 	C 	0.2388	0.19056	0.30013	0.012
Mof_H 	H 	0.2305	0.1973	0.2865	0.04
Mof_C 	C 	0.17295	0.11532	0.24345	0.534
Mof_C 	C 	0.18945	0.10899	0.22178	-0.172
Mof_C 	C 	0.19296	0.08648	0.21143	0.002
Mof_H 	H 	0.1841	0.0724	0.216	-0.011
Mof_C 	C 	0.10953	0.04936	0.32184	0.535
Mof_C 	C 	0.10529	0.02273	0.32721	-0.154
Mof_C 	C 	0.0931	0.0132	0.3472	0.007
Mof_H 	H 	0.0856	0.0229	0.3595	0.04
Mof_O 	O 	0.18228	0.13893	0.37189	-0.664
Mof_S 	S 	0.23434	0.1788	0.4012	0.02
Mof_C 	C 	0.2563	0.1358	0.3967	-0.046
Mof_C 	C 	0.2173	0.1539	0.3907	-0.09
Mof_C 	C 	0.1911	0.1597	0.3779	0.433
Mof_C 	C 	0.2338	0.1321	0.3903	0.019
Mof_C 	C 	0.2606	0.1615	0.4052	-0.096
Mof_Zr	Zr	0.36217	0.40871	0.78756	3.173
Mof_Zr	Zr	0.33279	0.37957	0.83878	3.194
Mof_S 	S 	0.32049	0.43424	0.91446	0.04
Mof_O 	O 	0.3788	0.41471	0.87543	-0.638
Mof_O 	O 	0.33768	0.40663	0.87116	-0.686
Mof_O 	O 	0.28807	0.45769	0.95049	-0.778
Mof_O 	O 	0.3174	0.47566	0.97413	-0.664
Mof_O 	O 	0.29785	0.35911	0.82715	-0.69
Mof_O 	O 	0.30549	0.33958	0.79061	-0.649
Mof_O 	O 	0.32708	0.3626	0.75093	-0.663
Mof_O 	O 	0.33925	0.40284	0.75221	-0.781
Mof_O 	O 	0.37684	0.44537	0.80359	-0.781
Mof_O 	O 	0.40044	0.43558	0.83701	-0.68
Mof_O 	O 	0.36168	0.40157	0.8256	-1.5
Mof_O 	O 	0.33066	0.3834	0.79724	-1.146
Mof_C 	C 	0.35625	0.41657	0.88185	0.509
Mof_C 	C 	0.35056	0.43201	0.90381	-0.135
Mof_C 	C 	0.3666	0.44567	0.91792	-0.001
Mof_H 	H 	0.3837	0.4466	0.9151	0.044
Mof_C 	C 	0.35384	0.45843	0.93765	0.021
Mof_H 	H 	0.3617	0.469	0.9489	0.035
Mof_C 	C 	0.3293	0.45354	0.93821	-0.161
Mof_C 	C 	0.31003	0.4633	0.95571	0.545
Mof_C 	C 	0.29284	0.34391	0.81007	0.516
Mof_C 	C 	0.26946	0.32945	0.81327	-0.143
Mof_C 	C 	0.2612	0.30944	0.80013	0.012
Mof_H 	H 	0.2695	0.3027	0.7865	0.04
Mof_C 	C 	0.32705	0.38468	0.74345	0.534
Mof_C 	C 	0.31055	0.39101	0.72178	-0.172
Mof_C 	C 	0.30704	0.41352	0.71143	0.002
Mof_H 	H 	0.3159	0.4276	0.716	-0.011
Mof_C 	C 	0.39047	0.45064	0.82184	0.535
Mof_C 	C 	0.39471	0.47727	0.82721	-0.154
Mof_C 	C 	0.4069	0.4868	0.8472	0.008
Mof_H 	H 	0.4144	0.4771	0.8595	0.04
Mof_O 	O 	0.31772	0.36107	0.87189	-0.664
Mof_S 	S 	0.26566	0.3212	0.9012	0.02
Mof_C 	C 	0.2437	0.3642	0.8967	-0.046
Mof_C 	C 	0.2827	0.3461	0.8907	-0.09
Mof_C 	C 	0.3089	0.3403	0.8779	0.433
Mof_C 	C 	0.2662	0.3679	0.8903	0.019
Mof_C 	C 	0.2394	0.3385	0.9052	-0.096
Mof_Zr	Zr	0.86217	0.90871	0.28756	3.173
Mof_Zr	Zr	0.83279	0.87957	0.33878	3.194
Mof_S 	S 	0.82049	0.93424	0.41446	0.04
Mof_O 	O 	0.8788	0.91471	0.37543	-0.638
Mof_O 	O 	0.83768	0.90663	0.37116	-0.686
Mof_O 	O 	0.78807	0.95769	0.45049	-0.778
Mof_O 	O 	0.8174	0.97566	0.47413	-0.664
Mof_O 	O 	0.79785	0.85911	0.32715	-0.69
Mof_O 	O 	0.80549	0.83958	0.29061	-0.649
Mof_O 	O 	0.82708	0.8626	0.25093	-0.663
Mof_O 	O 	0.83925	0.90284	0.25221	-0.781
Mof_O 	O 	0.87684	0.94537	0.30359	-0.781
Mof_O 	O 	0.90044	0.93558	0.33701	-0.68
Mof_O 	O 	0.86168	0.90157	0.3256	-1.5
Mof_O 	O 	0.83066	0.8834	0.29724	-1.146
Mof_C 	C 	0.85625	0.91657	0.38185	0.509
Mof_C 	C 	0.85056	0.93201	0.40381	-0.135
Mof_C 	C 	0.8666	0.94567	0.41792	-0.001
Mof_H 	H 	0.8837	0.9466	0.4151	0.044
Mof_C 	C 	0.85384	0.95843	0.43765	0.021
Mof_H 	H 	0.8617	0.969	0.4489	0.035
Mof_C 	C 	0.8293	0.95354	0.43821	-0.161
Mof_C 	C 	0.81003	0.9633	0.45571	0.545
Mof_C 	C 	0.79284	0.84391	0.31007	0.516
Mof_C 	C 	0.76946	0.82945	0.31327	-0.143
Mof_C 	C 	0.7612	0.80944	0.30013	0.012
Mof_H 	H 	0.7695	0.8027	0.2865	0.04
Mof_C 	C 	0.82705	0.88468	0.24345	0.534
Mof_C 	C 	0.81055	0.89101	0.22178	-0.172
Mof_C 	C 	0.80704	0.91352	0.21143	0.002
Mof_H 	H 	0.8159	0.9276	0.216	-0.011
Mof_C 	C 	0.89047	0.95064	0.32184	0.535
Mof_C 	C 	0.89471	0.97727	0.32721	-0.154
Mof_C 	C 	0.9069	0.9868	0.3472	0.008
Mof_H 	H 	0.9144	0.9771	0.3595	0.04
Mof_O 	O 	0.81772	0.86107	0.37189	-0.664
Mof_S 	S 	0.76566	0.8212	0.4012	0.02
Mof_C 	C 	0.7437	0.8642	0.3967	-0.046
Mof_C 	C 	0.7827	0.8461	0.3907	-0.09
Mof_C 	C 	0.8089	0.8403	0.3779	0.432
Mof_C 	C 	0.7662	0.8679	0.3903	0.019
Mof_C 	C 	0.7394	0.8385	0.4052	-0.096
Mof_Zr	Zr	0.36217	0.59129	0.21244	3.173
Mof_Zr	Zr	0.33279	0.62043	0.16122	3.194
Mof_S 	S 	0.32049	0.56576	0.08554	0.04
Mof_O 	O 	0.3788	0.58529	0.12457	-0.638
Mof_O 	O 	0.33768	0.59337	0.12884	-0.686
Mof_O 	O 	0.28807	0.54231	0.04951	-0.778
Mof_O 	O 	0.3174	0.52434	0.02587	-0.664
Mof_O 	O 	0.29785	0.64089	0.17285	-0.69
Mof_O 	O 	0.30549	0.66042	0.20939	-0.649
Mof_O 	O 	0.32708	0.6374	0.24907	-0.663
Mof_O 	O 	0.33925	0.59716	0.24779	-0.781
Mof_O 	O 	0.37684	0.55463	0.19641	-0.781
Mof_O 	O 	0.40044	0.56442	0.16299	-0.68
Mof_O 	O 	0.36168	0.59843	0.1744	-1.5
Mof_O 	O 	0.33066	0.6166	0.20276	-1.146
Mof_C 	C 	0.35625	0.58343	0.11815	0.509
Mof_C 	C 	0.35056	0.56799	0.09619	-0.135
Mof_C 	C 	0.3666	0.55433	0.08208	-0.001
Mof_H 	H 	0.3837	0.5534	0.0849	0.044
Mof_C 	C 	0.35384	0.54157	0.06235	0.021
Mof_H 	H 	0.3617	0.531	0.0511	0.035
Mof_C 	C 	0.3293	0.54646	0.06179	-0.161
Mof_C 	C 	0.31003	0.5367	0.04429	0.545
Mof_C 	C 	0.29284	0.65609	0.18993	0.516
Mof_C 	C 	0.26946	0.67055	0.18673	-0.143
Mof_C 	C 	0.2612	0.69056	0.19987	0.012
Mof_H 	H 	0.2695	0.6973	0.2135	0.04
Mof_C 	C 	0.32705	0.61532	0.25655	0.534
Mof_C 	C 	0.31055	0.60899	0.27822	-0.172
Mof_C 	C 	0.30704	0.58648	0.28857	0.002
Mof_H 	H 	0.3159	0.5724	0.284	-0.011
Mof_C 	C 	0.39047	0.54936	0.17816	0.535
Mof_C 	C 	0.39471	0.52273	0.17279	-0.154
Mof_C 	C 	0.4069	0.5132	0.1528	0.008
Mof_H 	H 	0.4144	0.5229	0.1405	0.04
Mof_O 	O 	0.31772	0.63893	0.12811	-0.664
Mof_S 	S 	0.26566	0.6788	0.0988	0.02
Mof_C 	C 	0.2437	0.6358	0.1033	-0.046
Mof_C 	C 	0.2827	0.6539	0.1093	-0.09
Mof_C 	C 	0.3089	0.6597	0.1221	0.432
Mof_C 	C 	0.2662	0.6321	0.1097	0.019
Mof_C 	C 	0.2394	0.6615	0.0948	-0.096
Mof_Zr	Zr	0.86217	0.09129	0.71244	3.173
Mof_Zr	Zr	0.83279	0.12043	0.66122	3.194
Mof_S 	S 	0.82049	0.06576	0.58554	0.04
Mof_O 	O 	0.8788	0.08529	0.62457	-0.638
Mof_O 	O 	0.83768	0.09337	0.62884	-0.686
Mof_O 	O 	0.78807	0.04231	0.54951	-0.778
Mof_O 	O 	0.8174	0.02434	0.52587	-0.664
Mof_O 	O 	0.79785	0.14089	0.67285	-0.69
Mof_O 	O 	0.80549	0.16042	0.70939	-0.649
Mof_O 	O 	0.82708	0.1374	0.74907	-0.663
Mof_O 	O 	0.83925	0.09716	0.74779	-0.781
Mof_O 	O 	0.87684	0.05463	0.69641	-0.781
Mof_O 	O 	0.90044	0.06442	0.66299	-0.68
Mof_O 	O 	0.86168	0.09843	0.6744	-1.5
Mof_O 	O 	0.83066	0.1166	0.70276	-1.146
Mof_C 	C 	0.85625	0.08343	0.61815	0.509
Mof_C 	C 	0.85056	0.06799	0.59619	-0.135
Mof_C 	C 	0.8666	0.05433	0.58208	-0.001
Mof_H 	H 	0.8837	0.0534	0.5849	0.044
Mof_C 	C 	0.85384	0.04157	0.56235	0.021
Mof_H 	H 	0.8617	0.031	0.5511	0.035
Mof_C 	C 	0.8293	0.04646	0.56179	-0.161
Mof_C 	C 	0.81003	0.0367	0.54429	0.545
Mof_C 	C 	0.79284	0.15609	0.68993	0.516
Mof_C 	C 	0.76946	0.17055	0.68673	-0.143
Mof_C 	C 	0.7612	0.19056	0.69987	0.012
Mof_H 	H 	0.7695	0.1973	0.7135	0.04
Mof_C 	C 	0.82705	0.11532	0.75655	0.534
Mof_C 	C 	0.81055	0.10899	0.77822	-0.172
Mof_C 	C 	0.80704	0.08648	0.78857	0.002
Mof_H 	H 	0.8159	0.0724	0.784	-0.011
Mof_C 	C 	0.89047	0.04936	0.67816	0.535
Mof_C 	C 	0.89471	0.02273	0.67279	-0.154
Mof_C 	C 	0.9069	0.0132	0.6528	0.007
Mof_H 	H 	0.9144	0.0229	0.6405	0.04
Mof_O 	O 	0.81772	0.13893	0.62811	-0.664
Mof_S 	S 	0.76566	0.1788	0.5988	0.02
Mof_C 	C 	0.7437	0.1358	0.6033	-0.046
Mof_C 	C 	0.7827	0.1539	0.6093	-0.09
Mof_C 	C 	0.8089	0.1597	0.6221	0.433
Mof_C 	C 	0.7662	0.1321	0.6097	0.019
Mof_C 	C 	0.7394	0.1615	0.5948	-0.096
Mof_Zr	Zr	0.63783	0.40871	0.21244	3.173
Mof_Zr	Zr	0.66721	0.37957	0.16122	3.194
Mof_S 	S 	0.67951	0.43424	0.08554	0.04
Mof_O 	O 	0.6212	0.41471	0.12457	-0.638
Mof_O 	O 	0.66232	0.40663	0.12884	-0.686
Mof_O 	O 	0.71193	0.45769	0.04951	-0.778
Mof_O 	O 	0.6826	0.47566	0.02587	-0.664
Mof_O 	O 	0.70215	0.35911	0.17285	-0.69
Mof_O 	O 	0.69451	0.33958	0.20939	-0.649
Mof_O 	O 	0.67292	0.3626	0.24907	-0.663
Mof_O 	O 	0.66075	0.40284	0.24779	-0.781
Mof_O 	O 	0.62316	0.44537	0.19641	-0.781
Mof_O 	O 	0.59956	0.43558	0.16299	-0.68
Mof_O 	O 	0.63832	0.40157	0.1744	-1.5
Mof_O 	O 	0.66934	0.3834	0.20276	-1.146
Mof_C 	C 	0.64375	0.41657	0.11815	0.509
Mof_C 	C 	0.64944	0.43201	0.09619	-0.135
Mof_C 	C 	0.6334	0.44567	0.08208	-0.001
Mof_H 	H 	0.6163	0.4466	0.0849	0.044
Mof_C 	C 	0.64616	0.45843	0.06235	0.021
Mof_H 	H 	0.6383	0.469	0.0511	0.035
Mof_C 	C 	0.6707	0.45354	0.06179	-0.161
Mof_C 	C 	0.68997	0.4633	0.04429	0.545
Mof_C 	C 	0.70716	0.34391	0.18993	0.516
Mof_C 	C 	0.73054	0.32945	0.18673	-0.143
Mof_C 	C 	0.7388	0.30944	0.19987	0.012
Mof_H 	H 	0.7305	0.3027	0.2135	0.04
Mof_C 	C 	0.67295	0.38468	0.25655	0.534
Mof_C 	C 	0.68945	0.39101	0.27822	-0.172
Mof_C 	C 	0.69296	0.41352	0.28857	0.002
Mof_H 	H 	0.6841	0.4276	0.284	-0.011
Mof_C 	C 	0.60953	0.45064	0.17816	0.535
Mof_C 	C 	0.60529	0.47727	0.17279	-0.154
Mof_C 	C 	0.5931	0.4868	0.1528	0.008
Mof_H 	H 	0.5856	0.4771	0.1405	0.04
Mof_O 	O 	0.68228	0.36107	0.12811	-0.664
Mof_S 	S 	0.73434	0.3212	0.0988	0.02
Mof_C 	C 	0.7563	0.3642	0.1033	-0.046
Mof_C 	C 	0.7173	0.3461	0.1093	-0.09
Mof_C 	C 	0.6911	0.3403	0.1221	0.432
Mof_C 	C 	0.7338	0.3679	0.1097	0.019
Mof_C 	C 	0.7606	0.3385	0.0948	-0.096
Mof_Zr	Zr	0.13783	0.90871	0.71244	3.173
Mof_Zr	Zr	0.16721	0.87957	0.66122	3.194
Mof_S 	S 	0.17951	0.93424	0.58554	0.04
Mof_O 	O 	0.1212	0.91471	0.62457	-0.638
Mof_O 	O 	0.16232	0.90663	0.62884	-0.686
Mof_O 	O 	0.21193	0.95769	0.54951	-0.778
Mof_O 	O 	0.1826	0.97566	0.52587	-0.664
Mof_O 	O 	0.20215	0.85911	0.67285	-0.69
Mof_O 	O 	0.19451	0.83958	0.70939	-0.649
Mof_O 	O 	0.17292	0.8626	0.74907	-0.663
Mof_O 	O 	0.16075	0.90284	0.74779	-0.781
Mof_O 	O 	0.12316	0.94537	0.69641	-0.781
Mof_O 	O 	0.09956	0.93558	0.66299	-0.68
Mof_O 	O 	0.13832	0.90157	0.6744	-1.5
Mof_O 	O 	0.16934	0.8834	0.70276	-1.146
Mof_C 	C 	0.14375	0.91657	0.61815	0.509
Mof_C 	C 	0.14944	0.93201	0.59619	-0.135
Mof_C 	C 	0.1334	0.94567	0.58208	-0.001
Mof_H 	H 	0.1163	0.9466	0.5849	0.044
Mof_C 	C 	0.14616	0.95843	0.56235	0.021
Mof_H 	H 	0.1383	0.969	0.5511	0.035
Mof_C 	C 	0.1707	0.95354	0.56179	-0.161
Mof_C 	C 	0.18997	0.9633	0.54429	0.545
Mof_C 	C 	0.20716	0.84391	0.68993	0.516
Mof_C 	C 	0.23054	0.82945	0.68673	-0.143
Mof_C 	C 	0.2388	0.80944	0.69987	0.012
Mof_H 	H 	0.2305	0.8027	0.7135	0.04
Mof_C 	C 	0.17295	0.88468	0.75655	0.534
Mof_C 	C 	0.18945	0.89101	0.77822	-0.172
Mof_C 	C 	0.19296	0.91352	0.78857	0.002
Mof_H 	H 	0.1841	0.9276	0.784	-0.011
Mof_C 	C 	0.10953	0.95064	0.67816	0.535
Mof_C 	C 	0.10529	0.97727	0.67279	-0.154
Mof_C 	C 	0.0931	0.9868	0.6528	0.008
Mof_H 	H 	0.0856	0.9771	0.6405	0.04
Mof_O 	O 	0.18228	0.86107	0.62811	-0.664
Mof_S 	S 	0.23434	0.8212	0.5988	0.02
Mof_C 	C 	0.2563	0.8642	0.6033	-0.046
Mof_C 	C 	0.2173	0.8461	0.6093	-0.09
Mof_C 	C 	0.1911	0.8403	0.6221	0.433
Mof_C 	C 	0.2338	0.8679	0.6097	0.019
Mof_C 	C 	0.2606	0.8385	0.5948	-0.096
Mof_Zr	Zr	0.78756	0.63783	0.59129	3.173
Mof_Zr	Zr	0.83878	0.66721	0.62043	3.194
Mof_S 	S 	0.91446	0.67951	0.56576	0.04
Mof_O 	O 	0.87543	0.6212	0.58529	-0.638
Mof_O 	O 	0.87116	0.66232	0.59337	-0.686
Mof_O 	O 	0.95049	0.71193	0.54231	-0.778
Mof_O 	O 	0.97413	0.6826	0.52434	-0.664
Mof_O 	O 	0.82715	0.70215	0.64089	-0.69
Mof_O 	O 	0.79061	0.69451	0.66042	-0.649
Mof_O 	O 	0.75093	0.67292	0.6374	-0.663
Mof_O 	O 	0.75221	0.66075	0.59716	-0.781
Mof_O 	O 	0.80359	0.62316	0.55463	-0.781
Mof_O 	O 	0.83701	0.59956	0.56442	-0.68
Mof_O 	O 	0.8256	0.63832	0.59843	-1.5
Mof_O 	O 	0.79724	0.66934	0.6166	-1.146
Mof_C 	C 	0.88185	0.64375	0.58343	0.509
Mof_C 	C 	0.90381	0.64944	0.56799	-0.135
Mof_C 	C 	0.91792	0.6334	0.55433	-0.001
Mof_H 	H 	0.9151	0.6163	0.5534	0.044
Mof_C 	C 	0.93765	0.64616	0.54157	0.021
Mof_H 	H 	0.9489	0.6383	0.531	0.035
Mof_C 	C 	0.93821	0.6707	0.54646	-0.161
Mof_C 	C 	0.95571	0.68997	0.5367	0.545
Mof_C 	C 	0.81007	0.70716	0.65609	0.516
Mof_C 	C 	0.81327	0.73054	0.67055	-0.143
Mof_C 	C 	0.80013	0.7388	0.69056	0.012
Mof_H 	H 	0.7865	0.7305	0.6973	0.04
Mof_C 	C 	0.74345	0.67295	0.61532	0.534
Mof_C 	C 	0.72178	0.68945	0.60899	-0.172
Mof_C 	C 	0.71143	0.69296	0.58648	0.002
Mof_H 	H 	0.716	0.6841	0.5724	-0.011
Mof_C 	C 	0.82184	0.60953	0.54936	0.535
Mof_C 	C 	0.82721	0.60529	0.52273	-0.154
Mof_C 	C 	0.8472	0.5931	0.5132	0.008
Mof_H 	H 	0.8595	0.5856	0.5229	0.04
Mof_O 	O 	0.87189	0.68228	0.63893	-0.664
Mof_S 	S 	0.9012	0.73434	0.6788	0.02
Mof_C 	C 	0.8967	0.7563	0.6358	-0.046
Mof_C 	C 	0.8907	0.7173	0.6539	-0.09
Mof_C 	C 	0.8779	0.6911	0.6597	0.433
Mof_C 	C 	0.8903	0.7338	0.6321	0.019
Mof_C 	C 	0.9052	0.7606	0.6615	-0.096
Mof_Zr	Zr	0.28756	0.13783	0.09129	3.173
Mof_Zr	Zr	0.33878	0.16721	0.12043	3.194
Mof_S 	S 	0.41446	0.17951	0.06576	0.04
Mof_O 	O 	0.37543	0.1212	0.08529	-0.638
Mof_O 	O 	0.37116	0.16232	0.09337	-0.686
Mof_O 	O 	0.45049	0.21193	0.04231	-0.778
Mof_O 	O 	0.47413	0.1826	0.02434	-0.664
Mof_O 	O 	0.32715	0.20215	0.14089	-0.69
Mof_O 	O 	0.29061	0.19451	0.16042	-0.649
Mof_O 	O 	0.25093	0.17292	0.1374	-0.663
Mof_O 	O 	0.25221	0.16075	0.09716	-0.781
Mof_O 	O 	0.30359	0.12316	0.05463	-0.781
Mof_O 	O 	0.33701	0.09956	0.06442	-0.68
Mof_O 	O 	0.3256	0.13832	0.09843	-1.5
Mof_O 	O 	0.29724	0.16934	0.1166	-1.146
Mof_C 	C 	0.38185	0.14375	0.08343	0.509
Mof_C 	C 	0.40381	0.14944	0.06799	-0.135
Mof_C 	C 	0.41792	0.1334	0.05433	-0.001
Mof_H 	H 	0.4151	0.1163	0.0534	0.044
Mof_C 	C 	0.43765	0.14616	0.04157	0.021
Mof_H 	H 	0.4489	0.1383	0.031	0.035
Mof_C 	C 	0.43821	0.1707	0.04646	-0.161
Mof_C 	C 	0.45571	0.18997	0.0367	0.545
Mof_C 	C 	0.31007	0.20716	0.15609	0.516
Mof_C 	C 	0.31327	0.23054	0.17055	-0.143
Mof_C 	C 	0.30013	0.2388	0.19056	0.012
Mof_H 	H 	0.2865	0.2305	0.1973	0.04
Mof_C 	C 	0.24345	0.17295	0.11532	0.534
Mof_C 	C 	0.22178	0.18945	0.10899	-0.172
Mof_C 	C 	0.21143	0.19296	0.08648	0.002
Mof_H 	H 	0.216	0.1841	0.0724	-0.011
Mof_C 	C 	0.32184	0.10953	0.04936	0.535
Mof_C 	C 	0.32721	0.10529	0.02273	-0.154
Mof_C 	C 	0.3472	0.0931	0.0132	0.007
Mof_H 	H 	0.3595	0.0856	0.0229	0.04
Mof_O 	O 	0.37189	0.18228	0.13893	-0.664
Mof_S 	S 	0.4012	0.23434	0.1788	0.02
Mof_C 	C 	0.3967	0.2563	0.1358	-0.046
Mof_C 	C 	0.3907	0.2173	0.1539	-0.09
Mof_C 	C 	0.3779	0.1911	0.1597	0.433
Mof_C 	C 	0.3903	0.2338	0.1321	0.019
Mof_C 	C 	0.4052	0.2606	0.1615	-0.096
Mof_Zr	Zr	0.78756	0.36217	0.40871	3.173
Mof_Zr	Zr	0.83878	0.33279	0.37957	3.194
Mof_S 	S 	0.91446	0.32049	0.43424	0.04
Mof_O 	O 	0.87543	0.3788	0.41471	-0.638
Mof_O 	O 	0.87116	0.33768	0.40663	-0.686
Mof_O 	O 	0.95049	0.28807	0.45769	-0.778
Mof_O 	O 	0.97413	0.3174	0.47566	-0.664
Mof_O 	O 	0.82715	0.29785	0.35911	-0.69
Mof_O 	O 	0.79061	0.30549	0.33958	-0.649
Mof_O 	O 	0.75093	0.32708	0.3626	-0.663
Mof_O 	O 	0.75221	0.33925	0.40284	-0.781
Mof_O 	O 	0.80359	0.37684	0.44537	-0.781
Mof_O 	O 	0.83701	0.40044	0.43558	-0.68
Mof_O 	O 	0.8256	0.36168	0.40157	-1.5
Mof_O 	O 	0.79724	0.33066	0.3834	-1.146
Mof_C 	C 	0.88185	0.35625	0.41657	0.509
Mof_C 	C 	0.90381	0.35056	0.43201	-0.135
Mof_C 	C 	0.91792	0.3666	0.44567	-0.001
Mof_H 	H 	0.9151	0.3837	0.4466	0.044
Mof_C 	C 	0.93765	0.35384	0.45843	0.021
Mof_H 	H 	0.9489	0.3617	0.469	0.035
Mof_C 	C 	0.93821	0.3293	0.45354	-0.161
Mof_C 	C 	0.95571	0.31003	0.4633	0.545
Mof_C 	C 	0.81007	0.29284	0.34391	0.516
Mof_C 	C 	0.81327	0.26946	0.32945	-0.143
Mof_C 	C 	0.80013	0.2612	0.30944	0.012
Mof_H 	H 	0.7865	0.2695	0.3027	0.04
Mof_C 	C 	0.74345	0.32705	0.38468	0.534
Mof_C 	C 	0.72178	0.31055	0.39101	-0.172
Mof_C 	C 	0.71143	0.30704	0.41352	0.002
Mof_H 	H 	0.716	0.3159	0.4276	-0.011
Mof_C 	C 	0.82184	0.39047	0.45064	0.535
Mof_C 	C 	0.82721	0.39471	0.47727	-0.154
Mof_C 	C 	0.8472	0.4069	0.4868	0.008
Mof_H 	H 	0.8595	0.4144	0.4771	0.04
Mof_O 	O 	0.87189	0.31772	0.36107	-0.664
Mof_S 	S 	0.9012	0.26566	0.3212	0.02
Mof_C 	C 	0.8967	0.2437	0.3642	-0.046
Mof_C 	C 	0.8907	0.2827	0.3461	-0.09
Mof_C 	C 	0.8779	0.3089	0.3403	0.433
Mof_C 	C 	0.8903	0.2662	0.3679	0.019
Mof_C 	C 	0.9052	0.2394	0.3385	-0.096
Mof_Zr	Zr	0.28756	0.86217	0.90871	3.173
Mof_Zr	Zr	0.33878	0.83279	0.87957	3.194
Mof_S 	S 	0.41446	0.82049	0.93424	0.04
Mof_O 	O 	0.37543	0.8788	0.91471	-0.638
Mof_O 	O 	0.37116	0.83768	0.90663	-0.686
Mof_O 	O 	0.45049	0.78807	0.95769	-0.778
Mof_O 	O 	0.47413	0.8174	0.97566	-0.664
Mof_O 	O 	0.32715	0.79785	0.85911	-0.69
Mof_O 	O 	0.29061	0.80549	0.83958	-0.649
Mof_O 	O 	0.25093	0.82708	0.8626	-0.663
Mof_O 	O 	0.25221	0.83925	0.90284	-0.781
Mof_O 	O 	0.30359	0.87684	0.94537	-0.781
Mof_O 	O 	0.33701	0.90044	0.93558	-0.68
Mof_O 	O 	0.3256	0.86168	0.90157	-1.5
Mof_O 	O 	0.29724	0.83066	0.8834	-1.146
Mof_C 	C 	0.38185	0.85625	0.91657	0.509
Mof_C 	C 	0.40381	0.85056	0.93201	-0.135
Mof_C 	C 	0.41792	0.8666	0.94567	-0.001
Mof_H 	H 	0.4151	0.8837	0.9466	0.044
Mof_C 	C 	0.43765	0.85384	0.95843	0.021
Mof_H 	H 	0.4489	0.8617	0.969	0.035
Mof_C 	C 	0.43821	0.8293	0.95354	-0.161
Mof_C 	C 	0.45571	0.81003	0.9633	0.545
Mof_C 	C 	0.31007	0.79284	0.84391	0.516
Mof_C 	C 	0.31327	0.76946	0.82945	-0.143
Mof_C 	C 	0.30013	0.7612	0.80944	0.012
Mof_H 	H 	0.2865	0.7695	0.8027	0.04
Mof_C 	C 	0.24345	0.82705	0.88468	0.534
Mof_C 	C 	0.22178	0.81055	0.89101	-0.172
Mof_C 	C 	0.21143	0.80704	0.91352	0.002
Mof_H 	H 	0.216	0.8159	0.9276	-0.011
Mof_C 	C 	0.32184	0.89047	0.95064	0.535
Mof_C 	C 	0.32721	0.89471	0.97727	-0.154
Mof_C 	C 	0.3472	0.9069	0.9868	0.008
Mof_H 	H 	0.3595	0.9144	0.9771	0.04
Mof_O 	O 	0.37189	0.81772	0.86107	-0.664
Mof_S 	S 	0.4012	0.76566	0.8212	0.02
Mof_C 	C 	0.3967	0.7437	0.8642	-0.046
Mof_C 	C 	0.3907	0.7827	0.8461	-0.09
Mof_C 	C 	0.3779	0.8089	0.8403	0.432
Mof_C 	C 	0.3903	0.7662	0.8679	0.019
Mof_C 	C 	0.4052	0.7394	0.8385	-0.096
Mof_Zr	Zr	0.21244	0.36217	0.59129	3.173
Mof_Zr	Zr	0.16122	0.33279	0.62043	3.194
Mof_S 	S 	0.08554	0.32049	0.56576	0.04
Mof_O 	O 	0.12457	0.3788	0.58529	-0.638
Mof_O 	O 	0.12884	0.33768	0.59337	-0.686
Mof_O 	O 	0.04951	0.28807	0.54231	-0.778
Mof_O 	O 	0.02587	0.3174	0.52434	-0.664
Mof_O 	O 	0.17285	0.29785	0.64089	-0.69
Mof_O 	O 	0.20939	0.30549	0.66042	-0.649
Mof_O 	O 	0.24907	0.32708	0.6374	-0.663
Mof_O 	O 	0.24779	0.33925	0.59716	-0.781
Mof_O 	O 	0.19641	0.37684	0.55463	-0.781
Mof_O 	O 	0.16299	0.40044	0.56442	-0.68
Mof_O 	O 	0.1744	0.36168	0.59843	-1.5
Mof_O 	O 	0.20276	0.33066	0.6166	-1.146
Mof_C 	C 	0.11815	0.35625	0.58343	0.509
Mof_C 	C 	0.09619	0.35056	0.56799	-0.135
Mof_C 	C 	0.08208	0.3666	0.55433	-0.001
Mof_H 	H 	0.0849	0.3837	0.5534	0.044
Mof_C 	C 	0.06235	0.35384	0.54157	0.021
Mof_H 	H 	0.0511	0.3617	0.531	0.035
Mof_C 	C 	0.06179	0.3293	0.54646	-0.161
Mof_C 	C 	0.04429	0.31003	0.5367	0.545
Mof_C 	C 	0.18993	0.29284	0.65609	0.516
Mof_C 	C 	0.18673	0.26946	0.67055	-0.143
Mof_C 	C 	0.19987	0.2612	0.69056	0.012
Mof_H 	H 	0.2135	0.2695	0.6973	0.04
Mof_C 	C 	0.25655	0.32705	0.61532	0.534
Mof_C 	C 	0.27822	0.31055	0.60899	-0.172
Mof_C 	C 	0.28857	0.30704	0.58648	0.002
Mof_H 	H 	0.284	0.3159	0.5724	-0.011
Mof_C 	C 	0.17816	0.39047	0.54936	0.535
Mof_C 	C 	0.17279	0.39471	0.52273	-0.154
Mof_C 	C 	0.1528	0.4069	0.5132	0.008
Mof_H 	H 	0.1405	0.4144	0.5229	0.04
Mof_O 	O 	0.12811	0.31772	0.63893	-0.664
Mof_S 	S 	0.0988	0.26566	0.6788	0.02
Mof_C 	C 	0.1033	0.2437	0.6358	-0.046
Mof_C 	C 	0.1093	0.2827	0.6539	-0.09
Mof_C 	C 	0.1221	0.3089	0.6597	0.432
Mof_C 	C 	0.1097	0.2662	0.6321	0.019
Mof_C 	C 	0.0948	0.2394	0.6615	-0.096
Mof_Zr	Zr	0.71244	0.86217	0.09129	3.173
Mof_Zr	Zr	0.66122	0.83279	0.12043	3.194
Mof_S 	S 	0.58554	0.82049	0.06576	0.04
Mof_O 	O 	0.62457	0.8788	0.08529	-0.638
Mof_O 	O 	0.62884	0.83768	0.09337	-0.686
Mof_O 	O 	0.54951	0.78807	0.04231	-0.778
Mof_O 	O 	0.52587	0.8174	0.02434	-0.664
Mof_O 	O 	0.67285	0.79785	0.14089	-0.69
Mof_O 	O 	0.70939	0.80549	0.16042	-0.649
Mof_O 	O 	0.74907	0.82708	0.1374	-0.663
Mof_O 	O 	0.74779	0.83925	0.09716	-0.781
Mof_O 	O 	0.69641	0.87684	0.05463	-0.781
Mof_O 	O 	0.66299	0.90044	0.06442	-0.68
Mof_O 	O 	0.6744	0.86168	0.09843	-1.5
Mof_O 	O 	0.70276	0.83066	0.1166	-1.146
Mof_C 	C 	0.61815	0.85625	0.08343	0.509
Mof_C 	C 	0.59619	0.85056	0.06799	-0.135
Mof_C 	C 	0.58208	0.8666	0.05433	-0.001
Mof_H 	H 	0.5849	0.8837	0.0534	0.044
Mof_C 	C 	0.56235	0.85384	0.04157	0.021
Mof_H 	H 	0.5511	0.8617	0.031	0.035
Mof_C 	C 	0.56179	0.8293	0.04646	-0.161
Mof_C 	C 	0.54429	0.81003	0.0367	0.545
Mof_C 	C 	0.68993	0.79284	0.15609	0.516
Mof_C 	C 	0.68673	0.76946	0.17055	-0.143
Mof_C 	C 	0.69987	0.7612	0.19056	0.012
Mof_H 	H 	0.7135	0.7695	0.1973	0.04
Mof_C 	C 	0.75655	0.82705	0.11532	0.534
Mof_C 	C 	0.77822	0.81055	0.10899	-0.172
Mof_C 	C 	0.78857	0.80704	0.08648	0.002
Mof_H 	H 	0.784	0.8159	0.0724	-0.011
Mof_C 	C 	0.67816	0.89047	0.04936	0.535
Mof_C 	C 	0.67279	0.89471	0.02273	-0.154
Mof_C 	C 	0.6528	0.9069	0.0132	0.007
Mof_H 	H 	0.6405	0.9144	0.0229	0.04
Mof_O 	O 	0.62811	0.81772	0.13893	-0.664
Mof_S 	S 	0.5988	0.76566	0.1788	0.02
Mof_C 	C 	0.6033	0.7437	0.1358	-0.046
Mof_C 	C 	0.6093	0.7827	0.1539	-0.09
Mof_C 	C 	0.6221	0.8089	0.1597	0.433
Mof_C 	C 	0.6097	0.7662	0.1321	0.019
Mof_C 	C 	0.5948	0.7394	0.1615	-0.096
Mof_Zr	Zr	0.21244	0.63783	0.40871	3.173
Mof_Zr	Zr	0.16122	0.66721	0.37957	3.194
Mof_S 	S 	0.08554	0.67951	0.43424	0.04
Mof_O 	O 	0.12457	0.6212	0.41471	-0.638
Mof_O 	O 	0.12884	0.66232	0.40663	-0.686
Mof_O 	O 	0.04951	0.71193	0.45769	-0.778
Mof_O 	O 	0.02587	0.6826	0.47566	-0.664
Mof_O 	O 	0.17285	0.70215	0.35911	-0.69
Mof_O 	O 	0.20939	0.69451	0.33958	-0.649
Mof_O 	O 	0.24907	0.67292	0.3626	-0.663
Mof_O 	O 	0.24779	0.66075	0.40284	-0.781
Mof_O 	O 	0.19641	0.62316	0.44537	-0.781
Mof_O 	O 	0.16299	0.59956	0.43558	-0.68
Mof_O 	O 	0.1744	0.63832	0.40157	-1.5
Mof_O 	O 	0.20276	0.66934	0.3834	-1.146
Mof_C 	C 	0.11815	0.64375	0.41657	0.509
Mof_C 	C 	0.09619	0.64944	0.43201	-0.135
Mof_C 	C 	0.08208	0.6334	0.44567	-0.001
Mof_H 	H 	0.0849	0.6163	0.4466	0.044
Mof_C 	C 	0.06235	0.64616	0.45843	0.021
Mof_H 	H 	0.0511	0.6383	0.469	0.035
Mof_C 	C 	0.06179	0.6707	0.45354	-0.161
Mof_C 	C 	0.04429	0.68997	0.4633	0.545
Mof_C 	C 	0.18993	0.70716	0.34391	0.516
Mof_C 	C 	0.18673	0.73054	0.32945	-0.143
Mof_C 	C 	0.19987	0.7388	0.30944	0.012
Mof_H 	H 	0.2135	0.7305	0.3027	0.04
Mof_C 	C 	0.25655	0.67295	0.38468	0.534
Mof_C 	C 	0.27822	0.68945	0.39101	-0.172
Mof_C 	C 	0.28857	0.69296	0.41352	0.002
Mof_H 	H 	0.284	0.6841	0.4276	-0.011
Mof_C 	C 	0.17816	0.60953	0.45064	0.535
Mof_C 	C 	0.17279	0.60529	0.47727	-0.154
Mof_C 	C 	0.1528	0.5931	0.4868	0.008
Mof_H 	H 	0.1405	0.5856	0.4771	0.04
Mof_O 	O 	0.12811	0.68228	0.36107	-0.664
Mof_S 	S 	0.0988	0.73434	0.3212	0.02
Mof_C 	C 	0.1033	0.7563	0.3642	-0.046
Mof_C 	C 	0.1093	0.7173	0.3461	-0.09
Mof_C 	C 	0.1221	0.6911	0.3403	0.432
Mof_C 	C 	0.1097	0.7338	0.3679	0.019
Mof_C 	C 	0.0948	0.7606	0.3385	-0.096
Mof_Zr	Zr	0.71244	0.13783	0.90871	3.173
Mof_Zr	Zr	0.66122	0.16721	0.87957	3.194
Mof_S 	S 	0.58554	0.17951	0.93424	0.04
Mof_O 	O 	0.62457	0.1212	0.91471	-0.638
Mof_O 	O 	0.62884	0.16232	0.90663	-0.686
Mof_O 	O 	0.54951	0.21193	0.95769	-0.778
Mof_O 	O 	0.52587	0.1826	0.97566	-0.664
Mof_O 	O 	0.67285	0.20215	0.85911	-0.69
Mof_O 	O 	0.70939	0.19451	0.83958	-0.649
Mof_O 	O 	0.74907	0.17292	0.8626	-0.663
Mof_O 	O 	0.74779	0.16075	0.90284	-0.781
Mof_O 	O 	0.69641	0.12316	0.94537	-0.781
Mof_O 	O 	0.66299	0.09956	0.93558	-0.68
Mof_O 	O 	0.6744	0.13832	0.90157	-1.5
Mof_O 	O 	0.70276	0.16934	0.8834	-1.146
Mof_C 	C 	0.61815	0.14375	0.91657	0.509
Mof_C 	C 	0.59619	0.14944	0.93201	-0.135
Mof_C 	C 	0.58208	0.1334	0.94567	-0.001
Mof_H 	H 	0.5849	0.1163	0.9466	0.044
Mof_C 	C 	0.56235	0.14616	0.95843	0.021
Mof_H 	H 	0.5511	0.1383	0.969	0.035
Mof_C 	C 	0.56179	0.1707	0.95354	-0.161
Mof_C 	C 	0.54429	0.18997	0.9633	0.545
Mof_C 	C 	0.68993	0.20716	0.84391	0.516
Mof_C 	C 	0.68673	0.23054	0.82945	-0.143
Mof_C 	C 	0.69987	0.2388	0.80944	0.012
Mof_H 	H 	0.7135	0.2305	0.8027	0.04
Mof_C 	C 	0.75655	0.17295	0.88468	0.534
Mof_C 	C 	0.77822	0.18945	0.89101	-0.172
Mof_C 	C 	0.78857	0.19296	0.91352	0.002
Mof_H 	H 	0.784	0.1841	0.9276	-0.011
Mof_C 	C 	0.67816	0.10953	0.95064	0.535
Mof_C 	C 	0.67279	0.10529	0.97727	-0.154
Mof_C 	C 	0.6528	0.0931	0.9868	0.008
Mof_H 	H 	0.6405	0.0856	0.9771	0.04
Mof_O 	O 	0.62811	0.18228	0.86107	-0.664
Mof_S 	S 	0.5988	0.23434	0.8212	0.02
Mof_C 	C 	0.6033	0.2563	0.8642	-0.046
Mof_C 	C 	0.6093	0.2173	0.8461	-0.09
Mof_C 	C 	0.6221	0.1911	0.8403	0.433
Mof_C 	C 	0.6097	0.2338	0.8679	0.019
Mof_C 	C 	0.5948	0.2606	0.8385	-0.096
Mof_Zr	Zr	0.59129	0.78756	0.63783	3.173
Mof_Zr	Zr	0.62043	0.83878	0.66721	3.194
Mof_S 	S 	0.56576	0.91446	0.67951	0.04
Mof_O 	O 	0.58529	0.87543	0.6212	-0.638
Mof_O 	O 	0.59337	0.87116	0.66232	-0.686
Mof_O 	O 	0.54231	0.95049	0.71193	-0.778
Mof_O 	O 	0.52434	0.97413	0.6826	-0.664
Mof_O 	O 	0.64089	0.82715	0.70215	-0.69
Mof_O 	O 	0.66042	0.79061	0.69451	-0.649
Mof_O 	O 	0.6374	0.75093	0.67292	-0.663
Mof_O 	O 	0.59716	0.75221	0.66075	-0.781
Mof_O 	O 	0.55463	0.80359	0.62316	-0.781
Mof_O 	O 	0.56442	0.83701	0.59956	-0.68
Mof_O 	O 	0.59843	0.8256	0.63832	-1.5
Mof_O 	O 	0.6166	0.79724	0.66934	-1.146
Mof_C 	C 	0.58343	0.88185	0.64375	0.509
Mof_C 	C 	0.56799	0.90381	0.64944	-0.135
Mof_C 	C 	0.55433	0.91792	0.6334	-0.001
Mof_H 	H 	0.5534	0.9151	0.6163	0.044
Mof_C 	C 	0.54157	0.93765	0.64616	0.021
Mof_H 	H 	0.531	0.9489	0.6383	0.035
Mof_C 	C 	0.54646	0.93821	0.6707	-0.161
Mof_C 	C 	0.5367	0.95571	0.68997	0.545
Mof_C 	C 	0.65609	0.81007	0.70716	0.516
Mof_C 	C 	0.67055	0.81327	0.73054	-0.143
Mof_C 	C 	0.69056	0.80013	0.7388	0.012
Mof_H 	H 	0.6973	0.7865	0.7305	0.04
Mof_C 	C 	0.61532	0.74345	0.67295	0.534
Mof_C 	C 	0.60899	0.72178	0.68945	-0.172
Mof_C 	C 	0.58648	0.71143	0.69296	0.002
Mof_H 	H 	0.5724	0.716	0.6841	-0.011
Mof_C 	C 	0.54936	0.82184	0.60953	0.535
Mof_C 	C 	0.52273	0.82721	0.60529	-0.154
Mof_C 	C 	0.5132	0.8472	0.5931	0.008
Mof_H 	H 	0.5229	0.8595	0.5856	0.04
Mof_O 	O 	0.63893	0.87189	0.68228	-0.664
Mof_S 	S 	0.6788	0.9012	0.73434	0.02
Mof_C 	C 	0.6358	0.8967	0.7563	-0.046
Mof_C 	C 	0.6539	0.8907	0.7173	-0.09
Mof_C 	C 	0.6597	0.8779	0.6911	0.433
Mof_C 	C 	0.6321	0.8903	0.7338	0.019
Mof_C 	C 	0.6615	0.9052	0.7606	-0.096
Mof_Zr	Zr	0.09129	0.28756	0.13783	3.173
Mof_Zr	Zr	0.12043	0.33878	0.16721	3.194
Mof_S 	S 	0.06576	0.41446	0.17951	0.04
Mof_O 	O 	0.08529	0.37543	0.1212	-0.638
Mof_O 	O 	0.09337	0.37116	0.16232	-0.686
Mof_O 	O 	0.04231	0.45049	0.21193	-0.778
Mof_O 	O 	0.02434	0.47413	0.1826	-0.664
Mof_O 	O 	0.14089	0.32715	0.20215	-0.69
Mof_O 	O 	0.16042	0.29061	0.19451	-0.649
Mof_O 	O 	0.1374	0.25093	0.17292	-0.663
Mof_O 	O 	0.09716	0.25221	0.16075	-0.781
Mof_O 	O 	0.05463	0.30359	0.12316	-0.781
Mof_O 	O 	0.06442	0.33701	0.09956	-0.68
Mof_O 	O 	0.09843	0.3256	0.13832	-1.5
Mof_O 	O 	0.1166	0.29724	0.16934	-1.146
Mof_C 	C 	0.08343	0.38185	0.14375	0.509
Mof_C 	C 	0.06799	0.40381	0.14944	-0.135
Mof_C 	C 	0.05433	0.41792	0.1334	-0.001
Mof_H 	H 	0.0534	0.4151	0.1163	0.044
Mof_C 	C 	0.04157	0.43765	0.14616	0.021
Mof_H 	H 	0.031	0.4489	0.1383	0.035
Mof_C 	C 	0.04646	0.43821	0.1707	-0.161
Mof_C 	C 	0.0367	0.45571	0.18997	0.545
Mof_C 	C 	0.15609	0.31007	0.20716	0.516
Mof_C 	C 	0.17055	0.31327	0.23054	-0.143
Mof_C 	C 	0.19056	0.30013	0.2388	0.012
Mof_H 	H 	0.1973	0.2865	0.2305	0.04
Mof_C 	C 	0.11532	0.24345	0.17295	0.534
Mof_C 	C 	0.10899	0.22178	0.18945	-0.172
Mof_C 	C 	0.08648	0.21143	0.19296	0.002
Mof_H 	H 	0.0724	0.216	0.1841	-0.011
Mof_C 	C 	0.04936	0.32184	0.10953	0.535
Mof_C 	C 	0.02273	0.32721	0.10529	-0.154
Mof_C 	C 	0.0132	0.3472	0.0931	0.007
Mof_H 	H 	0.0229	0.3595	0.0856	0.04
Mof_O 	O 	0.13893	0.37189	0.18228	-0.664
Mof_S 	S 	0.1788	0.4012	0.23434	0.02
Mof_C 	C 	0.1358	0.3967	0.2563	-0.046
Mof_C 	C 	0.1539	0.3907	0.2173	-0.09
Mof_C 	C 	0.1597	0.3779	0.1911	0.433
Mof_C 	C 	0.1321	0.3903	0.2338	0.019
Mof_C 	C 	0.1615	0.4052	0.2606	-0.096
Mof_Zr	Zr	0.40871	0.78756	0.36217	3.173
Mof_Zr	Zr	0.37957	0.83878	0.33279	3.194
Mof_S 	S 	0.43424	0.91446	0.32049	0.04
Mof_O 	O 	0.41471	0.87543	0.3788	-0.638
Mof_O 	O 	0.40663	0.87116	0.33768	-0.686
Mof_O 	O 	0.45769	0.95049	0.28807	-0.778
Mof_O 	O 	0.47566	0.97413	0.3174	-0.664
Mof_O 	O 	0.35911	0.82715	0.29785	-0.69
Mof_O 	O 	0.33958	0.79061	0.30549	-0.649
Mof_O 	O 	0.3626	0.75093	0.32708	-0.663
Mof_O 	O 	0.40284	0.75221	0.33925	-0.781
Mof_O 	O 	0.44537	0.80359	0.37684	-0.781
Mof_O 	O 	0.43558	0.83701	0.40044	-0.68
Mof_O 	O 	0.40157	0.8256	0.36168	-1.5
Mof_O 	O 	0.3834	0.79724	0.33066	-1.146
Mof_C 	C 	0.41657	0.88185	0.35625	0.509
Mof_C 	C 	0.43201	0.90381	0.35056	-0.135
Mof_C 	C 	0.44567	0.91792	0.3666	-0.001
Mof_H 	H 	0.4466	0.9151	0.3837	0.044
Mof_C 	C 	0.45843	0.93765	0.35384	0.021
Mof_H 	H 	0.469	0.9489	0.3617	0.035
Mof_C 	C 	0.45354	0.93821	0.3293	-0.161
Mof_C 	C 	0.4633	0.95571	0.31003	0.545
Mof_C 	C 	0.34391	0.81007	0.29284	0.516
Mof_C 	C 	0.32945	0.81327	0.26946	-0.143
Mof_C 	C 	0.30944	0.80013	0.2612	0.012
Mof_H 	H 	0.3027	0.7865	0.2695	0.04
Mof_C 	C 	0.38468	0.74345	0.32705	0.534
Mof_C 	C 	0.39101	0.72178	0.31055	-0.172
Mof_C 	C 	0.41352	0.71143	0.30704	0.002
Mof_H 	H 	0.4276	0.716	0.3159	-0.011
Mof_C 	C 	0.45064	0.82184	0.39047	0.535
Mof_C 	C 	0.47727	0.82721	0.39471	-0.154
Mof_C 	C 	0.4868	0.8472	0.4069	0.008
Mof_H 	H 	0.4771	0.8595	0.4144	0.04
Mof_O 	O 	0.36107	0.87189	0.31772	-0.664
Mof_S 	S 	0.3212	0.9012	0.26566	0.02
Mof_C 	C 	0.3642	0.8967	0.2437	-0.046
Mof_C 	C 	0.3461	0.8907	0.2827	-0.09
Mof_C 	C 	0.3403	0.8779	0.3089	0.433
Mof_C 	C 	0.3679	0.8903	0.2662	0.019
Mof_C 	C 	0.3385	0.9052	0.2394	-0.096
Mof_Zr	Zr	0.90871	0.28756	0.86217	3.173
Mof_Zr	Zr	0.87957	0.33878	0.83279	3.194
Mof_S 	S 	0.93424	0.41446	0.82049	0.04
Mof_O 	O 	0.91471	0.37543	0.8788	-0.638
Mof_O 	O 	0.90663	0.37116	0.83768	-0.686
Mof_O 	O 	0.95769	0.45049	0.78807	-0.778
Mof_O 	O 	0.97566	0.47413	0.8174	-0.664
Mof_O 	O 	0.85911	0.32715	0.79785	-0.69
Mof_O 	O 	0.83958	0.29061	0.80549	-0.649
Mof_O 	O 	0.8626	0.25093	0.82708	-0.663
Mof_O 	O 	0.90284	0.25221	0.83925	-0.781
Mof_O 	O 	0.94537	0.30359	0.87684	-0.781
Mof_O 	O 	0.93558	0.33701	0.90044	-0.68
Mof_O 	O 	0.90157	0.3256	0.86168	-1.5
Mof_O 	O 	0.8834	0.29724	0.83066	-1.146
Mof_C 	C 	0.91657	0.38185	0.85625	0.509
Mof_C 	C 	0.93201	0.40381	0.85056	-0.135
Mof_C 	C 	0.94567	0.41792	0.8666	-0.001
Mof_H 	H 	0.9466	0.4151	0.8837	0.044
Mof_C 	C 	0.95843	0.43765	0.85384	0.021
Mof_H 	H 	0.969	0.4489	0.8617	0.035
Mof_C 	C 	0.95354	0.43821	0.8293	-0.161
Mof_C 	C 	0.9633	0.45571	0.81003	0.545
Mof_C 	C 	0.84391	0.31007	0.79284	0.516
Mof_C 	C 	0.82945	0.31327	0.76946	-0.143
Mof_C 	C 	0.80944	0.30013	0.7612	0.012
Mof_H 	H 	0.8027	0.2865	0.7695	0.04
Mof_C 	C 	0.88468	0.24345	0.82705	0.534
Mof_C 	C 	0.89101	0.22178	0.81055	-0.172
Mof_C 	C 	0.91352	0.21143	0.80704	0.002
Mof_H 	H 	0.9276	0.216	0.8159	-0.011
Mof_C 	C 	0.95064	0.32184	0.89047	0.535
Mof_C 	C 	0.97727	0.32721	0.89471	-0.154
Mof_C 	C 	0.9868	0.3472	0.9069	0.008
Mof_H 	H 	0.9771	0.3595	0.9144	0.04
Mof_O 	O 	0.86107	0.37189	0.81772	-0.664
Mof_S 	S 	0.8212	0.4012	0.76566	0.02
Mof_C 	C 	0.8642	0.3967	0.7437	-0.046
Mof_C 	C 	0.8461	0.3907	0.7827	-0.09
Mof_C 	C 	0.8403	0.3779	0.8089	0.432
Mof_C 	C 	0.8679	0.3903	0.7662	0.019
Mof_C 	C 	0.8385	0.4052	0.7394	-0.096
Mof_Zr	Zr	0.59129	0.21244	0.36217	3.173
Mof_Zr	Zr	0.62043	0.16122	0.33279	3.194
Mof_S 	S 	0.56576	0.08554	0.32049	0.04
Mof_O 	O 	0.58529	0.12457	0.3788	-0.638
Mof_O 	O 	0.59337	0.12884	0.33768	-0.686
Mof_O 	O 	0.54231	0.04951	0.28807	-0.778
Mof_O 	O 	0.52434	0.02587	0.3174	-0.664
Mof_O 	O 	0.64089	0.17285	0.29785	-0.69
Mof_O 	O 	0.66042	0.20939	0.30549	-0.649
Mof_O 	O 	0.6374	0.24907	0.32708	-0.663
Mof_O 	O 	0.59716	0.24779	0.33925	-0.781
Mof_O 	O 	0.55463	0.19641	0.37684	-0.781
Mof_O 	O 	0.56442	0.16299	0.40044	-0.68
Mof_O 	O 	0.59843	0.1744	0.36168	-1.5
Mof_O 	O 	0.6166	0.20276	0.33066	-1.146
Mof_C 	C 	0.58343	0.11815	0.35625	0.509
Mof_C 	C 	0.56799	0.09619	0.35056	-0.135
Mof_C 	C 	0.55433	0.08208	0.3666	-0.001
Mof_H 	H 	0.5534	0.0849	0.3837	0.044
Mof_C 	C 	0.54157	0.06235	0.35384	0.021
Mof_H 	H 	0.531	0.0511	0.3617	0.035
Mof_C 	C 	0.54646	0.06179	0.3293	-0.161
Mof_C 	C 	0.5367	0.04429	0.31003	0.545
Mof_C 	C 	0.65609	0.18993	0.29284	0.516
Mof_C 	C 	0.67055	0.18673	0.26946	-0.143
Mof_C 	C 	0.69056	0.19987	0.2612	0.012
Mof_H 	H 	0.6973	0.2135	0.2695	0.04
Mof_C 	C 	0.61532	0.25655	0.32705	0.534
Mof_C 	C 	0.60899	0.27822	0.31055	-0.172
Mof_C 	C 	0.58648	0.28857	0.30704	0.002
Mof_H 	H 	0.5724	0.284	0.3159	-0.011
Mof_C 	C 	0.54936	0.17816	0.39047	0.535
Mof_C 	C 	0.52273	0.17279	0.39471	-0.154
Mof_C 	C 	0.5132	0.1528	0.4069	0.008
Mof_H 	H 	0.5229	0.1405	0.4144	0.04
Mof_O 	O 	0.63893	0.12811	0.31772	-0.664
Mof_S 	S 	0.6788	0.0988	0.26566	0.02
Mof_C 	C 	0.6358	0.1033	0.2437	-0.046
Mof_C 	C 	0.6539	0.1093	0.2827	-0.09
Mof_C 	C 	0.6597	0.1221	0.3089	0.432
Mof_C 	C 	0.6321	0.1097	0.2662	0.019
Mof_C 	C 	0.6615	0.0948	0.2394	-0.096
Mof_Zr	Zr	0.09129	0.71244	0.86217	3.173
Mof_Zr	Zr	0.12043	0.66122	0.83279	3.194
Mof_S 	S 	0.06576	0.58554	0.82049	0.04
Mof_O 	O 	0.08529	0.62457	0.8788	-0.638
Mof_O 	O 	0.09337	0.62884	0.83768	-0.686
Mof_O 	O 	0.04231	0.54951	0.78807	-0.778
Mof_O 	O 	0.02434	0.52587	0.8174	-0.664
Mof_O 	O 	0.14089	0.67285	0.79785	-0.69
Mof_O 	O 	0.16042	0.70939	0.80549	-0.649
Mof_O 	O 	0.1374	0.74907	0.82708	-0.663
Mof_O 	O 	0.09716	0.74779	0.83925	-0.781
Mof_O 	O 	0.05463	0.69641	0.87684	-0.781
Mof_O 	O 	0.06442	0.66299	0.90044	-0.68
Mof_O 	O 	0.09843	0.6744	0.86168	-1.5
Mof_O 	O 	0.1166	0.70276	0.83066	-1.146
Mof_C 	C 	0.08343	0.61815	0.85625	0.509
Mof_C 	C 	0.06799	0.59619	0.85056	-0.135
Mof_C 	C 	0.05433	0.58208	0.8666	-0.001
Mof_H 	H 	0.0534	0.5849	0.8837	0.044
Mof_C 	C 	0.04157	0.56235	0.85384	0.021
Mof_H 	H 	0.031	0.5511	0.8617	0.035
Mof_C 	C 	0.04646	0.56179	0.8293	-0.161
Mof_C 	C 	0.0367	0.54429	0.81003	0.545
Mof_C 	C 	0.15609	0.68993	0.79284	0.516
Mof_C 	C 	0.17055	0.68673	0.76946	-0.143
Mof_C 	C 	0.19056	0.69987	0.7612	0.012
Mof_H 	H 	0.1973	0.7135	0.7695	0.04
Mof_C 	C 	0.11532	0.75655	0.82705	0.534
Mof_C 	C 	0.10899	0.77822	0.81055	-0.172
Mof_C 	C 	0.08648	0.78857	0.80704	0.002
Mof_H 	H 	0.0724	0.784	0.8159	-0.011
Mof_C 	C 	0.04936	0.67816	0.89047	0.535
Mof_C 	C 	0.02273	0.67279	0.89471	-0.154
Mof_C 	C 	0.0132	0.6528	0.9069	0.007
Mof_H 	H 	0.0229	0.6405	0.9144	0.04
Mof_O 	O 	0.13893	0.62811	0.81772	-0.664
Mof_S 	S 	0.1788	0.5988	0.76566	0.02
Mof_C 	C 	0.1358	0.6033	0.7437	-0.046
Mof_C 	C 	0.1539	0.6093	0.7827	-0.09
Mof_C 	C 	0.1597	0.6221	0.8089	0.433
Mof_C 	C 	0.1321	0.6097	0.7662	0.019
Mof_C 	C 	0.1615	0.5948	0.7394	-0.096
Mof_Zr	Zr	0.40871	0.21244	0.63783	3.173
Mof_Zr	Zr	0.37957	0.16122	0.66721	3.194
Mof_S 	S 	0.43424	0.08554	0.67951	0.04
Mof_O 	O 	0.41471	0.12457	0.6212	-0.638
Mof_O 	O 	0.40663	0.12884	0.66232	-0.686
Mof_O 	O 	0.45769	0.04951	0.71193	-0.778
Mof_O 	O 	0.47566	0.02587	0.6826	-0.664
Mof_O 	O 	0.35911	0.17285	0.70215	-0.69
Mof_O 	O 	0.33958	0.20939	0.69451	-0.649
Mof_O 	O 	0.3626	0.24907	0.67292	-0.663
Mof_O 	O 	0.40284	0.24779	0.66075	-0.781
Mof_O 	O 	0.44537	0.19641	0.62316	-0.781
Mof_O 	O 	0.43558	0.16299	0.59956	-0.68
Mof_O 	O 	0.40157	0.1744	0.63832	-1.5
Mof_O 	O 	0.3834	0.20276	0.66934	-1.146
Mof_C 	C 	0.41657	0.11815	0.64375	0.509
Mof_C 	C 	0.43201	0.09619	0.64944	-0.135
Mof_C 	C 	0.44567	0.08208	0.6334	-0.001
Mof_H 	H 	0.4466	0.0849	0.6163	0.044
Mof_C 	C 	0.45843	0.06235	0.64616	0.021
Mof_H 	H 	0.469	0.0511	0.6383	0.035
Mof_C 	C 	0.45354	0.06179	0.6707	-0.161
Mof_C 	C 	0.4633	0.04429	0.68997	0.545
Mof_C 	C 	0.34391	0.18993	0.70716	0.516
Mof_C 	C 	0.32945	0.18673	0.73054	-0.143
Mof_C 	C 	0.30944	0.19987	0.7388	0.012
Mof_H 	H 	0.3027	0.2135	0.7305	0.04
Mof_C 	C 	0.38468	0.25655	0.67295	0.534
Mof_C 	C 	0.39101	0.27822	0.68945	-0.172
Mof_C 	C 	0.41352	0.28857	0.69296	0.002
Mof_H 	H 	0.4276	0.284	0.6841	-0.011
Mof_C 	C 	0.45064	0.17816	0.60953	0.535
Mof_C 	C 	0.47727	0.17279	0.60529	-0.154
Mof_C 	C 	0.4868	0.1528	0.5931	0.008
Mof_H 	H 	0.4771	0.1405	0.5856	0.04
Mof_O 	O 	0.36107	0.12811	0.68228	-0.664
Mof_S 	S 	0.3212	0.0988	0.73434	0.02
Mof_C 	C 	0.3642	0.1033	0.7563	-0.046
Mof_C 	C 	0.3461	0.1093	0.7173	-0.09
Mof_C 	C 	0.3403	0.1221	0.6911	0.432
Mof_C 	C 	0.3679	0.1097	0.7338	0.019
Mof_C 	C 	0.3385	0.0948	0.7606	-0.096
Mof_Zr	Zr	0.90871	0.71244	0.13783	3.173
Mof_Zr	Zr	0.87957	0.66122	0.16721	3.194
Mof_S 	S 	0.93424	0.58554	0.17951	0.04
Mof_O 	O 	0.91471	0.62457	0.1212	-0.638
Mof_O 	O 	0.90663	0.62884	0.16232	-0.686
Mof_O 	O 	0.95769	0.54951	0.21193	-0.778
Mof_O 	O 	0.97566	0.52587	0.1826	-0.664
Mof_O 	O 	0.85911	0.67285	0.20215	-0.69
Mof_O 	O 	0.83958	0.70939	0.19451	-0.649
Mof_O 	O 	0.8626	0.74907	0.17292	-0.663
Mof_O 	O 	0.90284	0.74779	0.16075	-0.781
Mof_O 	O 	0.94537	0.69641	0.12316	-0.781
Mof_O 	O 	0.93558	0.66299	0.09956	-0.68
Mof_O 	O 	0.90157	0.6744	0.13832	-1.5
Mof_O 	O 	0.8834	0.70276	0.16934	-1.146
Mof_C 	C 	0.91657	0.61815	0.14375	0.509
Mof_C 	C 	0.93201	0.59619	0.14944	-0.135
Mof_C 	C 	0.94567	0.58208	0.1334	-0.001
Mof_H 	H 	0.9466	0.5849	0.1163	0.044
Mof_C 	C 	0.95843	0.56235	0.14616	0.021
Mof_H 	H 	0.969	0.5511	0.1383	0.035
Mof_C 	C 	0.95354	0.56179	0.1707	-0.161
Mof_C 	C 	0.9633	0.54429	0.18997	0.545
Mof_C 	C 	0.84391	0.68993	0.20716	0.516
Mof_C 	C 	0.82945	0.68673	0.23054	-0.143
Mof_C 	C 	0.80944	0.69987	0.2388	0.012
Mof_H 	H 	0.8027	0.7135	0.2305	0.04
Mof_C 	C 	0.88468	0.75655	0.17295	0.534
Mof_C 	C 	0.89101	0.77822	0.18945	-0.172
Mof_C 	C 	0.91352	0.78857	0.19296	0.002
Mof_H 	H 	0.9276	0.784	0.1841	-0.011
Mof_C 	C 	0.95064	0.67816	0.10953	0.535
Mof_C 	C 	0.97727	0.67279	0.10529	-0.154
Mof_C 	C 	0.9868	0.6528	0.0931	0.008
Mof_H 	H 	0.9771	0.6405	0.0856	0.04
Mof_O 	O 	0.86107	0.62811	0.18228	-0.664
Mof_S 	S 	0.8212	0.5988	0.23434	0.02
Mof_C 	C 	0.8642	0.6033	0.2563	-0.046
Mof_C 	C 	0.8461	0.6093	0.2173	-0.09
Mof_C 	C 	0.8403	0.6221	0.1911	0.433
Mof_C 	C 	0.8679	0.6097	0.2338	0.019
Mof_C 	C 	0.8385	0.5948	0.2606	-0.096
Mof_Zr	Zr	0.59129	0.63783	0.21244	3.173
Mof_Zr	Zr	0.62043	0.66721	0.16122	3.194
Mof_S 	S 	0.56576	0.67951	0.08554	0.04
Mof_O 	O 	0.58529	0.6212	0.12457	-0.638
Mof_O 	O 	0.59337	0.66232	0.12884	-0.686
Mof_O 	O 	0.54231	0.71193	0.04951	-0.778
Mof_O 	O 	0.52434	0.6826	0.02587	-0.664
Mof_O 	O 	0.64089	0.70215	0.17285	-0.69
Mof_O 	O 	0.66042	0.69451	0.20939	-0.649
Mof_O 	O 	0.6374	0.67292	0.24907	-0.663
Mof_O 	O 	0.59716	0.66075	0.24779	-0.781
Mof_O 	O 	0.55463	0.62316	0.19641	-0.781
Mof_O 	O 	0.56442	0.59956	0.16299	-0.68
Mof_O 	O 	0.59843	0.63832	0.1744	-1.5
Mof_O 	O 	0.6166	0.66934	0.20276	-1.146
Mof_C 	C 	0.58343	0.64375	0.11815	0.509
Mof_C 	C 	0.56799	0.64944	0.09619	-0.135
Mof_C 	C 	0.55433	0.6334	0.08208	-0.001
Mof_H 	H 	0.5534	0.6163	0.0849	0.044
Mof_C 	C 	0.54157	0.64616	0.06235	0.021
Mof_H 	H 	0.531	0.6383	0.0511	0.035
Mof_C 	C 	0.54646	0.6707	0.06179	-0.161
Mof_C 	C 	0.5367	0.68997	0.04429	0.545
Mof_C 	C 	0.65609	0.70716	0.18993	0.516
Mof_C 	C 	0.67055	0.73054	0.18673	-0.143
Mof_C 	C 	0.69056	0.7388	0.19987	0.012
Mof_H 	H 	0.6973	0.7305	0.2135	0.04
Mof_C 	C 	0.61532	0.67295	0.25655	0.534
Mof_C 	C 	0.60899	0.68945	0.27822	-0.172
Mof_C 	C 	0.58648	0.69296	0.28857	0.002
Mof_H 	H 	0.5724	0.6841	0.284	-0.011
Mof_C 	C 	0.54936	0.60953	0.17816	0.535
Mof_C 	C 	0.52273	0.60529	0.17279	-0.154
Mof_C 	C 	0.5132	0.5931	0.1528	0.008
Mof_H 	H 	0.5229	0.5856	0.1405	0.04
Mof_O 	O 	0.63893	0.68228	0.12811	-0.664
Mof_S 	S 	0.6788	0.73434	0.0988	0.02
Mof_C 	C 	0.6358	0.7563	0.1033	-0.046
Mof_C 	C 	0.6539	0.7173	0.1093	-0.09
Mof_C 	C 	0.6597	0.6911	0.1221	0.432
Mof_C 	C 	0.6321	0.7338	0.1097	0.019
Mof_C 	C 	0.6615	0.7606	0.0948	-0.096
Mof_Zr	Zr	0.09129	0.13783	0.71244	3.173
Mof_Zr	Zr	0.12043	0.16721	0.66122	3.194
Mof_S 	S 	0.06576	0.17951	0.58554	0.04
Mof_O 	O 	0.08529	0.1212	0.62457	-0.638
Mof_O 	O 	0.09337	0.16232	0.62884	-0.686
Mof_O 	O 	0.04231	0.21193	0.54951	-0.778
Mof_O 	O 	0.02434	0.1826	0.52587	-0.664
Mof_O 	O 	0.14089	0.20215	0.67285	-0.69
Mof_O 	O 	0.16042	0.19451	0.70939	-0.649
Mof_O 	O 	0.1374	0.17292	0.74907	-0.663
Mof_O 	O 	0.09716	0.16075	0.74779	-0.781
Mof_O 	O 	0.05463	0.12316	0.69641	-0.781
Mof_O 	O 	0.06442	0.09956	0.66299	-0.68
Mof_O 	O 	0.09843	0.13832	0.6744	-1.5
Mof_O 	O 	0.1166	0.16934	0.70276	-1.146
Mof_C 	C 	0.08343	0.14375	0.61815	0.509
Mof_C 	C 	0.06799	0.14944	0.59619	-0.135
Mof_C 	C 	0.05433	0.1334	0.58208	-0.001
Mof_H 	H 	0.0534	0.1163	0.5849	0.044
Mof_C 	C 	0.04157	0.14616	0.56235	0.021
Mof_H 	H 	0.031	0.1383	0.5511	0.035
Mof_C 	C 	0.04646	0.1707	0.56179	-0.161
Mof_C 	C 	0.0367	0.18997	0.54429	0.545
Mof_C 	C 	0.15609	0.20716	0.68993	0.516
Mof_C 	C 	0.17055	0.23054	0.68673	-0.143
Mof_C 	C 	0.19056	0.2388	0.69987	0.012
Mof_H 	H 	0.1973	0.2305	0.7135	0.04
Mof_C 	C 	0.11532	0.17295	0.75655	0.534
Mof_C 	C 	0.10899	0.18945	0.77822	-0.172
Mof_C 	C 	0.08648	0.19296	0.78857	0.002
Mof_H 	H 	0.0724	0.1841	0.784	-0.011
Mof_C 	C 	0.04936	0.10953	0.67816	0.535
Mof_C 	C 	0.02273	0.10529	0.67279	-0.154
Mof_C 	C 	0.0132	0.0931	0.6528	0.007
Mof_H 	H 	0.0229	0.0856	0.6405	0.04
Mof_O 	O 	0.13893	0.18228	0.62811	-0.664
Mof_S 	S 	0.1788	0.23434	0.5988	0.02
Mof_C 	C 	0.1358	0.2563	0.6033	-0.046
Mof_C 	C 	0.1539	0.2173	0.6093	-0.09
Mof_C 	C 	0.1597	0.1911	0.6221	0.433
Mof_C 	C 	0.1321	0.2338	0.6097	0.019
Mof_C 	C 	0.1615	0.2606	0.5948	-0.096
Mof_Zr	Zr	0.40871	0.36217	0.21244	3.173
Mof_Zr	Zr	0.37957	0.33279	0.16122	3.194
Mof_S 	S 	0.43424	0.32049	0.08554	0.04
Mof_O 	O 	0.41471	0.3788	0.12457	-0.638
Mof_O 	O 	0.40663	0.33768	0.12884	-0.686
Mof_O 	O 	0.45769	0.28807	0.04951	-0.778
Mof_O 	O 	0.47566	0.3174	0.02587	-0.664
Mof_O 	O 	0.35911	0.29785	0.17285	-0.69
Mof_O 	O 	0.33958	0.30549	0.20939	-0.649
Mof_O 	O 	0.3626	0.32708	0.24907	-0.663
Mof_O 	O 	0.40284	0.33925	0.24779	-0.781
Mof_O 	O 	0.44537	0.37684	0.19641	-0.781
Mof_O 	O 	0.43558	0.40044	0.16299	-0.68
Mof_O 	O 	0.40157	0.36168	0.1744	-1.5
Mof_O 	O 	0.3834	0.33066	0.20276	-1.146
Mof_C 	C 	0.41657	0.35625	0.11815	0.509
Mof_C 	C 	0.43201	0.35056	0.09619	-0.135
Mof_C 	C 	0.44567	0.3666	0.08208	-0.001
Mof_H 	H 	0.4466	0.3837	0.0849	0.044
Mof_C 	C 	0.45843	0.35384	0.06235	0.021
Mof_H 	H 	0.469	0.3617	0.0511	0.035
Mof_C 	C 	0.45354	0.3293	0.06179	-0.161
Mof_C 	C 	0.4633	0.31003	0.04429	0.545
Mof_C 	C 	0.34391	0.29284	0.18993	0.516
Mof_C 	C 	0.32945	0.26946	0.18673	-0.143
Mof_C 	C 	0.30944	0.2612	0.19987	0.012
Mof_H 	H 	0.3027	0.2695	0.2135	0.04
Mof_C 	C 	0.38468	0.32705	0.25655	0.534
Mof_C 	C 	0.39101	0.31055	0.27822	-0.172
Mof_C 	C 	0.41352	0.30704	0.28857	0.002
Mof_H 	H 	0.4276	0.3159	0.284	-0.011
Mof_C 	C 	0.45064	0.39047	0.17816	0.535
Mof_C 	C 	0.47727	0.39471	0.17279	-0.154
Mof_C 	C 	0.4868	0.4069	0.1528	0.008
Mof_H 	H 	0.4771	0.4144	0.1405	0.04
Mof_O 	O 	0.36107	0.31772	0.12811	-0.664
Mof_S 	S 	0.3212	0.26566	0.0988	0.02
Mof_C 	C 	0.3642	0.2437	0.1033	-0.046
Mof_C 	C 	0.3461	0.2827	0.1093	-0.09
Mof_C 	C 	0.3403	0.3089	0.1221	0.432
Mof_C 	C 	0.3679	0.2662	0.1097	0.019
Mof_C 	C 	0.3385	0.2394	0.0948	-0.096
Mof_Zr	Zr	0.90871	0.86217	0.71244	3.173
Mof_Zr	Zr	0.87957	0.83279	0.66122	3.194
Mof_S 	S 	0.93424	0.82049	0.58554	0.04
Mof_O 	O 	0.91471	0.8788	0.62457	-0.638
Mof_O 	O 	0.90663	0.83768	0.62884	-0.686
Mof_O 	O 	0.95769	0.78807	0.54951	-0.778
Mof_O 	O 	0.97566	0.8174	0.52587	-0.664
Mof_O 	O 	0.85911	0.79785	0.67285	-0.69
Mof_O 	O 	0.83958	0.80549	0.70939	-0.649
Mof_O 	O 	0.8626	0.82708	0.74907	-0.663
Mof_O 	O 	0.90284	0.83925	0.74779	-0.781
Mof_O 	O 	0.94537	0.87684	0.69641	-0.781
Mof_O 	O 	0.93558	0.90044	0.66299	-0.68
Mof_O 	O 	0.90157	0.86168	0.6744	-1.5
Mof_O 	O 	0.8834	0.83066	0.70276	-1.146
Mof_C 	C 	0.91657	0.85625	0.61815	0.509
Mof_C 	C 	0.93201	0.85056	0.59619	-0.135
Mof_C 	C 	0.94567	0.8666	0.58208	-0.001
Mof_H 	H 	0.9466	0.8837	0.5849	0.044
Mof_C 	C 	0.95843	0.85384	0.56235	0.021
Mof_H 	H 	0.969	0.8617	0.5511	0.035
Mof_C 	C 	0.95354	0.8293	0.56179	-0.161
Mof_C 	C 	0.9633	0.81003	0.54429	0.545
Mof_C 	C 	0.84391	0.79284	0.68993	0.516
Mof_C 	C 	0.82945	0.76946	0.68673	-0.143
Mof_C 	C 	0.80944	0.7612	0.69987	0.012
Mof_H 	H 	0.8027	0.7695	0.7135	0.04
Mof_C 	C 	0.88468	0.82705	0.75655	0.534
Mof_C 	C 	0.89101	0.81055	0.77822	-0.172
Mof_C 	C 	0.91352	0.80704	0.78857	0.002
Mof_H 	H 	0.9276	0.8159	0.784	-0.011
Mof_C 	C 	0.95064	0.89047	0.67816	0.535
Mof_C 	C 	0.97727	0.89471	0.67279	-0.154
Mof_C 	C 	0.9868	0.9069	0.6528	0.008
Mof_H 	H 	0.9771	0.9144	0.6405	0.04
Mof_O 	O 	0.86107	0.81772	0.62811	-0.664
Mof_S 	S 	0.8212	0.76566	0.5988	0.02
Mof_C 	C 	0.8642	0.7437	0.6033	-0.046
Mof_C 	C 	0.8461	0.7827	0.6093	-0.09
Mof_C 	C 	0.8403	0.8089	0.6221	0.432
Mof_C 	C 	0.8679	0.7662	0.6097	0.019
Mof_C 	C 	0.8385	0.7394	0.5948	-0.096
Mof_Zr	Zr	0.59129	0.36217	0.78756	3.173
Mof_Zr	Zr	0.62043	0.33279	0.83878	3.194
Mof_S 	S 	0.56576	0.32049	0.91446	0.04
Mof_O 	O 	0.58529	0.3788	0.87543	-0.638
Mof_O 	O 	0.59337	0.33768	0.87116	-0.686
Mof_O 	O 	0.54231	0.28807	0.95049	-0.778
Mof_O 	O 	0.52434	0.3174	0.97413	-0.664
Mof_O 	O 	0.64089	0.29785	0.82715	-0.69
Mof_O 	O 	0.66042	0.30549	0.79061	-0.649
Mof_O 	O 	0.6374	0.32708	0.75093	-0.663
Mof_O 	O 	0.59716	0.33925	0.75221	-0.781
Mof_O 	O 	0.55463	0.37684	0.80359	-0.781
Mof_O 	O 	0.56442	0.40044	0.83701	-0.68
Mof_O 	O 	0.59843	0.36168	0.8256	-1.5
Mof_O 	O 	0.6166	0.33066	0.79724	-1.146
Mof_C 	C 	0.58343	0.35625	0.88185	0.509
Mof_C 	C 	0.56799	0.35056	0.90381	-0.135
Mof_C 	C 	0.55433	0.3666	0.91792	-0.001
Mof_H 	H 	0.5534	0.3837	0.9151	0.044
Mof_C 	C 	0.54157	0.35384	0.93765	0.021
Mof_H 	H 	0.531	0.3617	0.9489	0.035
Mof_C 	C 	0.54646	0.3293	0.93821	-0.161
Mof_C 	C 	0.5367	0.31003	0.95571	0.545
Mof_C 	C 	0.65609	0.29284	0.81007	0.516
Mof_C 	C 	0.67055	0.26946	0.81327	-0.143
Mof_C 	C 	0.69056	0.2612	0.80013	0.012
Mof_H 	H 	0.6973	0.2695	0.7865	0.04
Mof_C 	C 	0.61532	0.32705	0.74345	0.534
Mof_C 	C 	0.60899	0.31055	0.72178	-0.172
Mof_C 	C 	0.58648	0.30704	0.71143	0.002
Mof_H 	H 	0.5724	0.3159	0.716	-0.011
Mof_C 	C 	0.54936	0.39047	0.82184	0.535
Mof_C 	C 	0.52273	0.39471	0.82721	-0.154
Mof_C 	C 	0.5132	0.4069	0.8472	0.008
Mof_H 	H 	0.5229	0.4144	0.8595	0.04
Mof_O 	O 	0.63893	0.31772	0.87189	-0.664
Mof_S 	S 	0.6788	0.26566	0.9012	0.02
Mof_C 	C 	0.6358	0.2437	0.8967	-0.046
Mof_C 	C 	0.6539	0.2827	0.8907	-0.09
Mof_C 	C 	0.6597	0.3089	0.8779	0.433
Mof_C 	C 	0.6321	0.2662	0.8903	0.019
Mof_C 	C 	0.6615	0.2394	0.9052	-0.096
Mof_Zr	Zr	0.09129	0.86217	0.28756	3.173
Mof_Zr	Zr	0.12043	0.83279	0.33878	3.194
Mof_S 	S 	0.06576	0.82049	0.41446	0.04
Mof_O 	O 	0.08529	0.8788	0.37543	-0.638
Mof_O 	O 	0.09337	0.83768	0.37116	-0.686
Mof_O 	O 	0.04231	0.78807	0.45049	-0.778
Mof_O 	O 	0.02434	0.8174	0.47413	-0.664
Mof_O 	O 	0.14089	0.79785	0.32715	-0.69
Mof_O 	O 	0.16042	0.80549	0.29061	-0.649
Mof_O 	O 	0.1374	0.82708	0.25093	-0.663
Mof_O 	O 	0.09716	0.83925	0.25221	-0.781
Mof_O 	O 	0.05463	0.87684	0.30359	-0.781
Mof_O 	O 	0.06442	0.90044	0.33701	-0.68
Mof_O 	O 	0.09843	0.86168	0.3256	-1.5
Mof_O 	O 	0.1166	0.83066	0.29724	-1.146
Mof_C 	C 	0.08343	0.85625	0.38185	0.509
Mof_C 	C 	0.06799	0.85056	0.40381	-0.135
Mof_C 	C 	0.05433	0.8666	0.41792	-0.001
Mof_H 	H 	0.0534	0.8837	0.4151	0.044
Mof_C 	C 	0.04157	0.85384	0.43765	0.021
Mof_H 	H 	0.031	0.8617	0.4489	0.035
Mof_C 	C 	0.04646	0.8293	0.43821	-0.161
Mof_C 	C 	0.0367	0.81003	0.45571	0.545
Mof_C 	C 	0.15609	0.79284	0.31007	0.516
Mof_C 	C 	0.17055	0.76946	0.31327	-0.143
Mof_C 	C 	0.19056	0.7612	0.30013	0.012
Mof_H 	H 	0.1973	0.7695	0.2865	0.04
Mof_C 	C 	0.11532	0.82705	0.24345	0.534
Mof_C 	C 	0.10899	0.81055	0.22178	-0.172
Mof_C 	C 	0.08648	0.80704	0.21143	0.002
Mof_H 	H 	0.0724	0.8159	0.216	-0.011
Mof_C 	C 	0.04936	0.89047	0.32184	0.535
Mof_C 	C 	0.02273	0.89471	0.32721	-0.154
Mof_C 	C 	0.0132	0.9069	0.3472	0.007
Mof_H 	H 	0.0229	0.9144	0.3595	0.04
Mof_O 	O 	0.13893	0.81772	0.37189	-0.664
Mof_S 	S 	0.1788	0.76566	0.4012	0.02
Mof_C 	C 	0.1358	0.7437	0.3967	-0.046
Mof_C 	C 	0.1539	0.7827	0.3907	-0.09
Mof_C 	C 	0.1597	0.8089	0.3779	0.433
Mof_C 	C 	0.1321	0.7662	0.3903	0.019
Mof_C 	C 	0.1615	0.7394	0.4052	-0.096
Mof_Zr	Zr	0.40871	0.63783	0.78756	3.173
Mof_Zr	Zr	0.37957	0.66721	0.83878	3.194
Mof_S 	S 	0.43424	0.67951	0.91446	0.04
Mof_O 	O 	0.41471	0.6212	0.87543	-0.638
Mof_O 	O 	0.40663	0.66232	0.87116	-0.686
Mof_O 	O 	0.45769	0.71193	0.95049	-0.778
Mof_O 	O 	0.47566	0.6826	0.97413	-0.664
Mof_O 	O 	0.35911	0.70215	0.82715	-0.69
Mof_O 	O 	0.33958	0.69451	0.79061	-0.649
Mof_O 	O 	0.3626	0.67292	0.75093	-0.663
Mof_O 	O 	0.40284	0.66075	0.75221	-0.781
Mof_O 	O 	0.44537	0.62316	0.80359	-0.781
Mof_O 	O 	0.43558	0.59956	0.83701	-0.68
Mof_O 	O 	0.40157	0.63832	0.8256	-1.5
Mof_O 	O 	0.3834	0.66934	0.79724	-1.146
Mof_C 	C 	0.41657	0.64375	0.88185	0.509
Mof_C 	C 	0.43201	0.64944	0.90381	-0.135
Mof_C 	C 	0.44567	0.6334	0.91792	-0.001
Mof_H 	H 	0.4466	0.6163	0.9151	0.044
Mof_C 	C 	0.45843	0.64616	0.93765	0.021
Mof_H 	H 	0.469	0.6383	0.9489	0.035
Mof_C 	C 	0.45354	0.6707	0.93821	-0.161
Mof_C 	C 	0.4633	0.68997	0.95571	0.545
Mof_C 	C 	0.34391	0.70716	0.81007	0.516
Mof_C 	C 	0.32945	0.73054	0.81327	-0.143
Mof_C 	C 	0.30944	0.7388	0.80013	0.012
Mof_H 	H 	0.3027	0.7305	0.7865	0.04
Mof_C 	C 	0.38468	0.67295	0.74345	0.534
Mof_C 	C 	0.39101	0.68945	0.72178	-0.172
Mof_C 	C 	0.41352	0.69296	0.71143	0.002
Mof_H 	H 	0.4276	0.6841	0.716	-0.011
Mof_C 	C 	0.45064	0.60953	0.82184	0.535
Mof_C 	C 	0.47727	0.60529	0.82721	-0.154
Mof_C 	C 	0.4868	0.5931	0.8472	0.008
Mof_H 	H 	0.4771	0.5856	0.8595	0.04
Mof_O 	O 	0.36107	0.68228	0.87189	-0.664
Mof_S 	S 	0.3212	0.73434	0.9012	0.02
Mof_C 	C 	0.3642	0.7563	0.8967	-0.046
Mof_C 	C 	0.3461	0.7173	0.8907	-0.09
Mof_C 	C 	0.3403	0.6911	0.8779	0.433
Mof_C 	C 	0.3679	0.7338	0.8903	0.019
Mof_C 	C 	0.3385	0.7606	0.9052	-0.096
Mof_Zr	Zr	0.90871	0.13783	0.28756	3.173
Mof_Zr	Zr	0.87957	0.16721	0.33878	3.194
Mof_S 	S 	0.93424	0.17951	0.41446	0.04
Mof_O 	O 	0.91471	0.1212	0.37543	-0.638
Mof_O 	O 	0.90663	0.16232	0.37116	-0.686
Mof_O 	O 	0.95769	0.21193	0.45049	-0.778
Mof_O 	O 	0.97566	0.1826	0.47413	-0.664
Mof_O 	O 	0.85911	0.20215	0.32715	-0.69
Mof_O 	O 	0.83958	0.19451	0.29061	-0.649
Mof_O 	O 	0.8626	0.17292	0.25093	-0.663
Mof_O 	O 	0.90284	0.16075	0.25221	-0.781
Mof_O 	O 	0.94537	0.12316	0.30359	-0.781
Mof_O 	O 	0.93558	0.09956	0.33701	-0.68
Mof_O 	O 	0.90157	0.13832	0.3256	-1.5
Mof_O 	O 	0.8834	0.16934	0.29724	-1.146
Mof_C 	C 	0.91657	0.14375	0.38185	0.509
Mof_C 	C 	0.93201	0.14944	0.40381	-0.135
Mof_C 	C 	0.94567	0.1334	0.41792	-0.001
Mof_H 	H 	0.9466	0.1163	0.4151	0.044
Mof_C 	C 	0.95843	0.14616	0.43765	0.021
Mof_H 	H 	0.969	0.1383	0.4489	0.035
Mof_C 	C 	0.95354	0.1707	0.43821	-0.161
Mof_C 	C 	0.9633	0.18997	0.45571	0.545
Mof_C 	C 	0.84391	0.20716	0.31007	0.516
Mof_C 	C 	0.82945	0.23054	0.31327	-0.143
Mof_C 	C 	0.80944	0.2388	0.30013	0.012
Mof_H 	H 	0.8027	0.2305	0.2865	0.04
Mof_C 	C 	0.88468	0.17295	0.24345	0.534
Mof_C 	C 	0.89101	0.18945	0.22178	-0.172
Mof_C 	C 	0.91352	0.19296	0.21143	0.002
Mof_H 	H 	0.9276	0.1841	0.216	-0.011
Mof_C 	C 	0.95064	0.10953	0.32184	0.535
Mof_C 	C 	0.97727	0.10529	0.32721	-0.154
Mof_C 	C 	0.9868	0.0931	0.3472	0.008
Mof_H 	H 	0.9771	0.0856	0.3595	0.04
Mof_O 	O 	0.86107	0.18228	0.37189	-0.664
Mof_S 	S 	0.8212	0.23434	0.4012	0.02
Mof_C 	C 	0.8642	0.2563	0.3967	-0.046
Mof_C 	C 	0.8461	0.2173	0.3907	-0.09
Mof_C 	C 	0.8403	0.1911	0.3779	0.433
Mof_C 	C 	0.8679	0.2338	0.3903	0.019
Mof_C 	C 	0.8385	0.2606	0.4052	-0.096
Mof_Zr	Zr	0.63783	0.78756	0.40871	3.173
Mof_Zr	Zr	0.66721	0.83878	0.37957	3.194
Mof_S 	S 	0.67951	0.91446	0.43424	0.04
Mof_O 	O 	0.6212	0.87543	0.41471	-0.638
Mof_O 	O 	0.66232	0.87116	0.40663	-0.686
Mof_O 	O 	0.71193	0.95049	0.45769	-0.778
Mof_O 	O 	0.6826	0.97413	0.47566	-0.664
Mof_O 	O 	0.70215	0.82715	0.35911	-0.69
Mof_O 	O 	0.69451	0.79061	0.33958	-0.649
Mof_O 	O 	0.67292	0.75093	0.3626	-0.663
Mof_O 	O 	0.66075	0.75221	0.40284	-0.781
Mof_O 	O 	0.62316	0.80359	0.44537	-0.781
Mof_O 	O 	0.59956	0.83701	0.43558	-0.68
Mof_O 	O 	0.63832	0.8256	0.40157	-1.5
Mof_O 	O 	0.66934	0.79724	0.3834	-1.146
Mof_C 	C 	0.64375	0.88185	0.41657	0.509
Mof_C 	C 	0.64944	0.90381	0.43201	-0.135
Mof_C 	C 	0.6334	0.91792	0.44567	-0.001
Mof_H 	H 	0.6163	0.9151	0.4466	0.044
Mof_C 	C 	0.64616	0.93765	0.45843	0.021
Mof_H 	H 	0.6383	0.9489	0.469	0.035
Mof_C 	C 	0.6707	0.93821	0.45354	-0.161
Mof_C 	C 	0.68997	0.95571	0.4633	0.545
Mof_C 	C 	0.70716	0.81007	0.34391	0.516
Mof_C 	C 	0.73054	0.81327	0.32945	-0.143
Mof_C 	C 	0.7388	0.80013	0.30944	0.012
Mof_H 	H 	0.7305	0.7865	0.3027	0.04
Mof_C 	C 	0.67295	0.74345	0.38468	0.534
Mof_C 	C 	0.68945	0.72178	0.39101	-0.172
Mof_C 	C 	0.69296	0.71143	0.41352	0.002
Mof_H 	H 	0.6841	0.716	0.4276	-0.011
Mof_C 	C 	0.60953	0.82184	0.45064	0.535
Mof_C 	C 	0.60529	0.82721	0.47727	-0.154
Mof_C 	C 	0.5931	0.8472	0.4868	0.008
Mof_H 	H 	0.5856	0.8595	0.4771	0.04
Mof_O 	O 	0.68228	0.87189	0.36107	-0.664
Mof_S 	S 	0.73434	0.9012	0.3212	0.02
Mof_C 	C 	0.7563	0.8967	0.3642	-0.046
Mof_C 	C 	0.7173	0.8907	0.3461	-0.09
Mof_C 	C 	0.6911	0.8779	0.3403	0.433
Mof_C 	C 	0.7338	0.8903	0.3679	0.019
Mof_C 	C 	0.7606	0.9052	0.3385	-0.096
Mof_Zr	Zr	0.13783	0.28756	0.90871	3.173
Mof_Zr	Zr	0.16721	0.33878	0.87957	3.194
Mof_S 	S 	0.17951	0.41446	0.93424	0.04
Mof_O 	O 	0.1212	0.37543	0.91471	-0.638
Mof_O 	O 	0.16232	0.37116	0.90663	-0.686
Mof_O 	O 	0.21193	0.45049	0.95769	-0.778
Mof_O 	O 	0.1826	0.47413	0.97566	-0.664
Mof_O 	O 	0.20215	0.32715	0.85911	-0.69
Mof_O 	O 	0.19451	0.29061	0.83958	-0.649
Mof_O 	O 	0.17292	0.25093	0.8626	-0.663
Mof_O 	O 	0.16075	0.25221	0.90284	-0.781
Mof_O 	O 	0.12316	0.30359	0.94537	-0.781
Mof_O 	O 	0.09956	0.33701	0.93558	-0.68
Mof_O 	O 	0.13832	0.3256	0.90157	-1.5
Mof_O 	O 	0.16934	0.29724	0.8834	-1.146
Mof_C 	C 	0.14375	0.38185	0.91657	0.509
Mof_C 	C 	0.14944	0.40381	0.93201	-0.135
Mof_C 	C 	0.1334	0.41792	0.94567	-0.001
Mof_H 	H 	0.1163	0.4151	0.9466	0.044
Mof_C 	C 	0.14616	0.43765	0.95843	0.021
Mof_H 	H 	0.1383	0.4489	0.969	0.035
Mof_C 	C 	0.1707	0.43821	0.95354	-0.161
Mof_C 	C 	0.18997	0.45571	0.9633	0.545
Mof_C 	C 	0.20716	0.31007	0.84391	0.516
Mof_C 	C 	0.23054	0.31327	0.82945	-0.143
Mof_C 	C 	0.2388	0.30013	0.80944	0.012
Mof_H 	H 	0.2305	0.2865	0.8027	0.04
Mof_C 	C 	0.17295	0.24345	0.88468	0.534
Mof_C 	C 	0.18945	0.22178	0.89101	-0.172
Mof_C 	C 	0.19296	0.21143	0.91352	0.002
Mof_H 	H 	0.1841	0.216	0.9276	-0.011
Mof_C 	C 	0.10953	0.32184	0.95064	0.535
Mof_C 	C 	0.10529	0.32721	0.97727	-0.154
Mof_C 	C 	0.0931	0.3472	0.9868	0.008
Mof_H 	H 	0.0856	0.3595	0.9771	0.04
Mof_O 	O 	0.18228	0.37189	0.86107	-0.664
Mof_S 	S 	0.23434	0.4012	0.8212	0.02
Mof_C 	C 	0.2563	0.3967	0.8642	-0.046
Mof_C 	C 	0.2173	0.3907	0.8461	-0.09
Mof_C 	C 	0.1911	0.3779	0.8403	0.433
Mof_C 	C 	0.2338	0.3903	0.8679	0.019
Mof_C 	C 	0.2606	0.4052	0.8385	-0.096
Mof_Zr	Zr	0.36217	0.78756	0.59129	3.173
Mof_Zr	Zr	0.33279	0.83878	0.62043	3.194
Mof_S 	S 	0.32049	0.91446	0.56576	0.04
Mof_O 	O 	0.3788	0.87543	0.58529	-0.638
Mof_O 	O 	0.33768	0.87116	0.59337	-0.686
Mof_O 	O 	0.28807	0.95049	0.54231	-0.778
Mof_O 	O 	0.3174	0.97413	0.52434	-0.664
Mof_O 	O 	0.29785	0.82715	0.64089	-0.69
Mof_O 	O 	0.30549	0.79061	0.66042	-0.649
Mof_O 	O 	0.32708	0.75093	0.6374	-0.663
Mof_O 	O 	0.33925	0.75221	0.59716	-0.781
Mof_O 	O 	0.37684	0.80359	0.55463	-0.781
Mof_O 	O 	0.40044	0.83701	0.56442	-0.68
Mof_O 	O 	0.36168	0.8256	0.59843	-1.5
Mof_O 	O 	0.33066	0.79724	0.6166	-1.146
Mof_C 	C 	0.35625	0.88185	0.58343	0.509
Mof_C 	C 	0.35056	0.90381	0.56799	-0.135
Mof_C 	C 	0.3666	0.91792	0.55433	-0.001
Mof_H 	H 	0.3837	0.9151	0.5534	0.044
Mof_C 	C 	0.35384	0.93765	0.54157	0.021
Mof_H 	H 	0.3617	0.9489	0.531	0.035
Mof_C 	C 	0.3293	0.93821	0.54646	-0.161
Mof_C 	C 	0.31003	0.95571	0.5367	0.545
Mof_C 	C 	0.29284	0.81007	0.65609	0.516
Mof_C 	C 	0.26946	0.81327	0.67055	-0.143
Mof_C 	C 	0.2612	0.80013	0.69056	0.012
Mof_H 	H 	0.2695	0.7865	0.6973	0.04
Mof_C 	C 	0.32705	0.74345	0.61532	0.534
Mof_C 	C 	0.31055	0.72178	0.60899	-0.172
Mof_C 	C 	0.30704	0.71143	0.58648	0.002
Mof_H 	H 	0.3159	0.716	0.5724	-0.011
Mof_C 	C 	0.39047	0.82184	0.54936	0.535
Mof_C 	C 	0.39471	0.82721	0.52273	-0.154
Mof_C 	C 	0.4069	0.8472	0.5132	0.008
Mof_H 	H 	0.4144	0.8595	0.5229	0.04
Mof_O 	O 	0.31772	0.87189	0.63893	-0.664
Mof_S 	S 	0.26566	0.9012	0.6788	0.02
Mof_C 	C 	0.2437	0.8967	0.6358	-0.046
Mof_C 	C 	0.2827	0.8907	0.6539	-0.09
Mof_C 	C 	0.3089	0.8779	0.6597	0.433
Mof_C 	C 	0.2662	0.8903	0.6321	0.019
Mof_C 	C 	0.2394	0.9052	0.6615	-0.096
Mof_Zr	Zr	0.86217	0.28756	0.09129	3.173
Mof_Zr	Zr	0.83279	0.33878	0.12043	3.194
Mof_S 	S 	0.82049	0.41446	0.06576	0.04
Mof_O 	O 	0.8788	0.37543	0.08529	-0.638
Mof_O 	O 	0.83768	0.37116	0.09337	-0.686
Mof_O 	O 	0.78807	0.45049	0.04231	-0.778
Mof_O 	O 	0.8174	0.47413	0.02434	-0.664
Mof_O 	O 	0.79785	0.32715	0.14089	-0.69
Mof_O 	O 	0.80549	0.29061	0.16042	-0.649
Mof_O 	O 	0.82708	0.25093	0.1374	-0.663
Mof_O 	O 	0.83925	0.25221	0.09716	-0.781
Mof_O 	O 	0.87684	0.30359	0.05463	-0.781
Mof_O 	O 	0.90044	0.33701	0.06442	-0.68
Mof_O 	O 	0.86168	0.3256	0.09843	-1.5
Mof_O 	O 	0.83066	0.29724	0.1166	-1.146
Mof_C 	C 	0.85625	0.38185	0.08343	0.509
Mof_C 	C 	0.85056	0.40381	0.06799	-0.135
Mof_C 	C 	0.8666	0.41792	0.05433	-0.001
Mof_H 	H 	0.8837	0.4151	0.0534	0.044
Mof_C 	C 	0.85384	0.43765	0.04157	0.021
Mof_H 	H 	0.8617	0.4489	0.031	0.035
Mof_C 	C 	0.8293	0.43821	0.04646	-0.161
Mof_C 	C 	0.81003	0.45571	0.0367	0.545
Mof_C 	C 	0.79284	0.31007	0.15609	0.516
Mof_C 	C 	0.76946	0.31327	0.17055	-0.143
Mof_C 	C 	0.7612	0.30013	0.19056	0.012
Mof_H 	H 	0.7695	0.2865	0.1973	0.04
Mof_C 	C 	0.82705	0.24345	0.11532	0.534
Mof_C 	C 	0.81055	0.22178	0.10899	-0.172
Mof_C 	C 	0.80704	0.21143	0.08648	0.002
Mof_H 	H 	0.8159	0.216	0.0724	-0.011
Mof_C 	C 	0.89047	0.32184	0.04936	0.535
Mof_C 	C 	0.89471	0.32721	0.02273	-0.154
Mof_C 	C 	0.9069	0.3472	0.0132	0.007
Mof_H 	H 	0.9144	0.3595	0.0229	0.04
Mof_O 	O 	0.81772	0.37189	0.13893	-0.664
Mof_S 	S 	0.76566	0.4012	0.1788	0.02
Mof_C 	C 	0.7437	0.3967	0.1358	-0.046
Mof_C 	C 	0.7827	0.3907	0.1539	-0.09
Mof_C 	C 	0.8089	0.3779	0.1597	0.433
Mof_C 	C 	0.7662	0.3903	0.1321	0.019
Mof_C 	C 	0.7394	0.4052	0.1615	-0.096
Mof_Zr	Zr	0.36217	0.21244	0.40871	3.173
Mof_Zr	Zr	0.33279	0.16122	0.37957	3.194
Mof_S 	S 	0.32049	0.08554	0.43424	0.04
Mof_O 	O 	0.3788	0.12457	0.41471	-0.638
Mof_O 	O 	0.33768	0.12884	0.40663	-0.686
Mof_O 	O 	0.28807	0.04951	0.45769	-0.778
Mof_O 	O 	0.3174	0.02587	0.47566	-0.664
Mof_O 	O 	0.29785	0.17285	0.35911	-0.69
Mof_O 	O 	0.30549	0.20939	0.33958	-0.649
Mof_O 	O 	0.32708	0.24907	0.3626	-0.663
Mof_O 	O 	0.33925	0.24779	0.40284	-0.781
Mof_O 	O 	0.37684	0.19641	0.44537	-0.781
Mof_O 	O 	0.40044	0.16299	0.43558	-0.68
Mof_O 	O 	0.36168	0.1744	0.40157	-1.5
Mof_O 	O 	0.33066	0.20276	0.3834	-1.146
Mof_C 	C 	0.35625	0.11815	0.41657	0.509
Mof_C 	C 	0.35056	0.09619	0.43201	-0.135
Mof_C 	C 	0.3666	0.08208	0.44567	-0.001
Mof_H 	H 	0.3837	0.0849	0.4466	0.044
Mof_C 	C 	0.35384	0.06235	0.45843	0.021
Mof_H 	H 	0.3617	0.0511	0.469	0.035
Mof_C 	C 	0.3293	0.06179	0.45354	-0.161
Mof_C 	C 	0.31003	0.04429	0.4633	0.545
Mof_C 	C 	0.29284	0.18993	0.34391	0.516
Mof_C 	C 	0.26946	0.18673	0.32945	-0.143
Mof_C 	C 	0.2612	0.19987	0.30944	0.012
Mof_H 	H 	0.2695	0.2135	0.3027	0.04
Mof_C 	C 	0.32705	0.25655	0.38468	0.534
Mof_C 	C 	0.31055	0.27822	0.39101	-0.172
Mof_C 	C 	0.30704	0.28857	0.41352	0.002
Mof_H 	H 	0.3159	0.284	0.4276	-0.011
Mof_C 	C 	0.39047	0.17816	0.45064	0.535
Mof_C 	C 	0.39471	0.17279	0.47727	-0.154
Mof_C 	C 	0.4069	0.1528	0.4868	0.008
Mof_H 	H 	0.4144	0.1405	0.4771	0.04
Mof_O 	O 	0.31772	0.12811	0.36107	-0.664
Mof_S 	S 	0.26566	0.0988	0.3212	0.02
Mof_C 	C 	0.2437	0.1033	0.3642	-0.046
Mof_C 	C 	0.2827	0.1093	0.3461	-0.09
Mof_C 	C 	0.3089	0.1221	0.3403	0.432
Mof_C 	C 	0.2662	0.1097	0.3679	0.019
Mof_C 	C 	0.2394	0.0948	0.3385	-0.096
Mof_Zr	Zr	0.86217	0.71244	0.90871	3.173
Mof_Zr	Zr	0.83279	0.66122	0.87957	3.194
Mof_S 	S 	0.82049	0.58554	0.93424	0.04
Mof_O 	O 	0.8788	0.62457	0.91471	-0.638
Mof_O 	O 	0.83768	0.62884	0.90663	-0.686
Mof_O 	O 	0.78807	0.54951	0.95769	-0.778
Mof_O 	O 	0.8174	0.52587	0.97566	-0.664
Mof_O 	O 	0.79785	0.67285	0.85911	-0.69
Mof_O 	O 	0.80549	0.70939	0.83958	-0.649
Mof_O 	O 	0.82708	0.74907	0.8626	-0.663
Mof_O 	O 	0.83925	0.74779	0.90284	-0.781
Mof_O 	O 	0.87684	0.69641	0.94537	-0.781
Mof_O 	O 	0.90044	0.66299	0.93558	-0.68
Mof_O 	O 	0.86168	0.6744	0.90157	-1.5
Mof_O 	O 	0.83066	0.70276	0.8834	-1.146
Mof_C 	C 	0.85625	0.61815	0.91657	0.509
Mof_C 	C 	0.85056	0.59619	0.93201	-0.135
Mof_C 	C 	0.8666	0.58208	0.94567	-0.001
Mof_H 	H 	0.8837	0.5849	0.9466	0.044
Mof_C 	C 	0.85384	0.56235	0.95843	0.021
Mof_H 	H 	0.8617	0.5511	0.969	0.035
Mof_C 	C 	0.8293	0.56179	0.95354	-0.161
Mof_C 	C 	0.81003	0.54429	0.9633	0.545
Mof_C 	C 	0.79284	0.68993	0.84391	0.516
Mof_C 	C 	0.76946	0.68673	0.82945	-0.143
Mof_C 	C 	0.7612	0.69987	0.80944	0.012
Mof_H 	H 	0.7695	0.7135	0.8027	0.04
Mof_C 	C 	0.82705	0.75655	0.88468	0.534
Mof_C 	C 	0.81055	0.77822	0.89101	-0.172
Mof_C 	C 	0.80704	0.78857	0.91352	0.002
Mof_H 	H 	0.8159	0.784	0.9276	-0.011
Mof_C 	C 	0.89047	0.67816	0.95064	0.535
Mof_C 	C 	0.89471	0.67279	0.97727	-0.154
Mof_C 	C 	0.9069	0.6528	0.9868	0.008
Mof_H 	H 	0.9144	0.6405	0.9771	0.04
Mof_O 	O 	0.81772	0.62811	0.86107	-0.664
Mof_S 	S 	0.76566	0.5988	0.8212	0.02
Mof_C 	C 	0.7437	0.6033	0.8642	-0.046
Mof_C 	C 	0.7827	0.6093	0.8461	-0.09
Mof_C 	C 	0.8089	0.6221	0.8403	0.432
Mof_C 	C 	0.7662	0.6097	0.8679	0.019
Mof_C 	C 	0.7394	0.5948	0.8385	-0.096
Mof_Zr	Zr	0.63783	0.21244	0.59129	3.173
Mof_Zr	Zr	0.66721	0.16122	0.62043	3.194
Mof_S 	S 	0.67951	0.08554	0.56576	0.04
Mof_O 	O 	0.6212	0.12457	0.58529	-0.638
Mof_O 	O 	0.66232	0.12884	0.59337	-0.686
Mof_O 	O 	0.71193	0.04951	0.54231	-0.778
Mof_O 	O 	0.6826	0.02587	0.52434	-0.664
Mof_O 	O 	0.70215	0.17285	0.64089	-0.69
Mof_O 	O 	0.69451	0.20939	0.66042	-0.649
Mof_O 	O 	0.67292	0.24907	0.6374	-0.663
Mof_O 	O 	0.66075	0.24779	0.59716	-0.781
Mof_O 	O 	0.62316	0.19641	0.55463	-0.781
Mof_O 	O 	0.59956	0.16299	0.56442	-0.68
Mof_O 	O 	0.63832	0.1744	0.59843	-1.5
Mof_O 	O 	0.66934	0.20276	0.6166	-1.146
Mof_C 	C 	0.64375	0.11815	0.58343	0.509
Mof_C 	C 	0.64944	0.09619	0.56799	-0.135
Mof_C 	C 	0.6334	0.08208	0.55433	-0.001
Mof_H 	H 	0.6163	0.0849	0.5534	0.044
Mof_C 	C 	0.64616	0.06235	0.54157	0.021
Mof_H 	H 	0.6383	0.0511	0.531	0.035
Mof_C 	C 	0.6707	0.06179	0.54646	-0.161
Mof_C 	C 	0.68997	0.04429	0.5367	0.545
Mof_C 	C 	0.70716	0.18993	0.65609	0.516
Mof_C 	C 	0.73054	0.18673	0.67055	-0.143
Mof_C 	C 	0.7388	0.19987	0.69056	0.012
Mof_H 	H 	0.7305	0.2135	0.6973	0.04
Mof_C 	C 	0.67295	0.25655	0.61532	0.534
Mof_C 	C 	0.68945	0.27822	0.60899	-0.172
Mof_C 	C 	0.69296	0.28857	0.58648	0.002
Mof_H 	H 	0.6841	0.284	0.5724	-0.011
Mof_C 	C 	0.60953	0.17816	0.54936	0.535
Mof_C 	C 	0.60529	0.17279	0.52273	-0.154
Mof_C 	C 	0.5931	0.1528	0.5132	0.008
Mof_H 	H 	0.5856	0.1405	0.5229	0.04
Mof_O 	O 	0.68228	0.12811	0.63893	-0.664
Mof_S 	S 	0.73434	0.0988	0.6788	0.02
Mof_C 	C 	0.7563	0.1033	0.6358	-0.046
Mof_C 	C 	0.7173	0.1093	0.6539	-0.09
Mof_C 	C 	0.6911	0.1221	0.6597	0.432
Mof_C 	C 	0.7338	0.1097	0.6321	0.019
Mof_C 	C 	0.7606	0.0948	0.6615	-0.096
Mof_Zr	Zr	0.13783	0.71244	0.09129	3.173
Mof_Zr	Zr	0.16721	0.66122	0.12043	3.194
Mof_S 	S 	0.17951	0.58554	0.06576	0.04
Mof_O 	O 	0.1212	0.62457	0.08529	-0.638
Mof_O 	O 	0.16232	0.62884	0.09337	-0.686
Mof_O 	O 	0.21193	0.54951	0.04231	-0.778
Mof_O 	O 	0.1826	0.52587	0.02434	-0.664
Mof_O 	O 	0.20215	0.67285	0.14089	-0.69
Mof_O 	O 	0.19451	0.70939	0.16042	-0.649
Mof_O 	O 	0.17292	0.74907	0.1374	-0.663
Mof_O 	O 	0.16075	0.74779	0.09716	-0.781
Mof_O 	O 	0.12316	0.69641	0.05463	-0.781
Mof_O 	O 	0.09956	0.66299	0.06442	-0.68
Mof_O 	O 	0.13832	0.6744	0.09843	-1.5
Mof_O 	O 	0.16934	0.70276	0.1166	-1.146
Mof_C 	C 	0.14375	0.61815	0.08343	0.509
Mof_C 	C 	0.14944	0.59619	0.06799	-0.135
Mof_C 	C 	0.1334	0.58208	0.05433	-0.001
Mof_H 	H 	0.1163	0.5849	0.0534	0.044
Mof_C 	C 	0.14616	0.56235	0.04157	0.021
Mof_H 	H 	0.1383	0.5511	0.031	0.035
Mof_C 	C 	0.1707	0.56179	0.04646	-0.161
Mof_C 	C 	0.18997	0.54429	0.0367	0.545
Mof_C 	C 	0.20716	0.68993	0.15609	0.516
Mof_C 	C 	0.23054	0.68673	0.17055	-0.143
Mof_C 	C 	0.2388	0.69987	0.19056	0.012
Mof_H 	H 	0.2305	0.7135	0.1973	0.04
Mof_C 	C 	0.17295	0.75655	0.11532	0.534
Mof_C 	C 	0.18945	0.77822	0.10899	-0.172
Mof_C 	C 	0.19296	0.78857	0.08648	0.002
Mof_H 	H 	0.1841	0.784	0.0724	-0.011
Mof_C 	C 	0.10953	0.67816	0.04936	0.535
Mof_C 	C 	0.10529	0.67279	0.02273	-0.154
Mof_C 	C 	0.0931	0.6528	0.0132	0.007
Mof_H 	H 	0.0856	0.6405	0.0229	0.04
Mof_O 	O 	0.18228	0.62811	0.13893	-0.664
Mof_S 	S 	0.23434	0.5988	0.1788	0.02
Mof_C 	C 	0.2563	0.6033	0.1358	-0.046
Mof_C 	C 	0.2173	0.6093	0.1539	-0.09
Mof_C 	C 	0.1911	0.6221	0.1597	0.433
Mof_C 	C 	0.2338	0.6097	0.1321	0.019
Mof_C 	C 	0.2606	0.5948	0.1615	-0.096
Mof_Zr	Zr	0.78756	0.59129	0.36217	3.173
Mof_Zr	Zr	0.83878	0.62043	0.33279	3.194
Mof_S 	S 	0.91446	0.56576	0.32049	0.04
Mof_O 	O 	0.87543	0.58529	0.3788	-0.638
Mof_O 	O 	0.87116	0.59337	0.33768	-0.686
Mof_O 	O 	0.95049	0.54231	0.28807	-0.778
Mof_O 	O 	0.97413	0.52434	0.3174	-0.664
Mof_O 	O 	0.82715	0.64089	0.29785	-0.69
Mof_O 	O 	0.79061	0.66042	0.30549	-0.649
Mof_O 	O 	0.75093	0.6374	0.32708	-0.663
Mof_O 	O 	0.75221	0.59716	0.33925	-0.781
Mof_O 	O 	0.80359	0.55463	0.37684	-0.781
Mof_O 	O 	0.83701	0.56442	0.40044	-0.68
Mof_O 	O 	0.8256	0.59843	0.36168	-1.5
Mof_O 	O 	0.79724	0.6166	0.33066	-1.146
Mof_C 	C 	0.88185	0.58343	0.35625	0.509
Mof_C 	C 	0.90381	0.56799	0.35056	-0.135
Mof_C 	C 	0.91792	0.55433	0.3666	-0.001
Mof_H 	H 	0.9151	0.5534	0.3837	0.044
Mof_C 	C 	0.93765	0.54157	0.35384	0.021
Mof_H 	H 	0.9489	0.531	0.3617	0.035
Mof_C 	C 	0.93821	0.54646	0.3293	-0.161
Mof_C 	C 	0.95571	0.5367	0.31003	0.545
Mof_C 	C 	0.81007	0.65609	0.29284	0.516
Mof_C 	C 	0.81327	0.67055	0.26946	-0.143
Mof_C 	C 	0.80013	0.69056	0.2612	0.012
Mof_H 	H 	0.7865	0.6973	0.2695	0.04
Mof_C 	C 	0.74345	0.61532	0.32705	0.534
Mof_C 	C 	0.72178	0.60899	0.31055	-0.172
Mof_C 	C 	0.71143	0.58648	0.30704	0.002
Mof_H 	H 	0.716	0.5724	0.3159	-0.011
Mof_C 	C 	0.82184	0.54936	0.39047	0.535
Mof_C 	C 	0.82721	0.52273	0.39471	-0.154
Mof_C 	C 	0.8472	0.5132	0.4069	0.008
Mof_H 	H 	0.8595	0.5229	0.4144	0.04
Mof_O 	O 	0.87189	0.63893	0.31772	-0.664
Mof_S 	S 	0.9012	0.6788	0.26566	0.02
Mof_C 	C 	0.8967	0.6358	0.2437	-0.046
Mof_C 	C 	0.8907	0.6539	0.2827	-0.09
Mof_C 	C 	0.8779	0.6597	0.3089	0.433
Mof_C 	C 	0.8903	0.6321	0.2662	0.019
Mof_C 	C 	0.9052	0.6615	0.2394	-0.096
Mof_Zr	Zr	0.28756	0.09129	0.86217	3.173
Mof_Zr	Zr	0.33878	0.12043	0.83279	3.194
Mof_S 	S 	0.41446	0.06576	0.82049	0.04
Mof_O 	O 	0.37543	0.08529	0.8788	-0.638
Mof_O 	O 	0.37116	0.09337	0.83768	-0.686
Mof_O 	O 	0.45049	0.04231	0.78807	-0.778
Mof_O 	O 	0.47413	0.02434	0.8174	-0.664
Mof_O 	O 	0.32715	0.14089	0.79785	-0.69
Mof_O 	O 	0.29061	0.16042	0.80549	-0.649
Mof_O 	O 	0.25093	0.1374	0.82708	-0.663
Mof_O 	O 	0.25221	0.09716	0.83925	-0.781
Mof_O 	O 	0.30359	0.05463	0.87684	-0.781
Mof_O 	O 	0.33701	0.06442	0.90044	-0.68
Mof_O 	O 	0.3256	0.09843	0.86168	-1.5
Mof_O 	O 	0.29724	0.1166	0.83066	-1.146
Mof_C 	C 	0.38185	0.08343	0.85625	0.509
Mof_C 	C 	0.40381	0.06799	0.85056	-0.135
Mof_C 	C 	0.41792	0.05433	0.8666	-0.001
Mof_H 	H 	0.4151	0.0534	0.8837	0.044
Mof_C 	C 	0.43765	0.04157	0.85384	0.021
Mof_H 	H 	0.4489	0.031	0.8617	0.035
Mof_C 	C 	0.43821	0.04646	0.8293	-0.161
Mof_C 	C 	0.45571	0.0367	0.81003	0.545
Mof_C 	C 	0.31007	0.15609	0.79284	0.516
Mof_C 	C 	0.31327	0.17055	0.76946	-0.143
Mof_C 	C 	0.30013	0.19056	0.7612	0.012
Mof_H 	H 	0.2865	0.1973	0.7695	0.04
Mof_C 	C 	0.24345	0.11532	0.82705	0.534
Mof_C 	C 	0.22178	0.10899	0.81055	-0.172
Mof_C 	C 	0.21143	0.08648	0.80704	0.002
Mof_H 	H 	0.216	0.0724	0.8159	-0.011
Mof_C 	C 	0.32184	0.04936	0.89047	0.535
Mof_C 	C 	0.32721	0.02273	0.89471	-0.154
Mof_C 	C 	0.3472	0.0132	0.9069	0.007
Mof_H 	H 	0.3595	0.0229	0.9144	0.04
Mof_O 	O 	0.37189	0.13893	0.81772	-0.664
Mof_S 	S 	0.4012	0.1788	0.76566	0.02
Mof_C 	C 	0.3967	0.1358	0.7437	-0.046
Mof_C 	C 	0.3907	0.1539	0.7827	-0.09
Mof_C 	C 	0.3779	0.1597	0.8089	0.433
Mof_C 	C 	0.3903	0.1321	0.7662	0.019
Mof_C 	C 	0.4052	0.1615	0.7394	-0.096
Mof_Zr	Zr	0.78756	0.40871	0.63783	3.173
Mof_Zr	Zr	0.83878	0.37957	0.66721	3.194
Mof_S 	S 	0.91446	0.43424	0.67951	0.04
Mof_O 	O 	0.87543	0.41471	0.6212	-0.638
Mof_O 	O 	0.87116	0.40663	0.66232	-0.686
Mof_O 	O 	0.95049	0.45769	0.71193	-0.778
Mof_O 	O 	0.97413	0.47566	0.6826	-0.664
Mof_O 	O 	0.82715	0.35911	0.70215	-0.69
Mof_O 	O 	0.79061	0.33958	0.69451	-0.649
Mof_O 	O 	0.75093	0.3626	0.67292	-0.663
Mof_O 	O 	0.75221	0.40284	0.66075	-0.781
Mof_O 	O 	0.80359	0.44537	0.62316	-0.781
Mof_O 	O 	0.83701	0.43558	0.59956	-0.68
Mof_O 	O 	0.8256	0.40157	0.63832	-1.5
Mof_O 	O 	0.79724	0.3834	0.66934	-1.146
Mof_C 	C 	0.88185	0.41657	0.64375	0.509
Mof_C 	C 	0.90381	0.43201	0.64944	-0.135
Mof_C 	C 	0.91792	0.44567	0.6334	-0.001
Mof_H 	H 	0.9151	0.4466	0.6163	0.044
Mof_C 	C 	0.93765	0.45843	0.64616	0.021
Mof_H 	H 	0.9489	0.469	0.6383	0.035
Mof_C 	C 	0.93821	0.45354	0.6707	-0.161
Mof_C 	C 	0.95571	0.4633	0.68997	0.545
Mof_C 	C 	0.81007	0.34391	0.70716	0.516
Mof_C 	C 	0.81327	0.32945	0.73054	-0.143
Mof_C 	C 	0.80013	0.30944	0.7388	0.012
Mof_H 	H 	0.7865	0.3027	0.7305	0.04
Mof_C 	C 	0.74345	0.38468	0.67295	0.534
Mof_C 	C 	0.72178	0.39101	0.68945	-0.172
Mof_C 	C 	0.71143	0.41352	0.69296	0.002
Mof_H 	H 	0.716	0.4276	0.6841	-0.011
Mof_C 	C 	0.82184	0.45064	0.60953	0.535
Mof_C 	C 	0.82721	0.47727	0.60529	-0.154
Mof_C 	C 	0.8472	0.4868	0.5931	0.008
Mof_H 	H 	0.8595	0.4771	0.5856	0.04
Mof_O 	O 	0.87189	0.36107	0.68228	-0.664
Mof_S 	S 	0.9012	0.3212	0.73434	0.02
Mof_C 	C 	0.8967	0.3642	0.7563	-0.046
Mof_C 	C 	0.8907	0.3461	0.7173	-0.09
Mof_C 	C 	0.8779	0.3403	0.6911	0.433
Mof_C 	C 	0.8903	0.3679	0.7338	0.019
Mof_C 	C 	0.9052	0.3385	0.7606	-0.096
Mof_Zr	Zr	0.28756	0.90871	0.13783	3.173
Mof_Zr	Zr	0.33878	0.87957	0.16721	3.194
Mof_S 	S 	0.41446	0.93424	0.17951	0.04
Mof_O 	O 	0.37543	0.91471	0.1212	-0.638
Mof_O 	O 	0.37116	0.90663	0.16232	-0.686
Mof_O 	O 	0.45049	0.95769	0.21193	-0.778
Mof_O 	O 	0.47413	0.97566	0.1826	-0.664
Mof_O 	O 	0.32715	0.85911	0.20215	-0.69
Mof_O 	O 	0.29061	0.83958	0.19451	-0.649
Mof_O 	O 	0.25093	0.8626	0.17292	-0.663
Mof_O 	O 	0.25221	0.90284	0.16075	-0.781
Mof_O 	O 	0.30359	0.94537	0.12316	-0.781
Mof_O 	O 	0.33701	0.93558	0.09956	-0.68
Mof_O 	O 	0.3256	0.90157	0.13832	-1.5
Mof_O 	O 	0.29724	0.8834	0.16934	-1.146
Mof_C 	C 	0.38185	0.91657	0.14375	0.509
Mof_C 	C 	0.40381	0.93201	0.14944	-0.135
Mof_C 	C 	0.41792	0.94567	0.1334	-0.001
Mof_H 	H 	0.4151	0.9466	0.1163	0.044
Mof_C 	C 	0.43765	0.95843	0.14616	0.021
Mof_H 	H 	0.4489	0.969	0.1383	0.035
Mof_C 	C 	0.43821	0.95354	0.1707	-0.161
Mof_C 	C 	0.45571	0.9633	0.18997	0.545
Mof_C 	C 	0.31007	0.84391	0.20716	0.516
Mof_C 	C 	0.31327	0.82945	0.23054	-0.143
Mof_C 	C 	0.30013	0.80944	0.2388	0.012
Mof_H 	H 	0.2865	0.8027	0.2305	0.04
Mof_C 	C 	0.24345	0.88468	0.17295	0.534
Mof_C 	C 	0.22178	0.89101	0.18945	-0.172
Mof_C 	C 	0.21143	0.91352	0.19296	0.002
Mof_H 	H 	0.216	0.9276	0.1841	-0.011
Mof_C 	C 	0.32184	0.95064	0.10953	0.535
Mof_C 	C 	0.32721	0.97727	0.10529	-0.154
Mof_C 	C 	0.3472	0.9868	0.0931	0.008
Mof_H 	H 	0.3595	0.9771	0.0856	0.04
Mof_O 	O 	0.37189	0.86107	0.18228	-0.664
Mof_S 	S 	0.4012	0.8212	0.23434	0.02
Mof_C 	C 	0.3967	0.8642	0.2563	-0.046
Mof_C 	C 	0.3907	0.8461	0.2173	-0.09
Mof_C 	C 	0.3779	0.8403	0.1911	0.433
Mof_C 	C 	0.3903	0.8679	0.2338	0.019
Mof_C 	C 	0.4052	0.8385	0.2606	-0.096
Mof_Zr	Zr	0.21244	0.59129	0.63783	3.173
Mof_Zr	Zr	0.16122	0.62043	0.66721	3.194
Mof_S 	S 	0.08554	0.56576	0.67951	0.04
Mof_O 	O 	0.12457	0.58529	0.6212	-0.638
Mof_O 	O 	0.12884	0.59337	0.66232	-0.686
Mof_O 	O 	0.04951	0.54231	0.71193	-0.778
Mof_O 	O 	0.02587	0.52434	0.6826	-0.664
Mof_O 	O 	0.17285	0.64089	0.70215	-0.69
Mof_O 	O 	0.20939	0.66042	0.69451	-0.649
Mof_O 	O 	0.24907	0.6374	0.67292	-0.663
Mof_O 	O 	0.24779	0.59716	0.66075	-0.781
Mof_O 	O 	0.19641	0.55463	0.62316	-0.781
Mof_O 	O 	0.16299	0.56442	0.59956	-0.68
Mof_O 	O 	0.1744	0.59843	0.63832	-1.5
Mof_O 	O 	0.20276	0.6166	0.66934	-1.146
Mof_C 	C 	0.11815	0.58343	0.64375	0.509
Mof_C 	C 	0.09619	0.56799	0.64944	-0.135
Mof_C 	C 	0.08208	0.55433	0.6334	-0.001
Mof_H 	H 	0.0849	0.5534	0.6163	0.044
Mof_C 	C 	0.06235	0.54157	0.64616	0.021
Mof_H 	H 	0.0511	0.531	0.6383	0.035
Mof_C 	C 	0.06179	0.54646	0.6707	-0.161
Mof_C 	C 	0.04429	0.5367	0.68997	0.545
Mof_C 	C 	0.18993	0.65609	0.70716	0.516
Mof_C 	C 	0.18673	0.67055	0.73054	-0.143
Mof_C 	C 	0.19987	0.69056	0.7388	0.012
Mof_H 	H 	0.2135	0.6973	0.7305	0.04
Mof_C 	C 	0.25655	0.61532	0.67295	0.534
Mof_C 	C 	0.27822	0.60899	0.68945	-0.172
Mof_C 	C 	0.28857	0.58648	0.69296	0.002
Mof_H 	H 	0.284	0.5724	0.6841	-0.011
Mof_C 	C 	0.17816	0.54936	0.60953	0.535
Mof_C 	C 	0.17279	0.52273	0.60529	-0.154
Mof_C 	C 	0.1528	0.5132	0.5931	0.008
Mof_H 	H 	0.1405	0.5229	0.5856	0.04
Mof_O 	O 	0.12811	0.63893	0.68228	-0.664
Mof_S 	S 	0.0988	0.6788	0.73434	0.02
Mof_C 	C 	0.1033	0.6358	0.7563	-0.046
Mof_C 	C 	0.1093	0.6539	0.7173	-0.09
Mof_C 	C 	0.1221	0.6597	0.6911	0.432
Mof_C 	C 	0.1097	0.6321	0.7338	0.019
Mof_C 	C 	0.0948	0.6615	0.7606	-0.096
Mof_Zr	Zr	0.71244	0.09129	0.13783	3.173
Mof_Zr	Zr	0.66122	0.12043	0.16721	3.194
Mof_S 	S 	0.58554	0.06576	0.17951	0.04
Mof_O 	O 	0.62457	0.08529	0.1212	-0.638
Mof_O 	O 	0.62884	0.09337	0.16232	-0.686
Mof_O 	O 	0.54951	0.04231	0.21193	-0.778
Mof_O 	O 	0.52587	0.02434	0.1826	-0.664
Mof_O 	O 	0.67285	0.14089	0.20215	-0.69
Mof_O 	O 	0.70939	0.16042	0.19451	-0.649
Mof_O 	O 	0.74907	0.1374	0.17292	-0.663
Mof_O 	O 	0.74779	0.09716	0.16075	-0.781
Mof_O 	O 	0.69641	0.05463	0.12316	-0.781
Mof_O 	O 	0.66299	0.06442	0.09956	-0.68
Mof_O 	O 	0.6744	0.09843	0.13832	-1.5
Mof_O 	O 	0.70276	0.1166	0.16934	-1.146
Mof_C 	C 	0.61815	0.08343	0.14375	0.509
Mof_C 	C 	0.59619	0.06799	0.14944	-0.135
Mof_C 	C 	0.58208	0.05433	0.1334	-0.001
Mof_H 	H 	0.5849	0.0534	0.1163	0.044
Mof_C 	C 	0.56235	0.04157	0.14616	0.021
Mof_H 	H 	0.5511	0.031	0.1383	0.035
Mof_C 	C 	0.56179	0.04646	0.1707	-0.161
Mof_C 	C 	0.54429	0.0367	0.18997	0.545
Mof_C 	C 	0.68993	0.15609	0.20716	0.516
Mof_C 	C 	0.68673	0.17055	0.23054	-0.143
Mof_C 	C 	0.69987	0.19056	0.2388	0.012
Mof_H 	H 	0.7135	0.1973	0.2305	0.04
Mof_C 	C 	0.75655	0.11532	0.17295	0.534
Mof_C 	C 	0.77822	0.10899	0.18945	-0.172
Mof_C 	C 	0.78857	0.08648	0.19296	0.002
Mof_H 	H 	0.784	0.0724	0.1841	-0.011
Mof_C 	C 	0.67816	0.04936	0.10953	0.535
Mof_C 	C 	0.67279	0.02273	0.10529	-0.154
Mof_C 	C 	0.6528	0.0132	0.0931	0.007
Mof_H 	H 	0.6405	0.0229	0.0856	0.04
Mof_O 	O 	0.62811	0.13893	0.18228	-0.664
Mof_S 	S 	0.5988	0.1788	0.23434	0.02
Mof_C 	C 	0.6033	0.1358	0.2563	-0.046
Mof_C 	C 	0.6093	0.1539	0.2173	-0.09
Mof_C 	C 	0.6221	0.1597	0.1911	0.433
Mof_C 	C 	0.6097	0.1321	0.2338	0.019
Mof_C 	C 	0.5948	0.1615	0.2606	-0.096
Mof_Zr	Zr	0.21244	0.40871	0.36217	3.173
Mof_Zr	Zr	0.16122	0.37957	0.33279	3.194
Mof_S 	S 	0.08554	0.43424	0.32049	0.04
Mof_O 	O 	0.12457	0.41471	0.3788	-0.638
Mof_O 	O 	0.12884	0.40663	0.33768	-0.686
Mof_O 	O 	0.04951	0.45769	0.28807	-0.778
Mof_O 	O 	0.02587	0.47566	0.3174	-0.664
Mof_O 	O 	0.17285	0.35911	0.29785	-0.69
Mof_O 	O 	0.20939	0.33958	0.30549	-0.649
Mof_O 	O 	0.24907	0.3626	0.32708	-0.663
Mof_O 	O 	0.24779	0.40284	0.33925	-0.781
Mof_O 	O 	0.19641	0.44537	0.37684	-0.781
Mof_O 	O 	0.16299	0.43558	0.40044	-0.68
Mof_O 	O 	0.1744	0.40157	0.36168	-1.5
Mof_O 	O 	0.20276	0.3834	0.33066	-1.146
Mof_C 	C 	0.11815	0.41657	0.35625	0.509
Mof_C 	C 	0.09619	0.43201	0.35056	-0.135
Mof_C 	C 	0.08208	0.44567	0.3666	-0.001
Mof_H 	H 	0.0849	0.4466	0.3837	0.044
Mof_C 	C 	0.06235	0.45843	0.35384	0.021
Mof_H 	H 	0.0511	0.469	0.3617	0.035
Mof_C 	C 	0.06179	0.45354	0.3293	-0.161
Mof_C 	C 	0.04429	0.4633	0.31003	0.545
Mof_C 	C 	0.18993	0.34391	0.29284	0.516
Mof_C 	C 	0.18673	0.32945	0.26946	-0.143
Mof_C 	C 	0.19987	0.30944	0.2612	0.012
Mof_H 	H 	0.2135	0.3027	0.2695	0.04
Mof_C 	C 	0.25655	0.38468	0.32705	0.534
Mof_C 	C 	0.27822	0.39101	0.31055	-0.172
Mof_C 	C 	0.28857	0.41352	0.30704	0.002
Mof_H 	H 	0.284	0.4276	0.3159	-0.011
Mof_C 	C 	0.17816	0.45064	0.39047	0.535
Mof_C 	C 	0.17279	0.47727	0.39471	-0.154
Mof_C 	C 	0.1528	0.4868	0.4069	0.008
Mof_H 	H 	0.1405	0.4771	0.4144	0.04
Mof_O 	O 	0.12811	0.36107	0.31772	-0.664
Mof_S 	S 	0.0988	0.3212	0.26566	0.02
Mof_C 	C 	0.1033	0.3642	0.2437	-0.046
Mof_C 	C 	0.1093	0.3461	0.2827	-0.09
Mof_C 	C 	0.1221	0.3403	0.3089	0.432
Mof_C 	C 	0.1097	0.3679	0.2662	0.019
Mof_C 	C 	0.0948	0.3385	0.2394	-0.096
Mof_Zr	Zr	0.71244	0.90871	0.86217	3.173
Mof_Zr	Zr	0.66122	0.87957	0.83279	3.194
Mof_S 	S 	0.58554	0.93424	0.82049	0.04
Mof_O 	O 	0.62457	0.91471	0.8788	-0.638
Mof_O 	O 	0.62884	0.90663	0.83768	-0.686
Mof_O 	O 	0.54951	0.95769	0.78807	-0.778
Mof_O 	O 	0.52587	0.97566	0.8174	-0.664
Mof_O 	O 	0.67285	0.85911	0.79785	-0.69
Mof_O 	O 	0.70939	0.83958	0.80549	-0.649
Mof_O 	O 	0.74907	0.8626	0.82708	-0.663
Mof_O 	O 	0.74779	0.90284	0.83925	-0.781
Mof_O 	O 	0.69641	0.94537	0.87684	-0.781
Mof_O 	O 	0.66299	0.93558	0.90044	-0.68
Mof_O 	O 	0.6744	0.90157	0.86168	-1.5
Mof_O 	O 	0.70276	0.8834	0.83066	-1.146
Mof_C 	C 	0.61815	0.91657	0.85625	0.509
Mof_C 	C 	0.59619	0.93201	0.85056	-0.135
Mof_C 	C 	0.58208	0.94567	0.8666	-0.001
Mof_H 	H 	0.5849	0.9466	0.8837	0.044
Mof_C 	C 	0.56235	0.95843	0.85384	0.021
Mof_H 	H 	0.5511	0.969	0.8617	0.035
Mof_C 	C 	0.56179	0.95354	0.8293	-0.161
Mof_C 	C 	0.54429	0.9633	0.81003	0.545
Mof_C 	C 	0.68993	0.84391	0.79284	0.516
Mof_C 	C 	0.68673	0.82945	0.76946	-0.143
Mof_C 	C 	0.69987	0.80944	0.7612	0.012
Mof_H 	H 	0.7135	0.8027	0.7695	0.04
Mof_C 	C 	0.75655	0.88468	0.82705	0.534
Mof_C 	C 	0.77822	0.89101	0.81055	-0.172
Mof_C 	C 	0.78857	0.91352	0.80704	0.002
Mof_H 	H 	0.784	0.9276	0.8159	-0.011
Mof_C 	C 	0.67816	0.95064	0.89047	0.535
Mof_C 	C 	0.67279	0.97727	0.89471	-0.154
Mof_C 	C 	0.6528	0.9868	0.9069	0.008
Mof_H 	H 	0.6405	0.9771	0.9144	0.04
Mof_O 	O 	0.62811	0.86107	0.81772	-0.664
Mof_S 	S 	0.5988	0.8212	0.76566	0.02
Mof_C 	C 	0.6033	0.8642	0.7437	-0.046
Mof_C 	C 	0.6093	0.8461	0.7827	-0.09
Mof_C 	C 	0.6221	0.8403	0.8089	0.432
Mof_C 	C 	0.6097	0.8679	0.7662	0.019
Mof_C 	C 	0.5948	0.8385	0.7394	-0.096
Mof_Zr	Zr	0.34568	0.34568	0.21607	3.213
Mof_Zr	Zr	0.39567	0.39567	0.15742	3.214
Mof_O 	O 	0.37245	0.37245	0.22174	-1.508
Mof_O 	O 	0.40127	0.40127	0.20061	-1.146
Mof_O 	O 	0.34743	0.34743	0.17724	-1.42
Mof_O 	O 	0.36807	0.36807	0.14163	-1.049
Mof_O 	O 	0.3178	0.3178	0.118	-0.417
Mof_Zr	Zr	0.84568	0.84568	0.71607	3.213
Mof_Zr	Zr	0.89567	0.89567	0.65742	3.214
Mof_O 	O 	0.87245	0.87245	0.72174	-1.508
Mof_O 	O 	0.90127	0.90127	0.70061	-1.146
Mof_O 	O 	0.84743	0.84743	0.67724	-1.42
Mof_O 	O 	0.86807	0.86807	0.64163	-1.049
Mof_O 	O 	0.8178	0.8178	0.618	-0.417
Mof_Zr	Zr	0.65432	0.65432	0.21607	3.213
Mof_Zr	Zr	0.60433	0.60433	0.15742	3.214
Mof_O 	O 	0.62755	0.62755	0.22174	-1.508
Mof_O 	O 	0.59873	0.59873	0.20061	-1.146
Mof_O 	O 	0.65257	0.65257	0.17724	-1.42
Mof_O 	O 	0.63193	0.63193	0.14163	-1.049
Mof_O 	O 	0.6822	0.6822	0.118	-0.417
Mof_Zr	Zr	0.15432	0.15432	0.71607	3.213
Mof_Zr	Zr	0.10433	0.10433	0.65742	3.214
Mof_O 	O 	0.12755	0.12755	0.72174	-1.508
Mof_O 	O 	0.09873	0.09873	0.70061	-1.146
Mof_O 	O 	0.15257	0.15257	0.67724	-1.42
Mof_O 	O 	0.13193	0.13193	0.64163	-1.049
Mof_O 	O 	0.1822	0.1822	0.618	-0.416
Mof_Zr	Zr	0.65432	0.34568	0.78393	3.213
Mof_Zr	Zr	0.60433	0.39567	0.84258	3.214
Mof_O 	O 	0.62755	0.37245	0.77826	-1.508
Mof_O 	O 	0.59873	0.40127	0.79939	-1.146
Mof_O 	O 	0.65257	0.34743	0.82276	-1.42
Mof_O 	O 	0.63193	0.36807	0.85837	-1.049
Mof_O 	O 	0.6822	0.3178	0.882	-0.416
Mof_Zr	Zr	0.15432	0.84568	0.28393	3.213
Mof_Zr	Zr	0.10433	0.89567	0.34258	3.214
Mof_O 	O 	0.12755	0.87245	0.27826	-1.508
Mof_O 	O 	0.09873	0.90127	0.29939	-1.146
Mof_O 	O 	0.15257	0.84743	0.32276	-1.42
Mof_O 	O 	0.13193	0.86807	0.35837	-1.049
Mof_O 	O 	0.1822	0.8178	0.382	-0.416
Mof_Zr	Zr	0.34568	0.65432	0.78393	3.213
Mof_Zr	Zr	0.39567	0.60433	0.84258	3.214
Mof_O 	O 	0.37245	0.62755	0.77826	-1.508
Mof_O 	O 	0.40127	0.59873	0.79939	-1.146
Mof_O 	O 	0.34743	0.65257	0.82276	-1.42
Mof_O 	O 	0.36807	0.63193	0.85837	-1.049
Mof_O 	O 	0.3178	0.6822	0.882	-0.416
Mof_Zr	Zr	0.84568	0.15432	0.28393	3.213
Mof_Zr	Zr	0.89567	0.10433	0.34258	3.214
Mof_O 	O 	0.87245	0.12755	0.27826	-1.508
Mof_O 	O 	0.90127	0.09873	0.29939	-1.146
Mof_O 	O 	0.84743	0.15257	0.32276	-1.42
Mof_O 	O 	0.86807	0.13193	0.35837	-1.049
Mof_O 	O 	0.8178	0.1822	0.382	-0.416
Mof_Zr	Zr	0.21607	0.34568	0.34568	3.213
Mof_Zr	Zr	0.15742	0.39567	0.39567	3.214
Mof_O 	O 	0.22174	0.37245	0.37245	-1.508
Mof_O 	O 	0.20061	0.40127	0.40127	-1.146
Mof_O 	O 	0.17724	0.34743	0.34743	-1.42
Mof_O 	O 	0.14163	0.36807	0.36807	-1.049
Mof_O 	O 	0.118	0.3178	0.3178	-0.417
Mof_Zr	Zr	0.71607	0.84568	0.84568	3.213
Mof_Zr	Zr	0.65742	0.89567	0.89567	3.214
Mof_O 	O 	0.72174	0.87245	0.87245	-1.508
Mof_O 	O 	0.70061	0.90127	0.90127	-1.146
Mof_O 	O 	0.67724	0.84743	0.84743	-1.42
Mof_O 	O 	0.64163	0.86807	0.86807	-1.049
Mof_O 	O 	0.618	0.8178	0.8178	-0.417
Mof_Zr	Zr	0.21607	0.65432	0.65432	3.213
Mof_Zr	Zr	0.15742	0.60433	0.60433	3.214
Mof_O 	O 	0.22174	0.62755	0.62755	-1.508
Mof_O 	O 	0.20061	0.59873	0.59873	-1.146
Mof_O 	O 	0.17724	0.65257	0.65257	-1.42
Mof_O 	O 	0.14163	0.63193	0.63193	-1.049
Mof_O 	O 	0.118	0.6822	0.6822	-0.417
Mof_Zr	Zr	0.71607	0.15432	0.15432	3.213
Mof_Zr	Zr	0.65742	0.10433	0.10433	3.214
Mof_O 	O 	0.72174	0.12755	0.12755	-1.508
Mof_O 	O 	0.70061	0.09873	0.09873	-1.146
Mof_O 	O 	0.67724	0.15257	0.15257	-1.42
Mof_O 	O 	0.64163	0.13193	0.13193	-1.049
Mof_O 	O 	0.618	0.1822	0.1822	-0.416
Mof_Zr	Zr	0.78393	0.65432	0.34568	3.213
Mof_Zr	Zr	0.84258	0.60433	0.39567	3.214
Mof_O 	O 	0.77826	0.62755	0.37245	-1.508
Mof_O 	O 	0.79939	0.59873	0.40127	-1.146
Mof_O 	O 	0.82276	0.65257	0.34743	-1.42
Mof_O 	O 	0.85837	0.63193	0.36807	-1.049
Mof_O 	O 	0.882	0.6822	0.3178	-0.416
Mof_Zr	Zr	0.28393	0.15432	0.84568	3.213
Mof_Zr	Zr	0.34258	0.10433	0.89567	3.214
Mof_O 	O 	0.27826	0.12755	0.87245	-1.508
Mof_O 	O 	0.29939	0.09873	0.90127	-1.146
Mof_O 	O 	0.32276	0.15257	0.84743	-1.42
Mof_O 	O 	0.35837	0.13193	0.86807	-1.049
Mof_O 	O 	0.382	0.1822	0.8178	-0.416
Mof_Zr	Zr	0.78393	0.34568	0.65432	3.213
Mof_Zr	Zr	0.84258	0.39567	0.60433	3.214
Mof_O 	O 	0.77826	0.37245	0.62755	-1.508
Mof_O 	O 	0.79939	0.40127	0.59873	-1.146
Mof_O 	O 	0.82276	0.34743	0.65257	-1.42
Mof_O 	O 	0.85837	0.36807	0.63193	-1.049
Mof_O 	O 	0.882	0.3178	0.6822	-0.416
Mof_Zr	Zr	0.28393	0.84568	0.15432	3.213
Mof_Zr	Zr	0.34258	0.89567	0.10433	3.214
Mof_O 	O 	0.27826	0.87245	0.12755	-1.508
Mof_O 	O 	0.29939	0.90127	0.09873	-1.146
Mof_O 	O 	0.32276	0.84743	0.15257	-1.42
Mof_O 	O 	0.35837	0.86807	0.13193	-1.049
Mof_O 	O 	0.382	0.8178	0.1822	-0.416
Mof_Zr	Zr	0.34568	0.21607	0.34568	3.213
Mof_Zr	Zr	0.39567	0.15742	0.39567	3.214
Mof_O 	O 	0.37245	0.22174	0.37245	-1.508
Mof_O 	O 	0.40127	0.20061	0.40127	-1.146
Mof_O 	O 	0.34743	0.17724	0.34743	-1.42
Mof_O 	O 	0.36807	0.14163	0.36807	-1.049
Mof_O 	O 	0.3178	0.118	0.3178	-0.417
Mof_Zr	Zr	0.84568	0.71607	0.84568	3.213
Mof_Zr	Zr	0.89567	0.65742	0.89567	3.214
Mof_O 	O 	0.87245	0.72174	0.87245	-1.508
Mof_O 	O 	0.90127	0.70061	0.90127	-1.146
Mof_O 	O 	0.84743	0.67724	0.84743	-1.42
Mof_O 	O 	0.86807	0.64163	0.86807	-1.049
Mof_O 	O 	0.8178	0.618	0.8178	-0.417
Mof_Zr	Zr	0.65432	0.21607	0.65432	3.213
Mof_Zr	Zr	0.60433	0.15742	0.60433	3.214
Mof_O 	O 	0.62755	0.22174	0.62755	-1.508
Mof_O 	O 	0.59873	0.20061	0.59873	-1.146
Mof_O 	O 	0.65257	0.17724	0.65257	-1.42
Mof_O 	O 	0.63193	0.14163	0.63193	-1.049
Mof_O 	O 	0.6822	0.118	0.6822	-0.417
Mof_Zr	Zr	0.15432	0.71607	0.15432	3.213
Mof_Zr	Zr	0.10433	0.65742	0.10433	3.214
Mof_O 	O 	0.12755	0.72174	0.12755	-1.508
Mof_O 	O 	0.09873	0.70061	0.09873	-1.146
Mof_O 	O 	0.15257	0.67724	0.15257	-1.42
Mof_O 	O 	0.13193	0.64163	0.13193	-1.049
Mof_O 	O 	0.1822	0.618	0.1822	-0.416
Mof_Zr	Zr	0.34568	0.78393	0.65432	3.213
Mof_Zr	Zr	0.39567	0.84258	0.60433	3.214
Mof_O 	O 	0.37245	0.77826	0.62755	-1.508
Mof_O 	O 	0.40127	0.79939	0.59873	-1.146
Mof_O 	O 	0.34743	0.82276	0.65257	-1.42
Mof_O 	O 	0.36807	0.85837	0.63193	-1.049
Mof_O 	O 	0.3178	0.882	0.6822	-0.416
Mof_Zr	Zr	0.84568	0.28393	0.15432	3.213
Mof_Zr	Zr	0.89567	0.34258	0.10433	3.214
Mof_O 	O 	0.87245	0.27826	0.12755	-1.508
Mof_O 	O 	0.90127	0.29939	0.09873	-1.146
Mof_O 	O 	0.84743	0.32276	0.15257	-1.42
Mof_O 	O 	0.86807	0.35837	0.13193	-1.049
Mof_O 	O 	0.8178	0.382	0.1822	-0.416
Mof_Zr	Zr	0.65432	0.78393	0.34568	3.213
Mof_Zr	Zr	0.60433	0.84258	0.39567	3.214
Mof_O 	O 	0.62755	0.77826	0.37245	-1.508
Mof_O 	O 	0.59873	0.79939	0.40127	-1.146
Mof_O 	O 	0.65257	0.82276	0.34743	-1.42
Mof_O 	O 	0.63193	0.85837	0.36807	-1.049
Mof_O 	O 	0.6822	0.882	0.3178	-0.416
Mof_Zr	Zr	0.15432	0.28393	0.84568	3.213
Mof_Zr	Zr	0.10433	0.34258	0.89567	3.214
Mof_O 	O 	0.12755	0.27826	0.87245	-1.508
Mof_O 	O 	0.09873	0.29939	0.90127	-1.146
Mof_O 	O 	0.15257	0.32276	0.84743	-1.42
Mof_O 	O 	0.13193	0.35837	0.86807	-1.049
Mof_O 	O 	0.1822	0.382	0.8178	-0.416
Mof_Zr	Zr	0.34568	0.34568	0.78393	3.213
Mof_Zr	Zr	0.39567	0.39567	0.84258	3.214
Mof_O 	O 	0.37245	0.37245	0.77826	-1.508
Mof_O 	O 	0.40127	0.40127	0.79939	-1.146
Mof_O 	O 	0.34743	0.34743	0.82276	-1.42
Mof_O 	O 	0.36807	0.36807	0.85837	-1.049
Mof_O 	O 	0.3178	0.3178	0.882	-0.416
Mof_Zr	Zr	0.84568	0.84568	0.28393	3.213
Mof_Zr	Zr	0.89567	0.89567	0.34258	3.214
Mof_O 	O 	0.87245	0.87245	0.27826	-1.508
Mof_O 	O 	0.90127	0.90127	0.29939	-1.146
Mof_O 	O 	0.84743	0.84743	0.32276	-1.42
Mof_O 	O 	0.86807	0.86807	0.35837	-1.049
Mof_O 	O 	0.8178	0.8178	0.382	-0.417
Mof_Zr	Zr	0.65432	0.65432	0.78393	3.213
Mof_Zr	Zr	0.60433	0.60433	0.84258	3.214
Mof_O 	O 	0.62755	0.62755	0.77826	-1.508
Mof_O 	O 	0.59873	0.59873	0.79939	-1.146
Mof_O 	O 	0.65257	0.65257	0.82276	-1.42
Mof_O 	O 	0.63193	0.63193	0.85837	-1.049
Mof_O 	O 	0.6822	0.6822	0.882	-0.416
Mof_Zr	Zr	0.15432	0.15432	0.28393	3.213
Mof_Zr	Zr	0.10433	0.10433	0.34258	3.214
Mof_O 	O 	0.12755	0.12755	0.27826	-1.508
Mof_O 	O 	0.09873	0.09873	0.29939	-1.146
Mof_O 	O 	0.15257	0.15257	0.32276	-1.42
Mof_O 	O 	0.13193	0.13193	0.35837	-1.049
Mof_O 	O 	0.1822	0.1822	0.382	-0.416
Mof_Zr	Zr	0.34568	0.65432	0.21607	3.213
Mof_Zr	Zr	0.39567	0.60433	0.15742	3.214
Mof_O 	O 	0.37245	0.62755	0.22174	-1.508
Mof_O 	O 	0.40127	0.59873	0.20061	-1.146
Mof_O 	O 	0.34743	0.65257	0.17724	-1.42
Mof_O 	O 	0.36807	0.63193	0.14163	-1.049
Mof_O 	O 	0.3178	0.6822	0.118	-0.417
Mof_Zr	Zr	0.84568	0.15432	0.71607	3.213
Mof_Zr	Zr	0.89567	0.10433	0.65742	3.214
Mof_O 	O 	0.87245	0.12755	0.72174	-1.508
Mof_O 	O 	0.90127	0.09873	0.70061	-1.146
Mof_O 	O 	0.84743	0.15257	0.67724	-1.42
Mof_O 	O 	0.86807	0.13193	0.64163	-1.049
Mof_O 	O 	0.8178	0.1822	0.618	-0.417
Mof_Zr	Zr	0.65432	0.34568	0.21607	3.213
Mof_Zr	Zr	0.60433	0.39567	0.15742	3.214
Mof_O 	O 	0.62755	0.37245	0.22174	-1.508
Mof_O 	O 	0.59873	0.40127	0.20061	-1.146
Mof_O 	O 	0.65257	0.34743	0.17724	-1.42
Mof_O 	O 	0.63193	0.36807	0.14163	-1.049
Mof_O 	O 	0.6822	0.3178	0.118	-0.417
Mof_Zr	Zr	0.15432	0.84568	0.71607	3.213
Mof_Zr	Zr	0.10433	0.89567	0.65742	3.214
Mof_O 	O 	0.12755	0.87245	0.72174	-1.508
Mof_O 	O 	0.09873	0.90127	0.70061	-1.146
Mof_O 	O 	0.15257	0.84743	0.67724	-1.42
Mof_O 	O 	0.13193	0.86807	0.64163	-1.049
Mof_O 	O 	0.1822	0.8178	0.618	-0.417
Mof_Zr	Zr	0.34568	0.21607	0.65432	3.213
Mof_Zr	Zr	0.39567	0.15742	0.60433	3.214
Mof_O 	O 	0.37245	0.22174	0.62755	-1.508
Mof_O 	O 	0.40127	0.20061	0.59873	-1.146
Mof_O 	O 	0.34743	0.17724	0.65257	-1.42
Mof_O 	O 	0.36807	0.14163	0.63193	-1.049
Mof_O 	O 	0.3178	0.118	0.6822	-0.417
Mof_Zr	Zr	0.84568	0.71607	0.15432	3.213
Mof_Zr	Zr	0.89567	0.65742	0.10433	3.214
Mof_O 	O 	0.87245	0.72174	0.12755	-1.508
Mof_O 	O 	0.90127	0.70061	0.09873	-1.146
Mof_O 	O 	0.84743	0.67724	0.15257	-1.42
Mof_O 	O 	0.86807	0.64163	0.13193	-1.049
Mof_O 	O 	0.8178	0.618	0.1822	-0.417
Mof_Zr	Zr	0.65432	0.21607	0.34568	3.213
Mof_Zr	Zr	0.60433	0.15742	0.39567	3.214
Mof_O 	O 	0.62755	0.22174	0.37245	-1.508
Mof_O 	O 	0.59873	0.20061	0.40127	-1.146
Mof_O 	O 	0.65257	0.17724	0.34743	-1.42
Mof_O 	O 	0.63193	0.14163	0.36807	-1.049
Mof_O 	O 	0.6822	0.118	0.3178	-0.417
Mof_Zr	Zr	0.15432	0.71607	0.84568	3.213
Mof_Zr	Zr	0.10433	0.65742	0.89567	3.214
Mof_O 	O 	0.12755	0.72174	0.87245	-1.508
Mof_O 	O 	0.09873	0.70061	0.90127	-1.146
Mof_O 	O 	0.15257	0.67724	0.84743	-1.42
Mof_O 	O 	0.13193	0.64163	0.86807	-1.049
Mof_O 	O 	0.1822	0.618	0.8178	-0.417
Mof_Zr	Zr	0.65432	0.78393	0.65432	3.213
Mof_Zr	Zr	0.60433	0.84258	0.60433	3.214
Mof_O 	O 	0.62755	0.77826	0.62755	-1.508
Mof_O 	O 	0.59873	0.79939	0.59873	-1.146
Mof_O 	O 	0.65257	0.82276	0.65257	-1.42
Mof_O 	O 	0.63193	0.85837	0.63193	-1.049
Mof_O 	O 	0.6822	0.882	0.6822	-0.416
Mof_Zr	Zr	0.15432	0.28393	0.15432	3.213
Mof_Zr	Zr	0.10433	0.34258	0.10433	3.214
Mof_O 	O 	0.12755	0.27826	0.12755	-1.508
Mof_O 	O 	0.09873	0.29939	0.09873	-1.146
Mof_O 	O 	0.15257	0.32276	0.15257	-1.42
Mof_O 	O 	0.13193	0.35837	0.13193	-1.049
Mof_O 	O 	0.1822	0.382	0.1822	-0.416
Mof_Zr	Zr	0.34568	0.78393	0.34568	3.213
Mof_Zr	Zr	0.39567	0.84258	0.39567	3.214
Mof_O 	O 	0.37245	0.77826	0.37245	-1.508
Mof_O 	O 	0.40127	0.79939	0.40127	-1.146
Mof_O 	O 	0.34743	0.82276	0.34743	-1.42
Mof_O 	O 	0.36807	0.85837	0.36807	-1.049
Mof_O 	O 	0.3178	0.882	0.3178	-0.416
Mof_Zr	Zr	0.84568	0.28393	0.84568	3.213
Mof_Zr	Zr	0.89567	0.34258	0.89567	3.214
Mof_O 	O 	0.87245	0.27826	0.87245	-1.508
Mof_O 	O 	0.90127	0.29939	0.90127	-1.146
Mof_O 	O 	0.84743	0.32276	0.84743	-1.42
Mof_O 	O 	0.86807	0.35837	0.86807	-1.049
Mof_O 	O 	0.8178	0.382	0.8178	-0.417
Mof_Zr	Zr	0.21607	0.34568	0.65432	3.213
Mof_Zr	Zr	0.15742	0.39567	0.60433	3.214
Mof_O 	O 	0.22174	0.37245	0.62755	-1.508
Mof_O 	O 	0.20061	0.40127	0.59873	-1.146
Mof_O 	O 	0.17724	0.34743	0.65257	-1.42
Mof_O 	O 	0.14163	0.36807	0.63193	-1.049
Mof_O 	O 	0.118	0.3178	0.6822	-0.417
Mof_Zr	Zr	0.71607	0.84568	0.15432	3.213
Mof_Zr	Zr	0.65742	0.89567	0.10433	3.214
Mof_O 	O 	0.72174	0.87245	0.12755	-1.508
Mof_O 	O 	0.70061	0.90127	0.09873	-1.146
Mof_O 	O 	0.67724	0.84743	0.15257	-1.42
Mof_O 	O 	0.64163	0.86807	0.13193	-1.049
Mof_O 	O 	0.618	0.8178	0.1822	-0.417
Mof_Zr	Zr	0.21607	0.65432	0.34568	3.213
Mof_Zr	Zr	0.15742	0.60433	0.39567	3.214
Mof_O 	O 	0.22174	0.62755	0.37245	-1.508
Mof_O 	O 	0.20061	0.59873	0.40127	-1.146
Mof_O 	O 	0.17724	0.65257	0.34743	-1.42
Mof_O 	O 	0.14163	0.63193	0.36807	-1.049
Mof_O 	O 	0.118	0.6822	0.3178	-0.417
Mof_Zr	Zr	0.71607	0.15432	0.84568	3.213
Mof_Zr	Zr	0.65742	0.10433	0.89567	3.214
Mof_O 	O 	0.72174	0.12755	0.87245	-1.508
Mof_O 	O 	0.70061	0.09873	0.90127	-1.146
Mof_O 	O 	0.67724	0.15257	0.84743	-1.42
Mof_O 	O 	0.64163	0.13193	0.86807	-1.049
Mof_O 	O 	0.618	0.1822	0.8178	-0.417
Mof_Zr	Zr	0.78393	0.34568	0.34568	3.213
Mof_Zr	Zr	0.84258	0.39567	0.39567	3.214
Mof_O 	O 	0.77826	0.37245	0.37245	-1.508
Mof_O 	O 	0.79939	0.40127	0.40127	-1.146
Mof_O 	O 	0.82276	0.34743	0.34743	-1.42
Mof_O 	O 	0.85837	0.36807	0.36807	-1.049
Mof_O 	O 	0.882	0.3178	0.3178	-0.416
Mof_Zr	Zr	0.28393	0.84568	0.84568	3.213
Mof_Zr	Zr	0.34258	0.89567	0.89567	3.214
Mof_O 	O 	0.27826	0.87245	0.87245	-1.508
Mof_O 	O 	0.29939	0.90127	0.90127	-1.146
Mof_O 	O 	0.32276	0.84743	0.84743	-1.42
Mof_O 	O 	0.35837	0.86807	0.86807	-1.049
Mof_O 	O 	0.382	0.8178	0.8178	-0.417
Mof_Zr	Zr	0.78393	0.65432	0.65432	3.213
Mof_Zr	Zr	0.84258	0.60433	0.60433	3.214
Mof_O 	O 	0.77826	0.62755	0.62755	-1.508
Mof_O 	O 	0.79939	0.59873	0.59873	-1.146
Mof_O 	O 	0.82276	0.65257	0.65257	-1.42
Mof_O 	O 	0.85837	0.63193	0.63193	-1.049
Mof_O 	O 	0.882	0.6822	0.6822	-0.416
Mof_Zr	Zr	0.28393	0.15432	0.15432	3.213
Mof_Zr	Zr	0.34258	0.10433	0.10433	3.214
Mof_O 	O 	0.27826	0.12755	0.12755	-1.508
Mof_O 	O 	0.29939	0.09873	0.09873	-1.146
Mof_O 	O 	0.32276	0.15257	0.15257	-1.42
Mof_O 	O 	0.35837	0.13193	0.13193	-1.049
Mof_O 	O 	0.382	0.1822	0.1822	-0.416
Mof_Zr	Zr	0.25	0.46703	0.03297	3.174
Mof_S 	S 	0.25	0.33723	0.16277	0.101
Mof_Zr	Zr	0.75	0.53297	0.03297	3.174
Mof_S 	S 	0.75	0.66277	0.16277	0.101
Mof_Zr	Zr	0.75	0.46703	0.96703	3.174
Mof_S 	S 	0.75	0.33723	0.83723	0.101
Mof_Zr	Zr	0.25	0.53297	0.96703	3.174
Mof_S 	S 	0.25	0.66277	0.83723	0.101
Mof_Zr	Zr	0.03297	0.25	0.46703	3.174
Mof_S 	S 	0.16277	0.25	0.33723	0.101
Mof_Zr	Zr	0.03297	0.75	0.53297	3.174
Mof_S 	S 	0.16277	0.75	0.66277	0.101
Mof_Zr	Zr	0.96703	0.75	0.46703	3.174
Mof_S 	S 	0.83723	0.75	0.33723	0.101
Mof_Zr	Zr	0.96703	0.25	0.53297	3.174
Mof_S 	S 	0.83723	0.25	0.66277	0.101
Mof_Zr	Zr	0.46703	0.03297	0.25	3.174
Mof_S 	S 	0.33723	0.16277	0.25	0.101
Mof_Zr	Zr	0.53297	0.03297	0.75	3.174
Mof_S 	S 	0.66277	0.16277	0.75	0.101
Mof_Zr	Zr	0.46703	0.96703	0.75	3.174
Mof_S 	S 	0.33723	0.83723	0.75	0.101
Mof_Zr	Zr	0.53297	0.96703	0.25	3.174
Mof_S 	S 	0.66277	0.83723	0.25	0.101
Mof_Zr	Zr	0.46703	0.25	0.96703	3.174
Mof_S 	S 	0.33723	0.25	0.83723	0.101
Mof_Zr	Zr	0.53297	0.75	0.96703	3.174
Mof_S 	S 	0.66277	0.75	0.83723	0.101
Mof_Zr	Zr	0.46703	0.75	0.03297	3.174
Mof_S 	S 	0.33723	0.75	0.16277	0.101
Mof_Zr	Zr	0.53297	0.25	0.03297	3.174
Mof_S 	S 	0.66277	0.25	0.16277	0.101
Mof_Zr	Zr	0.25	0.03297	0.53297	3.174
Mof_S 	S 	0.25	0.16277	0.66277	0.101
Mof_Zr	Zr	0.75	0.03297	0.46703	3.174
Mof_S 	S 	0.75	0.16277	0.33723	0.101
Mof_Zr	Zr	0.75	0.96703	0.53297	3.174
Mof_S 	S 	0.75	0.83723	0.66277	0.101
Mof_Zr	Zr	0.25	0.96703	0.46703	3.174
Mof_S 	S 	0.25	0.83723	0.33723	0.101
Mof_Zr	Zr	0.03297	0.46703	0.75	3.174
Mof_S 	S 	0.16277	0.33723	0.75	0.101
Mof_Zr	Zr	0.03297	0.53297	0.25	3.174
Mof_S 	S 	0.16277	0.66277	0.25	0.101
Mof_Zr	Zr	0.96703	0.46703	0.25	3.174
Mof_S 	S 	0.83723	0.33723	0.25	0.101
Mof_Zr	Zr	0.96703	0.53297	0.75	3.174
Mof_S 	S 	0.83723	0.66277	0.75	0.101
Mof_Zr	Zr	0.75	0.53297	0.96703	3.174
Mof_S 	S 	0.75	0.66277	0.83723	0.101
Mof_Zr	Zr	0.25	0.03297	0.46703	3.174
Mof_S 	S 	0.25	0.16277	0.33723	0.101
Mof_Zr	Zr	0.25	0.46703	0.96703	3.174
Mof_S 	S 	0.25	0.33723	0.83723	0.101
Mof_Zr	Zr	0.25	0.53297	0.03297	3.174
Mof_S 	S 	0.25	0.66277	0.16277	0.101
Mof_Zr	Zr	0.75	0.46703	0.03297	3.174
Mof_S 	S 	0.75	0.33723	0.16277	0.101
Mof_Zr	Zr	0.96703	0.75	0.53297	3.174
Mof_S 	S 	0.83723	0.75	0.66277	0.101
Mof_Zr	Zr	0.46703	0.25	0.03297	3.174
Mof_S 	S 	0.33723	0.25	0.16277	0.101
Mof_Zr	Zr	0.96703	0.25	0.46703	3.174
Mof_S 	S 	0.83723	0.25	0.33723	0.101
Mof_Zr	Zr	0.03297	0.25	0.53297	3.174
Mof_S 	S 	0.16277	0.25	0.66277	0.101
Mof_Zr	Zr	0.03297	0.75	0.46703	3.174
Mof_S 	S 	0.16277	0.75	0.33723	0.101
Mof_Zr	Zr	0.53297	0.96703	0.75	3.174
Mof_S 	S 	0.66277	0.83723	0.75	0.101
Mof_Zr	Zr	0.03297	0.46703	0.25	3.174
Mof_S 	S 	0.16277	0.33723	0.25	0.101
Mof_Zr	Zr	0.46703	0.96703	0.25	3.174
Mof_S 	S 	0.33723	0.83723	0.25	0.101
Mof_Zr	Zr	0.53297	0.03297	0.25	3.174
Mof_S 	S 	0.66277	0.16277	0.25	0.101
Mof_Zr	Zr	0.46703	0.03297	0.75	3.174
Mof_S 	S 	0.33723	0.16277	0.75	0.101
Mof_Zr	Zr	0.53297	0.75	0.03297	3.174
Mof_S 	S 	0.66277	0.75	0.16277	0.101
Mof_Zr	Zr	0.53297	0.25	0.96703	3.174
Mof_S 	S 	0.66277	0.25	0.83723	0.101
Mof_Zr	Zr	0.46703	0.75	0.96703	3.174
Mof_S 	S 	0.33723	0.75	0.83723	0.101
Mof_Zr	Zr	0.75	0.96703	0.46703	3.174
Mof_S 	S 	0.75	0.83723	0.33723	0.101
Mof_Zr	Zr	0.25	0.96703	0.53297	3.174
Mof_S 	S 	0.25	0.83723	0.66277	0.101
Mof_Zr	Zr	0.75	0.03297	0.53297	3.174
Mof_S 	S 	0.75	0.16277	0.66277	0.101
Mof_Zr	Zr	0.96703	0.53297	0.25	3.174
Mof_S 	S 	0.83723	0.66277	0.25	0.101
Mof_Zr	Zr	0.96703	0.46703	0.75	3.174
Mof_S 	S 	0.83723	0.33723	0.75	0.101
Mof_Zr	Zr	0.03297	0.53297	0.75	3.174
Mof_S 	S 	0.16277	0.66277	0.75	0.101
Mof_Zr	Zr	0.29596	0.5	-0	3.213
Mof_Zr	Zr	0.79596	0	0.5	3.213
Mof_Zr	Zr	0.70404	0.5	-0	3.213
Mof_Zr	Zr	0.20404	0	0.5	3.213
Mof_Zr	Zr	1.8747e-33	0.29596	0.5	3.213
Mof_Zr	Zr	0.5	0.79596	-0	3.213
Mof_Zr	Zr	1.23193e-32	0.70404	0.5	3.213
Mof_Zr	Zr	0.5	0.20404	-0	3.213
Mof_Zr	Zr	0.5	-2.61116e-33	0.29596	3.213
Mof_Zr	Zr	-7.46025e-33	0.5	0.79596	3.213
Mof_Zr	Zr	0.5	5.22231e-33	0.70404	3.213
Mof_Zr	Zr	3.37618e-33	0.5	0.20404	3.213
Mof_Zr	Zr	0.5	0.29596	-0	3.213
Mof_Zr	Zr	1.8747e-33	0.79596	0.5	3.213
Mof_Zr	Zr	0.5	0.70404	-0	3.213
Mof_Zr	Zr	1.8747e-33	0.20404	0.5	3.213
Mof_Zr	Zr	0.29596	0	0.5	3.213
Mof_Zr	Zr	0.79596	0.5	-0	3.213
Mof_Zr	Zr	0.70404	0	0.5	3.213
Mof_Zr	Zr	0.20404	0.5	-0	3.213
Mof_Zr	Zr	7.86204e-33	0.5	0.70404	3.213
Mof_Zr	Zr	0.5	0	0.20404	3.213
Mof_Zr	Zr	1.10967e-33	0.5	0.29596	3.213
Mof_Zr	Zr	0.5	0	0.79596	3.213
Mof_S 	S 	0.29068	0.36918	0.29068	0.104
Mof_S 	S 	0.79068	0.86918	0.79068	0.104
Mof_S 	S 	0.70932	0.63082	0.29068	0.104
Mof_S 	S 	0.20932	0.13082	0.79068	0.104
Mof_S 	S 	0.70932	0.36918	0.70932	0.104
Mof_S 	S 	0.20932	0.86918	0.20932	0.104
Mof_S 	S 	0.29068	0.63082	0.70932	0.104
Mof_S 	S 	0.79068	0.13082	0.20932	0.104
Mof_S 	S 	0.29068	0.29068	0.36918	0.104
Mof_S 	S 	0.79068	0.79068	0.86918	0.104
Mof_S 	S 	0.29068	0.70932	0.63082	0.104
Mof_S 	S 	0.79068	0.20932	0.13082	0.104
Mof_S 	S 	0.70932	0.70932	0.36918	0.104
Mof_S 	S 	0.20932	0.20932	0.86918	0.104
Mof_S 	S 	0.70932	0.29068	0.63082	0.104
Mof_S 	S 	0.20932	0.79068	0.13082	0.104
Mof_S 	S 	0.36918	0.29068	0.29068	0.104
Mof_S 	S 	0.86918	0.79068	0.79068	0.104
Mof_S 	S 	0.63082	0.29068	0.70932	0.104
Mof_S 	S 	0.13082	0.79068	0.20932	0.104
Mof_S 	S 	0.36918	0.70932	0.70932	0.104
Mof_S 	S 	0.86918	0.20932	0.20932	0.104
Mof_S 	S 	0.63082	0.70932	0.29068	0.104
Mof_S 	S 	0.13082	0.20932	0.79068	0.104
Mof_S 	S 	0.36918	0.29068	0.70932	0.104
Mof_S 	S 	0.86918	0.79068	0.20932	0.104
Mof_S 	S 	0.63082	0.70932	0.70932	0.104
Mof_S 	S 	0.13082	0.20932	0.20932	0.104
Mof_S 	S 	0.36918	0.70932	0.29068	0.104
Mof_S 	S 	0.86918	0.20932	0.79068	0.104
Mof_S 	S 	0.63082	0.29068	0.29068	0.104
Mof_S 	S 	0.13082	0.79068	0.79068	0.104
Mof_S 	S 	0.29068	0.29068	0.63082	0.104
Mof_S 	S 	0.79068	0.79068	0.13082	0.104
Mof_S 	S 	0.70932	0.29068	0.36918	0.104
Mof_S 	S 	0.20932	0.79068	0.86918	0.104
Mof_S 	S 	0.70932	0.70932	0.63082	0.104
Mof_S 	S 	0.20932	0.20932	0.13082	0.104
Mof_S 	S 	0.29068	0.70932	0.36918	0.104
Mof_S 	S 	0.79068	0.20932	0.86918	0.104
Mof_S 	S 	0.29068	0.36918	0.70932	0.104
Mof_S 	S 	0.79068	0.86918	0.20932	0.104
Mof_S 	S 	0.29068	0.63082	0.29068	0.104
Mof_S 	S 	0.79068	0.13082	0.79068	0.104
Mof_S 	S 	0.70932	0.36918	0.29068	0.104
Mof_S 	S 	0.20932	0.86918	0.79068	0.104
Mof_S 	S 	0.70932	0.63082	0.70932	0.104
Mof_S 	S 	0.20932	0.13082	0.20932	0.104
Mof_S 	S 	0.38324	0.5	0.19185	-0.014
Mof_O 	O 	0.26961	0.5	0.02802	-1.505
Mof_S 	S 	0.88324	0	0.69185	-0.014
Mof_O 	O 	0.76961	-5.22231e-33	0.52802	-1.505
Mof_S 	S 	0.61676	0.5	0.19185	-0.014
Mof_O 	O 	0.73039	0.5	0.02802	-1.505
Mof_S 	S 	0.11676	0	0.69185	-0.014
Mof_O 	O 	0.23039	-5.22231e-33	0.52802	-1.505
Mof_S 	S 	0.61676	0.5	0.80815	-0.014
Mof_O 	O 	0.73039	0.5	0.97198	-1.505
Mof_S 	S 	0.11676	0	0.30815	-0.014
Mof_O 	O 	0.23039	0	0.47198	-1.505
Mof_S 	S 	0.38324	0.5	0.80815	-0.014
Mof_O 	O 	0.26961	0.5	0.97198	-1.505
Mof_S 	S 	0.88324	0	0.30815	-0.014
Mof_O 	O 	0.76961	0	0.47198	-1.505
Mof_S 	S 	0.19185	0.38324	0.5	-0.014
Mof_O 	O 	0.02802	0.26961	0.5	-1.505
Mof_S 	S 	0.69185	0.88324	-0	-0.014
Mof_O 	O 	0.52802	0.76961	-0	-1.505
Mof_S 	S 	0.19185	0.61676	0.5	-0.014
Mof_O 	O 	0.02802	0.73039	0.5	-1.505
Mof_S 	S 	0.69185	0.11676	-0	-0.014
Mof_O 	O 	0.52802	0.23039	-0	-1.505
Mof_S 	S 	0.80815	0.61676	0.5	-0.014
Mof_O 	O 	0.97198	0.73039	0.5	-1.505
Mof_S 	S 	0.30815	0.11676	-0	-0.014
Mof_O 	O 	0.47198	0.23039	-0	-1.505
Mof_S 	S 	0.80815	0.38324	0.5	-0.014
Mof_O 	O 	0.97198	0.26961	0.5	-1.505
Mof_S 	S 	0.30815	0.88324	-0	-0.014
Mof_O 	O 	0.47198	0.76961	-0	-1.505
Mof_S 	S 	0.5	0.19185	0.38324	-0.014
Mof_O 	O 	0.5	0.02802	0.26961	-1.505
Mof_S 	S 	-1.75776e-32	0.69185	0.88324	-0.014
Mof_O 	O 	2.88558e-33	0.52802	0.76961	-1.505
Mof_S 	S 	0.5	0.19185	0.61676	-0.014
Mof_O 	O 	0.5	0.02802	0.73039	-1.505
Mof_S 	S 	-2.17338e-33	0.69185	0.11676	-0.014
Mof_O 	O 	-1.74733e-33	0.52802	0.23039	-1.505
Mof_S 	S 	0.5	0.80815	0.61676	-0.014
Mof_O 	O 	0.5	0.97198	0.73039	-1.505
Mof_S 	S 	4.3778e-34	0.30815	0.11676	-0.014
Mof_O 	O 	-1.74733e-33	0.47198	0.23039	-1.505
Mof_S 	S 	0.5	0.80815	0.38324	-0.014
Mof_O 	O 	0.5	0.97198	0.26961	-1.505
Mof_S 	S 	-7.13301e-33	0.30815	0.88324	-0.014
Mof_O 	O 	1.33302e-32	0.47198	0.76961	-1.505
Mof_S 	S 	0.5	0.38324	0.80815	-0.014
Mof_O 	O 	0.5	0.26961	0.97198	-1.505
Mof_S 	S 	-6.67809e-33	0.88324	0.30815	-0.014
Mof_O 	O 	1.74366e-32	0.76961	0.47198	-1.505
Mof_S 	S 	0.5	0.61676	0.80815	-0.014
Mof_O 	O 	0.5	0.73039	0.97198	-1.505
Mof_S 	S 	-1.45578e-33	0.11676	0.30815	-0.014
Mof_O 	O 	-3.45267e-33	0.23039	0.47198	-1.505
Mof_S 	S 	0.5	0.61676	0.19185	-0.014
Mof_O 	O 	0.5	0.73039	0.02802	-1.505
Mof_S 	S 	-2.62829e-33	0.11676	0.69185	-0.014
Mof_O 	O 	-3.24255e-33	0.23039	0.52802	-1.505
Mof_S 	S 	0.5	0.38324	0.19185	-0.014
Mof_O 	O 	0.5	0.26961	0.02802	-1.505
Mof_S 	S 	-1.82952e-32	0.88324	0.69185	-0.014
Mof_O 	O 	7.20207e-33	0.76961	0.52802	-1.505
Mof_S 	S 	0.38324	0.19185	0.5	-0.014
Mof_O 	O 	0.26961	0.02802	0.5	-1.505
Mof_S 	S 	0.88324	0.69185	-0	-0.014
Mof_O 	O 	0.76961	0.52802	-0	-1.505
Mof_S 	S 	0.61676	0.19185	0.5	-0.014
Mof_O 	O 	0.73039	0.02802	0.5	-1.505
Mof_S 	S 	0.11676	0.69185	-0	-0.014
Mof_O 	O 	0.23039	0.52802	-0	-1.505
Mof_S 	S 	0.61676	0.80815	0.5	-0.014
Mof_O 	O 	0.73039	0.97198	0.5	-1.505
Mof_S 	S 	0.11676	0.30815	-0	-0.014
Mof_O 	O 	0.23039	0.47198	-0	-1.505
Mof_S 	S 	0.38324	0.80815	0.5	-0.014
Mof_O 	O 	0.26961	0.97198	0.5	-1.505
Mof_S 	S 	0.88324	0.30815	-0	-0.014
Mof_O 	O 	0.76961	0.47198	-0	-1.505
Mof_S 	S 	0.19185	0.5	0.61676	-0.014
Mof_O 	O 	0.02802	0.5	0.73039	-1.505
Mof_S 	S 	0.69185	0	0.11676	-0.014
Mof_O 	O 	0.52802	0	0.23039	-1.505
Mof_S 	S 	0.19185	0.5	0.38324	-0.014
Mof_O 	O 	0.02802	0.5	0.26961	-1.505
Mof_S 	S 	0.69185	-1.04446e-32	0.88324	-0.014
Mof_O 	O 	0.52802	1.04446e-32	0.76961	-1.505
Mof_S 	S 	0.80815	0.5	0.38324	-0.014
Mof_O 	O 	0.97198	0.5	0.26961	-1.505
Mof_S 	S 	0.30815	-1.04446e-32	0.88324	-0.014
Mof_O 	O 	0.47198	1.04446e-32	0.76961	-1.505
Mof_S 	S 	0.80815	0.5	0.61676	-0.014
Mof_O 	O 	0.97198	0.5	0.73039	-1.505
Mof_S 	S 	0.30815	0	0.11676	-0.014
Mof_O 	O 	0.47198	0	0.23039	-1.505
Mof_O 	O 	0.27548	0.46224	-0	-1.14
Mof_O 	O 	0.77548	0.96224	0.5	-1.14
Mof_O 	O 	0.72452	0.53776	-0	-1.14
Mof_O 	O 	0.22452	0.03776	0.5	-1.14
Mof_O 	O 	0.72452	0.46224	-0	-1.14
Mof_O 	O 	0.22452	0.96224	0.5	-1.14
Mof_O 	O 	0.27548	0.53776	-0	-1.14
Mof_O 	O 	0.77548	0.03776	0.5	-1.14
Mof_O 	O 	-3.48919e-33	0.27548	0.46224	-1.14
Mof_O 	O 	0.5	0.77548	0.96224	-1.14
Mof_O 	O 	2.01628e-33	0.72452	0.53776	-1.14
Mof_O 	O 	0.5	0.22452	0.03776	-1.14
Mof_O 	O 	-3.48919e-33	0.72452	0.46224	-1.14
Mof_O 	O 	0.5	0.22452	0.96224	-1.14
Mof_O 	O 	-8.42835e-33	0.27548	0.53776	-1.14
Mof_O 	O 	0.5	0.77548	0.03776	-1.14
Mof_O 	O 	0.46224	-2.61116e-33	0.27548	-1.14
Mof_O 	O 	0.96224	0.5	0.77548	-1.14
Mof_O 	O 	0.53776	0	0.72452	-1.14
Mof_O 	O 	0.03776	0.5	0.22452	-1.14
Mof_O 	O 	0.46224	0	0.72452	-1.14
Mof_O 	O 	0.96224	0.5	0.22452	-1.14
Mof_O 	O 	0.53776	-2.61116e-33	0.27548	-1.14
Mof_O 	O 	0.03776	0.5	0.77548	-1.14
Mof_O 	O 	0.46224	0.27548	-0	-1.14
Mof_O 	O 	0.96224	0.77548	0.5	-1.14
Mof_O 	O 	0.53776	0.72452	-0	-1.14
Mof_O 	O 	0.03776	0.22452	0.5	-1.14
Mof_O 	O 	0.46224	0.72452	-0	-1.14
Mof_O 	O 	0.96224	0.22452	0.5	-1.14
Mof_O 	O 	0.53776	0.27548	-0	-1.14
Mof_O 	O 	0.03776	0.77548	0.5	-1.14
Mof_O 	O 	0.27548	-5.22231e-33	0.53776	-1.14
Mof_O 	O 	0.77548	0.5	0.03776	-1.14
Mof_O 	O 	0.72452	5.22231e-33	0.46224	-1.14
Mof_O 	O 	0.22452	0.5	0.96224	-1.14
Mof_O 	O 	0.72452	-5.22231e-33	0.53776	-1.14
Mof_O 	O 	0.22452	0.5	0.03776	-1.14
Mof_O 	O 	0.27548	5.22231e-33	0.46224	-1.14
Mof_O 	O 	0.77548	0.5	0.96224	-1.14
Mof_O 	O 	-7.72811e-33	0.46224	0.72452	-1.14
Mof_O 	O 	0.5	0.96224	0.22452	-1.14
Mof_O 	O 	-6.80058e-33	0.53776	0.27548	-1.14
Mof_O 	O 	0.5	0.03776	0.77548	-1.14
Mof_O 	O 	-1.57827e-33	0.46224	0.27548	-1.14
Mof_O 	O 	0.5	0.96224	0.77548	-1.14
Mof_O 	O 	2.71651e-33	0.53776	0.72452	-1.14
Mof_O 	O 	0.5	0.03776	0.22452	-1.14
_end
