data_functionalizedCrystal
_audit_creation_method	'EQeq! by Chris Wilmer'
_symmetry_space_group_name_H-M	'P1'
_symmetry_Int_Tables_number	1
_symmetry_cell_setting	triclinic
loop_
_symmetry_equiv_pos_as_xyz
  x,y,z
_cell_length_a	12.5599
_cell_length_b	12.7481
_cell_length_c	13.367
_cell_angle_alpha	99.749
_cell_angle_beta	105.537
_cell_angle_gamma	111.878
loop_
_atom_site_label
_atom_site_type_symbol
_atom_site_fract_x
_atom_site_fract_y
_atom_site_fract_z
_atom_site_charge
Mof_N 	N 	0.6088	0.4267	0.5638	-0.245
Mof_N 	N 	0.3533	0.3451	0.4643	-0.247
Mof_C 	C 	0.635	0.4122	0.6618	0.091
Mof_C 	C 	0.6736	0.3824	0.5194	0.09
Mof_C 	C 	0.6928	0.7071	0.4696	0.099
Mof_C 	C 	0.7085	0.7407	0.6329	0.098
Mof_N 	N 	0.714	0.3661	0.6765	-0.104
Mof_H 	H 	0.6023	0.4316	0.7129	-0.021
Mof_N 	N 	0.7408	0.3466	0.5855	-0.102
Mof_H 	H 	0.671	0.3777	0.4485	-0.024
Mof_N 	N 	0.7763	0.8164	0.5239	-0.103
Mof_H 	H 	0.6696	0.6718	0.3955	-0.026
Mof_N 	N 	0.7862	0.8405	0.6294	-0.09
Mof_H 	H 	0.6964	0.7294	0.6966	-0.02
Mof_N 	N 	0.8699	0.0242	0.8935	-0.23
Mof_N 	N 	0.9677	0.0816	0.1255	-0.24
Mof_C 	C 	0.7751	0.3458	0.7753	0.006
Mof_C 	C 	0.8466	0.908	0.4838	0.022
Mof_C 	C 	0.7495	0.962	0.862	0.104
Mof_C 	C 	0.8826	0.0958	0.8285	0.1
Mof_C 	C 	0.9701	0.1877	0.1486	0.094
Mof_C 	C 	0.9286	0.0359	0.1996	0.089
Mof_H 	H 	0.8004	0.2844	0.7562	0.042
Mof_H 	H 	0.7176	0.3183	0.8118	0.03
Mof_C 	C 	0.8865	0.4575	0.852	-0.217
Mof_C 	C 	0.7988	0.0012	0.4776	-0.225
Mof_H 	H 	0.9324	0.9461	0.5318	0.037
Mof_H 	H 	0.8422	0.8716	0.412	0.025
Mof_N 	N 	0.6942	0.994	0.7815	-0.101
Mof_H 	H 	0.7098	0.9048	0.8913	-0.015
Mof_N 	N 	0.7784	0.0802	0.7587	-0.102
Mof_H 	H 	0.9587	0.1511	0.8333	-0.007
Mof_N 	N 	0.9316	0.2034	0.2298	-0.094
Mof_H 	H 	0.9955	0.2433	0.1125	-0.021
Mof_N 	N 	0.9034	0.1057	0.2649	-0.099
Mof_H 	H 	0.92	0.9615	0.2045	-0.007
Mof_C 	C 	0.946	0.4426	0.961	0.087
Mof_H 	H 	0.8622	0.5208	0.865	0.101
Mof_H 	H 	0.9469	0.4807	0.8175	0.106
Mof_H 	H 	0.8501	0.0618	0.4535	0.099
Mof_H 	H 	0.8052	0.0388	0.5498	0.108
Mof_C 	C 	0.6674	0.9504	0.4015	0.054
Mof_C 	C 	0.5628	0.935	0.7096	0.026
Mof_C 	C 	0.9118	0.3037	0.2785	-0.059
Mof_H 	H 	0.8848	0.4159	0.9942	0.018
Mof_H 	H 	0.9743	0.3822	0.9485	0.017
Mof_C 	C 	0.622	0.0406	0.3856	-0.225
Mof_H 	H 	0.6154	0.8952	0.4296	0.021
Mof_H 	H 	0.6597	0.906	0.3313	0.012
Mof_C 	C 	0.5149	0.0203	0.6887	-0.211
Mof_H 	H 	0.5535	0.8859	0.641	0.029
Mof_H 	H 	0.5152	0.8838	0.7433	0.022
Mof_C 	C 	0.9887	0.3643	0.3968	-0.049
Mof_H 	H 	0.8257	0.2754	0.2698	0.043
Mof_H 	H 	0.9297	0.3613	0.2389	0.046
Mof_H 	H 	0.632	0.0876	0.4556	0.096
Mof_H 	H 	0.6699	0.0932	0.353	0.092
Mof_H 	H 	0.5624	0.0713	0.6547	0.098
Mof_H 	H 	0.5246	0.0697	0.7574	0.095
Mof_C 	C 	0.9668	0.4702	0.4397	-0.112
Mof_H 	H 	0.0751	0.391	0.4068	0.033
Mof_H 	H 	0.9684	0.3087	0.4378	0.055
Mof_H 	H 	0.9929	0.5279	0.4017	0.07
Mof_H 	H 	0.8792	0.4438	0.4231	0.059
Mof_N 	N 	0.3912	0.5733	0.4362	-0.245
Mof_N 	N 	0.6467	0.6549	0.5357	-0.248
Mof_C 	C 	0.365	0.5878	0.3382	0.086
Mof_C 	C 	0.3264	0.6176	0.4806	0.091
Mof_C 	C 	0.3072	0.2929	0.5304	0.088
Mof_C 	C 	0.2915	0.2593	0.3671	0.095
Mof_N 	N 	0.286	0.6339	0.3235	-0.089
Mof_H 	H 	0.3977	0.5684	0.2871	-0.025
Mof_N 	N 	0.2592	0.6534	0.4145	-0.104
Mof_H 	H 	0.329	0.6223	0.5515	-0.02
Mof_N 	N 	0.2237	0.1836	0.4761	-0.092
Mof_H 	H 	0.3304	0.3282	0.6045	-0.02
Mof_N 	N 	0.2138	0.1595	0.3706	-0.1
Mof_H 	H 	0.3036	0.2706	0.3034	-0.028
Mof_N 	N 	0.1301	0.9758	0.1065	-0.242
Mof_N 	N 	0.0323	0.9184	0.8745	-0.236
Mof_C 	C 	0.2249	0.6542	0.2247	-0.106
Mof_C 	C 	0.1534	0.092	0.5162	-0.08
Mof_C 	C 	0.2505	0.038	0.138	0.068
Mof_C 	C 	0.1174	0.9042	0.1715	0.095
Mof_C 	C 	0.0299	0.8123	0.8514	0.1
Mof_C 	C 	0.0714	0.9641	0.8004	0.12
Mof_H 	H 	0.1996	0.7156	0.2438	0.073
Mof_H 	H 	0.2824	0.6817	0.1882	0.057
Mof_C 	C 	0.1135	0.5425	0.148	0
Mof_C 	C 	0.2012	0.9988	0.5224	-0.03
Mof_H 	H 	0.0676	0.0539	0.4682	0.046
Mof_H 	H 	0.1578	0.1284	0.588	0.047
Mof_N 	N 	0.3058	0.006	0.2185	-0.093
Mof_H 	H 	0.2902	0.0952	0.1087	-0.028
Mof_N 	N 	0.2216	0.9198	0.2413	-0.098
Mof_H 	H 	0.0413	0.8489	0.1667	-0.031
Mof_N 	N 	0.0684	0.7966	0.7702	-0.105
Mof_H 	H 	0.0045	0.7567	0.8875	-0.018
Mof_N 	N 	0.0966	0.8943	0.7351	-0.103
Mof_H 	H 	0.08	0.0385	0.7955	-0.034
Mof_C 	C 	0.054	0.5574	0.039	-0.272
Mof_H 	H 	0.1378	0.4792	0.135	0.012
Mof_H 	H 	0.0531	0.5193	0.1825	0.016
Mof_H 	H 	0.1499	0.9382	0.5465	0.038
Mof_H 	H 	0.1948	0.9612	0.4502	0.052
Mof_C 	C 	0.3326	0.0496	0.5985	-0.185
Mof_C 	C 	0.4372	0.065	0.2904	-0.1
Mof_C 	C 	0.0882	0.6963	0.7215	0.007
Mof_H 	H 	0.1152	0.5841	0.0058	0.083
Mof_H 	H 	0.0257	0.6178	0.0515	0.084
Mof_C 	C 	0.378	0.9594	0.6144	0.012
Mof_H 	H 	0.3846	0.1048	0.5704	0.088
Mof_H 	H 	0.3403	0.094	0.6687	0.081
Mof_C 	C 	0.4851	0.9797	0.3113	-0.011
Mof_H 	H 	0.4465	0.1141	0.359	0.062
Mof_H 	H 	0.4848	0.1162	0.2567	0.049
Mof_C 	C 	0.0113	0.6357	0.6032	-0.2
Mof_H 	H 	0.1743	0.7246	0.7302	0.034
Mof_H 	H 	0.0703	0.6387	0.7611	0.022
Mof_H 	H 	0.368	0.9124	0.5444	0.032
Mof_H 	H 	0.3301	0.9068	0.647	0.029
Mof_H 	H 	0.4376	0.9287	0.3453	0.044
Mof_H 	H 	0.4754	0.9303	0.2426	0.033
Mof_C 	C 	0.0332	0.5298	0.5603	-0.056
Mof_H 	H 	0.9249	0.609	0.5932	0.108
Mof_H 	H 	0.0316	0.6913	0.5622	0.088
Mof_H 	H 	0.0071	0.4721	0.5983	0.036
Mof_H 	H 	0.1208	0.5562	0.5769	0.041
Mof_Cu	Cu	-0	0	-0	0.813
Mof_Cu	Cu	0.5	0.5	0.5	0.851
_end
