data_functionalizedCrystal
_audit_creation_method	'EQeq! by Chris Wilmer'
_symmetry_space_group_name_H-M	'P1'
_symmetry_Int_Tables_number	1
_symmetry_cell_setting	triclinic
loop_
_symmetry_equiv_pos_as_xyz
  x,y,z
_cell_length_a	9.5285
_cell_length_b	12.76
_cell_length_c	18.896
_cell_angle_alpha	106.72
_cell_angle_beta	98.91
_cell_angle_gamma	98.59
loop_
_atom_site_label
_atom_site_type_symbol
_atom_site_fract_x
_atom_site_fract_y
_atom_site_fract_z
_atom_site_charge
Mof_Pr	Pr	0.7677	0.98611	0.49706	2.488
Mof_O 	O 	0.5453	0.9614	0.41139	-0.697
Mof_O 	O 	0.3123	0.9592	0.38227	-0.616
Mof_O 	O 	0.1437	0.9426	0.60099	-0.593
Mof_O 	O 	0.904	0.8947	0.57077	-0.626
Mof_O 	O 	0.9885	0.1165	0.57177	-0.656
Mof_O 	O 	0.2233	0.1819	0.6063	-0.567
Mof_N 	N 	0.4325	0.8255	0.132	-0.116
Mof_N 	N 	0.0096	0.8634	0.825	-0.116
Mof_N 	N 	0.0425	0.4038	0.8198	-0.118
Mof_C 	C 	0.4316	0.9456	0.3648	0.552
Mof_C 	C 	0.5575	0.8476	0.1829	-0.03
Mof_H 	H 	0.6425	0.8356	0.1664	0.033
Mof_C 	C 	0.5605	0.8874	0.2579	0.03
Mof_H 	H 	0.6473	0.9027	0.2927	0.019
Mof_C 	C 	0.4337	0.9051	0.2826	-0.184
Mof_C 	C 	0.3084	0.8846	0.2297	0.021
Mof_H 	H 	0.2225	0.8975	0.2449	0.029
Mof_C 	C 	0.3105	0.845	0.1543	-0.021
Mof_H 	H 	0.2257	0.8317	0.1184	0.04
Mof_C 	C 	0.0246	0.911	0.6132	0.547
Mof_C 	C 	0.8907	0.8754	0.7842	-0.022
Mof_H 	H 	0.8062	0.8764	0.803	0.019
Mof_C 	C 	0.8918	0.8865	0.7142	0.009
Mof_H 	H 	0.8068	0.8906	0.6844	0.015
Mof_C 	C 	0.0194	0.8917	0.6881	-0.153
Mof_C 	C 	0.1418	0.8799	0.7319	0.006
Mof_H 	H 	0.2282	0.8812	0.7148	0.02
Mof_C 	C 	0.136	0.8662	0.8008	-0.009
Mof_H 	H 	0.2187	0.859	0.8308	0.025
Mof_C 	C 	0.0958	0.1835	0.615	0.503
Mof_C 	C 	0.1702	0.4021	0.8055	-0.001
Mof_H 	H 	0.2502	0.4479	0.8416	0.018
Mof_C 	C 	0.192	0.3347	0.7385	0.003
Mof_H 	H 	0.2851	0.3363	0.7291	0.025
Mof_C 	C 	0.0751	0.2655	0.6858	-0.169
Mof_C 	C 	0.9396	0.2725	0.7008	0.04
Mof_H 	H 	0.8577	0.2298	0.6648	-0.013
Mof_C 	C 	0.9241	0.3403	0.7669	-0.034
Mof_H 	H 	0.8317	0.3437	0.7764	0.029
Mof_C 	C 	0.2943	0.7411	0.9979	-0.281
Mof_C 	C 	0.2312	0.6262	0.9735	0.36
Mof_C 	C 	0.0956	0.588	0.9224	-0.288
Mof_C 	C 	0.0258	0.6632	0.8958	0.368
Mof_C 	C 	0.09	0.7764	0.9236	-0.284
Mof_C 	C 	0.2243	0.8163	0.973	0.335
Mof_C 	C 	0.3067	0.5488	0.0023	-0.871
Mof_H 	H 	0.3722	0.5229	0.9705	0.268
Mof_H 	H 	0.2366	0.4862	0.0019	0.279
Mof_H 	H 	0.3602	0.5871	0.0529	0.279
Mof_C 	C 	0.0227	0.4687	0.8964	0.062
Mof_H 	H 	0.9197	0.4639	0.8951	0.001
Mof_H 	H 	0.0601	0.4342	0.9329	-0.002
Mof_C 	C 	0.8851	0.622	0.8403	-0.881
Mof_H 	H 	0.8987	0.5726	0.794	0.286
Mof_H 	H 	0.85	0.6843	0.8306	0.286
Mof_H 	H 	0.8158	0.5826	0.8604	0.275
Mof_C 	C 	0.0078	0.8602	0.9035	0.057
Mof_H 	H 	0.908	0.8414	0.9082	-0.009
Mof_H 	H 	0.0505	0.934	0.9392	0.001
Mof_C 	C 	0.296	0.9395	0.0013	-0.803
Mof_H 	H 	0.3236	0.9621	0.9602	0.254
Mof_H 	H 	0.3805	0.9529	0.0402	0.264
Mof_H 	H 	0.2277	0.9818	0.0213	0.265
Mof_C 	C 	0.4384	0.7843	0.0489	0.059
Mof_H 	H 	0.4895	0.8454	0.0357	-0.008
Mof_H 	H 	0.4938	0.7255	0.0409	-0.003
Mof_Pr	Pr	0.2323	0.01389	0.50294	2.489
Mof_O 	O 	0.4547	0.0386	0.58861	-0.696
Mof_O 	O 	0.6877	0.0408	0.61773	-0.616
Mof_O 	O 	0.8563	0.0574	0.39901	-0.593
Mof_O 	O 	0.096	0.1053	0.42923	-0.626
Mof_O 	O 	0.0115	0.8835	0.42823	-0.656
Mof_O 	O 	0.7767	0.8181	0.3937	-0.567
Mof_N 	N 	0.5675	0.1745	0.868	-0.116
Mof_N 	N 	0.9904	0.1366	0.175	-0.116
Mof_N 	N 	0.9575	0.5962	0.1802	-0.118
Mof_C 	C 	0.5684	0.0544	0.6352	0.552
Mof_C 	C 	0.4425	0.1524	0.8171	-0.03
Mof_H 	H 	0.3575	0.1644	0.8336	0.033
Mof_C 	C 	0.4395	0.1126	0.7421	0.03
Mof_H 	H 	0.3527	0.0973	0.7073	0.019
Mof_C 	C 	0.5663	0.0949	0.7174	-0.184
Mof_C 	C 	0.6916	0.1154	0.7703	0.021
Mof_H 	H 	0.7775	0.1025	0.7551	0.029
Mof_C 	C 	0.6895	0.155	0.8457	-0.021
Mof_H 	H 	0.7743	0.1683	0.8816	0.04
Mof_C 	C 	0.9754	0.089	0.3868	0.547
Mof_C 	C 	0.1093	0.1246	0.2158	-0.022
Mof_H 	H 	0.1938	0.1236	0.197	0.019
Mof_C 	C 	0.1082	0.1135	0.2858	0.009
Mof_H 	H 	0.1932	0.1094	0.3156	0.015
Mof_C 	C 	0.9806	0.1083	0.3119	-0.153
Mof_C 	C 	0.8582	0.1201	0.2681	0.006
Mof_H 	H 	0.7718	0.1188	0.2852	0.02
Mof_C 	C 	0.864	0.1338	0.1992	-0.009
Mof_H 	H 	0.7813	0.141	0.1692	0.025
Mof_C 	C 	0.9042	0.8165	0.385	0.503
Mof_C 	C 	0.8298	0.5979	0.1945	-0.001
Mof_H 	H 	0.7498	0.5521	0.1584	0.018
Mof_C 	C 	0.808	0.6653	0.2615	0.003
Mof_H 	H 	0.7149	0.6637	0.2709	0.025
Mof_C 	C 	0.9249	0.7345	0.3142	-0.169
Mof_C 	C 	0.0604	0.7275	0.2992	0.04
Mof_H 	H 	0.1423	0.7702	0.3352	-0.013
Mof_C 	C 	0.0759	0.6597	0.2331	-0.034
Mof_H 	H 	0.1683	0.6563	0.2236	0.029
Mof_C 	C 	0.7057	0.2589	0.0021	-0.281
Mof_C 	C 	0.7688	0.3738	0.0265	0.36
Mof_C 	C 	0.9044	0.412	0.0776	-0.288
Mof_C 	C 	0.9742	0.3368	0.1042	0.368
Mof_C 	C 	0.91	0.2236	0.0764	-0.284
Mof_C 	C 	0.7757	0.1837	0.027	0.335
Mof_C 	C 	0.6933	0.4512	0.9977	-0.871
Mof_H 	H 	0.6278	0.4771	0.0295	0.268
Mof_H 	H 	0.7634	0.5138	0.9981	0.279
Mof_H 	H 	0.6398	0.4129	0.9471	0.279
Mof_C 	C 	0.9773	0.5313	0.1036	0.062
Mof_H 	H 	0.0803	0.5361	0.1049	0.001
Mof_H 	H 	0.9399	0.5658	0.0671	-0.002
Mof_C 	C 	0.1149	0.378	0.1597	-0.881
Mof_H 	H 	0.1013	0.4274	0.206	0.286
Mof_H 	H 	0.15	0.3157	0.1694	0.286
Mof_H 	H 	0.1842	0.4174	0.1396	0.275
Mof_C 	C 	0.9922	0.1398	0.0965	0.057
Mof_H 	H 	0.092	0.1586	0.0918	-0.009
Mof_H 	H 	0.9495	0.066	0.0608	0.001
Mof_C 	C 	0.704	0.0605	0.9987	-0.803
Mof_H 	H 	0.6764	0.0379	0.0398	0.254
Mof_H 	H 	0.6195	0.0471	0.9598	0.264
Mof_H 	H 	0.7723	0.0182	0.9787	0.265
Mof_C 	C 	0.5616	0.2157	0.9511	0.059
Mof_H 	H 	0.5105	0.1546	0.9643	-0.008
Mof_H 	H 	0.5062	0.2745	0.9591	-0.003
_end
