data_functionalizedCrystal
_audit_creation_method	'EQeq! by Chris Wilmer'
_symmetry_space_group_name_H-M	'P1'
_symmetry_Int_Tables_number	1
_symmetry_cell_setting	triclinic
loop_
_symmetry_equiv_pos_as_xyz
  x,y,z
_cell_length_a	35.9978
_cell_length_b	35.9978
_cell_length_c	9.9081
_cell_angle_alpha	90
_cell_angle_beta	90
_cell_angle_gamma	90
loop_
_atom_site_label
_atom_site_type_symbol
_atom_site_fract_x
_atom_site_fract_y
_atom_site_fract_z
_atom_site_charge
Mof_N 	N 	0.05269	0.03764	0.0464	-0.174
Mof_N 	N 	0.05489	0.04872	0.1796	-0.377
Mof_C 	C 	0.08055	0.05472	0.9892	0.133
Mof_H 	H 	0.0861	0.0522	0.898	-0.026
Mof_C 	C 	0.08366	0.07109	0.1918	0.188
Mof_H 	H 	0.0912	0.0818	0.2727	-0.04
Mof_N 	N 	0.10064	0.07647	0.0735	-0.218
Mof_N 	N 	0.97314	0.03745	0.1131	-0.204
Mof_N 	N 	0.98715	0.05031	0.2316	-0.367
Mof_C 	C 	0.9415	0.05419	0.0985	0.123
Mof_H 	H 	0.926	0.0504	0.0248	-0.023
Mof_C 	C 	0.96272	0.07404	0.2802	0.194
Mof_H 	H 	0.9656	0.0869	0.3611	-0.045
Mof_N 	N 	0.9333	0.07748	0.1995	-0.212
Mof_N 	N 	0.01412	0.97365	0.178	-0.192
Mof_N 	N 	0.02421	0.99427	0.2882	-0.377
Mof_C 	C 	0.0167	0.93938	0.2211	0.112
Mof_H 	H 	0.011	0.9191	0.1668	-0.013
Mof_C 	C 	0.03259	0.97069	0.3876	0.182
Mof_H 	H 	0.0405	0.9778	0.4731	-0.048
Mof_N 	N 	0.02807	0.93564	0.3486	-0.16
Mof_B 	B 	0.0255	0.03665	0.2837	1.478
Mof_H 	H 	0.031	0.047	0.373	-0.548
Mof_Mn	Mn	0.13631	0.1291	0.0555	0.994
Mof_N 	N 	0.12722	0.13264	0.8589	-0.221
Mof_C 	C 	0.096	0.1397	0.8049	0.098
Mof_H 	H 	0.0947	0.139	0.7112	-0.002
Mof_C 	C 	0.0627	0.1488	0.8767	-0.161
Mof_C 	C 	0.029	0.1505	0.8022	0.067
Mof_H 	H 	0.0287	0.1468	0.7093	0.006
Mof_C 	C 	0.9965	0.1578	0.872	-0.167
Mof_H 	H 	0.9742	0.1585	0.8247	0.093
Mof_C 	C 	0.9958	0.164	0.008	0.136
Mof_H 	H 	0.9734	0.1693	0.051	-0.006
Mof_C 	C 	0.0281	0.1626	0.0797	-0.273
Mof_H 	H 	0.0275	0.1666	0.1724	0.134
Mof_C 	C 	0.0618	0.1552	0.0167	0.274
Mof_O 	O 	0.09271	0.15567	0.0923	-0.395
Mof_N 	N 	0.18045	0.10064	0.9939	-0.22
Mof_C 	C 	0.20709	0.0893	0.0702	0.108
Mof_H 	H 	0.2264	0.0766	0.0285	-0.011
Mof_C 	C 	0.2098	0.0943	0.2138	-0.218
Mof_C 	C 	0.2426	0.0846	0.2775	0.145
Mof_H 	H 	0.2613	0.0731	0.2279	-0.024
Mof_C 	C 	0.2482	0.0915	0.4128	-0.26
Mof_H 	H 	0.2702	0.0846	0.4552	0.12
Mof_C 	C 	0.2205	0.1088	0.483	0.215
Mof_H 	H 	0.2239	0.1138	0.5743	-0.054
Mof_C 	C 	0.1884	0.1188	0.4234	-0.338
Mof_H 	H 	0.1702	0.1305	0.4747	0.157
Mof_C 	C 	0.1815	0.112	0.2873	0.329
Mof_O 	O 	0.1498	0.12374	0.2367	-0.416
Mof_C 	C 	0.1603	0.1233	0.7802	-0.056
Mof_H 	H 	0.1764	0.1448	0.773	0.042
Mof_H 	H 	0.1532	0.1157	0.6899	0.042
Mof_C 	C 	0.1805	0.0925	0.8484	-0.057
Mof_H 	H 	0.1681	0.069	0.8311	0.041
Mof_H 	H 	0.2057	0.0909	0.815	0.044
Mof_N 	N 	0.55269	0.53764	0.5464	-0.167
Mof_N 	N 	0.55489	0.54872	0.6796	-0.379
Mof_C 	C 	0.58055	0.55472	0.4892	0.122
Mof_H 	H 	0.5861	0.5522	0.398	-0.022
Mof_C 	C 	0.58366	0.57109	0.6918	0.191
Mof_H 	H 	0.5912	0.5818	0.7727	-0.04
Mof_N 	N 	0.60064	0.57647	0.5735	-0.214
Mof_N 	N 	0.47314	0.53745	0.6131	-0.205
Mof_N 	N 	0.48715	0.55031	0.7316	-0.372
Mof_C 	C 	0.4415	0.55419	0.5985	0.124
Mof_H 	H 	0.426	0.5504	0.5248	-0.022
Mof_C 	C 	0.46272	0.57404	0.7802	0.195
Mof_H 	H 	0.4656	0.5869	0.8611	-0.046
Mof_N 	N 	0.4333	0.57748	0.6995	-0.212
Mof_N 	N 	0.51412	0.47365	0.678	-0.192
Mof_N 	N 	0.52421	0.49427	0.7882	-0.382
Mof_C 	C 	0.5167	0.43938	0.7211	0.113
Mof_H 	H 	0.511	0.4191	0.6668	-0.011
Mof_C 	C 	0.53259	0.47069	0.8876	0.184
Mof_H 	H 	0.5405	0.4778	0.9731	-0.048
Mof_N 	N 	0.52807	0.43564	0.8486	-0.159
Mof_B 	B 	0.5255	0.53665	0.7837	1.498
Mof_H 	H 	0.531	0.547	0.873	-0.552
Mof_Mn	Mn	0.63631	0.6291	0.5555	1
Mof_N 	N 	0.62722	0.63264	0.3589	-0.224
Mof_C 	C 	0.596	0.6397	0.3049	0.103
Mof_H 	H 	0.5947	0.639	0.2112	-0.005
Mof_C 	C 	0.5627	0.6488	0.3767	-0.174
Mof_C 	C 	0.529	0.6505	0.3022	0.087
Mof_H 	H 	0.5287	0.6468	0.2093	0
Mof_C 	C 	0.4965	0.6578	0.372	-0.189
Mof_H 	H 	0.4742	0.6585	0.3247	0.099
Mof_C 	C 	0.4958	0.664	0.508	0.143
Mof_H 	H 	0.4734	0.6693	0.551	-0.009
Mof_C 	C 	0.5281	0.6626	0.5797	-0.274
Mof_H 	H 	0.5275	0.6666	0.6724	0.136
Mof_C 	C 	0.5618	0.6552	0.5167	0.283
Mof_O 	O 	0.59271	0.65567	0.5923	-0.397
Mof_N 	N 	0.68045	0.60064	0.4939	-0.226
Mof_C 	C 	0.70709	0.5893	0.5702	0.12
Mof_H 	H 	0.7264	0.5766	0.5285	-0.013
Mof_C 	C 	0.7098	0.5943	0.7138	-0.233
Mof_C 	C 	0.7426	0.5846	0.7775	0.168
Mof_H 	H 	0.7613	0.5731	0.7279	-0.031
Mof_C 	C 	0.7482	0.5915	0.9128	-0.291
Mof_H 	H 	0.7702	0.5846	0.9552	0.133
Mof_C 	C 	0.7205	0.6088	0.983	0.259
Mof_H 	H 	0.7239	0.6138	0.0743	-0.074
Mof_C 	C 	0.6884	0.6188	0.9234	-0.366
Mof_H 	H 	0.6702	0.6305	0.9747	0.169
Mof_C 	C 	0.6815	0.612	0.7873	0.346
Mof_O 	O 	0.6498	0.62374	0.7367	-0.42
Mof_C 	C 	0.6603	0.6233	0.2802	-0.054
Mof_H 	H 	0.6764	0.6448	0.273	0.04
Mof_H 	H 	0.6532	0.6157	0.1899	0.04
Mof_C 	C 	0.6805	0.5925	0.3484	-0.057
Mof_H 	H 	0.6681	0.569	0.3311	0.041
Mof_H 	H 	0.7057	0.5909	0.315	0.043
Mof_N 	N 	0.44731	0.96236	0.5464	-0.166
Mof_N 	N 	0.44511	0.95128	0.6796	-0.38
Mof_C 	C 	0.41945	0.94528	0.4892	0.123
Mof_H 	H 	0.4139	0.9478	0.398	-0.021
Mof_C 	C 	0.41634	0.92891	0.6918	0.192
Mof_H 	H 	0.4088	0.9182	0.7727	-0.04
Mof_N 	N 	0.39936	0.92353	0.5735	-0.214
Mof_N 	N 	0.52686	0.96255	0.6131	-0.203
Mof_N 	N 	0.51285	0.94969	0.7316	-0.373
Mof_C 	C 	0.5585	0.94581	0.5985	0.124
Mof_H 	H 	0.574	0.9496	0.5248	-0.021
Mof_C 	C 	0.53728	0.92596	0.7802	0.196
Mof_H 	H 	0.5344	0.9131	0.8611	-0.046
Mof_N 	N 	0.5667	0.92252	0.6995	-0.212
Mof_N 	N 	0.48588	0.02635	0.678	-0.193
Mof_N 	N 	0.47579	0.00573	0.7882	-0.386
Mof_C 	C 	0.4833	0.06062	0.7211	0.113
Mof_H 	H 	0.489	0.0809	0.6668	-0.011
Mof_C 	C 	0.46741	0.02931	0.8876	0.184
Mof_H 	H 	0.4595	0.0222	0.9731	-0.05
Mof_N 	N 	0.47193	0.06436	0.8486	-0.159
Mof_B 	B 	0.4745	0.96335	0.7837	1.508
Mof_H 	H 	0.469	0.953	0.873	-0.554
Mof_Mn	Mn	0.36369	0.8709	0.5555	1
Mof_N 	N 	0.37278	0.86736	0.3589	-0.224
Mof_C 	C 	0.404	0.8603	0.3049	0.104
Mof_H 	H 	0.4053	0.861	0.2112	-0.005
Mof_C 	C 	0.4373	0.8512	0.3767	-0.174
Mof_C 	C 	0.471	0.8495	0.3022	0.087
Mof_H 	H 	0.4713	0.8532	0.2093	0
Mof_C 	C 	0.5035	0.8422	0.372	-0.189
Mof_H 	H 	0.5258	0.8415	0.3247	0.099
Mof_C 	C 	0.5042	0.836	0.508	0.143
Mof_H 	H 	0.5266	0.8307	0.551	-0.009
Mof_C 	C 	0.4719	0.8374	0.5797	-0.274
Mof_H 	H 	0.4725	0.8334	0.6724	0.136
Mof_C 	C 	0.4382	0.8448	0.5167	0.283
Mof_O 	O 	0.40729	0.84433	0.5923	-0.397
Mof_N 	N 	0.31955	0.89936	0.4939	-0.225
Mof_C 	C 	0.29291	0.9107	0.5702	0.12
Mof_H 	H 	0.2736	0.9234	0.5285	-0.012
Mof_C 	C 	0.2902	0.9057	0.7138	-0.233
Mof_C 	C 	0.2574	0.9154	0.7775	0.168
Mof_H 	H 	0.2387	0.9269	0.7279	-0.03
Mof_C 	C 	0.2518	0.9085	0.9128	-0.29
Mof_H 	H 	0.2298	0.9154	0.9552	0.133
Mof_C 	C 	0.2795	0.8912	0.983	0.259
Mof_H 	H 	0.2761	0.8862	0.0743	-0.074
Mof_C 	C 	0.3116	0.8812	0.9234	-0.366
Mof_H 	H 	0.3298	0.8695	0.9747	0.17
Mof_C 	C 	0.3185	0.888	0.7873	0.346
Mof_O 	O 	0.3502	0.87626	0.7367	-0.42
Mof_C 	C 	0.3397	0.8767	0.2802	-0.054
Mof_H 	H 	0.3236	0.8552	0.273	0.04
Mof_H 	H 	0.3468	0.8843	0.1899	0.04
Mof_C 	C 	0.3195	0.9075	0.3484	-0.058
Mof_H 	H 	0.3319	0.931	0.3311	0.042
Mof_H 	H 	0.2943	0.9091	0.315	0.044
Mof_N 	N 	0.94731	0.46236	0.0464	-0.171
Mof_N 	N 	0.94511	0.45128	0.1796	-0.38
Mof_C 	C 	0.91945	0.44528	0.9892	0.134
Mof_H 	H 	0.9139	0.4478	0.898	-0.024
Mof_C 	C 	0.91634	0.42891	0.1918	0.191
Mof_H 	H 	0.9088	0.4182	0.2727	-0.04
Mof_N 	N 	0.89936	0.42353	0.0735	-0.218
Mof_N 	N 	0.02686	0.46255	0.1131	-0.206
Mof_N 	N 	0.01285	0.44969	0.2316	-0.376
Mof_C 	C 	0.0585	0.44581	0.0985	0.124
Mof_H 	H 	0.074	0.4496	0.0248	-0.023
Mof_C 	C 	0.03728	0.42596	0.2802	0.195
Mof_H 	H 	0.0344	0.4131	0.3611	-0.048
Mof_N 	N 	0.0667	0.42252	0.1995	-0.212
Mof_N 	N 	0.98588	0.52635	0.178	-0.191
Mof_N 	N 	0.97579	0.50573	0.2882	-0.383
Mof_C 	C 	0.9833	0.56062	0.2211	0.114
Mof_H 	H 	0.989	0.5809	0.1668	-0.011
Mof_C 	C 	0.96741	0.52931	0.3876	0.185
Mof_H 	H 	0.9595	0.5222	0.4731	-0.049
Mof_N 	N 	0.97193	0.56436	0.3486	-0.159
Mof_B 	B 	0.9745	0.46335	0.2837	1.507
Mof_H 	H 	0.969	0.453	0.373	-0.554
Mof_Mn	Mn	0.86369	0.3709	0.0555	0.994
Mof_N 	N 	0.87278	0.36736	0.8589	-0.221
Mof_C 	C 	0.904	0.3603	0.8049	0.099
Mof_H 	H 	0.9053	0.361	0.7112	-0.002
Mof_C 	C 	0.9373	0.3512	0.8767	-0.162
Mof_C 	C 	0.971	0.3495	0.8022	0.083
Mof_H 	H 	0.9713	0.3532	0.7093	0.005
Mof_C 	C 	0.0035	0.3422	0.872	-0.178
Mof_H 	H 	0.0258	0.3415	0.8247	0.095
Mof_C 	C 	0.0042	0.336	0.008	0.117
Mof_H 	H 	0.0266	0.3307	0.051	-0.002
Mof_C 	C 	0.9719	0.3374	0.0797	-0.251
Mof_H 	H 	0.9725	0.3334	0.1724	0.13
Mof_C 	C 	0.9382	0.3448	0.0167	0.27
Mof_O 	O 	0.90729	0.34433	0.0923	-0.393
Mof_N 	N 	0.81955	0.39936	0.9939	-0.22
Mof_C 	C 	0.79291	0.4107	0.0702	0.108
Mof_H 	H 	0.7736	0.4234	0.0285	-0.011
Mof_C 	C 	0.7902	0.4057	0.2138	-0.217
Mof_C 	C 	0.7574	0.4154	0.2775	0.145
Mof_H 	H 	0.7387	0.4269	0.2279	-0.023
Mof_C 	C 	0.7518	0.4085	0.4128	-0.26
Mof_H 	H 	0.7298	0.4154	0.4552	0.12
Mof_C 	C 	0.7795	0.3912	0.483	0.216
Mof_H 	H 	0.7761	0.3862	0.5743	-0.053
Mof_C 	C 	0.8116	0.3812	0.4234	-0.338
Mof_H 	H 	0.8298	0.3695	0.4747	0.157
Mof_C 	C 	0.8185	0.388	0.2873	0.329
Mof_O 	O 	0.8502	0.37626	0.2367	-0.416
Mof_C 	C 	0.8397	0.3767	0.7802	-0.055
Mof_H 	H 	0.8236	0.3552	0.773	0.042
Mof_H 	H 	0.8468	0.3843	0.6899	0.042
Mof_C 	C 	0.8195	0.4075	0.8484	-0.058
Mof_H 	H 	0.8319	0.431	0.8311	0.042
Mof_H 	H 	0.7943	0.4091	0.815	0.044
Mof_N 	N 	0.71236	0.30269	0.2964	-0.167
Mof_N 	N 	0.70128	0.30489	0.4296	-0.379
Mof_C 	C 	0.69528	0.33055	0.2392	0.122
Mof_H 	H 	0.6978	0.3361	0.148	-0.022
Mof_C 	C 	0.67891	0.33366	0.4418	0.191
Mof_H 	H 	0.6682	0.3412	0.5227	-0.04
Mof_N 	N 	0.67353	0.35064	0.3235	-0.214
Mof_N 	N 	0.71255	0.22314	0.3631	-0.205
Mof_N 	N 	0.69969	0.23715	0.4816	-0.372
Mof_C 	C 	0.69581	0.1915	0.3485	0.124
Mof_H 	H 	0.6996	0.176	0.2748	-0.022
Mof_C 	C 	0.67596	0.21272	0.5302	0.195
Mof_H 	H 	0.6631	0.2156	0.6111	-0.047
Mof_N 	N 	0.67252	0.1833	0.4495	-0.212
Mof_N 	N 	0.77635	0.26412	0.428	-0.192
Mof_N 	N 	0.75573	0.27421	0.5382	-0.382
Mof_C 	C 	0.81062	0.2667	0.4711	0.113
Mof_H 	H 	0.8309	0.261	0.4168	-0.011
Mof_C 	C 	0.77931	0.28259	0.6376	0.184
Mof_H 	H 	0.7722	0.2905	0.7231	-0.049
Mof_N 	N 	0.81436	0.27807	0.5986	-0.159
Mof_B 	B 	0.71335	0.2755	0.5337	1.498
Mof_H 	H 	0.703	0.281	0.623	-0.552
Mof_Mn	Mn	0.6209	0.38631	0.3055	0.999
Mof_N 	N 	0.61736	0.37722	0.1089	-0.221
Mof_C 	C 	0.6103	0.346	0.0549	0.098
Mof_H 	H 	0.611	0.3447	0.9612	-0.001
Mof_C 	C 	0.6012	0.3127	0.1267	-0.169
Mof_C 	C 	0.5995	0.279	0.0522	0.081
Mof_H 	H 	0.6032	0.2787	0.9593	0.004
Mof_C 	C 	0.5922	0.2465	0.122	-0.184
Mof_H 	H 	0.5915	0.2242	0.0747	0.097
Mof_C 	C 	0.586	0.2458	0.258	0.139
Mof_H 	H 	0.5807	0.2234	0.301	-0.008
Mof_C 	C 	0.5874	0.2781	0.3297	-0.271
Mof_H 	H 	0.5834	0.2775	0.4224	0.135
Mof_C 	C 	0.5948	0.3118	0.2667	0.28
Mof_O 	O 	0.59433	0.34271	0.3423	-0.396
Mof_N 	N 	0.64936	0.43045	0.2439	-0.225
Mof_C 	C 	0.6607	0.45709	0.3202	0.114
Mof_H 	H 	0.6734	0.4764	0.2785	-0.011
Mof_C 	C 	0.6557	0.4598	0.4638	-0.221
Mof_C 	C 	0.6654	0.4926	0.5275	0.147
Mof_H 	H 	0.6769	0.5113	0.4779	-0.024
Mof_C 	C 	0.6585	0.4982	0.6628	-0.261
Mof_H 	H 	0.6654	0.5202	0.7052	0.121
Mof_C 	C 	0.6412	0.4705	0.733	0.217
Mof_H 	H 	0.6362	0.4739	0.8243	-0.053
Mof_C 	C 	0.6312	0.4384	0.6734	-0.34
Mof_H 	H 	0.6195	0.4202	0.7247	0.158
Mof_C 	C 	0.638	0.4315	0.5373	0.331
Mof_O 	O 	0.62626	0.3998	0.4867	-0.417
Mof_C 	C 	0.6267	0.4103	0.0302	-0.064
Mof_H 	H 	0.6052	0.4264	0.023	0.043
Mof_H 	H 	0.6343	0.4032	0.9399	0.046
Mof_C 	C 	0.6575	0.4305	0.0984	-0.052
Mof_H 	H 	0.681	0.4181	0.0811	0.04
Mof_H 	H 	0.6591	0.4557	0.065	0.041
Mof_N 	N 	0.21236	0.80269	0.7964	-0.167
Mof_N 	N 	0.20128	0.80489	0.9296	-0.375
Mof_C 	C 	0.19528	0.83055	0.7392	0.122
Mof_H 	H 	0.1978	0.8361	0.648	-0.022
Mof_C 	C 	0.17891	0.83366	0.9418	0.207
Mof_H 	H 	0.1682	0.8412	0.0227	-0.053
Mof_N 	N 	0.17353	0.85064	0.8235	-0.216
Mof_N 	N 	0.21255	0.72314	0.8631	-0.204
Mof_N 	N 	0.19969	0.73715	0.9816	-0.358
Mof_C 	C 	0.19581	0.6915	0.8485	0.125
Mof_H 	H 	0.1996	0.676	0.7748	-0.022
Mof_C 	C 	0.17596	0.71272	0.0302	0.174
Mof_H 	H 	0.1631	0.7156	0.1111	-0.042
Mof_N 	N 	0.17252	0.6833	0.9495	-0.205
Mof_N 	N 	0.27635	0.76412	0.928	-0.191
Mof_N 	N 	0.25573	0.77421	0.0382	-0.382
Mof_C 	C 	0.31062	0.7667	0.9711	0.122
Mof_H 	H 	0.3309	0.761	0.9168	-0.013
Mof_C 	C 	0.27931	0.78259	0.1376	0.181
Mof_H 	H 	0.2722	0.7905	0.2231	-0.049
Mof_N 	N 	0.31436	0.77807	0.0986	-0.164
Mof_B 	B 	0.21335	0.7755	0.0337	1.471
Mof_H 	H 	0.203	0.781	0.123	-0.545
Mof_Mn	Mn	0.1209	0.88631	0.8055	0.996
Mof_N 	N 	0.11736	0.87722	0.6089	-0.223
Mof_C 	C 	0.1103	0.846	0.5549	0.103
Mof_H 	H 	0.111	0.8447	0.4612	-0.004
Mof_C 	C 	0.1012	0.8127	0.6267	-0.173
Mof_C 	C 	0.0995	0.779	0.5522	0.087
Mof_H 	H 	0.1032	0.7787	0.4593	0
Mof_C 	C 	0.0922	0.7465	0.622	-0.189
Mof_H 	H 	0.0915	0.7242	0.5747	0.099
Mof_C 	C 	0.086	0.7458	0.758	0.143
Mof_H 	H 	0.0807	0.7234	0.801	-0.009
Mof_C 	C 	0.0874	0.7781	0.8297	-0.274
Mof_H 	H 	0.0834	0.7775	0.9224	0.138
Mof_C 	C 	0.0948	0.8118	0.7667	0.283
Mof_O 	O 	0.09433	0.84271	0.8423	-0.395
Mof_N 	N 	0.14936	0.93045	0.7439	-0.218
Mof_C 	C 	0.1607	0.95709	0.8202	0.09
Mof_H 	H 	0.1734	0.9764	0.7785	-0
Mof_C 	C 	0.1557	0.9598	0.9638	-0.166
Mof_C 	C 	0.1654	0.9926	0.0275	0.082
Mof_H 	H 	0.1769	0.0113	0.9779	-0.001
Mof_C 	C 	0.1585	0.9982	0.1628	-0.19
Mof_H 	H 	0.1654	0.0202	0.2052	0.091
Mof_C 	C 	0.1412	0.9705	0.233	0.155
Mof_H 	H 	0.1362	0.9739	0.3243	-0.031
Mof_C 	C 	0.1312	0.9384	0.1734	-0.287
Mof_H 	H 	0.1195	0.9202	0.2247	0.138
Mof_C 	C 	0.138	0.9315	0.0373	0.279
Mof_O 	O 	0.12626	0.8998	0.9867	-0.397
Mof_C 	C 	0.1267	0.9103	0.5302	-0.054
Mof_H 	H 	0.1052	0.9264	0.523	0.041
Mof_H 	H 	0.1343	0.9032	0.4399	0.042
Mof_C 	C 	0.1575	0.9305	0.5984	-0.06
Mof_H 	H 	0.181	0.9181	0.5811	0.043
Mof_H 	H 	0.1591	0.9557	0.565	0.045
Mof_N 	N 	0.78764	0.69731	0.7964	-0.167
Mof_N 	N 	0.79872	0.69511	0.9296	-0.375
Mof_C 	C 	0.80472	0.66945	0.7392	0.122
Mof_H 	H 	0.8022	0.6639	0.648	-0.022
Mof_C 	C 	0.82109	0.66634	0.9418	0.207
Mof_H 	H 	0.8318	0.6588	0.0227	-0.052
Mof_N 	N 	0.82647	0.64936	0.8235	-0.216
Mof_N 	N 	0.78745	0.77686	0.8631	-0.204
Mof_N 	N 	0.80031	0.76285	0.9816	-0.359
Mof_C 	C 	0.80419	0.8085	0.8485	0.125
Mof_H 	H 	0.8004	0.824	0.7748	-0.022
Mof_C 	C 	0.82404	0.78728	0.0302	0.175
Mof_H 	H 	0.8369	0.7844	0.1111	-0.041
Mof_N 	N 	0.82748	0.8167	0.9495	-0.205
Mof_N 	N 	0.72365	0.73588	0.928	-0.191
Mof_N 	N 	0.74427	0.72579	0.0382	-0.382
Mof_C 	C 	0.68938	0.7333	0.9711	0.122
Mof_H 	H 	0.6691	0.739	0.9168	-0.013
Mof_C 	C 	0.72069	0.71741	0.1376	0.181
Mof_H 	H 	0.7278	0.7095	0.2231	-0.049
Mof_N 	N 	0.68564	0.72193	0.0986	-0.164
Mof_B 	B 	0.78665	0.7245	0.0337	1.471
Mof_H 	H 	0.797	0.719	0.123	-0.545
Mof_Mn	Mn	0.8791	0.61369	0.8055	0.997
Mof_N 	N 	0.88264	0.62278	0.6089	-0.223
Mof_C 	C 	0.8897	0.654	0.5549	0.104
Mof_H 	H 	0.889	0.6553	0.4612	-0.004
Mof_C 	C 	0.8988	0.6873	0.6267	-0.173
Mof_C 	C 	0.9005	0.721	0.5522	0.087
Mof_H 	H 	0.8968	0.7213	0.4593	0.001
Mof_C 	C 	0.9078	0.7535	0.622	-0.189
Mof_H 	H 	0.9085	0.7758	0.5747	0.099
Mof_C 	C 	0.914	0.7542	0.758	0.144
Mof_H 	H 	0.9193	0.7766	0.801	-0.008
Mof_C 	C 	0.9126	0.7219	0.8297	-0.274
Mof_H 	H 	0.9166	0.7225	0.9224	0.138
Mof_C 	C 	0.9052	0.6882	0.7667	0.283
Mof_O 	O 	0.90567	0.65729	0.8423	-0.395
Mof_N 	N 	0.85064	0.56955	0.7439	-0.219
Mof_C 	C 	0.8393	0.54291	0.8202	0.09
Mof_H 	H 	0.8266	0.5236	0.7785	-0.002
Mof_C 	C 	0.8443	0.5402	0.9638	-0.167
Mof_C 	C 	0.8346	0.5074	0.0275	0.078
Mof_H 	H 	0.8231	0.4887	0.9779	0.004
Mof_C 	C 	0.8415	0.5018	0.1628	-0.205
Mof_H 	H 	0.8346	0.4798	0.2052	0.099
Mof_C 	C 	0.8588	0.5295	0.233	0.164
Mof_H 	H 	0.8638	0.5261	0.3243	-0.036
Mof_C 	C 	0.8688	0.5616	0.1734	-0.292
Mof_H 	H 	0.8805	0.5798	0.2247	0.14
Mof_C 	C 	0.862	0.5685	0.0373	0.282
Mof_O 	O 	0.87374	0.6002	0.9867	-0.398
Mof_C 	C 	0.8733	0.5897	0.5302	-0.055
Mof_H 	H 	0.8948	0.5736	0.523	0.041
Mof_H 	H 	0.8657	0.5968	0.4399	0.042
Mof_C 	C 	0.8425	0.5695	0.5984	-0.059
Mof_H 	H 	0.819	0.5819	0.5811	0.043
Mof_H 	H 	0.8409	0.5443	0.565	0.044
Mof_N 	N 	0.28764	0.19731	0.2964	-0.167
Mof_N 	N 	0.29872	0.19511	0.4296	-0.379
Mof_C 	C 	0.30472	0.16945	0.2392	0.122
Mof_H 	H 	0.3022	0.1639	0.148	-0.022
Mof_C 	C 	0.32109	0.16634	0.4418	0.191
Mof_H 	H 	0.3318	0.1588	0.5227	-0.04
Mof_N 	N 	0.32647	0.14936	0.3235	-0.214
Mof_N 	N 	0.28745	0.27686	0.3631	-0.205
Mof_N 	N 	0.30031	0.26285	0.4816	-0.372
Mof_C 	C 	0.30419	0.3085	0.3485	0.124
Mof_H 	H 	0.3004	0.324	0.2748	-0.022
Mof_C 	C 	0.32404	0.28728	0.5302	0.195
Mof_H 	H 	0.3369	0.2844	0.6111	-0.047
Mof_N 	N 	0.32748	0.3167	0.4495	-0.212
Mof_N 	N 	0.22365	0.23588	0.428	-0.192
Mof_N 	N 	0.24427	0.22579	0.5382	-0.382
Mof_C 	C 	0.18938	0.2333	0.4711	0.113
Mof_H 	H 	0.1691	0.239	0.4168	-0.011
Mof_C 	C 	0.22069	0.21741	0.6376	0.184
Mof_H 	H 	0.2278	0.2095	0.7231	-0.049
Mof_N 	N 	0.18564	0.22193	0.5986	-0.159
Mof_B 	B 	0.28665	0.2245	0.5337	1.498
Mof_H 	H 	0.297	0.219	0.623	-0.552
Mof_Mn	Mn	0.3791	0.11369	0.3055	0.999
Mof_N 	N 	0.38264	0.12278	0.1089	-0.221
Mof_C 	C 	0.3897	0.154	0.0549	0.097
Mof_H 	H 	0.389	0.1553	0.9612	-0
Mof_C 	C 	0.3988	0.1873	0.1267	-0.169
Mof_C 	C 	0.4005	0.221	0.0522	0.081
Mof_H 	H 	0.3968	0.2213	0.9593	0.004
Mof_C 	C 	0.4078	0.2535	0.122	-0.184
Mof_H 	H 	0.4085	0.2758	0.0747	0.097
Mof_C 	C 	0.414	0.2542	0.258	0.139
Mof_H 	H 	0.4193	0.2766	0.301	-0.008
Mof_C 	C 	0.4126	0.2219	0.3297	-0.271
Mof_H 	H 	0.4166	0.2225	0.4224	0.135
Mof_C 	C 	0.4052	0.1882	0.2667	0.28
Mof_O 	O 	0.40567	0.15729	0.3423	-0.396
Mof_N 	N 	0.35064	0.06955	0.2439	-0.225
Mof_C 	C 	0.3393	0.04291	0.3202	0.114
Mof_H 	H 	0.3266	0.0236	0.2785	-0.013
Mof_C 	C 	0.3443	0.0402	0.4638	-0.22
Mof_C 	C 	0.3346	0.0074	0.5275	0.142
Mof_H 	H 	0.3231	0.9887	0.4779	-0.018
Mof_C 	C 	0.3415	0.0018	0.6628	-0.274
Mof_H 	H 	0.3346	0.9798	0.7052	0.129
Mof_C 	C 	0.3588	0.0295	0.733	0.225
Mof_H 	H 	0.3638	0.0261	0.8243	-0.057
Mof_C 	C 	0.3688	0.0616	0.6734	-0.344
Mof_H 	H 	0.3805	0.0798	0.7247	0.159
Mof_C 	C 	0.362	0.0685	0.5373	0.333
Mof_O 	O 	0.37374	0.1002	0.4867	-0.417
Mof_C 	C 	0.3733	0.0897	0.0302	-0.064
Mof_H 	H 	0.3948	0.0736	0.023	0.042
Mof_H 	H 	0.3657	0.0968	0.9399	0.046
Mof_C 	C 	0.3425	0.0695	0.0984	-0.052
Mof_H 	H 	0.319	0.0819	0.0811	0.039
Mof_H 	H 	0.3409	0.0443	0.065	0.04
Mof_N 	N 	0.94731	0.96236	0.9536	-0.158
Mof_N 	N 	0.94511	0.95128	0.8204	-0.381
Mof_C 	C 	0.91945	0.94528	0.0108	0.109
Mof_H 	H 	0.9139	0.9478	0.102	-0.017
Mof_C 	C 	0.91634	0.92891	0.8082	0.194
Mof_H 	H 	0.9088	0.9182	0.7273	-0.041
Mof_N 	N 	0.89936	0.92353	0.9265	-0.209
Mof_N 	N 	0.02686	0.96255	0.8869	-0.202
Mof_N 	N 	0.01285	0.94969	0.7684	-0.377
Mof_C 	C 	0.0585	0.94581	0.9015	0.124
Mof_H 	H 	0.074	0.9496	0.9752	-0.018
Mof_C 	C 	0.03728	0.92596	0.7198	0.196
Mof_H 	H 	0.0344	0.9131	0.6389	-0.048
Mof_N 	N 	0.0667	0.92252	0.8005	-0.212
Mof_N 	N 	0.98588	0.02635	0.822	-0.19
Mof_N 	N 	0.97579	0.00573	0.7118	-0.387
Mof_C 	C 	0.9833	0.06062	0.7789	0.114
Mof_H 	H 	0.989	0.0809	0.8332	-0.008
Mof_C 	C 	0.96741	0.02931	0.6124	0.185
Mof_H 	H 	0.9595	0.0222	0.5269	-0.051
Mof_N 	N 	0.97193	0.06436	0.6514	-0.159
Mof_B 	B 	0.9745	0.96335	0.7163	1.518
Mof_H 	H 	0.969	0.953	0.627	-0.557
Mof_Mn	Mn	0.86369	0.8709	0.9445	1.009
Mof_N 	N 	0.87278	0.86736	0.1411	-0.229
Mof_C 	C 	0.904	0.8603	0.1951	0.116
Mof_H 	H 	0.9053	0.861	0.2888	-0.008
Mof_C 	C 	0.9373	0.8512	0.1233	-0.203
Mof_C 	C 	0.971	0.8495	0.1978	0.128
Mof_H 	H 	0.9713	0.8532	0.2907	-0.011
Mof_C 	C 	0.0035	0.8422	0.128	-0.243
Mof_H 	H 	0.0258	0.8415	0.1753	0.115
Mof_C 	C 	0.0042	0.836	0.992	0.185
Mof_H 	H 	0.0266	0.8307	0.949	-0.023
Mof_C 	C 	0.9719	0.8374	0.9203	-0.299
Mof_H 	H 	0.9725	0.8334	0.8276	0.146
Mof_C 	C 	0.9382	0.8448	0.9833	0.311
Mof_O 	O 	0.90729	0.84433	0.9077	-0.403
Mof_N 	N 	0.81955	0.89936	0.0061	-0.231
Mof_C 	C 	0.79291	0.9107	0.9298	0.123
Mof_H 	H 	0.7736	0.9234	0.9715	-0.011
Mof_C 	C 	0.7902	0.9057	0.7862	-0.225
Mof_C 	C 	0.7574	0.9154	0.7225	0.152
Mof_H 	H 	0.7387	0.9269	0.7721	-0.025
Mof_C 	C 	0.7518	0.9085	0.5872	-0.265
Mof_H 	H 	0.7298	0.9154	0.5448	0.122
Mof_C 	C 	0.7795	0.8912	0.517	0.221
Mof_H 	H 	0.7761	0.8862	0.4257	-0.055
Mof_C 	C 	0.8116	0.8812	0.5766	-0.343
Mof_H 	H 	0.8298	0.8695	0.5253	0.159
Mof_C 	C 	0.8185	0.888	0.7127	0.334
Mof_O 	O 	0.8502	0.87626	0.7633	-0.419
Mof_C 	C 	0.8397	0.8767	0.2198	-0.055
Mof_H 	H 	0.8236	0.8552	0.227	0.04
Mof_H 	H 	0.8468	0.8843	0.3101	0.042
Mof_C 	C 	0.8195	0.9075	0.1516	-0.058
Mof_H 	H 	0.8319	0.931	0.1689	0.042
Mof_H 	H 	0.7943	0.9091	0.185	0.043
Mof_N 	N 	0.44731	0.46236	0.4536	-0.167
Mof_N 	N 	0.44511	0.45128	0.3204	-0.379
Mof_C 	C 	0.41945	0.44528	0.5108	0.122
Mof_H 	H 	0.4139	0.4478	0.602	-0.022
Mof_C 	C 	0.41634	0.42891	0.3082	0.191
Mof_H 	H 	0.4088	0.4182	0.2273	-0.041
Mof_N 	N 	0.39936	0.42353	0.4265	-0.214
Mof_N 	N 	0.52686	0.46255	0.3869	-0.205
Mof_N 	N 	0.51285	0.44969	0.2684	-0.372
Mof_C 	C 	0.5585	0.44581	0.4015	0.124
Mof_H 	H 	0.574	0.4496	0.4752	-0.022
Mof_C 	C 	0.53728	0.42596	0.2198	0.194
Mof_H 	H 	0.5344	0.4131	0.1389	-0.047
Mof_N 	N 	0.5667	0.42252	0.3005	-0.212
Mof_N 	N 	0.48588	0.52635	0.322	-0.192
Mof_N 	N 	0.47579	0.50573	0.2118	-0.382
Mof_C 	C 	0.4833	0.56062	0.2789	0.113
Mof_H 	H 	0.489	0.5809	0.3332	-0.011
Mof_C 	C 	0.46741	0.52931	0.1124	0.183
Mof_H 	H 	0.4595	0.5222	0.0269	-0.051
Mof_N 	N 	0.47193	0.56436	0.1514	-0.16
Mof_B 	B 	0.4745	0.46335	0.2163	1.497
Mof_H 	H 	0.469	0.453	0.127	-0.553
Mof_Mn	Mn	0.36369	0.3709	0.4445	0.999
Mof_N 	N 	0.37278	0.36736	0.6411	-0.223
Mof_C 	C 	0.404	0.3603	0.6951	0.103
Mof_H 	H 	0.4053	0.361	0.7888	-0.003
Mof_C 	C 	0.4373	0.3512	0.6233	-0.172
Mof_C 	C 	0.471	0.3495	0.6978	0.086
Mof_H 	H 	0.4713	0.3532	0.7907	0.002
Mof_C 	C 	0.5035	0.3422	0.628	-0.188
Mof_H 	H 	0.5258	0.3415	0.6753	0.099
Mof_C 	C 	0.5042	0.336	0.492	0.142
Mof_H 	H 	0.5266	0.3307	0.449	-0.009
Mof_C 	C 	0.4719	0.3374	0.4203	-0.273
Mof_H 	H 	0.4725	0.3334	0.3276	0.135
Mof_C 	C 	0.4382	0.3448	0.4833	0.282
Mof_O 	O 	0.40729	0.34433	0.4077	-0.397
Mof_N 	N 	0.31955	0.39936	0.5061	-0.224
Mof_C 	C 	0.29291	0.4107	0.4298	0.113
Mof_H 	H 	0.2736	0.4234	0.4715	-0.01
Mof_C 	C 	0.2902	0.4057	0.2862	-0.218
Mof_C 	C 	0.2574	0.4154	0.2225	0.144
Mof_H 	H 	0.2387	0.4269	0.2721	-0.023
Mof_C 	C 	0.2518	0.4085	0.0872	-0.257
Mof_H 	H 	0.2298	0.4154	0.0448	0.118
Mof_C 	C 	0.2795	0.3912	0.017	0.21
Mof_H 	H 	0.2761	0.3862	0.9257	-0.051
Mof_C 	C 	0.3116	0.3812	0.0766	-0.335
Mof_H 	H 	0.3298	0.3695	0.0253	0.156
Mof_C 	C 	0.3185	0.388	0.2127	0.329
Mof_O 	O 	0.3502	0.37626	0.2633	-0.416
Mof_C 	C 	0.3397	0.3767	0.7198	-0.056
Mof_H 	H 	0.3236	0.3552	0.727	0.041
Mof_H 	H 	0.3468	0.3843	0.8101	0.042
Mof_C 	C 	0.3195	0.4075	0.6516	-0.057
Mof_H 	H 	0.3319	0.431	0.6689	0.042
Mof_H 	H 	0.2943	0.4091	0.685	0.044
Mof_N 	N 	0.55269	0.03764	0.4536	-0.168
Mof_N 	N 	0.55489	0.04872	0.3204	-0.378
Mof_C 	C 	0.58055	0.05472	0.5108	0.121
Mof_H 	H 	0.5861	0.0522	0.602	-0.022
Mof_C 	C 	0.58366	0.07109	0.3082	0.19
Mof_H 	H 	0.5912	0.0818	0.2273	-0.041
Mof_N 	N 	0.60064	0.07647	0.4265	-0.214
Mof_N 	N 	0.47314	0.03745	0.3869	-0.206
Mof_N 	N 	0.48715	0.05031	0.2684	-0.371
Mof_C 	C 	0.4415	0.05419	0.4015	0.123
Mof_H 	H 	0.426	0.0504	0.4752	-0.022
Mof_C 	C 	0.46272	0.07404	0.2198	0.194
Mof_H 	H 	0.4656	0.0869	0.1389	-0.047
Mof_N 	N 	0.4333	0.07748	0.3005	-0.212
Mof_N 	N 	0.51412	0.97365	0.322	-0.191
Mof_N 	N 	0.52421	0.99427	0.2118	-0.378
Mof_C 	C 	0.5167	0.93938	0.2789	0.113
Mof_H 	H 	0.511	0.9191	0.3332	-0.011
Mof_C 	C 	0.53259	0.97069	0.1124	0.183
Mof_H 	H 	0.5405	0.9778	0.0269	-0.049
Mof_N 	N 	0.52807	0.93564	0.1514	-0.16
Mof_B 	B 	0.5255	0.03665	0.2163	1.488
Mof_H 	H 	0.531	0.047	0.127	-0.551
Mof_Mn	Mn	0.63631	0.1291	0.4445	0.999
Mof_N 	N 	0.62722	0.13264	0.6411	-0.223
Mof_C 	C 	0.596	0.1397	0.6951	0.103
Mof_H 	H 	0.5947	0.139	0.7888	-0.003
Mof_C 	C 	0.5627	0.1488	0.6233	-0.172
Mof_C 	C 	0.529	0.1505	0.6978	0.086
Mof_H 	H 	0.5287	0.1468	0.7907	0.002
Mof_C 	C 	0.4965	0.1578	0.628	-0.188
Mof_H 	H 	0.4742	0.1585	0.6753	0.099
Mof_C 	C 	0.4958	0.164	0.492	0.142
Mof_H 	H 	0.4734	0.1693	0.449	-0.009
Mof_C 	C 	0.5281	0.1626	0.4203	-0.273
Mof_H 	H 	0.5275	0.1666	0.3276	0.135
Mof_C 	C 	0.5618	0.1552	0.4833	0.282
Mof_O 	O 	0.59271	0.15567	0.4077	-0.397
Mof_N 	N 	0.68045	0.10064	0.5061	-0.224
Mof_C 	C 	0.70709	0.0893	0.4298	0.113
Mof_H 	H 	0.7264	0.0766	0.4715	-0.011
Mof_C 	C 	0.7098	0.0943	0.2862	-0.219
Mof_C 	C 	0.7426	0.0846	0.2225	0.144
Mof_H 	H 	0.7613	0.0731	0.2721	-0.023
Mof_C 	C 	0.7482	0.0915	0.0872	-0.257
Mof_H 	H 	0.7702	0.0846	0.0448	0.118
Mof_C 	C 	0.7205	0.1088	0.017	0.21
Mof_H 	H 	0.7239	0.1138	0.9257	-0.051
Mof_C 	C 	0.6884	0.1188	0.0766	-0.336
Mof_H 	H 	0.6702	0.1305	0.0253	0.156
Mof_C 	C 	0.6815	0.112	0.2127	0.329
Mof_O 	O 	0.6498	0.12374	0.2633	-0.416
Mof_C 	C 	0.6603	0.1233	0.7198	-0.056
Mof_H 	H 	0.6764	0.1448	0.727	0.041
Mof_H 	H 	0.6532	0.1157	0.8101	0.042
Mof_C 	C 	0.6805	0.0925	0.6516	-0.057
Mof_H 	H 	0.6681	0.069	0.6689	0.041
Mof_H 	H 	0.7057	0.0909	0.685	0.043
Mof_N 	N 	0.05269	0.53764	0.9536	-0.162
Mof_N 	N 	0.05489	0.54872	0.8204	-0.378
Mof_C 	C 	0.08055	0.55472	0.0108	0.107
Mof_H 	H 	0.0861	0.5522	0.102	-0.018
Mof_C 	C 	0.08366	0.57109	0.8082	0.191
Mof_H 	H 	0.0912	0.5818	0.7273	-0.041
Mof_N 	N 	0.10064	0.57647	0.9265	-0.209
Mof_N 	N 	0.97314	0.53745	0.8869	-0.201
Mof_N 	N 	0.98715	0.55031	0.7684	-0.368
Mof_C 	C 	0.9415	0.55419	0.9015	0.124
Mof_H 	H 	0.926	0.5504	0.9752	-0.019
Mof_C 	C 	0.96272	0.57404	0.7198	0.195
Mof_H 	H 	0.9656	0.5869	0.6389	-0.045
Mof_N 	N 	0.9333	0.57748	0.8005	-0.211
Mof_N 	N 	0.01412	0.47365	0.822	-0.192
Mof_N 	N 	0.02421	0.49427	0.7118	-0.382
Mof_C 	C 	0.0167	0.43938	0.7789	0.113
Mof_H 	H 	0.011	0.4191	0.8332	-0.011
Mof_C 	C 	0.03259	0.47069	0.6124	0.183
Mof_H 	H 	0.0405	0.4778	0.5269	-0.05
Mof_N 	N 	0.02807	0.43564	0.6514	-0.16
Mof_B 	B 	0.0255	0.53665	0.7163	1.49
Mof_H 	H 	0.031	0.547	0.627	-0.551
Mof_Mn	Mn	0.13631	0.6291	0.9445	1.009
Mof_N 	N 	0.12722	0.63264	0.1411	-0.229
Mof_C 	C 	0.096	0.6397	0.1951	0.114
Mof_H 	H 	0.0947	0.639	0.2888	-0.008
Mof_C 	C 	0.0627	0.6488	0.1233	-0.201
Mof_C 	C 	0.029	0.6505	0.1978	0.11
Mof_H 	H 	0.0287	0.6468	0.2907	-0.009
Mof_C 	C 	0.9965	0.6578	0.128	-0.229
Mof_H 	H 	0.9742	0.6585	0.1753	0.112
Mof_C 	C 	0.9958	0.664	0.992	0.199
Mof_H 	H 	0.9734	0.6693	0.949	-0.026
Mof_C 	C 	0.0281	0.6626	0.9203	-0.316
Mof_H 	H 	0.0275	0.6666	0.8276	0.149
Mof_C 	C 	0.0618	0.6552	0.9833	0.314
Mof_O 	O 	0.09271	0.65567	0.9077	-0.404
Mof_N 	N 	0.18045	0.60064	0.0061	-0.231
Mof_C 	C 	0.20709	0.5893	0.9298	0.124
Mof_H 	H 	0.2264	0.5766	0.9715	-0.012
Mof_C 	C 	0.2098	0.5943	0.7862	-0.225
Mof_C 	C 	0.2426	0.5846	0.7225	0.152
Mof_H 	H 	0.2613	0.5731	0.7721	-0.025
Mof_C 	C 	0.2482	0.5915	0.5872	-0.266
Mof_H 	H 	0.2702	0.5846	0.5448	0.122
Mof_C 	C 	0.2205	0.6088	0.517	0.221
Mof_H 	H 	0.2239	0.6138	0.4257	-0.056
Mof_C 	C 	0.1884	0.6188	0.5766	-0.344
Mof_H 	H 	0.1702	0.6305	0.5253	0.159
Mof_C 	C 	0.1815	0.612	0.7127	0.335
Mof_O 	O 	0.1498	0.62374	0.7633	-0.419
Mof_C 	C 	0.1603	0.6233	0.2198	-0.055
Mof_H 	H 	0.1764	0.6448	0.227	0.04
Mof_H 	H 	0.1532	0.6157	0.3101	0.042
Mof_C 	C 	0.1805	0.5925	0.1516	-0.057
Mof_H 	H 	0.1681	0.569	0.1689	0.041
Mof_H 	H 	0.2057	0.5909	0.185	0.043
Mof_N 	N 	0.28764	0.69731	0.7036	-0.167
Mof_N 	N 	0.29872	0.69511	0.5704	-0.379
Mof_C 	C 	0.30472	0.66945	0.7608	0.122
Mof_H 	H 	0.3022	0.6639	0.852	-0.021
Mof_C 	C 	0.32109	0.66634	0.5582	0.191
Mof_H 	H 	0.3318	0.6588	0.4773	-0.041
Mof_N 	N 	0.32647	0.64936	0.6765	-0.214
Mof_N 	N 	0.28745	0.77686	0.6369	-0.205
Mof_N 	N 	0.30031	0.76285	0.5184	-0.372
Mof_C 	C 	0.30419	0.8085	0.6515	0.124
Mof_H 	H 	0.3004	0.824	0.7252	-0.022
Mof_C 	C 	0.32404	0.78728	0.4698	0.195
Mof_H 	H 	0.3369	0.7844	0.3889	-0.047
Mof_N 	N 	0.32748	0.8167	0.5505	-0.212
Mof_N 	N 	0.22365	0.73588	0.572	-0.192
Mof_N 	N 	0.24427	0.72579	0.4618	-0.382
Mof_C 	C 	0.18938	0.7333	0.5289	0.113
Mof_H 	H 	0.1691	0.739	0.5832	-0.011
Mof_C 	C 	0.22069	0.71741	0.3624	0.183
Mof_H 	H 	0.2278	0.7095	0.2769	-0.05
Mof_N 	N 	0.18564	0.72193	0.4014	-0.16
Mof_B 	B 	0.28665	0.7245	0.4663	1.498
Mof_H 	H 	0.297	0.719	0.377	-0.553
Mof_Mn	Mn	0.3791	0.61369	0.6945	1
Mof_N 	N 	0.38264	0.62278	0.8911	-0.229
Mof_C 	C 	0.3897	0.654	0.9451	0.123
Mof_H 	H 	0.389	0.6553	0.0388	-0.014
Mof_C 	C 	0.3988	0.6873	0.8733	-0.19
Mof_C 	C 	0.4005	0.721	0.9478	0.116
Mof_H 	H 	0.3968	0.7213	0.0407	-0.013
Mof_C 	C 	0.4078	0.7535	0.878	-0.21
Mof_H 	H 	0.4085	0.7758	0.9253	0.108
Mof_C 	C 	0.414	0.7542	0.742	0.16
Mof_H 	H 	0.4193	0.7766	0.699	-0.015
Mof_C 	C 	0.4126	0.7219	0.6703	-0.287
Mof_H 	H 	0.4166	0.7225	0.5776	0.14
Mof_C 	C 	0.4052	0.6882	0.7333	0.293
Mof_O 	O 	0.40567	0.65729	0.6577	-0.4
Mof_N 	N 	0.35064	0.56955	0.7561	-0.223
Mof_C 	C 	0.3393	0.54291	0.6798	0.114
Mof_H 	H 	0.3266	0.5236	0.7215	-0.01
Mof_C 	C 	0.3443	0.5402	0.5362	-0.221
Mof_C 	C 	0.3346	0.5074	0.4725	0.148
Mof_H 	H 	0.3231	0.4887	0.5221	-0.024
Mof_C 	C 	0.3415	0.5018	0.3372	-0.263
Mof_H 	H 	0.3346	0.4798	0.2948	0.12
Mof_C 	C 	0.3588	0.5295	0.267	0.218
Mof_H 	H 	0.3638	0.5261	0.1757	-0.055
Mof_C 	C 	0.3688	0.5616	0.3266	-0.341
Mof_H 	H 	0.3805	0.5798	0.2753	0.158
Mof_C 	C 	0.362	0.5685	0.4627	0.331
Mof_O 	O 	0.37374	0.6002	0.5133	-0.417
Mof_C 	C 	0.3733	0.5897	0.9698	-0.04
Mof_H 	H 	0.3948	0.5736	0.977	0.038
Mof_H 	H 	0.3657	0.5968	0.0601	0.034
Mof_C 	C 	0.3425	0.5695	0.9016	-0.065
Mof_H 	H 	0.319	0.5819	0.9189	0.045
Mof_H 	H 	0.3409	0.5443	0.935	0.047
Mof_N 	N 	0.78764	0.19731	0.2036	-0.167
Mof_N 	N 	0.79872	0.19511	0.0704	-0.38
Mof_C 	C 	0.80472	0.16945	0.2608	0.122
Mof_H 	H 	0.8022	0.1639	0.352	-0.022
Mof_C 	C 	0.82109	0.16634	0.0582	0.188
Mof_H 	H 	0.8318	0.1588	0.9773	-0.038
Mof_N 	N 	0.82647	0.14936	0.1765	-0.213
Mof_N 	N 	0.78745	0.27686	0.1369	-0.205
Mof_N 	N 	0.80031	0.26285	0.0184	-0.374
Mof_C 	C 	0.80419	0.3085	0.1515	0.124
Mof_H 	H 	0.8004	0.324	0.2252	-0.022
Mof_C 	C 	0.82404	0.28728	0.9698	0.2
Mof_H 	H 	0.8369	0.2844	0.8889	-0.048
Mof_N 	N 	0.82748	0.3167	0.0505	-0.213
Mof_N 	N 	0.72365	0.23588	0.072	-0.192
Mof_N 	N 	0.74427	0.22579	0.9618	-0.383
Mof_C 	C 	0.68938	0.2333	0.0289	0.112
Mof_H 	H 	0.6691	0.239	0.0832	-0.01
Mof_C 	C 	0.72069	0.21741	0.8624	0.184
Mof_H 	H 	0.7278	0.2095	0.7769	-0.05
Mof_N 	N 	0.68564	0.22193	0.9014	-0.159
Mof_B 	B 	0.78665	0.2245	0.9663	1.502
Mof_H 	H 	0.797	0.219	0.877	-0.554
Mof_Mn	Mn	0.8791	0.11369	0.1945	1.001
Mof_N 	N 	0.88264	0.12278	0.3911	-0.223
Mof_C 	C 	0.8897	0.154	0.4451	0.103
Mof_H 	H 	0.889	0.1553	0.5388	-0.003
Mof_C 	C 	0.8988	0.1873	0.3733	-0.172
Mof_C 	C 	0.9005	0.221	0.4478	0.086
Mof_H 	H 	0.8968	0.2213	0.5407	0.002
Mof_C 	C 	0.9078	0.2535	0.378	-0.188
Mof_H 	H 	0.9085	0.2758	0.4253	0.099
Mof_C 	C 	0.914	0.2542	0.242	0.143
Mof_H 	H 	0.9193	0.2766	0.199	-0.009
Mof_C 	C 	0.9126	0.2219	0.1703	-0.273
Mof_H 	H 	0.9166	0.2225	0.0776	0.136
Mof_C 	C 	0.9052	0.1882	0.2333	0.282
Mof_O 	O 	0.90567	0.15729	0.1577	-0.397
Mof_N 	N 	0.85064	0.06955	0.2561	-0.227
Mof_C 	C 	0.8393	0.04291	0.1798	0.126
Mof_H 	H 	0.8266	0.0236	0.2215	-0.016
Mof_C 	C 	0.8443	0.0402	0.0362	-0.247
Mof_C 	C 	0.8346	0.0074	0.9725	0.18
Mof_H 	H 	0.8231	0.9887	0.0221	-0.034
Mof_C 	C 	0.8415	0.0018	0.8372	-0.304
Mof_H 	H 	0.8346	0.9798	0.7948	0.139
Mof_C 	C 	0.8588	0.0295	0.767	0.252
Mof_H 	H 	0.8638	0.0261	0.6757	-0.067
Mof_C 	C 	0.8688	0.0616	0.8266	-0.368
Mof_H 	H 	0.8805	0.0798	0.7753	0.168
Mof_C 	C 	0.862	0.0685	0.9627	0.356
Mof_O 	O 	0.87374	0.1002	0.0133	-0.425
Mof_C 	C 	0.8733	0.0897	0.4698	-0.056
Mof_H 	H 	0.8948	0.0736	0.477	0.041
Mof_H 	H 	0.8657	0.0968	0.5601	0.042
Mof_C 	C 	0.8425	0.0695	0.4016	-0.056
Mof_H 	H 	0.819	0.0819	0.4189	0.041
Mof_H 	H 	0.8409	0.0443	0.435	0.043
Mof_N 	N 	0.21236	0.30269	0.2036	-0.167
Mof_N 	N 	0.20128	0.30489	0.0704	-0.38
Mof_C 	C 	0.19528	0.33055	0.2608	0.122
Mof_H 	H 	0.1978	0.3361	0.352	-0.022
Mof_C 	C 	0.17891	0.33366	0.0582	0.188
Mof_H 	H 	0.1682	0.3412	0.9773	-0.038
Mof_N 	N 	0.17353	0.35064	0.1765	-0.213
Mof_N 	N 	0.21255	0.22314	0.1369	-0.205
Mof_N 	N 	0.19969	0.23715	0.0184	-0.375
Mof_C 	C 	0.19581	0.1915	0.1515	0.124
Mof_H 	H 	0.1996	0.176	0.2252	-0.022
Mof_C 	C 	0.17596	0.21272	0.9698	0.2
Mof_H 	H 	0.1631	0.2156	0.8889	-0.048
Mof_N 	N 	0.17252	0.1833	0.0505	-0.213
Mof_N 	N 	0.27635	0.26412	0.072	-0.192
Mof_N 	N 	0.25573	0.27421	0.9618	-0.383
Mof_C 	C 	0.31062	0.2667	0.0289	0.112
Mof_H 	H 	0.3309	0.261	0.0832	-0.01
Mof_C 	C 	0.27931	0.28259	0.8624	0.184
Mof_H 	H 	0.2722	0.2905	0.7769	-0.05
Mof_N 	N 	0.31436	0.27807	0.9014	-0.159
Mof_B 	B 	0.21335	0.2755	0.9663	1.503
Mof_H 	H 	0.203	0.281	0.877	-0.554
Mof_Mn	Mn	0.1209	0.38631	0.1945	1
Mof_N 	N 	0.11736	0.37722	0.3911	-0.223
Mof_C 	C 	0.1103	0.346	0.4451	0.103
Mof_H 	H 	0.111	0.3447	0.5388	-0.004
Mof_C 	C 	0.1012	0.3127	0.3733	-0.173
Mof_C 	C 	0.0995	0.279	0.4478	0.086
Mof_H 	H 	0.1032	0.2787	0.5407	0.002
Mof_C 	C 	0.0922	0.2465	0.378	-0.188
Mof_H 	H 	0.0915	0.2242	0.4253	0.098
Mof_C 	C 	0.086	0.2458	0.242	0.142
Mof_H 	H 	0.0807	0.2234	0.199	-0.009
Mof_C 	C 	0.0874	0.2781	0.1703	-0.273
Mof_H 	H 	0.0834	0.2775	0.0776	0.135
Mof_C 	C 	0.0948	0.3118	0.2333	0.282
Mof_O 	O 	0.09433	0.34271	0.1577	-0.397
Mof_N 	N 	0.14936	0.43045	0.2561	-0.227
Mof_C 	C 	0.1607	0.45709	0.1798	0.127
Mof_H 	H 	0.1734	0.4764	0.2215	-0.015
Mof_C 	C 	0.1557	0.4598	0.0362	-0.248
Mof_C 	C 	0.1654	0.4926	0.9725	0.186
Mof_H 	H 	0.1769	0.5113	0.0221	-0.04
Mof_C 	C 	0.1585	0.4982	0.8372	-0.292
Mof_H 	H 	0.1654	0.5202	0.7948	0.132
Mof_C 	C 	0.1412	0.4705	0.767	0.245
Mof_H 	H 	0.1362	0.4739	0.6757	-0.064
Mof_C 	C 	0.1312	0.4384	0.8266	-0.364
Mof_H 	H 	0.1195	0.4202	0.7753	0.166
Mof_C 	C 	0.138	0.4315	0.9627	0.355
Mof_O 	O 	0.12626	0.3998	0.0133	-0.425
Mof_C 	C 	0.1267	0.4103	0.4698	-0.056
Mof_H 	H 	0.1052	0.4264	0.477	0.041
Mof_H 	H 	0.1343	0.4032	0.5601	0.042
Mof_C 	C 	0.1575	0.4305	0.4016	-0.056
Mof_H 	H 	0.181	0.4181	0.4189	0.042
Mof_H 	H 	0.1591	0.4557	0.435	0.043
Mof_N 	N 	0.71236	0.80269	0.7036	-0.167
Mof_N 	N 	0.70128	0.80489	0.5704	-0.379
Mof_C 	C 	0.69528	0.83055	0.7608	0.122
Mof_H 	H 	0.6978	0.8361	0.852	-0.021
Mof_C 	C 	0.67891	0.83366	0.5582	0.191
Mof_H 	H 	0.6682	0.8412	0.4773	-0.041
Mof_N 	N 	0.67353	0.85064	0.6765	-0.214
Mof_N 	N 	0.71255	0.72314	0.6369	-0.205
Mof_N 	N 	0.69969	0.73715	0.5184	-0.372
Mof_C 	C 	0.69581	0.6915	0.6515	0.124
Mof_H 	H 	0.6996	0.676	0.7252	-0.022
Mof_C 	C 	0.67596	0.71272	0.4698	0.195
Mof_H 	H 	0.6631	0.7156	0.3889	-0.047
Mof_N 	N 	0.67252	0.6833	0.5505	-0.212
Mof_N 	N 	0.77635	0.76412	0.572	-0.192
Mof_N 	N 	0.75573	0.77421	0.4618	-0.382
Mof_C 	C 	0.81062	0.7667	0.5289	0.113
Mof_H 	H 	0.8309	0.761	0.5832	-0.011
Mof_C 	C 	0.77931	0.78259	0.3624	0.183
Mof_H 	H 	0.7722	0.7905	0.2769	-0.05
Mof_N 	N 	0.81436	0.77807	0.4014	-0.16
Mof_B 	B 	0.71335	0.7755	0.4663	1.498
Mof_H 	H 	0.703	0.781	0.377	-0.553
Mof_Mn	Mn	0.6209	0.88631	0.6945	1
Mof_N 	N 	0.61736	0.87722	0.8911	-0.228
Mof_C 	C 	0.6103	0.846	0.9451	0.123
Mof_H 	H 	0.611	0.8447	0.0388	-0.014
Mof_C 	C 	0.6012	0.8127	0.8733	-0.19
Mof_C 	C 	0.5995	0.779	0.9478	0.116
Mof_H 	H 	0.6032	0.7787	0.0407	-0.013
Mof_C 	C 	0.5922	0.7465	0.878	-0.21
Mof_H 	H 	0.5915	0.7242	0.9253	0.108
Mof_C 	C 	0.586	0.7458	0.742	0.16
Mof_H 	H 	0.5807	0.7234	0.699	-0.015
Mof_C 	C 	0.5874	0.7781	0.6703	-0.287
Mof_H 	H 	0.5834	0.7775	0.5776	0.14
Mof_C 	C 	0.5948	0.8118	0.7333	0.293
Mof_O 	O 	0.59433	0.84271	0.6577	-0.4
Mof_N 	N 	0.64936	0.93045	0.7561	-0.223
Mof_C 	C 	0.6607	0.95709	0.6798	0.115
Mof_H 	H 	0.6734	0.9764	0.7215	-0.009
Mof_C 	C 	0.6557	0.9598	0.5362	-0.221
Mof_C 	C 	0.6654	0.9926	0.4725	0.153
Mof_H 	H 	0.6769	0.0113	0.5221	-0.03
Mof_C 	C 	0.6585	0.9982	0.3372	-0.25
Mof_H 	H 	0.6654	0.0202	0.2948	0.112
Mof_C 	C 	0.6412	0.9705	0.267	0.21
Mof_H 	H 	0.6362	0.9739	0.1757	-0.051
Mof_C 	C 	0.6312	0.9384	0.3266	-0.336
Mof_H 	H 	0.6195	0.9202	0.2753	0.156
Mof_C 	C 	0.638	0.9315	0.4627	0.33
Mof_O 	O 	0.62626	0.8998	0.5133	-0.417
Mof_C 	C 	0.6267	0.9103	0.9698	-0.04
Mof_H 	H 	0.6052	0.9264	0.977	0.038
Mof_H 	H 	0.6343	0.9032	0.0601	0.034
Mof_C 	C 	0.6575	0.9305	0.9016	-0.066
Mof_H 	H 	0.681	0.9181	0.9189	0.046
Mof_H 	H 	0.6591	0.9557	0.935	0.048
Mof_Cu	Cu	-0	0	-0	0.841
Mof_Cu	Cu	0.5	0.5	0.5	0.849
Mof_Cu	Cu	0.5	9.83056e-34	0.5	0.846
Mof_Cu	Cu	3.93222e-33	0.5	-0	0.843
Mof_Cu	Cu	0.75	0.25	0.25	0.849
Mof_Cu	Cu	0.75	0.75	0.75	0.849
Mof_Cu	Cu	0.25	0.75	0.75	0.849
Mof_Cu	Cu	0.25	0.25	0.25	0.849
_end
