data_functionalizedCrystal
_audit_creation_method	'EQeq! by Chris Wilmer'
_symmetry_space_group_name_H-M	'P1'
_symmetry_Int_Tables_number	1
_symmetry_cell_setting	triclinic
loop_
_symmetry_equiv_pos_as_xyz
  x,y,z
_cell_length_a	5.5462
_cell_length_b	13.343
_cell_length_c	21.164
_cell_angle_alpha	90
_cell_angle_beta	96.516
_cell_angle_gamma	90
loop_
_atom_site_label
_atom_site_type_symbol
_atom_site_fract_x
_atom_site_fract_y
_atom_site_fract_z
_atom_site_charge
Mof_Sm	Sm	0.62667	0.13256	0.97225	2.011
Mof_Sm	Sm	0.37333	0.63256	0.52775	2.011
Mof_Sm	Sm	0.37333	0.86744	0.02775	2.011
Mof_Sm	Sm	0.62667	0.36744	0.47225	2.011
Mof_P 	P 	0.9159	0.0233	0.08711	0.516
Mof_P 	P 	0.0841	0.5233	0.41289	0.514
Mof_P 	P 	0.0841	0.9767	0.91289	0.516
Mof_P 	P 	0.9159	0.4767	0.58711	0.514
Mof_H 	H 	0.7718	0.9721	0.1803	0.093
Mof_H 	H 	0.6777	0.08	0.1626	0.067
Mof_H 	H 	0.7646	0.093	0.2802	0.049
Mof_H 	H 	0.9065	0.9913	0.2855	0.042
Mof_H 	H 	0.028	0.0932	0.3698	0.011
Mof_H 	H 	0.2447	0.0681	0.3311	0.027
Mof_H 	H 	0.9888	0.2512	0.3257	0.065
Mof_H 	H 	0.21	0.3078	0.2479	0.038
Mof_H 	H 	0.3716	0.2111	0.2524	0.047
Mof_H 	H 	0.0903	0.194	0.1626	0.034
Mof_H 	H 	0.8742	0.2189	0.2017	0.033
Mof_H 	H 	0.2282	0.4721	0.3197	0.093
Mof_H 	H 	0.3223	0.58	0.3374	0.067
Mof_H 	H 	0.2354	0.593	0.2198	0.049
Mof_H 	H 	0.0935	0.4913	0.2145	0.041
Mof_H 	H 	0.972	0.5932	0.1302	0.011
Mof_H 	H 	0.7553	0.5681	0.1689	0.027
Mof_H 	H 	0.0112	0.7512	0.1743	0.064
Mof_H 	H 	0.79	0.8078	0.2521	0.039
Mof_H 	H 	0.6284	0.7111	0.2476	0.048
Mof_H 	H 	0.9097	0.694	0.3374	0.033
Mof_H 	H 	0.1258	0.7189	0.2983	0.031
Mof_H 	H 	0.2282	0.0279	0.8197	0.093
Mof_H 	H 	0.3223	0.92	0.8374	0.067
Mof_H 	H 	0.2354	0.907	0.7198	0.049
Mof_H 	H 	0.0935	0.0087	0.7145	0.042
Mof_H 	H 	0.972	0.9068	0.6302	0.011
Mof_H 	H 	0.7553	0.9319	0.6689	0.027
Mof_H 	H 	0.0112	0.7488	0.6743	0.065
Mof_H 	H 	0.79	0.6922	0.7521	0.038
Mof_H 	H 	0.6284	0.7889	0.7476	0.047
Mof_H 	H 	0.9097	0.806	0.8374	0.034
Mof_H 	H 	0.1258	0.7811	0.7983	0.033
Mof_H 	H 	0.7718	0.5279	0.6803	0.093
Mof_H 	H 	0.6777	0.42	0.6626	0.067
Mof_H 	H 	0.7646	0.407	0.7802	0.049
Mof_H 	H 	0.9065	0.5087	0.7855	0.041
Mof_H 	H 	0.028	0.4068	0.8698	0.011
Mof_H 	H 	0.2447	0.4319	0.8311	0.027
Mof_H 	H 	0.9888	0.2488	0.8257	0.064
Mof_H 	H 	0.21	0.1922	0.7479	0.039
Mof_H 	H 	0.3716	0.2889	0.7524	0.048
Mof_H 	H 	0.0903	0.306	0.6626	0.033
Mof_H 	H 	0.8742	0.2811	0.7017	0.031
Mof_C 	C 	0.82	0.0374	0.1661	-0.221
Mof_C 	C 	0.923	0.0627	0.2785	-0.084
Mof_C 	C 	0.092	0.1043	0.3296	-0.032
Mof_C 	C 	0.143	0.2168	0.3228	-0.142
Mof_C 	C 	0.209	0.2361	0.2555	-0.062
Mof_C 	C 	0.03	0.1855	0.2036	-0.061
Mof_C 	C 	0.323	0.2618	0.3738	0.333
Mof_C 	C 	0.18	0.5374	0.3339	-0.221
Mof_C 	C 	0.077	0.5627	0.2215	-0.084
Mof_C 	C 	0.908	0.6043	0.1704	-0.034
Mof_C 	C 	0.857	0.7168	0.1772	-0.14
Mof_C 	C 	0.791	0.7361	0.2445	-0.065
Mof_C 	C 	0.97	0.6855	0.2964	-0.058
Mof_C 	C 	0.677	0.7618	0.1262	0.332
Mof_C 	C 	0.18	0.9626	0.8339	-0.221
Mof_C 	C 	0.077	0.9373	0.7215	-0.084
Mof_C 	C 	0.908	0.8957	0.6704	-0.032
Mof_C 	C 	0.857	0.7832	0.6772	-0.142
Mof_C 	C 	0.791	0.7639	0.7445	-0.062
Mof_C 	C 	0.97	0.8145	0.7964	-0.061
Mof_C 	C 	0.677	0.7382	0.6262	0.333
Mof_C 	C 	0.82	0.4626	0.6661	-0.221
Mof_C 	C 	0.923	0.4373	0.7785	-0.084
Mof_C 	C 	0.092	0.3957	0.8296	-0.034
Mof_C 	C 	0.143	0.2832	0.8228	-0.14
Mof_C 	C 	0.209	0.2639	0.7555	-0.065
Mof_C 	C 	0.03	0.3145	0.7036	-0.058
Mof_C 	C 	0.323	0.2382	0.8738	0.332
Mof_N 	N 	0.996	0.0786	0.2148	-0.069
Mof_N 	N 	0.004	0.5786	0.2852	-0.07
Mof_N 	N 	0.004	0.9214	0.7852	-0.069
Mof_N 	N 	0.996	0.4214	0.7148	-0.07
Mof_O 	O 	0.6865	0.9829	0.0449	-0.676
Mof_O 	O 	0.9626	0.1239	0.0581	-0.528
Mof_O 	O 	0.1282	0.9539	0.0898	-0.53
Mof_O 	O 	0.296	0.2435	0.431	-0.503
Mof_O 	O 	0.498	0.3145	0.3603	-0.455
Mof_O 	O 	0.3135	0.4829	0.4551	-0.676
Mof_O 	O 	0.0374	0.6239	0.4419	-0.529
Mof_O 	O 	0.8718	0.4539	0.4102	-0.528
Mof_O 	O 	0.704	0.7435	0.069	-0.503
Mof_O 	O 	0.502	0.8145	0.1397	-0.455
Mof_O 	O 	0.3135	0.0171	0.9551	-0.676
Mof_O 	O 	0.0374	0.8761	0.9419	-0.528
Mof_O 	O 	0.8718	0.0461	0.9102	-0.53
Mof_O 	O 	0.704	0.7565	0.569	-0.503
Mof_O 	O 	0.502	0.6855	0.6397	-0.455
Mof_O 	O 	0.6865	0.5171	0.5449	-0.676
Mof_O 	O 	0.9626	0.3761	0.5581	-0.529
Mof_O 	O 	0.1282	0.5461	0.5898	-0.528
Mof_O 	O 	0.296	0.2565	0.931	-0.503
Mof_O 	O 	0.498	0.1855	0.8603	-0.455
_end
