# CIF file generated by openbabel 3.1.0, see https://openbabel.org
data_I
_chemical_name_common 'image0'
_cell_length_a 10.1274
_cell_length_b 14.4606
_cell_length_c 17.0203
_cell_angle_alpha 70.461
_cell_angle_beta 86.321
_cell_angle_gamma 83.639
_space_group_name_H-M_alt 'P 1'
_space_group_name_Hall 'P 1'
loop_
    _symmetry_equiv_pos_as_xyz
    x,y,z
loop_
    _atom_site_label
    _atom_site_type_symbol
    _atom_site_fract_x
    _atom_site_fract_y
    _atom_site_fract_z
    _atom_site_occupancy
    Cd1      Cd       0.61474    0.81819    0.40229    1.000
    Cd2      Cd       0.95916    0.32224    0.89099    1.000
    O1       O        0.68730    0.90480    0.48060    1.000
    O2       O        0.81080    0.90900    0.36950    1.000
    O3       O        0.53590    0.94980    0.63690    1.000
    O4       O        0.50320    0.06780    0.69550    1.000
    O5       O        0.87320    0.75650    0.02860    1.000
    O6       O        0.84690    0.62820    0.98750    1.000
    O7       O        0.96630    0.43880    0.13880    1.000
    O8       O        0.92080    0.56090    0.19300    1.000
    O9       O        0.53260    0.26090    0.50660    1.000
    O10      O        0.61650    0.13100    0.47060    1.000
    O11      O        0.84760    0.40030    0.98430    1.000
    O12      O        0.74720    0.40690    0.87150    1.000
    O13      O        0.85600    0.18890    0.96910    1.000
    N1       N        0.83500    0.10360    0.10400    1.000
    C1       C        0.79240    0.92670    0.43570    1.000
    C2       C        0.89720    0.96680    0.46890    1.000
    C3       C        0.88790    0.97170    0.54910    1.000
    H1       H        0.81060    0.95260    0.58270    1.000
    C4       C        0.01210    0.99640    0.41970    1.000
    H2       H        0.01980    0.99420    0.36440    1.000
    C5       C        0.54380    0.98410    0.69520    1.000
    C6       C        0.61130    0.91290    0.77140    1.000
    C7       C        0.63910    0.94560    0.83720    1.000
    H3       H        0.61180    0.01140    0.83480    1.000
    C8       C        0.70680    0.88090    0.90570    1.000
    H4       H        0.72560    0.90290    0.95020    1.000
    C9       C        0.74720    0.78480    0.90980    1.000
    C10      C        0.71570    0.75180    0.84620    1.000
    H5       H        0.73920    0.68500    0.84990    1.000
    C11      C        0.65060    0.81580    0.77770    1.000
    H6       H        0.63220    0.79290    0.73380    1.000
    C12      C        0.82930    0.71680    0.98120    1.000
    C13      C        0.39450    0.53920    0.94690    1.000
    H7       H        0.32270    0.56650    0.91030    1.000
    C14      C        0.51270    0.50290    0.91790    1.000
    H8       H        0.52120    0.50440    0.86160    1.000
    C15      C        0.61920    0.46410    0.97060    1.000
    C16      C        0.74680    0.42280    0.93950    1.000
    C17      C        0.91180    0.47590    0.19130    1.000
    C18      C        0.82980    0.41080    0.26110    1.000
    C19      C        0.76260    0.44630    0.31970    1.000
    H9       H        0.76590    0.51320    0.31550    1.000
    C20      C        0.69060    0.38560    0.38430    1.000
    H10      H        0.64400    0.41130    0.42390    1.000
    C21      C        0.68570    0.28680    0.39200    1.000
    C22      C        0.60540    0.22140    0.46130    1.000
    C23      C        0.75440    0.25070    0.33460    1.000
    H11      H        0.75350    0.18330    0.34000    1.000
    C24      C        0.82620    0.31270    0.26780    1.000
    H12      H        0.87190    0.28760    0.22760    1.000
    C25      C        0.78580    0.15560    0.03050    1.000
    C26      C        0.65300    0.13900    0.01720    1.000
    H13      H        0.63790    0.15870    0.95860    1.000
    H14      H        0.64240    0.07000    0.04250    1.000
    H15      H        0.59020    0.17620    0.04240    1.000
    C27      C        0.94650    0.14800    0.12930    1.000
    H16      H        0.93900    0.16510    0.17940    1.000
    H17      H        0.00800    0.09030    0.13730    1.000
    H18      H        0.97800    0.20170    0.08410    1.000
    C28      C        0.73000    0.10190    0.17680    1.000
    H19      H        0.73440    0.14100    0.21210    1.000
    H20      H        0.64180    0.11240    0.15530    1.000
    H21      H        0.74870    0.03340    0.20860    1.000
    O14      O        0.83000    0.18600    0.97160    1.000
    N2       N        0.82040    0.13340    0.11000    1.000
    C29      C        0.87900    0.10780    0.02170    1.000
    C30      C        0.96100    0.04390    0.98470    1.000
    H22      H        0.95710    0.06940    0.92500    1.000
    H23      H        0.05060    0.03920    0.00120    1.000
    H24      H        0.92880    0.97960    0.00460    1.000
    C31      C        0.73900    0.18020    0.11680    1.000
    H25      H        0.70390    0.22300    0.06450    1.000
    H26      H        0.66750    0.14940    0.15240    1.000
    H27      H        0.78130    0.21790    0.14300    1.000
    C32      C        0.91800    0.02060    0.15790    1.000
    H28      H        0.97050    0.98640    0.12530    1.000
    H29      H        0.97620    0.04480    0.18750    1.000
    H30      H        0.86240    0.97630    0.19700    1.000
    Cd3      Cd       0.38526    0.18181    0.59771    1.000
    Cd4      Cd       0.04084    0.67776    0.10901    1.000
    O15      O        0.31270    0.09520    0.51940    1.000
    O16      O        0.18920    0.09100    0.63050    1.000
    O17      O        0.46410    0.05020    0.36310    1.000
    O18      O        0.49680    0.93220    0.30450    1.000
    O19      O        0.12680    0.24350    0.97140    1.000
    O20      O        0.15310    0.37180    0.01250    1.000
    O21      O        0.03370    0.56120    0.86120    1.000
    O22      O        0.07920    0.43910    0.80700    1.000
    O23      O        0.46740    0.73910    0.49340    1.000
    O24      O        0.38350    0.86900    0.52940    1.000
    O25      O        0.15240    0.59970    0.01570    1.000
    O26      O        0.25280    0.59310    0.12850    1.000
    O27      O        0.14400    0.81110    0.03090    1.000
    N3       N        0.16500    0.89640    0.89600    1.000
    C33      C        0.20760    0.07330    0.56430    1.000
    C34      C        0.10280    0.03320    0.53110    1.000
    C35      C        0.11210    0.02830    0.45090    1.000
    H31      H        0.18940    0.04740    0.41730    1.000
    C36      C        0.98790    0.00360    0.58030    1.000
    H32      H        0.98020    0.00580    0.63560    1.000
    C37      C        0.45620    0.01590    0.30480    1.000
    C38      C        0.38870    0.08710    0.22860    1.000
    C39      C        0.36090    0.05440    0.16280    1.000
    H33      H        0.38820    0.98860    0.16520    1.000
    C40      C        0.29320    0.11910    0.09430    1.000
    H34      H        0.27440    0.09710    0.04980    1.000
    C41      C        0.25280    0.21520    0.09020    1.000
    C42      C        0.28430    0.24820    0.15380    1.000
    H35      H        0.26080    0.31500    0.15010    1.000
    C43      C        0.34940    0.18420    0.22230    1.000
    H36      H        0.36780    0.20710    0.26620    1.000
    C44      C        0.17070    0.28320    0.01880    1.000
    C45      C        0.60550    0.46080    0.05310    1.000
    H37      H        0.67730    0.43350    0.08970    1.000
    C46      C        0.48730    0.49710    0.08210    1.000
    H38      H        0.47880    0.49560    0.13840    1.000
    C47      C        0.38080    0.53590    0.02940    1.000
    C48      C        0.25320    0.57720    0.06050    1.000
    C49      C        0.08820    0.52410    0.80870    1.000
    C50      C        0.17020    0.58920    0.73890    1.000
    C51      C        0.23740    0.55370    0.68030    1.000
    H39      H        0.23410    0.48680    0.68450    1.000
    C52      C        0.30940    0.61440    0.61570    1.000
    H40      H        0.35600    0.58870    0.57610    1.000
    C53      C        0.31430    0.71320    0.60800    1.000
    C54      C        0.39460    0.77860    0.53870    1.000
    C55      C        0.24560    0.74930    0.66540    1.000
    H41      H        0.24650    0.81670    0.66000    1.000
    C56      C        0.17380    0.68730    0.73220    1.000
    H42      H        0.12810    0.71240    0.77240    1.000
    C57      C        0.21420    0.84440    0.96950    1.000
    C58      C        0.34700    0.86100    0.98280    1.000
    H43      H        0.36210    0.84130    0.04140    1.000
    H44      H        0.35760    0.93000    0.95750    1.000
    H45      H        0.40980    0.82380    0.95760    1.000
    C59      C        0.05350    0.85200    0.87070    1.000
    H46      H        0.06100    0.83490    0.82060    1.000
    H47      H        0.99200    0.90970    0.86270    1.000
    H48      H        0.02200    0.79830    0.91590    1.000
    C60      C        0.27000    0.89810    0.82320    1.000
    H49      H        0.26560    0.85900    0.78790    1.000
    H50      H        0.35820    0.88760    0.84470    1.000
    H51      H        0.25130    0.96660    0.79140    1.000
    O28      O        0.17000    0.81400    0.02840    1.000
    N4       N        0.17960    0.86660    0.89000    1.000
    C61      C        0.12100    0.89220    0.97830    1.000
    C62      C        0.03900    0.95610    0.01530    1.000
    H52      H        0.04290    0.93060    0.07500    1.000
    H53      H        0.94940    0.96080    0.99880    1.000
    H54      H        0.07120    0.02040    0.99540    1.000
    C63      C        0.26100    0.81980    0.88320    1.000
    H55      H        0.29610    0.77700    0.93550    1.000
    H56      H        0.33250    0.85060    0.84760    1.000
    H57      H        0.21870    0.78210    0.85700    1.000
    C64      C        0.08200    0.97940    0.84210    1.000
    H58      H        0.02950    0.01360    0.87470    1.000
    H59      H        0.02380    0.95520    0.81250    1.000
    H60      H        0.13760    0.02370    0.80300    1.000
    Cd5      Cd       0.50000    0.00000    0.50000    1.000
    Cd6      Cd       0.00000    0.50000    0.00000    1.000
