# CIF file generated by openbabel 3.1.0, see https://openbabel.org
data_I
_chemical_name_common 'image0'
_cell_length_a 18.698
_cell_length_b 19.292
_cell_length_c 19.383
_cell_angle_alpha 90
_cell_angle_beta 91.045
_cell_angle_gamma 90
_space_group_name_H-M_alt 'P 1'
_space_group_name_Hall 'P 1'
loop_
    _symmetry_equiv_pos_as_xyz
    x,y,z
loop_
    _atom_site_label
    _atom_site_type_symbol
    _atom_site_fract_x
    _atom_site_fract_y
    _atom_site_fract_z
    _atom_site_occupancy
    O1       O        0.18070    0.03820    0.58200    1.000
    O2       O        0.27630    0.00190    0.64210    1.000
    C1       C        0.21240    0.01620    0.64080    1.000
    C2       C        0.16740    0.00600    0.70210    1.000
    C3       C        0.09280    0.00420    0.69170    1.000
    H1       H        0.07290    0.01150    0.64800    1.000
    Fe1      Fe       0.72948    0.98591    0.47907    1.000
    Fe2      Fe       0.22984    0.52276    0.51696    1.000
    Fe3      Fe       0.86962    0.86663    0.45568    1.000
    Fe4      Fe       0.36756    0.55582    0.63798    1.000
    O3       O        0.77860    0.97240    0.57140    1.000
    O4       O        0.73100    0.02690    0.81970    1.000
    O5       O        0.82430    0.02300    0.89400    1.000
    O6       O        0.32010    0.58460    0.53810    1.000
    O7       O        0.22440    0.64230    0.50210    1.000
    O8       O        0.77040    0.82100    0.47950    1.000
    O9       O        0.14520    0.99100    0.94540    1.000
    O10      O        0.71850    0.56990    0.46030    1.000
    O11      O        0.25780    0.90300    0.52130    1.000
    O12      O        0.67750    0.89540    0.47950    1.000
    O13      O        0.25220    0.97740    0.90280    1.000
    O14      O        0.61710    0.54320    0.40370    1.000
    O15      O        0.88070    0.91410    0.55170    1.000
    O16      O        0.36070    0.94840    0.49030    1.000
    C4       C        0.29060    0.64080    0.51550    1.000
    C5       C        0.45260    0.74750    0.47960    1.000
    C6       C        0.86690    0.97030    0.65940    1.000
    C7       C        0.96770    0.98670    0.73710    1.000
    C8       C        0.84760    0.00520    0.77660    1.000
    C9       C        0.63030    0.65570    0.45030    1.000
    C10      C        0.82120    0.98830    0.71100    1.000
    H2       H        0.77210    0.98920    0.70220    1.000
    C11      C        0.35070    0.82510    0.49560    1.000
    C12      C        0.65410    0.77630    0.47190    1.000
    C13      C        0.07950    0.98820    0.81430    1.000
    H3       H        0.05030    0.98510    0.85250    1.000
    C14      C        0.83960    0.95150    0.58910    1.000
    C15      C        0.70670    0.83670    0.47790    1.000
    C16      C        0.53190    0.73540    0.46940    1.000
    C17      C        0.40630    0.69380    0.49320    1.000
    H4       H        0.42510    0.64920    0.49460    1.000
    C18      C        0.33620    0.70120    0.50450    1.000
    C19      C        0.18570    0.98420    0.89420    1.000
    C20      C        0.58060    0.78830    0.47750    1.000
    H5       H        0.56440    0.83290    0.48680    1.000
    C21      C        0.94160    0.96830    0.67400    1.000
    H6       H        0.97280    0.95430    0.64000    1.000
    C22      C        0.15440    0.98990    0.82440    1.000
    C23      C        0.30780    0.76880    0.50500    1.000
    H7       H        0.25920    0.77520    0.51190    1.000
    C24      C        0.04840    0.99100    0.74870    1.000
    C25      C        0.79610    0.02020    0.83420    1.000
    C26      C        0.67890    0.71000    0.46050    1.000
    H8       H        0.72780    0.70140    0.45950    1.000
    C27      C        0.92090    0.00470    0.78830    1.000
    H9       H        0.93890    0.01680    0.83160    1.000
    C28      C        0.42180    0.81470    0.48220    1.000
    H10      H        0.45080    0.85310    0.47460    1.000
    C29      C        0.55700    0.66860    0.45350    1.000
    H11      H        0.52460    0.63290    0.44520    1.000
    C30      C        0.32170    0.89620    0.50210    1.000
    C31      C        0.65950    0.58400    0.43730    1.000
    C32      C        0.19660    0.99780    0.76550    1.000
    H12      H        0.24610    0.99730    0.77060    1.000
    O17      O        0.81930    0.53820    0.91800    1.000
    O18      O        0.72370    0.50190    0.85790    1.000
    C33      C        0.78760    0.51620    0.85920    1.000
    C34      C        0.83260    0.50600    0.79790    1.000
    C35      C        0.90720    0.50420    0.80830    1.000
    H13      H        0.92710    0.51150    0.85200    1.000
    Fe5      Fe       0.27052    0.48591    0.02093    1.000
    Fe6      Fe       0.77016    0.02276    0.98304    1.000
    Fe7      Fe       0.13038    0.36663    0.04432    1.000
    Fe8      Fe       0.63244    0.05582    0.86202    1.000
    O19      O        0.22140    0.47240    0.92860    1.000
    O20      O        0.26900    0.52690    0.68030    1.000
    O21      O        0.17570    0.52300    0.60600    1.000
    O22      O        0.67990    0.08460    0.96190    1.000
    O23      O        0.77560    0.14230    0.99790    1.000
    O24      O        0.22960    0.32100    0.02050    1.000
    O25      O        0.85480    0.49100    0.55460    1.000
    O26      O        0.28150    0.06990    0.03970    1.000
    O27      O        0.74220    0.40300    0.97870    1.000
    O28      O        0.32250    0.39540    0.02050    1.000
    O29      O        0.74780    0.47740    0.59720    1.000
    O30      O        0.38290    0.04320    0.09630    1.000
    O31      O        0.11930    0.41410    0.94830    1.000
    O32      O        0.63930    0.44840    0.00970    1.000
    C36      C        0.70940    0.14080    0.98450    1.000
    C37      C        0.54740    0.24750    0.02040    1.000
    C38      C        0.13310    0.47030    0.84060    1.000
    C39      C        0.03230    0.48670    0.76290    1.000
    C40      C        0.15240    0.50520    0.72340    1.000
    C41      C        0.36970    0.15570    0.04970    1.000
    C42      C        0.17880    0.48830    0.78900    1.000
    H14      H        0.22790    0.48920    0.79780    1.000
    C43      C        0.64930    0.32510    0.00440    1.000
    C44      C        0.34590    0.27630    0.02810    1.000
    C45      C        0.92050    0.48820    0.68570    1.000
    H15      H        0.94970    0.48510    0.64750    1.000
    C46      C        0.16040    0.45150    0.91090    1.000
    C47      C        0.29330    0.33670    0.02210    1.000
    C48      C        0.46810    0.23540    0.03060    1.000
    C49      C        0.59370    0.19380    0.00680    1.000
    H16      H        0.57490    0.14920    0.00540    1.000
    C50      C        0.66380    0.20120    0.99550    1.000
    C51      C        0.81430    0.48420    0.60580    1.000
    C52      C        0.41940    0.28830    0.02250    1.000
    H17      H        0.43560    0.33290    0.01320    1.000
    C53      C        0.05840    0.46830    0.82600    1.000
    H18      H        0.02720    0.45430    0.86000    1.000
    C54      C        0.84560    0.48990    0.67560    1.000
    C55      C        0.69220    0.26880    0.99500    1.000
    H19      H        0.74080    0.27520    0.98810    1.000
    C56      C        0.95160    0.49100    0.75130    1.000
    C57      C        0.20390    0.52020    0.66580    1.000
    C58      C        0.32110    0.21000    0.03950    1.000
    H20      H        0.27220    0.20140    0.04050    1.000
    C59      C        0.07910    0.50470    0.71170    1.000
    H21      H        0.06110    0.51680    0.66840    1.000
    C60      C        0.57820    0.31470    0.01780    1.000
    H22      H        0.54920    0.35310    0.02540    1.000
    C61      C        0.44300    0.16860    0.04650    1.000
    H23      H        0.47540    0.13290    0.05480    1.000
    C62      C        0.67830    0.39620    0.99790    1.000
    C63      C        0.34050    0.08400    0.06270    1.000
    C64      C        0.80340    0.49780    0.73450    1.000
    H24      H        0.75390    0.49730    0.72940    1.000
    O33      O        0.81930    0.96180    0.41800    1.000
    O34      O        0.72370    0.99810    0.35790    1.000
    C65      C        0.78760    0.98380    0.35920    1.000
    C66      C        0.83260    0.99400    0.29790    1.000
    C67      C        0.90720    0.99580    0.30830    1.000
    H25      H        0.92710    0.98850    0.35200    1.000
    Fe9      Fe       0.27052    0.01409    0.52093    1.000
    Fe10     Fe       0.77016    0.47724    0.48304    1.000
    Fe11     Fe       0.13038    0.13337    0.54432    1.000
    Fe12     Fe       0.63244    0.44418    0.36202    1.000
    O35      O        0.22140    0.02760    0.42860    1.000
    O36      O        0.26900    0.97310    0.18030    1.000
    O37      O        0.17570    0.97700    0.10600    1.000
    O38      O        0.67990    0.41540    0.46190    1.000
    O39      O        0.77560    0.35770    0.49790    1.000
    O40      O        0.22960    0.17900    0.52050    1.000
    O41      O        0.85480    0.00900    0.05460    1.000
    O42      O        0.28150    0.43010    0.53970    1.000
    O43      O        0.74220    0.09700    0.47870    1.000
    O44      O        0.32250    0.10460    0.52050    1.000
    O45      O        0.74780    0.02260    0.09720    1.000
    O46      O        0.38290    0.45680    0.59630    1.000
    O47      O        0.11930    0.08590    0.44830    1.000
    O48      O        0.63930    0.05160    0.50970    1.000
    C68      C        0.70940    0.35920    0.48450    1.000
    C69      C        0.54740    0.25250    0.52040    1.000
    C70      C        0.13310    0.02970    0.34060    1.000
    C71      C        0.03230    0.01330    0.26290    1.000
    C72      C        0.15240    0.99480    0.22340    1.000
    C73      C        0.36970    0.34430    0.54970    1.000
    C74      C        0.17880    0.01170    0.28900    1.000
    H26      H        0.22790    0.01080    0.29780    1.000
    C75      C        0.64930    0.17490    0.50440    1.000
    C76      C        0.34590    0.22370    0.52810    1.000
    C77      C        0.92050    0.01180    0.18570    1.000
    H27      H        0.94970    0.01490    0.14750    1.000
    C78      C        0.16040    0.04850    0.41090    1.000
    C79      C        0.29330    0.16330    0.52210    1.000
    C80      C        0.46810    0.26460    0.53060    1.000
    C81      C        0.59370    0.30620    0.50680    1.000
    H28      H        0.57490    0.35080    0.50540    1.000
    C82      C        0.66380    0.29880    0.49550    1.000
    C83      C        0.81430    0.01580    0.10580    1.000
    C84      C        0.41940    0.21170    0.52250    1.000
    H29      H        0.43560    0.16710    0.51320    1.000
    C85      C        0.05840    0.03170    0.32600    1.000
    H30      H        0.02720    0.04570    0.36000    1.000
    C86      C        0.84560    0.01010    0.17560    1.000
    C87      C        0.69220    0.23120    0.49500    1.000
    H31      H        0.74080    0.22480    0.48810    1.000
    C88      C        0.95160    0.00900    0.25130    1.000
    C89      C        0.20390    0.97980    0.16580    1.000
    C90      C        0.32110    0.29000    0.53950    1.000
    H32      H        0.27220    0.29860    0.54050    1.000
    C91      C        0.07910    0.99530    0.21170    1.000
    H33      H        0.06110    0.98320    0.16840    1.000
    C92      C        0.57820    0.18530    0.51780    1.000
    H34      H        0.54920    0.14690    0.52540    1.000
    C93      C        0.44300    0.33140    0.54650    1.000
    H35      H        0.47540    0.36710    0.55480    1.000
    C94      C        0.67830    0.10380    0.49790    1.000
    C95      C        0.34050    0.41600    0.56270    1.000
    C96      C        0.80340    0.00220    0.23450    1.000
    H36      H        0.75390    0.00270    0.22940    1.000
    O49      O        0.18070    0.46180    0.08200    1.000
    O50      O        0.27630    0.49810    0.14210    1.000
    C97      C        0.21240    0.48380    0.14080    1.000
    C98      C        0.16740    0.49400    0.20210    1.000
    C99      C        0.09280    0.49580    0.19170    1.000
    H37      H        0.07290    0.48850    0.14800    1.000
    Fe13     Fe       0.72948    0.51409    0.97907    1.000
    Fe14     Fe       0.22984    0.97724    0.01696    1.000
    Fe15     Fe       0.86962    0.63337    0.95568    1.000
    Fe16     Fe       0.36756    0.94418    0.13798    1.000
    O51      O        0.77860    0.52760    0.07140    1.000
    O52      O        0.73100    0.47310    0.31970    1.000
    O53      O        0.82430    0.47700    0.39400    1.000
    O54      O        0.32010    0.91540    0.03810    1.000
    O55      O        0.22440    0.85770    0.00210    1.000
    O56      O        0.77040    0.67900    0.97950    1.000
    O57      O        0.14520    0.50900    0.44540    1.000
    O58      O        0.71850    0.93010    0.96030    1.000
    O59      O        0.25780    0.59700    0.02130    1.000
    O60      O        0.67750    0.60460    0.97950    1.000
    O61      O        0.25220    0.52260    0.40280    1.000
    O62      O        0.61710    0.95680    0.90370    1.000
    O63      O        0.88070    0.58590    0.05170    1.000
    O64      O        0.36070    0.55160    0.99030    1.000
    C100     C        0.29060    0.85920    0.01550    1.000
    C101     C        0.45260    0.75250    0.97960    1.000
    C102     C        0.86690    0.52970    0.15940    1.000
    C103     C        0.96770    0.51330    0.23710    1.000
    C104     C        0.84760    0.49480    0.27660    1.000
    C105     C        0.63030    0.84430    0.95030    1.000
    C106     C        0.82120    0.51170    0.21100    1.000
    H38      H        0.77210    0.51080    0.20220    1.000
    C107     C        0.35070    0.67490    0.99560    1.000
    C108     C        0.65410    0.72370    0.97190    1.000
    C109     C        0.07950    0.51180    0.31430    1.000
    H39      H        0.05030    0.51490    0.35250    1.000
    C110     C        0.83960    0.54850    0.08910    1.000
    C111     C        0.70670    0.66330    0.97790    1.000
    C112     C        0.53190    0.76460    0.96940    1.000
    C113     C        0.40630    0.80620    0.99320    1.000
    H40      H        0.42510    0.85080    0.99460    1.000
    C114     C        0.33620    0.79880    0.00450    1.000
    C115     C        0.18570    0.51580    0.39420    1.000
    C116     C        0.58060    0.71170    0.97750    1.000
    H41      H        0.56440    0.66710    0.98680    1.000
    C117     C        0.94160    0.53170    0.17400    1.000
    H42      H        0.97280    0.54570    0.14000    1.000
    C118     C        0.15440    0.51010    0.32440    1.000
    C119     C        0.30780    0.73120    0.00500    1.000
    H43      H        0.25920    0.72480    0.01190    1.000
    C120     C        0.04840    0.50900    0.24870    1.000
    C121     C        0.79610    0.47980    0.33420    1.000
    C122     C        0.67890    0.79000    0.96050    1.000
    H44      H        0.72780    0.79860    0.95950    1.000
    C123     C        0.92090    0.49530    0.28830    1.000
    H45      H        0.93890    0.48320    0.33160    1.000
    C124     C        0.42180    0.68530    0.98220    1.000
    H46      H        0.45080    0.64690    0.97460    1.000
    C125     C        0.55700    0.83140    0.95350    1.000
    H47      H        0.52460    0.86710    0.94520    1.000
    C126     C        0.32170    0.60380    0.00210    1.000
    C127     C        0.65950    0.91600    0.93730    1.000
    C128     C        0.19660    0.50220    0.26550    1.000
    H48      H        0.24610    0.50270    0.27060    1.000
