data_functionalizedCrystal
_audit_creation_method	'EQeq! by Chris Wilmer'
_symmetry_space_group_name_H-M	'P1'
_symmetry_Int_Tables_number	1
_symmetry_cell_setting	triclinic
loop_
_symmetry_equiv_pos_as_xyz
  x,y,z
_cell_length_a	26.001
_cell_length_b	26.001
_cell_length_c	26.001
_cell_angle_alpha	90
_cell_angle_beta	90
_cell_angle_gamma	90
loop_
_atom_site_label
_atom_site_type_symbol
_atom_site_fract_x
_atom_site_fract_y
_atom_site_fract_z
_atom_site_charge
Mof_Cd	Cd	0.875	0.875	0.875	0.508
Mof_Cd	Cd	0.625	0.125	0.375	0.508
Mof_Cd	Cd	0.125	0.375	0.625	0.508
Mof_Cd	Cd	0.375	0.625	0.125	0.508
Mof_Cd	Cd	0.79375	0.79375	0.79375	0.467
Mof_Cd	Cd	0.70625	0.20625	0.29375	0.467
Mof_Cd	Cd	0.20625	0.29375	0.70625	0.467
Mof_Cd	Cd	0.29375	0.70625	0.20625	0.467
Mof_Cd	Cd	0.54375	0.04375	0.45625	0.467
Mof_Cd	Cd	0.95625	0.95625	0.95625	0.467
Mof_Cd	Cd	0.04375	0.45625	0.54375	0.467
Mof_Cd	Cd	0.45625	0.54375	0.04375	0.467
Mof_H 	H 	0.9393	0.7488	0.9397	0.048
Mof_H 	H 	0.9833	0.6147	0.8228	0.062
Mof_H 	H 	0.0059	0.6948	0.954	0.064
Mof_H 	H 	0.9195	0.6757	0.8024	0.05
Mof_H 	H 	0.5607	0.2512	0.4397	0.048
Mof_H 	H 	0.5167	0.3853	0.3228	0.063
Mof_H 	H 	0.4941	0.3052	0.454	0.065
Mof_H 	H 	0.5805	0.3243	0.3024	0.051
Mof_H 	H 	0.0607	0.2488	0.5603	0.049
Mof_H 	H 	0.0167	0.1147	0.6772	0.063
Mof_H 	H 	0.9941	0.1948	0.546	0.065
Mof_H 	H 	0.0805	0.1757	0.6976	0.051
Mof_H 	H 	0.4393	0.7512	0.0603	0.049
Mof_H 	H 	0.4833	0.8853	0.1772	0.063
Mof_H 	H 	0.5059	0.8052	0.046	0.065
Mof_H 	H 	0.4195	0.8243	0.1976	0.051
Mof_H 	H 	0.9397	0.9393	0.7488	0.049
Mof_H 	H 	0.8228	0.9833	0.6147	0.063
Mof_H 	H 	0.954	0.0059	0.6948	0.065
Mof_H 	H 	0.8024	0.9195	0.6757	0.051
Mof_H 	H 	0.4397	0.5607	0.2512	0.049
Mof_H 	H 	0.3228	0.5167	0.3853	0.063
Mof_H 	H 	0.454	0.4941	0.3052	0.065
Mof_H 	H 	0.3024	0.5805	0.3243	0.051
Mof_H 	H 	0.5603	0.0607	0.2488	0.049
Mof_H 	H 	0.6772	0.0167	0.1147	0.063
Mof_H 	H 	0.546	0.9941	0.1948	0.065
Mof_H 	H 	0.6976	0.0805	0.1757	0.051
Mof_H 	H 	0.0603	0.4393	0.7512	0.049
Mof_H 	H 	0.1772	0.4833	0.8853	0.063
Mof_H 	H 	0.046	0.5059	0.8052	0.065
Mof_H 	H 	0.1976	0.4195	0.8243	0.051
Mof_H 	H 	0.7488	0.9397	0.9393	0.049
Mof_H 	H 	0.6147	0.8228	0.9833	0.063
Mof_H 	H 	0.6948	0.954	0.0059	0.065
Mof_H 	H 	0.6757	0.8024	0.9195	0.051
Mof_H 	H 	0.2512	0.4397	0.5607	0.049
Mof_H 	H 	0.3853	0.3228	0.5167	0.063
Mof_H 	H 	0.3052	0.454	0.4941	0.065
Mof_H 	H 	0.3243	0.3024	0.5805	0.051
Mof_H 	H 	0.2488	0.5603	0.0607	0.049
Mof_H 	H 	0.1147	0.6772	0.0167	0.063
Mof_H 	H 	0.1948	0.546	0.9941	0.065
Mof_H 	H 	0.1757	0.6976	0.0805	0.051
Mof_H 	H 	0.7512	0.0603	0.4393	0.049
Mof_H 	H 	0.8853	0.1772	0.4833	0.063
Mof_H 	H 	0.8052	0.046	0.5059	0.065
Mof_H 	H 	0.8243	0.1976	0.4195	0.051
Mof_H 	H 	0.4988	0.1893	0.3103	0.049
Mof_H 	H 	0.3647	0.2333	0.4272	0.063
Mof_H 	H 	0.4448	0.2559	0.296	0.065
Mof_H 	H 	0.4257	0.1695	0.4476	0.051
Mof_H 	H 	0.0012	0.8107	0.8103	0.049
Mof_H 	H 	0.1353	0.7667	0.9272	0.063
Mof_H 	H 	0.0552	0.7441	0.796	0.065
Mof_H 	H 	0.0743	0.8305	0.9476	0.051
Mof_H 	H 	0.9988	0.3107	0.6897	0.049
Mof_H 	H 	0.8647	0.2667	0.5728	0.063
Mof_H 	H 	0.9448	0.2441	0.704	0.065
Mof_H 	H 	0.9257	0.3305	0.5524	0.051
Mof_H 	H 	0.5012	0.6893	0.1897	0.049
Mof_H 	H 	0.6353	0.7333	0.0728	0.063
Mof_H 	H 	0.5552	0.7559	0.204	0.065
Mof_H 	H 	0.5743	0.6695	0.0524	0.051
Mof_H 	H 	0.6893	0.1897	0.5012	0.049
Mof_H 	H 	0.7333	0.0728	0.6353	0.063
Mof_H 	H 	0.7559	0.204	0.5552	0.065
Mof_H 	H 	0.6695	0.0524	0.5743	0.051
Mof_H 	H 	0.3107	0.6897	0.9988	0.049
Mof_H 	H 	0.2667	0.5728	0.8647	0.063
Mof_H 	H 	0.2441	0.704	0.9448	0.065
Mof_H 	H 	0.3305	0.5524	0.9257	0.051
Mof_H 	H 	0.8107	0.8103	0.0012	0.049
Mof_H 	H 	0.7667	0.9272	0.1353	0.063
Mof_H 	H 	0.7441	0.796	0.0552	0.065
Mof_H 	H 	0.8305	0.9476	0.0743	0.051
Mof_H 	H 	0.1893	0.3103	0.4988	0.049
Mof_H 	H 	0.2333	0.4272	0.3647	0.063
Mof_H 	H 	0.2559	0.296	0.4448	0.065
Mof_H 	H 	0.1695	0.4476	0.4257	0.051
Mof_H 	H 	0.6897	0.9988	0.3107	0.049
Mof_H 	H 	0.5728	0.8647	0.2667	0.063
Mof_H 	H 	0.704	0.9448	0.2441	0.065
Mof_H 	H 	0.5524	0.9257	0.3305	0.051
Mof_H 	H 	0.1897	0.5012	0.6893	0.049
Mof_H 	H 	0.0728	0.6353	0.7333	0.063
Mof_H 	H 	0.204	0.5552	0.7559	0.065
Mof_H 	H 	0.0524	0.5743	0.6695	0.051
Mof_H 	H 	0.3103	0.4988	0.1893	0.049
Mof_H 	H 	0.4272	0.3647	0.2333	0.063
Mof_H 	H 	0.296	0.4448	0.2559	0.065
Mof_H 	H 	0.4476	0.4257	0.1695	0.051
Mof_H 	H 	0.8103	0.0012	0.8107	0.049
Mof_H 	H 	0.9272	0.1353	0.7667	0.063
Mof_H 	H 	0.796	0.0552	0.7441	0.065
Mof_H 	H 	0.9476	0.0743	0.8305	0.051
Mof_C 	C 	0.046	0.6153	0.902	0.126
Mof_C 	C 	0.9492	0.7239	0.916	0.005
Mof_C 	C 	0.9763	0.6419	0.8449	-0.06
Mof_C 	C 	0.9874	0.6906	0.9237	-0.061
Mof_C 	C 	0.0038	0.6485	0.8905	0.005
Mof_C 	C 	0.9256	0.7171	0.8679	-0.068
Mof_C 	C 	0.8795	0.7494	0.8454	0.367
Mof_C 	C 	0.9373	0.678	0.8333	-0.01
Mof_C 	C 	0.454	0.3847	0.402	0.126
Mof_C 	C 	0.5508	0.2761	0.416	0.005
Mof_C 	C 	0.5237	0.3581	0.3449	-0.06
Mof_C 	C 	0.5126	0.3094	0.4237	-0.061
Mof_C 	C 	0.4962	0.3515	0.3905	0.006
Mof_C 	C 	0.5744	0.2829	0.3679	-0.069
Mof_C 	C 	0.6205	0.2506	0.3454	0.368
Mof_C 	C 	0.5627	0.322	0.3333	-0.01
Mof_C 	C 	0.954	0.1153	0.598	0.126
Mof_C 	C 	0.0508	0.2239	0.584	0.005
Mof_C 	C 	0.0237	0.1419	0.6551	-0.06
Mof_C 	C 	0.0126	0.1906	0.5763	-0.061
Mof_C 	C 	0.9962	0.1485	0.6095	0.006
Mof_C 	C 	0.0744	0.2171	0.6321	-0.068
Mof_C 	C 	0.1205	0.2494	0.6546	0.368
Mof_C 	C 	0.0627	0.178	0.6667	-0.01
Mof_C 	C 	0.546	0.8847	0.098	0.126
Mof_C 	C 	0.4492	0.7761	0.084	0.005
Mof_C 	C 	0.4763	0.8581	0.1551	-0.06
Mof_C 	C 	0.4874	0.8094	0.0763	-0.061
Mof_C 	C 	0.5038	0.8515	0.1095	0.006
Mof_C 	C 	0.4256	0.7829	0.1321	-0.069
Mof_C 	C 	0.3795	0.7506	0.1546	0.368
Mof_C 	C 	0.4373	0.822	0.1667	-0.01
Mof_C 	C 	0.902	0.046	0.6153	0.126
Mof_C 	C 	0.916	0.9492	0.7239	0.005
Mof_C 	C 	0.8449	0.9763	0.6419	-0.06
Mof_C 	C 	0.9237	0.9874	0.6906	-0.061
Mof_C 	C 	0.8905	0.0038	0.6485	0.005
Mof_C 	C 	0.8679	0.9256	0.7171	-0.068
Mof_C 	C 	0.8454	0.8795	0.7494	0.367
Mof_C 	C 	0.8333	0.9373	0.678	-0.01
Mof_C 	C 	0.402	0.454	0.3847	0.126
Mof_C 	C 	0.416	0.5508	0.2761	0.005
Mof_C 	C 	0.3449	0.5237	0.3581	-0.06
Mof_C 	C 	0.4237	0.5126	0.3094	-0.061
Mof_C 	C 	0.3905	0.4962	0.3515	0.006
Mof_C 	C 	0.3679	0.5744	0.2829	-0.069
Mof_C 	C 	0.3454	0.6205	0.2506	0.368
Mof_C 	C 	0.3333	0.5627	0.322	-0.01
Mof_C 	C 	0.598	0.954	0.1153	0.126
Mof_C 	C 	0.584	0.0508	0.2239	0.005
Mof_C 	C 	0.6551	0.0237	0.1419	-0.06
Mof_C 	C 	0.5763	0.0126	0.1906	-0.061
Mof_C 	C 	0.6095	0.9962	0.1485	0.006
Mof_C 	C 	0.6321	0.0744	0.2171	-0.068
Mof_C 	C 	0.6546	0.1205	0.2494	0.368
Mof_C 	C 	0.6667	0.0627	0.178	-0.01
Mof_C 	C 	0.098	0.546	0.8847	0.126
Mof_C 	C 	0.084	0.4492	0.7761	0.005
Mof_C 	C 	0.1551	0.4763	0.8581	-0.06
Mof_C 	C 	0.0763	0.4874	0.8094	-0.061
Mof_C 	C 	0.1095	0.5038	0.8515	0.006
Mof_C 	C 	0.1321	0.4256	0.7829	-0.069
Mof_C 	C 	0.1546	0.3795	0.7506	0.368
Mof_C 	C 	0.1667	0.4373	0.822	-0.01
Mof_C 	C 	0.6153	0.902	0.046	0.126
Mof_C 	C 	0.7239	0.916	0.9492	0.005
Mof_C 	C 	0.6419	0.8449	0.9763	-0.06
Mof_C 	C 	0.6906	0.9237	0.9874	-0.061
Mof_C 	C 	0.6485	0.8905	0.0038	0.005
Mof_C 	C 	0.7171	0.8679	0.9256	-0.068
Mof_C 	C 	0.7494	0.8454	0.8795	0.367
Mof_C 	C 	0.678	0.8333	0.9373	-0.01
Mof_C 	C 	0.3847	0.402	0.454	0.126
Mof_C 	C 	0.2761	0.416	0.5508	0.005
Mof_C 	C 	0.3581	0.3449	0.5237	-0.06
Mof_C 	C 	0.3094	0.4237	0.5126	-0.061
Mof_C 	C 	0.3515	0.3905	0.4962	0.006
Mof_C 	C 	0.2829	0.3679	0.5744	-0.069
Mof_C 	C 	0.2506	0.3454	0.6205	0.368
Mof_C 	C 	0.322	0.3333	0.5627	-0.01
Mof_C 	C 	0.1153	0.598	0.954	0.126
Mof_C 	C 	0.2239	0.584	0.0508	0.005
Mof_C 	C 	0.1419	0.6551	0.0237	-0.06
Mof_C 	C 	0.1906	0.5763	0.0126	-0.061
Mof_C 	C 	0.1485	0.6095	0.9962	0.006
Mof_C 	C 	0.2171	0.6321	0.0744	-0.068
Mof_C 	C 	0.2494	0.6546	0.1205	0.368
Mof_C 	C 	0.178	0.6667	0.0627	-0.01
Mof_C 	C 	0.8847	0.098	0.546	0.126
Mof_C 	C 	0.7761	0.084	0.4492	0.005
Mof_C 	C 	0.8581	0.1551	0.4763	-0.06
Mof_C 	C 	0.8094	0.0763	0.4874	-0.061
Mof_C 	C 	0.8515	0.1095	0.5038	0.006
Mof_C 	C 	0.7829	0.1321	0.4256	-0.069
Mof_C 	C 	0.7506	0.1546	0.3795	0.368
Mof_C 	C 	0.822	0.1667	0.4373	-0.01
Mof_C 	C 	0.3653	0.296	0.348	0.126
Mof_C 	C 	0.4739	0.1992	0.334	0.005
Mof_C 	C 	0.3919	0.2263	0.4051	-0.06
Mof_C 	C 	0.4406	0.2374	0.3263	-0.061
Mof_C 	C 	0.3985	0.2538	0.3595	0.006
Mof_C 	C 	0.4671	0.1756	0.3821	-0.069
Mof_C 	C 	0.4994	0.1295	0.4046	0.368
Mof_C 	C 	0.428	0.1873	0.4167	-0.01
Mof_C 	C 	0.1347	0.704	0.848	0.126
Mof_C 	C 	0.0261	0.8008	0.834	0.005
Mof_C 	C 	0.1081	0.7737	0.9051	-0.06
Mof_C 	C 	0.0594	0.7626	0.8263	-0.061
Mof_C 	C 	0.1015	0.7462	0.8595	0.006
Mof_C 	C 	0.0329	0.8244	0.8821	-0.069
Mof_C 	C 	0.0006	0.8705	0.9046	0.367
Mof_C 	C 	0.072	0.8127	0.9167	-0.01
Mof_C 	C 	0.8653	0.204	0.652	0.126
Mof_C 	C 	0.9739	0.3008	0.666	0.005
Mof_C 	C 	0.8919	0.2737	0.5949	-0.06
Mof_C 	C 	0.9406	0.2626	0.6737	-0.061
Mof_C 	C 	0.8985	0.2462	0.6405	0.006
Mof_C 	C 	0.9671	0.3244	0.6179	-0.069
Mof_C 	C 	0.9994	0.3705	0.5954	0.368
Mof_C 	C 	0.928	0.3127	0.5833	-0.01
Mof_C 	C 	0.6347	0.796	0.152	0.126
Mof_C 	C 	0.5261	0.6992	0.166	0.005
Mof_C 	C 	0.6081	0.7263	0.0949	-0.06
Mof_C 	C 	0.5594	0.7374	0.1737	-0.061
Mof_C 	C 	0.6015	0.7538	0.1405	0.006
Mof_C 	C 	0.5329	0.6756	0.1179	-0.069
Mof_C 	C 	0.5006	0.6295	0.0954	0.368
Mof_C 	C 	0.572	0.6873	0.0833	-0.01
Mof_C 	C 	0.796	0.152	0.6347	0.126
Mof_C 	C 	0.6992	0.166	0.5261	0.005
Mof_C 	C 	0.7263	0.0949	0.6081	-0.06
Mof_C 	C 	0.7374	0.1737	0.5594	-0.061
Mof_C 	C 	0.7538	0.1405	0.6015	0.006
Mof_C 	C 	0.6756	0.1179	0.5329	-0.069
Mof_C 	C 	0.6295	0.0954	0.5006	0.368
Mof_C 	C 	0.6873	0.0833	0.572	-0.01
Mof_C 	C 	0.204	0.652	0.8653	0.126
Mof_C 	C 	0.3008	0.666	0.9739	0.005
Mof_C 	C 	0.2737	0.5949	0.8919	-0.06
Mof_C 	C 	0.2626	0.6737	0.9406	-0.061
Mof_C 	C 	0.2462	0.6405	0.8985	0.006
Mof_C 	C 	0.3244	0.6179	0.9671	-0.069
Mof_C 	C 	0.3705	0.5954	0.9994	0.368
Mof_C 	C 	0.3127	0.5833	0.928	-0.01
Mof_C 	C 	0.704	0.848	0.1347	0.126
Mof_C 	C 	0.8008	0.834	0.0261	0.005
Mof_C 	C 	0.7737	0.9051	0.1081	-0.06
Mof_C 	C 	0.7626	0.8263	0.0594	-0.061
Mof_C 	C 	0.7462	0.8595	0.1015	0.006
Mof_C 	C 	0.8244	0.8821	0.0329	-0.069
Mof_C 	C 	0.8705	0.9046	0.0006	0.367
Mof_C 	C 	0.8127	0.9167	0.072	-0.01
Mof_C 	C 	0.296	0.348	0.3653	0.126
Mof_C 	C 	0.1992	0.334	0.4739	0.005
Mof_C 	C 	0.2263	0.4051	0.3919	-0.06
Mof_C 	C 	0.2374	0.3263	0.4406	-0.061
Mof_C 	C 	0.2538	0.3595	0.3985	0.006
Mof_C 	C 	0.1756	0.3821	0.4671	-0.069
Mof_C 	C 	0.1295	0.4046	0.4994	0.368
Mof_C 	C 	0.1873	0.4167	0.428	-0.01
Mof_C 	C 	0.652	0.8653	0.204	0.126
Mof_C 	C 	0.666	0.9739	0.3008	0.005
Mof_C 	C 	0.5949	0.8919	0.2737	-0.06
Mof_C 	C 	0.6737	0.9406	0.2626	-0.061
Mof_C 	C 	0.6405	0.8985	0.2462	0.006
Mof_C 	C 	0.6179	0.9671	0.3244	-0.069
Mof_C 	C 	0.5954	0.9994	0.3705	0.368
Mof_C 	C 	0.5833	0.928	0.3127	-0.01
Mof_C 	C 	0.152	0.6347	0.796	0.126
Mof_C 	C 	0.166	0.5261	0.6992	0.005
Mof_C 	C 	0.0949	0.6081	0.7263	-0.06
Mof_C 	C 	0.1737	0.5594	0.7374	-0.061
Mof_C 	C 	0.1405	0.6015	0.7538	0.006
Mof_C 	C 	0.1179	0.5329	0.6756	-0.069
Mof_C 	C 	0.0954	0.5006	0.6295	0.368
Mof_C 	C 	0.0833	0.572	0.6873	-0.01
Mof_C 	C 	0.348	0.3653	0.296	0.126
Mof_C 	C 	0.334	0.4739	0.1992	0.005
Mof_C 	C 	0.4051	0.3919	0.2263	-0.06
Mof_C 	C 	0.3263	0.4406	0.2374	-0.061
Mof_C 	C 	0.3595	0.3985	0.2538	0.006
Mof_C 	C 	0.3821	0.4671	0.1756	-0.069
Mof_C 	C 	0.4046	0.4994	0.1295	0.368
Mof_C 	C 	0.4167	0.428	0.1873	-0.01
Mof_C 	C 	0.848	0.1347	0.704	0.126
Mof_C 	C 	0.834	0.0261	0.8008	0.005
Mof_C 	C 	0.9051	0.1081	0.7737	-0.06
Mof_C 	C 	0.8263	0.0594	0.7626	-0.061
Mof_C 	C 	0.8595	0.1015	0.7462	0.006
Mof_C 	C 	0.8821	0.0329	0.8244	-0.069
Mof_C 	C 	0.9046	0.0006	0.8705	0.367
Mof_C 	C 	0.9167	0.072	0.8127	-0.01
Mof_N 	N 	0.057	0.5742	0.8733	-0.145
Mof_N 	N 	0.443	0.4258	0.3733	-0.145
Mof_N 	N 	0.943	0.0742	0.6267	-0.145
Mof_N 	N 	0.557	0.9258	0.1267	-0.145
Mof_N 	N 	0.8733	0.057	0.5742	-0.145
Mof_N 	N 	0.3733	0.443	0.4258	-0.145
Mof_N 	N 	0.6267	0.943	0.0742	-0.145
Mof_N 	N 	0.1267	0.557	0.9258	-0.145
Mof_N 	N 	0.5742	0.8733	0.057	-0.145
Mof_N 	N 	0.4258	0.3733	0.443	-0.145
Mof_N 	N 	0.0742	0.6267	0.943	-0.145
Mof_N 	N 	0.9258	0.1267	0.557	-0.145
Mof_N 	N 	0.3242	0.307	0.3767	-0.145
Mof_N 	N 	0.1758	0.693	0.8767	-0.145
Mof_N 	N 	0.8242	0.193	0.6233	-0.145
Mof_N 	N 	0.6758	0.807	0.1233	-0.145
Mof_N 	N 	0.807	0.1233	0.6758	-0.145
Mof_N 	N 	0.193	0.6233	0.8242	-0.145
Mof_N 	N 	0.693	0.8767	0.1758	-0.145
Mof_N 	N 	0.307	0.3767	0.3242	-0.145
Mof_N 	N 	0.6233	0.8242	0.193	-0.145
Mof_N 	N 	0.1233	0.6758	0.807	-0.145
Mof_N 	N 	0.3767	0.3242	0.307	-0.145
Mof_N 	N 	0.8767	0.1758	0.693	-0.145
Mof_O 	O 	0.8528	0.74	0.8106	-0.333
Mof_O 	O 	0.8723	0.7858	0.8756	-0.295
Mof_O 	O 	0.6472	0.26	0.3106	-0.333
Mof_O 	O 	0.6277	0.2142	0.3756	-0.295
Mof_O 	O 	0.1472	0.24	0.6894	-0.333
Mof_O 	O 	0.1277	0.2858	0.6244	-0.295
Mof_O 	O 	0.3528	0.76	0.1894	-0.333
Mof_O 	O 	0.3723	0.7142	0.1244	-0.295
Mof_O 	O 	0.8106	0.8528	0.74	-0.333
Mof_O 	O 	0.8756	0.8723	0.7858	-0.295
Mof_O 	O 	0.3106	0.6472	0.26	-0.333
Mof_O 	O 	0.3756	0.6277	0.2142	-0.295
Mof_O 	O 	0.6894	0.1472	0.24	-0.333
Mof_O 	O 	0.6244	0.1277	0.2858	-0.295
Mof_O 	O 	0.1894	0.3528	0.76	-0.333
Mof_O 	O 	0.1244	0.3723	0.7142	-0.295
Mof_O 	O 	0.74	0.8106	0.8528	-0.333
Mof_O 	O 	0.7858	0.8756	0.8723	-0.295
Mof_O 	O 	0.26	0.3106	0.6472	-0.333
Mof_O 	O 	0.2142	0.3756	0.6277	-0.295
Mof_O 	O 	0.24	0.6894	0.1472	-0.333
Mof_O 	O 	0.2858	0.6244	0.1277	-0.295
Mof_O 	O 	0.76	0.1894	0.3528	-0.333
Mof_O 	O 	0.7142	0.1244	0.3723	-0.295
Mof_O 	O 	0.49	0.1028	0.4394	-0.333
Mof_O 	O 	0.5358	0.1223	0.3744	-0.295
Mof_O 	O 	0.01	0.8972	0.9394	-0.333
Mof_O 	O 	0.9642	0.8777	0.8744	-0.295
Mof_O 	O 	0.99	0.3972	0.5606	-0.333
Mof_O 	O 	0.0358	0.3777	0.6256	-0.295
Mof_O 	O 	0.51	0.6028	0.0606	-0.333
Mof_O 	O 	0.4642	0.6223	0.1256	-0.295
Mof_O 	O 	0.6028	0.0606	0.51	-0.333
Mof_O 	O 	0.6223	0.1256	0.4642	-0.295
Mof_O 	O 	0.3972	0.5606	0.99	-0.333
Mof_O 	O 	0.3777	0.6256	0.0358	-0.295
Mof_O 	O 	0.8972	0.9394	0.01	-0.333
Mof_O 	O 	0.8777	0.8744	0.9642	-0.295
Mof_O 	O 	0.1028	0.4394	0.49	-0.333
Mof_O 	O 	0.1223	0.3744	0.5358	-0.295
Mof_O 	O 	0.5606	0.99	0.3972	-0.333
Mof_O 	O 	0.6256	0.0358	0.3777	-0.295
Mof_O 	O 	0.0606	0.51	0.6028	-0.333
Mof_O 	O 	0.1256	0.4642	0.6223	-0.295
Mof_O 	O 	0.4394	0.49	0.1028	-0.333
Mof_O 	O 	0.3744	0.5358	0.1223	-0.295
Mof_O 	O 	0.9394	0.01	0.8972	-0.333
Mof_O 	O 	0.8744	0.9642	0.8777	-0.295
_end
