data_functionalizedCrystal
_audit_creation_method	'EQeq! by Chris Wilmer'
_symmetry_space_group_name_H-M	'P1'
_symmetry_Int_Tables_number	1
_symmetry_cell_setting	triclinic
loop_
_symmetry_equiv_pos_as_xyz
  x,y,z
_cell_length_a	25.6415
_cell_length_b	25.6415
_cell_length_c	25.6415
_cell_angle_alpha	90
_cell_angle_beta	90
_cell_angle_gamma	90
loop_
_atom_site_label
_atom_site_type_symbol
_atom_site_fract_x
_atom_site_fract_y
_atom_site_fract_z
_atom_site_charge
Mof_Zn	Zn	0.625	0.375	0.875	1.247
Mof_Zn	Zn	0.875	0.625	0.375	1.247
Mof_Zn	Zn	0.375	0.875	0.625	1.247
Mof_Zn	Zn	0.125	0.125	0.125	1.247
Mof_Zn	Zn	0.54498	0.45502	0.95502	1.199
Mof_Zn	Zn	0.95502	0.54498	0.45502	1.2
Mof_Zn	Zn	0.45502	0.95502	0.54498	1.2
Mof_Zn	Zn	0.04498	0.04498	0.04498	1.199
Mof_Zn	Zn	0.70502	0.29498	0.79498	1.2
Mof_Zn	Zn	0.79498	0.70502	0.29498	1.2
Mof_Zn	Zn	0.20502	0.20502	0.20502	1.2
Mof_Zn	Zn	0.29498	0.79498	0.70502	1.2
Mof_H 	H 	0.7335	0.4277	0.134	0.075
Mof_H 	H 	0.667	0.4507	0.0764	0.018
Mof_H 	H 	0.6877	0.3165	0.0005	0.024
Mof_H 	H 	0.7552	0.2941	0.0561	0.077
Mof_H 	H 	0.7665	0.5723	0.634	0.075
Mof_H 	H 	0.833	0.5493	0.5764	0.017
Mof_H 	H 	0.8123	0.6835	0.5005	0.024
Mof_H 	H 	0.7448	0.7059	0.5561	0.077
Mof_H 	H 	0.2665	0.9277	0.366	0.075
Mof_H 	H 	0.333	0.9507	0.4236	0.017
Mof_H 	H 	0.3123	0.8165	0.4995	0.024
Mof_H 	H 	0.2448	0.7941	0.4439	0.077
Mof_H 	H 	0.2335	0.0723	0.866	0.075
Mof_H 	H 	0.167	0.0493	0.9236	0.018
Mof_H 	H 	0.1877	0.1835	0.9995	0.025
Mof_H 	H 	0.2552	0.2059	0.9439	0.077
Mof_H 	H 	0.134	0.7335	0.4277	0.075
Mof_H 	H 	0.0764	0.667	0.4507	0.018
Mof_H 	H 	0.0005	0.6877	0.3165	0.024
Mof_H 	H 	0.0561	0.7552	0.2941	0.077
Mof_H 	H 	0.634	0.7665	0.5723	0.075
Mof_H 	H 	0.5764	0.833	0.5493	0.017
Mof_H 	H 	0.5005	0.8123	0.6835	0.024
Mof_H 	H 	0.5561	0.7448	0.7059	0.077
Mof_H 	H 	0.366	0.2665	0.9277	0.075
Mof_H 	H 	0.4236	0.333	0.9507	0.017
Mof_H 	H 	0.4995	0.3123	0.8165	0.024
Mof_H 	H 	0.4439	0.2448	0.7941	0.077
Mof_H 	H 	0.866	0.2335	0.0723	0.075
Mof_H 	H 	0.9236	0.167	0.0493	0.018
Mof_H 	H 	0.9995	0.1877	0.1835	0.025
Mof_H 	H 	0.9439	0.2552	0.2059	0.077
Mof_H 	H 	0.4277	0.134	0.7335	0.075
Mof_H 	H 	0.4507	0.0764	0.667	0.018
Mof_H 	H 	0.3165	0.0005	0.6877	0.024
Mof_H 	H 	0.2941	0.0561	0.7552	0.077
Mof_H 	H 	0.5723	0.634	0.7665	0.075
Mof_H 	H 	0.5493	0.5764	0.833	0.017
Mof_H 	H 	0.6835	0.5005	0.8123	0.024
Mof_H 	H 	0.7059	0.5561	0.7448	0.077
Mof_H 	H 	0.9277	0.366	0.2665	0.075
Mof_H 	H 	0.9507	0.4236	0.333	0.017
Mof_H 	H 	0.8165	0.4995	0.3123	0.024
Mof_H 	H 	0.7941	0.4439	0.2448	0.077
Mof_H 	H 	0.0723	0.866	0.2335	0.075
Mof_H 	H 	0.0493	0.9236	0.167	0.018
Mof_H 	H 	0.1835	0.9995	0.1877	0.025
Mof_H 	H 	0.2059	0.9439	0.2552	0.077
Mof_H 	H 	0.6777	0.4835	0.616	0.075
Mof_H 	H 	0.7007	0.417	0.6736	0.017
Mof_H 	H 	0.5665	0.4377	0.7495	0.024
Mof_H 	H 	0.5441	0.5052	0.6939	0.077
Mof_H 	H 	0.8223	0.5165	0.116	0.075
Mof_H 	H 	0.7993	0.583	0.1736	0.017
Mof_H 	H 	0.9335	0.5623	0.2495	0.024
Mof_H 	H 	0.9559	0.4948	0.1939	0.077
Mof_H 	H 	0.1777	0.0165	0.384	0.076
Mof_H 	H 	0.2007	0.083	0.3264	0.017
Mof_H 	H 	0.0665	0.0623	0.2505	0.023
Mof_H 	H 	0.0441	0.9948	0.3061	0.079
Mof_H 	H 	0.3223	0.9835	0.884	0.076
Mof_H 	H 	0.2993	0.917	0.8264	0.017
Mof_H 	H 	0.4335	0.9377	0.7505	0.023
Mof_H 	H 	0.4559	0.0052	0.8061	0.079
Mof_H 	H 	0.9835	0.884	0.3223	0.076
Mof_H 	H 	0.917	0.8264	0.2993	0.017
Mof_H 	H 	0.9377	0.7505	0.4335	0.023
Mof_H 	H 	0.0052	0.8061	0.4559	0.079
Mof_H 	H 	0.0165	0.384	0.1777	0.076
Mof_H 	H 	0.083	0.3264	0.2007	0.017
Mof_H 	H 	0.0623	0.2505	0.0665	0.023
Mof_H 	H 	0.9948	0.3061	0.0441	0.079
Mof_H 	H 	0.5165	0.116	0.8223	0.075
Mof_H 	H 	0.583	0.1736	0.7993	0.017
Mof_H 	H 	0.5623	0.2495	0.9335	0.024
Mof_H 	H 	0.4948	0.1939	0.9559	0.077
Mof_H 	H 	0.4835	0.616	0.6777	0.075
Mof_H 	H 	0.417	0.6736	0.7007	0.017
Mof_H 	H 	0.4377	0.7495	0.5665	0.024
Mof_H 	H 	0.5052	0.6939	0.5441	0.077
Mof_H 	H 	0.384	0.1777	0.0165	0.076
Mof_H 	H 	0.3264	0.2007	0.083	0.017
Mof_H 	H 	0.2505	0.0665	0.0623	0.023
Mof_H 	H 	0.3061	0.0441	0.9948	0.079
Mof_H 	H 	0.884	0.3223	0.9835	0.076
Mof_H 	H 	0.8264	0.2993	0.917	0.017
Mof_H 	H 	0.7505	0.4335	0.9377	0.023
Mof_H 	H 	0.8061	0.4559	0.0052	0.079
Mof_H 	H 	0.616	0.6777	0.4835	0.075
Mof_H 	H 	0.6736	0.7007	0.417	0.017
Mof_H 	H 	0.7495	0.5665	0.4377	0.024
Mof_H 	H 	0.6939	0.5441	0.5052	0.077
Mof_H 	H 	0.116	0.8223	0.5165	0.075
Mof_H 	H 	0.1736	0.7993	0.583	0.017
Mof_H 	H 	0.2495	0.9335	0.5623	0.024
Mof_H 	H 	0.1939	0.9559	0.4948	0.077
Mof_C 	C 	0.75296	0.36005	0.09903	0.048
Mof_C 	C 	0.72516	0.40553	0.10601	-0.114
Mof_C 	C 	0.68496	0.419	0.07222	0.056
Mof_C 	C 	0.67187	0.38529	0.03242	-0.146
Mof_C 	C 	0.69756	0.33968	0.0272	0.062
Mof_C 	C 	0.73799	0.32621	0.06017	-0.114
Mof_C 	C 	0.79623	0.34754	0.13387	0.103
Mof_C 	C 	0.62906	0.39979	0.99458	0.415
Mof_C 	C 	0.74704	0.63995	0.59903	0.049
Mof_C 	C 	0.77484	0.59447	0.60601	-0.114
Mof_C 	C 	0.81504	0.581	0.57222	0.056
Mof_C 	C 	0.82813	0.61471	0.53242	-0.147
Mof_C 	C 	0.80244	0.66032	0.5272	0.063
Mof_C 	C 	0.76201	0.67379	0.56017	-0.114
Mof_C 	C 	0.70377	0.65246	0.63387	0.103
Mof_C 	C 	0.87094	0.60021	0.49458	0.416
Mof_C 	C 	0.24704	0.86005	0.40097	0.049
Mof_C 	C 	0.27484	0.90553	0.39399	-0.114
Mof_C 	C 	0.31504	0.919	0.42778	0.056
Mof_C 	C 	0.32813	0.88529	0.46758	-0.147
Mof_C 	C 	0.30244	0.83968	0.4728	0.063
Mof_C 	C 	0.26201	0.82621	0.43983	-0.114
Mof_C 	C 	0.20377	0.84754	0.36613	0.103
Mof_C 	C 	0.37094	0.89979	0.50542	0.416
Mof_C 	C 	0.25296	0.13995	0.90097	0.048
Mof_C 	C 	0.22516	0.09447	0.89399	-0.113
Mof_C 	C 	0.18496	0.081	0.92778	0.055
Mof_C 	C 	0.17187	0.11471	0.96758	-0.145
Mof_C 	C 	0.19756	0.16032	0.9728	0.062
Mof_C 	C 	0.23799	0.17379	0.93983	-0.113
Mof_C 	C 	0.29623	0.15246	0.86613	0.103
Mof_C 	C 	0.12906	0.10021	0.00542	0.414
Mof_C 	C 	0.09903	0.75296	0.36005	0.048
Mof_C 	C 	0.10601	0.72516	0.40553	-0.114
Mof_C 	C 	0.07222	0.68496	0.419	0.056
Mof_C 	C 	0.03242	0.67187	0.38529	-0.146
Mof_C 	C 	0.0272	0.69756	0.33968	0.062
Mof_C 	C 	0.06017	0.73799	0.32621	-0.114
Mof_C 	C 	0.13387	0.79623	0.34754	0.103
Mof_C 	C 	0.99458	0.62906	0.39979	0.415
Mof_C 	C 	0.59903	0.74704	0.63995	0.049
Mof_C 	C 	0.60601	0.77484	0.59447	-0.114
Mof_C 	C 	0.57222	0.81504	0.581	0.056
Mof_C 	C 	0.53242	0.82813	0.61471	-0.147
Mof_C 	C 	0.5272	0.80244	0.66032	0.063
Mof_C 	C 	0.56017	0.76201	0.67379	-0.114
Mof_C 	C 	0.63387	0.70377	0.65246	0.103
Mof_C 	C 	0.49458	0.87094	0.60021	0.416
Mof_C 	C 	0.40097	0.24704	0.86005	0.049
Mof_C 	C 	0.39399	0.27484	0.90553	-0.114
Mof_C 	C 	0.42778	0.31504	0.919	0.056
Mof_C 	C 	0.46758	0.32813	0.88529	-0.147
Mof_C 	C 	0.4728	0.30244	0.83968	0.063
Mof_C 	C 	0.43983	0.26201	0.82621	-0.114
Mof_C 	C 	0.36613	0.20377	0.84754	0.103
Mof_C 	C 	0.50542	0.37094	0.89979	0.416
Mof_C 	C 	0.90097	0.25296	0.13995	0.048
Mof_C 	C 	0.89399	0.22516	0.09447	-0.113
Mof_C 	C 	0.92778	0.18496	0.081	0.055
Mof_C 	C 	0.96758	0.17187	0.11471	-0.145
Mof_C 	C 	0.9728	0.19756	0.16032	0.062
Mof_C 	C 	0.93983	0.23799	0.17379	-0.113
Mof_C 	C 	0.86613	0.29623	0.15246	0.103
Mof_C 	C 	0.00542	0.12906	0.10021	0.414
Mof_C 	C 	0.36005	0.09903	0.75296	0.048
Mof_C 	C 	0.40553	0.10601	0.72516	-0.114
Mof_C 	C 	0.419	0.07222	0.68496	0.056
Mof_C 	C 	0.38529	0.03242	0.67187	-0.146
Mof_C 	C 	0.33968	0.0272	0.69756	0.062
Mof_C 	C 	0.32621	0.06017	0.73799	-0.114
Mof_C 	C 	0.34754	0.13387	0.79623	0.103
Mof_C 	C 	0.39979	0.99458	0.62906	0.415
Mof_C 	C 	0.63995	0.59903	0.74704	0.049
Mof_C 	C 	0.59447	0.60601	0.77484	-0.114
Mof_C 	C 	0.581	0.57222	0.81504	0.056
Mof_C 	C 	0.61471	0.53242	0.82813	-0.147
Mof_C 	C 	0.66032	0.5272	0.80244	0.063
Mof_C 	C 	0.67379	0.56017	0.76201	-0.114
Mof_C 	C 	0.65246	0.63387	0.70377	0.103
Mof_C 	C 	0.60021	0.49458	0.87094	0.416
Mof_C 	C 	0.86005	0.40097	0.24704	0.049
Mof_C 	C 	0.90553	0.39399	0.27484	-0.114
Mof_C 	C 	0.919	0.42778	0.31504	0.056
Mof_C 	C 	0.88529	0.46758	0.32813	-0.147
Mof_C 	C 	0.83968	0.4728	0.30244	0.063
Mof_C 	C 	0.82621	0.43983	0.26201	-0.114
Mof_C 	C 	0.84754	0.36613	0.20377	0.103
Mof_C 	C 	0.89979	0.50542	0.37094	0.416
Mof_C 	C 	0.13995	0.90097	0.25296	0.048
Mof_C 	C 	0.09447	0.89399	0.22516	-0.113
Mof_C 	C 	0.081	0.92778	0.18496	0.055
Mof_C 	C 	0.11471	0.96758	0.17187	-0.145
Mof_C 	C 	0.16032	0.9728	0.19756	0.062
Mof_C 	C 	0.17379	0.93983	0.23799	-0.113
Mof_C 	C 	0.15246	0.86613	0.29623	0.103
Mof_C 	C 	0.10021	0.00542	0.12906	0.414
Mof_C 	C 	0.61005	0.50296	0.65097	0.049
Mof_C 	C 	0.65553	0.47516	0.64399	-0.114
Mof_C 	C 	0.669	0.43496	0.67778	0.056
Mof_C 	C 	0.63529	0.42187	0.71758	-0.147
Mof_C 	C 	0.58968	0.44756	0.7228	0.063
Mof_C 	C 	0.57621	0.48799	0.68983	-0.114
Mof_C 	C 	0.59754	0.54623	0.61613	0.103
Mof_C 	C 	0.64979	0.37906	0.75542	0.416
Mof_C 	C 	0.88995	0.49704	0.15097	0.049
Mof_C 	C 	0.84447	0.52484	0.14399	-0.114
Mof_C 	C 	0.831	0.56504	0.17778	0.056
Mof_C 	C 	0.86471	0.57813	0.21758	-0.147
Mof_C 	C 	0.91032	0.55244	0.2228	0.063
Mof_C 	C 	0.92379	0.51201	0.18983	-0.114
Mof_C 	C 	0.90246	0.45377	0.11613	0.103
Mof_C 	C 	0.85021	0.62094	0.25542	0.416
Mof_C 	C 	0.11005	0.99704	0.34903	0.051
Mof_C 	C 	0.15553	0.02484	0.35601	-0.116
Mof_C 	C 	0.169	0.06504	0.32222	0.058
Mof_C 	C 	0.13529	0.07813	0.28242	-0.148
Mof_C 	C 	0.08968	0.05244	0.2772	0.065
Mof_C 	C 	0.07621	0.01201	0.31017	-0.118
Mof_C 	C 	0.09754	0.95377	0.38387	0.102
Mof_C 	C 	0.14979	0.12094	0.24458	0.416
Mof_C 	C 	0.38995	0.00296	0.84903	0.052
Mof_C 	C 	0.34447	0.97516	0.85601	-0.117
Mof_C 	C 	0.331	0.93496	0.82222	0.058
Mof_C 	C 	0.36471	0.92187	0.78242	-0.149
Mof_C 	C 	0.41032	0.94756	0.7772	0.066
Mof_C 	C 	0.42379	0.98799	0.81017	-0.119
Mof_C 	C 	0.40246	0.04623	0.88387	0.102
Mof_C 	C 	0.35021	0.87906	0.74458	0.417
Mof_C 	C 	0.00296	0.84903	0.38995	0.052
Mof_C 	C 	0.97516	0.85601	0.34447	-0.117
Mof_C 	C 	0.93496	0.82222	0.331	0.058
Mof_C 	C 	0.92187	0.78242	0.36471	-0.149
Mof_C 	C 	0.94756	0.7772	0.41032	0.066
Mof_C 	C 	0.98799	0.81017	0.42379	-0.119
Mof_C 	C 	0.04623	0.88387	0.40246	0.102
Mof_C 	C 	0.87906	0.74458	0.35021	0.417
Mof_C 	C 	0.99704	0.34903	0.11005	0.051
Mof_C 	C 	0.02484	0.35601	0.15553	-0.116
Mof_C 	C 	0.06504	0.32222	0.169	0.058
Mof_C 	C 	0.07813	0.28242	0.13529	-0.148
Mof_C 	C 	0.05244	0.2772	0.08968	0.065
Mof_C 	C 	0.01201	0.31017	0.07621	-0.118
Mof_C 	C 	0.95377	0.38387	0.09754	0.102
Mof_C 	C 	0.12094	0.24458	0.14979	0.416
Mof_C 	C 	0.49704	0.15097	0.88995	0.049
Mof_C 	C 	0.52484	0.14399	0.84447	-0.114
Mof_C 	C 	0.56504	0.17778	0.831	0.056
Mof_C 	C 	0.57813	0.21758	0.86471	-0.147
Mof_C 	C 	0.55244	0.2228	0.91032	0.063
Mof_C 	C 	0.51201	0.18983	0.92379	-0.114
Mof_C 	C 	0.45377	0.11613	0.90246	0.103
Mof_C 	C 	0.62094	0.25542	0.85021	0.416
Mof_C 	C 	0.50296	0.65097	0.61005	0.049
Mof_C 	C 	0.47516	0.64399	0.65553	-0.114
Mof_C 	C 	0.43496	0.67778	0.669	0.056
Mof_C 	C 	0.42187	0.71758	0.63529	-0.147
Mof_C 	C 	0.44756	0.7228	0.58968	0.063
Mof_C 	C 	0.48799	0.68983	0.57621	-0.114
Mof_C 	C 	0.54623	0.61613	0.59754	0.103
Mof_C 	C 	0.37906	0.75542	0.64979	0.416
Mof_C 	C 	0.34903	0.11005	0.99704	0.051
Mof_C 	C 	0.35601	0.15553	0.02484	-0.116
Mof_C 	C 	0.32222	0.169	0.06504	0.058
Mof_C 	C 	0.28242	0.13529	0.07813	-0.148
Mof_C 	C 	0.2772	0.08968	0.05244	0.065
Mof_C 	C 	0.31017	0.07621	0.01201	-0.118
Mof_C 	C 	0.38387	0.09754	0.95377	0.102
Mof_C 	C 	0.24458	0.14979	0.12094	0.416
Mof_C 	C 	0.84903	0.38995	0.00296	0.052
Mof_C 	C 	0.85601	0.34447	0.97516	-0.117
Mof_C 	C 	0.82222	0.331	0.93496	0.058
Mof_C 	C 	0.78242	0.36471	0.92187	-0.149
Mof_C 	C 	0.7772	0.41032	0.94756	0.066
Mof_C 	C 	0.81017	0.42379	0.98799	-0.119
Mof_C 	C 	0.88387	0.40246	0.04623	0.102
Mof_C 	C 	0.74458	0.35021	0.87906	0.417
Mof_C 	C 	0.65097	0.61005	0.50296	0.049
Mof_C 	C 	0.64399	0.65553	0.47516	-0.114
Mof_C 	C 	0.67778	0.669	0.43496	0.056
Mof_C 	C 	0.71758	0.63529	0.42187	-0.147
Mof_C 	C 	0.7228	0.58968	0.44756	0.063
Mof_C 	C 	0.68983	0.57621	0.48799	-0.114
Mof_C 	C 	0.61613	0.59754	0.54623	0.103
Mof_C 	C 	0.75542	0.64979	0.37906	0.416
Mof_C 	C 	0.15097	0.88995	0.49704	0.049
Mof_C 	C 	0.14399	0.84447	0.52484	-0.114
Mof_C 	C 	0.17778	0.831	0.56504	0.056
Mof_C 	C 	0.21758	0.86471	0.57813	-0.147
Mof_C 	C 	0.2228	0.91032	0.55244	0.063
Mof_C 	C 	0.18983	0.92379	0.51201	-0.114
Mof_C 	C 	0.11613	0.90246	0.45377	0.103
Mof_C 	C 	0.25542	0.85021	0.62094	0.416
Mof_N 	N 	0.82525	0.30532	0.12166	-0.139
Mof_N 	N 	0.67475	0.69468	0.62166	-0.139
Mof_N 	N 	0.17475	0.80532	0.37834	-0.139
Mof_N 	N 	0.32525	0.19468	0.87834	-0.139
Mof_N 	N 	0.12166	0.82525	0.30532	-0.139
Mof_N 	N 	0.62166	0.67475	0.69468	-0.139
Mof_N 	N 	0.37834	0.17475	0.80532	-0.139
Mof_N 	N 	0.87834	0.32525	0.19468	-0.139
Mof_N 	N 	0.30532	0.12166	0.82525	-0.139
Mof_N 	N 	0.69468	0.62166	0.67475	-0.139
Mof_N 	N 	0.80532	0.37834	0.17475	-0.139
Mof_N 	N 	0.19468	0.87834	0.32525	-0.139
Mof_N 	N 	0.55532	0.57525	0.62834	-0.139
Mof_N 	N 	0.94468	0.42475	0.12834	-0.139
Mof_N 	N 	0.05532	0.92475	0.37166	-0.139
Mof_N 	N 	0.44468	0.07525	0.87166	-0.139
Mof_N 	N 	0.07525	0.87166	0.44468	-0.139
Mof_N 	N 	0.92475	0.37166	0.05532	-0.139
Mof_N 	N 	0.42475	0.12834	0.94468	-0.139
Mof_N 	N 	0.57525	0.62834	0.55532	-0.139
Mof_N 	N 	0.37166	0.05532	0.92475	-0.139
Mof_N 	N 	0.87166	0.44468	0.07525	-0.139
Mof_N 	N 	0.62834	0.55532	0.57525	-0.139
Mof_N 	N 	0.12834	0.94468	0.42475	-0.139
Mof_O 	O 	0.62257	0.3708	0.95604	-0.464
Mof_O 	O 	0.6015	0.43887	0.00328	-0.509
Mof_O 	O 	0.87743	0.6292	0.45604	-0.464
Mof_O 	O 	0.8985	0.56113	0.50328	-0.51
Mof_O 	O 	0.37743	0.8708	0.54396	-0.464
Mof_O 	O 	0.3985	0.93887	0.49672	-0.51
Mof_O 	O 	0.12257	0.1292	0.04396	-0.464
Mof_O 	O 	0.1015	0.06113	0.99672	-0.509
Mof_O 	O 	0.95604	0.62257	0.3708	-0.464
Mof_O 	O 	0.00328	0.6015	0.43887	-0.509
Mof_O 	O 	0.45604	0.87743	0.6292	-0.464
Mof_O 	O 	0.50328	0.8985	0.56113	-0.51
Mof_O 	O 	0.54396	0.37743	0.8708	-0.464
Mof_O 	O 	0.49672	0.3985	0.93887	-0.51
Mof_O 	O 	0.04396	0.12257	0.1292	-0.464
Mof_O 	O 	0.99672	0.1015	0.06113	-0.509
Mof_O 	O 	0.3708	0.95604	0.62257	-0.464
Mof_O 	O 	0.43887	0.00328	0.6015	-0.509
Mof_O 	O 	0.6292	0.45604	0.87743	-0.464
Mof_O 	O 	0.56113	0.50328	0.8985	-0.51
Mof_O 	O 	0.8708	0.54396	0.37743	-0.464
Mof_O 	O 	0.93887	0.49672	0.3985	-0.51
Mof_O 	O 	0.1292	0.04396	0.12257	-0.464
Mof_O 	O 	0.06113	0.99672	0.1015	-0.509
Mof_O 	O 	0.6208	0.37257	0.79396	-0.464
Mof_O 	O 	0.68887	0.3515	0.74672	-0.51
Mof_O 	O 	0.8792	0.62743	0.29396	-0.464
Mof_O 	O 	0.81113	0.6485	0.24672	-0.51
Mof_O 	O 	0.1208	0.12743	0.20604	-0.464
Mof_O 	O 	0.18887	0.1485	0.25328	-0.51
Mof_O 	O 	0.3792	0.87257	0.70604	-0.464
Mof_O 	O 	0.31113	0.8515	0.75328	-0.51
Mof_O 	O 	0.87257	0.70604	0.3792	-0.464
Mof_O 	O 	0.8515	0.75328	0.31113	-0.51
Mof_O 	O 	0.12743	0.20604	0.1208	-0.464
Mof_O 	O 	0.1485	0.25328	0.18887	-0.51
Mof_O 	O 	0.62743	0.29396	0.8792	-0.464
Mof_O 	O 	0.6485	0.24672	0.81113	-0.51
Mof_O 	O 	0.37257	0.79396	0.6208	-0.464
Mof_O 	O 	0.3515	0.74672	0.68887	-0.51
Mof_O 	O 	0.20604	0.1208	0.12743	-0.464
Mof_O 	O 	0.25328	0.18887	0.1485	-0.51
Mof_O 	O 	0.70604	0.3792	0.87257	-0.464
Mof_O 	O 	0.75328	0.31113	0.8515	-0.51
Mof_O 	O 	0.79396	0.6208	0.37257	-0.464
Mof_O 	O 	0.74672	0.68887	0.3515	-0.51
Mof_O 	O 	0.29396	0.8792	0.62743	-0.464
Mof_O 	O 	0.24672	0.81113	0.6485	-0.51
_end
