data_functionalizedCrystal
_audit_creation_method	'EQeq! by Chris Wilmer'
_symmetry_space_group_name_H-M	'P1'
_symmetry_Int_Tables_number	1
_symmetry_cell_setting	triclinic
loop_
_symmetry_equiv_pos_as_xyz
  x,y,z
_cell_length_a	16.5492
_cell_length_b	14.8523
_cell_length_c	17.7313
_cell_angle_alpha	90
_cell_angle_beta	112.758
_cell_angle_gamma	90
loop_
_atom_site_label
_atom_site_type_symbol
_atom_site_fract_x
_atom_site_fract_y
_atom_site_fract_z
_atom_site_charge
Mof_C 	C 	0.879	0.811	0.3187	0.359
Mof_C 	C 	0.7864	0.7931	0.3063	-0.212
Mof_C 	C 	0.7593	0.7116	0.3255	0.208
Mof_H 	H 	0.8008	0.6664	0.3468	-0.036
Mof_C 	C 	0.6727	0.6935	0.3146	-0.385
Mof_C 	C 	0.6147	0.7652	0.2859	0.214
Mof_H 	H 	0.5566	0.7578	0.2795	-0.058
Mof_C 	C 	0.6417	0.8478	0.2666	-0.247
Mof_H 	H 	0.6014	0.8945	0.2474	0.121
Mof_C 	C 	0.7265	0.861	0.2755	0.155
Mof_H 	H 	0.7435	0.9158	0.2608	-0.004
Mof_C 	C 	0.8268	0.3299	0.5464	0.437
Mof_C 	C 	0.7963	0.4265	0.535	-0.223
Mof_C 	C 	0.7444	0.4575	0.4583	0.202
Mof_H 	H 	0.7294	0.4184	0.4139	-0.033
Mof_C 	C 	0.7135	0.5466	0.4453	-0.381
Mof_C 	C 	0.7386	0.6042	0.5114	0.216
Mof_H 	H 	0.7204	0.664	0.5037	-0.053
Mof_C 	C 	0.7907	0.574	0.5893	-0.246
Mof_H 	H 	0.8058	0.6129	0.6338	0.128
Mof_C 	C 	0.8201	0.4856	0.6005	0.157
Mof_H 	H 	0.8561	0.4658	0.6524	0.001
Mof_C 	C 	0.7351	0.4294	0.1151	0.432
Mof_C 	C 	0.6893	0.4226	0.1709	-0.263
Mof_C 	C 	0.6845	0.4963	0.2178	0.248
Mof_H 	H 	0.7127	0.5495	0.2146	-0.047
Mof_C 	C 	0.6394	0.4929	0.2687	-0.409
Mof_C 	C 	0.5969	0.4106	0.27	0.249
Mof_H 	H 	0.5636	0.4063	0.3017	-0.07
Mof_C 	C 	0.6031	0.3378	0.2265	-0.298
Mof_H 	H 	0.5765	0.2838	0.2304	0.14
Mof_C 	C 	0.6487	0.3446	0.1768	0.211
Mof_H 	H 	0.652	0.2948	0.1463	-0.023
Mof_C 	C 	0.2903	0.61	0.173	0.381
Mof_C 	C 	0.3649	0.5985	0.2554	-0.208
Mof_C 	C 	0.4521	0.5941	0.2614	0.187
Mof_H 	H 	0.4631	0.5958	0.2138	-0.032
Mof_C 	C 	0.5218	0.5873	0.3359	-0.375
Mof_C 	C 	0.5025	0.5838	0.4059	0.2
Mof_H 	H 	0.5478	0.5793	0.4571	-0.051
Mof_C 	C 	0.4163	0.5869	0.3996	-0.242
Mof_H 	H 	0.4042	0.5833	0.4465	0.117
Mof_C 	C 	0.3487	0.5954	0.3243	0.15
Mof_H 	H 	0.2913	0.599	0.3209	-0.003
Mof_C 	C 	0.1179	0.7831	0.2265	0.004
Mof_H 	H 	0.1514	0.7334	0.2521	0.046
Mof_C 	C 	0.1115	0.8177	0.1547	0.011
Mof_H 	H 	0.1394	0.7969	0.1215	0.042
Mof_C 	C 	0.0311	0.8954	0.2022	0.108
Mof_H 	H 	0.993	0.9389	0.207	-0.001
Mof_N 	N 	0.0668	0.8328	0.2561	-0.259
Mof_N 	N 	0.0559	0.8895	0.1397	-0.138
Mof_O 	O 	0.9021	0.8843	0.3005	-0.347
Mof_O 	O 	0.9343	0.7476	0.3483	-0.438
Mof_O 	O 	0.8804	0.3075	0.6134	-0.498
Mof_O 	O 	0.7927	0.279	0.4841	-0.482
Mof_O 	O 	0.2171	0.6258	0.1698	-0.322
Mof_O 	O 	0.31	0.6074	0.1103	-0.456
Mof_O 	O 	0.7306	0.36	0.0718	-0.484
Mof_O 	O 	0.7743	0.4966	0.1134	-0.331
Mof_O 	O 	0.0963	0.8891	0.4504	-0.535
Mof_C 	C 	0.0275	0.9465	0.0682	0.083
Mof_Si	Si	0.63725	0.58249	0.34062	0.935
Mof_Zn	Zn	0.04732	0.80535	0.35899	1.214
Mof_Zn	Zn	0.21712	0.85496	0.50932	1.231
Mof_C 	C 	0.9983	0.9071	0.9918	-0.063
Mof_H 	H 	0.9981	0.8448	0.9867	0.062
Mof_C 	C 	0.0306	0.0388	0.0771	-0.074
Mof_H 	H 	0.0519	0.0646	0.129	0.077
Mof_C 	C 	0.121	0.311	0.1813	0.36
Mof_C 	C 	0.2136	0.2931	0.1937	-0.211
Mof_C 	C 	0.2407	0.2116	0.1745	0.209
Mof_H 	H 	0.1992	0.1664	0.1532	-0.034
Mof_C 	C 	0.3273	0.1935	0.1854	-0.385
Mof_C 	C 	0.3853	0.2652	0.2141	0.214
Mof_H 	H 	0.4434	0.2578	0.2205	-0.058
Mof_C 	C 	0.3583	0.3478	0.2334	-0.247
Mof_H 	H 	0.3986	0.3945	0.2526	0.121
Mof_C 	C 	0.2735	0.361	0.2245	0.155
Mof_H 	H 	0.2565	0.4158	0.2392	-0.004
Mof_C 	C 	0.1732	0.8299	0.9536	0.436
Mof_C 	C 	0.2037	0.9265	0.965	-0.218
Mof_C 	C 	0.2556	0.9575	0.0417	0.195
Mof_H 	H 	0.2706	0.9184	0.0861	-0.031
Mof_C 	C 	0.2865	0.0466	0.0547	-0.376
Mof_C 	C 	0.2614	0.1042	0.9886	0.211
Mof_H 	H 	0.2796	0.164	0.9963	-0.051
Mof_C 	C 	0.2093	0.074	0.9107	-0.238
Mof_H 	H 	0.1942	0.1129	0.8662	0.126
Mof_C 	C 	0.1799	0.9856	0.8995	0.148
Mof_H 	H 	0.1439	0.9658	0.8476	0.003
Mof_C 	C 	0.2649	0.9294	0.3849	0.431
Mof_C 	C 	0.3107	0.9226	0.3291	-0.261
Mof_C 	C 	0.3155	0.9963	0.2822	0.243
Mof_H 	H 	0.2873	0.0495	0.2854	-0.044
Mof_C 	C 	0.3606	0.9929	0.2313	-0.408
Mof_C 	C 	0.4031	0.9106	0.23	0.248
Mof_H 	H 	0.4364	0.9063	0.1983	-0.069
Mof_C 	C 	0.3969	0.8378	0.2735	-0.297
Mof_H 	H 	0.4235	0.7838	0.2696	0.139
Mof_C 	C 	0.3513	0.8446	0.3232	0.209
Mof_H 	H 	0.348	0.7948	0.3537	-0.022
Mof_C 	C 	0.7097	0.11	0.327	0.381
Mof_C 	C 	0.6351	0.0985	0.2446	-0.208
Mof_C 	C 	0.5479	0.0941	0.2386	0.187
Mof_H 	H 	0.5369	0.0958	0.2862	-0.032
Mof_C 	C 	0.4782	0.0873	0.1641	-0.375
Mof_C 	C 	0.4975	0.0838	0.0941	0.2
Mof_H 	H 	0.4522	0.0793	0.0429	-0.051
Mof_C 	C 	0.5837	0.0869	0.1004	-0.241
Mof_H 	H 	0.5958	0.0833	0.0535	0.117
Mof_C 	C 	0.6513	0.0954	0.1757	0.15
Mof_H 	H 	0.7087	0.099	0.1791	-0.003
Mof_C 	C 	0.8821	0.2831	0.2735	0.004
Mof_H 	H 	0.8486	0.2334	0.2479	0.046
Mof_C 	C 	0.8885	0.3177	0.3453	0.011
Mof_H 	H 	0.8606	0.2969	0.3785	0.042
Mof_C 	C 	0.9689	0.3954	0.2978	0.116
Mof_H 	H 	0.007	0.4389	0.293	-0.006
Mof_N 	N 	0.9332	0.3328	0.2439	-0.26
Mof_N 	N 	0.9441	0.3895	0.3603	-0.14
Mof_O 	O 	0.0979	0.3843	0.1995	-0.348
Mof_O 	O 	0.0657	0.2476	0.1517	-0.438
Mof_O 	O 	0.1196	0.8075	0.8866	-0.498
Mof_O 	O 	0.2073	0.779	0.0159	-0.482
Mof_O 	O 	0.7829	0.1258	0.3302	-0.322
Mof_O 	O 	0.69	0.1074	0.3897	-0.457
Mof_O 	O 	0.2694	0.86	0.4282	-0.484
Mof_O 	O 	0.2257	0.9966	0.3866	-0.332
Mof_O 	O 	0.9037	0.3891	0.0496	-0.534
Mof_C 	C 	0.9725	0.4465	0.4318	0.09
Mof_Si	Si	0.36275	0.08249	0.15938	0.933
Mof_Zn	Zn	0.95268	0.30535	0.14101	1.214
Mof_Zn	Zn	0.78288	0.35496	0.99068	1.23
Mof_C 	C 	0.0017	0.4071	0.5082	-0.067
Mof_H 	H 	0.0019	0.3448	0.5133	0.063
Mof_C 	C 	0.9694	0.5388	0.4229	-0.079
Mof_H 	H 	0.9481	0.5646	0.371	0.078
Mof_C 	C 	0.121	0.189	0.6813	0.36
Mof_C 	C 	0.2136	0.2069	0.6937	-0.211
Mof_C 	C 	0.2407	0.2884	0.6745	0.209
Mof_H 	H 	0.1992	0.3336	0.6532	-0.035
Mof_C 	C 	0.3273	0.3065	0.6854	-0.385
Mof_C 	C 	0.3853	0.2348	0.7141	0.214
Mof_H 	H 	0.4434	0.2422	0.7205	-0.058
Mof_C 	C 	0.3583	0.1522	0.7334	-0.247
Mof_H 	H 	0.3986	0.1055	0.7526	0.121
Mof_C 	C 	0.2735	0.139	0.7245	0.155
Mof_H 	H 	0.2565	0.0842	0.7392	-0.004
Mof_C 	C 	0.1732	0.6701	0.4536	0.437
Mof_C 	C 	0.2037	0.5735	0.465	-0.223
Mof_C 	C 	0.2556	0.5425	0.5417	0.202
Mof_H 	H 	0.2706	0.5816	0.5861	-0.033
Mof_C 	C 	0.2865	0.4534	0.5547	-0.381
Mof_C 	C 	0.2614	0.3958	0.4886	0.216
Mof_H 	H 	0.2796	0.336	0.4963	-0.053
Mof_C 	C 	0.2093	0.426	0.4107	-0.246
Mof_H 	H 	0.1942	0.3871	0.3662	0.128
Mof_C 	C 	0.1799	0.5144	0.3995	0.157
Mof_H 	H 	0.1439	0.5342	0.3476	0.001
Mof_C 	C 	0.2649	0.5706	0.8849	0.432
Mof_C 	C 	0.3107	0.5774	0.8291	-0.263
Mof_C 	C 	0.3155	0.5037	0.7822	0.248
Mof_H 	H 	0.2873	0.4505	0.7854	-0.047
Mof_C 	C 	0.3606	0.5071	0.7313	-0.409
Mof_C 	C 	0.4031	0.5894	0.73	0.249
Mof_H 	H 	0.4364	0.5937	0.6983	-0.07
Mof_C 	C 	0.3969	0.6622	0.7735	-0.298
Mof_H 	H 	0.4235	0.7162	0.7696	0.14
Mof_C 	C 	0.3513	0.6554	0.8232	0.211
Mof_H 	H 	0.348	0.7052	0.8537	-0.023
Mof_C 	C 	0.7097	0.39	0.827	0.381
Mof_C 	C 	0.6351	0.4015	0.7446	-0.208
Mof_C 	C 	0.5479	0.4059	0.7386	0.187
Mof_H 	H 	0.5369	0.4042	0.7862	-0.032
Mof_C 	C 	0.4782	0.4127	0.6641	-0.375
Mof_C 	C 	0.4975	0.4162	0.5941	0.2
Mof_H 	H 	0.4522	0.4207	0.5429	-0.051
Mof_C 	C 	0.5837	0.4131	0.6004	-0.242
Mof_H 	H 	0.5958	0.4167	0.5535	0.117
Mof_C 	C 	0.6513	0.4046	0.6757	0.15
Mof_H 	H 	0.7087	0.401	0.6791	-0.003
Mof_C 	C 	0.8821	0.2169	0.7735	0.004
Mof_H 	H 	0.8486	0.2666	0.7479	0.046
Mof_C 	C 	0.8885	0.1823	0.8453	0.011
Mof_H 	H 	0.8606	0.2031	0.8785	0.042
Mof_C 	C 	0.9689	0.1046	0.7978	0.108
Mof_H 	H 	0.007	0.0611	0.793	-0.001
Mof_N 	N 	0.9332	0.1672	0.7439	-0.259
Mof_N 	N 	0.9441	0.1105	0.8603	-0.138
Mof_O 	O 	0.0979	0.1157	0.6995	-0.347
Mof_O 	O 	0.0657	0.2524	0.6517	-0.438
Mof_O 	O 	0.1196	0.6925	0.3866	-0.498
Mof_O 	O 	0.2073	0.721	0.5159	-0.482
Mof_O 	O 	0.7829	0.3742	0.8302	-0.322
Mof_O 	O 	0.69	0.3926	0.8897	-0.456
Mof_O 	O 	0.2694	0.64	0.9282	-0.484
Mof_O 	O 	0.2257	0.5034	0.8866	-0.331
Mof_O 	O 	0.9037	0.1109	0.5496	-0.535
Mof_C 	C 	0.9725	0.0535	0.9318	0.083
Mof_Si	Si	0.36275	0.41751	0.65938	0.935
Mof_Zn	Zn	0.95268	0.19465	0.64101	1.214
Mof_Zn	Zn	0.78288	0.14504	0.49068	1.231
Mof_C 	C 	0.0017	0.0929	0.0082	-0.063
Mof_H 	H 	0.0019	0.1552	0.0133	0.062
Mof_C 	C 	0.9694	0.9612	0.9229	-0.074
Mof_H 	H 	0.9481	0.9354	0.871	0.077
Mof_C 	C 	0.879	0.689	0.8187	0.36
Mof_C 	C 	0.7864	0.7069	0.8063	-0.211
Mof_C 	C 	0.7593	0.7884	0.8255	0.209
Mof_H 	H 	0.8008	0.8336	0.8468	-0.034
Mof_C 	C 	0.6727	0.8065	0.8146	-0.385
Mof_C 	C 	0.6147	0.7348	0.7859	0.214
Mof_H 	H 	0.5566	0.7422	0.7795	-0.058
Mof_C 	C 	0.6417	0.6522	0.7666	-0.247
Mof_H 	H 	0.6014	0.6055	0.7474	0.121
Mof_C 	C 	0.7265	0.639	0.7755	0.155
Mof_H 	H 	0.7435	0.5842	0.7608	-0.004
Mof_C 	C 	0.8268	0.1701	0.0464	0.436
Mof_C 	C 	0.7963	0.0735	0.035	-0.218
Mof_C 	C 	0.7444	0.0425	0.9583	0.195
Mof_H 	H 	0.7294	0.0816	0.9139	-0.031
Mof_C 	C 	0.7135	0.9534	0.9453	-0.376
Mof_C 	C 	0.7386	0.8958	0.0114	0.211
Mof_H 	H 	0.7204	0.836	0.0037	-0.051
Mof_C 	C 	0.7907	0.926	0.0893	-0.238
Mof_H 	H 	0.8058	0.8871	0.1338	0.126
Mof_C 	C 	0.8201	0.0144	0.1005	0.148
Mof_H 	H 	0.8561	0.0342	0.1524	0.003
Mof_C 	C 	0.7351	0.0706	0.6151	0.431
Mof_C 	C 	0.6893	0.0774	0.6709	-0.261
Mof_C 	C 	0.6845	0.0037	0.7178	0.243
Mof_H 	H 	0.7127	0.9505	0.7146	-0.044
Mof_C 	C 	0.6394	0.0071	0.7687	-0.408
Mof_C 	C 	0.5969	0.0894	0.77	0.248
Mof_H 	H 	0.5636	0.0937	0.8017	-0.069
Mof_C 	C 	0.6031	0.1622	0.7265	-0.297
Mof_H 	H 	0.5765	0.2162	0.7304	0.139
Mof_C 	C 	0.6487	0.1554	0.6768	0.209
Mof_H 	H 	0.652	0.2052	0.6463	-0.022
Mof_C 	C 	0.2903	0.89	0.673	0.381
Mof_C 	C 	0.3649	0.9015	0.7554	-0.208
Mof_C 	C 	0.4521	0.9059	0.7614	0.187
Mof_H 	H 	0.4631	0.9042	0.7138	-0.032
Mof_C 	C 	0.5218	0.9127	0.8359	-0.375
Mof_C 	C 	0.5025	0.9162	0.9059	0.2
Mof_H 	H 	0.5478	0.9207	0.9571	-0.051
Mof_C 	C 	0.4163	0.9131	0.8996	-0.241
Mof_H 	H 	0.4042	0.9167	0.9465	0.117
Mof_C 	C 	0.3487	0.9046	0.8243	0.15
Mof_H 	H 	0.2913	0.901	0.8209	-0.003
Mof_C 	C 	0.1179	0.7169	0.7265	0.004
Mof_H 	H 	0.1514	0.7666	0.7521	0.046
Mof_C 	C 	0.1115	0.6823	0.6547	0.011
Mof_H 	H 	0.1394	0.7031	0.6215	0.042
Mof_C 	C 	0.0311	0.6046	0.7022	0.116
Mof_H 	H 	0.993	0.5611	0.707	-0.006
Mof_N 	N 	0.0668	0.6672	0.7561	-0.26
Mof_N 	N 	0.0559	0.6105	0.6397	-0.14
Mof_O 	O 	0.9021	0.6157	0.8005	-0.348
Mof_O 	O 	0.9343	0.7524	0.8483	-0.438
Mof_O 	O 	0.8804	0.1925	0.1134	-0.498
Mof_O 	O 	0.7927	0.221	0.9841	-0.482
Mof_O 	O 	0.2171	0.8742	0.6698	-0.322
Mof_O 	O 	0.31	0.8926	0.6103	-0.457
Mof_O 	O 	0.7306	0.14	0.5718	-0.484
Mof_O 	O 	0.7743	0.0034	0.6134	-0.332
Mof_O 	O 	0.0963	0.6109	0.9504	-0.534
Mof_C 	C 	0.0275	0.5535	0.5682	0.09
Mof_Si	Si	0.63725	0.91751	0.84062	0.933
Mof_Zn	Zn	0.04732	0.69465	0.85899	1.214
Mof_Zn	Zn	0.21712	0.64504	0.00932	1.23
Mof_C 	C 	0.9983	0.5929	0.4918	-0.067
Mof_H 	H 	0.9981	0.6552	0.4867	0.063
Mof_C 	C 	0.0306	0.4612	0.5771	-0.079
Mof_H 	H 	0.0519	0.4354	0.629	0.078
_end
