data_functionalizedCrystal
_audit_creation_method	'EQeq! by Chris Wilmer'
_symmetry_space_group_name_H-M	'P1'
_symmetry_Int_Tables_number	1
_symmetry_cell_setting	triclinic
loop_
_symmetry_equiv_pos_as_xyz
  x,y,z
_cell_length_a	17.156
_cell_length_b	20.387
_cell_length_c	20.562
_cell_angle_alpha	90
_cell_angle_beta	90
_cell_angle_gamma	90
loop_
_atom_site_label
_atom_site_type_symbol
_atom_site_fract_x
_atom_site_fract_y
_atom_site_fract_z
_atom_site_charge
Mof_K 	K 	0.69618	0.01743	0.91169	2.588
Mof_K 	K 	0.21282	0.9184	0.93686	2.905
Mof_K 	K 	0.05638	0.35876	0.19287	3.421
Mof_K 	K 	0.56074	0.69582	0.16115	2.983
Mof_K 	K 	0.28718	0.4184	0.93686	2.927
Mof_K 	K 	0.94362	0.85876	0.30713	3.422
Mof_K 	K 	0.19618	0.01743	0.58831	2.583
Mof_K 	K 	0.71282	0.9184	0.56314	2.93
Mof_K 	K 	0.06074	0.80418	0.83885	2.971
Mof_K 	K 	0.30382	0.51743	0.58831	2.571
Mof_K 	K 	0.55638	0.35876	0.30713	3.41
Mof_K 	K 	0.05638	0.14124	0.69287	3.422
Mof_K 	K 	0.43926	0.19582	0.33885	2.98
Mof_K 	K 	0.30382	0.98257	0.08831	2.587
Mof_K 	K 	0.43926	0.30418	0.83885	2.982
Mof_K 	K 	0.78718	0.4184	0.56314	2.929
Mof_K 	K 	0.56074	0.80418	0.66115	2.98
Mof_K 	K 	0.44362	0.85876	0.19287	3.409
Mof_K 	K 	0.19618	0.48257	0.08831	2.571
Mof_K 	K 	0.28718	0.0816	0.43686	2.93
Mof_K 	K 	0.44362	0.64124	0.69287	3.41
Mof_K 	K 	0.80382	0.98257	0.41169	2.583
Mof_K 	K 	0.69618	0.48257	0.41169	2.571
Mof_K 	K 	0.55638	0.14124	0.80713	3.409
Mof_K 	K 	0.93926	0.19582	0.16115	2.971
Mof_K 	K 	0.06074	0.69582	0.33885	2.974
Mof_K 	K 	0.93926	0.30418	0.66115	2.974
Mof_K 	K 	0.71282	0.5816	0.06314	2.927
Mof_K 	K 	0.21282	0.5816	0.43686	2.929
Mof_K 	K 	0.78718	0.0816	0.06314	2.904
Mof_K 	K 	0.80382	0.51743	0.91169	2.571
Mof_K 	K 	0.94362	0.64124	0.80713	3.42
Mof_Zr	Zr	0.13073	0.9746	0.76559	3.186
Mof_Zr	Zr	0.36927	0.4746	0.76559	3.187
Mof_Zr	Zr	0.63073	0.9746	0.73441	3.187
Mof_Zr	Zr	0.36927	0.0254	0.26559	3.187
Mof_Zr	Zr	0.86927	0.0254	0.23441	3.186
Mof_Zr	Zr	0.86927	0.4746	0.73441	3.187
Mof_Zr	Zr	0.63073	0.5254	0.23441	3.187
Mof_Zr	Zr	0.13073	0.5254	0.26559	3.187
Mof_H 	H 	0.3201	0.4271	0.4054	0.002
Mof_H 	H 	0.0976	0.6959	0.4895	0.118
Mof_H 	H 	0.0571	0.627	0.6546	0.038
Mof_H 	H 	0.9847	0.4698	0.0768	-0.011
Mof_H 	H 	0.3991	0.6438	0.5463	0.324
Mof_H 	H 	0.5275	0.082	0.4493	-0.023
Mof_H 	H 	0.6009	0.3562	0.4537	0.324
Mof_H 	H 	0.95	0.6798	0.1765	0.025
Mof_H 	H 	0.8309	0.8813	0.8662	0.037
Mof_H 	H 	0.1771	0.7833	0.9762	0.234
Mof_H 	H 	0.1745	0.169	0.5722	0.181
Mof_H 	H 	0.05	0.1798	0.3235	0.025
Mof_H 	H 	0.3255	0.831	0.0722	0.182
Mof_H 	H 	0.4024	0.3041	0.9895	0.118
Mof_H 	H 	0.8229	0.2167	0.0238	0.234
Mof_H 	H 	0.9847	0.0302	0.5768	-0.023
Mof_H 	H 	0.4429	0.373	0.1546	0.038
Mof_H 	H 	0.45	0.6798	0.3235	0.025
Mof_H 	H 	0.0275	0.082	0.0507	-0.027
Mof_H 	H 	0.3309	0.6187	0.1338	0.038
Mof_H 	H 	0.4024	0.1959	0.4895	0.118
Mof_H 	H 	0.6799	0.9271	0.0946	0.003
Mof_H 	H 	0.7496	0.7737	0.6709	-0.01
Mof_H 	H 	0.55	0.3202	0.6765	0.025
Mof_H 	H 	0.7839	0.1539	0.8112	0.012
Mof_H 	H 	0.6691	0.3813	0.8662	0.038
Mof_H 	H 	0.7161	0.8461	0.3112	0.012
Mof_H 	H 	0.5275	0.418	0.9493	-0.023
Mof_H 	H 	0.3991	0.8562	0.0463	0.325
Mof_H 	H 	0.9725	0.582	0.4493	-0.022
Mof_H 	H 	0.1691	0.3813	0.6338	0.038
Mof_H 	H 	0.4847	0.0302	0.9232	-0.005
Mof_H 	H 	0.8991	0.8562	0.4537	0.325
Mof_H 	H 	0.8309	0.6187	0.3662	0.038
Mof_H 	H 	0.0275	0.418	0.5507	-0.022
Mof_H 	H 	0.3309	0.8813	0.6338	0.037
Mof_H 	H 	0.3229	0.2833	0.9762	0.235
Mof_H 	H 	0.6009	0.1438	0.9537	0.325
Mof_H 	H 	0.8201	0.4271	0.0946	0.002
Mof_H 	H 	0.9429	0.127	0.8454	0.042
Mof_H 	H 	0.55	0.1798	0.1765	0.024
Mof_H 	H 	0.0976	0.8041	0.9895	0.116
Mof_H 	H 	0.7161	0.6539	0.8112	0.012
Mof_H 	H 	0.7504	0.2263	0.1709	-0.01
Mof_H 	H 	0.6771	0.7167	0.0238	0.235
Mof_H 	H 	0.5571	0.627	0.8454	0.038
Mof_H 	H 	0.0153	0.9698	0.4232	-0.023
Mof_H 	H 	0.6799	0.5729	0.5946	0.002
Mof_H 	H 	0.8255	0.831	0.4278	0.181
Mof_H 	H 	0.8229	0.2833	0.5238	0.235
Mof_H 	H 	0.05	0.3202	0.8235	0.025
Mof_H 	H 	0.2161	0.6539	0.6888	0.012
Mof_H 	H 	0.6745	0.331	0.4278	0.181
Mof_H 	H 	0.6745	0.169	0.9278	0.182
Mof_H 	H 	0.1799	0.5729	0.9054	0.002
Mof_H 	H 	0.45	0.8202	0.8235	0.024
Mof_H 	H 	0.4725	0.918	0.5507	-0.023
Mof_H 	H 	0.1745	0.331	0.0722	0.181
Mof_H 	H 	0.5976	0.6959	0.0105	0.118
Mof_H 	H 	0.2496	0.7737	0.8291	-0.01
Mof_H 	H 	0.3201	0.0729	0.9054	0.003
Mof_H 	H 	0.0153	0.5302	0.9232	-0.011
Mof_H 	H 	0.2496	0.7263	0.3291	-0.01
Mof_H 	H 	0.3255	0.669	0.5722	0.181
Mof_H 	H 	0.8255	0.669	0.9278	0.181
Mof_H 	H 	0.6691	0.1187	0.3662	0.037
Mof_H 	H 	0.8201	0.0729	0.5946	0.001
Mof_H 	H 	0.7496	0.7263	0.1709	-0.01
Mof_H 	H 	0.7504	0.2737	0.6709	-0.01
Mof_H 	H 	0.1771	0.7167	0.4762	0.235
Mof_H 	H 	0.0571	0.873	0.1546	0.042
Mof_H 	H 	0.9024	0.1959	0.0105	0.116
Mof_H 	H 	0.9725	0.918	0.9493	-0.027
Mof_H 	H 	0.95	0.8202	0.6765	0.025
Mof_H 	H 	0.1009	0.3562	0.0463	0.324
Mof_H 	H 	0.1799	0.9271	0.4054	0.001
Mof_H 	H 	0.2161	0.8461	0.1888	0.012
Mof_H 	H 	0.8991	0.6438	0.9537	0.324
Mof_H 	H 	0.4847	0.4698	0.4232	-0.01
Mof_H 	H 	0.9024	0.3041	0.5105	0.118
Mof_H 	H 	0.1691	0.1187	0.1338	0.037
Mof_H 	H 	0.3229	0.2167	0.4762	0.235
Mof_H 	H 	0.5153	0.9698	0.0768	-0.005
Mof_H 	H 	0.4429	0.127	0.6546	0.038
Mof_H 	H 	0.5153	0.5302	0.5768	-0.01
Mof_H 	H 	0.5976	0.8041	0.5105	0.118
Mof_H 	H 	0.2504	0.2263	0.3291	-0.01
Mof_H 	H 	0.4725	0.582	0.0507	-0.023
Mof_H 	H 	0.1009	0.1438	0.5463	0.325
Mof_H 	H 	0.7839	0.3461	0.3112	0.012
Mof_H 	H 	0.2504	0.2737	0.8291	-0.01
Mof_H 	H 	0.2839	0.3461	0.1888	0.012
Mof_H 	H 	0.6771	0.7833	0.5238	0.235
Mof_H 	H 	0.2839	0.1539	0.6888	0.012
Mof_H 	H 	0.5571	0.873	0.3454	0.038
Mof_H 	H 	0.9429	0.373	0.3454	0.038
Mof_C 	C 	0.9821	0.0291	0.3511	0.111
Mof_C 	C 	0.7597	0.4381	0.1773	0.165
Mof_C 	C 	0.9001	0.5024	0.4448	0.111
Mof_C 	C 	0.208	0.6386	0.7309	-0.268
Mof_C 	C 	0.2597	0.0619	0.8227	0.164
Mof_C 	C 	0.3522	0.1648	0.7692	0.097
Mof_C 	C 	0.6363	0.639	0.6603	0.103
Mof_C 	C 	0.3637	0.361	0.3397	0.103
Mof_C 	C 	0.255	0.9098	0.256	0.17
Mof_C 	C 	0.0023	0.4583	0.3451	0.183
Mof_C 	C 	0.9977	0.9583	0.1549	0.2
Mof_C 	C 	0.7678	0.7947	0.708	-0.29
Mof_C 	C 	0.817	0.8605	0.8277	-0.369
Mof_C 	C 	0.4536	0.6381	0.3416	-0.252
Mof_C 	C 	0.6852	0.5882	0.6369	-0.275
Mof_C 	C 	0.9536	0.6381	0.1584	-0.251
Mof_C 	C 	0.4536	0.8619	0.8416	-0.251
Mof_C 	C 	0.1705	0.2329	0.2554	0.158
Mof_C 	C 	0.1852	0.9118	0.3631	-0.275
Mof_C 	C 	0.183	0.3605	0.6723	-0.369
Mof_C 	C 	0.9456	0.0855	0.8639	-0.316
Mof_C 	C 	0.9944	0.4059	0.8178	0.141
Mof_C 	C 	0.8637	0.139	0.6603	0.102
Mof_C 	C 	0.0544	0.5855	0.6361	-0.303
Mof_C 	C 	0.964	0.9576	0.9279	-0.256
Mof_C 	C 	0.2355	0.6478	0.2722	0.117
Mof_C 	C 	0.3295	0.7671	0.7554	0.158
Mof_C 	C 	0.2322	0.2947	0.792	-0.29
Mof_C 	C 	0.3915	0.4341	0.0878	0.111
Mof_C 	C 	0.708	0.6386	0.7691	-0.268
Mof_C 	C 	0.0951	0.38	0.8943	0.046
Mof_C 	C 	0.745	0.0902	0.744	0.17
Mof_C 	C 	0.7595	0.8858	0.7898	0.203
Mof_C 	C 	0.7355	0.8522	0.7278	0.117
Mof_C 	C 	0.5258	0.0094	0.0975	-0.391
Mof_C 	C 	0.2645	0.3522	0.7722	0.117
Mof_C 	C 	0.5544	0.9145	0.3639	-0.302
Mof_C 	C 	0.317	0.8605	0.6723	-0.37
Mof_C 	C 	0.0258	0.0094	0.4025	-0.357
Mof_C 	C 	0.7595	0.6142	0.2898	0.203
Mof_C 	C 	0.036	0.4576	0.5721	-0.273
Mof_C 	C 	0.4944	0.0941	0.1822	0.141
Mof_C 	C 	0.5179	0.5291	0.3511	0.131
Mof_C 	C 	0.9821	0.4709	0.8511	0.132
Mof_C 	C 	0.8558	0.802	0.808	0.211
Mof_C 	C 	0.5464	0.3619	0.6584	-0.252
Mof_C 	C 	0.683	0.3605	0.8277	-0.369
Mof_C 	C 	0.7322	0.2053	0.208	-0.289
Mof_C 	C 	0.317	0.6395	0.1723	-0.369
Mof_C 	C 	0.792	0.1386	0.7691	-0.268
Mof_C 	C 	0.7405	0.3858	0.7898	0.203
Mof_C 	C 	0.2678	0.7053	0.292	-0.289
Mof_C 	C 	0.4456	0.4145	0.1361	-0.301
Mof_C 	C 	0.5544	0.5855	0.8639	-0.301
Mof_C 	C 	0.6705	0.2671	0.7446	0.158
Mof_C 	C 	0.7678	0.7053	0.208	-0.29
Mof_C 	C 	0.7645	0.3522	0.7278	0.117
Mof_C 	C 	0.0056	0.5941	0.1822	0.141
Mof_C 	C 	0.2355	0.8522	0.7722	0.117
Mof_C 	C 	0.9049	0.88	0.6057	0.048
Mof_C 	C 	0.3522	0.3352	0.2692	0.097
Mof_C 	C 	0.0876	0.45	0.9243	0.246
Mof_C 	C 	0.8637	0.361	0.1603	0.103
Mof_C 	C 	0.5951	0.38	0.6057	0.046
Mof_C 	C 	0.4124	0.55	0.4243	0.246
Mof_C 	C 	0.255	0.5902	0.756	0.169
Mof_C 	C 	0.4977	0.5417	0.8451	0.181
Mof_C 	C 	0.2595	0.8858	0.7102	0.203
Mof_C 	C 	0.5023	0.4583	0.1549	0.181
Mof_C 	C 	0.292	0.3614	0.2309	-0.268
Mof_C 	C 	0.6442	0.198	0.308	0.211
Mof_C 	C 	0.2403	0.9381	0.3227	0.164
Mof_C 	C 	0.8148	0.4118	0.1369	-0.275
Mof_C 	C 	0.0135	0.9779	0.8793	0.116
Mof_C 	C 	0.8522	0.3352	0.2308	0.097
Mof_C 	C 	0.9865	0.4779	0.6207	0.136
Mof_C 	C 	0.2597	0.4381	0.3227	0.165
Mof_C 	C 	0.8295	0.7329	0.2446	0.158
Mof_C 	C 	0.1478	0.8352	0.2692	0.097
Mof_C 	C 	0.1852	0.5882	0.8631	-0.275
Mof_C 	C 	0.0464	0.1381	0.3416	-0.25
Mof_C 	C 	0.708	0.8614	0.2691	-0.268
Mof_C 	C 	0.2322	0.2053	0.292	-0.29
Mof_C 	C 	0.4124	0.95	0.9243	0.249
Mof_C 	C 	0.683	0.1395	0.3277	-0.37
Mof_C 	C 	0.3148	0.4118	0.3631	-0.275
Mof_C 	C 	0.8915	0.4341	0.4122	0.112
Mof_C 	C 	0.9049	0.62	0.1057	0.046
Mof_C 	C 	0.7355	0.6478	0.2278	0.117
Mof_C 	C 	0.4865	0.4779	0.8793	0.137
Mof_C 	C 	0.7597	0.0619	0.6773	0.164
Mof_C 	C 	0.2405	0.1142	0.2102	0.203
Mof_C 	C 	0.3558	0.698	0.192	0.211
Mof_C 	C 	0.3558	0.802	0.692	0.211
Mof_C 	C 	0.5056	0.5941	0.3178	0.142
Mof_C 	C 	0.5951	0.12	0.1057	0.044
Mof_C 	C 	0.1478	0.6648	0.7692	0.097
Mof_C 	C 	0.0179	0.9709	0.6489	0.111
Mof_C 	C 	0.536	0.0424	0.4279	-0.272
Mof_C 	C 	0.8148	0.0882	0.6369	-0.275
Mof_C 	C 	0.0999	0.0024	0.0552	0.105
Mof_C 	C 	0.1363	0.861	0.3397	0.102
Mof_C 	C 	0.4865	0.0221	0.3793	0.135
Mof_C 	C 	0.1442	0.302	0.692	0.211
Mof_C 	C 	0.0023	0.0417	0.8451	0.2
Mof_C 	C 	0.817	0.6395	0.3277	-0.369
Mof_C 	C 	0.208	0.8614	0.2309	-0.268
Mof_C 	C 	0.5135	0.9779	0.6207	0.135
Mof_C 	C 	0.5258	0.4906	0.5975	-0.382
Mof_C 	C 	0.1085	0.5659	0.5878	0.112
Mof_C 	C 	0.0951	0.12	0.3943	0.048
Mof_C 	C 	0.6085	0.5659	0.9122	0.111
Mof_C 	C 	0.6478	0.6648	0.7308	0.097
Mof_C 	C 	0.1363	0.639	0.8397	0.103
Mof_C 	C 	0.9001	0.9976	0.9448	0.105
Mof_C 	C 	0.0258	0.4906	0.9025	-0.383
Mof_C 	C 	0.5056	0.9059	0.8178	0.141
Mof_C 	C 	0.9944	0.0941	0.3178	0.143
Mof_C 	C 	0.4944	0.4059	0.6822	0.142
Mof_C 	C 	0.7405	0.1142	0.2898	0.203
Mof_C 	C 	0.4456	0.0855	0.6361	-0.302
Mof_C 	C 	0.9865	0.0221	0.1207	0.116
Mof_C 	C 	0.9977	0.5417	0.6549	0.183
Mof_C 	C 	0.2595	0.6142	0.2102	0.203
Mof_C 	C 	0.755	0.9098	0.244	0.17
Mof_C 	C 	0.0464	0.3619	0.8416	-0.251
Mof_C 	C 	0.9536	0.8619	0.6584	-0.25
Mof_C 	C 	0.9742	0.9906	0.5975	-0.357
Mof_C 	C 	0.5999	0.4976	0.9448	0.112
Mof_C 	C 	0.8558	0.698	0.308	0.211
Mof_C 	C 	0.245	0.0902	0.756	0.17
Mof_C 	C 	0.6705	0.2329	0.2446	0.158
Mof_C 	C 	0.8915	0.0659	0.9122	0.118
Mof_C 	C 	0.964	0.5424	0.4279	-0.273
Mof_C 	C 	0.036	0.0424	0.0721	-0.256
Mof_C 	C 	0.745	0.4098	0.244	0.169
Mof_C 	C 	0.792	0.3614	0.2691	-0.268
Mof_C 	C 	0.7322	0.2947	0.708	-0.289
Mof_C 	C 	0.0056	0.9059	0.6822	0.143
Mof_C 	C 	0.4821	0.0291	0.1489	0.132
Mof_C 	C 	0.4049	0.62	0.3943	0.046
Mof_C 	C 	0.3148	0.0882	0.8631	-0.274
Mof_C 	C 	0.4742	0.5094	0.4025	-0.382
Mof_C 	C 	0.464	0.9576	0.5721	-0.272
Mof_C 	C 	0.0876	0.05	0.4243	0.238
Mof_C 	C 	0.1705	0.2671	0.7554	0.158
Mof_C 	C 	0.0999	0.4976	0.5552	0.111
Mof_C 	C 	0.3915	0.0659	0.5878	0.113
Mof_C 	C 	0.8295	0.7671	0.7446	0.158
Mof_C 	C 	0.292	0.1386	0.7309	-0.268
Mof_C 	C 	0.6478	0.8352	0.2308	0.097
Mof_C 	C 	0.1085	0.9341	0.0878	0.118
Mof_C 	C 	0.5464	0.1381	0.1584	-0.251
Mof_C 	C 	0.4001	0.9976	0.5552	0.11
Mof_C 	C 	0.0544	0.9145	0.1361	-0.316
Mof_C 	C 	0.3295	0.7329	0.2554	0.158
Mof_C 	C 	0.6363	0.861	0.1603	0.103
Mof_C 	C 	0.2678	0.7947	0.792	-0.289
Mof_C 	C 	0.6852	0.9118	0.1369	-0.274
Mof_C 	C 	0.2645	0.1478	0.2722	0.117
Mof_C 	C 	0.536	0.4576	0.9279	-0.274
Mof_C 	C 	0.7645	0.1478	0.2278	0.117
Mof_C 	C 	0.245	0.4098	0.256	0.169
Mof_C 	C 	0.5023	0.0417	0.6549	0.183
Mof_C 	C 	0.5999	0.0024	0.4448	0.11
Mof_C 	C 	0.9124	0.95	0.5757	0.238
Mof_C 	C 	0.2403	0.5619	0.8227	0.165
Mof_C 	C 	0.0179	0.5291	0.1489	0.132
Mof_C 	C 	0.9124	0.55	0.0757	0.246
Mof_C 	C 	0.8522	0.1648	0.7308	0.097
Mof_C 	C 	0.5876	0.45	0.5757	0.246
Mof_C 	C 	0.5135	0.5221	0.1207	0.137
Mof_C 	C 	0.183	0.1395	0.1723	-0.369
Mof_C 	C 	0.6442	0.302	0.808	0.211
Mof_C 	C 	0.4001	0.5024	0.0552	0.112
Mof_C 	C 	0.755	0.5902	0.744	0.169
Mof_C 	C 	0.5876	0.05	0.0757	0.249
Mof_C 	C 	0.4977	0.9583	0.3451	0.183
Mof_C 	C 	0.6085	0.9341	0.4122	0.113
Mof_C 	C 	0.0135	0.5221	0.3793	0.136
Mof_C 	C 	0.4821	0.4709	0.6489	0.131
Mof_C 	C 	0.5179	0.9709	0.8511	0.132
Mof_C 	C 	0.7403	0.9381	0.1773	0.164
Mof_C 	C 	0.4049	0.88	0.8943	0.044
Mof_C 	C 	0.9456	0.4145	0.3639	-0.303
Mof_C 	C 	0.464	0.5424	0.0721	-0.274
Mof_C 	C 	0.1442	0.198	0.192	0.211
Mof_C 	C 	0.2405	0.3858	0.7102	0.203
Mof_C 	C 	0.7403	0.5619	0.6773	0.165
Mof_C 	C 	0.4742	0.9906	0.9025	-0.391
Mof_C 	C 	0.9742	0.5094	0.0975	-0.383
Mof_C 	C 	0.3637	0.139	0.8397	0.103
Mof_O 	O 	0.1513	0.0176	0.016	-0.706
Mof_O 	O 	0.6336	0.2176	0.728	-0.677
Mof_O 	O 	0.3487	0.9824	0.516	-0.711
Mof_O 	O 	0.3684	0.6395	0.5775	-1.261
Mof_O 	O 	0.0503	0.44899	0.29705	-0.916
Mof_O 	O 	0.3997	0.2923	0.251	-0.71
Mof_O 	O 	0.6513	0.4824	0.984	-0.71
Mof_O 	O 	0.8337	0.4014	0.4287	-0.714
Mof_O 	O 	0.3122	0.93634	0.2259	-0.994
Mof_O 	O 	0.6663	0.5986	0.9287	-0.714
Mof_O 	O 	0.0748	0.49474	0.17473	-1.092
Mof_O 	O 	0.6461	0.1559	0.0812	-0.529
Mof_O 	O 	0.5718	0.94403	0.64241	-0.986
Mof_O 	O 	0.2203	0.93928	0.6988	-0.882
Mof_O 	O 	0.4282	0.44403	0.85759	-0.986
Mof_O 	O 	0.6878	0.43634	0.2741	-0.993
Mof_O 	O 	0.1336	0.2824	0.272	-0.677
Mof_O 	O 	0.1336	0.2176	0.772	-0.678
Mof_O 	O 	0.6003	0.7923	0.249	-0.71
Mof_O 	O 	0.917	0.3352	0.1293	-0.819
Mof_O 	O 	0.7797	0.43928	0.8012	-0.879
Mof_O 	O 	0.8664	0.7176	0.728	-0.677
Mof_O 	O 	0.1385	0.8007	0.9547	-1.095
Mof_O 	O 	0.9497	0.55101	0.70295	-0.916
Mof_O 	O 	0.8539	0.6559	0.0812	-0.529
Mof_O 	O 	0.7203	0.56072	0.3012	-0.879
Mof_O 	O 	0.4497	0.55101	0.79705	-0.915
Mof_O 	O 	0.7149	0.01228	0.66374	-0.876
Mof_O 	O 	0.7851	0.98772	0.16374	-0.871
Mof_O 	O 	0.0498	0.60234	0.23305	-0.855
Mof_O 	O 	0.3635	0.5338	0.46497	-0.839
Mof_O 	O 	0.8615	0.1993	0.0453	-1.095
Mof_O 	O 	0.8175	0.38428	0.69526	-1.057
Mof_O 	O 	0.0503	0.05101	0.79705	-0.918
Mof_O 	O 	0.589	0.2229	0.3379	-0.914
Mof_O 	O 	0.411	0.7771	0.6621	-0.914
Mof_O 	O 	0.6663	0.9014	0.4287	-0.715
Mof_O 	O 	0.8997	0.2077	0.749	-0.71
Mof_O 	O 	0.089	0.2771	0.6621	-0.914
Mof_O 	O 	0.6336	0.2824	0.228	-0.677
Mof_O 	O 	0.6385	0.8007	0.5453	-1.099
Mof_O 	O 	0.1461	0.3441	0.9188	-0.529
Mof_O 	O 	0.411	0.7229	0.1621	-0.914
Mof_O 	O 	0.8635	0.9662	0.53503	-0.837
Mof_O 	O 	0.1316	0.3605	0.0775	-1.262
Mof_O 	O 	0.917	0.1648	0.6293	-0.82
Mof_O 	O 	0.9502	0.39766	0.76695	-0.855
Mof_O 	O 	0.3664	0.7824	0.272	-0.677
Mof_O 	O 	0.8122	0.93634	0.2741	-0.994
Mof_O 	O 	0.5498	0.60234	0.26695	-0.856
Mof_O 	O 	0.1461	0.1559	0.4188	-0.53
Mof_O 	O 	0.5748	0.49474	0.32527	-1.091
Mof_O 	O 	0.0718	0.94403	0.85759	-0.982
Mof_O 	O 	0.4252	0.50526	0.67473	-1.091
Mof_O 	O 	0.1365	0.0338	0.46497	-0.837
Mof_O 	O 	0.2149	0.01228	0.83626	-0.871
Mof_O 	O 	0.417	0.1648	0.8707	-0.818
Mof_O 	O 	0.3615	0.1993	0.4547	-1.099
Mof_O 	O 	0.2851	0.51228	0.83626	-0.876
Mof_O 	O 	0.3122	0.56366	0.7259	-0.993
Mof_O 	O 	0.6461	0.3441	0.5812	-0.53
Mof_O 	O 	0.1825	0.61572	0.30474	-1.057
Mof_O 	O 	0.1513	0.4824	0.516	-0.71
Mof_O 	O 	0.8539	0.8441	0.5812	-0.53
Mof_O 	O 	0.6316	0.3605	0.4225	-1.261
Mof_O 	O 	0.1003	0.7077	0.751	-0.71
Mof_O 	O 	0.911	0.7229	0.3379	-0.914
Mof_O 	O 	0.7797	0.06072	0.3012	-0.882
Mof_O 	O 	0.3997	0.2077	0.751	-0.71
Mof_O 	O 	0.6365	0.0338	0.03503	-0.843
Mof_O 	O 	0.9282	0.44403	0.64241	-0.986
Mof_O 	O 	0.3337	0.0986	0.5713	-0.715
Mof_O 	O 	0.8684	0.6395	0.9225	-1.262
Mof_O 	O 	0.6003	0.7077	0.749	-0.71
Mof_O 	O 	0.1316	0.1395	0.5775	-1.264
Mof_O 	O 	0.3175	0.38428	0.80474	-1.057
Mof_O 	O 	0.2797	0.06072	0.1988	-0.881
Mof_O 	O 	0.4502	0.10234	0.23305	-0.856
Mof_O 	O 	0.6878	0.06366	0.7741	-0.994
Mof_O 	O 	0.5718	0.55597	0.14241	-0.986
Mof_O 	O 	0.4502	0.39766	0.73305	-0.856
Mof_O 	O 	0.417	0.3352	0.3707	-0.818
Mof_O 	O 	0.6513	0.0176	0.484	-0.711
Mof_O 	O 	0.0498	0.89766	0.73305	-0.857
Mof_O 	O 	0.8635	0.5338	0.03503	-0.84
Mof_O 	O 	0.7203	0.93928	0.8012	-0.881
Mof_O 	O 	0.3337	0.4014	0.0713	-0.714
Mof_O 	O 	0.8487	0.5176	0.484	-0.71
Mof_O 	O 	0.911	0.7771	0.8379	-0.913
Mof_O 	O 	0.9497	0.94899	0.20295	-0.918
Mof_O 	O 	0.0718	0.55597	0.35759	-0.986
Mof_O 	O 	0.8664	0.7824	0.228	-0.678
Mof_O 	O 	0.4282	0.05597	0.35759	-0.986
Mof_O 	O 	0.089	0.2229	0.1621	-0.913
Mof_O 	O 	0.3539	0.8441	0.9188	-0.529
Mof_O 	O 	0.7149	0.48772	0.16374	-0.876
Mof_O 	O 	0.3487	0.5176	0.016	-0.71
Mof_O 	O 	0.1385	0.6993	0.4547	-1.098
Mof_O 	O 	0.1365	0.4662	0.96497	-0.84
Mof_O 	O 	0.2149	0.48772	0.33626	-0.876
Mof_O 	O 	0.3615	0.3007	0.9547	-1.099
Mof_O 	O 	0.1878	0.06366	0.7259	-0.994
Mof_O 	O 	0.589	0.2771	0.8379	-0.914
Mof_O 	O 	0.8615	0.3007	0.5453	-1.098
Mof_O 	O 	0.3635	0.9662	0.96497	-0.843
Mof_O 	O 	0.2851	0.98772	0.33626	-0.876
Mof_O 	O 	0.4497	0.94899	0.29705	-0.915
Mof_O 	O 	0.6825	0.61572	0.19526	-1.057
Mof_O 	O 	0.7851	0.51228	0.66374	-0.876
Mof_O 	O 	0.1825	0.88428	0.80474	-1.056
Mof_O 	O 	0.6385	0.6993	0.0453	-1.099
Mof_O 	O 	0.6365	0.4662	0.53503	-0.839
Mof_O 	O 	0.5503	0.05101	0.70295	-0.915
Mof_O 	O 	0.5503	0.44899	0.20295	-0.915
Mof_O 	O 	0.5498	0.89766	0.76695	-0.856
Mof_O 	O 	0.9282	0.05597	0.14241	-0.982
Mof_O 	O 	0.3539	0.6559	0.4188	-0.53
Mof_O 	O 	0.8487	0.9824	0.984	-0.706
Mof_O 	O 	0.8337	0.0986	0.9287	-0.714
Mof_O 	O 	0.9252	0.99474	0.32527	-1.083
Mof_O 	O 	0.3175	0.11572	0.30474	-1.057
Mof_O 	O 	0.2797	0.43928	0.6988	-0.879
Mof_O 	O 	0.8997	0.2923	0.249	-0.71
Mof_O 	O 	0.2203	0.56072	0.1988	-0.879
Mof_O 	O 	0.1878	0.43634	0.2259	-0.994
Mof_O 	O 	0.8175	0.11572	0.19526	-1.056
Mof_O 	O 	0.6825	0.88428	0.69526	-1.057
Mof_O 	O 	0.1663	0.9014	0.0713	-0.714
Mof_O 	O 	0.9252	0.50526	0.82527	-1.092
Mof_O 	O 	0.0748	0.00526	0.67473	-1.083
Mof_O 	O 	0.6316	0.1395	0.9225	-1.263
Mof_O 	O 	0.3664	0.7176	0.772	-0.677
Mof_O 	O 	0.8122	0.56366	0.7741	-0.994
Mof_O 	O 	0.1003	0.7923	0.251	-0.71
Mof_O 	O 	0.583	0.6648	0.6293	-0.818
Mof_O 	O 	0.1663	0.5986	0.5713	-0.714
Mof_O 	O 	0.083	0.8352	0.3707	-0.82
Mof_O 	O 	0.083	0.6648	0.8707	-0.819
Mof_O 	O 	0.8684	0.8605	0.4225	-1.264
Mof_O 	O 	0.9502	0.10234	0.26695	-0.857
Mof_O 	O 	0.3684	0.8605	0.0775	-1.263
Mof_O 	O 	0.5748	0.00526	0.82527	-1.091
Mof_O 	O 	0.583	0.8352	0.1293	-0.818
Mof_O 	O 	0.4252	0.99474	0.17473	-1.091
_end
