# CIF file generated by openbabel 3.1.0, see https://openbabel.org
data_I
_chemical_name_common 'image0'
_cell_length_a 10.7045
_cell_length_b 34.7385
_cell_length_c 17.986
_cell_angle_alpha 90
_cell_angle_beta 101.069
_cell_angle_gamma 90
_space_group_name_H-M_alt 'P 1'
_space_group_name_Hall 'P 1'
loop_
    _symmetry_equiv_pos_as_xyz
    x,y,z
loop_
    _atom_site_label
    _atom_site_type_symbol
    _atom_site_fract_x
    _atom_site_fract_y
    _atom_site_fract_z
    _atom_site_occupancy
    Ba1      Ba       0.03389    0.22930    0.15133    1.000
    Ba2      Ba       0.70628    0.27886    0.99206    1.000
    Ba3      Ba       0.23274    0.26738    0.37111    1.000
    O1       O        0.02400    0.31897    0.35651    1.000
    O2       O        0.99300    0.27735    0.26170    1.000
    O3       O        0.54610    0.28454    0.08976    1.000
    O4       O        0.41300    0.32165    0.13510    1.000
    O5       O        0.82140    0.69068    0.36920    1.000
    O6       O        0.65020    0.69839    0.28150    1.000
    O7       O        0.91640    0.29859    0.08591    1.000
    O8       O        0.12520    0.29695    0.09494    1.000
    O9       O        0.68940    0.66499    0.09220    1.000
    O10      O        0.78900    0.72092    0.10610    1.000
    O11      O        0.26470    0.72018    0.09018    1.000
    O12      O        0.36550    0.66970    0.14590    1.000
    H1       H        0.92610    0.18600    0.99740    1.000
    O13      O        0.47010    0.74450    0.55830    1.000
    C1       C        0.52420    0.62400    0.43750    1.000
    H2       H        0.54090    0.61050    0.39440    1.000
    C2       C        0.52400    0.66380    0.43810    1.000
    H3       H        0.54060    0.67740    0.39520    1.000
    O14      O        0.26200    0.31946    0.49410    1.000
    O15      O        0.17420    0.37506    0.52080    1.000
    O16      O        0.30630    0.26562    0.23330    1.000
    H4       H        0.32260    0.29150    0.21410    1.000
    C3       C        0.96100    0.30651    0.29490    1.000
    C4       C        0.84160    0.32767    0.26110    1.000
    C5       C        0.83010    0.36670    0.27830    1.000
    H5       H        0.89740    0.37880    0.31250    1.000
    C6       C        0.72450    0.38825    0.24720    1.000
    C7       C        0.62340    0.36875    0.20120    1.000
    H6       H        0.54670    0.38220    0.18210    1.000
    C8       C        0.63360    0.33013    0.18330    1.000
    C9       C        0.74420    0.30995    0.21020    1.000
    H7       H        0.75360    0.28420    0.19420    1.000
    C10      C        0.52250    0.31099    0.13210    1.000
    C11      C        0.71930    0.43015    0.25950    1.000
    C12      C        0.79000    0.44793    0.32310    1.000
    H8       H        0.83930    0.43250    0.36150    1.000
    C13      C        0.79040    0.48799    0.33190    1.000
    H9       H        0.84080    0.49920    0.37580    1.000
    C14      C        0.71850    0.51150    0.27760    1.000
    C15      C        0.64530    0.49396    0.21430    1.000
    H10      H        0.59420    0.50940    0.17670    1.000
    C16      C        0.64590    0.45415    0.20530    1.000
    H11      H        0.59540    0.44300    0.16140    1.000
    C17      C        0.72260    0.55398    0.28620    1.000
    C18      C        0.82500    0.57218    0.33170    1.000
    H12      H        0.89360    0.55700    0.35750    1.000
    C19      C        0.83060    0.61180    0.34070    1.000
    H13      H        0.90250    0.62340    0.37180    1.000
    C20      C        0.73110    0.63432    0.30450    1.000
    C21      C        0.62970    0.61750    0.25790    1.000
    H14      H        0.56240    0.63300    0.23140    1.000
    C22      C        0.62550    0.57770    0.24930    1.000
    H15      H        0.55410    0.56640    0.21720    1.000
    C23      C        0.73590    0.67696    0.31860    1.000
    C24      C        0.02350    0.31472    0.09400    1.000
    C25      C        0.03000    0.35796    0.10440    1.000
    C26      C        0.91840    0.37913    0.10510    1.000
    H16      H        0.83900    0.36630    0.10100    1.000
    C27      C        0.92510    0.41835    0.11190    1.000
    H17      H        0.84970    0.43250    0.11360    1.000
    C28      C        0.03920    0.43796    0.11630    1.000
    C29      C        0.15000    0.41645    0.11760    1.000
    H18      H        0.22970    0.42920    0.12290    1.000
    C30      C        0.14480    0.37702    0.11150    1.000
    H19      H        0.22080    0.36280    0.11220    1.000
    C31      C        0.04170    0.48046    0.11910    1.000
    C32      C        0.95990    0.50121    0.15640    1.000
    H20      H        0.90550    0.48770    0.18330    1.000
    C33      C        0.95640    0.54106    0.15490    1.000
    H21      H        0.89900    0.55440    0.18000    1.000
    C34      C        0.03520    0.56159    0.11730    1.000
    C35      C        0.11800    0.54136    0.08040    1.000
    H22      H        0.17270    0.55500    0.05400    1.000
    C36      C        0.12100    0.50145    0.08200    1.000
    H23      H        0.17880    0.48820    0.05710    1.000
    C37      C        0.78910    0.68450    0.10060    1.000
    C38      C        0.91430    0.66470    0.10500    1.000
    C39      C        0.91780    0.62480    0.10940    1.000
    H24      H        0.84140    0.61100    0.10960    1.000
    C40      C        0.03260    0.60457    0.11340    1.000
    C41      C        0.14330    0.62586    0.11650    1.000
    H25      H        0.22240    0.61270    0.12300    1.000
    C42      C        0.14250    0.66556    0.11040    1.000
    C43      C        0.26680    0.68656    0.11520    1.000
    C44      C        0.02630    0.68501    0.10460    1.000
    H26      H        0.02400    0.71230    0.10040    1.000
    C45      C        0.38890    0.37664    0.50500    1.000
    C46      C        0.26760    0.35545    0.50680    1.000
    C47      C        0.39070    0.41601    0.50650    1.000
    H27      H        0.31560    0.42940    0.51220    1.000
    C48      C        0.56870    0.50012    0.45500    1.000
    H28      H        0.61650    0.48680    0.42370    1.000
    C49      C        0.56810    0.53995    0.45530    1.000
    H29      H        0.61560    0.55340    0.42410    1.000
    O17      O        0.41760    0.74420    0.53000    1.000
    C50      C        0.59080    0.62400    0.47120    1.000
    H30      H        0.65410    0.61050    0.45120    1.000
    C51      C        0.59060    0.66380    0.47130    1.000
    H31      H        0.65380    0.67740    0.45130    1.000
    Ba4      Ba       0.53389    0.72930    0.15133    1.000
    Ba5      Ba       0.20628    0.77886    0.99206    1.000
    Ba6      Ba       0.73274    0.76738    0.37111    1.000
    O18      O        0.52400    0.81897    0.35651    1.000
    O19      O        0.49300    0.77735    0.26170    1.000
    O20      O        0.04610    0.78454    0.08976    1.000
    O21      O        0.91300    0.82165    0.13510    1.000
    O22      O        0.32140    0.19068    0.36920    1.000
    O23      O        0.15020    0.19839    0.28150    1.000
    O24      O        0.41640    0.79859    0.08591    1.000
    O25      O        0.62520    0.79695    0.09494    1.000
    O26      O        0.18940    0.16499    0.09220    1.000
    O27      O        0.28900    0.22092    0.10610    1.000
    O28      O        0.76470    0.22018    0.09018    1.000
    O29      O        0.86550    0.16970    0.14590    1.000
    H32      H        0.42610    0.68600    0.99740    1.000
    O30      O        0.97010    0.24450    0.55830    1.000
    C52      C        0.02420    0.12400    0.43750    1.000
    H33      H        0.04090    0.11050    0.39440    1.000
    C53      C        0.02400    0.16380    0.43810    1.000
    H34      H        0.04060    0.17740    0.39520    1.000
    O31      O        0.76200    0.81946    0.49410    1.000
    O32      O        0.67420    0.87506    0.52080    1.000
    O33      O        0.80630    0.76562    0.23330    1.000
    H35      H        0.82260    0.79150    0.21410    1.000
    C54      C        0.46100    0.80651    0.29490    1.000
    C55      C        0.34160    0.82767    0.26110    1.000
    C56      C        0.33010    0.86670    0.27830    1.000
    H36      H        0.39740    0.87880    0.31250    1.000
    C57      C        0.22450    0.88825    0.24720    1.000
    C58      C        0.12340    0.86875    0.20120    1.000
    H37      H        0.04670    0.88220    0.18210    1.000
    C59      C        0.13360    0.83013    0.18330    1.000
    C60      C        0.24420    0.80995    0.21020    1.000
    H38      H        0.25360    0.78420    0.19420    1.000
    C61      C        0.02250    0.81099    0.13210    1.000
    C62      C        0.21930    0.93015    0.25950    1.000
    C63      C        0.29000    0.94793    0.32310    1.000
    H39      H        0.33930    0.93250    0.36150    1.000
    C64      C        0.29040    0.98799    0.33190    1.000
    H40      H        0.34080    0.99920    0.37580    1.000
    C65      C        0.21850    0.01150    0.27760    1.000
    C66      C        0.14530    0.99396    0.21430    1.000
    H41      H        0.09420    0.00940    0.17670    1.000
    C67      C        0.14590    0.95415    0.20530    1.000
    H42      H        0.09540    0.94300    0.16140    1.000
    C68      C        0.22260    0.05398    0.28620    1.000
    C69      C        0.32500    0.07218    0.33170    1.000
    H43      H        0.39360    0.05700    0.35750    1.000
    C70      C        0.33060    0.11180    0.34070    1.000
    H44      H        0.40250    0.12340    0.37180    1.000
    C71      C        0.23110    0.13432    0.30450    1.000
    C72      C        0.12970    0.11750    0.25790    1.000
    H45      H        0.06240    0.13300    0.23140    1.000
    C73      C        0.12550    0.07770    0.24930    1.000
    H46      H        0.05410    0.06640    0.21720    1.000
    C74      C        0.23590    0.17696    0.31860    1.000
    C75      C        0.52350    0.81472    0.09400    1.000
    C76      C        0.53000    0.85796    0.10440    1.000
    C77      C        0.41840    0.87913    0.10510    1.000
    H47      H        0.33900    0.86630    0.10100    1.000
    C78      C        0.42510    0.91835    0.11190    1.000
    H48      H        0.34970    0.93250    0.11360    1.000
    C79      C        0.53920    0.93796    0.11630    1.000
    C80      C        0.65000    0.91645    0.11760    1.000
    H49      H        0.72970    0.92920    0.12290    1.000
    C81      C        0.64480    0.87702    0.11150    1.000
    H50      H        0.72080    0.86280    0.11220    1.000
    C82      C        0.54170    0.98046    0.11910    1.000
    C83      C        0.45990    0.00121    0.15640    1.000
    H51      H        0.40550    0.98770    0.18330    1.000
    C84      C        0.45640    0.04106    0.15490    1.000
    H52      H        0.39900    0.05440    0.18000    1.000
    C85      C        0.53520    0.06159    0.11730    1.000
    C86      C        0.61800    0.04136    0.08040    1.000
    H53      H        0.67270    0.05500    0.05400    1.000
    C87      C        0.62100    0.00145    0.08200    1.000
    H54      H        0.67880    0.98820    0.05710    1.000
    C88      C        0.28910    0.18450    0.10060    1.000
    C89      C        0.41430    0.16470    0.10500    1.000
    C90      C        0.41780    0.12480    0.10940    1.000
    H55      H        0.34140    0.11100    0.10960    1.000
    C91      C        0.53260    0.10457    0.11340    1.000
    C92      C        0.64330    0.12586    0.11650    1.000
    H56      H        0.72240    0.11270    0.12300    1.000
    C93      C        0.64250    0.16556    0.11040    1.000
    C94      C        0.76680    0.18656    0.11520    1.000
    C95      C        0.52630    0.18501    0.10460    1.000
    H57      H        0.52400    0.21230    0.10040    1.000
    C96      C        0.88890    0.87664    0.50500    1.000
    C97      C        0.76760    0.85545    0.50680    1.000
    C98      C        0.89070    0.91601    0.50650    1.000
    H58      H        0.81560    0.92940    0.51220    1.000
    C99      C        0.06870    0.00012    0.45500    1.000
    H59      H        0.11650    0.98680    0.42370    1.000
    C100     C        0.06810    0.03995    0.45530    1.000
    H60      H        0.11560    0.05340    0.42410    1.000
    O34      O        0.91760    0.24420    0.53000    1.000
    C101     C        0.09080    0.12400    0.47120    1.000
    H61      H        0.15410    0.11050    0.45120    1.000
    C102     C        0.09060    0.16380    0.47130    1.000
    H62      H        0.15380    0.17740    0.45130    1.000
    Ba7      Ba       0.96611    0.22930    0.84867    1.000
    Ba8      Ba       0.29372    0.27886    0.00794    1.000
    Ba9      Ba       0.76726    0.26738    0.62889    1.000
    O35      O        0.97600    0.31897    0.64349    1.000
    O36      O        0.00700    0.27735    0.73830    1.000
    O37      O        0.45390    0.28454    0.91024    1.000
    O38      O        0.58700    0.32165    0.86490    1.000
    O39      O        0.17860    0.69068    0.63080    1.000
    O40      O        0.34980    0.69839    0.71850    1.000
    O41      O        0.08360    0.29859    0.91409    1.000
    O42      O        0.87480    0.29695    0.90506    1.000
    O43      O        0.31060    0.66499    0.90780    1.000
    O44      O        0.21100    0.72092    0.89390    1.000
    O45      O        0.73530    0.72018    0.90982    1.000
    O46      O        0.63450    0.66970    0.85410    1.000
    H63      H        0.07390    0.18600    0.00260    1.000
    O47      O        0.52990    0.74450    0.44170    1.000
    C103     C        0.47580    0.62400    0.56250    1.000
    H64      H        0.45910    0.61050    0.60560    1.000
    C104     C        0.47600    0.66380    0.56190    1.000
    H65      H        0.45940    0.67740    0.60480    1.000
    O48      O        0.73800    0.31946    0.50590    1.000
    O49      O        0.82580    0.37506    0.47920    1.000
    O50      O        0.69370    0.26562    0.76670    1.000
    H66      H        0.67740    0.29150    0.78590    1.000
    C105     C        0.03900    0.30651    0.70510    1.000
    C106     C        0.15840    0.32767    0.73890    1.000
    C107     C        0.16990    0.36670    0.72170    1.000
    H67      H        0.10260    0.37880    0.68750    1.000
    C108     C        0.27550    0.38825    0.75280    1.000
    C109     C        0.37660    0.36875    0.79880    1.000
    H68      H        0.45330    0.38220    0.81790    1.000
    C110     C        0.36640    0.33013    0.81670    1.000
    C111     C        0.25580    0.30995    0.78980    1.000
    H69      H        0.24640    0.28420    0.80580    1.000
    C112     C        0.47750    0.31099    0.86790    1.000
    C113     C        0.28070    0.43015    0.74050    1.000
    C114     C        0.21000    0.44793    0.67690    1.000
    H70      H        0.16070    0.43250    0.63850    1.000
    C115     C        0.20960    0.48799    0.66810    1.000
    H71      H        0.15920    0.49920    0.62420    1.000
    C116     C        0.28150    0.51150    0.72240    1.000
    C117     C        0.35470    0.49396    0.78570    1.000
    H72      H        0.40580    0.50940    0.82330    1.000
    C118     C        0.35410    0.45415    0.79470    1.000
    H73      H        0.40460    0.44300    0.83860    1.000
    C119     C        0.27740    0.55398    0.71380    1.000
    C120     C        0.17500    0.57218    0.66830    1.000
    H74      H        0.10640    0.55700    0.64250    1.000
    C121     C        0.16940    0.61180    0.65930    1.000
    H75      H        0.09750    0.62340    0.62820    1.000
    C122     C        0.26890    0.63432    0.69550    1.000
    C123     C        0.37030    0.61750    0.74210    1.000
    H76      H        0.43760    0.63300    0.76860    1.000
    C124     C        0.37450    0.57770    0.75070    1.000
    H77      H        0.44590    0.56640    0.78280    1.000
    C125     C        0.26410    0.67696    0.68140    1.000
    C126     C        0.97650    0.31472    0.90600    1.000
    C127     C        0.97000    0.35796    0.89560    1.000
    C128     C        0.08160    0.37913    0.89490    1.000
    H78      H        0.16100    0.36630    0.89900    1.000
    C129     C        0.07490    0.41835    0.88810    1.000
    H79      H        0.15030    0.43250    0.88640    1.000
    C130     C        0.96080    0.43796    0.88370    1.000
    C131     C        0.85000    0.41645    0.88240    1.000
    H80      H        0.77030    0.42920    0.87710    1.000
    C132     C        0.85520    0.37702    0.88850    1.000
    H81      H        0.77920    0.36280    0.88780    1.000
    C133     C        0.95830    0.48046    0.88090    1.000
    C134     C        0.04010    0.50121    0.84360    1.000
    H82      H        0.09450    0.48770    0.81670    1.000
    C135     C        0.04360    0.54106    0.84510    1.000
    H83      H        0.10100    0.55440    0.82000    1.000
    C136     C        0.96480    0.56159    0.88270    1.000
    C137     C        0.88200    0.54136    0.91960    1.000
    H84      H        0.82730    0.55500    0.94600    1.000
    C138     C        0.87900    0.50145    0.91800    1.000
    H85      H        0.82120    0.48820    0.94290    1.000
    C139     C        0.21090    0.68450    0.89940    1.000
    C140     C        0.08570    0.66470    0.89500    1.000
    C141     C        0.08220    0.62480    0.89060    1.000
    H86      H        0.15860    0.61100    0.89040    1.000
    C142     C        0.96740    0.60457    0.88660    1.000
    C143     C        0.85670    0.62586    0.88350    1.000
    H87      H        0.77760    0.61270    0.87700    1.000
    C144     C        0.85750    0.66556    0.88960    1.000
    C145     C        0.73320    0.68656    0.88480    1.000
    C146     C        0.97370    0.68501    0.89540    1.000
    H88      H        0.97600    0.71230    0.89960    1.000
    C147     C        0.61110    0.37664    0.49500    1.000
    C148     C        0.73240    0.35545    0.49320    1.000
    C149     C        0.60930    0.41601    0.49350    1.000
    H89      H        0.68440    0.42940    0.48780    1.000
    C150     C        0.43130    0.50012    0.54500    1.000
    H90      H        0.38350    0.48680    0.57630    1.000
    C151     C        0.43190    0.53995    0.54470    1.000
    H91      H        0.38440    0.55340    0.57590    1.000
    O51      O        0.58240    0.74420    0.47000    1.000
    C152     C        0.40920    0.62400    0.52880    1.000
    H92      H        0.34590    0.61050    0.54880    1.000
    C153     C        0.40940    0.66380    0.52870    1.000
    H93      H        0.34620    0.67740    0.54870    1.000
    Ba10     Ba       0.46611    0.72930    0.84867    1.000
    Ba11     Ba       0.79372    0.77886    0.00794    1.000
    Ba12     Ba       0.26726    0.76738    0.62889    1.000
    O52      O        0.47600    0.81897    0.64349    1.000
    O53      O        0.50700    0.77735    0.73830    1.000
    O54      O        0.95390    0.78454    0.91024    1.000
    O55      O        0.08700    0.82165    0.86490    1.000
    O56      O        0.67860    0.19068    0.63080    1.000
    O57      O        0.84980    0.19839    0.71850    1.000
    O58      O        0.58360    0.79859    0.91409    1.000
    O59      O        0.37480    0.79695    0.90506    1.000
    O60      O        0.81060    0.16499    0.90780    1.000
    O61      O        0.71100    0.22092    0.89390    1.000
    O62      O        0.23530    0.22018    0.90982    1.000
    O63      O        0.13450    0.16970    0.85410    1.000
    H94      H        0.57390    0.68600    0.00260    1.000
    O64      O        0.02990    0.24450    0.44170    1.000
    C154     C        0.97580    0.12400    0.56250    1.000
    H95      H        0.95910    0.11050    0.60560    1.000
    C155     C        0.97600    0.16380    0.56190    1.000
    H96      H        0.95940    0.17740    0.60480    1.000
    O65      O        0.23800    0.81946    0.50590    1.000
    O66      O        0.32580    0.87506    0.47920    1.000
    O67      O        0.19370    0.76562    0.76670    1.000
    H97      H        0.17740    0.79150    0.78590    1.000
    C156     C        0.53900    0.80651    0.70510    1.000
    C157     C        0.65840    0.82767    0.73890    1.000
    C158     C        0.66990    0.86670    0.72170    1.000
    H98      H        0.60260    0.87880    0.68750    1.000
    C159     C        0.77550    0.88825    0.75280    1.000
    C160     C        0.87660    0.86875    0.79880    1.000
    H99      H        0.95330    0.88220    0.81790    1.000
    C161     C        0.86640    0.83013    0.81670    1.000
    C162     C        0.75580    0.80995    0.78980    1.000
    H100     H        0.74640    0.78420    0.80580    1.000
    C163     C        0.97750    0.81099    0.86790    1.000
    C164     C        0.78070    0.93015    0.74050    1.000
    C165     C        0.71000    0.94793    0.67690    1.000
    H101     H        0.66070    0.93250    0.63850    1.000
    C166     C        0.70960    0.98799    0.66810    1.000
    H102     H        0.65920    0.99920    0.62420    1.000
    C167     C        0.78150    0.01150    0.72240    1.000
    C168     C        0.85470    0.99396    0.78570    1.000
    H103     H        0.90580    0.00940    0.82330    1.000
    C169     C        0.85410    0.95415    0.79470    1.000
    H104     H        0.90460    0.94300    0.83860    1.000
    C170     C        0.77740    0.05398    0.71380    1.000
    C171     C        0.67500    0.07218    0.66830    1.000
    H105     H        0.60640    0.05700    0.64250    1.000
    C172     C        0.66940    0.11180    0.65930    1.000
    H106     H        0.59750    0.12340    0.62820    1.000
    C173     C        0.76890    0.13432    0.69550    1.000
    C174     C        0.87030    0.11750    0.74210    1.000
    H107     H        0.93760    0.13300    0.76860    1.000
    C175     C        0.87450    0.07770    0.75070    1.000
    H108     H        0.94590    0.06640    0.78280    1.000
    C176     C        0.76410    0.17696    0.68140    1.000
    C177     C        0.47650    0.81472    0.90600    1.000
    C178     C        0.47000    0.85796    0.89560    1.000
    C179     C        0.58160    0.87913    0.89490    1.000
    H109     H        0.66100    0.86630    0.89900    1.000
    C180     C        0.57490    0.91835    0.88810    1.000
    H110     H        0.65030    0.93250    0.88640    1.000
    C181     C        0.46080    0.93796    0.88370    1.000
    C182     C        0.35000    0.91645    0.88240    1.000
    H111     H        0.27030    0.92920    0.87710    1.000
    C183     C        0.35520    0.87702    0.88850    1.000
    H112     H        0.27920    0.86280    0.88780    1.000
    C184     C        0.45830    0.98046    0.88090    1.000
    C185     C        0.54010    0.00121    0.84360    1.000
    H113     H        0.59450    0.98770    0.81670    1.000
    C186     C        0.54360    0.04106    0.84510    1.000
    H114     H        0.60100    0.05440    0.82000    1.000
    C187     C        0.46480    0.06159    0.88270    1.000
    C188     C        0.38200    0.04136    0.91960    1.000
    H115     H        0.32730    0.05500    0.94600    1.000
    C189     C        0.37900    0.00145    0.91800    1.000
    H116     H        0.32120    0.98820    0.94290    1.000
    C190     C        0.71090    0.18450    0.89940    1.000
    C191     C        0.58570    0.16470    0.89500    1.000
    C192     C        0.58220    0.12480    0.89060    1.000
    H117     H        0.65860    0.11100    0.89040    1.000
    C193     C        0.46740    0.10457    0.88660    1.000
    C194     C        0.35670    0.12586    0.88350    1.000
    H118     H        0.27760    0.11270    0.87700    1.000
    C195     C        0.35750    0.16556    0.88960    1.000
    C196     C        0.23320    0.18656    0.88480    1.000
    C197     C        0.47370    0.18501    0.89540    1.000
    H119     H        0.47600    0.21230    0.89960    1.000
    C198     C        0.11110    0.87664    0.49500    1.000
    C199     C        0.23240    0.85545    0.49320    1.000
    C200     C        0.10930    0.91601    0.49350    1.000
    H120     H        0.18440    0.92940    0.48780    1.000
    C201     C        0.93130    0.00012    0.54500    1.000
    H121     H        0.88350    0.98680    0.57630    1.000
    C202     C        0.93190    0.03995    0.54470    1.000
    H122     H        0.88440    0.05340    0.57590    1.000
    O68      O        0.08240    0.24420    0.47000    1.000
    C203     C        0.90920    0.12400    0.52880    1.000
    H123     H        0.84590    0.11050    0.54880    1.000
    C204     C        0.90940    0.16380    0.52870    1.000
    H124     H        0.84620    0.17740    0.54870    1.000
    La1      La       0.00000    0.31756    0.50000    1.000
    La2      La       0.50000    0.81756    0.50000    1.000
    O69      O        0.00000    0.20349    0.00000    1.000
    O70      O        0.50000    0.70349    0.00000    1.000
    C205     C        0.50000    0.68391    0.50000    1.000
    C206     C        0.50000    0.72760    0.50000    1.000
    C207     C        0.50000    0.35636    0.50000    1.000
    H125     H        0.50000    0.32900    0.50000    1.000
    C208     C        0.50000    0.43760    0.50000    1.000
    C209     C        0.50000    0.47925    0.50000    1.000
    C210     C        0.50000    0.56070    0.50000    1.000
    C211     C        0.50000    0.60343    0.50000    1.000
    C212     C        0.00000    0.18391    0.50000    1.000
    C213     C        0.00000    0.22760    0.50000    1.000
    C214     C        0.00000    0.85636    0.50000    1.000
    H126     H        0.00000    0.82900    0.50000    1.000
    C215     C        0.00000    0.93760    0.50000    1.000
    C216     C        0.00000    0.97925    0.50000    1.000
    C217     C        0.00000    0.06070    0.50000    1.000
    C218     C        0.00000    0.10343    0.50000    1.000
