# CIF file generated by openbabel 3.1.0, see https://openbabel.org
data_I
_chemical_name_common 'RUWWUC_clean'
_cell_length_a 9.48
_cell_length_b 9.968
_cell_length_c 11.255
_cell_angle_alpha 92.329
_cell_angle_beta 98.804
_cell_angle_gamma 110.796
_space_group_name_H-M_alt 'P 1'
_space_group_name_Hall 'P 1'
loop_
    _symmetry_equiv_pos_as_xyz
    x,y,z
loop_
    _atom_site_label
    _atom_site_type_symbol
    _atom_site_fract_x
    _atom_site_fract_y
    _atom_site_fract_z
    _atom_site_occupancy
    La1      La       0.71630    0.95561    0.01522    1.000
    La2      La       0.28370    0.04439    0.98478    1.000
    H1       H        0.67600    0.50570    0.95780    1.000
    H2       H        0.80280    0.21950    0.78360    1.000
    H3       H        0.07980    0.63630    0.84100    1.000
    H4       H        0.83690    0.41280    0.56960    1.000
    H5       H        0.74950    0.29070    0.37670    1.000
    H6       H        0.06120    0.10380    0.43420    1.000
    H7       H        0.15080    0.22560    0.62710    1.000
    H8       H        0.76800    0.86700    0.79100    1.000
    H9       H        0.90600    0.98700    0.79600    1.000
    H10      H        0.32400    0.49430    0.04220    1.000
    H11      H        0.19720    0.78050    0.21640    1.000
    H12      H        0.92020    0.36370    0.15900    1.000
    H13      H        0.16310    0.58720    0.43040    1.000
    H14      H        0.25050    0.70930    0.62330    1.000
    H15      H        0.93880    0.89620    0.56580    1.000
    H16      H        0.84920    0.77440    0.37290    1.000
    H17      H        0.23200    0.13300    0.20900    1.000
    H18      H        0.09400    0.01300    0.20400    1.000
    C1       C        0.92400    0.74370    0.97050    1.000
    C2       C        0.88520    0.59350    0.91200    1.000
    C3       C        0.74770    0.48490    0.92020    1.000
    C4       C        0.71750    0.34470    0.87210    1.000
    C5       C        0.57320    0.22770    0.89120    1.000
    C6       C        0.82090    0.31400    0.81230    1.000
    C7       C        0.95170    0.42530    0.79530    1.000
    C8       C        0.98800    0.56370    0.84800    1.000
    C9       C        0.99940    0.32770    0.61740    1.000
    C10      C        0.88090    0.35000    0.54300    1.000
    C11      C        0.82900    0.27670    0.42770    1.000
    C12      C        0.89480    0.18250    0.38760    1.000
    C13      C        0.83150    0.09640    0.26460    1.000
    C14      C        0.01550    0.16470    0.46170    1.000
    C15      C        0.06920    0.23730    0.57720    1.000
    C16      C        0.07600    0.25630    0.02950    1.000
    C17      C        0.11480    0.40650    0.08800    1.000
    C18      C        0.25230    0.51510    0.07980    1.000
    C19      C        0.28250    0.65530    0.12790    1.000
    C20      C        0.42680    0.77230    0.10880    1.000
    C21      C        0.17910    0.68600    0.18770    1.000
    C22      C        0.04830    0.57470    0.20470    1.000
    C23      C        0.01200    0.43630    0.15200    1.000
    C24      C        0.00060    0.67230    0.38260    1.000
    C25      C        0.11910    0.65000    0.45700    1.000
    C26      C        0.17100    0.72330    0.57230    1.000
    C27      C        0.10520    0.81750    0.61240    1.000
    C28      C        0.16850    0.90360    0.73540    1.000
    C29      C        0.98450    0.83530    0.53830    1.000
    C30      C        0.93080    0.76270    0.42280    1.000
    O1       O        0.81780    0.76620    0.01570    1.000
    O2       O        0.05190    0.83490    0.97290    1.000
    O3       O        0.45060    0.25160    0.87980    1.000
    O4       O        0.57690    0.10570    0.91950    1.000
    O5       O        0.05670    0.39750    0.73360    1.000
    O6       O        0.72190    0.11760    0.19760    1.000
    O7       O        0.88680    0.00680    0.23200    1.000
    O8       O        0.81160    0.96010    0.80860    1.000
    O9       O        0.18220    0.23380    0.98430    1.000
    O10      O        0.94810    0.16510    0.02710    1.000
    O11      O        0.54940    0.74840    0.12020    1.000
    O12      O        0.42310    0.89430    0.08050    1.000
    O13      O        0.94330    0.60250    0.26640    1.000
    O14      O        0.27810    0.88240    0.80240    1.000
    O15      O        0.11320    0.99320    0.76800    1.000
    O16      O        0.18840    0.03990    0.19140    1.000
