# CIF file generated by openbabel 3.1.0, see https://openbabel.org
data_I
_chemical_name_common 'image0'
_cell_length_a 26.664
_cell_length_b 20.022
_cell_length_c 12.937
_cell_angle_alpha 90
_cell_angle_beta 90
_cell_angle_gamma 90
_space_group_name_H-M_alt 'P 1'
_space_group_name_Hall 'P 1'
loop_
    _symmetry_equiv_pos_as_xyz
    x,y,z
loop_
    _atom_site_label
    _atom_site_type_symbol
    _atom_site_fract_x
    _atom_site_fract_y
    _atom_site_fract_z
    _atom_site_occupancy
    W1       W        0.15487    0.16719    0.96933    1.000
    W2       W        0.26672    0.16822    0.12835    1.000
    W3       W        0.26635    0.07766    0.88591    1.000
    W4       W        0.36799    0.15892    0.81162    1.000
    W5       W        0.26645    0.15955    0.66603    1.000
    Ag1      Ag       0.25710    0.10590    0.39080    1.000
    O1       O        0.28180    0.18840    0.84110    1.000
    O2       O        0.25640    0.07810    0.74370    1.000
    O3       O        0.37820    0.18380    0.95320    1.000
    O4       O        0.33750    0.18450    0.14000    1.000
    O5       O        0.20000    0.17140    0.07850    1.000
    O6       O        0.12600    0.18480    0.83530    1.000
    O7       O        0.20060    0.31450    0.69670    1.000
    O8       O        0.33770    0.14600    0.68110    1.000
    O9       O        0.33720    0.07870    0.85590    1.000
    O10      O        0.27980    0.10570    0.02310    1.000
    O11      O        0.26080    0.11620    0.23400    1.000
    O12      O        0.19890    0.10720    0.90260    1.000
    O13      O        0.25890    0.12610    0.54750    1.000
    N1       N        0.33540    0.07830    0.39400    1.000
    N2       N        0.68410    0.12080    0.11500    1.000
    N3       N        0.41540    0.07050    0.36070    1.000
    N4       N        0.59850    0.11870    0.15600    1.000
    C1       C        0.37030    0.09870    0.33200    1.000
    H1       H        0.36560    0.12790    0.27740    1.000
    C2       C        0.64620    0.09950    0.18200    1.000
    H2       H        0.65300    0.07400    0.24020    1.000
    C3       C        0.65240    0.15670    0.03800    1.000
    H3       H        0.66560    0.17750    0.97970    1.000
    C4       C        0.50110    0.03400    0.31100    1.000
    H4       H        0.49570    0.99320    0.34390    1.000
    C5       C        0.46320    0.08140    0.30500    1.000
    C6       C        0.40610    0.03550    0.44200    1.000
    H5       H        0.42960    0.01120    0.47930    1.000
    C7       C        0.35810    0.03960    0.46300    1.000
    H6       H        0.34240    0.01850    0.51870    1.000
    C8       C        0.47050    0.13980    0.25000    1.000
    H7       H        0.44500    0.17120    0.24370    1.000
    C9       C        0.51510    0.14900    0.20800    1.000
    H8       H        0.52000    0.18910    0.17210    1.000
    C10      C        0.60360    0.15640    0.06000    1.000
    H9       H        0.57800    0.17610    0.02180    1.000
    C11      C        0.55540    0.10540    0.21300    1.000
    C12      C        0.54600    0.04840    0.26700    1.000
    H10      H        0.57200    0.01780    0.27500    1.000
    O14      O        0.25990    0.99210    0.90480    1.000
    W6       W        0.34513    0.83281    0.46933    1.000
    W7       W        0.23328    0.83178    0.62835    1.000
    W8       W        0.23365    0.92234    0.38591    1.000
    W9       W        0.13201    0.84108    0.31162    1.000
    W10      W        0.23355    0.84045    0.16603    1.000
    Ag2      Ag       0.24290    0.89410    0.89080    1.000
    O15      O        0.21820    0.81160    0.34110    1.000
    O16      O        0.24360    0.92190    0.24370    1.000
    O17      O        0.12180    0.81620    0.45320    1.000
    O18      O        0.16250    0.81550    0.64000    1.000
    O19      O        0.30000    0.82860    0.57850    1.000
    O20      O        0.37400    0.81520    0.33530    1.000
    O21      O        0.29940    0.68550    0.19670    1.000
    O22      O        0.16230    0.85400    0.18110    1.000
    O23      O        0.16280    0.92130    0.35590    1.000
    O24      O        0.22020    0.89430    0.52310    1.000
    O25      O        0.23920    0.88380    0.73400    1.000
    O26      O        0.30110    0.89280    0.40260    1.000
    O27      O        0.24110    0.87390    0.04750    1.000
    N5       N        0.16460    0.92170    0.89400    1.000
    N6       N        0.81590    0.87920    0.61500    1.000
    N7       N        0.08460    0.92950    0.86070    1.000
    N8       N        0.90150    0.88130    0.65600    1.000
    C13      C        0.12970    0.90130    0.83200    1.000
    H11      H        0.13440    0.87210    0.77740    1.000
    C14      C        0.85380    0.90050    0.68200    1.000
    H12      H        0.84700    0.92600    0.74020    1.000
    C15      C        0.84760    0.84330    0.53800    1.000
    H13      H        0.83440    0.82250    0.47970    1.000
    C16      C        0.99890    0.96600    0.81100    1.000
    H14      H        0.00430    0.00680    0.84390    1.000
    C17      C        0.03680    0.91860    0.80500    1.000
    C18      C        0.09390    0.96450    0.94200    1.000
    H15      H        0.07040    0.98880    0.97930    1.000
    C19      C        0.14190    0.96040    0.96300    1.000
    H16      H        0.15760    0.98150    0.01870    1.000
    C20      C        0.02950    0.86020    0.75000    1.000
    H17      H        0.05500    0.82880    0.74370    1.000
    C21      C        0.98490    0.85100    0.70800    1.000
    H18      H        0.98000    0.81090    0.67210    1.000
    C22      C        0.89640    0.84360    0.56000    1.000
    H19      H        0.92200    0.82390    0.52180    1.000
    C23      C        0.94460    0.89460    0.71300    1.000
    C24      C        0.95400    0.95160    0.76700    1.000
    H20      H        0.92800    0.98220    0.77500    1.000
    O28      O        0.24010    0.00790    0.40480    1.000
    W11      W        0.84513    0.66719    0.03067    1.000
    W12      W        0.73328    0.66822    0.87165    1.000
    W13      W        0.73365    0.57766    0.11409    1.000
    W14      W        0.63201    0.65892    0.18838    1.000
    W15      W        0.73355    0.65955    0.33397    1.000
    Ag3      Ag       0.74290    0.60590    0.60920    1.000
    O29      O        0.71820    0.68840    0.15890    1.000
    O30      O        0.74360    0.57810    0.25630    1.000
    O31      O        0.62180    0.68380    0.04680    1.000
    O32      O        0.66250    0.68450    0.86000    1.000
    O33      O        0.80000    0.67140    0.92150    1.000
    O34      O        0.87400    0.68480    0.16470    1.000
    O35      O        0.79940    0.81450    0.30330    1.000
    O36      O        0.66230    0.64600    0.31890    1.000
    O37      O        0.66280    0.57870    0.14410    1.000
    O38      O        0.72020    0.60570    0.97690    1.000
    O39      O        0.73920    0.61620    0.76600    1.000
    O40      O        0.80110    0.60720    0.09740    1.000
    O41      O        0.74110    0.62610    0.45250    1.000
    N9       N        0.66460    0.57830    0.60600    1.000
    N10      N        0.31590    0.62080    0.88500    1.000
    N11      N        0.58460    0.57050    0.63930    1.000
    N12      N        0.40150    0.61870    0.84400    1.000
    C25      C        0.62970    0.59870    0.66800    1.000
    H21      H        0.63440    0.62790    0.72260    1.000
    C26      C        0.35380    0.59950    0.81800    1.000
    H22      H        0.34700    0.57400    0.75980    1.000
    C27      C        0.34760    0.65670    0.96200    1.000
    H23      H        0.33440    0.67750    0.02030    1.000
    C28      C        0.49890    0.53400    0.68900    1.000
    H24      H        0.50430    0.49320    0.65610    1.000
    C29      C        0.53680    0.58140    0.69500    1.000
    C30      C        0.59390    0.53550    0.55800    1.000
    H25      H        0.57040    0.51120    0.52070    1.000
    C31      C        0.64190    0.53960    0.53700    1.000
    H26      H        0.65760    0.51850    0.48130    1.000
    C32      C        0.52950    0.63980    0.75000    1.000
    H27      H        0.55500    0.67120    0.75630    1.000
    C33      C        0.48490    0.64900    0.79200    1.000
    H28      H        0.48000    0.68910    0.82790    1.000
    C34      C        0.39640    0.65640    0.94000    1.000
    H29      H        0.42200    0.67610    0.97820    1.000
    C35      C        0.44460    0.60540    0.78700    1.000
    C36      C        0.45400    0.54840    0.73300    1.000
    H30      H        0.42800    0.51780    0.72500    1.000
    O42      O        0.74010    0.49210    0.09520    1.000
    W16      W        0.65487    0.33281    0.53067    1.000
    W17      W        0.76672    0.33178    0.37165    1.000
    W18      W        0.76635    0.42234    0.61409    1.000
    W19      W        0.86799    0.34108    0.68838    1.000
    W20      W        0.76645    0.34045    0.83397    1.000
    Ag4      Ag       0.75710    0.39410    0.10920    1.000
    O43      O        0.78180    0.31160    0.65890    1.000
    O44      O        0.75640    0.42190    0.75630    1.000
    O45      O        0.87820    0.31620    0.54680    1.000
    O46      O        0.83750    0.31550    0.36000    1.000
    O47      O        0.70000    0.32860    0.42150    1.000
    O48      O        0.62600    0.31520    0.66470    1.000
    O49      O        0.70060    0.18550    0.80330    1.000
    O50      O        0.83770    0.35400    0.81890    1.000
    O51      O        0.83720    0.42130    0.64410    1.000
    O52      O        0.77980    0.39430    0.47690    1.000
    O53      O        0.76080    0.38380    0.26600    1.000
    O54      O        0.69890    0.39280    0.59740    1.000
    O55      O        0.75890    0.37390    0.95250    1.000
    N13      N        0.83540    0.42170    0.10600    1.000
    N14      N        0.18410    0.37920    0.38500    1.000
    N15      N        0.91540    0.42950    0.13930    1.000
    N16      N        0.09850    0.38130    0.34400    1.000
    C37      C        0.87030    0.40130    0.16800    1.000
    H31      H        0.86560    0.37210    0.22260    1.000
    C38      C        0.14620    0.40050    0.31800    1.000
    H32      H        0.15300    0.42600    0.25980    1.000
    C39      C        0.15240    0.34330    0.46200    1.000
    H33      H        0.16560    0.32250    0.52030    1.000
    C40      C        0.00110    0.46600    0.18900    1.000
    H34      H        0.99570    0.50680    0.15610    1.000
    C41      C        0.96320    0.41860    0.19500    1.000
    C42      C        0.90610    0.46450    0.05800    1.000
    H35      H        0.92960    0.48880    0.02070    1.000
    C43      C        0.85810    0.46040    0.03700    1.000
    H36      H        0.84240    0.48150    0.98130    1.000
    C44      C        0.97050    0.36020    0.25000    1.000
    H37      H        0.94500    0.32880    0.25630    1.000
    C45      C        0.01510    0.35100    0.29200    1.000
    H38      H        0.02000    0.31090    0.32790    1.000
    C46      C        0.10360    0.34360    0.44000    1.000
    H39      H        0.07800    0.32390    0.47820    1.000
    C47      C        0.05540    0.39460    0.28700    1.000
    C48      C        0.04600    0.45160    0.23300    1.000
    H40      H        0.07200    0.48220    0.22500    1.000
    O56      O        0.75990    0.50790    0.59520    1.000
    W21      W        0.84513    0.83281    0.03067    1.000
    W22      W        0.73328    0.83178    0.87165    1.000
    W23      W        0.73365    0.92234    0.11409    1.000
    W24      W        0.63201    0.84108    0.18838    1.000
    W25      W        0.73355    0.84045    0.33397    1.000
    Ag5      Ag       0.74290    0.89410    0.60920    1.000
    O57      O        0.71820    0.81160    0.15890    1.000
    O58      O        0.74360    0.92190    0.25630    1.000
    O59      O        0.62180    0.81620    0.04680    1.000
    O60      O        0.66250    0.81550    0.86000    1.000
    O61      O        0.80000    0.82860    0.92150    1.000
    O62      O        0.87400    0.81520    0.16470    1.000
    O63      O        0.79940    0.68550    0.30330    1.000
    O64      O        0.66230    0.85400    0.31890    1.000
    O65      O        0.66280    0.92130    0.14410    1.000
    O66      O        0.72020    0.89430    0.97690    1.000
    O67      O        0.73920    0.88380    0.76600    1.000
    O68      O        0.80110    0.89280    0.09740    1.000
    O69      O        0.74110    0.87390    0.45250    1.000
    N17      N        0.66460    0.92170    0.60600    1.000
    N18      N        0.31590    0.87920    0.88500    1.000
    N19      N        0.58460    0.92950    0.63930    1.000
    N20      N        0.40150    0.88130    0.84400    1.000
    C49      C        0.62970    0.90130    0.66800    1.000
    H41      H        0.63440    0.87210    0.72260    1.000
    C50      C        0.35380    0.90050    0.81800    1.000
    H42      H        0.34700    0.92600    0.75980    1.000
    C51      C        0.34760    0.84330    0.96200    1.000
    H43      H        0.33440    0.82250    0.02030    1.000
    C52      C        0.49890    0.96600    0.68900    1.000
    H44      H        0.50430    0.00680    0.65610    1.000
    C53      C        0.53680    0.91860    0.69500    1.000
    C54      C        0.59390    0.96450    0.55800    1.000
    H45      H        0.57040    0.98880    0.52070    1.000
    C55      C        0.64190    0.96040    0.53700    1.000
    H46      H        0.65760    0.98150    0.48130    1.000
    C56      C        0.52950    0.86020    0.75000    1.000
    H47      H        0.55500    0.82880    0.75630    1.000
    C57      C        0.48490    0.85100    0.79200    1.000
    H48      H        0.48000    0.81090    0.82790    1.000
    C58      C        0.39640    0.84360    0.94000    1.000
    H49      H        0.42200    0.82390    0.97820    1.000
    C59      C        0.44460    0.89460    0.78700    1.000
    C60      C        0.45400    0.95160    0.73300    1.000
    H50      H        0.42800    0.98220    0.72500    1.000
    O70      O        0.74010    0.00790    0.09520    1.000
    W26      W        0.65487    0.16719    0.53067    1.000
    W27      W        0.76672    0.16822    0.37165    1.000
    W28      W        0.76635    0.07766    0.61409    1.000
    W29      W        0.86799    0.15892    0.68838    1.000
    W30      W        0.76645    0.15955    0.83397    1.000
    Ag6      Ag       0.75710    0.10590    0.10920    1.000
    O71      O        0.78180    0.18840    0.65890    1.000
    O72      O        0.75640    0.07810    0.75630    1.000
    O73      O        0.87820    0.18380    0.54680    1.000
    O74      O        0.83750    0.18450    0.36000    1.000
    O75      O        0.70000    0.17140    0.42150    1.000
    O76      O        0.62600    0.18480    0.66470    1.000
    O77      O        0.70060    0.31450    0.80330    1.000
    O78      O        0.83770    0.14600    0.81890    1.000
    O79      O        0.83720    0.07870    0.64410    1.000
    O80      O        0.77980    0.10570    0.47690    1.000
    O81      O        0.76080    0.11620    0.26600    1.000
    O82      O        0.69890    0.10720    0.59740    1.000
    O83      O        0.75890    0.12610    0.95250    1.000
    N21      N        0.83540    0.07830    0.10600    1.000
    N22      N        0.18410    0.12080    0.38500    1.000
    N23      N        0.91540    0.07050    0.13930    1.000
    N24      N        0.09850    0.11870    0.34400    1.000
    C61      C        0.87030    0.09870    0.16800    1.000
    H51      H        0.86560    0.12790    0.22260    1.000
    C62      C        0.14620    0.09950    0.31800    1.000
    H52      H        0.15300    0.07400    0.25980    1.000
    C63      C        0.15240    0.15670    0.46200    1.000
    H53      H        0.16560    0.17750    0.52030    1.000
    C64      C        0.00110    0.03400    0.18900    1.000
    H54      H        0.99570    0.99320    0.15610    1.000
    C65      C        0.96320    0.08140    0.19500    1.000
    C66      C        0.90610    0.03550    0.05800    1.000
    H55      H        0.92960    0.01120    0.02070    1.000
    C67      C        0.85810    0.03960    0.03700    1.000
    H56      H        0.84240    0.01850    0.98130    1.000
    C68      C        0.97050    0.13980    0.25000    1.000
    H57      H        0.94500    0.17120    0.25630    1.000
    C69      C        0.01510    0.14900    0.29200    1.000
    H58      H        0.02000    0.18910    0.32790    1.000
    C70      C        0.10360    0.15640    0.44000    1.000
    H59      H        0.07800    0.17610    0.47820    1.000
    C71      C        0.05540    0.10540    0.28700    1.000
    C72      C        0.04600    0.04840    0.23300    1.000
    H60      H        0.07200    0.01780    0.22500    1.000
    O84      O        0.75990    0.99210    0.59520    1.000
    W31      W        0.15487    0.33281    0.96933    1.000
    W32      W        0.26672    0.33178    0.12835    1.000
    W33      W        0.26635    0.42234    0.88591    1.000
    W34      W        0.36799    0.34108    0.81162    1.000
    W35      W        0.26645    0.34045    0.66603    1.000
    Ag7      Ag       0.25710    0.39410    0.39080    1.000
    O85      O        0.28180    0.31160    0.84110    1.000
    O86      O        0.25640    0.42190    0.74370    1.000
    O87      O        0.37820    0.31620    0.95320    1.000
    O88      O        0.33750    0.31550    0.14000    1.000
    O89      O        0.20000    0.32860    0.07850    1.000
    O90      O        0.12600    0.31520    0.83530    1.000
    O91      O        0.20060    0.18550    0.69670    1.000
    O92      O        0.33770    0.35400    0.68110    1.000
    O93      O        0.33720    0.42130    0.85590    1.000
    O94      O        0.27980    0.39430    0.02310    1.000
    O95      O        0.26080    0.38380    0.23400    1.000
    O96      O        0.19890    0.39280    0.90260    1.000
    O97      O        0.25890    0.37390    0.54750    1.000
    N25      N        0.33540    0.42170    0.39400    1.000
    N26      N        0.68410    0.37920    0.11500    1.000
    N27      N        0.41540    0.42950    0.36070    1.000
    N28      N        0.59850    0.38130    0.15600    1.000
    C73      C        0.37030    0.40130    0.33200    1.000
    H61      H        0.36560    0.37210    0.27740    1.000
    C74      C        0.64620    0.40050    0.18200    1.000
    H62      H        0.65300    0.42600    0.24020    1.000
    C75      C        0.65240    0.34330    0.03800    1.000
    H63      H        0.66560    0.32250    0.97970    1.000
    C76      C        0.50110    0.46600    0.31100    1.000
    H64      H        0.49570    0.50680    0.34390    1.000
    C77      C        0.46320    0.41860    0.30500    1.000
    C78      C        0.40610    0.46450    0.44200    1.000
    H65      H        0.42960    0.48880    0.47930    1.000
    C79      C        0.35810    0.46040    0.46300    1.000
    H66      H        0.34240    0.48150    0.51870    1.000
    C80      C        0.47050    0.36020    0.25000    1.000
    H67      H        0.44500    0.32880    0.24370    1.000
    C81      C        0.51510    0.35100    0.20800    1.000
    H68      H        0.52000    0.31090    0.17210    1.000
    C82      C        0.60360    0.34360    0.06000    1.000
    H69      H        0.57800    0.32390    0.02180    1.000
    C83      C        0.55540    0.39460    0.21300    1.000
    C84      C        0.54600    0.45160    0.26700    1.000
    H70      H        0.57200    0.48220    0.27500    1.000
    O98      O        0.25990    0.50790    0.90480    1.000
    W36      W        0.34513    0.66719    0.46933    1.000
    W37      W        0.23328    0.66822    0.62835    1.000
    W38      W        0.23365    0.57766    0.38591    1.000
    W39      W        0.13201    0.65892    0.31162    1.000
    W40      W        0.23355    0.65955    0.16603    1.000
    Ag8      Ag       0.24290    0.60590    0.89080    1.000
    O99      O        0.21820    0.68840    0.34110    1.000
    O100     O        0.24360    0.57810    0.24370    1.000
    O101     O        0.12180    0.68380    0.45320    1.000
    O102     O        0.16250    0.68450    0.64000    1.000
    O103     O        0.30000    0.67140    0.57850    1.000
    O104     O        0.37400    0.68480    0.33530    1.000
    O105     O        0.29940    0.81450    0.19670    1.000
    O106     O        0.16230    0.64600    0.18110    1.000
    O107     O        0.16280    0.57870    0.35590    1.000
    O108     O        0.22020    0.60570    0.52310    1.000
    O109     O        0.23920    0.61620    0.73400    1.000
    O110     O        0.30110    0.60720    0.40260    1.000
    O111     O        0.24110    0.62610    0.04750    1.000
    N29      N        0.16460    0.57830    0.89400    1.000
    N30      N        0.81590    0.62080    0.61500    1.000
    N31      N        0.08460    0.57050    0.86070    1.000
    N32      N        0.90150    0.61870    0.65600    1.000
    C85      C        0.12970    0.59870    0.83200    1.000
    H71      H        0.13440    0.62790    0.77740    1.000
    C86      C        0.85380    0.59950    0.68200    1.000
    H72      H        0.84700    0.57400    0.74020    1.000
    C87      C        0.84760    0.65670    0.53800    1.000
    H73      H        0.83440    0.67750    0.47970    1.000
    C88      C        0.99890    0.53400    0.81100    1.000
    H74      H        0.00430    0.49320    0.84390    1.000
    C89      C        0.03680    0.58140    0.80500    1.000
    C90      C        0.09390    0.53550    0.94200    1.000
    H75      H        0.07040    0.51120    0.97930    1.000
    C91      C        0.14190    0.53960    0.96300    1.000
    H76      H        0.15760    0.51850    0.01870    1.000
    C92      C        0.02950    0.63980    0.75000    1.000
    H77      H        0.05500    0.67120    0.74370    1.000
    C93      C        0.98490    0.64900    0.70800    1.000
    H78      H        0.98000    0.68910    0.67210    1.000
    C94      C        0.89640    0.65640    0.56000    1.000
    H79      H        0.92200    0.67610    0.52180    1.000
    C95      C        0.94460    0.60540    0.71300    1.000
    C96      C        0.95400    0.54840    0.76700    1.000
    H80      H        0.92800    0.51780    0.77500    1.000
    O112     O        0.24010    0.49210    0.40480    1.000
    W41      W        0.15469    0.25000    0.74765    1.000
    W42      W        0.36799    0.25000    0.05493    1.000
    O113     O        0.20750    0.25000    0.89460    1.000
    O114     O        0.37630    0.25000    0.77560    1.000
    O115     O        0.12710    0.25000    0.00760    1.000
    O116     O        0.27970    0.25000    0.63600    1.000
    O117     O        0.25670    0.25000    0.20100    1.000
    O118     O        0.28420    0.25000    0.00400    1.000
    B1       B        0.26370    0.25000    0.89600    1.000
    W43      W        0.34531    0.75000    0.24765    1.000
    W44      W        0.13201    0.75000    0.55493    1.000
    O119     O        0.29250    0.75000    0.39460    1.000
    O120     O        0.12370    0.75000    0.27560    1.000
    O121     O        0.37290    0.75000    0.50760    1.000
    O122     O        0.22030    0.75000    0.13600    1.000
    O123     O        0.24330    0.75000    0.70100    1.000
    O124     O        0.21580    0.75000    0.50400    1.000
    B2       B        0.23630    0.75000    0.39600    1.000
    W45      W        0.84531    0.75000    0.25235    1.000
    W46      W        0.63201    0.75000    0.94507    1.000
    O125     O        0.79250    0.75000    0.10540    1.000
    O126     O        0.62370    0.75000    0.22440    1.000
    O127     O        0.87290    0.75000    0.99240    1.000
    O128     O        0.72030    0.75000    0.36400    1.000
    O129     O        0.74330    0.75000    0.79900    1.000
    O130     O        0.71580    0.75000    0.99600    1.000
    B3       B        0.73630    0.75000    0.10400    1.000
    W47      W        0.65469    0.25000    0.75235    1.000
    W48      W        0.86799    0.25000    0.44507    1.000
    O131     O        0.70750    0.25000    0.60540    1.000
    O132     O        0.87630    0.25000    0.72440    1.000
    O133     O        0.62710    0.25000    0.49240    1.000
    O134     O        0.77970    0.25000    0.86400    1.000
    O135     O        0.75670    0.25000    0.29900    1.000
    O136     O        0.78420    0.25000    0.49600    1.000
    B4       B        0.76370    0.25000    0.60400    1.000
