# CIF file generated by openbabel 3.1.0, see https://openbabel.org
data_I
_chemical_name_common 'VAGMEX_clean'
_cell_length_a 18.833
_cell_length_b 22.7803
_cell_length_c 22.7803
_cell_angle_alpha 60.3917
_cell_angle_beta 65.5838
_cell_angle_gamma 65.5838
_space_group_name_H-M_alt 'P 1'
_space_group_name_Hall 'P 1'
loop_
    _symmetry_equiv_pos_as_xyz
    x,y,z
loop_
    _atom_site_label
    _atom_site_type_symbol
    _atom_site_fract_x
    _atom_site_fract_y
    _atom_site_fract_z
    _atom_site_occupancy
    Zn1      Zn       0.98557    0.46646    0.96646    1.000
    Zn2      Zn       0.41849    0.03354    0.53354    1.000
    Zn3      Zn       0.01443    0.53354    0.03354    1.000
    Zn4      Zn       0.58151    0.96646    0.46646    1.000
    H1       H        0.21560    0.61640    0.86340    1.000
    H2       H        0.24950    0.58510    0.66950    1.000
    H3       H        0.15380    0.54360    0.77160    1.000
    H4       H        0.31520    0.65100    0.76400    1.000
    H5       H        0.49070    0.44400    0.61120    1.000
    H6       H        0.43190    0.51200    0.67780    1.000
    H7       H        0.69540    0.88360    0.63660    1.000
    H8       H        0.50410    0.91490    0.83050    1.000
    H9       H        0.46900    0.95640    0.72840    1.000
    H10      H        0.73020    0.84900    0.73600    1.000
    H11      H        0.54590    0.05600    0.88880    1.000
    H12      H        0.62170    0.98800    0.82220    1.000
    H13      H        0.78440    0.63660    0.88360    1.000
    H14      H        0.75050    0.83050    0.91490    1.000
    H15      H        0.84620    0.72840    0.95640    1.000
    H16      H        0.68480    0.73600    0.84900    1.000
    H17      H        0.50930    0.88880    0.05600    1.000
    H18      H        0.56810    0.82220    0.98800    1.000
    H19      H        0.30460    0.86340    0.61640    1.000
    H20      H        0.49590    0.66950    0.58510    1.000
    H21      H        0.53100    0.77160    0.54360    1.000
    H22      H        0.26980    0.76400    0.65100    1.000
    H23      H        0.45410    0.61120    0.44400    1.000
    H24      H        0.37830    0.67780    0.51200    1.000
    H25      H        0.78440    0.38360    0.13660    1.000
    H26      H        0.75050    0.41490    0.33050    1.000
    H27      H        0.84620    0.45640    0.22840    1.000
    H28      H        0.68480    0.34900    0.23600    1.000
    H29      H        0.50930    0.55600    0.38880    1.000
    H30      H        0.56810    0.48800    0.32220    1.000
    H31      H        0.30460    0.11640    0.36340    1.000
    H32      H        0.49590    0.08510    0.16950    1.000
    H33      H        0.53100    0.04360    0.27160    1.000
    H34      H        0.26980    0.15100    0.26400    1.000
    H35      H        0.45410    0.94400    0.11120    1.000
    H36      H        0.37830    0.01200    0.17780    1.000
    H37      H        0.21560    0.36340    0.11640    1.000
    H38      H        0.24950    0.16950    0.08510    1.000
    H39      H        0.15380    0.27160    0.04360    1.000
    H40      H        0.31520    0.26400    0.15100    1.000
    H41      H        0.49070    0.11120    0.94400    1.000
    H42      H        0.43190    0.17780    0.01200    1.000
    H43      H        0.69540    0.13660    0.38360    1.000
    H44      H        0.50410    0.33050    0.41490    1.000
    H45      H        0.46900    0.22840    0.45640    1.000
    H46      H        0.73020    0.23600    0.34900    1.000
    H47      H        0.54590    0.38880    0.55600    1.000
    H48      H        0.62170    0.32220    0.48800    1.000
    C1       C        0.22232    0.60898    0.82458    1.000
    C2       C        0.24411    0.59089    0.70889    1.000
    C3       C        0.11147    0.55203    0.89083    1.000
    C4       C        0.29447    0.62323    0.70563    1.000
    C5       C        0.17445    0.57722    0.82688    1.000
    C6       C        0.18555    0.56695    0.76995    1.000
    C7       C        0.28178    0.63032    0.76392    1.000
    C8       C        0.47090    0.49220    0.58960    1.000
    C9       C        0.43250    0.53340    0.63080    1.000
    C10      C        0.65588    0.89102    0.67542    1.000
    C11      C        0.54389    0.90911    0.79111    1.000
    C12      C        0.55433    0.94797    0.60917    1.000
    C13      C        0.62333    0.87677    0.79437    1.000
    C14      C        0.57855    0.92278    0.67312    1.000
    C15      C        0.52245    0.93305    0.73005    1.000
    C16      C        0.67602    0.86968    0.73608    1.000
    C17      C        0.55270    0.00780    0.91040    1.000
    C18      C        0.59670    0.96660    0.86920    1.000
    C19      C        0.77768    0.67542    0.89102    1.000
    C20      C        0.75589    0.79111    0.90911    1.000
    C21      C        0.88853    0.60917    0.94797    1.000
    C22      C        0.70553    0.79437    0.87677    1.000
    C23      C        0.82555    0.67312    0.92278    1.000
    C24      C        0.81445    0.73005    0.93305    1.000
    C25      C        0.71822    0.73608    0.86968    1.000
    C26      C        0.52910    0.91040    0.00780    1.000
    C27      C        0.56750    0.86920    0.96660    1.000
    C28      C        0.34412    0.82458    0.60898    1.000
    C29      C        0.45611    0.70889    0.59089    1.000
    C30      C        0.44567    0.89083    0.55203    1.000
    C31      C        0.37667    0.70563    0.62323    1.000
    C32      C        0.42145    0.82688    0.57722    1.000
    C33      C        0.47755    0.76995    0.56695    1.000
    C34      C        0.32398    0.76392    0.63032    1.000
    C35      C        0.44730    0.58960    0.49220    1.000
    C36      C        0.40330    0.63080    0.53340    1.000
    C37      C        0.77768    0.39102    0.17542    1.000
    C38      C        0.75589    0.40911    0.29111    1.000
    C39      C        0.88853    0.44797    0.10917    1.000
    C40      C        0.70553    0.37677    0.29437    1.000
    C41      C        0.82555    0.42278    0.17312    1.000
    C42      C        0.81445    0.43305    0.23005    1.000
    C43      C        0.71822    0.36968    0.23608    1.000
    C44      C        0.52910    0.50780    0.41040    1.000
    C45      C        0.56750    0.46660    0.36920    1.000
    C46      C        0.34412    0.10898    0.32458    1.000
    C47      C        0.45611    0.09089    0.20889    1.000
    C48      C        0.44567    0.05203    0.39083    1.000
    C49      C        0.37667    0.12323    0.20563    1.000
    C50      C        0.42145    0.07722    0.32688    1.000
    C51      C        0.47755    0.06695    0.26995    1.000
    C52      C        0.32398    0.13032    0.26392    1.000
    C53      C        0.44730    0.99220    0.08960    1.000
    C54      C        0.40330    0.03340    0.13080    1.000
    C55      C        0.22232    0.32458    0.10898    1.000
    C56      C        0.24411    0.20889    0.09089    1.000
    C57      C        0.11147    0.39083    0.05203    1.000
    C58      C        0.29447    0.20563    0.12323    1.000
    C59      C        0.17445    0.32688    0.07722    1.000
    C60      C        0.18555    0.26995    0.06695    1.000
    C61      C        0.28178    0.26392    0.13032    1.000
    C62      C        0.47090    0.08960    0.99220    1.000
    C63      C        0.43250    0.13080    0.03340    1.000
    C64      C        0.65588    0.17542    0.39102    1.000
    C65      C        0.54389    0.29111    0.40911    1.000
    C66      C        0.55433    0.10917    0.44797    1.000
    C67      C        0.62333    0.29437    0.37677    1.000
    C68      C        0.57855    0.17312    0.42278    1.000
    C69      C        0.52245    0.23005    0.43305    1.000
    C70      C        0.67602    0.23608    0.36968    1.000
    C71      C        0.55270    0.41040    0.50780    1.000
    C72      C        0.59670    0.36920    0.46660    1.000
    C73      C        0.47880    0.52120    0.52120    1.000
    C74      C        0.39670    0.60330    0.60330    1.000
    C75      C        0.52120    0.97880    0.97880    1.000
    C76      C        0.60330    0.89670    0.89670    1.000
    C77      C        0.52120    0.47880    0.47880    1.000
    C78      C        0.60330    0.39670    0.39670    1.000
    C79      C        0.47880    0.02120    0.02120    1.000
    C80      C        0.39670    0.10330    0.10330    1.000
    N1       N        0.35600    0.64400    0.64400    1.000
    N2       N        0.64400    0.85600    0.85600    1.000
    N3       N        0.64400    0.35600    0.35600    1.000
    N4       N        0.35600    0.14400    0.14400    1.000
    O1       O        0.07361    0.51795    0.88945    1.000
    O2       O        0.09800    0.56662    0.94142    1.000
    O3       O        0.48101    0.98205    0.61055    1.000
    O4       O        0.60604    0.93338    0.55858    1.000
    O5       O        0.92639    0.61055    0.98205    1.000
    O6       O        0.90200    0.55858    0.93338    1.000
    O7       O        0.51899    0.88945    0.51795    1.000
    O8       O        0.39396    0.94142    0.56662    1.000
    O9       O        0.92639    0.48205    0.11055    1.000
    O10      O        0.90200    0.43338    0.05858    1.000
    O11      O        0.51899    0.01795    0.38945    1.000
    O12      O        0.39396    0.06662    0.44142    1.000
    O13      O        0.07361    0.38945    0.01795    1.000
    O14      O        0.09800    0.44142    0.06662    1.000
    O15      O        0.48101    0.11055    0.48205    1.000
    O16      O        0.60604    0.05858    0.43338    1.000
