# CIF file generated by openbabel 3.1.0, see https://openbabel.org
data_I
_chemical_name_common 'image0'
_cell_length_a 14.9976
_cell_length_b 14.2913
_cell_length_c 16.5016
_cell_angle_alpha 90
_cell_angle_beta 108.701
_cell_angle_gamma 90
_space_group_name_H-M_alt 'P 1'
_space_group_name_Hall 'P 1'
loop_
    _symmetry_equiv_pos_as_xyz
    x,y,z
loop_
    _atom_site_label
    _atom_site_type_symbol
    _atom_site_fract_x
    _atom_site_fract_y
    _atom_site_fract_z
    _atom_site_occupancy
    Re1      Re       0.12510    0.98027    0.05810    1.000
    Re2      Re       0.00440    0.11039    0.05812    1.000
    Re3      Re       0.96812    0.93702    0.08406    1.000
    S1       S        0.08990    0.02623    0.18538    1.000
    S2       S        0.08274    0.82143    0.07792    1.000
    S3       S        0.85858    0.06192    0.07817    1.000
    S4       S        0.14952    0.14178    0.02965    1.000
    C1       C        0.26840    0.95630    0.12750    1.000
    N1       N        0.34470    0.94340    0.16760    1.000
    C2       C        0.01170    0.23770    0.12550    1.000
    N2       N        0.01780    0.30660    0.16130    1.000
    Re4      Re       0.62510    0.48027    0.05810    1.000
    Re5      Re       0.50440    0.61039    0.05812    1.000
    Re6      Re       0.46812    0.43702    0.08406    1.000
    S5       S        0.58990    0.52623    0.18538    1.000
    S6       S        0.58274    0.32143    0.07792    1.000
    S7       S        0.35858    0.56192    0.07817    1.000
    S8       S        0.64952    0.64178    0.02965    1.000
    C3       C        0.76840    0.45630    0.12750    1.000
    N3       N        0.84470    0.44340    0.16760    1.000
    C4       C        0.51170    0.73770    0.12550    1.000
    N4       N        0.51780    0.80660    0.16130    1.000
    Re7      Re       0.87490    0.98027    0.44190    1.000
    Re8      Re       0.99560    0.11039    0.44188    1.000
    Re9      Re       0.03188    0.93702    0.41594    1.000
    S9       S        0.91010    0.02623    0.31462    1.000
    S10      S        0.91726    0.82143    0.42208    1.000
    S11      S        0.14142    0.06192    0.42183    1.000
    S12      S        0.85048    0.14178    0.47035    1.000
    C5       C        0.73160    0.95630    0.37250    1.000
    N5       N        0.65530    0.94340    0.33240    1.000
    C6       C        0.98830    0.23770    0.37450    1.000
    N6       N        0.98220    0.30660    0.33870    1.000
    Re10     Re       0.37490    0.48027    0.44190    1.000
    Re11     Re       0.49560    0.61039    0.44188    1.000
    Re12     Re       0.53188    0.43702    0.41594    1.000
    S13      S        0.41010    0.52623    0.31462    1.000
    S14      S        0.41726    0.32143    0.42208    1.000
    S15      S        0.64142    0.56192    0.42183    1.000
    S16      S        0.35048    0.64178    0.47035    1.000
    C7       C        0.23160    0.45630    0.37250    1.000
    N7       N        0.15530    0.44340    0.33240    1.000
    C8       C        0.48830    0.73770    0.37450    1.000
    N8       N        0.48220    0.80660    0.33870    1.000
    Re13     Re       0.87490    0.01973    0.94190    1.000
    Re14     Re       0.99560    0.88961    0.94188    1.000
    Re15     Re       0.03188    0.06298    0.91594    1.000
    S17      S        0.91010    0.97377    0.81462    1.000
    S18      S        0.91726    0.17857    0.92208    1.000
    S19      S        0.14142    0.93808    0.92183    1.000
    S20      S        0.85048    0.85822    0.97035    1.000
    C9       C        0.73160    0.04370    0.87250    1.000
    N9       N        0.65530    0.05660    0.83240    1.000
    C10      C        0.98830    0.76230    0.87450    1.000
    N10      N        0.98220    0.69340    0.83870    1.000
    Re16     Re       0.37490    0.51973    0.94190    1.000
    Re17     Re       0.49560    0.38961    0.94188    1.000
    Re18     Re       0.53188    0.56298    0.91594    1.000
    S21      S        0.41010    0.47377    0.81462    1.000
    S22      S        0.41726    0.67857    0.92208    1.000
    S23      S        0.64142    0.43808    0.92183    1.000
    S24      S        0.35048    0.35822    0.97035    1.000
    C11      C        0.23160    0.54370    0.87250    1.000
    N11      N        0.15530    0.55660    0.83240    1.000
    C12      C        0.48830    0.26230    0.87450    1.000
    N12      N        0.48220    0.19340    0.83870    1.000
    Re19     Re       0.12510    0.01973    0.55810    1.000
    Re20     Re       0.00440    0.88961    0.55812    1.000
    Re21     Re       0.96812    0.06298    0.58406    1.000
    S25      S        0.08990    0.97377    0.68538    1.000
    S26      S        0.08274    0.17857    0.57792    1.000
    S27      S        0.85858    0.93808    0.57817    1.000
    S28      S        0.14952    0.85822    0.52965    1.000
    C13      C        0.26840    0.04370    0.62750    1.000
    N13      N        0.34470    0.05660    0.66760    1.000
    C14      C        0.01170    0.76230    0.62550    1.000
    N14      N        0.01780    0.69340    0.66130    1.000
    Re22     Re       0.62510    0.51973    0.55810    1.000
    Re23     Re       0.50440    0.38961    0.55812    1.000
    Re24     Re       0.46812    0.56298    0.58406    1.000
    S29      S        0.58990    0.47377    0.68538    1.000
    S30      S        0.58274    0.67857    0.57792    1.000
    S31      S        0.35858    0.43808    0.57817    1.000
    S32      S        0.64952    0.35822    0.52965    1.000
    C15      C        0.76840    0.54370    0.62750    1.000
    N15      N        0.84470    0.55660    0.66760    1.000
    C16      C        0.51170    0.26230    0.62550    1.000
    N16      N        0.51780    0.19340    0.66130    1.000
    Cd1      Cd       0.00000    0.42387    0.25000    1.000
    Cd2      Cd       0.50000    0.92387    0.25000    1.000
    Cd3      Cd       0.00000    0.57613    0.75000    1.000
    Cd4      Cd       0.50000    0.07613    0.75000    1.000
